# generated using pymatgen
data_TaSi2H35(C3N)4
_symmetry_space_group_name_H-M   'P 1'
_cell_length_a   8.34555521
_cell_length_b   10.25545751
_cell_length_c   14.74779312
_cell_angle_alpha   71.36884248
_cell_angle_beta   87.51390283
_cell_angle_gamma   67.53511199
_symmetry_Int_Tables_number   1
_chemical_formula_structural   TaSi2H35(C3N)4
_chemical_formula_sum   'Ta2 Si4 H70 C24 N8'
_cell_volume   1100.84064640
_cell_formula_units_Z   2
loop_
 _symmetry_equiv_pos_site_id
 _symmetry_equiv_pos_as_xyz
  1  'x, y, z'
loop_
 _atom_site_type_symbol
 _atom_site_label
 _atom_site_symmetry_multiplicity
 _atom_site_fract_x
 _atom_site_fract_y
 _atom_site_fract_z
 _atom_site_occupancy
  Ta  Ta0  1  0.19409000  0.07728800  0.18989500  1
  Ta  Ta1  1  0.80591000  0.92271200  0.81010500  1
  Si  Si0  1  0.44214600  0.76584400  0.23017500  1
  Si  Si1  1  0.55785400  0.23415600  0.76982500  1
  Si  Si2  1  0.81980700  0.21267300  0.60800800  1
  Si  Si3  1  0.18019300  0.78732700  0.39199200  1
  H  H0  1  0.05770900  0.29765500  0.35870400  1
  H  H1  1  0.42951400  0.27293700  0.03432600  1
  H  H2  1  0.09456400  0.57010500  0.46365300  1
  H  H3  1  0.90543600  0.42989500  0.53634700  1
  H  H4  1  0.96627600  0.03022500  0.40443700  1
  H  H5  1  0.21248400  0.24909000  0.93258300  1
  H  H6  1  0.01916400  0.37010700  0.23068700  1
  H  H7  1  0.35703800  0.09450800  0.42489900  1
  H  H8  1  0.32339500  0.84653600  0.51138500  1
  H  H9  1  0.98701100  0.75240700  0.01926600  1
  H  H10  1  0.29321100  0.78341200  0.80438000  1
  H  H11  1  0.38225400  0.94572700  0.05755300  1
  H  H12  1  0.05060400  0.41660600  0.94278000  1
  H  H13  1  0.03372400  0.96977500  0.59556300  1
  H  H14  1  0.64095400  0.68402800  0.85886000  1
  H  H15  1  0.90143900  0.88096600  0.46482800  1
  H  H16  1  0.45881000  0.67188600  0.49924500  1
  H  H17  1  0.69001500  0.75886100  0.32505900  1
  H  H18  1  0.52364100  0.83868500  0.66873700  1
  H  H19  1  0.57048600  0.72706300  0.96567400  1
  H  H20  1  0.80643400  0.61870700  0.71143100  1
  H  H21  1  0.29551500  0.66271200  0.14118200  1
  H  H22  1  0.46772800  0.98228300  0.35329400  1
  H  H23  1  0.47635900  0.16131600  0.33126300  1
  H  H24  1  0.70678900  0.21658800  0.19562000  1
  H  H25  1  0.52580600  0.97742300  0.12503600  1
  H  H26  1  0.28066600  0.51901600  0.39960700  1
  H  H27  1  0.72405000  0.31378600  0.43231400  1
  H  H28  1  0.70448500  0.33728800  0.85881800  1
  H  H29  1  0.86803800  0.95940000  0.33763900  1
  H  H30  1  0.92899200  0.37343500  0.66377300  1
  H  H31  1  0.54119000  0.32811400  0.50075500  1
  H  H32  1  0.30998500  0.24113900  0.67494100  1
  H  H33  1  0.47419400  0.02257700  0.87496400  1
  H  H34  1  0.52559700  0.57049200  0.15095200  1
  H  H35  1  0.40725400  0.52457300  0.25093100  1
  H  H36  1  0.59274600  0.47542700  0.74906900  1
  H  H37  1  0.76331700  0.62357000  0.26560600  1
  H  H38  1  0.07100800  0.62656500  0.33622700  1
  H  H39  1  0.74246200  0.55388000  0.97379500  1
  H  H40  1  0.64296200  0.90549200  0.57510100  1
  H  H41  1  0.19356600  0.38129300  0.28856900  1
  H  H42  1  0.67660500  0.15346400  0.48861500  1
  H  H43  1  0.27595000  0.68621400  0.56768600  1
  H  H44  1  0.01298900  0.24759300  0.98073400  1
  H  H45  1  0.94229100  0.70234500  0.64129600  1
  H  H46  1  0.25753800  0.44612000  0.02620500  1
  H  H47  1  0.23668300  0.37643000  0.73439400  1
  H  H48  1  0.47440300  0.42950800  0.84904800  1
  H  H49  1  0.16823500  0.04973400  0.81289300  1
  H  H50  1  0.53227200  0.01771700  0.64670600  1
  H  H51  1  0.94939600  0.58339400  0.05722000  1
  H  H52  1  0.09856100  0.11903400  0.53517200  1
  H  H53  1  0.73079200  0.28912900  0.07105200  1
  H  H54  1  0.83542500  0.32557800  0.15720300  1
  H  H55  1  0.83287900  0.03869800  0.06174000  1
  H  H56  1  0.65841500  0.58910900  0.37290000  1
  H  H57  1  0.16712100  0.96130200  0.93826000  1
  H  H58  1  0.98083600  0.62989300  0.76931300  1
  H  H59  1  0.83176500  0.95026600  0.18710700  1
  H  H60  1  0.02778100  0.89686900  0.13044400  1
  H  H61  1  0.34158500  0.41089100  0.62710000  1
  H  H62  1  0.13196200  0.04060000  0.66236100  1
  H  H63  1  0.78751600  0.75091000  0.06741700  1
  H  H64  1  0.35904600  0.31597200  0.14114000  1
  H  H65  1  0.61774600  0.05427300  0.94244700  1
  H  H66  1  0.71933400  0.48098400  0.60039300  1
  H  H67  1  0.26920800  0.71087100  0.92894800  1
  H  H68  1  0.16457500  0.67442200  0.84279700  1
  H  H69  1  0.97221900  0.10313100  0.86955600  1
  C  C0  1  0.58160200  0.06130100  0.86959300  1
  C  C1  1  0.91023300  0.99264800  0.13188100  1
  C  C2  1  0.04133200  0.07229300  0.59989900  1
  C  C3  1  0.19993200  0.75973000  0.85621300  1
  C  C4  1  0.41428400  0.61734700  0.18989900  1
  C  C5  1  0.87886100  0.68996200  0.70921800  1
  C  C6  1  0.58571600  0.38265300  0.81010100  1
  C  C7  1  0.60813700  0.90257200  0.64876900  1
  C  C8  1  0.11218200  0.29415800  0.97854000  1
  C  C9  1  0.31405900  0.32616400  0.06942100  1
  C  C10  1  0.65764700  0.67615100  0.30569100  1
  C  C11  1  0.32323800  0.74416800  0.50255500  1
  C  C12  1  0.68594100  0.67383600  0.93057900  1
  C  C13  1  0.12113900  0.31003800  0.29078200  1
  C  C14  1  0.88781800  0.70584200  0.02146000  1
  C  C15  1  0.08976700  0.00735200  0.86811900  1
  C  C16  1  0.34235300  0.32384900  0.69430900  1
  C  C17  1  0.15464100  0.60943400  0.39808300  1
  C  C18  1  0.84535900  0.39056600  0.60191700  1
  C  C19  1  0.80006800  0.24027000  0.14378700  1
  C  C20  1  0.41839800  0.93869900  0.13040700  1
  C  C21  1  0.67676200  0.25583200  0.49744500  1
  C  C22  1  0.95866800  0.92770700  0.40010100  1
  C  C23  1  0.39186300  0.09742800  0.35123100  1
  N  N0  1  0.81295100  0.74134400  0.92479500  1
  N  N1  1  0.23633700  0.16563500  0.28425900  1
  N  N2  1  0.95368100  0.10596200  0.15189700  1
  N  N3  1  0.26661000  0.85666200  0.28677300  1
  N  N4  1  0.04631900  0.89403800  0.84810300  1
  N  N5  1  0.18704900  0.25865600  0.07520500  1
  N  N6  1  0.76366300  0.83436500  0.71574100  1
  N  N7  1  0.73339000  0.14333800  0.71322700  1
loop_
_geom_bond_atom_site_label_1
_geom_bond_atom_site_label_2
_geom_bond_distance
_geom_bond_site_symmetry_2
C0 H65 1.101188 1_555
C0 H33 1.101489 1_555
C0 Si1 1.853887 1_555
C0 Ta1 2.216969 1_545
C1 H60 1.096690 1_655
C1 H55 1.105719 1_565
C1 H59 1.107326 1_555
C1 N2 1.455870 1_565
C2 H62 1.098885 1_555
C2 H13 1.099010 1_545
C2 H52 1.100978 1_555
C2 Si2 1.887210 1_455
C3 H68 1.097530 1_555
C3 H10 1.106154 1_555
C3 H67 1.106775 1_555
C3 N4 1.453807 1_555
C4 H35 1.099879 1_555
C4 H21 1.100406 1_555
C4 H34 1.101232 1_555
C4 Si0 1.893860 1_555
C5 H58 1.097797 1_555
C5 H20 1.105001 1_555
C5 H45 1.106275 1_555
C5 N6 1.456564 1_555
C6 H36 1.099879 1_555
C6 H28 1.100406 1_555
C6 H48 1.101232 1_555
C6 Si1 1.893860 1_555
C7 H50 1.097071 1_565
C7 H40 1.106430 1_555
C7 H18 1.106819 1_555
C7 N6 1.457882 1_555
C8 H44 1.097409 1_555
C8 H12 1.107398 1_555
C8 H5 1.108578 1_555
C8 N5 1.458439 1_556
C9 H64 1.097463 1_555
C9 H46 1.106226 1_555
C9 H1 1.108852 1_555
C9 N5 1.457867 1_555
C10 H56 1.100076 1_555
C10 H17 1.100300 1_555
C10 H37 1.101359 1_555
C10 Si0 1.890996 1_555
C11 H8 1.098873 1_555
C11 H16 1.099712 1_555
C11 H43 1.101464 1_555
C11 Si3 1.893064 1_555
C12 H14 1.097463 1_555
C12 H39 1.106226 1_555
C12 H19 1.108852 1_555
C12 N0 1.457867 1_555
C13 H6 1.097797 1_555
C13 H41 1.105001 1_555
C13 H0 1.106275 1_555
C13 N1 1.456564 1_555
C14 H9 1.097409 1_555
C14 H51 1.107398 1_555
C14 H63 1.108578 1_555
C14 N0 1.458439 1_554
C15 H69 1.096690 1_455
C15 H57 1.105719 1_545
C15 H49 1.107326 1_555
C15 N4 1.455870 1_545
C16 H61 1.100076 1_555
C16 H32 1.100300 1_555
C16 H47 1.101359 1_555
C16 Si1 1.890996 1_555
C17 H38 1.099692 1_555
C17 H26 1.099968 1_555
C17 H2 1.101111 1_555
C17 Si3 1.890192 1_555
C18 H30 1.099692 1_555
C18 H66 1.099968 1_555
C18 H3 1.101111 1_555
C18 Si2 1.890192 1_555
C19 H54 1.097530 1_555
C19 H24 1.106154 1_555
C19 H53 1.106775 1_555
C19 N2 1.453807 1_555
C20 H11 1.101188 1_555
C20 H25 1.101489 1_555
C20 Si0 1.853887 1_555
C20 Ta0 2.216969 1_565
C21 H42 1.098873 1_555
C21 H31 1.099712 1_555
C21 H27 1.101464 1_555
C21 Si2 1.893064 1_555
C22 H29 1.098885 1_555
C22 H4 1.099010 1_565
C22 H15 1.100978 1_555
C22 Si3 1.887210 1_655
C23 H22 1.097071 1_545
C23 H7 1.106430 1_555
C23 H23 1.106827 1_555
C23 N1 1.457882 1_555
N0 Ta1 2.058866 1_555
N1 Ta0 1.993561 1_555
N2 Ta0 1.991805 1_655
N3 Si3 1.738813 1_555
N3 Si0 1.748760 1_555
N3 Ta0 2.118961 1_565
N4 Ta1 1.991805 1_455
N5 Ta0 2.058866 1_555
N6 Ta1 1.993561 1_555
N7 Si2 1.738813 1_555
N7 Si1 1.748760 1_555
N7 Ta1 2.118961 1_545
