# generated using pymatgen
data_Cs2Sn(H2N)6
_symmetry_space_group_name_H-M   'P 1'
_cell_length_a   7.03636179
_cell_length_b   7.03636179
_cell_length_c   6.00198700
_cell_angle_alpha   90.00000000
_cell_angle_beta   90.00000000
_cell_angle_gamma   119.99999803
_symmetry_Int_Tables_number   1
_chemical_formula_structural   Cs2Sn(H2N)6
_chemical_formula_sum   'Cs2 Sn1 H12 N6'
_cell_volume   257.34872084
_cell_formula_units_Z   1
loop_
 _symmetry_equiv_pos_site_id
 _symmetry_equiv_pos_as_xyz
  1  'x, y, z'
loop_
 _atom_site_type_symbol
 _atom_site_label
 _atom_site_symmetry_multiplicity
 _atom_site_fract_x
 _atom_site_fract_y
 _atom_site_fract_z
 _atom_site_occupancy
  Cs  Cs0  1  0.33333300  0.66666700  0.27825800  1
  Cs  Cs1  1  0.66666700  0.33333300  0.72174200  1
  Sn  Sn0  1  0.00000000  0.00000000  0.00000000  1
  H  H0  1  0.40480000  0.14432600  0.16597000  1
  H  H1  1  0.85567400  0.26047400  0.16597000  1
  H  H2  1  0.73952600  0.59520000  0.16597000  1
  H  H3  1  0.59520000  0.85567400  0.83403000  1
  H  H4  1  0.14432600  0.73952600  0.83403000  1
  H  H5  1  0.26047400  0.40480000  0.83403000  1
  H  H6  1  0.25791000  0.14944400  0.37007100  1
  H  H7  1  0.85055600  0.10846600  0.37007100  1
  H  H8  1  0.89153400  0.74209000  0.37007100  1
  H  H9  1  0.74209000  0.85055600  0.62992900  1
  H  H10  1  0.14944400  0.89153400  0.62992900  1
  H  H11  1  0.10846600  0.25791000  0.62992900  1
  N  N0  1  0.29713200  0.19739700  0.20693500  1
  N  N1  1  0.80260300  0.09973500  0.20693500  1
  N  N2  1  0.90026500  0.70286800  0.20693500  1
  N  N3  1  0.70286800  0.80260300  0.79306500  1
  N  N4  1  0.19739700  0.90026500  0.79306500  1
  N  N5  1  0.09973500  0.29713200  0.79306500  1
loop_
_geom_bond_atom_site_label_1
_geom_bond_atom_site_label_2
_geom_bond_distance
_geom_bond_site_symmetry_2
Cs0 H4 3.134040 1_554
Cs0 H3 3.134043 1_554
Cs0 H5 3.134044 1_554
Cs0 N2 3.210904 1_455
Cs0 N1 3.210908 1_565
Cs0 N0 3.210911 1_555
Cs0 H0 3.211410 1_565
Cs0 H1 3.211413 1_455
Cs0 H2 3.211417 1_555
Cs0 H10 3.268049 1_555
Cs0 H11 3.268054 1_555
Cs0 H9 3.268054 1_555
Cs1 H1 3.134040 1_556
Cs1 H0 3.134043 1_556
Cs1 H2 3.134044 1_556
Cs1 N5 3.210904 1_655
Cs1 N4 3.210908 1_545
Cs1 N3 3.210911 1_555
Cs1 H3 3.211410 1_545
Cs1 H4 3.211413 1_655
Cs1 H5 3.211417 1_555
Cs1 H7 3.268049 1_555
Cs1 H8 3.268054 1_555
Cs1 H6 3.268054 1_555
H0 N0 1.027983 1_555
H1 N1 1.027983 1_555
H2 N2 1.027983 1_555
H3 N3 1.027983 1_555
H4 N4 1.027983 1_555
H5 N5 1.027983 1_555
H6 N0 1.027429 1_555
H7 N1 1.027429 1_555
H8 N2 1.027429 1_555
H9 N3 1.027429 1_555
H10 N4 1.027429 1_555
H11 N5 1.027429 1_555
N0 Sn0 2.222393 1_555
N1 Sn0 2.222393 1_655
N2 Sn0 2.222393 1_665
N3 Sn0 2.222393 1_666
N4 Sn0 2.222393 1_566
N5 Sn0 2.222393 1_556
