# generated using pymatgen
data_Sc7CoI12
_symmetry_space_group_name_H-M   'P 1'
_cell_length_a   9.34981998
_cell_length_b   9.34981999
_cell_length_c   9.34982040
_cell_angle_alpha   107.18510027
_cell_angle_beta   107.18510027
_cell_angle_gamma   107.18511009
_symmetry_Int_Tables_number   1
_chemical_formula_structural   Sc7CoI12
_chemical_formula_sum   'Sc7 Co1 I12'
_cell_volume   677.23303487
_cell_formula_units_Z   1
loop_
 _symmetry_equiv_pos_site_id
 _symmetry_equiv_pos_as_xyz
  1  'x, y, z'
loop_
 _atom_site_type_symbol
 _atom_site_label
 _atom_site_symmetry_multiplicity
 _atom_site_fract_x
 _atom_site_fract_y
 _atom_site_fract_z
 _atom_site_occupancy
  Sc  Sc0  1  0.50000000  0.50000000  0.50000000  1
  Sc  Sc1  1  0.97673105  0.91098627  0.71978394  1
  Sc  Sc2  1  0.71978394  0.97673105  0.91098627  1
  Sc  Sc3  1  0.91098627  0.71978394  0.97673105  1
  Sc  Sc4  1  0.02326895  0.08901373  0.28021606  1
  Sc  Sc5  1  0.28021606  0.02326895  0.08901373  1
  Sc  Sc6  1  0.08901373  0.28021606  0.02326895  1
  Co  Co0  1  -0.00000000  0.00000000  -0.00000000  1
  I  I0  1  0.07273655  0.22391681  0.68586806  1
  I  I1  1  0.68586806  0.07273655  0.22391681  1
  I  I2  1  0.22391681  0.68586806  0.07273655  1
  I  I3  1  0.92726345  0.77608319  0.31413194  1
  I  I4  1  0.31413194  0.92726345  0.77608319  1
  I  I5  1  0.77608319  0.31413194  0.92726345  1
  I  I6  1  0.61505151  0.84012936  0.54077907  1
  I  I7  1  0.54077907  0.61505151  0.84012936  1
  I  I8  1  0.84012936  0.54077907  0.61505151  1
  I  I9  1  0.38494849  0.15987064  0.45922093  1
  I  I10  1  0.45922093  0.38494849  0.15987064  1
  I  I11  1  0.15987064  0.45922093  0.38494849  1
loop_
_geom_bond_atom_site_label_1
_geom_bond_atom_site_label_2
_geom_bond_distance
_geom_bond_site_symmetry_2
Co0 Sc6 2.423203 1_555
Co0 Sc3 2.423203 1_444
Co0 Sc5 2.423203 1_555
Co0 Sc2 2.423203 1_444
Co0 Sc4 2.423203 1_555
Co0 Sc1 2.423203 1_444
I0 Sc1 2.937920 1_445
I0 Sc6 2.989931 1_556
I0 Sc4 3.461467 1_555
I1 Sc2 2.937921 1_544
I1 Sc4 2.989931 1_655
I1 Sc5 3.461467 1_555
I2 Sc3 2.937921 1_454
I2 Sc5 2.989931 1_565
I2 Sc6 3.461467 1_555
I3 Sc4 2.937920 1_665
I3 Sc3 2.989931 1_554
I3 Sc1 3.461467 1_555
I4 Sc5 2.937921 1_566
I4 Sc1 2.989931 1_455
I4 Sc2 3.461467 1_555
I5 Sc6 2.937921 1_656
I5 Sc2 2.989931 1_545
I5 Sc3 3.461467 1_555
I6 Sc0 2.904396 1_555
I6 Sc2 3.035933 1_555
I6 Sc1 3.058108 1_555
I7 Sc0 2.904397 1_555
I7 Sc3 3.035933 1_555
I7 Sc2 3.058108 1_555
I8 Sc0 2.904397 1_555
I8 Sc1 3.035933 1_555
I8 Sc3 3.058108 1_555
I9 Sc0 2.904396 1_555
I9 Sc5 3.035933 1_555
I9 Sc4 3.058108 1_555
I10 Sc0 2.904397 1_555
I10 Sc6 3.035933 1_555
I10 Sc5 3.058108 1_555
I11 Sc0 2.904397 1_555
I11 Sc4 3.035933 1_555
I11 Sc6 3.058108 1_555
