# generated using pymatgen
data_Ba3NaNd3(Si3O10)2
_symmetry_space_group_name_H-M   'P 1'
_cell_length_a   12.54874307
_cell_length_b   12.54874307
_cell_length_c   15.00677400
_cell_angle_alpha   90.00000000
_cell_angle_beta   90.00000000
_cell_angle_gamma   153.96310124
_symmetry_Int_Tables_number   1
_chemical_formula_structural   Ba3NaNd3(Si3O10)2
_chemical_formula_sum   'Ba6 Na2 Nd6 Si12 O40'
_cell_volume   1037.29607643
_cell_formula_units_Z   2
loop_
 _symmetry_equiv_pos_site_id
 _symmetry_equiv_pos_as_xyz
  1  'x, y, z'
loop_
 _atom_site_type_symbol
 _atom_site_label
 _atom_site_symmetry_multiplicity
 _atom_site_fract_x
 _atom_site_fract_y
 _atom_site_fract_z
 _atom_site_occupancy
  Ba  Ba0  1  0.68784500  0.17440300  0.38672100  1
  Ba  Ba1  1  0.17440300  0.68784500  0.61327900  1
  Ba  Ba2  1  0.17440300  0.68784500  0.88672100  1
  Ba  Ba3  1  0.84756400  0.01394200  0.25000000  1
  Ba  Ba4  1  0.01394200  0.84756400  0.75000000  1
  Ba  Ba5  1  0.68784500  0.17440300  0.11327900  1
  Na  Na0  1  0.46775000  0.24386100  0.25000000  1
  Na  Na1  1  0.24386100  0.46775000  0.75000000  1
  Nd  Nd0  1  0.61297700  0.39112000  0.53120100  1
  Nd  Nd1  1  0.39112000  0.61297700  0.03120100  1
  Nd  Nd2  1  0.61297700  0.39112000  0.96879900  1
  Nd  Nd3  1  0.39112000  0.61297700  0.46879900  1
  Nd  Nd4  1  0.00857000  0.00857000  0.50000000  1
  Nd  Nd5  1  0.00857000  0.00857000  0.00000000  1
  Si  Si0  1  0.81032700  0.11481600  0.94221200  1
  Si  Si1  1  0.11481600  0.81032700  0.44221200  1
  Si  Si2  1  0.44143900  0.44293000  0.35880300  1
  Si  Si3  1  0.09297300  0.71440000  0.25000000  1
  Si  Si4  1  0.81032700  0.11481600  0.55778800  1
  Si  Si5  1  0.71440000  0.09297300  0.75000000  1
  Si  Si6  1  0.44293000  0.44143900  0.64119700  1
  Si  Si7  1  0.44143900  0.44293000  0.14119700  1
  Si  Si8  1  0.11481600  0.81032700  0.05778800  1
  Si  Si9  1  0.28119800  0.64425900  0.25000000  1
  Si  Si10  1  0.44293000  0.44143900  0.85880300  1
  Si  Si11  1  0.64425900  0.28119800  0.75000000  1
  O  O0  1  0.79063800  0.97132400  0.53167700  1
  O  O1  1  0.66935100  0.72308800  0.11033200  1
  O  O2  1  0.18851600  0.87442000  0.33419000  1
  O  O3  1  0.54191600  0.92151600  0.96716300  1
  O  O4  1  0.81077300  0.43025300  0.25000000  1
  O  O5  1  0.97132400  0.79063800  0.46832300  1
  O  O6  1  0.19328100  0.29034900  0.12023600  1
  O  O7  1  0.78392200  0.28499300  0.75000000  1
  O  O8  1  0.40952500  0.30366700  0.08564800  1
  O  O9  1  0.99894000  0.35333000  0.25000000  1
  O  O10  1  0.29034900  0.19328100  0.62023600  1
  O  O11  1  0.92151600  0.54191600  0.03283700  1
  O  O12  1  0.44512800  0.75887400  0.33724700  1
  O  O13  1  0.36971500  0.02137400  0.00411900  1
  O  O14  1  0.87442000  0.18851600  0.83419000  1
  O  O15  1  0.30366700  0.40952500  0.58564800  1
  O  O16  1  0.30366700  0.40952500  0.91435200  1
  O  O17  1  0.72308800  0.66935100  0.88966800  1
  O  O18  1  0.35333000  0.99894000  0.75000000  1
  O  O19  1  0.43025300  0.81077300  0.75000000  1
  O  O20  1  0.19328100  0.29034900  0.37976400  1
  O  O21  1  0.18851600  0.87442000  0.16581000  1
  O  O22  1  0.72308800  0.66935100  0.61033200  1
  O  O23  1  0.75887400  0.44512800  0.83724700  1
  O  O24  1  0.79063800  0.97132400  0.96832300  1
  O  O25  1  0.46215600  0.43187100  0.25000000  1
  O  O26  1  0.54191600  0.92151600  0.53283700  1
  O  O27  1  0.28499300  0.78392200  0.25000000  1
  O  O28  1  0.36971500  0.02137400  0.49588100  1
  O  O29  1  0.44512800  0.75887400  0.16275300  1
  O  O30  1  0.92151600  0.54191600  0.46716300  1
  O  O31  1  0.02137500  0.36971500  0.99588100  1
  O  O32  1  0.66935100  0.72308800  0.38966800  1
  O  O33  1  0.40952500  0.30366700  0.41435200  1
  O  O34  1  0.87442000  0.18851600  0.66581000  1
  O  O35  1  0.29034900  0.19328100  0.87976400  1
  O  O36  1  0.97132400  0.79063800  0.03167700  1
  O  O37  1  0.75887400  0.44512800  0.66275300  1
  O  O38  1  0.43187100  0.46215600  0.75000000  1
  O  O39  1  0.02137500  0.36971500  0.50411900  1
loop_
_geom_bond_atom_site_label_1
_geom_bond_atom_site_label_2
_geom_bond_distance
_geom_bond_site_symmetry_2
Ba0 O30 2.650103 1_555
Ba0 O26 2.790892 1_545
Ba0 O4 2.827923 1_555
Ba0 O39 2.862572 1_655
Ba0 O12 2.911630 1_545
Ba0 O28 2.920951 1_555
Ba0 O9 2.956276 1_555
Ba0 O27 3.043306 1_545
Ba1 O26 2.650103 1_555
Ba1 O30 2.790892 1_455
Ba1 O19 2.827923 1_555
Ba1 O28 2.862564 1_565
Ba1 O37 2.911630 1_455
Ba1 O39 2.920958 1_555
Ba1 O18 2.956276 1_555
Ba1 O7 3.043306 1_455
Ba2 O3 2.650103 1_555
Ba2 O11 2.790892 1_456
Ba2 O19 2.827923 1_555
Ba2 O13 2.862564 1_566
Ba2 O23 2.911630 1_455
Ba2 O31 2.920958 1_555
Ba2 O18 2.956276 1_555
Ba2 O7 3.043306 1_455
Ba3 O9 2.684859 1_555
Ba3 O20 2.757342 1_655
Ba3 O6 2.757342 1_655
Ba3 O1 2.836870 1_545
Ba3 O32 2.836870 1_545
Ba3 O29 2.900872 1_545
Ba3 O12 2.900872 1_545
Ba4 O18 2.684859 1_555
Ba4 O35 2.757342 1_565
Ba4 O10 2.757342 1_565
Ba4 O17 2.836870 1_455
Ba4 O22 2.836870 1_455
Ba4 O37 2.900872 1_455
Ba4 O23 2.900872 1_455
Ba5 O11 2.650103 1_555
Ba5 O3 2.790892 1_544
Ba5 O4 2.827923 1_555
Ba5 O31 2.862572 1_654
Ba5 O29 2.911630 1_545
Ba5 O13 2.920951 1_555
Ba5 O9 2.956276 1_555
Ba5 O27 3.043306 1_545
Na0 O25 2.422559 1_555
Na0 O4 2.430408 1_555
Na0 O21 2.484942 1_545
Na0 O2 2.484942 1_545
Na0 O33 2.857547 1_555
Na0 O8 2.857547 1_555
Na1 O38 2.422559 1_555
Na1 O19 2.430408 1_555
Na1 O34 2.484942 1_455
Na1 O14 2.484942 1_455
Na1 O15 2.857547 1_555
Na1 O16 2.857547 1_555
Nd0 O37 2.340689 1_555
Nd0 O28 2.382248 1_555
Nd0 O5 2.394433 1_555
Nd0 O33 2.400510 1_555
Nd0 O10 2.505507 1_555
Nd0 O30 2.515746 1_555
Nd0 O22 2.615377 1_555
Nd1 O29 2.340689 1_555
Nd1 O31 2.382238 1_554
Nd1 O24 2.394433 1_554
Nd1 O16 2.400510 1_554
Nd1 O6 2.505507 1_555
Nd1 O3 2.515746 1_554
Nd1 O1 2.615377 1_555
Nd2 O23 2.340689 1_555
Nd2 O13 2.382248 1_556
Nd2 O36 2.394433 1_556
Nd2 O8 2.400510 1_556
Nd2 O35 2.505507 1_555
Nd2 O11 2.515746 1_556
Nd2 O17 2.615377 1_555
Nd3 O12 2.340689 1_555
Nd3 O39 2.382238 1_555
Nd3 O0 2.394433 1_555
Nd3 O15 2.400510 1_555
Nd3 O20 2.505507 1_555
Nd3 O26 2.515746 1_555
Nd3 O32 2.615377 1_555
Nd4 O0 2.372013 1_445
Nd4 O5 2.372013 1_445
Nd4 O32 2.508282 1_445
Nd4 O22 2.508282 1_445
Nd4 O20 2.530418 1_555
Nd4 O10 2.530418 1_555
Nd4 O15 2.682998 1_555
Nd4 O33 2.682998 1_555
Nd5 O24 2.372013 1_444
Nd5 O36 2.372013 1_445
Nd5 O1 2.508282 1_445
Nd5 O17 2.508282 1_444
Nd5 O6 2.530418 1_555
Nd5 O35 2.530418 1_554
Nd5 O16 2.682998 1_554
Nd5 O8 2.682998 1_555
O0 Si4 1.630162 1_565
O1 Si7 1.638676 1_555
O2 Si3 1.655161 1_555
O2 Si1 1.671334 1_555
O3 Si0 1.639195 1_565
O4 Si3 1.601121 1_655
O5 Si1 1.630162 1_655
O6 Si7 1.657616 1_555
O7 Si5 1.670229 1_555
O7 Si11 1.709934 1_555
O8 Si7 1.628383 1_555
O9 Si9 1.623744 1_655
O10 Si6 1.657616 1_555
O11 Si8 1.639195 1_655
O12 Si9 1.642488 1_555
O13 Si8 1.634305 1_545
O14 Si5 1.655161 1_555
O14 Si0 1.671334 1_555
O15 Si6 1.628383 1_555
O16 Si10 1.628383 1_555
O17 Si10 1.638676 1_555
O18 Si11 1.623744 1_565
O19 Si5 1.601121 1_565
O20 Si2 1.657616 1_555
O21 Si3 1.655161 1_555
O21 Si8 1.671334 1_555
O22 Si6 1.638676 1_555
O23 Si11 1.642488 1_555
O24 Si0 1.630162 1_565
O25 Si2 1.678587 1_555
O25 Si7 1.678587 1_555
O26 Si4 1.639195 1_565
O27 Si3 1.670229 1_555
O27 Si9 1.709934 1_555
O28 Si1 1.634305 1_545
O29 Si9 1.642488 1_555
O30 Si1 1.639195 1_655
O31 Si0 1.634303 1_455
O32 Si2 1.638676 1_555
O33 Si2 1.628383 1_555
O34 Si5 1.655161 1_555
O34 Si4 1.671334 1_555
O35 Si10 1.657616 1_555
O36 Si8 1.630162 1_655
O37 Si11 1.642488 1_555
O38 Si10 1.678587 1_555
O38 Si6 1.678587 1_555
O39 Si4 1.634303 1_455
