# generated using pymatgen
data_K8Zr(MoO4)6
_symmetry_space_group_name_H-M   'P 1'
_cell_length_a   12.11706500
_cell_length_b   10.45390500
_cell_length_c   13.36085427
_cell_angle_alpha   60.93863287
_cell_angle_beta   90.00000000
_cell_angle_gamma   90.00000000
_symmetry_Int_Tables_number   1
_chemical_formula_structural   K8Zr(MoO4)6
_chemical_formula_sum   'K16 Zr2 Mo12 O48'
_cell_volume   1479.35126474
_cell_formula_units_Z   2
loop_
 _symmetry_equiv_pos_site_id
 _symmetry_equiv_pos_as_xyz
  1  'x, y, z'
loop_
 _atom_site_type_symbol
 _atom_site_label
 _atom_site_symmetry_multiplicity
 _atom_site_fract_x
 _atom_site_fract_y
 _atom_site_fract_z
 _atom_site_occupancy
  K  K0  1  0.29783200  0.19244100  0.20562100  1
  K  K1  1  0.44369400  0.83284900  0.27992600  1
  K  K2  1  0.05630600  0.83284900  0.77992600  1
  K  K3  1  0.92992600  0.64065000  0.60854500  1
  K  K4  1  0.42992600  0.35935000  0.89145500  1
  K  K5  1  0.77925500  0.39551900  0.92306400  1
  K  K6  1  0.79783200  0.80755900  0.29437900  1
  K  K7  1  0.94369400  0.16715100  0.22007400  1
  K  K8  1  0.20216800  0.19244100  0.70562100  1
  K  K9  1  0.27925500  0.60448100  0.57693600  1
  K  K10  1  0.22074500  0.60448100  0.07693600  1
  K  K11  1  0.55630600  0.16715100  0.72007400  1
  K  K12  1  0.57007400  0.64065000  0.10854500  1
  K  K13  1  0.70216800  0.80755900  0.79437900  1
  K  K14  1  0.07007400  0.35935000  0.39145500  1
  K  K15  1  0.72074500  0.39551900  0.42306400  1
  Zr  Zr0  1  0.00000000  0.00000000  0.00000000  1
  Zr  Zr1  1  0.50000000  0.00000000  0.50000000  1
  Mo  Mo0  1  0.60519700  0.23452500  0.20507100  1
  Mo  Mo1  1  0.10519700  0.76547500  0.29492900  1
  Mo  Mo2  1  0.39480300  0.76547500  0.79492900  1
  Mo  Mo3  1  0.82010600  0.01368100  0.50668800  1
  Mo  Mo4  1  0.60721300  0.61354100  0.59844300  1
  Mo  Mo5  1  0.17989400  0.98631900  0.49331200  1
  Mo  Mo6  1  0.89480300  0.23452500  0.70507100  1
  Mo  Mo7  1  0.89278700  0.61354100  0.09844300  1
  Mo  Mo8  1  0.67989400  0.01368100  0.00668800  1
  Mo  Mo9  1  0.32010600  0.98631900  0.99331200  1
  Mo  Mo10  1  0.39278700  0.38645900  0.40155700  1
  Mo  Mo11  1  0.10721300  0.38645900  0.90155700  1
  O  O0  1  0.65445200  0.92803900  0.92222800  1
  O  O1  1  0.68030600  0.61426900  0.71383800  1
  O  O2  1  0.47498800  0.21413300  0.47898800  1
  O  O3  1  0.02501200  0.21413300  0.97898800  1
  O  O4  1  0.48609000  0.67084100  0.91133100  1
  O  O5  1  0.47477200  0.92013800  0.67771700  1
  O  O6  1  0.11877200  0.09932700  0.35657800  1
  O  O7  1  0.34554800  0.07196100  0.07777200  1
  O  O8  1  0.52522800  0.07986200  0.32228300  1
  O  O9  1  0.83174300  0.02119700  0.02577600  1
  O  O10  1  0.52501200  0.78586700  0.52101200  1
  O  O11  1  0.27477600  0.82313700  0.84017300  1
  O  O12  1  0.01639600  0.53958900  0.84758100  1
  O  O13  1  0.61877200  0.90067300  0.14342200  1
  O  O14  1  0.16825700  0.97880300  0.97422400  1
  O  O15  1  0.02522800  0.92013800  0.17771700  1
  O  O16  1  0.14575300  0.64110100  0.24762400  1
  O  O17  1  0.81969400  0.61426900  0.21383800  1
  O  O18  1  0.77477600  0.17686300  0.65982700  1
  O  O19  1  0.15445200  0.07196100  0.57777200  1
  O  O20  1  0.20395000  0.39799300  0.99762800  1
  O  O21  1  0.01391000  0.67084100  0.41133100  1
  O  O22  1  0.72522400  0.17686300  0.15982700  1
  O  O23  1  0.51639600  0.46041100  0.65241900  1
  O  O24  1  0.98609000  0.32915900  0.58866900  1
  O  O25  1  0.62180200  0.19174000  0.93160700  1
  O  O26  1  0.37819800  0.80826000  0.06839300  1
  O  O27  1  0.48360400  0.53958900  0.34758100  1
  O  O28  1  0.12180200  0.80826000  0.56839300  1
  O  O29  1  0.35424700  0.64110100  0.74762400  1
  O  O30  1  0.88122800  0.90067300  0.64342200  1
  O  O31  1  0.97477200  0.07986200  0.82228300  1
  O  O32  1  0.66825700  0.02119700  0.52577600  1
  O  O33  1  0.22522400  0.82313700  0.34017300  1
  O  O34  1  0.31969400  0.38573100  0.28616200  1
  O  O35  1  0.85424700  0.35889900  0.75237600  1
  O  O36  1  0.98360400  0.46041100  0.15241900  1
  O  O37  1  0.33174300  0.97880300  0.47422400  1
  O  O38  1  0.51391000  0.32915900  0.08866900  1
  O  O39  1  0.84554800  0.92803900  0.42222800  1
  O  O40  1  0.38122800  0.09932700  0.85657800  1
  O  O41  1  0.97498800  0.78586700  0.02101200  1
  O  O42  1  0.79605000  0.60200700  0.00237200  1
  O  O43  1  0.64575300  0.35889900  0.25237600  1
  O  O44  1  0.87819800  0.19174000  0.43160700  1
  O  O45  1  0.18030600  0.38573100  0.78616200  1
  O  O46  1  0.29605000  0.39799300  0.49762800  1
  O  O47  1  0.70395000  0.60200700  0.50237200  1
loop_
_geom_bond_atom_site_label_1
_geom_bond_atom_site_label_2
_geom_bond_distance
_geom_bond_site_symmetry_2
K0 O7 2.632211 1_555
K0 O34 2.724617 1_555
K0 O6 2.795653 1_555
K0 O20 2.798729 1_554
K0 O38 3.028180 1_555
K0 O8 3.102350 1_555
K0 O37 3.201476 1_545
K1 O13 2.659550 1_555
K1 O33 2.754380 1_555
K1 O27 2.785203 1_555
K1 O7 2.898055 1_565
K1 O8 3.063338 1_565
K1 O26 3.064220 1_555
K1 O10 3.170293 1_555
K2 O30 2.659550 1_455
K2 O11 2.754380 1_555
K2 O12 2.785203 1_555
K2 O19 2.898055 1_565
K2 O31 3.063338 1_465
K2 O28 3.064220 1_555
K2 O41 3.170293 1_456
K3 O21 2.696337 1_655
K3 O35 2.776760 1_555
K3 O28 2.801829 1_655
K3 O39 3.000434 1_555
K3 O12 3.022568 1_655
K3 O30 3.030645 1_555
K3 O47 3.198403 1_555
K3 O1 3.290413 1_555
K4 O38 2.696337 1_556
K4 O29 2.776760 1_555
K4 O25 2.801829 1_555
K4 O7 3.000434 1_556
K4 O23 3.022568 1_555
K4 O40 3.030645 1_555
K4 O20 3.198403 1_555
K4 O45 3.290413 1_555
K5 O35 2.649766 1_555
K5 O25 2.820441 1_555
K5 O42 2.836529 1_556
K5 O1 2.875948 1_555
K5 O22 2.938653 1_556
K5 O12 3.172781 1_655
K6 O39 2.632211 1_555
K6 O17 2.724617 1_555
K6 O13 2.795653 1_555
K6 O47 2.798729 1_555
K6 O21 3.028180 1_655
K6 O15 3.102350 1_655
K6 O9 3.201476 1_565
K7 O6 2.659550 1_655
K7 O22 2.754380 1_555
K7 O36 2.785203 1_555
K7 O39 2.898055 1_545
K7 O15 3.063338 1_645
K7 O44 3.064220 1_555
K7 O3 3.170293 1_654
K8 O19 2.632211 1_555
K8 O45 2.724617 1_555
K8 O40 2.795653 1_555
K8 O46 2.798729 1_555
K8 O24 3.028180 1_455
K8 O31 3.102350 1_455
K8 O14 3.201476 1_545
K9 O29 2.649766 1_555
K9 O28 2.820441 1_555
K9 O46 2.836529 1_555
K9 O45 2.875948 1_555
K9 O33 2.938653 1_555
K9 O23 3.172781 1_555
K10 O16 2.649766 1_555
K10 O26 2.820441 1_555
K10 O20 2.836529 1_554
K10 O34 2.875948 1_555
K10 O11 2.938653 1_554
K10 O36 3.172781 1_455
K11 O40 2.659550 1_555
K11 O18 2.754380 1_555
K11 O23 2.785203 1_555
K11 O0 2.898055 1_545
K11 O5 3.063338 1_545
K11 O25 3.064220 1_555
K11 O2 3.170293 1_555
K12 O4 2.696337 1_554
K12 O43 2.776760 1_555
K12 O26 2.801829 1_555
K12 O0 3.000434 1_554
K12 O27 3.022568 1_555
K12 O13 3.030645 1_555
K12 O42 3.198403 1_555
K12 O17 3.290413 1_555
K13 O0 2.632211 1_555
K13 O1 2.724617 1_555
K13 O30 2.795653 1_555
K13 O42 2.798729 1_556
K13 O4 3.028180 1_555
K13 O5 3.102350 1_555
K13 O32 3.201476 1_565
K14 O24 2.696337 1_455
K14 O16 2.776760 1_555
K14 O44 2.801829 1_455
K14 O19 3.000434 1_555
K14 O36 3.022568 1_455
K14 O6 3.030645 1_555
K14 O46 3.198403 1_555
K14 O34 3.290413 1_555
K15 O43 2.649766 1_555
K15 O44 2.820441 1_555
K15 O47 2.836529 1_555
K15 O17 2.875948 1_555
K15 O18 2.938653 1_555
K15 O27 3.172781 1_555
Mo0 O38 1.768121 1_555
Mo0 O43 1.769126 1_555
Mo0 O22 1.788291 1_555
Mo0 O8 1.883015 1_555
Mo1 O21 1.768121 1_555
Mo1 O16 1.769126 1_555
Mo1 O33 1.788291 1_555
Mo1 O15 1.883015 1_555
Mo2 O4 1.768121 1_555
Mo2 O29 1.769126 1_555
Mo2 O11 1.788291 1_555
Mo2 O5 1.883015 1_555
Mo3 O39 1.775248 1_545
Mo3 O44 1.775557 1_555
Mo3 O30 1.784645 1_545
Mo3 O32 1.864444 1_555
Mo4 O23 1.781034 1_555
Mo4 O1 1.781276 1_555
Mo4 O47 1.785071 1_555
Mo4 O10 1.870058 1_555
Mo5 O19 1.775248 1_565
Mo5 O28 1.775557 1_555
Mo5 O6 1.784645 1_565
Mo5 O37 1.864444 1_555
Mo6 O24 1.768121 1_555
Mo6 O35 1.769126 1_555
Mo6 O18 1.788291 1_555
Mo6 O31 1.883015 1_555
Mo7 O36 1.781034 1_555
Mo7 O17 1.781276 1_555
Mo7 O42 1.785071 1_555
Mo7 O41 1.870058 1_555
Mo8 O0 1.775248 1_544
Mo8 O25 1.775557 1_554
Mo8 O13 1.784645 1_545
Mo8 O9 1.864444 1_555
Mo9 O7 1.775248 1_566
Mo9 O26 1.775557 1_556
Mo9 O40 1.784645 1_565
Mo9 O14 1.864444 1_555
Mo10 O27 1.781034 1_555
Mo10 O34 1.781276 1_555
Mo10 O46 1.785071 1_555
Mo10 O2 1.870058 1_555
Mo11 O12 1.781034 1_555
Mo11 O45 1.781276 1_555
Mo11 O20 1.785071 1_555
Mo11 O3 1.870058 1_555
O2 Zr1 2.138023 1_555
O3 Zr0 2.138023 1_556
O5 Zr1 2.121939 1_565
O8 Zr1 2.121939 1_555
O9 Zr0 2.097254 1_655
O10 Zr1 2.138023 1_565
O14 Zr0 2.097254 1_566
O15 Zr0 2.121939 1_565
O31 Zr0 2.121939 1_656
O32 Zr1 2.097254 1_555
O37 Zr1 2.097254 1_565
O41 Zr0 2.138023 1_665
