# generated using pymatgen
data_Na2AlB(As2O7)2
_symmetry_space_group_name_H-M   'P 1'
_cell_length_a   21.11519300
_cell_length_b   4.67997300
_cell_length_c   11.14139633
_cell_angle_alpha   89.61058367
_cell_angle_beta   90.00000000
_cell_angle_gamma   90.00000000
_symmetry_Int_Tables_number   1
_chemical_formula_structural   Na2AlB(As2O7)2
_chemical_formula_sum   'Na8 Al4 B4 As16 O56'
_cell_volume   1100.95101338
_cell_formula_units_Z   4
loop_
 _symmetry_equiv_pos_site_id
 _symmetry_equiv_pos_as_xyz
  1  'x, y, z'
loop_
 _atom_site_type_symbol
 _atom_site_label
 _atom_site_symmetry_multiplicity
 _atom_site_fract_x
 _atom_site_fract_y
 _atom_site_fract_z
 _atom_site_occupancy
  Na  Na0  1  0.97482700  0.21885300  0.58437100  1
  Na  Na1  1  0.47482700  0.78114700  0.91562900  1
  Na  Na2  1  0.52517300  0.21885300  0.08437000  1
  Na  Na3  1  0.29033200  0.77774100  0.47504000  1
  Na  Na4  1  0.70966800  0.22225900  0.52496000  1
  Na  Na5  1  0.02517300  0.78114700  0.41562900  1
  Na  Na6  1  0.79033200  0.22225900  0.02496000  1
  Na  Na7  1  0.20966800  0.77774100  0.97504000  1
  Al  Al0  1  0.17734800  0.77560300  0.27448700  1
  Al  Al1  1  0.32265200  0.77560300  0.77448700  1
  Al  Al2  1  0.82265200  0.22439700  0.72551300  1
  Al  Al3  1  0.67734800  0.22439700  0.22551300  1
  B  B0  1  0.60605100  0.79850300  0.63733600  1
  B  B1  1  0.39394900  0.20149700  0.36266400  1
  B  B2  1  0.89394900  0.79850300  0.13733600  1
  B  B3  1  0.10605100  0.20149700  0.86266400  1
  As  As0  1  0.14556300  0.25866400  0.46570300  1
  As  As1  1  0.64556300  0.74133600  0.03429700  1
  As  As2  1  0.85443700  0.74133600  0.53429700  1
  As  As3  1  0.72116800  0.72693600  0.78430100  1
  As  As4  1  0.60696100  0.73708100  0.37501800  1
  As  As5  1  0.35443700  0.25866400  0.96570300  1
  As  As6  1  0.39303900  0.26291900  0.62498200  1
  As  As7  1  0.10696100  0.26291900  0.12498200  1
  As  As8  1  0.77883200  0.72693600  0.28430100  1
  As  As9  1  0.89303900  0.73708100  0.87501800  1
  As  As10  1  0.27883200  0.27306400  0.21569900  1
  As  As11  1  0.22116800  0.27306400  0.71569900  1
  As  As12  1  0.53552600  0.29773600  0.70826000  1
  As  As13  1  0.03552600  0.70226400  0.79174000  1
  As  As14  1  0.46447400  0.70226400  0.29174000  1
  As  As15  1  0.96447400  0.29773600  0.20826000  1
  O  O0  1  0.34017100  0.09758400  0.28836400  1
  O  O1  1  0.10449800  0.00970600  0.23472500  1
  O  O2  1  0.22773500  0.01494200  0.16838300  1
  O  O3  1  0.69943400  0.97647500  0.09650100  1
  O  O4  1  0.41783400  0.11004600  0.02769800  1
  O  O5  1  0.52878900  0.60160100  0.38907000  1
  O  O6  1  0.74780000  0.45347700  0.69820900  1
  O  O7  1  0.77226500  0.98505800  0.83161700  1
  O  O8  1  0.01727400  0.64438800  0.65014200  1
  O  O9  1  0.19297400  0.43667400  0.58200900  1
  O  O10  1  0.15982900  0.09758400  0.78836400  1
  O  O11  1  0.59805000  0.48432900  0.64120200  1
  O  O12  1  0.39550200  0.00970600  0.73472500  1
  O  O13  1  0.65982900  0.90241600  0.71163600  1
  O  O14  1  0.91783400  0.88995400  0.47230200  1
  O  O15  1  0.47121100  0.39839900  0.61093000  1
  O  O16  1  0.15713000  0.54585400  0.13575500  1
  O  O17  1  0.84287000  0.45414600  0.86424500  1
  O  O18  1  0.25220000  0.54652300  0.30179100  1
  O  O19  1  0.08216600  0.11004600  0.52769800  1
  O  O20  1  0.72773500  0.98505800  0.33161700  1
  O  O21  1  0.75220000  0.45347700  0.19820900  1
  O  O22  1  0.12308000  0.10703800  0.98744200  1
  O  O23  1  0.87233400  0.45366500  0.62443900  1
  O  O24  1  0.84017100  0.90241600  0.21163600  1
  O  O25  1  0.30056600  0.02352500  0.90349900  1
  O  O26  1  0.69297400  0.56332600  0.91799100  1
  O  O27  1  0.19943400  0.02352500  0.40349900  1
  O  O28  1  0.24780000  0.54652300  0.80179100  1
  O  O29  1  0.98272600  0.35561200  0.34985800  1
  O  O30  1  0.62308000  0.89296200  0.51255800  1
  O  O31  1  0.65713000  0.45414600  0.36424500  1
  O  O32  1  0.37233400  0.54633500  0.87556100  1
  O  O33  1  0.51727400  0.35561200  0.84985800  1
  O  O34  1  0.34287000  0.54585400  0.63575500  1
  O  O35  1  0.58216600  0.88995400  0.97230200  1
  O  O36  1  0.48272600  0.64438800  0.15014200  1
  O  O37  1  0.40195000  0.51567100  0.35879800  1
  O  O38  1  0.80702600  0.56332600  0.41799100  1
  O  O39  1  0.45283000  0.06200000  0.32282800  1
  O  O40  1  0.09805000  0.51567100  0.85879800  1
  O  O41  1  0.12766600  0.54633500  0.37556100  1
  O  O42  1  0.90195000  0.48432900  0.14120200  1
  O  O43  1  0.89550200  0.99029400  0.76527500  1
  O  O44  1  0.30702600  0.43667400  0.08200900  1
  O  O45  1  0.97121100  0.60160100  0.88907000  1
  O  O46  1  0.04717000  0.06200000  0.82282800  1
  O  O47  1  0.54717000  0.93800000  0.67717200  1
  O  O48  1  0.02878900  0.39839900  0.11093000  1
  O  O49  1  0.62766600  0.45366500  0.12443900  1
  O  O50  1  0.37692000  0.10703800  0.48744200  1
  O  O51  1  0.87692000  0.89296200  0.01255800  1
  O  O52  1  0.27226500  0.01494200  0.66838300  1
  O  O53  1  0.80056600  0.97647500  0.59650100  1
  O  O54  1  0.95283000  0.93800000  0.17717200  1
  O  O55  1  0.60449800  0.99029400  0.26527500  1
loop_
_geom_bond_atom_site_label_1
_geom_bond_atom_site_label_2
_geom_bond_distance
_geom_bond_site_symmetry_2
Na0 O8 2.307847 1_655
Na0 O14 2.324351 1_545
Na0 O19 2.408174 1_655
Na0 O23 2.469241 1_555
Na0 O29 2.690996 1_555
Na0 O43 2.825364 1_545
Na0 O8 2.922572 1_645
Na1 O33 2.307847 1_555
Na1 O4 2.324351 1_566
Na1 O35 2.408174 1_555
Na1 O32 2.469241 1_555
Na1 O36 2.690996 1_556
Na1 O12 2.825364 1_565
Na1 O33 2.922572 1_565
Na2 O36 2.307851 1_555
Na2 O35 2.324345 1_544
Na2 O4 2.408172 1_555
Na2 O49 2.469243 1_555
Na2 O33 2.690985 1_554
Na2 O55 2.825371 1_545
Na2 O36 2.922575 1_545
Na3 O18 2.360809 1_555
Na3 O34 2.363930 1_555
Na3 O27 2.372716 1_565
Na3 O50 2.395776 1_565
Na3 O52 2.459785 1_565
Na3 O0 2.762503 1_565
Na3 O9 2.858030 1_555
Na3 O37 2.959358 1_555
Na4 O6 2.360809 1_555
Na4 O31 2.363930 1_555
Na4 O53 2.372716 1_545
Na4 O30 2.395776 1_545
Na4 O20 2.459785 1_545
Na4 O13 2.762503 1_545
Na4 O38 2.858030 1_555
Na4 O11 2.959358 1_555
Na5 O29 2.307847 1_455
Na5 O19 2.324351 1_565
Na5 O14 2.408174 1_455
Na5 O41 2.469241 1_555
Na5 O8 2.690996 1_555
Na5 O1 2.825364 1_565
Na5 O29 2.922572 1_465
Na6 O21 2.360809 1_555
Na6 O17 2.363930 1_554
Na6 O3 2.372716 1_545
Na6 O51 2.395776 1_545
Na6 O7 2.459785 1_544
Na6 O24 2.762503 1_545
Na6 O26 2.858030 1_554
Na6 O42 2.959358 1_555
Na7 O28 2.360809 1_555
Na7 O16 2.363930 1_556
Na7 O25 2.372716 1_565
Na7 O22 2.395776 1_565
Na7 O2 2.459785 1_566
Na7 O10 2.762503 1_565
Na7 O44 2.858030 1_556
Na7 O40 2.959358 1_555
Al0 O41 1.871749 1_555
Al0 O27 1.911130 1_565
Al0 O18 1.932746 1_555
Al0 O16 1.936499 1_555
Al0 O1 1.938085 1_565
Al0 O2 1.940630 1_565
Al1 O32 1.871749 1_555
Al1 O25 1.911130 1_565
Al1 O28 1.932746 1_555
Al1 O34 1.936499 1_555
Al1 O12 1.938085 1_565
Al1 O52 1.940630 1_565
Al2 O23 1.871749 1_555
Al2 O53 1.911130 1_545
Al2 O6 1.932746 1_555
Al2 O17 1.936499 1_555
Al2 O43 1.938085 1_545
Al2 O7 1.940630 1_545
Al3 O49 1.871749 1_555
Al3 O3 1.911130 1_545
Al3 O21 1.932746 1_555
Al3 O31 1.936499 1_555
Al3 O55 1.938085 1_545
Al3 O20 1.940630 1_545
B0 O47 1.474069 1_555
B0 O11 1.480336 1_555
B0 O13 1.488847 1_555
B0 O30 1.499673 1_555
B1 O39 1.474069 1_555
B1 O37 1.480336 1_555
B1 O0 1.488847 1_555
B1 O50 1.499673 1_555
B2 O54 1.474069 1_555
B2 O42 1.480336 1_555
B2 O24 1.488847 1_555
B2 O51 1.499673 1_555
B3 O46 1.474069 1_555
B3 O40 1.480336 1_555
B3 O10 1.488847 1_555
B3 O22 1.499673 1_555
As0 O19 1.657187 1_555
As0 O41 1.716265 1_555
As0 O27 1.730765 1_555
As0 O9 1.841199 1_555
As1 O35 1.657187 1_554
As1 O49 1.716265 1_555
As1 O3 1.730765 1_555
As1 O26 1.841199 1_554
As2 O14 1.657187 1_555
As2 O23 1.716265 1_555
As2 O53 1.730765 1_555
As2 O38 1.841199 1_555
As3 O6 1.700231 1_555
As3 O7 1.705846 1_555
As3 O13 1.731571 1_555
As3 O26 1.773070 1_555
As4 O55 1.697727 1_555
As4 O31 1.700605 1_555
As4 O30 1.735352 1_555
As4 O5 1.774742 1_555
As5 O4 1.657187 1_556
As5 O32 1.716265 1_555
As5 O25 1.730765 1_555
As5 O44 1.841199 1_556
As6 O12 1.697727 1_555
As6 O34 1.700605 1_555
As6 O50 1.735352 1_555
As6 O15 1.774742 1_555
As7 O1 1.697727 1_555
As7 O16 1.700605 1_555
As7 O22 1.735352 1_554
As7 O48 1.774742 1_555
As8 O21 1.700231 1_555
As8 O20 1.705846 1_555
As8 O24 1.731571 1_555
As8 O38 1.773070 1_555
As9 O43 1.697727 1_555
As9 O17 1.700605 1_555
As9 O51 1.735352 1_556
As9 O45 1.774742 1_555
As10 O18 1.700231 1_555
As10 O2 1.705846 1_555
As10 O0 1.731571 1_555
As10 O44 1.773070 1_555
As11 O28 1.700231 1_555
As11 O52 1.705846 1_555
As11 O10 1.731571 1_555
As11 O9 1.773070 1_555
As12 O33 1.648187 1_555
As12 O47 1.738592 1_545
As12 O11 1.747807 1_555
As12 O15 1.798645 1_555
As13 O8 1.648187 1_555
As13 O46 1.738592 1_565
As13 O40 1.747807 1_555
As13 O45 1.798645 1_455
As14 O36 1.648187 1_555
As14 O39 1.738592 1_565
As14 O37 1.747807 1_555
As14 O5 1.798645 1_555
As15 O29 1.648187 1_555
As15 O54 1.738592 1_545
As15 O42 1.747807 1_555
As15 O48 1.798645 1_655
