# generated using pymatgen
data_As3Pb5ClO12
_symmetry_space_group_name_H-M   'P 1'
_cell_length_a   7.58696800
_cell_length_b   10.45477000
_cell_length_c   20.95293635
_cell_angle_alpha   60.09611970
_cell_angle_beta   90.00000000
_cell_angle_gamma   90.00000000
_symmetry_Int_Tables_number   1
_chemical_formula_structural   As3Pb5ClO12
_chemical_formula_sum   'As12 Pb20 Cl4 O48'
_cell_volume   1440.71503776
_cell_formula_units_Z   4
loop_
 _symmetry_equiv_pos_site_id
 _symmetry_equiv_pos_as_xyz
  1  'x, y, z'
loop_
 _atom_site_type_symbol
 _atom_site_label
 _atom_site_symmetry_multiplicity
 _atom_site_fract_x
 _atom_site_fract_y
 _atom_site_fract_z
 _atom_site_occupancy
  As  As0  1  0.74376200  0.58826400  0.76414300  1
  As  As1  1  0.25570100  0.97592400  0.05770800  1
  As  As2  1  0.74429900  0.02407600  0.94229200  1
  As  As3  1  0.24376200  0.41173600  0.73585700  1
  As  As4  1  0.25538700  0.61712600  0.45470800  1
  As  As5  1  0.74461300  0.38287400  0.54529200  1
  As  As6  1  0.75623800  0.58826400  0.26414300  1
  As  As7  1  0.25623800  0.41173600  0.23585700  1
  As  As8  1  0.24429900  0.97592400  0.55770800  1
  As  As9  1  0.75570100  0.02407600  0.44229200  1
  As  As10  1  0.24461300  0.61712600  0.95470800  1
  As  As11  1  0.75538700  0.38287400  0.04529200  1
  Pb  Pb0  1  0.27070900  0.25542700  0.62931200  1
  Pb  Pb1  1  0.99380700  0.66762200  0.07675600  1
  Pb  Pb2  1  0.77084300  0.01061100  0.62223800  1
  Pb  Pb3  1  0.77831300  0.24265000  0.75462200  1
  Pb  Pb4  1  0.72929100  0.74457300  0.37068800  1
  Pb  Pb5  1  0.27084300  0.98938900  0.87776200  1
  Pb  Pb6  1  0.22915700  0.98938900  0.37776200  1
  Pb  Pb7  1  0.49176400  0.33427300  0.91116500  1
  Pb  Pb8  1  0.77070900  0.74457300  0.87068800  1
  Pb  Pb9  1  0.99176400  0.66572700  0.58883500  1
  Pb  Pb10  1  0.49380700  0.33237800  0.42324400  1
  Pb  Pb11  1  0.00823600  0.33427300  0.41116500  1
  Pb  Pb12  1  0.50823600  0.66572700  0.08883500  1
  Pb  Pb13  1  0.72915700  0.01061100  0.12223800  1
  Pb  Pb14  1  0.27831300  0.75735000  0.74537800  1
  Pb  Pb15  1  0.22929100  0.25542700  0.12931200  1
  Pb  Pb16  1  0.72168700  0.24265000  0.25462200  1
  Pb  Pb17  1  0.22168700  0.75735000  0.24537800  1
  Pb  Pb18  1  0.00619300  0.33237800  0.92324400  1
  Pb  Pb19  1  0.50619300  0.66762200  0.57675600  1
  Cl  Cl0  1  0.48734500  0.99724400  0.24964100  1
  Cl  Cl1  1  0.01265500  0.99724400  0.74964100  1
  Cl  Cl2  1  0.51265500  0.00275600  0.75035900  1
  Cl  Cl3  1  0.98734500  0.00275600  0.25035900  1
  O  O0  1  0.24840500  0.50694200  0.91535300  1
  O  O1  1  0.23059800  0.51771200  0.54981900  1
  O  O2  1  0.28132900  0.88598200  0.50791100  1
  O  O3  1  0.74840500  0.49305800  0.58464700  1
  O  O4  1  0.55179000  0.62705400  0.79585900  1
  O  O5  1  0.24885100  0.33451700  0.83006700  1
  O  O6  1  0.73059800  0.48228800  0.95018100  1
  O  O7  1  0.95655800  0.08854400  0.39896900  1
  O  O8  1  0.40437700  0.91620000  0.62493900  1
  O  O9  1  0.76940200  0.48228800  0.45018100  1
  O  O10  1  0.95419500  0.29086800  0.05889400  1
  O  O11  1  0.59277100  0.25000100  0.08002000  1
  O  O12  1  0.25304500  0.60349200  0.68999900  1
  O  O13  1  0.74695500  0.39650800  0.31000100  1
  O  O14  1  0.41327200  0.35026000  0.70310800  1
  O  O15  1  0.08672800  0.35026000  0.20310800  1
  O  O16  1  0.24695500  0.60349200  0.18999900  1
  O  O17  1  0.24804700  0.16510000  0.50238500  1
  O  O18  1  0.26940200  0.51771200  0.04981900  1
  O  O19  1  0.25195300  0.16510000  0.00238500  1
  O  O20  1  0.21867100  0.88598200  0.00791100  1
  O  O21  1  0.71867100  0.11401800  0.49208900  1
  O  O22  1  0.90722900  0.25000100  0.58002000  1
  O  O23  1  0.25114900  0.33451700  0.33006700  1
  O  O24  1  0.44821000  0.37294600  0.20414100  1
  O  O25  1  0.04344200  0.91145600  0.60103100  1
  O  O26  1  0.25159500  0.50694200  0.41535300  1
  O  O27  1  0.45655800  0.91145600  0.10103100  1
  O  O28  1  0.09277100  0.74999900  0.41998000  1
  O  O29  1  0.78132900  0.11401800  0.99208900  1
  O  O30  1  0.54580500  0.29086800  0.55889400  1
  O  O31  1  0.75304500  0.39650800  0.81000100  1
  O  O32  1  0.74885100  0.66548300  0.66993300  1
  O  O33  1  0.04580500  0.70913200  0.94110600  1
  O  O34  1  0.54344200  0.08854400  0.89896900  1
  O  O35  1  0.59562300  0.08380000  0.37506100  1
  O  O36  1  0.94821000  0.62705400  0.29585900  1
  O  O37  1  0.75159500  0.49305800  0.08464700  1
  O  O38  1  0.58672800  0.64974000  0.29689200  1
  O  O39  1  0.74804700  0.83490000  0.99761500  1
  O  O40  1  0.91327200  0.64974000  0.79689200  1
  O  O41  1  0.75195300  0.83490000  0.49761500  1
  O  O42  1  0.45419500  0.70913200  0.44110600  1
  O  O43  1  0.90437700  0.08380000  0.87506100  1
  O  O44  1  0.09562300  0.91620000  0.12493900  1
  O  O45  1  0.05179000  0.37294600  0.70414100  1
  O  O46  1  0.75114900  0.66548300  0.16993300  1
  O  O47  1  0.40722900  0.74999900  0.91998000  1
loop_
_geom_bond_atom_site_label_1
_geom_bond_atom_site_label_2
_geom_bond_distance
_geom_bond_site_symmetry_2
As0 O32 1.720711 1_555
As0 O40 1.725587 1_555
As0 O4 1.730938 1_555
As0 O31 1.739711 1_555
As1 O19 1.723431 1_565
As1 O44 1.724028 1_555
As1 O27 1.729304 1_555
As1 O20 1.740713 1_555
As2 O39 1.723431 1_545
As2 O43 1.724028 1_555
As2 O34 1.729304 1_555
As2 O29 1.740713 1_555
As3 O5 1.720711 1_555
As3 O14 1.725587 1_555
As3 O45 1.730938 1_555
As3 O12 1.739711 1_555
As4 O26 1.718988 1_555
As4 O28 1.724390 1_555
As4 O42 1.734432 1_555
As4 O1 1.738343 1_555
As5 O3 1.718988 1_555
As5 O22 1.724390 1_555
As5 O30 1.734432 1_555
As5 O9 1.738343 1_555
As6 O46 1.720711 1_555
As6 O38 1.725587 1_555
As6 O36 1.730938 1_555
As6 O13 1.739711 1_555
As7 O23 1.720711 1_555
As7 O15 1.725587 1_555
As7 O24 1.730938 1_555
As7 O16 1.739711 1_555
As8 O17 1.723431 1_565
As8 O8 1.724028 1_555
As8 O25 1.729304 1_555
As8 O2 1.740713 1_555
As9 O41 1.723431 1_545
As9 O35 1.724028 1_555
As9 O7 1.729304 1_555
As9 O21 1.740713 1_555
As10 O0 1.718988 1_555
As10 O47 1.724390 1_555
As10 O33 1.734432 1_555
As10 O18 1.738343 1_556
As11 O37 1.718988 1_555
As11 O11 1.724390 1_555
As11 O10 1.734432 1_555
As11 O6 1.738343 1_554
Cl0 Pb16 3.165691 1_565
Cl0 Pb4 3.178056 1_555
Cl0 Pb13 3.184249 1_565
Cl0 Pb17 3.253305 1_555
Cl0 Pb15 3.269571 1_565
Cl0 Pb6 3.290999 1_555
Cl1 Pb3 3.165691 1_465
Cl1 Pb8 3.178056 1_455
Cl1 Pb2 3.184249 1_465
Cl1 Pb14 3.253305 1_555
Cl1 Pb0 3.269571 1_565
Cl1 Pb5 3.290999 1_555
Cl2 Pb14 3.165691 1_545
Cl2 Pb0 3.178056 1_555
Cl2 Pb5 3.184249 1_545
Cl2 Pb3 3.253305 1_555
Cl2 Pb8 3.269571 1_545
Cl2 Pb2 3.290999 1_555
Cl3 Pb17 3.165691 1_645
Cl3 Pb15 3.178056 1_655
Cl3 Pb6 3.184249 1_645
Cl3 Pb16 3.253305 1_555
Cl3 Pb4 3.269571 1_545
Cl3 Pb13 3.290999 1_555
O0 Pb18 2.536565 1_555
O0 Pb7 2.614093 1_555
O1 Pb0 2.414975 1_555
O1 Pb9 2.758216 1_455
O1 Pb19 2.833533 1_555
O2 Pb6 2.412968 1_555
O2 Pb19 2.630495 1_555
O3 Pb19 2.536565 1_555
O3 Pb9 2.614093 1_555
O4 Pb14 2.417189 1_555
O4 Pb7 2.835515 1_555
O5 Pb7 2.505924 1_555
O5 Pb18 2.675442 1_555
O6 Pb8 2.414975 1_555
O6 Pb7 2.758216 1_555
O6 Pb18 2.833533 1_655
O7 Pb6 2.451289 1_645
O7 Pb11 2.733786 1_655
O8 Pb14 2.421234 1_555
O9 Pb4 2.414975 1_555
O9 Pb11 2.758216 1_655
O9 Pb10 2.833533 1_555
O10 Pb15 2.474944 1_655
O10 Pb18 2.681894 1_654
O11 Pb13 2.430962 1_555
O12 Pb14 2.414884 1_555
O12 Pb9 2.733289 1_455
O12 Pb19 2.860445 1_555
O13 Pb16 2.414884 1_555
O13 Pb11 2.733289 1_655
O13 Pb10 2.860445 1_555
O14 Pb0 2.464211 1_555
O15 Pb15 2.464211 1_555
O16 Pb17 2.414884 1_555
O16 Pb12 2.733289 1_555
O16 Pb1 2.860445 1_455
O17 Pb10 2.528495 1_555
O17 Pb11 2.592495 1_555
O18 Pb15 2.414975 1_555
O18 Pb12 2.758216 1_555
O18 Pb1 2.833533 1_455
O19 Pb18 2.528495 1_554
O19 Pb7 2.592495 1_554
O20 Pb5 2.412968 1_554
O20 Pb1 2.630495 1_455
O21 Pb2 2.412968 1_555
O21 Pb10 2.630495 1_555
O22 Pb2 2.430962 1_555
O23 Pb11 2.505924 1_555
O23 Pb10 2.675442 1_555
O24 Pb16 2.417189 1_555
O24 Pb12 2.835515 1_555
O25 Pb2 2.451289 1_465
O25 Pb9 2.733786 1_455
O26 Pb10 2.536565 1_555
O26 Pb11 2.614093 1_555
O27 Pb13 2.451289 1_565
O27 Pb12 2.733786 1_555
O28 Pb6 2.430962 1_555
O29 Pb13 2.412968 1_556
O29 Pb18 2.630495 1_655
O30 Pb0 2.474944 1_555
O30 Pb10 2.681894 1_555
O31 Pb3 2.414884 1_555
O31 Pb7 2.733289 1_555
O31 Pb18 2.860445 1_655
O32 Pb9 2.505924 1_555
O32 Pb19 2.675442 1_555
O33 Pb8 2.474944 1_455
O33 Pb1 2.681894 1_456
O34 Pb5 2.451289 1_545
O34 Pb7 2.733786 1_555
O35 Pb16 2.421234 1_555
O36 Pb17 2.417189 1_655
O36 Pb11 2.835515 1_655
O37 Pb1 2.536565 1_555
O37 Pb12 2.614093 1_555
O38 Pb4 2.464211 1_555
O39 Pb1 2.528495 1_556
O39 Pb12 2.592495 1_556
O40 Pb8 2.464211 1_555
O41 Pb19 2.528495 1_555
O41 Pb9 2.592495 1_555
O42 Pb4 2.474944 1_555
O42 Pb19 2.681894 1_555
O43 Pb3 2.421234 1_555
O44 Pb17 2.421234 1_555
O45 Pb3 2.417189 1_455
O45 Pb9 2.835515 1_455
O46 Pb12 2.505924 1_555
O46 Pb1 2.675442 1_555
O47 Pb5 2.430962 1_555
