# generated using pymatgen
data_Co2(GeSe)3
_symmetry_space_group_name_H-M   'P 1'
_cell_length_a   8.28851143
_cell_length_b   8.28858739
_cell_length_c   8.28850929
_cell_angle_alpha   89.93080330
_cell_angle_beta   89.93114605
_cell_angle_gamma   89.93069994
_symmetry_Int_Tables_number   1
_chemical_formula_structural   Co2(GeSe)3
_chemical_formula_sum   'Co8 Ge12 Se12'
_cell_volume   569.41977183
_cell_formula_units_Z   4
loop_
 _symmetry_equiv_pos_site_id
 _symmetry_equiv_pos_as_xyz
  1  'x, y, z'
loop_
 _atom_site_type_symbol
 _atom_site_label
 _atom_site_symmetry_multiplicity
 _atom_site_fract_x
 _atom_site_fract_y
 _atom_site_fract_z
 _atom_site_occupancy
  Co  Co0  1  0.24977702  0.24977362  0.24977543  1
  Co  Co1  1  0.75022307  0.75022229  0.75022185  1
  Co  Co2  1  0.75247972  0.25098189  0.25192305  1
  Co  Co3  1  0.25098062  0.25192011  0.75248158  1
  Co  Co4  1  0.25191967  0.75247783  0.25097947  1
  Co  Co5  1  0.74807876  0.24751819  0.74902204  1
  Co  Co6  1  0.24751895  0.74902263  0.74807741  1
  Co  Co7  1  0.74902303  0.74808115  0.24751902  1
  Ge  Ge0  1  0.99901694  0.32857393  0.84277913  1
  Ge  Ge1  1  0.32857162  0.84277515  0.99901357  1
  Ge  Ge2  1  0.84277976  0.99901120  0.32857361  1
  Ge  Ge3  1  0.00098627  0.67142877  0.15721732  1
  Ge  Ge4  1  0.67142886  0.15721777  0.00098417  1
  Ge  Ge5  1  0.15721855  0.00098155  0.67142837  1
  Ge  Ge6  1  0.49757849  0.82786380  0.65653637  1
  Ge  Ge7  1  0.82786528  0.65653883  0.49758119  1
  Ge  Ge8  1  0.65653711  0.49758489  0.82786437  1
  Ge  Ge9  1  0.50242174  0.17213398  0.34346638  1
  Ge  Ge10  1  0.17213488  0.34346287  0.50242536  1
  Ge  Ge11  1  0.34346469  0.50242616  0.17213362  1
  Se  Se0  1  0.99635287  0.65456470  0.85315435  1
  Se  Se1  1  0.65456341  0.85315806  0.99634913  1
  Se  Se2  1  0.85314960  0.99636106  0.65455735  1
  Se  Se3  1  0.00364517  0.34543975  0.14683835  1
  Se  Se4  1  0.34544793  0.14682809  0.00365930  1
  Se  Se5  1  0.14683296  0.00367017  0.34543620  1
  Se  Se6  1  0.49934658  0.15484481  0.64752610  1
  Se  Se7  1  0.15485233  0.64751612  0.49935326  1
  Se  Se8  1  0.64752444  0.49934504  0.15485249  1
  Se  Se9  1  0.50064828  0.84514267  0.35247630  1
  Se  Se10  1  0.84514819  0.35247901  0.50065364  1
  Se  Se11  1  0.35248224  0.50065391  0.84513822  1
loop_
_geom_bond_atom_site_label_1
_geom_bond_atom_site_label_2
_geom_bond_distance
_geom_bond_site_symmetry_2
Co0 Ge9 2.324144 1_555
Co0 Ge10 2.324193 1_555
Co0 Ge11 2.324222 1_555
Co0 Se5 2.348696 1_555
Co0 Se4 2.348807 1_555
Co0 Se3 2.348872 1_555
Co1 Ge8 2.324106 1_555
Co1 Ge7 2.324108 1_555
Co1 Ge6 2.324132 1_555
Co1 Se0 2.348819 1_555
Co1 Se1 2.348826 1_555
Co1 Se2 2.348908 1_555
Co2 Ge9 2.301484 1_555
Co2 Ge2 2.306452 1_545
Co2 Ge4 2.321605 1_555
Co2 Se10 2.357427 1_555
Co2 Se8 2.373857 1_555
Co2 Se3 2.388175 1_655
Co3 Ge10 2.301456 1_555
Co3 Ge0 2.306390 1_455
Co3 Ge5 2.321620 1_555
Co3 Se11 2.357449 1_555
Co3 Se6 2.373884 1_555
Co3 Se4 2.388301 1_556
Co4 Ge11 2.301447 1_555
Co4 Ge1 2.306403 1_554
Co4 Ge3 2.321554 1_555
Co4 Se9 2.357402 1_555
Co4 Se7 2.373938 1_555
Co4 Se5 2.388381 1_565
Co5 Ge8 2.301542 1_555
Co5 Ge4 2.306378 1_556
Co5 Ge0 2.321591 1_555
Co5 Se6 2.357448 1_555
Co5 Se10 2.373903 1_555
Co5 Se2 2.388100 1_545
Co6 Ge6 2.301474 1_555
Co6 Ge5 2.306361 1_565
Co6 Ge1 2.321556 1_555
Co6 Se7 2.357403 1_555
Co6 Se11 2.373894 1_555
Co6 Se0 2.388156 1_455
Co7 Ge7 2.301491 1_555
Co7 Ge3 2.306395 1_655
Co7 Ge2 2.321546 1_555
Co7 Se8 2.357483 1_555
Co7 Se9 2.373914 1_555
Co7 Se1 2.388178 1_554
Ge0 Se3 2.524580 1_656
Ge0 Se0 2.703538 1_555
Ge1 Se4 2.524560 1_566
Ge1 Se1 2.703524 1_555
Ge2 Se5 2.524533 1_665
Ge2 Se2 2.703451 1_555
Ge3 Se0 2.524611 1_454
Ge3 Se3 2.703524 1_555
Ge4 Se1 2.524609 1_544
Ge4 Se4 2.703436 1_555
Ge5 Se2 2.524662 1_445
Ge5 Se5 2.703527 1_555
Ge6 Se9 2.524198 1_555
Ge6 Se6 2.711206 1_565
Ge7 Se10 2.524221 1_555
Ge7 Se7 2.711234 1_655
Ge8 Se11 2.524153 1_555
Ge8 Se8 2.711240 1_556
Ge9 Se6 2.524200 1_555
Ge9 Se9 2.711292 1_545
Ge10 Se7 2.524166 1_555
Ge10 Se10 2.711230 1_455
Ge11 Se8 2.524198 1_555
Ge11 Se11 2.711302 1_554
