# generated using pymatgen
data_Er(CuGe)2
_symmetry_space_group_name_H-M   'P 1'
_cell_length_a   5.85731165
_cell_length_b   5.85731165
_cell_length_c   5.85731165
_cell_angle_alpha   140.16793257
_cell_angle_beta   140.16793257
_cell_angle_gamma   57.59840559
_symmetry_Int_Tables_number   1
_chemical_formula_structural   Er(CuGe)2
_chemical_formula_sum   'Er1 Cu2 Ge2'
_cell_volume   81.73583892
_cell_formula_units_Z   1
loop_
 _symmetry_equiv_pos_site_id
 _symmetry_equiv_pos_as_xyz
  1  'x, y, z'
loop_
 _atom_site_type_symbol
 _atom_site_label
 _atom_site_symmetry_multiplicity
 _atom_site_fract_x
 _atom_site_fract_y
 _atom_site_fract_z
 _atom_site_occupancy
  Er  Er0  1  0.00000000  -0.00000000  0.00000000  1
  Cu  Cu0  1  0.25000000  0.75000000  0.50000000  1
  Cu  Cu1  1  0.75000000  0.25000000  0.50000000  1
  Ge  Ge0  1  0.61834772  0.61834772  0.00000000  1
  Ge  Ge1  1  0.38165228  0.38165228  -0.00000000  1
loop_
_geom_bond_atom_site_label_1
_geom_bond_atom_site_label_2
_geom_bond_distance
_geom_bond_site_symmetry_2
Er0 Ge1 3.072145 1_556
Er0 Ge1 3.072145 1_444
Er0 Ge1 3.072145 1_545
Er0 Ge0 3.072145 1_455
Er0 Ge1 3.072145 1_455
Er0 Ge0 3.072145 1_556
Er0 Ge0 3.072145 1_444
Er0 Ge0 3.072145 1_545
Cu0 Ge0 2.409891 1_556
Cu0 Ge1 2.409891 1_566
Cu0 Ge1 2.409891 1_555
Cu0 Ge0 2.409891 1_455
Cu0 Er0 3.250775 1_566
Cu0 Er0 3.250775 1_666
Cu0 Er0 3.250775 1_565
Cu0 Er0 3.250775 1_555
Cu1 Ge0 2.409891 1_545
Cu1 Ge1 2.409891 1_656
Cu1 Ge0 2.409891 1_556
Cu1 Ge1 2.409891 1_555
Cu1 Er0 3.250775 1_666
Cu1 Er0 3.250775 1_656
Cu1 Er0 3.250775 1_655
Cu1 Er0 3.250775 1_555
Ge0 Ge1 2.429840 1_555
