# generated using pymatgen
data_GdScS3
_symmetry_space_group_name_H-M   'P 1'
_cell_length_a   6.41368888
_cell_length_b   7.06362167
_cell_length_c   9.53369315
_cell_angle_alpha   90.00000000
_cell_angle_beta   90.00000000
_cell_angle_gamma   90.00000000
_symmetry_Int_Tables_number   1
_chemical_formula_structural   GdScS3
_chemical_formula_sum   'Gd4 Sc4 S12'
_cell_volume   431.91321184
_cell_formula_units_Z   4
loop_
 _symmetry_equiv_pos_site_id
 _symmetry_equiv_pos_as_xyz
  1  'x, y, z'
loop_
 _atom_site_type_symbol
 _atom_site_label
 _atom_site_symmetry_multiplicity
 _atom_site_fract_x
 _atom_site_fract_y
 _atom_site_fract_z
 _atom_site_occupancy
  Gd  Gd0  1  0.03968363  0.10063289  0.25000000  1
  Gd  Gd1  1  0.96031637  0.89936711  0.75000000  1
  Gd  Gd2  1  0.46031637  0.60063289  0.25000000  1
  Gd  Gd3  1  0.53968363  0.39936711  0.75000000  1
  Sc  Sc0  1  0.50000000  -0.00000000  0.50000000  1
  Sc  Sc1  1  -0.00000000  0.50000000  -0.00000000  1
  Sc  Sc2  1  -0.00000000  0.50000000  0.50000000  1
  Sc  Sc3  1  0.50000000  -0.00000000  -0.00000000  1
  S  S0  1  0.32402486  0.31532407  0.43169680  1
  S  S1  1  0.67597514  0.68467593  0.93169680  1
  S  S2  1  0.32402486  0.31532407  0.06830320  1
  S  S3  1  0.82402486  0.18467593  0.56830320  1
  S  S4  1  0.17597514  0.81532407  0.43169680  1
  S  S5  1  0.14004475  0.54515624  0.75000000  1
  S  S6  1  0.85995525  0.45484376  0.25000000  1
  S  S7  1  0.64004475  0.95484376  0.25000000  1
  S  S8  1  0.82402486  0.18467593  0.93169680  1
  S  S9  1  0.35995525  0.04515624  0.75000000  1
  S  S10  1  0.67597514  0.68467593  0.56830320  1
  S  S11  1  0.17597514  0.81532407  0.06830320  1
loop_
_geom_bond_atom_site_label_1
_geom_bond_atom_site_label_2
_geom_bond_distance
_geom_bond_site_symmetry_2
Gd0 S6 2.754783 1_455
Gd0 S7 2.762295 1_445
Gd0 S4 2.797544 1_545
Gd0 S11 2.797544 1_545
Gd0 S2 2.937043 1_555
Gd0 S0 2.937043 1_555
Gd0 S3 3.387388 1_455
Gd0 S8 3.387388 1_454
Gd1 S5 2.754783 1_655
Gd1 S9 2.762295 1_665
Gd1 S8 2.797544 1_565
Gd1 S3 2.797544 1_565
Gd1 S1 2.937043 1_555
Gd1 S10 2.937043 1_555
Gd1 S11 3.387388 1_656
Gd1 S4 3.387388 1_655
Gd2 S7 2.754783 1_555
Gd2 S6 2.762295 1_555
Gd2 S2 2.797544 1_555
Gd2 S0 2.797544 1_555
Gd2 S4 2.937043 1_555
Gd2 S11 2.937043 1_555
Gd2 S10 3.387388 1_555
Gd2 S1 3.387388 1_554
Gd3 S9 2.754783 1_555
Gd3 S5 2.762295 1_555
Gd3 S10 2.797544 1_555
Gd3 S1 2.797544 1_555
Gd3 S8 2.937043 1_555
Gd3 S3 2.937043 1_555
Gd3 S2 3.387388 1_556
Gd3 S0 3.387388 1_555
S0 Sc2 2.538622 1_555
S0 Sc0 2.580482 1_555
S1 Sc1 2.538622 1_656
S1 Sc3 2.580482 1_566
S2 Sc1 2.538622 1_555
S2 Sc3 2.580482 1_555
S3 Sc0 2.538622 1_555
S3 Sc2 2.580482 1_655
S4 Sc0 2.538622 1_565
S4 Sc2 2.580482 1_555
S5 Sc2 2.566947 1_555
S5 Sc1 2.566947 1_556
S6 Sc1 2.566947 1_655
S6 Sc2 2.566947 1_655
S7 Sc3 2.566947 1_565
S7 Sc0 2.566947 1_565
S8 Sc3 2.538622 1_556
S8 Sc1 2.580482 1_656
S9 Sc0 2.566947 1_555
S9 Sc3 2.566947 1_556
S10 Sc2 2.538622 1_655
S10 Sc0 2.580482 1_565
S11 Sc3 2.538622 1_565
S11 Sc1 2.580482 1_555
