# generated using pymatgen
data_Fe3SiP5O19
_symmetry_space_group_name_H-M   'P 1'
_cell_length_a   14.58153101
_cell_length_b   14.58153101
_cell_length_c   7.64100700
_cell_angle_alpha   90.00000000
_cell_angle_beta   90.00000000
_cell_angle_gamma   119.99999553
_symmetry_Int_Tables_number   1
_chemical_formula_structural   Fe3SiP5O19
_chemical_formula_sum   'Fe12 Si4 P20 O76'
_cell_volume   1406.97862829
_cell_formula_units_Z   4
loop_
 _symmetry_equiv_pos_site_id
 _symmetry_equiv_pos_as_xyz
  1  'x, y, z'
loop_
 _atom_site_type_symbol
 _atom_site_label
 _atom_site_symmetry_multiplicity
 _atom_site_fract_x
 _atom_site_fract_y
 _atom_site_fract_z
 _atom_site_occupancy
  Fe  Fe0  1  0.65730700  0.97659500  0.28846600  1
  Fe  Fe1  1  0.68071200  0.65730700  0.78846600  1
  Fe  Fe2  1  0.32548900  0.33720100  0.69164800  1
  Fe  Fe3  1  0.02340500  0.68071200  0.28846600  1
  Fe  Fe4  1  0.33720100  0.01171200  0.19164800  1
  Fe  Fe5  1  0.67451100  0.66279900  0.19164800  1
  Fe  Fe6  1  0.97659500  0.31928800  0.78846600  1
  Fe  Fe7  1  0.66279900  0.98828800  0.69164800  1
  Fe  Fe8  1  0.31928800  0.34269300  0.28846600  1
  Fe  Fe9  1  0.98828800  0.32548900  0.19164800  1
  Fe  Fe10  1  0.01171200  0.67451100  0.69164800  1
  Fe  Fe11  1  0.34269300  0.02340500  0.78846600  1
  Si  Si0  1  0.66666700  0.33333300  0.95243200  1
  Si  Si1  1  0.66666700  0.33333300  0.53517400  1
  Si  Si2  1  0.33333300  0.66666700  0.03517400  1
  Si  Si3  1  0.33333300  0.66666700  0.45243200  1
  P  P0  1  0.57734400  0.09452500  0.99683900  1
  P  P1  1  0.77892200  0.56800700  0.48489200  1
  P  P2  1  0.21091500  0.77892200  0.98489200  1
  P  P3  1  0.09452500  0.51718100  0.49683900  1
  P  P4  1  0.08567700  0.23200600  0.48962600  1
  P  P5  1  0.51718100  0.42265600  0.99683900  1
  P  P6  1  0.85367200  0.08567700  0.98962600  1
  P  P7  1  0.90547500  0.48281900  0.99683900  1
  P  P8  1  0.00000000  0.00000000  0.93209800  1
  P  P9  1  0.22107800  0.43199300  0.98489200  1
  P  P10  1  0.76799400  0.85367200  0.48962600  1
  P  P11  1  0.91432300  0.76799400  0.98962600  1
  P  P12  1  0.42265600  0.90547500  0.49683900  1
  P  P13  1  0.78908500  0.22107800  0.48489200  1
  P  P14  1  0.00000000  0.00000000  0.43209800  1
  P  P15  1  0.43199300  0.21091500  0.48489200  1
  P  P16  1  0.23200600  0.14632800  0.98962600  1
  P  P17  1  0.56800700  0.78908500  0.98489200  1
  P  P18  1  0.14632800  0.91432300  0.48962600  1
  P  P19  1  0.48281900  0.57734400  0.49683900  1
  O  O0  1  0.45699900  0.38470400  0.82409000  1
  O  O1  1  0.36255100  0.26402700  0.48545900  1
  O  O2  1  0.60130300  0.54230800  0.99051500  1
  O  O3  1  0.42182100  0.64056400  0.52800600  1
  O  O4  1  0.55060800  0.30596100  0.46240600  1
  O  O5  1  0.94976100  0.55109600  0.15896000  1
  O  O6  1  0.78869600  0.03339100  0.15295300  1
  O  O7  1  0.55109600  0.60133400  0.65896000  1
  O  O8  1  0.33333300  0.66666700  0.24390200  1
  O  O9  1  0.14115300  0.72966000  0.82519600  1
  O  O10  1  0.00000000  0.00000000  0.24302300  1
  O  O11  1  0.66666700  0.33333300  0.74390200  1
  O  O12  1  0.54230800  0.94100500  0.49051500  1
  O  O13  1  0.73309400  0.57564800  0.66052100  1
  O  O14  1  0.58850700  0.85884700  0.82519600  1
  O  O15  1  0.69403900  0.24464800  0.46240600  1
  O  O16  1  0.27034000  0.41149300  0.82519600  1
  O  O17  1  0.84255400  0.26690600  0.66052100  1
  O  O18  1  0.03339100  0.24469500  0.65295300  1
  O  O19  1  0.44890400  0.39866600  0.15896000  1
  O  O20  1  0.95666300  0.07381300  0.00050500  1
  O  O21  1  0.24172500  0.20307000  0.81744400  1
  O  O22  1  0.72966000  0.58850700  0.32519600  1
  O  O23  1  0.24469500  0.21130400  0.15295300  1
  O  O24  1  0.45769200  0.05899500  0.99051500  1
  O  O25  1  0.30596100  0.75535200  0.96240600  1
  O  O26  1  0.96660900  0.75530500  0.15295300  1
  O  O27  1  0.09852400  0.36255100  0.98545900  1
  O  O28  1  0.69533200  0.90328200  0.49189700  1
  O  O29  1  0.21874200  0.57817900  0.52800600  1
  O  O30  1  0.79205000  0.69533200  0.99189700  1
  O  O31  1  0.63744900  0.73597300  0.98545900  1
  O  O32  1  0.78125800  0.42182100  0.02800600  1
  O  O33  1  0.26402700  0.90147600  0.98545900  1
  O  O34  1  0.92770600  0.54300100  0.82409000  1
  O  O35  1  0.73597300  0.09852400  0.48545900  1
  O  O36  1  0.61529600  0.07229400  0.82409000  1
  O  O37  1  0.00000000  0.00000000  0.74302300  1
  O  O38  1  0.20795000  0.30466800  0.49189700  1
  O  O39  1  0.75535200  0.44939200  0.46240600  1
  O  O40  1  0.35943600  0.78125800  0.52800600  1
  O  O41  1  0.03865600  0.24172500  0.31744400  1
  O  O42  1  0.42435200  0.15744600  0.66052100  1
  O  O43  1  0.38470400  0.92770600  0.32409000  1
  O  O44  1  0.26690600  0.42435200  0.16052100  1
  O  O45  1  0.54300100  0.61529600  0.32409000  1
  O  O46  1  0.90328200  0.20795000  0.99189700  1
  O  O47  1  0.39866600  0.94976100  0.65896000  1
  O  O48  1  0.07229400  0.45699900  0.32409000  1
  O  O49  1  0.60133400  0.05023900  0.15896000  1
  O  O50  1  0.92618700  0.88284900  0.00050500  1
  O  O51  1  0.90147600  0.63744900  0.48545900  1
  O  O52  1  0.96134400  0.75827500  0.81744400  1
  O  O53  1  0.30466800  0.09671800  0.99189700  1
  O  O54  1  0.64056400  0.21874200  0.02800600  1
  O  O55  1  0.15744600  0.73309400  0.16052100  1
  O  O56  1  0.44939200  0.69403900  0.96240600  1
  O  O57  1  0.20307000  0.96134400  0.31744400  1
  O  O58  1  0.79693000  0.03865600  0.81744400  1
  O  O59  1  0.57817900  0.35943600  0.02800600  1
  O  O60  1  0.39869700  0.45769200  0.49051500  1
  O  O61  1  0.21130400  0.96660900  0.65295300  1
  O  O62  1  0.75827500  0.79693000  0.31744400  1
  O  O63  1  0.09671800  0.79205000  0.49189700  1
  O  O64  1  0.41149300  0.14115300  0.32519600  1
  O  O65  1  0.07381300  0.11715100  0.50050500  1
  O  O66  1  0.75530500  0.78869600  0.65295300  1
  O  O67  1  0.85884700  0.27034000  0.32519600  1
  O  O68  1  0.05023900  0.44890400  0.65896000  1
  O  O69  1  0.57564800  0.84255400  0.16052100  1
  O  O70  1  0.94100500  0.39869700  0.99051500  1
  O  O71  1  0.11715100  0.04333700  0.00050500  1
  O  O72  1  0.88284900  0.95666300  0.50050500  1
  O  O73  1  0.05899500  0.60130300  0.49051500  1
  O  O74  1  0.04333700  0.92618700  0.50050500  1
  O  O75  1  0.24464800  0.55060800  0.96240600  1
loop_
_geom_bond_atom_site_label_1
_geom_bond_atom_site_label_2
_geom_bond_distance
_geom_bond_site_symmetry_2
Fe0 O49 1.917012 1_565
Fe0 O6 1.960070 1_565
Fe0 O69 1.966326 1_555
Fe0 O28 2.111674 1_555
Fe0 O12 2.143469 1_555
Fe0 O35 2.168652 1_565
Fe1 O7 1.917001 1_555
Fe1 O66 1.960070 1_555
Fe1 O13 1.966326 1_555
Fe1 O30 2.111674 1_555
Fe1 O2 2.143469 1_555
Fe1 O31 2.168652 1_555
Fe2 O16 1.932000 1_555
Fe2 O21 1.962696 1_555
Fe2 O0 1.962880 1_555
Fe2 O1 2.118801 1_555
Fe2 O38 2.163107 1_555
Fe2 O60 2.170898 1_555
Fe3 O5 1.917002 1_455
Fe3 O26 1.960070 1_455
Fe3 O55 1.966326 1_555
Fe3 O63 2.111674 1_555
Fe3 O73 2.143469 1_555
Fe3 O51 2.168652 1_455
Fe4 O64 1.932000 1_555
Fe4 O57 1.962695 1_545
Fe4 O43 1.962868 1_545
Fe4 O33 2.118801 1_544
Fe4 O53 2.163107 1_554
Fe4 O24 2.170898 1_554
Fe5 O22 1.932000 1_555
Fe5 O62 1.962696 1_555
Fe5 O45 1.962880 1_555
Fe5 O31 2.118801 1_554
Fe5 O30 2.163107 1_554
Fe5 O2 2.170898 1_554
Fe6 O68 1.917002 1_655
Fe6 O18 1.960070 1_655
Fe6 O17 1.966326 1_555
Fe6 O46 2.111674 1_555
Fe6 O70 2.143469 1_555
Fe6 O27 2.168652 1_655
Fe7 O14 1.932000 1_555
Fe7 O58 1.962695 1_565
Fe7 O36 1.962868 1_565
Fe7 O35 2.118801 1_565
Fe7 O28 2.163107 1_555
Fe7 O12 2.170898 1_555
Fe8 O19 1.917001 1_555
Fe8 O23 1.960070 1_555
Fe8 O44 1.966326 1_555
Fe8 O38 2.111674 1_555
Fe8 O60 2.143469 1_555
Fe8 O1 2.168652 1_555
Fe9 O67 1.932000 1_555
Fe9 O41 1.962706 1_655
Fe9 O48 1.962878 1_655
Fe9 O27 2.118801 1_654
Fe9 O46 2.163107 1_554
Fe9 O70 2.170898 1_554
Fe10 O9 1.932000 1_555
Fe10 O52 1.962706 1_455
Fe10 O34 1.962878 1_455
Fe10 O51 2.118801 1_455
Fe10 O63 2.163107 1_555
Fe10 O73 2.170898 1_555
Fe11 O47 1.917012 1_545
Fe11 O61 1.960070 1_545
Fe11 O42 1.966326 1_555
Fe11 O53 2.111674 1_555
Fe11 O24 2.143469 1_555
Fe11 O33 2.168652 1_545
O0 P5 1.527430 1_555
O1 P15 1.552188 1_555
O2 P5 1.552692 1_555
O3 P19 1.586679 1_555
O3 Si3 1.623052 1_555
O4 P15 1.595210 1_555
O4 Si1 1.630016 1_555
O5 P7 1.516519 1_554
O6 P6 1.521199 1_554
O7 P19 1.516520 1_555
O8 Si3 1.593379 1_555
O8 Si2 1.594892 1_555
O9 P2 1.519550 1_555
O10 P14 1.444723 1_555
O11 Si0 1.593379 1_555
O11 Si1 1.594892 1_555
O12 P12 1.552692 1_555
O13 P1 1.527852 1_555
O14 P17 1.519550 1_555
O15 P13 1.595220 1_555
O15 Si1 1.629989 1_555
O16 P9 1.519550 1_555
O17 P13 1.527852 1_555
O18 P4 1.521193 1_555
O19 P5 1.516520 1_554
O20 P8 1.584649 1_654
O20 P6 1.597479 1_554
O21 P16 1.522601 1_555
O22 P1 1.519550 1_555
O23 P16 1.521202 1_554
O24 P0 1.552692 1_555
O25 P2 1.595220 1_555
O25 Si2 1.629989 1_556
O26 P11 1.521193 1_554
O27 P9 1.552188 1_555
O28 P10 1.553265 1_555
O29 P3 1.586667 1_555
O29 Si3 1.623052 1_555
O30 P11 1.553277 1_555
O31 P17 1.552188 1_555
O32 P7 1.586667 1_554
O32 Si0 1.623052 1_554
O33 P2 1.552188 1_555
O34 P7 1.527429 1_555
O35 P13 1.552188 1_555
O36 P0 1.527435 1_555
O37 P8 1.444723 1_555
O38 P4 1.553277 1_555
O39 P1 1.595205 1_555
O39 Si1 1.630008 1_555
O40 P12 1.586667 1_555
O40 Si3 1.623052 1_555
O41 P4 1.522586 1_555
O42 P15 1.527852 1_555
O43 P12 1.527435 1_555
O44 P9 1.527852 1_554
O45 P19 1.527430 1_555
O46 P6 1.553278 1_555
O47 P12 1.516512 1_555
O48 P3 1.527429 1_555
O49 P0 1.516512 1_554
O50 P8 1.584660 1_664
O50 P11 1.597479 1_554
O51 P1 1.552188 1_555
O52 P11 1.522586 1_555
O53 P16 1.553265 1_555
O54 P0 1.586667 1_554
O54 Si0 1.623052 1_554
O55 P2 1.527852 1_554
O56 P17 1.595210 1_555
O56 Si2 1.630016 1_556
O57 P18 1.522596 1_555
O58 P6 1.522596 1_555
O59 P5 1.586679 1_554
O59 Si0 1.623052 1_554
O60 P19 1.552692 1_555
O61 P18 1.521199 1_555
O62 P10 1.522601 1_555
O63 P18 1.553278 1_555
O64 P15 1.519550 1_555
O65 P14 1.584660 1_555
O65 P4 1.597479 1_555
O66 P10 1.521202 1_555
O67 P13 1.519550 1_555
O68 P3 1.516519 1_555
O69 P17 1.527852 1_554
O70 P7 1.552692 1_555
O71 P8 1.584662 1_554
O71 P16 1.597479 1_554
O72 P14 1.584662 1_665
O72 P10 1.597479 1_555
O73 P3 1.552692 1_555
O74 P14 1.584649 1_565
O74 P18 1.597479 1_555
O75 P9 1.595205 1_555
O75 Si2 1.630008 1_556
