# generated using pymatgen
data_Ce3GaBr3
_symmetry_space_group_name_H-M   'P 1'
_cell_length_a   6.08043178
_cell_length_b   6.08034334
_cell_length_c   6.08032206
_cell_angle_alpha   90.00000000
_cell_angle_beta   90.00000000
_cell_angle_gamma   90.00000000
_symmetry_Int_Tables_number   1
_chemical_formula_structural   Ce3GaBr3
_chemical_formula_sum   'Ce3 Ga1 Br3'
_cell_volume   224.79627321
_cell_formula_units_Z   1
loop_
 _symmetry_equiv_pos_site_id
 _symmetry_equiv_pos_as_xyz
  1  'x, y, z'
loop_
 _atom_site_type_symbol
 _atom_site_label
 _atom_site_symmetry_multiplicity
 _atom_site_fract_x
 _atom_site_fract_y
 _atom_site_fract_z
 _atom_site_occupancy
  Ce  Ce0  1  0.00000000  0.50000000  0.50000000  1
  Ce  Ce1  1  0.50000000  0.50000000  0.00000000  1
  Ce  Ce2  1  0.50000000  0.00000000  0.50000000  1
  Ga  Ga0  1  0.50000000  0.50000000  0.50000000  1
  Br  Br0  1  0.00000000  0.50000000  0.00000000  1
  Br  Br1  1  0.50000000  0.00000000  0.00000000  1
  Br  Br2  1  0.00000000  0.00000000  0.50000000  1
loop_
_geom_bond_atom_site_label_1
_geom_bond_atom_site_label_2
_geom_bond_distance
_geom_bond_site_symmetry_2
Ce0 Ga0 3.040216 1_455
Ce0 Ga0 3.040216 1_555
Ce1 Ga0 3.040161 1_554
Ce1 Ga0 3.040161 1_555
Ce2 Ga0 3.040172 1_555
Ce2 Ga0 3.040172 1_545
Br0 Ce0 3.040161 1_555
Br0 Ce0 3.040161 1_554
Br0 Ce1 3.040216 1_555
Br0 Ce1 3.040216 1_455
Br1 Ce2 3.040161 1_554
Br1 Ce2 3.040161 1_555
Br1 Ce1 3.040172 1_555
Br1 Ce1 3.040172 1_545
Br2 Ce0 3.040172 1_545
Br2 Ce0 3.040172 1_555
Br2 Ce2 3.040216 1_455
Br2 Ce2 3.040216 1_555
