# generated using pymatgen
data_Co3C2(SeO5)2
_symmetry_space_group_name_H-M   'P 1'
_cell_length_a   6.63048769
_cell_length_b   9.30128831
_cell_length_c   7.83375004
_cell_angle_alpha   82.86268371
_cell_angle_beta   64.97618988
_cell_angle_gamma   90.00813908
_symmetry_Int_Tables_number   1
_chemical_formula_structural   Co3C2(SeO5)2
_chemical_formula_sum   'Co6 C4 Se4 O20'
_cell_volume   433.63486212
_cell_formula_units_Z   2
loop_
 _symmetry_equiv_pos_site_id
 _symmetry_equiv_pos_as_xyz
  1  'x, y, z'
loop_
 _atom_site_type_symbol
 _atom_site_label
 _atom_site_symmetry_multiplicity
 _atom_site_fract_x
 _atom_site_fract_y
 _atom_site_fract_z
 _atom_site_occupancy
  Co  Co0  1  0.00000500  0.50000200  0.99999100  1
  Co  Co1  1  0.90970800  0.10156100  0.18057600  1
  Co  Co2  1  0.09029000  0.89843900  0.81942700  1
  Co  Co3  1  0.50000500  0.00000700  0.99999200  1
  Co  Co4  1  0.40978400  0.60151500  0.18046600  1
  Co  Co5  1  0.59021500  0.39848200  0.81953700  1
  C  C0  1  0.71799000  0.17492000  0.56401100  1
  C  C1  1  0.21794600  0.67497200  0.56410600  1
  C  C2  1  0.28201000  0.82507500  0.43599100  1
  C  C3  1  0.78205300  0.32502600  0.43589700  1
  Se  Se0  1  0.62882200  0.78798800  0.74219700  1
  Se  Se1  1  0.12869100  0.28798600  0.74248200  1
  Se  Se2  1  0.37117500  0.21201100  0.25780700  1
  Se  Se3  1  0.87130800  0.71200900  0.25751800  1
  O  O0  1  0.24074000  0.93679100  0.51865300  1
  O  O1  1  0.74075600  0.43679500  0.51860000  1
  O  O2  1  0.75925200  0.06319800  0.48136100  1
  O  O3  1  0.25924500  0.56320500  0.48139800  1
  O  O4  1  0.43929400  0.38037900  0.12141400  1
  O  O5  1  0.93923700  0.88053000  0.12153000  1
  O  O6  1  0.56070600  0.61962600  0.87858600  1
  O  O7  1  0.06077100  0.11947500  0.87845400  1
  O  O8  1  0.37160900  0.82081400  0.25682900  1
  O  O9  1  0.87155700  0.32059600  0.25698700  1
  O  O10  1  0.62839000  0.17918600  0.74317600  1
  O  O11  1  0.12844300  0.67940200  0.74301600  1
  O  O12  1  0.38802700  0.88162100  0.84744900  1
  O  O13  1  0.88769500  0.38182200  0.84765900  1
  O  O14  1  0.23539600  0.11834100  0.15274300  1
  O  O15  1  0.73524800  0.61817600  0.15257200  1
  O  O16  1  0.76461100  0.88165900  0.84725300  1
  O  O17  1  0.26475300  0.38182900  0.84742700  1
  O  O18  1  0.61197100  0.11837900  0.15254900  1
  O  O19  1  0.11230400  0.61818300  0.15234300  1
loop_
_geom_bond_atom_site_label_1
_geom_bond_atom_site_label_2
_geom_bond_distance
_geom_bond_site_symmetry_2
Co0 O13 2.065037 1_455
Co0 O19 2.065123 1_556
Co0 O17 2.066426 1_555
Co0 O15 2.066506 1_456
Co0 O11 2.297098 1_555
Co0 O9 2.297236 1_456
Co1 O18 2.080419 1_555
Co1 O14 2.080464 1_655
Co1 O2 2.115875 1_555
Co1 O7 2.128138 1_654
Co1 O5 2.153766 1_545
Co1 O9 2.178991 1_555
Co2 O12 2.080400 1_555
Co2 O16 2.080424 1_455
Co2 O0 2.115795 1_555
Co2 O5 2.128006 1_456
Co2 O7 2.153767 1_565
Co2 O11 2.179010 1_555
Co3 O18 2.066142 1_556
Co3 O12 2.066181 1_545
Co3 O14 2.067192 1_556
Co3 O16 2.067232 1_545
Co3 O10 2.295045 1_555
Co3 O8 2.295229 1_546
Co4 O15 2.078756 1_555
Co4 O19 2.079014 1_555
Co4 O3 2.116890 1_555
Co4 O6 2.126317 1_554
Co4 O4 2.154738 1_555
Co4 O8 2.181243 1_555
Co5 O17 2.078749 1_555
Co5 O13 2.079006 1_555
Co5 O1 2.116925 1_555
Co5 O4 2.126300 1_556
Co5 O6 2.154804 1_555
Co5 O10 2.181211 1_555
C0 O2 1.261475 1_555
C0 O10 1.277835 1_555
C1 O3 1.262085 1_555
C1 O11 1.276283 1_555
C2 O0 1.261475 1_555
C2 O8 1.277806 1_555
C3 O1 1.262081 1_555
C3 O9 1.276283 1_555
O4 Se2 1.724483 1_555
O5 Se3 1.724413 1_555
O6 Se0 1.724424 1_555
O7 Se1 1.724286 1_555
O12 Se0 1.747159 1_555
O13 Se1 1.749077 1_655
O14 Se2 1.746943 1_555
O15 Se3 1.748426 1_555
O16 Se0 1.746949 1_555
O17 Se1 1.748481 1_555
O18 Se2 1.747165 1_555
O19 Se3 1.749023 1_455
