# generated using pymatgen
data_MgUB2O7
_symmetry_space_group_name_H-M   'P 1'
_cell_length_a   7.39399200
_cell_length_b   8.02298800
_cell_length_c   9.87627700
_cell_angle_alpha   90.00000000
_cell_angle_beta   90.00000000
_cell_angle_gamma   90.00000000
_symmetry_Int_Tables_number   1
_chemical_formula_structural   MgUB2O7
_chemical_formula_sum   'Mg4 U4 B8 O28'
_cell_volume   585.87960632
_cell_formula_units_Z   4
loop_
 _symmetry_equiv_pos_site_id
 _symmetry_equiv_pos_as_xyz
  1  'x, y, z'
loop_
 _atom_site_type_symbol
 _atom_site_label
 _atom_site_symmetry_multiplicity
 _atom_site_fract_x
 _atom_site_fract_y
 _atom_site_fract_z
 _atom_site_occupancy
  Mg  Mg0  1  0.23443700  0.75000000  0.45204500  1
  Mg  Mg1  1  0.76556300  0.75000000  0.95204500  1
  Mg  Mg2  1  0.23443700  0.25000000  0.04795500  1
  Mg  Mg3  1  0.76556300  0.25000000  0.54795500  1
  U  U0  1  0.22434400  0.25000000  0.44783200  1
  U  U1  1  0.77565600  0.75000000  0.55216800  1
  U  U2  1  0.77565600  0.25000000  0.94783200  1
  U  U3  1  0.22434400  0.75000000  0.05216800  1
  B  B0  1  0.87178000  0.25000000  0.24118200  1
  B  B1  1  0.12822000  0.75000000  0.75881800  1
  B  B2  1  0.53155700  0.75000000  0.21234300  1
  B  B3  1  0.53155700  0.25000000  0.28765700  1
  B  B4  1  0.12822000  0.25000000  0.74118200  1
  B  B5  1  0.46844300  0.25000000  0.78765700  1
  B  B6  1  0.46844300  0.75000000  0.71234300  1
  B  B7  1  0.87178000  0.75000000  0.25881800  1
  O  O0  1  0.54296500  0.75000000  0.07405300  1
  O  O1  1  0.07254500  0.25000000  0.87142100  1
  O  O2  1  0.36092900  0.25000000  0.23361100  1
  O  O3  1  0.77168900  0.02076900  0.95107900  1
  O  O4  1  0.22831100  0.52076900  0.04892100  1
  O  O5  1  0.77168900  0.47923100  0.95107900  1
  O  O6  1  0.68464500  0.75000000  0.29716600  1
  O  O7  1  0.22831100  0.02076900  0.45107900  1
  O  O8  1  0.92745500  0.75000000  0.12857900  1
  O  O9  1  0.45703500  0.75000000  0.57405300  1
  O  O10  1  0.02012000  0.75000000  0.86983500  1
  O  O11  1  0.97988000  0.25000000  0.13016500  1
  O  O12  1  0.63907100  0.75000000  0.76638900  1
  O  O13  1  0.97988000  0.75000000  0.36983500  1
  O  O14  1  0.31535500  0.25000000  0.70283400  1
  O  O15  1  0.77168900  0.97923100  0.54892100  1
  O  O16  1  0.92745500  0.25000000  0.37142100  1
  O  O17  1  0.22831100  0.97923100  0.04892100  1
  O  O18  1  0.45703500  0.25000000  0.92594700  1
  O  O19  1  0.22831100  0.47923100  0.45107900  1
  O  O20  1  0.68464500  0.25000000  0.20283400  1
  O  O21  1  0.63907100  0.25000000  0.73361100  1
  O  O22  1  0.02012000  0.25000000  0.63016500  1
  O  O23  1  0.77168900  0.52076900  0.54892100  1
  O  O24  1  0.07254500  0.75000000  0.62857900  1
  O  O25  1  0.31535500  0.75000000  0.79716600  1
  O  O26  1  0.54296500  0.25000000  0.42594700  1
  O  O27  1  0.36092900  0.75000000  0.26638900  1
loop_
_geom_bond_atom_site_label_1
_geom_bond_atom_site_label_2
_geom_bond_distance
_geom_bond_site_symmetry_2
Mg0 O9 2.039837 1_555
Mg0 O13 2.049848 1_455
Mg0 O27 2.058350 1_555
Mg0 O24 2.114867 1_555
Mg0 O7 2.172870 1_565
Mg0 O19 2.172870 1_555
Mg1 O0 2.039837 1_556
Mg1 O10 2.049848 1_655
Mg1 O12 2.058350 1_555
Mg1 O8 2.114867 1_556
Mg1 O3 2.172870 1_565
Mg1 O5 2.172870 1_555
Mg2 O18 2.039837 1_554
Mg2 O11 2.049848 1_455
Mg2 O2 2.058350 1_555
Mg2 O1 2.114867 1_554
Mg2 O4 2.172870 1_555
Mg2 O17 2.172870 1_545
Mg3 O26 2.039837 1_555
Mg3 O22 2.049848 1_655
Mg3 O21 2.058350 1_555
Mg3 O16 2.114867 1_555
Mg3 O23 2.172870 1_555
Mg3 O15 2.172870 1_545
B0 O16 1.350545 1_555
B0 O11 1.356847 1_555
B0 O20 1.434572 1_555
B1 O24 1.350545 1_555
B1 O10 1.356847 1_555
B1 O25 1.434572 1_555
B2 O0 1.368393 1_555
B2 O27 1.369892 1_555
B2 O6 1.408215 1_555
B3 O26 1.368393 1_555
B3 O2 1.369892 1_555
B3 O20 1.408215 1_555
B4 O1 1.350545 1_555
B4 O22 1.356847 1_555
B4 O14 1.434572 1_555
B5 O18 1.368393 1_555
B5 O21 1.369892 1_555
B5 O14 1.408215 1_555
B6 O9 1.368393 1_555
B6 O12 1.369892 1_555
B6 O25 1.408215 1_555
B7 O8 1.350545 1_555
B7 O13 1.356847 1_555
B7 O6 1.434572 1_555
O0 U3 2.365775 1_555
O1 U2 2.321290 1_455
O2 U0 2.344382 1_555
O3 U2 1.839631 1_555
O4 U3 1.839631 1_555
O5 U2 1.839631 1_555
O6 U1 2.606825 1_555
O7 U0 1.839631 1_555
O8 U3 2.321290 1_655
O9 U1 2.365775 1_555
O10 U3 2.350100 1_556
O11 U2 2.350100 1_554
O12 U1 2.344382 1_555
O13 U1 2.350100 1_555
O14 U0 2.606825 1_555
O15 U1 1.839631 1_555
O16 U0 2.321290 1_655
O17 U3 1.839631 1_555
O18 U2 2.365775 1_555
O19 U0 1.839631 1_555
O20 U2 2.606825 1_554
O21 U2 2.344382 1_555
O22 U0 2.350100 1_555
O23 U1 1.839631 1_555
O24 U1 2.321290 1_455
O25 U3 2.606825 1_556
O26 U0 2.365775 1_555
O27 U3 2.344382 1_555
