# generated using pymatgen
data_Li3Nd3(WO6)2
_symmetry_space_group_name_H-M   'P 1'
_cell_length_a   10.94571413
_cell_length_b   10.94571413
_cell_length_c   10.94571413
_cell_angle_alpha   109.47122063
_cell_angle_beta   109.47122063
_cell_angle_gamma   109.47122063
_symmetry_Int_Tables_number   1
_chemical_formula_structural   Li3Nd3(WO6)2
_chemical_formula_sum   'Li12 Nd12 W8 O48'
_cell_volume   1009.50950813
_cell_formula_units_Z   4
loop_
 _symmetry_equiv_pos_site_id
 _symmetry_equiv_pos_as_xyz
  1  'x, y, z'
loop_
 _atom_site_type_symbol
 _atom_site_label
 _atom_site_symmetry_multiplicity
 _atom_site_fract_x
 _atom_site_fract_y
 _atom_site_fract_z
 _atom_site_occupancy
  Li  Li0  1  0.25000000  0.12500000  0.87500000  1
  Li  Li1  1  0.37500000  0.62500000  0.75000000  1
  Li  Li2  1  0.25000000  0.62500000  0.37500000  1
  Li  Li3  1  0.87500000  0.12500000  0.75000000  1
  Li  Li4  1  0.62500000  0.75000000  0.37500000  1
  Li  Li5  1  0.12500000  0.87500000  0.25000000  1
  Li  Li6  1  0.12500000  0.75000000  0.87500000  1
  Li  Li7  1  0.75000000  0.37500000  0.62500000  1
  Li  Li8  1  0.75000000  0.87500000  0.12500000  1
  Li  Li9  1  0.62500000  0.37500000  0.25000000  1
  Li  Li10  1  0.37500000  0.25000000  0.62500000  1
  Li  Li11  1  0.87500000  0.25000000  0.12500000  1
  Nd  Nd0  1  0.37500000  0.12500000  0.25000000  1
  Nd  Nd1  1  0.87500000  0.62500000  0.25000000  1
  Nd  Nd2  1  0.62500000  0.25000000  0.87500000  1
  Nd  Nd3  1  0.25000000  0.37500000  0.12500000  1
  Nd  Nd4  1  0.12500000  0.37500000  0.75000000  1
  Nd  Nd5  1  0.37500000  0.75000000  0.12500000  1
  Nd  Nd6  1  0.87500000  0.75000000  0.62500000  1
  Nd  Nd7  1  0.75000000  0.12500000  0.37500000  1
  Nd  Nd8  1  0.62500000  0.87500000  0.75000000  1
  Nd  Nd9  1  0.12500000  0.25000000  0.37500000  1
  Nd  Nd10  1  0.75000000  0.62500000  0.87500000  1
  Nd  Nd11  1  0.25000000  0.87500000  0.62500000  1
  W  W0  1  0.00000000  0.50000000  0.50000000  1
  W  W1  1  0.50000000  0.50000000  0.50000000  1
  W  W2  1  0.50000000  0.00000000  0.50000000  1
  W  W3  1  0.50000000  0.00000000  0.00000000  1
  W  W4  1  0.50000000  0.50000000  0.00000000  1
  W  W5  1  0.00000000  0.00000000  0.00000000  1
  W  W6  1  0.00000000  0.00000000  0.50000000  1
  W  W7  1  0.00000000  0.50000000  0.00000000  1
  O  O0  1  0.57998800  0.90833800  0.38453600  1
  O  O1  1  0.59166200  0.17165000  0.47619900  1
  O  O2  1  0.11546400  0.02380100  0.19545200  1
  O  O3  1  0.97619900  0.80454800  0.88453600  1
  O  O4  1  0.32835000  0.92001200  0.30454800  1
  O  O5  1  0.38453600  0.57998800  0.90833800  1
  O  O6  1  0.82835000  0.80454800  0.42001200  1
  O  O7  1  0.92001200  0.11546400  0.59166200  1
  O  O8  1  0.09166200  0.97619900  0.67165000  1
  O  O9  1  0.80454800  0.42001200  0.82835000  1
  O  O10  1  0.40833800  0.82835000  0.52380100  1
  O  O11  1  0.32835000  0.90833800  0.02380100  1
  O  O12  1  0.88453600  0.40833800  0.07998800  1
  O  O13  1  0.47619900  0.59166200  0.17165000  1
  O  O14  1  0.19545200  0.11546400  0.02380100  1
  O  O15  1  0.30454800  0.32835000  0.92001200  1
  O  O16  1  0.90833800  0.38453600  0.57998800  1
  O  O17  1  0.59166200  0.92001200  0.11546400  1
  O  O18  1  0.47619900  0.38453600  0.30454800  1
  O  O19  1  0.42001200  0.82835000  0.80454800  1
  O  O20  1  0.19545200  0.57998800  0.17165000  1
  O  O21  1  0.80454800  0.88453600  0.97619900  1
  O  O22  1  0.69545200  0.52380100  0.61546400  1
  O  O23  1  0.52380100  0.40833800  0.82835000  1
  O  O24  1  0.30454800  0.47619900  0.38453600  1
  O  O25  1  0.38453600  0.30454800  0.47619900  1
  O  O26  1  0.17165000  0.47619900  0.59166200  1
  O  O27  1  0.02380100  0.32835000  0.90833800  1
  O  O28  1  0.40833800  0.07998800  0.88453600  1
  O  O29  1  0.97619900  0.67165000  0.09166200  1
  O  O30  1  0.07998800  0.69545200  0.67165000  1
  O  O31  1  0.61546400  0.42001200  0.09166200  1
  O  O32  1  0.42001200  0.09166200  0.61546400  1
  O  O33  1  0.57998800  0.17165000  0.19545200  1
  O  O34  1  0.52380100  0.61546400  0.69545200  1
  O  O35  1  0.11546400  0.59166200  0.92001200  1
  O  O36  1  0.88453600  0.97619900  0.80454800  1
  O  O37  1  0.02380100  0.19545200  0.11546400  1
  O  O38  1  0.67165000  0.07998800  0.69545200  1
  O  O39  1  0.90833800  0.02380100  0.32835000  1
  O  O40  1  0.69545200  0.67165000  0.07998800  1
  O  O41  1  0.07998800  0.88453600  0.40833800  1
  O  O42  1  0.82835000  0.52380100  0.40833800  1
  O  O43  1  0.67165000  0.09166200  0.97619900  1
  O  O44  1  0.92001200  0.30454800  0.32835000  1
  O  O45  1  0.17165000  0.19545200  0.57998800  1
  O  O46  1  0.09166200  0.61546400  0.42001200  1
  O  O47  1  0.61546400  0.69545200  0.52380100  1
loop_
_geom_bond_atom_site_label_1
_geom_bond_atom_site_label_2
_geom_bond_distance
_geom_bond_site_symmetry_2
Li0 O14 1.933973 1_556
Li0 O8 1.933982 1_545
Li0 O15 1.933984 1_555
Li0 O28 1.933984 1_555
Li1 O34 1.933973 1_555
Li1 O26 1.933982 1_555
Li1 O5 1.933984 1_555
Li1 O19 1.933984 1_555
Li2 O24 1.933973 1_555
Li2 O10 1.933982 1_555
Li2 O20 1.933984 1_555
Li2 O46 1.933984 1_555
Li3 O36 1.933973 1_545
Li3 O27 1.933982 1_655
Li3 O7 1.933984 1_555
Li3 O38 1.933984 1_555
Li4 O47 1.933973 1_555
Li4 O13 1.933982 1_555
Li4 O0 1.933984 1_555
Li4 O6 1.933984 1_555
Li5 O2 1.933973 1_565
Li5 O29 1.933982 1_455
Li5 O4 1.933984 1_555
Li5 O41 1.933984 1_555
Li6 O3 1.933973 1_455
Li6 O11 1.933982 1_556
Li6 O35 1.933984 1_555
Li6 O30 1.933984 1_555
Li7 O22 1.933973 1_555
Li7 O1 1.933982 1_555
Li7 O16 1.933984 1_555
Li7 O9 1.933984 1_555
Li8 O21 1.933973 1_554
Li8 O39 1.933982 1_565
Li8 O17 1.933984 1_555
Li8 O40 1.933984 1_555
Li9 O18 1.933973 1_555
Li9 O42 1.933982 1_555
Li9 O33 1.933984 1_555
Li9 O31 1.933984 1_555
Li10 O25 1.933973 1_555
Li10 O23 1.933982 1_555
Li10 O45 1.933984 1_555
Li10 O32 1.933984 1_555
Li11 O37 1.933973 1_655
Li11 O43 1.933982 1_554
Li11 O44 1.933984 1_555
Li11 O12 1.933984 1_555
Nd0 O2 2.446252 1_555
Nd0 O18 2.446252 1_555
Nd0 O33 2.446252 1_555
Nd0 O4 2.446252 1_545
Nd0 O1 2.539764 1_555
Nd0 O11 2.539764 1_545
Nd0 O25 2.539765 1_555
Nd0 O14 2.539765 1_555
Nd1 O41 2.446252 1_655
Nd1 O31 2.446252 1_555
Nd1 O29 2.446259 1_555
Nd1 O42 2.446259 1_555
Nd1 O6 2.539757 1_555
Nd1 O46 2.539757 1_655
Nd1 O12 2.539757 1_555
Nd1 O40 2.539757 1_555
Nd2 O12 2.446252 1_556
Nd2 O32 2.446252 1_555
Nd2 O43 2.446259 1_555
Nd2 O23 2.446259 1_555
Nd2 O9 2.539757 1_555
Nd2 O31 2.539757 1_556
Nd2 O28 2.539757 1_555
Nd2 O38 2.539757 1_555
Nd3 O14 2.446252 1_555
Nd3 O24 2.446252 1_555
Nd3 O20 2.446252 1_555
Nd3 O15 2.446252 1_554
Nd3 O13 2.539764 1_555
Nd3 O27 2.539764 1_554
Nd3 O18 2.539765 1_555
Nd3 O37 2.539765 1_555
Nd4 O5 2.446252 1_555
Nd4 O7 2.446252 1_455
Nd4 O27 2.446259 1_555
Nd4 O26 2.446259 1_555
Nd4 O15 2.539757 1_555
Nd4 O35 2.539757 1_555
Nd4 O16 2.539757 1_455
Nd4 O45 2.539757 1_555
Nd5 O0 2.446252 1_555
Nd5 O35 2.446252 1_554
Nd5 O11 2.446259 1_555
Nd5 O13 2.446259 1_555
Nd5 O4 2.539757 1_555
Nd5 O17 2.539757 1_555
Nd5 O5 2.539757 1_554
Nd5 O20 2.539757 1_555
Nd6 O47 2.446252 1_555
Nd6 O3 2.446252 1_555
Nd6 O30 2.446252 1_655
Nd6 O6 2.446252 1_555
Nd6 O8 2.539764 1_655
Nd6 O42 2.539764 1_555
Nd6 O36 2.539765 1_555
Nd6 O22 2.539765 1_555
Nd7 O16 2.446252 1_555
Nd7 O17 2.446252 1_545
Nd7 O1 2.446259 1_555
Nd7 O39 2.446259 1_555
Nd7 O44 2.539757 1_555
Nd7 O7 2.539757 1_555
Nd7 O0 2.539757 1_545
Nd7 O33 2.539757 1_555
Nd8 O34 2.446252 1_555
Nd8 O36 2.446252 1_555
Nd8 O38 2.446252 1_565
Nd8 O19 2.446252 1_555
Nd8 O43 2.539764 1_565
Nd8 O10 2.539764 1_555
Nd8 O21 2.539765 1_555
Nd8 O47 2.539765 1_555
Nd9 O37 2.446252 1_555
Nd9 O25 2.446252 1_555
Nd9 O45 2.446252 1_555
Nd9 O44 2.446252 1_455
Nd9 O26 2.539764 1_555
Nd9 O39 2.539764 1_455
Nd9 O24 2.539765 1_555
Nd9 O2 2.539765 1_555
Nd10 O22 2.446252 1_555
Nd10 O21 2.446252 1_555
Nd10 O40 2.446252 1_556
Nd10 O9 2.446252 1_555
Nd10 O29 2.539764 1_556
Nd10 O23 2.539764 1_555
Nd10 O3 2.539765 1_555
Nd10 O34 2.539765 1_555
Nd11 O28 2.446252 1_565
Nd11 O46 2.446252 1_555
Nd11 O8 2.446259 1_555
Nd11 O10 2.446259 1_555
Nd11 O19 2.539757 1_555
Nd11 O32 2.539757 1_565
Nd11 O41 2.539757 1_555
Nd11 O30 2.539757 1_555
O0 W2 1.961734 1_565
O1 W2 1.961727 1_555
O2 W5 1.961739 1_555
O3 W5 1.961739 1_666
O4 W2 1.961734 1_565
O5 W4 1.961734 1_556
O6 W6 1.961734 1_665
O7 W6 1.961734 1_655
O8 W6 1.961727 1_565
O9 W7 1.961734 1_656
O10 W2 1.961727 1_565
O11 W3 1.961727 1_565
O12 W7 1.961734 1_655
O13 W4 1.961727 1_555
O14 W5 1.961739 1_555
O15 W4 1.961734 1_556
O16 W0 1.961734 1_655
O17 W3 1.961734 1_565
O18 W1 1.961739 1_555
O19 W3 1.961734 1_566
O20 W7 1.961734 1_555
O21 W5 1.961739 1_666
O22 W1 1.961739 1_555
O23 W4 1.961727 1_556
O24 W1 1.961739 1_555
O25 W1 1.961739 1_555
O26 W0 1.961727 1_555
O27 W7 1.961727 1_556
O28 W3 1.961734 1_556
O29 W7 1.961727 1_655
O30 W0 1.961734 1_555
O31 W4 1.961734 1_555
O32 W2 1.961734 1_555
O33 W3 1.961734 1_555
O34 W1 1.961739 1_555
O35 W7 1.961734 1_556
O36 W5 1.961739 1_666
O37 W5 1.961739 1_555
O38 W2 1.961734 1_555
O39 W6 1.961727 1_655
O40 W4 1.961734 1_555
O41 W6 1.961734 1_565
O42 W0 1.961727 1_655
O43 W3 1.961727 1_556
O44 W0 1.961734 1_655
O45 W6 1.961734 1_555
O46 W0 1.961734 1_555
O47 W1 1.961739 1_555
