# generated using pymatgen
data_Ba3NiIr2O9
_symmetry_space_group_name_H-M   'P 1'
_cell_length_a   5.82469400
_cell_length_b   5.82469589
_cell_length_c   28.70623200
_cell_angle_alpha   89.99995632
_cell_angle_beta   89.99998018
_cell_angle_gamma   59.99997818
_symmetry_Int_Tables_number   1
_chemical_formula_structural   Ba3NiIr2O9
_chemical_formula_sum   'Ba12 Ni4 Ir8 O36'
_cell_volume   843.43787010
_cell_formula_units_Z   4
loop_
 _symmetry_equiv_pos_site_id
 _symmetry_equiv_pos_as_xyz
  1  'x, y, z'
loop_
 _atom_site_type_symbol
 _atom_site_label
 _atom_site_symmetry_multiplicity
 _atom_site_fract_x
 _atom_site_fract_y
 _atom_site_fract_z
 _atom_site_occupancy
  Ba  Ba0  1  0.00000200  0.00000000  0.12500900  1
  Ba  Ba1  1  0.00000000  0.00000100  0.62501300  1
  Ba  Ba2  1  0.99999900  0.00000000  0.37502600  1
  Ba  Ba3  1  0.99999900  0.00000100  0.87500600  1
  Ba  Ba4  1  0.66666500  0.66666600  0.45828400  1
  Ba  Ba5  1  0.66666300  0.66666800  0.95823800  1
  Ba  Ba6  1  0.33333200  0.33333400  0.20817000  1
  Ba  Ba7  1  0.33333300  0.33333300  0.70822800  1
  Ba  Ba8  1  0.33333200  0.33333400  0.04175400  1
  Ba  Ba9  1  0.33333200  0.33333400  0.54180000  1
  Ba  Ba10  1  0.66666300  0.66666800  0.29170800  1
  Ba  Ba11  1  0.66666500  0.66666600  0.79174700  1
  Ni  Ni0  1  0.99999600  0.99998900  0.50002300  1
  Ni  Ni1  1  0.99999700  0.00000500  0.74997600  1
  Ni  Ni2  1  0.00002400  0.99999200  0.00002300  1
  Ni  Ni3  1  0.00004000  0.99998900  0.24998800  1
  Ir  Ir0  1  0.66666800  0.66666700  0.07989900  1
  Ir  Ir1  1  0.66666600  0.66666600  0.57991400  1
  Ir  Ir2  1  0.33333300  0.33333400  0.32977600  1
  Ir  Ir3  1  0.33333300  0.33333500  0.82980800  1
  Ir  Ir4  1  0.33333300  0.33333400  0.42022300  1
  Ir  Ir5  1  0.33333300  0.33333400  0.92017700  1
  Ir  Ir6  1  0.66666800  0.66666700  0.17009000  1
  Ir  Ir7  1  0.66666500  0.66666700  0.67010400  1
  O  O0  1  0.51047000  0.97904700  0.12498900  1
  O  O1  1  0.51050400  0.97898600  0.62500100  1
  O  O2  1  0.02122600  0.48938700  0.37499700  1
  O  O3  1  0.02088000  0.48955900  0.87499300  1
  O  O4  1  0.48938700  0.48938800  0.37499700  1
  O  O5  1  0.48956000  0.48956200  0.87499200  1
  O  O6  1  0.51047500  0.51048300  0.12498900  1
  O  O7  1  0.51050600  0.51050900  0.62500100  1
  O  O8  1  0.97905100  0.51047200  0.12498900  1
  O  O9  1  0.97898600  0.51050600  0.62500100  1
  O  O10  1  0.48938600  0.02122700  0.37499700  1
  O  O11  1  0.48955800  0.02088000  0.87499300  1
  O  O12  1  0.82812600  0.34374500  0.20860000  1
  O  O13  1  0.82806100  0.34387600  0.70858100  1
  O  O14  1  0.65613600  0.17193200  0.45856400  1
  O  O15  1  0.65624000  0.17188100  0.95857200  1
  O  O16  1  0.17193100  0.17193200  0.45856400  1
  O  O17  1  0.17187800  0.17188000  0.95857200  1
  O  O18  1  0.82812500  0.82812600  0.20860000  1
  O  O19  1  0.82806100  0.82806300  0.70858100  1
  O  O20  1  0.34374200  0.82812800  0.20860000  1
  O  O21  1  0.34387400  0.82806200  0.70858100  1
  O  O22  1  0.17195000  0.65610000  0.29145100  1
  O  O23  1  0.17188900  0.65622200  0.79142500  1
  O  O24  1  0.65609800  0.17195100  0.29145100  1
  O  O25  1  0.65622100  0.17189000  0.79142500  1
  O  O26  1  0.17193100  0.65613700  0.45856400  1
  O  O27  1  0.17187900  0.65624200  0.95857100  1
  O  O28  1  0.17194900  0.17195100  0.29145100  1
  O  O29  1  0.17188900  0.17189000  0.79142500  1
  O  O30  1  0.82806000  0.82806200  0.04141700  1
  O  O31  1  0.82808800  0.82808900  0.54141700  1
  O  O32  1  0.82806200  0.34387600  0.04141700  1
  O  O33  1  0.82808900  0.34382100  0.54141700  1
  O  O34  1  0.34387300  0.82806300  0.04141600  1
  O  O35  1  0.34381900  0.82809000  0.54141700  1
loop_
_geom_bond_atom_site_label_1
_geom_bond_atom_site_label_2
_geom_bond_distance
_geom_bond_site_symmetry_2
Ba0 O0 2.914215 1_545
Ba0 O6 2.914235 1_545
Ba0 O8 2.914245 1_455
Ba0 O8 2.914285 1_445
Ba0 O6 2.914294 1_455
Ba0 O0 2.914314 1_445
Ba0 O20 2.960497 1_545
Ba0 O12 2.960513 1_455
Ba0 O18 2.960529 1_445
Ba0 O32 2.960921 1_455
Ba0 O34 2.960930 1_545
Ba0 O30 2.960935 1_445
Ba1 O1 2.914255 1_545
Ba1 O9 2.914265 1_455
Ba1 O7 2.914269 1_545
Ba1 O7 2.914281 1_455
Ba1 O9 2.914288 1_445
Ba1 O1 2.914296 1_445
Ba1 O21 2.960357 1_545
Ba1 O13 2.960362 1_455
Ba1 O19 2.960366 1_445
Ba1 O35 2.960846 1_545
Ba1 O33 2.960849 1_455
Ba1 O31 2.960863 1_445
Ba2 O10 2.914312 1_555
Ba2 O2 2.914313 1_645
Ba2 O4 2.914314 1_555
Ba2 O4 2.914314 1_645
Ba2 O10 2.914318 1_655
Ba2 O2 2.914319 1_655
Ba2 O26 2.959627 1_645
Ba2 O14 2.959627 1_555
Ba2 O16 2.959631 1_655
Ba2 O22 2.960598 1_645
Ba2 O28 2.960600 1_655
Ba2 O24 2.960600 1_555
Ba3 O11 2.914242 1_655
Ba3 O3 2.914243 1_655
Ba3 O5 2.914250 1_555
Ba3 O5 2.914250 1_645
Ba3 O11 2.914259 1_555
Ba3 O3 2.914261 1_645
Ba3 O27 2.959947 1_645
Ba3 O17 2.959970 1_655
Ba3 O15 2.959971 1_555
Ba3 O25 2.960376 1_555
Ba3 O29 2.960379 1_655
Ba3 O23 2.960380 1_645
Ba4 O33 2.889153 1_555
Ba4 O35 2.889156 1_555
Ba4 O31 2.889157 1_555
Ba4 O26 2.912834 1_555
Ba4 O14 2.912835 1_555
Ba4 O16 2.912842 1_655
Ba4 O16 2.912842 1_565
Ba4 O26 2.912851 1_655
Ba4 O14 2.912852 1_565
Ba4 O4 2.985787 1_555
Ba4 O10 2.985800 1_565
Ba4 O2 2.985801 1_655
Ba5 O34 2.890064 1_556
Ba5 O30 2.890092 1_556
Ba5 O32 2.890093 1_556
Ba5 O27 2.912820 1_555
Ba5 O17 2.912828 1_565
Ba5 O15 2.912830 1_555
Ba5 O17 2.912846 1_655
Ba5 O15 2.912847 1_565
Ba5 O27 2.912855 1_655
Ba5 O11 2.983781 1_565
Ba5 O3 2.983796 1_655
Ba5 O5 2.983797 1_555
Ba6 O28 2.892439 1_555
Ba6 O24 2.892439 1_555
Ba6 O22 2.892440 1_555
Ba6 O20 2.912842 1_555
Ba6 O18 2.912844 1_455
Ba6 O12 2.912844 1_555
Ba6 O18 2.912849 1_545
Ba6 O12 2.912849 1_455
Ba6 O20 2.912853 1_545
Ba6 O8 2.982518 1_455
Ba6 O0 2.982538 1_545
Ba6 O6 2.982551 1_555
Ba7 O29 2.890790 1_555
Ba7 O25 2.890793 1_555
Ba7 O23 2.890797 1_555
Ba7 O19 2.912844 1_545
Ba7 O13 2.912847 1_555
Ba7 O21 2.912848 1_555
Ba7 O13 2.912853 1_455
Ba7 O21 2.912854 1_545
Ba7 O19 2.912855 1_455
Ba7 O9 2.983775 1_455
Ba7 O1 2.983777 1_545
Ba7 O7 2.983781 1_555
Ba8 O15 2.890494 1_554
Ba8 O17 2.890496 1_554
Ba8 O27 2.890517 1_554
Ba8 O32 2.912843 1_455
Ba8 O34 2.912847 1_555
Ba8 O30 2.912848 1_455
Ba8 O30 2.912848 1_545
Ba8 O34 2.912852 1_545
Ba8 O32 2.912854 1_555
Ba8 O8 2.983760 1_455
Ba8 O0 2.983777 1_545
Ba8 O6 2.983794 1_555
Ba9 O26 2.891476 1_555
Ba9 O16 2.891478 1_555
Ba9 O14 2.891480 1_555
Ba9 O31 2.912845 1_455
Ba9 O33 2.912845 1_455
Ba9 O35 2.912846 1_555
Ba9 O31 2.912851 1_545
Ba9 O33 2.912851 1_555
Ba9 O35 2.912852 1_545
Ba9 O9 2.983175 1_455
Ba9 O1 2.983180 1_545
Ba9 O7 2.983185 1_555
Ba10 O18 2.888773 1_555
Ba10 O20 2.888777 1_555
Ba10 O12 2.888784 1_555
Ba10 O22 2.912827 1_555
Ba10 O28 2.912835 1_565
Ba10 O24 2.912842 1_555
Ba10 O24 2.912848 1_565
Ba10 O28 2.912853 1_655
Ba10 O22 2.912862 1_655
Ba10 O4 2.985832 1_555
Ba10 O10 2.985842 1_565
Ba10 O2 2.985853 1_655
Ba11 O13 2.889781 1_555
Ba11 O21 2.889782 1_555
Ba11 O19 2.889788 1_555
Ba11 O23 2.912827 1_555
Ba11 O25 2.912827 1_555
Ba11 O29 2.912838 1_655
Ba11 O29 2.912838 1_565
Ba11 O23 2.912850 1_655
Ba11 O25 2.912851 1_565
Ba11 O5 2.983772 1_555
Ba11 O11 2.983812 1_565
Ba11 O3 2.983813 1_655
Ni0 O31 2.102310 1_555
Ni0 O35 2.102373 1_655
Ni0 O33 2.102411 1_565
Ni0 O26 2.103550 1_655
Ni0 O14 2.103582 1_565
Ni0 O16 2.103657 1_665
Ni1 O13 2.102588 1_555
Ni1 O21 2.102614 1_645
Ni1 O19 2.102619 1_545
Ni1 O25 2.103070 1_555
Ni1 O29 2.103075 1_655
Ni1 O23 2.103099 1_645
Ni2 O34 2.102465 1_555
Ni2 O32 2.102628 1_465
Ni2 O30 2.102668 1_455
Ni2 O17 2.102961 1_564
Ni2 O27 2.103012 1_554
Ni2 O15 2.103136 1_464
Ni3 O20 2.101772 1_555
Ni3 O12 2.101996 1_465
Ni3 O18 2.102089 1_455
Ni3 O28 2.103694 1_565
Ni3 O22 2.103767 1_555
Ni3 O24 2.103988 1_465
Ir0 O30 1.967609 1_555
Ir0 O32 1.967626 1_555
Ir0 O34 1.967658 1_555
Ir0 O6 2.039194 1_555
Ir0 O0 2.039207 1_555
Ir0 O8 2.039218 1_555
Ir1 O31 1.968093 1_555
Ir1 O33 1.968094 1_555
Ir1 O35 1.968101 1_555
Ir1 O7 2.038906 1_555
Ir1 O9 2.038917 1_555
Ir1 O1 2.038919 1_555
Ir2 O24 1.964990 1_555
Ir2 O22 1.964994 1_555
Ir2 O28 1.965000 1_555
Ir2 O10 2.040532 1_555
Ir2 O2 2.040532 1_555
Ir2 O4 2.040537 1_555
Ir3 O23 1.966432 1_555
Ir3 O25 1.966437 1_555
Ir3 O29 1.966442 1_555
Ir3 O5 2.041209 1_555
Ir3 O3 2.041222 1_555
Ir3 O11 2.041230 1_555
Ir4 O14 1.965406 1_555
Ir4 O26 1.965407 1_555
Ir4 O16 1.965410 1_555
Ir4 O2 2.040624 1_555
Ir4 O10 2.040625 1_555
Ir4 O4 2.040627 1_555
Ir5 O27 1.966698 1_555
Ir5 O15 1.966709 1_555
Ir5 O17 1.966717 1_555
Ir5 O3 2.041204 1_555
Ir5 O11 2.041209 1_555
Ir5 O5 2.041230 1_555
Ir6 O18 1.968600 1_555
Ir6 O12 1.968623 1_555
Ir6 O20 1.968640 1_555
Ir6 O6 2.039396 1_555
Ir6 O0 2.039406 1_555
Ir6 O8 2.039418 1_555
Ir7 O13 1.967545 1_555
Ir7 O21 1.967545 1_555
Ir7 O19 1.967550 1_555
Ir7 O7 2.039199 1_555
Ir7 O1 2.039205 1_555
Ir7 O9 2.039213 1_555
