# generated using pymatgen
data_Rb4Nb35Al2O70
_symmetry_space_group_name_H-M   'P 1'
_cell_length_a   7.94198322
_cell_length_b   7.94198322
_cell_length_c   26.96603600
_cell_angle_alpha   90.00000000
_cell_angle_beta   90.00000000
_cell_angle_gamma   119.99999350
_symmetry_Int_Tables_number   1
_chemical_formula_structural   Rb4Nb35Al2O70
_chemical_formula_sum   'Rb4 Nb35 Al2 O70'
_cell_volume   1473.01001764
_cell_formula_units_Z   1
loop_
 _symmetry_equiv_pos_site_id
 _symmetry_equiv_pos_as_xyz
  1  'x, y, z'
loop_
 _atom_site_type_symbol
 _atom_site_label
 _atom_site_symmetry_multiplicity
 _atom_site_fract_x
 _atom_site_fract_y
 _atom_site_fract_z
 _atom_site_occupancy
  Rb  Rb0  1  0.33333300  0.66666700  0.96434000  1
  Rb  Rb1  1  0.00000000  0.00000000  0.32198000  1
  Rb  Rb2  1  0.00000000  0.00000000  0.67802000  1
  Rb  Rb3  1  0.66666700  0.33333300  0.03566000  1
  Nb  Nb0  1  0.87114500  0.26774600  0.90751800  1
  Nb  Nb1  1  0.00000000  0.00000000  0.18633800  1
  Nb  Nb2  1  0.80729600  0.02540300  0.45638700  1
  Nb  Nb3  1  0.54880400  0.85947500  0.81616800  1
  Nb  Nb4  1  0.88826700  0.53059200  0.27033900  1
  Nb  Nb5  1  0.93000600  0.53056200  0.63287900  1
  Nb  Nb6  1  0.33333300  0.66666700  0.53718800  1
  Nb  Nb7  1  0.00000000  0.00000000  0.81366200  1
  Nb  Nb8  1  0.68932900  0.54880400  0.18383200  1
  Nb  Nb9  1  0.39944400  0.93000600  0.36712100  1
  Nb  Nb10  1  0.02540300  0.21810700  0.54361300  1
  Nb  Nb11  1  0.39660100  0.12885500  0.90751800  1
  Nb  Nb12  1  0.46943800  0.39944400  0.63287900  1
  Nb  Nb13  1  0.14052500  0.68932900  0.81616800  1
  Nb  Nb14  1  0.12885500  0.73225400  0.09248200  1
  Nb  Nb15  1  0.06999400  0.46943800  0.36712100  1
  Nb  Nb16  1  0.00000000  0.00000000  0.00000000  1
  Nb  Nb17  1  0.31067100  0.45119600  0.81616800  1
  Nb  Nb18  1  0.53056200  0.60055600  0.36712100  1
  Nb  Nb19  1  0.11173300  0.46940800  0.72966100  1
  Nb  Nb20  1  0.66666700  0.33333300  0.46281200  1
  Nb  Nb21  1  0.60055600  0.06999400  0.63287900  1
  Nb  Nb22  1  0.45119600  0.14052500  0.18383200  1
  Nb  Nb23  1  0.73225400  0.60339900  0.90751800  1
  Nb  Nb24  1  0.35767500  0.88826700  0.72966100  1
  Nb  Nb25  1  0.26774600  0.39660100  0.09248200  1
  Nb  Nb26  1  0.78189300  0.80729600  0.54361300  1
  Nb  Nb27  1  0.60339900  0.87114500  0.09248200  1
  Nb  Nb28  1  0.97459700  0.78189300  0.45638700  1
  Nb  Nb29  1  0.64232500  0.11173300  0.27033900  1
  Nb  Nb30  1  0.21810700  0.19270400  0.45638700  1
  Nb  Nb31  1  0.19270400  0.97459700  0.54361300  1
  Nb  Nb32  1  0.53059200  0.64232500  0.72966100  1
  Nb  Nb33  1  0.46940800  0.35767500  0.27033900  1
  Nb  Nb34  1  0.85947500  0.31067100  0.18383200  1
  Al  Al0  1  0.33333300  0.66666700  0.20664600  1
  Al  Al1  1  0.66666700  0.33333300  0.79335400  1
  O  O0  1  0.90038400  0.53856000  0.13793300  1
  O  O1  1  0.53856000  0.63817600  0.86206700  1
  O  O2  1  0.56999400  0.86326300  0.32836800  1
  O  O3  1  0.23637400  0.20180900  0.59001100  1
  O  O4  1  0.86924200  0.30264500  0.31829600  1
  O  O5  1  0.16086400  0.92371900  0.77115200  1
  O  O6  1  0.43000600  0.13673700  0.67163200  1
  O  O7  1  0.03456500  0.23637400  0.40998900  1
  O  O8  1  0.30264500  0.43340300  0.68170400  1
  O  O9  1  0.86326300  0.29326900  0.67163200  1
  O  O10  1  0.76285500  0.83913600  0.77115200  1
  O  O11  1  0.21002400  0.20465500  0.04454000  1
  O  O12  1  0.23714500  0.16086400  0.22884800  1
  O  O13  1  0.89301300  0.50514000  0.93741100  1
  O  O14  1  0.76362600  0.79819100  0.40998900  1
  O  O15  1  0.48945100  0.58188000  0.22735100  1
  O  O16  1  0.43340300  0.13075800  0.31829600  1
  O  O17  1  0.51054900  0.41812000  0.77264900  1
  O  O18  1  0.06434900  0.23853600  0.14443400  1
  O  O19  1  0.42732200  0.16320000  0.50015100  1
  O  O20  1  0.13673700  0.70673100  0.32836800  1
  O  O21  1  0.66666700  0.33333300  0.85948300  1
  O  O22  1  0.46144000  0.36182400  0.13793300  1
  O  O23  1  0.09961600  0.46144000  0.86206700  1
  O  O24  1  0.79534500  0.00536900  0.04454000  1
  O  O25  1  0.57267800  0.83680000  0.49984900  1
  O  O26  1  0.50514000  0.61212700  0.06258900  1
  O  O27  1  0.29326900  0.43000600  0.32836800  1
  O  O28  1  0.49528700  0.40031500  0.41478500  1
  O  O29  1  0.96543500  0.76362600  0.59001100  1
  O  O30  1  0.66666700  0.33333300  0.59806300  1
  O  O31  1  0.63817600  0.09961600  0.13793300  1
  O  O32  1  0.70673100  0.56999400  0.67163200  1
  O  O33  1  0.10698700  0.49486000  0.06258900  1
  O  O34  1  0.56659700  0.86924200  0.68170400  1
  O  O35  1  0.79819100  0.03456500  0.59001100  1
  O  O36  1  0.61212700  0.10698700  0.93741100  1
  O  O37  1  0.38787300  0.89301300  0.06258900  1
  O  O38  1  0.13075800  0.69735500  0.68170400  1
  O  O39  1  0.58188000  0.09242800  0.77264900  1
  O  O40  1  0.90757200  0.48945100  0.77264900  1
  O  O41  1  0.83680000  0.26412200  0.50015100  1
  O  O42  1  0.33333300  0.66666700  0.40193700  1
  O  O43  1  0.50471300  0.59968500  0.58521500  1
  O  O44  1  0.82581400  0.06434900  0.85556600  1
  O  O45  1  0.23853600  0.17418600  0.85556600  1
  O  O46  1  0.40031500  0.90502900  0.58521500  1
  O  O47  1  0.17418600  0.93565100  0.14443400  1
  O  O48  1  0.59968500  0.09497100  0.41478500  1
  O  O49  1  0.26412200  0.42732200  0.49984900  1
  O  O50  1  0.69735500  0.56659700  0.31829600  1
  O  O51  1  0.07628100  0.23714500  0.77115200  1
  O  O52  1  0.99463100  0.78997600  0.04454000  1
  O  O53  1  0.78997600  0.79534500  0.95546000  1
  O  O54  1  0.36182400  0.90038400  0.86206700  1
  O  O55  1  0.73587800  0.57267800  0.50015100  1
  O  O56  1  0.00536900  0.21002400  0.95546000  1
  O  O57  1  0.76146400  0.82581400  0.14443400  1
  O  O58  1  0.16320000  0.73587800  0.49984900  1
  O  O59  1  0.90502900  0.50471300  0.41478500  1
  O  O60  1  0.20465500  0.99463100  0.95546000  1
  O  O61  1  0.09242800  0.51054900  0.22735100  1
  O  O62  1  0.49486000  0.38787300  0.93741100  1
  O  O63  1  0.83913600  0.07628100  0.22884800  1
  O  O64  1  0.33333300  0.66666700  0.14051700  1
  O  O65  1  0.20180900  0.96543500  0.40998900  1
  O  O66  1  0.41812000  0.90757200  0.22735100  1
  O  O67  1  0.93565100  0.76146400  0.85556600  1
  O  O68  1  0.09497100  0.49528700  0.58521500  1
  O  O69  1  0.92371900  0.76285500  0.22884800  1
loop_
_geom_bond_atom_site_label_1
_geom_bond_atom_site_label_2
_geom_bond_distance
_geom_bond_site_symmetry_2
Nb0 O56 1.872579 1_655
Nb0 O36 1.971087 1_555
Nb0 O13 1.976655 1_555
Nb0 O44 2.029807 1_555
Nb0 O23 2.090396 1_655
Nb0 O21 2.330734 1_555
Nb1 O63 2.021702 1_455
Nb1 O69 2.021702 1_445
Nb1 O12 2.021702 1_555
Nb1 O47 2.039309 1_545
Nb1 O57 2.039314 1_445
Nb1 O18 2.039316 1_555
Nb2 O25 2.073206 1_545
Nb2 O14 2.077530 1_545
Nb2 O41 2.144257 1_555
Nb2 O7 2.146265 1_655
Nb2 O48 2.278920 1_555
Nb3 O54 2.079704 1_555
Nb3 O39 2.093583 1_565
Nb3 O1 2.117677 1_555
Nb3 O10 2.159681 1_555
Nb3 O44 2.244232 1_565
Nb4 O69 2.052895 1_555
Nb4 O61 2.063081 1_655
Nb4 O50 2.118171 1_555
Nb4 O4 2.167731 1_555
Nb4 O20 2.353536 1_655
Nb5 O68 1.952957 1_655
Nb5 O38 1.979451 1_655
Nb5 O9 1.981338 1_555
Nb5 O29 2.078654 1_555
Nb5 O30 2.105495 1_555
Nb5 O32 2.211302 1_555
Nb6 O58 1.970887 1_555
Nb6 O25 1.970892 1_555
Nb6 O49 1.970893 1_555
Nb6 O43 2.130004 1_555
Nb6 O46 2.130004 1_555
Nb6 O68 2.130004 1_555
Nb7 O5 2.021702 1_545
Nb7 O51 2.021702 1_555
Nb7 O10 2.021702 1_445
Nb7 O44 2.039309 1_455
Nb7 O45 2.039314 1_555
Nb7 O67 2.039316 1_445
Nb8 O22 2.079704 1_555
Nb8 O15 2.093589 1_555
Nb8 O0 2.117677 1_555
Nb8 O69 2.159681 1_555
Nb8 O57 2.244234 1_555
Nb9 O48 1.952961 1_565
Nb9 O16 1.979451 1_565
Nb9 O2 1.981338 1_555
Nb9 O65 2.078654 1_555
Nb9 O42 2.105493 1_555
Nb9 O20 2.211302 1_555
Nb10 O41 2.073206 1_455
Nb10 O35 2.077531 1_455
Nb10 O49 2.144257 1_555
Nb10 O3 2.146265 1_555
Nb10 O68 2.278926 1_555
Nb11 O60 1.872580 1_545
Nb11 O62 1.971087 1_555
Nb11 O36 1.976655 1_555
Nb11 O45 2.029802 1_555
Nb11 O54 2.090396 1_545
Nb11 O21 2.330738 1_555
Nb12 O43 1.952963 1_555
Nb12 O8 1.979451 1_555
Nb12 O32 1.981338 1_555
Nb12 O3 2.078654 1_555
Nb12 O30 2.105500 1_555
Nb12 O6 2.211302 1_555
Nb13 O23 2.079704 1_555
Nb13 O40 2.093585 1_455
Nb13 O54 2.117677 1_555
Nb13 O5 2.159681 1_555
Nb13 O67 2.244227 1_455
Nb14 O52 1.872579 1_455
Nb14 O37 1.971087 1_555
Nb14 O33 1.976655 1_555
Nb14 O47 2.029807 1_555
Nb14 O0 2.090396 1_455
Nb14 O64 2.330734 1_555
Nb15 O59 1.952957 1_455
Nb15 O4 1.979451 1_455
Nb15 O20 1.981338 1_555
Nb15 O7 2.078654 1_555
Nb15 O42 2.105495 1_555
Nb15 O27 2.211302 1_555
Nb16 O24 2.038505 1_455
Nb16 O60 2.038505 1_544
Nb16 O52 2.038505 1_445
Nb16 O56 2.038505 1_554
Nb16 O53 2.038505 1_444
Nb16 O11 2.038505 1_555
Nb17 O1 2.079704 1_555
Nb17 O17 2.093589 1_555
Nb17 O23 2.117677 1_555
Nb17 O51 2.159681 1_555
Nb17 O45 2.244234 1_555
Nb18 O28 1.952963 1_555
Nb18 O50 1.979451 1_555
Nb18 O27 1.981338 1_555
Nb18 O14 2.078654 1_555
Nb18 O42 2.105500 1_555
Nb18 O2 2.211302 1_555
Nb19 O51 2.052895 1_555
Nb19 O40 2.063081 1_455
Nb19 O8 2.118171 1_555
Nb19 O38 2.167731 1_555
Nb19 O9 2.353536 1_455
Nb20 O41 1.970887 1_555
Nb20 O19 1.970892 1_555
Nb20 O55 1.970893 1_555
Nb20 O28 2.130004 1_555
Nb20 O48 2.130004 1_555
Nb20 O59 2.130004 1_555
Nb21 O46 1.952961 1_545
Nb21 O34 1.979451 1_545
Nb21 O6 1.981338 1_555
Nb21 O35 2.078654 1_555
Nb21 O30 2.105493 1_555
Nb21 O9 2.211302 1_555
Nb22 O31 2.079704 1_555
Nb22 O66 2.093583 1_545
Nb22 O22 2.117677 1_555
Nb22 O12 2.159681 1_555
Nb22 O47 2.244232 1_545
Nb23 O53 1.872579 1_555
Nb23 O13 1.971087 1_555
Nb23 O62 1.976655 1_555
Nb23 O67 2.029806 1_555
Nb23 O1 2.090396 1_555
Nb23 O21 2.330740 1_555
Nb24 O5 2.052895 1_555
Nb24 O39 2.063084 1_565
Nb24 O38 2.118171 1_555
Nb24 O34 2.167731 1_555
Nb24 O6 2.353536 1_565
Nb25 O11 1.872579 1_555
Nb25 O33 1.971087 1_555
Nb25 O26 1.976655 1_555
Nb25 O18 2.029806 1_555
Nb25 O22 2.090396 1_555
Nb25 O64 2.330740 1_555
Nb26 O55 2.073206 1_555
Nb26 O29 2.077530 1_555
Nb26 O25 2.144257 1_555
Nb26 O35 2.146265 1_565
Nb26 O43 2.278925 1_555
Nb27 O24 1.872580 1_565
Nb27 O26 1.971087 1_555
Nb27 O37 1.976655 1_555
Nb27 O57 2.029802 1_555
Nb27 O31 2.090396 1_565
Nb27 O64 2.330738 1_555
Nb28 O58 2.073206 1_655
Nb28 O65 2.077531 1_655
Nb28 O55 2.144257 1_555
Nb28 O14 2.146265 1_555
Nb28 O59 2.278926 1_555
Nb29 O63 2.052895 1_555
Nb29 O66 2.063084 1_545
Nb29 O4 2.118171 1_555
Nb29 O16 2.167731 1_555
Nb29 O2 2.353536 1_545
Nb30 O49 2.073206 1_555
Nb30 O7 2.077530 1_555
Nb30 O19 2.144257 1_555
Nb30 O65 2.146265 1_545
Nb30 O28 2.278925 1_555
Nb31 O19 2.073206 1_565
Nb31 O3 2.077530 1_565
Nb31 O58 2.144257 1_555
Nb31 O29 2.146265 1_455
Nb31 O46 2.278920 1_555
Nb32 O10 2.052895 1_555
Nb32 O17 2.063087 1_555
Nb32 O34 2.118171 1_555
Nb32 O8 2.167731 1_555
Nb32 O32 2.353535 1_555
Nb33 O12 2.052895 1_555
Nb33 O15 2.063087 1_555
Nb33 O16 2.118171 1_555
Nb33 O50 2.167731 1_555
Nb33 O27 2.353535 1_555
Nb34 O0 2.079704 1_555
Nb34 O61 2.093585 1_655
Nb34 O31 2.117677 1_555
Nb34 O63 2.159681 1_555
Nb34 O18 2.244227 1_655
Al0 O15 1.771271 1_555
Al0 O66 1.771271 1_555
Al0 O61 1.771271 1_555
Al0 O64 1.783237 1_555
Al1 O17 1.771271 1_555
Al1 O39 1.771271 1_555
Al1 O40 1.771271 1_555
Al1 O21 1.783237 1_555
O0 Rb3 3.268424 1_555
O1 Rb0 3.268426 1_555
O2 Rb1 3.027082 1_665
O3 Rb2 2.952376 1_555
O4 Rb1 3.059688 1_655
O5 Rb2 3.013362 1_565
O6 Rb2 3.027082 1_555
O7 Rb1 2.952376 1_555
O8 Rb2 3.059689 1_555
O9 Rb2 3.027082 1_655
O10 Rb2 3.013362 1_665
O11 Rb3 3.247776 1_555
O12 Rb1 3.013362 1_555
O13 Rb3 3.108009 1_556
O13 Rb0 3.148967 1_655
O14 Rb1 2.952376 1_665
O16 Rb1 3.059688 1_555
O20 Rb1 3.027082 1_565
O22 Rb3 3.268426 1_555
O23 Rb0 3.268424 1_555
O24 Rb3 3.247769 1_555
O26 Rb0 3.108011 1_554
O26 Rb3 3.148974 1_555
O27 Rb1 3.027083 1_555
O29 Rb2 2.952376 1_665
O31 Rb3 3.268422 1_555
O32 Rb2 3.027083 1_665
O33 Rb0 3.108009 1_554
O33 Rb3 3.148967 1_455
O34 Rb2 3.059688 1_665
O35 Rb2 2.952376 1_655
O36 Rb3 3.108007 1_556
O36 Rb0 3.148968 1_545
O37 Rb0 3.108007 1_554
O37 Rb3 3.148968 1_565
O38 Rb2 3.059688 1_565
O50 Rb1 3.059689 1_665
O51 Rb2 3.013362 1_555
O52 Rb3 3.247775 1_555
O53 Rb0 3.247776 1_555
O54 Rb0 3.268422 1_555
O56 Rb0 3.247775 1_555
O60 Rb0 3.247769 1_555
O62 Rb3 3.108011 1_556
O62 Rb0 3.148974 1_555
O63 Rb1 3.013362 1_655
O65 Rb1 2.952376 1_565
O69 Rb1 3.013362 1_665
