# generated using pymatgen
data_BaBi4(ClO3)2
_symmetry_space_group_name_H-M   'P 1'
_cell_length_a   16.72202019
_cell_length_b   16.72202019
_cell_length_c   16.72202019
_cell_angle_alpha   166.26967112
_cell_angle_beta   166.26967112
_cell_angle_gamma   19.46465502
_symmetry_Int_Tables_number   1
_chemical_formula_structural   BaBi4(ClO3)2
_chemical_formula_sum   'Ba1 Bi4 Cl2 O6'
_cell_volume   263.39518000
_cell_formula_units_Z   1
loop_
 _symmetry_equiv_pos_site_id
 _symmetry_equiv_pos_as_xyz
  1  'x, y, z'
loop_
 _atom_site_type_symbol
 _atom_site_label
 _atom_site_symmetry_multiplicity
 _atom_site_fract_x
 _atom_site_fract_y
 _atom_site_fract_z
 _atom_site_occupancy
  Ba  Ba0  1  0.50000000  0.50000000  0.00000000  1
  Bi  Bi0  1  0.21250300  0.21250300  0.00000000  1
  Bi  Bi1  1  0.78749700  0.78749700  0.00000000  1
  Bi  Bi2  1  0.91445100  0.91445100  0.00000000  1
  Bi  Bi3  1  0.08554900  0.08554900  0.00000000  1
  Cl  Cl0  1  0.32990100  0.32990100  0.00000000  1
  Cl  Cl1  1  0.67009900  0.67009900  0.00000000  1
  O  O0  1  0.94346200  0.44346200  0.50000000  1
  O  O1  1  0.55653800  0.05653800  0.50000000  1
  O  O2  1  0.05653800  0.55653800  0.50000000  1
  O  O3  1  0.44346200  0.94346200  0.50000000  1
  O  O4  1  0.75000000  0.25000000  0.50000000  1
  O  O5  1  0.25000000  0.75000000  0.50000000  1
loop_
_geom_bond_atom_site_label_1
_geom_bond_atom_site_label_2
_geom_bond_distance
_geom_bond_site_symmetry_2
Ba0 O2 2.732861 1_655
Ba0 O1 2.732861 1_554
Ba0 O2 2.732861 1_554
Ba0 O1 2.732861 1_565
Ba0 O0 2.732861 1_555
Ba0 O3 2.732861 1_555
Ba0 O3 2.732861 1_544
Ba0 O0 2.732861 1_454
Bi0 O5 2.350118 1_544
Bi0 O5 2.350118 1_555
Bi0 O4 2.350118 1_555
Bi0 O4 2.350118 1_454
Bi0 Cl1 3.153475 1_444
Bi0 Cl1 3.153475 1_455
Bi0 Cl1 3.153475 1_556
Bi0 Cl1 3.153475 1_545
Bi1 O4 2.350118 1_565
Bi1 O5 2.350118 1_554
Bi1 O5 2.350118 1_655
Bi1 O4 2.350118 1_554
Bi1 Cl0 3.153475 1_554
Bi1 Cl0 3.153475 1_565
Bi1 Cl0 3.153475 1_655
Bi1 Cl0 3.153475 1_666
Bi2 O3 2.215812 1_655
Bi2 O0 2.215812 1_565
Bi2 O0 2.215812 1_554
Bi2 O3 2.215812 1_554
Bi3 O1 2.215812 1_454
Bi3 O2 2.215812 1_544
Bi3 O2 2.215812 1_555
Bi3 O1 2.215812 1_555
