# generated using pymatgen
data_YbAu3
_symmetry_space_group_name_H-M   'P 1'
_cell_length_a   4.94202068
_cell_length_b   5.08862634
_cell_length_c   6.06031668
_cell_angle_alpha   90.00000000
_cell_angle_beta   90.00000000
_cell_angle_gamma   90.00000000
_symmetry_Int_Tables_number   1
_chemical_formula_structural   YbAu3
_chemical_formula_sum   'Yb2 Au6'
_cell_volume   152.40542928
_cell_formula_units_Z   2
loop_
 _symmetry_equiv_pos_site_id
 _symmetry_equiv_pos_as_xyz
  1  'x, y, z'
loop_
 _atom_site_type_symbol
 _atom_site_label
 _atom_site_symmetry_multiplicity
 _atom_site_fract_x
 _atom_site_fract_y
 _atom_site_fract_z
 _atom_site_occupancy
  Yb  Yb0  1  0.00000000  0.34488034  0.00000000  1
  Yb  Yb1  1  0.50000000  0.65511966  0.50000000  1
  Au  Au0  1  0.50000000  0.16257213  0.75436952  1
  Au  Au1  1  0.00000000  0.83742787  0.25436952  1
  Au  Au2  1  0.00000000  0.83742787  0.74563048  1
  Au  Au3  1  0.50000000  0.16257213  0.24563048  1
  Au  Au4  1  0.00000000  0.33545114  0.50000000  1
  Au  Au5  1  0.50000000  0.66454886  0.00000000  1
loop_
_geom_bond_atom_site_label_1
_geom_bond_atom_site_label_2
_geom_bond_distance
_geom_bond_site_symmetry_2
Au0 Au5 2.939110 1_546
Au0 Yb1 2.942516 1_555
Au0 Au5 2.956475 1_556
Au0 Au2 2.974255 1_645
Au0 Au2 2.974255 1_545
Au0 Au3 2.977197 1_556
Au0 Yb1 3.007382 1_545
Au0 Yb0 3.030254 1_556
Au0 Yb0 3.030254 1_656
Au0 Au4 3.042400 1_655
Au0 Au4 3.042400 1_555
Au0 Au3 3.083120 1_555
Au1 Au4 2.939110 1_565
Au1 Yb0 2.942516 1_555
Au1 Au4 2.956475 1_555
Au1 Au3 2.974255 1_565
Au1 Au3 2.974255 1_465
Au1 Au2 2.977197 1_555
Au1 Yb0 3.007382 1_565
Au1 Yb1 3.030254 1_455
Au1 Yb1 3.030254 1_555
Au1 Au5 3.042400 1_455
Au1 Au5 3.042400 1_555
Au1 Au2 3.083120 1_554
Au2 Au4 2.939110 1_565
Au2 Yb0 2.942516 1_556
Au2 Au4 2.956475 1_555
Au2 Yb0 3.007382 1_566
Au2 Yb1 3.030254 1_555
Au2 Yb1 3.030254 1_455
Au2 Au5 3.042400 1_556
Au2 Au5 3.042400 1_456
Au3 Au5 2.939110 1_545
Au3 Yb1 2.942516 1_555
Au3 Au5 2.956475 1_555
Au3 Yb1 3.007382 1_545
Au3 Yb0 3.030254 1_655
Au3 Yb0 3.030254 1_555
Au3 Au4 3.042400 1_655
Au3 Au4 3.042400 1_555
Au4 Yb1 2.958371 1_555
Au4 Yb1 2.958371 1_455
Au4 Yb0 3.030538 1_555
Au4 Yb0 3.030538 1_556
Au5 Yb0 2.958371 1_555
Au5 Yb0 2.958371 1_655
Au5 Yb1 3.030538 1_554
Au5 Yb1 3.030538 1_555
