# generated using pymatgen
data_CdI2
_symmetry_space_group_name_H-M   'P 1'
_cell_length_a   4.33540400
_cell_length_b   4.33540400
_cell_length_c   130.45353700
_cell_angle_alpha   90.00000000
_cell_angle_beta   90.00000000
_cell_angle_gamma   120.00000000
_symmetry_Int_Tables_number   1
_chemical_formula_structural   CdI2
_chemical_formula_sum   'Cd17 I34'
_cell_volume   2123.46759732
_cell_formula_units_Z   17
loop_
 _symmetry_equiv_pos_site_id
 _symmetry_equiv_pos_as_xyz
  1  'x, y, z'
loop_
 _atom_site_type_symbol
 _atom_site_label
 _atom_site_symmetry_multiplicity
 _atom_site_fract_x
 _atom_site_fract_y
 _atom_site_fract_z
 _atom_site_occupancy
  Cd  Cd0  1  0.00000000  0.00000000  0.48539100  1
  Cd  Cd1  1  0.33333300  0.66666700  0.72055400  1
  Cd  Cd2  1  0.00000000  0.00000000  0.36765100  1
  Cd  Cd3  1  0.33333300  0.66666700  0.66177200  1
  Cd  Cd4  1  0.33333300  0.66666700  0.95582300  1
  Cd  Cd5  1  0.66666700  0.33333300  0.83822100  1
  Cd  Cd6  1  0.33333300  0.66666700  0.54413600  1
  Cd  Cd7  1  0.33333300  0.66666700  0.89707900  1
  Cd  Cd8  1  0.33333300  0.66666700  0.30883500  1
  Cd  Cd9  1  0.00000000  0.00000000  0.24995900  1
  Cd  Cd10  1  0.00000000  0.00000000  0.13236500  1
  Cd  Cd11  1  0.00000000  0.00000000  0.01473100  1
  Cd  Cd12  1  0.00000000  0.00000000  0.60292300  1
  Cd  Cd13  1  0.33333300  0.66666700  0.07353300  1
  Cd  Cd14  1  0.33333300  0.66666700  0.42645500  1
  Cd  Cd15  1  0.33333300  0.66666700  0.77938900  1
  Cd  Cd16  1  0.33333300  0.66666700  0.19118500  1
  I  I0  1  0.66666700  0.33333300  0.32204200  1
  I  I1  1  0.66666700  0.33333300  0.43966600  1
  I  I2  1  0.66666700  0.33333300  0.55734100  1
  I  I3  1  0.00000000  0.00000000  0.94261600  1
  I  I4  1  0.00000000  0.00000000  0.29563000  1
  I  I5  1  0.00000000  0.00000000  0.88387400  1
  I  I6  1  0.66666700  0.33333300  0.14556300  1
  I  I7  1  0.00000000  0.00000000  0.17797600  1
  I  I8  1  0.00000000  0.00000000  0.64856100  1
  I  I9  1  0.33333300  0.66666700  0.23675200  1
  I  I10  1  0.66666700  0.33333300  0.96903100  1
  I  I11  1  0.66666700  0.33333300  0.20439700  1
  I  I12  1  0.33333300  0.66666700  0.47219500  1
  I  I13  1  0.66666700  0.33333300  0.67498500  1
  I  I14  1  0.33333300  0.66666700  0.11915800  1
  I  I15  1  0.66666700  0.33333300  0.38085600  1
  I  I16  1  0.00000000  0.00000000  0.41324600  1
  I  I17  1  0.00000000  0.00000000  0.06032800  1
  I  I18  1  0.33333300  0.66666700  0.85141700  1
  I  I19  1  0.66666700  0.33333300  0.02792900  1
  I  I20  1  0.33333300  0.66666700  0.00152900  1
  I  I21  1  0.00000000  0.00000000  0.53093600  1
  I  I22  1  0.33333300  0.66666700  0.35444700  1
  I  I23  1  0.66666700  0.33333300  0.61613000  1
  I  I24  1  0.00000000  0.00000000  0.70734600  1
  I  I25  1  0.66666700  0.33333300  0.91028600  1
  I  I26  1  0.66666700  0.33333300  0.08673500  1
  I  I27  1  0.66666700  0.33333300  0.79259600  1
  I  I28  1  0.00000000  0.00000000  0.82501600  1
  I  I29  1  0.33333300  0.66666700  0.58971300  1
  I  I30  1  0.00000000  0.00000000  0.76618400  1
  I  I31  1  0.66666700  0.33333300  0.73376700  1
  I  I32  1  0.66666700  0.33333300  0.26316300  1
  I  I33  1  0.66666700  0.33333300  0.49858800  1
loop_
_geom_bond_atom_site_label_1
_geom_bond_atom_site_label_2
_geom_bond_distance
_geom_bond_site_symmetry_2
Cd0 I12 3.037873 1_545
Cd0 I12 3.037876 1_445
Cd0 I12 3.037876 1_555
Cd0 I33 3.037947 1_455
Cd0 I33 3.037950 1_555
Cd0 I33 3.037950 1_445
Cd1 I24 3.038760 1_565
Cd1 I24 3.038763 1_665
Cd1 I24 3.038763 1_555
Cd1 I31 3.039130 1_455
Cd1 I31 3.039130 1_565
Cd1 I31 3.039136 1_555
Cd2 I22 3.038464 1_545
Cd2 I22 3.038467 1_555
Cd2 I22 3.038467 1_445
Cd2 I15 3.038538 1_455
Cd2 I15 3.038541 1_445
Cd2 I15 3.038541 1_555
Cd3 I8 3.038982 1_565
Cd3 I8 3.038985 1_665
Cd3 I8 3.038985 1_555
Cd3 I13 3.039130 1_565
Cd3 I13 3.039130 1_455
Cd3 I13 3.039136 1_555
Cd4 I3 3.038686 1_565
Cd4 I3 3.038689 1_555
Cd4 I3 3.038689 1_665
Cd4 I10 3.038760 1_565
Cd4 I10 3.038760 1_455
Cd4 I10 3.038766 1_555
Cd5 I18 3.037873 1_545
Cd5 I18 3.037873 1_655
Cd5 I18 3.037879 1_555
Cd5 I28 3.038538 1_655
Cd5 I28 3.038541 1_555
Cd5 I28 3.038541 1_665
Cd6 I21 3.038169 1_565
Cd6 I21 3.038172 1_665
Cd6 I21 3.038172 1_555
Cd6 I2 3.038538 1_565
Cd6 I2 3.038538 1_455
Cd6 I2 3.038544 1_555
Cd7 I5 3.038538 1_565
Cd7 I5 3.038541 1_665
Cd7 I5 3.038541 1_555
Cd7 I25 3.038686 1_455
Cd7 I25 3.038686 1_565
Cd7 I25 3.038692 1_555
Cd8 I4 3.038538 1_565
Cd8 I4 3.038541 1_665
Cd8 I4 3.038541 1_555
Cd8 I0 3.038686 1_455
Cd8 I0 3.038686 1_565
Cd8 I0 3.038692 1_555
Cd9 I32 3.038464 1_455
Cd9 I32 3.038467 1_445
Cd9 I32 3.038467 1_555
Cd9 I9 3.038686 1_545
Cd9 I9 3.038689 1_445
Cd9 I9 3.038689 1_555
Cd10 I6 3.038021 1_455
Cd10 I6 3.038024 1_445
Cd10 I6 3.038024 1_555
Cd10 I14 3.038686 1_545
Cd10 I14 3.038689 1_445
Cd10 I14 3.038689 1_555
Cd11 I19 3.038021 1_455
Cd11 I19 3.038024 1_445
Cd11 I19 3.038024 1_555
Cd11 I20 3.038316 1_545
Cd11 I20 3.038320 1_445
Cd11 I20 3.038320 1_555
Cd12 I23 3.038686 1_455
Cd12 I23 3.038689 1_445
Cd12 I23 3.038689 1_555
Cd12 I29 3.038908 1_545
Cd12 I29 3.038911 1_555
Cd12 I29 3.038911 1_445
Cd13 I26 3.038316 1_455
Cd13 I26 3.038316 1_565
Cd13 I26 3.038323 1_555
Cd13 I17 3.038538 1_565
Cd13 I17 3.038541 1_665
Cd13 I17 3.038541 1_555
Cd14 I16 3.038834 1_565
Cd14 I16 3.038837 1_665
Cd14 I16 3.038837 1_555
Cd14 I1 3.038982 1_565
Cd14 I1 3.038982 1_455
Cd14 I1 3.038988 1_555
Cd15 I30 3.038538 1_565
Cd15 I30 3.038541 1_555
Cd15 I30 3.038541 1_665
Cd15 I27 3.038686 1_565
Cd15 I27 3.038686 1_455
Cd15 I27 3.038692 1_555
Cd16 I7 3.038834 1_565
Cd16 I7 3.038837 1_555
Cd16 I7 3.038837 1_665
Cd16 I11 3.039056 1_455
Cd16 I11 3.039056 1_565
Cd16 I11 3.039062 1_555
