# generated using pymatgen
data_TiGa2
_symmetry_space_group_name_H-M   'P 1'
_cell_length_a   3.90323791
_cell_length_b   3.90318052
_cell_length_c   12.44096237
_cell_angle_alpha   99.04795389
_cell_angle_beta   99.04696010
_cell_angle_gamma   90.00066908
_symmetry_Int_Tables_number   1
_chemical_formula_structural   TiGa2
_chemical_formula_sum   'Ti4 Ga8'
_cell_volume   184.79212474
_cell_formula_units_Z   4
loop_
 _symmetry_equiv_pos_site_id
 _symmetry_equiv_pos_as_xyz
  1  'x, y, z'
loop_
 _atom_site_type_symbol
 _atom_site_label
 _atom_site_symmetry_multiplicity
 _atom_site_fract_x
 _atom_site_fract_y
 _atom_site_fract_z
 _atom_site_occupancy
  Ti  Ti0  1  0.20100791  0.45106324  0.90215668  1
  Ti  Ti1  1  0.04888799  0.29894492  0.59776024  1
  Ti  Ti2  1  0.95107628  0.70102422  0.40217450  1
  Ti  Ti3  1  0.79902707  0.54897582  0.09792131  1
  Ga  Ga0  1  0.46351930  0.21351458  0.42706752  1
  Ga  Ga1  1  0.53648404  0.78648964  0.57293424  1
  Ga  Ga2  1  0.28652724  0.03652403  0.07301061  1
  Ga  Ga3  1  0.71347271  0.96347682  0.92698568  1
  Ga  Ga4  1  0.12564389  0.87548412  0.75093936  1
  Ga  Ga5  1  0.37557829  0.62574030  0.25110442  1
  Ga  Ga6  1  0.87435663  0.12451274  0.24905468  1
  Ga  Ga7  1  0.62441965  0.37424957  0.74889176  1
loop_
_geom_bond_atom_site_label_1
_geom_bond_atom_site_label_2
_geom_bond_distance
_geom_bond_site_symmetry_2
Ti0 Ti3 3.073375 1_556
Ti0 Ti3 3.073857 1_456
Ti1 Ti2 3.071629 1_445
Ti1 Ti2 3.072215 1_455
Ga0 Ga1 2.633797 1_555
Ga0 Ga1 2.634618 1_545
Ga0 Ti2 2.776343 1_455
Ga0 Ti2 2.776379 1_445
Ga0 Ti2 2.776493 1_555
Ga0 Ti2 2.776594 1_545
Ga0 Ti1 2.844752 1_655
Ga0 Ti1 2.845726 1_555
Ga0 Ga5 2.890941 1_545
Ga0 Ga5 2.893199 1_555
Ga0 Ga6 2.910337 1_455
Ga0 Ga6 2.910634 1_555
Ga1 Ti1 2.776243 1_655
Ga1 Ti1 2.776272 1_665
Ga1 Ti1 2.776424 1_555
Ga1 Ti1 2.776517 1_565
Ga1 Ti2 2.845358 1_455
Ga1 Ti2 2.846303 1_555
Ga1 Ga7 2.890860 1_565
Ga1 Ga7 2.893179 1_555
Ga1 Ga4 2.910270 1_655
Ga1 Ga4 2.910562 1_555
Ga2 Ga3 2.635135 1_444
Ga2 Ga3 2.635901 1_544
Ga2 Ti3 2.776356 1_455
Ga2 Ti3 2.776404 1_555
Ga2 Ti3 2.776515 1_445
Ga2 Ti3 2.776628 1_545
Ga2 Ti0 2.846158 1_544
Ga2 Ti0 2.847127 1_554
Ga2 Ga6 2.891752 1_555
Ga2 Ga6 2.893876 1_455
Ga2 Ga5 2.911051 1_555
Ga2 Ga5 2.911338 1_545
Ga3 Ti0 2.776239 1_655
Ga3 Ti0 2.776320 1_555
Ga3 Ti0 2.776384 1_665
Ga3 Ti0 2.776529 1_565
Ga3 Ti3 2.846872 1_566
Ga3 Ti3 2.847856 1_556
Ga3 Ga4 2.891768 1_555
Ga3 Ga4 2.893901 1_655
Ga3 Ga7 2.911081 1_555
Ga3 Ga7 2.911310 1_565
Ga4 Ti0 2.677604 1_565
Ga4 Ti0 2.678855 1_555
Ga4 Ti1 2.693894 1_555
Ga4 Ti1 2.695269 1_565
Ga4 Ga7 2.758960 1_565
Ga4 Ga7 2.760086 1_465
Ga4 Ga7 2.760142 1_555
Ga4 Ga7 2.761202 1_455
Ga5 Ti2 2.676408 1_555
Ga5 Ti2 2.677648 1_455
Ga5 Ti3 2.694003 1_455
Ga5 Ti3 2.695268 1_555
Ga5 Ga6 2.758993 1_565
Ga5 Ga6 2.760098 1_465
Ga5 Ga6 2.760130 1_555
Ga5 Ga6 2.761170 1_455
Ga6 Ti3 2.676907 1_545
Ga6 Ti3 2.678158 1_555
Ga6 Ti2 2.693404 1_555
Ga6 Ti2 2.694767 1_545
Ga7 Ti1 2.676927 1_555
Ga7 Ti1 2.678149 1_655
Ga7 Ti0 2.694677 1_655
Ga7 Ti0 2.695963 1_555
