# generated using pymatgen
data_Ho3CuSiSe7
_symmetry_space_group_name_H-M   'P 1'
_cell_length_a   10.30603464
_cell_length_b   10.30603464
_cell_length_c   6.03340900
_cell_angle_alpha   90.00000000
_cell_angle_beta   90.00000000
_cell_angle_gamma   120.00000413
_symmetry_Int_Tables_number   1
_chemical_formula_structural   Ho3CuSiSe7
_chemical_formula_sum   'Ho6 Cu2 Si2 Se14'
_cell_volume   554.97903373
_cell_formula_units_Z   2
loop_
 _symmetry_equiv_pos_site_id
 _symmetry_equiv_pos_as_xyz
  1  'x, y, z'
loop_
 _atom_site_type_symbol
 _atom_site_label
 _atom_site_symmetry_multiplicity
 _atom_site_fract_x
 _atom_site_fract_y
 _atom_site_fract_z
 _atom_site_occupancy
  Ho  Ho0  1  0.77789200  0.13407400  0.22971700  1
  Ho  Ho1  1  0.64381700  0.77789200  0.72971700  1
  Ho  Ho2  1  0.13407400  0.35618300  0.72971700  1
  Ho  Ho3  1  0.86592600  0.64381700  0.22971700  1
  Ho  Ho4  1  0.35618300  0.22210800  0.22971700  1
  Ho  Ho5  1  0.22210800  0.86592600  0.72971700  1
  Cu  Cu0  1  0.00000000  0.00000000  0.17787700  1
  Cu  Cu1  1  0.00000000  0.00000000  0.67787700  1
  Si  Si0  1  0.66666700  0.33333300  0.81997800  1
  Si  Si1  1  0.33333300  0.66666700  0.31997800  1
  Se  Se0  1  0.42206200  0.52136700  0.47469100  1
  Se  Se1  1  0.47863300  0.90069400  0.47469100  1
  Se  Se2  1  0.09930600  0.57793800  0.47469100  1
  Se  Se3  1  0.89904500  0.73759000  0.69478600  1
  Se  Se4  1  0.66666700  0.33333300  0.44236500  1
  Se  Se5  1  0.90069400  0.42206200  0.97469100  1
  Se  Se6  1  0.83854500  0.10095500  0.69478600  1
  Se  Se7  1  0.57793800  0.47863300  0.97469100  1
  Se  Se8  1  0.10095500  0.26241000  0.19478600  1
  Se  Se9  1  0.52136700  0.09930600  0.97469100  1
  Se  Se10  1  0.26241000  0.16145500  0.69478600  1
  Se  Se11  1  0.33333300  0.66666700  0.94236500  1
  Se  Se12  1  0.16145500  0.89904500  0.19478600  1
  Se  Se13  1  0.73759000  0.83854500  0.19478600  1
loop_
_geom_bond_atom_site_label_1
_geom_bond_atom_site_label_2
_geom_bond_distance
_geom_bond_site_symmetry_2
Ho0 Se13 2.868512 1_545
Ho0 Se8 2.911293 1_655
Ho0 Se9 2.921994 1_554
Ho0 Se6 2.931547 1_555
Ho0 Se5 3.003674 1_554
Ho0 Se4 3.087261 1_555
Ho0 Se1 3.172328 1_545
Ho0 Se6 3.337227 1_554
Ho1 Se3 2.868523 1_555
Ho1 Se6 2.911294 1_565
Ho1 Se0 2.921987 1_555
Ho1 Se13 2.931549 1_556
Ho1 Se1 3.003658 1_555
Ho1 Se11 3.087261 1_555
Ho1 Se7 3.172328 1_555
Ho1 Se13 3.337229 1_555
Ho2 Se6 2.868516 1_455
Ho2 Se10 2.911303 1_555
Ho2 Se2 2.921977 1_555
Ho2 Se8 2.931550 1_556
Ho2 Se0 3.003672 1_555
Ho2 Se11 3.087261 1_555
Ho2 Se5 3.172328 1_455
Ho2 Se8 3.337230 1_555
Ho3 Se12 2.868516 1_655
Ho3 Se13 2.911303 1_555
Ho3 Se5 2.921977 1_554
Ho3 Se3 2.931550 1_555
Ho3 Se7 3.003672 1_554
Ho3 Se4 3.087261 1_555
Ho3 Se2 3.172328 1_655
Ho3 Se3 3.337230 1_554
Ho4 Se8 2.868523 1_555
Ho4 Se12 2.911294 1_545
Ho4 Se7 2.921987 1_554
Ho4 Se10 2.931549 1_555
Ho4 Se9 3.003658 1_554
Ho4 Se4 3.087261 1_555
Ho4 Se0 3.172328 1_555
Ho4 Se10 3.337229 1_554
Ho5 Se10 2.868512 1_565
Ho5 Se3 2.911293 1_455
Ho5 Se1 2.921994 1_555
Ho5 Se12 2.931547 1_556
Ho5 Se2 3.003674 1_555
Ho5 Se11 3.087261 1_555
Ho5 Se9 3.172328 1_565
Ho5 Se12 3.337227 1_555
Cu0 Se13 2.364944 1_445
Cu0 Se8 2.364944 1_555
Cu0 Se12 2.364944 1_545
Cu0 Ho0 3.226427 1_455
Cu0 Ho4 3.226434 1_555
Cu0 Ho3 3.226436 1_445
Cu1 Se10 2.364944 1_555
Cu1 Se3 2.364944 1_445
Cu1 Se6 2.364944 1_455
Cu1 Ho5 3.226427 1_545
Cu1 Ho1 3.226434 1_445
Cu1 Ho2 3.226436 1_555
Se0 Si1 2.306358 1_555
Se1 Si1 2.306343 1_555
Se2 Si1 2.306341 1_555
Se4 Si0 2.278294 1_555
Se5 Si0 2.306341 1_555
Se7 Si0 2.306358 1_555
Se9 Si0 2.306343 1_555
Se11 Si1 2.278294 1_556
