# generated using pymatgen
data_Eu2SiO4
_symmetry_space_group_name_H-M   'P 1'
_cell_length_a   7.07977652
_cell_length_b   5.65559189
_cell_length_c   10.91722346
_cell_angle_alpha   62.43452594
_cell_angle_beta   90.00000000
_cell_angle_gamma   90.00000000
_symmetry_Int_Tables_number   1
_chemical_formula_structural   Eu2SiO4
_chemical_formula_sum   'Eu8 Si4 O16'
_cell_volume   387.50742277
_cell_formula_units_Z   4
loop_
 _symmetry_equiv_pos_site_id
 _symmetry_equiv_pos_as_xyz
  1  'x, y, z'
loop_
 _atom_site_type_symbol
 _atom_site_label
 _atom_site_symmetry_multiplicity
 _atom_site_fract_x
 _atom_site_fract_y
 _atom_site_fract_z
 _atom_site_occupancy
  Eu  Eu0  1  0.65742639  0.81030285  0.42382990  1
  Eu  Eu1  1  0.34257361  0.18969715  0.57617010  1
  Eu  Eu2  1  0.50009894  0.47558992  0.80184944  1
  Eu  Eu3  1  0.15742639  0.18969715  0.07617010  1
  Eu  Eu4  1  0.99990106  0.47558992  0.30184944  1
  Eu  Eu5  1  0.00009894  0.52441008  0.69815056  1
  Eu  Eu6  1  0.49990106  0.52441008  0.19815056  1
  Eu  Eu7  1  0.84257361  0.81030285  0.92382990  1
  Si  Si0  1  0.77974108  0.15956626  0.58175644  1
  Si  Si1  1  0.27974108  0.84043374  0.91824356  1
  Si  Si2  1  0.72025892  0.15956626  0.08175644  1
  Si  Si3  1  0.22025892  0.84043374  0.41824356  1
  O  O0  1  0.23578767  0.15543394  0.81810219  1
  O  O1  1  0.17641909  0.65021464  0.86098421  1
  O  O2  1  0.82358091  0.34978536  0.13901579  1
  O  O3  1  0.76421233  0.84456606  0.18189781  1
  O  O4  1  0.68268912  0.24804808  0.42917354  1
  O  O5  1  0.18268912  0.75195192  0.07082646  1
  O  O6  1  0.73578767  0.84456606  0.68189781  1
  O  O7  1  0.31731088  0.75195192  0.57082646  1
  O  O8  1  0.00532802  0.21275029  0.56859286  1
  O  O9  1  0.49467198  0.21275029  0.06859286  1
  O  O10  1  0.67641909  0.34978536  0.63901579  1
  O  O11  1  0.32358091  0.65021464  0.36098421  1
  O  O12  1  0.50532802  0.78724971  0.93140714  1
  O  O13  1  0.99467198  0.78724971  0.43140714  1
  O  O14  1  0.81731088  0.24804808  0.92917354  1
  O  O15  1  0.26421233  0.15543394  0.31810219  1
loop_
_geom_bond_atom_site_label_1
_geom_bond_atom_site_label_2
_geom_bond_distance
_geom_bond_site_symmetry_2
Eu0 O13 2.390524 1_555
Eu0 O4 2.509620 1_565
Eu0 O10 2.580214 1_555
Eu0 O3 2.666740 1_555
Eu0 O11 2.729794 1_555
Eu0 O7 2.827066 1_555
Eu0 O6 2.964503 1_555
Eu0 O4 3.158379 1_555
Eu1 O8 2.390524 1_555
Eu1 O7 2.509620 1_545
Eu1 O11 2.580214 1_555
Eu1 O0 2.666740 1_555
Eu1 O10 2.729794 1_555
Eu1 O4 2.827066 1_555
Eu1 O15 2.964503 1_555
Eu1 O7 3.158379 1_555
Eu2 O6 2.514885 1_555
Eu2 O10 2.528896 1_555
Eu2 O0 2.552312 1_555
Eu2 O9 2.585544 1_556
Eu2 O7 2.613483 1_555
Eu2 O14 2.641256 1_555
Eu2 O1 2.689534 1_555
Eu2 O12 2.723262 1_555
Eu3 O9 2.390524 1_555
Eu3 O5 2.509620 1_545
Eu3 O1 2.580214 1_554
Eu3 O15 2.666740 1_555
Eu3 O2 2.729794 1_455
Eu3 O14 2.827066 1_454
Eu3 O0 2.964503 1_554
Eu3 O5 3.158379 1_555
Eu4 O3 2.514885 1_555
Eu4 O2 2.528896 1_555
Eu4 O15 2.552312 1_655
Eu4 O8 2.585544 1_655
Eu4 O5 2.613483 1_655
Eu4 O4 2.641256 1_555
Eu4 O11 2.689534 1_655
Eu4 O13 2.723262 1_555
Eu5 O0 2.514885 1_555
Eu5 O1 2.528896 1_555
Eu5 O6 2.552312 1_455
Eu5 O13 2.585544 1_455
Eu5 O14 2.613483 1_455
Eu5 O7 2.641256 1_555
Eu5 O10 2.689534 1_455
Eu5 O8 2.723262 1_555
Eu6 O15 2.514885 1_555
Eu6 O11 2.528896 1_555
Eu6 O3 2.552312 1_555
Eu6 O12 2.585544 1_554
Eu6 O4 2.613483 1_555
Eu6 O5 2.641256 1_555
Eu6 O2 2.689534 1_555
Eu6 O9 2.723262 1_555
Eu7 O12 2.390524 1_555
Eu7 O14 2.509620 1_565
Eu7 O2 2.580214 1_556
Eu7 O6 2.666740 1_555
Eu7 O1 2.729794 1_655
Eu7 O5 2.827066 1_656
Eu7 O3 2.964503 1_556
Eu7 O14 3.158379 1_555
O0 Si1 1.631943 1_545
O1 Si1 1.644876 1_555
O2 Si2 1.644876 1_555
O3 Si2 1.631943 1_565
O4 Si0 1.651017 1_555
O5 Si1 1.651017 1_554
O6 Si0 1.631943 1_565
O7 Si3 1.651017 1_555
O8 Si0 1.619217 1_455
O9 Si2 1.619217 1_555
O10 Si0 1.644876 1_555
O11 Si3 1.644876 1_555
O12 Si1 1.619217 1_555
O13 Si3 1.619217 1_655
O14 Si2 1.651017 1_556
O15 Si3 1.631943 1_545
