# generated using pymatgen
data_BaTeO3
_symmetry_space_group_name_H-M   'P 1'
_cell_length_a   6.15247695
_cell_length_b   12.37206862
_cell_length_c   14.88472134
_cell_angle_alpha   90.00000000
_cell_angle_beta   90.00000000
_cell_angle_gamma   90.00000000
_symmetry_Int_Tables_number   1
_chemical_formula_structural   BaTeO3
_chemical_formula_sum   'Ba12 Te12 O36'
_cell_volume   1133.00812414
_cell_formula_units_Z   12
loop_
 _symmetry_equiv_pos_site_id
 _symmetry_equiv_pos_as_xyz
  1  'x, y, z'
loop_
 _atom_site_type_symbol
 _atom_site_label
 _atom_site_symmetry_multiplicity
 _atom_site_fract_x
 _atom_site_fract_y
 _atom_site_fract_z
 _atom_site_occupancy
  Ba  Ba0  1  0.25000000  0.85660079  0.19308233  1
  Ba  Ba1  1  0.25000000  0.87252457  0.48548908  1
  Ba  Ba2  1  0.75000000  0.14339921  0.80691767  1
  Ba  Ba3  1  0.75000000  0.12747543  0.51451092  1
  Ba  Ba4  1  0.75000000  0.35660079  0.30691767  1
  Ba  Ba5  1  0.75000000  0.37252457  0.01451092  1
  Ba  Ba6  1  0.25000000  0.13813035  0.00665791  1
  Ba  Ba7  1  0.75000000  0.63813035  0.49334209  1
  Ba  Ba8  1  0.25000000  0.36186965  0.50665791  1
  Ba  Ba9  1  0.25000000  0.64339921  0.69308233  1
  Ba  Ba10  1  0.25000000  0.62747543  0.98548908  1
  Ba  Ba11  1  0.75000000  0.86186965  0.99334209  1
  Te  Te0  1  0.25000000  0.38588674  0.16178944  1
  Te  Te1  1  0.25000000  0.34952868  0.81378070  1
  Te  Te2  1  0.75000000  0.40264799  0.63975718  1
  Te  Te3  1  0.75000000  0.61411326  0.83821056  1
  Te  Te4  1  0.25000000  0.59735201  0.36024282  1
  Te  Te5  1  0.25000000  0.90264799  0.86024282  1
  Te  Te6  1  0.25000000  0.11411326  0.66178944  1
  Te  Te7  1  0.75000000  0.88588674  0.33821056  1
  Te  Te8  1  0.75000000  0.09735201  0.13975718  1
  Te  Te9  1  0.75000000  0.65047132  0.18621930  1
  Te  Te10  1  0.25000000  0.15047132  0.31378070  1
  Te  Te11  1  0.75000000  0.84952868  0.68621930  1
  O  O0  1  0.25000000  0.84647945  0.97684936  1
  O  O1  1  0.52418695  0.71067893  0.11687476  1
  O  O2  1  0.02027713  0.50021391  0.38166970  1
  O  O3  1  0.02418695  0.21067893  0.38312524  1
  O  O4  1  0.25000000  0.42298605  0.04145940  1
  O  O5  1  0.25000000  0.07701395  0.54145940  1
  O  O6  1  0.75000000  0.34647945  0.52315064  1
  O  O7  1  0.47972287  0.50021391  0.38166970  1
  O  O8  1  0.75000000  0.15352055  0.02315064  1
  O  O9  1  0.97581305  0.71067893  0.11687476  1
  O  O10  1  0.25000000  0.49626924  0.84318430  1
  O  O11  1  0.75000000  0.99626924  0.65681570  1
  O  O12  1  0.48141905  0.28720285  0.15704299  1
  O  O13  1  0.52027713  0.00021391  0.11833030  1
  O  O14  1  0.98141905  0.78720285  0.34295701  1
  O  O15  1  0.52418695  0.78932107  0.61687476  1
  O  O16  1  0.97972287  0.49978609  0.61833030  1
  O  O17  1  0.75000000  0.57701395  0.95854060  1
  O  O18  1  0.47581305  0.28932107  0.88312524  1
  O  O19  1  0.25000000  0.65352055  0.47684936  1
  O  O20  1  0.98141905  0.71279715  0.84295701  1
  O  O21  1  0.02027713  -0.00021391  0.88166970  1
  O  O22  1  0.52027713  0.49978609  0.61833030  1
  O  O23  1  0.48141905  0.21279715  0.65704299  1
  O  O24  1  0.47581305  0.21067893  0.38312524  1
  O  O25  1  0.02418695  0.28932107  0.88312524  1
  O  O26  1  0.75000000  0.92298605  0.45854060  1
  O  O27  1  0.01858095  0.21279715  0.65704299  1
  O  O28  1  0.75000000  0.50373076  0.15681570  1
  O  O29  1  0.25000000  0.00373076  0.34318430  1
  O  O30  1  0.51858095  0.71279715  0.84295701  1
  O  O31  1  0.01858095  0.28720285  0.15704299  1
  O  O32  1  0.47972287  -0.00021391  0.88166970  1
  O  O33  1  0.51858095  0.78720285  0.34295701  1
  O  O34  1  0.97581305  0.78932107  0.61687476  1
  O  O35  1  0.97972287  0.00021391  0.11833030  1
loop_
_geom_bond_atom_site_label_1
_geom_bond_atom_site_label_2
_geom_bond_distance
_geom_bond_site_symmetry_2
Ba0 O35 2.675847 1_465
Ba0 O13 2.675847 1_565
Ba0 O9 2.718775 1_455
Ba0 O1 2.718775 1_555
Ba0 O29 2.881886 1_565
Ba0 O33 2.905925 1_555
Ba0 O14 2.905925 1_455
Ba0 O0 3.221003 1_554
Ba1 O5 2.663595 1_565
Ba1 O29 2.668653 1_565
Ba1 O19 2.712583 1_555
Ba1 O34 2.780273 1_455
Ba1 O15 2.780273 1_555
Ba1 O33 2.888915 1_555
Ba1 O14 2.888915 1_455
Ba1 O26 3.164476 1_555
Ba1 O26 3.164476 1_455
Ba2 O32 2.675847 1_555
Ba2 O21 2.675847 1_655
Ba2 O25 2.718775 1_655
Ba2 O18 2.718775 1_555
Ba2 O11 2.881886 1_545
Ba2 O27 2.905925 1_655
Ba2 O23 2.905925 1_555
Ba2 O8 3.221003 1_556
Ba3 O26 2.663595 1_545
Ba3 O11 2.668653 1_545
Ba3 O6 2.712583 1_555
Ba3 O3 2.780273 1_655
Ba3 O24 2.780273 1_555
Ba3 O23 2.888915 1_555
Ba3 O27 2.888915 1_655
Ba3 O5 3.164476 1_655
Ba3 O5 3.164476 1_555
Ba4 O7 2.675847 1_555
Ba4 O2 2.675847 1_655
Ba4 O3 2.718775 1_655
Ba4 O24 2.718775 1_555
Ba4 O28 2.881886 1_555
Ba4 O12 2.905925 1_555
Ba4 O31 2.905925 1_655
Ba4 O6 3.221003 1_555
Ba5 O17 2.663595 1_554
Ba5 O28 2.668653 1_555
Ba5 O8 2.712583 1_555
Ba5 O18 2.780273 1_554
Ba5 O25 2.780273 1_654
Ba5 O12 2.888915 1_555
Ba5 O31 2.888915 1_655
Ba5 O4 3.164476 1_655
Ba5 O4 3.164476 1_555
Ba6 O21 2.896262 1_554
Ba6 O32 2.896262 1_554
Ba6 O35 2.905099 1_455
Ba6 O13 2.905099 1_555
Ba6 O18 2.968183 1_554
Ba6 O25 2.968183 1_554
Ba6 O8 3.091887 1_455
Ba6 O8 3.091887 1_555
Ba6 O31 3.231005 1_555
Ba6 O12 3.231005 1_555
Ba7 O22 2.896262 1_555
Ba7 O16 2.896262 1_555
Ba7 O2 2.905099 1_655
Ba7 O7 2.905099 1_555
Ba7 O15 2.968183 1_555
Ba7 O34 2.968183 1_555
Ba7 O19 3.091887 1_655
Ba7 O19 3.091887 1_555
Ba7 O33 3.231005 1_555
Ba7 O14 3.231005 1_555
Ba8 O7 2.896262 1_555
Ba8 O2 2.896262 1_555
Ba8 O22 2.905099 1_555
Ba8 O16 2.905099 1_455
Ba8 O3 2.968183 1_555
Ba8 O24 2.968183 1_555
Ba8 O6 3.091887 1_555
Ba8 O6 3.091887 1_455
Ba8 O27 3.231005 1_555
Ba8 O23 3.231005 1_555
Ba9 O16 2.675847 1_455
Ba9 O22 2.675847 1_555
Ba9 O15 2.718775 1_555
Ba9 O34 2.718775 1_455
Ba9 O10 2.881886 1_555
Ba9 O30 2.905925 1_555
Ba9 O20 2.905925 1_455
Ba9 O19 3.221003 1_555
Ba10 O4 2.663595 1_556
Ba10 O10 2.668653 1_555
Ba10 O0 2.712583 1_555
Ba10 O1 2.780273 1_556
Ba10 O9 2.780273 1_456
Ba10 O30 2.888915 1_555
Ba10 O20 2.888915 1_455
Ba10 O17 3.164476 1_455
Ba10 O17 3.164476 1_555
Ba11 O13 2.896262 1_566
Ba11 O35 2.896262 1_566
Ba11 O21 2.905099 1_665
Ba11 O32 2.905099 1_565
Ba11 O9 2.968183 1_556
Ba11 O1 2.968183 1_556
Ba11 O0 3.091887 1_555
Ba11 O0 3.091887 1_655
Ba11 O30 3.231005 1_555
Ba11 O20 3.231005 1_555
O0 Te5 1.869603 1_555
O1 Te9 1.884258 1_555
O2 Te4 1.882456 1_555
O3 Te10 1.884258 1_555
O4 Te0 1.848957 1_555
O5 Te6 1.848957 1_555
O6 Te2 1.869603 1_555
O7 Te4 1.882456 1_555
O8 Te8 1.869603 1_555
O9 Te9 1.884258 1_555
O10 Te1 1.867494 1_555
O11 Te11 1.867494 1_555
O12 Te0 1.876927 1_555
O13 Te8 1.882456 1_555
O14 Te7 1.876927 1_555
O15 Te11 1.884258 1_555
O16 Te2 1.882456 1_555
O17 Te3 1.848957 1_555
O18 Te1 1.884258 1_555
O19 Te4 1.869603 1_555
O20 Te3 1.876927 1_555
O21 Te5 1.882456 1_545
O22 Te2 1.882456 1_555
O23 Te6 1.876927 1_555
O24 Te10 1.884258 1_555
O25 Te1 1.884258 1_555
O26 Te7 1.848957 1_555
O27 Te6 1.876927 1_555
O28 Te9 1.867494 1_555
O29 Te10 1.867494 1_555
O30 Te3 1.876927 1_555
O31 Te0 1.876927 1_555
O32 Te5 1.882456 1_545
O33 Te7 1.876927 1_555
O34 Te11 1.884258 1_555
O35 Te8 1.882456 1_555
