# generated using pymatgen
data_HfNi5(BO5)2
_symmetry_space_group_name_H-M   'P 1'
_cell_length_a   6.16226000
_cell_length_b   9.39898600
_cell_length_c   12.41325400
_cell_angle_alpha   90.00000000
_cell_angle_beta   90.00000000
_cell_angle_gamma   90.00000000
_symmetry_Int_Tables_number   1
_chemical_formula_structural   HfNi5(BO5)2
_chemical_formula_sum   'Hf4 Ni20 B8 O40'
_cell_volume   718.96320217
_cell_formula_units_Z   4
loop_
 _symmetry_equiv_pos_site_id
 _symmetry_equiv_pos_as_xyz
  1  'x, y, z'
loop_
 _atom_site_type_symbol
 _atom_site_label
 _atom_site_symmetry_multiplicity
 _atom_site_fract_x
 _atom_site_fract_y
 _atom_site_fract_z
 _atom_site_occupancy
  Hf  Hf0  1  0.25000000  0.74067400  0.11587700  1
  Hf  Hf1  1  0.75000000  0.75932600  0.61587700  1
  Hf  Hf2  1  0.25000000  0.24067400  0.38412300  1
  Hf  Hf3  1  0.75000000  0.25932600  0.88412300  1
  Ni  Ni0  1  0.99523300  0.00111300  0.21758500  1
  Ni  Ni1  1  0.75000000  0.99281900  0.00288300  1
  Ni  Ni2  1  0.75000000  0.23788500  0.38580600  1
  Ni  Ni3  1  0.50476700  0.00111300  0.21758500  1
  Ni  Ni4  1  0.00476700  0.49888700  0.71758500  1
  Ni  Ni5  1  0.25000000  0.76211500  0.61419400  1
  Ni  Ni6  1  0.50476700  0.50111300  0.28241500  1
  Ni  Ni7  1  0.99523300  0.50111300  0.28241500  1
  Ni  Ni8  1  0.00476700  0.99888700  0.78241500  1
  Ni  Ni9  1  0.49523300  0.49888700  0.71758500  1
  Ni  Ni10  1  0.49523300  0.99888700  0.78241500  1
  Ni  Ni11  1  0.50000000  0.50000000  0.00000000  1
  Ni  Ni12  1  0.25000000  0.26211500  0.88580600  1
  Ni  Ni13  1  0.25000000  0.50718100  0.50288300  1
  Ni  Ni14  1  0.75000000  0.49281900  0.49711700  1
  Ni  Ni15  1  0.25000000  0.00718100  0.99711700  1
  Ni  Ni16  1  0.00000000  0.00000000  0.50000000  1
  Ni  Ni17  1  0.50000000  0.00000000  0.50000000  1
  Ni  Ni18  1  0.75000000  0.73788500  0.11419400  1
  Ni  Ni19  1  0.00000000  0.50000000  0.00000000  1
  B  B0  1  0.25000000  0.27669700  0.13523100  1
  B  B1  1  0.25000000  0.77669700  0.36476900  1
  B  B2  1  0.75000000  0.72330300  0.86476900  1
  B  B3  1  0.75000000  0.22330300  0.63523100  1
  B  B4  1  0.75000000  0.27212600  0.14415100  1
  B  B5  1  0.25000000  0.72787400  0.85584900  1
  B  B6  1  0.75000000  0.77212600  0.35584900  1
  B  B7  1  0.25000000  0.22787400  0.64415100  1
  O  O0  1  0.49367400  0.88837400  0.07656500  1
  O  O1  1  0.75000000  0.14923800  0.73388200  1
  O  O2  1  0.25000000  0.15448500  0.54508500  1
  O  O3  1  0.75000000  0.84551500  0.45491500  1
  O  O4  1  0.75000000  0.84830700  0.26081300  1
  O  O5  1  0.50632600  0.11162600  0.92343500  1
  O  O6  1  0.25000000  0.15169300  0.73918700  1
  O  O7  1  0.50351000  0.89717400  0.64365100  1
  O  O8  1  0.25000000  0.62955800  0.36052100  1
  O  O9  1  0.25000000  0.65448500  0.95491500  1
  O  O10  1  0.75000000  0.37044200  0.63947900  1
  O  O11  1  0.00632600  0.38837400  0.42343500  1
  O  O12  1  0.75000000  0.87044200  0.86052100  1
  O  O13  1  0.99367400  0.11162600  0.92343500  1
  O  O14  1  0.49649000  0.60282600  0.14365100  1
  O  O15  1  0.50632600  0.61162600  0.57656500  1
  O  O16  1  0.49649000  0.10282600  0.35634900  1
  O  O17  1  0.75000000  0.34830700  0.23918700  1
  O  O18  1  0.99649000  0.39717400  0.85634900  1
  O  O19  1  0.00351000  0.10282600  0.35634900  1
  O  O20  1  0.75000000  0.12444400  0.14359500  1
  O  O21  1  0.75000000  0.14669900  0.54004400  1
  O  O22  1  0.75000000  0.34551500  0.04508500  1
  O  O23  1  0.25000000  0.37555600  0.64359500  1
  O  O24  1  0.25000000  0.12955800  0.13947900  1
  O  O25  1  0.49367400  0.38837400  0.42343500  1
  O  O26  1  0.25000000  0.85076200  0.26611800  1
  O  O27  1  0.00632600  0.88837400  0.07656500  1
  O  O28  1  0.00351000  0.60282600  0.14365100  1
  O  O29  1  0.99649000  0.89717400  0.64365100  1
  O  O30  1  0.75000000  0.62444400  0.35640500  1
  O  O31  1  0.25000000  0.35330100  0.04004400  1
  O  O32  1  0.25000000  0.85330100  0.45995600  1
  O  O33  1  0.50351000  0.39717400  0.85634900  1
  O  O34  1  0.25000000  0.87555600  0.85640500  1
  O  O35  1  0.25000000  0.35076200  0.23388200  1
  O  O36  1  0.99367400  0.61162600  0.57656500  1
  O  O37  1  0.25000000  0.65169300  0.76081300  1
  O  O38  1  0.75000000  0.64923800  0.76611800  1
  O  O39  1  0.75000000  0.64669900  0.95995600  1
loop_
_geom_bond_atom_site_label_1
_geom_bond_atom_site_label_2
_geom_bond_distance
_geom_bond_site_symmetry_2
Hf0 O14 2.026003 1_555
Hf0 O28 2.026003 1_555
Hf0 O0 2.102396 1_555
Hf0 O27 2.102396 1_555
Hf0 O26 2.132788 1_555
Hf0 O9 2.156037 1_554
Hf1 O7 2.026003 1_555
Hf1 O29 2.026003 1_555
Hf1 O36 2.102396 1_555
Hf1 O15 2.102396 1_555
Hf1 O38 2.132788 1_555
Hf1 O3 2.156037 1_555
Hf2 O16 2.026003 1_555
Hf2 O19 2.026003 1_555
Hf2 O25 2.102396 1_555
Hf2 O11 2.102396 1_555
Hf2 O35 2.132788 1_555
Hf2 O2 2.156037 1_555
Hf3 O33 2.026003 1_555
Hf3 O18 2.026003 1_555
Hf3 O13 2.102396 1_555
Hf3 O5 2.102396 1_555
Hf3 O1 2.132788 1_555
Hf3 O22 2.156037 1_556
Ni0 O19 1.970682 1_655
Ni0 O27 2.047389 1_645
Ni0 O20 2.114467 1_555
Ni0 O4 2.152758 1_545
Ni0 O26 2.196508 1_645
Ni0 O24 2.205039 1_655
Ni1 O0 2.072490 1_555
Ni1 O27 2.072490 1_655
Ni1 O12 2.108534 1_554
Ni1 O13 2.115254 1_564
Ni1 O5 2.115254 1_564
Ni1 O20 2.140434 1_565
Ni2 O19 2.045869 1_655
Ni2 O16 2.045869 1_555
Ni2 O17 2.095140 1_555
Ni2 O21 2.097670 1_555
Ni2 O11 2.171129 1_655
Ni2 O25 2.171129 1_555
Ni3 O16 1.970682 1_555
Ni3 O0 2.047389 1_545
Ni3 O20 2.114467 1_555
Ni3 O4 2.152758 1_545
Ni3 O26 2.196508 1_545
Ni3 O24 2.205039 1_555
Ni4 O18 1.970682 1_455
Ni4 O36 2.047389 1_455
Ni4 O23 2.114467 1_555
Ni4 O37 2.152758 1_555
Ni4 O38 2.196508 1_455
Ni4 O10 2.205039 1_455
Ni5 O29 2.045869 1_455
Ni5 O7 2.045869 1_555
Ni5 O37 2.095140 1_555
Ni5 O32 2.097670 1_555
Ni5 O15 2.171129 1_555
Ni5 O36 2.171129 1_455
Ni6 O14 1.970682 1_555
Ni6 O25 2.047389 1_555
Ni6 O30 2.114467 1_555
Ni6 O17 2.152758 1_555
Ni6 O35 2.196508 1_555
Ni6 O8 2.205039 1_555
Ni7 O28 1.970682 1_655
Ni7 O11 2.047389 1_655
Ni7 O30 2.114467 1_555
Ni7 O17 2.152758 1_555
Ni7 O35 2.196508 1_655
Ni7 O8 2.205039 1_655
Ni8 O29 1.970682 1_455
Ni8 O13 2.047389 1_465
Ni8 O34 2.114467 1_555
Ni8 O6 2.152758 1_565
Ni8 O1 2.196508 1_465
Ni8 O12 2.205039 1_455
Ni9 O33 1.970682 1_555
Ni9 O15 2.047389 1_555
Ni9 O23 2.114467 1_555
Ni9 O37 2.152758 1_555
Ni9 O38 2.196508 1_555
Ni9 O10 2.205039 1_555
Ni10 O7 1.970682 1_555
Ni10 O5 2.047389 1_565
Ni10 O34 2.114467 1_555
Ni10 O6 2.152758 1_565
Ni10 O1 2.196508 1_565
Ni10 O12 2.205039 1_555
Ni11 O14 2.028357 1_555
Ni11 O33 2.028357 1_554
Ni11 O31 2.126400 1_555
Ni11 O39 2.126400 1_554
Ni11 O9 2.189717 1_554
Ni11 O22 2.189717 1_555
Ni12 O18 2.045869 1_455
Ni12 O33 2.045869 1_555
Ni12 O6 2.095140 1_555
Ni12 O31 2.097670 1_556
Ni12 O5 2.171129 1_555
Ni12 O13 2.171129 1_455
Ni13 O15 2.072490 1_555
Ni13 O36 2.072490 1_455
Ni13 O8 2.108534 1_555
Ni13 O11 2.115254 1_555
Ni13 O25 2.115254 1_555
Ni13 O23 2.140434 1_555
Ni14 O11 2.072490 1_655
Ni14 O25 2.072490 1_555
Ni14 O10 2.108534 1_555
Ni14 O36 2.115254 1_555
Ni14 O15 2.115254 1_555
Ni14 O30 2.140434 1_555
Ni15 O5 2.072490 1_555
Ni15 O13 2.072490 1_455
Ni15 O24 2.108534 1_556
Ni15 O0 2.115254 1_546
Ni15 O27 2.115254 1_546
Ni15 O34 2.140434 1_545
Ni16 O29 2.028357 1_445
Ni16 O19 2.028357 1_555
Ni16 O21 2.126400 1_455
Ni16 O32 2.126400 1_545
Ni16 O2 2.189717 1_555
Ni16 O3 2.189717 1_445
Ni17 O7 2.028357 1_545
Ni17 O16 2.028357 1_555
Ni17 O21 2.126400 1_555
Ni17 O32 2.126400 1_545
Ni17 O2 2.189717 1_555
Ni17 O3 2.189717 1_545
Ni18 O28 2.045869 1_655
Ni18 O14 2.045869 1_555
Ni18 O4 2.095140 1_555
Ni18 O39 2.097670 1_554
Ni18 O0 2.171129 1_555
Ni18 O27 2.171129 1_655
Ni19 O28 2.028357 1_555
Ni19 O18 2.028357 1_454
Ni19 O31 2.126400 1_555
Ni19 O39 2.126400 1_454
Ni19 O9 2.189717 1_554
Ni19 O22 2.189717 1_455
B0 O31 1.383666 1_555
B0 O24 1.383962 1_555
B0 O35 1.408617 1_555
B1 O32 1.383666 1_555
B1 O8 1.383962 1_555
B1 O26 1.408617 1_555
B2 O39 1.383666 1_555
B2 O12 1.383962 1_555
B2 O38 1.408617 1_555
B3 O21 1.383666 1_555
B3 O10 1.383962 1_555
B3 O1 1.408617 1_555
B4 O17 1.379999 1_555
B4 O20 1.388078 1_555
B4 O22 1.409978 1_555
B5 O37 1.379999 1_555
B5 O34 1.388078 1_555
B5 O9 1.409978 1_555
B6 O4 1.379999 1_555
B6 O30 1.388078 1_555
B6 O3 1.409978 1_555
B7 O6 1.379999 1_555
B7 O23 1.388078 1_555
B7 O2 1.409978 1_555
