# generated using pymatgen
data_CsAl3(P3O10)2
_symmetry_space_group_name_H-M   'P 1'
_cell_length_a   8.44241879
_cell_length_b   8.44241879
_cell_length_c   12.33334500
_cell_angle_alpha   90.00000000
_cell_angle_beta   90.00000000
_cell_angle_gamma   106.08040987
_symmetry_Int_Tables_number   1
_chemical_formula_structural   CsAl3(P3O10)2
_chemical_formula_sum   'Cs2 Al6 P12 O40'
_cell_volume   844.65832647
_cell_formula_units_Z   2
loop_
 _symmetry_equiv_pos_site_id
 _symmetry_equiv_pos_as_xyz
  1  'x, y, z'
loop_
 _atom_site_type_symbol
 _atom_site_label
 _atom_site_symmetry_multiplicity
 _atom_site_fract_x
 _atom_site_fract_y
 _atom_site_fract_z
 _atom_site_occupancy
  Cs  Cs0  1  0.00003600  0.00003600  0.00000000  1
  Cs  Cs1  1  0.50003600  0.50003600  0.50000000  1
  Al  Al0  1  0.27732000  0.82096400  0.72097100  1
  Al  Al1  1  0.88011300  0.88011200  0.50000000  1
  Al  Al2  1  0.32096400  0.77732000  0.22097000  1
  Al  Al3  1  0.38011300  0.38011300  0.00000000  1
  Al  Al4  1  0.77732000  0.32096400  0.77903000  1
  Al  Al5  1  0.82096400  0.27732000  0.27903000  1
  P  P0  1  0.22489300  0.37912800  0.21948500  1
  P  P1  1  0.75304600  0.37932700  0.04234500  1
  P  P2  1  0.37912800  0.22489300  0.78051500  1
  P  P3  1  0.90387600  0.63773100  0.19509800  1
  P  P4  1  0.72489300  0.87912800  0.28051500  1
  P  P5  1  0.63773100  0.90387600  0.80490200  1
  P  P6  1  0.37932700  0.75304600  0.95765500  1
  P  P7  1  0.40387600  0.13773100  0.30490200  1
  P  P8  1  0.13773100  0.40387600  0.69509800  1
  P  P9  1  0.87932700  0.25304600  0.54234500  1
  P  P10  1  0.87912800  0.72489300  0.71948500  1
  P  P11  1  0.25304600  0.87932700  0.45765500  1
  O  O0  1  0.34599200  0.05182800  0.74082000  1
  O  O1  1  0.78226800  0.81449400  0.80383600  1
  O  O2  1  0.21747700  0.58546300  0.70006700  1
  O  O3  1  0.31449400  0.28226800  0.30383600  1
  O  O4  1  0.05182800  0.34599200  0.25918000  1
  O  O5  1  0.30292900  0.84795100  0.57051700  1
  O  O6  1  0.28226800  0.31449400  0.69616400  1
  O  O7  1  0.82069000  0.50665500  0.27546900  1
  O  O8  1  0.84795100  0.30292900  0.42948300  1
  O  O9  1  0.71747700  0.08546300  0.79993300  1
  O  O10  1  0.82907700  0.05654600  0.27797100  1
  O  O11  1  0.76480500  0.29349500  0.62590300  1
  O  O12  1  0.80292900  0.34795100  0.92948300  1
  O  O13  1  0.55182800  0.84599200  0.24082000  1
  O  O14  1  0.06808600  0.36191800  0.57323000  1
  O  O15  1  0.79349500  0.26480500  0.12590300  1
  O  O16  1  0.88301300  0.07250600  0.55093800  1
  O  O17  1  0.00665500  0.32069000  0.77546900  1
  O  O18  1  0.05654600  0.82907700  0.72202900  1
  O  O19  1  0.32907700  0.55654600  0.22202900  1
  O  O20  1  0.55654600  0.32907700  0.77797100  1
  O  O21  1  0.81449400  0.78226800  0.19616400  1
  O  O22  1  0.86191800  0.56808600  0.07323000  1
  O  O23  1  0.57250600  0.38301300  0.05093800  1
  O  O24  1  0.29349500  0.76480500  0.37409700  1
  O  O25  1  0.23581800  0.30475500  0.10527100  1
  O  O26  1  0.73581800  0.80475500  0.39472900  1
  O  O27  1  0.38301300  0.57250600  0.94906200  1
  O  O28  1  0.80475500  0.73581800  0.60527100  1
  O  O29  1  0.50665500  0.82069000  0.72453100  1
  O  O30  1  0.08546300  0.71747700  0.20006700  1
  O  O31  1  0.56808600  0.86191800  0.92677000  1
  O  O32  1  0.07250600  0.88301300  0.44906200  1
  O  O33  1  0.26480500  0.79349500  0.87409700  1
  O  O34  1  0.34795100  0.80292900  0.07051700  1
  O  O35  1  0.84599200  0.55182800  0.75918000  1
  O  O36  1  0.30475500  0.23581800  0.89472900  1
  O  O37  1  0.58546300  0.21747700  0.29993300  1
  O  O38  1  0.36191800  0.06808600  0.42677000  1
  O  O39  1  0.32069000  0.00665500  0.22453100  1
loop_
_geom_bond_atom_site_label_1
_geom_bond_atom_site_label_2
_geom_bond_distance
_geom_bond_site_symmetry_2
Cs0 O36 3.070723 1_554
Cs0 O25 3.070723 1_555
Cs0 O21 3.176737 1_445
Cs0 O1 3.176737 1_444
Cs1 O26 3.070723 1_555
Cs1 O28 3.070723 1_555
Cs1 O3 3.176737 1_555
Cs1 O6 3.176737 1_555
Al0 O5 1.874732 1_555
Al0 O18 1.884033 1_555
Al0 O0 1.889145 1_565
Al0 O33 1.902107 1_555
Al0 O2 1.928262 1_555
Al0 O29 1.937282 1_555
Al1 O32 1.735359 1_655
Al1 O16 1.735369 1_565
Al1 O28 1.773443 1_555
Al1 O26 1.773447 1_555
Al2 O34 1.874720 1_555
Al2 O19 1.884033 1_555
Al2 O13 1.889147 1_555
Al2 O24 1.902120 1_555
Al2 O30 1.928261 1_555
Al2 O39 1.937282 1_565
Al3 O23 1.735361 1_555
Al3 O27 1.735361 1_554
Al3 O36 1.773448 1_554
Al3 O25 1.773448 1_555
Al4 O12 1.874720 1_555
Al4 O20 1.884033 1_555
Al4 O35 1.889147 1_555
Al4 O11 1.902120 1_555
Al4 O9 1.928261 1_555
Al4 O17 1.937282 1_655
Al5 O8 1.874720 1_555
Al5 O10 1.884033 1_555
Al5 O4 1.889147 1_655
Al5 O15 1.902120 1_555
Al5 O37 1.928261 1_555
Al5 O7 1.937282 1_555
O0 P2 1.492075 1_555
O1 P5 1.602710 1_555
O1 P10 1.632746 1_555
O2 P8 1.495142 1_555
O3 P7 1.602710 1_555
O3 P0 1.632746 1_555
O4 P0 1.492075 1_555
O5 P11 1.498962 1_555
O6 P8 1.602710 1_555
O6 P2 1.632746 1_555
O7 P3 1.506590 1_555
O8 P9 1.498962 1_555
O9 P5 1.495142 1_545
O10 P4 1.512715 1_545
O11 P9 1.515366 1_555
O12 P1 1.498962 1_556
O13 P4 1.492075 1_555
O14 P8 1.617077 1_555
O14 P9 1.648638 1_455
O15 P1 1.515366 1_555
O16 P9 1.536764 1_555
O17 P8 1.506590 1_555
O18 P10 1.512715 1_455
O19 P0 1.512715 1_555
O20 P2 1.512715 1_555
O21 P3 1.602710 1_555
O21 P4 1.632746 1_555
O22 P3 1.617077 1_555
O22 P1 1.648638 1_555
O23 P1 1.536764 1_555
O24 P11 1.515366 1_555
O25 P0 1.555346 1_555
O26 P4 1.555346 1_555
O27 P6 1.536764 1_555
O28 P10 1.555346 1_555
O29 P5 1.506590 1_555
O30 P3 1.495142 1_455
O31 P5 1.617077 1_555
O31 P6 1.648638 1_555
O32 P11 1.536764 1_555
O33 P6 1.515366 1_555
O34 P6 1.498962 1_554
O35 P10 1.492075 1_555
O36 P2 1.555346 1_555
O37 P7 1.495142 1_555
O38 P7 1.617077 1_555
O38 P11 1.648638 1_545
O39 P7 1.506590 1_555
