# generated using pymatgen
data_Nb3Se5Cl7
_symmetry_space_group_name_H-M   'P 1'
_cell_length_a   12.76910575
_cell_length_b   8.04351783
_cell_length_c   8.35499374
_cell_angle_alpha   71.20139096
_cell_angle_beta   90.00000000
_cell_angle_gamma   90.00000000
_symmetry_Int_Tables_number   1
_chemical_formula_structural   Nb3Se5Cl7
_chemical_formula_sum   'Nb6 Se10 Cl14'
_cell_volume   812.35401345
_cell_formula_units_Z   2
loop_
 _symmetry_equiv_pos_site_id
 _symmetry_equiv_pos_as_xyz
  1  'x, y, z'
loop_
 _atom_site_type_symbol
 _atom_site_label
 _atom_site_symmetry_multiplicity
 _atom_site_fract_x
 _atom_site_fract_y
 _atom_site_fract_z
 _atom_site_occupancy
  Nb  Nb0  1  0.60939798  0.02522143  0.94095392  1
  Nb  Nb1  1  0.10939798  0.97477857  0.05904608  1
  Nb  Nb2  1  0.39060202  0.97477857  0.05904608  1
  Nb  Nb3  1  0.89060202  0.02522143  0.94095392  1
  Nb  Nb4  1  0.75000000  0.39879184  0.51679107  1
  Nb  Nb5  1  0.25000000  0.60120816  0.48320893  1
  Se  Se0  1  0.52481655  0.17516796  0.14936287  1
  Se  Se1  1  0.02481655  0.82483204  0.85063713  1
  Se  Se2  1  0.47518345  0.82483204  0.85063713  1
  Se  Se3  1  0.97518345  0.17516796  0.14936287  1
  Se  Se4  1  0.46886514  0.27882583  0.87327223  1
  Se  Se5  1  0.96886514  0.72117417  0.12672777  1
  Se  Se6  1  0.53113486  0.72117417  0.12672777  1
  Se  Se7  1  0.03113486  0.27882583  0.87327223  1
  Se  Se8  1  0.75000000  0.42344017  0.23740150  1
  Se  Se9  1  0.25000000  0.57655983  0.76259850  1
  Cl  Cl0  1  0.75000000  0.94518434  0.17939742  1
  Cl  Cl1  1  0.25000000  0.05481566  0.82060258  1
  Cl  Cl2  1  0.75000000  0.83868100  0.85638342  1
  Cl  Cl3  1  0.25000000  0.16131900  0.14361658  1
  Cl  Cl4  1  0.75000000  0.28205462  0.87054909  1
  Cl  Cl5  1  0.25000000  0.71794538  0.12945091  1
  Cl  Cl6  1  0.61650990  0.15309932  0.60459070  1
  Cl  Cl7  1  0.11650990  0.84690068  0.39540930  1
  Cl  Cl8  1  0.38349010  0.84690068  0.39540930  1
  Cl  Cl9  1  0.88349010  0.15309932  0.60459070  1
  Cl  Cl10  1  0.61843227  0.59411783  0.53433842  1
  Cl  Cl11  1  0.11843227  0.40588217  0.46566158  1
  Cl  Cl12  1  0.38156773  0.40588217  0.46566158  1
  Cl  Cl13  1  0.88156773  0.59411783  0.53433842  1
loop_
_geom_bond_atom_site_label_1
_geom_bond_atom_site_label_2
_geom_bond_distance
_geom_bond_site_symmetry_2
Nb0 Se2 2.624579 1_545
Nb0 Se6 2.634848 1_546
Nb0 Se4 2.637722 1_555
Nb0 Se0 2.646999 1_556
Nb1 Se3 2.624579 1_465
Nb1 Se7 2.634848 1_564
Nb1 Se5 2.637722 1_455
Nb1 Se1 2.646999 1_554
Nb2 Se0 2.624579 1_565
Nb2 Se4 2.634848 1_564
Nb2 Se6 2.637722 1_555
Nb2 Se2 2.646999 1_554
Nb3 Se1 2.624579 1_645
Nb3 Se5 2.634848 1_546
Nb3 Se7 2.637722 1_655
Nb3 Se3 2.646999 1_556
Nb4 Se8 2.278155 1_555
Nb5 Se9 2.278155 1_555
Se0 Se4 2.299372 1_554
Se1 Se5 2.299372 1_456
Se2 Se6 2.299372 1_556
Se3 Se7 2.299372 1_654
Cl0 Nb0 2.603851 1_564
Cl0 Nb3 2.603851 1_564
Cl1 Nb1 2.603851 1_546
Cl1 Nb2 2.603851 1_546
Cl2 Nb3 2.580153 1_565
Cl2 Nb0 2.580153 1_565
Cl3 Nb1 2.580153 1_545
Cl3 Nb2 2.580153 1_545
Cl4 Nb3 2.655913 1_555
Cl4 Nb0 2.655913 1_555
Cl4 Nb4 2.798016 1_555
Cl5 Nb1 2.655913 1_555
Cl5 Nb2 2.655913 1_555
Cl5 Nb5 2.798016 1_555
Cl6 Nb4 2.532744 1_555
Cl6 Nb0 2.664791 1_555
Cl7 Nb5 2.532744 1_555
Cl7 Nb1 2.664791 1_555
Cl8 Nb5 2.532744 1_555
Cl8 Nb2 2.664791 1_555
Cl9 Nb4 2.532744 1_555
Cl9 Nb3 2.664791 1_555
Cl10 Nb4 2.336821 1_555
Cl11 Nb5 2.336821 1_555
Cl12 Nb5 2.336821 1_555
Cl13 Nb4 2.336821 1_555
