# generated using pymatgen
data_MnAsRh
_symmetry_space_group_name_H-M   'P 1'
_cell_length_a   6.50212186
_cell_length_b   6.50103576
_cell_length_c   3.70177797
_cell_angle_alpha   90.00000000
_cell_angle_beta   90.00000000
_cell_angle_gamma   119.99648231
_symmetry_Int_Tables_number   1
_chemical_formula_structural   MnAsRh
_chemical_formula_sum   'Mn3 As3 Rh3'
_cell_volume   135.51708482
_cell_formula_units_Z   3
loop_
 _symmetry_equiv_pos_site_id
 _symmetry_equiv_pos_as_xyz
  1  'x, y, z'
loop_
 _atom_site_type_symbol
 _atom_site_label
 _atom_site_symmetry_multiplicity
 _atom_site_fract_x
 _atom_site_fract_y
 _atom_site_fract_z
 _atom_site_occupancy
  Mn  Mn0  1  0.41262211  0.41257820  0.50000000  1
  Mn  Mn1  1  0.00001682  0.58745632  0.50000000  1
  Mn  Mn2  1  0.58730548  0.99996944  0.50000000  1
  As  As0  1  0.99992928  0.00012923  0.50000000  1
  As  As1  1  0.66666575  0.33328771  0.00000000  1
  As  As2  1  0.33340396  0.66663551  0.00000000  1
  Rh  Rh0  1  0.25696665  0.99991515  0.00000000  1
  Rh  Rh1  1  0.74302842  0.74287677  0.00000000  1
  Rh  Rh2  1  0.00006054  0.25715068  0.00000000  1
loop_
_geom_bond_atom_site_label_1
_geom_bond_atom_site_label_2
_geom_bond_distance
_geom_bond_site_symmetry_2
Mn0 Rh1 2.835380 1_555
Mn0 Rh1 2.835380 1_556
Mn0 Rh0 2.988697 1_546
Mn0 Rh0 2.988697 1_545
Mn0 Rh2 2.988725 1_556
Mn0 Rh2 2.988725 1_555
Mn1 Rh2 2.835035 1_555
Mn1 Rh2 2.835035 1_556
Mn1 Rh1 2.987806 1_455
Mn1 Rh1 2.987806 1_456
Mn1 Rh0 2.987916 1_555
Mn1 Rh0 2.987916 1_556
Mn2 Rh0 2.835229 1_556
Mn2 Rh0 2.835229 1_555
Mn2 Rh1 2.989416 1_555
Mn2 Rh1 2.989416 1_556
Mn2 Rh2 2.989519 1_666
Mn2 Rh2 2.989519 1_665
As0 Rh2 2.493249 1_656
As0 Rh2 2.493249 1_655
As0 Rh1 2.493929 1_546
As0 Rh1 2.493929 1_545
As0 Rh0 2.494258 1_645
As0 Rh0 2.494258 1_646
As0 Mn2 2.682411 1_545
As0 Mn0 2.682505 1_655
As0 Mn1 2.683086 1_645
As1 Rh1 2.452513 1_555
As1 Rh2 2.452979 1_655
As1 Rh0 2.453708 1_545
As1 Mn2 2.696209 1_544
As1 Mn2 2.696209 1_545
As1 Mn0 2.696552 1_554
As1 Mn0 2.696552 1_555
As1 Mn1 2.696850 1_654
As1 Mn1 2.696850 1_655
As2 Rh2 2.452584 1_555
As2 Rh0 2.453196 1_555
As2 Rh1 2.453474 1_555
As2 Mn0 2.696228 1_555
As2 Mn0 2.696228 1_554
As2 Mn2 2.696307 1_555
As2 Mn2 2.696307 1_554
As2 Mn1 2.697049 1_554
As2 Mn1 2.697049 1_555
