# generated using pymatgen
data_BPBr2NCl3
_symmetry_space_group_name_H-M   'P 1'
_cell_length_a   9.30525916
_cell_length_b   9.30525916
_cell_length_c   10.49192300
_cell_angle_alpha   90.00000000
_cell_angle_beta   90.00000000
_cell_angle_gamma   95.08230122
_symmetry_Int_Tables_number   1
_chemical_formula_structural   BPBr2NCl3
_chemical_formula_sum   'B4 P4 Br8 N4 Cl12'
_cell_volume   904.90135166
_cell_formula_units_Z   4
loop_
 _symmetry_equiv_pos_site_id
 _symmetry_equiv_pos_as_xyz
  1  'x, y, z'
loop_
 _atom_site_type_symbol
 _atom_site_label
 _atom_site_symmetry_multiplicity
 _atom_site_fract_x
 _atom_site_fract_y
 _atom_site_fract_z
 _atom_site_occupancy
  B  B0  1  0.41975500  0.58024500  0.00000000  1
  B  B1  1  0.08024500  0.91975500  0.50000000  1
  B  B2  1  0.58024500  0.41975500  0.00000000  1
  B  B3  1  0.91975500  0.08024500  0.50000000  1
  P  P0  1  0.99921900  0.99921900  0.24651100  1
  P  P1  1  0.00078100  0.00078100  0.75348900  1
  P  P2  1  0.49921900  0.49921900  0.25348900  1
  P  P3  1  0.50078100  0.50078100  0.74651100  1
  Br  Br0  1  0.96591800  0.29686200  0.48002700  1
  Br  Br1  1  0.53408200  0.20313800  0.98002700  1
  Br  Br2  1  0.20313800  0.53408200  0.98002700  1
  Br  Br3  1  0.46591800  0.79686200  0.01997300  1
  Br  Br4  1  0.79686200  0.46591800  0.01997300  1
  Br  Br5  1  0.03408200  0.70313800  0.51997300  1
  Br  Br6  1  0.70313800  0.03408200  0.51997300  1
  Br  Br7  1  0.29686200  0.96591800  0.48002700  1
  N  N0  1  0.48877100  0.48877100  0.10390500  1
  N  N1  1  0.01122900  0.01122900  0.60390500  1
  N  N2  1  0.51122900  0.51122900  0.89609500  1
  N  N3  1  0.98877100  0.98877100  0.39609500  1
  Cl  Cl0  1  0.68561100  0.45207800  0.67142000  1
  Cl  Cl1  1  0.35308800  0.35308800  0.67485900  1
  Cl  Cl2  1  0.95207800  0.18561100  0.82858000  1
  Cl  Cl3  1  0.64691200  0.64691200  0.32514100  1
  Cl  Cl4  1  0.04792200  0.81438900  0.17142000  1
  Cl  Cl5  1  0.31438900  0.54792200  0.32858000  1
  Cl  Cl6  1  0.18561100  0.95207800  0.82858000  1
  Cl  Cl7  1  0.81438900  0.04792200  0.17142000  1
  Cl  Cl8  1  0.14691200  0.14691200  0.17485900  1
  Cl  Cl9  1  0.45207800  0.68561100  0.67142000  1
  Cl  Cl10  1  0.85308800  0.85308800  0.82514100  1
  Cl  Cl11  1  0.54792200  0.31438900  0.32858000  1
loop_
_geom_bond_atom_site_label_1
_geom_bond_atom_site_label_2
_geom_bond_distance
_geom_bond_site_symmetry_2
B0 N2 1.556363 1_554
B0 N0 1.556363 1_555
B0 Br3 2.034203 1_555
B0 Br2 2.034203 1_554
B1 N1 1.556363 1_565
B1 N3 1.556363 1_455
B1 Br7 2.034203 1_555
B1 Br5 2.034203 1_555
B2 N2 1.556363 1_554
B2 N0 1.556363 1_555
B2 Br4 2.034203 1_555
B2 Br1 2.034203 1_554
B3 N1 1.556363 1_655
B3 N3 1.556363 1_545
B3 Br0 2.034203 1_555
B3 Br6 2.034203 1_555
N0 P2 1.574903 1_555
N1 P1 1.574903 1_555
N2 P3 1.574903 1_555
N3 P0 1.574903 1_555
Cl0 P3 1.980458 1_555
Cl1 P3 2.002008 1_555
Cl2 P1 1.980458 1_655
Cl3 P2 2.002008 1_555
Cl4 P0 1.980458 1_455
Cl5 P2 1.980458 1_555
Cl6 P1 1.980458 1_565
Cl7 P0 1.980458 1_545
Cl8 P0 2.002008 1_445
Cl9 P3 1.980458 1_555
Cl10 P1 2.002008 1_665
Cl11 P2 1.980458 1_555
