# generated using pymatgen
data_Dy2InGe2
_symmetry_space_group_name_H-M   'P 1'
_cell_length_a   7.38523350
_cell_length_b   7.38523350
_cell_length_c   4.15174321
_cell_angle_alpha   90.00000000
_cell_angle_beta   90.00000000
_cell_angle_gamma   90.00000000
_symmetry_Int_Tables_number   1
_chemical_formula_structural   Dy2InGe2
_chemical_formula_sum   'Dy4 In2 Ge4'
_cell_volume   226.44302407
_cell_formula_units_Z   2
loop_
 _symmetry_equiv_pos_site_id
 _symmetry_equiv_pos_as_xyz
  1  'x, y, z'
loop_
 _atom_site_type_symbol
 _atom_site_label
 _atom_site_symmetry_multiplicity
 _atom_site_fract_x
 _atom_site_fract_y
 _atom_site_fract_z
 _atom_site_occupancy
  Dy  Dy0  1  0.17922341  0.32077659  0.50000000  1
  Dy  Dy1  1  0.82077659  0.67922341  0.50000000  1
  Dy  Dy2  1  0.32077659  0.82077659  0.50000000  1
  Dy  Dy3  1  0.67922341  0.17922341  0.50000000  1
  In  In0  1  0.00000000  -0.00000000  0.00000000  1
  In  In1  1  0.50000000  0.50000000  0.00000000  1
  Ge  Ge0  1  0.11976063  0.61976063  0.00000000  1
  Ge  Ge1  1  0.88023937  0.38023937  -0.00000000  1
  Ge  Ge2  1  0.38023937  0.11976063  -0.00000000  1
  Ge  Ge3  1  0.61976063  0.88023937  0.00000000  1
loop_
_geom_bond_atom_site_label_1
_geom_bond_atom_site_label_2
_geom_bond_distance
_geom_bond_site_symmetry_2
Dy0 Ge2 2.952460 1_555
Dy0 Ge2 2.952460 1_556
Dy0 Ge0 3.062295 1_555
Dy0 Ge0 3.062295 1_556
Dy0 Ge1 3.062295 1_456
Dy0 Ge1 3.062295 1_455
Dy0 In0 3.416634 1_556
Dy0 In1 3.416634 1_556
Dy0 In1 3.416634 1_555
Dy0 In0 3.416634 1_555
Dy1 Ge3 2.952460 1_555
Dy1 Ge3 2.952460 1_556
Dy1 Ge1 3.062295 1_555
Dy1 Ge1 3.062295 1_556
Dy1 Ge0 3.062295 1_656
Dy1 Ge0 3.062295 1_655
Dy1 In0 3.416634 1_665
Dy1 In1 3.416634 1_556
Dy1 In1 3.416634 1_555
Dy1 In0 3.416634 1_666
Dy2 Ge0 2.952460 1_555
Dy2 Ge0 2.952460 1_556
Dy2 Ge3 3.062295 1_555
Dy2 Ge2 3.062295 1_565
Dy2 Ge2 3.062295 1_566
Dy2 Ge3 3.062295 1_556
Dy2 In0 3.416634 1_566
Dy2 In1 3.416634 1_556
Dy2 In1 3.416634 1_555
Dy2 In0 3.416634 1_565
Dy3 Ge1 2.952460 1_555
Dy3 Ge1 2.952460 1_556
Dy3 Ge2 3.062295 1_555
Dy3 Ge2 3.062295 1_556
Dy3 Ge3 3.062295 1_546
Dy3 Ge3 3.062295 1_545
Dy3 In0 3.416634 1_655
Dy3 In1 3.416634 1_556
Dy3 In1 3.416634 1_555
Dy3 In0 3.416634 1_656
Ge0 Ge1 2.501631 1_455
Ge0 In1 2.944149 1_555
Ge0 In0 2.944149 1_565
Ge1 In1 2.944149 1_555
Ge1 In0 2.944149 1_655
Ge2 Ge3 2.501631 1_545
Ge2 In1 2.944149 1_555
Ge2 In0 2.944149 1_555
Ge3 In1 2.944149 1_555
Ge3 In0 2.944149 1_665
