# generated using pymatgen
data_Er10W2O21
_symmetry_space_group_name_H-M   'P 1'
_cell_length_a   10.52108800
_cell_length_b   10.60351200
_cell_length_c   15.90663900
_cell_angle_alpha   90.00000000
_cell_angle_beta   90.00000000
_cell_angle_gamma   90.00000000
_symmetry_Int_Tables_number   1
_chemical_formula_structural   Er10W2O21
_chemical_formula_sum   'Er40 W8 O84'
_cell_volume   1774.55232754
_cell_formula_units_Z   4
loop_
 _symmetry_equiv_pos_site_id
 _symmetry_equiv_pos_as_xyz
  1  'x, y, z'
loop_
 _atom_site_type_symbol
 _atom_site_label
 _atom_site_symmetry_multiplicity
 _atom_site_fract_x
 _atom_site_fract_y
 _atom_site_fract_z
 _atom_site_occupancy
  Er  Er0  1  0.74835900  0.62605100  0.27187700  1
  Er  Er1  1  0.48608100  0.85788300  0.24299600  1
  Er  Er2  1  0.48608100  0.64211700  0.75700400  1
  Er  Er3  1  0.47896600  0.39037600  0.91042600  1
  Er  Er4  1  0.24998700  0.34218800  0.09947400  1
  Er  Er5  1  0.25001300  0.84218800  0.40052600  1
  Er  Er6  1  0.75001300  0.65781200  0.90052600  1
  Er  Er7  1  0.47896600  0.10962400  0.08957400  1
  Er  Er8  1  0.48879400  0.36488900  0.58050900  1
  Er  Er9  1  0.52103400  0.60962400  0.08957400  1
  Er  Er10  1  0.01120600  0.86488900  0.91949100  1
  Er  Er11  1  0.52103400  0.89037600  0.91042600  1
  Er  Er12  1  0.25164100  0.12605100  0.27187700  1
  Er  Er13  1  0.25164100  0.37394900  0.72812300  1
  Er  Er14  1  0.01120600  0.63511100  0.08050900  1
  Er  Er15  1  0.51391900  0.35788300  0.24299600  1
  Er  Er16  1  0.97896600  0.10962400  0.41042600  1
  Er  Er17  1  0.75001300  0.84218800  0.09947400  1
  Er  Er18  1  0.24998700  0.15781200  0.90052600  1
  Er  Er19  1  0.51120600  0.86488900  0.58050900  1
  Er  Er20  1  0.98608100  0.85788300  0.25700400  1
  Er  Er21  1  0.74998700  0.15781200  0.59947400  1
  Er  Er22  1  0.02103400  0.89037600  0.58957400  1
  Er  Er23  1  0.51120600  0.63511100  0.41949100  1
  Er  Er24  1  0.75164100  0.37394900  0.77187700  1
  Er  Er25  1  0.97896600  0.39037600  0.58957400  1
  Er  Er26  1  0.74835900  0.87394900  0.72812300  1
  Er  Er27  1  0.98879400  0.13511100  0.08050900  1
  Er  Er28  1  0.02103400  0.60962400  0.41042600  1
  Er  Er29  1  0.74998700  0.34218800  0.40052600  1
  Er  Er30  1  0.25001300  0.65781200  0.59947400  1
  Er  Er31  1  0.51391900  0.14211700  0.75700400  1
  Er  Er32  1  0.98608100  0.64211700  0.74299600  1
  Er  Er33  1  0.01391900  0.35788300  0.25700400  1
  Er  Er34  1  0.98879400  0.36488900  0.91949100  1
  Er  Er35  1  0.24835900  0.87394900  0.77187700  1
  Er  Er36  1  0.75164100  0.12605100  0.22812300  1
  Er  Er37  1  0.48879400  0.13511100  0.41949100  1
  Er  Er38  1  0.24835900  0.62605100  0.22812300  1
  Er  Er39  1  0.01391900  0.14211700  0.74299600  1
  W  W0  1  0.24840400  0.12323100  0.58595900  1
  W  W1  1  0.75159600  0.87676900  0.41404100  1
  W  W2  1  0.74840400  0.37676900  0.08595900  1
  W  W3  1  0.24840400  0.37676900  0.41404100  1
  W  W4  1  0.25159600  0.62323100  0.91404100  1
  W  W5  1  0.74840400  0.12323100  0.91404100  1
  W  W6  1  0.75159600  0.62323100  0.58595900  1
  W  W7  1  0.25159600  0.87676900  0.08595900  1
  O  O0  1  0.61327300  0.25000000  0.50000000  1
  O  O1  1  0.18653300  0.01639600  0.67181500  1
  O  O2  1  0.89293700  0.48979100  0.32905500  1
  O  O3  1  0.12878600  0.78503200  0.15777900  1
  O  O4  1  0.39293700  0.48979100  0.17094500  1
  O  O5  1  0.12183300  0.72861200  0.32115100  1
  O  O6  1  0.62183300  0.77138800  0.82115100  1
  O  O7  1  0.37112700  0.74950900  0.13351800  1
  O  O8  1  0.87721400  0.55497400  0.51219300  1
  O  O9  1  0.10706300  0.51020900  0.67094500  1
  O  O10  1  0.87112700  0.74950900  0.36648200  1
  O  O11  1  0.12887300  0.25049100  0.63351800  1
  O  O12  1  0.37112700  0.75049100  0.86648200  1
  O  O13  1  0.31346700  0.51639600  0.82818500  1
  O  O14  1  0.87931200  0.47947900  0.04188400  1
  O  O15  1  0.62068800  0.97947900  0.45811600  1
  O  O16  1  0.12034000  0.28566800  0.82241600  1
  O  O17  1  0.87966000  0.78566800  0.82241600  1
  O  O18  1  0.38535000  0.99263000  0.34206300  1
  O  O19  1  0.38672700  0.75000000  0.50000000  1
  O  O20  1  0.60706300  0.98979100  0.17094500  1
  O  O21  1  0.37931200  0.47947900  0.45811600  1
  O  O22  1  0.18793700  0.75000000  0.00000000  1
  O  O23  1  0.68653300  0.01639600  0.82818500  1
  O  O24  1  0.12068800  0.97947900  0.04188400  1
  O  O25  1  0.87121400  0.21496800  0.84222100  1
  O  O26  1  0.37121400  0.21496800  0.65777900  1
  O  O27  1  0.18653300  0.48360400  0.32818500  1
  O  O28  1  0.12034000  0.21433200  0.17758400  1
  O  O29  1  0.37816700  0.27138800  0.82115100  1
  O  O30  1  0.12878600  0.71496800  0.84222100  1
  O  O31  1  0.10706300  0.98979100  0.32905500  1
  O  O32  1  0.37931200  0.02052100  0.54188400  1
  O  O33  1  0.62068800  0.52052100  0.54188400  1
  O  O34  1  0.39293700  0.01020900  0.82905500  1
  O  O35  1  0.37721400  0.55497400  0.98780700  1
  O  O36  1  0.87966000  0.71433200  0.17758400  1
  O  O37  1  0.61465000  0.00737000  0.65793700  1
  O  O38  1  0.68793700  0.75000000  0.50000000  1
  O  O39  1  0.31206300  0.25000000  0.50000000  1
  O  O40  1  0.87121400  0.28503200  0.15777900  1
  O  O41  1  0.11465000  0.00737000  0.84206300  1
  O  O42  1  0.38535000  0.50737000  0.65793700  1
  O  O43  1  0.81346700  0.51639600  0.67181500  1
  O  O44  1  0.87112700  0.75049100  0.63351800  1
  O  O45  1  0.89293700  0.01020900  0.67094500  1
  O  O46  1  0.62278600  0.44502600  0.01219300  1
  O  O47  1  0.88076100  0.25000000  0.50000000  1
  O  O48  1  0.12068800  0.52052100  0.95811600  1
  O  O49  1  0.81206300  0.25000000  0.00000000  1
  O  O50  1  0.37966000  0.78566800  0.67758400  1
  O  O51  1  0.62887300  0.25049100  0.86648200  1
  O  O52  1  0.61465000  0.49263000  0.34206300  1
  O  O53  1  0.87721400  0.94502600  0.48780700  1
  O  O54  1  0.12887300  0.24950900  0.36648200  1
  O  O55  1  0.11465000  0.49263000  0.15793700  1
  O  O56  1  0.12183300  0.77138800  0.67884900  1
  O  O57  1  0.68653300  0.48360400  0.17181500  1
  O  O58  1  0.62034000  0.28566800  0.67758400  1
  O  O59  1  0.81346700  0.98360400  0.32818500  1
  O  O60  1  0.88672700  0.75000000  0.00000000  1
  O  O61  1  0.37816700  0.22861200  0.17884900  1
  O  O62  1  0.37121400  0.28503200  0.34222100  1
  O  O63  1  0.88535000  0.50737000  0.84206300  1
  O  O64  1  0.87931200  0.02052100  0.95811600  1
  O  O65  1  0.12278600  0.05497400  0.51219300  1
  O  O66  1  0.37721400  0.94502600  0.01219300  1
  O  O67  1  0.88535000  0.99263000  0.15793700  1
  O  O68  1  0.62183300  0.72861200  0.17884900  1
  O  O69  1  0.87816700  0.22861200  0.32115100  1
  O  O70  1  0.62278600  0.05497400  0.98780700  1
  O  O71  1  0.60706300  0.51020900  0.82905500  1
  O  O72  1  0.11327300  0.25000000  0.00000000  1
  O  O73  1  0.61923900  0.75000000  0.00000000  1
  O  O74  1  0.62034000  0.21433200  0.32241600  1
  O  O75  1  0.37966000  0.71433200  0.32241600  1
  O  O76  1  0.87816700  0.27138800  0.67884900  1
  O  O77  1  0.12278600  0.44502600  0.48780700  1
  O  O78  1  0.11923900  0.75000000  0.50000000  1
  O  O79  1  0.31346700  0.98360400  0.17181500  1
  O  O80  1  0.38076100  0.25000000  0.00000000  1
  O  O81  1  0.62878600  0.78503200  0.34222100  1
  O  O82  1  0.62878600  0.71496800  0.65777900  1
  O  O83  1  0.62887300  0.24950900  0.13351800  1
loop_
_geom_bond_atom_site_label_1
_geom_bond_atom_site_label_2
_geom_bond_distance
_geom_bond_site_symmetry_2
Er0 O36 2.243716 1_555
Er0 O68 2.268136 1_555
Er0 O52 2.286231 1_555
Er0 O2 2.286603 1_555
Er0 O57 2.288645 1_555
Er0 O10 2.376267 1_555
Er0 O81 2.382531 1_555
Er1 O20 2.211341 1_555
Er1 O68 2.227096 1_555
Er1 O75 2.272997 1_555
Er1 O81 2.311299 1_555
Er1 O18 2.376518 1_555
Er1 O7 2.411607 1_555
Er1 O79 2.521364 1_555
Er2 O71 2.211341 1_555
Er2 O6 2.227096 1_555
Er2 O50 2.272997 1_555
Er2 O82 2.311299 1_555
Er2 O42 2.376518 1_555
Er2 O12 2.411607 1_555
Er2 O13 2.521364 1_555
Er3 O29 2.175578 1_555
Er3 O71 2.259694 1_555
Er3 O51 2.275129 1_555
Er3 O46 2.290376 1_556
Er3 O80 2.305046 1_556
Er3 O35 2.388982 1_555
Er3 O13 2.555149 1_555
Er4 O61 2.205263 1_555
Er4 O28 2.289603 1_555
Er4 O80 2.313495 1_555
Er4 O55 2.331734 1_555
Er4 O72 2.351200 1_555
Er4 O4 2.450309 1_555
Er5 O5 2.205263 1_555
Er5 O75 2.289603 1_555
Er5 O78 2.313495 1_555
Er5 O18 2.331734 1_555
Er5 O19 2.351200 1_555
Er5 O31 2.450309 1_555
Er6 O6 2.205263 1_555
Er6 O17 2.289603 1_555
Er6 O73 2.313495 1_556
Er6 O63 2.331734 1_555
Er6 O60 2.351200 1_556
Er6 O71 2.450309 1_555
Er7 O61 2.175578 1_555
Er7 O20 2.259694 1_545
Er7 O83 2.275129 1_555
Er7 O70 2.290376 1_554
Er7 O80 2.305046 1_555
Er7 O66 2.388982 1_545
Er7 O79 2.555149 1_545
Er8 O0 2.199836 1_555
Er8 O42 2.232463 1_555
Er8 O58 2.237291 1_555
Er8 O33 2.241967 1_555
Er8 O26 2.359694 1_555
Er8 O39 2.565436 1_555
Er8 O21 2.567768 1_555
Er9 O68 2.175578 1_555
Er9 O4 2.259694 1_555
Er9 O7 2.275129 1_555
Er9 O35 2.290376 1_554
Er9 O73 2.305046 1_555
Er9 O46 2.388982 1_555
Er9 O57 2.555149 1_555
Er10 O60 2.199836 1_456
Er10 O41 2.232463 1_565
Er10 O17 2.237291 1_455
Er10 O64 2.241967 1_465
Er10 O30 2.359694 1_555
Er10 O22 2.565436 1_556
Er10 O24 2.567768 1_556
Er11 O6 2.175578 1_555
Er11 O34 2.259694 1_565
Er11 O12 2.275129 1_555
Er11 O66 2.290376 1_556
Er11 O73 2.305046 1_556
Er11 O70 2.388982 1_565
Er11 O23 2.555149 1_565
Er12 O28 2.243716 1_555
Er12 O61 2.268136 1_555
Er12 O18 2.286231 1_545
Er12 O31 2.286603 1_545
Er12 O79 2.288645 1_545
Er12 O54 2.376267 1_555
Er12 O62 2.382531 1_555
Er13 O16 2.243716 1_555
Er13 O29 2.268136 1_555
Er13 O42 2.286231 1_555
Er13 O9 2.286603 1_555
Er13 O13 2.288645 1_555
Er13 O11 2.376267 1_555
Er13 O26 2.382531 1_555
Er14 O60 2.199836 1_455
Er14 O55 2.232463 1_555
Er14 O36 2.237291 1_455
Er14 O14 2.241967 1_455
Er14 O3 2.359694 1_555
Er14 O22 2.565436 1_555
Er14 O48 2.567768 1_554
Er15 O4 2.211341 1_555
Er15 O61 2.227096 1_555
Er15 O74 2.272997 1_555
Er15 O62 2.311299 1_555
Er15 O52 2.376518 1_555
Er15 O83 2.411607 1_555
Er15 O57 2.521364 1_555
Er16 O69 2.175578 1_555
Er16 O31 2.259694 1_645
Er16 O54 2.275129 1_655
Er16 O65 2.290376 1_655
Er16 O47 2.305046 1_555
Er16 O53 2.388982 1_545
Er16 O59 2.555149 1_545
Er17 O68 2.205263 1_555
Er17 O36 2.289603 1_555
Er17 O73 2.313495 1_555
Er17 O67 2.331734 1_555
Er17 O60 2.351200 1_555
Er17 O20 2.450309 1_555
Er18 O29 2.205263 1_555
Er18 O16 2.289603 1_555
Er18 O80 2.313495 1_556
Er18 O41 2.331734 1_555
Er18 O72 2.351200 1_556
Er18 O34 2.450309 1_555
Er19 O19 2.199836 1_555
Er19 O37 2.232463 1_565
Er19 O50 2.237291 1_555
Er19 O32 2.241967 1_565
Er19 O82 2.359694 1_555
Er19 O38 2.565436 1_555
Er19 O15 2.567768 1_555
Er20 O31 2.211341 1_655
Er20 O5 2.227096 1_655
Er20 O36 2.272997 1_555
Er20 O3 2.311299 1_655
Er20 O67 2.376518 1_555
Er20 O10 2.411607 1_555
Er20 O59 2.521364 1_555
Er21 O76 2.205263 1_555
Er21 O58 2.289603 1_555
Er21 O47 2.313495 1_555
Er21 O37 2.331734 1_555
Er21 O0 2.351200 1_555
Er21 O45 2.450309 1_555
Er22 O56 2.175578 1_555
Er22 O45 2.259694 1_465
Er22 O44 2.275129 1_455
Er22 O53 2.290376 1_455
Er22 O78 2.305046 1_555
Er22 O65 2.388982 1_565
Er22 O1 2.555149 1_565
Er23 O19 2.199836 1_555
Er23 O52 2.232463 1_555
Er23 O75 2.237291 1_555
Er23 O21 2.241967 1_555
Er23 O81 2.359694 1_555
Er23 O38 2.565436 1_555
Er23 O33 2.567768 1_555
Er24 O58 2.243716 1_555
Er24 O76 2.268136 1_555
Er24 O63 2.286231 1_555
Er24 O71 2.286603 1_555
Er24 O43 2.288645 1_555
Er24 O51 2.376267 1_555
Er24 O25 2.382531 1_555
Er25 O76 2.175578 1_555
Er25 O9 2.259694 1_655
Er25 O11 2.275129 1_655
Er25 O77 2.290376 1_655
Er25 O47 2.305046 1_555
Er25 O8 2.388982 1_555
Er25 O43 2.555149 1_555
Er26 O17 2.243716 1_555
Er26 O6 2.268136 1_555
Er26 O37 2.286231 1_565
Er26 O45 2.286603 1_565
Er26 O23 2.288645 1_565
Er26 O44 2.376267 1_555
Er26 O82 2.382531 1_555
Er27 O72 2.199836 1_655
Er27 O67 2.232463 1_545
Er27 O28 2.237291 1_655
Er27 O24 2.241967 1_645
Er27 O40 2.359694 1_555
Er27 O49 2.565436 1_555
Er27 O64 2.567768 1_554
Er28 O5 2.175578 1_555
Er28 O2 2.259694 1_455
Er28 O10 2.275129 1_455
Er28 O8 2.290376 1_455
Er28 O78 2.305046 1_555
Er28 O77 2.388982 1_555
Er28 O27 2.555149 1_555
Er29 O69 2.205263 1_555
Er29 O74 2.289603 1_555
Er29 O47 2.313495 1_555
Er29 O52 2.331734 1_555
Er29 O0 2.351200 1_555
Er29 O2 2.450309 1_555
Er30 O56 2.205263 1_555
Er30 O50 2.289603 1_555
Er30 O78 2.313495 1_555
Er30 O42 2.331734 1_555
Er30 O19 2.351200 1_555
Er30 O9 2.450309 1_555
Er31 O34 2.211341 1_555
Er31 O29 2.227096 1_555
Er31 O58 2.272997 1_555
Er31 O26 2.311299 1_555
Er31 O37 2.376518 1_555
Er31 O51 2.411607 1_555
Er31 O23 2.521364 1_555
Er32 O9 2.211341 1_655
Er32 O56 2.227096 1_655
Er32 O17 2.272997 1_555
Er32 O30 2.311299 1_655
Er32 O63 2.376518 1_555
Er32 O44 2.411607 1_555
Er32 O43 2.521364 1_555
Er33 O2 2.211341 1_455
Er33 O69 2.227096 1_455
Er33 O28 2.272997 1_555
Er33 O40 2.311299 1_455
Er33 O55 2.376518 1_555
Er33 O54 2.411607 1_555
Er33 O27 2.521364 1_555
Er34 O72 2.199836 1_656
Er34 O63 2.232463 1_555
Er34 O16 2.237291 1_655
Er34 O48 2.241967 1_655
Er34 O25 2.359694 1_555
Er34 O49 2.565436 1_556
Er34 O14 2.567768 1_556
Er35 O50 2.243716 1_555
Er35 O56 2.268136 1_555
Er35 O41 2.286231 1_565
Er35 O34 2.286603 1_565
Er35 O1 2.288645 1_565
Er35 O12 2.376267 1_555
Er35 O30 2.382531 1_555
Er36 O74 2.243716 1_555
Er36 O69 2.268136 1_555
Er36 O67 2.286231 1_545
Er36 O20 2.286603 1_545
Er36 O59 2.288645 1_545
Er36 O83 2.376267 1_555
Er36 O40 2.382531 1_555
Er37 O0 2.199836 1_555
Er37 O18 2.232463 1_545
Er37 O74 2.237291 1_555
Er37 O15 2.241967 1_545
Er37 O62 2.359694 1_555
Er37 O39 2.565436 1_555
Er37 O32 2.567768 1_555
Er38 O75 2.243716 1_555
Er38 O5 2.268136 1_555
Er38 O55 2.286231 1_555
Er38 O4 2.286603 1_555
Er38 O27 2.288645 1_555
Er38 O7 2.376267 1_555
Er38 O3 2.382531 1_555
Er39 O45 2.211341 1_455
Er39 O76 2.227096 1_455
Er39 O16 2.272997 1_555
Er39 O25 2.311299 1_455
Er39 O41 2.376518 1_555
Er39 O11 2.411607 1_555
Er39 O1 2.521364 1_555
O1 W0 1.890004 1_555
O3 W7 1.980109 1_555
O7 W7 1.993674 1_555
O8 W6 1.909805 1_555
O10 W1 1.993674 1_555
O11 W0 1.993674 1_555
O12 W4 1.993674 1_555
O13 W4 1.890004 1_555
O14 W2 1.890653 1_555
O15 W1 1.890653 1_555
O21 W3 1.890653 1_555
O22 W7 2.031011 1_555
O22 W4 2.031011 1_554
O23 W5 1.890004 1_555
O24 W7 1.890653 1_555
O25 W5 1.980109 1_555
O26 W0 1.980109 1_555
O27 W3 1.890004 1_555
O30 W4 1.980109 1_555
O32 W0 1.890653 1_555
O33 W6 1.890653 1_555
O35 W4 1.909805 1_555
O38 W1 2.031011 1_555
O38 W6 2.031011 1_555
O39 W3 2.031011 1_555
O39 W0 2.031011 1_555
O40 W2 1.980109 1_555
O43 W6 1.890004 1_555
O44 W6 1.993674 1_555
O46 W2 1.909805 1_555
O48 W4 1.890653 1_555
O49 W2 2.031011 1_555
O49 W5 2.031011 1_554
O51 W5 1.993674 1_555
O53 W1 1.909805 1_555
O54 W3 1.993674 1_555
O57 W2 1.890004 1_555
O59 W1 1.890004 1_555
O62 W3 1.980109 1_555
O64 W5 1.890653 1_555
O65 W0 1.909805 1_555
O66 W7 1.909805 1_555
O70 W5 1.909805 1_555
O77 W3 1.909805 1_555
O79 W7 1.890004 1_555
O81 W1 1.980109 1_555
O82 W6 1.980109 1_555
O83 W2 1.993674 1_555
