# generated using pymatgen
data_Ho5NiPb3
_symmetry_space_group_name_H-M   'P 1'
_cell_length_a   9.05546360
_cell_length_b   9.05546500
_cell_length_c   6.67561426
_cell_angle_alpha   90.00000000
_cell_angle_beta   90.00000000
_cell_angle_gamma   120.00000127
_symmetry_Int_Tables_number   1
_chemical_formula_structural   Ho5NiPb3
_chemical_formula_sum   'Ho10 Ni2 Pb6'
_cell_volume   474.07090846
_cell_formula_units_Z   2
loop_
 _symmetry_equiv_pos_site_id
 _symmetry_equiv_pos_as_xyz
  1  'x, y, z'
loop_
 _atom_site_type_symbol
 _atom_site_label
 _atom_site_symmetry_multiplicity
 _atom_site_fract_x
 _atom_site_fract_y
 _atom_site_fract_z
 _atom_site_occupancy
  Ho  Ho0  1  -0.00000000  0.76302617  0.75000000  1
  Ho  Ho1  1  0.33333300  0.66666700  0.50000000  1
  Ho  Ho2  1  0.76302517  0.76302517  0.25000000  1
  Ho  Ho3  1  0.76302517  0.00000000  0.75000000  1
  Ho  Ho4  1  0.23697483  -0.00000000  0.25000000  1
  Ho  Ho5  1  0.66666700  0.33333300  0.50000000  1
  Ho  Ho6  1  0.23697483  0.23697483  0.75000000  1
  Ho  Ho7  1  0.33333300  0.66666700  0.00000000  1
  Ho  Ho8  1  0.00000000  0.23697483  0.25000000  1
  Ho  Ho9  1  0.66666700  0.33333300  0.00000000  1
  Ni  Ni0  1  0.00000000  -0.00000000  0.99999900  1
  Ni  Ni1  1  0.00000000  -0.00000000  0.50000100  1
  Pb  Pb0  1  0.39969105  0.39969105  0.25000000  1
  Pb  Pb1  1  0.60030895  0.60030895  0.75000000  1
  Pb  Pb2  1  0.60030895  -0.00000000  0.25000000  1
  Pb  Pb3  1  0.39969105  0.00000000  0.75000000  1
  Pb  Pb4  1  0.00000000  0.60030895  0.25000000  1
  Pb  Pb5  1  -0.00000000  0.39969105  0.75000000  1
loop_
_geom_bond_atom_site_label_1
_geom_bond_atom_site_label_2
_geom_bond_distance
_geom_bond_site_symmetry_2
Ho0 Ni0 2.718481 1_565
Ho0 Ni1 2.718481 1_565
Ho0 Pb1 3.152462 1_455
Ho0 Pb3 3.152462 1_565
Ho0 Pb5 3.290168 1_555
Ho0 Pb4 3.648575 1_556
Ho0 Pb4 3.648575 1_555
Ho1 Pb4 3.231680 1_555
Ho1 Pb3 3.231681 1_565
Ho1 Pb5 3.231683 1_555
Ho1 Pb2 3.231683 1_565
Ho1 Pb1 3.231688 1_555
Ho1 Pb0 3.231688 1_555
Ho2 Ni0 2.718496 1_664
Ho2 Ni1 2.718496 1_665
Ho2 Pb4 3.152463 1_655
Ho2 Pb2 3.152463 1_565
Ho2 Pb0 3.290159 1_555
Ho2 Pb1 3.648571 1_555
Ho2 Pb1 3.648571 1_554
Ho3 Ni0 2.718488 1_655
Ho3 Ni1 2.718488 1_655
Ho3 Pb5 3.152463 1_655
Ho3 Pb1 3.152463 1_545
Ho3 Pb3 3.290159 1_555
Ho3 Pb2 3.648571 1_556
Ho3 Pb2 3.648571 1_555
Ho4 Ni1 2.718496 1_555
Ho4 Ni0 2.718496 1_554
Ho4 Pb4 3.152463 1_545
Ho4 Pb0 3.152463 1_555
Ho4 Pb2 3.290159 1_555
Ho4 Pb3 3.648571 1_555
Ho4 Pb3 3.648571 1_554
Ho5 Pb5 3.231680 1_655
Ho5 Pb2 3.231681 1_555
Ho5 Pb4 3.231683 1_655
Ho5 Pb3 3.231683 1_555
Ho5 Pb0 3.231688 1_555
Ho5 Pb1 3.231688 1_555
Ho6 Ni0 2.718488 1_555
Ho6 Ni1 2.718488 1_555
Ho6 Pb5 3.152463 1_555
Ho6 Pb3 3.152463 1_555
Ho6 Pb1 3.290159 1_555
Ho6 Pb0 3.648571 1_555
Ho6 Pb0 3.648571 1_556
Ho7 Pb4 3.231680 1_555
Ho7 Pb3 3.231681 1_564
Ho7 Pb5 3.231683 1_554
Ho7 Pb2 3.231683 1_565
Ho7 Pb1 3.231688 1_554
Ho7 Pb0 3.231688 1_555
Ho8 Ni0 2.718496 1_554
Ho8 Ni1 2.718496 1_555
Ho8 Pb0 3.152463 1_555
Ho8 Pb2 3.152463 1_455
Ho8 Pb4 3.290159 1_555
Ho8 Pb5 3.648571 1_554
Ho8 Pb5 3.648571 1_555
Ho9 Pb5 3.231680 1_654
Ho9 Pb2 3.231681 1_555
Ho9 Pb4 3.231683 1_655
Ho9 Pb3 3.231683 1_554
Ho9 Pb0 3.231688 1_555
Ho9 Pb1 3.231688 1_554
