# generated using pymatgen
data_SrFe2(SeO3)4
_symmetry_space_group_name_H-M   'P 1'
_cell_length_a   9.05858792
_cell_length_b   9.05849386
_cell_length_c   9.11263742
_cell_angle_alpha   110.08436050
_cell_angle_beta   112.32483369
_cell_angle_gamma   105.80866315
_symmetry_Int_Tables_number   1
_chemical_formula_structural   SrFe2(SeO3)4
_chemical_formula_sum   'Sr2 Fe4 Se8 O24'
_cell_volume   575.57595098
_cell_formula_units_Z   2
loop_
 _symmetry_equiv_pos_site_id
 _symmetry_equiv_pos_as_xyz
  1  'x, y, z'
loop_
 _atom_site_type_symbol
 _atom_site_label
 _atom_site_symmetry_multiplicity
 _atom_site_fract_x
 _atom_site_fract_y
 _atom_site_fract_z
 _atom_site_occupancy
  Sr  Sr0  1  0.75001200  0.25001200  0.50000600  1
  Sr  Sr1  1  0.25000800  0.75001200  0.50000700  1
  Fe  Fe0  1  0.74996800  0.74995200  0.49994600  1
  Fe  Fe1  1  0.25000700  0.25000500  0.49999800  1
  Fe  Fe2  1  0.50004400  0.00004600  0.00001300  1
  Fe  Fe3  1  0.99995300  0.49995100  0.00000500  1
  Se  Se0  1  0.84427900  0.93356700  0.27773200  1
  Se  Se1  1  0.34416200  0.43345000  0.27772300  1
  Se  Se2  1  0.65572700  0.56644700  0.72227500  1
  Se  Se3  1  0.15582700  0.06654800  0.72227100  1
  Se  Se4  1  0.70424000  0.40795100  0.11221500  1
  Se  Se5  1  0.20433900  0.90791000  0.11227400  1
  Se  Se6  1  0.29564500  0.59206300  0.88771400  1
  Se  Se7  1  0.79575000  0.09201200  0.88777600  1
  O  O0  1  0.82334400  0.59155500  0.91478100  1
  O  O1  1  0.32324100  0.09144700  0.91478400  1
  O  O2  1  0.67666200  0.90845800  0.08522500  1
  O  O3  1  0.17676700  0.40856500  0.08522500  1
  O  O4  1  0.68045500  0.57024300  0.25069000  1
  O  O5  1  0.17987400  0.07013200  0.25000000  1
  O  O6  1  0.32013100  0.42986600  0.74998100  1
  O  O7  1  0.81955600  0.92976400  0.74930200  1
  O  O8  1  0.80931500  0.24108500  0.80563500  1
  O  O9  1  0.30928200  0.74100900  0.80536600  1
  O  O10  1  0.06435100  0.49607500  0.80537000  1
  O  O11  1  0.56454400  0.99631400  0.80564800  1
  O  O12  1  0.43564400  0.00393000  0.19464900  1
  O  O13  1  0.93543800  0.50368200  0.19435900  1
  O  O14  1  0.69067900  0.25891300  0.19436500  1
  O  O15  1  0.19070900  0.75898400  0.19463800  1
  O  O16  1  0.51852100  0.33648400  0.58981700  1
  O  O17  1  0.01851500  0.83665200  0.58980200  1
  O  O18  1  0.75316300  0.57129200  0.58980500  1
  O  O19  1  0.25333900  0.07130700  0.58981500  1
  O  O20  1  0.74685300  0.92872400  0.41020900  1
  O  O21  1  0.24667500  0.42870100  0.41018500  1
  O  O22  1  0.98149200  0.16352500  0.41018500  1
  O  O23  1  0.48148800  0.66336800  0.41020600  1
loop_
_geom_bond_atom_site_label_1
_geom_bond_atom_site_label_2
_geom_bond_distance
_geom_bond_site_symmetry_2
Fe0 O4 2.005267 1_555
Fe0 O7 2.006022 1_555
Fe0 O23 2.051338 1_555
Fe0 O18 2.051398 1_555
Fe0 O20 2.051546 1_555
Fe0 O17 2.051628 1_655
Fe1 O6 2.008738 1_555
Fe1 O5 2.008847 1_555
Fe1 O21 2.051519 1_555
Fe1 O19 2.051560 1_555
Fe1 O16 2.051567 1_555
Fe1 O22 2.051585 1_455
Fe2 O2 2.018129 1_545
Fe2 O1 2.018150 1_554
Fe2 O14 2.057995 1_555
Fe2 O11 2.058017 1_544
Fe2 O12 2.059560 1_555
Fe2 O9 2.059580 1_544
Fe3 O3 2.018104 1_655
Fe3 O0 2.018202 1_554
Fe3 O13 2.058006 1_555
Fe3 O8 2.058020 1_554
Fe3 O15 2.059528 1_655
Fe3 O10 2.059554 1_654
O0 Se2 1.717203 1_555
O1 Se3 1.717269 1_555
O2 Se0 1.717205 1_555
O3 Se1 1.717160 1_555
O4 Se4 1.704416 1_555
O5 Se5 1.704622 1_545
O6 Se6 1.704630 1_555
O7 Se7 1.704278 1_565
O8 Se7 1.752879 1_555
O8 Sr0 2.663368 1_555
O9 Se6 1.753216 1_555
O9 Sr1 2.661314 1_555
O10 Se6 1.753235 1_555
O10 Sr0 2.661192 1_455
O11 Se7 1.752846 1_565
O11 Sr1 2.663278 1_555
O12 Se5 1.753276 1_545
O12 Sr0 2.661318 1_555
O13 Se4 1.752759 1_555
O13 Sr1 2.663484 1_655
O14 Se4 1.752652 1_555
O14 Sr0 2.663320 1_555
O15 Se5 1.753157 1_555
O15 Sr1 2.661236 1_555
O16 Se2 1.750368 1_555
O16 Sr0 2.727489 1_555
O17 Se3 1.750027 1_565
O17 Sr1 2.728034 1_555
O18 Se2 1.750118 1_555
O18 Sr0 2.727949 1_555
O19 Se3 1.750431 1_555
O19 Sr1 2.727432 1_545
O20 Se0 1.750104 1_555
O20 Sr0 2.727991 1_565
O21 Se1 1.750296 1_555
O21 Sr1 2.727555 1_555
O22 Se0 1.750341 1_545
O22 Sr0 2.727492 1_555
O23 Se1 1.750196 1_555
O23 Sr1 2.727962 1_555
