# generated using pymatgen
data_Te2S(O2F3)2
_symmetry_space_group_name_H-M   'P 1'
_cell_length_a   9.06034200
_cell_length_b   9.08299300
_cell_length_c   10.14771800
_cell_angle_alpha   90.00000000
_cell_angle_beta   90.00000000
_cell_angle_gamma   90.00000000
_symmetry_Int_Tables_number   1
_chemical_formula_structural   Te2S(O2F3)2
_chemical_formula_sum   'Te8 S4 O16 F24'
_cell_volume   835.10668584
_cell_formula_units_Z   4
loop_
 _symmetry_equiv_pos_site_id
 _symmetry_equiv_pos_as_xyz
  1  'x, y, z'
loop_
 _atom_site_type_symbol
 _atom_site_label
 _atom_site_symmetry_multiplicity
 _atom_site_fract_x
 _atom_site_fract_y
 _atom_site_fract_z
 _atom_site_occupancy
  Te  Te0  1  0.04336400  0.14181800  0.04510600  1
  Te  Te1  1  0.55408800  0.83460600  0.08368800  1
  Te  Te2  1  0.44591200  0.33460600  0.41631200  1
  Te  Te3  1  0.54336400  0.35818200  0.95489400  1
  Te  Te4  1  0.94591200  0.16539400  0.58368800  1
  Te  Te5  1  0.05408800  0.66539400  0.91631200  1
  Te  Te6  1  0.95663600  0.64181800  0.45489400  1
  Te  Te7  1  0.45663600  0.85818200  0.54510600  1
  S  S0  1  0.83150400  0.95141000  0.29247500  1
  S  S1  1  0.33150400  0.54859000  0.70752500  1
  S  S2  1  0.16849600  0.45141000  0.20752500  1
  S  S3  1  0.66849600  0.04859000  0.79247500  1
  O  O0  1  0.55042800  0.15959700  0.82614900  1
  O  O1  1  0.36252300  0.48845700  0.84190400  1
  O  O2  1  0.13747700  0.51154300  0.34190400  1
  O  O3  1  0.44957200  0.65959700  0.67385100  1
  O  O4  1  0.68399900  0.87856300  0.28695700  1
  O  O5  1  0.82912900  0.07019800  0.39194200  1
  O  O6  1  0.67087100  0.92980200  0.89194200  1
  O  O7  1  0.81600100  0.12143700  0.78695700  1
  O  O8  1  0.17087100  0.57019800  0.10805800  1
  O  O9  1  0.05042800  0.34040300  0.17385100  1
  O  O10  1  0.63747700  0.98845700  0.65809600  1
  O  O11  1  0.94957200  0.84040300  0.32614900  1
  O  O12  1  0.86252300  0.01154300  0.15809600  1
  O  O13  1  0.18399900  0.62143700  0.71304300  1
  O  O14  1  0.31600100  0.37856300  0.21304300  1
  O  O15  1  0.32912900  0.42980200  0.60805800  1
  F  F0  1  0.50059600  0.53346000  0.39252700  1
  F  F1  1  0.34076600  0.93902800  0.68035300  1
  F  F2  1  0.89202300  0.68789500  0.03494200  1
  F  F3  1  0.00059600  0.96654000  0.60747300  1
  F  F4  1  0.10797700  0.18789500  0.46505800  1
  F  F5  1  0.49940400  0.03346000  0.10747300  1
  F  F6  1  0.57444800  0.54606000  0.04828600  1
  F  F7  1  0.92555200  0.45394000  0.54828500  1
  F  F8  1  0.99940400  0.46654000  0.89252700  1
  F  F9  1  0.39202300  0.81210500  0.96505800  1
  F  F10  1  0.72434800  0.29212000  0.03250400  1
  F  F11  1  0.91817100  0.71977900  0.78260400  1
  F  F12  1  0.84076600  0.56097200  0.31964700  1
  F  F13  1  0.42555200  0.04606000  0.45171500  1
  F  F14  1  0.60797700  0.31210500  0.53494200  1
  F  F15  1  0.58182900  0.28022100  0.28260400  1
  F  F16  1  0.41817100  0.78022100  0.21739600  1
  F  F17  1  0.08182900  0.21977900  0.71739600  1
  F  F18  1  0.22434800  0.20788000  0.96749600  1
  F  F19  1  0.27565200  0.79212000  0.46749600  1
  F  F20  1  0.65923400  0.43902800  0.81964700  1
  F  F21  1  0.15923400  0.06097200  0.18035300  1
  F  F22  1  0.07444800  0.95394000  0.95171500  1
  F  F23  1  0.77565200  0.70788000  0.53250400  1
loop_
_geom_bond_atom_site_label_1
_geom_bond_atom_site_label_2
_geom_bond_distance
_geom_bond_site_symmetry_2
O0 S3 1.509213 1_555
O0 Te3 2.228106 1_555
O1 S1 1.495600 1_555
O1 Te3 2.323674 1_555
O2 S2 1.495600 1_555
O2 Te6 2.323674 1_455
O3 S1 1.509213 1_555
O3 Te7 2.228106 1_555
O4 S0 1.492323 1_555
O4 Te1 2.408242 1_555
O5 S0 1.477637 1_545
O5 Te4 2.377664 1_555
O6 S3 1.477637 1_565
O6 Te1 2.377664 1_556
O7 S3 1.492323 1_555
O7 Te4 2.408242 1_555
O8 S2 1.477637 1_555
O8 Te5 2.377664 1_554
O9 S2 1.509213 1_555
O9 Te0 2.228106 1_555
O10 S3 1.495600 1_565
O10 Te7 2.323674 1_555
O11 S0 1.509213 1_555
O11 Te6 2.228106 1_555
O12 S0 1.495600 1_545
O12 Te0 2.323674 1_655
O13 S1 1.492323 1_555
O13 Te5 2.408242 1_555
O14 S2 1.492323 1_555
O14 Te2 2.408242 1_555
O15 S1 1.477637 1_555
O15 Te2 2.377664 1_555
F0 Te2 1.888400 1_555
F1 Te7 1.877491 1_555
F2 Te5 1.909726 1_654
F3 Te4 1.888400 1_465
F4 Te4 1.909726 1_455
F5 Te1 1.888400 1_545
F6 Te3 1.972208 1_554
F7 Te6 1.972203 1_555
F8 Te5 1.888400 1_655
F9 Te1 1.909726 1_556
F10 Te3 1.915509 1_554
F11 Te5 1.897758 1_655
F12 Te6 1.877491 1_555
F13 Te7 1.972203 1_545
F14 Te2 1.909726 1_555
F15 Te2 1.897758 1_555
F16 Te1 1.897758 1_555
F17 Te4 1.897758 1_455
F18 Te0 1.915509 1_556
F19 Te7 1.915509 1_555
F20 Te3 1.877491 1_555
F21 Te0 1.877491 1_555
F22 Te0 1.972203 1_566
F23 Te6 1.915509 1_555
