# generated using pymatgen
data_Li2Ca4Si4O13
_symmetry_space_group_name_H-M   'P 1'
_cell_length_a   7.22738300
_cell_length_b   8.31284199
_cell_length_c   10.57610483
_cell_angle_alpha   109.27090480
_cell_angle_beta   89.89258767
_cell_angle_gamma   102.19582090
_symmetry_Int_Tables_number   1
_chemical_formula_structural   Li2Ca4Si4O13
_chemical_formula_sum   'Li4 Ca8 Si8 O26'
_cell_volume   584.68619557
_cell_formula_units_Z   2
loop_
 _symmetry_equiv_pos_site_id
 _symmetry_equiv_pos_as_xyz
  1  'x, y, z'
loop_
 _atom_site_type_symbol
 _atom_site_label
 _atom_site_symmetry_multiplicity
 _atom_site_fract_x
 _atom_site_fract_y
 _atom_site_fract_z
 _atom_site_occupancy
  Li  Li0  1  0.25196000  0.40885300  0.40862600  1
  Li  Li1  1  0.77125100  0.57632700  0.11220100  1
  Li  Li2  1  0.74804000  0.59114700  0.59137400  1
  Li  Li3  1  0.22874900  0.42367300  0.88779900  1
  Ca  Ca0  1  0.92459100  0.21140400  0.59865000  1
  Ca  Ca1  1  0.91710400  0.19574800  0.99724100  1
  Ca  Ca2  1  0.07540900  0.78859600  0.40135000  1
  Ca  Ca3  1  0.42909500  0.20658600  0.60708900  1
  Ca  Ca4  1  0.08289600  0.80425200  0.00275900  1
  Ca  Ca5  1  0.43011900  0.19751300  0.99440800  1
  Ca  Ca6  1  0.57090500  0.79341400  0.39291100  1
  Ca  Ca7  1  0.56988100  0.80248700  0.00559200  1
  Si  Si0  1  0.36201600  0.09345200  0.28046300  1
  Si  Si1  1  0.26717800  0.57400400  0.17804400  1
  Si  Si2  1  0.71637600  0.38344300  0.30343000  1
  Si  Si3  1  0.28362400  0.61655700  0.69657000  1
  Si  Si4  1  0.73282200  0.42599600  0.82195600  1
  Si  Si5  1  0.92496700  0.08394300  0.27799700  1
  Si  Si6  1  0.07503300  0.91605700  0.72200300  1
  Si  Si7  1  0.63798400  0.90654800  0.71953700  1
  O  O0  1  0.22732800  0.41217600  0.60081600  1
  O  O1  1  0.85847400  0.27223900  0.34639200  1
  O  O2  1  0.71581800  0.35258900  0.14304300  1
  O  O3  1  0.15812900  0.15853300  0.30190400  1
  O  O4  1  0.72853500  0.41078500  0.66097600  1
  O  O5  1  0.62046600  0.00944300  0.61577300  1
  O  O6  1  0.86627400  0.99121600  0.11907800  1
  O  O7  1  0.28418200  0.64741100  0.85695700  1
  O  O8  1  0.61839300  0.99732900  0.87788300  1
  O  O9  1  0.48869900  0.66660000  0.15953800  1
  O  O10  1  0.90193100  0.32194900  0.83547800  1
  O  O11  1  0.77267200  0.58782400  0.39918400  1
  O  O12  1  0.13372600  0.00878400  0.88092200  1
  O  O13  1  0.14152600  0.72776100  0.65360800  1
  O  O14  1  0.51130100  0.33340000  0.84046200  1
  O  O15  1  0.38160700  0.00267100  0.12211700  1
  O  O16  1  0.13531300  0.03330500  0.62620300  1
  O  O17  1  0.50328600  0.29469800  0.34281300  1
  O  O18  1  0.37953400  0.99055700  0.38422700  1
  O  O19  1  0.21388900  0.37677800  0.06498000  1
  O  O20  1  0.49671400  0.70530200  0.65718700  1
  O  O21  1  0.86468700  0.96669500  0.37379700  1
  O  O22  1  0.27146500  0.58921500  0.33902400  1
  O  O23  1  0.84187100  0.84146700  0.69809600  1
  O  O24  1  0.78611100  0.62322200  0.93502000  1
  O  O25  1  0.09806900  0.67805100  0.16452200  1
loop_
_geom_bond_atom_site_label_1
_geom_bond_atom_site_label_2
_geom_bond_distance
_geom_bond_site_symmetry_2
Li0 O22 1.857019 1_555
Li0 O3 1.979959 1_555
Li0 O0 2.031666 1_555
Li0 O17 2.229788 1_555
Li1 O2 1.952245 1_555
Li1 O24 2.034375 1_554
Li1 O9 2.319408 1_555
Li1 O25 2.335086 1_655
Li2 O4 1.857019 1_555
Li2 O23 1.979959 1_555
Li2 O11 2.031666 1_555
Li2 O20 2.229788 1_555
Li3 O7 1.952245 1_555
Li3 O19 2.034375 1_556
Li3 O14 2.319408 1_555
Li3 O10 2.335086 1_455
Ca0 O4 2.336019 1_555
Ca0 O10 2.384881 1_555
Ca0 O16 2.415646 1_655
Ca0 O0 2.450599 1_655
Ca0 O5 2.514514 1_555
Ca0 O21 2.533649 1_545
Ca0 O1 2.932449 1_555
Ca1 O10 2.296418 1_555
Ca1 O19 2.304157 1_656
Ca1 O2 2.379069 1_556
Ca1 O6 2.422110 1_546
Ca1 O8 2.471092 1_545
Ca1 O12 2.477678 1_655
Ca2 O22 2.336019 1_555
Ca2 O25 2.384881 1_555
Ca2 O21 2.415646 1_455
Ca2 O11 2.450599 1_455
Ca2 O18 2.514514 1_555
Ca2 O16 2.533649 1_565
Ca2 O13 2.932449 1_555
Ca3 O16 2.349988 1_555
Ca3 O14 2.362123 1_555
Ca3 O5 2.380056 1_555
Ca3 O4 2.388258 1_555
Ca3 O18 2.417898 1_545
Ca3 O0 2.485935 1_555
Ca4 O25 2.296418 1_555
Ca4 O24 2.304157 1_454
Ca4 O7 2.379069 1_554
Ca4 O12 2.422110 1_564
Ca4 O15 2.471092 1_565
Ca4 O6 2.477678 1_455
Ca5 O14 2.280681 1_555
Ca5 O19 2.337835 1_556
Ca5 O8 2.395062 1_545
Ca5 O15 2.402690 1_556
Ca5 O12 2.416092 1_555
Ca5 O2 2.438543 1_556
Ca6 O21 2.349988 1_555
Ca6 O9 2.362123 1_555
Ca6 O18 2.380056 1_555
Ca6 O22 2.388258 1_555
Ca6 O5 2.417898 1_565
Ca6 O11 2.485935 1_555
Ca7 O9 2.280681 1_555
Ca7 O24 2.337835 1_554
Ca7 O15 2.395062 1_565
Ca7 O8 2.402690 1_554
Ca7 O6 2.416092 1_555
Ca7 O7 2.438543 1_554
O0 Si3 1.628328 1_555
O1 Si5 1.665361 1_555
O1 Si2 1.672079 1_555
O2 Si2 1.629584 1_555
O3 Si5 1.656736 1_455
O3 Si0 1.664366 1_555
O4 Si4 1.664944 1_555
O5 Si7 1.617977 1_545
O6 Si5 1.615047 1_565
O7 Si3 1.629584 1_555
O8 Si7 1.613744 1_555
O9 Si1 1.664825 1_555
O10 Si4 1.670720 1_555
O11 Si2 1.628328 1_555
O12 Si6 1.615047 1_545
O13 Si6 1.665361 1_555
O13 Si3 1.672079 1_555
O14 Si4 1.664825 1_555
O15 Si0 1.613744 1_555
O16 Si6 1.623915 1_545
O17 Si2 1.676295 1_555
O17 Si0 1.681865 1_555
O18 Si0 1.617977 1_565
O19 Si1 1.645322 1_555
O20 Si3 1.676295 1_555
O20 Si7 1.681865 1_555
O21 Si5 1.623915 1_565
O22 Si1 1.664944 1_555
O23 Si6 1.656736 1_655
O23 Si7 1.664366 1_555
O24 Si4 1.645322 1_555
O25 Si1 1.670720 1_555
