# generated using pymatgen
data_Na2V3P2O13
_symmetry_space_group_name_H-M   'P 1'
_cell_length_a   8.39521900
_cell_length_b   10.53482000
_cell_length_c   12.22326500
_cell_angle_alpha   90.00000000
_cell_angle_beta   90.00000000
_cell_angle_gamma   90.00000000
_symmetry_Int_Tables_number   1
_chemical_formula_structural   Na2V3P2O13
_chemical_formula_sum   'Na8 V12 P8 O52'
_cell_volume   1081.05148246
_cell_formula_units_Z   4
loop_
 _symmetry_equiv_pos_site_id
 _symmetry_equiv_pos_as_xyz
  1  'x, y, z'
loop_
 _atom_site_type_symbol
 _atom_site_label
 _atom_site_symmetry_multiplicity
 _atom_site_fract_x
 _atom_site_fract_y
 _atom_site_fract_z
 _atom_site_occupancy
  Na  Na0  1  0.89656300  0.71921200  0.53652200  1
  Na  Na1  1  0.10343700  0.21921200  0.03652200  1
  Na  Na2  1  0.60343700  0.28078800  0.03652200  1
  Na  Na3  1  0.89656300  0.78078800  0.96347800  1
  Na  Na4  1  0.60343700  0.21921200  0.46347800  1
  Na  Na5  1  0.39656300  0.78078800  0.53652200  1
  Na  Na6  1  0.10343700  0.28078800  0.46347800  1
  Na  Na7  1  0.39656300  0.71921200  0.96347800  1
  V  V0  1  0.93232200  0.75000000  0.25000000  1
  V  V1  1  0.25524000  0.48027200  0.13410500  1
  V  V2  1  0.25524000  0.01972800  0.36589500  1
  V  V3  1  0.43232200  0.75000000  0.25000000  1
  V  V4  1  0.24476000  0.98027200  0.86589500  1
  V  V5  1  0.74476000  0.98027200  0.63410500  1
  V  V6  1  0.56767800  0.25000000  0.75000000  1
  V  V7  1  0.74476000  0.51972800  0.86589500  1
  V  V8  1  0.06767800  0.25000000  0.75000000  1
  V  V9  1  0.75524000  0.01972800  0.13410500  1
  V  V10  1  0.75524000  0.48027200  0.36589500  1
  V  V11  1  0.24476000  0.51972800  0.63410500  1
  P  P0  1  0.86874500  0.49114600  0.12047300  1
  P  P1  1  0.86874500  0.00885400  0.37952700  1
  P  P2  1  0.36874500  0.00885400  0.12047300  1
  P  P3  1  0.63125500  0.99114600  0.87952700  1
  P  P4  1  0.63125500  0.50885400  0.62047300  1
  P  P5  1  0.13125500  0.50885400  0.87952700  1
  P  P6  1  0.13125500  0.99114600  0.62047300  1
  P  P7  1  0.36874500  0.49114600  0.37952700  1
  O  O0  1  0.24979000  0.94371600  0.70892100  1
  O  O1  1  0.74979000  0.94371600  0.79107900  1
  O  O2  1  0.25021000  0.05628400  0.20892100  1
  O  O3  1  0.80080400  0.05735800  0.48989800  1
  O  O4  1  0.85076900  0.14534200  0.08898400  1
  O  O5  1  0.69919600  0.55735800  0.51010200  1
  O  O6  1  0.61135200  0.39650800  0.84641100  1
  O  O7  1  0.85076900  0.35465800  0.41101600  1
  O  O8  1  0.87073200  0.25000000  0.75000000  1
  O  O9  1  0.25021000  0.44371600  0.29107900  1
  O  O10  1  0.46635800  0.57431400  0.63871700  1
  O  O11  1  0.19919600  0.94264200  0.51010200  1
  O  O12  1  0.03364200  0.42568600  0.13871700  1
  O  O13  1  0.88652100  0.63698400  0.11996600  1
  O  O14  1  0.30080400  0.05735800  0.01010200  1
  O  O15  1  0.24979000  0.55628400  0.79107900  1
  O  O16  1  0.75021000  0.44371600  0.20892100  1
  O  O17  1  0.74979000  0.55628400  0.70892100  1
  O  O18  1  0.38864800  0.89650800  0.34641100  1
  O  O19  1  0.96635800  0.57431400  0.86128300  1
  O  O20  1  0.53364200  0.07431400  0.13871700  1
  O  O21  1  0.69919600  0.94264200  0.98989800  1
  O  O22  1  0.62926800  0.75000000  0.25000000  1
  O  O23  1  0.35076900  0.14534200  0.41101600  1
  O  O24  1  0.80080400  0.44264200  0.01010200  1
  O  O25  1  0.88864800  0.89650800  0.15358900  1
  O  O26  1  0.88652100  0.86301600  0.38003400  1
  O  O27  1  0.30080400  0.44264200  0.48989800  1
  O  O28  1  0.46635800  0.92568600  0.86128300  1
  O  O29  1  0.14923100  0.85465800  0.91101600  1
  O  O30  1  0.11135200  0.39650800  0.65358900  1
  O  O31  1  0.12926800  0.75000000  0.25000000  1
  O  O32  1  0.64923100  0.85465800  0.58898400  1
  O  O33  1  0.11347900  0.13698400  0.61996600  1
  O  O34  1  0.37073200  0.25000000  0.75000000  1
  O  O35  1  0.53364200  0.42568600  0.36128300  1
  O  O36  1  0.38652100  0.63698400  0.38003400  1
  O  O37  1  0.61347900  0.36301600  0.61996600  1
  O  O38  1  0.14923100  0.64534200  0.58898400  1
  O  O39  1  0.11135200  0.10349200  0.84641100  1
  O  O40  1  0.64923100  0.64534200  0.91101600  1
  O  O41  1  0.35076900  0.35465800  0.08898400  1
  O  O42  1  0.61135200  0.10349200  0.65358900  1
  O  O43  1  0.38864800  0.60349200  0.15358900  1
  O  O44  1  0.11347900  0.36301600  0.88003400  1
  O  O45  1  0.61347900  0.13698400  0.88003400  1
  O  O46  1  0.88864800  0.60349200  0.34641100  1
  O  O47  1  0.03364200  0.07431400  0.36128300  1
  O  O48  1  0.75021000  0.05628400  0.29107900  1
  O  O49  1  0.96635800  0.92568600  0.63871700  1
  O  O50  1  0.38652100  0.86301600  0.11996600  1
  O  O51  1  0.19919600  0.55735800  0.98989800  1
loop_
_geom_bond_atom_site_label_1
_geom_bond_atom_site_label_2
_geom_bond_distance
_geom_bond_site_symmetry_2
Na0 O38 2.348685 1_655
Na0 O5 2.399398 1_555
Na0 O26 2.441508 1_555
Na0 O49 2.575863 1_555
Na0 O32 2.599753 1_555
Na0 O46 2.624983 1_555
Na0 O17 2.984126 1_555
Na1 O4 2.348685 1_455
Na1 O14 2.399398 1_555
Na1 O44 2.441508 1_554
Na1 O12 2.575863 1_555
Na1 O41 2.599753 1_555
Na1 O39 2.624983 1_554
Na1 O2 2.984126 1_555
Na2 O41 2.348685 1_555
Na2 O24 2.399398 1_555
Na2 O45 2.441508 1_554
Na2 O20 2.575863 1_555
Na2 O4 2.599753 1_555
Na2 O6 2.624983 1_554
Na2 O16 2.984126 1_555
Na3 O29 2.348685 1_655
Na3 O21 2.399398 1_555
Na3 O13 2.441508 1_556
Na3 O19 2.575863 1_555
Na3 O40 2.599753 1_555
Na3 O25 2.624983 1_556
Na3 O1 2.984126 1_555
Na4 O23 2.348685 1_555
Na4 O3 2.399398 1_555
Na4 O37 2.441508 1_555
Na4 O35 2.575863 1_555
Na4 O7 2.599753 1_555
Na4 O42 2.624983 1_555
Na4 O48 2.984126 1_555
Na5 O32 2.348685 1_555
Na5 O11 2.399398 1_555
Na5 O36 2.441508 1_555
Na5 O10 2.575863 1_555
Na5 O38 2.599753 1_555
Na5 O18 2.624983 1_555
Na5 O0 2.984126 1_555
Na6 O7 2.348685 1_455
Na6 O27 2.399398 1_555
Na6 O33 2.441508 1_555
Na6 O47 2.575863 1_555
Na6 O23 2.599753 1_555
Na6 O30 2.624983 1_555
Na6 O9 2.984126 1_555
Na7 O40 2.348685 1_555
Na7 O51 2.399398 1_555
Na7 O50 2.441508 1_556
Na7 O28 2.575863 1_555
Na7 O29 2.599753 1_555
Na7 O43 2.624983 1_556
Na7 O15 2.984126 1_555
O0 P6 1.552022 1_555
O0 V4 1.957457 1_555
O1 P3 1.552022 1_555
O1 V5 1.957457 1_555
O2 P2 1.552022 1_555
O2 V2 1.957457 1_555
O3 P1 1.551286 1_555
O3 V5 1.996973 1_545
O4 V9 1.642724 1_555
O5 P4 1.551286 1_555
O5 V10 1.996973 1_555
O6 V7 1.730942 1_555
O6 V6 1.976206 1_555
O7 V10 1.642724 1_555
O8 V8 1.653405 1_655
O8 V6 2.544205 1_555
O9 P7 1.552022 1_555
O9 V1 1.957457 1_555
O10 P4 1.562596 1_555
O10 V11 1.948029 1_555
O11 P6 1.551286 1_555
O11 V2 1.996973 1_565
O12 P0 1.562596 1_455
O12 V1 1.948029 1_555
O13 P0 1.543620 1_555
O13 V0 2.022796 1_555
O14 P2 1.551286 1_555
O14 V4 1.996973 1_544
O15 P5 1.552022 1_555
O15 V11 1.957457 1_555
O16 P0 1.552022 1_555
O16 V10 1.957457 1_555
O17 P4 1.552022 1_555
O17 V7 1.957457 1_555
O18 V2 1.730942 1_565
O18 V3 1.976206 1_555
O19 P5 1.562596 1_655
O19 V7 1.948029 1_555
O20 P2 1.562596 1_555
O20 V9 1.948029 1_555
O21 P3 1.551286 1_555
O21 V9 1.996973 1_566
O22 V3 1.653405 1_555
O22 V0 2.544205 1_555
O23 V2 1.642724 1_555
O24 P0 1.551286 1_555
O24 V7 1.996973 1_554
O25 V9 1.730942 1_565
O25 V0 1.976206 1_555
O26 P1 1.543620 1_565
O26 V0 2.022796 1_555
O27 P7 1.551286 1_555
O27 V11 1.996973 1_555
O28 P3 1.562596 1_555
O28 V4 1.948029 1_555
O29 V4 1.642724 1_555
O30 V11 1.730942 1_555
O30 V8 1.976206 1_555
O31 V0 1.653405 1_455
O31 V3 2.544205 1_555
O32 V5 1.642724 1_555
O33 P6 1.543620 1_545
O33 V8 2.022796 1_555
O34 V6 1.653405 1_555
O34 V8 2.544205 1_555
O35 P7 1.562596 1_555
O35 V10 1.948029 1_555
O36 P7 1.543620 1_555
O36 V3 2.022796 1_555
O37 P4 1.543620 1_555
O37 V6 2.022796 1_555
O38 V11 1.642724 1_555
O39 V4 1.730942 1_545
O39 V8 1.976206 1_555
O40 V7 1.642724 1_555
O41 V1 1.642724 1_555
O42 V5 1.730942 1_545
O42 V6 1.976206 1_555
O43 V1 1.730942 1_555
O43 V3 1.976206 1_555
O44 P5 1.543620 1_555
O44 V8 2.022796 1_555
O45 P3 1.543620 1_545
O45 V6 2.022796 1_555
O46 V10 1.730942 1_555
O46 V0 1.976206 1_555
O47 P1 1.562596 1_455
O47 V2 1.948029 1_555
O48 P1 1.552022 1_555
O48 V9 1.957457 1_555
O49 P6 1.562596 1_655
O49 V5 1.948029 1_555
O50 P2 1.543620 1_565
O50 V3 2.022796 1_555
O51 P5 1.551286 1_555
O51 V1 1.996973 1_556
