# generated using pymatgen
data_Cd3N2
_symmetry_space_group_name_H-M   'P 1'
_cell_length_a   9.53210952
_cell_length_b   9.53210952
_cell_length_c   9.53210952
_cell_angle_alpha   109.47122063
_cell_angle_beta   109.47122063
_cell_angle_gamma   109.47122063
_symmetry_Int_Tables_number   1
_chemical_formula_structural   Cd3N2
_chemical_formula_sum   'Cd24 N16'
_cell_volume   666.72260593
_cell_formula_units_Z   8
loop_
 _symmetry_equiv_pos_site_id
 _symmetry_equiv_pos_as_xyz
  1  'x, y, z'
loop_
 _atom_site_type_symbol
 _atom_site_label
 _atom_site_symmetry_multiplicity
 _atom_site_fract_x
 _atom_site_fract_y
 _atom_site_fract_z
 _atom_site_occupancy
  Cd  Cd0  1  0.22260400  0.44765900  0.47968400  1
  Cd  Cd1  1  0.02031600  0.46797500  0.74292000  1
  Cd  Cd2  1  0.03202500  0.05234100  0.27494500  1
  Cd  Cd3  1  0.44765900  0.47968400  0.22260400  1
  Cd  Cd4  1  0.22505500  0.27739600  0.75708000  1
  Cd  Cd5  1  0.46797500  0.74292000  0.02031600  1
  Cd  Cd6  1  0.77739600  0.55234100  0.52031600  1
  Cd  Cd7  1  0.53202500  0.25708000  0.97968400  1
  Cd  Cd8  1  0.74292000  0.02031600  0.46797500  1
  Cd  Cd9  1  0.52031600  0.77739600  0.55234100  1
  Cd  Cd10  1  0.94765900  0.72505500  0.96797500  1
  Cd  Cd11  1  0.55234100  0.52031600  0.77739600  1
  Cd  Cd12  1  0.24292000  0.77494500  0.72260400  1
  Cd  Cd13  1  0.72505500  0.96797500  0.94765900  1
  Cd  Cd14  1  0.47968400  0.22260400  0.44765900  1
  Cd  Cd15  1  0.72260400  0.24292000  0.77494500  1
  Cd  Cd16  1  0.25708000  0.97968400  0.53202500  1
  Cd  Cd17  1  0.97968400  0.53202500  0.25708000  1
  Cd  Cd18  1  0.75708000  0.22505500  0.27739600  1
  Cd  Cd19  1  0.27494500  0.03202500  0.05234100  1
  Cd  Cd20  1  0.27739600  0.75708000  0.22505500  1
  Cd  Cd21  1  0.96797500  0.94765900  0.72505500  1
  Cd  Cd22  1  0.77494500  0.72260400  0.24292000  1
  Cd  Cd23  1  0.05234100  0.27494500  0.03202500  1
  N  N0  1  0.52900300  0.27900300  0.25000000  1
  N  N1  1  0.22099700  0.75000000  0.97099700  1
  N  N2  1  0.47099700  0.72099700  0.75000000  1
  N  N3  1  0.75000000  0.97099700  0.22099700  1
  N  N4  1  0.75000000  0.47099700  0.72099700  1
  N  N5  1  0.72099700  0.75000000  0.47099700  1
  N  N6  1  0.00000000  0.50000000  0.50000000  1
  N  N7  1  0.27900300  0.25000000  0.52900300  1
  N  N8  1  0.97099700  0.22099700  0.75000000  1
  N  N9  1  0.25000000  0.02900300  0.77900300  1
  N  N10  1  0.02900300  0.77900300  0.25000000  1
  N  N11  1  0.25000000  0.52900300  0.27900300  1
  N  N12  1  0.77900300  0.25000000  0.02900300  1
  N  N13  1  0.50000000  0.00000000  0.50000000  1
  N  N14  1  0.00000000  0.00000000  0.00000000  1
  N  N15  1  0.50000000  0.50000000  0.00000000  1
loop_
_geom_bond_atom_site_label_1
_geom_bond_atom_site_label_2
_geom_bond_distance
_geom_bond_site_symmetry_2
Cd0 N7 2.270937 1_555
Cd0 N11 2.348512 1_555
Cd0 N6 2.388330 1_555
Cd0 N2 2.525532 1_555
Cd1 N8 2.270937 1_455
Cd1 N1 2.348512 1_555
Cd1 N6 2.388330 1_555
Cd1 N4 2.525532 1_455
Cd2 N7 2.270937 1_555
Cd2 N3 2.348512 1_445
Cd2 N14 2.388330 1_555
Cd2 N10 2.525532 1_545
Cd3 N11 2.270937 1_555
Cd3 N0 2.348512 1_555
Cd3 N15 2.388330 1_555
Cd3 N5 2.525532 1_555
Cd4 N8 2.270937 1_455
Cd4 N7 2.348512 1_555
Cd4 N15 2.388330 1_556
Cd4 N9 2.525532 1_555
Cd5 N1 2.270937 1_554
Cd5 N3 2.348512 1_555
Cd5 N15 2.388330 1_555
Cd5 N2 2.525532 1_554
Cd6 N5 2.270937 1_555
Cd6 N4 2.348512 1_555
Cd6 N6 2.388330 1_655
Cd6 N0 2.525532 1_555
Cd7 N12 2.270937 1_556
Cd7 N9 2.348512 1_555
Cd7 N15 2.388330 1_556
Cd7 N0 2.525532 1_556
Cd8 N3 2.270937 1_545
Cd8 N8 2.348512 1_555
Cd8 N13 2.388330 1_555
Cd8 N5 2.525532 1_545
Cd9 N2 2.270937 1_555
Cd9 N5 2.348512 1_555
Cd9 N13 2.388330 1_565
Cd9 N11 2.525532 1_555
Cd10 N4 2.270937 1_555
Cd10 N10 2.348512 1_656
Cd10 N14 2.388330 1_666
Cd10 N1 2.525532 1_655
Cd11 N4 2.270937 1_555
Cd11 N2 2.348512 1_555
Cd11 N15 2.388330 1_556
Cd11 N7 2.525532 1_555
Cd12 N9 2.270937 1_565
Cd12 N2 2.348512 1_555
Cd12 N6 2.388330 1_555
Cd12 N1 2.525532 1_555
Cd13 N2 2.270937 1_555
Cd13 N12 2.348512 1_566
Cd13 N14 2.388330 1_666
Cd13 N3 2.525532 1_556
Cd14 N0 2.270937 1_555
Cd14 N7 2.348512 1_555
Cd14 N13 2.388330 1_555
Cd14 N4 2.525532 1_555
Cd15 N12 2.270937 1_556
Cd15 N4 2.348512 1_555
Cd15 N13 2.388330 1_555
Cd15 N8 2.525532 1_555
Cd16 N9 2.270937 1_565
Cd16 N10 2.348512 1_555
Cd16 N13 2.388330 1_565
Cd16 N7 2.525532 1_565
Cd17 N10 2.270937 1_655
Cd17 N12 2.348512 1_555
Cd17 N6 2.388330 1_655
Cd17 N11 2.525532 1_655
Cd18 N3 2.270937 1_545
Cd18 N0 2.348512 1_555
Cd18 N6 2.388330 1_655
Cd18 N12 2.525532 1_555
Cd19 N0 2.270937 1_555
Cd19 N1 2.348512 1_544
Cd19 N14 2.388330 1_555
Cd19 N9 2.525532 1_554
Cd20 N1 2.270937 1_554
Cd20 N11 2.348512 1_555
Cd20 N13 2.388330 1_565
Cd20 N10 2.525532 1_555
Cd21 N5 2.270937 1_555
Cd21 N9 2.348512 1_665
Cd21 N14 2.388330 1_666
Cd21 N8 2.525532 1_565
Cd22 N10 2.270937 1_655
Cd22 N5 2.348512 1_555
Cd22 N15 2.388330 1_555
Cd22 N3 2.525532 1_555
Cd23 N11 2.270937 1_555
Cd23 N8 2.348512 1_454
Cd23 N14 2.388330 1_555
Cd23 N12 2.525532 1_455
