# generated using pymatgen
data_PNF2
_symmetry_space_group_name_H-M   'P 1'
_cell_length_a   15.56126100
_cell_length_b   5.09691700
_cell_length_c   16.26488312
_cell_angle_alpha   81.71386484
_cell_angle_beta   90.00000000
_cell_angle_gamma   90.00000000
_symmetry_Int_Tables_number   1
_chemical_formula_structural   PNF2
_chemical_formula_sum   'P20 N20 F40'
_cell_volume   1276.57322400
_cell_formula_units_Z   20
loop_
 _symmetry_equiv_pos_site_id
 _symmetry_equiv_pos_as_xyz
  1  'x, y, z'
loop_
 _atom_site_type_symbol
 _atom_site_label
 _atom_site_symmetry_multiplicity
 _atom_site_fract_x
 _atom_site_fract_y
 _atom_site_fract_z
 _atom_site_occupancy
  P  P0  1  0.33716800  0.18498800  0.00872100  1
  P  P1  1  0.66283200  0.81501200  0.99127900  1
  P  P2  1  0.65336100  0.99157800  0.47224000  1
  P  P3  1  0.83716800  0.81501200  0.49127900  1
  P  P4  1  0.60855600  0.66689400  0.63002000  1
  P  P5  1  0.84663900  0.99157800  0.97224000  1
  P  P6  1  0.39144400  0.33310600  0.36998000  1
  P  P7  1  0.59082900  0.69240300  0.15788800  1
  P  P8  1  0.25709900  0.58919000  0.77826100  1
  P  P9  1  0.15336100  0.00842200  0.02776000  1
  P  P10  1  0.74290100  0.41081000  0.22173900  1
  P  P11  1  0.16283200  0.18498800  0.50872100  1
  P  P12  1  0.40917100  0.30759700  0.84211200  1
  P  P13  1  0.89144400  0.66689400  0.13002000  1
  P  P14  1  0.10855600  0.33310600  0.86998000  1
  P  P15  1  0.24290100  0.58919000  0.27826100  1
  P  P16  1  0.90917100  0.69240300  0.65788800  1
  P  P17  1  0.75709900  0.41081000  0.72173900  1
  P  P18  1  0.09082900  0.30759700  0.34211200  1
  P  P19  1  0.34663900  0.00842200  0.52776000  1
  N  N0  1  0.69564600  0.51819100  0.64881900  1
  N  N1  1  0.12989200  0.13941100  0.42120000  1
  N  N2  1  0.24939700  0.07101300  0.04126500  1
  N  N3  1  0.14608500  0.51033200  0.28276600  1
  N  N4  1  0.74939700  0.92898700  0.45873500  1
  N  N5  1  0.62989200  0.86058900  0.07880000  1
  N  N6  1  0.80435400  0.51819100  0.14881900  1
  N  N7  1  0.40005000  0.12989200  0.45050000  1
  N  N8  1  0.90005000  0.87010800  0.04950000  1
  N  N9  1  0.30435400  0.48180900  0.35118100  1
  N  N10  1  0.75060300  0.92898700  0.95873500  1
  N  N11  1  0.19564600  0.48180900  0.85118100  1
  N  N12  1  0.87010800  0.86058900  0.57880000  1
  N  N13  1  0.59995000  0.87010800  0.54950000  1
  N  N14  1  0.35391500  0.51033200  0.78276600  1
  N  N15  1  0.37010800  0.13941100  0.92120000  1
  N  N16  1  0.64608500  0.48966800  0.21723400  1
  N  N17  1  0.09995000  0.12989200  0.95050000  1
  N  N18  1  0.85391500  0.48966800  0.71723400  1
  N  N19  1  0.25060300  0.07101300  0.54126500  1
  F  F0  1  0.65708800  0.51360000  0.98129200  1
  F  F1  1  0.03388300  0.53797300  0.86929400  1
  F  F2  1  0.14244600  0.70033300  0.03674000  1
  F  F3  1  0.85755400  0.29966700  0.96326000  1
  F  F4  1  0.00814100  0.45856000  0.36371100  1
  F  F5  1  0.54965700  0.89133800  0.21037300  1
  F  F6  1  0.09455300  0.07237900  0.57498000  1
  F  F7  1  0.50814100  0.54144000  0.13628900  1
  F  F8  1  0.35755400  0.70033300  0.53674000  1
  F  F9  1  0.34291200  0.48640000  0.01870800  1
  F  F10  1  0.40544700  0.07237900  0.07498000  1
  F  F11  1  0.60358400  0.94136100  0.39282000  1
  F  F12  1  0.04965700  0.10866200  0.28962700  1
  F  F13  1  0.95034300  0.89133800  0.71037300  1
  F  F14  1  0.42003300  0.19470700  0.29468300  1
  F  F15  1  0.90544700  0.92762100  0.42502000  1
  F  F16  1  0.49185900  0.45856000  0.86371100  1
  F  F17  1  0.72017700  0.46295400  0.80737400  1
  F  F18  1  0.57996700  0.80529300  0.70531700  1
  F  F19  1  0.22017700  0.53704600  0.69262600  1
  F  F20  1  0.96611700  0.46202700  0.13070600  1
  F  F21  1  0.45034300  0.10866200  0.78962700  1
  F  F22  1  0.77982300  0.46295400  0.30737400  1
  F  F23  1  0.64244600  0.29966700  0.46326000  1
  F  F24  1  0.39641600  0.05863900  0.60718000  1
  F  F25  1  0.89641600  0.94136100  0.89282000  1
  F  F26  1  0.53388300  0.46202700  0.63070600  1
  F  F27  1  0.07996700  0.19470700  0.79468300  1
  F  F28  1  0.46611700  0.53797300  0.36929400  1
  F  F29  1  0.24683100  0.89951000  0.26438900  1
  F  F30  1  0.75316900  0.10049000  0.73561100  1
  F  F31  1  0.59455300  0.92762100  0.92502000  1
  F  F32  1  0.99185900  0.54144000  0.63628900  1
  F  F33  1  0.27982300  0.53704600  0.19262600  1
  F  F34  1  0.25316900  0.89951000  0.76438900  1
  F  F35  1  0.15708800  0.48640000  0.51870800  1
  F  F36  1  0.92003300  0.80529300  0.20531700  1
  F  F37  1  0.84291200  0.51360000  0.48129200  1
  F  F38  1  0.74683100  0.10049000  0.23561100  1
  F  F39  1  0.10358400  0.05863900  0.10718000  1
loop_
_geom_bond_atom_site_label_1
_geom_bond_atom_site_label_2
_geom_bond_distance
_geom_bond_site_symmetry_2
N0 P17 1.560004 1_555
N0 P4 1.561344 1_555
N1 P11 1.561548 1_555
N1 P18 1.562443 1_555
N2 P0 1.547420 1_555
N2 P9 1.550347 1_555
N3 P15 1.558272 1_555
N3 P18 1.565673 1_555
N4 P3 1.547420 1_555
N4 P2 1.550347 1_555
N5 P1 1.561548 1_554
N5 P7 1.562443 1_555
N6 P10 1.560004 1_555
N6 P13 1.561344 1_555
N7 P6 1.554007 1_555
N7 P19 1.558515 1_555
N8 P13 1.554007 1_555
N8 P5 1.558515 1_554
N9 P15 1.560004 1_555
N9 P6 1.561344 1_555
N10 P1 1.547420 1_555
N10 P5 1.550347 1_555
N11 P8 1.560004 1_555
N11 P14 1.561344 1_555
N12 P3 1.561548 1_555
N12 P16 1.562443 1_555
N13 P4 1.554007 1_555
N13 P2 1.558515 1_555
N14 P8 1.558272 1_555
N14 P12 1.565673 1_555
N15 P0 1.561548 1_556
N15 P12 1.562443 1_555
N16 P10 1.558272 1_555
N16 P7 1.565673 1_555
N17 P14 1.554007 1_555
N17 P9 1.558515 1_556
N18 P17 1.558272 1_555
N18 P16 1.565673 1_555
N19 P11 1.547420 1_555
N19 P19 1.550347 1_555
F0 P1 1.570489 1_555
F1 P14 1.561204 1_555
F2 P9 1.565225 1_565
F3 P5 1.565225 1_545
F4 P18 1.564943 1_555
F5 P7 1.554611 1_555
F6 P11 1.562527 1_555
F7 P7 1.564943 1_555
F8 P19 1.565225 1_565
F9 P0 1.570489 1_555
F10 P0 1.562527 1_555
F11 P2 1.558666 1_555
F12 P18 1.554611 1_555
F13 P16 1.554611 1_555
F14 P6 1.563461 1_555
F15 P3 1.562527 1_555
F16 P12 1.564943 1_555
F17 P17 1.564435 1_555
F18 P4 1.563461 1_555
F19 P8 1.564435 1_555
F20 P13 1.561204 1_555
F21 P12 1.554611 1_555
F22 P10 1.564435 1_555
F23 P2 1.565225 1_545
F24 P19 1.558666 1_555
F25 P5 1.558666 1_555
F26 P4 1.561204 1_555
F27 P14 1.563461 1_555
F28 P6 1.561204 1_555
F29 P15 1.566360 1_555
F30 P17 1.566360 1_555
F31 P1 1.562527 1_555
F32 P16 1.564943 1_555
F33 P15 1.564435 1_555
F34 P8 1.566360 1_555
F35 P11 1.570489 1_555
F36 P13 1.563461 1_555
F37 P3 1.570489 1_555
F38 P10 1.566360 1_555
F39 P9 1.558666 1_555
