# generated using pymatgen
data_KPO3
_symmetry_space_group_name_H-M   'P 1'
_cell_length_a   12.18313300
_cell_length_b   7.49784000
_cell_length_c   12.14350184
_cell_angle_alpha   65.05057428
_cell_angle_beta   90.00000000
_cell_angle_gamma   90.00000000
_symmetry_Int_Tables_number   1
_chemical_formula_structural   KPO3
_chemical_formula_sum   'K12 P12 O36'
_cell_volume   1005.75768490
_cell_formula_units_Z   12
loop_
 _symmetry_equiv_pos_site_id
 _symmetry_equiv_pos_as_xyz
  1  'x, y, z'
loop_
 _atom_site_type_symbol
 _atom_site_label
 _atom_site_symmetry_multiplicity
 _atom_site_fract_x
 _atom_site_fract_y
 _atom_site_fract_z
 _atom_site_occupancy
  K  K0  1  0.75626800  0.69845700  0.39890400  1
  K  K1  1  0.58134500  0.23143100  0.62139300  1
  K  K2  1  0.35878000  0.92248800  0.91944900  1
  K  K3  1  0.91865500  0.23143100  0.12139300  1
  K  K4  1  0.64122000  0.07751200  0.08055100  1
  K  K5  1  0.14122000  0.92248800  0.41944900  1
  K  K6  1  0.08134500  0.76856900  0.87860700  1
  K  K7  1  0.24373200  0.30154300  0.60109600  1
  K  K8  1  0.25626800  0.30154300  0.10109600  1
  K  K9  1  0.41865500  0.76856900  0.37860700  1
  K  K10  1  0.74373200  0.69845700  0.89890400  1
  K  K11  1  0.85878000  0.07751200  0.58055100  1
  P  P0  1  0.55466700  0.60748600  0.16463700  1
  P  P1  1  0.42998600  0.28183200  0.34564200  1
  P  P2  1  0.44533300  0.39251400  0.83536300  1
  P  P3  1  0.32875000  0.74790700  0.67583600  1
  P  P4  1  0.94533300  0.60748600  0.66463700  1
  P  P5  1  0.05466700  0.39251400  0.33536300  1
  P  P6  1  0.92998600  0.71816800  0.15435800  1
  P  P7  1  0.57001400  0.71816800  0.65435800  1
  P  P8  1  0.82875000  0.25209300  0.82416400  1
  P  P9  1  0.07001400  0.28183200  0.84564200  1
  P  P10  1  0.17125000  0.74790700  0.17583600  1
  P  P11  1  0.67125000  0.25209300  0.32416400  1
  O  O0  1  0.57206400  0.71857400  0.24116400  1
  O  O1  1  0.76246100  0.10827000  0.79594300  1
  O  O2  1  0.34206800  0.15184600  0.33376800  1
  O  O3  1  0.79018000  0.31784500  0.91846000  1
  O  O4  1  0.45183700  0.27926000  0.97037500  1
  O  O5  1  0.65793200  0.84815400  0.66623200  1
  O  O6  1  0.95183700  0.72074000  0.52962500  1
  O  O7  1  0.73753900  0.10827000  0.29594300  1
  O  O8  1  0.29018000  0.68215500  0.58154000  1
  O  O9  1  0.23753900  0.89173000  0.20405700  1
  O  O10  1  0.15079900  0.55927300  0.30681200  1
  O  O11  1  0.54816300  0.72074000  0.02962500  1
  O  O12  1  0.07745500  0.35755200  0.94157000  1
  O  O13  1  0.34920100  0.55927300  0.80681200  1
  O  O14  1  0.65079900  0.44072700  0.19318800  1
  O  O15  1  0.42793600  0.28142600  0.75883600  1
  O  O16  1  0.70982000  0.31784500  0.41846000  1
  O  O17  1  0.92793600  0.71857400  0.74116400  1
  O  O18  1  0.55406400  0.53345600  0.78872300  1
  O  O19  1  0.95362700  0.16362600  0.85690500  1
  O  O20  1  0.57745500  0.64244800  0.55843000  1
  O  O21  1  0.05406400  0.46654400  0.71127700  1
  O  O22  1  0.54637300  0.16362600  0.35690500  1
  O  O23  1  0.84920100  0.44072700  0.69318800  1
  O  O24  1  0.04637300  0.83637400  0.14309500  1
  O  O25  1  0.92254500  0.64244800  0.05843000  1
  O  O26  1  0.94593600  0.53345600  0.28872300  1
  O  O27  1  0.44593600  0.46654400  0.21127700  1
  O  O28  1  0.04816300  0.27926000  0.47037500  1
  O  O29  1  0.84206800  0.84815400  0.16623200  1
  O  O30  1  0.07206400  0.28142600  0.25883600  1
  O  O31  1  0.26246100  0.89173000  0.70405700  1
  O  O32  1  0.15793200  0.15184600  0.83376800  1
  O  O33  1  0.42254500  0.35755200  0.44157000  1
  O  O34  1  0.45362700  0.83637400  0.64309500  1
  O  O35  1  0.20982000  0.68215500  0.08154000  1
loop_
_geom_bond_atom_site_label_1
_geom_bond_atom_site_label_2
_geom_bond_distance
_geom_bond_site_symmetry_2
K0 O29 2.767712 1_555
K0 O7 2.795672 1_565
K0 O16 2.819374 1_555
K0 O20 2.826424 1_555
K0 O6 2.906634 1_555
K0 O0 2.912826 1_555
K0 O26 3.171241 1_555
K1 O15 2.635753 1_555
K1 O16 2.756008 1_555
K1 O33 2.768321 1_555
K1 O20 2.845370 1_555
K1 O5 2.847007 1_545
K1 O1 2.926303 1_555
K1 O34 3.256675 1_545
K2 O15 2.707128 1_565
K2 O35 2.724466 1_556
K2 O11 2.773872 1_556
K2 O32 2.918562 1_565
K2 O31 2.963196 1_555
K2 O4 3.196736 1_565
K3 O30 2.635753 1_655
K3 O3 2.756008 1_554
K3 O12 2.768321 1_654
K3 O25 2.845370 1_555
K3 O29 2.847007 1_545
K3 O7 2.926303 1_555
K3 O24 3.256675 1_645
K4 O0 2.707128 1_545
K4 O3 2.724466 1_554
K4 O4 2.773872 1_554
K4 O29 2.918562 1_545
K4 O7 2.963196 1_555
K4 O11 3.196736 1_545
K5 O30 2.707128 1_565
K5 O8 2.724466 1_555
K5 O6 2.773872 1_455
K5 O2 2.918562 1_565
K5 O9 2.963196 1_555
K5 O28 3.196736 1_565
K6 O17 2.635753 1_455
K6 O35 2.756008 1_556
K6 O25 2.768321 1_456
K6 O12 2.845370 1_555
K6 O32 2.847007 1_565
K6 O31 2.926303 1_555
K6 O19 3.256675 1_465
K7 O32 2.767712 1_555
K7 O31 2.795672 1_545
K7 O8 2.819374 1_555
K7 O33 2.826424 1_555
K7 O28 2.906634 1_555
K7 O15 2.912826 1_555
K7 O21 3.171241 1_555
K8 O2 2.767712 1_555
K8 O9 2.795672 1_545
K8 O35 2.819374 1_555
K8 O12 2.826424 1_554
K8 O4 2.906634 1_554
K8 O30 2.912826 1_555
K8 O27 3.171241 1_555
K9 O0 2.635753 1_555
K9 O8 2.756008 1_555
K9 O20 2.768321 1_555
K9 O33 2.845370 1_555
K9 O2 2.847007 1_565
K9 O9 2.926303 1_555
K9 O22 3.256675 1_565
K10 O5 2.767712 1_555
K10 O1 2.795672 1_565
K10 O3 2.819374 1_555
K10 O25 2.826424 1_556
K10 O11 2.906634 1_556
K10 O17 2.912826 1_555
K10 O18 3.171241 1_555
K11 O17 2.707128 1_545
K11 O16 2.724466 1_555
K11 O28 2.773872 1_655
K11 O5 2.918562 1_545
K11 O1 2.963196 1_555
K11 O6 3.196736 1_545
O0 P0 1.501764 1_555
O1 P8 1.498102 1_555
O2 P1 1.495497 1_555
O3 P8 1.500442 1_555
O4 P2 1.496947 1_555
O5 P7 1.495497 1_555
O6 P4 1.496947 1_555
O7 P11 1.498102 1_555
O8 P3 1.500442 1_555
O9 P10 1.498102 1_555
O10 P5 1.639971 1_555
O10 P10 1.641459 1_555
O11 P0 1.496947 1_555
O12 P9 1.498494 1_555
O13 P2 1.639971 1_555
O13 P3 1.641459 1_555
O14 P0 1.639971 1_555
O14 P11 1.641459 1_555
O15 P2 1.501764 1_555
O16 P11 1.500442 1_555
O17 P4 1.501764 1_555
O18 P2 1.639322 1_555
O18 P7 1.646733 1_555
O19 P8 1.640185 1_555
O19 P9 1.646984 1_655
O20 P7 1.498494 1_555
O21 P4 1.639322 1_455
O21 P9 1.646733 1_555
O22 P11 1.640185 1_555
O22 P1 1.646984 1_555
O23 P4 1.639971 1_555
O23 P8 1.641459 1_555
O24 P10 1.640185 1_555
O24 P6 1.646984 1_455
O25 P6 1.498494 1_555
O26 P5 1.639322 1_655
O26 P6 1.646733 1_555
O27 P0 1.639322 1_555
O27 P1 1.646733 1_555
O28 P5 1.496947 1_555
O29 P6 1.495497 1_555
O30 P5 1.501764 1_555
O31 P3 1.498102 1_555
O32 P9 1.495497 1_555
O33 P1 1.498494 1_555
O34 P3 1.640185 1_555
O34 P7 1.646984 1_555
O35 P10 1.500442 1_555
