# generated using pymatgen
data_KCa12Si4S2O26F
_symmetry_space_group_name_H-M   'P 1'
_cell_length_a   14.49748214
_cell_length_b   14.49748214
_cell_length_c   14.49748292
_cell_angle_alpha   28.94913603
_cell_angle_beta   28.94913603
_cell_angle_gamma   28.94913419
_symmetry_Int_Tables_number   1
_chemical_formula_structural   KCa12Si4S2O26F
_chemical_formula_sum   'K1 Ca12 Si4 S2 O26 F1'
_cell_volume   631.37748243
_cell_formula_units_Z   1
loop_
 _symmetry_equiv_pos_site_id
 _symmetry_equiv_pos_as_xyz
  1  'x, y, z'
loop_
 _atom_site_type_symbol
 _atom_site_label
 _atom_site_symmetry_multiplicity
 _atom_site_fract_x
 _atom_site_fract_y
 _atom_site_fract_z
 _atom_site_occupancy
  K  K0  1  0.00000000  0.00000000  0.00000000  1
  Ca  Ca0  1  0.08312300  0.55578000  0.55578000  1
  Ca  Ca1  1  0.22489500  0.68844400  0.68844400  1
  Ca  Ca2  1  0.55578000  0.55578000  0.08312300  1
  Ca  Ca3  1  0.68844400  0.22489500  0.68844400  1
  Ca  Ca4  1  0.31155600  0.77510500  0.31155600  1
  Ca  Ca5  1  0.44422000  0.91687700  0.44422000  1
  Ca  Ca6  1  0.55578000  0.08312300  0.55578000  1
  Ca  Ca7  1  0.44422000  0.44422000  0.91687700  1
  Ca  Ca8  1  0.77510500  0.31155600  0.31155600  1
  Ca  Ca9  1  0.68844400  0.68844400  0.22489500  1
  Ca  Ca10  1  0.31155600  0.31155600  0.77510500  1
  Ca  Ca11  1  0.91687700  0.44422000  0.44422000  1
  Si  Si0  1  0.79529000  0.79529000  0.79529000  1
  Si  Si1  1  0.08292900  0.08292900  0.08292900  1
  Si  Si2  1  0.91707100  0.91707100  0.91707100  1
  Si  Si3  1  0.20471000  0.20471000  0.20471000  1
  S  S0  1  0.67643000  0.67643000  0.67643000  1
  S  S1  1  0.32357000  0.32357000  0.32357000  1
  O  O0  1  0.87684700  0.87684700  0.87684700  1
  O  O1  1  0.80031600  0.80031600  0.46549800  1
  O  O2  1  0.31840100  0.31840100  0.94125100  1
  O  O3  1  0.56837800  0.56837800  0.56837800  1
  O  O4  1  0.19968400  0.53450200  0.19968400  1
  O  O5  1  0.19968400  0.19968400  0.53450200  1
  O  O6  1  0.19935000  0.82000200  0.19935000  1
  O  O7  1  0.31840100  0.94125100  0.31840100  1
  O  O8  1  0.53450200  0.19968400  0.19968400  1
  O  O9  1  0.05874900  0.68159900  0.68159900  1
  O  O10  1  0.82000200  0.19935000  0.19935000  1
  O  O11  1  0.80031600  0.46549800  0.80031600  1
  O  O12  1  0.17999800  0.80065000  0.80065000  1
  O  O13  1  0.19935000  0.19935000  0.82000200  1
  O  O14  1  0.43162200  0.43162200  0.43162200  1
  O  O15  1  0.94125100  0.31840100  0.31840100  1
  O  O16  1  0.35973600  0.35973600  0.35973600  1
  O  O17  1  0.75501300  0.75501300  0.75501300  1
  O  O18  1  0.46549800  0.80031600  0.80031600  1
  O  O19  1  0.80065000  0.80065000  0.17999800  1
  O  O20  1  0.80065000  0.17999800  0.80065000  1
  O  O21  1  0.12315300  0.12315300  0.12315300  1
  O  O22  1  0.64026400  0.64026400  0.64026400  1
  O  O23  1  0.68159900  0.68159900  0.05874900  1
  O  O24  1  0.24498700  0.24498700  0.24498700  1
  O  O25  1  0.68159900  0.05874900  0.68159900  1
  F  F0  1  0.50000000  0.50000000  0.50000000  1
loop_
_geom_bond_atom_site_label_1
_geom_bond_atom_site_label_2
_geom_bond_distance
_geom_bond_site_symmetry_2
K0 O18 2.930732 1_544
K0 O11 2.930732 1_454
K0 O4 2.930732 1_545
K0 O8 2.930732 1_455
K0 O1 2.930733 1_445
K0 O5 2.930733 1_554
Ca0 O13 2.372893 1_555
Ca0 O6 2.372893 1_555
Ca0 O17 2.412976 1_455
Ca0 O14 2.417658 1_555
Ca0 O16 2.545675 1_555
Ca0 O11 2.631389 1_455
Ca0 O1 2.631389 1_455
Ca1 O0 2.279852 1_455
Ca1 O2 2.368049 1_555
Ca1 O7 2.368050 1_555
Ca1 F0 2.399592 1_555
Ca1 O3 2.412470 1_555
Ca1 O12 2.577015 1_555
Ca1 O9 2.583680 1_555
Ca2 O6 2.372893 1_555
Ca2 O10 2.372893 1_555
Ca2 O17 2.412976 1_554
Ca2 O14 2.417658 1_555
Ca2 O16 2.545675 1_555
Ca2 O11 2.631390 1_554
Ca2 O18 2.631390 1_554
Ca3 O0 2.279852 1_545
Ca3 O2 2.368049 1_555
Ca3 O15 2.368050 1_555
Ca3 F0 2.399592 1_555
Ca3 O3 2.412470 1_555
Ca3 O20 2.577015 1_555
Ca3 O25 2.583680 1_555
Ca4 O21 2.279852 1_565
Ca4 O23 2.368049 1_555
Ca4 O9 2.368050 1_555
Ca4 F0 2.399592 1_555
Ca4 O14 2.412470 1_555
Ca4 O6 2.577015 1_555
Ca4 O7 2.583680 1_555
Ca5 O19 2.372893 1_555
Ca5 O12 2.372893 1_555
Ca5 O24 2.412976 1_565
Ca5 O3 2.417658 1_555
Ca5 O22 2.545675 1_555
Ca5 O8 2.631389 1_565
Ca5 O5 2.631389 1_565
Ca6 O13 2.372893 1_555
Ca6 O10 2.372893 1_555
Ca6 O17 2.412976 1_545
Ca6 O14 2.417658 1_555
Ca6 O16 2.545675 1_555
Ca6 O18 2.631389 1_545
Ca6 O1 2.631389 1_545
Ca7 O20 2.372893 1_555
Ca7 O12 2.372893 1_555
Ca7 O24 2.412976 1_556
Ca7 O3 2.417658 1_555
Ca7 O22 2.545675 1_555
Ca7 O4 2.631390 1_556
Ca7 O8 2.631390 1_556
Ca8 O21 2.279852 1_655
Ca8 O23 2.368049 1_555
Ca8 O25 2.368050 1_555
Ca8 F0 2.399592 1_555
Ca8 O14 2.412470 1_555
Ca8 O10 2.577015 1_555
Ca8 O15 2.583680 1_555
Ca9 O0 2.279852 1_554
Ca9 O15 2.368049 1_555
Ca9 O7 2.368049 1_555
Ca9 F0 2.399592 1_555
Ca9 O3 2.412471 1_555
Ca9 O19 2.577014 1_555
Ca9 O23 2.583680 1_555
Ca10 O21 2.279852 1_556
Ca10 O25 2.368049 1_555
Ca10 O9 2.368049 1_555
Ca10 F0 2.399592 1_555
Ca10 O14 2.412471 1_555
Ca10 O13 2.577014 1_555
Ca10 O2 2.583680 1_555
Ca11 O19 2.372893 1_555
Ca11 O20 2.372893 1_555
Ca11 O24 2.412976 1_655
Ca11 O3 2.417658 1_555
Ca11 O22 2.545675 1_555
Ca11 O4 2.631389 1_655
Ca11 O5 2.631389 1_655
O0 Si2 1.674992 1_555
O1 S0 1.491363 1_555
O2 Si3 1.655631 1_556
O4 S1 1.491363 1_555
O5 S1 1.491363 1_555
O6 Si1 1.641293 1_565
O7 Si3 1.655630 1_565
O8 S1 1.491363 1_555
O9 Si0 1.655630 1_455
O10 Si1 1.641293 1_655
O11 S0 1.491363 1_555
O12 Si2 1.641293 1_455
O13 Si1 1.641293 1_556
O15 Si3 1.655630 1_655
O16 S1 1.506010 1_555
O17 Si0 1.677199 1_555
O18 S0 1.491363 1_555
O19 Si2 1.641293 1_554
O20 Si2 1.641293 1_545
O21 Si1 1.674992 1_555
O22 S0 1.506010 1_555
O23 Si0 1.655631 1_554
O24 Si3 1.677199 1_555
O25 Si0 1.655630 1_545
