# generated using pymatgen
data_AgAsO3
_symmetry_space_group_name_H-M   'P 1'
_cell_length_a   6.75551900
_cell_length_b   12.79082800
_cell_length_c   20.00608600
_cell_angle_alpha   90.00000000
_cell_angle_beta   90.00000000
_cell_angle_gamma   90.00000000
_symmetry_Int_Tables_number   1
_chemical_formula_structural   AgAsO3
_chemical_formula_sum   'Ag24 As24 O72'
_cell_volume   1728.69951483
_cell_formula_units_Z   24
loop_
 _symmetry_equiv_pos_site_id
 _symmetry_equiv_pos_as_xyz
  1  'x, y, z'
loop_
 _atom_site_type_symbol
 _atom_site_label
 _atom_site_symmetry_multiplicity
 _atom_site_fract_x
 _atom_site_fract_y
 _atom_site_fract_z
 _atom_site_occupancy
  Ag  Ag0  1  0.54612800  0.63293300  0.61193600  1
  Ag  Ag1  1  0.00493000  0.54929000  0.05322100  1
  Ag  Ag2  1  0.10335700  0.62918200  0.86594800  1
  Ag  Ag3  1  0.50143400  0.87516300  0.93932400  1
  Ag  Ag4  1  0.59726600  0.21046400  0.69821500  1
  Ag  Ag5  1  0.50143400  0.37516300  0.56067600  1
  Ag  Ag6  1  0.54612800  0.13293300  0.88806400  1
  Ag  Ag7  1  0.40273400  0.71046400  0.30178500  1
  Ag  Ag8  1  0.93597800  0.39252700  0.18987900  1
  Ag  Ag9  1  0.99507000  0.04929000  0.94677900  1
  Ag  Ag10  1  0.89664300  0.62918200  0.36594800  1
  Ag  Ag11  1  0.45387200  0.63293300  0.11193600  1
  Ag  Ag12  1  0.59726600  0.71046400  0.80178500  1
  Ag  Ag13  1  0.40273400  0.21046400  0.19821500  1
  Ag  Ag14  1  0.89664300  0.12918200  0.13405200  1
  Ag  Ag15  1  0.93597800  0.89252700  0.31012100  1
  Ag  Ag16  1  0.00493000  0.04929000  0.44677900  1
  Ag  Ag17  1  0.06402200  0.89252700  0.81012100  1
  Ag  Ag18  1  0.06402200  0.39252700  0.68987900  1
  Ag  Ag19  1  0.49856600  0.87516300  0.43932400  1
  Ag  Ag20  1  0.10335700  0.12918200  0.63405200  1
  Ag  Ag21  1  0.49856600  0.37516300  0.06067600  1
  Ag  Ag22  1  0.99507000  0.54929000  0.55322100  1
  Ag  Ag23  1  0.45387200  0.13293300  0.38806400  1
  As  As0  1  0.20719200  0.38240400  0.37534500  1
  As  As1  1  0.20719200  0.88240400  0.12465500  1
  As  As2  1  0.45663600  0.45945400  0.24502600  1
  As  As3  1  0.70724100  0.88090700  0.12396100  1
  As  As4  1  0.03429700  0.80172000  0.49419800  1
  As  As5  1  0.45663600  0.95945400  0.25497400  1
  As  As6  1  0.79280800  0.88240400  0.62465500  1
  As  As7  1  0.96570300  0.30172000  0.50580200  1
  As  As8  1  0.79280800  0.38240400  0.87534500  1
  As  As9  1  0.29275900  0.88090700  0.62396100  1
  As  As10  1  0.96570300  0.80172000  0.99419800  1
  As  As11  1  0.04853600  0.69459200  0.69587300  1
  As  As12  1  0.54051100  0.56895200  0.94620800  1
  As  As13  1  0.04853600  0.19459200  0.80412700  1
  As  As14  1  0.29275900  0.38090700  0.87603900  1
  As  As15  1  0.70724100  0.38090700  0.37603900  1
  As  As16  1  0.45948900  0.56895200  0.44620800  1
  As  As17  1  0.03429700  0.30172000  0.00580200  1
  As  As18  1  0.45948900  0.06895200  0.05379200  1
  As  As19  1  0.95146400  0.69459200  0.19587300  1
  As  As20  1  0.54051100  0.06895200  0.55379200  1
  As  As21  1  0.95146400  0.19459200  0.30412700  1
  As  As22  1  0.54336400  0.95945400  0.75497400  1
  As  As23  1  0.54336400  0.45945400  0.74502600  1
  O  O0  1  0.13095300  0.24156600  0.36195000  1
  O  O1  1  0.54432400  0.82942200  0.60917400  1
  O  O2  1  0.02082800  0.71801500  0.27688500  1
  O  O3  1  0.83320600  0.36772600  0.96845300  1
  O  O4  1  0.04226100  0.43336300  0.86015400  1
  O  O5  1  0.25045700  0.89618800  0.21804600  1
  O  O6  1  0.86904700  0.74156600  0.63805000  1
  O  O7  1  0.54273500  0.87987900  0.31697200  1
  O  O8  1  0.10538300  0.37621800  0.07260900  1
  O  O9  1  0.77614400  0.79043200  0.05432000  1
  O  O10  1  0.09822000  0.57144200  0.67036100  1
  O  O11  1  0.36434600  0.47592500  0.80834200  1
  O  O12  1  0.95773900  0.43336300  0.36015400  1
  O  O13  1  0.83320600  0.86772600  0.53154700  1
  O  O14  1  0.71891800  0.52191100  0.88879700  1
  O  O15  1  0.50838900  0.69130800  0.41845000  1
  O  O16  1  0.04226100  0.93336300  0.63984600  1
  O  O17  1  0.97580700  0.17654100  0.02532900  1
  O  O18  1  0.16679400  0.86772600  0.03154700  1
  O  O19  1  0.67712800  0.49133100  0.43783300  1
  O  O20  1  0.89461700  0.87621800  0.92739100  1
  O  O21  1  0.67712800  0.99133100  0.06216700  1
  O  O22  1  0.02419300  0.67654100  0.97467100  1
  O  O23  1  0.90178000  0.07144200  0.32963900  1
  O  O24  1  0.32287200  0.99133100  0.56216700  1
  O  O25  1  0.22385600  0.79043200  0.55432000  1
  O  O26  1  0.60684100  0.08206600  0.77918700  1
  O  O27  1  0.60684100  0.58206600  0.72081300  1
  O  O28  1  0.50838900  0.19130800  0.08155000  1
  O  O29  1  0.90178000  0.57144200  0.17036100  1
  O  O30  1  0.45567600  0.32942200  0.39082600  1
  O  O31  1  0.73504300  0.77165900  0.18544300  1
  O  O32  1  0.45567600  0.82942200  0.10917400  1
  O  O33  1  0.49161100  0.19130800  0.58155000  1
  O  O34  1  0.26495700  0.77165900  0.68544300  1
  O  O35  1  0.97917200  0.21801500  0.72311500  1
  O  O36  1  0.39009200  0.54882000  0.52741900  1
  O  O37  1  0.71891800  0.02191100  0.61120300  1
  O  O38  1  0.39009200  0.04882000  0.97258100  1
  O  O39  1  0.60990800  0.54882000  0.02741900  1
  O  O40  1  0.13095300  0.74156600  0.13805000  1
  O  O41  1  0.39315900  0.58206600  0.22081300  1
  O  O42  1  0.74954300  0.89618800  0.71804600  1
  O  O43  1  0.95773900  0.93336300  0.13984600  1
  O  O44  1  0.09822000  0.07144200  0.82963900  1
  O  O45  1  0.02419300  0.17654100  0.52532900  1
  O  O46  1  0.36434600  0.97592500  0.69165800  1
  O  O47  1  0.54273500  0.37987900  0.18302800  1
  O  O48  1  0.97580700  0.67654100  0.47467100  1
  O  O49  1  0.54432400  0.32942200  0.89082600  1
  O  O50  1  0.28108200  0.02191100  0.11120300  1
  O  O51  1  0.63565400  0.47592500  0.30834200  1
  O  O52  1  0.45726500  0.87987900  0.81697200  1
  O  O53  1  0.60990800  0.04882000  0.47258100  1
  O  O54  1  0.97917200  0.71801500  0.77688500  1
  O  O55  1  0.02082800  0.21801500  0.22311500  1
  O  O56  1  0.25045700  0.39618800  0.28195400  1
  O  O57  1  0.45726500  0.37987900  0.68302800  1
  O  O58  1  0.28108200  0.52191100  0.38879700  1
  O  O59  1  0.74954300  0.39618800  0.78195400  1
  O  O60  1  0.63565400  0.97592500  0.19165800  1
  O  O61  1  0.49161100  0.69130800  0.91845000  1
  O  O62  1  0.86904700  0.24156600  0.86195000  1
  O  O63  1  0.16679400  0.36772600  0.46845300  1
  O  O64  1  0.22385600  0.29043200  0.94568000  1
  O  O65  1  0.77614400  0.29043200  0.44568000  1
  O  O66  1  0.32287200  0.49133100  0.93783300  1
  O  O67  1  0.39315900  0.08206600  0.27918700  1
  O  O68  1  0.26495700  0.27165900  0.81455700  1
  O  O69  1  0.89461700  0.37621800  0.57260900  1
  O  O70  1  0.73504300  0.27165900  0.31455700  1
  O  O71  1  0.10538300  0.87621800  0.42739100  1
loop_
_geom_bond_atom_site_label_1
_geom_bond_atom_site_label_2
_geom_bond_distance
_geom_bond_site_symmetry_2
Ag0 O36 2.264427 1_555
Ag0 O27 2.310002 1_555
Ag0 O1 2.513894 1_555
Ag0 O6 2.638664 1_555
Ag1 O22 2.266210 1_554
Ag1 O8 2.347676 1_555
Ag1 O29 2.461282 1_455
Ag1 O39 2.718052 1_455
Ag2 O54 2.273695 1_455
Ag2 O22 2.320367 1_555
Ag2 O4 2.541111 1_555
Ag2 O66 2.715938 1_555
Ag3 O61 2.389371 1_555
Ag3 O38 2.437673 1_565
Ag3 O52 2.466642 1_555
Ag3 O20 2.666896 1_555
Ag4 O26 2.307720 1_555
Ag4 O57 2.383804 1_555
Ag4 O33 2.452974 1_555
Ag4 O35 2.629400 1_555
Ag5 O33 2.389371 1_555
Ag5 O36 2.437673 1_555
Ag5 O57 2.466642 1_555
Ag5 O69 2.666896 1_555
Ag6 O38 2.264427 1_555
Ag6 O26 2.310002 1_555
Ag6 O49 2.513894 1_555
Ag6 O62 2.638664 1_555
Ag7 O41 2.307720 1_555
Ag7 O7 2.383804 1_555
Ag7 O15 2.452974 1_555
Ag7 O2 2.629400 1_555
Ag8 O29 2.333012 1_555
Ag8 O55 2.398582 1_655
Ag8 O8 2.618675 1_655
Ag8 O47 2.665009 1_555
Ag8 O56 2.812249 1_655
Ag9 O17 2.266210 1_556
Ag9 O20 2.347676 1_545
Ag9 O44 2.461282 1_655
Ag9 O38 2.718052 1_655
Ag10 O2 2.273695 1_655
Ag10 O48 2.320367 1_555
Ag10 O12 2.541111 1_555
Ag10 O19 2.715938 1_555
Ag11 O39 2.264427 1_555
Ag11 O41 2.310002 1_555
Ag11 O32 2.513894 1_555
Ag11 O40 2.638664 1_555
Ag12 O27 2.307720 1_555
Ag12 O52 2.383804 1_555
Ag12 O61 2.452974 1_555
Ag12 O54 2.629400 1_555
Ag13 O67 2.307720 1_555
Ag13 O47 2.383804 1_555
Ag13 O28 2.452974 1_555
Ag13 O55 2.629400 1_555
Ag14 O55 2.273695 1_655
Ag14 O17 2.320367 1_555
Ag14 O43 2.541111 1_545
Ag14 O21 2.715938 1_545
Ag15 O23 2.333012 1_565
Ag15 O2 2.398582 1_655
Ag15 O71 2.618675 1_655
Ag15 O7 2.665009 1_555
Ag15 O5 2.812249 1_655
Ag16 O45 2.266210 1_555
Ag16 O71 2.347676 1_545
Ag16 O23 2.461282 1_455
Ag16 O53 2.718052 1_455
Ag17 O44 2.333012 1_565
Ag17 O54 2.398582 1_455
Ag17 O20 2.618675 1_455
Ag17 O52 2.665009 1_555
Ag17 O42 2.812249 1_455
Ag18 O10 2.333012 1_555
Ag18 O35 2.398582 1_455
Ag18 O69 2.618675 1_455
Ag18 O57 2.665009 1_555
Ag18 O59 2.812249 1_455
Ag19 O15 2.389371 1_555
Ag19 O53 2.437673 1_565
Ag19 O7 2.466642 1_555
Ag19 O71 2.666896 1_555
Ag20 O35 2.273695 1_455
Ag20 O45 2.320367 1_555
Ag20 O16 2.541111 1_545
Ag20 O24 2.715938 1_545
Ag21 O28 2.389371 1_555
Ag21 O39 2.437673 1_555
Ag21 O47 2.466642 1_555
Ag21 O8 2.666896 1_555
Ag22 O48 2.266210 1_555
Ag22 O69 2.347676 1_555
Ag22 O10 2.461282 1_655
Ag22 O36 2.718052 1_655
Ag23 O53 2.264427 1_555
Ag23 O67 2.310002 1_555
Ag23 O30 2.513894 1_555
Ag23 O0 2.638664 1_555
As0 O12 1.832229 1_455
As0 O30 1.836574 1_555
As0 O58 1.872355 1_555
As0 O63 1.891951 1_555
As0 O0 1.892681 1_555
As0 O56 1.899312 1_555
As1 O43 1.832229 1_455
As1 O32 1.836574 1_555
As1 O50 1.872355 1_565
As1 O18 1.891951 1_555
As1 O40 1.892681 1_555
As1 O5 1.899312 1_555
As2 O41 1.696505 1_555
As2 O47 1.706670 1_555
As2 O51 1.763938 1_555
As2 O56 1.772193 1_555
As3 O32 1.846435 1_555
As3 O43 1.847936 1_555
As3 O9 1.870033 1_555
As3 O31 1.871058 1_555
As3 O60 1.882881 1_555
As3 O21 1.888022 1_555
As4 O48 1.694816 1_455
As4 O71 1.710255 1_555
As4 O25 1.762795 1_555
As4 O13 1.765379 1_455
As5 O67 1.696505 1_565
As5 O7 1.706670 1_555
As5 O60 1.763938 1_555
As5 O5 1.772193 1_555
As6 O16 1.832229 1_655
As6 O1 1.836574 1_555
As6 O37 1.872355 1_565
As6 O13 1.891951 1_555
As6 O6 1.892681 1_555
As6 O42 1.899312 1_555
As7 O45 1.694816 1_655
As7 O69 1.710255 1_555
As7 O65 1.762795 1_555
As7 O63 1.765379 1_655
As8 O4 1.832229 1_655
As8 O49 1.836574 1_555
As8 O14 1.872355 1_555
As8 O3 1.891951 1_555
As8 O62 1.892681 1_555
As8 O59 1.899312 1_555
As9 O1 1.846435 1_555
As9 O16 1.847936 1_555
As9 O25 1.870033 1_555
As9 O34 1.871058 1_555
As9 O46 1.882881 1_555
As9 O24 1.888022 1_555
As10 O22 1.694816 1_655
As10 O20 1.710255 1_555
As10 O9 1.762795 1_556
As10 O18 1.765379 1_656
As11 O10 1.689492 1_555
As11 O54 1.713509 1_455
As11 O34 1.775611 1_555
As11 O6 1.780302 1_455
As12 O61 1.693178 1_555
As12 O39 1.710494 1_556
As12 O14 1.770263 1_555
As12 O66 1.781986 1_555
As13 O44 1.689492 1_555
As13 O35 1.713509 1_455
As13 O68 1.775611 1_555
As13 O62 1.780302 1_455
As14 O49 1.846435 1_555
As14 O4 1.847936 1_555
As14 O64 1.870033 1_555
As14 O68 1.871058 1_555
As14 O11 1.882881 1_555
As14 O66 1.888022 1_555
As15 O30 1.846435 1_555
As15 O12 1.847936 1_555
As15 O65 1.870033 1_555
As15 O70 1.871058 1_555
As15 O51 1.882881 1_555
As15 O19 1.888022 1_555
As16 O15 1.693178 1_555
As16 O36 1.710494 1_555
As16 O58 1.770263 1_555
As16 O19 1.781986 1_555
As17 O17 1.694816 1_455
As17 O8 1.710255 1_555
As17 O64 1.762795 1_554
As17 O3 1.765379 1_454
As18 O28 1.693178 1_555
As18 O38 1.710494 1_554
As18 O50 1.770263 1_555
As18 O21 1.781986 1_545
As19 O29 1.689492 1_555
As19 O2 1.713509 1_655
As19 O31 1.775611 1_555
As19 O40 1.780302 1_655
As20 O33 1.693178 1_555
As20 O53 1.710494 1_555
As20 O37 1.770263 1_555
As20 O24 1.781986 1_545
As21 O23 1.689492 1_555
As21 O55 1.713509 1_655
As21 O70 1.775611 1_555
As21 O0 1.780302 1_655
As22 O26 1.696505 1_565
As22 O52 1.706670 1_555
As22 O46 1.763938 1_555
As22 O42 1.772193 1_555
As23 O27 1.696505 1_555
As23 O57 1.706670 1_555
As23 O11 1.763938 1_555
As23 O59 1.772193 1_555
