# generated using pymatgen
data_Cs2PdF6
_symmetry_space_group_name_H-M   'P 1'
_cell_length_a   6.33056610
_cell_length_b   6.33056535
_cell_length_c   6.33056516
_cell_angle_alpha   59.99999052
_cell_angle_beta   59.99999447
_cell_angle_gamma   59.99999535
_symmetry_Int_Tables_number   1
_chemical_formula_structural   Cs2PdF6
_chemical_formula_sum   'Cs2 Pd1 F6'
_cell_volume   179.39588006
_cell_formula_units_Z   1
loop_
 _symmetry_equiv_pos_site_id
 _symmetry_equiv_pos_as_xyz
  1  'x, y, z'
loop_
 _atom_site_type_symbol
 _atom_site_label
 _atom_site_symmetry_multiplicity
 _atom_site_fract_x
 _atom_site_fract_y
 _atom_site_fract_z
 _atom_site_occupancy
  Cs  Cs0  1  0.25000000  0.25000000  0.25000000  1
  Cs  Cs1  1  0.75000000  0.75000000  0.75000000  1
  Pd  Pd0  1  0.00000000  -0.00000000  0.00000000  1
  F  F0  1  0.78499619  0.21500381  0.21500381  1
  F  F1  1  0.78499619  0.78499619  0.21500381  1
  F  F2  1  0.21500381  0.21500381  0.78499619  1
  F  F3  1  0.78499619  0.21500381  0.78499619  1
  F  F4  1  0.21500381  0.78499619  0.21500381  1
  F  F5  1  0.21500381  0.78499619  0.78499619  1
loop_
_geom_bond_atom_site_label_1
_geom_bond_atom_site_label_2
_geom_bond_distance
_geom_bond_site_symmetry_2
Cs0 F5 3.180751 1_545
Cs0 F5 3.180751 1_554
Cs0 F3 3.180751 1_455
Cs0 F2 3.180751 1_555
Cs0 F1 3.180751 1_455
Cs0 F4 3.180751 1_555
Cs0 F3 3.180751 1_554
Cs0 F2 3.180751 1_554
Cs0 F1 3.180751 1_545
Cs0 F4 3.180751 1_545
Cs0 F0 3.180752 1_555
Cs0 F0 3.180752 1_455
Cs1 F0 3.180751 1_565
Cs1 F0 3.180751 1_556
Cs1 F4 3.180751 1_655
Cs1 F1 3.180751 1_555
Cs1 F2 3.180751 1_655
Cs1 F3 3.180751 1_555
Cs1 F4 3.180751 1_556
Cs1 F1 3.180751 1_556
Cs1 F2 3.180751 1_565
Cs1 F3 3.180751 1_565
Cs1 F5 3.180752 1_555
Cs1 F5 3.180752 1_655
F0 Pd0 1.924880 1_655
F1 Pd0 1.924880 1_665
F2 Pd0 1.924880 1_556
F3 Pd0 1.924880 1_656
F4 Pd0 1.924880 1_565
F5 Pd0 1.924880 1_566
