# generated using pymatgen
data_K3Al4P2O8F9
_symmetry_space_group_name_H-M   'P 1'
_cell_length_a   14.02641100
_cell_length_b   6.82581400
_cell_length_c   7.38640100
_cell_angle_alpha   73.89110458
_cell_angle_beta   90.00000000
_cell_angle_gamma   90.00000000
_symmetry_Int_Tables_number   1
_chemical_formula_structural   K3Al4P2O8F9
_chemical_formula_sum   'K6 Al8 P4 O16 F18'
_cell_volume   679.41948190
_cell_formula_units_Z   2
loop_
 _symmetry_equiv_pos_site_id
 _symmetry_equiv_pos_as_xyz
  1  'x, y, z'
loop_
 _atom_site_type_symbol
 _atom_site_label
 _atom_site_symmetry_multiplicity
 _atom_site_fract_x
 _atom_site_fract_y
 _atom_site_fract_z
 _atom_site_occupancy
  K  K0  1  0.50972200  0.81186100  0.79075400  1
  K  K1  1  0.49027800  0.18813900  0.20924600  1
  K  K2  1  0.75000000  0.08028800  0.45893300  1
  K  K3  1  0.00972200  0.18813900  0.20924600  1
  K  K4  1  0.99027800  0.81186100  0.79075400  1
  K  K5  1  0.25000000  0.91971200  0.54106700  1
  Al  Al0  1  0.37791000  0.32794800  0.68095300  1
  Al  Al1  1  0.25000000  0.97308800  0.05213700  1
  Al  Al2  1  0.25000000  0.48414000  0.03855600  1
  Al  Al3  1  0.87791000  0.67205200  0.31904700  1
  Al  Al4  1  0.62209000  0.67205200  0.31904700  1
  Al  Al5  1  0.12209000  0.32794800  0.68095300  1
  Al  Al6  1  0.75000000  0.02691200  0.94786300  1
  Al  Al7  1  0.75000000  0.51586000  0.96144400  1
  P  P0  1  0.10225600  0.65276300  0.28471600  1
  P  P1  1  0.89774400  0.34723700  0.71528400  1
  P  P2  1  0.39774400  0.65276300  0.28471600  1
  P  P3  1  0.60225600  0.34723700  0.71528400  1
  O  O0  1  0.84597600  0.13760400  0.77653000  1
  O  O1  1  0.10523100  0.57686400  0.50182400  1
  O  O2  1  0.65032200  0.50085000  0.80495200  1
  O  O3  1  0.89476900  0.42313600  0.49817600  1
  O  O4  1  0.00150500  0.31668800  0.78862600  1
  O  O5  1  0.60523100  0.42313600  0.49817600  1
  O  O6  1  0.34597600  0.86239600  0.22347000  1
  O  O7  1  0.15032200  0.49915000  0.19504800  1
  O  O8  1  0.65402400  0.13760400  0.77653000  1
  O  O9  1  0.15402400  0.86239600  0.22347000  1
  O  O10  1  0.34967800  0.49915000  0.19504800  1
  O  O11  1  0.39476900  0.57686400  0.50182400  1
  O  O12  1  0.49849500  0.31668800  0.78862600  1
  O  O13  1  0.84967800  0.50085000  0.80495200  1
  O  O14  1  0.99849500  0.68331200  0.21137400  1
  O  O15  1  0.50150500  0.68331200  0.21137400  1
  F  F0  1  0.25000000  0.20454000  0.13208900  1
  F  F1  1  0.09193100  0.15482600  0.54619200  1
  F  F2  1  0.75000000  0.79546000  0.86791100  1
  F  F3  1  0.15609800  0.09118700  0.87889200  1
  F  F4  1  0.25000000  0.32265700  0.60994300  1
  F  F5  1  0.34390200  0.09118700  0.87889200  1
  F  F6  1  0.25000000  0.76553800  0.93518100  1
  F  F7  1  0.66101300  0.52684000  0.14716400  1
  F  F8  1  0.75000000  0.23446200  0.06481900  1
  F  F9  1  0.75000000  0.67734300  0.39005700  1
  F  F10  1  0.16101300  0.47316000  0.85283600  1
  F  F11  1  0.40806900  0.15482600  0.54619200  1
  F  F12  1  0.90806900  0.84517400  0.45380800  1
  F  F13  1  0.83898700  0.52684000  0.14716400  1
  F  F14  1  0.33898700  0.47316000  0.85283600  1
  F  F15  1  0.59193100  0.84517400  0.45380800  1
  F  F16  1  0.84390200  0.90881300  0.12110800  1
  F  F17  1  0.65609800  0.90881300  0.12110800  1
loop_
_geom_bond_atom_site_label_1
_geom_bond_atom_site_label_2
_geom_bond_distance
_geom_bond_site_symmetry_2
K0 O2 2.878090 1_555
K0 O8 2.986958 1_565
K0 O15 2.987144 1_556
K1 O10 2.878090 1_555
K1 O6 2.986958 1_545
K1 O12 2.987144 1_554
K2 O8 2.824510 1_555
K2 O0 2.824510 1_555
K2 O3 3.171807 1_555
K2 O5 3.171807 1_555
K3 O7 2.878090 1_555
K3 O9 2.986958 1_545
K3 O4 2.987144 1_554
K4 O13 2.878090 1_555
K4 O0 2.986958 1_565
K4 O14 2.987144 1_556
K5 O9 2.824510 1_555
K5 O6 2.824510 1_555
K5 O1 3.171807 1_555
K5 O11 3.171807 1_555
Al0 F11 1.794134 1_555
Al0 O11 1.856298 1_555
Al0 O12 1.861522 1_555
Al0 F4 1.872374 1_555
Al0 F14 1.894920 1_555
Al0 F5 1.914601 1_555
Al1 F0 1.833691 1_565
Al1 F6 1.852696 1_554
Al1 F5 1.857333 1_564
Al1 F3 1.857333 1_564
Al1 O9 1.858517 1_555
Al1 O6 1.858517 1_555
Al2 O10 1.834967 1_555
Al2 O7 1.834967 1_555
Al2 F0 1.840647 1_555
Al2 F6 1.859709 1_554
Al2 F14 1.871480 1_554
Al2 F10 1.871480 1_554
Al3 F12 1.794134 1_555
Al3 O3 1.856298 1_555
Al3 O14 1.861522 1_555
Al3 F9 1.872374 1_555
Al3 F13 1.894920 1_555
Al3 F16 1.914601 1_555
Al4 F15 1.794134 1_555
Al4 O5 1.856298 1_555
Al4 O15 1.861522 1_555
Al4 F9 1.872374 1_555
Al4 F7 1.894920 1_555
Al4 F17 1.914601 1_555
Al5 F1 1.794134 1_555
Al5 O1 1.856298 1_555
Al5 O4 1.861522 1_555
Al5 F4 1.872374 1_555
Al5 F10 1.894920 1_555
Al5 F3 1.914601 1_555
Al6 F2 1.833691 1_545
Al6 F8 1.852696 1_556
Al6 F16 1.857333 1_546
Al6 F17 1.857333 1_546
Al6 O8 1.858517 1_555
Al6 O0 1.858517 1_555
Al7 O2 1.834967 1_555
Al7 O13 1.834967 1_555
Al7 F2 1.840647 1_555
Al7 F8 1.859709 1_556
Al7 F13 1.871480 1_556
Al7 F7 1.871480 1_556
O0 P1 1.555700 1_555
O1 P0 1.542980 1_555
O2 P3 1.542081 1_555
O3 P1 1.542980 1_555
O4 P1 1.546752 1_455
O5 P3 1.542980 1_555
O6 P2 1.555700 1_555
O7 P0 1.542081 1_555
O8 P3 1.555700 1_555
O9 P0 1.555700 1_555
O10 P2 1.542081 1_555
O11 P2 1.542980 1_555
O12 P3 1.546752 1_555
O13 P1 1.542081 1_555
O14 P0 1.546752 1_655
O15 P2 1.546752 1_555
F0 K5 3.105861 1_545
F1 K3 2.694718 1_555
F1 K5 2.743426 1_545
F1 K4 2.903413 1_445
F2 K2 3.105861 1_565
F3 K4 3.187082 1_445
F4 K5 2.932604 1_545
F5 K0 3.187082 1_545
F6 K5 2.807463 1_555
F7 K1 3.271385 1_555
F8 K2 2.807463 1_555
F9 K2 2.932604 1_565
F10 K4 3.271385 1_455
F11 K1 2.694718 1_555
F11 K5 2.743426 1_545
F11 K0 2.903413 1_545
F12 K4 2.694718 1_555
F12 K2 2.743426 1_565
F12 K3 2.903413 1_665
F13 K3 3.271385 1_655
F14 K0 3.271385 1_555
F15 K0 2.694718 1_555
F15 K2 2.743426 1_565
F15 K1 2.903413 1_565
F16 K3 3.187082 1_665
F17 K1 3.187082 1_565
