# generated using pymatgen
data_SmMn4(CuO4)3
_symmetry_space_group_name_H-M   'P 1'
_cell_length_a   6.44108473
_cell_length_b   6.44108473
_cell_length_c   6.44108473
_cell_angle_alpha   109.47122063
_cell_angle_beta   109.47122063
_cell_angle_gamma   109.47122063
_symmetry_Int_Tables_number   1
_chemical_formula_structural   SmMn4(CuO4)3
_chemical_formula_sum   'Sm1 Mn4 Cu3 O12'
_cell_volume   205.70987714
_cell_formula_units_Z   1
loop_
 _symmetry_equiv_pos_site_id
 _symmetry_equiv_pos_as_xyz
  1  'x, y, z'
loop_
 _atom_site_type_symbol
 _atom_site_label
 _atom_site_symmetry_multiplicity
 _atom_site_fract_x
 _atom_site_fract_y
 _atom_site_fract_z
 _atom_site_occupancy
  Sm  Sm0  1  0.00000000  0.00000000  0.00000000  1
  Mn  Mn0  1  0.50000000  0.50000000  0.50000000  1
  Mn  Mn1  1  0.50000000  0.00000000  0.00000000  1
  Mn  Mn2  1  0.00000000  0.00000000  0.50000000  1
  Mn  Mn3  1  0.00000000  0.50000000  0.00000000  1
  Cu  Cu0  1  0.00000000  0.50000000  0.50000000  1
  Cu  Cu1  1  0.50000000  0.50000000  0.00000000  1
  Cu  Cu2  1  0.50000000  0.00000000  0.50000000  1
  O  O0  1  0.82973500  0.13422200  0.30448700  1
  O  O1  1  0.47475200  0.30448700  0.17026500  1
  O  O2  1  0.30448700  0.17026500  0.47475200  1
  O  O3  1  0.17026500  0.47475200  0.30448700  1
  O  O4  1  0.69551300  0.82973500  0.52524800  1
  O  O5  1  0.69551300  0.17026500  0.86577800  1
  O  O6  1  0.52524800  0.69551300  0.82973500  1
  O  O7  1  0.17026500  0.86577800  0.69551300  1
  O  O8  1  0.30448700  0.82973500  0.13422200  1
  O  O9  1  0.82973500  0.52524800  0.69551300  1
  O  O10  1  0.13422200  0.30448700  0.82973500  1
  O  O11  1  0.86577800  0.69551300  0.17026500  1
loop_
_geom_bond_atom_site_label_1
_geom_bond_atom_site_label_2
_geom_bond_distance
_geom_bond_site_symmetry_2
Mn0 O9 1.993291 1_555
Mn0 O6 1.993291 1_555
Mn0 O4 1.993291 1_555
Mn0 O1 1.993291 1_555
Mn0 O2 1.993291 1_555
Mn0 O3 1.993291 1_555
Mn1 O6 1.993291 1_544
Mn1 O5 1.993291 1_554
Mn1 O7 1.993291 1_544
Mn1 O1 1.993291 1_555
Mn1 O0 1.993291 1_555
Mn1 O8 1.993291 1_545
Mn2 O4 1.993291 1_445
Mn2 O7 1.993291 1_545
Mn2 O0 1.993291 1_455
Mn2 O10 1.993291 1_555
Mn2 O11 1.993291 1_445
Mn2 O2 1.993291 1_555
Mn3 O5 1.993291 1_454
Mn3 O10 1.993291 1_554
Mn3 O11 1.993291 1_455
Mn3 O3 1.993291 1_555
Mn3 O9 1.993291 1_454
Mn3 O8 1.993291 1_555
Cu0 O0 1.928249 1_455
Cu0 O3 1.928249 1_555
Cu0 O7 1.928249 1_555
Cu0 O9 1.928249 1_455
Cu1 O1 1.928249 1_555
Cu1 O10 1.928249 1_554
Cu1 O11 1.928249 1_555
Cu1 O6 1.928249 1_554
Cu2 O2 1.928249 1_555
Cu2 O8 1.928249 1_545
Cu2 O4 1.928249 1_545
Cu2 O5 1.928249 1_555
O0 Sm0 2.594646 1_655
O1 Sm0 2.594646 1_555
O2 Sm0 2.594646 1_555
O3 Sm0 2.594646 1_555
O4 Sm0 2.594646 1_666
O5 Sm0 2.594646 1_656
O6 Sm0 2.594646 1_666
O7 Sm0 2.594646 1_566
O8 Sm0 2.594646 1_565
O9 Sm0 2.594646 1_666
O10 Sm0 2.594646 1_556
O11 Sm0 2.594646 1_665
