# generated using pymatgen
data_Ta2Hg3S(O2F5)2
_symmetry_space_group_name_H-M   'P 1'
_cell_length_a   12.30912150
_cell_length_b   10.48936124
_cell_length_c   9.30622782
_cell_angle_alpha   76.63821534
_cell_angle_beta   56.00576461
_cell_angle_gamma   47.35602005
_symmetry_Int_Tables_number   1
_chemical_formula_structural   Ta2Hg3S(O2F5)2
_chemical_formula_sum   'Ta4 Hg6 S2 O8 F20'
_cell_volume   710.98909436
_cell_formula_units_Z   2
loop_
 _symmetry_equiv_pos_site_id
 _symmetry_equiv_pos_as_xyz
  1  'x, y, z'
loop_
 _atom_site_type_symbol
 _atom_site_label
 _atom_site_symmetry_multiplicity
 _atom_site_fract_x
 _atom_site_fract_y
 _atom_site_fract_z
 _atom_site_occupancy
  Ta  Ta0  1  0.01278100  0.87326000  0.60967800  1
  Ta  Ta1  1  0.50428100  0.60967800  0.87326000  1
  Ta  Ta2  1  0.64032200  0.74571900  0.23721900  1
  Ta  Ta3  1  0.37674000  0.23721900  0.74571900  1
  Hg  Hg0  1  0.99778100  0.50221900  0.50221900  1
  Hg  Hg1  1  0.74778100  0.25221900  0.25221900  1
  Hg  Hg2  1  0.02050600  0.67807600  0.24851100  1
  Hg  Hg3  1  0.05290600  0.24851100  0.67807600  1
  Hg  Hg4  1  0.00148900  0.19709400  0.22949400  1
  Hg  Hg5  1  0.57192400  0.22949400  0.19709400  1
  S  S0  1  0.14618700  0.85381300  0.85381300  1
  S  S1  1  0.39618700  0.10381300  0.10381300  1
  O  O0  1  0.14640800  0.78236700  0.73018100  1
  O  O1  1  0.34104500  0.73018100  0.78236700  1
  O  O2  1  0.51981900  0.90895500  0.10359200  1
  O  O3  1  0.46763300  0.10359200  0.90895500  1
  O  O4  1  0.04444500  0.84821500  0.03762400  1
  O  O5  1  0.06971600  0.03762400  0.84821500  1
  O  O6  1  0.21237600  0.18028400  0.20555500  1
  O  O7  1  0.40178500  0.20555500  0.18028400  1
  F  F0  1  0.89613400  0.96820000  0.49072800  1
  F  F1  1  0.64493800  0.49072800  0.96820000  1
  F  F2  1  0.75927200  0.60506200  0.35386600  1
  F  F3  1  0.28180000  0.35386600  0.60506200  1
  F  F4  1  0.22812100  0.66161900  0.42287700  1
  F  F5  1  0.68738300  0.42287700  0.66161900  1
  F  F6  1  0.82712300  0.56261700  0.02187900  1
  F  F7  1  0.58838100  0.02187900  0.56261700  1
  F  F8  1  0.80723600  0.06816700  0.81939900  1
  F  F9  1  0.30519900  0.81939900  0.06816700  1
  F  F10  1  0.43060100  0.94480100  0.44276400  1
  F  F11  1  0.18183300  0.44276400  0.94480100  1
  F  F12  1  0.93282600  0.75045200  0.72017300  1
  F  F13  1  0.59655000  0.72017300  0.75045200  1
  F  F14  1  0.52982700  0.65345000  0.31717400  1
  F  F15  1  0.49954800  0.31717400  0.65345000  1
  F  F16  1  0.08708100  0.00312100  0.49952200  1
  F  F17  1  0.41027600  0.49952200  0.00312100  1
  F  F18  1  0.75047800  0.83972400  0.16291900  1
  F  F19  1  0.24687900  0.16291900  0.83972400  1
loop_
_geom_bond_atom_site_label_1
_geom_bond_atom_site_label_2
_geom_bond_distance
_geom_bond_site_symmetry_2
Hg0 Hg2 2.646336 1_655
Hg0 Hg3 2.646337 1_655
Hg1 Hg5 2.646330 1_555
Hg1 Hg4 2.646342 1_655
Hg2 O4 2.360179 1_555
Hg3 O5 2.360177 1_555
Hg4 O6 2.360172 1_555
Hg5 O7 2.360184 1_555
O0 S0 1.509195 1_555
O0 Ta0 2.077447 1_555
O1 S0 1.509204 1_555
O1 Ta1 2.077438 1_555
O2 S1 1.509202 1_565
O2 Ta2 2.077445 1_555
O3 S1 1.509203 1_556
O3 Ta3 2.077439 1_555
O4 S0 1.468210 1_554
O5 S0 1.468210 1_545
O6 S1 1.468210 1_555
O7 S1 1.468210 1_555
F0 Ta0 1.899789 1_655
F1 Ta1 1.899789 1_555
F2 Ta2 1.899789 1_555
F3 Ta3 1.899789 1_555
F4 Ta0 1.906501 1_555
F5 Ta1 1.906501 1_555
F6 Ta2 1.906501 1_555
F7 Ta3 1.906501 1_555
F8 Ta0 1.924700 1_645
F9 Ta1 1.924700 1_554
F10 Ta2 1.924696 1_555
F11 Ta3 1.924695 1_555
F12 Ta0 1.912903 1_655
F13 Ta1 1.912912 1_555
F14 Ta2 1.912913 1_555
F15 Ta3 1.912902 1_555
F16 Ta0 1.933107 1_545
F17 Ta1 1.933107 1_554
F18 Ta2 1.933107 1_555
F19 Ta3 1.933107 1_555
