# generated using pymatgen
data_ZrMn2Ag4(MoO4)6
_symmetry_space_group_name_H-M   'P 1'
_cell_length_a   5.48845700
_cell_length_b   19.31785500
_cell_length_c   21.81884400
_cell_angle_alpha   90.00000000
_cell_angle_beta   90.00000000
_cell_angle_gamma   90.00000000
_symmetry_Int_Tables_number   1
_chemical_formula_structural   ZrMn2Ag4(MoO4)6
_chemical_formula_sum   'Zr4 Mn8 Ag16 Mo24 O96'
_cell_volume   2313.34765887
_cell_formula_units_Z   4
loop_
 _symmetry_equiv_pos_site_id
 _symmetry_equiv_pos_as_xyz
  1  'x, y, z'
loop_
 _atom_site_type_symbol
 _atom_site_label
 _atom_site_symmetry_multiplicity
 _atom_site_fract_x
 _atom_site_fract_y
 _atom_site_fract_z
 _atom_site_occupancy
  Zr  Zr0  1  0.64941700  0.00027500  0.63212400  1
  Zr  Zr1  1  0.85058300  0.99972500  0.13212400  1
  Zr  Zr2  1  0.35058300  0.50027500  0.86787600  1
  Zr  Zr3  1  0.14941700  0.49972500  0.36787600  1
  Mn  Mn0  1  0.48359000  0.96246600  0.88290100  1
  Mn  Mn1  1  0.52173800  0.26694400  0.22003400  1
  Mn  Mn2  1  0.47826200  0.76694400  0.27996600  1
  Mn  Mn3  1  0.01641000  0.03753400  0.38290100  1
  Mn  Mn4  1  0.02173800  0.23305600  0.77996600  1
  Mn  Mn5  1  0.98359000  0.53753400  0.11709900  1
  Mn  Mn6  1  0.97826200  0.73305600  0.72003400  1
  Mn  Mn7  1  0.51641000  0.46246600  0.61709900  1
  Ag  Ag0  1  0.48745300  0.78732400  0.81049200  1
  Ag  Ag1  1  0.00689000  0.22094300  0.45886000  1
  Ag  Ag2  1  0.01012800  0.22347400  0.95712700  1
  Ag  Ag3  1  0.49847400  0.92107200  0.38390500  1
  Ag  Ag4  1  0.50152600  0.42107200  0.11609500  1
  Ag  Ag5  1  0.98987200  0.72347400  0.54287300  1
  Ag  Ag6  1  0.51012800  0.27652600  0.04287300  1
  Ag  Ag7  1  0.99311000  0.72094300  0.04114000  1
  Ag  Ag8  1  0.01254700  0.21267600  0.31049200  1
  Ag  Ag9  1  0.99847400  0.57892800  0.61609500  1
  Ag  Ag10  1  0.00152600  0.07892800  0.88390500  1
  Ag  Ag11  1  0.98745300  0.71267600  0.18950800  1
  Ag  Ag12  1  0.50689000  0.27905700  0.54114000  1
  Ag  Ag13  1  0.49311000  0.77905700  0.95886000  1
  Ag  Ag14  1  0.48987200  0.77652600  0.45712700  1
  Ag  Ag15  1  0.51254700  0.28732400  0.68950800  1
  Mo  Mo0  1  0.00363700  0.17533700  0.62531100  1
  Mo  Mo1  1  0.46605400  0.81313000  0.63517800  1
  Mo  Mo2  1  0.50363700  0.32466300  0.37468900  1
  Mo  Mo3  1  0.50238300  0.09249900  0.99985000  1
  Mo  Mo4  1  0.98837200  0.39657000  0.22940100  1
  Mo  Mo5  1  0.45768100  0.58651400  0.22357600  1
  Mo  Mo6  1  0.99761700  0.90750100  0.49985000  1
  Mo  Mo7  1  0.95768100  0.91348600  0.77642400  1
  Mo  Mo8  1  0.49761700  0.59249900  0.50015000  1
  Mo  Mo9  1  0.01162800  0.89657000  0.27059900  1
  Mo  Mo10  1  0.04231900  0.41348600  0.72357600  1
  Mo  Mo11  1  0.51162800  0.60343000  0.72940100  1
  Mo  Mo12  1  0.49163800  0.08643900  0.48448800  1
  Mo  Mo13  1  0.99163800  0.41356100  0.51551200  1
  Mo  Mo14  1  0.49636300  0.82466300  0.12531100  1
  Mo  Mo15  1  0.96605400  0.68687000  0.36482200  1
  Mo  Mo16  1  0.50836200  0.58643900  0.01551200  1
  Mo  Mo17  1  0.48837200  0.10343000  0.77059900  1
  Mo  Mo18  1  0.53394600  0.31313000  0.86482200  1
  Mo  Mo19  1  0.00238300  0.40750100  0.00015000  1
  Mo  Mo20  1  0.54231900  0.08651400  0.27642400  1
  Mo  Mo21  1  0.00836200  0.91356100  0.98448800  1
  Mo  Mo22  1  0.03394600  0.18687000  0.13517800  1
  Mo  Mo23  1  0.99636300  0.67533700  0.87468900  1
  O  O0  1  0.24085100  0.36884800  0.04371100  1
  O  O1  1  0.30480800  0.15977000  0.02501900  1
  O  O2  1  0.04895800  0.95710300  0.05957300  1
  O  O3  1  0.95104200  0.45710300  0.44042700  1
  O  O4  1  0.83156200  0.46625300  0.68174000  1
  O  O5  1  0.12198900  0.45409300  0.93338300  1
  O  O6  1  0.74085100  0.13115200  0.95628900  1
  O  O7  1  0.94267400  0.59142600  0.36475100  1
  O  O8  1  0.89201600  0.33308600  0.74017400  1
  O  O9  1  0.66843800  0.53374700  0.18174000  1
  O  O10  1  0.69506600  0.31734900  0.43999400  1
  O  O11  1  0.44267400  0.90857400  0.63524900  1
  O  O12  1  0.86792900  0.95233300  0.32559500  1
  O  O13  1  0.68476600  0.03129400  0.43952200  1
  O  O14  1  0.62198900  0.04590700  0.06661700  1
  O  O15  1  0.19519200  0.84023000  0.52501900  1
  O  O16  1  0.16843800  0.96625300  0.81826000  1
  O  O17  1  0.93959500  0.44704000  0.29932300  1
  O  O18  1  0.85373600  0.20798000  0.20145300  1
  O  O19  1  0.36792900  0.54766700  0.67440500  1
  O  O20  1  0.43959500  0.05296000  0.70067700  1
  O  O21  1  0.63207100  0.04766700  0.82559500  1
  O  O22  1  0.13913900  0.71786700  0.42752000  1
  O  O23  1  0.45104200  0.04289700  0.55957300  1
  O  O24  1  0.13207100  0.45233300  0.17440500  1
  O  O25  1  0.54895800  0.54289700  0.94042700  1
  O  O26  1  0.63913900  0.78213300  0.57248000  1
  O  O27  1  0.30493400  0.81734900  0.06000600  1
  O  O28  1  0.18476600  0.46870600  0.56047800  1
  O  O29  1  0.78318400  0.63804900  0.69283600  1
  O  O30  1  0.33077900  0.03752600  0.94785800  1
  O  O31  1  0.33797700  0.66351200  0.00609600  1
  O  O32  1  0.69566800  0.89432200  0.82418800  1
  O  O33  1  0.19506600  0.18265100  0.56000600  1
  O  O34  1  0.21681600  0.13804900  0.80716400  1
  O  O35  1  0.77916700  0.60653900  0.05982100  1
  O  O36  1  0.55732600  0.40857400  0.86475100  1
  O  O37  1  0.72083300  0.39346100  0.55982100  1
  O  O38  1  0.31773900  0.23442800  0.14171100  1
  O  O39  1  0.35373600  0.29202000  0.79854700  1
  O  O40  1  0.82066900  0.70159000  0.80796100  1
  O  O41  1  0.25914900  0.63115200  0.54371100  1
  O  O42  1  0.22083300  0.10653900  0.44017900  1
  O  O43  1  0.67933100  0.29841000  0.30796100  1
  O  O44  1  0.80480800  0.34023000  0.97498100  1
  O  O45  1  0.87801100  0.95409300  0.56661700  1
  O  O46  1  0.88238500  0.08724600  0.63238300  1
  O  O47  1  0.64626400  0.79202000  0.70145300  1
  O  O48  1  0.05732600  0.09142600  0.13524900  1
  O  O49  1  0.73836900  0.76362800  0.11727700  1
  O  O50  1  0.66202300  0.16351200  0.49390400  1
  O  O51  1  0.86117300  0.95677000  0.70647900  1
  O  O52  1  0.80493400  0.68265100  0.93999400  1
  O  O53  1  0.13882700  0.45677000  0.79352100  1
  O  O54  1  0.69519200  0.65977000  0.47498100  1
  O  O55  1  0.56040500  0.55296000  0.79932300  1
  O  O56  1  0.30043100  0.67114300  0.74560300  1
  O  O57  1  0.86086100  0.21786700  0.07248000  1
  O  O58  1  0.83077900  0.46247400  0.05214200  1
  O  O59  1  0.80043100  0.82885700  0.25439700  1
  O  O60  1  0.10798400  0.83308600  0.75982600  1
  O  O61  1  0.18226100  0.76557200  0.64171100  1
  O  O62  1  0.33156200  0.03374700  0.31826000  1
  O  O63  1  0.06040500  0.94704000  0.20067700  1
  O  O64  1  0.63882700  0.04323000  0.20647900  1
  O  O65  1  0.19566800  0.60567800  0.17581200  1
  O  O66  1  0.30433200  0.39432200  0.67581200  1
  O  O67  1  0.76163100  0.23637200  0.61727700  1
  O  O68  1  0.68226100  0.73442800  0.35828900  1
  O  O69  1  0.37801100  0.54590700  0.43338300  1
  O  O70  1  0.26163100  0.26362800  0.38272300  1
  O  O71  1  0.28318400  0.86195100  0.30716400  1
  O  O72  1  0.14626400  0.70798000  0.29854700  1
  O  O73  1  0.16922100  0.96247400  0.44785800  1
  O  O74  1  0.81773900  0.26557200  0.85828900  1
  O  O75  1  0.32066900  0.79841000  0.19203900  1
  O  O76  1  0.75914900  0.86884800  0.45628900  1
  O  O77  1  0.16202300  0.33648800  0.50609600  1
  O  O78  1  0.23836900  0.73637200  0.88272300  1
  O  O79  1  0.27916700  0.89346100  0.94017900  1
  O  O80  1  0.36117300  0.54323000  0.29352100  1
  O  O81  1  0.36086100  0.28213300  0.92752000  1
  O  O82  1  0.17933100  0.20159000  0.69203900  1
  O  O83  1  0.83797700  0.83648800  0.99390400  1
  O  O84  1  0.39201600  0.16691400  0.25982600  1
  O  O85  1  0.66922100  0.53752600  0.55214200  1
  O  O86  1  0.19956900  0.32885700  0.24560300  1
  O  O87  1  0.61761500  0.91275400  0.13238300  1
  O  O88  1  0.31523400  0.53129400  0.06047800  1
  O  O89  1  0.60798400  0.66691400  0.24017400  1
  O  O90  1  0.81523400  0.96870600  0.93952200  1
  O  O91  1  0.71681600  0.36195100  0.19283600  1
  O  O92  1  0.38238500  0.41275400  0.36761700  1
  O  O93  1  0.11761500  0.58724600  0.86761700  1
  O  O94  1  0.80433200  0.10567800  0.32418800  1
  O  O95  1  0.69956900  0.17114300  0.75439700  1
loop_
_geom_bond_atom_site_label_1
_geom_bond_atom_site_label_2
_geom_bond_distance
_geom_bond_site_symmetry_2
Mn0 O79 2.144207 1_555
Mn0 O32 2.174589 1_555
Mn0 O30 2.194222 1_565
Mn0 O90 2.203165 1_555
Mn0 O21 2.221819 1_565
Mn0 O16 2.233028 1_555
Mn1 O38 2.137417 1_555
Mn1 O18 2.186795 1_555
Mn1 O43 2.190462 1_555
Mn1 O91 2.206116 1_555
Mn1 O86 2.206419 1_555
Mn1 O84 2.234891 1_555
Mn2 O68 2.137417 1_555
Mn2 O72 2.186795 1_555
Mn2 O75 2.190462 1_555
Mn2 O71 2.206116 1_555
Mn2 O59 2.206419 1_555
Mn2 O89 2.234891 1_555
Mn3 O42 2.144207 1_555
Mn3 O94 2.174589 1_455
Mn3 O73 2.194222 1_545
Mn3 O13 2.203165 1_455
Mn3 O12 2.221819 1_445
Mn3 O62 2.233028 1_555
Mn4 O74 2.137417 1_455
Mn4 O39 2.186795 1_555
Mn4 O82 2.190462 1_555
Mn4 O34 2.206116 1_555
Mn4 O95 2.206419 1_455
Mn4 O8 2.234891 1_455
Mn5 O35 2.144207 1_555
Mn5 O65 2.174589 1_655
Mn5 O58 2.194222 1_555
Mn5 O88 2.203165 1_655
Mn5 O24 2.221819 1_655
Mn5 O9 2.233028 1_555
Mn6 O61 2.137417 1_655
Mn6 O47 2.186795 1_555
Mn6 O40 2.190462 1_555
Mn6 O29 2.206116 1_555
Mn6 O56 2.206419 1_655
Mn6 O60 2.234891 1_655
Mn7 O37 2.144207 1_555
Mn7 O66 2.174589 1_555
Mn7 O85 2.194222 1_555
Mn7 O28 2.203165 1_555
Mn7 O19 2.221819 1_555
Mn7 O4 2.233028 1_555
Ag0 O78 2.306839 1_555
Ag0 O32 2.380676 1_555
Ag0 O40 2.467934 1_555
Ag0 O60 2.518175 1_555
Ag0 O47 2.535371 1_555
Ag1 O70 2.322579 1_555
Ag1 O50 2.323393 1_455
Ag1 O42 2.535586 1_555
Ag1 O33 2.546411 1_555
Ag1 O10 2.562580 1_455
Ag1 O77 2.601797 1_555
Ag2 O6 2.316313 1_455
Ag2 O81 2.325280 1_555
Ag2 O1 2.514865 1_556
Ag2 O74 2.535144 1_455
Ag2 O44 2.551236 1_455
Ag2 O57 2.649061 1_456
Ag3 O71 2.346101 1_555
Ag3 O76 2.357754 1_555
Ag3 O73 2.419161 1_555
Ag3 O12 2.468815 1_555
Ag3 O13 2.655506 1_565
Ag3 O62 2.761966 1_565
Ag4 O91 2.346101 1_555
Ag4 O0 2.357754 1_555
Ag4 O58 2.419161 1_555
Ag4 O24 2.468815 1_555
Ag4 O88 2.655506 1_555
Ag4 O9 2.761966 1_555
Ag5 O41 2.316313 1_655
Ag5 O26 2.325280 1_555
Ag5 O54 2.514865 1_555
Ag5 O61 2.535144 1_655
Ag5 O15 2.551236 1_655
Ag5 O22 2.649061 1_655
Ag6 O0 2.316313 1_555
Ag6 O57 2.325280 1_555
Ag6 O44 2.514865 1_554
Ag6 O38 2.535144 1_555
Ag6 O1 2.551236 1_555
Ag6 O81 2.649061 1_554
Ag7 O49 2.322579 1_555
Ag7 O31 2.323393 1_655
Ag7 O35 2.535586 1_555
Ag7 O52 2.546411 1_554
Ag7 O27 2.562580 1_655
Ag7 O83 2.601797 1_554
Ag8 O70 2.306839 1_555
Ag8 O94 2.380676 1_455
Ag8 O43 2.467934 1_455
Ag8 O84 2.518175 1_555
Ag8 O18 2.535371 1_455
Ag9 O29 2.346101 1_555
Ag9 O41 2.357754 1_655
Ag9 O85 2.419161 1_555
Ag9 O19 2.468815 1_655
Ag9 O28 2.655506 1_655
Ag9 O4 2.761966 1_555
Ag10 O34 2.346101 1_555
Ag10 O6 2.357754 1_455
Ag10 O30 2.419161 1_555
Ag10 O21 2.468815 1_455
Ag10 O90 2.655506 1_445
Ag10 O16 2.761966 1_545
Ag11 O49 2.306839 1_555
Ag11 O65 2.380676 1_655
Ag11 O75 2.467934 1_655
Ag11 O89 2.518175 1_555
Ag11 O72 2.535371 1_655
Ag12 O67 2.322579 1_555
Ag12 O77 2.323393 1_555
Ag12 O37 2.535586 1_555
Ag12 O10 2.546411 1_555
Ag12 O33 2.562580 1_555
Ag12 O50 2.601797 1_555
Ag13 O78 2.322579 1_555
Ag13 O83 2.323393 1_555
Ag13 O79 2.535586 1_555
Ag13 O27 2.546411 1_556
Ag13 O52 2.562580 1_555
Ag13 O31 2.601797 1_556
Ag14 O76 2.316313 1_555
Ag14 O22 2.325280 1_555
Ag14 O15 2.514865 1_555
Ag14 O68 2.535144 1_555
Ag14 O54 2.551236 1_555
Ag14 O26 2.649061 1_555
Ag15 O67 2.306839 1_555
Ag15 O66 2.380676 1_555
Ag15 O82 2.467934 1_555
Ag15 O8 2.518175 1_555
Ag15 O39 2.535371 1_555
Mo0 O33 1.775981 1_555
Mo0 O67 1.784697 1_455
Mo0 O82 1.818456 1_555
Mo0 O46 1.833729 1_455
Mo1 O26 1.769863 1_555
Mo1 O47 1.798781 1_555
Mo1 O61 1.813956 1_555
Mo1 O11 1.848234 1_555
Mo2 O10 1.775981 1_555
Mo2 O70 1.784697 1_555
Mo2 O43 1.818456 1_555
Mo2 O92 1.833729 1_555
Mo3 O1 1.779393 1_556
Mo3 O6 1.781550 1_555
Mo3 O30 1.817058 1_555
Mo3 O14 1.833913 1_556
Mo4 O86 1.783153 1_655
Mo4 O24 1.795079 1_655
Mo4 O91 1.817994 1_555
Mo4 O17 1.830232 1_555
Mo5 O9 1.791736 1_555
Mo5 O89 1.795538 1_555
Mo5 O65 1.814145 1_555
Mo5 O80 1.818998 1_555
Mo6 O15 1.779393 1_655
Mo6 O76 1.781550 1_555
Mo6 O73 1.817058 1_655
Mo6 O45 1.833913 1_555
Mo7 O16 1.791736 1_655
Mo7 O60 1.795538 1_655
Mo7 O32 1.814145 1_555
Mo7 O51 1.818998 1_555
Mo8 O54 1.779393 1_555
Mo8 O41 1.781550 1_555
Mo8 O85 1.817058 1_555
Mo8 O69 1.833913 1_555
Mo9 O59 1.783153 1_455
Mo9 O12 1.795079 1_455
Mo9 O71 1.817994 1_555
Mo9 O63 1.830232 1_555
Mo10 O4 1.791736 1_455
Mo10 O8 1.795538 1_455
Mo10 O66 1.814145 1_555
Mo10 O53 1.818998 1_555
Mo11 O56 1.783153 1_555
Mo11 O19 1.795079 1_555
Mo11 O29 1.817994 1_555
Mo11 O55 1.830232 1_555
Mo12 O50 1.770168 1_555
Mo12 O13 1.794699 1_555
Mo12 O42 1.815078 1_555
Mo12 O23 1.855015 1_555
Mo13 O77 1.770168 1_655
Mo13 O28 1.794699 1_655
Mo13 O37 1.815078 1_555
Mo13 O3 1.855015 1_555
Mo14 O27 1.775981 1_555
Mo14 O49 1.784697 1_555
Mo14 O75 1.818456 1_555
Mo14 O87 1.833729 1_555
Mo15 O22 1.769863 1_655
Mo15 O72 1.798781 1_655
Mo15 O68 1.813956 1_555
Mo15 O7 1.848234 1_555
Mo16 O31 1.770168 1_555
Mo16 O88 1.794699 1_555
Mo16 O35 1.815078 1_555
Mo16 O25 1.855015 1_554
Mo17 O95 1.783153 1_555
Mo17 O21 1.795079 1_555
Mo17 O34 1.817994 1_555
Mo17 O20 1.830232 1_555
Mo18 O81 1.769863 1_555
Mo18 O39 1.798781 1_555
Mo18 O74 1.813956 1_555
Mo18 O36 1.848234 1_555
Mo19 O44 1.779393 1_454
Mo19 O0 1.781550 1_555
Mo19 O58 1.817058 1_455
Mo19 O5 1.833913 1_554
Mo20 O62 1.791736 1_555
Mo20 O84 1.795538 1_555
Mo20 O94 1.814145 1_555
Mo20 O64 1.818998 1_555
Mo21 O83 1.770168 1_455
Mo21 O90 1.794699 1_455
Mo21 O79 1.815078 1_555
Mo21 O2 1.855015 1_556
Mo22 O57 1.769863 1_455
Mo22 O18 1.798781 1_455
Mo22 O38 1.813956 1_555
Mo22 O48 1.848234 1_555
Mo23 O52 1.775981 1_555
Mo23 O78 1.784697 1_655
Mo23 O40 1.818456 1_555
Mo23 O93 1.833729 1_655
O2 Zr1 2.090258 1_455
O3 Zr3 2.090258 1_655
O5 Zr2 2.100681 1_555
O7 Zr3 2.104825 1_655
O11 Zr0 2.104825 1_565
O14 Zr1 2.100681 1_545
O17 Zr3 2.144593 1_655
O20 Zr0 2.144593 1_555
O23 Zr0 2.090258 1_555
O25 Zr2 2.090258 1_555
O36 Zr2 2.104825 1_555
O45 Zr0 2.100681 1_565
O46 Zr0 2.111315 1_555
O48 Zr1 2.104825 1_445
O51 Zr0 2.165419 1_565
O53 Zr2 2.165419 1_555
O55 Zr2 2.144593 1_555
O63 Zr1 2.144593 1_455
O64 Zr1 2.165419 1_545
O69 Zr3 2.100681 1_555
O80 Zr3 2.165419 1_555
O87 Zr1 2.111315 1_555
O92 Zr3 2.111315 1_555
O93 Zr2 2.111315 1_555
