# generated using pymatgen
data_MgAl6O10
_symmetry_space_group_name_H-M   'P 1'
_cell_length_a   5.69545108
_cell_length_b   5.69545108
_cell_length_c   23.53420219
_cell_angle_alpha   83.06080576
_cell_angle_beta   83.06080576
_cell_angle_gamma   60.35289973
_symmetry_Int_Tables_number   1
_chemical_formula_structural   MgAl6O10
_chemical_formula_sum   'Mg4 Al24 O40'
_cell_volume   656.95646143
_cell_formula_units_Z   4
loop_
 _symmetry_equiv_pos_site_id
 _symmetry_equiv_pos_as_xyz
  1  'x, y, z'
loop_
 _atom_site_type_symbol
 _atom_site_label
 _atom_site_symmetry_multiplicity
 _atom_site_fract_x
 _atom_site_fract_y
 _atom_site_fract_z
 _atom_site_occupancy
  Mg  Mg0  1  0.74265000  0.74265000  0.75768700  1
  Mg  Mg1  1  0.14932800  0.14932800  0.54955100  1
  Mg  Mg2  1  0.79921100  0.79921100  0.60296900  1
  Mg  Mg3  1  0.20053000  0.20053000  0.40051100  1
  Al  Al0  1  0.00734900  0.00734900  0.99453100  1
  Al  Al1  1  0.34524400  0.34524400  0.95092500  1
  Al  Al2  1  0.68805500  0.68805500  0.96945900  1
  Al  Al3  1  0.37444400  0.87488000  0.87493800  1
  Al  Al4  1  0.27180900  0.27180900  0.67657600  1
  Al  Al5  1  0.87488000  0.37444400  0.87493800  1
  Al  Al6  1  0.40591800  0.40591800  0.80165100  1
  Al  Al7  1  0.06511800  0.06511800  0.77697300  1
  Al  Al8  1  0.77637200  0.27227500  0.67637000  1
  Al  Al9  1  0.67650400  0.67650400  0.47437100  1
  Al  Al10  1  0.27227500  0.77637200  0.67637000  1
  Al  Al11  1  0.47436500  0.47436500  0.57567900  1
  Al  Al12  1  0.55167600  0.55167600  0.34435100  1
  Al  Al13  1  0.17218600  0.67656700  0.47435600  1
  Al  Al14  1  0.67656700  0.17218600  0.47435600  1
  Al  Al15  1  0.08267800  0.08267800  0.27111600  1
  Al  Al16  1  0.87492500  0.87492500  0.37514200  1
  Al  Al17  1  0.56430400  0.08311900  0.27104200  1
  Al  Al18  1  0.94891800  0.94891800  0.15185600  1
  Al  Al19  1  0.08311900  0.56430400  0.27104200  1
  Al  Al20  1  0.47950000  0.47950000  0.07564000  1
  Al  Al21  1  0.96877200  0.47756900  0.07599200  1
  Al  Al22  1  0.27376800  0.27376800  0.17985700  1
  Al  Al23  1  0.47756900  0.96877200  0.07599200  1
  O  O0  1  0.50377000  0.01189100  0.93099700  1
  O  O1  1  0.01189100  0.50377000  0.93099700  1
  O  O2  1  0.70960500  0.70960500  0.83933500  1
  O  O3  1  0.52880000  0.52880000  0.92901200  1
  O  O4  1  0.21899600  0.21899600  0.82587100  1
  O  O5  1  0.94340700  0.39188700  0.72109900  1
  O  O6  1  0.03705100  0.03705100  0.91966500  1
  O  O7  1  0.74427100  0.24066300  0.82142200  1
  O  O8  1  0.12037500  0.12037500  0.63194600  1
  O  O9  1  0.39188700  0.94340700  0.72109900  1
  O  O10  1  0.24066300  0.74427100  0.82142200  1
  O  O11  1  0.93855100  0.93855100  0.72167900  1
  O  O12  1  0.34607000  0.78879600  0.51960500  1
  O  O13  1  0.60405900  0.60405900  0.62790300  1
  O  O14  1  0.42469800  0.42469800  0.72169300  1
  O  O15  1  0.16326100  0.60292000  0.62765900  1
  O  O16  1  0.78879600  0.34607000  0.51960500  1
  O  O17  1  0.52479800  0.52479800  0.42412400  1
  O  O18  1  0.60292000  0.16326100  0.62765900  1
  O  O19  1  0.34506200  0.34506200  0.51941300  1
  O  O20  1  0.00607100  0.00607100  0.42739000  1
  O  O21  1  0.73818200  0.20087400  0.32336700  1
  O  O22  1  0.82761900  0.82761900  0.51777000  1
  O  O23  1  0.56134600  0.00502000  0.42728300  1
  O  O24  1  0.20087400  0.73818200  0.32336700  1
  O  O25  1  0.92324900  0.92324900  0.23005200  1
  O  O26  1  0.00502000  0.56134600  0.42728300  1
  O  O27  1  0.73784300  0.73784300  0.32328200  1
  O  O28  1  0.13518400  0.60686800  0.12364300  1
  O  O29  1  0.40805900  0.40805900  0.22814900  1
  O  O30  1  0.22755400  0.22755400  0.31878600  1
  O  O31  1  0.60686800  0.13518400  0.12364300  1
  O  O32  1  0.95801400  0.40680700  0.22811600  1
  O  O33  1  0.32283600  0.32283600  0.03329400  1
  O  O34  1  0.13489200  0.13489200  0.12378300  1
  O  O35  1  0.40680700  0.95801400  0.22811600  1
  O  O36  1  0.82093300  0.82093300  0.02492800  1
  O  O37  1  0.63165000  0.63165000  0.11156000  1
  O  O38  1  0.33731300  0.81680600  0.02737800  1
  O  O39  1  0.81680600  0.33731300  0.02737800  1
loop_
_geom_bond_atom_site_label_1
_geom_bond_atom_site_label_2
_geom_bond_distance
_geom_bond_site_symmetry_2
Mg0 O2 1.903512 1_555
Mg0 O9 1.989412 1_555
Mg0 O5 1.989412 1_555
Mg0 O11 1.995632 1_555
Mg1 O8 1.920122 1_555
Mg1 O19 1.958563 1_555
Mg1 O12 1.962460 1_545
Mg1 O16 1.962460 1_455
Mg2 O13 1.929273 1_555
Mg2 O18 1.930670 1_565
Mg2 O15 1.930670 1_655
Mg2 O22 1.985413 1_555
Mg3 O30 1.904459 1_555
Mg3 O20 1.930893 1_555
Mg3 O26 1.933768 1_555
Mg3 O23 1.933768 1_555
Al0 O6 1.745233 1_555
Al0 O38 1.854102 1_546
Al0 O39 1.854102 1_456
Al0 O36 1.874680 1_446
Al1 O1 1.748360 1_555
Al1 O0 1.748360 1_555
Al1 O3 1.809012 1_555
Al1 O33 1.920122 1_556
Al2 O0 1.798264 1_565
Al2 O1 1.798264 1_655
Al2 O3 1.944903 1_555
Al2 O36 1.973239 1_556
Al2 O39 2.126174 1_556
Al2 O38 2.126174 1_556
Al3 O2 1.805115 1_555
Al3 O6 1.908911 1_565
Al3 O10 1.933684 1_555
Al3 O4 1.985451 1_565
Al3 O0 1.986008 1_565
Al3 O3 2.056070 1_555
Al4 O5 1.870327 1_455
Al4 O9 1.870327 1_545
Al4 O15 1.938515 1_555
Al4 O18 1.938515 1_555
Al4 O8 1.940277 1_555
Al4 O14 1.959808 1_555
Al5 O2 1.805115 1_555
Al5 O6 1.908911 1_655
Al5 O7 1.933684 1_555
Al5 O4 1.985451 1_655
Al5 O1 1.986008 1_655
Al5 O3 2.056070 1_555
Al6 O10 1.769868 1_555
Al6 O7 1.769868 1_555
Al6 O4 1.849238 1_555
Al6 O14 1.864915 1_555
Al7 O7 1.848374 1_455
Al7 O10 1.848374 1_545
Al7 O11 1.923553 1_445
Al7 O9 2.006464 1_545
Al7 O5 2.006464 1_455
Al7 O4 2.026752 1_555
Al8 O5 1.879804 1_555
Al8 O11 1.901126 1_545
Al8 O8 1.930508 1_655
Al8 O18 1.930811 1_555
Al8 O13 1.936487 1_555
Al8 O14 1.972419 1_555
Al9 O16 1.890439 1_555
Al9 O12 1.890439 1_555
Al9 O26 1.902525 1_655
Al9 O23 1.902525 1_565
Al9 O22 1.918938 1_555
Al9 O17 2.030718 1_555
Al10 O9 1.879804 1_555
Al10 O11 1.901126 1_455
Al10 O8 1.930508 1_565
Al10 O15 1.930811 1_555
Al10 O13 1.936487 1_555
Al10 O14 1.972419 1_555
Al11 O13 1.892181 1_555
Al11 O18 1.892439 1_555
Al11 O15 1.892439 1_555
Al11 O19 1.961106 1_555
Al11 O12 1.962106 1_555
Al11 O16 1.962106 1_555
Al12 O27 1.830987 1_555
Al12 O21 1.837431 1_555
Al12 O24 1.837431 1_555
Al12 O17 1.858971 1_555
Al13 O12 1.889162 1_555
Al13 O19 1.894212 1_555
Al13 O26 1.900797 1_555
Al13 O20 1.906209 1_565
Al13 O22 1.921696 1_455
Al13 O17 2.033165 1_555
Al14 O16 1.889162 1_555
Al14 O19 1.894212 1_555
Al14 O23 1.900797 1_555
Al14 O20 1.906209 1_655
Al14 O22 1.921696 1_545
Al14 O17 2.033165 1_555
Al15 O35 1.833475 1_545
Al15 O32 1.833475 1_455
Al15 O30 1.934224 1_555
Al15 O25 1.955175 1_445
Al15 O24 2.031085 1_545
Al15 O21 2.031085 1_455
Al16 O20 1.903570 1_665
Al16 O26 1.904060 1_655
Al16 O23 1.904060 1_565
Al16 O27 1.942226 1_555
Al16 O21 1.946776 1_565
Al16 O24 1.946776 1_655
Al17 O35 1.832516 1_545
Al17 O29 1.836372 1_555
Al17 O30 1.938934 1_555
Al17 O25 1.957853 1_545
Al17 O21 2.024409 1_555
Al17 O27 2.035207 1_545
Al18 O25 1.822225 1_555
Al18 O34 1.857975 1_665
Al18 O28 1.859901 1_655
Al18 O31 1.859901 1_565
Al19 O32 1.832516 1_455
Al19 O29 1.836372 1_555
Al19 O30 1.938934 1_555
Al19 O25 1.957853 1_455
Al19 O24 2.024409 1_555
Al19 O27 2.035207 1_455
Al20 O37 1.820274 1_555
Al20 O39 1.947412 1_555
Al20 O38 1.947412 1_555
Al20 O33 1.950087 1_555
Al20 O31 1.975723 1_555
Al20 O28 1.975723 1_555
Al21 O37 1.810968 1_555
Al21 O33 1.954248 1_655
Al21 O39 1.959664 1_555
Al21 O28 1.960893 1_655
Al21 O34 1.967025 1_655
Al21 O36 2.006288 1_555
Al22 O29 1.860234 1_555
Al22 O35 1.861308 1_545
Al22 O32 1.861308 1_455
Al22 O34 2.028817 1_555
Al22 O31 2.033919 1_555
Al22 O28 2.033919 1_555
Al23 O37 1.810968 1_555
Al23 O33 1.954248 1_565
Al23 O38 1.959664 1_555
Al23 O31 1.960893 1_565
Al23 O34 1.967025 1_565
Al23 O36 2.006288 1_555
