# generated using pymatgen
data_Cd(GaO2)2
_symmetry_space_group_name_H-M   'P 1'
_cell_length_a   20.66903705
_cell_length_b   20.66903705
_cell_length_c   20.66903727
_cell_angle_alpha   17.16675742
_cell_angle_beta   17.16675742
_cell_angle_gamma   17.16675837
_symmetry_Int_Tables_number   1
_chemical_formula_structural   Cd(GaO2)2
_chemical_formula_sum   'Cd8 Ga16 O32'
_cell_volume   671.15730410
_cell_formula_units_Z   8
loop_
 _symmetry_equiv_pos_site_id
 _symmetry_equiv_pos_as_xyz
  1  'x, y, z'
loop_
 _atom_site_type_symbol
 _atom_site_label
 _atom_site_symmetry_multiplicity
 _atom_site_fract_x
 _atom_site_fract_y
 _atom_site_fract_z
 _atom_site_occupancy
  Cd  Cd0  1  0.68805400  0.68805400  0.68805400  1
  Cd  Cd1  1  0.43825000  0.43825000  0.43825000  1
  Cd  Cd2  1  0.49891400  0.49891400  0.49891400  1
  Cd  Cd3  1  0.34289600  0.34289600  0.34289600  1
  Cd  Cd4  1  0.18819700  0.18819700  0.18819700  1
  Cd  Cd5  1  0.25065300  0.25065300  0.25065300  1
  Cd  Cd6  1  0.09461400  0.09461400  0.09461400  1
  Cd  Cd7  1  0.93733900  0.93733900  0.93733900  1
  Ga  Ga0  1  0.99899400  0.99899400  0.99899400  1
  Ga  Ga1  1  0.74815900  0.74815900  0.74815900  1
  Ga  Ga2  1  0.70934300  0.22338400  0.22338400  1
  Ga  Ga3  1  0.22338400  0.22338400  0.70934300  1
  Ga  Ga4  1  0.46458400  0.97226400  0.97226400  1
  Ga  Ga5  1  0.22338400  0.70934300  0.22338400  1
  Ga  Ga6  1  0.97226400  0.97226400  0.46458400  1
  Ga  Ga7  1  0.21779300  0.71888400  0.71888400  1
  Ga  Ga8  1  0.97226400  0.46458400  0.97226400  1
  Ga  Ga9  1  0.84389400  0.84389400  0.84389400  1
  Ga  Ga10  1  0.71888400  0.71888400  0.21779300  1
  Ga  Ga11  1  0.95978700  0.47223700  0.47223700  1
  Ga  Ga12  1  0.71888400  0.21779300  0.71888400  1
  Ga  Ga13  1  0.47223700  0.47223700  0.95978700  1
  Ga  Ga14  1  0.59287400  0.59287400  0.59287400  1
  Ga  Ga15  1  0.47223700  0.95978700  0.47223700  1
  O  O0  1  0.51853000  0.06878500  0.51853000  1
  O  O1  1  0.40297400  0.40297400  0.40297400  1
  O  O2  1  0.51853000  0.51853000  0.06878500  1
  O  O3  1  0.06878500  0.51853000  0.51853000  1
  O  O4  1  0.27302800  0.81489800  0.27302800  1
  O  O5  1  0.39333700  0.90786500  0.90786500  1
  O  O6  1  0.90786500  0.90786500  0.39333700  1
  O  O7  1  0.15342700  0.15342700  0.15342700  1
  O  O8  1  0.03165700  0.03165700  0.03165700  1
  O  O9  1  0.27302800  0.27302800  0.81489800  1
  O  O10  1  0.81489800  0.27302800  0.27302800  1
  O  O11  1  0.90786500  0.39333700  0.90786500  1
  O  O12  1  0.00854300  0.58212900  0.00854300  1
  O  O13  1  0.09958500  0.68258400  0.68258400  1
  O  O14  1  0.90186700  0.90186700  0.90186700  1
  O  O15  1  0.00854300  0.00854300  0.58212900  1
  O  O16  1  0.68258400  0.68258400  0.09958500  1
  O  O17  1  0.78003200  0.78003200  0.78003200  1
  O  O18  1  0.58212900  0.00854300  0.00854300  1
  O  O19  1  0.68258400  0.09958500  0.68258400  1
  O  O20  1  0.85829100  0.42784100  0.42784100  1
  O  O21  1  0.75631500  0.33321500  0.75631500  1
  O  O22  1  0.42784100  0.42784100  0.85829100  1
  O  O23  1  0.65176300  0.65176300  0.65176300  1
  O  O24  1  0.53547200  0.53547200  0.53547200  1
  O  O25  1  0.75631500  0.75631500  0.33321500  1
  O  O26  1  0.33321500  0.75631500  0.75631500  1
  O  O27  1  0.42784100  0.85829100  0.42784100  1
  O  O28  1  0.65765400  0.15009200  0.15009200  1
  O  O29  1  0.15009200  0.15009200  0.65765400  1
  O  O30  1  0.28743500  0.28743500  0.28743500  1
  O  O31  1  0.15009200  0.65765400  0.15009200  1
loop_
_geom_bond_atom_site_label_1
_geom_bond_atom_site_label_2
_geom_bond_distance
_geom_bond_site_symmetry_2
Cd0 O2 2.135873 1_556
Cd0 O0 2.135873 1_565
Cd0 O3 2.135873 1_655
Cd0 O23 2.216631 1_555
Cd1 O9 2.147199 1_555
Cd1 O4 2.147199 1_555
Cd1 O10 2.147199 1_555
Cd1 O1 2.154636 1_555
Cd2 O16 2.176404 1_555
Cd2 O19 2.176404 1_555
Cd2 O13 2.176404 1_555
Cd2 O24 2.232939 1_555
Cd3 O2 2.243696 1_555
Cd3 O3 2.243696 1_555
Cd3 O0 2.243696 1_555
Cd3 O29 2.312898 1_555
Cd3 O31 2.312898 1_555
Cd3 O28 2.312898 1_555
Cd4 O7 2.123729 1_555
Cd4 O15 2.161332 1_555
Cd4 O18 2.161332 1_555
Cd4 O12 2.161332 1_555
Cd5 O22 2.171177 1_554
Cd5 O27 2.171177 1_545
Cd5 O20 2.171177 1_455
Cd5 O30 2.246621 1_555
Cd6 O9 2.264483 1_554
Cd6 O4 2.264483 1_545
Cd6 O10 2.264483 1_455
Cd6 O6 2.303931 1_445
Cd6 O5 2.303931 1_544
Cd6 O11 2.303931 1_454
Cd7 O14 2.166607 1_555
Cd7 O25 2.167290 1_556
Cd7 O26 2.167290 1_655
Cd7 O21 2.167290 1_565
Ga0 O29 1.926648 1_665
Ga0 O31 1.926648 1_656
Ga0 O28 1.926648 1_566
Ga0 O8 1.995035 1_666
Ga1 O17 1.946782 1_555
Ga1 O6 1.969470 1_555
Ga1 O11 1.969470 1_555
Ga1 O5 1.969470 1_555
Ga2 O0 1.958850 1_555
Ga2 O2 1.958851 1_555
Ga2 O1 2.037766 1_555
Ga2 O11 2.083070 1_554
Ga2 O6 2.083070 1_545
Ga2 O8 2.214096 1_655
Ga3 O0 1.958851 1_555
Ga3 O3 1.958851 1_555
Ga3 O1 2.037766 1_555
Ga3 O11 2.083070 1_455
Ga3 O5 2.083070 1_545
Ga3 O8 2.214096 1_556
Ga4 O4 1.959071 1_556
Ga4 O9 1.959071 1_565
Ga4 O19 2.018361 1_565
Ga4 O16 2.018361 1_556
Ga4 O7 2.039773 1_566
Ga4 O17 2.290128 1_555
Ga5 O3 1.958850 1_555
Ga5 O2 1.958851 1_555
Ga5 O1 2.037766 1_555
Ga5 O5 2.083070 1_554
Ga5 O6 2.083070 1_455
Ga5 O8 2.214096 1_565
Ga6 O10 1.959071 1_565
Ga6 O4 1.959071 1_655
Ga6 O19 2.018361 1_565
Ga6 O13 2.018361 1_655
Ga6 O7 2.039773 1_665
Ga6 O17 2.290128 1_555
Ga7 O12 2.020406 1_556
Ga7 O15 2.020406 1_565
Ga7 O24 2.046232 1_555
Ga7 O14 2.048457 1_455
Ga7 O27 2.052904 1_555
Ga7 O22 2.052905 1_555
Ga8 O10 1.959071 1_556
Ga8 O9 1.959071 1_655
Ga8 O13 2.018361 1_655
Ga8 O16 2.018361 1_556
Ga8 O7 2.039773 1_656
Ga8 O17 2.290128 1_555
Ga9 O16 2.015735 1_556
Ga9 O13 2.015735 1_655
Ga9 O19 2.015735 1_565
Ga9 O15 2.048801 1_665
Ga9 O18 2.048801 1_566
Ga9 O12 2.048801 1_656
Ga10 O12 2.020406 1_655
Ga10 O18 2.020406 1_565
Ga10 O24 2.046232 1_555
Ga10 O14 2.048457 1_554
Ga10 O20 2.052905 1_555
Ga10 O27 2.052905 1_555
Ga11 O30 2.015357 1_655
Ga11 O21 2.021033 1_555
Ga11 O25 2.021033 1_555
Ga11 O23 2.023709 1_555
Ga11 O31 2.119052 1_655
Ga11 O29 2.119052 1_655
Ga12 O18 2.020406 1_556
Ga12 O15 2.020406 1_655
Ga12 O24 2.046232 1_555
Ga12 O14 2.048457 1_545
Ga12 O20 2.052904 1_555
Ga12 O22 2.052905 1_555
Ga13 O30 2.015357 1_556
Ga13 O26 2.021033 1_555
Ga13 O21 2.021033 1_555
Ga13 O23 2.023708 1_555
Ga13 O31 2.119052 1_556
Ga13 O28 2.119052 1_556
Ga14 O22 2.020753 1_555
Ga14 O27 2.020753 1_555
Ga14 O20 2.020753 1_555
Ga14 O25 2.035816 1_555
Ga14 O26 2.035816 1_555
Ga14 O21 2.035816 1_555
Ga15 O30 2.015357 1_565
Ga15 O26 2.021033 1_555
Ga15 O25 2.021033 1_555
Ga15 O23 2.023709 1_555
Ga15 O28 2.119052 1_565
Ga15 O29 2.119052 1_565
