# generated using pymatgen
data_Mo4O11
_symmetry_space_group_name_H-M   'P 1'
_cell_length_a   5.63016700
_cell_length_b   6.94745300
_cell_length_c   25.09371700
_cell_angle_alpha   90.00000000
_cell_angle_beta   90.00000000
_cell_angle_gamma   90.00000000
_symmetry_Int_Tables_number   1
_chemical_formula_structural   Mo4O11
_chemical_formula_sum   'Mo16 O44'
_cell_volume   981.54878587
_cell_formula_units_Z   4
loop_
 _symmetry_equiv_pos_site_id
 _symmetry_equiv_pos_as_xyz
  1  'x, y, z'
loop_
 _atom_site_type_symbol
 _atom_site_label
 _atom_site_symmetry_multiplicity
 _atom_site_fract_x
 _atom_site_fract_y
 _atom_site_fract_z
 _atom_site_occupancy
  Mo  Mo0  1  0.25000000  0.62989700  0.70486400  1
  Mo  Mo1  1  0.25000000  0.87010300  0.20486400  1
  Mo  Mo2  1  0.75000000  0.37010300  0.29513600  1
  Mo  Mo3  1  0.75000000  0.12989700  0.79513600  1
  Mo  Mo4  1  0.75000000  0.30103900  0.64760800  1
  Mo  Mo5  1  0.75000000  0.19896100  0.14760800  1
  Mo  Mo6  1  0.25000000  0.69896100  0.35239200  1
  Mo  Mo7  1  0.25000000  0.80103900  0.85239200  1
  Mo  Mo8  1  0.25000000  0.97807300  0.58615500  1
  Mo  Mo9  1  0.25000000  0.52192700  0.08615500  1
  Mo  Mo10  1  0.75000000  0.02192700  0.41384500  1
  Mo  Mo11  1  0.75000000  0.47807300  0.91384500  1
  Mo  Mo12  1  0.75000000  0.65401700  0.52925200  1
  Mo  Mo13  1  0.75000000  0.84598300  0.02925200  1
  Mo  Mo14  1  0.25000000  0.34598300  0.47074800  1
  Mo  Mo15  1  0.25000000  0.15401700  0.97074800  1
  O  O0  1  0.00000000  0.50000000  0.50000000  1
  O  O1  1  0.50000000  0.00000000  0.00000000  1
  O  O2  1  0.50000000  0.50000000  0.50000000  1
  O  O3  1  0.00000000  0.00000000  0.00000000  1
  O  O4  1  0.99634000  0.15489700  0.62771100  1
  O  O5  1  0.50366000  0.34510300  0.12771100  1
  O  O6  1  0.49634000  0.84510300  0.37228900  1
  O  O7  1  0.00366000  0.65489700  0.87228900  1
  O  O8  1  0.00366000  0.84510300  0.37228900  1
  O  O9  1  0.49634000  0.65489700  0.87228900  1
  O  O10  1  0.50366000  0.15489700  0.62771100  1
  O  O11  1  0.99634000  0.34510300  0.12771100  1
  O  O12  1  0.00616900  0.82761200  0.56494200  1
  O  O13  1  0.49383100  0.67238800  0.06494200  1
  O  O14  1  0.50616900  0.17238800  0.43505800  1
  O  O15  1  0.99383100  0.32761200  0.93505800  1
  O  O16  1  0.99383100  0.17238800  0.43505800  1
  O  O17  1  0.50616900  0.32761200  0.93505800  1
  O  O18  1  0.49383100  0.82761200  0.56494200  1
  O  O19  1  0.00616900  0.67238800  0.06494200  1
  O  O20  1  0.99354000  0.49021500  0.69003600  1
  O  O21  1  0.50646000  0.00978500  0.19003600  1
  O  O22  1  0.49354000  0.50978500  0.30996400  1
  O  O23  1  0.00646000  0.99021500  0.80996400  1
  O  O24  1  0.00646000  0.50978500  0.30996400  1
  O  O25  1  0.49354000  0.99021500  0.80996400  1
  O  O26  1  0.50646000  0.49021500  0.69003600  1
  O  O27  1  0.99354000  0.00978500  0.19003600  1
  O  O28  1  0.25000000  0.15562100  0.53356100  1
  O  O29  1  0.25000000  0.34437900  0.03356100  1
  O  O30  1  0.75000000  0.84437900  0.46643900  1
  O  O31  1  0.75000000  0.65562100  0.96643900  1
  O  O32  1  0.75000000  0.47734600  0.59560500  1
  O  O33  1  0.75000000  0.02265400  0.09560500  1
  O  O34  1  0.25000000  0.52265400  0.40439500  1
  O  O35  1  0.25000000  0.97734600  0.90439500  1
  O  O36  1  0.25000000  0.84137000  0.66363300  1
  O  O37  1  0.25000000  0.65863000  0.16363300  1
  O  O38  1  0.75000000  0.15863000  0.33636700  1
  O  O39  1  0.75000000  0.34137000  0.83636700  1
  O  O40  1  0.75000000  0.18275400  0.72468200  1
  O  O41  1  0.75000000  0.31724600  0.22468200  1
  O  O42  1  0.25000000  0.81724600  0.27531800  1
  O  O43  1  0.25000000  0.68275400  0.77531800  1
loop_
_geom_bond_atom_site_label_1
_geom_bond_atom_site_label_2
_geom_bond_distance
_geom_bond_site_symmetry_2
Mo0 O20 1.779066 1_455
Mo0 O26 1.779066 1_555
Mo0 O36 1.796948 1_555
Mo0 O43 1.805688 1_555
Mo1 O27 1.779066 1_465
Mo1 O21 1.779066 1_565
Mo1 O37 1.796948 1_555
Mo1 O42 1.805688 1_555
Mo2 O24 1.779066 1_655
Mo2 O22 1.779066 1_555
Mo2 O38 1.796948 1_555
Mo2 O41 1.805688 1_555
Mo3 O23 1.779066 1_645
Mo3 O25 1.779066 1_545
Mo3 O39 1.796948 1_555
Mo3 O40 1.805688 1_555
Mo4 O32 1.789758 1_555
Mo4 O10 1.789900 1_555
Mo4 O4 1.789900 1_555
Mo4 O40 2.101419 1_555
Mo4 O26 2.177385 1_555
Mo4 O20 2.177385 1_555
Mo5 O33 1.789758 1_555
Mo5 O11 1.789900 1_555
Mo5 O5 1.789900 1_555
Mo5 O41 2.101419 1_555
Mo5 O21 2.177385 1_555
Mo5 O27 2.177385 1_555
Mo6 O34 1.789758 1_555
Mo6 O6 1.789900 1_555
Mo6 O8 1.789900 1_555
Mo6 O42 2.101419 1_555
Mo6 O24 2.177385 1_555
Mo6 O22 2.177385 1_555
Mo7 O35 1.789758 1_555
Mo7 O7 1.789900 1_555
Mo7 O9 1.789900 1_555
Mo7 O43 2.101419 1_555
Mo7 O23 2.177385 1_555
Mo7 O25 2.177385 1_555
Mo8 O12 1.805729 1_555
Mo8 O18 1.805729 1_555
Mo8 O28 1.806476 1_565
Mo8 O10 2.153179 1_565
Mo8 O4 2.153179 1_465
Mo8 O36 2.163783 1_555
Mo9 O19 1.805729 1_555
Mo9 O13 1.805729 1_555
Mo9 O29 1.806476 1_555
Mo9 O5 2.153179 1_555
Mo9 O11 2.153179 1_455
Mo9 O37 2.163783 1_555
Mo10 O16 1.805729 1_555
Mo10 O14 1.805729 1_555
Mo10 O30 1.806476 1_545
Mo10 O8 2.153179 1_645
Mo10 O6 2.153179 1_545
Mo10 O38 2.163783 1_555
Mo11 O15 1.805729 1_555
Mo11 O17 1.805729 1_555
Mo11 O31 1.806476 1_555
Mo11 O7 2.153179 1_655
Mo11 O9 2.153179 1_555
Mo11 O39 2.163783 1_555
Mo12 O2 1.914405 1_555
Mo12 O0 1.914405 1_655
Mo12 O30 2.057555 1_555
Mo12 O32 2.068553 1_555
Mo12 O18 2.082495 1_555
Mo12 O12 2.082495 1_655
Mo13 O1 1.914405 1_565
Mo13 O3 1.914405 1_665
Mo13 O31 2.057555 1_554
Mo13 O33 2.068553 1_565
Mo13 O13 2.082495 1_555
Mo13 O19 2.082495 1_655
Mo14 O2 1.914405 1_555
Mo14 O0 1.914405 1_555
Mo14 O28 2.057555 1_555
Mo14 O34 2.068553 1_555
Mo14 O14 2.082495 1_555
Mo14 O16 2.082495 1_455
Mo15 O1 1.914405 1_556
Mo15 O3 1.914405 1_556
Mo15 O29 2.057555 1_556
Mo15 O35 2.068553 1_545
Mo15 O17 2.082495 1_555
Mo15 O15 2.082495 1_455
