# generated using pymatgen
data_CsRb(MnCl3)2
_symmetry_space_group_name_H-M   'P 1'
_cell_length_a   14.46822960
_cell_length_b   14.46823639
_cell_length_c   12.00490066
_cell_angle_alpha   90.00000000
_cell_angle_beta   90.00000000
_cell_angle_gamma   120.00001506
_symmetry_Int_Tables_number   1
_chemical_formula_structural   CsRb(MnCl3)2
_chemical_formula_sum   'Cs8 Rb8 Mn16 Cl48'
_cell_volume   2176.30682620
_cell_formula_units_Z   8
loop_
 _symmetry_equiv_pos_site_id
 _symmetry_equiv_pos_as_xyz
  1  'x, y, z'
loop_
 _atom_site_type_symbol
 _atom_site_label
 _atom_site_symmetry_multiplicity
 _atom_site_fract_x
 _atom_site_fract_y
 _atom_site_fract_z
 _atom_site_occupancy
  Cs  Cs0  1  0.50000000  0.00000000  -0.00000000  1
  Cs  Cs1  1  0.66666692  0.33333296  0.75000000  1
  Cs  Cs2  1  0.00000000  0.50000000  -0.00000000  1
  Cs  Cs3  1  0.50000000  0.00000000  0.50000000  1
  Cs  Cs4  1  0.33333308  0.66666704  0.25000000  1
  Cs  Cs5  1  0.50000000  0.50000000  -0.00000000  1
  Cs  Cs6  1  0.00000000  0.50000000  0.50000000  1
  Cs  Cs7  1  0.50000000  0.50000000  0.50000000  1
  Rb  Rb0  1  0.00000000  0.00000000  -0.00000000  1
  Rb  Rb1  1  0.16613227  0.33226541  0.75000000  1
  Rb  Rb2  1  0.83386773  0.16613214  0.25000000  1
  Rb  Rb3  1  0.16613227  0.83386786  0.75000000  1
  Rb  Rb4  1  0.66773472  0.83386786  0.75000000  1
  Rb  Rb5  1  0.00000000  0.00000000  0.50000000  1
  Rb  Rb6  1  0.33226528  0.16613214  0.25000000  1
  Rb  Rb7  1  0.83386773  0.66773459  0.25000000  1
  Mn  Mn0  1  0.83424180  0.66848399  0.88238680  1
  Mn  Mn1  1  0.66848365  0.83424183  0.38238644  1
  Mn  Mn2  1  0.83424180  0.66848399  0.61761320  1
  Mn  Mn3  1  0.66848365  0.83424183  0.11761356  1
  Mn  Mn4  1  0.16575820  0.33151601  0.11761320  1
  Mn  Mn5  1  0.16575820  0.33151601  0.38238680  1
  Mn  Mn6  1  0.16575820  0.83424219  0.38238680  1
  Mn  Mn7  1  0.66666654  0.33333277  0.11753357  1
  Mn  Mn8  1  0.33151635  0.16575817  0.61761356  1
  Mn  Mn9  1  0.16575820  0.83424219  0.11761320  1
  Mn  Mn10  1  0.83424180  0.16575781  0.61761320  1
  Mn  Mn11  1  0.83424180  0.16575781  0.88238680  1
  Mn  Mn12  1  0.33151635  0.16575817  0.88238644  1
  Mn  Mn13  1  0.33333346  0.66666723  0.61753357  1
  Mn  Mn14  1  0.66666654  0.33333277  0.38246643  1
  Mn  Mn15  1  0.33333346  0.66666723  0.88246643  1
  Cl  Cl0  1  0.41239807  0.82479606  0.75000000  1
  Cl  Cl1  1  0.00000000  0.75297226  -0.00000000  1
  Cl  Cl2  1  0.67600357  0.08555140  0.75000000  1
  Cl  Cl3  1  -0.00000000  0.24702774  0.50000000  1
  Cl  Cl4  1  0.24702779  0.00000000  0.50000000  1
  Cl  Cl5  1  0.24913084  0.75086917  0.50157556  1
  Cl  Cl6  1  0.50173834  0.75086917  0.50157558  1
  Cl  Cl7  1  0.17292665  0.08646382  0.75000000  1
  Cl  Cl8  1  0.59045215  0.67600363  0.25000000  1
  Cl  Cl9  1  0.24913084  0.49826167  0.50157556  1
  Cl  Cl10  1  0.59045215  0.91444852  0.25000000  1
  Cl  Cl11  1  0.67600357  0.59045217  0.75000000  1
  Cl  Cl12  1  0.58760193  0.17520394  0.25000000  1
  Cl  Cl13  1  -0.00000000  0.24702774  -0.00000000  1
  Cl  Cl14  1  0.32399643  0.91444860  0.25000000  1
  Cl  Cl15  1  0.24702779  0.00000000  1.00000000  1
  Cl  Cl16  1  0.82479616  0.41239808  0.25000000  1
  Cl  Cl17  1  0.50173834  0.75086917  0.99842442  1
  Cl  Cl18  1  0.58760193  0.41239799  0.25000000  1
  Cl  Cl19  1  0.40954785  0.08555148  0.75000000  1
  Cl  Cl20  1  0.08555144  0.67600382  0.25000000  1
  Cl  Cl21  1  0.75086916  0.24913083  0.49842444  1
  Cl  Cl22  1  0.91353657  0.08646369  0.75000000  1
  Cl  Cl23  1  0.40954785  0.32399637  0.75000000  1
  Cl  Cl24  1  0.24702779  0.24702779  1.00000000  1
  Cl  Cl25  1  0.75297221  1.00000000  0.00000000  1
  Cl  Cl26  1  0.08646343  0.17292612  0.25000000  1
  Cl  Cl27  1  0.49826166  0.24913083  0.00157558  1
  Cl  Cl28  1  0.75297221  1.00000000  0.50000000  1
  Cl  Cl29  1  0.24702779  0.24702779  0.50000000  1
  Cl  Cl30  1  0.82707335  0.91353618  0.25000000  1
  Cl  Cl31  1  0.32399643  0.40954783  0.25000000  1
  Cl  Cl32  1  0.75297221  0.75297221  0.00000000  1
  Cl  Cl33  1  0.08646343  0.91353631  0.25000000  1
  Cl  Cl34  1  0.75086916  0.50173833  0.00157556  1
  Cl  Cl35  1  0.91444856  0.59045238  0.75000000  1
  Cl  Cl36  1  0.49826166  0.24913083  0.49842442  1
  Cl  Cl37  1  0.24913084  0.75086917  0.99842444  1
  Cl  Cl38  1  0.00000000  0.75297226  0.50000000  1
  Cl  Cl39  1  0.17520384  0.58760192  0.75000000  1
  Cl  Cl40  1  0.91353657  0.82707388  0.75000000  1
  Cl  Cl41  1  0.08555144  0.40954762  0.25000000  1
  Cl  Cl42  1  0.91444856  0.32399618  0.75000000  1
  Cl  Cl43  1  0.75086916  0.24913083  0.00157556  1
  Cl  Cl44  1  0.75086916  0.50173833  0.49842444  1
  Cl  Cl45  1  0.41239807  0.58760201  0.75000000  1
  Cl  Cl46  1  0.75297221  0.75297221  0.50000000  1
  Cl  Cl47  1  0.24913084  0.49826167  0.99842444  1
loop_
_geom_bond_atom_site_label_1
_geom_bond_atom_site_label_2
_geom_bond_distance
_geom_bond_site_symmetry_2
Cl0 Mn13 2.540582 1_555
Cl0 Mn15 2.540582 1_555
Cl0 Rb4 3.630423 1_555
Cl0 Rb3 3.630437 1_555
Cl0 Cs3 3.718415 1_565
Cl0 Cs0 3.718415 1_566
Cl1 Mn9 2.511518 1_555
Cl1 Mn0 2.511518 1_454
Cl1 Rb0 3.574056 1_565
Cl1 Rb3 3.652595 1_554
Cl1 Rb7 3.652595 1_455
Cl1 Cs2 3.660062 1_555
Cl2 Mn11 2.541102 1_555
Cl2 Mn10 2.541102 1_555
Cl2 Rb4 3.583097 1_545
Cl2 Cs1 3.654378 1_555
Cl2 Cs0 3.724507 1_556
Cl2 Cs3 3.724507 1_555
Cl3 Mn10 2.511518 1_455
Cl3 Mn5 2.511518 1_555
Cl3 Rb5 3.574056 1_555
Cl3 Rb2 3.652595 1_455
Cl3 Rb1 3.652595 1_555
Cl3 Cs6 3.660062 1_555
Cl4 Mn6 2.511515 1_545
Cl4 Mn8 2.511521 1_555
Cl4 Rb5 3.574055 1_555
Cl4 Rb3 3.652595 1_545
Cl4 Rb6 3.652595 1_555
Cl4 Cs3 3.660060 1_555
Cl5 Mn13 2.527905 1_555
Cl5 Mn6 2.532292 1_555
Cl5 Cs3 3.617172 1_565
Cl5 Cs6 3.617173 1_555
Cl5 Rb3 3.635967 1_555
Cl5 Cs4 3.684249 1_555
Cl6 Mn13 2.527907 1_555
Cl6 Mn1 2.532290 1_555
Cl6 Cs3 3.617174 1_565
Cl6 Cs7 3.617174 1_555
Cl6 Rb4 3.635960 1_555
Cl6 Cs4 3.684255 1_555
Cl7 Mn12 2.544488 1_555
Cl7 Mn8 2.544488 1_555
Cl7 Rb3 3.606472 1_545
Cl7 Rb1 3.606472 1_555
Cl7 Rb5 3.701640 1_555
Cl7 Rb0 3.701640 1_556
Cl8 Mn3 2.541099 1_555
Cl8 Mn1 2.541099 1_555
Cl8 Rb7 3.583110 1_555
Cl8 Cs4 3.654389 1_555
Cl8 Cs7 3.724508 1_555
Cl8 Cs5 3.724508 1_555
Cl9 Mn13 2.527915 1_555
Cl9 Mn5 2.532292 1_555
Cl9 Cs7 3.617172 1_555
Cl9 Cs6 3.617173 1_555
Cl9 Rb1 3.635959 1_555
Cl9 Cs4 3.684257 1_555
Cl10 Mn3 2.541099 1_555
Cl10 Mn1 2.541099 1_555
Cl10 Rb2 3.583102 1_565
Cl10 Cs4 3.654382 1_555
Cl10 Cs3 3.724508 1_565
Cl10 Cs0 3.724508 1_565
Cl11 Mn0 2.541102 1_555
Cl11 Mn2 2.541102 1_555
Cl11 Rb4 3.583112 1_555
Cl11 Cs1 3.654392 1_555
Cl11 Cs5 3.724507 1_556
Cl11 Cs7 3.724507 1_555
Cl12 Mn7 2.540582 1_555
Cl12 Mn14 2.540582 1_555
Cl12 Rb6 3.630423 1_555
Cl12 Rb2 3.630437 1_555
Cl12 Cs3 3.718415 1_555
Cl12 Cs0 3.718415 1_555
Cl13 Mn11 2.511518 1_454
Cl13 Mn4 2.511518 1_555
Cl13 Rb0 3.574056 1_555
Cl13 Rb2 3.652595 1_455
Cl13 Rb1 3.652595 1_554
Cl13 Cs2 3.660062 1_555
Cl14 Mn6 2.541102 1_555
Cl14 Mn9 2.541102 1_555
Cl14 Rb6 3.583097 1_565
Cl14 Cs4 3.654378 1_555
Cl14 Cs0 3.724507 1_565
Cl14 Cs3 3.724507 1_565
Cl15 Mn9 2.511515 1_546
Cl15 Mn12 2.511521 1_555
Cl15 Rb0 3.574055 1_556
Cl15 Rb3 3.652595 1_545
Cl15 Rb6 3.652595 1_556
Cl15 Cs0 3.660060 1_556
Cl16 Mn7 2.540589 1_555
Cl16 Mn14 2.540589 1_555
Cl16 Rb7 3.630424 1_555
Cl16 Rb2 3.630438 1_555
Cl16 Cs2 3.718414 1_655
Cl16 Cs6 3.718414 1_655
Cl17 Mn15 2.527907 1_555
Cl17 Mn3 2.532290 1_556
Cl17 Cs0 3.617174 1_566
Cl17 Cs5 3.617174 1_556
Cl17 Rb4 3.635960 1_555
Cl17 Cs4 3.684255 1_556
Cl18 Mn14 2.540592 1_555
Cl18 Mn7 2.540592 1_555
Cl18 Rb7 3.630429 1_555
Cl18 Rb6 3.630430 1_555
Cl18 Cs7 3.718415 1_555
Cl18 Cs5 3.718415 1_555
Cl19 Mn8 2.541099 1_555
Cl19 Mn12 2.541099 1_555
Cl19 Rb3 3.583102 1_545
Cl19 Cs1 3.654382 1_555
Cl19 Cs0 3.724508 1_556
Cl19 Cs3 3.724508 1_555
Cl20 Mn6 2.541104 1_555
Cl20 Mn9 2.541104 1_555
Cl20 Rb7 3.583095 1_455
Cl20 Cs4 3.654378 1_555
Cl20 Cs2 3.724509 1_555
Cl20 Cs6 3.724509 1_555
Cl21 Mn14 2.527905 1_555
Cl21 Mn10 2.532292 1_555
Cl21 Cs3 3.617172 1_555
Cl21 Cs6 3.617173 1_655
Cl21 Rb2 3.635967 1_555
Cl21 Cs1 3.684249 1_555
Cl22 Mn11 2.544483 1_555
Cl22 Mn10 2.544483 1_555
Cl22 Rb1 3.606469 1_655
Cl22 Rb4 3.606471 1_545
Cl22 Rb0 3.701644 1_656
Cl22 Rb5 3.701644 1_655
Cl23 Mn8 2.541099 1_555
Cl23 Mn12 2.541099 1_555
Cl23 Rb1 3.583110 1_555
Cl23 Cs1 3.654389 1_555
Cl23 Cs5 3.724508 1_556
Cl23 Cs7 3.724508 1_555
Cl24 Mn4 2.511515 1_556
Cl24 Mn12 2.511521 1_555
Cl24 Rb0 3.574055 1_556
Cl24 Rb6 3.652602 1_556
Cl24 Rb1 3.652602 1_555
Cl24 Cs5 3.660060 1_556
Cl25 Mn11 2.511515 1_564
Cl25 Mn3 2.511521 1_555
Cl25 Rb0 3.574055 1_665
Cl25 Rb2 3.652595 1_565
Cl25 Rb4 3.652595 1_554
Cl25 Cs0 3.660060 1_565
Cl26 Mn5 2.544493 1_555
Cl26 Mn4 2.544493 1_555
Cl26 Rb2 3.606469 1_455
Cl26 Rb6 3.606471 1_555
Cl26 Rb0 3.701637 1_555
Cl26 Rb5 3.701637 1_555
Cl27 Mn7 2.527907 1_555
Cl27 Mn12 2.532290 1_554
Cl27 Cs0 3.617174 1_555
Cl27 Cs5 3.617174 1_555
Cl27 Rb6 3.635960 1_555
Cl27 Cs1 3.684255 1_554
Cl28 Mn10 2.511515 1_565
Cl28 Mn1 2.511521 1_555
Cl28 Rb5 3.574055 1_665
Cl28 Rb2 3.652595 1_565
Cl28 Rb4 3.652595 1_555
Cl28 Cs3 3.660060 1_565
Cl29 Mn5 2.511515 1_555
Cl29 Mn8 2.511521 1_555
Cl29 Rb5 3.574055 1_555
Cl29 Rb6 3.652602 1_555
Cl29 Rb1 3.652602 1_555
Cl29 Cs7 3.660060 1_555
Cl30 Mn3 2.544488 1_555
Cl30 Mn1 2.544488 1_555
Cl30 Rb2 3.606472 1_565
Cl30 Rb7 3.606472 1_555
Cl30 Rb5 3.701640 1_665
Cl30 Rb0 3.701640 1_665
Cl31 Mn5 2.541102 1_555
Cl31 Mn4 2.541102 1_555
Cl31 Rb6 3.583112 1_555
Cl31 Cs4 3.654392 1_555
Cl31 Cs7 3.724507 1_555
Cl31 Cs5 3.724507 1_555
Cl32 Mn0 2.511515 1_554
Cl32 Mn3 2.511521 1_555
Cl32 Rb0 3.574055 1_665
Cl32 Rb4 3.652602 1_554
Cl32 Rb7 3.652602 1_555
Cl32 Cs5 3.660060 1_555
Cl33 Mn6 2.544483 1_555
Cl33 Mn9 2.544483 1_555
Cl33 Rb7 3.606469 1_455
Cl33 Rb6 3.606471 1_565
Cl33 Rb5 3.701644 1_565
Cl33 Rb0 3.701644 1_565
Cl34 Mn7 2.527915 1_555
Cl34 Mn0 2.532292 1_554
Cl34 Cs5 3.617172 1_555
Cl34 Cs2 3.617173 1_655
Cl34 Rb7 3.635959 1_555
Cl34 Cs1 3.684257 1_554
Cl35 Mn0 2.541104 1_555
Cl35 Mn2 2.541104 1_555
Cl35 Rb3 3.583102 1_655
Cl35 Cs1 3.654386 1_555
Cl35 Cs2 3.724509 1_656
Cl35 Cs6 3.724509 1_655
Cl36 Mn14 2.527907 1_555
Cl36 Mn8 2.532290 1_555
Cl36 Cs3 3.617174 1_555
Cl36 Cs7 3.617174 1_555
Cl36 Rb6 3.635960 1_555
Cl36 Cs1 3.684255 1_555
Cl37 Mn15 2.527905 1_555
Cl37 Mn9 2.532292 1_556
Cl37 Cs0 3.617172 1_566
Cl37 Cs2 3.617173 1_556
Cl37 Rb3 3.635967 1_555
Cl37 Cs4 3.684249 1_556
Cl38 Mn6 2.511518 1_555
Cl38 Mn2 2.511518 1_455
Cl38 Rb5 3.574056 1_565
Cl38 Rb3 3.652595 1_555
Cl38 Rb7 3.652595 1_455
Cl38 Cs6 3.660062 1_555
Cl39 Mn13 2.540589 1_555
Cl39 Mn15 2.540589 1_555
Cl39 Rb1 3.630424 1_555
Cl39 Rb3 3.630438 1_555
Cl39 Cs6 3.718414 1_555
Cl39 Cs2 3.718414 1_556
Cl40 Mn0 2.544493 1_555
Cl40 Mn2 2.544493 1_555
Cl40 Rb3 3.606469 1_655
Cl40 Rb4 3.606471 1_555
Cl40 Rb0 3.701637 1_666
Cl40 Rb5 3.701637 1_665
Cl41 Mn5 2.541104 1_555
Cl41 Mn4 2.541104 1_555
Cl41 Rb2 3.583102 1_455
Cl41 Cs4 3.654386 1_555
Cl41 Cs2 3.724509 1_555
Cl41 Cs6 3.724509 1_555
Cl42 Mn11 2.541104 1_555
Cl42 Mn10 2.541104 1_555
Cl42 Rb1 3.583095 1_655
Cl42 Cs1 3.654378 1_555
Cl42 Cs2 3.724509 1_656
Cl42 Cs6 3.724509 1_655
Cl43 Mn7 2.527905 1_555
Cl43 Mn11 2.532292 1_554
Cl43 Cs0 3.617172 1_555
Cl43 Cs2 3.617173 1_655
Cl43 Rb2 3.635967 1_555
Cl43 Cs1 3.684249 1_554
Cl44 Mn14 2.527915 1_555
Cl44 Mn2 2.532292 1_555
Cl44 Cs7 3.617172 1_555
Cl44 Cs6 3.617173 1_655
Cl44 Rb7 3.635959 1_555
Cl44 Cs1 3.684257 1_555
Cl45 Mn15 2.540592 1_555
Cl45 Mn13 2.540592 1_555
Cl45 Rb1 3.630429 1_555
Cl45 Rb4 3.630430 1_555
Cl45 Cs5 3.718415 1_556
Cl45 Cs7 3.718415 1_555
Cl46 Mn2 2.511515 1_555
Cl46 Mn1 2.511521 1_555
Cl46 Rb5 3.574055 1_665
Cl46 Rb4 3.652602 1_555
Cl46 Rb7 3.652602 1_555
Cl46 Cs7 3.660060 1_555
Cl47 Mn15 2.527915 1_555
Cl47 Mn4 2.532292 1_556
Cl47 Cs5 3.617172 1_556
Cl47 Cs2 3.617173 1_556
Cl47 Rb1 3.635959 1_555
Cl47 Cs4 3.684257 1_556
