# generated using pymatgen
data_Nb4As3
_symmetry_space_group_name_H-M   'P 1'
_cell_length_a   3.55532114
_cell_length_b   7.60013686
_cell_length_c   18.83721212
_cell_angle_alpha   90.00000000
_cell_angle_beta   90.00000000
_cell_angle_gamma   103.52669775
_symmetry_Int_Tables_number   1
_chemical_formula_structural   Nb4As3
_chemical_formula_sum   'Nb16 As12'
_cell_volume   494.87983583
_cell_formula_units_Z   4
loop_
 _symmetry_equiv_pos_site_id
 _symmetry_equiv_pos_as_xyz
  1  'x, y, z'
loop_
 _atom_site_type_symbol
 _atom_site_label
 _atom_site_symmetry_multiplicity
 _atom_site_fract_x
 _atom_site_fract_y
 _atom_site_fract_z
 _atom_site_occupancy
  Nb  Nb0  1  0.26369589  0.52739279  0.15984568  1
  Nb  Nb1  1  0.73630411  0.47260721  0.84015432  1
  Nb  Nb2  1  0.73630411  0.47260721  0.65984568  1
  Nb  Nb3  1  0.26369589  0.52739279  0.34015432  1
  Nb  Nb4  1  0.46844670  0.93689241  0.11927079  1
  Nb  Nb5  1  0.53155330  0.06310759  0.88072921  1
  Nb  Nb6  1  0.53155330  0.06310759  0.61927079  1
  Nb  Nb7  1  0.46844670  0.93689241  0.38072921  1
  Nb  Nb8  1  0.32819664  0.65639329  0.97338011  1
  Nb  Nb9  1  0.67180336  0.34360671  0.02661989  1
  Nb  Nb10  1  0.67180336  0.34360671  0.47338011  1
  Nb  Nb11  1  0.32819664  0.65639329  0.52661989  1
  Nb  Nb12  1  -0.00000000  -0.00000000  0.00000000  1
  Nb  Nb13  1  -0.00000000  -0.00000000  0.50000000  1
  Nb  Nb14  1  0.94337495  0.88674791  0.75000000  1
  Nb  Nb15  1  0.05662505  0.11325209  0.25000000  1
  As  As0  1  0.10017184  0.20034368  0.11699215  1
  As  As1  1  0.89982816  0.79965632  0.88300785  1
  As  As2  1  0.89982816  0.79965632  0.61699215  1
  As  As3  1  0.10017184  0.20034368  0.38300785  1
  As  As4  1  0.15537366  0.31074532  0.92153206  1
  As  As5  1  0.84462634  0.68925468  0.07846794  1
  As  As6  1  0.84462634  0.68925468  0.42153206  1
  As  As7  1  0.15537366  0.31074532  0.57846794  1
  As  As8  1  0.30447726  0.60895553  0.75000000  1
  As  As9  1  0.69552274  0.39104447  0.25000000  1
  As  As10  1  0.58343503  0.16687207  0.75000000  1
  As  As11  1  0.41656497  0.83312793  0.25000000  1
loop_
_geom_bond_atom_site_label_1
_geom_bond_atom_site_label_2
_geom_bond_distance
_geom_bond_site_symmetry_2
As0 Nb0 2.547927 1_555
As0 Nb15 2.586826 1_555
As0 Nb4 2.636599 1_445
As0 Nb4 2.636601 1_545
As0 Nb12 2.654874 1_555
As0 Nb9 2.679324 1_455
As0 Nb9 2.679324 1_555
As1 Nb1 2.547927 1_555
As1 Nb14 2.586826 1_555
As1 Nb5 2.636599 1_665
As1 Nb5 2.636601 1_565
As1 Nb12 2.654874 1_666
As1 Nb8 2.679324 1_655
As1 Nb8 2.679324 1_555
As2 Nb2 2.547927 1_555
As2 Nb14 2.586826 1_555
As2 Nb6 2.636599 1_665
As2 Nb6 2.636601 1_565
As2 Nb13 2.654874 1_665
As2 Nb11 2.679324 1_655
As2 Nb11 2.679324 1_555
As3 Nb3 2.547927 1_555
As3 Nb15 2.586826 1_555
As3 Nb7 2.636599 1_445
As3 Nb7 2.636601 1_545
As3 Nb13 2.654874 1_555
As3 Nb10 2.679324 1_455
As3 Nb10 2.679324 1_555
As4 Nb1 2.634479 1_555
As4 Nb1 2.634481 1_455
As4 Nb5 2.664444 1_555
As4 Nb5 2.664451 1_455
As4 Nb9 2.671646 1_556
As4 Nb9 2.671651 1_456
As4 Nb12 2.730814 1_556
As4 Nb8 2.734470 1_555
As5 Nb0 2.634479 1_555
As5 Nb0 2.634481 1_655
As5 Nb4 2.664444 1_555
As5 Nb4 2.664451 1_655
As5 Nb8 2.671646 1_554
As5 Nb8 2.671651 1_654
As5 Nb12 2.730814 1_665
As5 Nb9 2.734470 1_555
As6 Nb3 2.634479 1_555
As6 Nb3 2.634481 1_655
As6 Nb7 2.664444 1_555
As6 Nb7 2.664451 1_655
As6 Nb11 2.671646 1_555
As6 Nb11 2.671651 1_655
As6 Nb13 2.730814 1_665
As6 Nb10 2.734470 1_555
As7 Nb2 2.634479 1_555
As7 Nb2 2.634481 1_455
As7 Nb6 2.664444 1_555
As7 Nb6 2.664451 1_455
As7 Nb10 2.671646 1_555
As7 Nb10 2.671651 1_455
As7 Nb13 2.730814 1_555
As7 Nb11 2.734470 1_555
As8 Nb2 2.656922 1_455
As8 Nb1 2.656922 1_455
As8 Nb1 2.656927 1_555
As8 Nb2 2.656927 1_555
As8 Nb14 2.715441 1_455
As8 Nb14 2.715448 1_555
As9 Nb0 2.656922 1_655
As9 Nb3 2.656922 1_655
As9 Nb3 2.656927 1_555
As9 Nb0 2.656927 1_555
As9 Nb15 2.715441 1_655
As9 Nb15 2.715448 1_555
As10 Nb5 2.579181 1_555
As10 Nb6 2.579181 1_555
As10 Nb14 2.728488 1_445
As10 Nb14 2.728497 1_545
As10 Nb1 2.826294 1_555
As10 Nb2 2.826294 1_555
As11 Nb7 2.579181 1_555
As11 Nb4 2.579181 1_555
As11 Nb15 2.728488 1_665
As11 Nb15 2.728497 1_565
As11 Nb3 2.826294 1_555
As11 Nb0 2.826294 1_555
