# generated using pymatgen
data_K3AlP2
_symmetry_space_group_name_H-M   'P 1'
_cell_length_a   8.85534384
_cell_length_b   11.85032972
_cell_length_c   15.22706502
_cell_angle_alpha   72.60806426
_cell_angle_beta   73.35656621
_cell_angle_gamma   71.69889717
_symmetry_Int_Tables_number   1
_chemical_formula_structural   K3AlP2
_chemical_formula_sum   'K24 Al8 P16'
_cell_volume   1414.65450723
_cell_formula_units_Z   8
loop_
 _symmetry_equiv_pos_site_id
 _symmetry_equiv_pos_as_xyz
  1  'x, y, z'
loop_
 _atom_site_type_symbol
 _atom_site_label
 _atom_site_symmetry_multiplicity
 _atom_site_fract_x
 _atom_site_fract_y
 _atom_site_fract_z
 _atom_site_occupancy
  K  K0  1  0.34527514  0.91513126  0.69312131  1
  K  K1  1  0.65472486  0.08486874  0.30687869  1
  K  K2  1  0.81856088  0.39863994  0.69220812  1
  K  K3  1  0.18143912  0.60136006  0.30779188  1
  K  K4  1  0.81258476  0.76350200  0.68104452  1
  K  K5  1  0.18741524  0.23649800  0.31895548  1
  K  K6  1  0.22363142  0.74709078  0.61915097  1
  K  K7  1  0.77636858  0.25290922  0.38084903  1
  K  K8  1  0.15977749  0.42018559  0.75700875  1
  K  K9  1  0.84022251  0.57981441  0.24299125  1
  K  K10  1  0.98119125  0.10795719  0.58433814  1
  K  K11  1  0.01880875  0.89204281  0.41566186  1
  K  K12  1  0.53248411  0.08181812  0.74443960  1
  K  K13  1  0.46751589  0.91818188  0.25556040  1
  K  K14  1  0.48734272  0.57463814  0.83866583  1
  K  K15  1  0.51265728  0.42536186  0.16133417  1
  K  K16  1  0.03183462  0.09726869  0.84780633  1
  K  K17  1  0.96816538  0.90273131  0.15219367  1
  K  K18  1  0.50790070  0.37661989  0.58331448  1
  K  K19  1  0.49209930  0.62338011  0.41668552  1
  K  K20  1  0.31874160  0.08403077  0.02504349  1
  K  K21  1  0.68125840  0.91596923  0.97495651  1
  K  K22  1  0.82348589  0.62000389  0.97833790  1
  K  K23  1  0.17651411  0.37999611  0.02166210  1
  Al  Al0  1  0.15450253  0.38752880  0.50951427  1
  Al  Al1  1  0.84549747  0.61247120  0.49048573  1
  Al  Al2  1  0.40576720  0.14132798  0.50884062  1
  Al  Al3  1  0.59423280  0.85867202  0.49115938  1
  Al  Al4  1  0.15210786  0.77819963  0.92654040  1
  Al  Al5  1  0.84789214  0.22180037  0.07345960  1
  Al  Al6  1  0.63920392  0.26625750  0.94584668  1
  Al  Al7  1  0.36079608  0.73374250  0.05415332  1
  P  P0  1  0.21733707  0.21827082  0.64095932  1
  P  P1  1  0.78266293  0.78172918  0.35904068  1
  P  P2  1  0.33008735  0.98559738  0.46232977  1
  P  P3  1  0.66991265  0.01440262  0.53767023  1
  P  P4  1  0.59543907  0.66421520  0.60442597  1
  P  P5  1  0.40456093  0.33578480  0.39557403  1
  P  P6  1  0.09533899  0.58769218  0.54025699  1
  P  P7  1  0.90466101  0.41230782  0.45974301  1
  P  P8  1  0.99937627  0.82396706  0.81950281  1
  P  P9  1  0.00062373  0.17603294  0.18049719  1
  P  P10  1  0.48515617  0.29373209  0.84410834  1
  P  P11  1  0.51484383  0.70626791  0.15589166  1
  P  P12  1  0.84032624  0.36624610  0.92982862  1
  P  P13  1  0.15967376  0.63375390  0.07017138  1
  P  P14  1  0.36128187  0.87160826  0.90968672  1
  P  P15  1  0.63871813  0.12839174  0.09031328  1
loop_
_geom_bond_atom_site_label_1
_geom_bond_atom_site_label_2
_geom_bond_distance
_geom_bond_site_symmetry_2
K0 K6 3.126892 1_555
K0 P14 3.219583 1_555
K0 K12 3.313923 1_565
K0 P0 3.327589 1_565
K0 P2 3.392848 1_555
K0 P8 3.422210 1_455
K0 P3 3.436930 1_565
K0 P4 3.481803 1_555
K0 K16 3.666394 1_565
K0 K10 3.811786 1_465
K0 K4 3.934327 1_555
K0 K14 3.979761 1_555
K1 K7 3.126892 1_555
K1 P15 3.219583 1_555
K1 K13 3.313923 1_545
K1 P1 3.327589 1_545
K1 P3 3.392848 1_555
K1 P9 3.422210 1_655
K1 P2 3.436930 1_545
K1 P5 3.481803 1_555
K1 K17 3.666394 1_545
K1 K11 3.811786 1_645
K1 K5 3.934327 1_555
K1 K15 3.979761 1_555
K2 P4 3.269248 1_555
K2 P7 3.365454 1_555
K2 P10 3.505211 1_555
K2 P0 3.510842 1_655
K2 P12 3.577570 1_555
K2 P6 3.671644 1_655
K3 P5 3.269248 1_555
K3 P6 3.365454 1_555
K3 P11 3.505211 1_555
K3 P1 3.510842 1_455
K3 P13 3.577570 1_555
K3 P7 3.671644 1_455
K4 P4 3.157464 1_555
K4 P3 3.247011 1_565
K4 P8 3.367427 1_555
K4 P6 3.394834 1_655
K5 P5 3.157464 1_555
K5 P2 3.247011 1_545
K5 P9 3.367427 1_555
K5 P7 3.394834 1_455
K6 P4 3.087599 1_555
K6 P6 3.128570 1_555
K6 P2 3.305811 1_555
K6 P8 3.337013 1_455
K7 P5 3.087599 1_555
K7 P7 3.128570 1_555
K7 P3 3.305811 1_555
K7 P9 3.337013 1_655
K8 P0 3.217685 1_555
K8 P10 3.255142 1_555
K8 P12 3.346897 1_455
K8 P6 3.407349 1_555
K9 P1 3.217685 1_555
K9 P11 3.255142 1_555
K9 P13 3.346897 1_655
K9 P7 3.407349 1_555
K10 P0 3.201333 1_655
K10 P2 3.257080 1_645
K10 P7 3.489636 1_555
K10 P3 3.583924 1_555
K11 P1 3.201333 1_455
K11 P3 3.257080 1_465
K11 P6 3.489636 1_555
K11 P2 3.583924 1_555
K12 P10 3.168343 1_555
K12 P3 3.275742 1_555
K12 P0 3.323775 1_555
K12 P14 3.357772 1_545
K13 P11 3.168343 1_555
K13 P2 3.275742 1_555
K13 P1 3.323775 1_555
K13 P15 3.357772 1_565
K14 P10 3.311040 1_555
K14 P4 3.344248 1_555
K14 P12 3.658469 1_555
K14 P14 3.730525 1_555
K15 P11 3.311040 1_555
K15 P5 3.344248 1_555
K15 P13 3.658469 1_555
K15 P15 3.730525 1_555
K16 P0 3.238911 1_555
K16 P14 3.423273 1_545
K16 P8 3.499665 1_445
K16 P12 3.516769 1_455
K17 P1 3.238911 1_555
K17 P15 3.423273 1_565
K17 P9 3.499665 1_665
K17 P13 3.516769 1_655
K18 P0 3.415563 1_555
K18 P5 3.442037 1_555
K18 P7 3.568498 1_555
K18 P10 3.756254 1_555
K19 P1 3.415563 1_555
K19 P4 3.442037 1_555
K19 P6 3.568498 1_555
K19 P11 3.756254 1_555
K20 P9 3.243728 1_555
K20 P14 3.351539 1_544
K20 P10 3.437857 1_554
K20 P15 3.486234 1_555
K21 P8 3.243728 1_555
K21 P15 3.351539 1_566
K21 P11 3.437857 1_556
K21 P14 3.486234 1_555
K22 P12 3.254800 1_555
K22 P8 3.290796 1_555
K22 P11 3.389589 1_556
K22 P13 3.697346 1_656
K23 P13 3.254800 1_555
K23 P9 3.290796 1_555
K23 P10 3.389589 1_554
K23 P12 3.697346 1_454
Al0 P6 2.421337 1_555
Al0 P5 2.423227 1_555
Al0 P0 2.424018 1_555
Al0 P7 2.444360 1_455
Al0 K3 3.349586 1_555
Al0 K2 3.440715 1_455
Al1 P7 2.421337 1_555
Al1 P4 2.423227 1_555
Al1 P1 2.424018 1_555
Al1 P6 2.444360 1_655
Al1 K2 3.349586 1_555
Al1 K3 3.440715 1_655
Al2 P0 2.425093 1_555
Al2 P5 2.429829 1_555
Al2 P3 2.431125 1_555
Al2 P2 2.487242 1_545
Al2 K0 3.300029 1_545
Al2 K1 3.344450 1_555
Al3 P1 2.425093 1_555
Al3 P4 2.429829 1_555
Al3 P2 2.431125 1_555
Al3 P3 2.487242 1_565
Al3 K1 3.300029 1_565
Al3 K0 3.344450 1_555
Al4 P8 2.247991 1_455
Al4 P13 2.343439 1_556
Al4 P14 2.359604 1_555
Al4 K14 3.402802 1_555
Al4 K16 3.515767 1_565
Al4 K0 3.606204 1_555
Al5 P9 2.247991 1_655
Al5 P12 2.343439 1_554
Al5 P15 2.359604 1_555
Al5 K15 3.402802 1_555
Al5 K17 3.515767 1_545
Al5 K1 3.606204 1_555
Al6 P10 2.235385 1_555
Al6 P15 2.314907 1_556
Al6 P12 2.353545 1_555
Al6 K14 3.525928 1_555
Al6 K16 3.573351 1_655
Al7 P11 2.235385 1_555
Al7 P14 2.314907 1_554
Al7 P13 2.353545 1_555
Al7 K15 3.525928 1_555
Al7 K17 3.573351 1_455
