# generated using pymatgen
data_As2Pb3O8
_symmetry_space_group_name_H-M   'P 1'
_cell_length_a   6.21703415
_cell_length_b   7.50529768
_cell_length_c   9.42373094
_cell_angle_alpha   65.43606815
_cell_angle_beta   90.00000000
_cell_angle_gamma   90.00000000
_symmetry_Int_Tables_number   1
_chemical_formula_structural   As2Pb3O8
_chemical_formula_sum   'As4 Pb6 O16'
_cell_volume   399.92245710
_cell_formula_units_Z   2
loop_
 _symmetry_equiv_pos_site_id
 _symmetry_equiv_pos_as_xyz
  1  'x, y, z'
loop_
 _atom_site_type_symbol
 _atom_site_label
 _atom_site_symmetry_multiplicity
 _atom_site_fract_x
 _atom_site_fract_y
 _atom_site_fract_z
 _atom_site_occupancy
  As  As0  1  0.01971018  0.79588387  0.40258558  1
  As  As1  1  0.51971018  0.20411613  0.09741442  1
  As  As2  1  0.98028982  0.20411613  0.59741442  1
  As  As3  1  0.48028982  0.79588387  0.90258558  1
  Pb  Pb0  1  0.00000000  0.00000000  0.00000000  1
  Pb  Pb1  1  0.50000000  0.00000000  0.50000000  1
  Pb  Pb2  1  0.91222458  0.62123004  0.78856919  1
  Pb  Pb3  1  0.41222458  0.37876996  0.71143081  1
  Pb  Pb4  1  0.08777542  0.37876996  0.21143081  1
  Pb  Pb5  1  0.58777542  0.62123004  0.28856919  1
  O  O0  1  0.24066702  0.71823263  0.51687184  1
  O  O1  1  0.74066702  0.28176737  0.98312816  1
  O  O2  1  0.75933298  0.28176737  0.48312816  1
  O  O3  1  0.25933298  0.71823263  0.01687184  1
  O  O4  1  0.70084545  0.74474859  0.02332527  1
  O  O5  1  0.20084545  0.25525141  0.47667473  1
  O  O6  1  0.29915455  0.25525141  0.97667473  1
  O  O7  1  0.79915455  0.74474859  0.52332527  1
  O  O8  1  0.02948674  0.32203157  0.71606968  1
  O  O9  1  0.52948674  0.67796843  0.78393032  1
  O  O10  1  0.97051326  0.67796843  0.28393032  1
  O  O11  1  0.47051326  0.32203157  0.21606968  1
  O  O12  1  0.03893641  0.03517558  0.27918843  1
  O  O13  1  0.53893641  0.96482442  0.22081157  1
  O  O14  1  0.96106359  0.96482442  0.72081157  1
  O  O15  1  0.46106359  0.03517558  0.77918843  1
loop_
_geom_bond_atom_site_label_1
_geom_bond_atom_site_label_2
_geom_bond_distance
_geom_bond_site_symmetry_2
As0 O12 1.689858 1_565
As0 O0 1.692563 1_555
As0 O10 1.717505 1_455
As0 O7 1.720190 1_455
As1 O13 1.689858 1_545
As1 O1 1.692563 1_554
As1 O11 1.717505 1_555
As1 O6 1.720190 1_554
As2 O14 1.689858 1_545
As2 O2 1.692563 1_555
As2 O8 1.717505 1_655
As2 O5 1.720190 1_655
As3 O15 1.689858 1_565
As3 O3 1.692563 1_556
As3 O9 1.717505 1_555
As3 O4 1.720190 1_556
O0 Pb1 2.611004 1_565
O0 Pb3 2.665815 1_555
O1 Pb0 2.611004 1_656
O1 Pb2 2.665815 1_555
O2 Pb1 2.611004 1_555
O2 Pb5 2.665815 1_555
O3 Pb0 2.611004 1_565
O3 Pb4 2.665815 1_555
O4 Pb5 2.382209 1_555
O4 Pb0 2.612913 1_665
O5 Pb4 2.382209 1_555
O5 Pb1 2.612913 1_555
O6 Pb3 2.382209 1_555
O6 Pb0 2.612913 1_556
O7 Pb2 2.382209 1_555
O7 Pb1 2.612913 1_565
O8 Pb3 2.414491 1_555
O8 Pb2 2.704890 1_455
O8 Pb0 2.767264 1_556
O9 Pb2 2.414491 1_555
O9 Pb3 2.704890 1_555
O9 Pb1 2.767264 1_565
O10 Pb5 2.414491 1_555
O10 Pb4 2.704890 1_655
O10 Pb0 2.767264 1_665
O11 Pb4 2.414491 1_555
O11 Pb5 2.704890 1_555
O11 Pb1 2.767264 1_555
O12 Pb4 2.404366 1_555
O12 Pb0 2.761871 1_555
O13 Pb5 2.404366 1_555
O13 Pb1 2.761871 1_565
O14 Pb2 2.404366 1_555
O14 Pb0 2.761871 1_666
O15 Pb3 2.404366 1_555
O15 Pb1 2.761871 1_555
