# generated using pymatgen
data_TiZn2O4
_symmetry_space_group_name_H-M   'P 1'
_cell_length_a   6.07598400
_cell_length_b   6.07598400
_cell_length_c   8.51563600
_cell_angle_alpha   90.00000000
_cell_angle_beta   90.00000000
_cell_angle_gamma   90.00000000
_symmetry_Int_Tables_number   1
_chemical_formula_structural   TiZn2O4
_chemical_formula_sum   'Ti4 Zn8 O16'
_cell_volume   314.37668664
_cell_formula_units_Z   4
loop_
 _symmetry_equiv_pos_site_id
 _symmetry_equiv_pos_as_xyz
  1  'x, y, z'
loop_
 _atom_site_type_symbol
 _atom_site_label
 _atom_site_symmetry_multiplicity
 _atom_site_fract_x
 _atom_site_fract_y
 _atom_site_fract_z
 _atom_site_occupancy
  Ti  Ti0  1  0.50000000  0.23927600  0.00000000  1
  Ti  Ti1  1  0.76072400  0.50000000  0.25000000  1
  Ti  Ti2  1  0.23927600  0.50000000  0.75000000  1
  Ti  Ti3  1  0.50000000  0.76072400  0.50000000  1
  Zn  Zn0  1  0.25275700  0.25275700  0.37500000  1
  Zn  Zn1  1  0.74724300  0.25275700  0.62500000  1
  Zn  Zn2  1  0.25275700  0.74724300  0.12500000  1
  Zn  Zn3  1  0.74724300  0.74724300  0.87500000  1
  Zn  Zn4  1  0.00000000  0.24489400  0.00000000  1
  Zn  Zn5  1  0.75510600  0.00000000  0.25000000  1
  Zn  Zn6  1  0.24489400  0.00000000  0.75000000  1
  Zn  Zn7  1  0.00000000  0.75510600  0.50000000  1
  O  O0  1  0.97386300  0.73428200  0.24933100  1
  O  O1  1  0.26571800  0.97386300  0.49933100  1
  O  O2  1  0.73428200  0.02613700  0.99933100  1
  O  O3  1  0.97386300  0.26571800  0.25066900  1
  O  O4  1  0.02613700  0.73428200  0.75066900  1
  O  O5  1  0.02613700  0.26571800  0.74933100  1
  O  O6  1  0.73428200  0.97386300  0.50066900  1
  O  O7  1  0.26571800  0.02613700  0.00066900  1
  O  O8  1  0.51422000  0.26633200  0.23197400  1
  O  O9  1  0.73366800  0.51422000  0.48197400  1
  O  O10  1  0.26633200  0.48578000  0.98197400  1
  O  O11  1  0.51422000  0.73366800  0.26802600  1
  O  O12  1  0.48578000  0.26633200  0.76802600  1
  O  O13  1  0.48578000  0.73366800  0.73197400  1
  O  O14  1  0.26633200  0.51422000  0.51802600  1
  O  O15  1  0.73366800  0.48578000  0.01802600  1
loop_
_geom_bond_atom_site_label_1
_geom_bond_atom_site_label_2
_geom_bond_distance
_geom_bond_site_symmetry_2
O0 Ti1 1.924439 1_555
O0 Zn2 1.999672 1_655
O0 Zn5 2.091247 1_565
O0 Zn7 2.144241 1_655
O1 Ti3 1.924439 1_555
O1 Zn0 1.999672 1_565
O1 Zn7 2.091247 1_555
O1 Zn6 2.144241 1_565
O2 Ti0 1.924439 1_556
O2 Zn3 1.999672 1_545
O2 Zn4 2.091247 1_656
O2 Zn5 2.144241 1_556
O3 Ti1 1.924439 1_555
O3 Zn0 1.999672 1_655
O3 Zn5 2.091247 1_555
O3 Zn4 2.144241 1_655
O4 Ti2 1.924439 1_555
O4 Zn3 1.999672 1_455
O4 Zn6 2.091247 1_565
O4 Zn7 2.144241 1_555
O5 Ti2 1.924439 1_555
O5 Zn1 1.999672 1_455
O5 Zn6 2.091247 1_555
O5 Zn4 2.144241 1_556
O6 Ti3 1.924439 1_555
O6 Zn1 1.999672 1_565
O6 Zn7 2.091247 1_655
O6 Zn5 2.144241 1_565
O7 Ti0 1.924439 1_555
O7 Zn2 1.999672 1_545
O7 Zn4 2.091247 1_555
O7 Zn6 2.144241 1_554
O8 Ti0 1.984117 1_555
O8 Zn0 2.003501 1_555
O8 Ti1 2.069434 1_555
O8 Zn5 2.187329 1_555
O9 Ti1 1.984117 1_555
O9 Zn1 2.003501 1_555
O9 Ti3 2.069434 1_555
O9 Zn7 2.187329 1_655
O10 Ti2 1.984117 1_555
O10 Zn2 2.003501 1_556
O10 Ti0 2.069434 1_556
O10 Zn4 2.187329 1_556
O11 Ti3 1.984117 1_555
O11 Zn2 2.003501 1_555
O11 Ti1 2.069434 1_555
O11 Zn5 2.187329 1_565
O12 Ti0 1.984117 1_556
O12 Zn1 2.003501 1_555
O12 Ti2 2.069434 1_555
O12 Zn6 2.187329 1_555
O13 Ti3 1.984117 1_555
O13 Zn3 2.003501 1_555
O13 Ti2 2.069434 1_555
O13 Zn6 2.187329 1_565
O14 Ti2 1.984117 1_555
O14 Zn0 2.003501 1_555
O14 Ti3 2.069434 1_555
O14 Zn7 2.187329 1_555
O15 Ti1 1.984117 1_555
O15 Zn3 2.003501 1_554
O15 Ti0 2.069434 1_555
O15 Zn4 2.187329 1_655
