# generated using pymatgen
data_ReS2
_symmetry_space_group_name_H-M   'P 1'
_cell_length_a   6.39950398
_cell_length_b   6.50330123
_cell_length_c   13.26723640
_cell_angle_alpha   76.87287971
_cell_angle_beta   89.43618948
_cell_angle_gamma   61.10291391
_symmetry_Int_Tables_number   1
_chemical_formula_structural   ReS2
_chemical_formula_sum   'Re8 S16'
_cell_volume   467.52991356
_cell_formula_units_Z   8
loop_
 _symmetry_equiv_pos_site_id
 _symmetry_equiv_pos_as_xyz
  1  'x, y, z'
loop_
 _atom_site_type_symbol
 _atom_site_label
 _atom_site_symmetry_multiplicity
 _atom_site_fract_x
 _atom_site_fract_y
 _atom_site_fract_z
 _atom_site_occupancy
  Re  Re0  1  0.18820557  0.06572826  0.24591645  1
  Re  Re1  1  0.31348089  0.43727747  0.25336418  1
  Re  Re2  1  0.76208566  0.03885366  0.24866740  1
  Re  Re3  1  0.68651911  0.56272253  0.74663582  1
  Re  Re4  1  0.81179443  0.93427174  0.75408355  1
  Re  Re5  1  0.26039450  0.53584692  0.74939054  1
  Re  Re6  1  0.73960550  0.46415308  0.25060946  1
  Re  Re7  1  0.23791434  0.96114634  0.75133260  1
  S  S0  1  0.90889907  0.71047418  0.15732994  1
  S  S1  1  0.59948568  0.78042134  0.87170112  1
  S  S2  1  0.36981381  0.74660610  0.14445242  1
  S  S3  1  0.13900322  0.72891192  0.88570891  1
  S  S4  1  0.35931660  0.76816673  0.61495772  1
  S  S5  1  0.13192326  0.75631768  0.35485787  1
  S  S6  1  0.63018619  0.25339390  0.85554758  1
  S  S7  1  0.86807674  0.24368232  0.64514213  1
  S  S8  1  0.10116160  0.28333010  0.37104586  1
  S  S9  1  0.59280758  0.79250524  0.34195826  1
  S  S10  1  0.09110093  0.28952582  0.84267006  1
  S  S11  1  0.40719242  0.20749476  0.65804174  1
  S  S12  1  0.86099678  0.27108808  0.11429109  1
  S  S13  1  0.64068340  0.23183227  0.38504228  1
  S  S14  1  0.40051432  0.21957866  0.12829888  1
  S  S15  1  0.89883840  0.71666990  0.62895414  1
loop_
_geom_bond_atom_site_label_1
_geom_bond_atom_site_label_2
_geom_bond_distance
_geom_bond_site_symmetry_2
Re0 S8 2.314290 1_555
Re0 S12 2.351115 1_455
Re0 S5 2.374206 1_545
Re0 S14 2.417646 1_555
Re0 S9 2.464769 1_545
Re0 S2 2.525266 1_545
Re1 S14 2.313983 1_555
Re1 S13 2.351508 1_555
Re1 S2 2.373806 1_555
Re1 S8 2.418502 1_555
Re1 S0 2.464625 1_455
Re1 S5 2.525145 1_555
Re2 S13 2.348116 1_555
Re2 S12 2.353452 1_555
Re2 S5 2.376853 1_645
Re2 S14 2.424352 1_555
Re2 S9 2.454054 1_545
Re2 S0 2.475005 1_545
Re3 S1 2.313983 1_555
Re3 S4 2.351508 1_555
Re3 S6 2.373806 1_555
Re3 S15 2.418502 1_555
Re3 S10 2.464625 1_655
Re3 S7 2.525145 1_555
Re4 S15 2.314290 1_555
Re4 S3 2.351115 1_655
Re4 S7 2.374206 1_565
Re4 S1 2.417646 1_555
Re4 S11 2.464769 1_565
Re4 S6 2.525266 1_565
Re5 S3 2.347754 1_555
Re5 S4 2.354281 1_555
Re5 S6 2.376394 1_555
Re5 S15 2.424703 1_455
Re5 S10 2.453942 1_555
Re5 S11 2.474971 1_555
Re6 S12 2.347754 1_555
Re6 S13 2.354285 1_555
Re6 S2 2.376394 1_555
Re6 S8 2.424703 1_655
Re6 S0 2.453942 1_555
Re6 S9 2.474971 1_555
Re7 S4 2.348119 1_555
Re7 S3 2.353452 1_555
Re7 S7 2.376853 1_465
Re7 S1 2.424352 1_555
Re7 S11 2.454054 1_565
Re7 S10 2.475005 1_565
