# generated using pymatgen
data_SbP2O7
_symmetry_space_group_name_H-M   'P 1'
_cell_length_a   16.00293633
_cell_length_b   8.08266751
_cell_length_c   8.19244795
_cell_angle_alpha   89.76587914
_cell_angle_beta   90.00000000
_cell_angle_gamma   90.00000000
_symmetry_Int_Tables_number   1
_chemical_formula_structural   SbP2O7
_chemical_formula_sum   'Sb8 P16 O56'
_cell_volume   1059.65491419
_cell_formula_units_Z   8
loop_
 _symmetry_equiv_pos_site_id
 _symmetry_equiv_pos_as_xyz
  1  'x, y, z'
loop_
 _atom_site_type_symbol
 _atom_site_label
 _atom_site_symmetry_multiplicity
 _atom_site_fract_x
 _atom_site_fract_y
 _atom_site_fract_z
 _atom_site_occupancy
  Sb  Sb0  1  0.87320184  0.15169148  0.53515269  1
  Sb  Sb1  1  0.37320184  0.84830852  0.96484731  1
  Sb  Sb2  1  0.12679816  0.84830852  0.46484731  1
  Sb  Sb3  1  0.62679816  0.15169148  0.03515269  1
  Sb  Sb4  1  0.36808705  0.37476048  0.47981391  1
  Sb  Sb5  1  0.86808705  0.62523952  0.02018609  1
  Sb  Sb6  1  0.63191295  0.62523952  0.52018609  1
  Sb  Sb7  1  0.13191295  0.37476048  0.97981391  1
  P  P0  1  0.67770630  0.02609907  0.40903389  1
  P  P1  1  0.17770630  0.97390093  0.09096611  1
  P  P2  1  0.32229370  0.97390093  0.59096611  1
  P  P3  1  0.82229370  0.02609907  0.90903389  1
  P  P4  1  0.66773482  0.53870009  0.11616339  1
  P  P5  1  0.16773482  0.46129991  0.38383661  1
  P  P6  1  0.33226518  0.46129991  0.88383661  1
  P  P7  1  0.83226518  0.53870009  0.61616339  1
  P  P8  1  0.59107876  0.24761923  0.64323138  1
  P  P9  1  0.09107876  0.75238077  0.85676862  1
  P  P10  1  0.40892124  0.75238077  0.35676862  1
  P  P11  1  0.90892124  0.24761923  0.14323138  1
  P  P12  1  0.42716668  0.21977198  0.06890817  1
  P  P13  1  0.92716668  0.78022802  0.43109183  1
  P  P14  1  0.57283332  0.78022802  0.93109183  1
  P  P15  1  0.07283332  0.21977198  0.56890817  1
  O  O0  1  0.41828445  0.07208290  0.95070372  1
  O  O1  1  0.91828445  0.92791710  0.54929628  1
  O  O2  1  0.58171555  0.92791710  0.04929628  1
  O  O3  1  0.08171555  0.07208290  0.45070372  1
  O  O4  1  0.36941485  0.22257787  0.20868978  1
  O  O5  1  0.86941485  0.77742213  0.29131022  1
  O  O6  1  0.63058515  0.77742213  0.79131022  1
  O  O7  1  0.13058515  0.22257787  0.70868978  1
  O  O8  1  0.41516762  0.37333893  0.94819609  1
  O  O9  1  0.91516762  0.62666107  0.55180391  1
  O  O10  1  0.58483238  0.62666107  0.05180391  1
  O  O11  1  0.08483238  0.37333893  0.44819609  1
  O  O12  1  0.67034936  0.37538944  0.02011371  1
  O  O13  1  0.17034936  0.62461056  0.47988629  1
  O  O14  1  0.32965064  0.62461056  0.97988629  1
  O  O15  1  0.82965064  0.37538944  0.52011371  1
  O  O16  1  0.51968239  0.23577486  0.12072697  1
  O  O17  1  0.01968239  0.76422514  0.37927303  1
  O  O18  1  0.48031761  0.76422514  0.87927303  1
  O  O19  1  0.98031761  0.23577486  0.62072697  1
  O  O20  1  0.66298808  0.36646468  0.62919879  1
  O  O21  1  0.16298808  0.63353532  0.87080121  1
  O  O22  1  0.33701192  0.63353532  0.37080121  1
  O  O23  1  0.83701192  0.36646468  0.12919879  1
  O  O24  1  0.34283071  0.49137877  0.70385715  1
  O  O25  1  0.84283071  0.50862123  0.79614285  1
  O  O26  1  0.65716929  0.50862123  0.29614285  1
  O  O27  1  0.15716929  0.49137877  0.20385715  1
  O  O28  1  0.66533390  0.13861164  0.26013206  1
  O  O29  1  0.16533390  0.86138836  0.23986794  1
  O  O30  1  0.33466610  0.86138836  0.73986794  1
  O  O31  1  0.83466610  0.13861164  0.76013206  1
  O  O32  1  0.33842772  0.15271756  0.62250178  1
  O  O33  1  0.83842772  0.84728244  0.87749822  1
  O  O34  1  0.66157228  0.84728244  0.37749822  1
  O  O35  1  0.16157228  0.15271756  0.12250178  1
  O  O36  1  0.24003356  0.35412240  0.43485791  1
  O  O37  1  0.74003356  0.64587760  0.06514209  1
  O  O38  1  0.75996644  0.64587760  0.56514209  1
  O  O39  1  0.25996644  0.35412240  0.93485791  1
  O  O40  1  0.58415109  0.16715145  0.81543095  1
  O  O41  1  0.08415109  0.83284855  0.68456905  1
  O  O42  1  0.41584891  0.83284855  0.18456905  1
  O  O43  1  0.91584891  0.16715145  0.31543095  1
  O  O44  1  0.61291533  0.08342016  0.53959188  1
  O  O45  1  0.11291533  0.91657984  0.96040812  1
  O  O46  1  0.38708467  0.91657984  0.46040812  1
  O  O47  1  0.88708467  0.08342016  0.03959188  1
  O  O48  1  0.50890337  0.31162317  0.58950457  1
  O  O49  1  0.00890337  0.68837683  0.91049543  1
  O  O50  1  0.49109663  0.68837683  0.41049543  1
  O  O51  1  0.99109663  0.31162317  0.08950457  1
  O  O52  1  0.76554215  0.05726929  0.47284715  1
  O  O53  1  0.26554215  0.94273071  0.02715285  1
  O  O54  1  0.23445785  0.94273071  0.52715285  1
  O  O55  1  0.73445785  0.05726929  0.97284715  1
loop_
_geom_bond_atom_site_label_1
_geom_bond_atom_site_label_2
_geom_bond_distance
_geom_bond_site_symmetry_2
O0 P12 1.546735 1_556
O0 Sb1 1.950278 1_545
O1 P13 1.546735 1_555
O1 Sb0 1.950278 1_565
O2 P14 1.546735 1_554
O2 Sb3 1.950278 1_565
O3 P15 1.546735 1_555
O3 Sb2 1.950278 1_545
O4 P12 1.471818 1_555
O4 Sb4 2.543497 1_555
O5 P13 1.471818 1_555
O5 Sb5 2.543497 1_555
O6 P14 1.471818 1_555
O6 Sb6 2.543497 1_555
O7 P15 1.471818 1_555
O7 Sb7 2.543497 1_555
O8 P6 1.593892 1_555
O8 P12 1.595453 1_556
O9 P7 1.593892 1_555
O9 P13 1.595453 1_555
O10 P4 1.593892 1_555
O10 P14 1.595453 1_554
O11 P5 1.593892 1_555
O11 P15 1.595453 1_555
O12 P4 1.540060 1_555
O12 Sb3 1.941194 1_555
O13 P5 1.540060 1_555
O13 Sb2 1.941194 1_555
O14 P6 1.540060 1_555
O14 Sb1 1.941194 1_555
O15 P7 1.540060 1_555
O15 Sb0 1.941194 1_555
O16 P12 1.545751 1_555
O16 Sb3 1.973735 1_555
O17 P13 1.545751 1_455
O17 Sb2 1.973735 1_555
O18 P14 1.545751 1_555
O18 Sb1 1.973735 1_555
O19 P15 1.545751 1_655
O19 Sb0 1.973735 1_555
O20 P8 1.503094 1_555
O20 Sb6 2.324733 1_555
O21 P9 1.503094 1_555
O21 Sb7 2.324733 1_555
O22 P10 1.503094 1_555
O22 Sb4 2.324733 1_555
O23 P11 1.503094 1_555
O23 Sb5 2.324733 1_555
O24 P6 1.502942 1_555
O24 Sb4 2.105918 1_555
O25 P7 1.502942 1_555
O25 Sb5 2.105918 1_556
O26 P4 1.502942 1_555
O26 Sb6 2.105918 1_555
O27 P5 1.502942 1_555
O27 Sb7 2.105918 1_554
O28 P0 1.531415 1_555
O28 Sb3 1.946027 1_555
O29 P1 1.531415 1_555
O29 Sb2 1.946027 1_555
O30 P2 1.531415 1_555
O30 Sb1 1.946027 1_555
O31 P3 1.531415 1_555
O31 Sb0 1.946027 1_555
O32 P2 1.491777 1_545
O32 Sb4 2.189875 1_555
O33 P3 1.491777 1_565
O33 Sb5 2.189875 1_556
O34 P0 1.491777 1_565
O34 Sb6 2.189875 1_555
O35 P1 1.491777 1_545
O35 Sb7 2.189875 1_554
O36 P5 1.503605 1_555
O36 Sb4 2.088857 1_555
O37 P4 1.503605 1_555
O37 Sb5 2.088857 1_555
O38 P7 1.503605 1_555
O38 Sb6 2.088857 1_555
O39 P6 1.503605 1_555
O39 Sb7 2.088857 1_555
O40 P8 1.554986 1_555
O40 Sb3 1.928669 1_556
O41 P9 1.554986 1_555
O41 Sb2 1.928669 1_555
O42 P10 1.554986 1_555
O42 Sb1 1.928669 1_554
O43 P11 1.554986 1_555
O43 Sb0 1.928669 1_555
O44 P0 1.561337 1_555
O44 P8 1.616663 1_555
O45 P1 1.561337 1_556
O45 P9 1.616663 1_555
O46 P2 1.561337 1_555
O46 P10 1.616663 1_555
O47 P3 1.561337 1_554
O47 P11 1.616663 1_555
O48 P8 1.479475 1_555
O48 Sb4 2.478380 1_555
O49 P9 1.479475 1_555
O49 Sb5 2.478380 1_456
O50 P10 1.479475 1_555
O50 Sb6 2.478380 1_555
O51 P11 1.479475 1_555
O51 Sb7 2.478380 1_654
O52 P0 1.521070 1_555
O52 Sb0 1.953065 1_555
O53 P1 1.521070 1_555
O53 Sb1 1.953065 1_554
O54 P2 1.521070 1_555
O54 Sb2 1.953065 1_555
O55 P3 1.521070 1_555
O55 Sb3 1.953065 1_556
