# generated using pymatgen
data_Eu4Br6O
_symmetry_space_group_name_H-M   'P 1'
_cell_length_a   9.81947376
_cell_length_b   9.81938919
_cell_length_c   7.50546830
_cell_angle_alpha   90.00114380
_cell_angle_beta   89.99448018
_cell_angle_gamma   120.00003393
_symmetry_Int_Tables_number   1
_chemical_formula_structural   Eu4Br6O
_chemical_formula_sum   'Eu8 Br12 O2'
_cell_volume   626.73069194
_cell_formula_units_Z   2
loop_
 _symmetry_equiv_pos_site_id
 _symmetry_equiv_pos_as_xyz
  1  'x, y, z'
loop_
 _atom_site_type_symbol
 _atom_site_label
 _atom_site_symmetry_multiplicity
 _atom_site_fract_x
 _atom_site_fract_y
 _atom_site_fract_z
 _atom_site_occupancy
  Eu  Eu0  1  0.40121324  0.20061730  0.50028854  1
  Eu  Eu1  1  0.59881528  0.79941103  0.00021944  1
  Eu  Eu2  1  0.33333646  0.66664640  0.41430540  1
  Eu  Eu3  1  0.20057604  0.79936281  0.00021423  1
  Eu  Eu4  1  0.66671339  0.33336248  0.91436531  1
  Eu  Eu5  1  0.79942517  0.59886952  0.50021746  1
  Eu  Eu6  1  0.79943610  0.20058745  0.50025001  1
  Eu  Eu7  1  0.20055686  0.40115915  0.00018038  1
  Br  Br0  1  0.53398579  0.46606248  0.20556370  1
  Br  Br1  1  0.72214155  0.86107932  0.38545425  1
  Br  Br2  1  0.93206264  0.46602098  0.20557313  1
  Br  Br3  1  0.13892167  0.27783822  0.38541688  1
  Br  Br4  1  0.06799589  0.53398108  0.70561697  1
  Br  Br5  1  0.53398220  0.06793136  0.20556518  1
  Br  Br6  1  0.27775651  0.13889143  0.88556794  1
  Br  Br7  1  0.13891130  0.86106988  0.38542655  1
  Br  Br8  1  0.46595283  0.53400155  0.70559202  1
  Br  Br9  1  0.46600007  0.93201090  0.70561011  1
  Br  Br10  1  0.86109643  0.13891204  0.88553438  1
  Br  Br11  1  0.86107969  0.72217382  0.88546288  1
  O  O0  1  0.33332701  0.66664302  0.10087625  1
  O  O1  1  0.66671287  0.33337077  0.60089998  1
loop_
_geom_bond_atom_site_label_1
_geom_bond_atom_site_label_2
_geom_bond_distance
_geom_bond_site_symmetry_2
Eu0 O1 2.380791 1_555
Eu1 O0 2.380664 1_555
Eu2 O0 2.352433 1_555
Eu3 O0 2.380647 1_555
Eu4 O1 2.352704 1_555
Eu5 O1 2.380840 1_555
Eu6 O1 2.380811 1_555
Eu7 O0 2.380798 1_555
Br0 Eu4 3.141797 1_554
Br0 Eu5 3.160233 1_555
Br0 Eu0 3.160419 1_555
Br0 Eu1 3.378045 1_555
Br0 Eu7 3.378817 1_555
Br0 Eu2 3.754444 1_555
Br1 Eu1 3.075793 1_555
Br1 Eu5 3.146628 1_555
Br1 Eu6 3.146760 1_565
Br1 Eu2 3.313426 1_555
Br2 Eu4 3.141636 1_554
Br2 Eu6 3.160096 1_555
Br2 Eu5 3.160197 1_555
Br2 Eu3 3.377960 1_655
Br2 Eu7 3.378080 1_655
Br2 Eu2 3.754978 1_655
Br3 Eu7 3.075656 1_555
Br3 Eu6 3.146696 1_455
Br3 Eu0 3.147259 1_555
Br3 Eu2 3.313470 1_555
Br4 Eu2 3.141811 1_555
Br4 Eu7 3.159358 1_556
Br4 Eu3 3.159466 1_556
Br4 Eu6 3.378589 1_455
Br4 Eu5 3.379155 1_455
Br4 Eu4 3.754811 1_455
Br5 Eu4 3.141873 1_554
Br5 Eu0 3.160423 1_555
Br5 Eu6 3.160484 1_555
Br5 Eu1 3.378033 1_545
Br5 Eu3 3.378674 1_545
Br5 Eu2 3.754874 1_545
Br6 Eu0 3.076289 1_555
Br6 Eu7 3.146248 1_556
Br6 Eu3 3.146962 1_546
Br6 Eu4 3.314730 1_555
Br7 Eu3 3.075600 1_555
Br7 Eu5 3.146516 1_455
Br7 Eu0 3.147453 1_565
Br7 Eu2 3.313832 1_555
Br8 Eu2 3.141452 1_555
Br8 Eu7 3.159311 1_556
Br8 Eu1 3.159794 1_556
Br8 Eu0 3.378470 1_555
Br8 Eu5 3.378986 1_555
Br8 Eu4 3.756021 1_555
Br9 Eu2 3.142115 1_555
Br9 Eu3 3.159564 1_556
Br9 Eu1 3.159795 1_556
Br9 Eu0 3.378530 1_565
Br9 Eu6 3.378658 1_565
Br9 Eu4 3.755528 1_565
Br10 Eu6 3.076136 1_555
Br10 Eu7 3.146334 1_656
Br10 Eu1 3.146635 1_546
Br10 Eu4 3.313651 1_555
Br11 Eu5 3.075734 1_555
Br11 Eu1 3.146732 1_556
Br11 Eu3 3.146970 1_656
Br11 Eu4 3.313490 1_555
