# generated using pymatgen
data_Li4Be3P3BrO12
_symmetry_space_group_name_H-M   'P 1'
_cell_length_a   8.17234600
_cell_length_b   8.17234600
_cell_length_c   8.17234600
_cell_angle_alpha   90.00000000
_cell_angle_beta   90.00000000
_cell_angle_gamma   90.00000000
_symmetry_Int_Tables_number   1
_chemical_formula_structural   Li4Be3P3BrO12
_chemical_formula_sum   'Li8 Be6 P6 Br2 O24'
_cell_volume   545.80842667
_cell_formula_units_Z   2
loop_
 _symmetry_equiv_pos_site_id
 _symmetry_equiv_pos_as_xyz
  1  'x, y, z'
loop_
 _atom_site_type_symbol
 _atom_site_label
 _atom_site_symmetry_multiplicity
 _atom_site_fract_x
 _atom_site_fract_y
 _atom_site_fract_z
 _atom_site_occupancy
  Li  Li0  1  0.81658400  0.81658400  0.18341600  1
  Li  Li1  1  0.68341600  0.68341600  0.68341600  1
  Li  Li2  1  0.68341600  0.31658400  0.31658400  1
  Li  Li3  1  0.18341600  0.81658400  0.81658400  1
  Li  Li4  1  0.81658400  0.18341600  0.81658400  1
  Li  Li5  1  0.31658400  0.31658400  0.68341600  1
  Li  Li6  1  0.18341600  0.18341600  0.18341600  1
  Li  Li7  1  0.31658400  0.68341600  0.31658400  1
  Be  Be0  1  0.50000000  0.75000000  0.00000000  1
  Be  Be1  1  0.00000000  0.50000000  0.25000000  1
  Be  Be2  1  0.25000000  0.00000000  0.50000000  1
  Be  Be3  1  0.50000000  0.25000000  0.00000000  1
  Be  Be4  1  0.00000000  0.50000000  0.75000000  1
  Be  Be5  1  0.75000000  0.00000000  0.50000000  1
  P  P0  1  0.50000000  0.00000000  0.25000000  1
  P  P1  1  0.00000000  0.25000000  0.50000000  1
  P  P2  1  0.25000000  0.50000000  0.00000000  1
  P  P3  1  0.00000000  0.75000000  0.50000000  1
  P  P4  1  0.50000000  0.00000000  0.75000000  1
  P  P5  1  0.75000000  0.50000000  0.00000000  1
  Br  Br0  1  0.00000000  0.00000000  0.00000000  1
  Br  Br1  1  0.50000000  0.50000000  0.50000000  1
  O  O0  1  0.07886200  0.35488600  0.63695200  1
  O  O1  1  0.85488600  0.42113800  0.86304800  1
  O  O2  1  0.13695200  0.14511400  0.42113800  1
  O  O3  1  0.57886200  0.13695200  0.85488600  1
  O  O4  1  0.63695200  0.92113800  0.64511400  1
  O  O5  1  0.92113800  0.35488600  0.36304800  1
  O  O6  1  0.86304800  0.14511400  0.57886200  1
  O  O7  1  0.42113800  0.13695200  0.14511400  1
  O  O8  1  0.35488600  0.36304800  0.92113800  1
  O  O9  1  0.35488600  0.63695200  0.07886200  1
  O  O10  1  0.36304800  0.92113800  0.35488600  1
  O  O11  1  0.42113800  0.86304800  0.85488600  1
  O  O12  1  0.14511400  0.42113800  0.13695200  1
  O  O13  1  0.07886200  0.64511400  0.36304800  1
  O  O14  1  0.86304800  0.85488600  0.42113800  1
  O  O15  1  0.64511400  0.36304800  0.07886200  1
  O  O16  1  0.36304800  0.07886200  0.64511400  1
  O  O17  1  0.13695200  0.85488600  0.57886200  1
  O  O18  1  0.57886200  0.86304800  0.14511400  1
  O  O19  1  0.63695200  0.07886200  0.35488600  1
  O  O20  1  0.64511400  0.63695200  0.92113800  1
  O  O21  1  0.92113800  0.64511400  0.63695200  1
  O  O22  1  0.85488600  0.57886200  0.13695200  1
  O  O23  1  0.14511400  0.57886200  0.86304800  1
loop_
_geom_bond_atom_site_label_1
_geom_bond_atom_site_label_2
_geom_bond_distance
_geom_bond_site_symmetry_2
Li0 O18 2.004103 1_555
Li0 O22 2.004103 1_555
Li0 O14 2.004103 1_555
Li1 O20 2.004103 1_555
Li1 O21 2.004103 1_555
Li1 O4 2.004103 1_555
Li2 O19 2.004103 1_555
Li2 O15 2.004103 1_555
Li2 O5 2.004103 1_555
Li3 O23 2.004103 1_555
Li3 O17 2.004103 1_555
Li3 O11 2.004103 1_555
Li4 O3 2.004103 1_555
Li4 O6 2.004103 1_555
Li4 O1 2.004103 1_555
Li5 O16 2.004103 1_555
Li5 O8 2.004103 1_555
Li5 O0 2.004103 1_555
Li6 O2 2.004103 1_555
Li6 O12 2.004103 1_555
Li6 O7 2.004103 1_555
Li7 O9 2.004103 1_555
Li7 O13 2.004103 1_555
Li7 O10 2.004103 1_555
Be0 O11 1.635636 1_554
Be0 O20 1.635636 1_554
Be0 O18 1.635636 1_555
Be0 O9 1.635636 1_555
Be1 O13 1.635636 1_555
Be1 O22 1.635636 1_455
Be1 O12 1.635636 1_555
Be1 O5 1.635636 1_455
Be2 O16 1.635636 1_555
Be2 O17 1.635636 1_545
Be2 O10 1.635636 1_545
Be2 O2 1.635636 1_555
Be3 O3 1.635636 1_554
Be3 O7 1.635636 1_555
Be3 O8 1.635636 1_554
Be3 O15 1.635636 1_555
Be4 O21 1.635636 1_455
Be4 O1 1.635636 1_455
Be4 O0 1.635636 1_555
Be4 O23 1.635636 1_555
Be5 O6 1.635636 1_555
Be5 O4 1.635636 1_545
Be5 O14 1.635636 1_545
Be5 O19 1.635636 1_555
Br0 Li0 2.596239 1_445
Br0 Li4 2.596239 1_454
Br0 Li6 2.596239 1_555
Br0 Li3 2.596239 1_544
Br1 Li5 2.596239 1_555
Br1 Li2 2.596239 1_555
Br1 Li7 2.596239 1_555
Br1 Li1 2.596239 1_555
O0 P1 1.550080 1_555
O1 P5 1.550080 1_556
O2 P1 1.550080 1_555
O3 P4 1.550080 1_555
O4 P4 1.550080 1_565
O5 P1 1.550080 1_655
O6 P1 1.550080 1_655
O7 P0 1.550080 1_555
O8 P2 1.550080 1_556
O9 P2 1.550080 1_555
O10 P0 1.550080 1_565
O11 P4 1.550080 1_565
O12 P2 1.550080 1_555
O13 P3 1.550080 1_555
O14 P3 1.550080 1_655
O15 P5 1.550080 1_555
O16 P4 1.550080 1_555
O17 P3 1.550080 1_555
O18 P0 1.550080 1_565
O19 P0 1.550080 1_555
O20 P5 1.550080 1_556
O21 P3 1.550080 1_655
O22 P5 1.550080 1_555
O23 P2 1.550080 1_556
