# generated using pymatgen
data_Pr10S14O
_symmetry_space_group_name_H-M   'P 1'
_cell_length_a   14.79030791
_cell_length_b   14.79030791
_cell_length_c   14.79030791
_cell_angle_alpha   117.87926436
_cell_angle_beta   117.87926436
_cell_angle_gamma   93.71422785
_symmetry_Int_Tables_number   1
_chemical_formula_structural   Pr10S14O
_chemical_formula_sum   'Pr40 S56 O4'
_cell_volume   2355.77303452
_cell_formula_units_Z   4
loop_
 _symmetry_equiv_pos_site_id
 _symmetry_equiv_pos_as_xyz
  1  'x, y, z'
loop_
 _atom_site_type_symbol
 _atom_site_label
 _atom_site_symmetry_multiplicity
 _atom_site_fract_x
 _atom_site_fract_y
 _atom_site_fract_z
 _atom_site_occupancy
  Pr  Pr0  1  0.38474100  0.11525800  0.00000000  1
  Pr  Pr1  1  0.80028900  0.92639400  0.86126700  1
  Pr  Pr2  1  0.88474100  0.88474100  0.26948300  1
  Pr  Pr3  1  0.30028900  0.43902100  0.87389500  1
  Pr  Pr4  1  0.04959600  0.19915200  0.40538000  1
  Pr  Pr5  1  0.57360600  0.69971100  0.13873300  1
  Pr  Pr6  1  0.94971100  0.32360600  0.63873300  1
  Pr  Pr7  1  0.70040400  0.05084800  0.09462000  1
  Pr  Pr8  1  0.20040400  0.10578400  0.64955600  1
  Pr  Pr9  1  0.17639400  0.55028900  0.36126700  1
  Pr  Pr10  1  0.11525800  0.38474100  0.00000000  1
  Pr  Pr11  1  0.56097900  0.43487300  0.86126700  1
  Pr  Pr12  1  0.94915200  0.04377200  0.64955600  1
  Pr  Pr13  1  0.67639400  0.31512700  0.62610500  1
  Pr  Pr14  1  0.18487300  0.82360600  0.37389500  1
  Pr  Pr15  1  0.89421600  0.54377200  0.09462000  1
  Pr  Pr16  1  0.07360600  0.93487300  0.87389500  1
  Pr  Pr17  1  0.06512700  0.93902100  0.13873300  1
  Pr  Pr18  1  0.54959600  0.14421600  0.85044400  1
  Pr  Pr19  1  0.68902100  0.05028900  0.37389500  1
  Pr  Pr20  1  0.85578400  0.70622800  0.40538000  1
  Pr  Pr21  1  0.39421600  0.29959600  0.35044400  1
  Pr  Pr22  1  0.63474100  0.86525900  0.50000000  1
  Pr  Pr23  1  0.18902100  0.81512700  0.63873300  1
  Pr  Pr24  1  0.86525900  0.36525800  0.23051700  1
  Pr  Pr25  1  0.06097900  0.19971100  0.12610500  1
  Pr  Pr26  1  0.95622800  0.60578400  0.90538000  1
  Pr  Pr27  1  0.30084800  0.45040400  0.59462000  1
  Pr  Pr28  1  0.45622800  0.55084800  0.35044400  1
  Pr  Pr29  1  0.80084800  0.20622800  0.85044400  1
  Pr  Pr30  1  0.35578400  0.95040400  0.14955600  1
  Pr  Pr31  1  0.29377200  0.69915200  0.14955600  1
  Pr  Pr32  1  0.13474100  0.63474100  0.76948300  1
  Pr  Pr33  1  0.44915200  0.79959600  0.90538000  1
  Pr  Pr34  1  0.61525900  0.61525900  0.73051700  1
  Pr  Pr35  1  0.68487300  0.31097900  0.36126700  1
  Pr  Pr36  1  0.36525800  0.13474100  0.50000000  1
  Pr  Pr37  1  0.79377200  0.64421600  0.59462000  1
  Pr  Pr38  1  0.44971100  0.81097900  0.62610500  1
  Pr  Pr39  1  0.56512700  0.42639400  0.12610500  1
  S  S0  1  0.40269500  0.74534300  0.39173500  1
  S  S1  1  0.77255000  0.87500000  0.39755000  1
  S  S2  1  0.13271000  0.41528600  0.64101800  1
  S  S3  1  0.16528600  0.02426800  0.78257600  1
  S  S4  1  0.43891800  0.95914200  0.83448200  1
  S  S5  1  0.20914200  0.18891800  0.33448200  1
  S  S6  1  0.85443600  0.87466000  0.66551800  1
  S  S7  1  0.04085800  0.87534000  0.47977600  1
  S  S8  1  0.35360700  0.01096000  0.60826500  1
  S  S9  1  0.50830900  0.86729000  0.28257600  1
  S  S10  1  0.76096000  0.65269500  0.15735200  1
  S  S11  1  0.47745000  0.37500000  0.60245000  1
  S  S12  1  0.62534000  0.64556400  0.33448200  1
  S  S13  1  0.26096000  0.10360700  0.10826500  1
  S  S14  1  0.61729000  0.83471400  0.85898200  1
  S  S15  1  0.63271000  0.99169100  0.71742400  1
  S  S16  1  0.12534000  0.79085800  0.97977600  1
  S  S17  1  0.99534300  0.15269500  0.89173500  1
  S  S18  1  0.75465700  0.09730500  0.60826500  1
  S  S19  1  0.89556400  0.37534000  0.83448200  1
  S  S20  1  0.97573200  0.75830900  0.14101800  1
  S  S21  1  0.27255000  0.87500000  0.89755000  1
  S  S22  1  0.54085800  0.06108200  0.16551800  1
  S  S23  1  0.62500000  0.22745000  0.10245000  1
  S  S24  1  0.31108200  0.29085800  0.66551800  1
  S  S25  1  0.39556400  0.56108200  0.52022400  1
  S  S26  1  0.35443600  0.68891800  0.97977600  1
  S  S27  1  0.70914200  0.37466000  0.02022400  1
  S  S28  1  0.12500000  0.52255000  0.89755000  1
  S  S29  1  0.81108200  0.14556400  0.02022400  1
  S  S30  1  0.49534300  0.60360700  0.84264800  1
  S  S31  1  0.27426800  0.91528600  0.28257600  1
  S  S32  1  0.58471400  0.22573200  0.71742400  1
  S  S33  1  0.66528600  0.88271000  0.14101800  1
  S  S34  1  0.11729000  0.25830900  0.78257600  1
  S  S35  1  0.12500000  0.02255000  0.39755000  1
  S  S36  1  0.85360700  0.24534300  0.34264800  1
  S  S37  1  0.84730500  0.73904000  0.84264800  1
  S  S38  1  0.62466000  0.45914200  0.52022400  1
  S  S39  1  0.77426800  0.49169100  0.35898200  1
  S  S40  1  0.25465700  0.64639300  0.65735200  1
  S  S41  1  0.39639300  0.23904000  0.89173500  1
  S  S42  1  0.98904000  0.59730500  0.34264800  1
  S  S43  1  0.47573200  0.33471400  0.21742400  1
  S  S44  1  0.93891800  0.10443600  0.47977600  1
  S  S45  1  0.90269500  0.51096000  0.65735200  1
  S  S46  1  0.48904000  0.14639300  0.39173500  1
  S  S47  1  0.34730500  0.50465700  0.10826500  1
  S  S48  1  0.62500000  0.72745000  0.60245000  1
  S  S49  1  0.00830900  0.72573200  0.64101800  1
  S  S50  1  0.24169100  0.38271000  0.21742400  1
  S  S51  1  0.08471400  0.36729000  0.35898200  1
  S  S52  1  0.97745000  0.37500000  0.10245000  1
  S  S53  1  0.12466000  0.60443600  0.16551800  1
  S  S54  1  0.74169100  0.52426800  0.85898200  1
  S  S55  1  0.89639300  0.00465700  0.15735200  1
  O  O0  1  0.25000000  0.75000000  0.50000000  1
  O  O1  1  0.50000000  0.50000000  0.00000000  1
  O  O2  1  0.75000000  0.25000000  0.50000000  1
  O  O3  1  0.00000000  0.00000000  0.00000000  1
loop_
_geom_bond_atom_site_label_1
_geom_bond_atom_site_label_2
_geom_bond_distance
_geom_bond_site_symmetry_2
Pr0 S3 2.883167 1_554
Pr0 S43 2.883173 1_555
Pr0 S22 2.958784 1_555
Pr0 S4 2.958788 1_544
Pr0 S13 2.984003 1_555
Pr0 S41 2.984019 1_554
Pr0 S21 3.086364 1_544
Pr0 S23 3.086381 1_555
Pr1 S37 2.820115 1_555
Pr1 S29 2.918101 1_566
Pr1 S14 2.926030 1_555
Pr1 S15 2.983666 1_555
Pr1 S48 3.037948 1_555
Pr1 S6 3.128094 1_555
Pr1 S55 3.429627 1_566
Pr2 S33 2.883167 1_555
Pr2 S20 2.883168 1_555
Pr2 S7 2.958784 1_655
Pr2 S44 2.958788 1_565
Pr2 S10 2.983999 1_555
Pr2 S55 2.984020 1_565
Pr2 S1 3.086364 1_555
Pr2 S35 3.086381 1_665
Pr3 S47 2.820111 1_556
Pr3 S24 2.918098 1_555
Pr3 S34 2.926012 1_555
Pr3 S2 2.983683 1_555
Pr3 S28 3.037954 1_555
Pr3 S26 3.128108 1_555
Pr3 S41 3.429623 1_555
Pr4 S36 2.839782 1_455
Pr4 S35 2.880109 1_555
Pr4 S55 2.894692 1_455
Pr4 S44 2.946501 1_455
Pr4 S51 2.947363 1_555
Pr4 S5 2.983755 1_555
Pr4 S2 2.990183 1_555
Pr4 S24 3.481951 1_555
Pr5 S10 2.820115 1_555
Pr5 S26 2.918101 1_554
Pr5 S33 2.926030 1_555
Pr5 S9 2.983666 1_555
Pr5 S1 3.037948 1_555
Pr5 S12 3.128094 1_555
Pr5 S30 3.429627 1_554
Pr6 S45 2.820115 1_555
Pr6 S44 2.918101 1_555
Pr6 S2 2.926030 1_655
Pr6 S34 2.983666 1_655
Pr6 S28 3.037948 1_655
Pr6 S19 3.128094 1_555
Pr6 S36 3.429627 1_555
Pr7 S55 2.839782 1_555
Pr7 S23 2.880109 1_555
Pr7 S36 2.894692 1_555
Pr7 S29 2.946501 1_555
Pr7 S33 2.947363 1_545
Pr7 S22 2.983755 1_555
Pr7 S14 2.990183 1_544
Pr7 S4 3.481951 1_544
Pr8 S41 2.839775 1_555
Pr8 S35 2.880109 1_555
Pr8 S8 2.894680 1_555
Pr8 S24 2.946501 1_555
Pr8 S3 2.947363 1_555
Pr8 S7 2.983755 1_545
Pr8 S34 2.990190 1_555
Pr8 S44 3.481951 1_455
Pr9 S42 2.820115 1_455
Pr9 S25 2.918101 1_555
Pr9 S51 2.926030 1_555
Pr9 S50 2.983666 1_555
Pr9 S52 3.037948 1_455
Pr9 S53 3.128094 1_555
Pr9 S40 3.429627 1_555
Pr10 S50 2.883165 1_555
Pr10 S34 2.883172 1_554
Pr10 S19 2.958784 1_454
Pr10 S53 2.958788 1_555
Pr10 S17 2.983999 1_454
Pr10 S47 2.984015 1_555
Pr10 S52 3.086364 1_455
Pr10 S28 3.086381 1_554
Pr11 S30 2.820106 1_555
Pr11 S27 2.918096 1_556
Pr11 S54 2.926004 1_555
Pr11 S32 2.983669 1_555
Pr11 S11 3.037945 1_555
Pr11 S24 3.128105 1_555
Pr11 S10 3.429627 1_556
Pr12 S17 2.839769 1_555
Pr12 S1 2.880109 1_545
Pr12 S18 2.894694 1_555
Pr12 S6 2.946501 1_545
Pr12 S34 2.947373 1_655
Pr12 S44 2.983755 1_555
Pr12 S3 2.990183 1_655
Pr12 S7 3.481951 1_645
Pr13 S46 2.820111 1_555
Pr13 S19 2.918101 1_555
Pr13 S32 2.926030 1_555
Pr13 S54 2.983681 1_555
Pr13 S11 3.037948 1_555
Pr13 S38 3.128094 1_555
Pr13 S18 3.429630 1_555
Pr14 S8 2.820111 1_565
Pr14 S53 2.918101 1_555
Pr14 S31 2.926030 1_555
Pr14 S20 2.983681 1_455
Pr14 S35 3.037948 1_565
Pr14 S7 3.128094 1_555
Pr14 S0 3.429630 1_555
Pr15 S10 2.839769 1_555
Pr15 S52 2.880109 1_555
Pr15 S42 2.894694 1_555
Pr15 S27 2.946501 1_555
Pr15 S20 2.947377 1_555
Pr15 S53 2.983755 1_655
Pr15 S54 2.990186 1_554
Pr15 S19 3.481951 1_554
Pr16 S13 2.820111 1_566
Pr16 S6 2.918101 1_455
Pr16 S3 2.926030 1_565
Pr16 S49 2.983681 1_555
Pr16 S21 3.037948 1_555
Pr16 S16 3.128094 1_555
Pr16 S17 3.429630 1_465
Pr17 S55 2.820106 1_465
Pr17 S16 2.918096 1_554
Pr17 S20 2.926004 1_455
Pr17 S31 2.983669 1_555
Pr17 S35 3.037945 1_565
Pr17 S5 3.128105 1_565
Pr17 S37 3.429627 1_454
Pr18 S8 2.839775 1_555
Pr18 S23 2.880109 1_556
Pr18 S41 2.894680 1_555
Pr18 S4 2.946501 1_545
Pr18 S32 2.947363 1_555
Pr18 S27 2.983755 1_556
Pr18 S15 2.990190 1_545
Pr18 S29 3.481951 1_556
Pr19 S18 2.820111 1_555
Pr19 S22 2.918098 1_555
Pr19 S9 2.926012 1_545
Pr19 S33 2.983683 1_545
Pr19 S1 3.037954 1_545
Pr19 S44 3.128108 1_555
Pr19 S46 3.429623 1_555
Pr20 S42 2.839769 1_555
Pr20 S1 2.880109 1_555
Pr20 S10 2.894694 1_555
Pr20 S7 2.946501 1_655
Pr20 S39 2.947377 1_555
Pr20 S12 2.983755 1_555
Pr20 S49 2.990186 1_655
Pr20 S6 3.481951 1_555
Pr21 S13 2.839775 1_555
Pr21 S11 2.880109 1_555
Pr21 S46 2.894680 1_555
Pr21 S5 2.946501 1_555
Pr21 S43 2.947363 1_555
Pr21 S38 2.983755 1_555
Pr21 S50 2.990190 1_555
Pr21 S25 3.481951 1_555
Pr22 S15 2.883163 1_555
Pr22 S9 2.883163 1_555
Pr22 S6 2.958794 1_555
Pr22 S12 2.958794 1_555
Pr22 S18 2.984003 1_565
Pr22 S0 2.984003 1_555
Pr22 S48 3.086378 1_555
Pr22 S1 3.086378 1_555
Pr23 S40 2.820106 1_555
Pr23 S7 2.918096 1_555
Pr23 S49 2.926004 1_555
Pr23 S3 2.983669 1_565
Pr23 S21 3.037945 1_555
Pr23 S4 3.128105 1_555
Pr23 S42 3.429627 1_455
Pr24 S51 2.883161 1_655
Pr24 S39 2.883173 1_555
Pr24 S29 2.958779 1_555
Pr24 S27 2.958792 1_555
Pr24 S36 2.984007 1_555
Pr24 S42 2.984011 1_555
Pr24 S52 3.086369 1_555
Pr24 S23 3.086377 1_555
Pr25 S17 2.820111 1_454
Pr25 S5 2.918098 1_555
Pr25 S50 2.926012 1_555
Pr25 S51 2.983683 1_555
Pr25 S52 3.037954 1_455
Pr25 S29 3.128108 1_455
Pr25 S13 3.429623 1_555
Pr26 S37 2.839769 1_555
Pr26 S28 2.880109 1_655
Pr26 S45 2.894694 1_555
Pr26 S16 2.946501 1_655
Pr26 S54 2.947377 1_555
Pr26 S19 2.983755 1_555
Pr26 S20 2.990186 1_556
Pr26 S53 3.481951 1_656
Pr27 S40 2.839782 1_555
Pr27 S11 2.880109 1_555
Pr27 S30 2.894692 1_555
Pr27 S25 2.946501 1_555
Pr27 S2 2.947363 1_555
Pr27 S24 2.983755 1_555
Pr27 S51 2.990183 1_555
Pr27 S5 3.481951 1_555
Pr28 S47 2.839769 1_555
Pr28 S48 2.880109 1_555
Pr28 S0 2.894694 1_555
Pr28 S12 2.946501 1_555
Pr28 S50 2.947373 1_555
Pr28 S25 2.983755 1_555
Pr28 S43 2.990183 1_555
Pr28 S38 3.481951 1_555
Pr29 S18 2.839769 1_555
Pr29 S52 2.880109 1_556
Pr29 S17 2.894694 1_555
Pr29 S19 2.946501 1_555
Pr29 S15 2.947373 1_545
Pr29 S29 2.983755 1_556
Pr29 S32 2.990183 1_555
Pr29 S27 3.481951 1_556
Pr30 S46 2.839775 1_565
Pr30 S21 2.880109 1_554
Pr30 S13 2.894680 1_565
Pr30 S22 2.946501 1_565
Pr30 S31 2.947363 1_555
Pr30 S16 2.983755 1_554
Pr30 S9 2.990190 1_555
Pr30 S26 3.481951 1_554
Pr31 S0 2.839769 1_555
Pr31 S28 2.880109 1_554
Pr31 S47 2.894694 1_555
Pr31 S53 2.946501 1_555
Pr31 S9 2.947373 1_555
Pr31 S26 2.983755 1_554
Pr31 S31 2.990183 1_555
Pr31 S16 3.481951 1_554
Pr32 S2 2.883167 1_555
Pr32 S49 2.883168 1_555
Pr32 S16 2.958784 1_555
Pr32 S26 2.958788 1_555
Pr32 S45 2.983999 1_455
Pr32 S40 2.984020 1_555
Pr32 S28 3.086364 1_555
Pr32 S21 3.086381 1_555
Pr33 S30 2.839782 1_555
Pr33 S21 2.880109 1_555
Pr33 S40 2.894692 1_555
Pr33 S26 2.946501 1_555
Pr33 S14 2.947363 1_555
Pr33 S4 2.983755 1_555
Pr33 S33 2.990183 1_556
Pr33 S22 3.481951 1_566
Pr34 S14 2.883167 1_555
Pr34 S54 2.883168 1_555
Pr34 S38 2.958784 1_555
Pr34 S25 2.958788 1_555
Pr34 S37 2.983999 1_555
Pr34 S30 2.984020 1_555
Pr34 S48 3.086364 1_555
Pr34 S11 3.086381 1_555
Pr35 S36 2.820106 1_555
Pr35 S38 2.918096 1_555
Pr35 S39 2.926004 1_555
Pr35 S43 2.983669 1_555
Pr35 S23 3.037945 1_555
Pr35 S22 3.128105 1_555
Pr35 S45 3.429627 1_555
Pr36 S31 2.883167 1_545
Pr36 S32 2.883173 1_555
Pr36 S24 2.958784 1_555
Pr36 S5 2.958788 1_555
Pr36 S8 2.984003 1_555
Pr36 S46 2.984019 1_555
Pr36 S35 3.086364 1_555
Pr36 S11 3.086381 1_555
Pr37 S45 2.839769 1_555
Pr37 S48 2.880109 1_555
Pr37 S37 2.894694 1_555
Pr37 S38 2.946501 1_555
Pr37 S49 2.947377 1_655
Pr37 S6 2.983755 1_555
Pr37 S39 2.990186 1_555
Pr37 S12 3.481951 1_555
Pr38 S0 2.820111 1_555
Pr38 S4 2.918098 1_555
Pr38 S15 2.926012 1_555
Pr38 S14 2.983683 1_555
Pr38 S48 3.037954 1_555
Pr38 S25 3.128108 1_555
Pr38 S8 3.429623 1_565
Pr39 S41 2.820111 1_554
Pr39 S12 2.918101 1_555
Pr39 S43 2.926030 1_555
Pr39 S39 2.983681 1_555
Pr39 S23 3.037948 1_555
Pr39 S27 3.128094 1_555
Pr39 S47 3.429630 1_555
O0 Pr38 2.438512 1_555
O0 Pr9 2.438513 1_555
O0 Pr14 2.438513 1_555
O0 Pr23 2.438525 1_555
O1 Pr3 2.438512 1_554
O1 Pr39 2.438513 1_555
O1 Pr5 2.438513 1_555
O1 Pr11 2.438525 1_554
O2 Pr19 2.438512 1_555
O2 Pr6 2.438513 1_555
O2 Pr13 2.438513 1_555
O2 Pr35 2.438525 1_555
O3 Pr25 2.438512 1_555
O3 Pr16 2.438513 1_544
O3 Pr1 2.438513 1_444
O3 Pr17 2.438525 1_545
