# generated using pymatgen
data_Na2Sn3Au
_symmetry_space_group_name_H-M   'P 1'
_cell_length_a   9.67437891
_cell_length_b   9.67439249
_cell_length_c   7.54958235
_cell_angle_alpha   90.00000455
_cell_angle_beta   89.99999982
_cell_angle_gamma   120.00268168
_symmetry_Int_Tables_number   1
_chemical_formula_structural   Na2Sn3Au
_chemical_formula_sum   'Na8 Sn12 Au4'
_cell_volume   611.91150384
_cell_formula_units_Z   4
loop_
 _symmetry_equiv_pos_site_id
 _symmetry_equiv_pos_as_xyz
  1  'x, y, z'
loop_
 _atom_site_type_symbol
 _atom_site_label
 _atom_site_symmetry_multiplicity
 _atom_site_fract_x
 _atom_site_fract_y
 _atom_site_fract_z
 _atom_site_occupancy
  Na  Na0  1  0.53252600  0.06503475  0.24999988  1
  Na  Na1  1  0.06503492  0.53252602  0.74999986  1
  Na  Na2  1  0.46748689  0.53251328  0.74999983  1
  Na  Na3  1  0.53251319  0.46748694  0.25000019  1
  Na  Na4  1  0.46747413  0.93496520  0.75000005  1
  Na  Na5  1  0.93496545  0.46747418  0.25000000  1
  Na  Na6  1  -0.00000401  0.00000382  0.75000018  1
  Na  Na7  1  0.00000419  -0.00000387  0.25000029  1
  Sn  Sn0  1  0.17106628  0.82893332  0.05334816  1
  Sn  Sn1  1  0.82893377  0.65786790  0.55334837  1
  Sn  Sn2  1  0.34213244  0.17106649  0.55334848  1
  Sn  Sn3  1  0.82893367  0.17106661  0.94665144  1
  Sn  Sn4  1  0.82893372  0.65786801  0.94665181  1
  Sn  Sn5  1  0.82893360  0.17106664  0.55334851  1
  Sn  Sn6  1  0.34213246  0.17106663  0.94665159  1
  Sn  Sn7  1  0.65786751  0.82893318  0.05334793  1
  Sn  Sn8  1  0.65786727  0.82893330  0.44665196  1
  Sn  Sn9  1  0.17106639  0.34213226  0.44665196  1
  Sn  Sn10  1  0.17106664  0.82893337  0.44665191  1
  Sn  Sn11  1  0.17106644  0.34213222  0.05334799  1
  Au  Au0  1  0.33333484  0.66666568  0.46272708  1
  Au  Au1  1  0.66666521  0.33333416  0.53727223  1
  Au  Au2  1  0.66666531  0.33333435  0.96272758  1
  Au  Au3  1  0.33333469  0.66666558  0.03727274  1
loop_
_geom_bond_atom_site_label_1
_geom_bond_atom_site_label_2
_geom_bond_distance
_geom_bond_site_symmetry_2
Na0 Sn3 3.402675 1_554
Na0 Sn5 3.402675 1_555
Na0 Sn6 3.402851 1_554
Na0 Sn2 3.402852 1_555
Na0 Sn10 3.414920 1_545
Na0 Sn0 3.414921 1_545
Na0 Sn8 3.414939 1_545
Na0 Sn7 3.414941 1_545
Na1 Sn10 3.402673 1_555
Na1 Sn0 3.402675 1_556
Na1 Sn9 3.402849 1_555
Na1 Sn11 3.402851 1_556
Na1 Sn5 3.414921 1_455
Na1 Sn3 3.414922 1_455
Na1 Sn1 3.414937 1_455
Na1 Sn4 3.414940 1_455
Na2 Sn8 3.402720 1_555
Na2 Sn7 3.402721 1_556
Na2 Sn9 3.402721 1_555
Na2 Sn11 3.402723 1_556
Na2 Sn1 3.414865 1_555
Na2 Sn4 3.414866 1_555
Na2 Sn2 3.414868 1_555
Na2 Sn6 3.414869 1_555
Na3 Sn1 3.402723 1_555
Na3 Sn4 3.402724 1_554
Na3 Sn2 3.402725 1_555
Na3 Sn6 3.402726 1_554
Na3 Sn9 3.414865 1_555
Na3 Sn11 3.414866 1_555
Na3 Sn8 3.414867 1_555
Na3 Sn7 3.414867 1_555
Na4 Sn10 3.402672 1_555
Na4 Sn0 3.402674 1_556
Na4 Sn8 3.402848 1_555
Na4 Sn7 3.402849 1_556
Na4 Sn3 3.414919 1_565
Na4 Sn5 3.414919 1_565
Na4 Sn2 3.414939 1_565
Na4 Sn6 3.414940 1_565
Na5 Sn5 3.402677 1_555
Na5 Sn3 3.402678 1_554
Na5 Sn1 3.402853 1_555
Na5 Sn4 3.402853 1_554
Na5 Sn0 3.414920 1_655
Na5 Sn10 3.414921 1_655
Na5 Sn9 3.414938 1_655
Na5 Sn11 3.414938 1_655
Na6 Sn4 3.228090 1_445
Na6 Sn6 3.228090 1_555
Na6 Sn1 3.228091 1_445
Na6 Sn2 3.228091 1_555
Na6 Sn3 3.228110 1_455
Na6 Sn5 3.228112 1_455
Na6 Sn7 3.668899 1_446
Na6 Sn11 3.668902 1_556
Na6 Sn8 3.668903 1_445
Na6 Sn9 3.668904 1_555
Na6 Sn0 3.669073 1_546
Na6 Sn10 3.669076 1_545
Na7 Sn9 3.228092 1_555
Na7 Sn11 3.228094 1_555
Na7 Sn8 3.228094 1_445
Na7 Sn7 3.228095 1_445
Na7 Sn0 3.228111 1_545
Na7 Sn10 3.228112 1_545
Na7 Sn2 3.668899 1_555
Na7 Sn6 3.668902 1_554
Na7 Sn1 3.668902 1_445
Na7 Sn4 3.668903 1_444
Na7 Sn5 3.669076 1_455
Na7 Sn3 3.669079 1_454
Sn0 Sn10 2.969279 1_555
Sn0 Sn4 2.977429 1_454
Sn0 Sn6 2.977440 1_564
Sn1 Sn4 2.969277 1_555
Sn1 Sn10 2.977432 1_655
Sn1 Sn8 2.977538 1_555
Sn2 Sn6 2.969274 1_555
Sn2 Sn9 2.977537 1_555
Sn3 Sn5 2.969273 1_555
Sn3 Sn7 2.977440 1_546
Sn4 Sn7 2.977533 1_556
Sn5 Sn9 2.977432 1_655
Sn5 Sn8 2.977440 1_545
Sn7 Sn8 2.969281 1_555
Sn10 Sn2 2.977438 1_565
Sn11 Sn9 2.969281 1_555
Sn11 Sn3 2.977431 1_454
Sn11 Sn6 2.977535 1_554
Au0 Sn8 2.721650 1_555
Au0 Sn9 2.721662 1_555
Au0 Sn10 2.721791 1_555
Au0 Na1 3.123518 1_555
Au0 Na4 3.123519 1_555
Au0 Na2 3.123612 1_555
Au1 Sn2 2.721653 1_555
Au1 Sn1 2.721665 1_555
Au1 Sn5 2.721792 1_555
Au1 Na0 3.123515 1_555
Au1 Na5 3.123517 1_555
Au1 Na3 3.123611 1_555
Au2 Sn6 2.721654 1_555
Au2 Sn4 2.721664 1_555
Au2 Sn3 2.721793 1_555
Au2 Na0 3.123516 1_556
Au2 Na5 3.123518 1_556
Au2 Na3 3.123613 1_556
Au3 Sn7 2.721653 1_555
Au3 Sn11 2.721662 1_555
Au3 Sn0 2.721793 1_555
Au3 Na1 3.123518 1_554
Au3 Na4 3.123518 1_554
Au3 Na2 3.123613 1_554
