# generated using pymatgen
data_K2RuI5NO
_symmetry_space_group_name_H-M   'P 1'
_cell_length_a   7.95313400
_cell_length_b   11.78730900
_cell_length_c   15.33482600
_cell_angle_alpha   90.00000000
_cell_angle_beta   90.00000000
_cell_angle_gamma   90.00000000
_symmetry_Int_Tables_number   1
_chemical_formula_structural   K2RuI5NO
_chemical_formula_sum   'K8 Ru4 I20 N4 O4'
_cell_volume   1437.57933391
_cell_formula_units_Z   4
loop_
 _symmetry_equiv_pos_site_id
 _symmetry_equiv_pos_as_xyz
  1  'x, y, z'
loop_
 _atom_site_type_symbol
 _atom_site_label
 _atom_site_symmetry_multiplicity
 _atom_site_fract_x
 _atom_site_fract_y
 _atom_site_fract_z
 _atom_site_occupancy
  K  K0  1  0.65654300  0.00058800  0.14298300  1
  K  K1  1  0.34345700  0.99941200  0.85701700  1
  K  K2  1  0.15654300  0.50058800  0.35701700  1
  K  K3  1  0.84345700  0.00058800  0.64298300  1
  K  K4  1  0.84345700  0.49941200  0.64298300  1
  K  K5  1  0.15654300  0.99941200  0.35701700  1
  K  K6  1  0.34345700  0.50058800  0.85701700  1
  K  K7  1  0.65654300  0.49941200  0.14298300  1
  Ru  Ru0  1  0.18425300  0.25000000  0.10919300  1
  Ru  Ru1  1  0.81574700  0.75000000  0.89080700  1
  Ru  Ru2  1  0.31574700  0.25000000  0.60919300  1
  Ru  Ru3  1  0.68425300  0.75000000  0.39080700  1
  I  I0  1  0.08685900  0.75000000  0.77838000  1
  I  I1  1  0.19210300  0.48370100  0.11252400  1
  I  I2  1  0.39129100  0.25000000  0.25341700  1
  I  I3  1  0.58685900  0.25000000  0.72162000  1
  I  I4  1  0.96583500  0.75000000  0.49646500  1
  I  I5  1  0.89129100  0.75000000  0.24658300  1
  I  I6  1  0.80789700  0.51629900  0.88747600  1
  I  I7  1  0.03416500  0.25000000  0.50353500  1
  I  I8  1  0.60870900  0.75000000  0.74658300  1
  I  I9  1  0.69210300  0.98370100  0.38747600  1
  I  I10  1  0.19210300  0.01629900  0.11252400  1
  I  I11  1  0.53416500  0.75000000  0.99646500  1
  I  I12  1  0.30789700  0.01629900  0.61252400  1
  I  I13  1  0.91314100  0.25000000  0.22162000  1
  I  I14  1  0.46583500  0.25000000  0.00353500  1
  I  I15  1  0.41314100  0.75000000  0.27838000  1
  I  I16  1  0.69210300  0.51629900  0.38747600  1
  I  I17  1  0.30789700  0.48370100  0.61252400  1
  I  I18  1  0.10870900  0.25000000  0.75341700  1
  I  I19  1  0.80789700  0.98370100  0.88747600  1
  N  N0  1  0.95752900  0.75000000  0.97731900  1
  N  N1  1  0.54247100  0.75000000  0.47731900  1
  N  N2  1  0.04247100  0.25000000  0.02268100  1
  N  N3  1  0.45752900  0.25000000  0.52268100  1
  O  O0  1  0.06089200  0.75000000  0.03165600  1
  O  O1  1  0.56089200  0.25000000  0.46834400  1
  O  O2  1  0.43910800  0.75000000  0.53165600  1
  O  O3  1  0.93910800  0.25000000  0.96834400  1
loop_
_geom_bond_atom_site_label_1
_geom_bond_atom_site_label_2
_geom_bond_distance
_geom_bond_site_symmetry_2
I0 Ru1 2.760706 1_455
I0 K6 3.776485 1_555
I0 K1 3.776485 1_555
I0 K4 4.096709 1_455
I0 K3 4.096709 1_465
I1 Ru0 2.755887 1_555
I1 K7 3.727771 1_555
I1 K2 3.765174 1_555
I1 K6 4.103724 1_554
I2 Ru0 2.757298 1_555
I2 K2 3.838521 1_555
I2 K5 3.838521 1_545
I2 K0 3.995151 1_555
I2 K7 3.995151 1_555
I3 Ru2 2.760706 1_555
I3 K3 3.776485 1_555
I3 K4 3.776485 1_555
I3 K1 4.096709 1_545
I3 K6 4.096709 1_555
I4 Ru3 2.764124 1_555
I4 K4 3.836693 1_555
I4 K3 3.836693 1_565
I4 K5 3.939067 1_655
I4 K2 3.939067 1_655
I5 Ru3 2.757298 1_555
I5 K7 3.838521 1_555
I5 K0 3.838521 1_565
I5 K2 3.995151 1_655
I5 K5 3.995151 1_655
I6 Ru1 2.755887 1_555
I6 K6 3.727771 1_555
I6 K4 3.765174 1_555
I6 K7 4.103724 1_556
I7 Ru2 2.764124 1_555
I7 K2 3.836693 1_555
I7 K5 3.836693 1_545
I7 K3 3.939067 1_455
I7 K4 3.939067 1_455
I8 Ru1 2.757298 1_555
I8 K4 3.838521 1_555
I8 K3 3.838521 1_565
I8 K6 3.995151 1_555
I8 K1 3.995151 1_555
I9 Ru3 2.755887 1_555
I9 K5 3.727771 1_655
I9 K0 3.765174 1_565
I9 K3 4.103724 1_565
I10 Ru0 2.755887 1_555
I10 K0 3.727771 1_555
I10 K5 3.765174 1_545
I10 K1 4.103724 1_544
I11 Ru1 2.764124 1_555
I11 K7 3.836693 1_556
I11 K0 3.836693 1_566
I11 K6 3.939067 1_555
I11 K1 3.939067 1_555
I12 Ru2 2.755887 1_555
I12 K3 3.727771 1_455
I12 K1 3.765174 1_545
I12 K5 4.103724 1_545
I13 Ru0 2.760706 1_655
I13 K0 3.776485 1_555
I13 K7 3.776485 1_555
I13 K5 4.096709 1_645
I13 K2 4.096709 1_655
I14 Ru0 2.764124 1_555
I14 K6 3.836693 1_554
I14 K1 3.836693 1_544
I14 K0 3.939067 1_555
I14 K7 3.939067 1_555
I15 Ru3 2.760706 1_555
I15 K5 3.776485 1_555
I15 K2 3.776485 1_555
I15 K7 4.096709 1_555
I15 K0 4.096709 1_565
I16 Ru3 2.755887 1_555
I16 K2 3.727771 1_655
I16 K7 3.765174 1_555
I16 K4 4.103724 1_555
I17 Ru2 2.755887 1_555
I17 K4 3.727771 1_455
I17 K6 3.765174 1_555
I17 K2 4.103724 1_555
I18 Ru2 2.757298 1_555
I18 K1 3.838521 1_545
I18 K6 3.838521 1_555
I18 K3 3.995151 1_455
I18 K4 3.995151 1_455
I19 Ru1 2.755887 1_555
I19 K1 3.727771 1_555
I19 K3 3.765174 1_565
I19 K0 4.103724 1_566
N0 O0 1.170506 1_656
N0 Ru1 1.741120 1_555
N1 O2 1.170506 1_555
N1 Ru3 1.741120 1_555
N2 O3 1.170506 1_454
N2 Ru0 1.741120 1_555
N3 O1 1.170506 1_555
N3 Ru2 1.741120 1_555
