# generated using pymatgen
data_Sb2Te3MoC4(OF3)4
_symmetry_space_group_name_H-M   'P 1'
_cell_length_a   8.58574400
_cell_length_b   14.86645300
_cell_length_c   15.60340500
_cell_angle_alpha   90.00000000
_cell_angle_beta   90.00000000
_cell_angle_gamma   90.00000000
_symmetry_Int_Tables_number   1
_chemical_formula_structural   Sb2Te3MoC4(OF3)4
_chemical_formula_sum   'Sb8 Te12 Mo4 C16 O16 F48'
_cell_volume   1991.61174318
_cell_formula_units_Z   4
loop_
 _symmetry_equiv_pos_site_id
 _symmetry_equiv_pos_as_xyz
  1  'x, y, z'
loop_
 _atom_site_type_symbol
 _atom_site_label
 _atom_site_symmetry_multiplicity
 _atom_site_fract_x
 _atom_site_fract_y
 _atom_site_fract_z
 _atom_site_occupancy
  Sb  Sb0  1  0.75000000  0.44356800  0.34436600  1
  Sb  Sb1  1  0.75000000  0.05643200  0.84436600  1
  Sb  Sb2  1  0.25000000  0.94356800  0.15563400  1
  Sb  Sb3  1  0.75000000  0.74667700  0.53790200  1
  Sb  Sb4  1  0.75000000  0.75332300  0.03790200  1
  Sb  Sb5  1  0.25000000  0.55643200  0.65563400  1
  Sb  Sb6  1  0.25000000  0.24667700  0.96209800  1
  Sb  Sb7  1  0.25000000  0.25332300  0.46209800  1
  Te  Te0  1  0.75000000  0.44501100  0.62865700  1
  Te  Te1  1  0.08867600  0.68843100  0.28480800  1
  Te  Te2  1  0.41132400  0.81156900  0.78480800  1
  Te  Te3  1  0.58867600  0.31156900  0.71519200  1
  Te  Te4  1  0.75000000  0.05498900  0.12865700  1
  Te  Te5  1  0.41132400  0.68843100  0.28480800  1
  Te  Te6  1  0.91132400  0.31156900  0.71519200  1
  Te  Te7  1  0.91132400  0.18843100  0.21519200  1
  Te  Te8  1  0.08867600  0.81156900  0.78480800  1
  Te  Te9  1  0.25000000  0.94501100  0.87134300  1
  Te  Te10  1  0.25000000  0.55498900  0.37134300  1
  Te  Te11  1  0.58867600  0.18843100  0.21519200  1
  Mo  Mo0  1  0.75000000  0.44515600  0.81314400  1
  Mo  Mo1  1  0.25000000  0.94515600  0.68685600  1
  Mo  Mo2  1  0.25000000  0.55484400  0.18685600  1
  Mo  Mo3  1  0.75000000  0.05484400  0.31314400  1
  C  C0  1  0.54694500  0.01402500  0.36943600  1
  C  C1  1  0.45305500  0.51402500  0.13056400  1
  C  C2  1  0.25000000  0.08117200  0.70161200  1
  C  C3  1  0.25000000  0.62175400  0.07004900  1
  C  C4  1  0.75000000  0.58117200  0.79838800  1
  C  C5  1  0.75000000  0.91882800  0.29838800  1
  C  C6  1  0.04694500  0.51402500  0.13056400  1
  C  C7  1  0.25000000  0.41882800  0.20161200  1
  C  C8  1  0.54694500  0.48597500  0.86943600  1
  C  C9  1  0.95305500  0.01402500  0.36943600  1
  C  C10  1  0.45305500  0.98597500  0.63056400  1
  C  C11  1  0.04694500  0.98597500  0.63056400  1
  C  C12  1  0.75000000  0.12175400  0.42995100  1
  C  C13  1  0.25000000  0.87824600  0.57004900  1
  C  C14  1  0.95305500  0.48597500  0.86943600  1
  C  C15  1  0.75000000  0.37824600  0.92995100  1
  O  O0  1  0.43528500  0.50876500  0.90416400  1
  O  O1  1  0.25000000  0.84332600  0.50431100  1
  O  O2  1  0.75000000  0.15667400  0.49568900  1
  O  O3  1  0.93528500  0.49123500  0.09583600  1
  O  O4  1  0.93528500  0.00876500  0.59583600  1
  O  O5  1  0.56471500  0.49123500  0.09583600  1
  O  O6  1  0.75000000  0.65851600  0.79128400  1
  O  O7  1  0.25000000  0.15851600  0.70871600  1
  O  O8  1  0.75000000  0.34332600  0.99568900  1
  O  O9  1  0.43528500  0.99123500  0.40416400  1
  O  O10  1  0.06471500  0.50876500  0.90416400  1
  O  O11  1  0.75000000  0.84148400  0.29128400  1
  O  O12  1  0.06471500  0.99123500  0.40416400  1
  O  O13  1  0.56471500  0.00876500  0.59583600  1
  O  O14  1  0.25000000  0.65667400  0.00431100  1
  O  O15  1  0.25000000  0.34148400  0.20871600  1
  F  F0  1  0.59317600  0.10614400  0.76948800  1
  F  F1  1  0.59132000  0.78672100  0.95729400  1
  F  F2  1  0.25000000  0.66529700  0.59058100  1
  F  F3  1  0.90868000  0.78672100  0.95729400  1
  F  F4  1  0.40682400  0.60614400  0.73051200  1
  F  F5  1  0.09317600  0.60614400  0.73051200  1
  F  F6  1  0.25000000  0.12614400  0.91545800  1
  F  F7  1  0.75000000  0.94597700  0.77941100  1
  F  F8  1  0.91104500  0.00726200  0.91599200  1
  F  F9  1  0.40868000  0.28672100  0.54270600  1
  F  F10  1  0.08895500  0.50726200  0.58400800  1
  F  F11  1  0.25000000  0.37385600  0.41545800  1
  F  F12  1  0.75000000  0.62614400  0.58454200  1
  F  F13  1  0.25000000  0.44597700  0.72058900  1
  F  F14  1  0.91104500  0.49273800  0.41599200  1
  F  F15  1  0.25000000  0.13336800  0.50721100  1
  F  F16  1  0.09132000  0.21327900  0.04270600  1
  F  F17  1  0.58895500  0.00726200  0.91599200  1
  F  F18  1  0.40868000  0.21327900  0.04270600  1
  F  F19  1  0.40682400  0.89385600  0.23051200  1
  F  F20  1  0.09317600  0.89385600  0.23051200  1
  F  F21  1  0.90682400  0.10614400  0.76948800  1
  F  F22  1  0.75000000  0.33470300  0.40941900  1
  F  F23  1  0.09132000  0.28672100  0.54270600  1
  F  F24  1  0.25000000  0.83470300  0.09058100  1
  F  F25  1  0.25000000  0.05402300  0.22058900  1
  F  F26  1  0.59254400  0.78014500  0.62016700  1
  F  F27  1  0.90682400  0.39385600  0.26948800  1
  F  F28  1  0.90868000  0.71327900  0.45729400  1
  F  F29  1  0.25000000  0.36663200  0.00721100  1
  F  F30  1  0.90745600  0.71985500  0.12016700  1
  F  F31  1  0.75000000  0.16529700  0.90941900  1
  F  F32  1  0.90745600  0.78014500  0.62016700  1
  F  F33  1  0.40745600  0.28014500  0.87983300  1
  F  F34  1  0.08895500  0.99273800  0.08400800  1
  F  F35  1  0.09254400  0.21985500  0.37983300  1
  F  F36  1  0.59317600  0.39385600  0.26948800  1
  F  F37  1  0.59254400  0.71985500  0.12016700  1
  F  F38  1  0.75000000  0.87385600  0.08454200  1
  F  F39  1  0.75000000  0.55402300  0.27941100  1
  F  F40  1  0.41104500  0.99273800  0.08400800  1
  F  F41  1  0.75000000  0.86663200  0.49278900  1
  F  F42  1  0.58895500  0.49273800  0.41599200  1
  F  F43  1  0.40745600  0.21985500  0.37983300  1
  F  F44  1  0.75000000  0.63336800  0.99278900  1
  F  F45  1  0.41104500  0.50726200  0.58400800  1
  F  F46  1  0.09254400  0.28014500  0.87983300  1
  F  F47  1  0.59132000  0.71327900  0.45729400  1
loop_
_geom_bond_atom_site_label_1
_geom_bond_atom_site_label_2
_geom_bond_distance
_geom_bond_site_symmetry_2
C0 O9 1.152169 1_545
C0 Mo3 2.044287 1_555
C1 O5 1.152169 1_555
C1 Mo2 2.044287 1_555
C2 O7 1.155162 1_555
C2 Mo1 2.035142 1_545
C3 O14 1.149625 1_555
C3 Mo2 2.076362 1_555
C4 O6 1.155162 1_555
C4 Mo0 2.035142 1_555
C5 O11 1.155162 1_555
C5 Mo3 2.035142 1_565
C6 O3 1.152169 1_455
C6 Mo2 2.044287 1_555
C7 O15 1.155162 1_555
C7 Mo2 2.035142 1_555
C8 O0 1.152169 1_555
C8 Mo0 2.044287 1_555
C9 O12 1.152169 1_645
C9 Mo3 2.044287 1_555
C10 O13 1.152169 1_565
C10 Mo1 2.044287 1_555
C11 O4 1.152169 1_465
C11 Mo1 2.044287 1_555
C12 O2 1.149625 1_555
C12 Mo3 2.076362 1_555
C13 O1 1.149625 1_555
C13 Mo1 2.076362 1_555
C14 O10 1.152169 1_655
C14 Mo0 2.044287 1_555
C15 O8 1.149625 1_555
C15 Mo0 2.076362 1_555
F0 Sb1 1.929808 1_555
F1 Sb4 1.919525 1_556
F2 Sb5 1.910408 1_555
F3 Sb4 1.919525 1_556
F4 Sb5 1.929808 1_555
F5 Sb5 1.929808 1_555
F6 Sb6 1.934039 1_555
F7 Sb1 1.929671 1_565
F8 Sb1 1.922296 1_555
F9 Sb7 1.919525 1_555
F10 Sb5 1.922296 1_555
F11 Sb7 1.934039 1_555
F12 Sb3 1.934039 1_555
F13 Sb5 1.929671 1_555
F14 Sb0 1.922296 1_555
F15 Sb7 1.917205 1_555
F16 Sb6 1.919525 1_554
F17 Sb1 1.922296 1_555
F18 Sb6 1.919525 1_554
F19 Sb2 1.929808 1_555
F20 Sb2 1.929808 1_555
F21 Sb1 1.929808 1_555
F22 Sb0 1.910408 1_555
F23 Sb7 1.919525 1_555
F24 Sb2 1.910408 1_555
F25 Sb2 1.929671 1_545
F26 Sb3 1.929454 1_555
F27 Sb0 1.929808 1_555
F28 Sb3 1.919525 1_555
F29 Sb6 1.917205 1_554
F30 Sb4 1.929454 1_555
F31 Sb1 1.910408 1_555
F32 Sb3 1.929454 1_555
F33 Sb6 1.929454 1_555
F34 Sb2 1.922296 1_555
F35 Sb7 1.929454 1_555
F36 Sb0 1.929808 1_555
F37 Sb4 1.929454 1_555
F38 Sb4 1.934039 1_555
F39 Sb0 1.929671 1_555
F40 Sb2 1.922296 1_555
F41 Sb3 1.917205 1_555
F42 Sb0 1.922296 1_555
F43 Sb7 1.929454 1_555
F44 Sb4 1.917205 1_556
F45 Sb5 1.922296 1_555
F46 Sb6 1.929454 1_555
F47 Sb3 1.919525 1_555
