# generated using pymatgen
data_RbReSO3
_symmetry_space_group_name_H-M   'P 1'
_cell_length_a   7.99187600
_cell_length_b   8.40761700
_cell_length_c   9.45615273
_cell_angle_alpha   64.10044740
_cell_angle_beta   90.00000000
_cell_angle_gamma   90.00000000
_symmetry_Int_Tables_number   1
_chemical_formula_structural   RbReSO3
_chemical_formula_sum   'Rb4 Re4 S4 O12'
_cell_volume   571.56660295
_cell_formula_units_Z   4
loop_
 _symmetry_equiv_pos_site_id
 _symmetry_equiv_pos_as_xyz
  1  'x, y, z'
loop_
 _atom_site_type_symbol
 _atom_site_label
 _atom_site_symmetry_multiplicity
 _atom_site_fract_x
 _atom_site_fract_y
 _atom_site_fract_z
 _atom_site_occupancy
  Rb  Rb0  1  0.63279200  0.97785000  0.80478200  1
  Rb  Rb1  1  0.86720800  0.47785000  0.80478200  1
  Rb  Rb2  1  0.36720800  0.02215000  0.19521800  1
  Rb  Rb3  1  0.13279200  0.52215000  0.19521800  1
  Re  Re0  1  0.62693500  0.50314800  0.22632500  1
  Re  Re1  1  0.37306500  0.49685200  0.77367500  1
  Re  Re2  1  0.87306500  0.00314800  0.22632500  1
  Re  Re3  1  0.12693500  0.99685200  0.77367500  1
  S  S0  1  0.74097100  0.89565300  0.44775800  1
  S  S1  1  0.25902900  0.10434700  0.55224200  1
  S  S2  1  0.24097100  0.60434700  0.55224200  1
  S  S3  1  0.75902900  0.39565300  0.44775800  1
  O  O0  1  0.50461500  0.68422100  0.20823200  1
  O  O1  1  0.72611900  0.07247400  0.07245900  1
  O  O2  1  0.50640100  0.65756900  0.78356000  1
  O  O3  1  0.00640100  0.84243100  0.21644000  1
  O  O4  1  0.27388100  0.92752600  0.92754100  1
  O  O5  1  0.99359900  0.15756900  0.78356000  1
  O  O6  1  0.22611900  0.42752600  0.92754100  1
  O  O7  1  0.00461500  0.81577900  0.79176800  1
  O  O8  1  0.49359900  0.34243100  0.21644000  1
  O  O9  1  0.49538500  0.31577900  0.79176800  1
  O  O10  1  0.77388100  0.57247400  0.07245900  1
  O  O11  1  0.99538500  0.18422100  0.20823200  1
loop_
_geom_bond_atom_site_label_1
_geom_bond_atom_site_label_2
_geom_bond_distance
_geom_bond_site_symmetry_2
Rb0 S1 3.679371 1_565
Rb0 S3 3.794055 1_565
Rb0 S0 3.828985 1_555
Rb1 S2 3.679371 1_655
Rb1 S0 3.794055 1_555
Rb1 S3 3.828985 1_555
Rb2 S0 3.679371 1_545
Rb2 S2 3.794055 1_545
Rb2 S1 3.828985 1_555
Rb3 S3 3.679371 1_455
Rb3 S1 3.794055 1_555
Rb3 S2 3.828985 1_555
Re0 S3 2.159284 1_555
Re1 S2 2.159284 1_555
Re2 S0 2.159284 1_545
Re3 S1 2.159284 1_565
O0 Re0 1.753581 1_555
O0 Rb2 2.997983 1_565
O0 Rb3 3.293719 1_555
O1 Re2 1.759261 1_555
O1 Rb2 3.053692 1_555
O1 Rb0 3.058650 1_544
O1 Rb1 3.429008 1_554
O2 Re1 1.755124 1_555
O2 Rb0 2.963752 1_555
O2 Rb1 3.220751 1_555
O3 Re2 1.755124 1_465
O3 Rb3 2.963752 1_555
O3 Rb2 3.220751 1_565
O4 Re3 1.759261 1_555
O4 Rb0 3.053692 1_555
O4 Rb2 3.058650 1_566
O4 Rb3 3.429008 1_556
O5 Re3 1.755124 1_645
O5 Rb1 2.963752 1_555
O5 Rb0 3.220751 1_545
O6 Re1 1.759261 1_555
O6 Rb1 3.053692 1_455
O6 Rb3 3.058650 1_556
O6 Rb2 3.429008 1_556
O7 Re3 1.753581 1_555
O7 Rb1 2.997983 1_455
O7 Rb0 3.293719 1_455
O8 Re0 1.755124 1_555
O8 Rb2 2.963752 1_555
O8 Rb3 3.220751 1_555
O9 Re1 1.753581 1_555
O9 Rb0 2.997983 1_545
O9 Rb1 3.293719 1_555
O10 Re0 1.759261 1_555
O10 Rb3 3.053692 1_655
O10 Rb1 3.058650 1_554
O10 Rb0 3.429008 1_554
O11 Re2 1.753581 1_555
O11 Rb3 2.997983 1_655
O11 Rb2 3.293719 1_655
