# generated using pymatgen
data_Ho2TiO5
_symmetry_space_group_name_H-M   'P 1'
_cell_length_a   7.41089067
_cell_length_b   7.41089067
_cell_length_c   17.77621955
_cell_angle_alpha   89.47158481
_cell_angle_beta   89.47158481
_cell_angle_gamma   58.75277637
_symmetry_Int_Tables_number   1
_chemical_formula_structural   Ho2TiO5
_chemical_formula_sum   'Ho16 Ti8 O40'
_cell_volume   834.62235194
_cell_formula_units_Z   8
loop_
 _symmetry_equiv_pos_site_id
 _symmetry_equiv_pos_as_xyz
  1  'x, y, z'
loop_
 _atom_site_type_symbol
 _atom_site_label
 _atom_site_symmetry_multiplicity
 _atom_site_fract_x
 _atom_site_fract_y
 _atom_site_fract_z
 _atom_site_occupancy
  Ho  Ho0  1  0.34197800  0.34197800  0.17859600  1
  Ho  Ho1  1  0.51572600  0.51572600  0.99776300  1
  Ho  Ho2  1  0.82630400  0.33716900  0.16663700  1
  Ho  Ho3  1  0.98192500  0.98192500  0.99107200  1
  Ho  Ho4  1  0.18207100  0.18207100  0.34019300  1
  Ho  Ho5  1  0.33716900  0.82630400  0.16663700  1
  Ho  Ho6  1  0.50217300  0.02072700  0.50430100  1
  Ho  Ho7  1  0.68513100  0.68513100  0.32589100  1
  Ho  Ho8  1  0.82617000  0.82617000  0.15066600  1
  Ho  Ho9  1  0.02072700  0.50217300  0.50430100  1
  Ho  Ho10  1  0.18948200  0.68201600  0.82192600  1
  Ho  Ho11  1  0.01734900  0.01734900  0.51496800  1
  Ho  Ho12  1  0.34676300  0.34676300  0.67263300  1
  Ho  Ho13  1  0.68201600  0.18948200  0.82192600  1
  Ho  Ho14  1  0.49775100  0.49775100  0.51017800  1
  Ho  Ho15  1  0.17231400  0.17231400  0.84565800  1
  Ti  Ti0  1  0.02457400  0.49964900  0.99931000  1
  Ti  Ti1  1  0.49964900  0.02457400  0.99931000  1
  Ti  Ti2  1  0.83678000  0.83678000  0.67273400  1
  Ti  Ti3  1  0.67282800  0.16832000  0.33514600  1
  Ti  Ti4  1  0.16832000  0.67282800  0.33514600  1
  Ti  Ti5  1  0.34818400  0.84005500  0.66358200  1
  Ti  Ti6  1  0.84005500  0.34818400  0.66358200  1
  Ti  Ti7  1  0.66636700  0.66636700  0.83729000  1
  O  O0  1  0.80733300  0.80733300  0.02284700  1
  O  O1  1  0.69858600  0.13423800  0.20958700  1
  O  O2  1  0.13423800  0.69858600  0.20958700  1
  O  O3  1  0.85001300  0.29478400  0.04239900  1
  O  O4  1  0.36312000  0.36312000  0.31001200  1
  O  O5  1  0.37623300  0.81770200  0.54720600  1
  O  O6  1  0.33433000  0.78794500  0.31714800  1
  O  O7  1  0.49381800  0.49381800  0.12195000  1
  O  O8  1  0.16139000  0.16139000  0.21502700  1
  O  O9  1  0.29478400  0.85001300  0.04239900  1
  O  O10  1  0.81770200  0.37623300  0.54720600  1
  O  O11  1  0.48089900  0.05303000  0.10282900  1
  O  O12  1  0.51953500  0.98662900  0.38058200  1
  O  O13  1  0.78794500  0.33433000  0.31714800  1
  O  O14  1  0.67860900  0.67860900  0.20477700  1
  O  O15  1  0.08555100  0.08555100  0.63887600  1
  O  O16  1  0.96403800  0.51139400  0.65413700  1
  O  O17  1  0.87631000  0.50833200  0.90614100  1
  O  O18  1  0.16808600  0.16808600  0.46342100  1
  O  O19  1  0.88693900  0.88693900  0.32610300  1
  O  O20  1  0.84449100  0.84449100  0.55930600  1
  O  O21  1  0.05303000  0.48089900  0.10282900  1
  O  O22  1  0.98662900  0.51953500  0.38058200  1
  O  O23  1  0.50833200  0.87631000  0.90614100  1
  O  O24  1  0.13125900  0.72493600  0.69339100  1
  O  O25  1  0.32804800  0.32804800  0.79469100  1
  O  O26  1  0.51139400  0.96403800  0.65413700  1
  O  O27  1  0.19112200  0.68710800  0.44358800  1
  O  O28  1  0.34121000  0.34121000  0.55082500  1
  O  O29  1  0.60725200  0.18147700  0.95666100  1
  O  O30  1  0.79921200  0.79921200  0.78262300  1
  O  O31  1  0.52485000  0.52485000  0.65454600  1
  O  O32  1  0.51892200  0.51892200  0.86288100  1
  O  O33  1  0.68710800  0.19112200  0.44358800  1
  O  O34  1  0.72493600  0.13125900  0.69339100  1
  O  O35  1  0.85498400  0.35648200  0.77216600  1
  O  O36  1  0.18147700  0.60725200  0.95666100  1
  O  O37  1  0.00282300  0.00282300  0.87177300  1
  O  O38  1  0.21872400  0.21872400  0.96584200  1
  O  O39  1  0.35648200  0.85498400  0.77216600  1
loop_
_geom_bond_atom_site_label_1
_geom_bond_atom_site_label_2
_geom_bond_distance
_geom_bond_site_symmetry_2
Ho0 O7 2.195059 1_555
Ho0 O21 2.280308 1_555
Ho0 O11 2.280308 1_555
Ho0 O1 2.334115 1_555
Ho0 O2 2.334115 1_555
Ho0 O4 2.354854 1_555
Ho0 O8 2.414085 1_555
Ho1 O7 2.222664 1_556
Ho1 O9 2.291694 1_556
Ho1 O3 2.291694 1_556
Ho1 O29 2.326148 1_555
Ho1 O36 2.326148 1_555
Ho1 O32 2.397611 1_555
Ho2 O3 2.226053 1_555
Ho2 O7 2.258658 1_555
Ho2 O1 2.276569 1_555
Ho2 O14 2.281463 1_555
Ho2 O8 2.294826 1_655
Ho2 O21 2.653997 1_655
Ho2 O13 2.689011 1_555
Ho3 O37 2.134958 1_665
Ho3 O3 2.198851 1_566
Ho3 O9 2.198851 1_656
Ho3 O0 2.318878 1_556
Ho3 O29 2.454701 1_565
Ho3 O36 2.454701 1_655
Ho4 O18 2.196057 1_555
Ho4 O8 2.243760 1_555
Ho4 O22 2.263580 1_455
Ho4 O12 2.263580 1_545
Ho4 O4 2.393633 1_555
Ho4 O6 2.562528 1_545
Ho4 O13 2.562528 1_455
Ho5 O9 2.226053 1_555
Ho5 O7 2.258658 1_555
Ho5 O2 2.276569 1_555
Ho5 O14 2.281463 1_555
Ho5 O8 2.294826 1_565
Ho5 O11 2.653997 1_565
Ho5 O6 2.689011 1_555
Ho6 O28 2.196949 1_555
Ho6 O12 2.210981 1_545
Ho6 O18 2.250358 1_555
Ho6 O5 2.266980 1_545
Ho6 O20 2.383771 1_545
Ho6 O33 2.526033 1_555
Ho6 O26 2.688573 1_545
Ho7 O12 2.148700 1_555
Ho7 O22 2.148700 1_555
Ho7 O14 2.155487 1_555
Ho7 O13 2.305124 1_555
Ho7 O6 2.305124 1_555
Ho7 O19 2.606582 1_555
Ho8 O14 2.125756 1_555
Ho8 O1 2.233761 1_565
Ho8 O2 2.233761 1_655
Ho8 O0 2.287686 1_555
Ho8 O11 2.376480 1_565
Ho8 O21 2.376480 1_655
Ho9 O28 2.196949 1_555
Ho9 O22 2.210981 1_455
Ho9 O18 2.250358 1_555
Ho9 O10 2.266980 1_455
Ho9 O20 2.383771 1_455
Ho9 O27 2.526033 1_555
Ho9 O16 2.688573 1_455
Ho10 O32 2.215097 1_555
Ho10 O37 2.226053 1_565
Ho10 O24 2.317403 1_555
Ho10 O25 2.321581 1_555
Ho10 O39 2.358393 1_555
Ho10 O36 2.460471 1_555
Ho10 O30 2.650950 1_455
Ho11 O18 2.142970 1_555
Ho11 O10 2.349720 1_455
Ho11 O5 2.349720 1_545
Ho11 O20 2.359780 1_445
Ho11 O15 2.380873 1_555
Ho11 O27 2.452641 1_545
Ho11 O33 2.452641 1_455
Ho12 O28 2.167232 1_555
Ho12 O25 2.180609 1_555
Ho12 O31 2.319151 1_555
Ho12 O24 2.430211 1_555
Ho12 O34 2.430211 1_555
Ho12 O26 2.461929 1_545
Ho12 O16 2.461929 1_455
Ho13 O32 2.215097 1_555
Ho13 O37 2.226053 1_655
Ho13 O34 2.317403 1_555
Ho13 O25 2.321581 1_555
Ho13 O35 2.358393 1_555
Ho13 O29 2.460471 1_555
Ho13 O30 2.650950 1_545
Ho14 O28 2.139890 1_555
Ho14 O5 2.160787 1_555
Ho14 O10 2.160787 1_555
Ho14 O33 2.290169 1_555
Ho14 O27 2.290169 1_555
Ho14 O31 2.593743 1_555
Ho15 O25 2.197316 1_555
Ho15 O38 2.225017 1_555
Ho15 O37 2.233004 1_555
Ho15 O35 2.407036 1_455
Ho15 O39 2.407036 1_545
Ho15 O17 2.551030 1_455
Ho15 O23 2.551030 1_545
O0 Ti0 2.040338 1_654
O0 Ti1 2.040338 1_564
O1 Ti3 2.243751 1_555
O2 Ti4 2.243751 1_555
O3 Ti0 2.561870 1_654
O4 Ti4 2.030059 1_555
O4 Ti3 2.030059 1_555
O5 Ti5 2.076762 1_555
O6 Ti4 1.849424 1_555
O9 Ti1 2.561870 1_564
O10 Ti6 2.076762 1_555
O11 Ti1 1.849884 1_554
O12 Ti3 2.303467 1_565
O13 Ti3 1.849424 1_555
O15 Ti5 1.902221 1_545
O15 Ti6 1.902221 1_455
O16 Ti6 1.865954 1_555
O16 Ti2 2.112614 1_555
O17 Ti7 1.846227 1_555
O17 Ti0 1.978043 1_655
O19 Ti3 1.860301 1_565
O19 Ti4 1.860301 1_655
O20 Ti2 2.017726 1_555
O21 Ti0 1.849884 1_554
O22 Ti4 2.303467 1_655
O23 Ti7 1.846227 1_555
O23 Ti1 1.978043 1_565
O24 Ti2 1.927963 1_455
O24 Ti5 2.234247 1_555
O26 Ti5 1.865954 1_555
O26 Ti2 2.112614 1_555
O27 Ti4 1.945267 1_555
O29 Ti1 1.870116 1_555
O30 Ti7 1.962926 1_555
O30 Ti2 2.007784 1_555
O31 Ti5 2.006669 1_555
O31 Ti6 2.006669 1_555
O32 Ti7 1.953282 1_555
O33 Ti3 1.945267 1_555
O34 Ti2 1.927963 1_545
O34 Ti6 2.234247 1_555
O35 Ti6 1.937765 1_555
O35 Ti7 2.292792 1_555
O36 Ti0 1.870116 1_555
O38 Ti0 1.912545 1_555
O38 Ti1 1.912545 1_555
O39 Ti5 1.937765 1_555
O39 Ti7 2.292792 1_555
