# generated using pymatgen
data_Li3Ga7
_symmetry_space_group_name_H-M   'P 1'
_cell_length_a   7.47993930
_cell_length_b   7.47993834
_cell_length_c   7.47993933
_cell_angle_alpha   68.54143867
_cell_angle_beta   68.54144435
_cell_angle_gamma   68.54144248
_symmetry_Int_Tables_number   1
_chemical_formula_structural   Li3Ga7
_chemical_formula_sum   'Li6 Ga14'
_cell_volume   349.24642563
_cell_formula_units_Z   2
loop_
 _symmetry_equiv_pos_site_id
 _symmetry_equiv_pos_as_xyz
  1  'x, y, z'
loop_
 _atom_site_type_symbol
 _atom_site_label
 _atom_site_symmetry_multiplicity
 _atom_site_fract_x
 _atom_site_fract_y
 _atom_site_fract_z
 _atom_site_occupancy
  Li  Li0  1  0.47660688  0.88094359  0.88094359  1
  Li  Li1  1  0.88094359  0.47660688  0.88094359  1
  Li  Li2  1  0.11905641  0.52339312  0.11905641  1
  Li  Li3  1  0.88094359  0.88094359  0.47660688  1
  Li  Li4  1  0.11905641  0.11905641  0.52339312  1
  Li  Li5  1  0.52339312  0.11905641  0.11905641  1
  Ga  Ga0  1  0.17375822  0.49066859  0.49066859  1
  Ga  Ga1  1  0.18315861  0.70427103  0.70427103  1
  Ga  Ga2  1  0.29572897  0.29572897  0.81684139  1
  Ga  Ga3  1  0.82624178  0.50933141  0.50933141  1
  Ga  Ga4  1  0.70427103  0.70427103  0.18315861  1
  Ga  Ga5  1  0.50933141  0.82624178  0.50933141  1
  Ga  Ga6  1  0.81684139  0.29572897  0.29572897  1
  Ga  Ga7  1  0.07750679  0.07750679  0.07750679  1
  Ga  Ga8  1  0.50933141  0.50933141  0.82624178  1
  Ga  Ga9  1  0.29572897  0.81684139  0.29572897  1
  Ga  Ga10  1  0.49066859  0.17375822  0.49066859  1
  Ga  Ga11  1  0.70427103  0.18315861  0.70427103  1
  Ga  Ga12  1  0.49066859  0.49066859  0.17375822  1
  Ga  Ga13  1  0.92249321  0.92249321  0.92249321  1
loop_
_geom_bond_atom_site_label_1
_geom_bond_atom_site_label_2
_geom_bond_distance
_geom_bond_site_symmetry_2
Li0 Li5 3.114472 1_566
Li1 Li2 3.114472 1_656
Li3 Li4 3.114472 1_665
Ga0 Ga3 2.505820 1_455
Ga0 Ga9 2.638804 1_555
Ga0 Ga2 2.638805 1_555
Ga0 Ga10 2.669642 1_555
Ga0 Ga12 2.669642 1_555
Ga0 Ga1 2.672560 1_555
Ga0 Li4 2.866139 1_555
Ga0 Li2 2.866140 1_555
Ga0 Li3 2.931884 1_455
Ga0 Li1 2.931885 1_455
Ga1 Ga13 2.534285 1_455
Ga1 Ga8 2.638805 1_555
Ga1 Ga5 2.638805 1_555
Ga1 Ga2 2.740405 1_555
Ga1 Ga9 2.740406 1_555
Ga1 Li4 2.828658 1_565
Ga1 Li2 2.828658 1_556
Ga1 Li1 2.956464 1_455
Ga1 Li3 2.956465 1_455
Ga2 Ga7 2.534285 1_556
Ga2 Ga8 2.672560 1_555
Ga2 Li0 2.828658 1_545
Ga2 Li1 2.828658 1_455
Ga2 Li5 2.956464 1_556
Ga2 Li2 2.956465 1_556
Ga3 Ga4 2.638805 1_555
Ga3 Ga5 2.669642 1_555
Ga3 Ga8 2.669642 1_555
Ga3 Ga6 2.672560 1_555
Ga3 Li3 2.866139 1_555
Ga3 Li1 2.866140 1_555
Ga3 Li4 2.931884 1_655
Ga3 Li2 2.931885 1_655
Ga4 Ga5 2.638805 1_555
Ga4 Ga6 2.740405 1_555
Ga4 Ga9 2.740406 1_555
Ga4 Li5 2.828658 1_565
Ga4 Li2 2.828658 1_655
Ga4 Li0 2.956464 1_554
Ga4 Li1 2.956465 1_554
Ga5 Ga8 2.669642 1_555
Ga5 Ga9 2.672560 1_555
Ga5 Li3 2.866140 1_555
Ga5 Li0 2.866140 1_555
Ga5 Li5 2.931884 1_565
Ga5 Li4 2.931884 1_565
Ga6 Ga7 2.534285 1_655
Ga6 Li3 2.828658 1_545
Ga6 Li1 2.828658 1_554
Ga6 Li2 2.956464 1_655
Ga6 Li4 2.956465 1_655
Ga7 Ga9 2.534285 1_545
Ga7 Li1 2.897254 1_454
Ga7 Li3 2.897254 1_445
Ga7 Li0 2.897254 1_544
Ga8 Li0 2.866139 1_555
Ga8 Li1 2.866140 1_555
Ga8 Li5 2.931884 1_556
Ga8 Li2 2.931885 1_556
Ga9 Li0 2.828658 1_554
Ga9 Li3 2.828658 1_455
Ga9 Li5 2.956464 1_565
Ga9 Li4 2.956464 1_565
Ga10 Ga5 2.505820 1_545
Ga10 Ga6 2.638805 1_555
Ga10 Ga2 2.638805 1_555
Ga10 Ga12 2.669642 1_555
Ga10 Ga11 2.672560 1_555
Ga10 Li4 2.866140 1_555
Ga10 Li5 2.866140 1_555
Ga10 Li0 2.931884 1_545
Ga10 Li3 2.931884 1_545
Ga11 Ga13 2.534285 1_545
Ga11 Ga3 2.638804 1_555
Ga11 Ga8 2.638804 1_555
Ga11 Ga6 2.740406 1_555
Ga11 Ga2 2.740406 1_555
Ga11 Li5 2.828658 1_556
Ga11 Li4 2.828658 1_655
Ga11 Li0 2.956464 1_545
Ga11 Li3 2.956464 1_545
Ga12 Ga8 2.505820 1_554
Ga12 Ga9 2.638804 1_555
Ga12 Ga6 2.638805 1_555
Ga12 Ga4 2.672560 1_555
Ga12 Li5 2.866139 1_555
Ga12 Li2 2.866140 1_555
Ga12 Li0 2.931884 1_554
Ga12 Li1 2.931885 1_554
Ga13 Ga4 2.534285 1_556
Ga13 Ga7 2.642769 1_666
Ga13 Li2 2.897254 1_656
Ga13 Li4 2.897254 1_665
Ga13 Li5 2.897254 1_566
