# generated using pymatgen
data_V3H8C2NO7
_symmetry_space_group_name_H-M   'P 1'
_cell_length_a   6.75437100
_cell_length_b   7.92463300
_cell_length_c   8.74433367
_cell_angle_alpha   81.09366117
_cell_angle_beta   90.00000000
_cell_angle_gamma   90.00000000
_symmetry_Int_Tables_number   1
_chemical_formula_structural   V3H8C2NO7
_chemical_formula_sum   'V6 H16 C4 N2 O14'
_cell_volume   462.40504884
_cell_formula_units_Z   2
loop_
 _symmetry_equiv_pos_site_id
 _symmetry_equiv_pos_as_xyz
  1  'x, y, z'
loop_
 _atom_site_type_symbol
 _atom_site_label
 _atom_site_symmetry_multiplicity
 _atom_site_fract_x
 _atom_site_fract_y
 _atom_site_fract_z
 _atom_site_occupancy
  V  V0  1  0.31803500  0.71109700  0.65210900  1
  V  V1  1  0.09505800  0.98482800  0.42770300  1
  V  V2  1  0.82205700  0.61859400  0.56763500  1
  V  V3  1  0.59505800  0.01517200  0.57229700  1
  V  V4  1  0.32205700  0.38140600  0.43236500  1
  V  V5  1  0.81803500  0.28890300  0.34789100  1
  H  H0  1  0.03824400  0.31439100  0.00267100  1
  H  H1  1  0.53824400  0.68560900  0.99732900  1
  H  H2  1  0.59398200  0.97400200  0.01807800  1
  H  H3  1  0.09398200  0.02599800  0.98192200  1
  H  H4  1  0.64248400  0.61662400  0.16862400  1
  H  H5  1  0.96433200  0.13205300  0.81386100  1
  H  H6  1  0.14248400  0.38337600  0.83137600  1
  H  H7  1  0.36540000  0.41651600  0.04011700  1
  H  H8  1  0.46433200  0.86794700  0.18613900  1
  H  H9  1  0.46149200  0.27219000  0.91836400  1
  H  H10  1  0.34998700  0.19042100  0.10195500  1
  H  H11  1  0.72595800  0.91191300  0.19572600  1
  H  H12  1  0.22595800  0.08808700  0.80427400  1
  H  H13  1  0.86540000  0.58348400  0.95988300  1
  H  H14  1  0.84998700  0.80957900  0.89804500  1
  H  H15  1  0.96149200  0.72781000  0.08163600  1
  C  C0  1  0.84692700  0.70744900  0.99772300  1
  C  C1  1  0.34692700  0.29255100  0.00227700  1
  C  C2  1  0.10474000  0.12119500  0.87731800  1
  C  C3  1  0.60474000  0.87880500  0.12268200  1
  N  N0  1  0.14935000  0.28886200  0.92691200  1
  N  N1  1  0.64935000  0.71113800  0.07308800  1
  O  O0  1  0.65479600  0.05463300  0.74546400  1
  O  O1  1  0.15479600  0.94536700  0.25453600  1
  O  O2  1  0.81790800  0.04388300  0.43084800  1
  O  O3  1  0.81646600  0.31514000  0.15653300  1
  O  O4  1  0.31790800  0.95611700  0.56915200  1
  O  O5  1  0.80910400  0.52142200  0.40177200  1
  O  O6  1  0.60410800  0.75146700  0.58830100  1
  O  O7  1  0.84279400  0.46952600  0.71888100  1
  O  O8  1  0.54206000  0.24773800  0.43944900  1
  O  O9  1  0.10410800  0.24853300  0.41169900  1
  O  O10  1  0.30910400  0.47857800  0.59822800  1
  O  O11  1  0.04206000  0.75226200  0.56055100  1
  O  O12  1  0.34279400  0.53047400  0.28111900  1
  O  O13  1  0.31646600  0.68486000  0.84346700  1
loop_
_geom_bond_atom_site_label_1
_geom_bond_atom_site_label_2
_geom_bond_distance
_geom_bond_site_symmetry_2
H0 N0 1.041374 1_554
H1 N1 1.041374 1_556
H4 N1 1.033094 1_555
H6 N0 1.033094 1_555
C0 H13 1.091223 1_555
C0 H14 1.093960 1_555
C0 H15 1.095396 1_556
C0 N1 1.490649 1_556
C1 H7 1.091223 1_555
C1 H10 1.093960 1_555
C1 H9 1.095396 1_554
C1 N0 1.490649 1_554
C2 H3 1.094257 1_555
C2 H12 1.095009 1_555
C2 H5 1.095410 1_455
C2 N0 1.490878 1_555
C3 H2 1.094257 1_555
C3 H11 1.095009 1_555
C3 H8 1.095410 1_555
C3 N1 1.490878 1_555
O0 V3 1.643201 1_555
O1 V1 1.643201 1_555
O2 V1 1.930814 1_645
O2 V3 1.939112 1_555
O2 V5 1.964753 1_555
O3 V5 1.653948 1_555
O4 V3 1.930814 1_565
O4 V1 1.939112 1_555
O4 V0 1.964753 1_555
O5 V2 1.746426 1_555
O5 V5 1.972237 1_555
O6 V2 1.835054 1_555
O6 V0 2.022859 1_555
O6 V3 2.073617 1_565
O7 V2 1.637216 1_555
O8 V4 1.820361 1_555
O8 V5 2.034986 1_555
O8 V3 2.052155 1_555
O9 V4 1.835054 1_555
O9 V5 2.022859 1_455
O9 V1 2.073617 1_545
O10 V4 1.746426 1_555
O10 V0 1.972237 1_555
O11 V2 1.820361 1_455
O11 V0 2.034986 1_555
O11 V1 2.052155 1_555
O12 V4 1.637216 1_555
O13 V0 1.653948 1_555
