# generated using pymatgen
data_AgHg3As2Cl3
_symmetry_space_group_name_H-M   'P 1'
_cell_length_a   13.43099357
_cell_length_b   13.43099357
_cell_length_c   15.19227874
_cell_angle_alpha   58.55107852
_cell_angle_beta   58.55107852
_cell_angle_gamma   40.90337103
_symmetry_Int_Tables_number   1
_chemical_formula_structural   AgHg3As2Cl3
_chemical_formula_sum   'Ag6 Hg18 As12 Cl18'
_cell_volume   1490.53211327
_cell_formula_units_Z   6
loop_
 _symmetry_equiv_pos_site_id
 _symmetry_equiv_pos_as_xyz
  1  'x, y, z'
loop_
 _atom_site_type_symbol
 _atom_site_label
 _atom_site_symmetry_multiplicity
 _atom_site_fract_x
 _atom_site_fract_y
 _atom_site_fract_z
 _atom_site_occupancy
  Ag  Ag0  1  0.65542100  0.34457900  0.75000000  1
  Ag  Ag1  1  0.60909500  0.05376500  0.27439000  1
  Ag  Ag2  1  0.05376500  0.60909500  0.77439000  1
  Ag  Ag3  1  0.34457900  0.65542100  0.25000000  1
  Ag  Ag4  1  0.39090500  0.94623500  0.72561000  1
  Ag  Ag5  1  0.94623500  0.39090500  0.22561000  1
  Hg  Hg0  1  0.33448400  0.33564300  0.49840200  1
  Hg  Hg1  1  0.79968100  0.20031900  0.25000000  1
  Hg  Hg2  1  0.45676200  0.88091200  0.25077300  1
  Hg  Hg3  1  0.16740500  0.17019900  0.99923800  1
  Hg  Hg4  1  0.83259500  0.82980100  0.00076200  1
  Hg  Hg5  1  0.88091200  0.45676200  0.75077300  1
  Hg  Hg6  1  0.54323800  0.11908800  0.74922700  1
  Hg  Hg7  1  0.66551600  0.66435700  0.50159800  1
  Hg  Hg8  1  0.82980100  0.83259500  0.50076200  1
  Hg  Hg9  1  0.00000000  0.00000000  0.50000000  1
  Hg  Hg10  1  0.20031900  0.79968100  0.75000000  1
  Hg  Hg11  1  0.17019900  0.16740500  0.49923800  1
  Hg  Hg12  1  0.11908800  0.54323800  0.24922700  1
  Hg  Hg13  1  0.50000000  0.50000000  0.50000000  1
  Hg  Hg14  1  0.33564300  0.33448400  0.99840200  1
  Hg  Hg15  1  0.50000000  0.50000000  0.00000000  1
  Hg  Hg16  1  0.66435700  0.66551600  0.00159800  1
  Hg  Hg17  1  0.00000000  0.00000000  0.00000000  1
  As  As0  1  0.12691600  0.41102600  0.44664000  1
  As  As1  1  0.87308400  0.58897400  0.55336000  1
  As  As2  1  0.06964900  0.79685000  0.94871200  1
  As  As3  1  0.58897400  0.87308400  0.05336000  1
  As  As4  1  0.45698800  0.74376900  0.44822700  1
  As  As5  1  0.25623100  0.54301200  0.05177300  1
  As  As6  1  0.20315000  0.93035100  0.55128800  1
  As  As7  1  0.54301200  0.25623100  0.55177300  1
  As  As8  1  0.74376900  0.45698800  0.94822700  1
  As  As9  1  0.41102600  0.12691600  0.94664000  1
  As  As10  1  0.79685000  0.06964900  0.44871200  1
  As  As11  1  0.93035100  0.20315000  0.05128800  1
  Cl  Cl0  1  0.61722800  0.85305100  0.75848200  1
  Cl  Cl1  1  0.00000000  0.50000000  0.00000000  1
  Cl  Cl2  1  0.65264100  0.49942000  0.25132500  1
  Cl  Cl3  1  0.10383800  0.12484400  0.74892500  1
  Cl  Cl4  1  0.89616200  0.87515600  0.25107500  1
  Cl  Cl5  1  0.32139600  0.80144300  0.06310000  1
  Cl  Cl6  1  0.67860400  0.19855700  0.93690000  1
  Cl  Cl7  1  0.80144300  0.32139600  0.56310000  1
  Cl  Cl8  1  0.85305100  0.61722800  0.25848200  1
  Cl  Cl9  1  0.49942000  0.65264100  0.75132500  1
  Cl  Cl10  1  0.34735900  0.50058000  0.74867500  1
  Cl  Cl11  1  0.38277200  0.14694900  0.24151800  1
  Cl  Cl12  1  0.50000000  0.00000000  0.50000000  1
  Cl  Cl13  1  0.19855700  0.67860400  0.43690000  1
  Cl  Cl14  1  0.12484400  0.10383800  0.24892500  1
  Cl  Cl15  1  0.50058000  0.34735900  0.24867500  1
  Cl  Cl16  1  0.14694900  0.38277200  0.74151800  1
  Cl  Cl17  1  0.87515600  0.89616200  0.75107500  1
loop_
_geom_bond_atom_site_label_1
_geom_bond_atom_site_label_2
_geom_bond_distance
_geom_bond_site_symmetry_2
Ag0 Cl6 2.488839 1_555
Ag0 Cl7 2.488839 1_555
Ag0 Cl9 2.906583 1_555
Ag0 Cl10 2.906583 1_555
Ag1 Cl4 2.495205 1_545
Ag1 Cl11 2.497364 1_555
Ag1 Cl15 2.850473 1_555
Ag1 Cl12 2.862269 1_555
Ag2 Cl17 2.495205 1_455
Ag2 Cl16 2.497364 1_555
Ag2 Cl10 2.850473 1_555
Ag2 Cl1 2.862269 1_556
Ag3 Cl13 2.488839 1_555
Ag3 Cl5 2.488839 1_555
Ag3 Cl2 2.906583 1_555
Ag3 Cl15 2.906583 1_555
Ag4 Cl3 2.495205 1_565
Ag4 Cl0 2.497364 1_555
Ag4 Cl9 2.850473 1_555
Ag4 Cl12 2.862269 1_565
Ag5 Cl14 2.495205 1_655
Ag5 Cl8 2.497364 1_555
Ag5 Cl2 2.850473 1_555
Ag5 Cl1 2.862269 1_655
As0 As1 2.433606 1_455
As0 Hg11 2.562023 1_555
As0 Hg0 2.570147 1_555
As0 Hg12 2.578523 1_555
As1 Hg8 2.562023 1_555
As1 Hg7 2.570147 1_555
As1 Hg5 2.578523 1_555
As2 As5 2.442153 1_556
As2 Hg17 2.554706 1_566
As2 Hg4 2.562470 1_456
As2 Hg10 2.578327 1_555
As3 As9 2.433606 1_564
As3 Hg4 2.562023 1_555
As3 Hg16 2.570147 1_555
As3 Hg2 2.578523 1_555
As4 As6 2.442153 1_555
As4 Hg7 2.567263 1_555
As4 Hg13 2.568993 1_555
As4 Hg2 2.574265 1_555
As5 Hg14 2.567263 1_554
As5 Hg15 2.568993 1_555
As5 Hg12 2.574265 1_555
As6 Hg9 2.554706 1_565
As6 Hg11 2.562470 1_565
As6 Hg10 2.578327 1_555
As7 Hg0 2.567263 1_555
As7 Hg13 2.568993 1_555
As7 Hg6 2.574265 1_555
As8 Hg16 2.567263 1_556
As8 Hg15 2.568993 1_556
As8 Hg5 2.574265 1_555
As9 Hg3 2.562023 1_555
As9 Hg14 2.570147 1_555
As9 Hg6 2.578523 1_555
As10 As7 2.442153 1_555
As10 Hg9 2.554706 1_655
As10 Hg8 2.562470 1_545
As10 Hg1 2.578327 1_555
As11 As8 2.442153 1_554
As11 Hg17 2.554706 1_655
As11 Hg3 2.562470 1_654
As11 Hg1 2.578327 1_555
Cl0 Hg6 2.833490 1_565
Cl2 Hg1 2.844107 1_555
Cl3 Hg5 2.950463 1_455
Cl4 Hg12 2.950463 1_655
Cl8 Hg12 2.833490 1_655
Cl9 Hg10 2.844107 1_555
Cl10 Hg10 2.844107 1_555
Cl11 Hg2 2.833490 1_545
Cl14 Hg2 2.950463 1_545
Cl15 Hg1 2.844107 1_555
Cl16 Hg5 2.833490 1_455
Cl17 Hg6 2.950463 1_565
