# generated using pymatgen
data_Pr5O9
_symmetry_space_group_name_H-M   'P 1'
_cell_length_a   21.04667800
_cell_length_b   6.73584900
_cell_length_c   13.74959292
_cell_angle_alpha   71.92195139
_cell_angle_beta   90.00000000
_cell_angle_gamma   90.00000000
_symmetry_Int_Tables_number   1
_chemical_formula_structural   Pr5O9
_chemical_formula_sum   'Pr40 O72'
_cell_volume   1853.01697611
_cell_formula_units_Z   8
loop_
 _symmetry_equiv_pos_site_id
 _symmetry_equiv_pos_as_xyz
  1  'x, y, z'
loop_
 _atom_site_type_symbol
 _atom_site_label
 _atom_site_symmetry_multiplicity
 _atom_site_fract_x
 _atom_site_fract_y
 _atom_site_fract_z
 _atom_site_occupancy
  Pr  Pr0  1  0.29207000  0.19252400  0.74531200  1
  Pr  Pr1  1  0.50000000  0.50000000  0.00000000  1
  Pr  Pr2  1  0.49180300  0.29454200  0.73090100  1
  Pr  Pr3  1  0.90819500  0.73809000  0.24305500  1
  Pr  Pr4  1  0.11085400  0.02423900  0.47621700  1
  Pr  Pr5  1  0.61375700  0.50125300  0.51974500  1
  Pr  Pr6  1  0.70793000  0.80747600  0.25468800  1
  Pr  Pr7  1  0.09180500  0.26191000  0.75694500  1
  Pr  Pr8  1  0.20530000  0.02039000  0.01022700  1
  Pr  Pr9  1  0.79207000  0.80747600  0.75468800  1
  Pr  Pr10  1  0.00819700  0.29454200  0.23090100  1
  Pr  Pr11  1  0.20518300  0.69926300  0.73863800  1
  Pr  Pr12  1  0.18818000  0.48327700  0.51965800  1
  Pr  Pr13  1  0.88624300  0.50125300  0.01974500  1
  Pr  Pr14  1  0.79470000  0.97961000  0.98977300  1
  Pr  Pr15  1  0.41240000  0.78877600  0.75839400  1
  Pr  Pr16  1  0.38624300  0.49874700  0.48025500  1
  Pr  Pr17  1  0.88914600  0.97576100  0.52378300  1
  Pr  Pr18  1  0.29470000  0.02039000  0.51022700  1
  Pr  Pr19  1  0.81182000  0.51672300  0.48034200  1
  Pr  Pr20  1  0.29481700  0.69926300  0.23863800  1
  Pr  Pr21  1  0.00000000  0.50000000  0.50000000  1
  Pr  Pr22  1  0.00000000  0.00000000  0.00000000  1
  Pr  Pr23  1  0.91240000  0.21122400  0.74160600  1
  Pr  Pr24  1  0.11375700  0.49874700  0.98025500  1
  Pr  Pr25  1  0.31182000  0.48327700  0.01965800  1
  Pr  Pr26  1  0.79481700  0.30073700  0.26136200  1
  Pr  Pr27  1  0.50819700  0.70545800  0.26909900  1
  Pr  Pr28  1  0.38914600  0.02423900  0.97621700  1
  Pr  Pr29  1  0.99180300  0.70545800  0.76909900  1
  Pr  Pr30  1  0.50000000  0.00000000  0.50000000  1
  Pr  Pr31  1  0.20793000  0.19252400  0.24531200  1
  Pr  Pr32  1  0.08760000  0.78877600  0.25839400  1
  Pr  Pr33  1  0.59180500  0.73809000  0.74305500  1
  Pr  Pr34  1  0.70530000  0.97961000  0.48977300  1
  Pr  Pr35  1  0.58760000  0.21122400  0.24160600  1
  Pr  Pr36  1  0.61085400  0.97576100  0.02378300  1
  Pr  Pr37  1  0.40819500  0.26191000  0.25694500  1
  Pr  Pr38  1  0.68818000  0.51672300  0.98034200  1
  Pr  Pr39  1  0.70518300  0.30073700  0.76136200  1
  O  O0  1  0.70428000  0.67435800  0.43750100  1
  O  O1  1  0.20428000  0.32564200  0.06249900  1
  O  O2  1  0.49570800  0.89454800  0.04231900  1
  O  O3  1  0.29386200  0.25089900  0.91312100  1
  O  O4  1  0.69613700  0.17933300  0.93423900  1
  O  O5  1  0.59937900  0.73994500  0.92081600  1
  O  O6  1  0.60041400  0.40264900  0.70223000  1
  O  O7  1  0.29197800  0.74716600  0.41213700  1
  O  O8  1  0.09649900  0.75798900  0.07722400  1
  O  O9  1  0.39849300  0.17384700  0.44734400  1
  O  O10  1  0.49786800  0.38967700  0.53753300  1
  O  O11  1  0.40350100  0.75798900  0.57722400  1
  O  O12  1  0.60046900  0.31000200  0.06445100  1
  O  O13  1  0.50005100  0.45606700  0.18221900  1
  O  O14  1  0.59987500  0.45954800  0.34393500  1
  O  O15  1  0.89958600  0.40264900  0.20223000  1
  O  O16  1  0.19613700  0.82066700  0.56576100  1
  O  O17  1  0.19738500  0.38756900  0.70361200  1
  O  O18  1  0.70613800  0.74910100  0.08687900  1
  O  O19  1  0.29572000  0.32564200  0.56249900  1
  O  O20  1  0.69709900  0.11564300  0.29911700  1
  O  O21  1  0.00005100  0.54393300  0.31778100  1
  O  O22  1  0.30324000  0.96315800  0.33573600  1
  O  O23  1  0.50427100  0.98314600  0.67960700  1
  O  O24  1  0.79572000  0.67435800  0.93750100  1
  O  O25  1  0.69676000  0.03684200  0.66426400  1
  O  O26  1  0.80290100  0.11564300  0.79911700  1
  O  O27  1  0.99786800  0.61032300  0.96246700  1
  O  O28  1  0.90012500  0.45954800  0.84393500  1
  O  O29  1  0.79197800  0.25283400  0.08786300  1
  O  O30  1  0.99572900  0.98314600  0.17960700  1
  O  O31  1  0.00427100  0.01685400  0.82039300  1
  O  O32  1  0.39953100  0.68999800  0.93554900  1
  O  O33  1  0.39958600  0.59735100  0.29777000  1
  O  O34  1  0.99994900  0.45606700  0.68221900  1
  O  O35  1  0.80386300  0.17933300  0.43423900  1
  O  O36  1  0.09987500  0.54045200  0.15606500  1
  O  O37  1  0.00213200  0.38967700  0.03753300  1
  O  O38  1  0.60141400  0.88502100  0.20537100  1
  O  O39  1  0.89858600  0.88502100  0.70537100  1
  O  O40  1  0.89953100  0.31000200  0.56445100  1
  O  O41  1  0.49572900  0.01685400  0.32039300  1
  O  O42  1  0.10141400  0.11497900  0.29462900  1
  O  O43  1  0.30386300  0.82066700  0.06576100  1
  O  O44  1  0.30290100  0.88435700  0.70088300  1
  O  O45  1  0.40062100  0.26005500  0.07918400  1
  O  O46  1  0.10046900  0.68999800  0.43554900  1
  O  O47  1  0.10150700  0.17384700  0.94734400  1
  O  O48  1  0.49994900  0.54393300  0.81778100  1
  O  O49  1  0.50213200  0.61032300  0.46246700  1
  O  O50  1  0.80261500  0.61243100  0.29638800  1
  O  O51  1  0.30261500  0.38756900  0.20361200  1
  O  O52  1  0.90350100  0.24201100  0.92277600  1
  O  O53  1  0.19709900  0.88435700  0.20088300  1
  O  O54  1  0.59649900  0.24201100  0.42277600  1
  O  O55  1  0.79386200  0.74910100  0.58687900  1
  O  O56  1  0.60150700  0.82615300  0.55265600  1
  O  O57  1  0.10041400  0.59735100  0.79777000  1
  O  O58  1  0.40012500  0.54045200  0.65606500  1
  O  O59  1  0.80324000  0.03684200  0.16426400  1
  O  O60  1  0.19676000  0.96315800  0.83573600  1
  O  O61  1  0.20802200  0.74716600  0.91213700  1
  O  O62  1  0.90062100  0.73994500  0.42081600  1
  O  O63  1  0.00429200  0.89454800  0.54231900  1
  O  O64  1  0.89849300  0.82615300  0.05265600  1
  O  O65  1  0.20613800  0.25089900  0.41312100  1
  O  O66  1  0.50429200  0.10545200  0.95768100  1
  O  O67  1  0.69738500  0.61243100  0.79638800  1
  O  O68  1  0.70802200  0.25283400  0.58786300  1
  O  O69  1  0.09937900  0.26005500  0.57918400  1
  O  O70  1  0.39858600  0.11497900  0.79462900  1
  O  O71  1  0.99570800  0.10545200  0.45768100  1
loop_
_geom_bond_atom_site_label_1
_geom_bond_atom_site_label_2
_geom_bond_distance
_geom_bond_site_symmetry_2
O0 Pr5 2.334487 1_555
O0 Pr34 2.379462 1_555
O0 Pr6 2.393599 1_555
O0 Pr19 2.491793 1_555
O1 Pr24 2.334487 1_554
O1 Pr8 2.379462 1_555
O1 Pr31 2.393599 1_555
O1 Pr25 2.491793 1_555
O2 O66 1.542416 1_564
O2 Pr28 2.475173 1_564
O2 Pr36 2.480069 1_555
O2 Pr1 2.892988 1_555
O2 Pr27 2.991537 1_555
O3 Pr0 2.458200 1_555
O3 Pr25 2.482270 1_556
O3 Pr28 2.506639 1_555
O3 Pr8 2.526088 1_556
O4 Pr39 2.269070 1_555
O4 Pr36 2.360104 1_546
O4 Pr14 2.461420 1_545
O4 Pr38 2.547291 1_555
O5 Pr38 2.379062 1_555
O5 Pr36 2.445698 1_556
O5 Pr33 2.453232 1_555
O5 Pr1 2.660877 1_556
O6 Pr39 2.376569 1_555
O6 Pr2 2.394338 1_555
O6 Pr5 2.404431 1_555
O6 Pr33 2.498061 1_555
O7 Pr20 2.505236 1_555
O7 Pr16 2.576946 1_555
O7 Pr18 2.598037 1_565
O7 Pr12 2.913201 1_555
O8 Pr24 2.530570 1_554
O8 Pr32 2.569793 1_555
O8 Pr22 2.614472 1_565
O8 Pr8 2.864570 1_565
O9 Pr16 2.382286 1_555
O9 Pr30 2.435858 1_555
O9 Pr18 2.456295 1_555
O9 Pr37 2.506640 1_555
O10 O49 1.526504 1_555
O10 Pr16 2.514015 1_555
O10 Pr2 2.537400 1_555
O10 Pr5 2.541591 1_555
O10 Pr30 2.828182 1_555
O11 O58 1.530180 1_555
O11 Pr16 2.530570 1_555
O11 Pr15 2.569793 1_555
O11 Pr30 2.614472 1_565
O11 Pr18 2.864570 1_565
O12 Pr35 2.333108 1_555
O12 Pr38 2.384264 1_554
O12 Pr1 2.488091 1_555
O12 Pr36 2.492096 1_545
O13 Pr27 2.350259 1_555
O13 Pr37 2.381092 1_555
O13 Pr1 2.429947 1_555
O13 Pr35 2.438473 1_555
O14 O54 1.530180 1_555
O14 Pr35 2.510930 1_555
O14 Pr5 2.535575 1_555
O14 Pr27 2.543172 1_555
O14 Pr6 3.222635 1_555
O15 Pr26 2.376569 1_555
O15 Pr10 2.394338 1_655
O15 Pr13 2.404431 1_555
O15 Pr3 2.498061 1_555
O16 Pr11 2.269070 1_555
O16 Pr4 2.360104 1_565
O16 Pr18 2.461420 1_565
O16 Pr12 2.547291 1_555
O17 Pr11 2.300954 1_555
O17 Pr0 2.357661 1_555
O17 Pr7 2.409713 1_555
O17 Pr12 2.416296 1_555
O18 Pr6 2.458200 1_555
O18 Pr38 2.482270 1_554
O18 Pr36 2.506639 1_555
O18 Pr14 2.526088 1_554
O19 Pr16 2.334487 1_555
O19 Pr18 2.379462 1_555
O19 Pr0 2.393599 1_555
O19 Pr12 2.491793 1_555
O20 Pr6 2.349665 1_545
O20 Pr26 2.377392 1_555
O20 Pr35 2.456617 1_555
O20 Pr34 2.500120 1_545
O21 Pr10 2.350259 1_555
O21 Pr3 2.381092 1_455
O21 Pr21 2.429947 1_555
O21 Pr32 2.438473 1_555
O22 O7 1.525738 1_555
O22 Pr20 2.538965 1_555
O22 Pr18 2.551666 1_565
O22 Pr31 2.600859 1_565
O22 Pr37 2.957982 1_565
O23 Pr15 2.397112 1_555
O23 Pr2 2.425684 1_565
O23 Pr30 2.438343 1_565
O23 Pr33 2.446650 1_555
O24 Pr13 2.334487 1_556
O24 Pr14 2.379462 1_555
O24 Pr9 2.393599 1_555
O24 Pr38 2.491793 1_555
O25 O68 1.525738 1_555
O25 Pr39 2.538965 1_555
O25 Pr34 2.551666 1_545
O25 Pr9 2.600859 1_545
O25 Pr33 2.957982 1_545
O26 Pr9 2.349665 1_545
O26 Pr39 2.377392 1_555
O26 Pr23 2.456617 1_555
O26 Pr14 2.500120 1_545
O27 O37 1.526504 1_656
O27 Pr13 2.514015 1_556
O27 Pr29 2.537400 1_555
O27 Pr24 2.541591 1_655
O27 Pr22 2.828182 1_666
O28 O52 1.530180 1_555
O28 Pr23 2.510930 1_555
O28 Pr13 2.535575 1_556
O28 Pr29 2.543172 1_555
O28 Pr9 3.222635 1_555
O29 O59 1.525738 1_555
O29 Pr26 2.505236 1_555
O29 Pr13 2.576946 1_555
O29 Pr14 2.598037 1_544
O29 Pr38 2.913201 1_554
O30 Pr32 2.397112 1_655
O30 Pr10 2.425684 1_665
O30 Pr22 2.438343 1_665
O30 Pr3 2.446650 1_555
O31 Pr23 2.397112 1_455
O31 Pr29 2.425684 1_445
O31 Pr22 2.438343 1_556
O31 Pr7 2.446650 1_555
O32 Pr15 2.333108 1_555
O32 Pr25 2.384264 1_556
O32 Pr1 2.488091 1_556
O32 Pr28 2.492096 1_565
O33 Pr20 2.376569 1_555
O33 Pr27 2.394338 1_555
O33 Pr16 2.404431 1_555
O33 Pr37 2.498061 1_555
O34 Pr29 2.350259 1_555
O34 Pr7 2.381092 1_655
O34 Pr21 2.429947 1_655
O34 Pr23 2.438473 1_555
O35 Pr26 2.269070 1_555
O35 Pr17 2.360104 1_545
O35 Pr34 2.461420 1_545
O35 Pr19 2.547291 1_555
O36 O8 1.530180 1_555
O36 Pr32 2.510930 1_555
O36 Pr24 2.535575 1_554
O36 Pr10 2.543172 1_555
O36 Pr31 3.222635 1_555
O37 Pr24 2.514015 1_554
O37 Pr10 2.537400 1_555
O37 Pr13 2.541591 1_455
O37 Pr22 2.828182 1_555
O38 Pr27 2.328527 1_555
O38 Pr6 2.353406 1_555
O38 Pr36 2.387418 1_555
O38 Pr35 2.416625 1_565
O39 Pr29 2.328527 1_555
O39 Pr9 2.353406 1_555
O39 Pr17 2.387418 1_555
O39 Pr23 2.416625 1_565
O40 Pr23 2.333108 1_555
O40 Pr19 2.384264 1_555
O40 Pr21 2.488091 1_655
O40 Pr17 2.492096 1_545
O41 Pr35 2.397112 1_555
O41 Pr27 2.425684 1_545
O41 Pr30 2.438343 1_555
O41 Pr37 2.446650 1_555
O42 Pr10 2.328527 1_555
O42 Pr31 2.353406 1_555
O42 Pr4 2.387418 1_555
O42 Pr32 2.416625 1_545
O43 Pr20 2.269070 1_555
O43 Pr28 2.360104 1_564
O43 Pr8 2.461420 1_565
O43 Pr25 2.547291 1_555
O44 Pr0 2.349665 1_565
O44 Pr11 2.377392 1_555
O44 Pr15 2.456617 1_555
O44 Pr18 2.500120 1_565
O45 Pr25 2.379062 1_555
O45 Pr28 2.445698 1_554
O45 Pr37 2.453232 1_555
O45 Pr1 2.660877 1_555
O46 Pr32 2.333108 1_555
O46 Pr12 2.384264 1_555
O46 Pr21 2.488091 1_555
O46 Pr4 2.492096 1_565
O47 Pr24 2.382286 1_555
O47 Pr22 2.435858 1_556
O47 Pr8 2.456295 1_556
O47 Pr7 2.506640 1_555
O48 Pr2 2.350259 1_555
O48 Pr33 2.381092 1_555
O48 Pr1 2.429947 1_556
O48 Pr15 2.438473 1_555
O49 Pr5 2.514015 1_555
O49 Pr27 2.537400 1_555
O49 Pr16 2.541591 1_555
O49 Pr30 2.828182 1_565
O50 Pr26 2.300954 1_555
O50 Pr6 2.357661 1_555
O50 Pr3 2.409713 1_555
O50 Pr19 2.416296 1_555
O51 Pr20 2.300954 1_555
O51 Pr31 2.357661 1_555
O51 Pr37 2.409713 1_555
O51 Pr25 2.416296 1_555
O52 Pr13 2.530570 1_556
O52 Pr23 2.569793 1_555
O52 Pr22 2.614472 1_656
O52 Pr14 2.864570 1_545
O53 Pr31 2.349665 1_565
O53 Pr20 2.377392 1_555
O53 Pr32 2.456617 1_555
O53 Pr8 2.500120 1_565
O54 Pr5 2.530570 1_555
O54 Pr35 2.569793 1_555
O54 Pr30 2.614472 1_555
O54 Pr34 2.864570 1_545
O55 Pr9 2.458200 1_555
O55 Pr19 2.482270 1_555
O55 Pr17 2.506639 1_555
O55 Pr34 2.526088 1_555
O56 Pr5 2.382286 1_555
O56 Pr30 2.435858 1_565
O56 Pr34 2.456295 1_555
O56 Pr33 2.506640 1_555
O57 Pr11 2.376569 1_555
O57 Pr29 2.394338 1_455
O57 Pr24 2.404431 1_555
O57 Pr7 2.498061 1_555
O58 Pr15 2.510930 1_555
O58 Pr16 2.535575 1_555
O58 Pr2 2.543172 1_555
O58 Pr0 3.222635 1_555
O59 Pr26 2.538965 1_555
O59 Pr14 2.551666 1_544
O59 Pr6 2.600859 1_545
O59 Pr3 2.957982 1_545
O60 O61 1.525738 1_555
O60 Pr11 2.538965 1_555
O60 Pr8 2.551666 1_566
O60 Pr0 2.600859 1_565
O60 Pr7 2.957982 1_565
O61 Pr11 2.505236 1_555
O61 Pr24 2.576946 1_555
O61 Pr8 2.598037 1_566
O61 Pr25 2.913201 1_556
O62 Pr19 2.379062 1_555
O62 Pr17 2.445698 1_555
O62 Pr3 2.453232 1_555
O62 Pr21 2.660877 1_655
O63 O71 1.542416 1_465
O63 Pr4 2.475173 1_565
O63 Pr17 2.480069 1_455
O63 Pr21 2.892988 1_555
O63 Pr29 2.991537 1_455
O64 Pr13 2.382286 1_555
O64 Pr22 2.435858 1_665
O64 Pr14 2.456295 1_554
O64 Pr3 2.506640 1_555
O65 Pr31 2.458200 1_555
O65 Pr12 2.482270 1_555
O65 Pr4 2.506639 1_555
O65 Pr18 2.526088 1_555
O66 Pr36 2.475173 1_546
O66 Pr28 2.480069 1_555
O66 Pr1 2.892988 1_556
O66 Pr2 2.991537 1_555
O67 Pr39 2.300954 1_555
O67 Pr9 2.357661 1_555
O67 Pr33 2.409713 1_555
O67 Pr38 2.416296 1_555
O68 Pr39 2.505236 1_555
O68 Pr5 2.576946 1_555
O68 Pr34 2.598037 1_545
O68 Pr19 2.913201 1_555
O69 Pr12 2.379062 1_555
O69 Pr4 2.445698 1_555
O69 Pr7 2.453232 1_555
O69 Pr21 2.660877 1_555
O70 Pr2 2.328527 1_555
O70 Pr0 2.353406 1_555
O70 Pr28 2.387418 1_555
O70 Pr15 2.416625 1_545
O71 Pr17 2.475173 1_545
O71 Pr4 2.480069 1_655
O71 Pr21 2.892988 1_655
O71 Pr10 2.991537 1_655
