# generated using pymatgen
data_Cu9S5
_symmetry_space_group_name_H-M   'P 1'
_cell_length_a   16.22725119
_cell_length_b   16.22725119
_cell_length_c   16.22725074
_cell_angle_alpha   13.71040695
_cell_angle_beta   13.71040695
_cell_angle_gamma   13.71040887
_symmetry_Int_Tables_number   1
_chemical_formula_structural   Cu9S5
_chemical_formula_sum   'Cu9 S5'
_cell_volume   208.87335682
_cell_formula_units_Z   1
loop_
 _symmetry_equiv_pos_site_id
 _symmetry_equiv_pos_as_xyz
  1  'x, y, z'
loop_
 _atom_site_type_symbol
 _atom_site_label
 _atom_site_symmetry_multiplicity
 _atom_site_fract_x
 _atom_site_fract_y
 _atom_site_fract_z
 _atom_site_occupancy
  Cu  Cu0  1  0.50000000  0.50000000  0.50000000  1
  Cu  Cu1  1  0.05204100  0.05204100  0.05204100  1
  Cu  Cu2  1  0.94795900  0.94795900  0.94795900  1
  Cu  Cu3  1  0.13705000  0.13705000  0.13705000  1
  Cu  Cu4  1  0.86295000  0.86295000  0.86295000  1
  Cu  Cu5  1  0.24811000  0.24811000  0.24811000  1
  Cu  Cu6  1  0.75189000  0.75189000  0.75189000  1
  Cu  Cu7  1  0.35171000  0.35171000  0.35171000  1
  Cu  Cu8  1  0.64829000  0.64829000  0.64829000  1
  S  S0  1  0.00000000  0.00000000  0.00000000  1
  S  S1  1  0.20116800  0.20116800  0.20116800  1
  S  S2  1  0.79883200  0.79883200  0.79883200  1
  S  S3  1  0.40013100  0.40013100  0.40013100  1
  S  S4  1  0.59986900  0.59986900  0.59986900  1
loop_
_geom_bond_atom_site_label_1
_geom_bond_atom_site_label_2
_geom_bond_distance
_geom_bond_site_symmetry_2
Cu0 Cu4 2.653555 1_554
Cu0 Cu3 2.653555 1_556
Cu0 Cu4 2.653555 1_455
Cu0 Cu3 2.653555 1_655
Cu0 Cu4 2.653555 1_545
Cu0 Cu3 2.653555 1_565
Cu0 S2 2.787382 1_554
Cu0 S1 2.787382 1_556
Cu0 S2 2.787383 1_545
Cu0 S2 2.787383 1_455
Cu0 S1 2.787383 1_655
Cu0 S1 2.787383 1_565
Cu1 S3 2.346987 1_554
Cu1 S3 2.346987 1_545
Cu1 S3 2.346987 1_455
Cu1 S0 2.509269 1_555
Cu2 S4 2.346987 1_556
Cu2 S4 2.346987 1_565
Cu2 S4 2.346987 1_655
Cu2 S0 2.509269 1_666
Cu3 S2 2.248900 1_445
Cu3 S2 2.248901 1_454
Cu3 S2 2.248901 1_544
Cu4 S1 2.248900 1_665
Cu4 S1 2.248901 1_656
Cu4 S1 2.248901 1_566
Cu5 S1 2.263410 1_555
Cu5 S4 2.406532 1_554
Cu5 S4 2.406532 1_455
Cu5 S4 2.406532 1_545
Cu6 S2 2.263410 1_555
Cu6 S3 2.406532 1_556
Cu6 S3 2.406532 1_565
Cu6 S3 2.406532 1_655
Cu7 S3 2.334723 1_555
Cu7 S0 2.405661 1_556
Cu7 S0 2.405661 1_565
Cu7 S0 2.405661 1_655
Cu8 S4 2.334723 1_555
Cu8 S0 2.405661 1_665
Cu8 S0 2.405661 1_656
Cu8 S0 2.405661 1_566
