# generated using pymatgen
data_Cs5CaNi4F15
_symmetry_space_group_name_H-M   'P 1'
_cell_length_a   6.31489209
_cell_length_b   6.31489209
_cell_length_c   25.59410900
_cell_angle_alpha   90.00000000
_cell_angle_beta   90.00000000
_cell_angle_gamma   120.00000096
_symmetry_Int_Tables_number   1
_chemical_formula_structural   Cs5CaNi4F15
_chemical_formula_sum   'Cs10 Ca2 Ni8 F30'
_cell_volume   883.89873065
_cell_formula_units_Z   2
loop_
 _symmetry_equiv_pos_site_id
 _symmetry_equiv_pos_as_xyz
  1  'x, y, z'
loop_
 _atom_site_type_symbol
 _atom_site_label
 _atom_site_symmetry_multiplicity
 _atom_site_fract_x
 _atom_site_fract_y
 _atom_site_fract_z
 _atom_site_occupancy
  Cs  Cs0  1  0.66666700  0.33333300  0.94195600  1
  Cs  Cs1  1  0.00000000  0.00000000  0.84503000  1
  Cs  Cs2  1  0.00000000  0.00000000  0.15497000  1
  Cs  Cs3  1  0.33333300  0.66666700  0.05804400  1
  Cs  Cs4  1  0.33333300  0.66666700  0.44195600  1
  Cs  Cs5  1  0.00000000  0.00000000  0.65497000  1
  Cs  Cs6  1  0.66666700  0.33333300  0.75000000  1
  Cs  Cs7  1  0.66666700  0.33333300  0.55804400  1
  Cs  Cs8  1  0.33333300  0.66666700  0.25000000  1
  Cs  Cs9  1  0.00000000  0.00000000  0.34503000  1
  Ca  Ca0  1  0.00000000  0.00000000  0.00000000  1
  Ca  Ca1  1  0.00000000  0.00000000  0.50000000  1
  Ni  Ni0  1  0.66666700  0.33333300  0.09069700  1
  Ni  Ni1  1  0.33333300  0.66666700  0.69723900  1
  Ni  Ni2  1  0.33333300  0.66666700  0.90930300  1
  Ni  Ni3  1  0.66666700  0.33333300  0.40930300  1
  Ni  Ni4  1  0.66666700  0.33333300  0.30276100  1
  Ni  Ni5  1  0.33333300  0.66666700  0.59069700  1
  Ni  Ni6  1  0.66666700  0.33333300  0.19723900  1
  Ni  Ni7  1  0.33333300  0.66666700  0.80276100  1
  F  F0  1  0.52579000  0.47421000  0.35392700  1
  F  F1  1  0.47421000  0.94842000  0.64607300  1
  F  F2  1  0.82493900  0.64987800  0.45065600  1
  F  F3  1  0.94842000  0.47421000  0.35392700  1
  F  F4  1  0.47421000  0.52579000  0.64607300  1
  F  F5  1  0.47421000  0.94842000  0.85392700  1
  F  F6  1  0.17506100  0.35012200  0.54934400  1
  F  F7  1  0.94842000  0.47421000  0.14607300  1
  F  F8  1  0.64987800  0.82493900  0.54934400  1
  F  F9  1  0.80791300  0.61582600  0.25000000  1
  F  F10  1  0.38417400  0.19208700  0.25000000  1
  F  F11  1  0.17506100  0.82493900  0.54934400  1
  F  F12  1  0.82493900  0.17506100  0.45065600  1
  F  F13  1  0.82493900  0.64987800  0.04934400  1
  F  F14  1  0.05158000  0.52579000  0.64607300  1
  F  F15  1  0.64987800  0.82493900  0.95065600  1
  F  F16  1  0.61582600  0.80791300  0.75000000  1
  F  F17  1  0.05158000  0.52579000  0.85392700  1
  F  F18  1  0.17506100  0.82493900  0.95065600  1
  F  F19  1  0.80791300  0.19208700  0.25000000  1
  F  F20  1  0.52579000  0.05158000  0.35392700  1
  F  F21  1  0.52579000  0.47421000  0.14607300  1
  F  F22  1  0.35012200  0.17506100  0.04934400  1
  F  F23  1  0.17506100  0.35012200  0.95065600  1
  F  F24  1  0.35012200  0.17506100  0.45065600  1
  F  F25  1  0.19208700  0.80791300  0.75000000  1
  F  F26  1  0.52579000  0.05158000  0.14607300  1
  F  F27  1  0.19208700  0.38417400  0.75000000  1
  F  F28  1  0.47421000  0.52579000  0.85392700  1
  F  F29  1  0.82493900  0.17506100  0.04934400  1
loop_
_geom_bond_atom_site_label_1
_geom_bond_atom_site_label_2
_geom_bond_distance
_geom_bond_site_symmetry_2
Cs0 F17 3.083389 1_655
Cs0 F5 3.083389 1_545
Cs0 F28 3.083392 1_555
Cs0 F23 3.166616 1_655
Cs0 F15 3.166616 1_545
Cs0 F18 3.166619 1_655
Cs0 F18 3.166619 1_545
Cs0 F23 3.166622 1_555
Cs0 F15 3.166622 1_555
Cs0 F29 3.248242 1_556
Cs0 F13 3.248245 1_556
Cs0 F22 3.248245 1_556
Cs1 F28 3.178190 1_555
Cs1 F28 3.178190 1_445
Cs1 F17 3.178190 1_555
Cs1 F5 3.178190 1_445
Cs1 F5 3.178190 1_545
Cs1 F17 3.178190 1_545
Cs1 F16 3.214002 1_445
Cs1 F27 3.214002 1_555
Cs1 F25 3.214002 1_545
Cs1 F23 3.312812 1_555
Cs1 F15 3.312812 1_445
Cs1 F18 3.312812 1_545
Cs2 F21 3.178190 1_555
Cs2 F21 3.178190 1_445
Cs2 F26 3.178190 1_555
Cs2 F7 3.178190 1_445
Cs2 F7 3.178190 1_455
Cs2 F26 3.178190 1_455
Cs2 F9 3.214002 1_445
Cs2 F10 3.214002 1_555
Cs2 F19 3.214002 1_455
Cs2 F22 3.312812 1_555
Cs2 F13 3.312812 1_445
Cs2 F29 3.312812 1_455
Cs3 F7 3.083389 1_455
Cs3 F26 3.083389 1_565
Cs3 F21 3.083392 1_555
Cs3 F22 3.166616 1_565
Cs3 F13 3.166616 1_455
Cs3 F29 3.166619 1_565
Cs3 F29 3.166619 1_455
Cs3 F22 3.166622 1_555
Cs3 F13 3.166622 1_555
Cs3 F18 3.248242 1_554
Cs3 F15 3.248245 1_554
Cs3 F23 3.248245 1_554
Cs4 F20 3.083389 1_565
Cs4 F3 3.083389 1_455
Cs4 F0 3.083392 1_555
Cs4 F24 3.166616 1_565
Cs4 F2 3.166616 1_455
Cs4 F12 3.166619 1_565
Cs4 F12 3.166619 1_455
Cs4 F24 3.166622 1_555
Cs4 F2 3.166622 1_555
Cs4 F11 3.248242 1_555
Cs4 F8 3.248245 1_555
Cs4 F6 3.248245 1_555
Cs5 F4 3.178190 1_555
Cs5 F4 3.178190 1_445
Cs5 F14 3.178190 1_555
Cs5 F1 3.178190 1_445
Cs5 F1 3.178190 1_545
Cs5 F14 3.178190 1_545
Cs5 F16 3.214002 1_445
Cs5 F27 3.214002 1_555
Cs5 F25 3.214002 1_545
Cs5 F6 3.312812 1_555
Cs5 F8 3.312812 1_445
Cs5 F11 3.312812 1_545
Cs6 F27 3.169661 1_655
Cs6 F16 3.169661 1_545
Cs6 F25 3.169664 1_655
Cs6 F25 3.169664 1_545
Cs6 F27 3.169668 1_555
Cs6 F16 3.169668 1_555
Cs6 F1 3.392099 1_545
Cs6 F5 3.392099 1_545
Cs6 F14 3.392099 1_655
Cs6 F17 3.392099 1_655
Cs6 F28 3.392103 1_555
Cs6 F4 3.392103 1_555
Cs7 F1 3.083389 1_545
Cs7 F14 3.083389 1_655
Cs7 F4 3.083392 1_555
Cs7 F6 3.166616 1_655
Cs7 F8 3.166616 1_545
Cs7 F11 3.166619 1_655
Cs7 F11 3.166619 1_545
Cs7 F6 3.166622 1_555
Cs7 F8 3.166622 1_555
Cs7 F12 3.248242 1_555
Cs7 F24 3.248245 1_555
Cs7 F2 3.248245 1_555
Cs8 F10 3.169661 1_565
Cs8 F9 3.169661 1_455
Cs8 F19 3.169664 1_565
Cs8 F19 3.169664 1_455
Cs8 F9 3.169668 1_555
Cs8 F10 3.169668 1_555
Cs8 F20 3.392099 1_565
Cs8 F3 3.392099 1_455
Cs8 F7 3.392099 1_455
Cs8 F26 3.392099 1_565
Cs8 F21 3.392103 1_555
Cs8 F0 3.392103 1_555
Cs9 F0 3.178190 1_555
Cs9 F0 3.178190 1_445
Cs9 F20 3.178190 1_555
Cs9 F3 3.178190 1_445
Cs9 F3 3.178190 1_455
Cs9 F20 3.178190 1_455
Cs9 F9 3.214002 1_445
Cs9 F10 3.214002 1_555
Cs9 F19 3.214002 1_455
Cs9 F24 3.312812 1_555
Cs9 F2 3.312812 1_445
Cs9 F12 3.312812 1_455
Ca0 F13 2.293750 1_445
Ca0 F22 2.293750 1_555
Ca0 F23 2.293750 1_554
Ca0 F15 2.293750 1_444
Ca0 F29 2.293750 1_455
Ca0 F18 2.293750 1_544
Ca1 F2 2.293750 1_445
Ca1 F24 2.293750 1_555
Ca1 F6 2.293750 1_555
Ca1 F8 2.293750 1_445
Ca1 F12 2.293750 1_455
Ca1 F11 2.293750 1_545
F0 Ni4 2.022178 1_555
F0 Ni3 2.093568 1_555
F1 Ni1 2.022174 1_555
F1 Ni5 2.093564 1_555
F2 Ni3 2.029049 1_555
F3 Ni4 2.022174 1_555
F3 Ni3 2.093564 1_555
F4 Ni1 2.022178 1_555
F4 Ni5 2.093568 1_555
F5 Ni7 2.022174 1_555
F5 Ni2 2.093564 1_555
F6 Ni5 2.029049 1_555
F7 Ni6 2.022174 1_555
F7 Ni0 2.093564 1_555
F8 Ni5 2.029049 1_555
F9 Ni6 2.051892 1_555
F9 Ni4 2.051892 1_555
F10 Ni6 2.051892 1_555
F10 Ni4 2.051892 1_555
F11 Ni5 2.029044 1_555
F12 Ni3 2.029044 1_555
F13 Ni0 2.029049 1_555
F14 Ni1 2.022174 1_555
F14 Ni5 2.093564 1_555
F15 Ni2 2.029049 1_555
F16 Ni7 2.051892 1_555
F16 Ni1 2.051892 1_555
F17 Ni7 2.022174 1_555
F17 Ni2 2.093564 1_555
F18 Ni2 2.029044 1_555
F19 Ni6 2.051888 1_555
F19 Ni4 2.051888 1_555
F20 Ni4 2.022174 1_555
F20 Ni3 2.093564 1_555
F21 Ni6 2.022178 1_555
F21 Ni0 2.093568 1_555
F22 Ni0 2.029049 1_555
F23 Ni2 2.029049 1_555
F24 Ni3 2.029049 1_555
F25 Ni7 2.051888 1_555
F25 Ni1 2.051888 1_555
F26 Ni6 2.022174 1_555
F26 Ni0 2.093564 1_555
F27 Ni7 2.051892 1_555
F27 Ni1 2.051892 1_555
F28 Ni7 2.022178 1_555
F28 Ni2 2.093568 1_555
F29 Ni0 2.029044 1_555
