# generated using pymatgen
data_Pb3SeO5
_symmetry_space_group_name_H-M   'P 1'
_cell_length_a   7.58053797
_cell_length_b   7.58053797
_cell_length_c   5.77762033
_cell_angle_alpha   90.00000000
_cell_angle_beta   90.00000000
_cell_angle_gamma   91.42877923
_symmetry_Int_Tables_number   1
_chemical_formula_structural   Pb3SeO5
_chemical_formula_sum   'Pb6 Se2 O10'
_cell_volume   331.90516221
_cell_formula_units_Z   2
loop_
 _symmetry_equiv_pos_site_id
 _symmetry_equiv_pos_as_xyz
  1  'x, y, z'
loop_
 _atom_site_type_symbol
 _atom_site_label
 _atom_site_symmetry_multiplicity
 _atom_site_fract_x
 _atom_site_fract_y
 _atom_site_fract_z
 _atom_site_occupancy
  Pb  Pb0  1  0.11617837  0.88382163  0.18684131  1
  Pb  Pb1  1  0.88382163  0.11617837  0.68684131  1
  Pb  Pb2  1  0.64091833  0.86319812  0.18863480  1
  Pb  Pb3  1  0.35908167  0.13680188  0.68863480  1
  Pb  Pb4  1  0.13680188  0.35908167  0.18863480  1
  Pb  Pb5  1  0.86319812  0.64091833  0.68863480  1
  Se  Se0  1  0.62880050  0.37119950  0.13828671  1
  Se  Se1  1  0.37119950  0.62880050  0.63828671  1
  O  O0  1  0.86876167  0.86332488  0.95254017  1
  O  O1  1  0.13123833  0.13667512  0.45254017  1
  O  O2  1  0.13667512  0.13123833  0.95254017  1
  O  O3  1  0.86332488  0.86876167  0.45254017  1
  O  O4  1  0.77770262  0.22229738  0.22881478  1
  O  O5  1  0.22229738  0.77770262  0.72881478  1
  O  O6  1  0.44096906  0.30290209  0.28335262  1
  O  O7  1  0.55903094  0.69709791  0.78335262  1
  O  O8  1  0.69709791  0.55903094  0.28335262  1
  O  O9  1  0.30290209  0.44096906  0.78335262  1
loop_
_geom_bond_atom_site_label_1
_geom_bond_atom_site_label_2
_geom_bond_distance
_geom_bond_site_symmetry_2
O0 Pb2 2.200847 1_556
O0 Pb5 2.272784 1_555
O0 Pb0 2.315127 1_656
O0 Pb1 2.456148 1_565
O1 Pb3 2.200847 1_555
O1 Pb4 2.272784 1_555
O1 Pb1 2.315127 1_455
O1 Pb0 2.456148 1_545
O2 Pb4 2.200847 1_556
O2 Pb3 2.272784 1_555
O2 Pb0 2.315127 1_546
O2 Pb1 2.456148 1_455
O3 Pb5 2.200847 1_555
O3 Pb2 2.272784 1_555
O3 Pb1 2.315127 1_565
O3 Pb0 2.456148 1_655
O4 Se0 1.698616 1_555
O5 Se1 1.698616 1_555
O6 Se0 1.720797 1_555
O6 Pb4 2.417912 1_555
O6 Pb3 2.722993 1_555
O7 Se1 1.720797 1_555
O7 Pb5 2.417912 1_555
O7 Pb2 2.722993 1_556
O8 Se0 1.720797 1_555
O8 Pb2 2.417912 1_555
O8 Pb5 2.722993 1_555
O9 Se1 1.720797 1_555
O9 Pb3 2.417912 1_555
O9 Pb4 2.722993 1_556
