# generated using pymatgen
data_Na3V(SO4)3
_symmetry_space_group_name_H-M   'P 1'
_cell_length_a   8.47281974
_cell_length_b   8.47281974
_cell_length_c   8.47282009
_cell_angle_alpha   107.50055583
_cell_angle_beta   107.50055583
_cell_angle_gamma   107.50055443
_symmetry_Int_Tables_number   1
_chemical_formula_structural   Na3V(SO4)3
_chemical_formula_sum   'Na6 V2 S6 O24'
_cell_volume   499.48026940
_cell_formula_units_Z   2
loop_
 _symmetry_equiv_pos_site_id
 _symmetry_equiv_pos_as_xyz
  1  'x, y, z'
loop_
 _atom_site_type_symbol
 _atom_site_label
 _atom_site_symmetry_multiplicity
 _atom_site_fract_x
 _atom_site_fract_y
 _atom_site_fract_z
 _atom_site_occupancy
  Na  Na0  1  0.61518300  0.76436300  0.14422700  1
  Na  Na1  1  0.14422700  0.61518300  0.76436300  1
  Na  Na2  1  0.76436300  0.14422700  0.61518300  1
  Na  Na3  1  0.38481700  0.23563700  0.85577300  1
  Na  Na4  1  0.85577300  0.38481700  0.23563700  1
  Na  Na5  1  0.23563700  0.85577300  0.38481700  1
  V  V0  1  0.00000000  0.00000000  0.00000000  1
  V  V1  1  0.50000000  0.50000000  0.50000000  1
  S  S0  1  0.90175200  0.76407800  0.55219800  1
  S  S1  1  0.55219800  0.90175200  0.76407800  1
  S  S2  1  0.76407800  0.55219800  0.90175200  1
  S  S3  1  0.09824800  0.23592200  0.44780200  1
  S  S4  1  0.44780200  0.09824800  0.23592200  1
  S  S5  1  0.23592200  0.44780200  0.09824800  1
  O  O0  1  0.75668100  0.58640500  0.51871700  1
  O  O1  1  0.51871700  0.75668100  0.58640500  1
  O  O2  1  0.58640500  0.51871700  0.75668100  1
  O  O3  1  0.24331900  0.41359500  0.48128300  1
  O  O4  1  0.48128300  0.24331900  0.41359500  1
  O  O5  1  0.41359500  0.48128300  0.24331900  1
  O  O6  1  0.82140800  0.86755000  0.47187100  1
  O  O7  1  0.47187100  0.82140800  0.86755000  1
  O  O8  1  0.86755000  0.47187100  0.82140800  1
  O  O9  1  0.17859200  0.13245000  0.52812900  1
  O  O10  1  0.52812900  0.17859200  0.13245000  1
  O  O11  1  0.13245000  0.52812900  0.17859200  1
  O  O12  1  0.02509200  0.71084200  0.47950200  1
  O  O13  1  0.47950200  0.02509200  0.71084200  1
  O  O14  1  0.71084200  0.47950200  0.02509200  1
  O  O15  1  0.97490800  0.28915800  0.52049800  1
  O  O16  1  0.52049800  0.97490800  0.28915800  1
  O  O17  1  0.28915800  0.52049800  0.97490800  1
  O  O18  1  0.01229500  0.87196600  0.75847300  1
  O  O19  1  0.75847300  0.01229500  0.87196600  1
  O  O20  1  0.87196600  0.75847300  0.01229500  1
  O  O21  1  0.98770500  0.12803400  0.24152700  1
  O  O22  1  0.24152700  0.98770500  0.12803400  1
  O  O23  1  0.12803400  0.24152700  0.98770500  1
loop_
_geom_bond_atom_site_label_1
_geom_bond_atom_site_label_2
_geom_bond_distance
_geom_bond_site_symmetry_2
Na0 O16 2.338716 1_555
Na0 O6 2.495637 1_555
Na0 O17 2.521715 1_554
Na0 O7 2.554586 1_554
Na0 O20 2.734972 1_555
Na0 O14 2.775695 1_555
Na1 O17 2.338716 1_555
Na1 O7 2.495637 1_555
Na1 O15 2.521715 1_455
Na1 O8 2.554586 1_455
Na1 O18 2.734972 1_555
Na1 O12 2.775695 1_555
Na2 O15 2.338716 1_555
Na2 O8 2.495637 1_555
Na2 O16 2.521715 1_545
Na2 O6 2.554586 1_545
Na2 O19 2.734972 1_555
Na2 O13 2.775695 1_555
Na3 O13 2.338716 1_555
Na3 O9 2.495637 1_555
Na3 O14 2.521715 1_556
Na3 O10 2.554586 1_556
Na3 O23 2.734972 1_555
Na3 O17 2.775695 1_555
Na4 O14 2.338716 1_555
Na4 O10 2.495637 1_555
Na4 O12 2.521715 1_655
Na4 O11 2.554586 1_655
Na4 O21 2.734972 1_555
Na4 O15 2.775695 1_555
Na5 O12 2.338716 1_555
Na5 O11 2.495637 1_555
Na5 O13 2.521715 1_565
Na5 O9 2.554586 1_565
Na5 O22 2.734972 1_555
Na5 O16 2.775695 1_555
O0 S0 1.509336 1_555
O0 V1 2.013972 1_555
O1 S1 1.509336 1_555
O1 V1 2.013972 1_555
O2 S2 1.509336 1_555
O2 V1 2.013973 1_555
O3 S3 1.509336 1_555
O3 V1 2.013972 1_555
O4 S4 1.509336 1_555
O4 V1 2.013972 1_555
O5 S5 1.509336 1_555
O5 V1 2.013973 1_555
O6 S0 1.460948 1_555
O7 S1 1.460948 1_555
O8 S2 1.460948 1_555
O9 S3 1.460948 1_555
O10 S4 1.460948 1_555
O11 S5 1.460948 1_555
O12 S0 1.475966 1_455
O13 S1 1.475966 1_545
O14 S2 1.475966 1_554
O15 S3 1.475966 1_655
O16 S4 1.475966 1_565
O17 S5 1.475966 1_556
O18 S0 1.518919 1_455
O18 V0 2.058276 1_566
O19 S1 1.518919 1_545
O19 V0 2.058276 1_656
O20 S2 1.518919 1_554
O20 V0 2.058276 1_665
O21 S3 1.518919 1_655
O21 V0 2.058276 1_655
O22 S4 1.518919 1_565
O22 V0 2.058276 1_565
O23 S5 1.518919 1_556
O23 V0 2.058276 1_556
