# generated using pymatgen
data_CsNaTiO3
_symmetry_space_group_name_H-M   'P 1'
_cell_length_a   6.45640676
_cell_length_b   6.45640676
_cell_length_c   5.67114000
_cell_angle_alpha   90.00000000
_cell_angle_beta   90.00000000
_cell_angle_gamma   123.86922806
_symmetry_Int_Tables_number   1
_chemical_formula_structural   CsNaTiO3
_chemical_formula_sum   'Cs2 Na2 Ti2 O6'
_cell_volume   196.28779676
_cell_formula_units_Z   2
loop_
 _symmetry_equiv_pos_site_id
 _symmetry_equiv_pos_as_xyz
  1  'x, y, z'
loop_
 _atom_site_type_symbol
 _atom_site_label
 _atom_site_symmetry_multiplicity
 _atom_site_fract_x
 _atom_site_fract_y
 _atom_site_fract_z
 _atom_site_occupancy
  Cs  Cs0  1  0.73233700  0.26766300  0.75000000  1
  Cs  Cs1  1  0.26766300  0.73233700  0.25000000  1
  Na  Na0  1  0.57381700  0.42618300  0.25000000  1
  Na  Na1  1  0.42618300  0.57381700  0.75000000  1
  Ti  Ti0  1  0.95112600  0.04887400  0.25000000  1
  Ti  Ti1  1  0.04887400  0.95112600  0.75000000  1
  O  O0  1  0.79576600  0.20423400  0.25000000  1
  O  O1  1  0.21071700  0.21071700  0.00000000  1
  O  O2  1  0.78928300  0.78928300  0.50000000  1
  O  O3  1  0.21071700  0.21071700  0.50000000  1
  O  O4  1  0.78928300  0.78928300  0.00000000  1
  O  O5  1  0.20423400  0.79576600  0.75000000  1
loop_
_geom_bond_atom_site_label_1
_geom_bond_atom_site_label_2
_geom_bond_distance
_geom_bond_site_symmetry_2
Cs0 O0 2.926227 1_555
Cs0 O0 2.926227 1_556
Cs0 O5 3.054435 1_655
Cs0 O5 3.054435 1_545
Cs1 O5 2.926227 1_554
Cs1 O5 2.926227 1_555
Cs1 O0 3.054435 1_565
Cs1 O0 3.054435 1_455
Na0 O2 2.409608 1_555
Na0 O4 2.409608 1_555
Na0 O1 2.409608 1_555
Na0 O3 2.409608 1_555
Na0 O0 2.528978 1_555
Na1 O2 2.409608 1_555
Na1 O3 2.409608 1_555
Na1 O4 2.409608 1_556
Na1 O1 2.409608 1_556
Na1 O5 2.528978 1_555
O0 Ti0 1.770236 1_555
O1 Ti1 1.989729 1_544
O1 Ti0 1.989729 1_455
O2 Ti1 1.989729 1_655
O2 Ti0 1.989729 1_565
O3 Ti1 1.989729 1_545
O3 Ti0 1.989729 1_455
O4 Ti1 1.989729 1_654
O4 Ti0 1.989729 1_565
O5 Ti1 1.770236 1_555
