# generated using pymatgen
data_Zn2TeCl2O3
_symmetry_space_group_name_H-M   'P 1'
_cell_length_a   7.76250700
_cell_length_b   10.64461200
_cell_length_c   15.86387100
_cell_angle_alpha   90.00000000
_cell_angle_beta   90.00000000
_cell_angle_gamma   90.00000000
_symmetry_Int_Tables_number   1
_chemical_formula_structural   Zn2TeCl2O3
_chemical_formula_sum   'Zn16 Te8 Cl16 O24'
_cell_volume   1310.81381645
_cell_formula_units_Z   8
loop_
 _symmetry_equiv_pos_site_id
 _symmetry_equiv_pos_as_xyz
  1  'x, y, z'
loop_
 _atom_site_type_symbol
 _atom_site_label
 _atom_site_symmetry_multiplicity
 _atom_site_fract_x
 _atom_site_fract_y
 _atom_site_fract_z
 _atom_site_occupancy
  Zn  Zn0  1  0.89768700  0.23751300  0.47517500  1
  Zn  Zn1  1  0.65895900  0.00594400  0.38984700  1
  Zn  Zn2  1  0.60231300  0.76248700  0.97517500  1
  Zn  Zn3  1  0.89768700  0.26248700  0.02482500  1
  Zn  Zn4  1  0.84104100  0.99405600  0.88984700  1
  Zn  Zn5  1  0.34104100  0.99405600  0.61015300  1
  Zn  Zn6  1  0.10231300  0.73751300  0.97517500  1
  Zn  Zn7  1  0.65895900  0.49405600  0.11015300  1
  Zn  Zn8  1  0.39768700  0.26248700  0.47517500  1
  Zn  Zn9  1  0.84104100  0.50594400  0.61015300  1
  Zn  Zn10  1  0.15895900  0.49405600  0.38984700  1
  Zn  Zn11  1  0.10231300  0.76248700  0.52482500  1
  Zn  Zn12  1  0.39768700  0.23751300  0.02482500  1
  Zn  Zn13  1  0.60231300  0.73751300  0.52482500  1
  Zn  Zn14  1  0.34104100  0.50594400  0.88984700  1
  Zn  Zn15  1  0.15895900  0.00594400  0.11015300  1
  Te  Te0  1  0.29283700  0.97158800  0.90266900  1
  Te  Te1  1  0.79283700  0.52841200  0.90266900  1
  Te  Te2  1  0.70716300  0.47158800  0.40266900  1
  Te  Te3  1  0.20716300  0.02841200  0.40266900  1
  Te  Te4  1  0.70716300  0.02841200  0.09733100  1
  Te  Te5  1  0.29283700  0.52841200  0.59733100  1
  Te  Te6  1  0.20716300  0.47158800  0.09733100  1
  Te  Te7  1  0.79283700  0.97158800  0.59733100  1
  Cl  Cl0  1  0.33263800  0.08007400  0.21076400  1
  Cl  Cl1  1  0.41979700  0.20286700  0.62029200  1
  Cl  Cl2  1  0.16736200  0.91992600  0.71076400  1
  Cl  Cl3  1  0.41979700  0.29713300  0.87970800  1
  Cl  Cl4  1  0.83263800  0.41992600  0.21076400  1
  Cl  Cl5  1  0.66736200  0.58007400  0.71076400  1
  Cl  Cl6  1  0.33263800  0.41992600  0.28923600  1
  Cl  Cl7  1  0.08020300  0.79713300  0.12029200  1
  Cl  Cl8  1  0.66736200  0.91992600  0.78923600  1
  Cl  Cl9  1  0.16736200  0.58007400  0.78923600  1
  Cl  Cl10  1  0.58020300  0.79713300  0.37970800  1
  Cl  Cl11  1  0.08020300  0.70286700  0.37970800  1
  Cl  Cl12  1  0.83263800  0.08007400  0.28923600  1
  Cl  Cl13  1  0.91979700  0.29713300  0.62029200  1
  Cl  Cl14  1  0.91979700  0.20286700  0.87970800  1
  Cl  Cl15  1  0.58020300  0.70286700  0.12029200  1
  O  O0  1  0.19518600  0.55829200  0.99019500  1
  O  O1  1  0.93670800  0.41215600  0.41656800  1
  O  O2  1  0.14202300  0.31086900  0.05658400  1
  O  O3  1  0.30481400  0.44170800  0.49019500  1
  O  O4  1  0.85797700  0.68913100  0.94341600  1
  O  O5  1  0.85797700  0.81086900  0.55658400  1
  O  O6  1  0.56329200  0.58784400  0.91656800  1
  O  O7  1  0.80481400  0.05829200  0.49019500  1
  O  O8  1  0.14202300  0.18913100  0.44341600  1
  O  O9  1  0.35797700  0.81086900  0.94341600  1
  O  O10  1  0.06329200  0.91215600  0.91656800  1
  O  O11  1  0.93670800  0.08784400  0.08343200  1
  O  O12  1  0.69518600  0.55829200  0.50980500  1
  O  O13  1  0.35797700  0.68913100  0.55658400  1
  O  O14  1  0.06329200  0.58784400  0.58343200  1
  O  O15  1  0.30481400  0.05829200  0.00980500  1
  O  O16  1  0.64202300  0.31086900  0.44341600  1
  O  O17  1  0.64202300  0.18913100  0.05658400  1
  O  O18  1  0.80481400  0.44170800  0.00980500  1
  O  O19  1  0.69518600  0.94170800  0.99019500  1
  O  O20  1  0.19518600  0.94170800  0.50980500  1
  O  O21  1  0.43670800  0.08784400  0.41656800  1
  O  O22  1  0.56329200  0.91215600  0.58343200  1
  O  O23  1  0.43670800  0.41215600  0.08343200  1
loop_
_geom_bond_atom_site_label_1
_geom_bond_atom_site_label_2
_geom_bond_distance
_geom_bond_site_symmetry_2
Cl0 Zn15 2.233322 1_555
Cl1 Zn5 2.310857 1_545
Cl1 Zn8 2.394151 1_555
Cl2 Zn5 2.233322 1_555
Cl3 Zn14 2.310857 1_555
Cl3 Zn12 2.394151 1_556
Cl4 Zn7 2.233322 1_555
Cl5 Zn9 2.233322 1_555
Cl6 Zn10 2.233322 1_555
Cl7 Zn15 2.310857 1_565
Cl7 Zn6 2.394151 1_554
Cl8 Zn4 2.233322 1_555
Cl9 Zn14 2.233322 1_555
Cl10 Zn1 2.310857 1_565
Cl10 Zn13 2.394151 1_555
Cl11 Zn10 2.310857 1_555
Cl11 Zn11 2.394151 1_555
Cl12 Zn1 2.233322 1_555
Cl13 Zn9 2.310857 1_555
Cl13 Zn0 2.394151 1_555
Cl14 Zn4 2.310857 1_545
Cl14 Zn3 2.394151 1_556
Cl15 Zn7 2.310857 1_555
Cl15 Zn2 2.394151 1_554
O0 Te6 1.936248 1_556
O0 Zn14 2.031390 1_555
O0 Zn6 2.053284 1_555
O1 Te2 1.903630 1_555
O1 Zn10 1.978918 1_655
O1 Zn0 2.100491 1_555
O2 Te6 1.897453 1_555
O2 Zn3 2.028888 1_455
O2 Zn12 2.191385 1_555
O3 Te5 1.936248 1_555
O3 Zn10 2.031390 1_555
O3 Zn8 2.053284 1_555
O4 Te1 1.897453 1_555
O4 Zn6 2.028888 1_655
O4 Zn2 2.191385 1_555
O5 Te7 1.897453 1_555
O5 Zn11 2.028888 1_655
O5 Zn13 2.191385 1_555
O6 Te1 1.903630 1_555
O6 Zn14 1.978918 1_555
O6 Zn2 2.100491 1_555
O7 Te7 1.936248 1_545
O7 Zn1 2.031390 1_555
O7 Zn0 2.053284 1_555
O8 Te3 1.897453 1_555
O8 Zn0 2.028888 1_455
O8 Zn8 2.191385 1_555
O9 Te0 1.897453 1_555
O9 Zn2 2.028888 1_555
O9 Zn6 2.191385 1_555
O10 Te0 1.903630 1_555
O10 Zn4 1.978918 1_455
O10 Zn6 2.100491 1_555
O11 Te4 1.903630 1_555
O11 Zn15 1.978918 1_655
O11 Zn3 2.100491 1_555
O12 Te2 1.936248 1_555
O12 Zn9 2.031390 1_555
O12 Zn13 2.053284 1_555
O13 Te5 1.897453 1_555
O13 Zn13 2.028888 1_555
O13 Zn11 2.191385 1_555
O14 Te5 1.903630 1_555
O14 Zn9 1.978918 1_455
O14 Zn11 2.100491 1_555
O15 Te0 1.936248 1_544
O15 Zn15 2.031390 1_555
O15 Zn12 2.053284 1_555
O16 Te2 1.897453 1_555
O16 Zn8 2.028888 1_555
O16 Zn0 2.191385 1_555
O17 Te4 1.897453 1_555
O17 Zn12 2.028888 1_555
O17 Zn3 2.191385 1_555
O18 Te1 1.936248 1_554
O18 Zn7 2.031390 1_555
O18 Zn3 2.053284 1_555
O19 Te4 1.936248 1_566
O19 Zn4 2.031390 1_555
O19 Zn2 2.053284 1_555
O20 Te3 1.936248 1_565
O20 Zn5 2.031390 1_555
O20 Zn11 2.053284 1_555
O21 Te3 1.903630 1_555
O21 Zn1 1.978918 1_555
O21 Zn8 2.100491 1_555
O22 Te7 1.903630 1_555
O22 Zn5 1.978918 1_555
O22 Zn13 2.100491 1_555
O23 Te6 1.903630 1_555
O23 Zn7 1.978918 1_555
O23 Zn12 2.100491 1_555
