# generated using pymatgen
data_KCS2N(O2F)2
_symmetry_space_group_name_H-M   'P 1'
_cell_length_a   10.76850100
_cell_length_b   11.14245000
_cell_length_c   11.52956700
_cell_angle_alpha   90.00000000
_cell_angle_beta   90.00000000
_cell_angle_gamma   90.00000000
_symmetry_Int_Tables_number   1
_chemical_formula_structural   KCS2N(O2F)2
_chemical_formula_sum   'K8 C8 S16 N8 O32 F16'
_cell_volume   1383.40373556
_cell_formula_units_Z   8
loop_
 _symmetry_equiv_pos_site_id
 _symmetry_equiv_pos_as_xyz
  1  'x, y, z'
loop_
 _atom_site_type_symbol
 _atom_site_label
 _atom_site_symmetry_multiplicity
 _atom_site_fract_x
 _atom_site_fract_y
 _atom_site_fract_z
 _atom_site_occupancy
  K  K0  1  0.76294500  0.95737900  0.28478900  1
  K  K1  1  0.26294500  0.04262100  0.71521100  1
  K  K2  1  0.26376000  0.01334500  0.28732600  1
  K  K3  1  0.26294500  0.45737900  0.21521100  1
  K  K4  1  0.26376000  0.48665500  0.78732600  1
  K  K5  1  0.76376000  0.51334500  0.21267400  1
  K  K6  1  0.76376000  0.98665500  0.71267400  1
  K  K7  1  0.76294500  0.54262100  0.78478900  1
  C  C0  1  0.53774600  0.28676600  0.48684700  1
  C  C1  1  0.94850000  0.19840600  0.00599600  1
  C  C2  1  0.44850000  0.80159400  0.99400400  1
  C  C3  1  0.03774600  0.71323400  0.51315300  1
  C  C4  1  0.94850000  0.30159400  0.50599600  1
  C  C5  1  0.03774600  0.78676600  0.01315300  1
  C  C6  1  0.53774600  0.21323400  0.98684700  1
  C  C7  1  0.44850000  0.69840600  0.49400400  1
  S  S0  1  0.50014300  0.71164100  0.33805500  1
  S  S1  1  0.56692500  0.29222200  0.64891400  1
  S  S2  1  0.00014300  0.28835900  0.66194500  1
  S  S3  1  0.06692500  0.70777800  0.35108600  1
  S  S4  1  0.12107700  0.18977700  0.97729300  1
  S  S5  1  0.52197300  0.11997500  0.51499000  1
  S  S6  1  0.06692500  0.79222200  0.85108600  1
  S  S7  1  0.02197300  0.88002500  0.48501000  1
  S  S8  1  0.62107700  0.68977700  0.52270700  1
  S  S9  1  0.00014300  0.21164100  0.16194500  1
  S  S10  1  0.12107700  0.31022300  0.47729300  1
  S  S11  1  0.62107700  0.81022300  0.02270700  1
  S  S12  1  0.52197300  0.38002500  0.01499000  1
  S  S13  1  0.02197300  0.61997500  0.98501000  1
  S  S14  1  0.56692500  0.20777800  0.14891400  1
  S  S15  1  0.50014300  0.78835900  0.83805500  1
  N  N0  1  0.14188100  0.22117900  0.11347500  1
  N  N1  1  0.64188100  0.77882100  0.88652500  1
  N  N2  1  0.14188100  0.27882100  0.61347500  1
  N  N3  1  0.64188100  0.72117900  0.38652500  1
  N  N4  1  0.03610200  0.64973300  0.84828800  1
  N  N5  1  0.53610200  0.14973300  0.65171200  1
  N  N6  1  0.03610200  0.85026700  0.34828800  1
  N  N7  1  0.53610200  0.35026700  0.15171200  1
  O  O0  1  0.45982900  0.82252800  0.28331900  1
  O  O1  1  0.39932400  0.07356900  0.48776100  1
  O  O2  1  0.62769300  0.05560600  0.46747300  1
  O  O3  1  0.15459700  0.06743000  0.94584200  1
  O  O4  1  0.69603700  0.31878300  0.67464700  1
  O  O5  1  0.65459700  0.56743000  0.55415800  1
  O  O6  1  0.47539200  0.89991500  0.77681000  1
  O  O7  1  0.97539200  0.39991500  0.72319000  1
  O  O8  1  0.66700800  0.78275700  0.59965500  1
  O  O9  1  0.39932400  0.42643100  0.98776100  1
  O  O10  1  0.95982900  0.17747200  0.71668100  1
  O  O11  1  0.89932400  0.92643100  0.51223900  1
  O  O12  1  0.16700800  0.21724300  0.40034500  1
  O  O13  1  0.16700800  0.28275700  0.90034500  1
  O  O14  1  0.19603700  0.68121700  0.32535300  1
  O  O15  1  0.89932400  0.57356900  0.01223900  1
  O  O16  1  0.65459700  0.93257000  0.05415800  1
  O  O17  1  0.97453400  0.86280900  0.78977300  1
  O  O18  1  0.95982900  0.32252800  0.21668100  1
  O  O19  1  0.12769300  0.94439400  0.53252700  1
  O  O20  1  0.12769300  0.55560600  0.03252700  1
  O  O21  1  0.97453400  0.63719100  0.28977300  1
  O  O22  1  0.45982900  0.67747200  0.78331900  1
  O  O23  1  0.69603700  0.18121700  0.17464700  1
  O  O24  1  0.47539200  0.60008500  0.27681000  1
  O  O25  1  0.66700800  0.71724300  0.09965500  1
  O  O26  1  0.97539200  0.10008500  0.22319000  1
  O  O27  1  0.19603700  0.81878300  0.82535300  1
  O  O28  1  0.62769300  0.44439400  0.96747300  1
  O  O29  1  0.47453400  0.36280900  0.71022700  1
  O  O30  1  0.15459700  0.43257000  0.44584200  1
  O  O31  1  0.47453400  0.13719100  0.21022700  1
  F  F0  1  0.43303100  0.34214300  0.45204300  1
  F  F1  1  0.93303100  0.65785700  0.54795700  1
  F  F2  1  0.93303100  0.84214300  0.04795700  1
  F  F3  1  0.13245600  0.68092600  0.58242100  1
  F  F4  1  0.39118700  0.79683900  0.53514100  1
  F  F5  1  0.88286000  0.09979100  0.97806900  1
  F  F6  1  0.63245600  0.31907400  0.41757900  1
  F  F7  1  0.39118700  0.70316100  0.03514100  1
  F  F8  1  0.88286000  0.40020900  0.47806900  1
  F  F9  1  0.38286000  0.90020900  0.02193100  1
  F  F10  1  0.89118700  0.29683900  0.96485900  1
  F  F11  1  0.63245600  0.18092600  0.91757900  1
  F  F12  1  0.43303100  0.15785700  0.95204300  1
  F  F13  1  0.89118700  0.20316100  0.46485900  1
  F  F14  1  0.38286000  0.59979100  0.52193100  1
  F  F15  1  0.13245600  0.81907400  0.08242100  1
loop_
_geom_bond_atom_site_label_1
_geom_bond_atom_site_label_2
_geom_bond_distance
_geom_bond_site_symmetry_2
K0 O2 2.784879 1_565
K0 O26 2.875158 1_565
K0 O23 2.890033 1_565
K0 O16 2.916915 1_555
K0 O11 3.025338 1_555
K0 N3 3.162603 1_555
K0 N6 3.257727 1_655
K1 O19 2.784879 1_545
K1 O6 2.875158 1_545
K1 O27 2.890033 1_545
K1 O3 2.916915 1_555
K1 O1 3.025338 1_555
K1 N2 3.162603 1_555
K1 N5 3.257727 1_555
K2 O31 2.801082 1_555
K2 O1 2.814564 1_555
K2 O12 2.818706 1_555
K2 O0 2.996766 1_545
K2 N6 3.131430 1_545
K2 O19 3.275585 1_545
K2 N0 3.332131 1_555
K2 O26 3.335228 1_455
K3 O20 2.784879 1_555
K3 O24 2.875158 1_555
K3 O14 2.890033 1_555
K3 O30 2.916915 1_555
K3 O9 3.025338 1_554
K3 N0 3.162603 1_555
K3 N7 3.257727 1_555
K4 O29 2.801082 1_555
K4 O9 2.814564 1_555
K4 O13 2.818706 1_555
K4 O22 2.996766 1_555
K4 N4 3.131430 1_555
K4 O20 3.275585 1_556
K4 N2 3.332131 1_555
K4 O7 3.335228 1_455
K5 O21 2.801082 1_555
K5 O15 2.814564 1_555
K5 O25 2.818706 1_555
K5 O18 2.996766 1_555
K5 N7 3.131430 1_555
K5 O28 3.275585 1_554
K5 N3 3.332131 1_555
K5 O24 3.335228 1_555
K6 O17 2.801082 1_555
K6 O11 2.814564 1_555
K6 O8 2.818706 1_555
K6 O10 2.996766 1_565
K6 N5 3.131430 1_565
K6 O2 3.275585 1_565
K6 N1 3.332131 1_555
K6 O6 3.335228 1_555
K7 O28 2.784879 1_555
K7 O7 2.875158 1_555
K7 O4 2.890033 1_555
K7 O5 2.916915 1_555
K7 O15 3.025338 1_556
K7 N1 3.162603 1_555
K7 N4 3.257727 1_655
C0 F6 1.344458 1_555
C0 F0 1.346584 1_555
C0 S5 1.894204 1_555
C1 F10 1.344914 1_554
C1 F5 1.345620 1_554
C1 S4 1.890078 1_654
C2 F7 1.344914 1_556
C2 F9 1.345620 1_556
C2 S11 1.890078 1_556
C3 F3 1.344458 1_555
C3 F1 1.346584 1_455
C3 S7 1.894204 1_555
C4 F13 1.344914 1_555
C4 F8 1.345620 1_555
C4 S10 1.890078 1_655
C5 F15 1.344458 1_555
C5 F2 1.346584 1_455
C5 S13 1.894204 1_554
C6 F11 1.344458 1_555
C6 F12 1.346584 1_555
C6 S12 1.894204 1_556
C7 F4 1.344914 1_555
C7 F14 1.345620 1_555
C7 S8 1.890078 1_555
N0 S4 1.624158 1_554
N0 S9 1.628866 1_555
N1 S11 1.624158 1_556
N1 S15 1.628866 1_555
N2 S10 1.624158 1_555
N2 S2 1.628866 1_555
N3 S8 1.624158 1_555
N3 S0 1.628866 1_555
N4 S13 1.618010 1_555
N4 S6 1.622321 1_555
N5 S5 1.618010 1_555
N5 S1 1.622321 1_555
N6 S7 1.618010 1_555
N6 S3 1.622321 1_555
N7 S12 1.618010 1_555
N7 S14 1.622321 1_555
O0 S0 1.453725 1_555
O1 S5 1.452686 1_555
O2 S5 1.452796 1_555
O3 S4 1.456098 1_555
O4 S1 1.452125 1_555
O5 S8 1.456098 1_555
O6 S15 1.454209 1_555
O7 S2 1.454209 1_655
O8 S8 1.450885 1_555
O9 S12 1.452686 1_556
O10 S2 1.453725 1_655
O11 S7 1.452686 1_655
O12 S10 1.450885 1_555
O13 S4 1.450885 1_555
O14 S3 1.452125 1_555
O15 S13 1.452686 1_654
O16 S11 1.456098 1_555
O17 S6 1.451956 1_655
O18 S9 1.453725 1_655
O19 S7 1.452796 1_555
O20 S13 1.452796 1_554
O21 S3 1.451956 1_655
O22 S15 1.453725 1_555
O23 S14 1.452125 1_555
O24 S0 1.454209 1_555
O25 S11 1.450885 1_555
O26 S9 1.454209 1_655
O27 S6 1.452125 1_555
O28 S12 1.452796 1_556
O29 S1 1.451956 1_555
O30 S10 1.456098 1_555
O31 S14 1.451956 1_555
