# generated using pymatgen
data_Cr4(PO4)3
_symmetry_space_group_name_H-M   'P 1'
_cell_length_a   6.21497900
_cell_length_b   10.29561900
_cell_length_c   15.09141800
_cell_angle_alpha   90.00000000
_cell_angle_beta   90.00000000
_cell_angle_gamma   90.00000000
_symmetry_Int_Tables_number   1
_chemical_formula_structural   Cr4(PO4)3
_chemical_formula_sum   'Cr16 P12 O48'
_cell_volume   965.65540683
_cell_formula_units_Z   4
loop_
 _symmetry_equiv_pos_site_id
 _symmetry_equiv_pos_as_xyz
  1  'x, y, z'
loop_
 _atom_site_type_symbol
 _atom_site_label
 _atom_site_symmetry_multiplicity
 _atom_site_fract_x
 _atom_site_fract_y
 _atom_site_fract_z
 _atom_site_occupancy
  Cr  Cr0  1  0.91218300  0.14667400  0.12916800  1
  Cr  Cr1  1  0.41218300  0.35332600  0.12916800  1
  Cr  Cr2  1  0.13993200  0.43915600  0.88971000  1
  Cr  Cr3  1  0.91218300  0.14667400  0.37083200  1
  Cr  Cr4  1  0.63993200  0.06084400  0.88971000  1
  Cr  Cr5  1  0.58781700  0.64667400  0.87083200  1
  Cr  Cr6  1  0.41218300  0.35332600  0.37083200  1
  Cr  Cr7  1  0.08781700  0.85332600  0.62916800  1
  Cr  Cr8  1  0.58781700  0.64667400  0.62916800  1
  Cr  Cr9  1  0.36006800  0.93915600  0.11029000  1
  Cr  Cr10  1  0.36006800  0.93915600  0.38971000  1
  Cr  Cr11  1  0.86006800  0.56084400  0.11029000  1
  Cr  Cr12  1  0.08781700  0.85332600  0.87083200  1
  Cr  Cr13  1  0.13993200  0.43915600  0.61029000  1
  Cr  Cr14  1  0.86006800  0.56084400  0.38971000  1
  Cr  Cr15  1  0.63993200  0.06084400  0.61029000  1
  P  P0  1  0.49862600  0.09777800  0.25000000  1
  P  P1  1  0.13698300  0.13785000  0.57197100  1
  P  P2  1  0.99862600  0.40222200  0.25000000  1
  P  P3  1  0.36301700  0.63785000  0.42802900  1
  P  P4  1  0.63698300  0.36215000  0.92802900  1
  P  P5  1  0.86301700  0.86215000  0.42802900  1
  P  P6  1  0.63698300  0.36215000  0.57197100  1
  P  P7  1  0.86301700  0.86215000  0.07197100  1
  P  P8  1  0.36301700  0.63785000  0.07197100  1
  P  P9  1  0.50137400  0.90222200  0.75000000  1
  P  P10  1  0.00137400  0.59777800  0.75000000  1
  P  P11  1  0.13698300  0.13785000  0.92802900  1
  O  O0  1  0.03284800  0.95888700  0.11527700  1
  O  O1  1  0.24846400  0.38298900  0.25000000  1
  O  O2  1  0.09653700  0.65286400  0.66235400  1
  O  O3  1  0.18538200  0.25248500  0.86759200  1
  O  O4  1  0.18538200  0.25248500  0.63240800  1
  O  O5  1  0.09653700  0.65286400  0.83764600  1
  O  O6  1  0.59653700  0.84713600  0.66235400  1
  O  O7  1  0.25153600  0.88298900  0.75000000  1
  O  O8  1  0.53284800  0.54111300  0.11527700  1
  O  O9  1  0.05718100  0.19071100  0.01711300  1
  O  O10  1  0.46715200  0.45888700  0.88472300  1
  O  O11  1  0.59653700  0.84713600  0.83764600  1
  O  O12  1  0.68538200  0.24751500  0.86759200  1
  O  O13  1  0.90346300  0.34713600  0.33764600  1
  O  O14  1  0.83775000  0.45354900  0.56045200  1
  O  O15  1  0.46715200  0.45888700  0.61527700  1
  O  O16  1  0.66225000  0.95354900  0.43954800  1
  O  O17  1  0.94281900  0.80928900  0.51711300  1
  O  O18  1  0.33775000  0.04645100  0.93954800  1
  O  O19  1  0.66225000  0.95354900  0.06045200  1
  O  O20  1  0.75153600  0.61701100  0.75000000  1
  O  O21  1  0.96715200  0.04111300  0.61527700  1
  O  O22  1  0.56865200  0.04791500  0.75000000  1
  O  O23  1  0.55718100  0.30928900  0.01711300  1
  O  O24  1  0.90346300  0.34713600  0.16235400  1
  O  O25  1  0.53284800  0.54111300  0.38472300  1
  O  O26  1  0.40346300  0.15286400  0.33764600  1
  O  O27  1  0.81461800  0.74751500  0.13240800  1
  O  O28  1  0.06865200  0.45208500  0.75000000  1
  O  O29  1  0.55718100  0.30928900  0.48288700  1
  O  O30  1  0.44281900  0.69071100  0.51711300  1
  O  O31  1  0.43134800  0.95208500  0.25000000  1
  O  O32  1  0.31461800  0.75248500  0.13240800  1
  O  O33  1  0.44281900  0.69071100  0.98288700  1
  O  O34  1  0.40346300  0.15286400  0.16235400  1
  O  O35  1  0.81461800  0.74751500  0.36759200  1
  O  O36  1  0.94281900  0.80928900  0.98288700  1
  O  O37  1  0.83775000  0.45354900  0.93954800  1
  O  O38  1  0.05718100  0.19071100  0.48288700  1
  O  O39  1  0.33775000  0.04645100  0.56045200  1
  O  O40  1  0.03284800  0.95888700  0.38472300  1
  O  O41  1  0.96715200  0.04111300  0.88472300  1
  O  O42  1  0.68538200  0.24751500  0.63240800  1
  O  O43  1  0.74846400  0.11701100  0.25000000  1
  O  O44  1  0.16225000  0.54645100  0.43954800  1
  O  O45  1  0.31461800  0.75248500  0.36759200  1
  O  O46  1  0.16225000  0.54645100  0.06045200  1
  O  O47  1  0.93134800  0.54791500  0.25000000  1
loop_
_geom_bond_atom_site_label_1
_geom_bond_atom_site_label_2
_geom_bond_distance
_geom_bond_site_symmetry_2
Cr0 O9 1.969102 1_655
Cr0 O0 2.084302 1_645
Cr0 O43 2.110413 1_555
Cr0 O24 2.124468 1_555
Cr1 O23 1.969102 1_555
Cr1 O8 2.084302 1_555
Cr1 O1 2.110413 1_555
Cr1 O34 2.124468 1_555
Cr2 O3 1.971010 1_555
Cr2 O37 2.028483 1_455
Cr2 O10 2.045171 1_555
Cr2 O28 2.158568 1_555
Cr2 O5 2.351855 1_555
Cr3 O38 1.969102 1_655
Cr3 O40 2.084302 1_645
Cr3 O43 2.110413 1_555
Cr3 O13 2.124468 1_555
Cr4 O12 1.971010 1_555
Cr4 O18 2.028483 1_555
Cr4 O41 2.045171 1_555
Cr4 O22 2.158568 1_555
Cr4 O11 2.351855 1_545
Cr5 O33 1.969102 1_555
Cr5 O10 2.084302 1_555
Cr5 O20 2.110413 1_555
Cr5 O11 2.124468 1_555
Cr6 O29 1.969102 1_555
Cr6 O25 2.084302 1_555
Cr6 O1 2.110413 1_555
Cr6 O26 2.124468 1_555
Cr7 O17 1.969102 1_455
Cr7 O21 2.084302 1_465
Cr7 O7 2.110413 1_555
Cr7 O2 2.124468 1_555
Cr8 O30 1.969102 1_555
Cr8 O15 2.084302 1_555
Cr8 O20 2.110413 1_555
Cr8 O6 2.124468 1_555
Cr9 O32 1.971010 1_555
Cr9 O19 2.028483 1_555
Cr9 O0 2.045171 1_555
Cr9 O31 2.158568 1_555
Cr9 O34 2.351855 1_565
Cr10 O45 1.971010 1_555
Cr10 O16 2.028483 1_555
Cr10 O40 2.045171 1_555
Cr10 O31 2.158568 1_555
Cr10 O26 2.351855 1_565
Cr11 O27 1.971010 1_555
Cr11 O46 2.028483 1_655
Cr11 O8 2.045171 1_555
Cr11 O47 2.158568 1_555
Cr11 O24 2.351855 1_555
Cr12 O36 1.969102 1_455
Cr12 O41 2.084302 1_465
Cr12 O7 2.110413 1_555
Cr12 O5 2.124468 1_555
Cr13 O4 1.971010 1_555
Cr13 O14 2.028483 1_455
Cr13 O15 2.045171 1_555
Cr13 O28 2.158568 1_555
Cr13 O2 2.351855 1_555
Cr14 O35 1.971010 1_555
Cr14 O44 2.028483 1_655
Cr14 O25 2.045171 1_555
Cr14 O47 2.158568 1_555
Cr14 O13 2.351855 1_555
Cr15 O42 1.971010 1_555
Cr15 O39 2.028483 1_555
Cr15 O21 2.045171 1_555
Cr15 O22 2.158568 1_555
Cr15 O6 2.351855 1_545
O0 P7 1.591587 1_455
O1 P2 1.565313 1_455
O2 P10 1.555953 1_555
O3 P11 1.521622 1_555
O4 P1 1.521622 1_555
O5 P10 1.555953 1_555
O6 P9 1.555953 1_555
O7 P9 1.565313 1_555
O8 P8 1.591587 1_555
O9 P11 1.532840 1_554
O10 P4 1.591587 1_555
O11 P9 1.555953 1_555
O12 P4 1.521622 1_555
O13 P2 1.555953 1_555
O14 P6 1.572460 1_555
O15 P6 1.591587 1_555
O16 P5 1.572460 1_555
O17 P5 1.532840 1_555
O18 P11 1.572460 1_555
O19 P7 1.572460 1_555
O20 P10 1.565313 1_655
O21 P1 1.591587 1_655
O22 P9 1.557187 1_545
O23 P4 1.532840 1_554
O24 P2 1.555953 1_555
O25 P3 1.591587 1_555
O26 P0 1.555953 1_555
O27 P7 1.521622 1_555
O28 P10 1.557187 1_555
O29 P6 1.532840 1_555
O30 P3 1.532840 1_555
O31 P0 1.557187 1_565
O32 P8 1.521622 1_555
O33 P8 1.532840 1_556
O34 P0 1.555953 1_555
O35 P5 1.521622 1_555
O36 P7 1.532840 1_556
O37 P4 1.572460 1_555
O38 P1 1.532840 1_555
O39 P1 1.572460 1_555
O40 P5 1.591587 1_455
O41 P11 1.591587 1_655
O42 P6 1.521622 1_555
O43 P0 1.565313 1_555
O44 P3 1.572460 1_555
O45 P3 1.521622 1_555
O46 P8 1.572460 1_555
O47 P2 1.557187 1_555
