# generated using pymatgen
data_Ca28Ga11
_symmetry_space_group_name_H-M   'P 1'
_cell_length_a   5.29747493
_cell_length_b   7.40947223
_cell_length_c   30.89884559
_cell_angle_alpha   96.88626014
_cell_angle_beta   94.91757972
_cell_angle_gamma   90.00000595
_symmetry_Int_Tables_number   1
_chemical_formula_structural   Ca28Ga11
_chemical_formula_sum   'Ca28 Ga11'
_cell_volume   1199.57973378
_cell_formula_units_Z   1
loop_
 _symmetry_equiv_pos_site_id
 _symmetry_equiv_pos_as_xyz
  1  'x, y, z'
loop_
 _atom_site_type_symbol
 _atom_site_label
 _atom_site_symmetry_multiplicity
 _atom_site_fract_x
 _atom_site_fract_y
 _atom_site_fract_z
 _atom_site_occupancy
  Ca  Ca0  1  0.81779833  0.92023578  0.63559667  1
  Ca  Ca1  1  0.55987844  0.23345991  0.11975789  1
  Ca  Ca2  1  0.72407312  0.25401907  0.44814325  1
  Ca  Ca3  1  0.63713168  0.17112374  0.27426436  1
  Ca  Ca4  1  0.32394482  0.24164013  0.64788864  1
  Ca  Ca5  1  0.85302353  0.56645726  0.70604705  1
  Ca  Ca6  1  0.54351276  0.67044221  0.08702453  1
  Ca  Ca7  1  -0.00000000  0.55473165  0.00000000  1
  Ca  Ca8  1  0.61743333  0.59427306  0.23486666  1
  Ca  Ca9  1  0.91711118  0.53146008  0.83422435  1
  Ca  Ca10  1  0.26215456  0.25750411  0.52430813  1
  Ca  Ca11  1  0.27592688  0.80587483  0.55185675  1
  Ca  Ca12  1  0.90341956  0.98976015  0.80683711  1
  Ca  Ca13  1  0.36286832  0.89686138  0.72573564  1
  Ca  Ca14  1  0.45648724  0.58341868  0.91297547  1
  Ca  Ca15  1  0.67605518  0.59375149  0.35211136  1
  Ca  Ca16  1  0.44012156  0.11370202  0.88024211  1
  Ca  Ca17  1  0.14697647  0.86041221  0.29395395  1
  Ca  Ca18  1  0.09658044  0.18292304  0.19316289  1
  Ca  Ca19  1  0.79401593  0.46790965  0.58803086  1
  Ca  Ca20  1  0.38256667  0.35940740  0.76513334  1
  Ca  Ca21  1  0.50000000  0.24032997  -0.00000000  1
  Ca  Ca22  1  0.73784544  0.73319598  0.47569187  1
  Ca  Ca23  1  0.97019612  0.93081839  0.94039325  1
  Ca  Ca24  1  0.08288882  0.69723473  0.16577565  1
  Ca  Ca25  1  0.20598407  0.87987879  0.41196914  1
  Ca  Ca26  1  0.18220167  0.28463711  0.36440333  1
  Ca  Ca27  1  0.02980388  0.99042614  0.05960675  1
  Ga  Ga0  1  0.68014827  0.00504505  0.36029653  1
  Ga  Ga1  1  0.13928658  0.44781121  0.27857217  1
  Ga  Ga2  1  0.77296328  0.06395068  0.54592756  1
  Ga  Ga3  1  0.95656856  0.31424152  0.91313611  1
  Ga  Ga4  1  0.31985173  0.64474951  0.63970347  1
  Ga  Ga5  1  0.86071342  0.16923805  0.72142783  1
  Ga  Ga6  1  0.04343144  0.40110540  0.08686389  1
  Ga  Ga7  1  0.59092098  0.93135734  0.18184196  1
  Ga  Ga8  1  0.40907902  0.74951438  0.81815804  1
  Ga  Ga9  1  0.22703672  0.51802312  0.45407244  1
  Ga  Ga10  1  0.50000000  0.83307181  -0.00000000  1
loop_
_geom_bond_atom_site_label_1
_geom_bond_atom_site_label_2
_geom_bond_distance
_geom_bond_site_symmetry_2
Ca0 Ga5 3.035204 1_565
Ca0 Ga2 3.075973 1_565
Ca0 Ga4 3.355657 1_555
Ca0 Ga4 3.355658 1_655
Ca1 Ga7 3.113383 1_545
Ca1 Ga6 3.144357 1_655
Ca1 Ga6 3.144358 1_555
Ca2 Ga0 3.084806 1_555
Ca2 Ga9 3.284754 1_655
Ca2 Ga9 3.284763 1_555
Ca2 Ga2 3.473557 1_555
Ca3 Ga0 3.051768 1_555
Ca3 Ga7 3.167788 1_545
Ca3 Ga1 3.342286 1_555
Ca3 Ga1 3.342294 1_655
Ca4 Ga4 3.027504 1_555
Ca4 Ga5 3.566677 1_555
Ca4 Ga5 3.566684 1_455
Ca5 Ga5 3.036767 1_555
Ca5 Ga4 3.436403 1_655
Ca5 Ga4 3.436404 1_555
Ca6 Ga10 3.066981 1_555
Ca6 Ga7 3.301453 1_555
Ca6 Ga6 3.316026 1_655
Ca6 Ga6 3.316034 1_555
Ca7 Ga6 3.029721 1_555
Ca7 Ga3 3.029721 1_454
Ca7 Ga10 3.356950 1_555
Ca7 Ga10 3.356950 1_455
Ca8 Ga7 3.143883 1_555
Ca8 Ga1 3.217950 1_555
Ca8 Ga1 3.217955 1_655
Ca9 Ga3 3.071318 1_555
Ca9 Ga8 3.172244 1_555
Ca9 Ga8 3.172252 1_655
Ca10 Ga9 3.066889 1_555
Ca10 Ga2 3.121731 1_555
Ca10 Ga2 3.121740 1_455
Ca11 Ga4 3.084799 1_555
Ca11 Ga2 3.284759 1_465
Ca11 Ga2 3.284767 1_565
Ca11 Ga9 3.473553 1_555
Ca12 Ga5 3.086006 1_565
Ca12 Ga8 3.233466 1_655
Ca12 Ga8 3.233474 1_555
Ca13 Ga4 3.051772 1_555
Ca13 Ga8 3.167798 1_555
Ca13 Ga5 3.342272 1_565
Ca13 Ga5 3.342281 1_465
Ca14 Ga10 3.066978 1_556
Ca14 Ga8 3.301446 1_555
Ca14 Ga3 3.316030 1_455
Ca14 Ga3 3.316038 1_555
Ca15 Ga0 3.027496 1_565
Ca15 Ga1 3.566675 1_555
Ca15 Ga1 3.566682 1_655
Ca16 Ga8 3.113389 1_545
Ca16 Ga3 3.144357 1_455
Ca16 Ga3 3.144357 1_555
Ca17 Ga1 3.036775 1_555
Ca17 Ga0 3.436379 1_465
Ca17 Ga0 3.436383 1_565
Ca18 Ga1 3.086010 1_555
Ca18 Ga7 3.233461 1_445
Ca18 Ga7 3.233470 1_545
Ca19 Ga2 3.115294 1_555
Ca19 Ga4 3.280467 1_655
Ca19 Ga4 3.280471 1_555
Ca20 Ga8 3.143870 1_555
Ca20 Ga5 3.217956 1_555
Ca20 Ga5 3.217961 1_455
Ca21 Ga10 3.017568 1_545
Ca22 Ga2 3.066889 1_565
Ca22 Ga9 3.121731 1_555
Ca22 Ga9 3.121740 1_655
Ca23 Ga3 3.057605 1_565
Ca23 Ga10 3.350735 1_556
Ca23 Ga10 3.350740 1_656
Ca24 Ga6 3.071313 1_555
Ca24 Ga7 3.172251 1_555
Ca24 Ga7 3.172260 1_455
Ca25 Ga9 3.115294 1_555
Ca25 Ga0 3.280465 1_465
Ca25 Ga0 3.280469 1_565
Ca26 Ga1 3.035215 1_555
Ca26 Ga9 3.075980 1_555
Ca26 Ga0 3.355653 1_455
Ca26 Ga0 3.355653 1_555
Ca27 Ga6 3.057598 1_565
Ca27 Ga10 3.350738 1_555
Ca27 Ga10 3.350742 1_455
