# generated using pymatgen
data_CoBi2SO7
_symmetry_space_group_name_H-M   'P 1'
_cell_length_a   5.44299000
_cell_length_b   7.29229600
_cell_length_c   16.03261900
_cell_angle_alpha   90.00000000
_cell_angle_beta   90.00000000
_cell_angle_gamma   90.00000000
_symmetry_Int_Tables_number   1
_chemical_formula_structural   CoBi2SO7
_chemical_formula_sum   'Co4 Bi8 S4 O28'
_cell_volume   636.36501718
_cell_formula_units_Z   4
loop_
 _symmetry_equiv_pos_site_id
 _symmetry_equiv_pos_as_xyz
  1  'x, y, z'
loop_
 _atom_site_type_symbol
 _atom_site_label
 _atom_site_symmetry_multiplicity
 _atom_site_fract_x
 _atom_site_fract_y
 _atom_site_fract_z
 _atom_site_occupancy
  Co  Co0  1  0.25000000  0.94607600  0.67329400  1
  Co  Co1  1  0.25000000  0.05392400  0.17329400  1
  Co  Co2  1  0.75000000  0.05392400  0.32670600  1
  Co  Co3  1  0.75000000  0.94607600  0.82670600  1
  Bi  Bi0  1  0.75000000  0.83168700  0.51875900  1
  Bi  Bi1  1  0.75000000  0.22555100  0.65905200  1
  Bi  Bi2  1  0.25000000  0.22555100  0.84094800  1
  Bi  Bi3  1  0.75000000  0.77444900  0.15905200  1
  Bi  Bi4  1  0.75000000  0.16831300  0.01875900  1
  Bi  Bi5  1  0.25000000  0.77444900  0.34094800  1
  Bi  Bi6  1  0.25000000  0.83168700  0.98124100  1
  Bi  Bi7  1  0.25000000  0.16831300  0.48124100  1
  S  S0  1  0.25000000  0.59367700  0.60994900  1
  S  S1  1  0.75000000  0.40632300  0.39005100  1
  S  S2  1  0.25000000  0.40632300  0.10994900  1
  S  S3  1  0.75000000  0.59367700  0.89005100  1
  O  O0  1  0.03012100  0.31142300  0.14710800  1
  O  O1  1  0.03012100  0.68857700  0.64710800  1
  O  O2  1  0.75000000  0.60472800  0.36713500  1
  O  O3  1  0.50000000  0.92100500  0.25000000  1
  O  O4  1  0.46987900  0.68857700  0.64710800  1
  O  O5  1  0.53012100  0.68857700  0.85289200  1
  O  O6  1  0.99594500  0.04517700  0.58173100  1
  O  O7  1  0.00405500  0.95482300  0.41826900  1
  O  O8  1  0.50405500  0.04517700  0.58173100  1
  O  O9  1  0.50000000  0.07899500  0.75000000  1
  O  O10  1  0.49594500  0.95482300  0.41826900  1
  O  O11  1  0.96987900  0.68857700  0.85289200  1
  O  O12  1  0.00000000  0.07899500  0.75000000  1
  O  O13  1  0.25000000  0.61585900  0.51760700  1
  O  O14  1  0.50405500  0.95482300  0.08173100  1
  O  O15  1  0.53012100  0.31142300  0.35289200  1
  O  O16  1  0.75000000  0.38414100  0.48239300  1
  O  O17  1  0.96987900  0.31142300  0.35289200  1
  O  O18  1  0.25000000  0.60472800  0.13286500  1
  O  O19  1  0.75000000  0.61585900  0.98239300  1
  O  O20  1  0.75000000  0.39527200  0.86713500  1
  O  O21  1  0.00000000  0.92100500  0.25000000  1
  O  O22  1  0.46987900  0.31142300  0.14710800  1
  O  O23  1  0.25000000  0.38414100  0.01760700  1
  O  O24  1  0.99594500  0.95482300  0.08173100  1
  O  O25  1  0.49594500  0.04517700  0.91826900  1
  O  O26  1  0.00405500  0.04517700  0.91826900  1
  O  O27  1  0.25000000  0.39527200  0.63286500  1
loop_
_geom_bond_atom_site_label_1
_geom_bond_atom_site_label_2
_geom_bond_distance
_geom_bond_site_symmetry_2
Co0 O12 2.074500 1_565
Co0 O9 2.074500 1_565
Co0 O6 2.142301 1_465
Co0 O8 2.142301 1_565
Co0 O4 2.265958 1_555
Co0 O1 2.265958 1_555
Co1 O3 2.074500 1_545
Co1 O21 2.074500 1_545
Co1 O24 2.142301 1_445
Co1 O14 2.142301 1_545
Co1 O22 2.265958 1_555
Co1 O0 2.265958 1_555
Co2 O3 2.074500 1_545
Co2 O21 2.074500 1_645
Co2 O7 2.142301 1_645
Co2 O10 2.142301 1_545
Co2 O17 2.265958 1_555
Co2 O15 2.265958 1_555
Co3 O9 2.074500 1_565
Co3 O12 2.074500 1_665
Co3 O26 2.142301 1_665
Co3 O25 2.142301 1_565
Co3 O11 2.265958 1_555
Co3 O5 2.265958 1_555
Bi0 O6 2.288031 1_565
Bi0 O8 2.288031 1_565
Bi0 O7 2.305253 1_655
Bi0 O10 2.305253 1_555
Bi1 O6 2.249206 1_555
Bi1 O8 2.249206 1_555
Bi1 O12 2.262736 1_655
Bi1 O9 2.262736 1_555
Bi2 O26 2.249206 1_555
Bi2 O25 2.249206 1_555
Bi2 O9 2.262736 1_555
Bi2 O12 2.262736 1_555
Bi3 O14 2.249206 1_555
Bi3 O24 2.249206 1_555
Bi3 O21 2.262736 1_655
Bi3 O3 2.262736 1_555
Bi4 O14 2.288031 1_545
Bi4 O24 2.288031 1_545
Bi4 O26 2.305253 1_654
Bi4 O25 2.305253 1_554
Bi5 O7 2.249206 1_555
Bi5 O10 2.249206 1_555
Bi5 O21 2.262736 1_555
Bi5 O3 2.262736 1_555
Bi6 O25 2.288031 1_565
Bi6 O26 2.288031 1_565
Bi6 O14 2.305253 1_556
Bi6 O24 2.305253 1_456
Bi7 O7 2.288031 1_545
Bi7 O10 2.288031 1_545
Bi7 O6 2.305253 1_455
Bi7 O8 2.305253 1_555
O0 S2 1.505381 1_555
O1 S0 1.505381 1_555
O2 S1 1.492748 1_555
O4 S0 1.505381 1_555
O5 S3 1.505381 1_555
O11 S3 1.505381 1_555
O13 S0 1.489295 1_555
O15 S1 1.505381 1_555
O16 S1 1.489295 1_555
O17 S1 1.505381 1_555
O18 S2 1.492748 1_555
O19 S3 1.489295 1_555
O20 S3 1.492748 1_555
O22 S2 1.505381 1_555
O23 S2 1.489295 1_555
O27 S0 1.492748 1_555
