# generated using pymatgen
data_Nb6Co16Si7
_symmetry_space_group_name_H-M   'P 1'
_cell_length_a   7.85533447
_cell_length_b   7.85532831
_cell_length_c   7.85531668
_cell_angle_alpha   59.99989813
_cell_angle_beta   59.99991832
_cell_angle_gamma   59.99998201
_symmetry_Int_Tables_number   1
_chemical_formula_structural   Nb6Co16Si7
_chemical_formula_sum   'Nb6 Co16 Si7'
_cell_volume   342.74968228
_cell_formula_units_Z   1
loop_
 _symmetry_equiv_pos_site_id
 _symmetry_equiv_pos_as_xyz
  1  'x, y, z'
loop_
 _atom_site_type_symbol
 _atom_site_label
 _atom_site_symmetry_multiplicity
 _atom_site_fract_x
 _atom_site_fract_y
 _atom_site_fract_z
 _atom_site_occupancy
  Nb  Nb0  1  0.20402606  0.79597820  0.20401954  1
  Nb  Nb1  1  0.20403014  0.79597103  0.79597688  1
  Nb  Nb2  1  0.79597535  0.20402787  0.20402803  1
  Nb  Nb3  1  0.79597460  0.79597151  0.20402740  1
  Nb  Nb4  1  0.20402868  0.20402043  0.79597929  1
  Nb  Nb5  1  0.79597019  0.20402861  0.79597261  1
  Co  Co0  1  0.16722811  0.16723658  0.16722376  1
  Co  Co1  1  0.50168485  0.83277039  0.83277008  1
  Co  Co2  1  0.83275788  0.50168625  0.83277609  1
  Co  Co3  1  0.83275667  0.83277551  0.50168889  1
  Co  Co4  1  0.16722689  0.49831004  0.16722215  1
  Co  Co5  1  0.16722301  0.16723155  0.49830781  1
  Co  Co6  1  0.49831320  0.16723151  0.16721822  1
  Co  Co7  1  0.83276078  0.83277914  0.83277884  1
  Co  Co8  1  0.38129967  0.38128599  0.38128459  1
  Co  Co9  1  0.14387991  0.61870540  0.61871656  1
  Co  Co10  1  0.61870953  0.14387820  0.61871578  1
  Co  Co11  1  0.61871399  0.61870941  0.14387545  1
  Co  Co12  1  0.38130131  0.85612863  0.38128479  1
  Co  Co13  1  0.38130007  0.38128530  0.85613047  1
  Co  Co14  1  0.85612604  0.38129265  0.38129094  1
  Co  Co15  1  0.61870761  0.61870137  0.61871242  1
  Si  Si0  1  0.49999919  0.50000037  0.49999877  1
  Si  Si1  1  0.99999747  0.50000261  0.99999731  1
  Si  Si2  1  0.50000410  0.99999586  0.99999895  1
  Si  Si3  1  0.00000101  0.49999958  0.50000096  1
  Si  Si4  1  0.50000170  0.99999964  0.49999905  1
  Si  Si5  1  0.00000037  0.99999755  0.50000175  1
  Si  Si6  1  0.50000363  0.49999983  0.99999961  1
loop_
_geom_bond_atom_site_label_1
_geom_bond_atom_site_label_2
_geom_bond_distance
_geom_bond_site_symmetry_2
Nb0 Si2 2.823833 1_554
Nb0 Si6 2.823847 1_554
Nb0 Si5 2.823862 1_555
Nb0 Si3 2.823873 1_555
Nb1 Si6 2.823827 1_555
Nb1 Si4 2.823847 1_555
Nb1 Si1 2.823852 1_455
Nb1 Si5 2.823873 1_555
Nb2 Si1 2.823825 1_554
Nb2 Si5 2.823834 1_645
Nb2 Si6 2.823843 1_554
Nb2 Si4 2.823850 1_545
Nb3 Si1 2.823839 1_554
Nb3 Si2 2.823840 1_554
Nb3 Si4 2.823841 1_555
Nb3 Si3 2.823842 1_655
Nb4 Si2 2.823824 1_545
Nb4 Si1 2.823851 1_455
Nb4 Si4 2.823855 1_545
Nb4 Si3 2.823881 1_555
Nb5 Si6 2.823829 1_555
Nb5 Si2 2.823833 1_545
Nb5 Si3 2.823847 1_655
Nb5 Si5 2.823848 1_645
Co0 Si1 2.267637 1_454
Co0 Si2 2.267703 1_544
Co0 Si5 2.267710 1_545
Co0 Co13 2.497187 1_554
Co0 Co14 2.497222 1_455
Co0 Co12 2.497280 1_545
Co0 Co4 2.600680 1_555
Co0 Co5 2.600730 1_555
Co0 Co6 2.600742 1_555
Co0 Nb4 2.658831 1_554
Co0 Nb2 2.658869 1_455
Co0 Nb0 2.658915 1_545
Co1 Si6 2.267645 1_555
Co1 Si4 2.267649 1_555
Co1 Si2 2.267666 1_555
Co1 Co15 2.497241 1_555
Co1 Co10 2.497273 1_565
Co1 Co11 2.497273 1_556
Co1 Co3 2.600711 1_555
Co1 Co2 2.600731 1_555
Co1 Co7 2.600781 1_555
Co1 Nb1 2.658835 1_555
Co1 Nb0 2.658850 1_556
Co1 Nb4 2.658850 1_565
Co2 Si6 2.267548 1_555
Co2 Si3 2.267686 1_655
Co2 Si1 2.267698 1_555
Co2 Co9 2.497344 1_655
Co2 Co3 2.600801 1_555
Co2 Co7 2.600866 1_555
Co2 Nb5 2.658850 1_555
Co2 Nb2 2.658859 1_556
Co2 Nb4 2.658979 1_655
Co3 Si4 2.267563 1_555
Co3 Si3 2.267699 1_655
Co3 Si5 2.267717 1_655
Co3 Co9 2.497388 1_655
Co3 Co7 2.600847 1_555
Co3 Nb3 2.658852 1_555
Co3 Nb2 2.658871 1_565
Co3 Nb0 2.658979 1_655
Co4 Si1 2.267613 1_454
Co4 Si6 2.267709 1_554
Co4 Si3 2.267718 1_555
Co4 Co8 2.497294 1_555
Co4 Co5 2.600752 1_555
Co4 Co6 2.600761 1_555
Co4 Nb1 2.658836 1_554
Co4 Nb3 2.658878 1_455
Co4 Nb0 2.658957 1_555
Co5 Si5 2.267624 1_545
Co5 Si3 2.267657 1_555
Co5 Si4 2.267727 1_545
Co5 Co8 2.497270 1_555
Co5 Co6 2.600816 1_555
Co5 Nb5 2.658887 1_455
Co5 Nb1 2.658934 1_545
Co5 Nb4 2.658970 1_555
Co6 Si2 2.267625 1_544
Co6 Si6 2.267651 1_554
Co6 Si4 2.267728 1_545
Co6 Co8 2.497225 1_555
Co6 Nb5 2.658827 1_554
Co6 Nb3 2.658913 1_545
Co6 Nb2 2.658957 1_555
Co7 Si2 2.267550 1_555
Co7 Si1 2.267680 1_555
Co7 Si5 2.267685 1_655
Co7 Co9 2.497315 1_655
Co7 Nb3 2.658834 1_556
Co7 Nb5 2.658837 1_565
Co7 Nb1 2.658954 1_655
Co8 Si0 2.284152 1_555
Co8 Si6 2.448158 1_554
Co8 Si4 2.448172 1_545
Co8 Si3 2.448252 1_555
Co8 Co9 2.637587 1_555
Co8 Nb2 2.712169 1_555
Co8 Nb0 2.712287 1_555
Co8 Nb4 2.712293 1_555
Co9 Si0 2.284096 1_555
Co9 Si1 2.448136 1_455
Co9 Si5 2.448212 1_555
Co9 Si3 2.448266 1_555
Co9 Nb1 2.712186 1_555
Co9 Nb4 2.712245 1_555
Co9 Nb0 2.712325 1_555
Co10 Si0 2.284112 1_555
Co10 Si2 2.448151 1_545
Co10 Si5 2.448206 1_645
Co10 Si4 2.448283 1_545
Co10 Co7 2.497178 1_545
Co10 Co3 2.497251 1_545
Co10 Co13 2.637422 1_555
Co10 Co14 2.637473 1_555
Co10 Co8 2.637529 1_555
Co10 Nb5 2.712131 1_555
Co10 Nb4 2.712229 1_555
Co10 Nb2 2.712258 1_555
Co11 Si0 2.284115 1_555
Co11 Si1 2.448159 1_554
Co11 Si2 2.448175 1_554
Co11 Si6 2.448236 1_554
Co11 Co7 2.497178 1_554
Co11 Co2 2.497210 1_554
Co11 Co14 2.637454 1_555
Co11 Co12 2.637460 1_555
Co11 Co8 2.637511 1_555
Co11 Nb3 2.712175 1_555
Co11 Nb2 2.712218 1_555
Co11 Nb0 2.712275 1_555
Co12 Si0 2.284151 1_555
Co12 Si2 2.448163 1_554
Co12 Si4 2.448171 1_555
Co12 Si5 2.448266 1_555
Co12 Co6 2.497188 1_565
Co12 Co5 2.497236 1_565
Co12 Co15 2.637490 1_555
Co12 Co9 2.637549 1_555
Co12 Nb3 2.712158 1_555
Co12 Nb1 2.712277 1_555
Co12 Nb0 2.712286 1_555
Co13 Si0 2.284168 1_555
Co13 Si6 2.448180 1_555
Co13 Si2 2.448191 1_545
Co13 Si1 2.448276 1_455
Co13 Co6 2.497094 1_556
Co13 Co4 2.497167 1_556
Co13 Co15 2.637432 1_555
Co13 Co9 2.637491 1_555
Co13 Nb5 2.712137 1_555
Co13 Nb1 2.712245 1_555
Co13 Nb4 2.712262 1_555
Co14 Si0 2.284144 1_555
Co14 Si3 2.448212 1_655
Co14 Si1 2.448213 1_554
Co14 Si5 2.448229 1_645
Co14 Co5 2.497174 1_655
Co14 Co4 2.497199 1_655
Co14 Co15 2.637469 1_555
Co14 Nb3 2.712200 1_555
Co14 Nb2 2.712200 1_555
Co14 Nb5 2.712208 1_555
Co15 Si0 2.284120 1_555
Co15 Si6 2.448176 1_555
Co15 Si3 2.448223 1_655
Co15 Si4 2.448250 1_555
Co15 Co2 2.497177 1_555
Co15 Co3 2.497218 1_555
Co15 Nb5 2.712161 1_555
Co15 Nb1 2.712204 1_555
Co15 Nb3 2.712241 1_555
