# generated using pymatgen
data_Tm5Sb3
_symmetry_space_group_name_H-M   'P 1'
_cell_length_a   8.02406297
_cell_length_b   9.11934906
_cell_length_c   11.68201937
_cell_angle_alpha   90.00000000
_cell_angle_beta   90.00000000
_cell_angle_gamma   90.00000000
_symmetry_Int_Tables_number   1
_chemical_formula_structural   Tm5Sb3
_chemical_formula_sum   'Tm20 Sb12'
_cell_volume   854.82278513
_cell_formula_units_Z   4
loop_
 _symmetry_equiv_pos_site_id
 _symmetry_equiv_pos_as_xyz
  1  'x, y, z'
loop_
 _atom_site_type_symbol
 _atom_site_label
 _atom_site_symmetry_multiplicity
 _atom_site_fract_x
 _atom_site_fract_y
 _atom_site_fract_z
 _atom_site_occupancy
  Tm  Tm0  1  0.80890409  0.93990235  0.93358904  1
  Tm  Tm1  1  0.30890409  0.06009765  0.56641096  1
  Tm  Tm2  1  0.19109591  0.43990235  0.06641096  1
  Tm  Tm3  1  0.69109591  0.56009765  0.43358904  1
  Tm  Tm4  1  0.19109591  0.06009765  0.06641096  1
  Tm  Tm5  1  0.69109591  0.93990235  0.43358904  1
  Tm  Tm6  1  0.80890409  0.56009765  0.93358904  1
  Tm  Tm7  1  0.30890409  0.43990235  0.56641096  1
  Tm  Tm8  1  0.52430347  0.25000000  0.00527687  1
  Tm  Tm9  1  0.02430347  0.75000000  0.49472313  1
  Tm  Tm10  1  0.47569653  0.75000000  0.99472313  1
  Tm  Tm11  1  0.97569653  0.25000000  0.50527687  1
  Tm  Tm12  1  0.17211891  0.75000000  0.77286350  1
  Tm  Tm13  1  0.67211891  0.25000000  0.72713650  1
  Tm  Tm14  1  0.82788109  0.25000000  0.22713650  1
  Tm  Tm15  1  0.32788109  0.75000000  0.27286350  1
  Tm  Tm16  1  0.65567159  0.75000000  0.70891228  1
  Tm  Tm17  1  0.15567159  0.25000000  0.79108772  1
  Tm  Tm18  1  0.34432841  0.25000000  0.29108772  1
  Tm  Tm19  1  0.84432841  0.75000000  0.20891228  1
  Sb  Sb0  1  0.93666903  0.99067226  0.67446757  1
  Sb  Sb1  1  0.43666903  0.00932774  0.82553243  1
  Sb  Sb2  1  0.06333097  0.49067226  0.32553243  1
  Sb  Sb3  1  0.56333097  0.50932774  0.17446757  1
  Sb  Sb4  1  0.06333097  0.00932774  0.32553243  1
  Sb  Sb5  1  0.56333097  0.99067226  0.17446757  1
  Sb  Sb6  1  0.93666903  0.50932774  0.67446757  1
  Sb  Sb7  1  0.43666903  0.49067226  0.82553243  1
  Sb  Sb8  1  0.90357299  0.25000000  0.97573167  1
  Sb  Sb9  1  0.40357299  0.75000000  0.52426833  1
  Sb  Sb10  1  0.09642701  0.75000000  0.02426733  1
  Sb  Sb11  1  0.59642701  0.25000000  0.47573167  1
loop_
_geom_bond_atom_site_label_1
_geom_bond_atom_site_label_2
_geom_bond_distance
_geom_bond_site_symmetry_2
Sb0 Tm11 3.097956 1_565
Sb0 Tm12 3.115706 1_655
Sb0 Tm9 3.117783 1_655
Sb0 Tm16 3.172192 1_555
Sb0 Tm0 3.229317 1_555
Sb0 Tm13 3.236891 1_565
Sb0 Tm17 3.246050 1_665
Sb0 Tm1 3.303859 1_665
Sb0 Tm5 3.466339 1_555
Sb1 Tm10 3.097956 1_545
Sb1 Tm13 3.115706 1_555
Sb1 Tm8 3.117783 1_556
Sb1 Tm17 3.172192 1_555
Sb1 Tm1 3.229317 1_555
Sb1 Tm12 3.236891 1_545
Sb1 Tm16 3.246050 1_545
Sb1 Tm0 3.303859 1_545
Sb1 Tm4 3.466339 1_556
Sb2 Tm9 3.097956 1_555
Sb2 Tm14 3.115706 1_455
Sb2 Tm11 3.117783 1_455
Sb2 Tm18 3.172192 1_555
Sb2 Tm2 3.229317 1_555
Sb2 Tm15 3.236891 1_555
Sb2 Tm19 3.246050 1_455
Sb2 Tm3 3.303859 1_455
Sb2 Tm7 3.466339 1_555
Sb3 Tm8 3.097956 1_555
Sb3 Tm15 3.115706 1_555
Sb3 Tm10 3.117783 1_554
Sb3 Tm19 3.172192 1_555
Sb3 Tm3 3.229317 1_555
Sb3 Tm14 3.236891 1_555
Sb3 Tm18 3.246050 1_555
Sb3 Tm2 3.303859 1_555
Sb3 Tm6 3.466339 1_554
Sb4 Tm9 3.097956 1_545
Sb4 Tm14 3.115706 1_455
Sb4 Tm11 3.117783 1_455
Sb4 Tm18 3.172192 1_555
Sb4 Tm4 3.229317 1_555
Sb4 Tm15 3.236891 1_545
Sb4 Tm19 3.246050 1_445
Sb4 Tm5 3.303859 1_445
Sb4 Tm1 3.466339 1_555
Sb5 Tm8 3.097956 1_565
Sb5 Tm15 3.115706 1_555
Sb5 Tm10 3.117783 1_554
Sb5 Tm19 3.172192 1_555
Sb5 Tm5 3.229317 1_555
Sb5 Tm14 3.236891 1_565
Sb5 Tm18 3.246050 1_565
Sb5 Tm4 3.303859 1_565
Sb5 Tm0 3.466339 1_554
Sb6 Tm11 3.097956 1_555
Sb6 Tm12 3.115706 1_655
Sb6 Tm9 3.117783 1_655
Sb6 Tm16 3.172192 1_555
Sb6 Tm6 3.229317 1_555
Sb6 Tm13 3.236891 1_555
Sb6 Tm17 3.246050 1_655
Sb6 Tm7 3.303859 1_655
Sb6 Tm3 3.466339 1_555
Sb7 Tm10 3.097956 1_555
Sb7 Tm13 3.115706 1_555
Sb7 Tm8 3.117783 1_556
Sb7 Tm17 3.172192 1_555
Sb7 Tm7 3.229317 1_555
Sb7 Tm12 3.236891 1_555
Sb7 Tm16 3.246050 1_555
Sb7 Tm6 3.303859 1_555
Sb7 Tm2 3.466339 1_556
Sb8 Tm17 2.957136 1_655
Sb8 Tm6 2.969236 1_555
Sb8 Tm0 2.969236 1_545
Sb8 Tm14 2.999060 1_556
Sb8 Tm8 3.062792 1_556
Sb8 Tm4 3.073102 1_656
Sb8 Tm2 3.073102 1_656
Sb8 Tm13 3.447167 1_555
Sb9 Tm16 2.957136 1_555
Sb9 Tm1 2.969236 1_565
Sb9 Tm7 2.969236 1_555
Sb9 Tm15 2.999060 1_555
Sb9 Tm9 3.062792 1_555
Sb9 Tm5 3.073102 1_555
Sb9 Tm3 3.073102 1_555
Sb9 Tm12 3.447167 1_555
Sb10 Tm19 2.957144 1_455
Sb10 Tm4 2.969238 1_565
Sb10 Tm2 2.969238 1_555
Sb10 Tm12 2.999048 1_554
Sb10 Tm10 3.062791 1_554
Sb10 Tm0 3.073098 1_454
Sb10 Tm6 3.073098 1_454
Sb10 Tm15 3.447177 1_555
Sb11 Tm18 2.957136 1_555
Sb11 Tm5 2.969236 1_545
Sb11 Tm3 2.969236 1_555
Sb11 Tm13 2.999060 1_555
Sb11 Tm11 3.062792 1_555
Sb11 Tm7 3.073102 1_555
Sb11 Tm1 3.073102 1_555
Sb11 Tm14 3.447167 1_555
