# generated using pymatgen
data_YbGa5
_symmetry_space_group_name_H-M   'P 1'
_cell_length_a   13.40896066
_cell_length_b   13.40896066
_cell_length_c   13.40896066
_cell_angle_alpha   161.45682520
_cell_angle_beta   161.45682520
_cell_angle_gamma   26.34107474
_symmetry_Int_Tables_number   1
_chemical_formula_structural   YbGa5
_chemical_formula_sum   'Yb2 Ga10'
_cell_volume   243.74609782
_cell_formula_units_Z   2
loop_
 _symmetry_equiv_pos_site_id
 _symmetry_equiv_pos_as_xyz
  1  'x, y, z'
loop_
 _atom_site_type_symbol
 _atom_site_label
 _atom_site_symmetry_multiplicity
 _atom_site_fract_x
 _atom_site_fract_y
 _atom_site_fract_z
 _atom_site_occupancy
  Yb  Yb0  1  0.14995300  0.14995300  0.00000000  1
  Yb  Yb1  1  0.85004700  0.85004700  0.00000000  1
  Ga  Ga0  1  0.39912800  0.39912800  0.00000000  1
  Ga  Ga1  1  0.95243300  0.45243300  0.50000000  1
  Ga  Ga2  1  0.04756700  0.54756700  0.50000000  1
  Ga  Ga3  1  0.45243300  0.95243300  0.50000000  1
  Ga  Ga4  1  0.60087200  0.60087200  0.00000000  1
  Ga  Ga5  1  0.30534700  0.30534700  0.00000000  1
  Ga  Ga6  1  0.69465300  0.69465300  0.00000000  1
  Ga  Ga7  1  0.75000000  0.25000000  0.50000000  1
  Ga  Ga8  1  0.54756700  0.04756700  0.50000000  1
  Ga  Ga9  1  0.25000000  0.75000000  0.50000000  1
loop_
_geom_bond_atom_site_label_1
_geom_bond_atom_site_label_2
_geom_bond_distance
_geom_bond_site_symmetry_2
Ga0 Ga5 2.448857 1_555
Ga0 Ga1 2.569959 1_555
Ga0 Ga3 2.569959 1_555
Ga0 Ga3 2.569959 1_544
Ga0 Ga1 2.569959 1_454
Ga0 Yb1 3.313160 1_444
Ga0 Yb1 3.313160 1_556
Ga0 Yb1 3.313160 1_455
Ga0 Yb1 3.313160 1_545
Ga1 Ga2 2.484187 1_655
Ga1 Ga3 3.055234 1_656
Ga1 Ga3 3.055234 1_544
Ga1 Ga3 3.055234 1_555
Ga1 Ga3 3.055234 1_645
Ga1 Yb1 3.437314 1_556
Ga1 Yb1 3.437314 1_545
Ga2 Ga4 2.569959 1_455
Ga2 Ga4 2.569959 1_556
Ga2 Ga8 3.055234 1_465
Ga2 Ga8 3.055234 1_566
Ga2 Ga8 3.055234 1_454
Ga2 Ga8 3.055234 1_555
Ga2 Yb0 3.437314 1_555
Ga2 Yb0 3.437314 1_566
Ga3 Ga8 2.484187 1_565
Ga3 Yb1 3.437314 1_455
Ga3 Yb1 3.437314 1_556
Ga4 Ga6 2.448857 1_555
Ga4 Ga8 2.569959 1_554
Ga4 Ga8 2.569959 1_565
Ga4 Yb0 3.313160 1_554
Ga4 Yb0 3.313160 1_655
Ga4 Yb0 3.313160 1_565
Ga4 Yb0 3.313160 1_666
Ga5 Ga9 2.599226 1_555
Ga5 Ga9 2.599226 1_544
Ga5 Ga7 2.599226 1_454
Ga5 Ga7 2.599226 1_555
Ga5 Yb1 3.270609 1_545
Ga5 Yb1 3.270609 1_556
Ga5 Yb1 3.270609 1_444
Ga5 Yb1 3.270609 1_455
Ga6 Ga9 2.599226 1_655
Ga6 Ga9 2.599226 1_554
Ga6 Ga7 2.599226 1_565
Ga6 Ga7 2.599226 1_554
Ga6 Yb0 3.270609 1_655
Ga6 Yb0 3.270609 1_666
Ga6 Yb0 3.270609 1_565
Ga6 Yb0 3.270609 1_554
Ga7 Ga9 3.055234 1_645
Ga7 Ga9 3.055234 1_656
Ga7 Ga9 3.055234 1_544
Ga7 Ga9 3.055234 1_555
Ga7 Yb0 3.390025 1_555
Ga7 Yb1 3.390025 1_545
Ga7 Yb1 3.390025 1_556
Ga7 Yb0 3.390025 1_656
Ga8 Yb0 3.437314 1_555
Ga8 Yb0 3.437314 1_656
Ga9 Yb1 3.390025 1_455
Ga9 Yb0 3.390025 1_555
Ga9 Yb0 3.390025 1_566
Ga9 Yb1 3.390025 1_556
