# generated using pymatgen
data_La3CuS3O2
_symmetry_space_group_name_H-M   'P 1'
_cell_length_a   3.94255200
_cell_length_b   12.57416000
_cell_length_c   14.07889100
_cell_angle_alpha   90.00000000
_cell_angle_beta   90.00000000
_cell_angle_gamma   90.00000000
_symmetry_Int_Tables_number   1
_chemical_formula_structural   La3CuS3O2
_chemical_formula_sum   'La12 Cu4 S12 O8'
_cell_volume   697.95087968
_cell_formula_units_Z   4
loop_
 _symmetry_equiv_pos_site_id
 _symmetry_equiv_pos_as_xyz
  1  'x, y, z'
loop_
 _atom_site_type_symbol
 _atom_site_label
 _atom_site_symmetry_multiplicity
 _atom_site_fract_x
 _atom_site_fract_y
 _atom_site_fract_z
 _atom_site_occupancy
  La  La0  1  0.75000000  0.90428000  0.36816900  1
  La  La1  1  0.25000000  0.38770500  0.70811600  1
  La  La2  1  0.75000000  0.61229500  0.29188400  1
  La  La3  1  0.75000000  0.90036100  0.07750200  1
  La  La4  1  0.25000000  0.09963900  0.92249800  1
  La  La5  1  0.25000000  0.40036100  0.42249800  1
  La  La6  1  0.25000000  0.09572000  0.63183100  1
  La  La7  1  0.75000000  0.59963900  0.57750200  1
  La  La8  1  0.75000000  0.59572000  0.86816900  1
  La  La9  1  0.25000000  0.11229500  0.20811600  1
  La  La10  1  0.75000000  0.88770500  0.79188400  1
  La  La11  1  0.25000000  0.40428000  0.13183100  1
  Cu  Cu0  1  0.75000000  0.17170400  0.41448500  1
  Cu  Cu1  1  0.25000000  0.67170400  0.08551500  1
  Cu  Cu2  1  0.25000000  0.82829600  0.58551500  1
  Cu  Cu3  1  0.75000000  0.32829600  0.91448500  1
  S  S0  1  0.25000000  0.78811500  0.21837200  1
  S  S1  1  0.75000000  0.56772400  0.08701200  1
  S  S2  1  0.25000000  0.71188500  0.71837200  1
  S  S3  1  0.25000000  0.43227600  0.91298800  1
  S  S4  1  0.75000000  0.93227600  0.58701200  1
  S  S5  1  0.75000000  0.23598700  0.05578000  1
  S  S6  1  0.25000000  0.73598700  0.44422000  1
  S  S7  1  0.75000000  0.26401300  0.55578000  1
  S  S8  1  0.75000000  0.21188500  0.78162800  1
  S  S9  1  0.25000000  0.06772400  0.41298800  1
  S  S10  1  0.75000000  0.28811500  0.28162800  1
  S  S11  1  0.25000000  0.76401300  0.94422000  1
  O  O0  1  0.25000000  0.49328100  0.57346500  1
  O  O1  1  0.75000000  0.50671900  0.42653500  1
  O  O2  1  0.75000000  0.49347500  0.72902800  1
  O  O3  1  0.25000000  0.00671900  0.07346500  1
  O  O4  1  0.25000000  0.50652500  0.27097200  1
  O  O5  1  0.75000000  0.99328100  0.92653500  1
  O  O6  1  0.75000000  0.00652500  0.22902800  1
  O  O7  1  0.25000000  0.99347500  0.77097200  1
loop_
_geom_bond_atom_site_label_1
_geom_bond_atom_site_label_2
_geom_bond_distance
_geom_bond_site_symmetry_2
La0 O6 2.343154 1_565
La0 S9 2.916817 1_565
La0 S9 2.916817 1_665
La0 S6 3.083897 1_555
La0 S6 3.083897 1_655
La0 S4 3.101112 1_555
La0 S0 3.235318 1_555
La0 S0 3.235318 1_655
La1 O0 2.314336 1_555
La1 O2 2.396128 1_555
La1 O2 2.396128 1_455
La1 S3 2.938314 1_555
La1 S8 3.137622 1_455
La1 S8 3.137622 1_555
La1 S7 3.302240 1_555
La1 S7 3.302240 1_455
La2 O1 2.314336 1_555
La2 O4 2.396128 1_655
La2 O4 2.396128 1_555
La2 S1 2.938314 1_555
La2 S0 3.137622 1_655
La2 S0 3.137622 1_555
La2 S6 3.302240 1_555
La2 S6 3.302240 1_655
La3 O3 2.382792 1_665
La3 O3 2.382792 1_565
La3 O5 2.425421 1_554
La3 O6 2.516558 1_565
La3 S0 3.132320 1_655
La3 S0 3.132320 1_555
La3 S11 3.216585 1_654
La3 S11 3.216585 1_554
La4 O5 2.382792 1_445
La4 O5 2.382792 1_545
La4 O3 2.425421 1_556
La4 O7 2.516558 1_545
La4 S8 3.132320 1_455
La4 S8 3.132320 1_555
La4 S5 3.216585 1_456
La4 S5 3.216585 1_556
La5 O1 2.382792 1_455
La5 O1 2.382792 1_555
La5 O0 2.425421 1_555
La5 O4 2.516558 1_555
La5 S10 3.132320 1_455
La5 S10 3.132320 1_555
La5 S7 3.216585 1_455
La5 S7 3.216585 1_555
La6 O7 2.343154 1_545
La6 S4 2.916817 1_545
La6 S4 2.916817 1_445
La6 S7 3.083897 1_455
La6 S7 3.083897 1_555
La6 S9 3.101112 1_555
La6 S8 3.235318 1_455
La6 S8 3.235318 1_555
La7 O0 2.382792 1_655
La7 O0 2.382792 1_555
La7 O1 2.425421 1_555
La7 O2 2.516558 1_555
La7 S2 3.132320 1_655
La7 S2 3.132320 1_555
La7 S6 3.216585 1_655
La7 S6 3.216585 1_555
La8 O2 2.343154 1_555
La8 S3 2.916817 1_655
La8 S3 2.916817 1_555
La8 S11 3.083897 1_555
La8 S11 3.083897 1_655
La8 S1 3.101112 1_556
La8 S2 3.235318 1_655
La8 S2 3.235318 1_555
La9 O3 2.314336 1_555
La9 O6 2.396128 1_455
La9 O6 2.396128 1_555
La9 S9 2.938314 1_555
La9 S10 3.137622 1_455
La9 S10 3.137622 1_555
La9 S5 3.302240 1_455
La9 S5 3.302240 1_555
La10 O5 2.314336 1_555
La10 O7 2.396128 1_655
La10 O7 2.396128 1_555
La10 S4 2.938314 1_555
La10 S2 3.137622 1_655
La10 S2 3.137622 1_555
La10 S11 3.302240 1_555
La10 S11 3.302240 1_655
La11 O4 2.343154 1_555
La11 S1 2.916817 1_555
La11 S1 2.916817 1_455
La11 S5 3.083897 1_455
La11 S5 3.083897 1_555
La11 S3 3.101112 1_554
La11 S10 3.235318 1_455
La11 S10 3.235318 1_555
Cu0 S7 2.303143 1_555
Cu0 S9 2.365550 1_555
Cu0 S9 2.365550 1_655
Cu0 S10 2.375146 1_555
Cu1 S11 2.303143 1_554
Cu1 S1 2.365550 1_455
Cu1 S1 2.365550 1_555
Cu1 S0 2.375146 1_555
Cu2 S6 2.303143 1_555
Cu2 S4 2.365550 1_455
Cu2 S4 2.365550 1_555
Cu2 S2 2.375146 1_555
Cu3 S5 2.303143 1_556
Cu3 S3 2.365550 1_655
Cu3 S3 2.365550 1_555
Cu3 S8 2.375146 1_555
