# generated using pymatgen
data_Ag6GeSO8
_symmetry_space_group_name_H-M   'P 1'
_cell_length_a   10.54734440
_cell_length_b   10.54734440
_cell_length_c   10.54734440
_cell_angle_alpha   140.52736858
_cell_angle_beta   140.52736858
_cell_angle_gamma   57.05343337
_symmetry_Int_Tables_number   1
_chemical_formula_structural   Ag6GeSO8
_chemical_formula_sum   'Ag12 Ge2 S2 O16'
_cell_volume   470.23960792
_cell_formula_units_Z   2
loop_
 _symmetry_equiv_pos_site_id
 _symmetry_equiv_pos_as_xyz
  1  'x, y, z'
loop_
 _atom_site_type_symbol
 _atom_site_label
 _atom_site_symmetry_multiplicity
 _atom_site_fract_x
 _atom_site_fract_y
 _atom_site_fract_z
 _atom_site_occupancy
  Ag  Ag0  1  0.37500000  0.41796100  0.54296100  1
  Ag  Ag1  1  0.48609000  0.98609000  0.50000000  1
  Ag  Ag2  1  0.87500000  0.83203900  0.45703900  1
  Ag  Ag3  1  0.26391000  0.26391000  0.00000000  1
  Ag  Ag4  1  0.58203900  0.12500000  0.95703900  1
  Ag  Ag5  1  0.87500000  0.41796100  0.04296100  1
  Ag  Ag6  1  0.16796100  0.62500000  0.04296100  1
  Ag  Ag7  1  0.58203900  0.62500000  0.45703900  1
  Ag  Ag8  1  0.16796100  0.12500000  0.54296100  1
  Ag  Ag9  1  0.37500000  0.83203900  0.95703900  1
  Ag  Ag10  1  0.01391000  0.51391000  0.50000000  1
  Ag  Ag11  1  0.73609000  0.73609000  0.00000000  1
  Ge  Ge0  1  0.25000000  0.75000000  0.50000000  1
  Ge  Ge1  1  0.50000000  0.50000000  0.00000000  1
  S  S0  1  0.75000000  0.25000000  0.50000000  1
  S  S1  1  0.00000000  0.00000000  0.00000000  1
  O  O0  1  0.95345400  0.78143600  0.82798100  1
  O  O1  1  0.65225500  0.44539800  0.20685700  1
  O  O2  1  0.87452700  0.04654600  0.82798100  1
  O  O3  1  0.55460200  0.76145900  0.20685700  1
  O  O4  1  0.87547300  0.20345400  0.67201900  1
  O  O5  1  0.19539800  0.48854100  0.29314300  1
  O  O6  1  0.19539800  0.90225500  0.70685700  1
  O  O7  1  0.51145900  0.80460200  0.70685700  1
  O  O8  1  0.21856400  0.04654600  0.17201900  1
  O  O9  1  0.23854100  0.44539800  0.79314300  1
  O  O10  1  0.53143600  0.20345400  0.32798100  1
  O  O11  1  0.55460200  0.34774500  0.79314300  1
  O  O12  1  0.79654600  0.46856400  0.67201900  1
  O  O13  1  0.95345400  0.12547300  0.17201900  1
  O  O14  1  0.09774500  0.80460200  0.29314300  1
  O  O15  1  0.79654600  0.12452700  0.32798100  1
loop_
_geom_bond_atom_site_label_1
_geom_bond_atom_site_label_2
_geom_bond_distance
_geom_bond_site_symmetry_2
Ag0 O11 2.207681 1_555
Ag0 O5 2.207681 1_555
Ag0 O8 2.603463 1_555
Ag0 O10 2.603469 1_555
Ag1 O11 2.443961 1_565
Ag1 O3 2.443961 1_555
Ag1 O8 2.591158 1_565
Ag1 O2 2.591159 1_565
Ag2 O3 2.207681 1_555
Ag2 O6 2.207681 1_655
Ag2 O2 2.603460 1_565
Ag2 O4 2.603460 1_565
Ag3 O5 2.443961 1_555
Ag3 O6 2.443961 1_544
Ag3 O10 2.591158 1_555
Ag3 O4 2.591159 1_454
Ag4 O7 2.207681 1_545
Ag4 O1 2.207681 1_556
Ag4 O15 2.603460 1_556
Ag4 O13 2.603460 1_556
Ag5 O5 2.207681 1_655
Ag5 O11 2.207681 1_554
Ag5 O4 2.603460 1_554
Ag5 O2 2.603460 1_554
Ag6 O9 2.207681 1_554
Ag6 O14 2.207681 1_555
Ag6 O12 2.603463 1_454
Ag6 O0 2.603469 1_454
Ag7 O7 2.207681 1_555
Ag7 O1 2.207681 1_555
Ag7 O0 2.603463 1_555
Ag7 O12 2.603469 1_555
Ag8 O14 2.207681 1_545
Ag8 O9 2.207681 1_555
Ag8 O13 2.603460 1_455
Ag8 O15 2.603460 1_455
Ag9 O3 2.207681 1_556
Ag9 O6 2.207681 1_555
Ag9 O10 2.603463 1_566
Ag9 O8 2.603469 1_566
Ag10 O1 2.443961 1_455
Ag10 O9 2.443961 1_555
Ag10 O0 2.591158 1_455
Ag10 O13 2.591159 1_455
Ag11 O14 2.443961 1_655
Ag11 O7 2.443961 1_554
Ag11 O12 2.591158 1_554
Ag11 O15 2.591159 1_565
Ge0 O6 1.787578 1_555
Ge0 O5 1.787578 1_555
Ge0 O14 1.787578 1_555
Ge0 O7 1.787578 1_555
Ge1 O1 1.787578 1_555
Ge1 O9 1.787578 1_554
Ge1 O11 1.787578 1_554
Ge1 O3 1.787578 1_555
O0 S1 1.498574 1_666
O2 S1 1.498582 1_656
O4 S0 1.498582 1_555
O8 S1 1.498574 1_555
O10 S0 1.498574 1_555
O12 S0 1.498574 1_555
O13 S1 1.498582 1_655
O15 S0 1.498582 1_555
