# generated using pymatgen
data_NaCaAlF6
_symmetry_space_group_name_H-M   'P 1'
_cell_length_a   5.16649501
_cell_length_b   8.59935544
_cell_length_c   20.26370726
_cell_angle_alpha   91.92023986
_cell_angle_beta   90.00000000
_cell_angle_gamma   90.00000000
_symmetry_Int_Tables_number   1
_chemical_formula_structural   NaCaAlF6
_chemical_formula_sum   'Na8 Ca8 Al8 F48'
_cell_volume   899.78110087
_cell_formula_units_Z   8
loop_
 _symmetry_equiv_pos_site_id
 _symmetry_equiv_pos_as_xyz
  1  'x, y, z'
loop_
 _atom_site_type_symbol
 _atom_site_label
 _atom_site_symmetry_multiplicity
 _atom_site_fract_x
 _atom_site_fract_y
 _atom_site_fract_z
 _atom_site_occupancy
  Na  Na0  1  0.75901338  0.02586862  0.31825809  1
  Na  Na1  1  0.25901338  0.97413138  0.18174191  1
  Na  Na2  1  0.24098662  0.97413138  0.68174191  1
  Na  Na3  1  0.20506880  0.95579865  0.93703156  1
  Na  Na4  1  0.29493120  0.95579865  0.43703156  1
  Na  Na5  1  0.74098662  0.02586862  0.81825809  1
  Na  Na6  1  0.70506880  0.04420135  0.56296844  1
  Na  Na7  1  0.79493120  0.04420135  0.06296844  1
  Ca  Ca0  1  0.75987778  0.35989667  0.68938093  1
  Ca  Ca1  1  0.81516123  0.36344836  0.93632018  1
  Ca  Ca2  1  0.18483877  0.63655164  0.06367982  1
  Ca  Ca3  1  0.24012222  0.64010333  0.31061907  1
  Ca  Ca4  1  0.74012222  0.35989667  0.18938093  1
  Ca  Ca5  1  0.31516123  0.63655164  0.56367982  1
  Ca  Ca6  1  0.25987778  0.64010333  0.81061907  1
  Ca  Ca7  1  0.68483877  0.36344836  0.43632018  1
  Al  Al0  1  0.75214425  0.74615251  0.18007862  1
  Al  Al1  1  0.25214425  0.25384749  0.31992138  1
  Al  Al2  1  0.18825335  0.25380066  0.57276952  1
  Al  Al3  1  0.68825335  0.74619934  0.92723048  1
  Al  Al4  1  0.81174665  0.74619934  0.42723048  1
  Al  Al5  1  0.74785575  0.74615251  0.68007862  1
  Al  Al6  1  0.31174665  0.25380066  0.07276952  1
  Al  Al7  1  0.24785575  0.25384749  0.81992138  1
  F  F0  1  0.52237016  0.23837057  0.87291438  1
  F  F1  1  0.45613378  0.74833828  0.72812719  1
  F  F2  1  0.90716379  0.60794826  0.73451669  1
  F  F3  1  0.59884146  0.26544653  0.02183186  1
  F  F4  1  0.72052136  0.92259794  0.46786682  1
  F  F5  1  0.86407315  0.90811374  0.72646233  1
  F  F6  1  0.13567953  0.37539410  0.01690297  1
  F  F7  1  0.13592685  0.09188626  0.27353767  1
  F  F8  1  0.50801578  0.15546743  0.13279638  1
  F  F9  1  0.05607575  0.14993776  0.88099351  1
  F  F10  1  0.09884146  0.73455347  0.47816814  1
  F  F11  1  0.97762984  0.23837057  0.37291438  1
  F  F12  1  0.90115854  0.26544653  0.52183186  1
  F  F13  1  0.04386622  0.74833828  0.22812719  1
  F  F14  1  0.63592685  0.90811374  0.22646233  1
  F  F15  1  0.10169228  0.43343859  0.61646251  1
  F  F16  1  0.53354605  0.76984170  0.37405964  1
  F  F17  1  0.46645395  0.23015830  0.62594036  1
  F  F18  1  0.02237016  0.76162943  0.62708562  1
  F  F19  1  0.63567953  0.62460590  0.48309703  1
  F  F20  1  0.99198422  0.15546743  0.63279638  1
  F  F21  1  0.40115854  0.73455347  0.97816814  1
  F  F22  1  0.87238560  0.57120828  0.13566309  1
  F  F23  1  0.36432047  0.37539410  0.51690297  1
  F  F24  1  0.86432047  0.62460590  0.98309703  1
  F  F25  1  0.55607575  0.85006324  0.61900649  1
  F  F26  1  0.47762984  0.76162943  0.12708562  1
  F  F27  1  0.03354605  0.23015830  0.12594036  1
  F  F28  1  0.62761440  0.57120828  0.63566309  1
  F  F29  1  0.89830772  0.56656141  0.38353749  1
  F  F30  1  0.12761440  0.42879172  0.86433691  1
  F  F31  1  0.60169228  0.56656141  0.88353749  1
  F  F32  1  0.40716379  0.39205174  0.76548331  1
  F  F33  1  0.22052136  0.07740206  0.03213318  1
  F  F34  1  0.95613378  0.25166172  0.77187281  1
  F  F35  1  0.54386622  0.25166172  0.27187281  1
  F  F36  1  0.37238560  0.42879172  0.36433691  1
  F  F37  1  0.94392425  0.85006324  0.11900649  1
  F  F38  1  0.36407315  0.09188626  0.77353767  1
  F  F39  1  0.27947864  0.07740206  0.53213318  1
  F  F40  1  0.39830772  0.43343859  0.11646251  1
  F  F41  1  0.59283621  0.60794826  0.23451669  1
  F  F42  1  0.96645395  0.76984170  0.87405964  1
  F  F43  1  0.77947864  0.92259794  0.96786682  1
  F  F44  1  0.49198422  0.84453257  0.86720362  1
  F  F45  1  0.09283621  0.39205174  0.26548331  1
  F  F46  1  0.44392425  0.14993776  0.38099351  1
  F  F47  1  0.00801578  0.84453257  0.36720362  1
loop_
_geom_bond_atom_site_label_1
_geom_bond_atom_site_label_2
_geom_bond_distance
_geom_bond_site_symmetry_2
Ca0 F34 2.189266 1_555
Ca0 F28 2.255305 1_555
Ca0 F17 2.258181 1_555
Ca0 F20 2.389159 1_555
Ca0 F32 2.397241 1_555
Ca0 F15 2.400950 1_655
Ca0 F2 2.415549 1_555
Ca1 F0 2.236818 1_555
Ca1 F3 2.249377 1_556
Ca1 F30 2.259259 1_655
Ca1 F6 2.325486 1_656
Ca1 F31 2.352934 1_555
Ca1 F24 2.421542 1_555
Ca1 F9 2.457498 1_655
Ca2 F26 2.236818 1_555
Ca2 F21 2.249377 1_554
Ca2 F22 2.259259 1_455
Ca2 F24 2.325486 1_454
Ca2 F40 2.352934 1_555
Ca2 F6 2.421542 1_555
Ca2 F37 2.457505 1_455
Ca3 F13 2.189266 1_555
Ca3 F36 2.255305 1_555
Ca3 F16 2.258181 1_555
Ca3 F47 2.389159 1_555
Ca3 F41 2.397241 1_555
Ca3 F29 2.400950 1_455
Ca3 F45 2.415549 1_555
Ca4 F35 2.189266 1_555
Ca4 F22 2.255305 1_555
Ca4 F27 2.258181 1_655
Ca4 F8 2.389159 1_555
Ca4 F45 2.397241 1_655
Ca4 F40 2.400950 1_555
Ca4 F41 2.415549 1_555
Ca5 F18 2.236818 1_555
Ca5 F10 2.249377 1_555
Ca5 F28 2.259259 1_555
Ca5 F19 2.325486 1_555
Ca5 F15 2.352934 1_555
Ca5 F23 2.421542 1_555
Ca5 F25 2.457505 1_555
Ca6 F1 2.189266 1_555
Ca6 F30 2.255305 1_555
Ca6 F42 2.258181 1_455
Ca6 F44 2.389159 1_555
Ca6 F2 2.397241 1_455
Ca6 F31 2.400950 1_555
Ca6 F32 2.415549 1_555
Ca7 F11 2.236818 1_555
Ca7 F12 2.249377 1_555
Ca7 F36 2.259259 1_555
Ca7 F23 2.325486 1_555
Ca7 F29 2.352934 1_555
Ca7 F19 2.421542 1_555
Ca7 F46 2.457498 1_555
Al0 F14 1.759547 1_555
Al0 F26 1.786595 1_555
Al0 F13 1.794073 1_655
Al0 F22 1.835338 1_555
Al0 F37 1.840064 1_555
Al0 F41 1.842449 1_555
Al1 F7 1.759547 1_555
Al1 F11 1.786595 1_455
Al1 F35 1.794073 1_555
Al1 F36 1.835338 1_555
Al1 F46 1.840060 1_555
Al1 F45 1.842449 1_555
Al2 F39 1.765649 1_555
Al2 F15 1.810680 1_555
Al2 F23 1.811544 1_555
Al2 F12 1.811758 1_455
Al2 F17 1.811845 1_555
Al2 F20 1.814322 1_455
Al3 F43 1.765649 1_555
Al3 F31 1.810680 1_555
Al3 F24 1.811544 1_555
Al3 F21 1.811758 1_555
Al3 F42 1.811845 1_555
Al3 F44 1.814322 1_555
Al4 F4 1.765649 1_555
Al4 F29 1.810680 1_555
Al4 F19 1.811544 1_555
Al4 F10 1.811758 1_655
Al4 F16 1.811845 1_555
Al4 F47 1.814322 1_655
Al5 F5 1.759547 1_555
Al5 F18 1.786595 1_655
Al5 F1 1.794073 1_555
Al5 F28 1.835338 1_555
Al5 F25 1.840064 1_555
Al5 F2 1.842449 1_555
Al6 F33 1.765649 1_555
Al6 F40 1.810680 1_555
Al6 F6 1.811544 1_555
Al6 F3 1.811758 1_555
Al6 F27 1.811845 1_555
Al6 F8 1.814322 1_555
Al7 F38 1.759547 1_555
Al7 F0 1.786595 1_555
Al7 F34 1.794073 1_455
Al7 F30 1.835338 1_555
Al7 F9 1.840060 1_555
Al7 F32 1.842449 1_555
F0 Na5 2.388734 1_555
F1 Na2 2.451826 1_555
F3 Na7 2.333937 1_555
F4 Na6 2.163005 1_565
F4 Na4 2.306220 1_555
F5 Na5 2.182571 1_565
F5 Na2 2.229357 1_655
F7 Na1 2.182571 1_545
F7 Na0 2.229357 1_455
F8 Na7 2.241488 1_555
F8 Na1 2.274643 1_545
F9 Na3 2.190018 1_545
F9 Na5 2.305119 1_455
F10 Na4 2.333937 1_555
F11 Na0 2.388734 1_555
F12 Na6 2.333937 1_555
F13 Na1 2.451826 1_555
F14 Na0 2.182571 1_565
F14 Na1 2.229357 1_555
F16 Na4 2.359766 1_555
F16 Na0 2.765809 1_565
F17 Na6 2.359766 1_555
F17 Na2 2.765809 1_545
F18 Na2 2.388734 1_555
F20 Na6 2.241488 1_555
F20 Na2 2.274643 1_645
F21 Na3 2.333937 1_555
F25 Na6 2.190011 1_565
F25 Na2 2.305115 1_555
F26 Na1 2.388734 1_555
F27 Na7 2.359766 1_455
F27 Na1 2.765809 1_545
F33 Na3 2.163005 1_544
F33 Na7 2.306220 1_455
F34 Na5 2.451826 1_555
F35 Na0 2.451826 1_555
F37 Na7 2.190011 1_565
F37 Na1 2.305115 1_655
F38 Na2 2.182571 1_545
F38 Na5 2.229357 1_555
F39 Na4 2.163005 1_545
F39 Na6 2.306220 1_555
F42 Na3 2.359766 1_655
F42 Na5 2.765809 1_565
F43 Na7 2.163005 1_566
F43 Na3 2.306220 1_655
F44 Na3 2.241488 1_555
F44 Na5 2.274643 1_565
F46 Na4 2.190018 1_545
F46 Na0 2.305119 1_555
F47 Na4 2.241488 1_555
F47 Na0 2.274643 1_465
