# generated using pymatgen
data_NiPO4
_symmetry_space_group_name_H-M   'P 1'
_cell_length_a   10.02987400
_cell_length_b   5.05174200
_cell_length_c   8.70787516
_cell_angle_alpha   55.24486390
_cell_angle_beta   90.00000000
_cell_angle_gamma   90.00000000
_symmetry_Int_Tables_number   1
_chemical_formula_structural   NiPO4
_chemical_formula_sum   'Ni4 P4 O16'
_cell_volume   362.49921048
_cell_formula_units_Z   4
loop_
 _symmetry_equiv_pos_site_id
 _symmetry_equiv_pos_as_xyz
  1  'x, y, z'
loop_
 _atom_site_type_symbol
 _atom_site_label
 _atom_site_symmetry_multiplicity
 _atom_site_fract_x
 _atom_site_fract_y
 _atom_site_fract_z
 _atom_site_occupancy
  Ni  Ni0  1  0.17274000  0.16869600  0.02692000  1
  Ni  Ni1  1  0.67274000  0.83130400  0.47308000  1
  Ni  Ni2  1  0.32726000  0.16869600  0.52692000  1
  Ni  Ni3  1  0.82726000  0.83130400  0.97308000  1
  P  P0  1  0.40567500  0.89684000  0.28969900  1
  P  P1  1  0.90567500  0.10316000  0.21030100  1
  P  P2  1  0.09432500  0.89684000  0.78969900  1
  P  P3  1  0.59432500  0.10316000  0.71030100  1
  O  O0  1  0.63067800  0.42679600  0.68204700  1
  O  O1  1  0.84944700  0.11461100  0.04068700  1
  O  O2  1  0.84475200  0.82595000  0.39850100  1
  O  O3  1  0.05893200  0.05185000  0.22451600  1
  O  O4  1  0.55893200  0.94815000  0.27548400  1
  O  O5  1  0.34475200  0.17405000  0.10149900  1
  O  O6  1  0.34944700  0.88538900  0.45931300  1
  O  O7  1  0.13067800  0.57320400  0.81795300  1
  O  O8  1  0.86932200  0.42679600  0.18204700  1
  O  O9  1  0.65055300  0.11461100  0.54068700  1
  O  O10  1  0.65524800  0.82595000  0.89850100  1
  O  O11  1  0.44106800  0.05185000  0.72451600  1
  O  O12  1  0.94106800  0.94815000  0.77548400  1
  O  O13  1  0.15524800  0.17405000  0.60149900  1
  O  O14  1  0.15055300  0.88538900  0.95931300  1
  O  O15  1  0.36932200  0.57320400  0.31795300  1
loop_
_geom_bond_atom_site_label_1
_geom_bond_atom_site_label_2
_geom_bond_distance
_geom_bond_site_symmetry_2
Ni0 O14 1.845281 1_544
Ni0 O5 1.849061 1_555
Ni0 O7 1.850780 1_554
Ni0 O3 1.858500 1_555
Ni1 O9 1.845281 1_565
Ni1 O2 1.849061 1_555
Ni1 O0 1.850780 1_555
Ni1 O4 1.858500 1_555
Ni2 O6 1.845281 1_545
Ni2 O13 1.849061 1_555
Ni2 O15 1.850780 1_555
Ni2 O11 1.858500 1_555
Ni3 O1 1.845281 1_566
Ni3 O10 1.849061 1_555
Ni3 O8 1.850780 1_556
Ni3 O12 1.858500 1_555
O0 P3 1.551723 1_555
O1 P1 1.550950 1_555
O2 P1 1.550356 1_565
O3 P1 1.552016 1_455
O4 P0 1.552016 1_555
O5 P0 1.550356 1_545
O6 P0 1.550950 1_555
O7 P2 1.551723 1_555
O8 P1 1.551723 1_555
O9 P3 1.550950 1_555
O10 P3 1.550356 1_565
O11 P3 1.552016 1_555
O12 P2 1.552016 1_655
O13 P2 1.550356 1_545
O14 P2 1.550950 1_555
O15 P0 1.551723 1_555
