# generated using pymatgen
data_Ce2Sn5
_symmetry_space_group_name_H-M   'P 1'
_cell_length_a   4.59292370
_cell_length_b   4.68765090
_cell_length_c   17.91033812
_cell_angle_alpha   89.99998304
_cell_angle_beta   97.45238687
_cell_angle_gamma   90.00000143
_symmetry_Int_Tables_number   1
_chemical_formula_structural   Ce2Sn5
_chemical_formula_sum   'Ce4 Sn10'
_cell_volume   382.35273718
_cell_formula_units_Z   2
loop_
 _symmetry_equiv_pos_site_id
 _symmetry_equiv_pos_as_xyz
  1  'x, y, z'
loop_
 _atom_site_type_symbol
 _atom_site_label
 _atom_site_symmetry_multiplicity
 _atom_site_fract_x
 _atom_site_fract_y
 _atom_site_fract_z
 _atom_site_occupancy
  Ce  Ce0  1  0.56800229  -0.00000000  0.13562676  1
  Ce  Ce1  1  0.43195824  0.00000000  0.86432999  1
  Ce  Ce2  1  0.70184200  -0.00000000  0.40375420  1
  Ce  Ce3  1  0.29822675  0.00000000  0.59630273  1
  Sn  Sn0  1  -0.00003313  0.00000000  -0.00002523  1
  Sn  Sn1  1  0.49994460  0.50000000  -0.00002736  1
  Sn  Sn2  1  0.86374858  0.00000000  0.72772313  1
  Sn  Sn3  1  0.13627404  -0.00000000  0.27226981  1
  Sn  Sn4  1  0.63665917  0.50000000  0.27389240  1
  Sn  Sn5  1  0.36334289  0.50000000  0.72610364  1
  Sn  Sn6  1  0.92862296  0.50000000  0.85810871  1
  Sn  Sn7  1  0.07132288  0.50000000  0.14185752  1
  Sn  Sn8  1  0.77788222  0.50000000  0.55588449  1
  Sn  Sn9  1  0.22220751  0.49999900  0.44419721  1
loop_
_geom_bond_atom_site_label_1
_geom_bond_atom_site_label_2
_geom_bond_distance
_geom_bond_site_symmetry_2
Ce0 Sn7 3.282671 1_545
Ce0 Sn7 3.282671 1_555
Ce0 Sn7 3.283758 1_655
Ce0 Sn7 3.283758 1_645
Ce0 Sn0 3.326431 1_555
Ce0 Sn0 3.330074 1_655
Ce0 Sn3 3.338364 1_655
Ce0 Sn3 3.343665 1_555
Ce0 Sn1 3.361135 1_555
Ce0 Sn1 3.361136 1_545
Ce0 Sn4 3.394534 1_545
Ce0 Sn4 3.394535 1_555
Ce1 Sn6 3.282603 1_555
Ce1 Sn6 3.282603 1_545
Ce1 Sn6 3.283815 1_445
Ce1 Sn6 3.283815 1_455
Ce1 Sn0 3.326265 1_656
Ce1 Sn0 3.330055 1_556
Ce1 Sn2 3.337759 1_455
Ce1 Sn2 3.343337 1_555
Ce1 Sn1 3.360989 1_546
Ce1 Sn1 3.360990 1_556
Ce1 Sn5 3.394030 1_555
Ce1 Sn5 3.394031 1_545
Ce2 Sn3 3.272071 1_555
Ce2 Sn3 3.278089 1_655
Ce2 Sn4 3.288188 1_555
Ce2 Sn4 3.288189 1_545
Ce2 Sn9 3.358749 1_655
Ce2 Sn9 3.358755 1_645
Ce2 Sn9 3.359313 1_555
Ce2 Sn9 3.359319 1_545
Ce2 Sn8 3.576682 1_545
Ce2 Sn8 3.576683 1_555
Ce3 Sn2 3.271216 1_555
Ce3 Sn2 3.277324 1_455
Ce3 Sn5 3.287430 1_545
Ce3 Sn5 3.287431 1_555
Ce3 Sn8 3.358631 1_455
Ce3 Sn8 3.358631 1_445
Ce3 Sn8 3.359248 1_555
Ce3 Sn8 3.359248 1_545
Ce3 Sn9 3.576347 1_555
Ce3 Sn9 3.576354 1_545
Sn2 Sn5 3.280147 1_545
Sn2 Sn5 3.280147 1_555
Sn2 Sn5 3.282805 1_655
Sn2 Sn5 3.282805 1_645
Sn3 Sn4 3.280076 1_555
Sn3 Sn4 3.280076 1_545
Sn3 Sn4 3.282876 1_445
Sn3 Sn4 3.282876 1_455
Sn4 Sn7 3.277417 1_555
Sn4 Sn7 3.286701 1_655
Sn5 Sn6 3.276907 1_555
Sn5 Sn6 3.286456 1_455
Sn8 Sn9 3.031614 1_555
Sn8 Sn9 3.037276 1_655
