# generated using pymatgen
data_Cs2Ga2B2O7
_symmetry_space_group_name_H-M   'P 1'
_cell_length_a   8.14366200
_cell_length_b   9.02223200
_cell_length_c   12.40552477
_cell_angle_alpha   76.07983959
_cell_angle_beta   90.00000000
_cell_angle_gamma   90.00000000
_symmetry_Int_Tables_number   1
_chemical_formula_structural   Cs2Ga2B2O7
_chemical_formula_sum   'Cs8 Ga8 B8 O28'
_cell_volume   884.71507690
_cell_formula_units_Z   4
loop_
 _symmetry_equiv_pos_site_id
 _symmetry_equiv_pos_as_xyz
  1  'x, y, z'
loop_
 _atom_site_type_symbol
 _atom_site_label
 _atom_site_symmetry_multiplicity
 _atom_site_fract_x
 _atom_site_fract_y
 _atom_site_fract_z
 _atom_site_occupancy
  Cs  Cs0  1  0.62361400  0.53422000  0.86895000  1
  Cs  Cs1  1  0.37930300  0.93247400  0.65285200  1
  Cs  Cs2  1  0.12069700  0.93247400  0.15285200  1
  Cs  Cs3  1  0.87638600  0.53422000  0.36895000  1
  Cs  Cs4  1  0.62069700  0.06752600  0.34714800  1
  Cs  Cs5  1  0.37638600  0.46578000  0.13105000  1
  Cs  Cs6  1  0.87930300  0.06752600  0.84714800  1
  Cs  Cs7  1  0.12361400  0.46578000  0.63105000  1
  Ga  Ga0  1  0.11095700  0.16063900  0.38686800  1
  Ga  Ga1  1  0.61095700  0.83936100  0.11313200  1
  Ga  Ga2  1  0.43616700  0.68598900  0.36939700  1
  Ga  Ga3  1  0.56383300  0.31401100  0.63060300  1
  Ga  Ga4  1  0.38904300  0.16063900  0.88686800  1
  Ga  Ga5  1  0.06383300  0.68598900  0.86939700  1
  Ga  Ga6  1  0.88904300  0.83936100  0.61313200  1
  Ga  Ga7  1  0.93616700  0.31401100  0.13060300  1
  B  B0  1  0.64340700  0.16906100  0.06365100  1
  B  B1  1  0.85659300  0.16906100  0.56365100  1
  B  B2  1  0.60948900  0.64780800  0.57787000  1
  B  B3  1  0.35659300  0.83093900  0.93634900  1
  B  B4  1  0.14340700  0.83093900  0.43634900  1
  B  B5  1  0.39051100  0.35219200  0.42213000  1
  B  B6  1  0.10948900  0.35219200  0.92213000  1
  B  B7  1  0.89051100  0.64780800  0.07787000  1
  O  O0  1  0.48287700  0.48162900  0.37671300  1
  O  O1  1  0.21928800  0.97246600  0.40716700  1
  O  O2  1  0.21756500  0.70436800  0.41131000  1
  O  O3  1  0.99118800  0.80716600  0.48649600  1
  O  O4  1  0.27344500  0.30890100  0.35503200  1
  O  O5  1  0.49118800  0.19283400  0.01350400  1
  O  O6  1  0.42109900  0.26064300  0.52704500  1
  O  O7  1  0.28071200  0.97246600  0.90716700  1
  O  O8  1  0.46772700  0.81166600  0.23067900  1
  O  O9  1  0.51712300  0.51837100  0.62328700  1
  O  O10  1  0.01712300  0.48162900  0.87671300  1
  O  O11  1  0.00881200  0.19283400  0.51350400  1
  O  O12  1  0.07890100  0.26064300  0.02704500  1
  O  O13  1  0.57890100  0.73935700  0.47295500  1
  O  O14  1  0.50881200  0.80716600  0.98649600  1
  O  O15  1  0.78071200  0.02753400  0.59283300  1
  O  O16  1  0.22655500  0.30890100  0.85503200  1
  O  O17  1  0.53227300  0.18833400  0.76932100  1
  O  O18  1  0.98287700  0.51837100  0.12328700  1
  O  O19  1  0.92109900  0.73935700  0.97295500  1
  O  O20  1  0.71928800  0.02753400  0.09283300  1
  O  O21  1  0.96772700  0.18833400  0.26932100  1
  O  O22  1  0.78243500  0.29563200  0.58869000  1
  O  O23  1  0.03227300  0.81166600  0.73067900  1
  O  O24  1  0.28243500  0.70436800  0.91131000  1
  O  O25  1  0.71756500  0.29563200  0.08869000  1
  O  O26  1  0.77344500  0.69109900  0.14496800  1
  O  O27  1  0.72655500  0.69109900  0.64496800  1
loop_
_geom_bond_atom_site_label_1
_geom_bond_atom_site_label_2
_geom_bond_distance
_geom_bond_site_symmetry_2
Cs0 O27 2.921400 1_555
Cs0 O25 3.134769 1_556
Cs0 O9 3.204674 1_555
Cs0 O10 3.237579 1_655
Cs0 O24 3.277289 1_555
Cs0 O14 3.285199 1_555
Cs0 O5 3.347851 1_556
Cs0 O19 3.479679 1_555
Cs0 O17 3.697996 1_555
Cs1 O6 3.015752 1_565
Cs1 O23 3.098493 1_555
Cs1 O17 3.251628 1_565
Cs1 O1 3.254007 1_555
Cs1 O7 3.357974 1_555
Cs1 O15 3.415943 1_565
Cs1 O24 3.458800 1_555
Cs1 O13 3.539678 1_555
Cs1 O27 3.584918 1_555
Cs2 O12 3.015752 1_565
Cs2 O8 3.098493 1_555
Cs2 O21 3.251628 1_465
Cs2 O7 3.254007 1_554
Cs2 O1 3.357974 1_555
Cs2 O20 3.415943 1_465
Cs2 O2 3.458800 1_555
Cs2 O19 3.539678 1_454
Cs2 O26 3.584918 1_455
Cs3 O26 2.921400 1_555
Cs3 O22 3.134769 1_555
Cs3 O18 3.204674 1_555
Cs3 O0 3.237579 1_555
Cs3 O2 3.277289 1_655
Cs3 O3 3.285199 1_555
Cs3 O11 3.347851 1_655
Cs3 O13 3.479679 1_555
Cs3 O21 3.697996 1_555
Cs4 O13 3.015752 1_545
Cs4 O21 3.098493 1_555
Cs4 O8 3.251628 1_545
Cs4 O15 3.254007 1_555
Cs4 O20 3.357974 1_555
Cs4 O1 3.415943 1_545
Cs4 O25 3.458800 1_555
Cs4 O6 3.539678 1_555
Cs4 O4 3.584918 1_555
Cs5 O4 2.921400 1_555
Cs5 O24 3.134769 1_554
Cs5 O0 3.204674 1_555
Cs5 O18 3.237579 1_455
Cs5 O25 3.277289 1_555
Cs5 O5 3.285199 1_555
Cs5 O14 3.347851 1_554
Cs5 O12 3.479679 1_555
Cs5 O8 3.697996 1_555
Cs6 O19 3.015752 1_545
Cs6 O17 3.098493 1_555
Cs6 O23 3.251628 1_645
Cs6 O20 3.254007 1_556
Cs6 O15 3.357974 1_555
Cs6 O7 3.415943 1_645
Cs6 O22 3.458800 1_555
Cs6 O12 3.539678 1_656
Cs6 O16 3.584918 1_655
Cs7 O16 2.921400 1_555
Cs7 O2 3.134769 1_555
Cs7 O10 3.204674 1_555
Cs7 O9 3.237579 1_555
Cs7 O22 3.277289 1_455
Cs7 O11 3.285199 1_555
Cs7 O3 3.347851 1_455
Cs7 O6 3.479679 1_555
Cs7 O23 3.697996 1_555
Ga0 O21 1.836870 1_455
Ga0 O4 1.855289 1_555
Ga0 O11 1.861149 1_555
Ga0 O1 1.875722 1_545
Ga1 O8 1.836870 1_555
Ga1 O26 1.855289 1_555
Ga1 O14 1.861149 1_554
Ga1 O20 1.875722 1_565
Ga2 O8 1.836931 1_555
Ga2 O0 1.863319 1_555
Ga2 O2 1.873103 1_555
Ga2 O13 1.879100 1_555
Ga3 O17 1.836931 1_555
Ga3 O9 1.863319 1_555
Ga3 O22 1.873103 1_555
Ga3 O6 1.879100 1_555
Ga4 O17 1.836870 1_555
Ga4 O16 1.855289 1_555
Ga4 O5 1.861149 1_556
Ga4 O7 1.875722 1_545
Ga5 O23 1.836931 1_555
Ga5 O10 1.863319 1_555
Ga5 O24 1.873103 1_555
Ga5 O19 1.879100 1_455
Ga6 O23 1.836870 1_655
Ga6 O27 1.855289 1_555
Ga6 O3 1.861149 1_555
Ga6 O15 1.875722 1_565
Ga7 O21 1.836931 1_555
Ga7 O18 1.863319 1_555
Ga7 O25 1.873103 1_555
Ga7 O12 1.879100 1_655
B0 O5 1.380388 1_555
B0 O20 1.385985 1_555
B0 O25 1.391376 1_555
B0 Cs4 3.419366 1_555
B0 Cs6 3.595435 1_554
B1 O11 1.380388 1_655
B1 O15 1.385985 1_555
B1 O22 1.391376 1_555
B1 Cs6 3.419366 1_555
B1 Cs4 3.595435 1_555
B2 O27 1.382286 1_555
B2 O13 1.386008 1_555
B2 O9 1.389407 1_555
B2 Cs1 3.482091 1_555
B3 O14 1.380388 1_555
B3 O7 1.385985 1_555
B3 O24 1.391376 1_555
B3 Cs1 3.419366 1_555
B3 Cs2 3.595435 1_556
B4 O3 1.380388 1_455
B4 O1 1.385985 1_555
B4 O2 1.391376 1_555
B4 Cs2 3.419366 1_555
B4 Cs1 3.595435 1_555
B5 O4 1.382286 1_555
B5 O6 1.386008 1_555
B5 O0 1.389407 1_555
B5 Cs4 3.482091 1_555
B6 O16 1.382286 1_555
B6 O12 1.386008 1_556
B6 O10 1.389407 1_555
B6 Cs6 3.482091 1_455
B7 O26 1.382286 1_555
B7 O19 1.386008 1_554
B7 O18 1.389407 1_555
B7 Cs2 3.482091 1_655
