# generated using pymatgen
data_NaMg2H3(SO4)2
_symmetry_space_group_name_H-M   'P 1'
_cell_length_a   6.39511400
_cell_length_b   7.92725435
_cell_length_c   9.01817556
_cell_angle_alpha   97.58167597
_cell_angle_beta   110.69815129
_cell_angle_gamma   113.57000295
_symmetry_Int_Tables_number   1
_chemical_formula_structural   NaMg2H3(SO4)2
_chemical_formula_sum   'Na2 Mg4 H6 S4 O16'
_cell_volume   371.55173767
_cell_formula_units_Z   2
loop_
 _symmetry_equiv_pos_site_id
 _symmetry_equiv_pos_as_xyz
  1  'x, y, z'
loop_
 _atom_site_type_symbol
 _atom_site_label
 _atom_site_symmetry_multiplicity
 _atom_site_fract_x
 _atom_site_fract_y
 _atom_site_fract_z
 _atom_site_occupancy
  Na  Na0  1  0.45945100  0.83052800  0.09398600  1
  Na  Na1  1  0.54054900  0.16947200  0.90601400  1
  Mg  Mg0  1  0.00000000  0.00000000  0.50000000  1
  Mg  Mg1  1  0.50000000  0.00000000  0.50000000  1
  Mg  Mg2  1  0.82041800  0.82698400  0.81272700  1
  Mg  Mg3  1  0.17958200  0.17301600  0.18727300  1
  H  H0  1  0.61319900  0.71852700  0.50432100  1
  H  H1  1  0.38680100  0.28147300  0.49567900  1
  H  H2  1  0.70892000  0.44041700  0.72639700  1
  H  H3  1  0.29108000  0.55958300  0.27360300  1
  H  H4  1  0.45951800  0.44057700  0.72755600  1
  H  H5  1  0.54048200  0.55942300  0.27244400  1
  S  S0  1  0.93394400  0.70444500  0.16264100  1
  S  S1  1  0.06605600  0.29555500  0.83735900  1
  S  S2  1  0.77039600  0.25339300  0.29234200  1
  S  S3  1  0.22960400  0.74660700  0.70765800  1
  O  O0  1  0.81972400  0.75270700  0.27772700  1
  O  O1  1  0.18027600  0.24729300  0.72227300  1
  O  O2  1  0.78957800  0.24760500  0.72152200  1
  O  O3  1  0.21042200  0.75239500  0.27847800  1
  O  O4  1  0.97129500  0.86410900  0.07676100  1
  O  O5  1  0.02870500  0.13589100  0.92323900  1
  O  O6  1  0.72816200  0.08453400  0.37231500  1
  O  O7  1  0.27183800  0.91546600  0.62768500  1
  O  O8  1  0.50203500  0.80271400  0.83242300  1
  O  O9  1  0.49796500  0.19728600  0.16757700  1
  O  O10  1  0.12877900  0.79642800  0.82888400  1
  O  O11  1  0.87122100  0.20357200  0.17111600  1
  O  O12  1  0.71494200  0.85514500  0.57357600  1
  O  O13  1  0.28505800  0.14485500  0.42642400  1
  O  O14  1  0.61527800  0.51611100  0.71461000  1
  O  O15  1  0.38472200  0.48388900  0.28539000  1
loop_
_geom_bond_atom_site_label_1
_geom_bond_atom_site_label_2
_geom_bond_distance
_geom_bond_site_symmetry_2
Na0 O8 2.460017 1_554
Na0 O10 2.461524 1_554
Na0 O6 2.481479 1_565
Na0 O3 2.654086 1_555
Na0 O0 2.672516 1_555
Na0 O9 2.785067 1_565
Na0 O11 2.845687 1_565
Na1 O9 2.460017 1_556
Na1 O11 2.461524 1_556
Na1 O7 2.481479 1_545
Na1 O2 2.654086 1_555
Na1 O1 2.672516 1_555
Na1 O8 2.785067 1_545
Na1 O10 2.845687 1_545
Mg0 O12 2.112839 1_445
Mg0 O13 2.112839 1_555
Mg0 O7 2.125414 1_545
Mg0 O6 2.125414 1_455
Mg0 O1 2.170754 1_555
Mg0 O0 2.170754 1_445
Mg1 O13 2.113525 1_555
Mg1 O12 2.113525 1_545
Mg1 O7 2.124464 1_545
Mg1 O6 2.124464 1_555
Mg1 O2 2.171678 1_555
Mg1 O3 2.171678 1_545
Mg2 O10 2.038851 1_655
Mg2 O8 2.040988 1_555
Mg2 O12 2.091727 1_555
Mg2 O5 2.138470 1_665
Mg2 O14 2.143735 1_555
Mg2 O4 2.156662 1_556
Mg3 O11 2.038851 1_455
Mg3 O9 2.040988 1_555
Mg3 O13 2.091727 1_555
Mg3 O4 2.138470 1_445
Mg3 O15 2.143735 1_555
Mg3 O5 2.156662 1_554
H0 O12 0.978279 1_555
H1 O13 0.978279 1_555
H2 O14 0.994578 1_555
H3 O15 0.994578 1_555
H4 O14 0.994002 1_555
H5 O15 0.994002 1_555
O0 S0 1.552968 1_555
O1 S1 1.552968 1_555
O2 S1 1.553720 1_655
O3 S0 1.553720 1_455
O4 S0 1.551297 1_555
O5 S1 1.551297 1_555
O6 S2 1.577409 1_555
O7 S3 1.577409 1_555
O8 S3 1.536777 1_555
O9 S2 1.536777 1_555
O10 S3 1.534572 1_555
O11 S2 1.534572 1_555
