# generated using pymatgen
data_KNa3Al4(SiO4)4
_symmetry_space_group_name_H-M   'P 1'
_cell_length_a   9.83740197
_cell_length_b   9.83740197
_cell_length_c   9.82908100
_cell_angle_alpha   90.00000000
_cell_angle_beta   90.00000000
_cell_angle_gamma   119.99999977
_symmetry_Int_Tables_number   1
_chemical_formula_structural   KNa3Al4(SiO4)4
_chemical_formula_sum   'K2 Na6 Al8 Si8 O32'
_cell_volume   823.76698380
_cell_formula_units_Z   2
loop_
 _symmetry_equiv_pos_site_id
 _symmetry_equiv_pos_as_xyz
  1  'x, y, z'
loop_
 _atom_site_type_symbol
 _atom_site_label
 _atom_site_symmetry_multiplicity
 _atom_site_fract_x
 _atom_site_fract_y
 _atom_site_fract_z
 _atom_site_occupancy
  K  K0  1  0.00000000  0.00000000  0.98709000  1
  K  K1  1  0.00000000  0.00000000  0.48709000  1
  Na  Na0  1  0.01955200  0.44130000  0.98862400  1
  Na  Na1  1  0.57825200  0.01955200  0.48862400  1
  Na  Na2  1  0.44130000  0.42174800  0.48862400  1
  Na  Na3  1  0.55870000  0.57825200  0.98862400  1
  Na  Na4  1  0.42174800  0.98044800  0.98862400  1
  Na  Na5  1  0.98044800  0.55870000  0.48862400  1
  Al  Al0  1  0.33333300  0.66666700  0.16567700  1
  Al  Al1  1  0.66666700  0.33333300  0.66567700  1
  Al  Al2  1  0.08632900  0.32927200  0.68478400  1
  Al  Al3  1  0.75705700  0.08632900  0.18478400  1
  Al  Al4  1  0.32927200  0.24294300  0.18478400  1
  Al  Al5  1  0.67072800  0.75705700  0.68478400  1
  Al  Al6  1  0.24294300  0.91367100  0.68478400  1
  Al  Al7  1  0.91367100  0.67072800  0.18478400  1
  Si  Si0  1  0.33333300  0.66666700  0.82346200  1
  Si  Si1  1  0.66666700  0.33333300  0.32346200  1
  Si  Si2  1  0.12083300  0.31630200  0.25420900  1
  Si  Si3  1  0.80453100  0.12083300  0.75420900  1
  Si  Si4  1  0.31630200  0.19546900  0.75420900  1
  Si  Si5  1  0.68369800  0.80453100  0.25420900  1
  Si  Si6  1  0.19546900  0.87916700  0.25420900  1
  Si  Si7  1  0.87916700  0.68369800  0.75420900  1
  O  O0  1  0.33333300  0.66666700  0.98879900  1
  O  O1  1  0.66666700  0.33333300  0.48879900  1
  O  O2  1  0.09882800  0.40671700  0.51339700  1
  O  O3  1  0.69211100  0.09882800  0.01339700  1
  O  O4  1  0.40671700  0.30788900  0.01339700  1
  O  O5  1  0.59328300  0.69211100  0.51339700  1
  O  O6  1  0.30788900  0.90117200  0.51339700  1
  O  O7  1  0.90117200  0.59328300  0.01339700  1
  O  O8  1  0.17487900  0.50508600  0.77691300  1
  O  O9  1  0.66979300  0.17487900  0.27691300  1
  O  O10  1  0.50508600  0.33020700  0.27691300  1
  O  O11  1  0.49491400  0.66979300  0.77691300  1
  O  O12  1  0.33020700  0.82512100  0.77691300  1
  O  O13  1  0.82512100  0.49491400  0.27691300  1
  O  O14  1  0.16327900  0.49474700  0.21458600  1
  O  O15  1  0.66853200  0.16327900  0.71458600  1
  O  O16  1  0.49474700  0.33146800  0.71458600  1
  O  O17  1  0.50525300  0.66853200  0.21458600  1
  O  O18  1  0.33146800  0.83672100  0.21458600  1
  O  O19  1  0.83672100  0.50525300  0.71458600  1
  O  O20  1  0.02973200  0.27500100  0.41287400  1
  O  O21  1  0.75473100  0.02973200  0.91287400  1
  O  O22  1  0.27500100  0.24526900  0.91287400  1
  O  O23  1  0.72499900  0.75473100  0.41287400  1
  O  O24  1  0.24526900  0.97026800  0.41287400  1
  O  O25  1  0.97026800  0.72499900  0.91287400  1
  O  O26  1  0.19185800  0.22745600  0.66626900  1
  O  O27  1  0.96440200  0.19185800  0.16626900  1
  O  O28  1  0.22745600  0.03559800  0.16626900  1
  O  O29  1  0.77254400  0.96440200  0.66626900  1
  O  O30  1  0.03559800  0.80814200  0.66626900  1
  O  O31  1  0.80814200  0.77254400  0.16626900  1
loop_
_geom_bond_atom_site_label_1
_geom_bond_atom_site_label_2
_geom_bond_distance
_geom_bond_site_symmetry_2
K0 O21 2.673022 1_455
K0 O25 2.673022 1_445
K0 O22 2.673022 1_555
K0 O27 2.729011 1_456
K0 O28 2.729011 1_556
K0 O31 2.729011 1_446
K1 O24 2.673022 1_545
K1 O20 2.673022 1_555
K1 O23 2.673022 1_445
K1 O30 2.729011 1_545
K1 O29 2.729011 1_445
K1 O26 2.729011 1_555
Na0 O7 2.322066 1_456
Na0 O8 2.469819 1_555
Na0 O14 2.542635 1_556
Na0 O0 2.756807 1_555
Na0 O27 2.834307 1_456
Na1 O6 2.322066 1_545
Na1 O9 2.469819 1_555
Na1 O15 2.542635 1_555
Na1 O1 2.756805 1_555
Na1 O29 2.834307 1_545
Na2 O5 2.322066 1_555
Na2 O10 2.469819 1_555
Na2 O16 2.542635 1_555
Na2 O1 2.756814 1_555
Na2 O26 2.834307 1_555
Na3 O4 2.322066 1_556
Na3 O11 2.469819 1_555
Na3 O17 2.542635 1_556
Na3 O0 2.756814 1_555
Na3 O31 2.834307 1_556
Na4 O3 2.322066 1_566
Na4 O12 2.469819 1_555
Na4 O18 2.542635 1_556
Na4 O0 2.756805 1_555
Na4 O28 2.834307 1_566
Na5 O2 2.322066 1_655
Na5 O13 2.469819 1_555
Na5 O19 2.542635 1_555
Na5 O1 2.756807 1_555
Na5 O30 2.834307 1_655
Al0 O0 1.738548 1_554
Al0 O18 1.749483 1_555
Al0 O14 1.749488 1_555
Al0 O17 1.749492 1_555
Al1 O1 1.738548 1_555
Al1 O15 1.749483 1_555
Al1 O19 1.749488 1_555
Al1 O16 1.749492 1_555
Al2 O8 1.750304 1_555
Al2 O26 1.775907 1_555
Al2 O2 1.827476 1_555
Al3 O9 1.750304 1_555
Al3 O27 1.775907 1_555
Al3 O3 1.827476 1_555
Al4 O10 1.750304 1_555
Al4 O28 1.775907 1_555
Al4 O4 1.827476 1_555
Al5 O11 1.750304 1_555
Al5 O29 1.775907 1_555
Al5 O5 1.827476 1_555
Al6 O12 1.750304 1_555
Al6 O30 1.775907 1_555
Al6 O6 1.827476 1_555
Al7 O13 1.750304 1_555
Al7 O31 1.775907 1_555
Al7 O7 1.827476 1_555
O0 Si0 1.625111 1_555
O1 Si1 1.625111 1_555
O2 O20 1.495482 1_555
O8 Si0 1.639517 1_555
O9 Si1 1.639512 1_555
O10 Si1 1.639521 1_555
O11 Si0 1.639521 1_555
O12 Si0 1.639512 1_555
O13 Si1 1.639517 1_555
O14 Si2 1.635417 1_555
O15 Si3 1.635417 1_555
O16 Si4 1.635417 1_555
O17 Si5 1.635417 1_555
O18 Si6 1.635417 1_555
O19 Si7 1.635417 1_555
O20 Si2 1.742487 1_555
O21 O3 1.495482 1_556
O21 Si3 1.742487 1_555
O22 O4 1.495482 1_556
O22 Si4 1.742487 1_555
O23 O5 1.495482 1_555
O23 Si5 1.742487 1_555
O24 O6 1.495482 1_555
O24 Si6 1.742487 1_555
O25 O7 1.495482 1_556
O25 Si7 1.742487 1_555
O26 Si4 1.652286 1_555
O27 Si2 1.652286 1_655
O28 Si6 1.652286 1_545
O29 Si3 1.652286 1_565
O30 Si7 1.652286 1_455
O31 Si5 1.652286 1_555
