# generated using pymatgen
data_Na2SrAl4(SiO4)4
_symmetry_space_group_name_H-M   'P 1'
_cell_length_a   10.58959469
_cell_length_b   10.58959469
_cell_length_c   10.58959469
_cell_angle_alpha   133.32639423
_cell_angle_beta   124.46436411
_cell_angle_gamma   75.40131837
_symmetry_Int_Tables_number   1
_chemical_formula_structural   Na2SrAl4(SiO4)4
_chemical_formula_sum   'Na4 Sr2 Al8 Si8 O32'
_cell_volume   693.61756066
_cell_formula_units_Z   2
loop_
 _symmetry_equiv_pos_site_id
 _symmetry_equiv_pos_as_xyz
  1  'x, y, z'
loop_
 _atom_site_type_symbol
 _atom_site_label
 _atom_site_symmetry_multiplicity
 _atom_site_fract_x
 _atom_site_fract_y
 _atom_site_fract_z
 _atom_site_occupancy
  Na  Na0  1  0.58170417  0.36693811  0.13985450  1
  Na  Na1  1  0.72708360  0.86693811  0.78523394  1
  Na  Na2  1  0.08170417  0.94184966  0.21476606  1
  Na  Na3  1  0.22708360  0.44184966  0.86014550  1
  Sr  Sr0  1  0.65402979  0.65402979  0.00000000  1
  Sr  Sr1  1  0.15402979  0.15402979  0.00000000  1
  Al  Al0  1  0.37130644  0.99405412  0.23893302  1
  Al  Al1  1  0.76370715  0.08659470  0.22831206  1
  Al  Al2  1  0.25512110  0.49405412  0.62274768  1
  Al  Al3  1  0.35828264  0.58659470  0.32288755  1
  Al  Al4  1  0.26370715  0.03539508  0.67711245  1
  Al  Al5  1  0.85828264  0.53539508  0.77168794  1
  Al  Al6  1  0.75512110  0.13237342  0.76106698  1
  Al  Al7  1  0.87130644  0.63237342  0.37725232  1
  Si  Si0  1  0.55040846  0.76019790  0.31448415  1
  Si  Si1  1  0.05040846  0.73592432  0.79021056  1
  Si  Si2  1  0.94571376  0.26019790  0.20978944  1
  Si  Si3  1  0.44571376  0.23592432  0.68551585  1
  Si  Si4  1  0.44553170  0.82167416  0.77546765  1
  Si  Si5  1  0.04620651  0.67006405  0.22453235  1
  Si  Si6  1  0.54620651  0.32167416  0.37614246  1
  Si  Si7  1  0.94553170  0.17006405  0.62385754  1
  O  O0  1  0.42021016  0.39315265  0.26560817  1
  O  O1  1  0.12754448  0.15460199  0.73439183  1
  O  O2  1  0.41191449  0.62290402  0.21890586  1
  O  O3  1  0.34278087  0.97376669  0.82068925  1
  O  O4  1  0.62754448  0.89315265  0.97294249  1
  O  O5  1  0.84278087  0.02209162  0.36901418  1
  O  O6  1  0.45587973  0.75762881  0.59217816  1
  O  O7  1  0.93951411  0.65534510  0.27886391  1
  O  O8  1  0.87648119  0.15534510  0.71583099  1
  O  O9  1  0.37648119  0.66065020  0.72113609  1
  O  O10  1  0.16545065  0.86370157  0.40782184  1
  O  O11  1  0.38789552  0.41736417  0.74322249  1
  O  O12  1  0.90399815  0.12290402  0.21098953  1
  O  O13  1  0.35333332  0.07350851  0.43534121  1
  O  O14  1  0.63501944  0.28562663  0.80402848  1
  O  O15  1  0.88789552  0.14467303  0.97053134  1
  O  O16  1  0.65307744  0.47376669  0.63098582  1
  O  O17  1  0.67414169  0.64467303  0.25677751  1
  O  O18  1  0.98159815  0.78562663  0.65060719  1
  O  O19  1  0.66545065  0.25762881  0.30174909  1
  O  O20  1  0.95587973  0.36370157  0.69825091  1
  O  O21  1  0.85333332  0.41799211  0.27982481  1
  O  O22  1  0.13816730  0.57350851  0.72017519  1
  O  O23  1  0.92021016  0.65460199  0.02705751  1
  O  O24  1  0.43951411  0.16065020  0.28416901  1
  O  O25  1  0.15307744  0.52209162  0.17931075  1
  O  O26  1  0.17414169  0.91736417  0.02946866  1
  O  O27  1  0.91191449  0.69300863  0.78901047  1
  O  O28  1  0.40399815  0.19300863  0.78109414  1
  O  O29  1  0.63816730  0.91799211  0.56465879  1
  O  O30  1  0.13501944  0.33099096  0.34939281  1
  O  O31  1  0.48159815  0.83099096  0.19597152  1
loop_
_geom_bond_atom_site_label_1
_geom_bond_atom_site_label_2
_geom_bond_distance
_geom_bond_site_symmetry_2
Na0 O28 2.328126 1_554
Na0 O19 2.355977 1_555
Na0 O21 2.371079 1_555
Na0 O17 2.494695 1_555
Na0 O0 2.570205 1_555
Na0 O2 2.722806 1_555
Na1 O27 2.328126 1_555
Na1 O6 2.355976 1_555
Na1 O29 2.371079 1_555
Na1 O15 2.494695 1_565
Na1 O4 2.570205 1_555
Na1 O12 2.722806 1_566
Na2 O12 2.328126 1_465
Na2 O10 2.355976 1_555
Na2 O13 2.371079 1_565
Na2 O26 2.494695 1_555
Na2 O23 2.570205 1_455
Na2 O27 2.722806 1_454
Na3 O2 2.328126 1_556
Na3 O20 2.355976 1_455
Na3 O22 2.371079 1_555
Na3 O11 2.494695 1_555
Na3 O1 2.570205 1_555
Na3 O28 2.722806 1_555
Al0 O24 1.718876 1_565
Al0 O13 1.742370 1_565
Al0 O31 1.749137 1_555
Al0 O26 1.755020 1_555
Al1 O19 1.732255 1_555
Al1 O4 1.749886 1_544
Al1 O12 1.755491 1_555
Al1 O5 1.756145 1_555
Al2 O9 1.718876 1_555
Al2 O22 1.742370 1_555
Al2 O30 1.749137 1_555
Al2 O11 1.755020 1_555
Al3 O6 1.732255 1_555
Al3 O0 1.749886 1_555
Al3 O2 1.755492 1_555
Al3 O25 1.756145 1_555
Al4 O10 1.732255 1_545
Al4 O1 1.749886 1_555
Al4 O28 1.755492 1_555
Al4 O3 1.756145 1_545
Al5 O20 1.732255 1_555
Al5 O23 1.749886 1_556
Al5 O27 1.755492 1_555
Al5 O16 1.756145 1_555
Al6 O8 1.718876 1_555
Al6 O29 1.742370 1_545
Al6 O14 1.749137 1_555
Al6 O15 1.755020 1_555
Al7 O7 1.718876 1_555
Al7 O21 1.742370 1_555
Al7 O18 1.749137 1_555
Al7 O17 1.755020 1_555
O0 Si6 1.631700 1_555
O0 Sr1 2.668255 1_555
O1 Si7 1.631700 1_455
O1 Sr1 2.668255 1_556
O2 Si0 1.632348 1_555
O3 Si4 1.629471 1_555
O3 Sr1 2.939840 1_566
O4 Si4 1.631700 1_555
O4 Sr0 2.668255 1_556
O5 Si7 1.629471 1_555
O5 Sr0 2.939840 1_545
O6 Si4 1.623603 1_555
O7 Si5 1.606048 1_655
O7 Sr0 2.778655 1_555
O8 Si7 1.606048 1_555
O8 Sr1 2.778655 1_656
O9 Si4 1.606048 1_555
O9 Sr0 2.778655 1_556
O10 Si5 1.623603 1_555
O11 Si3 1.630693 1_555
O11 Sr0 2.674457 1_556
O12 Si2 1.632348 1_555
O13 Si3 1.611109 1_555
O14 Si3 1.627495 1_555
O14 Sr0 2.894763 1_556
O15 Si2 1.630693 1_556
O15 Sr1 2.674457 1_656
O16 Si6 1.629471 1_555
O16 Sr0 2.939840 1_556
O17 Si0 1.630693 1_555
O17 Sr0 2.674457 1_555
O18 Si1 1.627495 1_655
O18 Sr1 2.894763 1_666
O19 Si6 1.623602 1_555
O20 Si7 1.623603 1_555
O21 Si2 1.611109 1_555
O22 Si1 1.611109 1_555
O23 Si5 1.631700 1_655
O23 Sr0 2.668255 1_555
O24 Si6 1.606048 1_555
O24 Sr1 2.778655 1_555
O25 Si5 1.629471 1_555
O25 Sr1 2.939840 1_555
O26 Si1 1.630693 1_554
O26 Sr1 2.674457 1_565
O27 Si1 1.632348 1_655
O28 Si3 1.632348 1_555
O29 Si0 1.611109 1_555
O30 Si2 1.627495 1_455
O30 Sr1 2.894763 1_555
O31 Si0 1.627495 1_555
O31 Sr0 2.894763 1_555
