# generated using pymatgen
data_SiO2
_symmetry_space_group_name_H-M   'P 1'
_cell_length_a   12.88428465
_cell_length_b   12.88428465
_cell_length_c   3.88457700
_cell_angle_alpha   90.00000000
_cell_angle_beta   90.00000000
_cell_angle_gamma   120.00000332
_symmetry_Int_Tables_number   1
_chemical_formula_structural   SiO2
_chemical_formula_sum   'Si12 O24'
_cell_volume   558.46373101
_cell_formula_units_Z   12
loop_
 _symmetry_equiv_pos_site_id
 _symmetry_equiv_pos_as_xyz
  1  'x, y, z'
loop_
 _atom_site_type_symbol
 _atom_site_label
 _atom_site_symmetry_multiplicity
 _atom_site_fract_x
 _atom_site_fract_y
 _atom_site_fract_z
 _atom_site_occupancy
  Si  Si0  1  0.57071100  0.90504000  0.84546500  1
  Si  Si1  1  0.66567100  0.57071100  0.84546500  1
  Si  Si2  1  0.90504000  0.33432900  0.84546500  1
  Si  Si3  1  0.33432900  0.42928900  0.84546500  1
  Si  Si4  1  0.66567100  0.09496000  0.15453500  1
  Si  Si5  1  0.57071100  0.66567100  0.15453500  1
  Si  Si6  1  0.33432900  0.90504000  0.15453500  1
  Si  Si7  1  0.42928900  0.09496000  0.84546500  1
  Si  Si8  1  0.09496000  0.66567100  0.84546500  1
  Si  Si9  1  0.90504000  0.57071100  0.15453500  1
  Si  Si10  1  0.42928900  0.33432900  0.15453500  1
  Si  Si11  1  0.09496000  0.42928900  0.15453500  1
  O  O0  1  0.00000000  0.29624400  0.00000000  1
  O  O1  1  0.70375600  0.00000000  0.00000000  1
  O  O2  1  0.29624400  0.29624400  0.00000000  1
  O  O3  1  0.55673700  0.77836900  0.00000000  1
  O  O4  1  0.40198800  0.00000000  0.50000000  1
  O  O5  1  0.44326300  0.22163100  0.00000000  1
  O  O6  1  0.77836900  0.22163100  0.00000000  1
  O  O7  1  0.88093200  0.44046600  0.00000000  1
  O  O8  1  0.55953400  0.44046600  0.00000000  1
  O  O9  1  0.22163100  0.77836900  0.00000000  1
  O  O10  1  0.00000000  0.40198800  0.50000000  1
  O  O11  1  0.59801200  0.59801200  0.50000000  1
  O  O12  1  0.29624400  0.00000000  0.00000000  1
  O  O13  1  0.22163100  0.44326300  0.00000000  1
  O  O14  1  0.59801200  0.00000000  0.50000000  1
  O  O15  1  0.55953400  0.11906800  0.00000000  1
  O  O16  1  0.40198800  0.40198800  0.50000000  1
  O  O17  1  0.70375600  0.70375600  0.00000000  1
  O  O18  1  0.44046600  0.55953400  0.00000000  1
  O  O19  1  0.00000000  0.59801200  0.50000000  1
  O  O20  1  0.44046600  0.88093200  0.00000000  1
  O  O21  1  0.77836900  0.55673700  0.00000000  1
  O  O22  1  0.11906800  0.55953400  0.00000000  1
  O  O23  1  0.00000000  0.70375600  0.00000000  1
loop_
_geom_bond_atom_site_label_1
_geom_bond_atom_site_label_2
_geom_bond_distance
_geom_bond_site_symmetry_2
O0 Si11 1.642694 1_555
O0 Si2 1.642694 1_454
O1 Si0 1.642694 1_544
O1 Si4 1.642694 1_555
O2 Si3 1.642694 1_554
O2 Si10 1.642694 1_555
O3 Si0 1.662099 1_554
O3 Si5 1.662111 1_555
O4 Si6 1.729514 1_545
O4 Si7 1.729514 1_555
O5 Si7 1.662099 1_554
O5 Si10 1.662111 1_555
O6 Si2 1.662103 1_554
O6 Si4 1.662103 1_555
O7 Si9 1.658814 1_555
O7 Si2 1.658814 1_554
O8 Si1 1.658814 1_554
O8 Si10 1.658814 1_555
O9 Si8 1.662103 1_554
O9 Si6 1.662103 1_555
O10 Si2 1.729514 1_455
O10 Si11 1.729514 1_555
O11 Si5 1.729514 1_555
O11 Si1 1.729514 1_555
O12 Si7 1.642694 1_554
O12 Si6 1.642694 1_545
O13 Si11 1.662099 1_555
O13 Si3 1.662111 1_554
O14 Si4 1.729514 1_555
O14 Si0 1.729514 1_545
O15 Si7 1.658814 1_554
O15 Si4 1.658814 1_555
O16 Si10 1.729514 1_555
O16 Si3 1.729514 1_555
O17 Si1 1.642694 1_554
O17 Si5 1.642694 1_555
O18 Si5 1.658814 1_555
O18 Si3 1.658814 1_554
O19 Si8 1.729514 1_555
O19 Si9 1.729514 1_455
O20 Si0 1.658814 1_554
O20 Si6 1.658814 1_555
O21 Si9 1.662099 1_555
O21 Si1 1.662111 1_554
O22 Si11 1.658814 1_555
O22 Si8 1.658814 1_554
O23 Si9 1.642694 1_455
O23 Si8 1.642694 1_554
