# generated using pymatgen
data_Al2Si2H4O9
_symmetry_space_group_name_H-M   'P 1'
_cell_length_a   5.21297900
_cell_length_b   7.47878339
_cell_length_c   9.05154901
_cell_angle_alpha   91.78713575
_cell_angle_beta   89.72805834
_cell_angle_gamma   104.97455313
_symmetry_Int_Tables_number   1
_chemical_formula_structural   Al2Si2H4O9
_chemical_formula_sum   'Al4 Si4 H8 O18'
_cell_volume   340.73865155
_cell_formula_units_Z   2
loop_
 _symmetry_equiv_pos_site_id
 _symmetry_equiv_pos_as_xyz
  1  'x, y, z'
loop_
 _atom_site_type_symbol
 _atom_site_label
 _atom_site_symmetry_multiplicity
 _atom_site_fract_x
 _atom_site_fract_y
 _atom_site_fract_z
 _atom_site_occupancy
  Al  Al0  1  0.64062600  0.54279300  0.50707400  1
  Al  Al1  1  0.64444300  0.54173700  0.17126100  1
  Al  Al2  1  0.13710700  0.53977700  0.00738700  1
  Al  Al3  1  0.14796300  0.54565300  0.67133900  1
  Si  Si0  1  0.94100600  0.92786500  0.66278200  1
  Si  Si1  1  0.92775000  0.92455400  0.33413000  1
  Si  Si2  1  0.44198800  0.92520200  0.16241600  1
  Si  Si3  1  0.42623600  0.92574700  0.83422300  1
  H  H0  1  0.79517200  0.69005000  0.93955300  1
  H  H1  1  0.87955100  0.28801700  0.82849500  1
  H  H2  1  0.89927400  0.29274600  0.49621400  1
  H  H3  1  0.88817900  0.28631800  0.18331200  1
  H  H4  1  0.30439700  0.70468700  0.44219700  1
  H  H5  1  0.38341500  0.28590700  0.33241800  1
  H  H6  1  0.38623600  0.28514500  0.00177600  1
  H  H7  1  0.39493900  0.29272100  0.68607100  1
  O  O0  1  0.88971300  0.70486000  0.64796700  1
  O  O1  1  0.81548700  0.70183600  0.33816900  1
  O  O2  1  0.93949600  0.02075400  0.50074600  1
  O  O3  1  0.72762100  0.99784100  0.76855600  1
  O  O4  1  0.73670000  0.01895000  0.23559500  1
  O  O5  1  0.38733900  0.70198600  0.14758500  1
  O  O6  1  0.31642300  0.70288000  0.83878300  1
  O  O7  1  0.43766600  0.01999800  0.00160600  1
  O  O8  1  0.23043000  0.99464400  0.26997000  1
  O  O9  1  0.23421000  0.02147200  0.73763400  1
  O  O10  1  0.88730300  0.69013800  0.03296100  1
  O  O11  1  0.98386000  0.41589000  0.83431400  1
  O  O12  1  0.90316500  0.41786500  0.53014600  1
  O  O13  1  0.89596600  0.40590700  0.14208900  1
  O  O14  1  0.39354600  0.69553100  0.53479000  1
  O  O15  1  0.48370400  0.41478200  0.33595000  1
  O  O16  1  0.39761400  0.41316200  0.03087700  1
  O  O17  1  0.40047300  0.41058100  0.64261300  1
loop_
_geom_bond_atom_site_label_1
_geom_bond_atom_site_label_2
_geom_bond_distance
_geom_bond_site_symmetry_2
Al0 O12 1.861541 1_555
Al0 O17 1.863193 1_555
Al0 O15 1.870761 1_555
Al0 O14 1.940663 1_555
Al0 O0 1.971681 1_555
Al0 O1 2.030511 1_555
Al1 O13 1.867934 1_555
Al1 O15 1.868436 1_555
Al1 O16 1.869450 1_555
Al1 O10 1.935759 1_555
Al1 O1 1.964525 1_555
Al1 O5 2.031609 1_555
Al2 O16 1.861703 1_555
Al2 O13 1.865576 1_455
Al2 O11 1.868062 1_454
Al2 O10 1.936897 1_455
Al2 O5 1.971184 1_555
Al2 O6 2.050394 1_554
Al3 O12 1.866607 1_455
Al3 O17 1.867706 1_555
Al3 O11 1.870310 1_455
Al3 O14 1.937226 1_555
Al3 O6 1.954181 1_555
Al3 O0 2.030182 1_455
H0 O10 0.974254 1_556
H1 O11 0.970269 1_555
H2 O12 0.970914 1_555
H3 O13 0.970928 1_555
H4 O14 0.973044 1_555
H5 O15 0.970127 1_555
H6 O16 0.971911 1_555
H7 O17 0.969998 1_555
O0 Si0 1.620798 1_555
O1 Si1 1.618052 1_555
O2 Si0 1.643257 1_545
O2 Si1 1.645074 1_545
O3 Si3 1.638830 1_555
O3 Si0 1.639323 1_555
O4 Si1 1.642198 1_545
O4 Si2 1.647625 1_545
O5 Si2 1.620691 1_555
O6 Si3 1.618185 1_555
O7 Si2 1.641576 1_545
O7 Si3 1.645723 1_544
O8 Si1 1.638462 1_455
O8 Si2 1.639515 1_555
O9 Si3 1.642144 1_545
O9 Si0 1.647004 1_445
