# generated using pymatgen
data_CaH12CO9
_symmetry_space_group_name_H-M   'P 1'
_cell_length_a   6.07537669
_cell_length_b   6.07537669
_cell_length_c   10.98610495
_cell_angle_alpha   76.25947698
_cell_angle_beta   76.25947698
_cell_angle_gamma   86.56445141
_symmetry_Int_Tables_number   1
_chemical_formula_structural   CaH12CO9
_chemical_formula_sum   'Ca2 H24 C2 O18'
_cell_volume   382.61915205
_cell_formula_units_Z   2
loop_
 _symmetry_equiv_pos_site_id
 _symmetry_equiv_pos_as_xyz
  1  'x, y, z'
loop_
 _atom_site_type_symbol
 _atom_site_label
 _atom_site_symmetry_multiplicity
 _atom_site_fract_x
 _atom_site_fract_y
 _atom_site_fract_z
 _atom_site_occupancy
  Ca  Ca0  1  0.85853100  0.14146900  0.25000000  1
  Ca  Ca1  1  0.14146900  0.85853100  0.75000000  1
  H  H0  1  0.74158300  0.11972400  0.99911900  1
  H  H1  1  0.88027600  0.25841700  0.50088100  1
  H  H2  1  0.25841700  0.88027600  0.00088100  1
  H  H3  1  0.11972400  0.74158300  0.49911900  1
  H  H4  1  0.51385800  0.18003900  0.09320500  1
  H  H5  1  0.81996100  0.48614200  0.40679500  1
  H  H6  1  0.48614200  0.81996100  0.90679500  1
  H  H7  1  0.18003900  0.51385800  0.59320500  1
  H  H8  1  0.53660800  0.72652800  0.35022000  1
  H  H9  1  0.27347200  0.46339200  0.14978000  1
  H  H10  1  0.46339200  0.27347200  0.64978000  1
  H  H11  1  0.72652800  0.53660800  0.85022000  1
  H  H12  1  0.60447600  0.77751300  0.47348300  1
  H  H13  1  0.22248700  0.39552400  0.02651700  1
  H  H14  1  0.39552400  0.22248700  0.52651700  1
  H  H15  1  0.77751300  0.60447600  0.97348300  1
  H  H16  1  0.33887100  0.10032400  0.35666200  1
  H  H17  1  0.89967600  0.66112900  0.14333800  1
  H  H18  1  0.66112900  0.89967600  0.64333800  1
  H  H19  1  0.10032400  0.33887100  0.85666200  1
  H  H20  1  0.38734500  0.36249100  0.33293100  1
  H  H21  1  0.63750900  0.61265500  0.16706900  1
  H  H22  1  0.61265500  0.63750900  0.66706900  1
  H  H23  1  0.36249100  0.38734500  0.83293100  1
  C  C0  1  0.20297900  0.79702100  0.25000000  1
  C  C1  1  0.79702100  0.20297900  0.75000000  1
  O  O0  1  0.35886700  0.64113300  0.25000000  1
  O  O1  1  0.64113300  0.35886700  0.75000000  1
  O  O2  1  0.09319500  0.84747800  0.15861800  1
  O  O3  1  0.15252200  0.90680500  0.34138200  1
  O  O4  1  0.90680500  0.15252200  0.84138200  1
  O  O5  1  0.84747800  0.09319500  0.65861800  1
  O  O6  1  0.66247500  0.10273600  0.09126800  1
  O  O7  1  0.89726400  0.33752500  0.40873200  1
  O  O8  1  0.33752500  0.89726400  0.90873200  1
  O  O9  1  0.10273600  0.66247500  0.59126800  1
  O  O10  1  0.66588100  0.76095400  0.38321000  1
  O  O11  1  0.23904600  0.33411900  0.11679000  1
  O  O12  1  0.33411900  0.23904600  0.61679000  1
  O  O13  1  0.76095400  0.66588100  0.88321000  1
  O  O14  1  0.44740200  0.20959500  0.36529200  1
  O  O15  1  0.79040500  0.55259800  0.13470800  1
  O  O16  1  0.55259800  0.79040500  0.63470800  1
  O  O17  1  0.20959500  0.44740200  0.86529200  1
loop_
_geom_bond_atom_site_label_1
_geom_bond_atom_site_label_2
_geom_bond_distance
_geom_bond_site_symmetry_2
Ca0 O6 2.393825 1_555
Ca0 O7 2.393825 1_555
Ca0 O3 2.469272 1_645
Ca0 O2 2.469272 1_645
Ca0 O15 2.576170 1_555
Ca0 O14 2.576170 1_555
Ca0 O10 2.599865 1_545
Ca0 O11 2.599865 1_655
Ca1 O9 2.393825 1_555
Ca1 O8 2.393825 1_555
Ca1 O4 2.469272 1_465
Ca1 O5 2.469272 1_465
Ca1 O17 2.576170 1_555
Ca1 O16 2.576170 1_555
Ca1 O13 2.599865 1_455
Ca1 O12 2.599865 1_565
H0 O6 0.995833 1_556
H1 O7 0.995833 1_555
H2 O8 0.995833 1_554
H3 O9 0.995833 1_555
H4 O6 0.990481 1_555
H5 O7 0.990481 1_555
H6 O8 0.990481 1_555
H7 O9 0.990481 1_555
H8 O10 0.991385 1_555
H9 O11 0.991385 1_555
H10 O12 0.991385 1_555
H11 O13 0.991385 1_555
H12 O10 0.999999 1_555
H13 O11 0.999999 1_555
H14 O12 0.999999 1_555
H15 O13 0.999999 1_555
H16 O14 0.998262 1_555
H17 O15 0.998262 1_555
H18 O16 0.998262 1_555
H19 O17 0.998262 1_555
H20 O14 0.993228 1_555
H21 O15 0.993228 1_555
H22 O16 0.993228 1_555
H23 O17 0.993228 1_555
C0 O0 1.298620 1_555
C0 O3 1.301577 1_555
C0 O2 1.301577 1_555
C1 O1 1.298620 1_555
C1 O4 1.301577 1_555
C1 O5 1.301577 1_555
