# generated using pymatgen
data_Ho2Mn3Si5
_symmetry_space_group_name_H-M   'P 1'
_cell_length_a   10.59015134
_cell_length_b   10.59015134
_cell_length_c   5.43738007
_cell_angle_alpha   90.00000000
_cell_angle_beta   90.00000000
_cell_angle_gamma   90.00000000
_symmetry_Int_Tables_number   1
_chemical_formula_structural   Ho2Mn3Si5
_chemical_formula_sum   'Ho8 Mn12 Si20'
_cell_volume   609.80927283
_cell_formula_units_Z   4
loop_
 _symmetry_equiv_pos_site_id
 _symmetry_equiv_pos_as_xyz
  1  'x, y, z'
loop_
 _atom_site_type_symbol
 _atom_site_label
 _atom_site_symmetry_multiplicity
 _atom_site_fract_x
 _atom_site_fract_y
 _atom_site_fract_z
 _atom_site_occupancy
  Ho  Ho0  1  0.23800843  0.07489425  0.00000000  1
  Ho  Ho1  1  0.07489425  0.76199157  0.00000000  1
  Ho  Ho2  1  0.92510575  0.23800843  0.00000000  1
  Ho  Ho3  1  0.76199157  0.92510575  0.00000000  1
  Ho  Ho4  1  0.26199157  0.57489425  0.50000000  1
  Ho  Ho5  1  0.73800843  0.42510575  0.50000000  1
  Ho  Ho6  1  0.57489425  0.73800843  0.50000000  1
  Ho  Ho7  1  0.42510575  0.26199157  0.50000000  1
  Mn  Mn0  1  0.50000000  -0.00000000  0.25000000  1
  Mn  Mn1  1  -0.00000000  0.50000000  0.25000000  1
  Mn  Mn2  1  0.50000000  -0.00000000  0.75000000  1
  Mn  Mn3  1  -0.00000000  0.50000000  0.75000000  1
  Mn  Mn4  1  0.36023559  0.38184151  0.00000000  1
  Mn  Mn5  1  0.38184151  0.63976441  0.00000000  1
  Mn  Mn6  1  0.61815849  0.36023559  0.00000000  1
  Mn  Mn7  1  0.63976441  0.61815849  0.00000000  1
  Mn  Mn8  1  0.13976441  0.88184151  0.50000000  1
  Mn  Mn9  1  0.86023559  0.11815849  0.50000000  1
  Mn  Mn10  1  0.88184151  0.86023559  0.50000000  1
  Mn  Mn11  1  0.11815849  0.13976441  0.50000000  1
  Si  Si0  1  -0.00000000  -0.00000000  0.23865382  1
  Si  Si1  1  0.50000000  0.50000000  0.26134618  1
  Si  Si2  1  -0.00000000  -0.00000000  0.76134618  1
  Si  Si3  1  0.50000000  0.50000000  0.73865382  1
  Si  Si4  1  0.67567511  0.17567511  0.25000000  1
  Si  Si5  1  0.17567511  0.32432489  0.25000000  1
  Si  Si6  1  0.82432489  0.67567511  0.25000000  1
  Si  Si7  1  0.32432489  0.82432489  0.25000000  1
  Si  Si8  1  0.32432489  0.82432489  0.75000000  1
  Si  Si9  1  0.82432489  0.67567511  0.75000000  1
  Si  Si10  1  0.17567511  0.32432489  0.75000000  1
  Si  Si11  1  0.67567511  0.17567511  0.75000000  1
  Si  Si12  1  0.47767792  0.18432363  0.00000000  1
  Si  Si13  1  0.18432363  0.52232208  0.00000000  1
  Si  Si14  1  0.81567637  0.47767792  0.00000000  1
  Si  Si15  1  0.52232208  0.81567637  0.00000000  1
  Si  Si16  1  0.02232208  0.68432363  0.50000000  1
  Si  Si17  1  0.97767792  0.31567637  0.50000000  1
  Si  Si18  1  0.68432363  0.97767792  0.50000000  1
  Si  Si19  1  0.31567637  0.02232208  0.50000000  1
loop_
_geom_bond_atom_site_label_1
_geom_bond_atom_site_label_2
_geom_bond_distance
_geom_bond_site_symmetry_2
Ho0 Si12 2.790183 1_555
Ho0 Si19 2.894439 1_554
Ho0 Si19 2.894439 1_555
Ho0 Si0 2.943828 1_555
Ho0 Si2 2.943828 1_554
Ho0 Si5 3.043212 1_555
Ho0 Si10 3.043212 1_554
Ho0 Mn11 3.078013 1_555
Ho0 Mn11 3.078013 1_554
Ho0 Si8 3.118465 1_544
Ho0 Si7 3.118465 1_545
Ho0 Mn2 3.189814 1_554
Ho0 Mn0 3.189814 1_555
Ho1 Si13 2.790183 1_555
Ho1 Si16 2.894439 1_555
Ho1 Si16 2.894439 1_554
Ho1 Si0 2.943828 1_565
Ho1 Si2 2.943828 1_564
Ho1 Si8 3.043212 1_554
Ho1 Si7 3.043212 1_555
Ho1 Mn8 3.078013 1_555
Ho1 Mn8 3.078013 1_554
Ho1 Si9 3.118465 1_454
Ho1 Si6 3.118465 1_455
Ho1 Mn1 3.189814 1_555
Ho1 Mn3 3.189814 1_554
Ho2 Si14 2.790183 1_555
Ho2 Si17 2.894439 1_554
Ho2 Si17 2.894439 1_555
Ho2 Si0 2.943828 1_655
Ho2 Si2 2.943828 1_654
Ho2 Si11 3.043212 1_554
Ho2 Si4 3.043212 1_555
Ho2 Mn9 3.078013 1_555
Ho2 Mn9 3.078013 1_554
Ho2 Si10 3.118465 1_654
Ho2 Si5 3.118465 1_655
Ho2 Mn1 3.189814 1_655
Ho2 Mn3 3.189814 1_654
Ho3 Si15 2.790183 1_555
Ho3 Si18 2.894439 1_555
Ho3 Si18 2.894439 1_554
Ho3 Si2 2.943828 1_664
Ho3 Si0 2.943828 1_665
Ho3 Si9 3.043212 1_554
Ho3 Si6 3.043212 1_555
Ho3 Mn10 3.078013 1_554
Ho3 Mn10 3.078013 1_555
Ho3 Si4 3.118465 1_565
Ho3 Si11 3.118465 1_564
Ho3 Mn2 3.189814 1_564
Ho3 Mn0 3.189814 1_565
Ho4 Si16 2.790183 1_555
Ho4 Si13 2.894439 1_555
Ho4 Si13 2.894439 1_556
Ho4 Si3 2.943828 1_555
Ho4 Si1 2.943828 1_555
Ho4 Si8 3.043212 1_555
Ho4 Si7 3.043212 1_555
Ho4 Mn5 3.078013 1_555
Ho4 Mn5 3.078013 1_556
Ho4 Si5 3.118465 1_555
Ho4 Si10 3.118465 1_555
Ho4 Mn3 3.189814 1_555
Ho4 Mn1 3.189814 1_555
Ho5 Si17 2.790183 1_555
Ho5 Si14 2.894439 1_556
Ho5 Si14 2.894439 1_555
Ho5 Si3 2.943828 1_555
Ho5 Si1 2.943828 1_555
Ho5 Si4 3.043212 1_555
Ho5 Si11 3.043212 1_555
Ho5 Mn6 3.078013 1_555
Ho5 Mn6 3.078013 1_556
Ho5 Si6 3.118465 1_555
Ho5 Si9 3.118465 1_555
Ho5 Mn3 3.189814 1_655
Ho5 Mn1 3.189814 1_655
Ho6 Si18 2.790183 1_555
Ho6 Si15 2.894439 1_555
Ho6 Si15 2.894439 1_556
Ho6 Si1 2.943828 1_555
Ho6 Si3 2.943828 1_555
Ho6 Si6 3.043212 1_555
Ho6 Si9 3.043212 1_555
Ho6 Mn7 3.078013 1_556
Ho6 Mn7 3.078013 1_555
Ho6 Si7 3.118465 1_555
Ho6 Si8 3.118465 1_555
Ho6 Mn2 3.189814 1_565
Ho6 Mn0 3.189814 1_565
Ho7 Si19 2.790183 1_555
Ho7 Si12 2.894439 1_555
Ho7 Si12 2.894439 1_556
Ho7 Si3 2.943828 1_555
Ho7 Si1 2.943828 1_555
Ho7 Si5 3.043212 1_555
Ho7 Si10 3.043212 1_555
Ho7 Mn4 3.078013 1_555
Ho7 Mn4 3.078013 1_556
Ho7 Si11 3.118465 1_555
Ho7 Si4 3.118465 1_555
Ho7 Mn2 3.189814 1_555
Ho7 Mn0 3.189814 1_555
Mn0 Si18 2.390411 1_545
Mn0 Si15 2.390411 1_545
Mn0 Si12 2.390411 1_555
Mn0 Si19 2.390411 1_555
Mn0 Si4 2.631040 1_555
Mn0 Si7 2.631040 1_545
Mn1 Si16 2.390411 1_555
Mn1 Si14 2.390411 1_455
Mn1 Si17 2.390411 1_455
Mn1 Si13 2.390411 1_555
Mn1 Si5 2.631040 1_555
Mn1 Si6 2.631040 1_455
Mn2 Si15 2.390411 1_546
Mn2 Si18 2.390411 1_545
Mn2 Si19 2.390411 1_555
Mn2 Si12 2.390411 1_556
Mn2 Si11 2.631040 1_555
Mn2 Si8 2.631040 1_545
Mn3 Si16 2.390411 1_555
Mn3 Si14 2.390411 1_456
Mn3 Si17 2.390411 1_455
Mn3 Si13 2.390411 1_556
Mn3 Si10 2.631040 1_555
Mn3 Si9 2.631040 1_455
Mn4 Si13 2.384074 1_555
Mn4 Si1 2.403314 1_555
Mn4 Si3 2.403314 1_554
Mn4 Si12 2.433570 1_555
Mn4 Si10 2.457437 1_554
Mn4 Si5 2.457437 1_555
Mn5 Si15 2.384074 1_555
Mn5 Si3 2.403314 1_554
Mn5 Si1 2.403314 1_555
Mn5 Si13 2.433570 1_555
Mn5 Si8 2.457437 1_554
Mn5 Si7 2.457437 1_555
Mn6 Si12 2.384074 1_555
Mn6 Si1 2.403314 1_555
Mn6 Si3 2.403314 1_554
Mn6 Si14 2.433570 1_555
Mn6 Si11 2.457437 1_554
Mn6 Si4 2.457437 1_555
Mn7 Si14 2.384074 1_555
Mn7 Si3 2.403314 1_554
Mn7 Si1 2.403314 1_555
Mn7 Si15 2.433570 1_555
Mn7 Si6 2.457437 1_555
Mn7 Si9 2.457437 1_554
Mn8 Si19 2.384074 1_565
Mn8 Si0 2.403314 1_565
Mn8 Si2 2.403314 1_565
Mn8 Si16 2.433570 1_555
Mn8 Si7 2.457437 1_555
Mn8 Si8 2.457437 1_555
Mn9 Si18 2.384074 1_545
Mn9 Si0 2.403314 1_655
Mn9 Si2 2.403314 1_655
Mn9 Si17 2.433570 1_555
Mn9 Si4 2.457437 1_555
Mn9 Si11 2.457437 1_555
Mn10 Si16 2.384074 1_655
Mn10 Si0 2.403314 1_665
Mn10 Si2 2.403314 1_665
Mn10 Si18 2.433570 1_555
Mn10 Si9 2.457437 1_555
Mn10 Si6 2.457437 1_555
Mn11 Si17 2.384074 1_455
Mn11 Si0 2.403314 1_555
Mn11 Si2 2.403314 1_555
Mn11 Si19 2.433570 1_555
Mn11 Si10 2.457437 1_555
Mn11 Si5 2.457437 1_555
Si0 Si2 2.595303 1_554
Si1 Si3 2.595303 1_555
Si6 Si9 2.718690 1_555
Si6 Si9 2.718690 1_554
Si7 Si8 2.718690 1_554
Si7 Si8 2.718690 1_555
Si10 Si17 2.500572 1_455
Si10 Si13 2.500572 1_556
Si10 Si5 2.718690 1_556
Si10 Si5 2.718690 1_555
Si11 Si18 2.500572 1_545
Si11 Si12 2.500572 1_556
Si11 Si4 2.718690 1_555
Si11 Si4 2.718690 1_556
Si12 Si4 2.500572 1_555
Si13 Si5 2.500572 1_555
Si14 Si6 2.500572 1_555
Si14 Si9 2.500572 1_554
Si15 Si7 2.500572 1_555
Si15 Si8 2.500572 1_554
Si16 Si6 2.500572 1_455
Si16 Si9 2.500572 1_455
Si17 Si5 2.500572 1_655
Si18 Si4 2.500572 1_565
Si19 Si8 2.500572 1_545
Si19 Si7 2.500572 1_545
