# generated using pymatgen
data_Ba2CoMoO6
_symmetry_space_group_name_H-M   'P 1'
_cell_length_a   5.73464298
_cell_length_b   9.99735468
_cell_length_c   5.84862990
_cell_angle_alpha   91.28313521
_cell_angle_beta   119.35313752
_cell_angle_gamma   73.33532130
_symmetry_Int_Tables_number   1
_chemical_formula_structural   Ba2CoMoO6
_chemical_formula_sum   'Ba4 Co2 Mo2 O12'
_cell_volume   277.16717210
_cell_formula_units_Z   2
loop_
 _symmetry_equiv_pos_site_id
 _symmetry_equiv_pos_as_xyz
  1  'x, y, z'
loop_
 _atom_site_type_symbol
 _atom_site_label
 _atom_site_symmetry_multiplicity
 _atom_site_fract_x
 _atom_site_fract_y
 _atom_site_fract_z
 _atom_site_occupancy
  Ba  Ba0  1  0.24998000  0.12504400  0.62503700  1
  Ba  Ba1  1  0.24998000  0.62504400  0.12503700  1
  Ba  Ba2  1  0.75002000  0.37495600  0.87496300  1
  Ba  Ba3  1  0.75002000  0.87495600  0.37496300  1
  Co  Co0  1  0.00000000  0.50000000  0.50000000  1
  Co  Co1  1  0.00000000  0.00000000  0.00000000  1
  Mo  Mo0  1  0.50000000  0.75000000  0.75000000  1
  Mo  Mo1  1  0.50000000  0.25000000  0.25000000  1
  O  O0  1  0.73227600  0.63384100  0.09844700  1
  O  O1  1  0.73227600  0.13384100  0.59844600  1
  O  O2  1  0.26772400  0.86615900  0.40155400  1
  O  O3  1  0.26772400  0.36615900  0.90155300  1
  O  O4  1  0.74193000  0.87077200  0.87084100  1
  O  O5  1  0.74193000  0.37077200  0.37084100  1
  O  O6  1  0.74157500  0.62905000  0.62904700  1
  O  O7  1  0.74157500  0.12905000  0.12904700  1
  O  O8  1  0.25842500  0.87095000  0.87095300  1
  O  O9  1  0.25842500  0.37095000  0.37095300  1
  O  O10  1  0.25807000  0.62922800  0.62915900  1
  O  O11  1  0.25807000  0.12922800  0.12915900  1
loop_
_geom_bond_atom_site_label_1
_geom_bond_atom_site_label_2
_geom_bond_distance
_geom_bond_site_symmetry_2
Ba0 O3 2.870738 1_555
Ba0 O1 2.871127 1_555
Ba0 O1 2.871268 1_455
Ba0 O2 2.871449 1_545
Ba0 O5 2.923310 1_455
Ba0 O8 2.923819 1_545
Ba0 O7 2.924169 1_556
Ba0 O11 2.924647 1_555
Ba0 O9 2.925219 1_555
Ba0 O11 2.925506 1_556
Ba0 O4 2.926093 1_545
Ba0 O7 2.926345 1_455
Ba1 O2 2.870742 1_555
Ba1 O0 2.871124 1_555
Ba1 O0 2.871270 1_455
Ba1 O3 2.871452 1_554
Ba1 O4 2.923310 1_454
Ba1 O9 2.923819 1_555
Ba1 O6 2.924169 1_555
Ba1 O10 2.924647 1_554
Ba1 O8 2.925219 1_554
Ba1 O10 2.925506 1_555
Ba1 O5 2.926093 1_555
Ba1 O6 2.926345 1_454
Ba2 O1 2.870742 1_555
Ba2 O3 2.871124 1_555
Ba2 O3 2.871270 1_655
Ba2 O0 2.871452 1_556
Ba2 O11 2.923310 1_656
Ba2 O6 2.923819 1_555
Ba2 O9 2.924169 1_555
Ba2 O5 2.924647 1_556
Ba2 O7 2.925219 1_556
Ba2 O5 2.925506 1_555
Ba2 O10 2.926093 1_555
Ba2 O9 2.926345 1_656
Ba3 O0 2.870738 1_555
Ba3 O2 2.871127 1_555
Ba3 O2 2.871268 1_655
Ba3 O1 2.871449 1_565
Ba3 O10 2.923310 1_655
Ba3 O7 2.923819 1_565
Ba3 O8 2.924169 1_554
Ba3 O4 2.924647 1_555
Ba3 O6 2.925219 1_555
Ba3 O4 2.925506 1_554
Ba3 O11 2.926093 1_565
Ba3 O8 2.926345 1_655
Co0 O6 2.094462 1_455
Co0 O9 2.094462 1_555
Co0 O10 2.094477 1_555
Co0 O5 2.094477 1_455
Co0 O0 2.256256 1_455
Co0 O3 2.256256 1_555
Co1 O8 2.094462 1_544
Co1 O7 2.094462 1_455
Co1 O11 2.094477 1_555
Co1 O4 2.094477 1_444
Co1 O1 2.256261 1_454
Co1 O2 2.256261 1_545
Mo0 O2 1.957937 1_555
Mo0 O0 1.957942 1_556
Mo0 O4 1.960454 1_555
Mo0 O10 1.960454 1_555
Mo0 O8 1.960471 1_555
Mo0 O6 1.960471 1_555
Mo1 O1 1.957937 1_555
Mo1 O3 1.957942 1_554
Mo1 O11 1.960454 1_555
Mo1 O5 1.960454 1_555
Mo1 O9 1.960471 1_555
Mo1 O7 1.960471 1_555
