# generated using pymatgen
data_TbMoO4F
_symmetry_space_group_name_H-M   'P 1'
_cell_length_a   12.48580000
_cell_length_b   5.28715500
_cell_length_c   6.76100181
_cell_angle_alpha   66.96766235
_cell_angle_beta   90.00000000
_cell_angle_gamma   90.00000000
_symmetry_Int_Tables_number   1
_chemical_formula_structural   TbMoO4F
_chemical_formula_sum   'Tb4 Mo4 O16 F4'
_cell_volume   410.74418591
_cell_formula_units_Z   4
loop_
 _symmetry_equiv_pos_site_id
 _symmetry_equiv_pos_as_xyz
  1  'x, y, z'
loop_
 _atom_site_type_symbol
 _atom_site_label
 _atom_site_symmetry_multiplicity
 _atom_site_fract_x
 _atom_site_fract_y
 _atom_site_fract_z
 _atom_site_occupancy
  Tb  Tb0  1  0.55154800  0.63878900  0.69987800  1
  Tb  Tb1  1  0.44845200  0.36121100  0.30012200  1
  Tb  Tb2  1  0.94845200  0.63878900  0.19987800  1
  Tb  Tb3  1  0.05154800  0.36121100  0.80012200  1
  Mo  Mo0  1  0.14325400  0.07813800  0.36999600  1
  Mo  Mo1  1  0.35674600  0.07813800  0.86999600  1
  Mo  Mo2  1  0.85674600  0.92186200  0.63000400  1
  Mo  Mo3  1  0.64325400  0.92186200  0.13000400  1
  O  O0  1  0.43098000  0.00466900  0.66297700  1
  O  O1  1  0.34709700  0.76224800  0.09174100  1
  O  O2  1  0.06543200  0.30780800  0.46141900  1
  O  O3  1  0.77666800  0.80729200  0.20511400  1
  O  O4  1  0.22333200  0.19270800  0.79488600  1
  O  O5  1  0.72333200  0.80729200  0.70511400  1
  O  O6  1  0.15290300  0.76224800  0.59174100  1
  O  O7  1  0.06902000  0.00466900  0.16297700  1
  O  O8  1  0.56543200  0.69219200  0.03858100  1
  O  O9  1  0.84709700  0.23775200  0.40825900  1
  O  O10  1  0.56902000  0.99533100  0.33702300  1
  O  O11  1  0.93098000  0.99533100  0.83702300  1
  O  O12  1  0.93456800  0.69219200  0.53858100  1
  O  O13  1  0.27666800  0.19270800  0.29488600  1
  O  O14  1  0.65290300  0.23775200  0.90825900  1
  O  O15  1  0.43456800  0.30780800  0.96141900  1
  F  F0  1  0.40236900  0.54699900  0.53547700  1
  F  F1  1  0.09763100  0.54699900  0.03547700  1
  F  F2  1  0.90236900  0.45300100  0.96452300  1
  F  F3  1  0.59763100  0.45300100  0.46452300  1
loop_
_geom_bond_atom_site_label_1
_geom_bond_atom_site_label_2
_geom_bond_distance
_geom_bond_site_symmetry_2
Mo0 O6 1.758486 1_545
Mo0 O13 1.777338 1_555
Mo0 O2 1.840667 1_555
Mo0 O7 1.842403 1_555
Mo1 O1 1.758486 1_546
Mo1 O4 1.777338 1_555
Mo1 O15 1.840667 1_555
Mo1 O0 1.842403 1_555
Mo2 O9 1.758486 1_565
Mo2 O5 1.777338 1_555
Mo2 O12 1.840667 1_555
Mo2 O11 1.842403 1_555
Mo3 O14 1.758486 1_564
Mo3 O3 1.777338 1_555
Mo3 O8 1.840667 1_555
Mo3 O10 1.842403 1_555
O0 Tb0 2.385987 1_545
O0 Tb1 2.449671 1_555
O1 Tb1 2.396810 1_555
O2 Tb3 2.420679 1_555
O2 Tb2 2.429214 1_455
O3 Tb2 2.328103 1_555
O4 Tb3 2.328103 1_555
O5 Tb0 2.328103 1_555
O6 Tb3 2.396810 1_555
O7 Tb2 2.385987 1_445
O7 Tb3 2.449671 1_554
O8 Tb0 2.420679 1_554
O8 Tb1 2.429214 1_555
O9 Tb2 2.396810 1_555
O10 Tb1 2.385987 1_565
O10 Tb0 2.449671 1_555
O11 Tb3 2.385987 1_665
O11 Tb2 2.449671 1_556
O12 Tb2 2.420679 1_555
O12 Tb3 2.429214 1_655
O13 Tb1 2.328103 1_555
O14 Tb0 2.396810 1_555
O15 Tb1 2.420679 1_556
O15 Tb0 2.429214 1_555
F0 Tb1 2.247461 1_555
F0 Tb0 2.315695 1_555
F1 Tb3 2.247461 1_554
F1 Tb2 2.315695 1_455
F2 Tb2 2.247461 1_556
F2 Tb3 2.315695 1_655
F3 Tb0 2.247461 1_555
F3 Tb1 2.315695 1_555
