# generated using pymatgen
data_Rb4Ti2P6Se25
_symmetry_space_group_name_H-M   'P 1'
_cell_length_a   26.57081701
_cell_length_b   19.51167386
_cell_length_c   18.70935447
_cell_angle_alpha   88.05835314
_cell_angle_beta   47.21482105
_cell_angle_gamma   44.72682581
_symmetry_Int_Tables_number   1
_chemical_formula_structural   Rb4Ti2P6Se25
_chemical_formula_sum   'Rb8 Ti4 P12 Se50'
_cell_volume   2480.61101865
_cell_formula_units_Z   2
loop_
 _symmetry_equiv_pos_site_id
 _symmetry_equiv_pos_as_xyz
  1  'x, y, z'
loop_
 _atom_site_type_symbol
 _atom_site_label
 _atom_site_symmetry_multiplicity
 _atom_site_fract_x
 _atom_site_fract_y
 _atom_site_fract_z
 _atom_site_occupancy
  Rb  Rb0  1  0.21308900  0.93414800  0.93322800  1
  Rb  Rb1  1  0.74234000  0.96855100  0.37138400  1
  Rb  Rb2  1  0.31585200  0.03691100  0.33046500  1
  Rb  Rb3  1  0.31677200  0.33046500  0.03691100  1
  Rb  Rb4  1  0.87861600  0.33227600  0.50766000  1
  Rb  Rb5  1  0.91953500  0.93322800  0.93414800  1
  Rb  Rb6  1  0.91772400  0.37138400  0.96855100  1
  Rb  Rb7  1  0.28144900  0.50766000  0.33227600  1
  Ti  Ti0  1  0.34544300  0.21775700  0.40680000  1
  Ti  Ti1  1  0.03224300  0.90455700  0.22000000  1
  Ti  Ti2  1  0.84320000  0.22000000  0.90455700  1
  Ti  Ti3  1  0.03000000  0.40680000  0.21775700  1
  P  P0  1  0.22875900  0.34090700  0.34222200  1
  P  P1  1  0.08811300  0.34222200  0.34090700  1
  P  P2  1  0.73693200  0.47530200  0.92834300  1
  P  P3  1  0.90909300  0.02124100  0.16188700  1
  P  P4  1  0.77469800  0.51306800  0.39057600  1
  P  P5  1  0.32165700  0.39057600  0.51306800  1
  P  P6  1  0.85942400  0.92834300  0.47530200  1
  P  P7  1  0.85641700  0.06774000  0.79211600  1
  P  P8  1  0.90777800  0.16188700  0.02124100  1
  P  P9  1  0.45788400  0.96627400  0.39358300  1
  P  P10  1  0.28372600  0.79211600  0.06774000  1
  P  P11  1  0.18226000  0.39358300  0.96627400  1
  Se  Se0  1  0.58285300  0.55842600  0.15782600  1
  Se  Se1  1  0.35793300  0.14206700  0.14206700  1
  Se  Se2  1  0.75685900  0.02151900  0.68917900  1
  Se  Se3  1  0.75150100  0.42706100  0.43987100  1
  Se  Se4  1  0.10078700  0.89028800  0.62226500  1
  Se  Se5  1  0.24365100  0.13855000  0.11122700  1
  Se  Se6  1  0.92114900  0.44089200  0.57434600  1
  Se  Se7  1  0.18828900  0.28411500  0.65003800  1
  Se  Se8  1  0.11145000  0.00634900  0.74342900  1
  Se  Se9  1  0.82293900  0.49849900  0.86843400  1
  Se  Se10  1  0.13877300  0.74342900  0.00634900  1
  Se  Se11  1  0.44796000  0.59684800  0.01611500  1
  Se  Se12  1  0.23388500  0.31092400  0.80204000  1
  Se  Se13  1  0.07406100  0.27237000  0.08333000  1
  Se  Se14  1  0.10793300  0.89206700  0.89206700  1
  Se  Se15  1  0.59996200  0.37244200  0.06171100  1
  Se  Se16  1  0.22848100  0.49314100  0.71755700  1
  Se  Se17  1  0.06361200  0.57434600  0.44089200  1
  Se  Se18  1  0.69157400  0.66714700  0.54910500  1
  Se  Se19  1  0.53244300  0.68917900  0.02151900  1
  Se  Se20  1  0.67342900  0.33025800  0.17551900  1
  Se  Se21  1  0.81012900  0.86843400  0.49849900  1
  Se  Se22  1  0.45531600  0.93203900  0.58288300  1
  Se  Se23  1  0.65315200  0.80204000  0.31092400  1
  Se  Se24  1  0.70089500  0.15782600  0.55842600  1
  Se  Se25  1  0.25539900  0.43153100  0.90733600  1
  Se  Se26  1  0.34266400  0.84426600  0.99460100  1
  Se  Se27  1  0.50657100  0.11122700  0.13855000  1
  Se  Se28  1  0.31796100  0.79468400  0.22023900  1
  Se  Se29  1  0.02976100  0.58288300  0.93203900  1
  Se  Se30  1  0.67565400  0.18638800  0.32885100  1
  Se  Se31  1  0.87755800  0.65003800  0.28411500  1
  Se  Se32  1  0.09217400  0.54910500  0.66714700  1
  Se  Se33  1  0.07448100  0.42920600  0.57657100  1
  Se  Se34  1  0.66711700  0.22023900  0.79468400  1
  Se  Se35  1  0.81846900  0.99460100  0.84426600  1
  Se  Se36  1  0.93907600  0.01611500  0.59684800  1
  Se  Se37  1  0.97763000  0.17593900  0.67976100  1
  Se  Se38  1  0.35971200  0.14921300  0.86334000  1
  Se  Se39  1  0.91974200  0.57657100  0.42920600  1
  Se  Se40  1  0.82079400  0.17551900  0.33025800  1
  Se  Se41  1  0.56082100  0.71755700  0.49314100  1
  Se  Se42  1  0.62773500  0.86334000  0.14921300  1
  Se  Se43  1  0.38666000  0.62226500  0.89028800  1
  Se  Se44  1  0.57023900  0.08333000  0.27237000  1
  Se  Se45  1  0.96588500  0.06171100  0.37244200  1
  Se  Se46  1  0.38156600  0.43987100  0.42706100  1
  Se  Se47  1  0.40573400  0.90733600  0.43153100  1
  Se  Se48  1  0.16667000  0.67976100  0.17593900  1
  Se  Se49  1  0.80910800  0.32885100  0.18638800  1
loop_
_geom_bond_atom_site_label_1
_geom_bond_atom_site_label_2
_geom_bond_distance
_geom_bond_site_symmetry_2
Rb0 Se26 3.591972 1_555
Rb0 Se49 3.592229 1_466
Rb0 Se3 3.661206 1_466
Rb0 Se3 3.664205 1_555
Rb0 Se40 3.665847 1_466
Rb0 Se43 3.790215 1_555
Rb0 Se41 3.814239 1_555
Rb0 Se14 3.911506 1_555
Rb1 Se30 3.580973 1_565
Rb1 Se21 3.636108 1_555
Rb1 Se25 3.655777 1_565
Rb1 Se25 3.662996 1_654
Rb1 Se31 3.897174 1_555
Rb1 Se10 3.930701 1_655
Rb2 Se47 3.591972 1_545
Rb2 Se6 3.592241 1_455
Rb2 Se9 3.661214 1_455
Rb2 Se9 3.664206 1_544
Rb2 Se33 3.665847 1_555
Rb2 Se42 3.790215 1_545
Rb2 Se19 3.814239 1_545
Rb2 Se1 3.911506 1_555
Rb3 Se25 3.591972 1_554
Rb3 Se17 3.592227 1_555
Rb3 Se21 3.661213 1_455
Rb3 Se21 3.664205 1_544
Rb3 Se39 3.665847 1_455
Rb3 Se38 3.790215 1_554
Rb3 Se2 3.814239 1_554
Rb3 Se1 3.911506 1_555
Rb4 Se6 3.580941 1_555
Rb4 Se3 3.636114 1_555
Rb4 Se26 3.655776 1_555
Rb4 Se26 3.663002 1_644
Rb4 Se45 3.897193 1_555
Rb4 Se5 3.930673 1_655
Rb5 Se35 3.591972 1_555
Rb5 Se30 3.592244 1_566
Rb5 Se46 3.661214 1_566
Rb5 Se46 3.664212 1_655
Rb5 Se20 3.665847 1_566
Rb5 Se4 3.790215 1_655
Rb5 Se16 3.814239 1_655
Rb5 Se14 3.911506 1_655
Rb6 Se49 3.580963 1_556
Rb6 Se9 3.636078 1_555
Rb6 Se47 3.655775 1_556
Rb6 Se47 3.662994 1_645
Rb6 Se7 3.897187 1_655
Rb6 Se8 3.930664 1_655
Rb7 Se17 3.580993 1_555
Rb7 Se46 3.636072 1_555
Rb7 Se35 3.655769 1_455
Rb7 Se35 3.662995 1_544
Rb7 Se15 3.897171 1_555
Rb7 Se27 3.930700 1_555
P0 Se17 2.138758 1_555
P0 Se27 2.243245 1_555
P0 Se33 2.248549 1_555
P0 Se1 2.336234 1_555
P1 Se6 2.138761 1_455
P1 Se5 2.243283 1_555
P1 Se39 2.248551 1_455
P1 Se1 2.336213 1_555
P2 Se9 2.153896 1_555
P2 Se0 2.232273 1_556
P2 Se37 2.236565 1_555
P2 Se19 2.320029 1_556
P3 Se30 2.138741 1_555
P3 Se10 2.243262 1_645
P3 Se40 2.248563 1_555
P3 Se14 2.336222 1_644
P4 Se3 2.153896 1_555
P4 Se18 2.232286 1_555
P4 Se13 2.236560 1_655
P4 Se41 2.320014 1_555
P5 Se46 2.153896 1_555
P5 Se32 2.232263 1_555
P5 Se44 2.236552 1_555
P5 Se16 2.320032 1_555
P6 Se21 2.153896 1_555
P6 Se24 2.232273 1_565
P6 Se48 2.236554 1_655
P6 Se2 2.320014 1_565
P7 Se35 2.149175 1_545
P7 Se15 2.234962 1_556
P7 Se4 2.239737 1_645
P7 Se36 2.321772 1_555
P8 Se49 2.138786 1_555
P8 Se8 2.243256 1_654
P8 Se20 2.248540 1_555
P8 Se14 2.336221 1_644
P9 Se47 2.149194 1_555
P9 Se7 2.234951 1_565
P9 Se42 2.239727 1_555
P9 Se23 2.321772 1_555
P10 Se26 2.149191 1_554
P10 Se45 2.234952 1_465
P10 Se43 2.239714 1_554
P10 Se11 2.321772 1_555
P11 Se25 2.149173 1_555
P11 Se31 2.234957 1_456
P11 Se38 2.239727 1_555
P11 Se12 2.321772 1_555
Se0 Ti2 2.567621 1_554
Se2 Se34 2.367084 1_555
Se4 Ti2 2.599001 1_465
Se5 Ti3 2.590379 1_555
Se7 Ti0 2.593136 1_555
Se8 Ti2 2.590391 1_455
Se10 Ti1 2.590369 1_555
Se11 Se28 2.355585 1_555
Se12 Se29 2.355559 1_555
Se13 Ti3 2.580605 1_555
Se15 Ti2 2.593136 1_554
Se16 Se29 2.367080 1_555
Se18 Ti3 2.567621 1_655
Se19 Se28 2.367065 1_555
Se20 Ti2 2.561192 1_554
Se22 Se23 2.355559 1_555
Se22 Se41 2.367066 1_555
Se24 Ti1 2.567621 1_645
Se27 Ti0 2.590385 1_555
Se31 Ti3 2.593136 1_655
Se32 Ti0 2.567621 1_555
Se33 Ti0 2.561192 1_555
Se34 Se36 2.355542 1_555
Se37 Ti2 2.580605 1_555
Se38 Ti3 2.599001 1_556
Se39 Ti3 2.561192 1_655
Se40 Ti1 2.561192 1_645
Se42 Ti0 2.599001 1_565
Se43 Ti1 2.599001 1_556
Se44 Ti0 2.580605 1_555
Se45 Ti1 2.593136 1_645
Se48 Ti1 2.580605 1_555
