# generated using pymatgen
data_H32RuC8N4Cl7
_symmetry_space_group_name_H-M   'P 1'
_cell_length_a   8.84993200
_cell_length_b   10.26951400
_cell_length_c   12.93175500
_cell_angle_alpha   90.00000000
_cell_angle_beta   90.00000000
_cell_angle_gamma   90.00000000
_symmetry_Int_Tables_number   1
_chemical_formula_structural   H32RuC8N4Cl7
_chemical_formula_sum   'H64 Ru2 C16 N8 Cl14'
_cell_volume   1175.29609471
_cell_formula_units_Z   2
loop_
 _symmetry_equiv_pos_site_id
 _symmetry_equiv_pos_as_xyz
  1  'x, y, z'
loop_
 _atom_site_type_symbol
 _atom_site_label
 _atom_site_symmetry_multiplicity
 _atom_site_fract_x
 _atom_site_fract_y
 _atom_site_fract_z
 _atom_site_occupancy
  H  H0  1  0.89888100  0.02998500  0.34089500  1
  H  H1  1  0.01958200  0.76073800  0.33993100  1
  H  H2  1  0.79199100  0.11687100  0.67275700  1
  H  H3  1  0.40115000  0.15270500  0.01653300  1
  H  H4  1  0.02524100  0.86317100  0.23961700  1
  H  H5  1  0.40115000  0.84729500  0.98346700  1
  H  H6  1  0.10986900  0.41341700  0.05461500  1
  H  H7  1  0.45260700  0.66257100  0.75197800  1
  H  H8  1  0.17836200  0.98275300  0.66084700  1
  H  H9  1  0.82163800  0.51724700  0.16084700  1
  H  H10  1  0.20800900  0.38312900  0.17275700  1
  H  H11  1  0.66413000  0.30189100  0.77217500  1
  H  H12  1  0.60895300  0.42660500  0.39349500  1
  H  H13  1  0.69424800  0.73024400  0.58835300  1
  H  H14  1  0.01958200  0.23926200  0.66006900  1
  H  H15  1  0.54764800  0.67662000  0.05947500  1
  H  H16  1  0.30575200  0.76975600  0.08835300  1
  H  H17  1  0.59885000  0.65270500  0.48346700  1
  H  H18  1  0.59885000  0.34729500  0.51653300  1
  H  H19  1  0.89013100  0.91341700  0.44538500  1
  H  H20  1  0.98041800  0.73926200  0.83993100  1
  H  H21  1  0.20800900  0.61687100  0.82724300  1
  H  H22  1  0.54739300  0.83742900  0.25197800  1
  H  H23  1  0.73224500  0.63939500  0.82650200  1
  H  H24  1  0.66413000  0.69810900  0.22782500  1
  H  H25  1  0.45235200  0.17662000  0.44052500  1
  H  H26  1  0.63611100  0.17762700  0.92636600  1
  H  H27  1  0.73224500  0.36060500  0.17349800  1
  H  H28  1  0.39104700  0.07339500  0.89349500  1
  H  H29  1  0.39104700  0.92660500  0.10650500  1
  H  H30  1  0.89888100  0.97001500  0.65910500  1
  H  H31  1  0.63611100  0.82237300  0.07363400  1
  H  H32  1  0.26775500  0.13939500  0.67349800  1
  H  H33  1  0.17836200  0.01724700  0.33915300  1
  H  H34  1  0.10986900  0.58658300  0.94538500  1
  H  H35  1  0.36388900  0.67762700  0.57363400  1
  H  H36  1  0.82469300  0.40173500  0.05594200  1
  H  H37  1  0.26775500  0.86060500  0.32650200  1
  H  H38  1  0.45260700  0.33742900  0.24802200  1
  H  H39  1  0.30575200  0.23024400  0.91164700  1
  H  H40  1  0.17530700  0.09826500  0.55594200  1
  H  H41  1  0.33587000  0.80189100  0.72782500  1
  H  H42  1  0.10111900  0.52998500  0.15910500  1
  H  H43  1  0.60895300  0.57339500  0.60650500  1
  H  H44  1  0.46262500  0.67992400  0.23477600  1
  H  H45  1  0.02524100  0.13682900  0.76038300  1
  H  H46  1  0.17530700  0.90173500  0.44405800  1
  H  H47  1  0.97475900  0.36317100  0.26038300  1
  H  H48  1  0.33587000  0.19810900  0.27217500  1
  H  H49  1  0.36388900  0.32237300  0.42636600  1
  H  H50  1  0.54764800  0.32338000  0.94052500  1
  H  H51  1  0.82163800  0.48275300  0.83915300  1
  H  H52  1  0.82469300  0.59826500  0.94405800  1
  H  H53  1  0.69424800  0.26975600  0.41164700  1
  H  H54  1  0.53737500  0.82007600  0.73477600  1
  H  H55  1  0.97475900  0.63682900  0.73961700  1
  H  H56  1  0.98041800  0.26073800  0.16006900  1
  H  H57  1  0.89013100  0.08658300  0.55461500  1
  H  H58  1  0.54739300  0.16257100  0.74802200  1
  H  H59  1  0.53737500  0.17992400  0.26522400  1
  H  H60  1  0.79199100  0.88312900  0.32724300  1
  H  H61  1  0.10111900  0.47001500  0.84089500  1
  H  H62  1  0.45235200  0.82338000  0.55947500  1
  H  H63  1  0.46262500  0.32007600  0.76522400  1
  Ru  Ru0  1  0.91956100  0.00000000  0.00000000  1
  Ru  Ru1  1  0.08043900  0.50000000  0.50000000  1
  C  C0  1  0.40085100  0.16736300  0.93280000  1
  C  C1  1  0.44480400  0.24420300  0.28894800  1
  C  C2  1  0.55519600  0.74420300  0.21105200  1
  C  C3  1  0.17300000  0.08588200  0.63993100  1
  C  C4  1  0.59914900  0.33263700  0.43280000  1
  C  C5  1  0.10730900  0.42673100  0.13848500  1
  C  C6  1  0.89269100  0.07326900  0.63848500  1
  C  C7  1  0.89269100  0.92673100  0.36151500  1
  C  C8  1  0.10730900  0.57326900  0.86151500  1
  C  C9  1  0.82700000  0.41411800  0.13993100  1
  C  C10  1  0.55519600  0.25579700  0.78894800  1
  C  C11  1  0.40085100  0.83263700  0.06720000  1
  C  C12  1  0.59914900  0.66736300  0.56720000  1
  C  C13  1  0.17300000  0.91411800  0.36006900  1
  C  C14  1  0.44480400  0.75579700  0.71105200  1
  C  C15  1  0.82700000  0.58588200  0.86006900  1
  N  N0  1  0.45594800  0.26786100  0.40199500  1
  N  N1  1  0.54405200  0.76786100  0.09800500  1
  N  N2  1  0.54405200  0.23213900  0.90199500  1
  N  N3  1  0.97126300  0.64083400  0.82017800  1
  N  N4  1  0.02873700  0.14083400  0.67982200  1
  N  N5  1  0.97126300  0.35916600  0.17982200  1
  N  N6  1  0.02873700  0.85916600  0.32017800  1
  N  N7  1  0.45594800  0.73213900  0.59800500  1
  Cl  Cl0  1  0.10580400  0.92459800  0.88012900  1
  Cl  Cl1  1  0.72494900  0.07401500  0.11429500  1
  Cl  Cl2  1  0.89419600  0.57540200  0.38012900  1
  Cl  Cl3  1  0.10580400  0.07540200  0.11987100  1
  Cl  Cl4  1  0.27505100  0.57401500  0.38570500  1
  Cl  Cl5  1  0.07518700  0.29015900  0.41568900  1
  Cl  Cl6  1  0.07518700  0.70984100  0.58431100  1
  Cl  Cl7  1  0.51161400  0.00000000  0.50000000  1
  Cl  Cl8  1  0.48838600  0.50000000  0.00000000  1
  Cl  Cl9  1  0.92481300  0.79015900  0.08431100  1
  Cl  Cl10  1  0.27505100  0.42598500  0.61429500  1
  Cl  Cl11  1  0.92481300  0.20984100  0.91568900  1
  Cl  Cl12  1  0.72494900  0.92598500  0.88570500  1
  Cl  Cl13  1  0.89419600  0.42459800  0.61987100  1
loop_
_geom_bond_atom_site_label_1
_geom_bond_atom_site_label_2
_geom_bond_distance
_geom_bond_site_symmetry_2
H1 N6 1.045728 1_555
H4 N6 1.043066 1_555
H14 N4 1.045728 1_555
H15 N1 1.061719 1_555
H20 N3 1.045728 1_555
H25 N0 1.061719 1_555
H26 N2 1.037534 1_555
H31 N1 1.037534 1_555
H35 N7 1.037534 1_555
H45 N4 1.043066 1_555
H47 N5 1.043066 1_555
H49 N0 1.037534 1_555
H50 N2 1.061719 1_555
H55 N3 1.043066 1_555
H56 N5 1.045728 1_555
H62 N7 1.061719 1_555
C0 H3 1.093231 1_556
C0 H28 1.094128 1_555
C0 H39 1.095515 1_555
C0 N2 1.485700 1_555
C1 H48 1.095686 1_555
C1 H59 1.095919 1_555
C1 H38 1.096110 1_555
C1 N0 1.485225 1_555
C2 H24 1.095686 1_555
C2 H44 1.095919 1_555
C2 H22 1.096110 1_555
C2 N1 1.485225 1_555
C3 H32 1.092539 1_555
C3 H40 1.093735 1_555
C3 H8 1.094108 1_545
C3 N4 1.488150 1_555
C4 H18 1.093231 1_555
C4 H12 1.094128 1_555
C4 H53 1.095515 1_555
C4 N0 1.485700 1_555
C5 H10 1.091393 1_555
C5 H6 1.093405 1_555
C5 H42 1.094754 1_555
C5 N5 1.488894 1_455
C6 H2 1.091393 1_555
C6 H57 1.093405 1_555
C6 H30 1.094754 1_545
C6 N4 1.488894 1_655
C7 H60 1.091393 1_555
C7 H19 1.093405 1_555
C7 H0 1.094754 1_565
C7 N6 1.488894 1_655
C8 H21 1.091393 1_555
C8 H34 1.093405 1_555
C8 H61 1.094754 1_555
C8 N3 1.488894 1_455
C9 H27 1.092539 1_555
C9 H36 1.093735 1_555
C9 H9 1.094108 1_555
C9 N5 1.488150 1_555
C10 H11 1.095686 1_555
C10 H63 1.095919 1_555
C10 H58 1.096110 1_555
C10 N2 1.485225 1_555
C11 H5 1.093231 1_554
C11 H29 1.094128 1_555
C11 H16 1.095515 1_555
C11 N1 1.485700 1_555
C12 H17 1.093231 1_555
C12 H43 1.094128 1_555
C12 H13 1.095515 1_555
C12 N7 1.485700 1_555
C13 H37 1.092539 1_555
C13 H46 1.093735 1_555
C13 H33 1.094108 1_565
C13 N6 1.488150 1_555
C14 H41 1.095686 1_555
C14 H54 1.095919 1_555
C14 H7 1.096110 1_555
C14 N7 1.485225 1_555
C15 H23 1.092539 1_555
C15 H52 1.093735 1_555
C15 H51 1.094108 1_555
C15 N3 1.488150 1_555
Cl0 Ru0 2.391492 1_466
Cl1 Ru0 2.393463 1_555
Cl2 Ru1 2.391492 1_655
Cl3 Ru0 2.391492 1_455
Cl4 Ru1 2.393463 1_555
Cl5 Ru1 2.415526 1_555
Cl6 Ru1 2.415526 1_555
Cl7 H62 2.038744 1_545
Cl7 H25 2.038744 1_555
Cl8 H50 2.038744 1_554
Cl8 H15 2.038744 1_555
Cl9 Ru0 2.415526 1_565
Cl10 Ru1 2.393463 1_555
Cl11 Ru0 2.415526 1_556
Cl12 Ru0 2.393463 1_566
Cl13 Ru1 2.391492 1_655
