# generated using pymatgen
data_Zn(CoO2)2
_symmetry_space_group_name_H-M   'P 1'
_cell_length_a   5.93556742
_cell_length_b   5.93556694
_cell_length_c   23.80843490
_cell_angle_alpha   60.09187909
_cell_angle_beta   60.09188260
_cell_angle_gamma   60.00000164
_symmetry_Int_Tables_number   1
_chemical_formula_structural   Zn(CoO2)2
_chemical_formula_sum   'Zn8 Co16 O32'
_cell_volume   593.93928130
_cell_formula_units_Z   8
loop_
 _symmetry_equiv_pos_site_id
 _symmetry_equiv_pos_as_xyz
  1  'x, y, z'
loop_
 _atom_site_type_symbol
 _atom_site_label
 _atom_site_symmetry_multiplicity
 _atom_site_fract_x
 _atom_site_fract_y
 _atom_site_fract_z
 _atom_site_occupancy
  Zn  Zn0  1  0.00252600  0.00252600  0.99810500  1
  Zn  Zn1  1  0.00401600  0.00401600  0.24698800  1
  Zn  Zn2  1  0.99873500  0.99873500  0.50094900  1
  Zn  Zn3  1  0.62821800  0.62821800  0.02883700  1
  Zn  Zn4  1  0.24998800  0.24998800  0.56250900  1
  Zn  Zn5  1  0.62122000  0.62122000  0.28408500  1
  Zn  Zn6  1  0.25068300  0.25068300  0.81198800  1
  Zn  Zn7  1  0.00040600  0.00040600  0.74969600  1
  Co  Co0  1  0.24602800  0.24602800  0.06547900  1
  Co  Co1  1  0.12461800  0.62523900  0.15622600  1
  Co  Co2  1  0.24834300  0.24834300  0.31374300  1
  Co  Co3  1  0.62523900  0.12461800  0.15622600  1
  Co  Co4  1  0.62523900  0.62523900  0.15622600  1
  Co  Co5  1  0.12166300  0.62345500  0.40785700  1
  Co  Co6  1  0.62345500  0.12166300  0.40785700  1
  Co  Co7  1  0.62345500  0.62345500  0.40785700  1
  Co  Co8  1  0.12639000  0.62568100  0.65556200  1
  Co  Co9  1  0.62568100  0.12639000  0.65556200  1
  Co  Co10  1  0.62313200  0.62313200  0.53265100  1
  Co  Co11  1  0.62568100  0.62568100  0.65556200  1
  Co  Co12  1  0.12574400  0.62643900  0.90534400  1
  Co  Co13  1  0.62643900  0.12574400  0.90534400  1
  Co  Co14  1  0.62638400  0.62638400  0.78021200  1
  Co  Co15  1  0.62643900  0.62643900  0.90534400  1
  O  O0  1  0.37862300  0.37862300  0.10184800  1
  O  O1  1  0.38297700  0.38297700  0.21276700  1
  O  O2  1  0.37862300  0.83536000  0.10184800  1
  O  O3  1  0.83536000  0.37862300  0.10184800  1
  O  O4  1  0.37006100  0.37006100  0.35296800  1
  O  O5  1  0.41698200  0.86996600  0.21077100  1
  O  O6  1  0.38327700  0.38327700  0.46254200  1
  O  O7  1  0.37006100  0.84800800  0.35296800  1
  O  O8  1  0.86996600  0.41698200  0.21077100  1
  O  O9  1  0.86656500  0.86656500  0.10007600  1
  O  O10  1  0.84800800  0.37006100  0.35296800  1
  O  O11  1  0.86996600  0.86996600  0.21077100  1
  O  O12  1  0.39047000  0.39047000  0.59467900  1
  O  O13  1  0.41060200  0.85460400  0.47004800  1
  O  O14  1  0.38543500  0.38543500  0.71092400  1
  O  O15  1  0.39047000  0.84034300  0.59467900  1
  O  O16  1  0.85460400  0.41060200  0.47004800  1
  O  O17  1  0.86671900  0.86671900  0.34996100  1
  O  O18  1  0.85460400  0.85460400  0.47004800  1
  O  O19  1  0.84034300  0.39047000  0.59467900  1
  O  O20  1  0.38784800  0.38784800  0.84491200  1
  O  O21  1  0.40526900  0.86830800  0.71452900  1
  O  O22  1  0.38185000  0.38185000  0.96361200  1
  O  O23  1  0.86513300  0.86513300  0.60115000  1
  O  O24  1  0.38784800  0.84465700  0.84491200  1
  O  O25  1  0.86830800  0.40526900  0.71452900  1
  O  O26  1  0.84465700  0.38784800  0.84491200  1
  O  O27  1  0.86830800  0.86830800  0.71452900  1
  O  O28  1  0.40623500  0.87696600  0.95995800  1
  O  O29  1  0.87696600  0.40623500  0.95995800  1
  O  O30  1  0.86717000  0.86717000  0.84962300  1
  O  O31  1  0.87696600  0.87696600  0.95995800  1
loop_
_geom_bond_atom_site_label_1
_geom_bond_atom_site_label_2
_geom_bond_distance
_geom_bond_site_symmetry_2
Co0 O22 1.982990 1_554
Co0 O0 1.991774 1_555
Co0 O2 1.991783 1_545
Co0 O3 1.991784 1_455
Co1 O11 1.951723 1_455
Co1 O8 1.951731 1_455
Co1 O2 1.956611 1_555
Co1 O0 1.956619 1_555
Co1 O9 2.030609 1_455
Co1 O1 2.038294 1_555
Co2 O7 1.945159 1_545
Co2 O10 1.945159 1_455
Co2 O4 1.945164 1_555
Co2 O1 1.965645 1_555
Co3 O11 1.951723 1_545
Co3 O5 1.951731 1_545
Co3 O3 1.956611 1_555
Co3 O0 1.956619 1_555
Co3 O9 2.030609 1_545
Co3 O1 2.038294 1_555
Co4 O8 1.951722 1_555
Co4 O5 1.951722 1_555
Co4 O2 1.956620 1_555
Co4 O3 1.956620 1_555
Co4 O9 2.030604 1_555
Co4 O1 2.038298 1_555
Co5 O4 1.991189 1_555
Co5 O7 1.991193 1_555
Co5 O6 2.022423 1_555
Co5 O16 2.024327 1_455
Co5 O18 2.024331 1_455
Co5 O17 2.045753 1_455
Co6 O4 1.991189 1_555
Co6 O10 1.991193 1_555
Co6 O6 2.022423 1_555
Co6 O13 2.024327 1_545
Co6 O18 2.024331 1_545
Co6 O17 2.045753 1_545
Co7 O7 1.991189 1_555
Co7 O10 1.991189 1_555
Co7 O6 2.022431 1_555
Co7 O16 2.024331 1_555
Co7 O13 2.024331 1_555
Co7 O17 2.045752 1_555
Co8 O25 2.014204 1_455
Co8 O27 2.014208 1_455
Co8 O23 2.016476 1_455
Co8 O15 2.017707 1_555
Co8 O12 2.017711 1_555
Co8 O14 2.022138 1_555
Co9 O21 2.014204 1_545
Co9 O27 2.014208 1_545
Co9 O23 2.016476 1_545
Co9 O19 2.017707 1_555
Co9 O12 2.017711 1_555
Co9 O14 2.022138 1_555
Co10 O13 1.949420 1_555
Co10 O16 1.949420 1_555
Co10 O18 1.949427 1_555
Co10 O19 1.958243 1_555
Co10 O15 1.958243 1_555
Co10 O12 1.958247 1_555
Co11 O25 2.014209 1_555
Co11 O21 2.014209 1_555
Co11 O23 2.016471 1_555
Co11 O15 2.017712 1_555
Co11 O19 2.017712 1_555
Co11 O14 2.022133 1_555
Co12 O29 1.974855 1_455
Co12 O31 1.974860 1_455
Co12 O20 2.023004 1_555
Co12 O24 2.023016 1_555
Co12 O30 2.025904 1_455
Co12 O22 2.056855 1_555
Co13 O28 1.974855 1_545
Co13 O31 1.974860 1_545
Co13 O20 2.023004 1_555
Co13 O26 2.023016 1_555
Co13 O30 2.025904 1_545
Co13 O22 2.056855 1_555
Co14 O20 2.009198 1_555
Co14 O26 2.009203 1_555
Co14 O24 2.009203 1_555
Co14 O21 2.037830 1_555
Co14 O25 2.037830 1_555
Co14 O27 2.037834 1_555
Co15 O29 1.974860 1_555
Co15 O28 1.974860 1_555
Co15 O24 2.023003 1_555
Co15 O26 2.023003 1_555
Co15 O30 2.025921 1_555
Co15 O22 2.056855 1_555
O0 Zn3 2.114206 1_555
O2 Zn3 2.114191 1_555
O3 Zn3 2.114191 1_555
O4 Zn5 2.116755 1_555
O5 Zn1 2.002760 1_565
O5 Zn5 2.108682 1_555
O6 Zn4 1.946004 1_555
O7 Zn5 2.116764 1_555
O8 Zn1 2.002760 1_655
O8 Zn5 2.108682 1_555
O9 Zn0 1.985014 1_664
O10 Zn5 2.116764 1_555
O11 Zn1 2.002770 1_665
O11 Zn5 2.108674 1_555
O12 Zn4 1.986518 1_555
O13 Zn2 1.998051 1_455
O14 Zn6 1.967358 1_555
O15 Zn4 1.986523 1_565
O16 Zn2 1.998051 1_545
O17 Zn1 2.004520 1_665
O18 Zn2 1.998046 1_555
O19 Zn4 1.986523 1_655
O20 Zn6 1.968708 1_555
O21 Zn7 1.963327 1_565
O23 Zn2 1.950559 1_555
O24 Zn6 1.968708 1_565
O25 Zn7 1.963327 1_655
O26 Zn6 1.968708 1_655
O27 Zn7 1.963332 1_665
O28 Zn0 1.959883 1_565
O28 Zn3 2.097639 1_556
O29 Zn0 1.959883 1_655
O29 Zn3 2.097640 1_556
O30 Zn7 1.945225 1_665
O31 Zn0 1.959878 1_665
O31 Zn3 2.097627 1_556
