# generated using pymatgen
data_La2Cu2O5
_symmetry_space_group_name_H-M   'P 1'
_cell_length_a   3.92537400
_cell_length_b   5.48569700
_cell_length_c   10.54424800
_cell_angle_alpha   90.00000000
_cell_angle_beta   90.00000000
_cell_angle_gamma   90.00000000
_symmetry_Int_Tables_number   1
_chemical_formula_structural   La2Cu2O5
_chemical_formula_sum   'La4 Cu4 O10'
_cell_volume   227.05364038
_cell_formula_units_Z   2
loop_
 _symmetry_equiv_pos_site_id
 _symmetry_equiv_pos_as_xyz
  1  'x, y, z'
loop_
 _atom_site_type_symbol
 _atom_site_label
 _atom_site_symmetry_multiplicity
 _atom_site_fract_x
 _atom_site_fract_y
 _atom_site_fract_z
 _atom_site_occupancy
  La  La0  1  0.50000000  0.19408300  0.86299700  1
  La  La1  1  0.50000000  0.80591700  0.13700300  1
  La  La2  1  0.50000000  0.69408300  0.63700300  1
  La  La3  1  0.50000000  0.30591700  0.36299700  1
  Cu  Cu0  1  0.00000000  0.20378500  0.60495700  1
  Cu  Cu1  1  0.00000000  0.79621500  0.39504300  1
  Cu  Cu2  1  0.00000000  0.70378500  0.89504300  1
  Cu  Cu3  1  0.00000000  0.29621500  0.10495700  1
  O  O0  1  0.00000000  0.50000000  0.50000000  1
  O  O1  1  0.00000000  0.00000000  0.00000000  1
  O  O2  1  0.00000000  0.41690300  0.79067900  1
  O  O3  1  0.00000000  0.58309700  0.20932100  1
  O  O4  1  0.00000000  0.91690300  0.70932100  1
  O  O5  1  0.00000000  0.08309700  0.29067900  1
  O  O6  1  0.50000000  0.21422200  0.60413800  1
  O  O7  1  0.50000000  0.78577800  0.39586200  1
  O  O8  1  0.50000000  0.28577800  0.10413800  1
  O  O9  1  0.50000000  0.71422200  0.89586200  1
loop_
_geom_bond_atom_site_label_1
_geom_bond_atom_site_label_2
_geom_bond_distance
_geom_bond_site_symmetry_2
La0 O2 2.434683 1_655
La0 O2 2.434683 1_555
La0 O8 2.591928 1_556
La0 O9 2.655084 1_545
La0 O1 2.659424 1_556
La0 O1 2.659424 1_656
La0 O6 2.731708 1_555
La0 O9 2.874291 1_555
La0 O4 2.964764 1_545
La0 O4 2.964764 1_645
La1 O3 2.434683 1_655
La1 O3 2.434683 1_555
La1 O9 2.591928 1_554
La1 O8 2.655084 1_565
La1 O1 2.659424 1_565
La1 O1 2.659424 1_665
La1 O7 2.731708 1_555
La1 O8 2.874291 1_555
La1 O5 2.964764 1_565
La1 O5 2.964764 1_665
La2 O4 2.434683 1_555
La2 O4 2.434683 1_655
La2 O7 2.591928 1_555
La2 O6 2.655084 1_555
La2 O0 2.659424 1_555
La2 O0 2.659424 1_655
La2 O9 2.731708 1_555
La2 O6 2.874291 1_565
La2 O2 2.964764 1_655
La2 O2 2.964764 1_555
La3 O5 2.434683 1_655
La3 O5 2.434683 1_555
La3 O6 2.591928 1_555
La3 O7 2.655084 1_555
La3 O0 2.659424 1_555
La3 O0 2.659424 1_655
La3 O8 2.731708 1_555
La3 O7 2.874291 1_545
La3 O3 2.964764 1_655
La3 O3 2.964764 1_555
Cu0 O4 1.920325 1_545
Cu0 O6 1.963541 1_455
Cu0 O6 1.963541 1_555
Cu0 O0 1.966016 1_555
Cu0 O2 2.280730 1_555
Cu1 O5 1.920325 1_565
Cu1 O7 1.963541 1_455
Cu1 O7 1.963541 1_555
Cu1 O0 1.966016 1_555
Cu1 O3 2.280730 1_555
Cu2 O2 1.920325 1_555
Cu2 O9 1.963541 1_555
Cu2 O9 1.963541 1_455
Cu2 O1 1.966016 1_566
Cu2 O4 2.280730 1_555
Cu3 O3 1.920325 1_555
Cu3 O8 1.963541 1_555
Cu3 O8 1.963541 1_455
Cu3 O1 1.966016 1_555
Cu3 O5 2.280730 1_555
