# generated using pymatgen
data_CaCr2O4
_symmetry_space_group_name_H-M   'P 1'
_cell_length_a   5.10560664
_cell_length_b   5.88220447
_cell_length_c   10.99162053
_cell_angle_alpha   90.00000000
_cell_angle_beta   90.00000000
_cell_angle_gamma   89.99996464
_symmetry_Int_Tables_number   1
_chemical_formula_structural   CaCr2O4
_chemical_formula_sum   'Ca4 Cr8 O16'
_cell_volume   330.10279009
_cell_formula_units_Z   4
loop_
 _symmetry_equiv_pos_site_id
 _symmetry_equiv_pos_as_xyz
  1  'x, y, z'
loop_
 _atom_site_type_symbol
 _atom_site_label
 _atom_site_symmetry_multiplicity
 _atom_site_fract_x
 _atom_site_fract_y
 _atom_site_fract_z
 _atom_site_occupancy
  Ca  Ca0  1  0.85490476  0.24999886  0.75000000  1
  Ca  Ca1  1  0.14509524  0.75000114  0.25000000  1
  Ca  Ca2  1  0.53481046  0.24999882  0.25000000  1
  Ca  Ca3  1  0.46518954  0.75000118  0.75000000  1
  Cr  Cr0  1  0.50528423  0.74999985  0.49083391  1
  Cr  Cr1  1  0.50528423  0.74999985  0.00916609  1
  Cr  Cr2  1  0.49471577  0.25000015  0.50916609  1
  Cr  Cr3  1  0.49471577  0.25000015  0.99083391  1
  Cr  Cr4  1  0.00000000  0.50000000  0.50000000  1
  Cr  Cr5  1  0.00000000  0.00000000  0.00000000  1
  Cr  Cr6  1  0.00000000  0.00000000  0.50000000  1
  Cr  Cr7  1  0.00000000  0.50000000  0.00000000  1
  O  O0  1  0.84090693  0.75000077  0.40340225  1
  O  O1  1  0.84090693  0.75000077  0.09659775  1
  O  O2  1  0.15909307  0.24999923  0.59659775  1
  O  O3  1  0.15909307  0.24999923  0.90340225  1
  O  O4  1  0.17818178  0.75000096  0.58889022  1
  O  O5  1  0.17818178  0.75000096  0.91110978  1
  O  O6  1  0.82181822  0.24999904  0.41110978  1
  O  O7  1  0.82181822  0.24999904  0.08889022  1
  O  O8  1  0.66523710  0.50345410  0.59971966  1
  O  O9  1  0.66523761  0.99654499  0.90028123  1
  O  O10  1  0.33476239  0.00345501  0.40028123  1
  O  O11  1  0.33476290  0.49654590  0.09971966  1
  O  O12  1  0.33476290  0.49654590  0.40028034  1
  O  O13  1  0.33476239  0.00345501  0.09971877  1
  O  O14  1  0.66523761  0.99654499  0.59971877  1
  O  O15  1  0.66523710  0.50345410  0.90028034  1
loop_
_geom_bond_atom_site_label_1
_geom_bond_atom_site_label_2
_geom_bond_distance
_geom_bond_site_symmetry_2
Ca0 O2 2.292396 1_655
Ca0 O3 2.292396 1_655
Ca0 O15 2.426720 1_555
Ca0 O8 2.426720 1_555
Ca0 O9 2.426721 1_545
Ca0 O14 2.426721 1_545
Ca1 O0 2.292396 1_455
Ca1 O1 2.292396 1_455
Ca1 O12 2.426720 1_555
Ca1 O11 2.426720 1_555
Ca1 O13 2.426721 1_565
Ca1 O10 2.426721 1_565
Ca2 O6 2.298518 1_555
Ca2 O7 2.298518 1_555
Ca2 O10 2.423817 1_555
Ca2 O13 2.423817 1_555
Ca2 O12 2.423820 1_555
Ca2 O11 2.423820 1_555
Ca3 O5 2.298518 1_555
Ca3 O4 2.298518 1_555
Ca3 O9 2.423817 1_555
Ca3 O14 2.423817 1_555
Ca3 O8 2.423820 1_555
Ca3 O15 2.423820 1_555
Cr0 O0 1.964645 1_555
Cr0 O4 1.987646 1_555
Cr0 O12 1.992823 1_555
Cr0 O10 1.992823 1_565
Cr0 O14 2.049995 1_555
Cr0 O8 2.050001 1_555
Cr1 O1 1.964645 1_555
Cr1 O5 1.987646 1_554
Cr1 O11 1.992823 1_555
Cr1 O13 1.992823 1_565
Cr1 O9 2.049995 1_554
Cr1 O15 2.050001 1_554
Cr2 O2 1.964645 1_555
Cr2 O6 1.987646 1_555
Cr2 O8 1.992823 1_555
Cr2 O14 1.992823 1_545
Cr2 O10 2.049995 1_555
Cr2 O12 2.050001 1_555
Cr3 O3 1.964645 1_555
Cr3 O7 1.987646 1_556
Cr3 O15 1.992823 1_555
Cr3 O9 1.992823 1_545
Cr3 O13 2.049995 1_556
Cr3 O11 2.050001 1_556
Cr4 O6 1.986143 1_455
Cr4 O4 1.986143 1_555
Cr4 O0 1.987374 1_455
Cr4 O2 1.987374 1_555
Cr4 O12 2.030532 1_555
Cr4 O8 2.030532 1_455
Cr5 O5 1.986133 1_544
Cr5 O7 1.986133 1_455
Cr5 O1 1.987368 1_445
Cr5 O3 1.987368 1_554
Cr5 O9 2.030524 1_444
Cr5 O13 2.030524 1_555
Cr6 O4 1.986133 1_545
Cr6 O6 1.986133 1_455
Cr6 O0 1.987368 1_445
Cr6 O2 1.987368 1_555
Cr6 O14 2.030524 1_445
Cr6 O10 2.030524 1_555
Cr7 O7 1.986143 1_455
Cr7 O5 1.986143 1_554
Cr7 O1 1.987374 1_455
Cr7 O3 1.987374 1_554
Cr7 O15 2.030532 1_454
Cr7 O11 2.030532 1_555
