# generated using pymatgen
data_Sn2P2O7
_symmetry_space_group_name_H-M   'P 1'
_cell_length_a   9.65525652
_cell_length_b   5.18787452
_cell_length_c   7.36039639
_cell_angle_alpha   65.20580157
_cell_angle_beta   90.00000000
_cell_angle_gamma   90.00000000
_symmetry_Int_Tables_number   1
_chemical_formula_structural   Sn2P2O7
_chemical_formula_sum   'Sn4 P4 O14'
_cell_volume   334.69883748
_cell_formula_units_Z   2
loop_
 _symmetry_equiv_pos_site_id
 _symmetry_equiv_pos_as_xyz
  1  'x, y, z'
loop_
 _atom_site_type_symbol
 _atom_site_label
 _atom_site_symmetry_multiplicity
 _atom_site_fract_x
 _atom_site_fract_y
 _atom_site_fract_z
 _atom_site_occupancy
  Sn  Sn0  1  0.38193493  0.35289464  0.86572985  1
  Sn  Sn1  1  0.88193493  0.64710536  0.63427015  1
  Sn  Sn2  1  0.61806507  0.64710536  0.13427015  1
  Sn  Sn3  1  0.11806507  0.35289464  0.36572985  1
  P  P0  1  0.39164218  0.88216343  0.39250462  1
  P  P1  1  0.60835782  0.11783657  0.60749538  1
  P  P2  1  0.89164218  0.11783657  0.10749538  1
  P  P3  1  0.10835782  0.88216343  0.89250462  1
  O  O0  1  0.85500483  0.41676393  0.96247166  1
  O  O1  1  0.64499517  0.41676393  0.46247166  1
  O  O2  1  0.53868237  0.10537226  0.79709221  1
  O  O3  1  0.73065223  0.91742068  0.66897400  1
  O  O4  1  0.14499517  0.58323607  0.03752834  1
  O  O5  1  0.26934777  0.08257932  0.33102600  1
  O  O6  1  0.23065223  0.08257932  0.83102600  1
  O  O7  1  0.46131763  0.89462774  0.20290779  1
  O  O8  1  -0.00000000  -0.00000000  0.00000000  1
  O  O9  1  0.35500483  0.58323607  0.53752834  1
  O  O10  1  0.03868237  0.89462774  0.70290779  1
  O  O11  1  0.50000000  -0.00000000  0.50000000  1
  O  O12  1  0.76934777  0.91742068  0.16897400  1
  O  O13  1  0.96131763  0.10537226  0.29709221  1
loop_
_geom_bond_atom_site_label_1
_geom_bond_atom_site_label_2
_geom_bond_distance
_geom_bond_site_symmetry_2
O0 P2 1.510339 1_556
O0 Sn1 2.215857 1_555
O1 P1 1.510339 1_555
O1 Sn2 2.215857 1_555
O2 P1 1.525946 1_555
O2 Sn0 2.176873 1_555
O3 P1 1.511771 1_565
O3 Sn1 2.113261 1_555
O4 P3 1.510339 1_554
O4 Sn3 2.215857 1_555
O5 P0 1.511771 1_545
O5 Sn3 2.113261 1_555
O6 P3 1.511771 1_545
O6 Sn0 2.113261 1_555
O7 P0 1.525946 1_555
O7 Sn2 2.176873 1_555
O8 P3 1.581133 1_544
O8 P2 1.581133 1_455
O9 P0 1.510339 1_555
O9 Sn0 2.215857 1_555
O10 P3 1.525946 1_555
O10 Sn1 2.176873 1_455
O11 P0 1.581133 1_545
O11 P1 1.581133 1_555
O12 P2 1.511771 1_565
O12 Sn2 2.113261 1_555
O13 P2 1.525946 1_555
O13 Sn3 2.176873 1_655
