# generated using pymatgen
data_SrCr2O4
_symmetry_space_group_name_H-M   'P 1'
_cell_length_a   5.14711275
_cell_length_b   5.93138631
_cell_length_c   11.60267794
_cell_angle_alpha   89.99997825
_cell_angle_beta   89.99994696
_cell_angle_gamma   90.00001068
_symmetry_Int_Tables_number   1
_chemical_formula_structural   SrCr2O4
_chemical_formula_sum   'Sr4 Cr8 O16'
_cell_volume   354.22411978
_cell_formula_units_Z   4
loop_
 _symmetry_equiv_pos_site_id
 _symmetry_equiv_pos_as_xyz
  1  'x, y, z'
loop_
 _atom_site_type_symbol
 _atom_site_label
 _atom_site_symmetry_multiplicity
 _atom_site_fract_x
 _atom_site_fract_y
 _atom_site_fract_z
 _atom_site_occupancy
  Sr  Sr0  1  0.85864227  0.25000102  0.74999977  1
  Sr  Sr1  1  0.14135703  0.75000021  0.24999958  1
  Sr  Sr2  1  0.54492762  0.25000009  0.24999963  1
  Sr  Sr3  1  0.45507272  0.75000042  0.74999969  1
  Cr  Cr0  1  0.50353850  0.75000043  0.00699566  1
  Cr  Cr1  1  0.49645947  0.25000015  0.99300497  1
  Cr  Cr2  1  0.00000081  0.49999907  0.50000003  1
  Cr  Cr3  1  0.00000085  0.00000022  0.50000021  1
  Cr  Cr4  1  0.50354060  0.74999960  0.49300473  1
  Cr  Cr5  1  0.49646185  0.24999933  0.50699536  1
  Cr  Cr6  1  -0.00000117  0.00000036  0.00000002  1
  Cr  Cr7  1  -0.00000107  0.50000006  0.00000011  1
  O  O0  1  0.83561192  0.74999967  0.40938964  1
  O  O1  1  0.83560940  0.75000017  0.09061019  1
  O  O2  1  0.16439068  0.24999946  0.59061022  1
  O  O3  1  0.16438933  0.25000042  0.90938902  1
  O  O4  1  0.17198902  0.74999935  0.58392997  1
  O  O5  1  0.17198808  0.75000029  0.91606964  1
  O  O6  1  0.82801293  0.24999952  0.41606897  1
  O  O7  1  0.82801009  0.25000019  0.08393009  1
  O  O8  1  0.66497054  0.50313737  0.59312289  1
  O  O9  1  0.66496940  0.99686227  0.90687661  1
  O  O10  1  0.33503098  0.00313757  0.40687761  1
  O  O11  1  0.33502797  0.49686195  0.09312211  1
  O  O12  1  0.33503086  0.49686180  0.40687749  1
  O  O13  1  0.33502809  0.00313865  0.09312210  1
  O  O14  1  0.66497074  0.99686184  0.59312299  1
  O  O15  1  0.66496949  0.50313854  0.90687670  1
loop_
_geom_bond_atom_site_label_1
_geom_bond_atom_site_label_2
_geom_bond_distance
_geom_bond_site_symmetry_2
Cr0 O1 1.965346 1_555
Cr0 O13 2.001315 1_565
Cr0 O11 2.001316 1_555
Cr0 O5 2.006298 1_554
Cr0 O9 2.045435 1_554
Cr0 O15 2.045435 1_554
Cr1 O3 1.965351 1_555
Cr1 O9 2.001323 1_545
Cr1 O15 2.001325 1_555
Cr1 O7 2.006294 1_556
Cr1 O13 2.045422 1_556
Cr1 O11 2.045424 1_556
Cr2 O4 1.982626 1_555
Cr2 O6 1.982628 1_455
Cr2 O2 2.005005 1_555
Cr2 O0 2.005008 1_455
Cr2 O12 2.035054 1_555
Cr2 O8 2.035057 1_455
Cr3 O4 1.982627 1_545
Cr3 O6 1.982628 1_455
Cr3 O2 2.005003 1_555
Cr3 O0 2.005010 1_445
Cr3 O10 2.035055 1_555
Cr3 O14 2.035056 1_445
Cr4 O0 1.965350 1_555
Cr4 O10 2.001316 1_565
Cr4 O12 2.001317 1_555
Cr4 O4 2.006297 1_555
Cr4 O8 2.045430 1_555
Cr4 O14 2.045431 1_555
Cr5 O2 1.965348 1_555
Cr5 O14 2.001315 1_545
Cr5 O8 2.001317 1_555
Cr5 O6 2.006302 1_555
Cr5 O10 2.045427 1_555
Cr5 O12 2.045431 1_555
Cr6 O7 1.982625 1_455
Cr6 O5 1.982629 1_544
Cr6 O1 2.005005 1_445
Cr6 O3 2.005012 1_554
Cr6 O13 2.035049 1_555
Cr6 O9 2.035058 1_444
Cr7 O7 1.982624 1_455
Cr7 O5 1.982630 1_554
Cr7 O1 2.005006 1_455
Cr7 O3 2.005012 1_554
Cr7 O11 2.035048 1_555
Cr7 O15 2.035058 1_454
O0 Sr1 2.428300 1_655
O1 Sr1 2.428305 1_655
O2 Sr0 2.428307 1_455
O3 Sr0 2.428302 1_455
O4 Sr3 2.415741 1_555
O5 Sr3 2.415744 1_555
O6 Sr2 2.415742 1_555
O7 Sr2 2.415733 1_555
O8 Sr0 2.561476 1_555
O8 Sr3 2.573769 1_555
O9 Sr0 2.561485 1_565
O9 Sr3 2.573765 1_555
O10 Sr1 2.561494 1_545
O10 Sr2 2.573774 1_555
O11 Sr1 2.561486 1_555
O11 Sr2 2.573776 1_555
O12 Sr1 2.561496 1_555
O12 Sr2 2.573771 1_555
O13 Sr1 2.561486 1_545
O13 Sr2 2.573775 1_555
O14 Sr0 2.561486 1_565
O14 Sr3 2.573762 1_555
O15 Sr0 2.561482 1_555
O15 Sr3 2.573765 1_555
