# generated using pymatgen
data_Ba(AuF6)2
_symmetry_space_group_name_H-M   'P 1'
_cell_length_a   10.46314462
_cell_length_b   10.46314462
_cell_length_c   10.46314462
_cell_angle_alpha   90.00000000
_cell_angle_beta   90.00000000
_cell_angle_gamma   90.00000000
_symmetry_Int_Tables_number   1
_chemical_formula_structural   Ba(AuF6)2
_chemical_formula_sum   'Ba4 Au8 F48'
_cell_volume   1145.47782005
_cell_formula_units_Z   4
loop_
 _symmetry_equiv_pos_site_id
 _symmetry_equiv_pos_as_xyz
  1  'x, y, z'
loop_
 _atom_site_type_symbol
 _atom_site_label
 _atom_site_symmetry_multiplicity
 _atom_site_fract_x
 _atom_site_fract_y
 _atom_site_fract_z
 _atom_site_occupancy
  Ba  Ba0  1  0.50000000  -0.00000000  -0.00000000  1
  Ba  Ba1  1  0.00000000  -0.00000000  -0.00000000  1
  Ba  Ba2  1  0.00000000  0.50000000  -0.00000000  1
  Ba  Ba3  1  0.00000000  -0.00000000  0.50000000  1
  Au  Au0  1  0.24904901  0.75095099  0.75095099  1
  Au  Au1  1  0.75095099  0.75095099  0.24904901  1
  Au  Au2  1  0.24904901  0.75095099  0.24904901  1
  Au  Au3  1  0.75095099  0.75095099  0.75095099  1
  Au  Au4  1  0.75095099  0.24904901  0.75095099  1
  Au  Au5  1  0.75095099  0.24904901  0.24904901  1
  Au  Au6  1  0.24904901  0.24904901  0.75095099  1
  Au  Au7  1  0.24904901  0.24904901  0.24904901  1
  F  F0  1  0.12402913  0.87597087  0.30676582  1
  F  F1  1  0.36851898  0.18515747  0.63148102  1
  F  F2  1  0.12402913  0.69323418  0.87597087  1
  F  F3  1  0.63148102  0.18515747  0.63148102  1
  F  F4  1  0.87597087  0.12402913  0.30676582  1
  F  F5  1  0.87597087  0.12402913  0.69323418  1
  F  F6  1  0.18515747  0.63148102  0.36851898  1
  F  F7  1  0.36851898  0.63148102  0.18515747  1
  F  F8  1  0.87597087  0.69323418  0.87597087  1
  F  F9  1  0.69323418  0.87597087  0.12402913  1
  F  F10  1  0.87597087  0.30676582  0.12402913  1
  F  F11  1  0.36851898  0.63148102  0.81484253  1
  F  F12  1  0.81484253  0.36851898  0.36851898  1
  F  F13  1  0.63148102  0.63148102  0.18515747  1
  F  F14  1  0.12402913  0.87597087  0.69323418  1
  F  F15  1  0.30676582  0.12402913  0.12402913  1
  F  F16  1  0.12402913  0.12402913  0.69323418  1
  F  F17  1  0.30676582  0.87597087  0.87597087  1
  F  F18  1  0.69323418  0.87597087  0.87597087  1
  F  F19  1  0.63148102  0.81484253  0.36851898  1
  F  F20  1  0.69323418  0.12402913  0.87597087  1
  F  F21  1  0.36851898  0.36851898  0.81484253  1
  F  F22  1  0.63148102  0.18515747  0.36851898  1
  F  F23  1  0.18515747  0.36851898  0.36851898  1
  F  F24  1  0.63148102  0.81484253  0.63148102  1
  F  F25  1  0.36851898  0.81484253  0.63148102  1
  F  F26  1  0.87597087  0.69323418  0.12402913  1
  F  F27  1  0.12402913  0.30676582  0.87597087  1
  F  F28  1  0.81484253  0.63148102  0.36851898  1
  F  F29  1  0.30676582  0.87597087  0.12402913  1
  F  F30  1  0.12402913  0.12402913  0.30676582  1
  F  F31  1  0.87597087  0.87597087  0.69323418  1
  F  F32  1  0.30676582  0.12402913  0.87597087  1
  F  F33  1  0.36851898  0.18515747  0.36851898  1
  F  F34  1  0.18515747  0.36851898  0.63148102  1
  F  F35  1  0.63148102  0.36851898  0.81484253  1
  F  F36  1  0.87597087  0.30676582  0.87597087  1
  F  F37  1  0.36851898  0.36851898  0.18515747  1
  F  F38  1  0.81484253  0.63148102  0.63148102  1
  F  F39  1  0.18515747  0.63148102  0.63148102  1
  F  F40  1  0.63148102  0.63148102  0.81484253  1
  F  F41  1  0.87597087  0.87597087  0.30676582  1
  F  F42  1  0.81484253  0.36851898  0.63148102  1
  F  F43  1  0.36851898  0.81484253  0.36851898  1
  F  F44  1  0.12402913  0.30676582  0.12402913  1
  F  F45  1  0.63148102  0.36851898  0.18515747  1
  F  F46  1  0.69323418  0.12402913  0.12402913  1
  F  F47  1  0.12402913  0.69323418  0.12402913  1
loop_
_geom_bond_atom_site_label_1
_geom_bond_atom_site_label_2
_geom_bond_distance
_geom_bond_site_symmetry_2
Ba0 F17 2.730578 1_544
Ba0 F18 2.730578 1_544
Ba0 F29 2.730578 1_545
Ba0 F32 2.730578 1_554
Ba0 F20 2.730578 1_554
Ba0 F46 2.730578 1_555
Ba0 F15 2.730578 1_555
Ba0 F9 2.730578 1_545
Ba2 F36 2.730578 1_454
Ba2 F10 2.730578 1_455
Ba2 F8 2.730578 1_454
Ba2 F27 2.730578 1_554
Ba2 F2 2.730578 1_554
Ba2 F44 2.730578 1_555
Ba2 F47 2.730578 1_555
Ba2 F26 2.730578 1_455
Ba3 F31 2.730578 1_445
Ba3 F4 2.730578 1_455
Ba3 F41 2.730578 1_445
Ba3 F0 2.730578 1_545
Ba3 F14 2.730578 1_545
Ba3 F5 2.730578 1_455
Ba3 F30 2.730578 1_555
Ba3 F16 2.730578 1_555
Au0 F39 1.889989 1_555
Au0 F25 1.889989 1_555
Au0 F11 1.889989 1_555
Au0 F14 1.946009 1_555
Au0 F2 1.946009 1_555
Au0 F17 1.946009 1_555
Au1 F13 1.889989 1_555
Au1 F28 1.889989 1_555
Au1 F19 1.889989 1_555
Au1 F9 1.946009 1_555
Au1 F26 1.946009 1_555
Au1 F41 1.946009 1_555
Au2 F6 1.889989 1_555
Au2 F7 1.889989 1_555
Au2 F43 1.889989 1_555
Au2 F47 1.946009 1_555
Au2 F0 1.946009 1_555
Au2 F29 1.946009 1_555
Au3 F38 1.889989 1_555
Au3 F24 1.889989 1_555
Au3 F40 1.889989 1_555
Au3 F18 1.946009 1_555
Au3 F8 1.946009 1_555
Au3 F31 1.946009 1_555
Au4 F3 1.889989 1_555
Au4 F35 1.889989 1_555
Au4 F42 1.889989 1_555
Au4 F5 1.946009 1_555
Au4 F20 1.946009 1_555
Au4 F36 1.946009 1_555
Au5 F45 1.889989 1_555
Au5 F22 1.889989 1_555
Au5 F12 1.889989 1_555
Au5 F46 1.946009 1_555
Au5 F10 1.946009 1_555
Au5 F4 1.946009 1_555
Au6 F1 1.889989 1_555
Au6 F34 1.889989 1_555
Au6 F21 1.889989 1_555
Au6 F16 1.946009 1_555
Au6 F32 1.946009 1_555
Au6 F27 1.946009 1_555
Au7 F23 1.889989 1_555
Au7 F33 1.889989 1_555
Au7 F37 1.889989 1_555
Au7 F15 1.946009 1_555
Au7 F30 1.946009 1_555
Au7 F44 1.946009 1_555
