# generated using pymatgen
data_Nd3CuSiS7
_symmetry_space_group_name_H-M   'P 1'
_cell_length_a   10.19380380
_cell_length_b   10.19380380
_cell_length_c   5.79346500
_cell_angle_alpha   90.00000000
_cell_angle_beta   90.00000000
_cell_angle_gamma   119.99999873
_symmetry_Int_Tables_number   1
_chemical_formula_structural   Nd3CuSiS7
_chemical_formula_sum   'Nd6 Cu2 Si2 S14'
_cell_volume   521.36463173
_cell_formula_units_Z   2
loop_
 _symmetry_equiv_pos_site_id
 _symmetry_equiv_pos_as_xyz
  1  'x, y, z'
loop_
 _atom_site_type_symbol
 _atom_site_label
 _atom_site_symmetry_multiplicity
 _atom_site_fract_x
 _atom_site_fract_y
 _atom_site_fract_z
 _atom_site_occupancy
  Nd  Nd0  1  0.23207600  0.87537800  0.74745000  1
  Nd  Nd1  1  0.35669800  0.23207600  0.24745000  1
  Nd  Nd2  1  0.12462200  0.35669800  0.74745000  1
  Nd  Nd3  1  0.76792400  0.12462200  0.24745000  1
  Nd  Nd4  1  0.87537800  0.64330200  0.24745000  1
  Nd  Nd5  1  0.64330200  0.76792400  0.74745000  1
  Cu  Cu0  1  0.00000000  0.00000000  0.22105000  1
  Cu  Cu1  1  0.00000000  0.00000000  0.72105000  1
  Si  Si0  1  0.66666700  0.33333300  0.83327000  1
  Si  Si1  1  0.33333300  0.66666700  0.33327000  1
  S  S0  1  0.52446100  0.11233700  0.97715800  1
  S  S1  1  0.83557300  0.08746900  0.73270100  1
  S  S2  1  0.11233700  0.58787600  0.47715800  1
  S  S3  1  0.47553900  0.88766300  0.47715800  1
  S  S4  1  0.16442700  0.91253100  0.23270100  1
  S  S5  1  0.66666700  0.33333300  0.46845600  1
  S  S6  1  0.91253100  0.74810400  0.73270100  1
  S  S7  1  0.33333300  0.66666700  0.96845600  1
  S  S8  1  0.58787600  0.47553900  0.97715800  1
  S  S9  1  0.74810400  0.83557300  0.23270100  1
  S  S10  1  0.41212400  0.52446100  0.47715800  1
  S  S11  1  0.88766300  0.41212400  0.97715800  1
  S  S12  1  0.08746900  0.25189600  0.23270100  1
  S  S13  1  0.25189600  0.16442700  0.73270100  1
loop_
_geom_bond_atom_site_label_1
_geom_bond_atom_site_label_2
_geom_bond_distance
_geom_bond_site_symmetry_2
Nd0 S6 2.841644 1_455
Nd0 S13 2.852143 1_565
Nd0 S3 2.883819 1_555
Nd0 S4 2.963694 1_556
Nd0 S2 2.992318 1_555
Nd0 S0 3.047908 1_565
Nd0 S7 3.070405 1_555
Nd0 S4 3.126269 1_555
Nd1 S4 2.841644 1_545
Nd1 S12 2.852143 1_555
Nd1 S8 2.883819 1_554
Nd1 S13 2.963694 1_555
Nd1 S0 2.992318 1_554
Nd1 S10 3.047908 1_555
Nd1 S5 3.070414 1_555
Nd1 S13 3.126269 1_554
Nd2 S13 2.841644 1_555
Nd2 S1 2.852143 1_455
Nd2 S2 2.883819 1_555
Nd2 S12 2.963694 1_556
Nd2 S10 2.992318 1_555
Nd2 S11 3.047908 1_455
Nd2 S7 3.070412 1_555
Nd2 S12 3.126269 1_555
Nd3 S12 2.841644 1_655
Nd3 S9 2.852143 1_545
Nd3 S0 2.883819 1_554
Nd3 S1 2.963694 1_555
Nd3 S11 2.992318 1_554
Nd3 S3 3.047908 1_545
Nd3 S5 3.070405 1_555
Nd3 S1 3.126269 1_554
Nd4 S9 2.841644 1_555
Nd4 S4 2.852143 1_655
Nd4 S11 2.883819 1_554
Nd4 S6 2.963694 1_555
Nd4 S8 2.992318 1_554
Nd4 S2 3.047908 1_655
Nd4 S5 3.070412 1_555
Nd4 S6 3.126269 1_554
Nd5 S1 2.841644 1_565
Nd5 S6 2.852143 1_555
Nd5 S10 2.883819 1_555
Nd5 S9 2.963694 1_556
Nd5 S3 2.992318 1_555
Nd5 S8 3.047908 1_555
Nd5 S7 3.070414 1_555
Nd5 S9 3.126269 1_555
Cu0 S4 2.259099 1_545
Cu0 S12 2.259099 1_555
Cu0 S9 2.259099 1_445
Cu1 S1 2.259099 1_455
Cu1 S6 2.259099 1_445
Cu1 S13 2.259099 1_555
S0 Si0 2.146084 1_555
S2 Si1 2.146083 1_555
S3 Si1 2.146084 1_555
S5 Si0 2.113537 1_555
S7 Si1 2.113537 1_556
S8 Si0 2.146091 1_555
S10 Si1 2.146091 1_555
S11 Si0 2.146083 1_555
