# generated using pymatgen
data_SrLiNiF6
_symmetry_space_group_name_H-M   'P 1'
_cell_length_a   5.22322875
_cell_length_b   5.22322875
_cell_length_c   10.47012300
_cell_angle_alpha   90.00000000
_cell_angle_beta   90.00000000
_cell_angle_gamma   120.00000946
_symmetry_Int_Tables_number   1
_chemical_formula_structural   SrLiNiF6
_chemical_formula_sum   'Sr2 Li2 Ni2 F12'
_cell_volume   247.37765343
_cell_formula_units_Z   2
loop_
 _symmetry_equiv_pos_site_id
 _symmetry_equiv_pos_as_xyz
  1  'x, y, z'
loop_
 _atom_site_type_symbol
 _atom_site_label
 _atom_site_symmetry_multiplicity
 _atom_site_fract_x
 _atom_site_fract_y
 _atom_site_fract_z
 _atom_site_occupancy
  Sr  Sr0  1  0.00000000  0.00000000  0.00000000  1
  Sr  Sr1  1  0.00000000  0.00000000  0.50000000  1
  Li  Li0  1  0.33333300  0.66666700  0.25000000  1
  Li  Li1  1  0.66666700  0.33333300  0.75000000  1
  Ni  Ni0  1  0.66666700  0.33333300  0.25000000  1
  Ni  Ni1  1  0.33333300  0.66666700  0.75000000  1
  F  F0  1  0.37744900  0.01986500  0.14571800  1
  F  F1  1  0.62255100  0.64241700  0.64571800  1
  F  F2  1  0.35758300  0.98013500  0.64571800  1
  F  F3  1  0.01986500  0.37744900  0.64571800  1
  F  F4  1  0.98013500  0.62255100  0.35428200  1
  F  F5  1  0.98013500  0.35758300  0.14571800  1
  F  F6  1  0.64241700  0.62255100  0.14571800  1
  F  F7  1  0.64241700  0.01986500  0.35428200  1
  F  F8  1  0.01986500  0.64241700  0.85428200  1
  F  F9  1  0.37744900  0.35758300  0.35428200  1
  F  F10  1  0.62255100  0.98013500  0.85428200  1
  F  F11  1  0.35758300  0.37744900  0.85428200  1
loop_
_geom_bond_atom_site_label_1
_geom_bond_atom_site_label_2
_geom_bond_distance
_geom_bond_site_symmetry_2
F0 Ni0 1.918745 1_555
F0 Li0 2.055124 1_545
F0 Sr0 2.453720 1_555
F1 Ni1 1.918745 1_555
F1 Li1 2.055133 1_555
F1 Sr1 2.453718 1_665
F2 Ni1 1.918745 1_555
F2 Li1 2.055127 1_565
F2 Sr1 2.453716 1_565
F3 Ni1 1.918745 1_555
F3 Li1 2.055124 1_455
F3 Sr1 2.453720 1_555
F4 Ni0 1.918745 1_555
F4 Li0 2.055124 1_655
F4 Sr1 2.453720 1_665
F5 Ni0 1.918745 1_555
F5 Li0 2.055127 1_655
F5 Sr0 2.453716 1_655
F6 Ni0 1.918745 1_555
F6 Li0 2.055133 1_555
F6 Sr0 2.453718 1_665
F7 Ni0 1.918745 1_555
F7 Li0 2.055127 1_545
F7 Sr1 2.453716 1_655
F8 Ni1 1.918745 1_555
F8 Li1 2.055127 1_455
F8 Sr0 2.453716 1_566
F9 Ni0 1.918745 1_555
F9 Li0 2.055133 1_555
F9 Sr1 2.453718 1_555
F10 Ni1 1.918745 1_555
F10 Li1 2.055124 1_565
F10 Sr0 2.453720 1_666
F11 Ni1 1.918745 1_555
F11 Li1 2.055133 1_555
F11 Sr0 2.453718 1_556
