# generated using pymatgen
data_Ca4Nb2O9
_symmetry_space_group_name_H-M   'P 1'
_cell_length_a   8.09693000
_cell_length_b   9.86572471
_cell_length_c   11.42548421
_cell_angle_alpha   107.31906827
_cell_angle_beta   88.56073995
_cell_angle_gamma   112.84671416
_symmetry_Int_Tables_number   1
_chemical_formula_structural   Ca4Nb2O9
_chemical_formula_sum   'Ca16 Nb8 O36'
_cell_volume   798.69798270
_cell_formula_units_Z   4
loop_
 _symmetry_equiv_pos_site_id
 _symmetry_equiv_pos_as_xyz
  1  'x, y, z'
loop_
 _atom_site_type_symbol
 _atom_site_label
 _atom_site_symmetry_multiplicity
 _atom_site_fract_x
 _atom_site_fract_y
 _atom_site_fract_z
 _atom_site_occupancy
  Ca  Ca0  1  0.16291000  0.82895200  0.83220100  1
  Ca  Ca1  1  0.29905300  0.52337400  0.76104700  1
  Ca  Ca2  1  0.78014500  0.53469100  0.78385600  1
  Ca  Ca3  1  0.50393100  0.50633200  0.50097000  1
  Ca  Ca4  1  0.53536800  0.12789300  0.90243700  1
  Ca  Ca5  1  0.05567000  0.15163200  0.90245400  1
  Ca  Ca6  1  0.83121600  0.16711900  0.66855200  1
  Ca  Ca7  1  0.60577300  0.17801400  0.43317600  1
  Ca  Ca8  1  0.13041300  0.20091700  0.44446300  1
  Ca  Ca9  1  0.83335700  0.16454400  0.16799800  1
  Ca  Ca10  1  0.89071700  0.80368100  0.55236600  1
  Ca  Ca11  1  0.36492100  0.81518700  0.57376600  1
  Ca  Ca12  1  0.95742900  0.84177700  0.09361600  1
  Ca  Ca13  1  0.45232200  0.85969700  0.09687000  1
  Ca  Ca14  1  0.20869400  0.46604100  0.23494700  1
  Ca  Ca15  1  0.70292400  0.47855600  0.24082600  1
  Nb  Nb0  1  0.00379700  0.48347700  0.99847300  1
  Nb  Nb1  1  0.67927800  0.83717400  0.82454700  1
  Nb  Nb2  1  0.34776400  0.18357700  0.67707400  1
  Nb  Nb3  1  0.98651500  0.49439200  0.50928300  1
  Nb  Nb4  1  0.66604100  0.85318600  0.33761000  1
  Nb  Nb5  1  0.15209700  0.82463400  0.33019000  1
  Nb  Nb6  1  0.32754100  0.16252500  0.17080500  1
  Nb  Nb7  1  0.51233500  0.50829000  0.01285800  1
  O  O0  1  0.21459900  0.43093800  0.99457700  1
  O  O1  1  0.50913800  0.66664800  0.94406300  1
  O  O2  1  0.88566700  0.81299400  0.89395800  1
  O  O3  1  0.61420700  0.63015800  0.70168700  1
  O  O4  1  0.48769300  0.36735700  0.81697400  1
  O  O5  1  0.24752200  0.05979000  0.78992300  1
  O  O6  1  0.07759100  0.59692100  0.87728600  1
  O  O7  1  0.84896400  0.29330200  0.88008300  1
  O  O8  1  0.69171600  0.00857800  0.97331600  1
  O  O9  1  0.52548900  0.08773700  0.64013900  1
  O  O10  1  0.43612500  0.82463900  0.77557500  1
  O  O11  1  0.84199800  0.37183200  0.60438800  1
  O  O12  1  0.82445900  0.96234800  0.73076400  1
  O  O13  1  0.23134200  0.50995800  0.55878000  1
  O  O14  1  0.13716700  0.24021800  0.67989900  1
  O  O15  1  0.97897400  0.32344100  0.36221900  1
  O  O16  1  0.81677300  0.04223800  0.45498600  1
  O  O17  1  0.58921100  0.73791400  0.45597900  1
  O  O18  1  0.41884500  0.27344400  0.53914900  1
  O  O19  1  0.18031800  0.96196500  0.50136300  1
  O  O20  1  0.05562500  0.70456300  0.63065200  1
  O  O21  1  0.89069200  0.76846400  0.31483900  1
  O  O22  1  0.78335400  0.52204500  0.44104200  1
  O  O23  1  0.19198600  0.02366100  0.26967300  1
  O  O24  1  0.15577000  0.66058200  0.38562500  1
  O  O25  1  0.56682800  0.17583500  0.22799200  1
  O  O26  1  0.45161400  0.90004000  0.33471000  1
  O  O27  1  0.30658700  0.98338400  0.02490700  1
  O  O28  1  0.14714600  0.71424800  0.14668500  1
  O  O29  1  0.92041500  0.41064600  0.13985000  1
  O  O30  1  0.74462100  0.91847600  0.19229300  1
  O  O31  1  0.51522900  0.61865200  0.18393900  1
  O  O32  1  0.37469200  0.35950900  0.30383700  1
  O  O33  1  0.10426000  0.16605600  0.10570700  1
  O  O34  1  0.47169800  0.31349400  0.05707900  1
  O  O35  1  0.77147400  0.56226200  0.01567700  1
loop_
_geom_bond_atom_site_label_1
_geom_bond_atom_site_label_2
_geom_bond_distance
_geom_bond_site_symmetry_2
Ca0 O20 2.270154 1_555
Ca0 O2 2.296519 1_455
Ca0 O27 2.297273 1_556
Ca0 O10 2.301965 1_555
Ca0 O5 2.305634 1_565
Ca0 O6 2.332164 1_555
Ca1 O13 2.341793 1_555
Ca1 O1 2.411596 1_555
Ca1 O6 2.413030 1_555
Ca1 O14 2.461128 1_555
Ca1 O3 2.516412 1_555
Ca1 O10 2.692071 1_555
Ca1 O4 2.751498 1_555
Ca1 O0 3.048168 1_555
Ca2 O3 2.268522 1_555
Ca2 O11 2.376695 1_555
Ca2 O4 2.401476 1_555
Ca2 O6 2.430552 1_655
Ca2 O2 2.455001 1_555
Ca2 O35 2.582807 1_556
Ca3 O3 2.266417 1_555
Ca3 O32 2.294588 1_555
Ca3 O13 2.298478 1_555
Ca3 O18 2.301384 1_555
Ca3 O22 2.307519 1_555
Ca3 O17 2.327520 1_555
Ca4 O8 2.328151 1_555
Ca4 O34 2.345526 1_556
Ca4 O5 2.440549 1_555
Ca4 O7 2.484661 1_555
Ca4 O27 2.535502 1_546
Ca4 O10 2.703214 1_545
Ca4 O9 2.902619 1_555
Ca4 O4 2.963849 1_555
Ca5 O5 2.277327 1_555
Ca5 O33 2.318106 1_556
Ca5 O0 2.438146 1_555
Ca5 O12 2.475632 1_445
Ca5 O7 2.621214 1_455
Ca5 O14 2.907935 1_555
Ca5 O8 2.943204 1_455
Ca5 O2 3.050964 1_445
Ca6 O9 2.286948 1_555
Ca6 O14 2.290610 1_655
Ca6 O12 2.314449 1_545
Ca6 O11 2.316338 1_555
Ca6 O7 2.344936 1_555
Ca6 O16 2.366054 1_555
Ca7 O18 2.231369 1_555
Ca7 O25 2.365931 1_555
Ca7 O26 2.433104 1_545
Ca7 O11 2.502442 1_555
Ca7 O16 2.602399 1_555
Ca7 O9 2.744909 1_555
Ca7 O15 3.008279 1_555
Ca7 O22 3.103340 1_555
Ca8 O18 2.346254 1_555
Ca8 O15 2.394337 1_455
Ca8 O23 2.417159 1_555
Ca8 O16 2.433909 1_455
Ca8 O14 2.599848 1_555
Ca8 O13 2.723507 1_555
Ca8 O19 2.794426 1_545
Ca8 O32 2.806368 1_555
Ca9 O25 2.281758 1_555
Ca9 O33 2.284864 1_655
Ca9 O8 2.313143 1_554
Ca9 O15 2.323122 1_555
Ca9 O30 2.350202 1_545
Ca9 O29 2.370626 1_555
Ca10 O20 2.265800 1_655
Ca10 O12 2.364384 1_555
Ca10 O19 2.430284 1_655
Ca10 O17 2.464386 1_555
Ca10 O22 2.483856 1_555
Ca10 O21 2.631413 1_555
Ca11 O10 2.356832 1_555
Ca11 O9 2.369890 1_565
Ca11 O17 2.455983 1_555
Ca11 O24 2.457659 1_555
Ca11 O20 2.470517 1_555
Ca11 O13 2.727685 1_555
Ca11 O19 2.733408 1_555
Ca12 O2 2.274832 1_554
Ca12 O30 2.284664 1_555
Ca12 O35 2.458771 1_555
Ca12 O23 2.503918 1_665
Ca12 O28 2.512391 1_655
Ca12 O21 2.814276 1_555
Ca12 O27 2.834617 1_655
Ca12 O33 2.908479 1_665
Ca13 O27 2.306887 1_555
Ca13 O1 2.355298 1_554
Ca13 O30 2.411173 1_555
Ca13 O28 2.480130 1_555
Ca13 O8 2.606463 1_564
Ca13 O26 2.626775 1_555
Ca13 O25 2.806068 1_565
Ca13 O31 3.046135 1_555
Ca14 O32 2.274498 1_555
Ca14 O24 2.337828 1_555
Ca14 O29 2.389742 1_455
Ca14 O31 2.512912 1_555
Ca14 O15 2.569746 1_455
Ca14 O0 2.665448 1_554
Ca14 O33 2.678049 1_555
Ca15 O22 2.261559 1_555
Ca15 O29 2.288006 1_555
Ca15 O34 2.521704 1_555
Ca15 O21 2.540646 1_555
Ca15 O31 2.618787 1_555
Ca15 O32 2.635218 1_555
Ca15 O25 2.710557 1_555
Ca15 O35 2.905966 1_555
Nb0 O7 1.915518 1_455
Nb0 O29 1.959806 1_456
Nb0 O0 1.963020 1_555
Nb0 O6 1.971956 1_555
Nb0 O28 2.269251 1_556
Nb0 O35 2.281927 1_456
Nb1 O12 1.911109 1_555
Nb1 O3 1.978366 1_555
Nb1 O8 1.980884 1_565
Nb1 O2 1.991797 1_555
Nb1 O10 2.007383 1_555
Nb1 O1 2.463003 1_555
Nb2 O4 1.973909 1_555
Nb2 O5 1.981887 1_555
Nb2 O9 1.982782 1_555
Nb2 O14 1.986808 1_555
Nb2 O18 1.997670 1_555
Nb2 O19 2.422873 1_545
Nb3 O11 1.905703 1_555
Nb3 O15 1.977237 1_555
Nb3 O22 1.981885 1_555
Nb3 O20 1.990349 1_655
Nb3 O13 2.010302 1_655
Nb3 O24 2.469739 1_655
Nb4 O16 1.895282 1_565
Nb4 O17 1.957919 1_555
Nb4 O30 1.960054 1_555
Nb4 O26 1.965804 1_555
Nb4 O21 2.258851 1_555
Nb4 O31 2.328638 1_555
Nb5 O24 1.915781 1_555
Nb5 O21 1.966653 1_455
Nb5 O19 1.979190 1_555
Nb5 O28 2.048012 1_555
Nb5 O23 2.177742 1_565
Nb5 O26 2.240528 1_555
Nb6 O32 1.981691 1_555
Nb6 O33 1.988659 1_555
Nb6 O27 1.989564 1_545
Nb6 O25 2.003241 1_555
Nb6 O23 2.012226 1_555
Nb6 O34 2.235002 1_555
Nb7 O31 1.929294 1_555
Nb7 O35 1.952623 1_555
Nb7 O1 1.955221 1_554
Nb7 O34 2.033615 1_555
Nb7 O4 2.221771 1_554
Nb7 O0 2.222496 1_554
