# generated using pymatgen
data_NbAsPCl13
_symmetry_space_group_name_H-M   'P 1'
_cell_length_a   9.78837128
_cell_length_b   9.78837128
_cell_length_c   12.11086000
_cell_angle_alpha   90.00000000
_cell_angle_beta   90.00000000
_cell_angle_gamma   114.85519392
_symmetry_Int_Tables_number   1
_chemical_formula_structural   NbAsPCl13
_chemical_formula_sum   'Nb2 As2 P2 Cl26'
_cell_volume   1052.88684651
_cell_formula_units_Z   2
loop_
 _symmetry_equiv_pos_site_id
 _symmetry_equiv_pos_as_xyz
  1  'x, y, z'
loop_
 _atom_site_type_symbol
 _atom_site_label
 _atom_site_symmetry_multiplicity
 _atom_site_fract_x
 _atom_site_fract_y
 _atom_site_fract_z
 _atom_site_occupancy
  Nb  Nb0  1  0.20573700  0.79426300  0.50146000  1
  Nb  Nb1  1  0.79426300  0.20573700  0.00146000  1
  As  As0  1  0.54743700  0.45256300  0.15084200  1
  As  As1  1  0.45256300  0.54743700  0.65084200  1
  P  P0  1  0.14085100  0.85914900  0.96247500  1
  P  P1  1  0.85914900  0.14085100  0.46247500  1
  Cl  Cl0  1  0.37802100  0.30241000  0.62724600  1
  Cl  Cl1  1  0.74665600  0.25334400  0.41173300  1
  Cl  Cl2  1  0.44902900  0.55097100  0.83444800  1
  Cl  Cl3  1  0.30740800  0.01196400  0.38770300  1
  Cl  Cl4  1  0.06572500  0.23731900  0.40682900  1
  Cl  Cl5  1  0.25334400  0.74665600  0.91173300  1
  Cl  Cl6  1  0.30241000  0.37802100  0.12724600  1
  Cl  Cl7  1  0.01196400  0.30740800  0.88770300  1
  Cl  Cl8  1  0.98803600  0.69259200  0.38770300  1
  Cl  Cl9  1  0.93427500  0.76268100  0.90682900  1
  Cl  Cl10  1  0.55097100  0.44902900  0.33444800  1
  Cl  Cl11  1  0.13900500  0.86099500  0.12400200  1
  Cl  Cl12  1  0.89635500  0.42502700  0.11747300  1
  Cl  Cl13  1  0.32546700  0.67453300  0.39247800  1
  Cl  Cl14  1  0.91215700  0.08784300  0.11606000  1
  Cl  Cl15  1  0.69259200  0.98803600  0.88770300  1
  Cl  Cl16  1  0.76268100  0.93427500  0.40682900  1
  Cl  Cl17  1  0.23731900  0.06572500  0.90682900  1
  Cl  Cl18  1  0.67453300  0.32546700  0.89247800  1
  Cl  Cl19  1  0.62197900  0.69759000  0.12724600  1
  Cl  Cl20  1  0.57497300  0.10364500  0.11747300  1
  Cl  Cl21  1  0.86099500  0.13900500  0.62400200  1
  Cl  Cl22  1  0.42502700  0.89635500  0.61747300  1
  Cl  Cl23  1  0.69759000  0.62197900  0.62724600  1
  Cl  Cl24  1  0.08784300  0.91215700  0.61606000  1
  Cl  Cl25  1  0.10364500  0.57497300  0.61747300  1
loop_
_geom_bond_atom_site_label_1
_geom_bond_atom_site_label_2
_geom_bond_distance
_geom_bond_site_symmetry_2
As0 Cl6 2.212534 1_555
As0 Cl19 2.212534 1_555
As0 Cl10 2.224391 1_555
As1 Cl0 2.212534 1_555
As1 Cl23 2.212534 1_555
As1 Cl2 2.224391 1_555
Cl1 P1 1.954958 1_555
Cl3 Nb0 2.376254 1_545
Cl4 P1 1.956877 1_455
Cl5 P0 1.954958 1_555
Cl7 Nb1 2.376254 1_456
Cl8 Nb0 2.376254 1_655
Cl9 P0 1.956877 1_655
Cl11 P0 1.956468 1_554
Cl12 Nb1 2.403521 1_555
Cl13 Nb0 2.375640 1_555
Cl14 Nb1 2.389384 1_555
Cl15 Nb1 2.376254 1_566
Cl16 P1 1.956877 1_565
Cl17 P0 1.956877 1_545
Cl18 Nb1 2.375640 1_556
Cl20 Nb1 2.403521 1_555
Cl21 P1 1.956468 1_555
Cl22 Nb0 2.403521 1_555
Cl24 Nb0 2.389384 1_555
Cl25 Nb0 2.403521 1_555
