# generated using pymatgen
data_Na6TlSb4
_symmetry_space_group_name_H-M   'P 1'
_cell_length_a   9.27675499
_cell_length_b   9.27479340
_cell_length_c   17.11271040
_cell_angle_alpha   99.90659471
_cell_angle_beta   101.26821358
_cell_angle_gamma   108.79011965
_symmetry_Int_Tables_number   1
_chemical_formula_structural   Na6TlSb4
_chemical_formula_sum   'Na24 Tl4 Sb16'
_cell_volume   1322.53003982
_cell_formula_units_Z   4
loop_
 _symmetry_equiv_pos_site_id
 _symmetry_equiv_pos_as_xyz
  1  'x, y, z'
loop_
 _atom_site_type_symbol
 _atom_site_label
 _atom_site_symmetry_multiplicity
 _atom_site_fract_x
 _atom_site_fract_y
 _atom_site_fract_z
 _atom_site_occupancy
  Tl  Tl0  1  0.41174488  0.55877110  0.66906843  1
  Tl  Tl1  1  0.38964054  0.74261990  0.83099359  1
  Tl  Tl2  1  0.58825512  0.44122890  0.33093157  1
  Tl  Tl3  1  0.61035946  0.25738010  0.16900641  1
  Sb  Sb0  1  0.07535941  0.29629526  0.57273254  1
  Sb  Sb1  1  0.22354444  0.50259667  0.92728953  1
  Sb  Sb2  1  0.92464059  0.70370474  0.42726746  1
  Sb  Sb3  1  0.77645556  0.49740333  0.07271047  1
  Sb  Sb4  1  0.55501261  0.79613086  0.57131410  1
  Sb  Sb5  1  0.72480563  0.98372742  0.92868101  1
  Sb  Sb6  1  0.44498739  0.20386914  0.42868590  1
  Sb  Sb7  1  0.27519437  0.01627258  0.07131899  1
  Sb  Sb8  1  0.63182350  0.38321337  0.72935632  1
  Sb  Sb9  1  0.15398868  0.90255321  0.77055418  1
  Sb  Sb10  1  0.36817650  0.61678663  0.27064368  1
  Sb  Sb11  1  0.84601132  0.09744679  0.22944582  1
  Sb  Sb12  1  0.68177324  0.85454951  0.41422515  1
  Sb  Sb13  1  0.94026213  0.26755520  0.08577503  1
  Sb  Sb14  1  0.31822676  0.14545049  0.58577485  1
  Sb  Sb15  1  0.05973787  0.73244480  0.91422497  1
  Na  Na0  1  0.69706603  0.52923398  0.55356010  1
  Na  Na1  1  0.47584354  0.14363770  0.94645398  1
  Na  Na2  1  0.30293397  0.47076602  0.44643990  1
  Na  Na3  1  0.52415646  0.85636230  0.05354602  1
  Na  Na4  1  0.94606407  0.94334465  0.59944278  1
  Na  Na5  1  0.84397352  0.34669003  0.90050979  1
  Na  Na6  1  0.05393593  0.05665535  0.40055722  1
  Na  Na7  1  0.15602648  0.65330997  0.09949021  1
  Na  Na8  1  0.78443387  0.78468668  0.76195691  1
  Na  Na9  1  0.52265246  0.02220977  0.73810985  1
  Na  Na10  1  0.21556613  0.21531332  0.23804309  1
  Na  Na11  1  0.47734754  0.97779023  0.26189015  1
  Na  Na12  1  0.00553444  0.49370600  0.73464003  1
  Na  Na13  1  0.25887223  0.27112277  0.76533626  1
  Na  Na14  1  0.99446556  0.50629400  0.26535997  1
  Na  Na15  1  0.74112777  0.72887723  0.23466374  1
  Na  Na16  1  0.69260894  0.15708004  0.57719500  1
  Na  Na17  1  0.07992986  0.11553920  0.92277037  1
  Na  Na18  1  0.30739106  0.84291996  0.42280500  1
  Na  Na19  1  0.92007014  0.88446080  0.07722963  1
  Na  Na20  1  0.17315352  0.71710296  0.59188459  1
  Na  Na21  1  0.62562523  0.58136167  0.90798265  1
  Na  Na22  1  0.82684648  0.28289704  0.40811541  1
  Na  Na23  1  0.37437477  0.41863833  0.09201735  1
loop_
_geom_bond_atom_site_label_1
_geom_bond_atom_site_label_2
_geom_bond_distance
_geom_bond_site_symmetry_2
Tl0 Tl1 3.073997 1_555
Tl2 Tl3 3.073997 1_555
Sb0 Sb14 3.004129 1_555
Sb0 Tl0 3.177548 1_555
Sb1 Sb15 3.003630 1_555
Sb1 Tl1 3.176530 1_555
Sb2 Tl2 3.177548 1_555
Sb3 Tl3 3.176530 1_555
Sb4 Tl0 3.108442 1_555
Sb5 Tl1 3.109012 1_555
Sb6 Tl2 3.108442 1_555
Sb7 Tl3 3.109012 1_555
Sb8 Tl0 3.127330 1_555
Sb9 Tl1 3.127664 1_555
Sb10 Tl2 3.127330 1_555
Sb10 Sb12 3.251571 1_555
Sb11 Tl3 3.127664 1_555
Sb11 Sb13 3.253384 1_555
Sb12 Sb2 3.004129 1_555
Sb12 Sb4 3.198281 1_555
Sb12 Tl2 3.601938 1_555
Sb13 Sb3 3.003630 1_555
Sb13 Sb5 3.198010 1_544
Sb13 Tl3 3.601041 1_555
Sb14 Sb6 3.198281 1_555
Sb14 Sb8 3.251571 1_555
Sb14 Tl0 3.601938 1_555
Sb15 Sb7 3.198010 1_566
Sb15 Sb9 3.253384 1_555
Sb15 Tl1 3.601041 1_555
Na0 Sb4 3.155266 1_555
Na0 Sb6 3.228561 1_555
Na0 Sb2 3.540056 1_555
Na0 Sb8 3.582743 1_555
Na0 Tl2 3.618827 1_555
Na0 Tl0 3.648771 1_555
Na1 Sb5 3.154714 1_545
Na1 Sb7 3.229917 1_556
Na1 Sb3 3.538674 1_556
Na1 Sb9 3.584168 1_545
Na1 Tl3 3.617567 1_556
Na1 Tl1 3.648955 1_545
Na2 Sb6 3.155266 1_555
Na2 Sb4 3.228561 1_555
Na2 Sb0 3.540056 1_555
Na2 Sb10 3.582743 1_555
Na2 Tl0 3.618827 1_555
Na2 Tl2 3.648771 1_555
Na3 Sb7 3.154714 1_565
Na3 Sb5 3.229917 1_554
Na3 Sb1 3.538674 1_554
Na3 Sb11 3.584168 1_565
Na3 Tl1 3.617567 1_554
Na3 Tl3 3.648955 1_565
Na4 Sb0 3.250132 1_665
Na4 Sb2 3.300604 1_555
Na4 Sb9 3.328949 1_655
Na4 Sb4 3.340159 1_555
Na4 Sb12 3.391121 1_555
Na4 Sb14 3.432974 1_665
Na5 Sb1 3.249767 1_655
Na5 Sb3 3.301212 1_556
Na5 Sb8 3.329360 1_555
Na5 Sb5 3.340127 1_545
Na5 Sb13 3.391789 1_556
Na5 Sb15 3.431649 1_655
Na6 Sb2 3.250132 1_445
Na6 Sb0 3.300604 1_555
Na6 Sb11 3.328949 1_455
Na6 Sb6 3.340159 1_555
Na6 Sb14 3.391121 1_555
Na6 Sb12 3.432974 1_445
Na7 Sb3 3.249767 1_455
Na7 Sb1 3.301212 1_554
Na7 Sb10 3.329360 1_555
Na7 Sb7 3.340127 1_565
Na7 Sb15 3.391789 1_554
Na7 Sb13 3.431649 1_455
Na8 Sb9 3.209824 1_655
Na8 Tl0 3.302997 1_555
Na8 Sb5 3.363990 1_555
Na8 Sb8 3.429456 1_555
Na8 Sb15 3.489694 1_655
Na8 Sb4 3.568670 1_555
Na9 Sb8 3.210325 1_555
Na9 Tl1 3.301039 1_545
Na9 Sb4 3.363781 1_545
Na9 Sb9 3.427146 1_545
Na9 Sb14 3.491176 1_555
Na9 Sb5 3.566680 1_545
Na10 Sb11 3.209824 1_455
Na10 Tl2 3.302997 1_555
Na10 Sb7 3.363990 1_555
Na10 Sb10 3.429456 1_555
Na10 Sb13 3.489694 1_455
Na10 Sb6 3.568670 1_555
Na11 Sb10 3.210325 1_555
Na11 Tl3 3.301039 1_565
Na11 Sb6 3.363781 1_565
Na11 Sb11 3.427146 1_565
Na11 Sb12 3.491176 1_555
Na11 Sb7 3.566680 1_565
Na12 Sb8 3.261004 1_455
Na12 Sb15 3.307208 1_555
Na12 Sb0 3.341923 1_555
Na12 Tl1 3.440936 1_555
Na12 Sb9 3.486625 1_555
Na12 Sb1 3.486970 1_555
Na13 Sb9 3.261364 1_545
Na13 Sb14 3.308481 1_555
Na13 Sb1 3.340415 1_555
Na13 Tl0 3.439574 1_555
Na13 Sb0 3.484839 1_555
Na13 Sb8 3.487925 1_555
Na14 Sb10 3.261004 1_655
Na14 Sb13 3.307208 1_555
Na14 Sb2 3.341923 1_555
Na14 Tl3 3.440936 1_555
Na14 Sb11 3.486625 1_555
Na14 Sb3 3.486970 1_555
Na15 Sb11 3.261364 1_565
Na15 Sb12 3.308481 1_555
Na15 Sb3 3.340415 1_555
Na15 Tl2 3.439574 1_555
Na15 Sb2 3.484839 1_555
Na15 Sb10 3.487925 1_555
Na16 Sb4 3.150840 1_545
Na16 Sb6 3.265573 1_555
Na16 Sb8 3.309628 1_555
Na16 Sb0 3.386269 1_655
Na16 Sb14 3.472562 1_555
Na16 Sb12 3.560495 1_545
Na17 Sb5 3.152161 1_445
Na17 Sb7 3.266668 1_556
Na17 Sb9 3.310967 1_545
Na17 Sb1 3.383981 1_555
Na17 Sb15 3.473169 1_545
Na17 Sb13 3.561412 1_456
Na18 Sb6 3.150840 1_565
Na18 Sb4 3.265573 1_555
Na18 Sb10 3.309628 1_555
Na18 Sb2 3.386269 1_455
Na18 Sb12 3.472562 1_555
Na18 Sb14 3.560495 1_565
Na19 Sb7 3.152161 1_665
Na19 Sb5 3.266668 1_554
Na19 Sb11 3.310967 1_565
Na19 Sb3 3.383981 1_555
Na19 Sb13 3.473169 1_565
Na19 Sb15 3.561412 1_654
Na20 Tl0 3.227808 1_555
Na20 Sb2 3.228465 1_455
Na20 Sb9 3.307323 1_555
Na20 Sb4 3.480416 1_555
Na20 Sb0 3.650452 1_555
Na20 Sb14 3.789342 1_565
Na21 Tl1 3.228823 1_555
Na21 Sb3 3.228985 1_556
Na21 Sb8 3.305823 1_555
Na21 Sb5 3.479174 1_555
Na21 Sb1 3.655825 1_555
Na21 Sb15 3.786555 1_655
Na22 Tl2 3.227808 1_555
Na22 Sb0 3.228465 1_655
Na22 Sb11 3.307323 1_555
Na22 Sb6 3.480416 1_555
Na22 Sb2 3.650452 1_555
Na22 Sb12 3.789342 1_545
Na23 Tl3 3.228823 1_555
Na23 Sb1 3.228985 1_554
Na23 Sb10 3.305823 1_555
Na23 Sb7 3.479174 1_555
Na23 Sb3 3.655825 1_555
Na23 Sb13 3.786555 1_455
