# generated using pymatgen
data_K2ZnCu3P3O12F
_symmetry_space_group_name_H-M   'P 1'
_cell_length_a   14.36556291
_cell_length_b   4.87981883
_cell_length_c   7.87006132
_cell_angle_alpha   89.91131839
_cell_angle_beta   90.00000000
_cell_angle_gamma   90.00000000
_symmetry_Int_Tables_number   1
_chemical_formula_structural   K2ZnCu3P3O12F
_chemical_formula_sum   'K4 Zn2 Cu6 P6 O24 F2'
_cell_volume   551.70121849
_cell_formula_units_Z   2
loop_
 _symmetry_equiv_pos_site_id
 _symmetry_equiv_pos_as_xyz
  1  'x, y, z'
loop_
 _atom_site_type_symbol
 _atom_site_label
 _atom_site_symmetry_multiplicity
 _atom_site_fract_x
 _atom_site_fract_y
 _atom_site_fract_z
 _atom_site_occupancy
  K  K0  1  0.25000000  0.44778759  0.36104323  1
  K  K1  1  0.50000000  0.50000000  0.00000000  1
  K  K2  1  0.75000000  0.55221241  0.63895677  1
  K  K3  1  0.00000000  0.50000000  0.00000000  1
  Zn  Zn0  1  0.75000000  0.03214184  0.95376538  1
  Zn  Zn1  1  0.25000000  0.96785816  0.04623462  1
  Cu  Cu0  1  0.63778174  0.06597655  0.35579176  1
  Cu  Cu1  1  0.86221826  0.06597655  0.35579176  1
  Cu  Cu2  1  0.13778174  0.93402345  0.64420824  1
  Cu  Cu3  1  0.36221826  0.93402345  0.64420824  1
  Cu  Cu4  1  0.00000000  0.50000000  0.50000000  1
  Cu  Cu5  1  0.50000000  0.50000000  0.50000000  1
  P  P0  1  0.06627262  0.99707792  0.29340336  1
  P  P1  1  0.75000000  0.52795913  0.18080613  1
  P  P2  1  0.93372738  0.00292208  0.70659664  1
  P  P3  1  0.25000000  0.47204087  0.81919387  1
  P  P4  1  0.56627262  0.00292208  0.70659664  1
  P  P5  1  0.43372738  0.99707792  0.29340336  1
  O  O0  1  0.33804323  0.56264269  0.72374742  1
  O  O1  1  0.66195677  0.43735731  0.27625258  1
  O  O2  1  0.52965555  0.05719526  0.21676122  1
  O  O3  1  0.75000000  0.42165387  0.99697626  1
  O  O4  1  0.86020221  0.91638344  0.83384825  1
  O  O5  1  0.57882013  0.83116749  0.53903148  1
  O  O6  1  0.25000000  0.57834613  0.00302374  1
  O  O7  1  0.47034445  0.94280474  0.78323878  1
  O  O8  1  0.92343559  0.30842842  0.66124132  1
  O  O9  1  0.25000000  0.15335718  0.82457037  1
  O  O10  1  0.36020221  0.08361656  0.16615175  1
  O  O11  1  0.16195677  0.56264269  0.72374742  1
  O  O12  1  0.42117987  0.16883251  0.46096852  1
  O  O13  1  0.57656441  0.30842842  0.66124132  1
  O  O14  1  0.02965555  0.94280474  0.78323878  1
  O  O15  1  0.42343559  0.69157158  0.33875868  1
  O  O16  1  0.92117987  0.83116749  0.53903148  1
  O  O17  1  0.63979779  0.91638344  0.83384825  1
  O  O18  1  0.97034445  0.05719526  0.21676122  1
  O  O19  1  0.75000000  0.84664282  0.17542963  1
  O  O20  1  0.07882013  0.16883251  0.46096852  1
  O  O21  1  0.83804323  0.43735731  0.27625258  1
  O  O22  1  0.07656441  0.69157158  0.33875868  1
  O  O23  1  0.13979779  0.08361656  0.16615175  1
  F  F0  1  0.75000000  0.06056368  0.49290081  1
  F  F1  1  0.25000000  0.93943632  0.50709919  1
loop_
_geom_bond_atom_site_label_1
_geom_bond_atom_site_label_2
_geom_bond_distance
_geom_bond_site_symmetry_2
K0 O15 2.766385 1_555
K0 O22 2.766385 1_555
K0 O23 2.832897 1_555
K0 O10 2.832897 1_555
K0 O6 2.887804 1_555
K0 O12 2.918097 1_555
K0 O20 2.918097 1_555
K0 O0 3.172849 1_555
K0 O11 3.172849 1_555
K1 O2 2.783764 1_555
K1 O7 2.783764 1_554
K1 O15 3.033022 1_555
K1 O13 3.033022 1_554
K1 O10 3.140596 1_555
K1 O17 3.140596 1_554
K1 O1 3.198636 1_555
K1 O0 3.198636 1_554
K1 O7 3.240224 1_544
K1 O2 3.240224 1_565
K2 O13 2.766385 1_555
K2 O8 2.766385 1_555
K2 O4 2.832897 1_555
K2 O17 2.832897 1_555
K2 O3 2.887804 1_555
K2 O16 2.918097 1_555
K2 O5 2.918097 1_555
K2 O1 3.172849 1_555
K2 O21 3.172849 1_555
K3 O14 2.783764 1_554
K3 O18 2.783764 1_455
K3 O22 3.033022 1_555
K3 O8 3.033022 1_454
K3 O23 3.140596 1_555
K3 O4 3.140596 1_454
K3 O11 3.198636 1_554
K3 O21 3.198636 1_455
K3 O14 3.240224 1_544
K3 O18 3.240224 1_465
Cu0 O2 1.900508 1_555
Cu0 F0 1.940044 1_555
Cu0 O1 1.947632 1_555
Cu0 O5 2.026059 1_545
Cu0 O19 2.400819 1_545
Cu1 O18 1.900508 1_555
Cu1 F0 1.940044 1_555
Cu1 O21 1.947632 1_555
Cu1 O16 2.026059 1_545
Cu1 O19 2.400819 1_545
Cu2 O14 1.900508 1_555
Cu2 F1 1.940044 1_555
Cu2 O11 1.947632 1_555
Cu2 O20 2.026059 1_565
Cu2 O9 2.400819 1_565
Cu3 O7 1.900508 1_555
Cu3 F1 1.940044 1_555
Cu3 O0 1.947632 1_555
Cu3 O12 2.026059 1_565
Cu3 O9 2.400819 1_565
Cu4 O22 1.921018 1_555
Cu4 O8 1.921018 1_455
Cu4 O16 1.997390 1_455
Cu4 O20 1.997390 1_555
Cu5 O15 1.921018 1_555
Cu5 O13 1.921018 1_555
Cu5 O5 1.997390 1_555
Cu5 O12 1.997390 1_555
O0 P3 1.535706 1_555
O1 P1 1.535706 1_555
O2 P5 1.532447 1_545
O3 P1 1.537699 1_556
O3 Zn0 1.931449 1_555
O4 P2 1.515125 1_565
O4 Zn0 1.928127 1_565
O5 P4 1.573999 1_565
O6 P3 1.537699 1_554
O6 Zn1 1.931449 1_555
O7 P4 1.532447 1_565
O8 P2 1.539531 1_555
O9 P3 1.555629 1_555
O9 Zn1 1.964134 1_546
O10 P5 1.515125 1_545
O10 Zn1 1.928127 1_545
O11 P3 1.535706 1_555
O12 P5 1.573999 1_545
O13 P4 1.539531 1_555
O14 P2 1.532447 1_465
O15 P5 1.539531 1_555
O16 P2 1.573999 1_565
O17 P4 1.515125 1_565
O17 Zn0 1.928127 1_565
O18 P0 1.532447 1_645
O19 P1 1.555629 1_555
O19 Zn0 1.964134 1_564
O20 P0 1.573999 1_545
O21 P1 1.535706 1_555
O22 P0 1.539531 1_555
O23 P0 1.515125 1_545
O23 Zn1 1.928127 1_545
F0 K2 2.661911 1_555
F0 K2 2.732423 1_545
F1 K0 2.661911 1_555
F1 K0 2.732423 1_565
