# generated using pymatgen
data_Eu(MnSb)2
_symmetry_space_group_name_H-M   'P 1'
_cell_length_a   4.48809091
_cell_length_b   4.48809091
_cell_length_c   7.74292200
_cell_angle_alpha   90.00000000
_cell_angle_beta   90.00000000
_cell_angle_gamma   120.00001335
_symmetry_Int_Tables_number   1
_chemical_formula_structural   Eu(MnSb)2
_chemical_formula_sum   'Eu1 Mn2 Sb2'
_cell_volume   135.06995258
_cell_formula_units_Z   1
loop_
 _symmetry_equiv_pos_site_id
 _symmetry_equiv_pos_as_xyz
  1  'x, y, z'
loop_
 _atom_site_type_symbol
 _atom_site_label
 _atom_site_symmetry_multiplicity
 _atom_site_fract_x
 _atom_site_fract_y
 _atom_site_fract_z
 _atom_site_occupancy
  Eu  Eu0  1  0.00000000  0.00000000  0.00000000  1
  Mn  Mn0  1  0.66666700  0.33333300  0.61764700  1
  Mn  Mn1  1  0.33333300  0.66666700  0.38235300  1
  Sb  Sb0  1  0.66666700  0.33333300  0.25982800  1
  Sb  Sb1  1  0.33333300  0.66666700  0.74017200  1
loop_
_geom_bond_atom_site_label_1
_geom_bond_atom_site_label_2
_geom_bond_distance
_geom_bond_site_symmetry_2
Eu0 Sb1 3.280512 1_544
Eu0 Sb0 3.280512 1_455
Eu0 Sb1 3.280515 1_444
Eu0 Sb1 3.280515 1_554
Eu0 Sb0 3.280515 1_445
Eu0 Sb0 3.280515 1_555
Mn0 Sb1 2.759409 1_545
Mn0 Sb1 2.759409 1_655
Mn0 Sb1 2.759417 1_555
Mn0 Sb0 2.770565 1_555
Mn1 Sb0 2.759409 1_455
Mn1 Sb0 2.759409 1_565
Mn1 Sb0 2.759417 1_555
Mn1 Sb1 2.770565 1_555
