# generated using pymatgen
data_Lu5Sb3
_symmetry_space_group_name_H-M   'P 1'
_cell_length_a   7.90450210
_cell_length_b   9.07555544
_cell_length_c   11.55702148
_cell_angle_alpha   90.00000000
_cell_angle_beta   90.00000000
_cell_angle_gamma   90.00000000
_symmetry_Int_Tables_number   1
_chemical_formula_structural   Lu5Sb3
_chemical_formula_sum   'Lu20 Sb12'
_cell_volume   829.07468340
_cell_formula_units_Z   4
loop_
 _symmetry_equiv_pos_site_id
 _symmetry_equiv_pos_as_xyz
  1  'x, y, z'
loop_
 _atom_site_type_symbol
 _atom_site_label
 _atom_site_symmetry_multiplicity
 _atom_site_fract_x
 _atom_site_fract_y
 _atom_site_fract_z
 _atom_site_occupancy
  Lu  Lu0  1  0.19439193  0.56279352  0.43905467  1
  Lu  Lu1  1  0.69439193  0.93720648  0.06094533  1
  Lu  Lu2  1  0.80560807  0.06279352  0.56094533  1
  Lu  Lu3  1  0.30560807  0.43720648  0.93905467  1
  Lu  Lu4  1  0.80560807  0.43720648  0.56094533  1
  Lu  Lu5  1  0.30560807  0.06279352  0.93905467  1
  Lu  Lu6  1  0.19439193  0.93720648  0.43905467  1
  Lu  Lu7  1  0.69439193  0.56279352  0.06094533  1
  Lu  Lu8  1  0.02729124  0.75000000  0.98970821  1
  Lu  Lu9  1  0.52729124  0.75000000  0.51029179  1
  Lu  Lu10  1  0.97270876  0.25000000  0.01029179  1
  Lu  Lu11  1  0.47270876  0.25000000  0.48970821  1
  Lu  Lu12  1  0.18562374  0.75000000  0.71792673  1
  Lu  Lu13  1  0.68562374  0.75000000  0.78207327  1
  Lu  Lu14  1  0.81437626  0.25000000  0.28207327  1
  Lu  Lu15  1  0.31437626  0.25000000  0.21792673  1
  Lu  Lu16  1  0.85623799  0.75000000  0.28491552  1
  Lu  Lu17  1  0.35623799  0.75000000  0.21508448  1
  Lu  Lu18  1  0.14376201  0.25000000  0.71508448  1
  Lu  Lu19  1  0.64376201  0.25000000  0.78491552  1
  Sb  Sb0  1  0.93396518  0.49682655  0.82678047  1
  Sb  Sb1  1  0.43396518  0.00317345  0.67321953  1
  Sb  Sb2  1  0.06603482  0.99682655  0.17321953  1
  Sb  Sb3  1  0.56603482  0.50317345  0.32678047  1
  Sb  Sb4  1  0.06603482  0.50317345  0.17321953  1
  Sb  Sb5  1  0.56603482  0.99682655  0.32678047  1
  Sb  Sb6  1  0.93396518  0.00317345  0.82678047  1
  Sb  Sb7  1  0.43396518  0.49682655  0.67321953  1
  Sb  Sb8  1  0.90962368  0.75000000  0.53998979  1
  Sb  Sb9  1  0.40962368  0.75000000  0.96001021  1
  Sb  Sb10  1  0.09037632  0.25000000  0.46001021  1
  Sb  Sb11  1  0.59037632  0.25000000  0.03998979  1
loop_
_geom_bond_atom_site_label_1
_geom_bond_atom_site_label_2
_geom_bond_distance
_geom_bond_site_symmetry_2
Lu0 Sb10 2.965349 1_555
Lu0 Sb8 3.051907 1_455
Lu0 Sb3 3.256720 1_555
Lu0 Sb4 3.280393 1_555
Lu0 Sb7 3.356834 1_555
Lu1 Sb11 2.965349 1_565
Lu1 Sb9 3.051907 1_554
Lu1 Sb2 3.256720 1_655
Lu1 Sb5 3.280393 1_555
Lu1 Sb6 3.356834 1_564
Lu2 Sb8 2.965349 1_545
Lu2 Sb10 3.051907 1_655
Lu2 Sb1 3.256720 1_555
Lu2 Sb6 3.280393 1_555
Lu2 Sb5 3.356834 1_545
Lu3 Sb9 2.965349 1_555
Lu3 Sb11 3.051907 1_556
Lu3 Sb0 3.256720 1_455
Lu3 Sb7 3.280393 1_555
Lu3 Sb4 3.356834 1_556
Lu4 Sb8 2.965349 1_555
Lu4 Sb10 3.051907 1_655
Lu4 Sb7 3.256720 1_555
Lu4 Sb0 3.280393 1_555
Lu4 Sb3 3.356834 1_555
Lu5 Sb9 2.965349 1_545
Lu5 Sb11 3.051907 1_556
Lu5 Sb6 3.256720 1_455
Lu5 Sb1 3.280393 1_555
Lu5 Sb2 3.356834 1_546
Lu6 Sb10 2.965349 1_565
Lu6 Sb8 3.051907 1_455
Lu6 Sb5 3.256720 1_555
Lu6 Sb2 3.280393 1_555
Lu6 Sb1 3.356834 1_565
Lu7 Sb11 2.965349 1_555
Lu7 Sb9 3.051907 1_554
Lu7 Sb4 3.256720 1_655
Lu7 Sb3 3.280393 1_555
Lu7 Sb0 3.356834 1_554
Lu8 Sb9 3.041575 1_555
Lu8 Sb0 3.060900 1_455
Lu8 Sb6 3.060900 1_465
Lu8 Sb4 3.099962 1_556
Lu8 Sb2 3.099962 1_556
Lu9 Sb8 3.041575 1_555
Lu9 Sb1 3.060900 1_565
Lu9 Sb7 3.060900 1_555
Lu9 Sb5 3.099962 1_555
Lu9 Sb3 3.099962 1_555
Lu10 Sb11 3.041575 1_555
Lu10 Sb2 3.060900 1_645
Lu10 Sb4 3.060900 1_655
Lu10 Sb6 3.099962 1_554
Lu10 Sb0 3.099962 1_554
Lu11 Sb10 3.041575 1_555
Lu11 Sb5 3.060900 1_545
Lu11 Sb3 3.060900 1_555
Lu11 Sb7 3.099962 1_555
Lu11 Sb1 3.099962 1_555
Lu12 Sb8 2.998072 1_455
Lu12 Sb7 3.065904 1_555
Lu12 Sb1 3.065904 1_565
Lu12 Sb0 3.289234 1_455
Lu12 Sb6 3.289234 1_465
Lu12 Sb9 3.310972 1_555
Lu13 Sb9 2.998072 1_555
Lu13 Sb0 3.065904 1_555
Lu13 Sb6 3.065904 1_565
Lu13 Sb7 3.289234 1_555
Lu13 Sb1 3.289234 1_565
Lu13 Sb8 3.310972 1_555
Lu14 Sb10 2.998072 1_655
Lu14 Sb5 3.065904 1_545
Lu14 Sb3 3.065904 1_555
Lu14 Sb4 3.289234 1_655
Lu14 Sb2 3.289234 1_645
Lu14 Sb11 3.310972 1_555
Lu15 Sb11 2.998072 1_555
Lu15 Sb4 3.065904 1_555
Lu15 Sb2 3.065904 1_545
Lu15 Sb3 3.289234 1_555
Lu15 Sb5 3.289234 1_545
Lu15 Sb10 3.310972 1_555
Lu16 Sb8 2.977949 1_555
Lu16 Sb4 3.071553 1_655
Lu16 Sb2 3.071553 1_655
Lu16 Sb3 3.242548 1_555
Lu16 Sb5 3.242548 1_555
Lu17 Sb9 2.977949 1_554
Lu17 Sb3 3.071553 1_555
Lu17 Sb5 3.071553 1_555
Lu17 Sb2 3.242548 1_555
Lu17 Sb4 3.242548 1_555
Lu18 Sb10 2.977949 1_555
Lu18 Sb6 3.071553 1_455
Lu18 Sb0 3.071553 1_455
Lu18 Sb7 3.242548 1_555
Lu18 Sb1 3.242548 1_555
Lu19 Sb11 2.977949 1_556
Lu19 Sb7 3.071553 1_555
Lu19 Sb1 3.071553 1_555
Lu19 Sb0 3.242548 1_555
Lu19 Sb6 3.242548 1_555
