# generated using pymatgen
data_Rb5Tl3O
_symmetry_space_group_name_H-M   'P 1'
_cell_length_a   17.85418126
_cell_length_b   17.85418126
_cell_length_c   9.43854400
_cell_angle_alpha   90.00000000
_cell_angle_beta   90.00000000
_cell_angle_gamma   151.14800860
_symmetry_Int_Tables_number   1
_chemical_formula_structural   Rb5Tl3O
_chemical_formula_sum   'Rb20 Tl12 O4'
_cell_volume   1451.86418841
_cell_formula_units_Z   4
loop_
 _symmetry_equiv_pos_site_id
 _symmetry_equiv_pos_as_xyz
  1  'x, y, z'
loop_
 _atom_site_type_symbol
 _atom_site_label
 _atom_site_symmetry_multiplicity
 _atom_site_fract_x
 _atom_site_fract_y
 _atom_site_fract_z
 _atom_site_occupancy
  Rb  Rb0  1  0.44804200  0.55195800  0.53412600  1
  Rb  Rb1  1  0.04182600  0.50822900  0.25000000  1
  Rb  Rb2  1  0.44804200  0.55195800  0.96587400  1
  Rb  Rb3  1  0.12051700  0.37164300  0.25000000  1
  Rb  Rb4  1  0.95817400  0.49177100  0.75000000  1
  Rb  Rb5  1  0.55195800  0.44804200  0.46587400  1
  Rb  Rb6  1  0.20822800  0.19422100  0.75000000  1
  Rb  Rb7  1  0.37164300  0.12051700  0.75000000  1
  Rb  Rb8  1  0.19422100  0.20822800  0.25000000  1
  Rb  Rb9  1  0.55195800  0.44804200  0.03412600  1
  Rb  Rb10  1  0.32011700  0.67988300  0.53351200  1
  Rb  Rb11  1  0.67988300  0.32011700  0.46648800  1
  Rb  Rb12  1  0.62835700  0.87948300  0.25000000  1
  Rb  Rb13  1  0.67988300  0.32011700  0.03351200  1
  Rb  Rb14  1  0.50822900  0.04182600  0.75000000  1
  Rb  Rb15  1  0.87948300  0.62835700  0.75000000  1
  Rb  Rb16  1  0.80577900  0.79177200  0.75000000  1
  Rb  Rb17  1  0.32011700  0.67988300  0.96648800  1
  Rb  Rb18  1  0.79177200  0.80577900  0.25000000  1
  Rb  Rb19  1  0.49177100  0.95817400  0.25000000  1
  Tl  Tl0  1  0.07663900  0.33150400  0.75000000  1
  Tl  Tl1  1  0.81622800  0.18377200  0.56260500  1
  Tl  Tl2  1  0.92336100  0.66849600  0.25000000  1
  Tl  Tl3  1  0.07836400  0.92163600  0.45139900  1
  Tl  Tl4  1  0.33150400  0.07663900  0.25000000  1
  Tl  Tl5  1  0.18377200  0.81622800  0.06260500  1
  Tl  Tl6  1  0.18377200  0.81622800  0.43739500  1
  Tl  Tl7  1  0.92163600  0.07836400  0.95139900  1
  Tl  Tl8  1  0.07836400  0.92163600  0.04860100  1
  Tl  Tl9  1  0.92163600  0.07836400  0.54860100  1
  Tl  Tl10  1  0.81622800  0.18377200  0.93739500  1
  Tl  Tl11  1  0.66849600  0.92336100  0.75000000  1
  O  O0  1  0.67396500  0.32603500  0.75000000  1
  O  O1  1  0.48628800  0.51371200  0.25000000  1
  O  O2  1  0.32603500  0.67396500  0.25000000  1
  O  O3  1  0.51371200  0.48628800  0.75000000  1
loop_
_geom_bond_atom_site_label_1
_geom_bond_atom_site_label_2
_geom_bond_distance
_geom_bond_site_symmetry_2
Rb0 Tl0 4.230205 1_555
Rb0 Tl11 4.230205 1_555
Rb1 Tl6 3.921479 1_555
Rb1 Tl5 3.921479 1_555
Rb1 Tl1 4.196876 1_455
Rb1 Tl10 4.196876 1_454
Rb2 Tl0 4.230205 1_555
Rb2 Tl11 4.230205 1_555
Rb3 Tl9 3.924244 1_455
Rb3 Tl7 3.924244 1_454
Rb3 Tl10 4.189291 1_454
Rb3 Tl1 4.189291 1_455
Rb4 Tl1 3.921479 1_555
Rb4 Tl10 3.921479 1_555
Rb4 Tl6 4.196876 1_655
Rb4 Tl5 4.196876 1_656
Rb5 Tl4 4.230205 1_555
Rb5 Tl2 4.230205 1_555
Rb6 Tl7 3.941257 1_455
Rb6 Tl9 3.941257 1_455
Rb6 Tl8 4.151835 1_546
Rb6 Tl3 4.151835 1_545
Rb7 Tl8 3.924244 1_546
Rb7 Tl3 3.924244 1_545
Rb7 Tl6 4.189291 1_545
Rb7 Tl5 4.189291 1_546
Rb8 Tl8 3.941257 1_545
Rb8 Tl3 3.941257 1_545
Rb8 Tl9 4.151835 1_455
Rb8 Tl7 4.151835 1_454
Rb9 Tl4 4.230205 1_555
Rb9 Tl2 4.230205 1_555
Rb10 Tl11 3.794180 1_555
Rb10 Tl0 3.794180 1_555
Rb11 Tl2 3.794180 1_555
Rb11 Tl4 3.794180 1_555
Rb12 Tl7 3.924244 1_564
Rb12 Tl9 3.924244 1_565
Rb12 Tl10 4.189291 1_564
Rb12 Tl1 4.189291 1_565
Rb13 Tl2 3.794180 1_555
Rb13 Tl4 3.794180 1_555
Rb14 Tl1 3.921479 1_555
Rb14 Tl10 3.921479 1_555
Rb14 Tl5 4.196876 1_546
Rb14 Tl6 4.196876 1_545
Rb15 Tl8 3.924244 1_656
Rb15 Tl3 3.924244 1_655
Rb15 Tl6 4.189291 1_655
Rb15 Tl5 4.189291 1_656
Rb16 Tl9 3.941257 1_565
Rb16 Tl7 3.941257 1_565
Rb16 Tl3 4.151835 1_655
Rb16 Tl8 4.151835 1_656
Rb17 Tl11 3.794180 1_555
Rb17 Tl0 3.794180 1_555
Rb18 Tl8 3.941257 1_655
Rb18 Tl3 3.941257 1_655
Rb18 Tl7 4.151835 1_564
Rb18 Tl9 4.151835 1_565
Rb19 Tl5 3.921479 1_555
Rb19 Tl6 3.921479 1_555
Rb19 Tl1 4.196876 1_565
Rb19 Tl10 4.196876 1_564
Tl0 Tl7 3.128694 1_455
Tl0 Tl9 3.128694 1_455
Tl0 Tl1 3.196918 1_455
Tl0 Tl10 3.196918 1_455
Tl1 Tl11 3.196918 1_545
Tl2 Tl8 3.128694 1_655
Tl2 Tl3 3.128694 1_655
Tl2 Tl6 3.196918 1_655
Tl2 Tl5 3.196918 1_655
Tl3 Tl4 3.128694 1_565
Tl4 Tl8 3.128694 1_545
Tl4 Tl5 3.196918 1_545
Tl4 Tl6 3.196918 1_545
Tl10 Tl11 3.196918 1_545
Tl11 Tl9 3.128694 1_565
Tl11 Tl7 3.128694 1_565
O0 Rb13 2.683755 1_556
O0 Rb11 2.683755 1_555
O0 Rb7 2.811462 1_555
O0 Rb15 2.811462 1_555
O0 Rb14 2.863907 1_555
O0 Rb4 2.863907 1_555
O1 Rb18 2.668013 1_555
O1 Rb8 2.668013 1_555
O1 Rb2 2.990165 1_554
O1 Rb0 2.990165 1_555
O1 Rb5 3.051088 1_555
O1 Rb9 3.051088 1_555
O2 Rb10 2.683755 1_555
O2 Rb17 2.683755 1_554
O2 Rb3 2.811462 1_555
O2 Rb12 2.811462 1_555
O2 Rb1 2.863907 1_555
O2 Rb19 2.863907 1_555
O3 Rb16 2.668013 1_555
O3 Rb6 2.668013 1_555
O3 Rb9 2.990165 1_556
O3 Rb5 2.990165 1_555
O3 Rb0 3.051088 1_555
O3 Rb2 3.051088 1_555
