# generated using pymatgen
data_Sr4Li(BO3)3
_symmetry_space_group_name_H-M   'P 1'
_cell_length_a   13.08396376
_cell_length_b   13.08396376
_cell_length_c   13.08396376
_cell_angle_alpha   109.47122063
_cell_angle_beta   109.47122063
_cell_angle_gamma   109.47122063
_symmetry_Int_Tables_number   1
_chemical_formula_structural   Sr4Li(BO3)3
_chemical_formula_sum   'Sr32 Li8 B24 O72'
_cell_volume   1724.23361259
_cell_formula_units_Z   8
loop_
 _symmetry_equiv_pos_site_id
 _symmetry_equiv_pos_as_xyz
  1  'x, y, z'
loop_
 _atom_site_type_symbol
 _atom_site_label
 _atom_site_symmetry_multiplicity
 _atom_site_fract_x
 _atom_site_fract_y
 _atom_site_fract_z
 _atom_site_occupancy
  Sr  Sr0  1  0.99658100  0.74658100  0.25000000  1
  Sr  Sr1  1  0.75341900  0.50341900  0.25000000  1
  Sr  Sr2  1  0.25000000  0.49658100  0.24658100  1
  Sr  Sr3  1  0.24658100  0.49658100  0.75000000  1
  Sr  Sr4  1  0.00341900  0.25341900  0.75000000  1
  Sr  Sr5  1  0.25000000  0.99658100  0.74658100  1
  Sr  Sr6  1  0.75000000  0.00341900  0.25341900  1
  Sr  Sr7  1  0.74658100  0.99658100  0.75000000  1
  Sr  Sr8  1  0.74658100  0.25000000  0.99658100  1
  Sr  Sr9  1  0.99658100  0.75000000  0.74658100  1
  Sr  Sr10  1  0.49658100  0.24658100  0.25000000  1
  Sr  Sr11  1  0.00000000  0.00000000  0.00000000  1
  Sr  Sr12  1  0.00000000  0.50000000  0.50000000  1
  Sr  Sr13  1  0.75000000  0.74658100  0.99658100  1
  Sr  Sr14  1  0.00000000  0.00000000  0.50000000  1
  Sr  Sr15  1  0.75000000  0.50341900  0.75341900  1
  Sr  Sr16  1  0.25341900  0.00341900  0.25000000  1
  Sr  Sr17  1  0.75000000  0.24658100  0.49658100  1
  Sr  Sr18  1  0.25341900  0.75000000  0.00341900  1
  Sr  Sr19  1  0.25000000  0.75341900  0.50341900  1
  Sr  Sr20  1  0.49658100  0.75000000  0.24658100  1
  Sr  Sr21  1  0.50341900  0.25000000  0.75341900  1
  Sr  Sr22  1  0.00341900  0.25000000  0.25341900  1
  Sr  Sr23  1  0.50000000  0.00000000  0.00000000  1
  Sr  Sr24  1  0.00000000  0.50000000  0.00000000  1
  Sr  Sr25  1  0.50000000  0.50000000  0.00000000  1
  Sr  Sr26  1  0.75341900  0.75000000  0.50341900  1
  Sr  Sr27  1  0.25000000  0.25341900  0.00341900  1
  Sr  Sr28  1  0.50000000  0.50000000  0.50000000  1
  Sr  Sr29  1  0.50000000  0.00000000  0.50000000  1
  Sr  Sr30  1  0.24658100  0.25000000  0.49658100  1
  Sr  Sr31  1  0.50341900  0.75341900  0.75000000  1
  Li  Li0  1  0.25000000  0.25000000  0.25000000  1
  Li  Li1  1  0.50000000  0.00000000  0.75000000  1
  Li  Li2  1  0.25000000  0.50000000  0.00000000  1
  Li  Li3  1  0.75000000  0.75000000  0.75000000  1
  Li  Li4  1  0.50000000  0.00000000  0.25000000  1
  Li  Li5  1  0.00000000  0.25000000  0.50000000  1
  Li  Li6  1  0.00000000  0.75000000  0.50000000  1
  Li  Li7  1  0.75000000  0.50000000  0.00000000  1
  B  B0  1  0.76490100  0.73509900  0.25000000  1
  B  B1  1  0.02980300  0.26490100  0.01490100  1
  B  B2  1  0.48509900  0.23509900  0.47019700  1
  B  B3  1  0.26490100  0.01490100  0.02980300  1
  B  B4  1  0.47019700  0.48509900  0.23509900  1
  B  B5  1  0.26490100  0.75000000  0.23509900  1
  B  B6  1  0.51490100  0.25000000  0.98509900  1
  B  B7  1  0.23509900  0.26490100  0.75000000  1
  B  B8  1  0.97019700  0.73509900  0.98509900  1
  B  B9  1  0.76490100  0.52980300  0.51490100  1
  B  B10  1  0.23509900  0.47019700  0.48509900  1
  B  B11  1  0.98509900  0.97019700  0.73509900  1
  B  B12  1  0.01490100  0.48509900  0.75000000  1
  B  B13  1  0.51490100  0.76490100  0.52980300  1
  B  B14  1  0.01490100  0.02980300  0.26490100  1
  B  B15  1  0.75000000  0.01490100  0.48509900  1
  B  B16  1  0.73509900  0.98509900  0.97019700  1
  B  B17  1  0.25000000  0.98509900  0.51490100  1
  B  B18  1  0.48509900  0.75000000  0.01490100  1
  B  B19  1  0.73509900  0.25000000  0.76490100  1
  B  B20  1  0.75000000  0.23509900  0.26490100  1
  B  B21  1  0.98509900  0.51490100  0.25000000  1
  B  B22  1  0.52980300  0.51490100  0.76490100  1
  B  B23  1  0.25000000  0.76490100  0.73509900  1
  O  O0  1  0.20056600  0.95056600  0.90113200  1
  O  O1  1  0.04943400  0.45056600  0.25000000  1
  O  O2  1  0.89788500  0.90108000  0.75953700  1
  O  O3  1  0.64154300  0.00319500  0.90108000  1
  O  O4  1  0.64154300  0.13834800  0.74046300  1
  O  O5  1  0.45056600  0.70056600  0.40113200  1
  O  O6  1  0.14154300  0.24046300  0.63834800  1
  O  O7  1  0.60211500  0.74046300  0.59892000  1
  O  O8  1  0.50319500  0.14154300  0.40108000  1
  O  O9  1  0.36165200  0.85845700  0.75953700  1
  O  O10  1  0.25953700  0.35845700  0.86165200  1
  O  O11  1  0.63834800  0.14154300  0.24046300  1
  O  O12  1  0.75000000  0.95056600  0.54943400  1
  O  O13  1  0.35845700  0.99680500  0.09892000  1
  O  O14  1  0.95056600  0.90113200  0.20056600  1
  O  O15  1  0.49680500  0.85845700  0.59892000  1
  O  O16  1  0.89788500  0.49680500  0.13834800  1
  O  O17  1  0.40113200  0.45056600  0.70056600  1
  O  O18  1  0.36165200  0.00319500  0.60211500  1
  O  O19  1  0.54943400  0.29943400  0.59886800  1
  O  O20  1  0.85845700  0.75953700  0.36165200  1
  O  O21  1  0.75953700  0.89788500  0.90108000  1
  O  O22  1  0.00319500  0.60211500  0.36165200  1
  O  O23  1  0.00319500  0.90108000  0.64154300  1
  O  O24  1  0.29943400  0.59886800  0.54943400  1
  O  O25  1  0.40108000  0.50319500  0.14154300  1
  O  O26  1  0.74046300  0.64154300  0.13834800  1
  O  O27  1  0.99680500  0.09892000  0.35845700  1
  O  O28  1  0.40108000  0.39788500  0.25953700  1
  O  O29  1  0.50319500  0.86165200  0.10211500  1
  O  O30  1  0.45056600  0.25000000  0.04943400  1
  O  O31  1  0.86165200  0.25953700  0.35845700  1
  O  O32  1  0.54943400  0.75000000  0.95056600  1
  O  O33  1  0.90108000  0.64154300  0.00319500  1
  O  O34  1  0.04943400  0.09886800  0.79943400  1
  O  O35  1  0.63834800  0.99680500  0.39788500  1
  O  O36  1  0.85845700  0.59892000  0.49680500  1
  O  O37  1  0.13834800  0.74046300  0.64154300  1
  O  O38  1  0.09892000  0.24046300  0.10211500  1
  O  O39  1  0.39788500  0.63834800  0.99680500  1
  O  O40  1  0.74046300  0.59892000  0.60211500  1
  O  O41  1  0.75953700  0.36165200  0.85845700  1
  O  O42  1  0.70056600  0.79943400  0.25000000  1
  O  O43  1  0.10211500  0.09892000  0.24046300  1
  O  O44  1  0.24046300  0.63834800  0.14154300  1
  O  O45  1  0.59892000  0.60211500  0.74046300  1
  O  O46  1  0.20056600  0.75000000  0.29943400  1
  O  O47  1  0.25000000  0.04943400  0.45056600  1
  O  O48  1  0.59892000  0.49680500  0.85845700  1
  O  O49  1  0.29943400  0.20056600  0.75000000  1
  O  O50  1  0.13834800  0.89788500  0.49680500  1
  O  O51  1  0.79943400  0.25000000  0.70056600  1
  O  O52  1  0.59886800  0.54943400  0.29943400  1
  O  O53  1  0.90108000  0.75953700  0.89788500  1
  O  O54  1  0.79943400  0.04943400  0.09886800  1
  O  O55  1  0.14154300  0.40108000  0.50319500  1
  O  O56  1  0.49680500  0.13834800  0.89788500  1
  O  O57  1  0.35845700  0.86165200  0.25953700  1
  O  O58  1  0.90113200  0.20056600  0.95056600  1
  O  O59  1  0.75000000  0.29943400  0.20056600  1
  O  O60  1  0.10211500  0.50319500  0.86165200  1
  O  O61  1  0.09892000  0.35845700  0.99680500  1
  O  O62  1  0.86165200  0.10211500  0.50319500  1
  O  O63  1  0.99680500  0.39788500  0.63834800  1
  O  O64  1  0.39788500  0.25953700  0.40108000  1
  O  O65  1  0.70056600  0.40113200  0.45056600  1
  O  O66  1  0.25000000  0.70056600  0.79943400  1
  O  O67  1  0.25953700  0.40108000  0.39788500  1
  O  O68  1  0.24046300  0.10211500  0.09892000  1
  O  O69  1  0.95056600  0.54943400  0.75000000  1
  O  O70  1  0.09886800  0.79943400  0.04943400  1
  O  O71  1  0.60211500  0.36165200  0.00319500  1
loop_
_geom_bond_atom_site_label_1
_geom_bond_atom_site_label_2
_geom_bond_distance
_geom_bond_site_symmetry_2
Li0 O38 2.188987 1_555
Li0 O68 2.188987 1_555
Li0 O43 2.188987 1_555
Li0 O28 2.188987 1_555
Li0 O64 2.188987 1_555
Li0 O67 2.188987 1_555
Li1 O56 2.188987 1_555
Li1 O4 2.188987 1_555
Li1 O18 2.188987 1_555
Li1 O3 2.188987 1_555
Li1 O15 2.188987 1_545
Li1 O9 2.188987 1_545
Li2 O61 2.188987 1_554
Li2 O60 2.188987 1_554
Li2 O10 2.188987 1_554
Li2 O25 2.188987 1_555
Li2 O39 2.188987 1_554
Li2 O44 2.188987 1_555
Li3 O53 2.188987 1_555
Li3 O21 2.188987 1_555
Li3 O2 2.188987 1_555
Li3 O7 2.188987 1_555
Li3 O45 2.188987 1_555
Li3 O40 2.188987 1_555
Li4 O29 2.188987 1_545
Li4 O57 2.188987 1_545
Li4 O13 2.188987 1_545
Li4 O8 2.188987 1_555
Li4 O35 2.188987 1_545
Li4 O11 2.188987 1_555
Li5 O62 2.188987 1_455
Li5 O31 2.188987 1_455
Li5 O27 2.188987 1_455
Li5 O55 2.188987 1_555
Li5 O63 2.188987 1_455
Li5 O6 2.188987 1_555
Li6 O50 2.188987 1_555
Li6 O37 2.188987 1_555
Li6 O22 2.188987 1_555
Li6 O23 2.188987 1_555
Li6 O36 2.188987 1_455
Li6 O20 2.188987 1_455
Li7 O16 2.188987 1_555
Li7 O26 2.188987 1_555
Li7 O33 2.188987 1_555
Li7 O71 2.188987 1_555
Li7 O48 2.188987 1_554
Li7 O41 2.188987 1_554
B0 O42 1.374583 1_555
B0 O20 1.403651 1_555
B0 O26 1.403651 1_555
B1 O58 1.374594 1_454
B1 O38 1.403645 1_555
B1 O61 1.403646 1_554
B2 O19 1.374594 1_555
B2 O64 1.403645 1_555
B2 O8 1.403646 1_555
B3 O0 1.374594 1_544
B3 O68 1.403645 1_555
B3 O13 1.403646 1_545
B4 O52 1.374594 1_555
B4 O28 1.403645 1_555
B4 O25 1.403646 1_555
B5 O46 1.374583 1_555
B5 O44 1.403651 1_555
B5 O57 1.403651 1_555
B6 O30 1.374583 1_556
B6 O71 1.403651 1_556
B6 O56 1.403651 1_555
B7 O49 1.374583 1_555
B7 O6 1.403651 1_555
B7 O10 1.403651 1_555
B8 O70 1.374594 1_656
B8 O53 1.403645 1_555
B8 O33 1.403646 1_556
B9 O65 1.374594 1_555
B9 O40 1.403645 1_555
B9 O36 1.403646 1_555
B10 O24 1.374594 1_555
B10 O67 1.403645 1_555
B10 O55 1.403646 1_555
B11 O34 1.374594 1_665
B11 O2 1.403645 1_555
B11 O23 1.403646 1_655
B12 O69 1.374583 1_455
B12 O63 1.403651 1_455
B12 O60 1.403651 1_555
B13 O5 1.374594 1_555
B13 O7 1.403645 1_555
B13 O15 1.403646 1_555
B14 O14 1.374594 1_445
B14 O43 1.403645 1_555
B14 O27 1.403646 1_455
B15 O12 1.374583 1_545
B15 O35 1.403651 1_545
B15 O62 1.403651 1_555
B16 O54 1.374594 1_566
B16 O21 1.403645 1_555
B16 O3 1.403646 1_565
B17 O47 1.374583 1_565
B17 O18 1.403651 1_565
B17 O50 1.403651 1_555
B18 O32 1.374583 1_554
B18 O39 1.403651 1_554
B18 O29 1.403651 1_555
B19 O51 1.374583 1_555
B19 O41 1.403651 1_555
B19 O4 1.403651 1_555
B20 O59 1.374583 1_555
B20 O11 1.403651 1_555
B20 O31 1.403651 1_555
B21 O1 1.374583 1_655
B21 O22 1.403651 1_655
B21 O16 1.403651 1_555
B22 O17 1.374594 1_555
B22 O45 1.403645 1_555
B22 O48 1.403646 1_555
B23 O66 1.374583 1_555
B23 O9 1.403651 1_555
B23 O37 1.403651 1_555
O0 Sr5 2.508750 1_555
O0 Sr9 2.508750 1_455
O1 Sr22 2.508750 1_555
O1 Sr2 2.508750 1_555
O2 Sr11 2.586303 1_666
O2 Sr7 2.661634 1_555
O2 Sr9 2.688496 1_555
O2 Sr26 2.753181 1_555
O3 Sr23 2.586303 1_556
O3 Sr8 2.661634 1_555
O3 Sr31 2.688496 1_545
O3 Sr7 2.753181 1_545
O4 Sr29 2.586303 1_555
O4 Sr7 2.661634 1_545
O4 Sr21 2.688496 1_555
O4 Sr8 2.753181 1_555
O5 Sr2 2.508750 1_555
O5 Sr20 2.508750 1_555
O6 Sr14 2.586303 1_555
O6 Sr30 2.661634 1_555
O6 Sr4 2.688496 1_555
O6 Sr3 2.753181 1_555
O7 Sr28 2.586303 1_555
O7 Sr26 2.661634 1_555
O7 Sr31 2.688496 1_555
O7 Sr7 2.753181 1_555
O8 Sr29 2.586303 1_555
O8 Sr17 2.661634 1_555
O8 Sr16 2.688496 1_555
O8 Sr10 2.753181 1_555
O9 Sr23 2.586303 1_566
O9 Sr31 2.661634 1_555
O9 Sr5 2.688496 1_555
O9 Sr19 2.753181 1_555
O10 Sr25 2.586303 1_556
O10 Sr27 2.661634 1_556
O10 Sr3 2.688496 1_555
O10 Sr4 2.753181 1_555
O11 Sr23 2.586303 1_555
O11 Sr10 2.661634 1_555
O11 Sr6 2.688496 1_555
O11 Sr17 2.753181 1_555
O12 Sr26 2.508750 1_555
O12 Sr7 2.508750 1_555
O13 Sr23 2.586303 1_565
O13 Sr18 2.661634 1_555
O13 Sr10 2.688496 1_565
O13 Sr16 2.753181 1_565
O14 Sr13 2.508750 1_554
O14 Sr0 2.508750 1_555
O15 Sr29 2.586303 1_565
O15 Sr19 2.661634 1_555
O15 Sr7 2.688496 1_555
O15 Sr31 2.753181 1_555
O16 Sr24 2.586303 1_655
O16 Sr8 2.661634 1_554
O16 Sr0 2.688496 1_555
O16 Sr1 2.753181 1_555
O17 Sr30 2.508750 1_555
O17 Sr3 2.508750 1_555
O18 Sr29 2.586303 1_555
O18 Sr21 2.661634 1_555
O18 Sr19 2.688496 1_545
O18 Sr5 2.753181 1_545
O19 Sr21 2.508750 1_555
O19 Sr15 2.508750 1_555
O20 Sr14 2.586303 1_665
O20 Sr26 2.661634 1_555
O20 Sr0 2.688496 1_555
O20 Sr1 2.753181 1_555
O21 Sr11 2.586303 1_666
O21 Sr13 2.661634 1_555
O21 Sr7 2.688496 1_555
O21 Sr31 2.753181 1_555
O22 Sr12 2.586303 1_555
O22 Sr19 2.661634 1_555
O22 Sr1 2.688496 1_455
O22 Sr0 2.753181 1_455
O23 Sr14 2.586303 1_565
O23 Sr5 2.661634 1_555
O23 Sr26 2.688496 1_455
O23 Sr9 2.753181 1_455
O24 Sr19 2.508750 1_555
O24 Sr31 2.508750 1_555
O25 Sr25 2.586303 1_555
O25 Sr20 2.661634 1_555
O25 Sr27 2.688496 1_555
O25 Sr2 2.753181 1_555
O26 Sr25 2.586303 1_555
O26 Sr13 2.661634 1_554
O26 Sr1 2.688496 1_555
O26 Sr0 2.753181 1_555
O27 Sr14 2.586303 1_655
O27 Sr6 2.661634 1_555
O27 Sr30 2.688496 1_655
O27 Sr22 2.753181 1_655
O28 Sr28 2.586303 1_555
O28 Sr10 2.661634 1_555
O28 Sr2 2.688496 1_555
O28 Sr27 2.753181 1_555
O29 Sr23 2.586303 1_565
O29 Sr6 2.661634 1_565
O29 Sr18 2.688496 1_555
O29 Sr20 2.753181 1_555
O30 Sr27 2.508750 1_555
O30 Sr10 2.508750 1_555
O31 Sr12 2.586303 1_655
O31 Sr22 2.661634 1_655
O31 Sr17 2.688496 1_555
O31 Sr6 2.753181 1_555
O32 Sr31 2.508750 1_555
O32 Sr13 2.508750 1_555
O33 Sr24 2.586303 1_655
O33 Sr0 2.661634 1_555
O33 Sr15 2.688496 1_554
O33 Sr13 2.753181 1_554
O34 Sr27 2.508750 1_556
O34 Sr4 2.508750 1_555
O35 Sr29 2.586303 1_565
O35 Sr20 2.661634 1_555
O35 Sr17 2.688496 1_565
O35 Sr6 2.753181 1_565
O36 Sr12 2.586303 1_655
O36 Sr1 2.661634 1_555
O36 Sr9 2.688496 1_555
O36 Sr26 2.753181 1_555
O37 Sr12 2.586303 1_555
O37 Sr9 2.661634 1_455
O37 Sr19 2.688496 1_555
O37 Sr5 2.753181 1_555
O38 Sr11 2.586303 1_555
O38 Sr22 2.661634 1_555
O38 Sr27 2.688496 1_555
O38 Sr2 2.753181 1_555
O39 Sr25 2.586303 1_556
O39 Sr3 2.661634 1_555
O39 Sr20 2.688496 1_556
O39 Sr18 2.753181 1_556
O40 Sr28 2.586303 1_555
O40 Sr15 2.661634 1_555
O40 Sr26 2.688496 1_555
O40 Sr9 2.753181 1_555
O41 Sr24 2.586303 1_656
O41 Sr15 2.661634 1_555
O41 Sr8 2.688496 1_555
O41 Sr21 2.753181 1_555
O42 Sr6 2.508750 1_565
O42 Sr20 2.508750 1_555
O43 Sr11 2.586303 1_555
O43 Sr16 2.661634 1_555
O43 Sr22 2.688496 1_555
O43 Sr30 2.753181 1_555
O44 Sr24 2.586303 1_555
O44 Sr2 2.661634 1_555
O44 Sr18 2.688496 1_555
O44 Sr20 2.753181 1_555
O45 Sr28 2.586303 1_555
O45 Sr31 2.661634 1_555
O45 Sr15 2.688496 1_555
O45 Sr13 2.753181 1_555
O46 Sr19 2.508750 1_555
O46 Sr0 2.508750 1_455
O47 Sr16 2.508750 1_555
O47 Sr30 2.508750 1_555
O48 Sr25 2.586303 1_556
O48 Sr21 2.661634 1_555
O48 Sr13 2.688496 1_555
O48 Sr15 2.753181 1_555
O49 Sr21 2.508750 1_555
O49 Sr5 2.508750 1_545
O50 Sr14 2.586303 1_565
O50 Sr0 2.661634 1_455
O50 Sr5 2.688496 1_555
O50 Sr19 2.753181 1_555
O51 Sr4 2.508750 1_655
O51 Sr17 2.508750 1_555
O52 Sr26 2.508750 1_555
O52 Sr1 2.508750 1_555
O53 Sr11 2.586303 1_666
O53 Sr9 2.661634 1_555
O53 Sr13 2.688496 1_555
O53 Sr15 2.753181 1_555
O54 Sr22 2.508750 1_655
O54 Sr6 2.508750 1_555
O55 Sr12 2.586303 1_555
O55 Sr3 2.661634 1_555
O55 Sr22 2.688496 1_555
O55 Sr30 2.753181 1_555
O56 Sr23 2.586303 1_556
O56 Sr5 2.661634 1_545
O56 Sr8 2.688496 1_555
O56 Sr21 2.753181 1_555
O57 Sr29 2.586303 1_565
O57 Sr16 2.661634 1_565
O57 Sr20 2.688496 1_555
O57 Sr18 2.753181 1_555
O58 Sr8 2.508750 1_555
O58 Sr7 2.508750 1_545
O59 Sr1 2.508750 1_555
O59 Sr8 2.508750 1_554
O60 Sr24 2.586303 1_556
O60 Sr18 2.661634 1_556
O60 Sr4 2.688496 1_555
O60 Sr3 2.753181 1_555
O61 Sr24 2.586303 1_556
O61 Sr4 2.661634 1_555
O61 Sr2 2.688496 1_556
O61 Sr27 2.753181 1_556
O62 Sr14 2.586303 1_655
O62 Sr4 2.661634 1_655
O62 Sr6 2.688496 1_555
O62 Sr17 2.753181 1_555
O63 Sr12 2.586303 1_655
O63 Sr17 2.661634 1_555
O63 Sr3 2.688496 1_655
O63 Sr4 2.753181 1_655
O64 Sr28 2.586303 1_555
O64 Sr30 2.661634 1_555
O64 Sr10 2.688496 1_555
O64 Sr16 2.753181 1_555
O65 Sr10 2.508750 1_555
O65 Sr17 2.508750 1_555
O66 Sr18 2.508750 1_556
O66 Sr3 2.508750 1_555
O67 Sr28 2.586303 1_555
O67 Sr2 2.661634 1_555
O67 Sr30 2.688496 1_555
O67 Sr22 2.753181 1_555
O68 Sr11 2.586303 1_555
O68 Sr27 2.661634 1_555
O68 Sr16 2.688496 1_555
O68 Sr10 2.753181 1_555
O69 Sr15 2.508750 1_555
O69 Sr9 2.508750 1_555
O70 Sr16 2.508750 1_565
O70 Sr18 2.508750 1_555
O71 Sr25 2.586303 1_555
O71 Sr1 2.661634 1_555
O71 Sr21 2.688496 1_554
O71 Sr8 2.753181 1_554
