# generated using pymatgen
data_ZrMo2Se8(Cl7O)2
_symmetry_space_group_name_H-M   'P 1'
_cell_length_a   7.40416300
_cell_length_b   13.91088800
_cell_length_c   15.69825830
_cell_angle_alpha   75.70754912
_cell_angle_beta   90.00000000
_cell_angle_gamma   90.00000000
_symmetry_Int_Tables_number   1
_chemical_formula_structural   ZrMo2Se8(Cl7O)2
_chemical_formula_sum   'Zr2 Mo4 Se16 Cl28 O4'
_cell_volume   1566.85102107
_cell_formula_units_Z   2
loop_
 _symmetry_equiv_pos_site_id
 _symmetry_equiv_pos_as_xyz
  1  'x, y, z'
loop_
 _atom_site_type_symbol
 _atom_site_label
 _atom_site_symmetry_multiplicity
 _atom_site_fract_x
 _atom_site_fract_y
 _atom_site_fract_z
 _atom_site_occupancy
  Zr  Zr0  1  0.00000000  0.00000000  0.00000000  1
  Zr  Zr1  1  0.50000000  0.00000000  0.50000000  1
  Mo  Mo0  1  0.30844500  0.55359800  0.90203200  1
  Mo  Mo1  1  0.80844500  0.44640200  0.59796800  1
  Mo  Mo2  1  0.69155500  0.44640200  0.09796800  1
  Mo  Mo3  1  0.19155500  0.55359800  0.40203200  1
  Se  Se0  1  0.61605000  0.15361400  0.78510500  1
  Se  Se1  1  0.38395000  0.84638600  0.21489500  1
  Se  Se2  1  0.49315300  0.25892600  0.86517800  1
  Se  Se3  1  0.25325200  0.29123200  0.26922300  1
  Se  Se4  1  0.24674800  0.29123200  0.76922300  1
  Se  Se5  1  0.50684700  0.74107400  0.13482200  1
  Se  Se6  1  0.75325200  0.70876800  0.23077700  1
  Se  Se7  1  0.86808900  0.81658100  0.81008600  1
  Se  Se8  1  0.74674800  0.70876800  0.73077700  1
  Se  Se9  1  0.63191100  0.81658100  0.31008600  1
  Se  Se10  1  0.36808900  0.18341900  0.68991400  1
  Se  Se11  1  0.99315300  0.74107400  0.63482200  1
  Se  Se12  1  0.13191100  0.18341900  0.18991400  1
  Se  Se13  1  0.11605000  0.84638600  0.71489500  1
  Se  Se14  1  0.00684700  0.25892600  0.36517800  1
  Se  Se15  1  0.88395000  0.15361400  0.28510500  1
  Cl  Cl0  1  0.88932500  0.45308100  0.74131700  1
  Cl  Cl1  1  0.34010800  0.53195400  0.06040400  1
  Cl  Cl2  1  0.77643300  0.62048200  0.06806500  1
  Cl  Cl3  1  0.27643300  0.37951800  0.43193500  1
  Cl  Cl4  1  0.37926700  0.97573400  0.35732200  1
  Cl  Cl5  1  0.22356700  0.37951800  0.93193500  1
  Cl  Cl6  1  0.11432600  0.83011800  0.07900400  1
  Cl  Cl7  1  0.97198000  0.29069200  0.62190400  1
  Cl  Cl8  1  0.71249100  0.92661500  0.96999500  1
  Cl  Cl9  1  0.38567400  0.83011800  0.57900400  1
  Cl  Cl10  1  0.84010800  0.46804600  0.43959600  1
  Cl  Cl11  1  0.88567400  0.16988200  0.92099600  1
  Cl  Cl12  1  0.28750900  0.07338500  0.03000500  1
  Cl  Cl13  1  0.72356700  0.62048200  0.56806500  1
  Cl  Cl14  1  0.12073300  0.97573400  0.85732200  1
  Cl  Cl15  1  0.61432600  0.16988200  0.42099600  1
  Cl  Cl16  1  0.62073300  0.02426600  0.64267800  1
  Cl  Cl17  1  0.87926700  0.02426600  0.14267800  1
  Cl  Cl18  1  0.78750900  0.92661500  0.46999500  1
  Cl  Cl19  1  0.02802000  0.70930800  0.37809600  1
  Cl  Cl20  1  0.61067500  0.45308100  0.24131700  1
  Cl  Cl21  1  0.21249100  0.07338500  0.53000500  1
  Cl  Cl22  1  0.47198000  0.70930800  0.87809600  1
  Cl  Cl23  1  0.11067500  0.54691900  0.25868300  1
  Cl  Cl24  1  0.15989200  0.53195400  0.56040400  1
  Cl  Cl25  1  0.38932500  0.54691900  0.75868300  1
  Cl  Cl26  1  0.52802000  0.29069200  0.12190400  1
  Cl  Cl27  1  0.65989200  0.46804600  0.93959600  1
  O  O0  1  0.90290200  0.39822700  0.11106800  1
  O  O1  1  0.40290200  0.60177300  0.38893200  1
  O  O2  1  0.09709800  0.60177300  0.88893200  1
  O  O3  1  0.59709800  0.39822700  0.61106800  1
loop_
_geom_bond_atom_site_label_1
_geom_bond_atom_site_label_2
_geom_bond_distance
_geom_bond_site_symmetry_2
Mo0 O2 1.694728 1_555
Mo1 O3 1.694728 1_555
Mo2 O0 1.694728 1_555
Mo3 O1 1.694728 1_555
Se0 Se2 2.337408 1_555
Se0 Se10 2.338742 1_555
Se1 Se5 2.337408 1_555
Se1 Se9 2.338742 1_555
Se2 Se4 2.337790 1_555
Se5 Se6 2.337790 1_555
Se6 Se9 2.351274 1_555
Se7 Se8 2.351274 1_555
Se10 Se4 2.351274 1_555
Se11 Se13 2.337408 1_655
Se11 Se8 2.337790 1_555
Se12 Se15 2.338742 1_455
Se12 Se3 2.351274 1_555
Se13 Se7 2.338742 1_455
Se14 Se15 2.337408 1_455
Se14 Se3 2.337790 1_555
Cl0 Mo1 2.352545 1_555
Cl1 Mo0 2.440704 1_554
Cl1 Mo2 2.861620 1_555
Cl2 Mo2 2.432740 1_555
Cl2 Se5 2.960513 1_555
Cl3 Mo3 2.432740 1_555
Cl3 Se14 2.960513 1_555
Cl4 Zr1 2.510586 1_565
Cl5 Mo0 2.432740 1_555
Cl5 Se2 2.960513 1_555
Cl6 Zr0 2.528308 1_565
Cl6 Se1 2.970810 1_555
Cl7 Mo1 2.428435 1_555
Cl8 Zr0 2.456227 1_666
Cl9 Zr1 2.528308 1_565
Cl9 Se13 2.970810 1_555
Cl10 Mo1 2.440704 1_555
Cl10 Mo3 2.861620 1_655
Cl11 Zr0 2.528308 1_656
Cl11 Se0 2.970810 1_555
Cl12 Zr0 2.456227 1_555
Cl13 Mo1 2.432740 1_555
Cl13 Se11 2.960513 1_555
Cl14 Zr0 2.510586 1_566
Cl15 Zr1 2.528308 1_555
Cl15 Se15 2.970810 1_555
Cl16 Zr1 2.510586 1_555
Cl17 Zr0 2.510586 1_655
Cl18 Zr1 2.456227 1_565
Cl19 Mo3 2.428435 1_555
Cl20 Mo2 2.352545 1_555
Cl21 Zr1 2.456227 1_555
Cl22 Mo0 2.428435 1_555
Cl23 Mo3 2.352545 1_555
Cl24 Mo3 2.440704 1_555
Cl24 Mo1 2.861620 1_455
Cl25 Mo0 2.352545 1_555
Cl26 Mo2 2.428435 1_555
Cl27 Mo2 2.440704 1_556
Cl27 Mo0 2.861620 1_555
