# generated using pymatgen
data_Zn3Co2(CN)12
_symmetry_space_group_name_H-M   'P 1'
_cell_length_a   13.03306201
_cell_length_b   13.03306201
_cell_length_c   13.03306260
_cell_angle_alpha   57.50729774
_cell_angle_beta   57.50729774
_cell_angle_gamma   57.50729643
_symmetry_Int_Tables_number   1
_chemical_formula_structural   Zn3Co2(CN)12
_chemical_formula_sum   'Zn6 Co4 C24 N24'
_cell_volume   1475.65455315
_cell_formula_units_Z   2
loop_
 _symmetry_equiv_pos_site_id
 _symmetry_equiv_pos_as_xyz
  1  'x, y, z'
loop_
 _atom_site_type_symbol
 _atom_site_label
 _atom_site_symmetry_multiplicity
 _atom_site_fract_x
 _atom_site_fract_y
 _atom_site_fract_z
 _atom_site_occupancy
  Zn  Zn0  1  0.96011300  0.53988700  0.25000000  1
  Zn  Zn1  1  0.53988700  0.25000000  0.96011300  1
  Zn  Zn2  1  0.25000000  0.96011300  0.53988700  1
  Zn  Zn3  1  0.03988700  0.46011300  0.75000000  1
  Zn  Zn4  1  0.46011300  0.75000000  0.03988700  1
  Zn  Zn5  1  0.75000000  0.03988700  0.46011300  1
  Co  Co0  1  0.14651900  0.14651900  0.14651900  1
  Co  Co1  1  0.35348100  0.35348100  0.35348100  1
  Co  Co2  1  0.85348100  0.85348100  0.85348100  1
  Co  Co3  1  0.64651900  0.64651900  0.64651900  1
  C  C0  1  0.05348700  0.29280100  0.19519600  1
  C  C1  1  0.29280100  0.19519600  0.05348700  1
  C  C2  1  0.19519600  0.05348700  0.29280100  1
  C  C3  1  0.20719900  0.44651300  0.30480400  1
  C  C4  1  0.44651300  0.30480400  0.20719900  1
  C  C5  1  0.30480400  0.20719900  0.44651300  1
  C  C6  1  0.94651300  0.70719900  0.80480400  1
  C  C7  1  0.70719900  0.80480400  0.94651300  1
  C  C8  1  0.80480400  0.94651300  0.70719900  1
  C  C9  1  0.79280100  0.55348700  0.69519600  1
  C  C10  1  0.55348700  0.69519600  0.79280100  1
  C  C11  1  0.69519600  0.79280100  0.55348700  1
  C  C12  1  0.09908900  0.24550200  0.99923100  1
  C  C13  1  0.24550200  0.99923100  0.09908900  1
  C  C14  1  0.99923100  0.09908900  0.24550200  1
  C  C15  1  0.25449800  0.40091100  0.50076900  1
  C  C16  1  0.40091100  0.50076900  0.25449800  1
  C  C17  1  0.50076900  0.25449800  0.40091100  1
  C  C18  1  0.90091100  0.75449800  0.00076900  1
  C  C19  1  0.75449800  0.00076900  0.90091100  1
  C  C20  1  0.00076900  0.90091100  0.75449800  1
  C  C21  1  0.74550200  0.59908900  0.49923100  1
  C  C22  1  0.59908900  0.49923100  0.74550200  1
  C  C23  1  0.49923100  0.74550200  0.59908900  1
  N  N0  1  0.99946800  0.38385000  0.22531100  1
  N  N1  1  0.38385000  0.22531100  0.99946800  1
  N  N2  1  0.22531100  0.99946800  0.38385000  1
  N  N3  1  0.11615000  0.50053200  0.27468900  1
  N  N4  1  0.50053200  0.27468900  0.11615000  1
  N  N5  1  0.27468900  0.11615000  0.50053200  1
  N  N6  1  0.00053200  0.61615000  0.77468900  1
  N  N7  1  0.61615000  0.77468900  0.00053200  1
  N  N8  1  0.77468900  0.00053200  0.61615000  1
  N  N9  1  0.88385000  0.49946800  0.72531100  1
  N  N10  1  0.49946800  0.72531100  0.88385000  1
  N  N11  1  0.72531100  0.88385000  0.49946800  1
  N  N12  1  0.07100300  0.31264100  0.90615200  1
  N  N13  1  0.31264100  0.90615200  0.07100300  1
  N  N14  1  0.90615200  0.07100300  0.31264100  1
  N  N15  1  0.18735900  0.42899700  0.59384800  1
  N  N16  1  0.42899700  0.59384800  0.18735900  1
  N  N17  1  0.59384800  0.18735900  0.42899700  1
  N  N18  1  0.92899700  0.68735900  0.09384800  1
  N  N19  1  0.68735900  0.09384800  0.92899700  1
  N  N20  1  0.09384800  0.92899700  0.68735900  1
  N  N21  1  0.81264100  0.57100300  0.40615200  1
  N  N22  1  0.57100300  0.40615200  0.81264100  1
  N  N23  1  0.40615200  0.81264100  0.57100300  1
loop_
_geom_bond_atom_site_label_1
_geom_bond_atom_site_label_2
_geom_bond_distance
_geom_bond_site_symmetry_2
C0 N0 1.167807 1_455
C0 Co0 1.869983 1_555
C1 N1 1.167807 1_554
C1 Co0 1.869983 1_555
C2 N2 1.167807 1_545
C2 Co0 1.869983 1_555
C3 N3 1.167807 1_555
C3 Co1 1.869983 1_555
C4 N4 1.167807 1_555
C4 Co1 1.869983 1_555
C5 N5 1.167807 1_555
C5 Co1 1.869983 1_555
C6 N6 1.167807 1_655
C6 Co2 1.869983 1_555
C7 N7 1.167807 1_556
C7 Co2 1.869983 1_555
C8 N8 1.167807 1_565
C8 Co2 1.869983 1_555
C9 N9 1.167807 1_555
C9 Co3 1.869983 1_555
C10 N10 1.167807 1_555
C10 Co3 1.869983 1_555
C11 N11 1.167807 1_555
C11 Co3 1.869983 1_555
C12 N12 1.167812 1_555
C12 Co0 1.867828 1_556
C13 N13 1.167812 1_555
C13 Co0 1.867828 1_565
C14 N14 1.167812 1_555
C14 Co0 1.867828 1_655
C15 N15 1.167812 1_555
C15 Co1 1.867828 1_555
C16 N16 1.167812 1_555
C16 Co1 1.867828 1_555
C17 N17 1.167812 1_555
C17 Co1 1.867828 1_555
C18 N18 1.167812 1_555
C18 Co2 1.867828 1_554
C19 N19 1.167812 1_555
C19 Co2 1.867828 1_545
C20 N20 1.167812 1_555
C20 Co2 1.867828 1_455
C21 N21 1.167812 1_555
C21 Co3 1.867828 1_555
C22 N22 1.167812 1_555
C22 Co3 1.867828 1_555
C23 N23 1.167812 1_555
C23 Co3 1.867828 1_555
N0 Zn0 1.976705 1_555
N1 Zn1 1.976705 1_555
N2 Zn2 1.976705 1_555
N3 Zn0 1.976705 1_455
N4 Zn1 1.976705 1_554
N5 Zn2 1.976705 1_545
N6 Zn3 1.976705 1_555
N7 Zn4 1.976705 1_555
N8 Zn5 1.976705 1_555
N9 Zn3 1.976705 1_655
N10 Zn4 1.976705 1_556
N11 Zn5 1.976705 1_565
N12 Zn3 1.961415 1_555
N13 Zn4 1.961415 1_555
N14 Zn5 1.961415 1_555
N15 Zn3 1.961415 1_555
N16 Zn4 1.961415 1_555
N17 Zn5 1.961415 1_555
N18 Zn0 1.961415 1_555
N19 Zn1 1.961415 1_555
N20 Zn2 1.961415 1_555
N21 Zn0 1.961415 1_555
N22 Zn1 1.961415 1_555
N23 Zn2 1.961415 1_555
