# generated using pymatgen
data_CaTl2O4
_symmetry_space_group_name_H-M   'P 1'
_cell_length_a   5.79332157
_cell_length_b   5.79332157
_cell_length_c   10.51272560
_cell_angle_alpha   90.00000000
_cell_angle_beta   90.00000000
_cell_angle_gamma   146.48940102
_symmetry_Int_Tables_number   1
_chemical_formula_structural   CaTl2O4
_chemical_formula_sum   'Ca2 Tl4 O8'
_cell_volume   194.79663564
_cell_formula_units_Z   2
loop_
 _symmetry_equiv_pos_site_id
 _symmetry_equiv_pos_as_xyz
  1  'x, y, z'
loop_
 _atom_site_type_symbol
 _atom_site_label
 _atom_site_symmetry_multiplicity
 _atom_site_fract_x
 _atom_site_fract_y
 _atom_site_fract_z
 _atom_site_occupancy
  Ca  Ca0  1  0.10912595  0.89087405  0.25000000  1
  Ca  Ca1  1  0.89087405  0.10912595  0.75000000  1
  Tl  Tl0  1  0.63447416  0.36552584  0.57189673  1
  Tl  Tl1  1  0.36552584  0.63447416  0.42810327  1
  Tl  Tl2  1  0.36552584  0.63447416  0.07189673  1
  Tl  Tl3  1  0.63447416  0.36552584  0.92810327  1
  O  O0  1  0.46178644  0.53821356  0.25000000  1
  O  O1  1  0.53821356  0.46178644  0.75000000  1
  O  O2  1  0.00000000  -0.00000000  0.50000000  1
  O  O3  1  0.00000000  -0.00000000  -0.00000000  1
  O  O4  1  0.71975383  0.28024617  0.11704000  1
  O  O5  1  0.28024617  0.71975383  0.88296000  1
  O  O6  1  0.71975383  0.28024617  0.38296000  1
  O  O7  1  0.28024617  0.71975383  0.61704000  1
loop_
_geom_bond_atom_site_label_1
_geom_bond_atom_site_label_2
_geom_bond_distance
_geom_bond_site_symmetry_2
Ca0 O0 2.336994 1_565
Ca0 O0 2.336994 1_455
Ca0 O4 2.499913 1_565
Ca0 O6 2.499913 1_565
Ca0 O6 2.499913 1_455
Ca0 O4 2.499913 1_455
Ca0 O2 2.893646 1_565
Ca0 O3 2.893646 1_565
Ca1 O1 2.336994 1_655
Ca1 O1 2.336994 1_545
Ca1 O7 2.499913 1_655
Ca1 O7 2.499913 1_545
Ca1 O5 2.499913 1_655
Ca1 O5 2.499913 1_545
Ca1 O2 2.893646 1_655
Ca1 O3 2.893646 1_656
O0 Tl2 2.155525 1_555
O0 Tl1 2.155525 1_555
O1 Tl3 2.155525 1_555
O1 Tl0 2.155525 1_555
O2 Tl1 2.363584 1_445
O2 Tl0 2.363584 1_555
O2 Tl1 2.363584 1_555
O2 Tl0 2.363584 1_445
O3 Tl3 2.363584 1_554
O3 Tl2 2.363584 1_555
O3 Tl3 2.363584 1_444
O3 Tl2 2.363584 1_445
O4 Tl3 2.200081 1_554
O4 Tl2 2.372806 1_545
O4 Tl2 2.372806 1_655
O5 Tl2 2.200081 1_556
O5 Tl3 2.372806 1_455
O5 Tl3 2.372806 1_565
O6 Tl0 2.200081 1_555
O6 Tl1 2.372806 1_545
O6 Tl1 2.372806 1_655
O7 Tl1 2.200081 1_555
O7 Tl0 2.372806 1_455
O7 Tl0 2.372806 1_565
