# generated using pymatgen
data_Al2CuO4
_symmetry_space_group_name_H-M   'P 1'
_cell_length_a   5.74962485
_cell_length_b   5.74962485
_cell_length_c   19.24040982
_cell_angle_alpha   80.98534829
_cell_angle_beta   80.98534829
_cell_angle_gamma   60.01260201
_symmetry_Int_Tables_number   1
_chemical_formula_structural   Al2CuO4
_chemical_formula_sum   'Al16 Cu8 O32'
_cell_volume   541.81501138
_cell_formula_units_Z   8
loop_
 _symmetry_equiv_pos_site_id
 _symmetry_equiv_pos_as_xyz
  1  'x, y, z'
loop_
 _atom_site_type_symbol
 _atom_site_label
 _atom_site_symmetry_multiplicity
 _atom_site_fract_x
 _atom_site_fract_y
 _atom_site_fract_z
 _atom_site_occupancy
  Al  Al0  1  0.37778800  0.37778800  0.87418800  1
  Al  Al1  1  0.87021300  0.37789800  0.87419000  1
  Al  Al2  1  0.37789800  0.87021300  0.87419000  1
  Al  Al3  1  0.12559500  0.12559500  0.62456600  1
  Al  Al4  1  0.62620400  0.12545700  0.62439900  1
  Al  Al5  1  0.34655200  0.34655200  0.46965200  1
  Al  Al6  1  0.12545700  0.62620400  0.62439900  1
  Al  Al7  1  0.00078100  0.00078100  0.50258700  1
  Al  Al8  1  0.37723800  0.87058400  0.37512600  1
  Al  Al9  1  0.90562900  0.90562900  0.78466400  1
  Al  Al10  1  0.87058400  0.37723800  0.37512600  1
  Al  Al11  1  0.62588000  0.62588000  0.12457700  1
  Al  Al12  1  0.12172400  0.62640000  0.12491000  1
  Al  Al13  1  0.74808600  0.74808600  0.24968600  1
  Al  Al14  1  0.62640000  0.12172400  0.12491000  1
  Al  Al15  1  0.15651400  0.15651400  0.03140000  1
  Cu  Cu0  1  0.84297000  0.84297000  0.96909300  1
  Cu  Cu1  1  0.50038200  0.50038200  0.99760100  1
  Cu  Cu2  1  0.59423300  0.59423300  0.71566100  1
  Cu  Cu3  1  0.25136500  0.25136500  0.74603500  1
  Cu  Cu4  1  0.87063300  0.87063300  0.37561700  1
  Cu  Cu5  1  0.09198400  0.09198400  0.22191500  1
  Cu  Cu6  1  0.65732000  0.65732000  0.53206200  1
  Cu  Cu7  1  0.40591100  0.40591100  0.27836600  1
  O  O0  1  0.67516300  0.21842400  0.92915800  1
  O  O1  1  0.56044800  0.56044800  0.82090100  1
  O  O2  1  0.21842400  0.67516300  0.92915800  1
  O  O3  1  0.67594300  0.67594300  0.92889400  1
  O  O4  1  0.06615100  0.06615100  0.81922700  1
  O  O5  1  0.42571200  0.97149100  0.67678000  1
  O  O6  1  0.54915200  0.06689400  0.81908600  1
  O  O7  1  0.31205400  0.31205400  0.56490600  1
  O  O8  1  0.18902700  0.18902700  0.93178800  1
  O  O9  1  0.97149100  0.42571200  0.67678000  1
  O  O10  1  0.06689400  0.54915200  0.81908600  1
  O  O11  1  0.42635200  0.42635200  0.67617900  1
  O  O12  1  0.83309000  0.83309000  0.56873200  1
  O  O13  1  0.19427400  0.70660400  0.44211600  1
  O  O14  1  0.26779900  0.83503000  0.56819800  1
  O  O15  1  0.93770700  0.93770700  0.68744100  1
  O  O16  1  0.06276500  0.06276500  0.32874000  1
  O  O17  1  0.70660400  0.19427400  0.44211600  1
  O  O18  1  0.83503000  0.26779900  0.56819800  1
  O  O19  1  0.18165300  0.18165300  0.43846900  1
  O  O20  1  0.91685400  0.47649700  0.18398600  1
  O  O21  1  0.57675100  0.57675100  0.31724700  1
  O  O22  1  0.02618100  0.56400200  0.31325300  1
  O  O23  1  0.80931000  0.80931000  0.07328400  1
  O  O24  1  0.68389800  0.68389800  0.42821200  1
  O  O25  1  0.47649700  0.91685400  0.18398600  1
  O  O26  1  0.56400200  0.02618100  0.31325300  1
  O  O27  1  0.91840100  0.91840100  0.18409100  1
  O  O28  1  0.31323200  0.31323200  0.06715900  1
  O  O29  1  0.80611100  0.31382600  0.06699500  1
  O  O30  1  0.44186500  0.44186500  0.17066500  1
  O  O31  1  0.31382600  0.80611100  0.06699500  1
loop_
_geom_bond_atom_site_label_1
_geom_bond_atom_site_label_2
_geom_bond_distance
_geom_bond_site_symmetry_2
Al0 O0 1.891700 1_555
Al0 O2 1.891700 1_555
Al0 O1 1.919587 1_555
Al0 O6 1.948333 1_555
Al0 O10 1.948333 1_555
Al0 O8 2.001894 1_555
Al1 O0 1.889252 1_555
Al1 O3 1.890890 1_555
Al1 O1 1.921284 1_555
Al1 O10 1.944890 1_655
Al1 O4 1.949981 1_655
Al1 O8 2.009262 1_655
Al2 O2 1.889252 1_555
Al2 O3 1.890890 1_555
Al2 O1 1.921284 1_555
Al2 O6 1.944890 1_565
Al2 O4 1.949981 1_565
Al2 O8 2.009262 1_565
Al3 O9 1.872925 1_455
Al3 O5 1.872925 1_545
Al3 O18 1.886865 1_455
Al3 O14 1.886865 1_545
Al3 O7 1.998478 1_555
Al3 O15 2.035928 1_445
Al4 O11 1.870865 1_555
Al4 O5 1.872072 1_545
Al4 O12 1.885211 1_545
Al4 O18 1.891763 1_555
Al4 O7 2.012406 1_555
Al4 O15 2.045026 1_545
Al5 O7 1.802515 1_555
Al5 O13 1.822822 1_555
Al5 O17 1.822822 1_555
Al5 O19 1.847395 1_555
Al6 O11 1.870865 1_555
Al6 O9 1.872072 1_455
Al6 O12 1.885211 1_455
Al6 O14 1.891763 1_555
Al6 O7 2.012406 1_555
Al6 O15 2.045026 1_455
Al7 O14 1.904369 1_545
Al7 O18 1.904369 1_455
Al7 O12 1.907634 1_445
Al7 O13 1.944818 1_545
Al7 O17 1.944818 1_455
Al7 O19 1.990448 1_555
Al8 O16 1.867147 1_565
Al8 O26 1.896471 1_565
Al8 O24 1.906082 1_555
Al8 O21 1.913691 1_555
Al8 O13 1.960253 1_555
Al8 O19 2.047402 1_565
Al9 O10 1.834831 1_655
Al9 O6 1.834831 1_565
Al9 O4 1.839034 1_665
Al9 O15 1.839833 1_555
Al10 O16 1.867147 1_655
Al10 O22 1.896471 1_655
Al10 O24 1.906082 1_555
Al10 O21 1.913691 1_555
Al10 O17 1.960253 1_555
Al10 O19 2.047402 1_655
Al11 O30 1.885760 1_555
Al11 O23 1.912612 1_555
Al11 O25 1.923124 1_555
Al11 O20 1.923124 1_555
Al11 O31 1.981164 1_555
Al11 O29 1.981164 1_555
Al12 O30 1.884606 1_555
Al12 O23 1.913804 1_455
Al12 O27 1.924029 1_455
Al12 O20 1.926292 1_455
Al12 O31 1.980810 1_555
Al12 O28 1.987693 1_555
Al13 O26 1.920467 1_565
Al13 O22 1.920467 1_655
Al13 O27 1.922149 1_555
Al13 O20 1.922872 1_555
Al13 O25 1.922872 1_555
Al13 O21 1.948879 1_555
Al14 O30 1.884606 1_555
Al14 O23 1.913804 1_545
Al14 O27 1.924029 1_545
Al14 O25 1.926292 1_545
Al14 O29 1.980810 1_555
Al14 O28 1.987693 1_555
Al15 O31 1.812805 1_545
Al15 O29 1.812805 1_455
Al15 O28 1.815872 1_555
Al15 O8 1.885082 1_554
Cu0 O0 1.952403 1_565
Cu0 O2 1.952403 1_655
Cu0 O3 1.957082 1_555
Cu0 O23 1.971782 1_556
Cu1 O3 1.991875 1_555
Cu1 O2 1.999486 1_555
Cu1 O0 1.999486 1_555
Cu1 O28 2.088467 1_556
Cu1 O31 2.103587 1_556
Cu1 O29 2.103587 1_556
Cu2 O9 1.954780 1_555
Cu2 O5 1.954780 1_555
Cu2 O11 1.957401 1_555
Cu2 O1 1.991664 1_555
Cu3 O11 1.998836 1_555
Cu3 O5 2.002680 1_545
Cu3 O9 2.002680 1_455
Cu3 O4 2.108298 1_555
Cu3 O6 2.122180 1_555
Cu3 O10 2.122180 1_555
Cu4 O24 1.949580 1_555
Cu4 O16 1.962028 1_665
Cu4 O22 2.024437 1_655
Cu4 O26 2.024437 1_565
Cu4 O13 2.145413 1_655
Cu4 O17 2.145413 1_565
Cu5 O20 1.983315 1_455
Cu5 O25 1.983315 1_545
Cu5 O27 1.993162 1_445
Cu5 O16 2.023051 1_555
Cu6 O24 1.967523 1_555
Cu6 O14 1.997598 1_555
Cu6 O18 1.997598 1_555
Cu6 O12 2.002075 1_555
Cu7 O22 1.947243 1_555
Cu7 O26 1.947243 1_555
Cu7 O21 1.978472 1_555
Cu7 O30 2.038079 1_555
