# generated using pymatgen
data_K2CuBr3
_symmetry_space_group_name_H-M   'P 1'
_cell_length_a   4.31113338
_cell_length_b   12.62015212
_cell_length_c   13.22135301
_cell_angle_alpha   90.00000000
_cell_angle_beta   90.00000000
_cell_angle_gamma   90.00000000
_symmetry_Int_Tables_number   1
_chemical_formula_structural   K2CuBr3
_chemical_formula_sum   'K8 Cu4 Br12'
_cell_volume   719.33625627
_cell_formula_units_Z   4
loop_
 _symmetry_equiv_pos_site_id
 _symmetry_equiv_pos_as_xyz
  1  'x, y, z'
loop_
 _atom_site_type_symbol
 _atom_site_label
 _atom_site_symmetry_multiplicity
 _atom_site_fract_x
 _atom_site_fract_y
 _atom_site_fract_z
 _atom_site_occupancy
  K  K0  1  0.25000000  0.17659669  0.51598721  1
  K  K1  1  0.25000000  0.51224004  0.32218378  1
  K  K2  1  0.75000000  0.82340331  0.48401279  1
  K  K3  1  0.75000000  0.48775996  0.67781622  1
  K  K4  1  0.75000000  0.98775996  0.82218378  1
  K  K5  1  0.25000000  0.67659669  0.98401279  1
  K  K6  1  0.75000000  0.32340331  0.01598721  1
  K  K7  1  0.25000000  0.01224004  0.17781622  1
  Cu  Cu0  1  0.75000000  0.74552657  0.19723993  1
  Cu  Cu1  1  0.75000000  0.24552657  0.30276007  1
  Cu  Cu2  1  0.25000000  0.25447343  0.80276007  1
  Cu  Cu3  1  0.25000000  0.75447343  0.69723993  1
  Br  Br0  1  0.75000000  0.72477799  0.79054084  1
  Br  Br1  1  0.75000000  0.22477799  0.70945916  1
  Br  Br2  1  0.25000000  0.43976640  0.86155884  1
  Br  Br3  1  0.25000000  0.93976640  0.63844116  1
  Br  Br4  1  0.25000000  0.77522201  0.29054084  1
  Br  Br5  1  0.25000000  0.27522201  0.20945916  1
  Br  Br6  1  0.25000000  0.63262001  0.55372299  1
  Br  Br7  1  0.25000000  0.13262001  0.94627701  1
  Br  Br8  1  0.75000000  0.06023360  0.36155884  1
  Br  Br9  1  0.75000000  0.86737999  0.05372299  1
  Br  Br10  1  0.75000000  0.36737999  0.44627701  1
  Br  Br11  1  0.75000000  0.56023360  0.13844116  1
loop_
_geom_bond_atom_site_label_1
_geom_bond_atom_site_label_2
_geom_bond_distance
_geom_bond_site_symmetry_2
Br0 Cu3 2.511692 1_555
Br0 Cu3 2.511692 1_655
Br0 K3 3.341932 1_555
Br0 K4 3.345137 1_555
Br0 K5 3.399906 1_555
Br0 K5 3.399906 1_655
Br1 Cu2 2.511692 1_655
Br1 Cu2 2.511692 1_555
Br1 K4 3.341932 1_545
Br1 K3 3.345137 1_555
Br1 K0 3.399906 1_555
Br1 K0 3.399906 1_655
Br2 Cu2 2.464261 1_555
Br2 K3 3.303778 1_455
Br2 K3 3.303778 1_555
Br2 K6 3.312366 1_456
Br2 K6 3.312366 1_556
Br2 K5 3.399164 1_555
Br3 Cu3 2.464261 1_555
Br3 K4 3.303778 1_455
Br3 K4 3.303778 1_555
Br3 K2 3.312366 1_455
Br3 K2 3.312366 1_555
Br3 K0 3.399164 1_565
Br4 Cu0 2.511692 1_555
Br4 Cu0 2.511692 1_455
Br4 K7 3.341932 1_565
Br4 K1 3.345137 1_555
Br4 K2 3.399906 1_455
Br4 K2 3.399906 1_555
Br5 Cu1 2.511692 1_455
Br5 Cu1 2.511692 1_555
Br5 K1 3.341932 1_555
Br5 K7 3.345137 1_555
Br5 K6 3.399906 1_455
Br5 K6 3.399906 1_555
Br6 Cu3 2.442400 1_555
Br6 K3 3.268096 1_455
Br6 K3 3.268096 1_555
Br6 K2 3.360509 1_555
Br6 K2 3.360509 1_455
Br6 K1 3.417504 1_555
Br7 Cu2 2.442400 1_555
Br7 K4 3.268096 1_445
Br7 K4 3.268096 1_545
Br7 K6 3.360509 1_456
Br7 K6 3.360509 1_556
Br7 K7 3.417504 1_556
Br8 Cu1 2.464261 1_555
Br8 K7 3.303778 1_555
Br8 K7 3.303778 1_655
Br8 K0 3.312366 1_555
Br8 K0 3.312366 1_655
Br8 K2 3.399164 1_545
Br9 Cu0 2.442400 1_555
Br9 K7 3.268096 1_565
Br9 K7 3.268096 1_665
Br9 K5 3.360509 1_654
Br9 K5 3.360509 1_554
Br9 K4 3.417504 1_554
Br10 Cu1 2.442400 1_555
Br10 K1 3.268096 1_655
Br10 K1 3.268096 1_555
Br10 K0 3.360509 1_555
Br10 K0 3.360509 1_655
Br10 K3 3.417504 1_555
Br11 Cu0 2.464261 1_555
Br11 K1 3.303778 1_555
Br11 K1 3.303778 1_655
Br11 K5 3.312366 1_654
Br11 K5 3.312366 1_554
Br11 K6 3.399164 1_555
