# generated using pymatgen
data_K2U(PSe3)3
_symmetry_space_group_name_H-M   'P 1'
_cell_length_a   10.24464800
_cell_length_b   10.61673610
_cell_length_c   16.78328204
_cell_angle_alpha   90.03854652
_cell_angle_beta   107.29165333
_cell_angle_gamma   91.67715277
_symmetry_Int_Tables_number   1
_chemical_formula_structural   K2U(PSe3)3
_chemical_formula_sum   'K8 U4 P12 Se36'
_cell_volume   1742.09649758
_cell_formula_units_Z   4
loop_
 _symmetry_equiv_pos_site_id
 _symmetry_equiv_pos_as_xyz
  1  'x, y, z'
loop_
 _atom_site_type_symbol
 _atom_site_label
 _atom_site_symmetry_multiplicity
 _atom_site_fract_x
 _atom_site_fract_y
 _atom_site_fract_z
 _atom_site_occupancy
  K  K0  1  0.97145000  0.24632100  0.46644700  1
  K  K1  1  0.24791600  0.81407000  0.86675000  1
  K  K2  1  0.55243900  0.76037200  0.54858700  1
  K  K3  1  0.44756100  0.23962800  0.45141300  1
  K  K4  1  0.70415700  0.66944700  0.85008900  1
  K  K5  1  0.02855000  0.75367900  0.53355300  1
  K  K6  1  0.75208400  0.18593000  0.13325000  1
  K  K7  1  0.29584300  0.33055300  0.14991100  1
  U  U0  1  0.19365100  0.27776800  0.77569900  1
  U  U1  1  0.22253000  0.78014100  0.16836400  1
  U  U2  1  0.77747000  0.21985900  0.83163600  1
  U  U3  1  0.80634900  0.72223200  0.22430100  1
  P  P0  1  0.51019000  0.57188600  0.05377000  1
  P  P1  1  0.46339000  0.99754000  0.71875100  1
  P  P2  1  0.72413700  0.93223700  0.37848400  1
  P  P3  1  0.78162000  0.41402400  0.65064000  1
  P  P4  1  0.21838000  0.58597600  0.34936000  1
  P  P5  1  0.92731700  0.92435300  0.00862700  1
  P  P6  1  0.07268300  0.07564700  0.99137300  1
  P  P7  1  0.48981000  0.42811400  0.94623000  1
  P  P8  1  0.27586300  0.06776300  0.62151600  1
  P  P9  1  0.95138300  0.54298000  0.72664900  1
  P  P10  1  0.53661000  0.00246000  0.28124900  1
  P  P11  1  0.04861700  0.45702000  0.27335100  1
  Se  Se0  1  0.71523500  0.46766800  0.52126800  1
  Se  Se1  1  0.01150800  0.74329700  0.98593600  1
  Se  Se2  1  0.10607400  0.77038000  0.32554700  1
  Se  Se3  1  0.74943900  0.01707300  0.49938800  1
  Se  Se4  1  0.03125900  0.07013900  0.85151300  1
  Se  Se5  1  0.88654200  0.49606700  0.33266300  1
  Se  Se6  1  0.62718600  0.41437100  0.72003700  1
  Se  Se7  1  0.00588100  0.43840400  0.85065100  1
  Se  Se8  1  0.53376300  0.87503600  0.17197000  1
  Se  Se9  1  0.10767300  0.26260600  0.27758700  1
  Se  Se10  1  0.42392100  0.79609100  0.72510800  1
  Se  Se11  1  0.99412000  0.56159600  0.14934900  1
  Se  Se12  1  0.89232700  0.73739400  0.72241300  1
  Se  Se13  1  0.70777600  0.37965500  0.96307100  1
  Se  Se14  1  0.98849200  0.25670300  0.01406400  1
  Se  Se15  1  0.12414800  0.02027000  0.68968900  1
  Se  Se16  1  0.37400500  0.50911000  0.82415400  1
  Se  Se17  1  0.25056100  0.98292700  0.50061200  1
  Se  Se18  1  0.71001700  0.72367600  0.37401600  1
  Se  Se19  1  0.87585200  0.97973000  0.31031100  1
  Se  Se20  1  0.62599500  0.49089000  0.17584600  1
  Se  Se21  1  0.57607900  0.20390900  0.27489200  1
  Se  Se22  1  0.35745300  0.27002000  0.96460800  1
  Se  Se23  1  0.37281400  0.58562900  0.27996300  1
  Se  Se24  1  0.29222400  0.62034500  0.03692900  1
  Se  Se25  1  0.28998300  0.27632400  0.62598400  1
  Se  Se26  1  0.28476500  0.53233200  0.47873200  1
  Se  Se27  1  0.27605500  0.00898100  0.06810900  1
  Se  Se28  1  0.65223600  0.05471200  0.68688500  1
  Se  Se29  1  0.34776400  0.94528800  0.31311500  1
  Se  Se30  1  0.89392600  0.22962000  0.67445300  1
  Se  Se31  1  0.46623700  0.12496400  0.82803000  1
  Se  Se32  1  0.72394500  0.99101900  0.93189100  1
  Se  Se33  1  0.64254700  0.72998000  0.03539200  1
  Se  Se34  1  0.96874100  0.92986100  0.14848700  1
  Se  Se35  1  0.11345800  0.50393300  0.66733700  1
loop_
_geom_bond_atom_site_label_1
_geom_bond_atom_site_label_2
_geom_bond_distance
_geom_bond_site_symmetry_2
K0 Se5 3.436641 1_555
K0 Se3 3.439135 1_555
K0 Se25 3.558567 1_655
K0 Se19 3.760173 1_545
K0 Se30 3.806608 1_555
K0 Se9 3.826311 1_655
K0 Se0 3.879760 1_555
K1 Se10 3.392119 1_555
K1 Se24 3.447560 1_556
K1 Se4 3.521294 1_565
K1 Se15 3.627985 1_565
K1 Se1 3.634155 1_555
K1 Se16 3.667820 1_555
K1 Se12 3.792000 1_455
K1 Se27 3.893905 1_566
K2 Se26 3.528754 1_555
K2 Se3 3.585257 1_565
K2 Se10 3.605667 1_555
K2 Se0 3.661245 1_555
K2 Se18 3.766831 1_555
K2 Se28 3.819745 1_565
K2 Se12 3.834961 1_555
K2 Se17 3.839993 1_555
K3 Se0 3.528754 1_555
K3 Se17 3.585257 1_545
K3 Se21 3.605667 1_555
K3 Se26 3.661245 1_555
K3 Se25 3.766831 1_555
K3 Se29 3.819745 1_545
K3 Se9 3.834961 1_555
K3 Se3 3.839993 1_555
K4 Se10 3.331621 1_555
K4 Se12 3.347320 1_555
K4 Se1 3.363435 1_655
K4 Se6 3.400517 1_555
K4 Se33 3.416345 1_556
K4 Se13 3.610466 1_555
K4 Se16 3.648811 1_555
K4 Se32 3.656419 1_555
K5 Se35 3.436641 1_555
K5 Se17 3.439135 1_555
K5 Se18 3.558567 1_455
K5 Se15 3.760173 1_565
K5 Se2 3.806608 1_555
K5 Se12 3.826311 1_455
K5 Se26 3.879760 1_555
K6 Se21 3.392119 1_555
K6 Se13 3.447560 1_554
K6 Se34 3.521294 1_545
K6 Se19 3.627985 1_545
K6 Se14 3.634155 1_555
K6 Se20 3.667820 1_555
K6 Se9 3.792000 1_655
K6 Se32 3.893905 1_544
K7 Se21 3.331621 1_555
K7 Se9 3.347320 1_555
K7 Se14 3.363435 1_455
K7 Se23 3.400517 1_555
K7 Se22 3.416345 1_554
K7 Se24 3.610466 1_555
K7 Se20 3.648811 1_555
K7 Se27 3.656419 1_555
P0 Se33 2.206131 1_555
P0 Se20 2.227506 1_555
P0 Se24 2.241214 1_555
P0 P7 2.320485 1_554
P1 Se10 2.173564 1_555
P1 Se28 2.223546 1_565
P1 P8 2.265286 1_565
P1 Se31 2.270973 1_565
P2 Se3 2.160353 1_565
P2 Se18 2.214492 1_555
P2 Se19 2.234094 1_555
P3 Se0 2.155891 1_555
P3 Se6 2.226083 1_555
P3 P9 2.250739 1_555
P3 Se30 2.275054 1_555
P4 Se26 2.155891 1_555
P4 Se23 2.226083 1_555
P4 Se2 2.275054 1_555
P5 Se1 2.207990 1_654
P5 Se32 2.234473 1_554
P5 P6 2.235765 1_664
P5 Se34 2.258221 1_555
P6 Se14 2.207990 1_456
P6 Se27 2.234473 1_556
P6 Se4 2.258221 1_555
P7 Se22 2.206131 1_555
P7 Se16 2.227506 1_555
P7 Se13 2.241214 1_555
P8 Se17 2.160353 1_545
P8 Se25 2.214492 1_555
P8 Se15 2.234094 1_555
P9 Se12 2.163119 1_555
P9 Se35 2.223064 1_655
P9 Se7 2.285665 1_655
P10 Se21 2.173564 1_555
P10 Se29 2.223546 1_545
P10 P2 2.265286 1_545
P10 Se8 2.270973 1_545
P11 Se9 2.163119 1_555
P11 Se5 2.223064 1_455
P11 P4 2.250739 1_555
P11 Se11 2.285665 1_455
Se1 U1 3.196078 1_556
Se2 U3 3.063066 1_455
Se2 U1 3.202737 1_555
Se4 U2 3.020731 1_455
Se4 U0 3.208331 1_555
Se5 U3 2.996845 1_555
Se6 U2 2.936004 1_555
Se7 U0 3.133520 1_555
Se7 U2 3.193455 1_455
Se8 U3 3.163948 1_555
Se8 U1 3.298817 1_555
Se11 U3 3.133528 1_555
Se11 U1 3.193448 1_655
Se13 U2 3.042390 1_555
Se14 U2 3.196078 1_554
Se15 U0 3.055175 1_555
Se16 U0 2.990996 1_555
Se18 U3 2.960215 1_555
Se19 U3 3.055175 1_555
Se20 U3 2.990996 1_555
Se22 U0 3.117774 1_555
Se23 U1 2.936004 1_555
Se24 U1 3.042390 1_555
Se25 U0 2.960215 1_555
Se27 U1 3.083909 1_545
Se28 U2 2.938001 1_555
Se29 U1 2.938001 1_555
Se30 U0 3.063066 1_655
Se30 U2 3.202737 1_555
Se31 U0 3.163948 1_555
Se31 U2 3.298817 1_555
Se32 U2 3.083909 1_565
Se33 U3 3.117774 1_555
Se34 U1 3.020731 1_655
Se34 U3 3.208331 1_555
Se35 U0 2.996845 1_555
