# generated using pymatgen
data_MnCdF5
_symmetry_space_group_name_H-M   'P 1'
_cell_length_a   6.41325000
_cell_length_b   8.03721900
_cell_length_c   9.05999530
_cell_angle_alpha   64.11198686
_cell_angle_beta   90.00000000
_cell_angle_gamma   90.00000000
_symmetry_Int_Tables_number   1
_chemical_formula_structural   MnCdF5
_chemical_formula_sum   'Mn4 Cd4 F20'
_cell_volume   420.13137424
_cell_formula_units_Z   4
loop_
 _symmetry_equiv_pos_site_id
 _symmetry_equiv_pos_as_xyz
  1  'x, y, z'
loop_
 _atom_site_type_symbol
 _atom_site_label
 _atom_site_symmetry_multiplicity
 _atom_site_fract_x
 _atom_site_fract_y
 _atom_site_fract_z
 _atom_site_occupancy
  Mn  Mn0  1  0.50000000  0.00000000  0.50000000  1
  Mn  Mn1  1  0.00000000  0.50000000  0.00000000  1
  Mn  Mn2  1  0.50000000  0.50000000  0.50000000  1
  Mn  Mn3  1  0.00000000  0.00000000  0.00000000  1
  Cd  Cd0  1  0.54236900  0.75062800  0.99989500  1
  Cd  Cd1  1  0.04236900  0.24937200  0.50010500  1
  Cd  Cd2  1  0.95763100  0.75062800  0.49989500  1
  Cd  Cd3  1  0.45763100  0.24937200  0.00010500  1
  F  F0  1  0.70429800  0.05100300  0.98079700  1
  F  F1  1  0.79570200  0.05100300  0.48079700  1
  F  F2  1  0.60366200  0.74776800  0.50411900  1
  F  F3  1  0.89633800  0.74776800  0.00411900  1
  F  F4  1  0.70314400  0.45268100  0.00929000  1
  F  F5  1  0.29570200  0.94899700  0.01920300  1
  F  F6  1  0.79685600  0.45268100  0.50929000  1
  F  F7  1  0.02727100  0.10275400  0.77207600  1
  F  F8  1  0.51430800  0.61243100  0.27166300  1
  F  F9  1  0.97272900  0.89724600  0.22792400  1
  F  F10  1  0.20314400  0.54731900  0.49071000  1
  F  F11  1  0.39633800  0.25223200  0.49588100  1
  F  F12  1  0.47272900  0.10275400  0.27207600  1
  F  F13  1  0.52727100  0.89724600  0.72792400  1
  F  F14  1  0.48569200  0.38756900  0.72833700  1
  F  F15  1  0.20429800  0.94899700  0.51920300  1
  F  F16  1  0.10366200  0.25223200  0.99588100  1
  F  F17  1  0.98569200  0.61243100  0.77166300  1
  F  F18  1  0.29685600  0.54731900  0.99071000  1
  F  F19  1  0.01430800  0.38756900  0.22833700  1
loop_
_geom_bond_atom_site_label_1
_geom_bond_atom_site_label_2
_geom_bond_distance
_geom_bond_site_symmetry_2
Cd0 F13 2.221268 1_555
Cd0 F8 2.222716 1_556
Cd0 F3 2.270361 1_556
Cd0 F18 2.296718 1_555
Cd0 F5 2.306203 1_556
Cd0 F0 2.563572 1_565
Cd0 F4 2.574262 1_556
Cd1 F7 2.221268 1_555
Cd1 F19 2.222716 1_555
Cd1 F11 2.270361 1_555
Cd1 F6 2.296718 1_455
Cd1 F1 2.306203 1_455
Cd1 F15 2.563572 1_545
Cd1 F10 2.574262 1_555
Cd2 F9 2.221268 1_555
Cd2 F17 2.222716 1_555
Cd2 F2 2.270361 1_555
Cd2 F10 2.296718 1_655
Cd2 F15 2.306203 1_655
Cd2 F1 2.563572 1_565
Cd2 F6 2.574262 1_555
Cd3 F12 2.221268 1_555
Cd3 F14 2.222716 1_554
Cd3 F16 2.270361 1_554
Cd3 F4 2.296718 1_555
Cd3 F0 2.306203 1_554
Cd3 F5 2.563572 1_545
Cd3 F18 2.574262 1_554
F0 Mn3 1.931943 1_656
F1 Mn0 1.931943 1_555
F2 Mn2 2.115135 1_555
F2 Mn0 2.118259 1_565
F3 Mn1 2.115135 1_655
F3 Mn3 2.118259 1_665
F4 Mn1 1.936045 1_655
F5 Mn3 1.931943 1_565
F6 Mn2 1.936045 1_555
F7 Mn3 1.867518 1_556
F8 Mn2 1.863394 1_555
F9 Mn3 1.867518 1_665
F10 Mn2 1.936045 1_555
F11 Mn2 2.115135 1_555
F11 Mn0 2.118259 1_555
F12 Mn0 1.867518 1_555
F13 Mn0 1.867518 1_565
F14 Mn2 1.863394 1_555
F15 Mn0 1.931943 1_565
F16 Mn1 2.115135 1_556
F16 Mn3 2.118259 1_556
F17 Mn1 1.863394 1_656
F18 Mn1 1.936045 1_556
F19 Mn1 1.863394 1_555
