# generated using pymatgen
data_La(FeP3)4
_symmetry_space_group_name_H-M   'P 1'
_cell_length_a   6.74876961
_cell_length_b   6.74876847
_cell_length_c   6.74876874
_cell_angle_alpha   109.47122451
_cell_angle_beta   109.47122109
_cell_angle_gamma   109.47121059
_symmetry_Int_Tables_number   1
_chemical_formula_structural   La(FeP3)4
_chemical_formula_sum   'La1 Fe4 P12'
_cell_volume   236.62020035
_cell_formula_units_Z   1
loop_
 _symmetry_equiv_pos_site_id
 _symmetry_equiv_pos_as_xyz
  1  'x, y, z'
loop_
 _atom_site_type_symbol
 _atom_site_label
 _atom_site_symmetry_multiplicity
 _atom_site_fract_x
 _atom_site_fract_y
 _atom_site_fract_z
 _atom_site_occupancy
  La  La0  1  0.00000000  -0.00000000  -0.00000000  1
  Fe  Fe0  1  0.50000000  0.50000000  0.50000000  1
  Fe  Fe1  1  0.00000000  -0.00000000  0.50000000  1
  Fe  Fe2  1  0.00000000  0.50000000  -0.00000000  1
  Fe  Fe3  1  0.50000000  -0.00000000  -0.00000000  1
  P  P0  1  0.20264650  0.35412826  0.84851725  1
  P  P1  1  0.64587174  0.15148275  0.79735350  1
  P  P2  1  0.50561301  0.35412826  0.15148275  1
  P  P3  1  0.35412826  0.15148275  0.50561301  1
  P  P4  1  0.64587174  0.84851725  0.49438699  1
  P  P5  1  0.35412826  0.84851725  0.20264650  1
  P  P6  1  0.15148275  0.50561301  0.35412826  1
  P  P7  1  0.84851725  0.49438699  0.64587174  1
  P  P8  1  0.79735350  0.64587174  0.15148275  1
  P  P9  1  0.84851725  0.20264650  0.35412826  1
  P  P10  1  0.15148275  0.79735350  0.64587174  1
  P  P11  1  0.49438699  0.64587174  0.84851725  1
loop_
_geom_bond_atom_site_label_1
_geom_bond_atom_site_label_2
_geom_bond_distance
_geom_bond_site_symmetry_2
La0 P9 3.001536 1_455
La0 P10 3.001536 1_544
La0 P5 3.001537 1_545
La0 P1 3.001537 1_454
La0 P0 3.001537 1_554
La0 P8 3.001537 1_445
La0 P6 3.001544 1_555
La0 P7 3.001544 1_444
La0 P4 3.001545 1_444
La0 P3 3.001545 1_555
La0 P2 3.001545 1_555
La0 P11 3.001545 1_444
Fe0 P2 2.245746 1_555
Fe0 P11 2.245746 1_555
Fe0 P4 2.245747 1_555
Fe0 P3 2.245747 1_555
Fe0 P6 2.245747 1_555
Fe0 P7 2.245747 1_555
Fe1 P4 2.245733 1_445
Fe1 P3 2.245733 1_555
Fe1 P8 2.245739 1_445
Fe1 P0 2.245739 1_555
Fe1 P9 2.245746 1_455
Fe1 P10 2.245746 1_545
Fe2 P7 2.245733 1_454
Fe2 P6 2.245733 1_555
Fe2 P1 2.245739 1_454
Fe2 P5 2.245739 1_555
Fe2 P0 2.245746 1_554
Fe2 P8 2.245746 1_455
Fe3 P2 2.245733 1_555
Fe3 P11 2.245733 1_544
Fe3 P10 2.245739 1_544
Fe3 P9 2.245739 1_555
Fe3 P5 2.245746 1_545
Fe3 P1 2.245746 1_554
P0 P11 2.273489 1_555
P0 P2 2.360956 1_556
P1 P3 2.273489 1_555
P1 P4 2.360955 1_545
P2 P8 2.273489 1_555
P3 P5 2.360955 1_545
P4 P5 2.273489 1_555
P6 P9 2.360956 1_455
P7 P9 2.273489 1_555
P10 P6 2.273489 1_555
P10 P7 2.360956 1_455
P11 P8 2.360956 1_556
