# generated using pymatgen
data_YbInAu
_symmetry_space_group_name_H-M   'P 1'
_cell_length_a   7.59009614
_cell_length_b   7.59009614
_cell_length_c   3.96092533
_cell_angle_alpha   90.00000000
_cell_angle_beta   90.00000000
_cell_angle_gamma   119.99999707
_symmetry_Int_Tables_number   1
_chemical_formula_structural   YbInAu
_chemical_formula_sum   'Yb3 In3 Au3'
_cell_volume   197.61588615
_cell_formula_units_Z   3
loop_
 _symmetry_equiv_pos_site_id
 _symmetry_equiv_pos_as_xyz
  1  'x, y, z'
loop_
 _atom_site_type_symbol
 _atom_site_label
 _atom_site_symmetry_multiplicity
 _atom_site_fract_x
 _atom_site_fract_y
 _atom_site_fract_z
 _atom_site_occupancy
  Yb  Yb0  1  1.00000000  0.59575655  0.50000000  1
  Yb  Yb1  1  0.59575655  1.00000000  0.50000000  1
  Yb  Yb2  1  0.40424345  0.40424345  0.50000000  1
  In  In0  1  1.00000000  0.26132158  0.00000000  1
  In  In1  1  0.26132158  1.00000000  0.00000000  1
  In  In2  1  0.73867842  0.73867842  0.00000000  1
  Au  Au0  1  0.00000000  0.00000000  0.50000000  1
  Au  Au1  1  0.66666700  0.33333300  0.00000000  1
  Au  Au2  1  0.33333300  0.66666700  0.00000000  1
loop_
_geom_bond_atom_site_label_1
_geom_bond_atom_site_label_2
_geom_bond_distance
_geom_bond_site_symmetry_2
In0 Yb0 3.219577 1_555
In0 Yb0 3.219577 1_554
In0 Yb2 3.344359 1_654
In0 Yb2 3.344359 1_655
In0 Yb1 3.344359 1_545
In0 Yb1 3.344359 1_544
In0 In1 3.435446 1_645
In0 In2 3.435447 1_545
In1 Yb1 3.219577 1_555
In1 Yb1 3.219577 1_554
In1 Yb2 3.344359 1_564
In1 Yb2 3.344359 1_565
In1 Yb0 3.344359 1_455
In1 Yb0 3.344359 1_454
In1 In2 3.435447 1_455
In2 Yb2 3.219577 1_555
In2 Yb2 3.219577 1_554
In2 Yb0 3.344359 1_554
In2 Yb1 3.344359 1_554
In2 Yb1 3.344359 1_555
In2 Yb0 3.344359 1_555
Au0 In1 2.802915 1_545
Au0 In1 2.802915 1_546
Au0 In0 2.802915 1_455
Au0 In0 2.802915 1_456
Au0 In2 2.802915 1_446
Au0 In2 2.802915 1_445
Au0 Yb1 3.068247 1_445
Au0 Yb0 3.068247 1_445
Au0 Yb2 3.068247 1_555
Au1 In0 2.842998 1_555
Au1 In1 2.843003 1_545
Au1 In2 2.843006 1_555
Au1 Yb1 3.041587 1_544
Au1 Yb1 3.041587 1_545
Au1 Yb0 3.041589 1_555
Au1 Yb0 3.041589 1_554
Au1 Yb2 3.041593 1_555
Au1 Yb2 3.041593 1_554
Au2 In1 2.842998 1_555
Au2 In0 2.843003 1_455
Au2 In2 2.843006 1_555
Au2 Yb0 3.041587 1_455
Au2 Yb0 3.041587 1_454
Au2 Yb1 3.041589 1_555
Au2 Yb1 3.041589 1_554
Au2 Yb2 3.041593 1_555
Au2 Yb2 3.041593 1_554
