# generated using pymatgen
data_Ti3Pd5
_symmetry_space_group_name_H-M   'P 1'
_cell_length_a   3.27980186
_cell_length_b   3.27980186
_cell_length_c   11.45500814
_cell_angle_alpha   90.00000000
_cell_angle_beta   90.00000000
_cell_angle_gamma   90.00000000
_symmetry_Int_Tables_number   1
_chemical_formula_structural   Ti3Pd5
_chemical_formula_sum   'Ti3 Pd5'
_cell_volume   123.22267082
_cell_formula_units_Z   1
loop_
 _symmetry_equiv_pos_site_id
 _symmetry_equiv_pos_as_xyz
  1  'x, y, z'
loop_
 _atom_site_type_symbol
 _atom_site_label
 _atom_site_symmetry_multiplicity
 _atom_site_fract_x
 _atom_site_fract_y
 _atom_site_fract_z
 _atom_site_occupancy
  Ti  Ti0  1  0.50000000  0.50000000  0.13784446  1
  Ti  Ti1  1  0.50000000  0.50000000  0.86222945  1
  Ti  Ti2  1  0.00000000  -0.00000000  0.49999627  1
  Pd  Pd0  1  0.00000000  -0.00000000  0.24233376  1
  Pd  Pd1  1  0.50000000  0.50000000  0.61960923  1
  Pd  Pd2  1  0.50000000  0.50000000  0.38030966  1
  Pd  Pd3  1  -0.00000000  -0.00000000  0.75771973  1
  Pd  Pd4  1  0.00000000  -0.00000000  -0.00004256  1
loop_
_geom_bond_atom_site_label_1
_geom_bond_atom_site_label_2
_geom_bond_distance
_geom_bond_site_symmetry_2
Pd0 Ti0 2.609824 1_455
Pd0 Ti0 2.609824 1_555
Pd0 Ti0 2.609824 1_445
Pd0 Ti0 2.609824 1_545
Pd0 Pd4 2.776423 1_555
Pd0 Pd2 2.806524 1_455
Pd0 Pd2 2.806524 1_555
Pd0 Pd2 2.806524 1_445
Pd0 Pd2 2.806524 1_545
Pd0 Ti2 2.951526 1_555
Pd1 Ti2 2.693679 1_565
Pd1 Ti2 2.693679 1_655
Pd1 Ti2 2.693679 1_665
Pd1 Ti2 2.693679 1_555
Pd1 Pd2 2.741179 1_555
Pd1 Ti1 2.779217 1_555
Pd1 Pd3 2.807393 1_565
Pd1 Pd3 2.807393 1_655
Pd1 Pd3 2.807393 1_665
Pd1 Pd3 2.807393 1_555
Pd2 Ti2 2.694109 1_555
Pd2 Ti2 2.694109 1_655
Pd2 Ti2 2.694109 1_565
Pd2 Ti2 2.694109 1_665
Pd2 Ti0 2.777441 1_555
Pd3 Ti1 2.609931 1_455
Pd3 Ti1 2.609931 1_545
Pd3 Ti1 2.609931 1_445
Pd3 Ti1 2.609931 1_555
Pd3 Pd4 2.774835 1_556
Pd3 Ti2 2.952224 1_555
Pd4 Ti1 2.804926 1_454
Pd4 Ti1 2.804926 1_554
Pd4 Ti1 2.804926 1_444
Pd4 Ti1 2.804926 1_544
Pd4 Ti0 2.805951 1_445
Pd4 Ti0 2.805951 1_455
Pd4 Ti0 2.805951 1_555
Pd4 Ti0 2.805951 1_545
