# generated using pymatgen
data_PH7CN2O5
_symmetry_space_group_name_H-M   'P 1'
_cell_length_a   7.63273800
_cell_length_b   9.02345400
_cell_length_c   17.74263200
_cell_angle_alpha   90.00000000
_cell_angle_beta   90.00000000
_cell_angle_gamma   90.00000000
_symmetry_Int_Tables_number   1
_chemical_formula_structural   PH7CN2O5
_chemical_formula_sum   'P8 H56 C8 N16 O40'
_cell_volume   1222.00000808
_cell_formula_units_Z   8
loop_
 _symmetry_equiv_pos_site_id
 _symmetry_equiv_pos_as_xyz
  1  'x, y, z'
loop_
 _atom_site_type_symbol
 _atom_site_label
 _atom_site_symmetry_multiplicity
 _atom_site_fract_x
 _atom_site_fract_y
 _atom_site_fract_z
 _atom_site_occupancy
  P  P0  1  0.27929600  0.30828200  0.31171100  1
  P  P1  1  0.77929600  0.19171800  0.68828900  1
  P  P2  1  0.72070400  0.80828200  0.18828900  1
  P  P3  1  0.22070400  0.69171800  0.81171100  1
  P  P4  1  0.72070400  0.69171800  0.68828900  1
  P  P5  1  0.22070400  0.80828200  0.31171100  1
  P  P6  1  0.27929600  0.19171800  0.81171100  1
  P  P7  1  0.77929600  0.30828200  0.18828900  1
  H  H0  1  0.01134600  0.39241300  0.29397100  1
  H  H1  1  0.51134600  0.10758700  0.70602900  1
  H  H2  1  0.98865400  0.89241300  0.20602900  1
  H  H3  1  0.48865400  0.60758700  0.79397100  1
  H  H4  1  0.98865400  0.60758700  0.70602900  1
  H  H5  1  0.48865400  0.89241300  0.29397100  1
  H  H6  1  0.01134600  0.10758700  0.79397100  1
  H  H7  1  0.51134600  0.39241300  0.20602900  1
  H  H8  1  0.80740900  0.41223600  0.54979900  1
  H  H9  1  0.30740900  0.08776400  0.45020100  1
  H  H10  1  0.19259100  0.91223600  0.95020100  1
  H  H11  1  0.69259100  0.58776400  0.04979900  1
  H  H12  1  0.19259100  0.58776400  0.45020100  1
  H  H13  1  0.69259100  0.91223600  0.54979900  1
  H  H14  1  0.80740900  0.08776400  0.04979900  1
  H  H15  1  0.30740900  0.41223600  0.95020100  1
  H  H16  1  0.82256600  0.59281600  0.51210100  1
  H  H17  1  0.32256600  0.90718400  0.48789900  1
  H  H18  1  0.17743400  0.09281600  0.98789900  1
  H  H19  1  0.67743400  0.40718400  0.01210100  1
  H  H20  1  0.17743400  0.40718400  0.48789900  1
  H  H21  1  0.67743400  0.09281600  0.51210100  1
  H  H22  1  0.82256600  0.90718400  0.01210100  1
  H  H23  1  0.32256600  0.59281600  0.98789900  1
  H  H24  1  0.55905400  0.50707800  0.35151800  1
  H  H25  1  0.05905400  0.99292200  0.64848200  1
  H  H26  1  0.44094600  0.00707800  0.14848200  1
  H  H27  1  0.94094600  0.49292200  0.85151800  1
  H  H28  1  0.44094600  0.49292200  0.64848200  1
  H  H29  1  0.94094600  0.00707800  0.35151800  1
  H  H30  1  0.55905400  0.99292200  0.85151800  1
  H  H31  1  0.05905400  0.50707800  0.14848200  1
  H  H32  1  0.67648300  0.64715900  0.39786600  1
  H  H33  1  0.17648300  0.85284100  0.60213400  1
  H  H34  1  0.32351700  0.14715900  0.10213400  1
  H  H35  1  0.82351700  0.35284100  0.89786600  1
  H  H36  1  0.32351700  0.35284100  0.60213400  1
  H  H37  1  0.82351700  0.14715900  0.39786600  1
  H  H38  1  0.67648300  0.85284100  0.89786600  1
  H  H39  1  0.17648300  0.64715900  0.10213400  1
  H  H40  1  0.19815300  0.09152300  0.26135500  1
  H  H41  1  0.69815300  0.40847700  0.73864500  1
  H  H42  1  0.80184700  0.59152300  0.23864500  1
  H  H43  1  0.30184700  0.90847700  0.76135500  1
  H  H44  1  0.80184700  0.90847700  0.73864500  1
  H  H45  1  0.30184700  0.59152300  0.26135500  1
  H  H46  1  0.19815300  0.40847700  0.76135500  1
  H  H47  1  0.69815300  0.09152300  0.23864500  1
  H  H48  1  0.51115200  0.28301900  0.41187400  1
  H  H49  1  0.01115200  0.21698100  0.58812600  1
  H  H50  1  0.48884800  0.78301900  0.08812600  1
  H  H51  1  0.98884800  0.71698100  0.91187400  1
  H  H52  1  0.48884800  0.71698100  0.58812600  1
  H  H53  1  0.98884800  0.78301900  0.41187400  1
  H  H54  1  0.51115200  0.21698100  0.91187400  1
  H  H55  1  0.01115200  0.28301900  0.08812600  1
  C  C0  1  0.68175600  0.44468400  0.44953800  1
  C  C1  1  0.18175600  0.05531600  0.55046200  1
  C  C2  1  0.31824400  0.94468400  0.05046200  1
  C  C3  1  0.81824400  0.55531600  0.94953800  1
  C  C4  1  0.31824400  0.55531600  0.55046200  1
  C  C5  1  0.81824400  0.94468400  0.44953800  1
  C  C6  1  0.68175600  0.05531600  0.94953800  1
  C  C7  1  0.18175600  0.44468400  0.05046200  1
  N  N0  1  0.78408800  0.48550900  0.50664600  1
  N  N1  1  0.28408800  0.01449100  0.49335400  1
  N  N2  1  0.21591200  0.98550900  0.99335400  1
  N  N3  1  0.71591200  0.51449100  0.00664600  1
  N  N4  1  0.21591200  0.51449100  0.49335400  1
  N  N5  1  0.71591200  0.98550900  0.50664600  1
  N  N6  1  0.78408800  0.01449100  0.00664600  1
  N  N7  1  0.28408800  0.48550900  0.99335400  1
  N  N8  1  0.63136100  0.54114200  0.39698000  1
  N  N9  1  0.13136100  0.95885800  0.60302000  1
  N  N10  1  0.36863900  0.04114200  0.10302000  1
  N  N11  1  0.86863900  0.45885800  0.89698000  1
  N  N12  1  0.36863900  0.45885800  0.60302000  1
  N  N13  1  0.86863900  0.04114200  0.39698000  1
  N  N14  1  0.63136100  0.95885800  0.89698000  1
  N  N15  1  0.13136100  0.54114200  0.10302000  1
  O  O0  1  0.09157600  0.36357900  0.33737300  1
  O  O1  1  0.59157600  0.13642100  0.66262700  1
  O  O2  1  0.90842400  0.86357900  0.16262700  1
  O  O3  1  0.40842400  0.63642100  0.83737300  1
  O  O4  1  0.90842400  0.63642100  0.66262700  1
  O  O5  1  0.40842400  0.86357900  0.33737300  1
  O  O6  1  0.09157600  0.13642100  0.83737300  1
  O  O7  1  0.59157600  0.36357900  0.16262700  1
  O  O8  1  0.38745500  0.43496300  0.27717200  1
  O  O9  1  0.88745500  0.06503700  0.72282800  1
  O  O10  1  0.61254500  0.93496300  0.22282800  1
  O  O11  1  0.11254500  0.56503700  0.77717200  1
  O  O12  1  0.61254500  0.56503700  0.72282800  1
  O  O13  1  0.11254500  0.93496300  0.27717200  1
  O  O14  1  0.38745500  0.06503700  0.77717200  1
  O  O15  1  0.88745500  0.43496300  0.22282800  1
  O  O16  1  0.25445800  0.19031000  0.24697400  1
  O  O17  1  0.75445800  0.30969000  0.75302600  1
  O  O18  1  0.74554200  0.69031000  0.25302600  1
  O  O19  1  0.24554200  0.80969000  0.74697400  1
  O  O20  1  0.74554200  0.80969000  0.75302600  1
  O  O21  1  0.24554200  0.69031000  0.24697400  1
  O  O22  1  0.25445800  0.30969000  0.74697400  1
  O  O23  1  0.75445800  0.19031000  0.25302600  1
  O  O24  1  0.36321800  0.24079300  0.38213200  1
  O  O25  1  0.86321800  0.25920700  0.61786800  1
  O  O26  1  0.63678200  0.74079300  0.11786800  1
  O  O27  1  0.13678200  0.75920700  0.88213200  1
  O  O28  1  0.63678200  0.75920700  0.61786800  1
  O  O29  1  0.13678200  0.74079300  0.38213200  1
  O  O30  1  0.36321800  0.25920700  0.88213200  1
  O  O31  1  0.86321800  0.24079300  0.11786800  1
  O  O32  1  0.63242200  0.30566300  0.44640000  1
  O  O33  1  0.13242200  0.19433700  0.55360000  1
  O  O34  1  0.36757800  0.80566300  0.05360000  1
  O  O35  1  0.86757800  0.69433700  0.94640000  1
  O  O36  1  0.36757800  0.69433700  0.55360000  1
  O  O37  1  0.86757800  0.80566300  0.44640000  1
  O  O38  1  0.63242200  0.19433700  0.94640000  1
  O  O39  1  0.13242200  0.30566300  0.05360000  1
loop_
_geom_bond_atom_site_label_1
_geom_bond_atom_site_label_2
_geom_bond_distance
_geom_bond_site_symmetry_2
H0 O0 1.017693 1_555
H0 O15 1.623249 1_455
H1 O1 1.017693 1_555
H1 O14 1.623249 1_555
H2 O2 1.017693 1_555
H2 O13 1.623249 1_655
H3 O3 1.017693 1_555
H3 O12 1.623249 1_555
H4 O4 1.017693 1_555
H4 O11 1.623249 1_655
H5 O5 1.017693 1_555
H5 O10 1.623249 1_555
H6 O6 1.017693 1_555
H6 O9 1.623249 1_455
H7 O7 1.017693 1_555
H7 O8 1.623249 1_555
H8 N0 1.027159 1_555
H9 N1 1.027159 1_555
H10 N2 1.027159 1_555
H11 N3 1.027159 1_555
H12 N4 1.027159 1_555
H13 N5 1.027159 1_555
H14 N6 1.027159 1_555
H15 N7 1.027159 1_555
H16 N0 1.016459 1_555
H17 N1 1.016459 1_565
H18 N2 1.016459 1_545
H19 N3 1.016459 1_555
H20 N4 1.016459 1_555
H21 N5 1.016459 1_545
H22 N6 1.016459 1_565
H23 N7 1.016459 1_555
H24 N8 1.024550 1_555
H25 N9 1.024550 1_555
H26 N10 1.024550 1_555
H27 N11 1.024550 1_555
H28 N12 1.024550 1_555
H29 N13 1.024550 1_555
H30 N14 1.024550 1_555
H31 N15 1.024550 1_555
H32 N8 1.016868 1_555
H33 N9 1.016868 1_555
H34 N10 1.016868 1_555
H35 N11 1.016868 1_555
H36 N12 1.016868 1_555
H37 N13 1.016868 1_555
H38 N14 1.016868 1_555
H39 N15 1.016868 1_555
H40 O16 1.021956 1_555
H40 O13 1.581605 1_545
H41 O17 1.021956 1_555
H41 O12 1.581605 1_555
H42 O18 1.021956 1_555
H42 O15 1.581605 1_555
H43 O19 1.021956 1_555
H43 O14 1.581605 1_565
H44 O20 1.021956 1_555
H44 O9 1.581605 1_565
H45 O21 1.021956 1_555
H45 O8 1.581605 1_555
H46 O22 1.021956 1_555
H46 O11 1.581605 1_555
H47 O23 1.021956 1_555
H47 O10 1.581605 1_545
H48 O32 1.128620 1_555
H48 O24 1.303307 1_555
H49 O33 1.128620 1_555
H49 O25 1.303307 1_455
H50 O34 1.128620 1_555
H50 O26 1.303307 1_555
H51 O35 1.128620 1_555
H51 O27 1.303307 1_655
H52 O36 1.128620 1_555
H52 O28 1.303307 1_555
H53 O37 1.128620 1_555
H53 O29 1.303307 1_655
H54 O38 1.128620 1_555
H54 O30 1.303307 1_555
H55 O39 1.128620 1_555
H55 O31 1.303307 1_455
C0 O32 1.310930 1_555
C0 N0 1.331334 1_555
C0 N8 1.332334 1_555
C1 O33 1.310930 1_555
C1 N1 1.331334 1_555
C1 N9 1.332334 1_545
C2 O34 1.310930 1_555
C2 N2 1.331334 1_554
C2 N10 1.332334 1_565
C3 O35 1.310930 1_555
C3 N3 1.331334 1_556
C3 N11 1.332334 1_555
C4 O36 1.310930 1_555
C4 N4 1.331334 1_555
C4 N12 1.332334 1_555
C5 O37 1.310930 1_555
C5 N5 1.331334 1_555
C5 N13 1.332334 1_565
C6 O38 1.310930 1_555
C6 N6 1.331334 1_556
C6 N14 1.332334 1_545
C7 O39 1.310930 1_555
C7 N7 1.331334 1_554
C7 N15 1.332334 1_555
O0 P0 1.584060 1_555
O1 P1 1.584060 1_555
O2 P2 1.584060 1_555
O3 P3 1.584060 1_555
O4 P4 1.584060 1_555
O5 P5 1.584060 1_555
O6 P6 1.584060 1_555
O7 P7 1.584060 1_555
O8 P0 1.537449 1_555
O9 P1 1.537449 1_555
O10 P2 1.537449 1_555
O11 P3 1.537449 1_555
O12 P4 1.537449 1_555
O13 P5 1.537449 1_555
O14 P6 1.537449 1_555
O15 P7 1.537449 1_555
O16 P0 1.577475 1_555
O17 P1 1.577475 1_555
O18 P2 1.577475 1_555
O19 P3 1.577475 1_555
O20 P4 1.577475 1_555
O21 P5 1.577475 1_555
O22 P6 1.577475 1_555
O23 P7 1.577475 1_555
O24 P0 1.530460 1_555
O25 P1 1.530460 1_555
O26 P2 1.530460 1_555
O27 P3 1.530460 1_555
O28 P4 1.530460 1_555
O29 P5 1.530460 1_555
O30 P6 1.530460 1_555
O31 P7 1.530460 1_555
