# generated using pymatgen
data_BaCl2
_symmetry_space_group_name_H-M   'P 1'
_cell_length_a   8.14862161
_cell_length_b   8.14862034
_cell_length_c   4.67518941
_cell_angle_alpha   90.00000000
_cell_angle_beta   90.00000000
_cell_angle_gamma   119.99999671
_symmetry_Int_Tables_number   1
_chemical_formula_structural   BaCl2
_chemical_formula_sum   'Ba3 Cl6'
_cell_volume   268.84260278
_cell_formula_units_Z   3
loop_
 _symmetry_equiv_pos_site_id
 _symmetry_equiv_pos_as_xyz
  1  'x, y, z'
loop_
 _atom_site_type_symbol
 _atom_site_label
 _atom_site_symmetry_multiplicity
 _atom_site_fract_x
 _atom_site_fract_y
 _atom_site_fract_z
 _atom_site_occupancy
  Ba  Ba0  1  -0.00000000  -0.00000000  0.50000000  1
  Ba  Ba1  1  0.66666700  0.33333300  -0.00000000  1
  Ba  Ba2  1  0.33333300  0.66666700  -0.00000000  1
  Cl  Cl0  1  0.00000000  0.25634290  -0.00000000  1
  Cl  Cl1  1  0.58988082  -0.00000000  0.50000000  1
  Cl  Cl2  1  0.41012018  0.41012018  0.50000000  1
  Cl  Cl3  1  0.25634290  -0.00000000  0.00000000  1
  Cl  Cl4  1  0.00000000  0.58988082  0.50000000  1
  Cl  Cl5  1  0.74365710  0.74365710  0.00000000  1
loop_
_geom_bond_atom_site_label_1
_geom_bond_atom_site_label_2
_geom_bond_distance
_geom_bond_site_symmetry_2
Ba0 Cl0 3.134901 1_555
Ba0 Cl0 3.134901 1_556
Ba0 Cl5 3.134901 1_446
Ba0 Cl5 3.134901 1_445
Ba0 Cl3 3.134901 1_556
Ba0 Cl3 3.134901 1_555
Ba0 Cl4 3.341905 1_545
Ba0 Cl1 3.341906 1_455
Ba0 Cl2 3.341914 1_555
Ba1 Cl0 3.078213 1_655
Ba1 Cl3 3.078219 1_555
Ba1 Cl5 3.078221 1_555
Ba1 Cl1 3.396187 1_554
Ba1 Cl1 3.396187 1_555
Ba1 Cl4 3.396189 1_655
Ba1 Cl4 3.396189 1_654
Ba1 Cl2 3.396191 1_555
Ba1 Cl2 3.396191 1_554
Ba2 Cl3 3.078213 1_565
Ba2 Cl0 3.078219 1_555
Ba2 Cl5 3.078222 1_555
Ba2 Cl4 3.396187 1_554
Ba2 Cl4 3.396187 1_555
Ba2 Cl1 3.396188 1_564
Ba2 Cl1 3.396188 1_565
Ba2 Cl2 3.396191 1_554
Ba2 Cl2 3.396191 1_555
