# generated using pymatgen
data_KMgV3Cu4O13
_symmetry_space_group_name_H-M   'P 1'
_cell_length_a   6.08401000
_cell_length_b   8.37606700
_cell_length_c   10.97292210
_cell_angle_alpha   81.70787479
_cell_angle_beta   90.00000000
_cell_angle_gamma   90.00000000
_symmetry_Int_Tables_number   1
_chemical_formula_structural   KMgV3Cu4O13
_chemical_formula_sum   'K2 Mg2 V6 Cu8 O26'
_cell_volume   553.33504731
_cell_formula_units_Z   2
loop_
 _symmetry_equiv_pos_site_id
 _symmetry_equiv_pos_as_xyz
  1  'x, y, z'
loop_
 _atom_site_type_symbol
 _atom_site_label
 _atom_site_symmetry_multiplicity
 _atom_site_fract_x
 _atom_site_fract_y
 _atom_site_fract_z
 _atom_site_occupancy
  K  K0  1  0.75000000  0.01845800  0.09985000  1
  K  K1  1  0.25000000  0.98154200  0.90015000  1
  Mg  Mg0  1  0.25000000  0.69181600  0.14467900  1
  Mg  Mg1  1  0.75000000  0.30818400  0.85532100  1
  V  V0  1  0.75000000  0.63343500  0.00323500  1
  V  V1  1  0.25000000  0.32358700  0.62979200  1
  V  V2  1  0.25000000  0.36656500  0.99676500  1
  V  V3  1  0.75000000  0.96895300  0.70935700  1
  V  V4  1  0.75000000  0.67641300  0.37020800  1
  V  V5  1  0.25000000  0.03104700  0.29064300  1
  Cu  Cu0  1  0.50130200  0.39256500  0.26896400  1
  Cu  Cu1  1  0.00130200  0.60743500  0.73103600  1
  Cu  Cu2  1  0.25000000  0.90149100  0.60468300  1
  Cu  Cu3  1  0.75000000  0.09850900  0.39531700  1
  Cu  Cu4  1  0.49869800  0.60743500  0.73103600  1
  Cu  Cu5  1  0.75000000  0.35568200  0.55721900  1
  Cu  Cu6  1  0.25000000  0.64431800  0.44278100  1
  Cu  Cu7  1  0.99869800  0.39256500  0.26896400  1
  O  O0  1  0.25000000  0.88459100  0.42544500  1
  O  O1  1  0.75000000  0.11540900  0.57455500  1
  O  O2  1  0.25000000  0.65884000  0.62153000  1
  O  O3  1  0.75000000  0.34116000  0.37847000  1
  O  O4  1  0.25000000  0.40938400  0.47647800  1
  O  O5  1  0.75000000  0.59061600  0.52352200  1
  O  O6  1  0.75000000  0.07143000  0.83196200  1
  O  O7  1  0.25000000  0.92857000  0.16803800  1
  O  O8  1  0.48355900  0.15848400  0.27893400  1
  O  O9  1  0.98355900  0.84151600  0.72106600  1
  O  O10  1  0.51644100  0.84151600  0.72106600  1
  O  O11  1  0.01644100  0.15848400  0.27893400  1
  O  O12  1  0.75000000  0.87962800  0.36624800  1
  O  O13  1  0.25000000  0.12037200  0.63375200  1
  O  O14  1  0.75000000  0.56362800  0.84228200  1
  O  O15  1  0.25000000  0.43637200  0.15771800  1
  O  O16  1  0.48034300  0.25669300  0.97109300  1
  O  O17  1  0.98034300  0.74330700  0.02890700  1
  O  O18  1  0.25000000  0.53437300  0.89016300  1
  O  O19  1  0.75000000  0.46562700  0.10983700  1
  O  O20  1  0.99682400  0.37858700  0.70156000  1
  O  O21  1  0.49682400  0.62141300  0.29844000  1
  O  O22  1  0.00317600  0.62141300  0.29844000  1
  O  O23  1  0.50317600  0.37858700  0.70156000  1
  O  O24  1  0.01965700  0.25669300  0.97109300  1
  O  O25  1  0.51965700  0.74330700  0.02890700  1
loop_
_geom_bond_atom_site_label_1
_geom_bond_atom_site_label_2
_geom_bond_distance
_geom_bond_site_symmetry_2
K0 O24 2.802925 1_654
K0 O16 2.802925 1_554
K0 O17 2.898100 1_545
K0 O25 2.898100 1_545
K0 O6 2.908850 1_554
K0 O11 2.920559 1_655
K0 O8 2.920559 1_555
K0 O12 2.986075 1_545
K0 O7 3.196562 1_645
K0 O7 3.196562 1_545
K1 O25 2.802925 1_556
K1 O17 2.802925 1_456
K1 O16 2.898100 1_565
K1 O24 2.898100 1_565
K1 O7 2.908850 1_556
K1 O10 2.920559 1_555
K1 O9 2.920559 1_455
K1 O13 2.986075 1_565
K1 O6 3.196562 1_565
K1 O6 3.196562 1_465
Mg0 O7 2.035895 1_555
Mg0 O25 2.081668 1_555
Mg0 O17 2.081668 1_455
Mg0 O15 2.123706 1_555
Mg0 O21 2.272108 1_555
Mg0 O22 2.272108 1_555
Mg1 O6 2.035895 1_555
Mg1 O24 2.081668 1_655
Mg1 O16 2.081668 1_555
Mg1 O14 2.123706 1_555
Mg1 O20 2.272108 1_555
Mg1 O23 2.272108 1_555
Cu0 O3 1.941499 1_555
Cu0 O8 1.950900 1_555
Cu0 O15 1.957842 1_555
Cu0 O21 1.989593 1_555
Cu0 O19 2.324765 1_555
Cu1 O2 1.941499 1_555
Cu1 O9 1.950900 1_455
Cu1 O14 1.957842 1_455
Cu1 O20 1.989593 1_455
Cu1 O18 2.324765 1_555
Cu2 O13 1.905685 1_565
Cu2 O0 1.992111 1_555
Cu2 O2 2.014125 1_555
Cu2 O10 2.079889 1_555
Cu2 O9 2.079889 1_455
Cu3 O12 1.905685 1_545
Cu3 O1 1.992111 1_555
Cu3 O3 2.014125 1_555
Cu3 O11 2.079889 1_655
Cu3 O8 2.079889 1_555
Cu4 O2 1.941499 1_555
Cu4 O10 1.950900 1_555
Cu4 O14 1.957842 1_555
Cu4 O23 1.989593 1_555
Cu4 O18 2.324765 1_555
Cu5 O5 1.949147 1_555
Cu5 O3 1.982599 1_555
Cu5 O1 1.994013 1_555
Cu5 O20 2.210894 1_555
Cu5 O23 2.210894 1_555
Cu6 O4 1.949147 1_555
Cu6 O2 1.982599 1_555
Cu6 O0 1.994013 1_555
Cu6 O21 2.210894 1_555
Cu6 O22 2.210894 1_555
Cu7 O3 1.941499 1_555
Cu7 O11 1.950900 1_655
Cu7 O15 1.957842 1_655
Cu7 O22 1.989593 1_655
Cu7 O19 2.324765 1_555
O0 V5 1.780286 1_565
O1 V3 1.780286 1_545
O4 V1 1.731436 1_555
O5 V4 1.731436 1_555
O6 V3 1.696992 1_545
O7 V5 1.696992 1_565
O8 V5 1.770736 1_555
O9 V3 1.770736 1_555
O10 V3 1.770736 1_555
O11 V5 1.770736 1_555
O12 V4 1.696421 1_555
O13 V1 1.696421 1_555
O14 V0 1.938799 1_556
O15 V2 1.938799 1_554
O16 V2 1.721923 1_555
O17 V0 1.721923 1_555
O18 V2 1.694011 1_555
O19 V0 1.694011 1_555
O20 V1 1.819241 1_655
O21 V4 1.819241 1_555
O22 V4 1.819241 1_455
O23 V1 1.819241 1_555
O24 V2 1.721923 1_555
O25 V0 1.721923 1_555
