# generated using pymatgen
data_Y2Si2O7
_symmetry_space_group_name_H-M   'P 1'
_cell_length_a   8.15455400
_cell_length_b   5.09638400
_cell_length_c   7.42038553
_cell_angle_alpha   71.22331555
_cell_angle_beta   90.00000000
_cell_angle_gamma   90.00000000
_symmetry_Int_Tables_number   1
_chemical_formula_structural   Y2Si2O7
_chemical_formula_sum   'Y4 Si4 O14'
_cell_volume   291.96987859
_cell_formula_units_Z   2
loop_
 _symmetry_equiv_pos_site_id
 _symmetry_equiv_pos_as_xyz
  1  'x, y, z'
loop_
 _atom_site_type_symbol
 _atom_site_label
 _atom_site_symmetry_multiplicity
 _atom_site_fract_x
 _atom_site_fract_y
 _atom_site_fract_z
 _atom_site_occupancy
  Y  Y0  1  0.50779700  0.73074400  0.74828400  1
  Y  Y1  1  0.49220300  0.26925600  0.25171600  1
  Y  Y2  1  0.00779700  0.26925600  0.25171600  1
  Y  Y3  1  0.99220300  0.73074400  0.74828400  1
  Si  Si0  1  0.75000000  0.21396700  0.86705000  1
  Si  Si1  1  0.75000000  0.65395900  0.42686300  1
  Si  Si2  1  0.25000000  0.78603300  0.13295000  1
  Si  Si3  1  0.25000000  0.34604100  0.57313700  1
  O  O0  1  0.58475500  0.28379100  0.96588800  1
  O  O1  1  0.08475500  0.71620900  0.03411200  1
  O  O2  1  0.91912000  0.83158400  0.40732100  1
  O  O3  1  0.25000000  0.50922400  0.33526700  1
  O  O4  1  0.58088000  0.83158400  0.40732100  1
  O  O5  1  0.41524500  0.71620900  0.03411200  1
  O  O6  1  0.41912000  0.16841600  0.59267900  1
  O  O7  1  0.75000000  0.43051900  0.31233100  1
  O  O8  1  0.25000000  0.56948100  0.68766900  1
  O  O9  1  0.75000000  0.92895200  0.81448600  1
  O  O10  1  0.75000000  0.49077600  0.66473300  1
  O  O11  1  0.08088000  0.16841600  0.59267900  1
  O  O12  1  0.91524500  0.28379100  0.96588800  1
  O  O13  1  0.25000000  0.07104800  0.18551400  1
loop_
_geom_bond_atom_site_label_1
_geom_bond_atom_site_label_2
_geom_bond_distance
_geom_bond_site_symmetry_2
O0 Si0 1.627358 1_555
O0 Y1 2.229886 1_556
O0 Y0 2.412860 1_555
O1 Si2 1.627358 1_555
O1 Y3 2.229886 1_454
O1 Y2 2.412860 1_555
O2 Si1 1.630308 1_555
O2 Y2 2.274521 1_665
O2 Y3 2.486668 1_555
O3 Si3 1.691795 1_555
O3 Si2 1.697218 1_555
O3 Y1 2.503795 1_555
O3 Y2 2.503795 1_555
O4 Si1 1.630308 1_555
O4 Y1 2.274521 1_565
O4 Y0 2.486668 1_555
O5 Si2 1.627358 1_555
O5 Y0 2.229886 1_554
O5 Y1 2.412860 1_555
O6 Si3 1.630308 1_555
O6 Y0 2.274521 1_545
O6 Y1 2.486668 1_555
O7 Si1 1.625429 1_555
O7 Y2 2.352671 1_655
O7 Y1 2.352671 1_555
O8 Si3 1.625429 1_555
O8 Y0 2.352671 1_555
O8 Y3 2.352671 1_455
O9 Si0 1.620726 1_565
O9 Y3 2.341371 1_555
O9 Y0 2.341371 1_555
O10 Si1 1.691795 1_555
O10 Si0 1.697218 1_555
O10 Y3 2.503795 1_555
O10 Y0 2.503795 1_555
O11 Si3 1.630308 1_555
O11 Y3 2.274521 1_445
O11 Y2 2.486668 1_555
O12 Si0 1.627358 1_555
O12 Y2 2.229886 1_656
O12 Y3 2.412860 1_555
O13 Si2 1.620726 1_545
O13 Y1 2.341371 1_555
O13 Y2 2.341371 1_555
