# generated using pymatgen
data_K2Zn6O7
_symmetry_space_group_name_H-M   'P 1'
_cell_length_a   11.06905200
_cell_length_b   11.06905200
_cell_length_c   3.35673400
_cell_angle_alpha   90.00000000
_cell_angle_beta   90.00000000
_cell_angle_gamma   90.00000000
_symmetry_Int_Tables_number   1
_chemical_formula_structural   K2Zn6O7
_chemical_formula_sum   'K4 Zn12 O14'
_cell_volume   411.28018182
_cell_formula_units_Z   2
loop_
 _symmetry_equiv_pos_site_id
 _symmetry_equiv_pos_as_xyz
  1  'x, y, z'
loop_
 _atom_site_type_symbol
 _atom_site_label
 _atom_site_symmetry_multiplicity
 _atom_site_fract_x
 _atom_site_fract_y
 _atom_site_fract_z
 _atom_site_occupancy
  K  K0  1  0.35551500  0.35551500  0.50926700  1
  K  K1  1  0.85551500  0.14448500  0.00926700  1
  K  K2  1  0.64448500  0.64448500  0.50926700  1
  K  K3  1  0.14448500  0.85551500  0.00926700  1
  Zn  Zn0  1  0.58402500  0.15380900  0.49394500  1
  Zn  Zn1  1  0.08402500  0.34619100  0.99394500  1
  Zn  Zn2  1  0.88091900  0.88091900  0.49115900  1
  Zn  Zn3  1  0.15380900  0.58402500  0.49394500  1
  Zn  Zn4  1  0.61908100  0.38091900  0.99115900  1
  Zn  Zn5  1  0.91597500  0.65380900  0.99394500  1
  Zn  Zn6  1  0.11908100  0.11908100  0.49115900  1
  Zn  Zn7  1  0.34619100  0.08402500  0.99394500  1
  Zn  Zn8  1  0.38091900  0.61908100  0.99115900  1
  Zn  Zn9  1  0.41597500  0.84619100  0.49394500  1
  Zn  Zn10  1  0.65380900  0.91597500  0.99394500  1
  Zn  Zn11  1  0.84619100  0.41597500  0.49394500  1
  O  O0  1  0.99171500  0.31301200  0.49404700  1
  O  O1  1  0.18698800  0.49171500  0.99404700  1
  O  O2  1  0.31301200  0.99171500  0.49404700  1
  O  O3  1  0.81301200  0.50828500  0.99404700  1
  O  O4  1  0.68978600  0.31021400  0.49794400  1
  O  O5  1  0.50000000  0.50000000  0.06419200  1
  O  O6  1  0.18978600  0.18978600  0.99794400  1
  O  O7  1  0.31021400  0.68978600  0.49794400  1
  O  O8  1  0.81021400  0.81021400  0.99794400  1
  O  O9  1  0.00828500  0.68698800  0.49404700  1
  O  O10  1  0.50828500  0.81301200  0.99404700  1
  O  O11  1  0.00000000  0.00000000  0.56419200  1
  O  O12  1  0.68698800  0.00828500  0.49404700  1
  O  O13  1  0.49171500  0.18698800  0.99404700  1
loop_
_geom_bond_atom_site_label_1
_geom_bond_atom_site_label_2
_geom_bond_distance
_geom_bond_site_symmetry_2
K0 O5 2.710651 1_555
K0 O1 2.898405 1_555
K0 O13 2.898405 1_555
K0 O5 2.930082 1_556
K0 O13 2.956981 1_554
K0 O1 2.956981 1_554
K0 O6 3.069411 1_555
K0 O6 3.110700 1_554
K1 O11 2.710651 1_654
K1 O0 2.898405 1_555
K1 O12 2.898405 1_555
K1 O11 2.930082 1_655
K1 O0 2.956981 1_554
K1 O12 2.956981 1_554
K1 O4 3.069411 1_555
K1 O4 3.110700 1_554
K2 O5 2.710651 1_555
K2 O10 2.898405 1_555
K2 O3 2.898405 1_555
K2 O5 2.930082 1_556
K2 O3 2.956981 1_554
K2 O10 2.956981 1_554
K2 O8 3.069411 1_555
K2 O8 3.110700 1_554
K3 O11 2.710651 1_564
K3 O2 2.898405 1_555
K3 O9 2.898405 1_555
K3 O11 2.930082 1_565
K3 O2 2.956981 1_554
K3 O9 2.956981 1_554
K3 O7 3.069411 1_555
K3 O7 3.110700 1_554
O0 Zn11 1.973231 1_555
O0 Zn1 1.998672 1_655
O0 Zn1 1.999247 1_654
O1 Zn1 1.973231 1_555
O1 Zn3 1.998672 1_556
O1 Zn3 1.999247 1_555
O2 Zn9 1.973231 1_555
O2 Zn7 1.998672 1_565
O2 Zn7 1.999247 1_564
O3 Zn5 1.973231 1_555
O3 Zn11 1.998672 1_556
O3 Zn11 1.999247 1_555
O4 Zn4 1.991488 1_555
O4 Zn4 2.029514 1_554
O4 Zn11 2.089953 1_555
O4 Zn0 2.089953 1_555
O5 Zn4 1.880146 1_554
O5 Zn8 1.880146 1_554
O6 Zn6 1.991488 1_556
O6 Zn6 2.029514 1_555
O6 Zn7 2.089953 1_555
O6 Zn1 2.089953 1_555
O7 Zn8 1.991488 1_555
O7 Zn8 2.029514 1_554
O7 Zn9 2.089953 1_555
O7 Zn3 2.089953 1_555
O8 Zn2 1.991488 1_556
O8 Zn2 2.029514 1_555
O8 Zn10 2.089953 1_555
O8 Zn5 2.089953 1_555
O9 Zn3 1.973231 1_555
O9 Zn5 1.998672 1_455
O9 Zn5 1.999247 1_454
O10 Zn10 1.973231 1_555
O10 Zn9 1.998672 1_556
O10 Zn9 1.999247 1_555
O11 Zn6 1.880146 1_555
O11 Zn2 1.880146 1_445
O12 Zn0 1.973231 1_555
O12 Zn10 1.998672 1_545
O12 Zn10 1.999247 1_544
O13 Zn7 1.973231 1_555
O13 Zn0 1.998672 1_556
O13 Zn0 1.999247 1_555
