# generated using pymatgen
data_Eu(BO2)2
_symmetry_space_group_name_H-M   'P 1'
_cell_length_a   4.34210506
_cell_length_b   6.52316503
_cell_length_c   12.05896879
_cell_angle_alpha   90.00000000
_cell_angle_beta   90.00000000
_cell_angle_gamma   90.00000000
_symmetry_Int_Tables_number   1
_chemical_formula_structural   Eu(BO2)2
_chemical_formula_sum   'Eu4 B8 O16'
_cell_volume   341.56146241
_cell_formula_units_Z   4
loop_
 _symmetry_equiv_pos_site_id
 _symmetry_equiv_pos_as_xyz
  1  'x, y, z'
loop_
 _atom_site_type_symbol
 _atom_site_label
 _atom_site_symmetry_multiplicity
 _atom_site_fract_x
 _atom_site_fract_y
 _atom_site_fract_z
 _atom_site_occupancy
  Eu  Eu0  1  0.26327376  0.25000000  0.00000000  1
  Eu  Eu1  1  0.23672624  0.75000000  0.50000000  1
  Eu  Eu2  1  0.73672624  0.75000000  0.00000000  1
  Eu  Eu3  1  0.76327376  0.25000000  0.50000000  1
  B  B0  1  0.82858387  0.12537640  0.19425353  1
  B  B1  1  0.82858387  0.37462360  0.80574647  1
  B  B2  1  0.67141613  0.62537640  0.30574647  1
  B  B3  1  0.67141613  0.87462360  0.69425353  1
  B  B4  1  0.17141613  0.87462360  0.80574647  1
  B  B5  1  0.17141613  0.62537640  0.19425353  1
  B  B6  1  0.32858387  0.37462360  0.69425353  1
  B  B7  1  0.32858387  0.12537640  0.30574647  1
  O  O0  1  0.73306933  0.09424883  0.09094643  1
  O  O1  1  0.73306933  0.40575117  0.90905357  1
  O  O2  1  0.76693067  0.59424883  0.40905357  1
  O  O3  1  0.76693067  0.90575117  0.59094643  1
  O  O4  1  0.26693067  0.90575117  0.90905357  1
  O  O5  1  0.26693067  0.59424883  0.09094643  1
  O  O6  1  0.23306933  0.40575117  0.59094643  1
  O  O7  1  0.23306933  0.09424883  0.40905357  1
  O  O8  1  0.14789167  0.14539665  0.21124213  1
  O  O9  1  0.14789167  0.35460335  0.78875787  1
  O  O10  1  0.35210833  0.64539665  0.28875787  1
  O  O11  1  0.35210833  0.85460335  0.71124213  1
  O  O12  1  0.85210833  0.85460335  0.78875787  1
  O  O13  1  0.85210833  0.64539665  0.21124213  1
  O  O14  1  0.64789167  0.35460335  0.71124213  1
  O  O15  1  0.64789167  0.14539665  0.28875787  1
loop_
_geom_bond_atom_site_label_1
_geom_bond_atom_site_label_2
_geom_bond_distance
_geom_bond_site_symmetry_2
Eu0 O5 2.499146 1_555
Eu0 O4 2.499146 1_544
Eu0 O0 2.529077 1_555
Eu0 O1 2.529077 1_554
Eu0 O8 2.684334 1_555
Eu0 O9 2.684334 1_554
Eu0 O0 2.745027 1_455
Eu0 O1 2.745027 1_454
Eu1 O7 2.499146 1_565
Eu1 O6 2.499146 1_555
Eu1 O3 2.529077 1_455
Eu1 O2 2.529077 1_455
Eu1 O10 2.684334 1_555
Eu1 O11 2.684334 1_555
Eu1 O3 2.745027 1_555
Eu1 O2 2.745027 1_555
Eu2 O0 2.499146 1_565
Eu2 O1 2.499146 1_554
Eu2 O5 2.529077 1_555
Eu2 O4 2.529077 1_554
Eu2 O13 2.684334 1_555
Eu2 O12 2.684334 1_554
Eu2 O4 2.745027 1_654
Eu2 O5 2.745027 1_655
Eu3 O2 2.499146 1_555
Eu3 O3 2.499146 1_545
Eu3 O6 2.529077 1_655
Eu3 O7 2.529077 1_655
Eu3 O15 2.684334 1_555
Eu3 O14 2.684334 1_555
Eu3 O7 2.745027 1_555
Eu3 O6 2.745027 1_555
B0 O0 1.328606 1_555
B0 O15 1.389738 1_555
B0 O8 1.407593 1_655
B1 O1 1.328606 1_555
B1 O14 1.389738 1_555
B1 O9 1.407593 1_655
B2 O2 1.328606 1_555
B2 O13 1.389738 1_555
B2 O10 1.407593 1_555
B3 O3 1.328606 1_555
B3 O12 1.389738 1_555
B3 O11 1.407593 1_555
B4 O4 1.328606 1_555
B4 O11 1.389738 1_555
B4 O12 1.407593 1_455
B5 O5 1.328606 1_555
B5 O10 1.389738 1_555
B5 O13 1.407593 1_455
B6 O6 1.328606 1_555
B6 O9 1.389738 1_555
B6 O14 1.407593 1_555
B7 O7 1.328606 1_555
B7 O8 1.389738 1_555
B7 O15 1.407593 1_555
