# generated using pymatgen
data_SmNiSb3
_symmetry_space_group_name_H-M   'P 1'
_cell_length_a   6.22180732
_cell_length_b   12.58594006
_cell_length_c   18.27256432
_cell_angle_alpha   90.00000000
_cell_angle_beta   90.00000000
_cell_angle_gamma   90.00000000
_symmetry_Int_Tables_number   1
_chemical_formula_structural   SmNiSb3
_chemical_formula_sum   'Sm12 Ni12 Sb36'
_cell_volume   1430.87506624
_cell_formula_units_Z   12
loop_
 _symmetry_equiv_pos_site_id
 _symmetry_equiv_pos_as_xyz
  1  'x, y, z'
loop_
 _atom_site_type_symbol
 _atom_site_label
 _atom_site_symmetry_multiplicity
 _atom_site_fract_x
 _atom_site_fract_y
 _atom_site_fract_z
 _atom_site_occupancy
  Sm  Sm0  1  0.52745090  0.70001102  0.41634105  1
  Sm  Sm1  1  0.94047040  0.30592492  0.75000000  1
  Sm  Sm2  1  0.55952960  0.30592492  0.25000000  1
  Sm  Sm3  1  0.97254910  0.70001102  0.91634105  1
  Sm  Sm4  1  0.02745090  0.29998898  0.41634105  1
  Sm  Sm5  1  0.05952960  0.69407508  0.25000000  1
  Sm  Sm6  1  0.47254910  0.29998898  0.91634105  1
  Sm  Sm7  1  0.47254910  0.29998898  0.58365895  1
  Sm  Sm8  1  0.52745090  0.70001102  0.08365895  1
  Sm  Sm9  1  0.97254910  0.70001102  0.58365895  1
  Sm  Sm10  1  0.02745090  0.29998898  0.08365895  1
  Sm  Sm11  1  0.44047040  0.69407508  0.75000000  1
  Ni  Ni0  1  0.75000000  0.10225101  0.50000000  1
  Ni  Ni1  1  0.67367262  0.90181449  0.67554262  1
  Ni  Ni2  1  0.32632738  0.09818551  0.17554262  1
  Ni  Ni3  1  0.25000000  0.89774899  0.50000000  1
  Ni  Ni4  1  0.82632738  0.90181449  0.32445738  1
  Ni  Ni5  1  0.17367262  0.09818551  0.67554262  1
  Ni  Ni6  1  0.32632738  0.09818551  0.32445738  1
  Ni  Ni7  1  0.82632738  0.90181449  0.17554262  1
  Ni  Ni8  1  0.17367262  0.09818551  0.82445738  1
  Ni  Ni9  1  0.75000000  0.10225101  -0.00000000  1
  Ni  Ni10  1  0.25000000  0.89774899  -0.00000000  1
  Ni  Ni11  1  0.67367262  0.90181449  0.82445738  1
  Sb  Sb0  1  0.95873321  0.97436441  0.58659839  1
  Sb  Sb1  1  0.45873321  0.02563559  0.91340161  1
  Sb  Sb2  1  0.02669836  0.77413768  0.08394086  1
  Sb  Sb3  1  0.97330164  0.22586232  0.91605914  1
  Sb  Sb4  1  0.05405968  0.22157277  0.25000000  1
  Sb  Sb5  1  0.79386299  0.50348284  0.16613443  1
  Sb  Sb6  1  0.75000000  0.49662068  0.50000000  1
  Sb  Sb7  1  0.75000000  0.49662068  -0.00000000  1
  Sb  Sb8  1  0.04126679  0.02563559  0.08659839  1
  Sb  Sb9  1  0.02669836  0.77413768  0.41605914  1
  Sb  Sb10  1  0.29386299  0.49651716  0.33386557  1
  Sb  Sb11  1  0.20613701  0.49651716  0.66613443  1
  Sb  Sb12  1  0.31714424  0.94221637  0.75000000  1
  Sb  Sb13  1  0.47330164  0.77413768  0.58394086  1
  Sb  Sb14  1  0.18285576  0.94221637  0.25000000  1
  Sb  Sb15  1  0.68285576  0.05778363  0.25000000  1
  Sb  Sb16  1  0.52669836  0.22586232  0.41605914  1
  Sb  Sb17  1  0.44594032  0.22157277  0.75000000  1
  Sb  Sb18  1  0.70613701  0.50348284  0.66613443  1
  Sb  Sb19  1  0.54126679  0.97436441  0.08659839  1
  Sb  Sb20  1  0.70613701  0.50348284  0.83386557  1
  Sb  Sb21  1  0.94594032  0.77842723  0.75000000  1
  Sb  Sb22  1  0.25000000  0.50337932  0.50000000  1
  Sb  Sb23  1  0.25000000  0.50337932  -0.00000000  1
  Sb  Sb24  1  0.47330164  0.77413768  0.91605914  1
  Sb  Sb25  1  0.29386299  0.49651716  0.16613443  1
  Sb  Sb26  1  0.20613701  0.49651716  0.83386557  1
  Sb  Sb27  1  0.45873321  0.02563559  0.58659839  1
  Sb  Sb28  1  0.04126679  0.02563559  0.41340161  1
  Sb  Sb29  1  0.52669836  0.22586232  0.08394086  1
  Sb  Sb30  1  0.79386299  0.50348284  0.33386557  1
  Sb  Sb31  1  0.81714424  0.05778363  0.75000000  1
  Sb  Sb32  1  0.97330164  0.22586232  0.58394086  1
  Sb  Sb33  1  0.55405968  0.77842723  0.25000000  1
  Sb  Sb34  1  0.95873321  0.97436441  0.91340161  1
  Sb  Sb35  1  0.54126679  0.97436441  0.41340161  1
loop_
_geom_bond_atom_site_label_1
_geom_bond_atom_site_label_2
_geom_bond_distance
_geom_bond_site_symmetry_2
Ni0 Sb16 2.589065 1_555
Ni0 Sb32 2.589065 1_555
Ni0 Sb28 2.591878 1_655
Ni0 Sb27 2.591878 1_555
Ni0 Sb35 2.604084 1_545
Ni0 Sb0 2.604084 1_545
Ni0 Sm7 3.392706 1_555
Ni0 Sm4 3.392706 1_655
Ni1 Sb31 2.549765 1_565
Ni1 Sb0 2.573091 1_555
Ni1 Sb27 2.618861 1_565
Ni1 Sb13 2.634012 1_555
Ni1 Sb12 2.651460 1_555
Ni1 Sb21 2.670636 1_555
Ni1 Ni11 2.721055 1_555
Ni1 Sm11 3.285174 1_555
Ni1 Sm9 3.567608 1_555
Ni2 Sb14 2.549765 1_545
Ni2 Sb8 2.573091 1_555
Ni2 Sb19 2.618861 1_545
Ni2 Sb29 2.634012 1_555
Ni2 Sb15 2.651460 1_555
Ni2 Sb4 2.670636 1_555
Ni2 Ni6 2.721055 1_555
Ni2 Sm2 3.285174 1_555
Ni2 Sm10 3.567608 1_555
Ni3 Sb9 2.589065 1_555
Ni3 Sb13 2.589065 1_555
Ni3 Sb35 2.591878 1_555
Ni3 Sb0 2.591878 1_455
Ni3 Sb28 2.604084 1_565
Ni3 Sb27 2.604084 1_565
Ni3 Sm0 3.392706 1_555
Ni3 Sm9 3.392706 1_455
Ni4 Sb15 2.549765 1_565
Ni4 Sb35 2.573091 1_555
Ni4 Sb28 2.618861 1_665
Ni4 Sb9 2.634012 1_655
Ni4 Sb14 2.651460 1_655
Ni4 Sb33 2.670636 1_555
Ni4 Ni7 2.721055 1_555
Ni4 Sm5 3.285174 1_655
Ni4 Sm0 3.567608 1_555
Ni5 Sb12 2.549765 1_545
Ni5 Sb27 2.573091 1_555
Ni5 Sb0 2.618861 1_445
Ni5 Sb32 2.634012 1_455
Ni5 Sb31 2.651460 1_455
Ni5 Sb17 2.670636 1_555
Ni5 Ni8 2.721055 1_555
Ni5 Sm1 3.285174 1_455
Ni5 Sm7 3.567608 1_555
Ni6 Sb14 2.549765 1_545
Ni6 Sb28 2.573091 1_555
Ni6 Sb35 2.618861 1_545
Ni6 Sb16 2.634012 1_555
Ni6 Sb15 2.651460 1_555
Ni6 Sb4 2.670636 1_555
Ni6 Sm2 3.285174 1_555
Ni6 Sm4 3.567608 1_555
Ni7 Sb15 2.549765 1_565
Ni7 Sb19 2.573091 1_555
Ni7 Sb8 2.618861 1_665
Ni7 Sb2 2.634012 1_655
Ni7 Sb14 2.651460 1_655
Ni7 Sb33 2.670636 1_555
Ni7 Sm5 3.285174 1_655
Ni7 Sm8 3.567608 1_555
Ni8 Sb12 2.549765 1_545
Ni8 Sb1 2.573091 1_555
Ni8 Sb34 2.618861 1_445
Ni8 Sb3 2.634012 1_455
Ni8 Sb31 2.651460 1_455
Ni8 Sb17 2.670636 1_555
Ni8 Sm1 3.285174 1_455
Ni8 Sm6 3.567608 1_555
Ni9 Sb29 2.589065 1_555
Ni9 Sb3 2.589065 1_554
Ni9 Sb8 2.591878 1_655
Ni9 Sb1 2.591878 1_554
Ni9 Sb19 2.604084 1_545
Ni9 Sb34 2.604084 1_544
Ni9 Sm6 3.392706 1_554
Ni9 Sm10 3.392706 1_655
Ni10 Sb2 2.589065 1_555
Ni10 Sb24 2.589065 1_554
Ni10 Sb19 2.591878 1_555
Ni10 Sb34 2.591878 1_454
Ni10 Sb8 2.604084 1_565
Ni10 Sb1 2.604084 1_564
Ni10 Sm8 3.392706 1_555
Ni10 Sm3 3.392706 1_454
Ni11 Sb31 2.549765 1_565
Ni11 Sb34 2.573091 1_555
Ni11 Sb1 2.618861 1_565
Ni11 Sb24 2.634012 1_555
Ni11 Sb12 2.651460 1_555
Ni11 Sb21 2.670636 1_555
Ni11 Sm11 3.285174 1_555
Ni11 Sm3 3.567608 1_555
Sb0 Sm9 3.454483 1_555
Sb1 Sm6 3.454483 1_555
Sb2 Sm5 3.203786 1_555
Sb2 Sm3 3.219112 1_454
Sb2 Sm8 3.243307 1_455
Sb2 Sm8 3.252277 1_555
Sb3 Sm1 3.203786 1_555
Sb3 Sm10 3.219112 1_656
Sb3 Sm6 3.243307 1_655
Sb3 Sm6 3.252277 1_555
Sb4 Sm4 3.199982 1_555
Sb4 Sm10 3.199982 1_555
Sb4 Sm2 3.254879 1_455
Sb4 Sm2 3.319296 1_555
Sb5 Sb7 3.049168 1_555
Sb5 Sm2 3.264431 1_555
Sb5 Sm5 3.291609 1_655
Sb5 Sm10 3.308007 1_655
Sb5 Sm8 3.337192 1_555
Sb6 Sm9 3.287395 1_555
Sb6 Sm0 3.287395 1_555
Sb6 Sm7 3.382506 1_555
Sb6 Sm4 3.382506 1_655
Sb7 Sm3 3.287395 1_554
Sb7 Sm8 3.287395 1_555
Sb7 Sm6 3.382506 1_554
Sb7 Sm10 3.382506 1_655
Sb8 Sm10 3.454483 1_555
Sb9 Sm5 3.203786 1_555
Sb9 Sm9 3.219112 1_455
Sb9 Sm0 3.243307 1_455
Sb9 Sm0 3.252277 1_555
Sb10 Sb22 3.049168 1_555
Sb10 Sb25 3.064878 1_555
Sb10 Sb30 3.112139 1_455
Sb10 Sb30 3.112139 1_555
Sb10 Sm5 3.264431 1_555
Sb10 Sm2 3.291609 1_555
Sb10 Sm0 3.308007 1_555
Sb10 Sm4 3.337192 1_555
Sb11 Sb22 3.049168 1_555
Sb11 Sb26 3.064878 1_555
Sb11 Sb18 3.112139 1_455
Sb11 Sb18 3.112139 1_555
Sb11 Sm11 3.264431 1_555
Sb11 Sm1 3.291609 1_455
Sb11 Sm9 3.308007 1_455
Sb11 Sm7 3.337192 1_555
Sb12 Sb21 3.095739 1_455
Sb12 Sm11 3.215971 1_555
Sb13 Sm11 3.203786 1_555
Sb13 Sm0 3.219112 1_555
Sb13 Sm9 3.243307 1_555
Sb13 Sm9 3.252277 1_455
Sb14 Sb33 3.095739 1_555
Sb14 Sm5 3.215971 1_555
Sb15 Sb4 3.095739 1_655
Sb15 Sm2 3.215971 1_555
Sb16 Sm2 3.203786 1_555
Sb16 Sm7 3.219112 1_555
Sb16 Sm4 3.243307 1_555
Sb16 Sm4 3.252277 1_655
Sb17 Sb31 3.095739 1_555
Sb17 Sm6 3.199982 1_555
Sb17 Sm7 3.199982 1_555
Sb17 Sm1 3.254879 1_555
Sb17 Sm1 3.319296 1_455
Sb18 Sb6 3.049168 1_555
Sb18 Sb20 3.064878 1_555
Sb18 Sm1 3.264431 1_555
Sb18 Sm11 3.291609 1_555
Sb18 Sm7 3.308007 1_555
Sb18 Sm9 3.337192 1_555
Sb19 Sm8 3.454483 1_555
Sb20 Sb7 3.049168 1_556
Sb20 Sb26 3.112139 1_655
Sb20 Sb26 3.112139 1_555
Sb20 Sm1 3.264431 1_555
Sb20 Sm11 3.291609 1_555
Sb20 Sm6 3.308007 1_555
Sb20 Sm3 3.337192 1_555
Sb21 Sm3 3.199982 1_555
Sb21 Sm9 3.199982 1_555
Sb21 Sm11 3.254879 1_655
Sb21 Sm11 3.319296 1_555
Sb22 Sb6 3.112066 1_455
Sb22 Sb6 3.112066 1_555
Sb22 Sm7 3.287395 1_555
Sb22 Sm4 3.287395 1_555
Sb22 Sm0 3.382506 1_555
Sb22 Sm9 3.382506 1_455
Sb23 Sb26 3.049168 1_554
Sb23 Sb25 3.049168 1_555
Sb23 Sb7 3.112066 1_555
Sb23 Sb7 3.112066 1_455
Sb23 Sm10 3.287395 1_555
Sb23 Sm6 3.287395 1_554
Sb23 Sm8 3.382506 1_555
Sb23 Sm3 3.382506 1_454
Sb24 Sm11 3.203786 1_555
Sb24 Sm8 3.219112 1_556
Sb24 Sm3 3.243307 1_555
Sb24 Sm3 3.252277 1_455
Sb25 Sb5 3.112139 1_455
Sb25 Sb5 3.112139 1_555
Sb25 Sm5 3.264431 1_555
Sb25 Sm2 3.291609 1_555
Sb25 Sm8 3.308007 1_555
Sb25 Sm10 3.337192 1_555
Sb26 Sm11 3.264431 1_555
Sb26 Sm1 3.291609 1_455
Sb26 Sm3 3.308007 1_455
Sb26 Sm6 3.337192 1_555
Sb27 Sm7 3.454483 1_555
Sb28 Sm4 3.454483 1_555
Sb29 Sm2 3.203786 1_555
Sb29 Sm6 3.219112 1_554
Sb29 Sm10 3.243307 1_555
Sb29 Sm10 3.252277 1_655
Sb30 Sb6 3.049168 1_555
Sb30 Sb5 3.064878 1_555
Sb30 Sm2 3.264431 1_555
Sb30 Sm5 3.291609 1_655
Sb30 Sm4 3.308007 1_655
Sb30 Sm0 3.337192 1_555
Sb31 Sm1 3.215971 1_555
Sb32 Sm1 3.203786 1_555
Sb32 Sm4 3.219112 1_655
Sb32 Sm7 3.243307 1_655
Sb32 Sm7 3.252277 1_555
Sb33 Sm0 3.199982 1_555
Sb33 Sm8 3.199982 1_555
Sb33 Sm5 3.254879 1_555
Sb33 Sm5 3.319296 1_655
Sb34 Sm3 3.454483 1_555
Sb35 Sm0 3.454483 1_555
