# generated using pymatgen
data_CsNb3SBr7
_symmetry_space_group_name_H-M   'P 1'
_cell_length_a   19.21042589
_cell_length_b   7.14366451
_cell_length_c   10.18681658
_cell_angle_alpha   82.44361161
_cell_angle_beta   90.00000000
_cell_angle_gamma   90.00000000
_symmetry_Int_Tables_number   1
_chemical_formula_structural   CsNb3SBr7
_chemical_formula_sum   'Cs4 Nb12 S4 Br28'
_cell_volume   1385.82570275
_cell_formula_units_Z   4
loop_
 _symmetry_equiv_pos_site_id
 _symmetry_equiv_pos_as_xyz
  1  'x, y, z'
loop_
 _atom_site_type_symbol
 _atom_site_label
 _atom_site_symmetry_multiplicity
 _atom_site_fract_x
 _atom_site_fract_y
 _atom_site_fract_z
 _atom_site_occupancy
  Cs  Cs0  1  0.40574575  0.76689988  0.88294060  1
  Cs  Cs1  1  0.09425425  0.26689988  0.88294060  1
  Cs  Cs2  1  0.90574575  0.73310012  0.11705940  1
  Cs  Cs3  1  0.59425425  0.23310012  0.11705940  1
  Nb  Nb0  1  0.82924754  0.13489627  0.57682023  1
  Nb  Nb1  1  0.67069112  0.03550777  0.57739365  1
  Nb  Nb2  1  0.17069112  0.46449223  0.42260635  1
  Nb  Nb3  1  0.67075246  0.63489627  0.57682023  1
  Nb  Nb4  1  0.33134031  0.21298759  0.17358528  1
  Nb  Nb5  1  0.66865969  0.78701241  0.82641472  1
  Nb  Nb6  1  0.32924754  0.36510373  0.42317977  1
  Nb  Nb7  1  0.16865969  0.71298759  0.17358528  1
  Nb  Nb8  1  0.17075246  0.86510373  0.42317977  1
  Nb  Nb9  1  0.83134031  0.28701241  0.82641472  1
  Nb  Nb10  1  0.82930888  0.53550777  0.57739365  1
  Nb  Nb11  1  0.32930888  0.96449223  0.42260635  1
  S  S0  1  0.76292784  0.81715556  0.67228821  1
  S  S1  1  0.26292784  0.68284444  0.32771179  1
  S  S2  1  0.73707216  0.31715556  0.67228821  1
  S  S3  1  0.23707216  0.18284444  0.32771179  1
  Br  Br0  1  0.75016019  0.01162585  0.96036086  1
  Br  Br1  1  0.41698386  0.13882850  0.55931105  1
  Br  Br2  1  0.74983981  0.51162585  0.96036086  1
  Br  Br3  1  0.07675467  0.95075338  0.23907831  1
  Br  Br4  1  0.59625752  0.74221495  0.06204870  1
  Br  Br5  1  0.42262346  0.94900864  0.23684259  1
  Br  Br6  1  0.90374248  0.24221495  0.06204870  1
  Br  Br7  1  0.75007099  0.12385852  0.36338711  1
  Br  Br8  1  0.25016019  0.48837415  0.03963914  1
  Br  Br9  1  0.40374248  0.25778505  0.93795130  1
  Br  Br10  1  0.08301614  0.63882850  0.55931105  1
  Br  Br11  1  0.57675467  0.54924662  0.76092169  1
  Br  Br12  1  0.24983981  0.98837415  0.03963914  1
  Br  Br13  1  0.92324533  0.04924662  0.76092169  1
  Br  Br14  1  0.58301614  0.86117150  0.44068895  1
  Br  Br15  1  0.91698386  0.36117150  0.44068895  1
  Br  Br16  1  0.09625752  0.75778505  0.93795130  1
  Br  Br17  1  0.24992901  0.87614148  0.63661289  1
  Br  Br18  1  0.92262346  0.55099136  0.76315741  1
  Br  Br19  1  0.09796128  0.14375915  0.53644290  1
  Br  Br20  1  0.57737654  0.05099136  0.76315741  1
  Br  Br21  1  0.74992901  0.62385852  0.36338711  1
  Br  Br22  1  0.42324533  0.45075338  0.23907831  1
  Br  Br23  1  0.90203872  0.85624085  0.46355710  1
  Br  Br24  1  0.59796128  0.35624085  0.46355710  1
  Br  Br25  1  0.25007099  0.37614148  0.63661289  1
  Br  Br26  1  0.40203872  0.64375915  0.53644290  1
  Br  Br27  1  0.07737654  0.44900864  0.23684259  1
loop_
_geom_bond_atom_site_label_1
_geom_bond_atom_site_label_2
_geom_bond_distance
_geom_bond_site_symmetry_2
Nb0 S2 2.471737 1_555
Nb0 S0 2.672174 1_545
Nb1 S0 2.471968 1_545
Nb1 S2 2.668384 1_555
Nb2 S1 2.471968 1_555
Nb2 S3 2.668384 1_555
Nb3 S0 2.471737 1_555
Nb3 S2 2.672174 1_555
Nb4 S3 2.387887 1_555
Nb5 S0 2.387887 1_555
Nb6 S3 2.471737 1_555
Nb6 S1 2.672174 1_555
Nb7 S1 2.387887 1_555
Nb8 S1 2.471737 1_555
Nb8 S3 2.672174 1_565
Nb9 S2 2.387887 1_555
Nb10 S2 2.471968 1_555
Nb10 S0 2.668384 1_555
Nb11 S3 2.471968 1_565
Nb11 S1 2.668384 1_555
Br0 Nb9 2.730941 1_555
Br0 Nb5 2.731950 1_545
Br0 Cs2 3.821639 1_546
Br0 Cs3 3.832175 1_556
Br1 Nb11 2.604463 1_545
Br1 Nb6 2.605211 1_555
Br1 Cs0 3.958633 1_545
Br2 Nb5 2.730941 1_555
Br2 Nb9 2.731950 1_555
Br2 Cs3 3.821639 1_556
Br2 Cs2 3.832175 1_556
Br3 Nb7 2.597157 1_555
Br3 Nb8 2.617330 1_555
Br3 Cs2 3.906798 1_455
Br3 Cs1 4.027457 1_564
Br4 Nb5 2.756202 1_554
Br4 Cs3 3.606502 1_555
Br4 Cs3 3.623454 1_565
Br4 Cs0 4.082849 1_554
Br5 Nb4 2.593621 1_565
Br5 Nb11 2.619485 1_555
Br5 Cs3 3.978338 1_565
Br5 Cs0 4.003500 1_554
Br6 Nb9 2.756202 1_554
Br6 Cs2 3.606502 1_545
Br6 Cs2 3.623454 1_555
Br6 Cs1 4.082849 1_654
Br7 Nb0 2.663073 1_555
Br7 Nb1 2.667294 1_555
Br7 Cs3 3.917962 1_555
Br8 Nb4 2.730941 1_555
Br8 Nb7 2.731950 1_555
Br8 Cs0 3.821639 1_554
Br8 Cs1 3.832175 1_554
Br9 Nb4 2.756202 1_556
Br9 Cs0 3.606502 1_555
Br9 Cs0 3.623454 1_545
Br9 Cs3 4.082849 1_556
Br10 Nb2 2.604463 1_555
Br10 Nb8 2.605211 1_555
Br10 Cs1 3.958633 1_555
Br11 Nb5 2.597157 1_555
Br11 Nb3 2.617330 1_555
Br11 Cs0 3.906798 1_555
Br11 Cs3 4.027457 1_556
Br12 Nb7 2.730941 1_555
Br12 Nb4 2.731950 1_565
Br12 Cs1 3.821639 1_564
Br12 Cs0 3.832175 1_554
Br13 Nb9 2.597157 1_555
Br13 Nb0 2.617330 1_555
Br13 Cs1 3.906798 1_655
Br13 Cs2 4.027457 1_546
Br14 Nb1 2.604463 1_565
Br14 Nb3 2.605211 1_555
Br14 Cs3 3.958633 1_565
Br15 Nb10 2.604463 1_555
Br15 Nb0 2.605211 1_555
Br15 Cs2 3.958633 1_555
Br16 Nb7 2.756202 1_556
Br16 Cs1 3.606502 1_565
Br16 Cs1 3.623454 1_555
Br16 Cs2 4.082849 1_456
Br17 Nb8 2.663073 1_555
Br17 Nb11 2.667294 1_555
Br17 Cs0 3.917962 1_555
Br18 Nb9 2.593621 1_555
Br18 Nb10 2.619485 1_555
Br18 Cs1 3.978338 1_655
Br18 Cs2 4.003500 1_556
Br19 Nb2 2.801372 1_555
Br19 Nb8 2.802364 1_545
Br19 Cs1 3.748916 1_555
Br20 Nb5 2.593621 1_545
Br20 Nb1 2.619485 1_555
Br20 Cs0 3.978338 1_545
Br20 Cs3 4.003500 1_556
Br21 Nb3 2.663073 1_555
Br21 Nb10 2.667294 1_555
Br21 Cs2 3.917962 1_555
Br22 Nb4 2.597157 1_555
Br22 Nb6 2.617330 1_555
Br22 Cs3 3.906798 1_555
Br22 Cs0 4.027457 1_554
Br23 Nb10 2.801372 1_555
Br23 Nb0 2.802364 1_565
Br23 Cs2 3.748916 1_555
Br24 Nb1 2.801372 1_555
Br24 Nb3 2.802364 1_555
Br24 Cs3 3.748916 1_555
Br25 Nb6 2.663073 1_555
Br25 Nb2 2.667294 1_555
Br25 Cs1 3.917962 1_555
Br26 Nb11 2.801372 1_555
Br26 Nb6 2.802364 1_555
Br26 Cs0 3.748916 1_555
Br27 Nb7 2.593621 1_555
Br27 Nb2 2.619485 1_555
Br27 Cs2 3.978338 1_455
Br27 Cs1 4.003500 1_554
