# generated using pymatgen
data_Li5B7S13
_symmetry_space_group_name_H-M   'P 1'
_cell_length_a   14.00007587
_cell_length_b   14.00007587
_cell_length_c   12.32493186
_cell_angle_alpha   63.92220882
_cell_angle_beta   63.92220882
_cell_angle_gamma   103.02037570
_symmetry_Int_Tables_number   1
_chemical_formula_structural   Li5B7S13
_chemical_formula_sum   'Li20 B28 S52'
_cell_volume   1666.11927784
_cell_formula_units_Z   4
loop_
 _symmetry_equiv_pos_site_id
 _symmetry_equiv_pos_as_xyz
  1  'x, y, z'
loop_
 _atom_site_type_symbol
 _atom_site_label
 _atom_site_symmetry_multiplicity
 _atom_site_fract_x
 _atom_site_fract_y
 _atom_site_fract_z
 _atom_site_occupancy
  Li  Li0  1  0.96706155  0.68369685  0.25981265  1
  Li  Li1  1  0.68369685  0.96706155  0.75981265  1
  Li  Li2  1  0.01203949  0.01948304  0.53113031  1
  Li  Li3  1  0.32059457  0.88433245  0.88923944  1
  Li  Li4  1  0.88433245  0.32059457  0.38923944  1
  Li  Li5  1  0.44144960  0.22182322  0.59235929  1
  Li  Li6  1  0.22182322  0.44144960  0.09235929  1
  Li  Li7  1  0.78258036  0.71947657  0.10255413  1
  Li  Li8  1  0.71947657  0.78258036  0.60255413  1
  Li  Li9  1  0.55177659  0.04715510  0.42992337  1
  Li  Li10  1  0.04715510  0.55177659  0.92992337  1
  Li  Li11  1  0.29904131  0.22686368  0.38737253  1
  Li  Li12  1  0.22686368  0.29904131  0.88737253  1
  Li  Li13  1  0.77739555  0.55209227  0.92040877  1
  Li  Li14  1  0.55209227  0.77739555  0.42040877  1
  Li  Li15  1  0.11503496  0.68656171  0.57986964  1
  Li  Li16  1  0.68656171  0.11503496  0.07986964  1
  Li  Li17  1  0.29769151  0.02673882  0.25726785  1
  Li  Li18  1  0.02673882  0.29769151  0.75726785  1
  Li  Li19  1  0.01948304  0.01203949  0.03113031  1
  B  B0  1  0.25183470  0.30624163  0.57766858  1
  B  B1  1  0.54656777  0.79437215  0.13766508  1
  B  B2  1  0.27661003  0.72783869  0.24606015  1
  B  B3  1  0.47582962  0.52494153  0.25101659  1
  B  B4  1  0.20530600  0.45457372  0.36201774  1
  B  B5  1  0.69526907  0.74766818  0.92271396  1
  B  B6  1  0.68306534  0.43294882  0.52130338  1
  B  B7  1  0.43294882  0.68306534  0.02130338  1
  B  B8  1  0.61795210  0.17147031  0.63358274  1
  B  B9  1  0.17147031  0.61795210  0.13358274  1
  B  B10  1  0.16445669  0.01473740  0.74230586  1
  B  B11  1  0.08971033  0.74467624  0.92619053  1
  B  B12  1  0.74467624  0.08971033  0.42619053  1
  B  B13  1  0.01473740  0.16445669  0.24230586  1
  B  B14  1  0.98496414  0.83075743  0.75862061  1
  B  B15  1  0.25686041  0.90822072  0.57893927  1
  B  B16  1  0.90822072  0.25686041  0.07893927  1
  B  B17  1  0.83075743  0.98496414  0.25862061  1
  B  B18  1  0.83136646  0.38359446  0.86396384  1
  B  B19  1  0.38359446  0.83136646  0.36396384  1
  B  B20  1  0.56914649  0.31534240  0.97773121  1
  B  B21  1  0.31534240  0.56914649  0.47773121  1
  B  B22  1  0.30624163  0.25183470  0.07766858  1
  B  B23  1  0.79437215  0.54656777  0.63766508  1
  B  B24  1  0.52494153  0.47582962  0.75101659  1
  B  B25  1  0.72783869  0.27661003  0.74606015  1
  B  B26  1  0.45457372  0.20530600  0.86201774  1
  B  B27  1  0.74766818  0.69526907  0.42271396  1
  S  S0  1  0.48357570  0.63037598  0.31245623  1
  S  S1  1  0.20487632  0.56072199  0.42332210  1
  S  S2  1  0.71205708  0.86227644  0.97011700  1
  S  S3  1  0.13866544  0.28908729  0.52879058  1
  S  S4  1  0.44309811  0.79591860  0.07281159  1
  S  S5  1  0.17750906  0.73075887  0.18181500  1
  S  S6  1  0.73075887  0.17750906  0.68181500  1
  S  S7  1  0.37027851  0.51576298  0.18937643  1
  S  S8  1  0.44921329  0.10078524  0.80295041  1
  S  S9  1  0.10078524  0.44921329  0.30295041  1
  S  S10  1  0.74830416  0.59672049  0.35243733  1
  S  S11  1  0.59672049  0.74830416  0.85243733  1
  S  S12  1  0.68005201  0.33272194  0.45617910  1
  S  S13  1  0.20270187  0.15153967  0.75253639  1
  S  S14  1  0.33272194  0.68005201  0.95617910  1
  S  S15  1  0.12747504  0.88341300  0.92989108  1
  S  S16  1  0.04297151  0.59615104  0.10887715  1
  S  S17  1  0.59615104  0.04297151  0.60887715  1
  S  S18  1  0.88341300  0.12747504  0.42989108  1
  S  S19  1  0.15153967  0.20270187  0.25253639  1
  S  S20  1  0.41547868  0.36276167  0.41314674  1
  S  S21  1  0.02077719  0.97486461  0.74972075  1
  S  S22  1  0.36276167  0.41547868  0.91314674  1
  S  S23  1  0.94064594  0.68896397  0.94149784  1
  S  S24  1  0.30856133  0.05821953  0.56163237  1
  S  S25  1  0.22691576  0.77415737  0.75426328  1
  S  S26  1  0.77415737  0.22691576  0.25426328  1
  S  S27  1  0.68896397  0.94064594  0.44149784  1
  S  S28  1  0.05821953  0.30856133  0.06163237  1
  S  S29  1  0.63880322  0.58575651  0.09036797  1
  S  S30  1  0.97486461  0.02077719  0.24972075  1
  S  S31  1  0.58575651  0.63880322  0.59036797  1
  S  S32  1  0.84823992  0.79408456  0.74766379  1
  S  S33  1  0.11935862  0.86756863  0.57273675  1
  S  S34  1  0.40351071  0.95704443  0.39332285  1
  S  S35  1  0.95704443  0.40351071  0.89332285  1
  S  S36  1  0.86756863  0.11935862  0.07273675  1
  S  S37  1  0.66888895  0.31590917  0.04390630  1
  S  S38  1  0.79408456  0.84823992  0.24766379  1
  S  S39  1  0.31590917  0.66888895  0.54390630  1
  S  S40  1  0.40505938  0.24921117  0.14761049  1
  S  S41  1  0.24921117  0.40505938  0.64761049  1
  S  S42  1  0.89754784  0.55214250  0.69914773  1
  S  S43  1  0.55214250  0.89754784  0.19914773  1
  S  S44  1  0.63037598  0.48357570  0.81245623  1
  S  S45  1  0.27739170  0.83068191  0.30526523  1
  S  S46  1  0.83068191  0.27739170  0.80526523  1
  S  S47  1  0.56072199  0.20487632  0.92332210  1
  S  S48  1  0.86227644  0.71205708  0.47011700  1
  S  S49  1  0.28908729  0.13866544  0.02879058  1
  S  S50  1  0.79591860  0.44309811  0.57281159  1
  S  S51  1  0.51576298  0.37027851  0.68937643  1
loop_
_geom_bond_atom_site_label_1
_geom_bond_atom_site_label_2
_geom_bond_distance
_geom_bond_site_symmetry_2
Li0 S5 2.473284 1_655
Li0 S10 2.487814 1_555
Li0 S48 2.617698 1_555
Li0 S16 2.635450 1_655
Li0 S15 2.922669 1_654
Li0 S50 2.963358 1_555
Li1 S6 2.473284 1_565
Li1 S11 2.487814 1_555
Li1 S2 2.617698 1_555
Li1 S17 2.635450 1_565
Li1 S18 2.922669 1_565
Li1 S4 2.963358 1_556
Li2 S19 2.507448 1_555
Li2 S32 2.508684 1_445
Li2 S21 2.551079 1_545
Li2 S33 2.863935 1_545
Li2 S18 2.937560 1_455
Li3 S15 2.519685 1_555
Li3 S5 2.555540 1_556
Li3 S8 2.565284 1_565
Li3 S14 2.675118 1_555
Li4 S18 2.519685 1_555
Li4 S6 2.555540 1_555
Li4 S9 2.565284 1_655
Li4 S12 2.675118 1_555
Li5 S8 2.466617 1_555
Li5 S20 2.470198 1_555
Li5 S12 2.613228 1_555
Li5 S13 2.654534 1_555
Li5 S24 2.883201 1_555
Li5 S51 3.022614 1_555
Li6 S9 2.466617 1_555
Li6 S22 2.470198 1_554
Li6 S14 2.613228 1_554
Li6 S19 2.654534 1_555
Li6 S28 2.883201 1_555
Li6 S7 3.022614 1_555
Li7 S23 2.515808 1_554
Li7 S10 2.518846 1_555
Li7 S29 2.528642 1_555
Li7 S2 2.659567 1_554
Li8 S27 2.515808 1_555
Li8 S11 2.518846 1_555
Li8 S31 2.528642 1_555
Li8 S48 2.659567 1_555
Li9 S34 2.499459 1_545
Li9 S17 2.522203 1_555
Li9 S26 2.543010 1_555
Li9 S27 2.697593 1_545
Li10 S35 2.499459 1_455
Li10 S16 2.522203 1_556
Li10 S25 2.543010 1_555
Li10 S23 2.697593 1_455
Li11 S20 2.442784 1_555
Li11 S24 2.477954 1_555
Li11 S40 2.480929 1_555
Li11 S3 2.759292 1_555
Li12 S22 2.442784 1_555
Li12 S28 2.477954 1_556
Li12 S41 2.480929 1_555
Li12 S49 2.759292 1_556
Li13 S29 2.466066 1_556
Li13 S42 2.496204 1_555
Li13 S37 2.614736 1_556
Li13 S32 2.698579 1_555
Li13 S23 2.819539 1_555
Li14 S31 2.466066 1_555
Li14 S43 2.496204 1_555
Li14 S39 2.614736 1_555
Li14 S38 2.698579 1_555
Li14 S27 2.819539 1_555
Li15 S45 2.420439 1_555
Li15 S42 2.454399 1_455
Li15 S33 2.482629 1_555
Li15 S39 2.735048 1_555
Li16 S46 2.420439 1_554
Li16 S43 2.454399 1_545
Li16 S36 2.482629 1_555
Li16 S37 2.735048 1_555
Li17 S45 2.457203 1_545
Li17 S40 2.488055 1_555
Li17 S49 2.627440 1_555
Li17 S34 2.712132 1_545
Li17 S33 2.767258 1_545
Li18 S46 2.457203 1_455
Li18 S41 2.488055 1_555
Li18 S3 2.627440 1_555
Li18 S35 2.712132 1_455
Li18 S36 2.767258 1_456
Li19 S13 2.507448 1_554
Li19 S38 2.508684 1_445
Li19 S30 2.551079 1_455
Li19 S36 2.863935 1_455
Li19 S15 2.937560 1_544
B0 S20 1.916971 1_555
B0 S41 1.924045 1_555
B0 S3 1.930214 1_555
B0 S13 1.931433 1_555
B1 S2 1.900308 1_554
B1 S43 1.905340 1_555
B1 S4 1.937696 1_555
B1 S0 1.938781 1_555
B2 S5 1.875243 1_555
B2 S45 1.878631 1_555
B2 S4 1.932530 1_555
B2 S1 1.942656 1_555
B3 S29 1.876667 1_555
B3 S20 1.877355 1_555
B3 S0 1.935663 1_555
B3 S7 1.940261 1_555
B4 S9 1.900523 1_555
B4 S3 1.901649 1_555
B4 S1 1.940770 1_555
B4 S7 1.944478 1_555
B5 S29 1.916072 1_556
B5 S11 1.924380 1_555
B5 S32 1.934306 1_555
B5 S2 1.935469 1_555
B6 S12 1.899539 1_555
B6 S10 1.900681 1_555
B6 S51 1.938387 1_555
B6 S50 1.944078 1_555
B7 S14 1.899539 1_554
B7 S11 1.900681 1_554
B7 S7 1.938387 1_555
B7 S4 1.944078 1_555
B8 S6 1.914198 1_555
B8 S8 1.926762 1_555
B8 S12 1.933311 1_555
B8 S17 1.933429 1_555
B9 S5 1.914198 1_555
B9 S9 1.926762 1_555
B9 S14 1.933311 1_554
B9 S16 1.933429 1_555
B10 S21 1.911481 1_545
B10 S24 1.924701 1_555
B10 S15 1.942966 1_545
B10 S13 1.944309 1_555
B11 S25 1.909331 1_555
B11 S15 1.921093 1_555
B11 S23 1.946839 1_455
B11 S16 1.948583 1_556
B11 Li10 2.606153 1_555
B12 S26 1.909331 1_555
B12 S18 1.921093 1_555
B12 S27 1.946839 1_545
B12 S17 1.948583 1_555
B12 Li9 2.606153 1_555
B13 S30 1.911481 1_455
B13 S28 1.924701 1_555
B13 S18 1.942966 1_455
B13 S19 1.944309 1_555
B14 S21 1.906582 1_655
B14 S23 1.920330 1_555
B14 S33 1.946714 1_655
B14 S32 1.947099 1_555
B14 Li2 2.662197 1_665
B15 S25 1.910785 1_555
B15 S33 1.926000 1_555
B15 S24 1.940339 1_565
B15 S34 1.944094 1_555
B16 S26 1.910785 1_555
B16 S36 1.926000 1_555
B16 S28 1.940339 1_655
B16 S35 1.944094 1_554
B17 S30 1.906582 1_565
B17 S27 1.920330 1_555
B17 S36 1.946714 1_565
B17 S38 1.947099 1_555
B17 Li19 2.662197 1_665
B18 S46 1.918223 1_555
B18 S42 1.923241 1_555
B18 S35 1.931817 1_555
B18 S37 1.933014 1_556
B19 S45 1.918223 1_555
B19 S43 1.923241 1_555
B19 S34 1.931817 1_555
B19 S39 1.933014 1_555
B20 S37 1.901898 1_556
B20 S40 1.904441 1_556
B20 S47 1.937653 1_555
B20 S44 1.941275 1_555
B21 S39 1.901898 1_555
B21 S41 1.904441 1_555
B21 S1 1.937653 1_555
B21 S0 1.941275 1_555
B22 S22 1.916971 1_554
B22 S40 1.924045 1_555
B22 S49 1.930214 1_555
B22 S19 1.931433 1_555
B23 S48 1.900308 1_555
B23 S42 1.905340 1_555
B23 S50 1.937696 1_555
B23 S44 1.938781 1_555
B24 S31 1.876667 1_555
B24 S22 1.877355 1_555
B24 S44 1.935663 1_555
B24 S51 1.940261 1_555
B25 S6 1.875243 1_555
B25 S46 1.878631 1_555
B25 S50 1.932530 1_555
B25 S47 1.942656 1_555
B26 S8 1.900523 1_555
B26 S49 1.901649 1_556
B26 S47 1.940770 1_555
B26 S51 1.944478 1_555
B27 S31 1.916072 1_555
B27 S10 1.924380 1_555
B27 S38 1.934306 1_555
B27 S48 1.935469 1_555
