# generated using pymatgen
data_Ca3(BN2)2
_symmetry_space_group_name_H-M   'P 1'
_cell_length_a   7.39830300
_cell_length_b   10.28088500
_cell_length_c   10.49129400
_cell_angle_alpha   90.00000000
_cell_angle_beta   90.00000000
_cell_angle_gamma   90.00000000
_symmetry_Int_Tables_number   1
_chemical_formula_structural   Ca3(BN2)2
_chemical_formula_sum   'Ca18 B12 N24'
_cell_volume   797.97938659
_cell_formula_units_Z   6
loop_
 _symmetry_equiv_pos_site_id
 _symmetry_equiv_pos_as_xyz
  1  'x, y, z'
loop_
 _atom_site_type_symbol
 _atom_site_label
 _atom_site_symmetry_multiplicity
 _atom_site_fract_x
 _atom_site_fract_y
 _atom_site_fract_z
 _atom_site_occupancy
  Ca  Ca0  1  0.25118000  0.00000000  0.24094500  1
  Ca  Ca1  1  0.00000000  0.00000000  0.50000000  1
  Ca  Ca2  1  0.74882000  0.00000000  0.75905500  1
  Ca  Ca3  1  0.99617000  0.74656200  0.26007800  1
  Ca  Ca4  1  0.50000000  0.00000000  0.50000000  1
  Ca  Ca5  1  0.50383000  0.75343800  0.76007800  1
  Ca  Ca6  1  0.49617000  0.75343800  0.23992200  1
  Ca  Ca7  1  0.00000000  0.00000000  0.00000000  1
  Ca  Ca8  1  0.75118000  0.50000000  0.25905500  1
  Ca  Ca9  1  0.50000000  0.50000000  0.50000000  1
  Ca  Ca10  1  0.00383000  0.74656200  0.73992200  1
  Ca  Ca11  1  0.24882000  0.50000000  0.74094500  1
  Ca  Ca12  1  0.49617000  0.24656200  0.23992200  1
  Ca  Ca13  1  0.00000000  0.50000000  0.00000000  1
  Ca  Ca14  1  0.00383000  0.25343800  0.73992200  1
  Ca  Ca15  1  0.99617000  0.25343800  0.26007800  1
  Ca  Ca16  1  0.50000000  0.50000000  0.00000000  1
  Ca  Ca17  1  0.50383000  0.24656200  0.76007800  1
  B  B0  1  0.26094100  0.75588000  0.50449500  1
  B  B1  1  0.74471100  0.00000000  0.26005900  1
  B  B2  1  0.73905900  0.75588000  0.49550500  1
  B  B3  1  0.76094100  0.74412000  0.99550500  1
  B  B4  1  0.25528900  0.00000000  0.73994100  1
  B  B5  1  0.23905900  0.74412000  0.00449500  1
  B  B6  1  0.73905900  0.24412000  0.49550500  1
  B  B7  1  0.24471100  0.50000000  0.23994100  1
  B  B8  1  0.26094100  0.24412000  0.50449500  1
  B  B9  1  0.23905900  0.25588000  0.00449500  1
  B  B10  1  0.75528900  0.50000000  0.76005900  1
  B  B11  1  0.76094100  0.25588000  0.99550500  1
  N  N0  1  0.23503700  0.84047200  0.40829900  1
  N  N1  1  0.92619800  0.00000000  0.25232900  1
  N  N2  1  0.78920100  0.82408600  0.89711500  1
  N  N3  1  0.43538000  0.00000000  0.72701900  1
  N  N4  1  0.76496300  0.84047200  0.59170100  1
  N  N5  1  0.71079900  0.67591400  0.39711500  1
  N  N6  1  0.21079900  0.82408600  0.10288500  1
  N  N7  1  0.26496300  0.65952800  0.90829900  1
  N  N8  1  0.28920100  0.67591400  0.60288500  1
  N  N9  1  0.42619800  0.50000000  0.24767100  1
  N  N10  1  0.71079900  0.32408600  0.39711500  1
  N  N11  1  0.06462000  0.50000000  0.22701900  1
  N  N12  1  0.73503700  0.65952800  0.09170100  1
  N  N13  1  0.26496300  0.34047200  0.90829900  1
  N  N14  1  0.93538000  0.50000000  0.77298100  1
  N  N15  1  0.28920100  0.32408600  0.60288500  1
  N  N16  1  0.23503700  0.15952800  0.40829900  1
  N  N17  1  0.57380200  0.50000000  0.75232900  1
  N  N18  1  0.73503700  0.34047200  0.09170100  1
  N  N19  1  0.78920100  0.17591400  0.89711500  1
  N  N20  1  0.76496300  0.15952800  0.59170100  1
  N  N21  1  0.56462000  0.00000000  0.27298100  1
  N  N22  1  0.21079900  0.17591400  0.10288500  1
  N  N23  1  0.07380200  0.00000000  0.74767100  1
loop_
_geom_bond_atom_site_label_1
_geom_bond_atom_site_label_2
_geom_bond_distance
_geom_bond_site_symmetry_2
Ca0 N22 2.336248 1_555
Ca0 N6 2.336248 1_545
Ca0 N21 2.343154 1_555
Ca0 N0 2.405587 1_545
Ca0 N16 2.405587 1_555
Ca0 N1 2.407280 1_455
Ca1 N4 2.576653 1_445
Ca1 N16 2.576653 1_555
Ca1 N20 2.576653 1_455
Ca1 N0 2.576653 1_545
Ca1 N23 2.655137 1_555
Ca1 N1 2.655137 1_455
Ca2 N19 2.336248 1_555
Ca2 N2 2.336248 1_545
Ca2 N3 2.343154 1_555
Ca2 N20 2.405587 1_555
Ca2 N4 2.405587 1_545
Ca2 N23 2.407280 1_655
Ca3 N6 2.424119 1_655
Ca3 N0 2.544268 1_655
Ca3 N11 2.608130 1_655
Ca3 N5 2.655549 1_555
Ca3 N1 2.657739 1_565
Ca3 N12 2.766502 1_555
Ca4 N3 2.429231 1_555
Ca4 N21 2.429231 1_555
Ca4 N0 2.730959 1_545
Ca4 N20 2.730959 1_555
Ca4 N4 2.730959 1_545
Ca4 N16 2.730959 1_555
Ca5 N8 2.424119 1_555
Ca5 N7 2.544268 1_555
Ca5 N3 2.608130 1_565
Ca5 N2 2.655549 1_555
Ca5 N17 2.657739 1_555
Ca5 N4 2.766502 1_555
Ca6 N5 2.424119 1_555
Ca6 N12 2.544268 1_555
Ca6 N21 2.608130 1_565
Ca6 N6 2.655549 1_555
Ca6 N9 2.657739 1_555
Ca6 N0 2.766502 1_555
Ca7 N19 2.620719 1_454
Ca7 N6 2.620719 1_545
Ca7 N2 2.620719 1_444
Ca7 N22 2.620719 1_555
Ca7 N23 2.702980 1_554
Ca7 N1 2.702980 1_455
Ca8 N10 2.336248 1_555
Ca8 N5 2.336248 1_555
Ca8 N11 2.343154 1_655
Ca8 N12 2.405587 1_555
Ca8 N18 2.405587 1_555
Ca8 N9 2.407280 1_555
Ca9 N10 2.620719 1_555
Ca9 N8 2.620719 1_555
Ca9 N5 2.620719 1_555
Ca9 N15 2.620719 1_555
Ca9 N9 2.702980 1_555
Ca9 N17 2.702980 1_555
Ca10 N2 2.424119 1_455
Ca10 N4 2.544268 1_455
Ca10 N14 2.608130 1_455
Ca10 N8 2.655549 1_555
Ca10 N23 2.657739 1_565
Ca10 N7 2.766502 1_555
Ca11 N8 2.336248 1_555
Ca11 N15 2.336248 1_555
Ca11 N14 2.343154 1_455
Ca11 N7 2.405587 1_555
Ca11 N13 2.405587 1_555
Ca11 N17 2.407280 1_555
Ca12 N10 2.424119 1_555
Ca12 N18 2.544268 1_555
Ca12 N21 2.608130 1_555
Ca12 N22 2.655549 1_555
Ca12 N9 2.657739 1_555
Ca12 N16 2.766502 1_555
Ca13 N11 2.429231 1_555
Ca13 N14 2.429231 1_454
Ca13 N18 2.730959 1_455
Ca13 N13 2.730959 1_554
Ca13 N12 2.730959 1_455
Ca13 N7 2.730959 1_554
Ca14 N19 2.424119 1_455
Ca14 N20 2.544268 1_455
Ca14 N14 2.608130 1_455
Ca14 N15 2.655549 1_555
Ca14 N23 2.657739 1_555
Ca14 N13 2.766502 1_555
Ca15 N22 2.424119 1_655
Ca15 N16 2.544268 1_655
Ca15 N11 2.608130 1_655
Ca15 N10 2.655549 1_555
Ca15 N1 2.657739 1_555
Ca15 N18 2.766502 1_555
Ca16 N12 2.576653 1_555
Ca16 N13 2.576653 1_554
Ca16 N7 2.576653 1_554
Ca16 N18 2.576653 1_555
Ca16 N17 2.655137 1_554
Ca16 N9 2.655137 1_555
Ca17 N15 2.424119 1_555
Ca17 N13 2.544268 1_555
Ca17 N3 2.608130 1_555
Ca17 N19 2.655549 1_555
Ca17 N17 2.657739 1_555
Ca17 N20 2.766502 1_555
B0 N8 1.336081 1_555
B0 N0 1.345956 1_555
B1 N21 1.339247 1_555
B1 N1 1.345143 1_555
B2 N5 1.336081 1_555
B2 N4 1.345956 1_555
B3 N2 1.336081 1_555
B3 N12 1.345956 1_556
B4 N3 1.339247 1_555
B4 N23 1.345143 1_555
B5 N6 1.336081 1_555
B5 N7 1.345956 1_554
B6 N10 1.336081 1_555
B6 N20 1.345956 1_555
B7 N11 1.339247 1_555
B7 N9 1.345143 1_555
B8 N15 1.336081 1_555
B8 N16 1.345956 1_555
B9 N22 1.336081 1_555
B9 N13 1.345956 1_554
B10 N14 1.339247 1_555
B10 N17 1.345143 1_555
B11 N19 1.336081 1_555
B11 N18 1.345956 1_556
