# generated using pymatgen
data_CsNb(PO4)2
_symmetry_space_group_name_H-M   'P 1'
_cell_length_a   4.93087251
_cell_length_b   8.88652857
_cell_length_c   18.43987213
_cell_angle_alpha   90.00000000
_cell_angle_beta   95.50648202
_cell_angle_gamma   90.00000000
_symmetry_Int_Tables_number   1
_chemical_formula_structural   CsNb(PO4)2
_chemical_formula_sum   'Cs4 Nb4 P8 O32'
_cell_volume   804.27591689
_cell_formula_units_Z   4
loop_
 _symmetry_equiv_pos_site_id
 _symmetry_equiv_pos_as_xyz
  1  'x, y, z'
loop_
 _atom_site_type_symbol
 _atom_site_label
 _atom_site_symmetry_multiplicity
 _atom_site_fract_x
 _atom_site_fract_y
 _atom_site_fract_z
 _atom_site_occupancy
  Cs  Cs0  1  0.21949270  0.28874068  0.06031287  1
  Cs  Cs1  1  0.28050730  0.78874068  0.43968713  1
  Cs  Cs2  1  0.78050730  0.71125932  0.93968713  1
  Cs  Cs3  1  0.71949270  0.21125932  0.56031287  1
  Nb  Nb0  1  0.82979889  0.94395830  0.16657580  1
  Nb  Nb1  1  0.67020111  0.44395830  0.33342420  1
  Nb  Nb2  1  0.17020111  0.05604170  0.83342420  1
  Nb  Nb3  1  0.32979889  0.55604170  0.66657580  1
  P  P0  1  0.30031057  0.71378233  0.10599971  1
  P  P1  1  0.19968943  0.21378233  0.39400029  1
  P  P2  1  0.69968943  0.28621767  0.89400029  1
  P  P3  1  0.80031057  0.78621767  0.60599971  1
  P  P4  1  0.11355120  0.62000077  0.24223984  1
  P  P5  1  0.38644880  0.12000077  0.25776016  1
  P  P6  1  0.88644880  0.37999923  0.75776016  1
  P  P7  1  0.61355120  0.87999923  0.74223984  1
  O  O0  1  0.68829465  0.06980995  0.10018640  1
  O  O1  1  0.81170535  0.56980995  0.39981360  1
  O  O2  1  0.31170535  0.93019005  0.89981360  1
  O  O3  1  0.18829465  0.43019005  0.60018640  1
  O  O4  1  0.56930019  0.77078126  0.14437635  1
  O  O5  1  0.93069981  0.27078126  0.35562365  1
  O  O6  1  0.43069981  0.22921874  0.85562365  1
  O  O7  1  0.06930019  0.72921874  0.64437635  1
  O  O8  1  0.08970762  0.84158488  0.10203654  1
  O  O9  1  0.41029238  0.34158488  0.39796346  1
  O  O10  1  0.91029238  0.15841512  0.89796346  1
  O  O11  1  0.58970762  0.65841512  0.60203654  1
  O  O12  1  0.31944710  0.63521326  0.03652132  1
  O  O13  1  0.18055290  0.13521326  0.46347868  1
  O  O14  1  0.68055290  0.36478674  0.96347868  1
  O  O15  1  0.81944710  0.86478674  0.53652132  1
  O  O16  1  0.19455291  0.59120841  0.16178713  1
  O  O17  1  0.30544709  0.09120841  0.33821287  1
  O  O18  1  0.80544709  0.40879159  0.83821287  1
  O  O19  1  0.69455291  0.90879159  0.66178713  1
  O  O20  1  0.03013082  0.78067709  0.24908714  1
  O  O21  1  0.46986918  0.28067709  0.25091286  1
  O  O22  1  0.96986918  0.21932291  0.75091286  1
  O  O23  1  0.53013082  0.71932291  0.74908714  1
  O  O24  1  0.61262186  0.00591847  0.25001349  1
  O  O25  1  0.88737814  0.50591847  0.24998651  1
  O  O26  1  0.38737814  0.99408153  0.74998651  1
  O  O27  1  0.11262186  0.49408153  0.75001349  1
  O  O28  1  0.13838597  0.08373865  0.20514135  1
  O  O29  1  0.36161403  0.58373865  0.29485865  1
  O  O30  1  0.86161403  0.91626135  0.79485865  1
  O  O31  1  0.63838597  0.41626135  0.70514135  1
loop_
_geom_bond_atom_site_label_1
_geom_bond_atom_site_label_2
_geom_bond_distance
_geom_bond_site_symmetry_2
Cs0 O0 3.056638 1_555
Cs0 O14 3.097200 1_554
Cs0 O14 3.129923 1_454
Cs0 O12 3.155431 1_555
Cs0 O16 3.284100 1_555
Cs0 O28 3.288756 1_555
Cs0 O0 3.399396 1_455
Cs0 O10 3.428130 1_454
Cs0 O21 3.612375 1_555
Cs1 O1 3.056638 1_455
Cs1 O15 3.097200 1_455
Cs1 O15 3.129923 1_555
Cs1 O13 3.155431 1_565
Cs1 O17 3.284100 1_565
Cs1 O29 3.288756 1_555
Cs1 O1 3.399396 1_555
Cs1 O11 3.428130 1_555
Cs1 O20 3.612375 1_555
Cs2 O2 3.056638 1_555
Cs2 O12 3.097200 1_556
Cs2 O12 3.129923 1_656
Cs2 O14 3.155431 1_555
Cs2 O18 3.284100 1_555
Cs2 O30 3.288756 1_555
Cs2 O2 3.399396 1_655
Cs2 O8 3.428130 1_656
Cs2 O23 3.612375 1_555
Cs3 O3 3.056638 1_655
Cs3 O13 3.097200 1_655
Cs3 O13 3.129923 1_555
Cs3 O15 3.155431 1_545
Cs3 O19 3.284100 1_545
Cs3 O31 3.288756 1_555
Cs3 O3 3.399396 1_555
Cs3 O9 3.428130 1_555
Cs3 O22 3.612375 1_555
Nb0 O0 1.752823 1_565
Nb0 O4 2.021116 1_555
Nb0 O24 2.033070 1_565
Nb0 O28 2.038701 1_665
Nb0 O8 2.044288 1_655
Nb0 O20 2.260021 1_655
Nb1 O1 1.752823 1_555
Nb1 O5 2.021116 1_555
Nb1 O25 2.033070 1_555
Nb1 O29 2.038701 1_555
Nb1 O9 2.044288 1_555
Nb1 O21 2.260021 1_555
Nb2 O2 1.752823 1_545
Nb2 O6 2.021116 1_555
Nb2 O26 2.033070 1_545
Nb2 O30 2.038701 1_445
Nb2 O10 2.044288 1_455
Nb2 O22 2.260021 1_455
Nb3 O3 1.752823 1_555
Nb3 O7 2.021116 1_555
Nb3 O27 2.033070 1_555
Nb3 O31 2.038701 1_555
Nb3 O11 2.044288 1_555
Nb3 O23 2.260021 1_555
O4 P0 1.528538 1_555
O5 P1 1.528538 1_655
O6 P2 1.528538 1_555
O7 P3 1.528538 1_455
O8 P0 1.535913 1_555
O9 P1 1.535913 1_555
O10 P2 1.535913 1_555
O11 P3 1.535913 1_555
O12 P0 1.470034 1_555
O13 P1 1.470034 1_555
O14 P2 1.470034 1_555
O15 P3 1.470034 1_555
O16 P4 1.593611 1_555
O16 P0 1.618525 1_555
O17 P5 1.593611 1_555
O17 P1 1.618525 1_555
O18 P6 1.593611 1_555
O18 P2 1.618525 1_555
O19 P7 1.593611 1_555
O19 P3 1.618525 1_555
O20 P4 1.494616 1_555
O21 P5 1.494616 1_555
O22 P6 1.494616 1_555
O23 P7 1.494616 1_555
O24 P5 1.523975 1_555
O25 P4 1.523975 1_655
O26 P7 1.523975 1_555
O27 P6 1.523975 1_455
O28 P5 1.521071 1_555
O29 P4 1.521071 1_555
O30 P7 1.521071 1_555
O31 P6 1.521071 1_555
