# generated using pymatgen
data_H12W3C4NCl9
_symmetry_space_group_name_H-M   'P 1'
_cell_length_a   11.11935260
_cell_length_b   11.11935260
_cell_length_c   8.77731400
_cell_angle_alpha   90.00000000
_cell_angle_beta   90.00000000
_cell_angle_gamma   120.00000358
_symmetry_Int_Tables_number   1
_chemical_formula_structural   H12W3C4NCl9
_chemical_formula_sum   'H24 W6 C8 N2 Cl18'
_cell_volume   939.83422343
_cell_formula_units_Z   2
loop_
 _symmetry_equiv_pos_site_id
 _symmetry_equiv_pos_as_xyz
  1  'x, y, z'
loop_
 _atom_site_type_symbol
 _atom_site_label
 _atom_site_symmetry_multiplicity
 _atom_site_fract_x
 _atom_site_fract_y
 _atom_site_fract_z
 _atom_site_occupancy
  H  H0  1  0.86646700  0.35237800  0.67909100  1
  H  H1  1  0.86646700  0.51408900  0.67909100  1
  H  H2  1  0.72049400  0.27950600  0.90679500  1
  H  H3  1  0.40576600  0.81153200  0.48752000  1
  H  H4  1  0.64762200  0.51408900  0.67909100  1
  H  H5  1  0.40576600  0.59423400  0.48752000  1
  H  H6  1  0.72049400  0.44098800  0.90679500  1
  H  H7  1  0.59423400  0.40576600  0.51248000  1
  H  H8  1  0.35237800  0.86646700  0.32090900  1
  H  H9  1  0.51408900  0.86646700  0.32090900  1
  H  H10  1  0.55901200  0.27950600  0.90679500  1
  H  H11  1  0.13353300  0.48591100  0.32090900  1
  H  H12  1  0.48591100  0.35237800  0.67909100  1
  H  H13  1  0.18846800  0.59423400  0.48752000  1
  H  H14  1  0.27950600  0.72049400  0.09320500  1
  H  H15  1  0.13353300  0.64762200  0.32090900  1
  H  H16  1  0.44098800  0.72049400  0.09320500  1
  H  H17  1  0.59423400  0.18846800  0.51248000  1
  H  H18  1  0.35237800  0.48591100  0.32090900  1
  H  H19  1  0.81153200  0.40576600  0.51248000  1
  H  H20  1  0.64762200  0.13353300  0.67909100  1
  H  H21  1  0.51408900  0.64762200  0.32090900  1
  H  H22  1  0.27950600  0.55901200  0.09320500  1
  H  H23  1  0.48591100  0.13353300  0.67909100  1
  W  W0  1  0.91137000  0.08863000  0.13109300  1
  W  W1  1  0.91137000  0.82274100  0.13109300  1
  W  W2  1  0.17725900  0.08863000  0.13109300  1
  W  W3  1  0.08863000  0.17725900  0.86890700  1
  W  W4  1  0.08863000  0.91137000  0.86890700  1
  W  W5  1  0.82274100  0.91137000  0.86890700  1
  C  C0  1  0.40690900  0.81381800  0.36269900  1
  C  C1  1  0.40690900  0.59309100  0.36269900  1
  C  C2  1  0.33333300  0.66666700  0.13349800  1
  C  C3  1  0.81381800  0.40690900  0.63730100  1
  C  C4  1  0.18618200  0.59309100  0.36269900  1
  C  C5  1  0.59309100  0.18618200  0.63730100  1
  C  C6  1  0.66666700  0.33333300  0.86650200  1
  C  C7  1  0.59309100  0.40690900  0.63730100  1
  N  N0  1  0.66666700  0.33333300  0.69499100  1
  N  N1  1  0.33333300  0.66666700  0.30500900  1
  Cl  Cl0  1  0.61569400  0.80784700  0.70551500  1
  Cl  Cl1  1  0.69086900  0.00000000  0.00000000  1
  Cl  Cl2  1  0.19215300  0.38430600  0.70551500  1
  Cl  Cl3  1  0.00000000  0.69086900  0.00000000  1
  Cl  Cl4  1  0.79837300  0.89918600  0.30823200  1
  Cl  Cl5  1  0.80784700  0.61569400  0.29448500  1
  Cl  Cl6  1  0.80784700  0.19215300  0.29448500  1
  Cl  Cl7  1  0.38430600  0.19215300  0.29448500  1
  Cl  Cl8  1  0.19215300  0.80784700  0.70551500  1
  Cl  Cl9  1  0.89918600  0.79837300  0.69176800  1
  Cl  Cl10  1  0.10081400  0.89918600  0.30823200  1
  Cl  Cl11  1  0.00000000  0.30913100  0.00000000  1
  Cl  Cl12  1  0.69086900  0.69086900  0.00000000  1
  Cl  Cl13  1  0.20162700  0.10081400  0.69176800  1
  Cl  Cl14  1  0.10081400  0.20162700  0.30823200  1
  Cl  Cl15  1  0.30913100  0.00000000  0.00000000  1
  Cl  Cl16  1  0.30913100  0.30913100  0.00000000  1
  Cl  Cl17  1  0.89918600  0.10081400  0.69176800  1
loop_
_geom_bond_atom_site_label_1
_geom_bond_atom_site_label_2
_geom_bond_distance
_geom_bond_site_symmetry_2
C0 H9 1.095397 1_555
C0 H8 1.095397 1_555
C0 H3 1.095814 1_555
C0 N1 1.504767 1_555
C1 H21 1.095397 1_555
C1 H18 1.095397 1_555
C1 H5 1.095814 1_555
C1 N1 1.504777 1_555
C2 H14 1.095337 1_555
C2 H16 1.095346 1_555
C2 H22 1.095346 1_555
C2 N1 1.505406 1_555
C3 H1 1.095397 1_555
C3 H0 1.095397 1_555
C3 H19 1.095814 1_555
C3 N0 1.504767 1_555
C4 H11 1.095397 1_555
C4 H15 1.095397 1_555
C4 H13 1.095814 1_555
C4 N1 1.504767 1_555
C5 H23 1.095397 1_555
C5 H20 1.095397 1_555
C5 H17 1.095814 1_555
C5 N0 1.504767 1_555
C6 H2 1.095337 1_555
C6 H6 1.095346 1_555
C6 H10 1.095346 1_555
C6 N0 1.505406 1_555
C7 H4 1.095397 1_555
C7 H12 1.095397 1_555
C7 H7 1.095814 1_555
C7 N0 1.504777 1_555
Cl0 W5 2.456004 1_555
Cl1 W0 2.427009 1_555
Cl1 W5 2.427018 1_544
Cl2 W3 2.456004 1_555
Cl3 W4 2.427009 1_554
Cl3 W1 2.427018 1_455
Cl4 W1 2.405542 1_555
Cl4 W0 2.405556 1_565
Cl5 W1 2.456004 1_555
Cl6 W0 2.455997 1_555
Cl7 W2 2.456004 1_555
Cl8 W4 2.455997 1_555
Cl9 W5 2.405542 1_555
Cl9 W4 2.405556 1_655
Cl10 W2 2.405558 1_565
Cl10 W1 2.405558 1_455
Cl11 W0 2.427009 1_455
Cl11 W3 2.427018 1_554
Cl12 W1 2.427010 1_555
Cl12 W5 2.427010 1_554
Cl13 W3 2.405542 1_555
Cl13 W4 2.405556 1_545
Cl14 W2 2.405542 1_555
Cl14 W0 2.405556 1_455
Cl15 W4 2.427009 1_544
Cl15 W2 2.427018 1_555
Cl16 W2 2.427010 1_555
Cl16 W3 2.427010 1_554
Cl17 W5 2.405558 1_545
Cl17 W3 2.405558 1_655
