# generated using pymatgen
data_Hg9P5I6
_symmetry_space_group_name_H-M   'P 1'
_cell_length_a   12.57600991
_cell_length_b   13.28932848
_cell_length_c   17.40280257
_cell_angle_alpha   60.14570601
_cell_angle_beta   90.00000000
_cell_angle_gamma   90.00000000
_symmetry_Int_Tables_number   1
_chemical_formula_structural   Hg9P5I6
_chemical_formula_sum   'Hg36 P20 I24'
_cell_volume   2522.50192289
_cell_formula_units_Z   4
loop_
 _symmetry_equiv_pos_site_id
 _symmetry_equiv_pos_as_xyz
  1  'x, y, z'
loop_
 _atom_site_type_symbol
 _atom_site_label
 _atom_site_symmetry_multiplicity
 _atom_site_fract_x
 _atom_site_fract_y
 _atom_site_fract_z
 _atom_site_occupancy
  Hg  Hg0  1  0.89767942  0.75936085  0.26331058  1
  Hg  Hg1  1  0.18075793  0.64827518  0.27503154  1
  Hg  Hg2  1  0.47564209  0.59660509  0.42931692  1
  Hg  Hg3  1  0.09985477  0.12621807  0.28774529  1
  Hg  Hg4  1  0.52435791  0.40339491  0.57068308  1
  Hg  Hg5  1  0.44177482  0.55704471  0.19602717  1
  Hg  Hg6  1  0.72754876  0.78833415  0.53617583  1
  Hg  Hg7  1  0.67832290  0.10126186  0.68754770  1
  Hg  Hg8  1  0.40014523  0.12621807  0.78774529  1
  Hg  Hg9  1  0.10232058  0.24063915  0.73668942  1
  Hg  Hg10  1  0.17658865  0.87992118  0.55116802  1
  Hg  Hg11  1  0.90014523  0.87378193  0.71225471  1
  Hg  Hg12  1  0.82341135  0.12007882  0.44883198  1
  Hg  Hg13  1  0.02435791  0.59660509  0.92931692  1
  Hg  Hg14  1  0.77245124  0.78833415  0.03617583  1
  Hg  Hg15  1  0.32167710  0.89873814  0.31245230  1
  Hg  Hg16  1  0.17832290  0.89873814  0.81245230  1
  Hg  Hg17  1  0.67658865  0.12007882  0.94883198  1
  Hg  Hg18  1  0.59985477  0.87378193  0.21225471  1
  Hg  Hg19  1  0.60232058  0.75936085  0.76331058  1
  Hg  Hg20  1  0.05822518  0.55704471  0.69602717  1
  Hg  Hg21  1  0.32341135  0.87992118  0.05116802  1
  Hg  Hg22  1  0.97564209  0.40339491  0.07068308  1
  Hg  Hg23  1  0.50000000  0.00000000  0.50000000  1
  Hg  Hg24  1  0.68075793  0.35172482  0.22496846  1
  Hg  Hg25  1  0.27245124  0.21166585  0.46382417  1
  Hg  Hg26  1  0.55822518  0.44295529  0.80397283  1
  Hg  Hg27  1  0.39767942  0.24063915  0.23668942  1
  Hg  Hg28  1  0.82167710  0.10126186  0.18754770  1
  Hg  Hg29  1  0.22754876  0.21166585  0.96382417  1
  Hg  Hg30  1  0.81924207  0.35172482  0.72496846  1
  Hg  Hg31  1  0.31924207  0.64827518  0.77503154  1
  Hg  Hg32  1  0.00000000  0.00000000  -0.00000000  1
  Hg  Hg33  1  0.94177482  0.44295529  0.30397283  1
  Hg  Hg34  1  0.50000000  0.50000000  -0.00000000  1
  Hg  Hg35  1  0.00000000  0.50000000  0.50000000  1
  P  P0  1  0.00627162  0.58593138  0.34096905  1
  P  P1  1  0.99372838  0.41406862  0.65903095  1
  P  P2  1  0.14626167  0.71545979  0.70390354  1
  P  P3  1  0.85373833  0.28454021  0.29609646  1
  P  P4  1  0.30813935  0.03185534  0.46029051  1
  P  P5  1  0.64626167  0.28454021  0.79609646  1
  P  P6  1  0.49372838  0.58593138  0.84096905  1
  P  P7  1  0.19186065  0.03185534  0.96029051  1
  P  P8  1  0.28580357  0.07142510  0.32475061  1
  P  P9  1  0.06253298  0.77130625  0.78533579  1
  P  P10  1  0.50627162  0.41406862  0.15903095  1
  P  P11  1  0.21419643  0.07142510  0.82475061  1
  P  P12  1  0.93746702  0.22869375  0.21466421  1
  P  P13  1  0.69186065  0.96814466  0.53970949  1
  P  P14  1  0.35373833  0.71545979  0.20390354  1
  P  P15  1  0.80813935  0.96814466  0.03970949  1
  P  P16  1  0.71419643  0.92857490  0.67524939  1
  P  P17  1  0.43746702  0.77130625  0.28533579  1
  P  P18  1  0.78580357  0.92857490  0.17524939  1
  P  P19  1  0.56253298  0.22869375  0.71466421  1
  I  I0  1  0.81021178  0.61330443  0.72487831  1
  I  I1  1  0.51104294  0.29405728  0.40663822  1
  I  I2  1  0.18978822  0.38669557  0.27512169  1
  I  I3  1  0.75139413  0.66024331  0.45448851  1
  I  I4  1  0.01104294  0.70594272  0.09336178  1
  I  I5  1  0.31021178  0.38669557  0.77512169  1
  I  I6  1  0.68978822  0.61330443  0.22487831  1
  I  I7  1  0.02290961  0.09221025  0.56099606  1
  I  I8  1  0.25139413  0.33975669  0.04551149  1
  I  I9  1  0.88492839  0.04780228  0.80692708  1
  I  I10  1  0.28156128  0.68748065  0.97421367  1
  I  I11  1  0.47709039  0.09221025  0.06099606  1
  I  I12  1  0.21843872  0.68748065  0.47421367  1
  I  I13  1  0.38492839  0.95219772  0.69307292  1
  I  I14  1  0.11507161  0.95219772  0.19307292  1
  I  I15  1  0.74860587  0.66024331  0.95448851  1
  I  I16  1  0.61507161  0.04780228  0.30692708  1
  I  I17  1  0.24860587  0.33975669  0.54551149  1
  I  I18  1  0.97709039  0.90778975  0.43900394  1
  I  I19  1  0.78156128  0.31251935  0.52578633  1
  I  I20  1  0.98895706  0.29405728  0.90663822  1
  I  I21  1  0.52290961  0.90778975  0.93900394  1
  I  I22  1  0.48895706  0.70594272  0.59336178  1
  I  I23  1  0.71843872  0.31251935  0.02578633  1
loop_
_geom_bond_atom_site_label_1
_geom_bond_atom_site_label_2
_geom_bond_distance
_geom_bond_site_symmetry_2
Hg0 P0 2.429471 1_655
Hg0 P18 2.440064 1_555
Hg1 P0 2.423178 1_555
Hg1 P14 2.441607 1_555
Hg2 P17 2.471299 1_555
Hg2 Hg4 2.594522 1_555
Hg3 P12 2.432751 1_455
Hg3 P8 2.438573 1_555
Hg3 I18 3.182990 1_445
Hg4 P19 2.471299 1_555
Hg5 P10 2.429111 1_555
Hg5 P14 2.442100 1_555
Hg5 I6 3.303498 1_555
Hg6 P13 2.462015 1_555
Hg6 I3 2.723543 1_555
Hg6 I0 3.109752 1_555
Hg6 I22 3.179246 1_555
Hg7 P16 2.450485 1_545
Hg7 P19 2.450850 1_555
Hg7 I19 3.102235 1_555
Hg7 I9 3.178434 1_555
Hg8 P19 2.432751 1_555
Hg8 P11 2.438573 1_555
Hg8 I21 3.182990 1_545
Hg9 P1 2.429471 1_455
Hg9 P11 2.440064 1_555
Hg10 P4 2.477053 1_565
Hg10 P2 2.490703 1_555
Hg10 I18 3.085798 1_455
Hg11 P9 2.432751 1_655
Hg11 P16 2.438573 1_555
Hg11 I7 3.182990 1_665
Hg12 P13 2.477053 1_545
Hg12 P3 2.490703 1_555
Hg12 I7 3.085798 1_655
Hg13 P9 2.471299 1_555
Hg13 Hg22 2.594522 1_456
Hg14 P15 2.462015 1_555
Hg14 I15 2.723543 1_554
Hg14 I6 3.109752 1_555
Hg14 I4 3.179246 1_655
Hg15 P8 2.450485 1_565
Hg15 P17 2.450850 1_555
Hg15 I12 3.102235 1_555
Hg15 I14 3.178434 1_555
Hg16 P11 2.450485 1_565
Hg16 P9 2.450850 1_555
Hg16 I10 3.102235 1_555
Hg16 I13 3.178434 1_555
Hg17 P15 2.477053 1_546
Hg17 P5 2.490703 1_555
Hg17 I11 3.085798 1_556
Hg18 P17 2.432751 1_555
Hg18 P18 2.438573 1_555
Hg18 I11 3.182990 1_565
Hg19 P6 2.429471 1_555
Hg19 P16 2.440064 1_555
Hg20 P1 2.429111 1_455
Hg20 P2 2.442100 1_555
Hg20 I0 3.303498 1_455
Hg21 P7 2.477053 1_564
Hg21 P14 2.490703 1_555
Hg21 I21 3.085798 1_554
Hg22 P12 2.471299 1_555
Hg23 P13 2.487432 1_545
Hg23 P4 2.487432 1_555
Hg23 I22 3.407188 1_545
Hg23 I1 3.407188 1_555
Hg23 I16 3.415021 1_555
Hg23 I13 3.415021 1_545
Hg24 P10 2.423178 1_555
Hg24 P3 2.441607 1_555
Hg25 P4 2.462015 1_555
Hg25 I17 2.723543 1_555
Hg25 I2 3.109752 1_555
Hg25 I1 3.179246 1_555
Hg26 P6 2.429111 1_555
Hg26 P5 2.442100 1_555
Hg26 I5 3.303498 1_555
Hg27 P10 2.429471 1_555
Hg27 P8 2.440064 1_555
Hg28 P18 2.450485 1_545
Hg28 P12 2.450850 1_555
Hg28 I23 3.102235 1_555
Hg28 I16 3.178434 1_555
Hg29 P7 2.462015 1_555
Hg29 I8 2.723543 1_556
Hg29 I5 3.109752 1_555
Hg29 I20 3.179246 1_455
Hg30 P1 2.423178 1_555
Hg30 P5 2.441607 1_555
Hg31 P6 2.423178 1_555
Hg31 P2 2.441607 1_555
Hg32 P15 2.487432 1_445
Hg32 P7 2.487432 1_554
Hg32 I4 3.407188 1_545
Hg32 I20 3.407188 1_454
Hg32 I9 3.415021 1_454
Hg32 I14 3.415021 1_545
Hg33 P0 2.429111 1_655
Hg33 P3 2.442100 1_555
Hg33 I2 3.303498 1_655
Hg34 P10 2.413146 1_555
Hg34 P6 2.413146 1_554
Hg35 P0 2.413146 1_555
Hg35 P1 2.413146 1_455
P2 P9 2.171402 1_555
P4 P8 2.164332 1_555
P11 P7 2.164332 1_555
P12 P3 2.171402 1_555
P13 P16 2.164332 1_555
P14 P17 2.171402 1_555
P15 P18 2.164332 1_555
P19 P5 2.171402 1_555
