# generated using pymatgen
data_ZrP2NCl11
_symmetry_space_group_name_H-M   'P 1'
_cell_length_a   11.09999173
_cell_length_b   11.09999173
_cell_length_c   16.27777900
_cell_angle_alpha   90.00000000
_cell_angle_beta   90.00000000
_cell_angle_gamma   114.23704138
_symmetry_Int_Tables_number   1
_chemical_formula_structural   ZrP2NCl11
_chemical_formula_sum   'Zr4 P8 N4 Cl44'
_cell_volume   1828.79994855
_cell_formula_units_Z   4
loop_
 _symmetry_equiv_pos_site_id
 _symmetry_equiv_pos_as_xyz
  1  'x, y, z'
loop_
 _atom_site_type_symbol
 _atom_site_label
 _atom_site_symmetry_multiplicity
 _atom_site_fract_x
 _atom_site_fract_y
 _atom_site_fract_z
 _atom_site_occupancy
  Zr  Zr0  1  0.35204400  0.35204400  0.06638500  1
  Zr  Zr1  1  0.14795600  0.14795600  0.56638500  1
  Zr  Zr2  1  0.64795600  0.64795600  0.93361500  1
  Zr  Zr3  1  0.85204400  0.85204400  0.43361500  1
  P  P0  1  0.80156900  0.19565100  0.18325500  1
  P  P1  1  0.30434900  0.69843100  0.68325500  1
  P  P2  1  0.19843100  0.80434900  0.81674500  1
  P  P3  1  0.69565100  0.30156900  0.31674500  1
  P  P4  1  0.19565100  0.80156900  0.18325500  1
  P  P5  1  0.69843100  0.30434900  0.68325500  1
  P  P6  1  0.80434900  0.19843100  0.81674500  1
  P  P7  1  0.30156900  0.69565100  0.31674500  1
  N  N0  1  0.29765900  0.79765900  0.75000000  1
  N  N1  1  0.20234100  0.70234100  0.25000000  1
  N  N2  1  0.79765900  0.29765900  0.75000000  1
  N  N3  1  0.70234100  0.20234100  0.25000000  1
  Cl  Cl0  1  0.29263700  0.52887200  0.72904400  1
  Cl  Cl1  1  0.92682100  0.92682100  0.58616500  1
  Cl  Cl2  1  0.97432000  0.27886200  0.87554800  1
  Cl  Cl3  1  0.47432000  0.77886200  0.62445200  1
  Cl  Cl4  1  0.20736300  0.97112800  0.22904400  1
  Cl  Cl5  1  0.84653500  0.33614500  0.09882900  1
  Cl  Cl6  1  0.79263700  0.02887200  0.77095600  1
  Cl  Cl7  1  0.52887200  0.29263700  0.72904400  1
  Cl  Cl8  1  0.02568000  0.72113800  0.12445200  1
  Cl  Cl9  1  0.77886200  0.47432000  0.62445200  1
  Cl  Cl10  1  0.65346500  0.16385500  0.59882900  1
  Cl  Cl11  1  0.83184400  0.83184400  0.28548600  1
  Cl  Cl12  1  0.22113800  0.52568000  0.37554800  1
  Cl  Cl13  1  0.57317900  0.57317900  0.08616500  1
  Cl  Cl14  1  0.70736300  0.47112800  0.27095600  1
  Cl  Cl15  1  0.77512900  0.51137300  0.93883300  1
  Cl  Cl16  1  0.51137300  0.77512900  0.93883300  1
  Cl  Cl17  1  0.16385500  0.65346500  0.59882900  1
  Cl  Cl18  1  0.83614500  0.34653500  0.40117100  1
  Cl  Cl19  1  0.01137300  0.27512900  0.56116700  1
  Cl  Cl20  1  0.98862700  0.72487100  0.43883300  1
  Cl  Cl21  1  0.72487100  0.98862700  0.43883300  1
  Cl  Cl22  1  0.42682100  0.42682100  0.91383500  1
  Cl  Cl23  1  0.33184400  0.33184400  0.21451400  1
  Cl  Cl24  1  0.52568000  0.22113800  0.37554800  1
  Cl  Cl25  1  0.02887200  0.79263700  0.77095600  1
  Cl  Cl26  1  0.66815600  0.66815600  0.78548600  1
  Cl  Cl27  1  0.66385500  0.15346500  0.90117100  1
  Cl  Cl28  1  0.72113800  0.02568000  0.12445200  1
  Cl  Cl29  1  0.16815600  0.16815600  0.71451400  1
  Cl  Cl30  1  0.22487100  0.48862700  0.06116700  1
  Cl  Cl31  1  0.33614500  0.84653500  0.09882900  1
  Cl  Cl32  1  0.27512900  0.01137300  0.56116700  1
  Cl  Cl33  1  0.07317900  0.07317900  0.41383500  1
  Cl  Cl34  1  0.66016700  0.66016700  0.47468300  1
  Cl  Cl35  1  0.48862700  0.22487100  0.06116700  1
  Cl  Cl36  1  0.16016700  0.16016700  0.02531700  1
  Cl  Cl37  1  0.33983300  0.33983300  0.52531700  1
  Cl  Cl38  1  0.27886200  0.97432000  0.87554800  1
  Cl  Cl39  1  0.97112800  0.20736300  0.22904400  1
  Cl  Cl40  1  0.34653500  0.83614500  0.40117100  1
  Cl  Cl41  1  0.47112800  0.70736300  0.27095600  1
  Cl  Cl42  1  0.83983300  0.83983300  0.97468300  1
  Cl  Cl43  1  0.15346500  0.66385500  0.90117100  1
loop_
_geom_bond_atom_site_label_1
_geom_bond_atom_site_label_2
_geom_bond_distance
_geom_bond_site_symmetry_2
N0 P1 1.570417 1_555
N0 P2 1.570417 1_555
N1 P4 1.570417 1_555
N1 P7 1.570417 1_555
N2 P5 1.570417 1_555
N2 P6 1.570417 1_555
N3 P3 1.570417 1_555
N3 P0 1.570417 1_555
Cl0 P1 1.978349 1_555
Cl1 Zr3 2.641666 1_555
Cl1 Zr1 2.684594 1_665
Cl2 P6 1.972278 1_555
Cl3 P1 1.972278 1_555
Cl4 P4 1.978349 1_555
Cl5 P0 1.982588 1_555
Cl6 P6 1.978349 1_555
Cl7 P5 1.978349 1_555
Cl8 P4 1.972278 1_555
Cl9 P5 1.972278 1_555
Cl10 P5 1.982588 1_555
Cl11 Zr3 2.423471 1_555
Cl12 P7 1.972278 1_555
Cl13 Zr2 2.641666 1_554
Cl13 Zr0 2.684594 1_555
Cl14 P3 1.978349 1_555
Cl15 Zr2 2.460780 1_555
Cl16 Zr2 2.460780 1_555
Cl17 P1 1.982588 1_555
Cl18 P3 1.982588 1_555
Cl19 Zr1 2.460780 1_555
Cl20 Zr3 2.460780 1_555
Cl21 Zr3 2.460780 1_555
Cl22 Zr0 2.641666 1_556
Cl22 Zr2 2.684594 1_555
Cl23 Zr0 2.423471 1_555
Cl24 P3 1.972278 1_555
Cl25 P2 1.978349 1_555
Cl26 Zr2 2.423471 1_555
Cl27 P6 1.982588 1_555
Cl28 P0 1.972278 1_555
Cl29 Zr1 2.423471 1_555
Cl30 Zr0 2.460780 1_555
Cl31 P4 1.982588 1_555
Cl32 Zr1 2.460780 1_555
Cl33 Zr1 2.641666 1_555
Cl33 Zr3 2.684594 1_445
Cl34 Zr3 2.407268 1_555
Cl35 Zr0 2.460780 1_555
Cl36 Zr0 2.407268 1_555
Cl37 Zr1 2.407268 1_555
Cl38 P2 1.972278 1_555
Cl39 P0 1.978349 1_555
Cl40 P7 1.982588 1_555
Cl41 P7 1.978349 1_555
Cl42 Zr2 2.407268 1_555
Cl43 P2 1.982588 1_555
