# generated using pymatgen
data_Tb3CuSnS7
_symmetry_space_group_name_H-M   'P 1'
_cell_length_a   9.81897990
_cell_length_b   9.81897990
_cell_length_c   6.21324300
_cell_angle_alpha   90.00000000
_cell_angle_beta   90.00000000
_cell_angle_gamma   119.99999930
_symmetry_Int_Tables_number   1
_chemical_formula_structural   Tb3CuSnS7
_chemical_formula_sum   'Tb6 Cu2 Sn2 S14'
_cell_volume   518.77819727
_cell_formula_units_Z   2
loop_
 _symmetry_equiv_pos_site_id
 _symmetry_equiv_pos_as_xyz
  1  'x, y, z'
loop_
 _atom_site_type_symbol
 _atom_site_label
 _atom_site_symmetry_multiplicity
 _atom_site_fract_x
 _atom_site_fract_y
 _atom_site_fract_z
 _atom_site_occupancy
  Tb  Tb0  1  0.35916600  0.14908300  0.27272400  1
  Tb  Tb1  1  0.14908300  0.78991700  0.77272400  1
  Tb  Tb2  1  0.78991700  0.64083400  0.27272400  1
  Tb  Tb3  1  0.64083400  0.85091700  0.77272400  1
  Tb  Tb4  1  0.21008300  0.35916600  0.77272400  1
  Tb  Tb5  1  0.85091700  0.21008300  0.27272400  1
  Cu  Cu0  1  0.00000000  0.00000000  0.67375900  1
  Cu  Cu1  1  0.00000000  0.00000000  0.17375900  1
  Sn  Sn0  1  0.66666700  0.33333300  0.83849900  1
  Sn  Sn1  1  0.33333300  0.66666700  0.33849900  1
  S  S0  1  0.56335100  0.08252200  0.01948100  1
  S  S1  1  0.51917100  0.43664900  0.01948100  1
  S  S2  1  0.91747800  0.48082900  0.01948100  1
  S  S3  1  0.48082900  0.56335100  0.51948100  1
  S  S4  1  0.14785500  0.26122900  0.19984800  1
  S  S5  1  0.43664900  0.91747800  0.51948100  1
  S  S6  1  0.26122900  0.11337400  0.69984800  1
  S  S7  1  0.66666700  0.33333300  0.45278600  1
  S  S8  1  0.11337400  0.85214500  0.19984800  1
  S  S9  1  0.08252200  0.51917100  0.51948100  1
  S  S10  1  0.33333300  0.66666700  0.95278600  1
  S  S11  1  0.88662600  0.14785500  0.69984800  1
  S  S12  1  0.85214500  0.73877100  0.69984800  1
  S  S13  1  0.73877100  0.88662600  0.19984800  1
loop_
_geom_bond_atom_site_label_1
_geom_bond_atom_site_label_2
_geom_bond_distance
_geom_bond_site_symmetry_2
Cu0 S11 2.233688 1_455
Cu0 S6 2.233688 1_555
Cu0 S12 2.233688 1_445
Cu1 S8 2.233688 1_545
Cu1 S13 2.233688 1_445
Cu1 S4 2.233688 1_555
S0 Sn0 2.420787 1_554
S0 Tb0 2.869288 1_555
S0 Tb5 2.912165 1_555
S0 Tb3 3.135477 1_544
S1 Sn0 2.420795 1_554
S1 Tb2 2.869288 1_555
S1 Tb0 2.912165 1_555
S1 Tb4 3.135477 1_554
S2 Sn0 2.420788 1_554
S2 Tb5 2.869288 1_555
S2 Tb2 2.912165 1_555
S2 Tb1 3.135477 1_654
S3 Sn1 2.420795 1_555
S3 Tb4 2.869288 1_555
S3 Tb3 2.912165 1_555
S3 Tb2 3.135477 1_555
S4 Tb5 2.737496 1_455
S4 Tb4 2.784476 1_554
S4 Tb0 2.829729 1_555
S5 Sn1 2.420787 1_555
S5 Tb3 2.869288 1_555
S5 Tb1 2.912165 1_555
S5 Tb0 3.135477 1_565
S6 Tb4 2.737496 1_555
S6 Tb0 2.784476 1_555
S6 Tb1 2.829729 1_545
S7 Sn0 2.396529 1_555
S7 Tb5 2.859830 1_555
S7 Tb0 2.859837 1_555
S7 Tb2 2.859838 1_555
S8 Tb0 2.737496 1_565
S8 Tb1 2.784476 1_554
S8 Tb2 2.829729 1_455
S9 Sn1 2.420788 1_555
S9 Tb1 2.869288 1_555
S9 Tb4 2.912165 1_555
S9 Tb5 3.135477 1_455
S10 Sn1 2.396529 1_556
S10 Tb1 2.859830 1_555
S10 Tb3 2.859837 1_555
S10 Tb4 2.859838 1_555
S11 Tb3 2.737496 1_545
S11 Tb5 2.784476 1_555
S11 Tb4 2.829729 1_655
S12 Tb1 2.737496 1_655
S12 Tb2 2.784476 1_555
S12 Tb3 2.829729 1_555
S13 Tb2 2.737496 1_555
S13 Tb3 2.784476 1_554
S13 Tb5 2.829729 1_565
