# generated using pymatgen
data_Nb5Si3
_symmetry_space_group_name_H-M   'P 1'
_cell_length_a   5.09122222
_cell_length_b   7.56378145
_cell_length_c   7.56378219
_cell_angle_alpha   83.49637546
_cell_angle_beta   70.33165596
_cell_angle_gamma   70.33166942
_symmetry_Int_Tables_number   1
_chemical_formula_structural   Nb5Si3
_chemical_formula_sum   'Nb10 Si6'
_cell_volume   258.27669932
_cell_formula_units_Z   2
loop_
 _symmetry_equiv_pos_site_id
 _symmetry_equiv_pos_as_xyz
  1  'x, y, z'
loop_
 _atom_site_type_symbol
 _atom_site_label
 _atom_site_symmetry_multiplicity
 _atom_site_fract_x
 _atom_site_fract_y
 _atom_site_fract_z
 _atom_site_occupancy
  Nb  Nb0  1  0.57593957  0.70481511  0.14299948  1
  Nb  Nb1  1  0.71906768  0.85704762  0.70480803  1
  Nb  Nb2  1  0.42406043  0.29518489  0.85700052  1
  Nb  Nb3  1  0.25000000  0.50001027  0.49998973  1
  Nb  Nb4  1  0.92406043  0.85700052  0.29518489  1
  Nb  Nb5  1  0.78093232  0.29519197  0.14295238  1
  Nb  Nb6  1  0.28093232  0.14295238  0.29519197  1
  Nb  Nb7  1  0.07593957  0.14299948  0.70481511  1
  Nb  Nb8  1  0.21906768  0.70480803  0.85704762  1
  Nb  Nb9  1  0.75000000  0.49998973  0.50001027  1
  Si  Si0  1  0.16461791  0.49999168  0.17082923  1
  Si  Si1  1  0.25000000  0.00001148  0.99998852  1
  Si  Si2  1  0.75000000  0.99998852  0.00001148  1
  Si  Si3  1  0.66461791  0.17082923  0.49999168  1
  Si  Si4  1  0.33538209  0.82917077  0.50000832  1
  Si  Si5  1  0.83538209  0.50000832  0.82917077  1
loop_
_geom_bond_atom_site_label_1
_geom_bond_atom_site_label_2
_geom_bond_distance
_geom_bond_site_symmetry_2
Nb0 Si1 2.660120 1_564
Nb0 Si2 2.660698 1_555
Nb0 Si5 2.669098 1_554
Nb0 Si4 2.692620 1_555
Nb0 Si0 2.939920 1_555
Nb0 Si0 2.941469 1_655
Nb1 Si1 2.660211 1_565
Nb1 Si2 2.660370 1_556
Nb1 Si3 2.668900 1_565
Nb1 Si5 2.692873 1_555
Nb1 Si4 2.940491 1_655
Nb1 Si4 2.940769 1_555
Nb2 Si2 2.660120 1_546
Nb2 Si1 2.660698 1_555
Nb2 Si0 2.669098 1_556
Nb2 Si3 2.692620 1_555
Nb2 Si5 2.939920 1_555
Nb2 Si5 2.941469 1_455
Nb3 Nb9 2.545611 1_455
Nb3 Nb9 2.545611 1_555
Nb3 Si4 2.667623 1_555
Nb3 Si0 2.667623 1_555
Nb3 Si5 2.667836 1_455
Nb3 Si3 2.667836 1_555
Nb4 Si1 2.660120 1_664
Nb4 Si2 2.660699 1_555
Nb4 Si3 2.669097 1_565
Nb4 Si0 2.692620 1_655
Nb4 Si4 2.939921 1_655
Nb4 Si4 2.941469 1_555
Nb5 Si1 2.660211 1_654
Nb5 Si2 2.660370 1_545
Nb5 Si5 2.668900 1_554
Nb5 Si3 2.692873 1_555
Nb5 Si0 2.940491 1_555
Nb5 Si0 2.940769 1_655
Nb6 Si2 2.660211 1_545
Nb6 Si1 2.660370 1_554
Nb6 Si4 2.668900 1_545
Nb6 Si0 2.692873 1_555
Nb6 Si3 2.940491 1_455
Nb6 Si3 2.940769 1_555
Nb7 Si2 2.660120 1_446
Nb7 Si1 2.660699 1_555
Nb7 Si4 2.669097 1_545
Nb7 Si5 2.692620 1_455
Nb7 Si3 2.939921 1_455
Nb7 Si3 2.941469 1_555
Nb8 Si2 2.660211 1_456
Nb8 Si1 2.660370 1_565
Nb8 Si0 2.668900 1_556
Nb8 Si4 2.692873 1_555
Nb8 Si5 2.940491 1_555
Nb8 Si5 2.940769 1_455
Nb9 Si3 2.667623 1_555
Nb9 Si5 2.667623 1_555
Nb9 Si0 2.667836 1_655
Nb9 Si4 2.667836 1_555
Si1 Si2 2.545611 1_446
Si1 Si2 2.545611 1_546
