# generated using pymatgen
data_HgINO3
_symmetry_space_group_name_H-M   'P 1'
_cell_length_a   5.48516500
_cell_length_b   7.62655500
_cell_length_c   12.94684900
_cell_angle_alpha   90.00000000
_cell_angle_beta   90.00000000
_cell_angle_gamma   90.00000000
_symmetry_Int_Tables_number   1
_chemical_formula_structural   HgINO3
_chemical_formula_sum   'Hg4 I4 N4 O12'
_cell_volume   541.60440210
_cell_formula_units_Z   4
loop_
 _symmetry_equiv_pos_site_id
 _symmetry_equiv_pos_as_xyz
  1  'x, y, z'
loop_
 _atom_site_type_symbol
 _atom_site_label
 _atom_site_symmetry_multiplicity
 _atom_site_fract_x
 _atom_site_fract_y
 _atom_site_fract_z
 _atom_site_occupancy
  Hg  Hg0  1  0.75000000  0.07777600  0.78640300  1
  Hg  Hg1  1  0.25000000  0.42222400  0.28640300  1
  Hg  Hg2  1  0.25000000  0.92222400  0.21359700  1
  Hg  Hg3  1  0.75000000  0.57777600  0.71359700  1
  I  I0  1  0.75000000  0.38691400  0.89340800  1
  I  I1  1  0.25000000  0.11308600  0.39340800  1
  I  I2  1  0.75000000  0.88691400  0.60659200  1
  I  I3  1  0.25000000  0.61308600  0.10659200  1
  N  N0  1  0.25000000  0.93754300  0.85665100  1
  N  N1  1  0.25000000  0.43754300  0.64334900  1
  N  N2  1  0.75000000  0.56245700  0.35665100  1
  N  N3  1  0.75000000  0.06245700  0.14334900  1
  O  O0  1  0.04904200  0.87249700  0.88681400  1
  O  O1  1  0.54904200  0.12750300  0.11318600  1
  O  O2  1  0.95095800  0.62750300  0.38681400  1
  O  O3  1  0.75000000  0.93114800  0.20426100  1
  O  O4  1  0.45095800  0.37249700  0.61318600  1
  O  O5  1  0.95095800  0.12750300  0.11318600  1
  O  O6  1  0.54904200  0.62750300  0.38681400  1
  O  O7  1  0.25000000  0.56885200  0.70426100  1
  O  O8  1  0.04904200  0.37249700  0.61318600  1
  O  O9  1  0.45095800  0.87249700  0.88681400  1
  O  O10  1  0.75000000  0.43114800  0.29573900  1
  O  O11  1  0.25000000  0.06885200  0.79573900  1
loop_
_geom_bond_atom_site_label_1
_geom_bond_atom_site_label_2
_geom_bond_distance
_geom_bond_site_symmetry_2
Hg0 O9 2.613732 1_545
Hg0 O0 2.613732 1_645
Hg0 I0 2.734561 1_555
Hg0 I2 2.745605 1_545
Hg0 O11 2.746088 1_655
Hg0 O11 2.746088 1_555
Hg1 O6 2.613732 1_555
Hg1 O2 2.613732 1_455
Hg1 I1 2.734561 1_555
Hg1 I3 2.745605 1_555
Hg1 O10 2.746088 1_555
Hg1 O10 2.746088 1_455
Hg2 O1 2.613732 1_565
Hg2 O5 2.613732 1_465
Hg2 I3 2.734561 1_555
Hg2 I1 2.745605 1_565
Hg2 O3 2.746088 1_555
Hg2 O3 2.746088 1_455
Hg3 O4 2.613732 1_555
Hg3 O8 2.613732 1_655
Hg3 I2 2.734561 1_555
Hg3 I0 2.745605 1_555
Hg3 O7 2.746088 1_655
Hg3 O7 2.746088 1_555
N0 O0 1.270289 1_555
N0 O9 1.270289 1_555
N0 O11 1.274673 1_565
N1 O8 1.270289 1_555
N1 O4 1.270289 1_555
N1 O7 1.274673 1_555
N2 O2 1.270289 1_555
N2 O6 1.270289 1_555
N2 O10 1.274673 1_555
N3 O5 1.270289 1_555
N3 O1 1.270289 1_555
N3 O3 1.274673 1_545
