# generated using pymatgen
data_MnNiGe
_symmetry_space_group_name_H-M   'P 1'
_cell_length_a   4.14533575
_cell_length_b   4.14533575
_cell_length_c   5.39138600
_cell_angle_alpha   90.00000000
_cell_angle_beta   90.00000000
_cell_angle_gamma   119.99999609
_symmetry_Int_Tables_number   1
_chemical_formula_structural   MnNiGe
_chemical_formula_sum   'Mn2 Ni2 Ge2'
_cell_volume   80.23253238
_cell_formula_units_Z   2
loop_
 _symmetry_equiv_pos_site_id
 _symmetry_equiv_pos_as_xyz
  1  'x, y, z'
loop_
 _atom_site_type_symbol
 _atom_site_label
 _atom_site_symmetry_multiplicity
 _atom_site_fract_x
 _atom_site_fract_y
 _atom_site_fract_z
 _atom_site_occupancy
  Mn  Mn0  1  0.33333300  0.66666700  0.25000000  1
  Mn  Mn1  1  0.66666700  0.33333300  0.75000000  1
  Ni  Ni0  1  0.66666700  0.33333300  0.25000000  1
  Ni  Ni1  1  0.33333300  0.66666700  0.75000000  1
  Ge  Ge0  1  0.00000000  0.00000000  0.00000000  1
  Ge  Ge1  1  0.00000000  0.00000000  0.50000000  1
loop_
_geom_bond_atom_site_label_1
_geom_bond_atom_site_label_2
_geom_bond_distance
_geom_bond_site_symmetry_2
Mn0 Ni0 2.393308 1_565
Mn0 Ni0 2.393308 1_455
Mn0 Ni0 2.393315 1_555
Mn0 Ni1 2.695693 1_555
Mn0 Ni1 2.695693 1_554
Mn1 Ni1 2.393308 1_545
Mn1 Ni1 2.393308 1_655
Mn1 Ni1 2.393315 1_555
Mn1 Ni0 2.695693 1_556
Mn1 Ni0 2.695693 1_555
Ge0 Ge1 2.695693 1_555
Ge0 Ge1 2.695693 1_554
Ge0 Ni0 2.746746 1_455
Ge0 Mn0 2.746746 1_545
Ge0 Ni1 2.746746 1_544
Ge0 Mn1 2.746746 1_454
Ge0 Ni1 2.746749 1_554
Ge0 Ni0 2.746749 1_555
Ge0 Mn1 2.746749 1_554
Ge0 Ni0 2.746749 1_445
Ge0 Mn0 2.746749 1_555
Ge0 Ni1 2.746749 1_444
Ge0 Mn0 2.746749 1_445
Ge0 Mn1 2.746749 1_444
Ge1 Ni0 2.746746 1_455
Ge1 Mn0 2.746746 1_545
Ge1 Ni1 2.746746 1_545
Ge1 Mn1 2.746746 1_455
Ge1 Mn1 2.746749 1_445
Ge1 Mn1 2.746749 1_555
Ge1 Ni0 2.746749 1_555
Ge1 Ni0 2.746749 1_445
Ge1 Mn0 2.746749 1_555
Ge1 Ni1 2.746749 1_555
Ge1 Ni1 2.746749 1_445
Ge1 Mn0 2.746749 1_445
