# generated using pymatgen
data_HgB2(CN)8
_symmetry_space_group_name_H-M   'P 1'
_cell_length_a   7.94351853
_cell_length_b   7.94351853
_cell_length_c   6.09301300
_cell_angle_alpha   90.00000000
_cell_angle_beta   90.00000000
_cell_angle_gamma   120.00000445
_symmetry_Int_Tables_number   1
_chemical_formula_structural   HgB2(CN)8
_chemical_formula_sum   'Hg1 B2 C8 N8'
_cell_volume   332.95730169
_cell_formula_units_Z   1
loop_
 _symmetry_equiv_pos_site_id
 _symmetry_equiv_pos_as_xyz
  1  'x, y, z'
loop_
 _atom_site_type_symbol
 _atom_site_label
 _atom_site_symmetry_multiplicity
 _atom_site_fract_x
 _atom_site_fract_y
 _atom_site_fract_z
 _atom_site_occupancy
  Hg  Hg0  1  0.00000000  0.00000000  0.00000000  1
  B  B0  1  0.66666700  0.33333300  0.37095000  1
  B  B1  1  0.33333300  0.66666700  0.62905000  1
  C  C0  1  0.77547200  0.55094400  0.28306300  1
  C  C1  1  0.55094400  0.77547200  0.71693700  1
  C  C2  1  0.33333300  0.66666700  0.36885600  1
  C  C3  1  0.22452800  0.44905600  0.71693700  1
  C  C4  1  0.77547200  0.22452800  0.28306300  1
  C  C5  1  0.66666700  0.33333300  0.63114400  1
  C  C6  1  0.44905600  0.22452800  0.28306300  1
  C  C7  1  0.22452800  0.77547200  0.71693700  1
  N  N0  1  0.14441200  0.28882400  0.77692600  1
  N  N1  1  0.14441200  0.85558800  0.77692600  1
  N  N2  1  0.28882400  0.14441200  0.22307400  1
  N  N3  1  0.85558800  0.71117600  0.22307400  1
  N  N4  1  0.71117600  0.85558800  0.77692600  1
  N  N5  1  0.33333300  0.66666700  0.17757300  1
  N  N6  1  0.66666700  0.33333300  0.82242700  1
  N  N7  1  0.85558800  0.14441200  0.22307400  1
loop_
_geom_bond_atom_site_label_1
_geom_bond_atom_site_label_2
_geom_bond_distance
_geom_bond_site_symmetry_2
Hg0 N4 2.407320 1_444
Hg0 N3 2.407320 1_445
Hg0 N2 2.407320 1_555
Hg0 N0 2.407320 1_554
Hg0 N7 2.407320 1_455
Hg0 N1 2.407320 1_544
B0 C5 1.585365 1_555
B0 C4 1.589897 1_555
B0 C0 1.589903 1_555
B0 C6 1.589903 1_555
B1 C2 1.585365 1_555
B1 C7 1.589897 1_555
B1 C1 1.589903 1_555
B1 C3 1.589903 1_555
C0 N3 1.161304 1_555
C1 N4 1.161304 1_555
C2 N5 1.165490 1_555
C3 N0 1.161304 1_555
C4 N7 1.161304 1_555
C5 N6 1.165490 1_555
C6 N2 1.161304 1_555
C7 N1 1.161304 1_555
