# generated using pymatgen
data_CdI2
_symmetry_space_group_name_H-M   'P 1'
_cell_length_a   4.28781170
_cell_length_b   4.28781124
_cell_length_c   85.88705985
_cell_angle_alpha   89.99999871
_cell_angle_beta   90.00000138
_cell_angle_gamma   119.99987785
_symmetry_Int_Tables_number   1
_chemical_formula_structural   CdI2
_chemical_formula_sum   'Cd12 I24'
_cell_volume   1367.50922907
_cell_formula_units_Z   12
loop_
 _symmetry_equiv_pos_site_id
 _symmetry_equiv_pos_as_xyz
  1  'x, y, z'
loop_
 _atom_site_type_symbol
 _atom_site_label
 _atom_site_symmetry_multiplicity
 _atom_site_fract_x
 _atom_site_fract_y
 _atom_site_fract_z
 _atom_site_occupancy
  Cd  Cd0  1  0.33333300  0.66666700  0.77087025  1
  Cd  Cd1  1  0.33333300  0.66666700  0.02077091  1
  Cd  Cd2  1  0.66666700  0.33333300  0.52077091  1
  Cd  Cd3  1  0.66666700  0.33333300  0.93670819  1
  Cd  Cd4  1  0.33333300  0.66666700  0.18820916  1
  Cd  Cd5  1  0.66666700  0.33333300  0.27087025  1
  Cd  Cd6  1  0.66666700  0.33333300  0.68820916  1
  Cd  Cd7  1  0.33333300  0.66666700  0.35349562  1
  Cd  Cd8  1  0.66666700  0.33333300  0.10499561  1
  Cd  Cd9  1  0.33333300  0.66666700  0.60499561  1
  Cd  Cd10  1  0.33333300  0.66666700  0.43670819  1
  Cd  Cd11  1  0.66666700  0.33333300  0.85349562  1
  I  I0  1  0.66666700  0.33333300  0.58492086  1
  I  I1  1  0.33333300  0.66666700  0.91664780  1
  I  I2  1  0.66666700  0.33333300  0.33352307  1
  I  I3  1  -0.00000000  0.00000000  0.29089056  1
  I  I4  1  -0.00000000  0.00000000  0.04086081  1
  I  I5  1  0.33333300  0.66666700  0.08492086  1
  I  I6  1  -0.00000000  0.00000000  0.95675360  1
  I  I7  1  -0.00000000  0.00000000  0.79089056  1
  I  I8  1  0.66666700  0.33333300  0.75081868  1
  I  I9  1  -0.00000000  0.00000000  0.54086081  1
  I  I10  1  -0.00000000  0.00000000  0.70817841  1
  I  I11  1  0.33333300  0.66666700  0.66824130  1
  I  I12  1  -0.00000000  0.00000000  0.87344416  1
  I  I13  1  -0.00000000  0.00000000  0.62503704  1
  I  I14  1  -0.00000000  0.00000000  0.45675360  1
  I  I15  1  0.33333300  0.66666700  0.50063297  1
  I  I16  1  0.66666700  0.33333300  0.41664780  1
  I  I17  1  0.33333300  0.66666700  0.83352307  1
  I  I18  1  -0.00000000  0.00000000  0.37344416  1
  I  I19  1  0.66666700  0.33333300  0.00063297  1
  I  I20  1  0.66666700  0.33333300  0.16824130  1
  I  I21  1  -0.00000000  0.00000000  0.20817841  1
  I  I22  1  0.33333300  0.66666700  0.25081868  1
  I  I23  1  -0.00000000  0.00000000  0.12503704  1
loop_
_geom_bond_atom_site_label_1
_geom_bond_atom_site_label_2
_geom_bond_distance
_geom_bond_site_symmetry_2
Cd0 I7 3.014142 1_565
Cd0 I7 3.014149 1_555
Cd0 I7 3.014149 1_665
Cd0 I8 3.015678 1_565
Cd0 I8 3.015678 1_455
Cd0 I8 3.015681 1_555
Cd1 I4 3.017556 1_565
Cd1 I4 3.017563 1_555
Cd1 I4 3.017563 1_665
Cd1 I19 3.019921 1_565
Cd1 I19 3.019921 1_455
Cd1 I19 3.019923 1_555
Cd2 I9 3.017556 1_655
Cd2 I9 3.017563 1_665
Cd2 I9 3.017563 1_555
Cd2 I15 3.019921 1_545
Cd2 I15 3.019921 1_655
Cd2 I15 3.019923 1_555
Cd3 I6 3.015372 1_655
Cd3 I6 3.015379 1_665
Cd3 I6 3.015379 1_555
Cd3 I1 3.016111 1_545
Cd3 I1 3.016111 1_655
Cd3 I1 3.016113 1_555
Cd4 I20 3.011578 1_565
Cd4 I20 3.011578 1_455
Cd4 I20 3.011581 1_555
Cd4 I21 3.011643 1_565
Cd4 I21 3.011649 1_555
Cd4 I21 3.011650 1_665
Cd5 I3 3.014142 1_655
Cd5 I3 3.014149 1_665
Cd5 I3 3.014149 1_555
Cd5 I22 3.015678 1_545
Cd5 I22 3.015679 1_655
Cd5 I22 3.015681 1_555
Cd6 I11 3.011578 1_545
Cd6 I11 3.011579 1_655
Cd6 I11 3.011581 1_555
Cd6 I10 3.011643 1_655
Cd6 I10 3.011649 1_665
Cd6 I10 3.011650 1_555
Cd7 I18 3.010630 1_565
Cd7 I18 3.010637 1_555
Cd7 I18 3.010637 1_665
Cd7 I2 3.011808 1_565
Cd7 I2 3.011808 1_455
Cd7 I2 3.011810 1_555
Cd8 I23 3.015177 1_655
Cd8 I23 3.015184 1_665
Cd8 I23 3.015184 1_555
Cd8 I5 3.016816 1_545
Cd8 I5 3.016816 1_655
Cd8 I5 3.016818 1_555
Cd9 I13 3.015177 1_565
Cd9 I13 3.015184 1_555
Cd9 I13 3.015184 1_665
Cd9 I0 3.016816 1_565
Cd9 I0 3.016816 1_455
Cd9 I0 3.016818 1_555
Cd10 I14 3.015373 1_565
Cd10 I14 3.015379 1_555
Cd10 I14 3.015379 1_665
Cd10 I16 3.016111 1_565
Cd10 I16 3.016111 1_455
Cd10 I16 3.016113 1_555
Cd11 I12 3.010630 1_655
Cd11 I12 3.010637 1_665
Cd11 I12 3.010637 1_555
Cd11 I17 3.011808 1_545
Cd11 I17 3.011808 1_655
Cd11 I17 3.011810 1_555
