# generated using pymatgen
data_Pu(SiIr)2
_symmetry_space_group_name_H-M   'P 1'
_cell_length_a   4.13358597
_cell_length_b   4.13358597
_cell_length_c   9.84578488
_cell_angle_alpha   90.00000000
_cell_angle_beta   90.00000000
_cell_angle_gamma   90.00000000
_symmetry_Int_Tables_number   1
_chemical_formula_structural   Pu(SiIr)2
_chemical_formula_sum   'Pu2 Si4 Ir4'
_cell_volume   168.23032798
_cell_formula_units_Z   2
loop_
 _symmetry_equiv_pos_site_id
 _symmetry_equiv_pos_as_xyz
  1  'x, y, z'
loop_
 _atom_site_type_symbol
 _atom_site_label
 _atom_site_symmetry_multiplicity
 _atom_site_fract_x
 _atom_site_fract_y
 _atom_site_fract_z
 _atom_site_occupancy
  Pu  Pu0  1  0.50000000  0.00000000  0.74588471  1
  Pu  Pu1  1  -0.00000000  0.50000000  0.25411529  1
  Si  Si0  1  0.50000000  -0.00000000  0.13033597  1
  Si  Si1  1  0.00000000  0.50000000  0.86966403  1
  Si  Si2  1  0.50000000  0.50000000  0.50000000  1
  Si  Si3  1  0.00000000  -0.00000000  0.50000000  1
  Ir  Ir0  1  0.50000000  0.00000000  0.37236288  1
  Ir  Ir1  1  -0.00000000  0.50000000  0.62763712  1
  Ir  Ir2  1  0.50000000  0.50000000  -0.00000000  1
  Ir  Ir3  1  0.00000000  -0.00000000  -0.00000000  1
loop_
_geom_bond_atom_site_label_1
_geom_bond_atom_site_label_2
_geom_bond_distance
_geom_bond_site_symmetry_2
Pu0 Si1 3.166782 1_555
Pu0 Si1 3.166782 1_545
Pu0 Si1 3.166782 1_655
Pu0 Si1 3.166782 1_645
Pu0 Si2 3.183163 1_545
Pu0 Si2 3.183163 1_555
Pu0 Si3 3.183163 1_555
Pu0 Si3 3.183163 1_655
Pu1 Si0 3.166782 1_555
Pu1 Si0 3.166782 1_455
Pu1 Si0 3.166782 1_565
Pu1 Si0 3.166782 1_465
Pu1 Si3 3.183163 1_565
Pu1 Si2 3.183163 1_555
Pu1 Si3 3.183163 1_555
Pu1 Si2 3.183163 1_455
Ir0 Si0 2.382945 1_555
Ir0 Si3 2.418863 1_655
Ir0 Si2 2.418863 1_545
Ir0 Si2 2.418863 1_555
Ir0 Si3 2.418863 1_555
Ir0 Pu1 3.146223 1_645
Ir0 Pu1 3.146223 1_555
Ir0 Pu1 3.146223 1_655
Ir0 Pu1 3.146223 1_545
Ir1 Si1 2.382945 1_555
Ir1 Si3 2.418863 1_555
Ir1 Si2 2.418863 1_455
Ir1 Si3 2.418863 1_565
Ir1 Si2 2.418863 1_555
Ir1 Pu0 3.146223 1_555
Ir1 Pu0 3.146223 1_565
Ir1 Pu0 3.146223 1_465
Ir1 Pu0 3.146223 1_455
Ir2 Si1 2.432774 1_654
Ir2 Si0 2.432774 1_565
Ir2 Si1 2.432774 1_554
Ir2 Si0 2.432774 1_555
Ir2 Pu1 3.245221 1_555
Ir2 Pu1 3.245221 1_655
Ir2 Pu0 3.245221 1_554
Ir2 Pu0 3.245221 1_564
Ir3 Si1 2.432774 1_544
Ir3 Si0 2.432774 1_455
Ir3 Si1 2.432774 1_554
Ir3 Si0 2.432774 1_555
Ir3 Pu1 3.245221 1_555
Ir3 Pu1 3.245221 1_545
Ir3 Pu0 3.245221 1_454
Ir3 Pu0 3.245221 1_554
