# generated using pymatgen
data_P4PtF12
_symmetry_space_group_name_H-M   'P 1'
_cell_length_a   7.05861119
_cell_length_b   7.05861144
_cell_length_c   7.05861194
_cell_angle_alpha   109.47122468
_cell_angle_beta   109.47122541
_cell_angle_gamma   109.47121518
_symmetry_Int_Tables_number   1
_chemical_formula_structural   P4PtF12
_chemical_formula_sum   'P4 Pt1 F12'
_cell_volume   270.72971950
_cell_formula_units_Z   1
loop_
 _symmetry_equiv_pos_site_id
 _symmetry_equiv_pos_as_xyz
  1  'x, y, z'
loop_
 _atom_site_type_symbol
 _atom_site_label
 _atom_site_symmetry_multiplicity
 _atom_site_fract_x
 _atom_site_fract_y
 _atom_site_fract_z
 _atom_site_occupancy
  P  P0  1  0.00000000  0.00000000  0.68472675  1
  P  P1  1  -0.00000000  0.68472675  0.00000000  1
  P  P2  1  0.68472675  -0.00000000  0.00000000  1
  P  P3  1  0.31527325  0.31527325  0.31527325  1
  Pt  Pt0  1  -0.00000000  -0.00000000  -0.00000000  1
  F  F0  1  0.49190986  0.49190986  0.28771628  1
  F  F1  1  0.00000000  0.79580842  0.50809014  1
  F  F2  1  0.20419158  0.71228371  0.20419158  1
  F  F3  1  0.28771629  0.49190986  0.49190986  1
  F  F4  1  0.71228371  0.20419158  0.20419158  1
  F  F5  1  0.20419158  0.20419158  0.71228371  1
  F  F6  1  -0.00000000  0.50809014  0.79580842  1
  F  F7  1  0.50809014  0.79580842  0.00000000  1
  F  F8  1  0.79580842  0.50809014  0.00000000  1
  F  F9  1  0.49190986  0.28771629  0.49190986  1
  F  F10  1  0.79580842  0.00000000  0.50809014  1
  F  F11  1  0.50809014  0.00000000  0.79580842  1
loop_
_geom_bond_atom_site_label_1
_geom_bond_atom_site_label_2
_geom_bond_distance
_geom_bond_site_symmetry_2
P0 Pt0 2.225392 1_556
P1 Pt0 2.225391 1_565
P2 Pt0 2.225391 1_655
P3 Pt0 2.225391 1_555
F0 P3 1.560099 1_555
F1 P0 1.560090 1_565
F2 P1 1.560083 1_555
F3 P3 1.560099 1_555
F4 P2 1.560083 1_555
F5 P0 1.560083 1_555
F6 P1 1.560090 1_556
F7 P2 1.560090 1_565
F8 P1 1.560090 1_655
F9 P3 1.560099 1_555
F10 P0 1.560090 1_655
F11 P2 1.560090 1_556
