# generated using pymatgen
data_BeF2
_symmetry_space_group_name_H-M   'P 1'
_cell_length_a   4.86503566
_cell_length_b   4.86503496
_cell_length_c   5.33233524
_cell_angle_alpha   90.00000000
_cell_angle_beta   90.00000000
_cell_angle_gamma   119.99999797
_symmetry_Int_Tables_number   1
_chemical_formula_structural   BeF2
_chemical_formula_sum   'Be3 F6'
_cell_volume   109.29997916
_cell_formula_units_Z   3
loop_
 _symmetry_equiv_pos_site_id
 _symmetry_equiv_pos_as_xyz
  1  'x, y, z'
loop_
 _atom_site_type_symbol
 _atom_site_label
 _atom_site_symmetry_multiplicity
 _atom_site_fract_x
 _atom_site_fract_y
 _atom_site_fract_z
 _atom_site_occupancy
  Be  Be0  1  0.00000000  0.50000000  0.66666700  1
  Be  Be1  1  0.50000000  0.00000000  -0.00000000  1
  Be  Be2  1  0.50000000  0.50000000  0.33333300  1
  F  F0  1  0.79062954  0.58126007  0.50000000  1
  F  F1  1  0.20937046  0.79062954  0.83333300  1
  F  F2  1  0.79062954  0.20937046  0.83333300  1
  F  F3  1  0.41873993  0.20937046  0.16666700  1
  F  F4  1  0.58126007  0.79062954  0.16666700  1
  F  F5  1  0.20937046  0.41873993  0.50000000  1
loop_
_geom_bond_atom_site_label_1
_geom_bond_atom_site_label_2
_geom_bond_distance
_geom_bond_site_symmetry_2
Be0 F1 1.544772 1_555
Be0 F2 1.544772 1_455
Be0 F0 1.544778 1_455
Be0 F5 1.544778 1_555
Be1 F1 1.544775 1_544
Be1 F2 1.544775 1_554
Be1 F4 1.544778 1_545
Be1 F3 1.544778 1_555
Be2 F4 1.544771 1_555
Be2 F3 1.544771 1_555
Be2 F0 1.544774 1_555
Be2 F5 1.544774 1_555
