# generated using pymatgen
data_LaNiSb3
_symmetry_space_group_name_H-M   'P 1'
_cell_length_a   6.26613721
_cell_length_b   12.23154896
_cell_length_c   13.01603827
_cell_angle_alpha   90.00099244
_cell_angle_beta   90.00034331
_cell_angle_gamma   89.99935684
_symmetry_Int_Tables_number   1
_chemical_formula_structural   LaNiSb3
_chemical_formula_sum   'La8 Ni8 Sb24'
_cell_volume   997.60857906
_cell_formula_units_Z   8
loop_
 _symmetry_equiv_pos_site_id
 _symmetry_equiv_pos_as_xyz
  1  'x, y, z'
loop_
 _atom_site_type_symbol
 _atom_site_label
 _atom_site_symmetry_multiplicity
 _atom_site_fract_x
 _atom_site_fract_y
 _atom_site_fract_z
 _atom_site_occupancy
  La  La0  1  0.22327508  0.24999914  0.30367229  1
  La  La1  1  0.75000280  0.00000182  0.29933471  1
  La  La2  1  0.24990683  0.00000907  0.70068963  1
  La  La3  1  0.25003522  0.49999686  0.70080096  1
  La  La4  1  0.74997901  0.50001933  0.29921249  1
  La  La5  1  0.27670245  0.75001251  0.30367789  1
  La  La6  1  0.72328785  0.24999841  0.69634094  1
  La  La7  1  0.77671014  0.75000058  0.69631748  1
  Ni  Ni0  1  0.45306580  0.13503891  0.09369911  1
  Ni  Ni1  1  0.04693765  0.63502431  0.09370288  1
  Ni  Ni2  1  0.45305941  0.36496441  0.09370052  1
  Ni  Ni3  1  0.54696360  0.63503805  0.90628942  1
  Ni  Ni4  1  0.54694382  0.86495409  0.90628481  1
  Ni  Ni5  1  0.95305582  0.13504822  0.90629405  1
  Ni  Ni6  1  0.04693726  0.86497327  0.09371084  1
  Ni  Ni7  1  0.95307022  0.36494567  0.90630106  1
  Sb  Sb0  1  0.27685304  0.75000879  0.79091730  1
  Sb  Sb1  1  0.98752033  0.37605926  0.50272650  1
  Sb  Sb2  1  0.74997390  0.49998868  0.02667859  1
  Sb  Sb3  1  0.25003156  0.00000826  0.21672552  1
  Sb  Sb4  1  0.25000263  0.50000155  0.97330620  1
  Sb  Sb5  1  0.09698680  0.24999650  0.05465836  1
  Sb  Sb6  1  0.59696527  0.24998863  0.94535111  1
  Sb  Sb7  1  0.75000836  0.50000226  0.78327352  1
  Sb  Sb8  1  0.51251187  0.62395016  0.50274001  1
  Sb  Sb9  1  0.48754620  0.37606626  0.49726172  1
  Sb  Sb10  1  0.75001430  -0.00000759  0.78326680  1
  Sb  Sb11  1  0.72315353  0.24998708  0.20907411  1
  Sb  Sb12  1  0.51249860  0.87605945  0.50274309  1
  Sb  Sb13  1  0.24998071  0.50000330  0.21673242  1
  Sb  Sb14  1  0.22318175  0.24998696  0.79091895  1
  Sb  Sb15  1  0.90297620  0.74999261  0.94535735  1
  Sb  Sb16  1  0.48755606  0.12394667  0.49727594  1
  Sb  Sb17  1  0.98755370  0.12393527  0.50273242  1
  Sb  Sb18  1  0.01250397  0.62395064  0.49724793  1
  Sb  Sb19  1  0.01247524  0.87604422  0.49727719  1
  Sb  Sb20  1  0.74996431  -0.00000753  0.02668491  1
  Sb  Sb21  1  0.40295399  0.75000606  0.05464498  1
  Sb  Sb22  1  0.77688354  0.75001065  0.20906708  1
  Sb  Sb23  1  0.24997119  -0.00000081  0.97330694  1
loop_
_geom_bond_atom_site_label_1
_geom_bond_atom_site_label_2
_geom_bond_distance
_geom_bond_site_symmetry_2
La0 Sb3 3.264770 1_555
La0 Sb13 3.264915 1_555
La0 Sb5 3.336376 1_555
La0 Sb1 3.357443 1_455
La0 Sb17 3.357488 1_455
La0 Sb11 3.365632 1_555
La0 Sb11 3.367036 1_455
La0 Sb9 3.386599 1_555
La0 Sb16 3.386708 1_555
La0 Ni0 3.394084 1_555
La0 Ni2 3.394131 1_555
La1 Sb11 3.279973 1_555
La1 Sb22 3.280046 1_545
La1 Sb3 3.312265 1_555
La1 Sb3 3.312618 1_655
La1 Sb17 3.394469 1_555
La1 Sb12 3.394553 1_545
La1 Sb16 3.411831 1_555
La1 Sb19 3.412015 1_645
La1 Sb20 3.548820 1_555
La2 Sb14 3.279667 1_555
La2 Sb0 3.280022 1_545
La2 Sb10 3.311675 1_455
La2 Sb10 3.312937 1_555
La2 Sb19 3.394462 1_545
La2 Sb16 3.394979 1_555
La2 Sb17 3.411629 1_455
La2 Sb12 3.412347 1_545
La2 Sb23 3.548397 1_555
La3 Sb0 3.279561 1_555
La3 Sb14 3.279596 1_555
La3 Sb7 3.311699 1_555
La3 Sb7 3.312030 1_455
La3 Sb9 3.395780 1_555
La3 Sb18 3.396129 1_555
La3 Sb8 3.413200 1_555
La3 Sb1 3.413309 1_455
La3 Sb4 3.546939 1_555
La4 Sb22 3.279528 1_555
La4 Sb11 3.279898 1_555
La4 Sb13 3.311880 1_555
La4 Sb13 3.311913 1_655
La4 Sb8 3.395542 1_555
La4 Sb1 3.395795 1_555
La4 Sb18 3.412921 1_655
La4 Sb9 3.412951 1_555
La4 Sb2 3.547312 1_555
La5 Sb3 3.264860 1_565
La5 Sb13 3.264966 1_555
La5 Sb21 3.336570 1_555
La5 Sb12 3.357595 1_555
La5 Sb8 3.357713 1_555
La5 Sb22 3.365331 1_455
La5 Sb22 3.367457 1_555
La5 Sb18 3.386214 1_555
La5 Sb19 3.386361 1_555
La5 Ni6 3.393980 1_555
La5 Ni1 3.394176 1_555
La6 Sb7 3.264846 1_555
La6 Sb10 3.264875 1_555
La6 Sb6 3.336388 1_555
La6 Sb16 3.357443 1_555
La6 Sb9 3.357729 1_555
La6 Sb14 3.365612 1_655
La6 Sb14 3.366863 1_555
La6 Sb1 3.386743 1_555
La6 Sb17 3.386743 1_555
La6 Ni5 3.393788 1_555
La6 Ni7 3.393859 1_555
La7 Sb10 3.264773 1_565
La7 Sb7 3.264920 1_555
La7 Sb15 3.336671 1_555
La7 Sb19 3.357296 1_655
La7 Sb18 3.357648 1_655
La7 Sb0 3.365515 1_555
La7 Sb0 3.367168 1_655
La7 Sb8 3.386167 1_555
La7 Sb12 3.386248 1_555
La7 Ni4 3.393924 1_555
La7 Ni3 3.394018 1_555
Ni0 Sb6 2.553127 1_554
Ni0 Sb23 2.608320 1_554
Ni0 Sb3 2.628853 1_555
Ni0 Sb20 2.636358 1_555
Ni0 Sb11 2.663867 1_555
Ni0 Sb5 2.685840 1_555
Ni1 Sb15 2.553345 1_454
Ni1 Sb4 2.608124 1_554
Ni1 Sb13 2.628803 1_555
Ni1 Sb2 2.636626 1_455
Ni1 Sb22 2.663892 1_455
Ni1 Sb21 2.685742 1_555
Ni2 Sb6 2.553282 1_554
Ni2 Sb4 2.608218 1_554
Ni2 Sb13 2.629042 1_555
Ni2 Sb2 2.636337 1_555
Ni2 Sb11 2.664078 1_555
Ni2 Sb5 2.685894 1_555
Ni3 Sb21 2.553520 1_556
Ni3 Sb2 2.608130 1_556
Ni3 Sb7 2.628788 1_555
Ni3 Sb4 2.636614 1_555
Ni3 Sb0 2.664090 1_555
Ni3 Sb15 2.685559 1_555
Ni4 Sb21 2.553435 1_556
Ni4 Sb20 2.608145 1_566
Ni4 Sb10 2.628955 1_565
Ni4 Sb23 2.636710 1_565
Ni4 Sb0 2.663806 1_555
Ni4 Sb15 2.685701 1_555
Ni5 Sb5 2.553302 1_656
Ni5 Sb20 2.608468 1_556
Ni5 Sb10 2.629031 1_555
Ni5 Sb23 2.636458 1_655
Ni5 Sb14 2.663998 1_655
Ni5 Sb6 2.685826 1_555
Ni6 Sb15 2.553480 1_454
Ni6 Sb23 2.608163 1_564
Ni6 Sb3 2.628931 1_565
Ni6 Sb20 2.636541 1_465
Ni6 Sb22 2.663727 1_455
Ni6 Sb21 2.685635 1_555
Ni7 Sb5 2.553233 1_656
Ni7 Sb2 2.608227 1_556
Ni7 Sb7 2.629118 1_555
Ni7 Sb4 2.636560 1_655
Ni7 Sb14 2.664074 1_655
Ni7 Sb6 2.686026 1_555
Sb0 Sb15 3.086988 1_455
Sb1 Sb18 3.036975 1_655
Sb1 Sb17 3.083867 1_555
Sb1 Sb9 3.133713 1_555
Sb1 Sb9 3.134038 1_655
Sb8 Sb9 3.036875 1_555
Sb11 Sb5 3.086574 1_655
Sb12 Sb16 3.036904 1_565
Sb12 Sb8 3.083687 1_555
Sb12 Sb19 3.133730 1_655
Sb12 Sb19 3.134022 1_555
Sb14 Sb6 3.086459 1_555
Sb16 Sb9 3.083813 1_555
Sb16 Sb17 3.133858 1_555
Sb16 Sb17 3.133889 1_455
Sb17 Sb19 3.036937 1_645
Sb18 Sb19 3.083495 1_555
Sb18 Sb8 3.133835 1_455
Sb18 Sb8 3.133933 1_555
Sb21 Sb22 3.087068 1_555
