# generated using pymatgen
data_Co
_symmetry_space_group_name_H-M   'P 1'
_cell_length_a   4.94399968
_cell_length_b   4.94399993
_cell_length_c   8.04228816
_cell_angle_alpha   90.00000000
_cell_angle_beta   90.00000000
_cell_angle_gamma   119.99998443
_symmetry_Int_Tables_number   1
_chemical_formula_structural   Co
_chemical_formula_sum   Co16
_cell_volume   170.24219888
_cell_formula_units_Z   16
loop_
 _symmetry_equiv_pos_site_id
 _symmetry_equiv_pos_as_xyz
  1  'x, y, z'
loop_
 _atom_site_type_symbol
 _atom_site_label
 _atom_site_symmetry_multiplicity
 _atom_site_fract_x
 _atom_site_fract_y
 _atom_site_fract_z
 _atom_site_occupancy
  Co  Co0_0  1  0.16666650  0.33333350  0.12500000  1
  Co  Co0_1  1  0.16666650  0.33333350  0.62500000  1
  Co  Co0_2  1  0.16666650  0.83333350  0.12500000  1
  Co  Co0_3  1  0.16666650  0.83333350  0.62500000  1
  Co  Co0_4  1  0.66666650  0.33333350  0.12500000  1
  Co  Co0_5  1  0.66666650  0.33333350  0.62500000  1
  Co  Co0_6  1  0.66666650  0.83333350  0.12500000  1
  Co  Co0_7  1  0.66666650  0.83333350  0.62500000  1
  Co  Co1_0  1  0.33333350  0.16666650  0.37500000  1
  Co  Co1_1  1  0.33333350  0.16666650  0.87500000  1
  Co  Co1_2  1  0.33333350  0.66666650  0.37500000  1
  Co  Co1_3  1  0.33333350  0.66666650  0.87500000  1
  Co  Co1_4  1  0.83333350  0.16666650  0.37500000  1
  Co  Co1_5  1  0.83333350  0.16666650  0.87500000  1
  Co  Co1_6  1  0.83333350  0.66666650  0.37500000  1
  Co  Co1_7  1  0.83333350  0.66666650  0.87500000  1
loop_
_geom_bond_atom_site_label_1
_geom_bond_atom_site_label_2
_geom_bond_distance
_geom_bond_site_symmetry_2
Co0_0 Co1_4 2.465629 1_455
Co0_0 Co1_5 2.465629 1_454
Co0_0 Co1_2 2.465629 1_555
Co0_0 Co1_3 2.465629 1_554
Co0_0 Co1_0 2.465631 1_555
Co0_0 Co1_1 2.465631 1_554
Co0_0 Co0_4 2.472000 1_555
Co0_0 Co0_4 2.472000 1_455
Co0_0 Co0_2 2.472000 1_545
Co0_0 Co0_2 2.472000 1_555
Co0_0 Co0_6 2.472000 1_445
Co0_0 Co0_6 2.472000 1_555
Co0_1 Co1_4 2.465629 1_455
Co0_1 Co1_5 2.465629 1_455
Co0_1 Co1_2 2.465629 1_555
Co0_1 Co1_3 2.465629 1_555
Co0_1 Co1_1 2.465631 1_555
Co0_1 Co1_0 2.465631 1_555
Co0_1 Co0_5 2.472000 1_555
Co0_1 Co0_5 2.472000 1_455
Co0_1 Co0_3 2.472000 1_545
Co0_1 Co0_3 2.472000 1_555
Co0_1 Co0_7 2.472000 1_445
Co0_1 Co0_7 2.472000 1_555
Co0_2 Co1_7 2.465629 1_454
Co0_2 Co1_6 2.465629 1_455
Co0_2 Co1_0 2.465629 1_565
Co0_2 Co1_1 2.465629 1_564
Co0_2 Co1_2 2.465631 1_555
Co0_2 Co1_3 2.465631 1_554
Co0_2 Co0_6 2.472000 1_555
Co0_2 Co0_6 2.472000 1_455
Co0_2 Co0_4 2.472000 1_565
Co0_2 Co0_4 2.472000 1_455
Co0_3 Co1_7 2.465629 1_455
Co0_3 Co1_6 2.465629 1_455
Co0_3 Co1_0 2.465629 1_565
Co0_3 Co1_1 2.465629 1_565
Co0_3 Co1_2 2.465631 1_555
Co0_3 Co1_3 2.465631 1_555
Co0_3 Co0_7 2.472000 1_555
Co0_3 Co0_7 2.472000 1_455
Co0_3 Co0_5 2.472000 1_565
Co0_3 Co0_5 2.472000 1_455
Co0_4 Co1_0 2.465629 1_555
Co0_4 Co1_1 2.465629 1_554
Co0_4 Co1_6 2.465629 1_555
Co0_4 Co1_7 2.465629 1_554
Co0_4 Co1_5 2.465631 1_554
Co0_4 Co1_4 2.465631 1_555
Co0_4 Co0_6 2.472000 1_555
Co0_4 Co0_6 2.472000 1_545
Co0_5 Co1_1 2.465629 1_555
Co0_5 Co1_0 2.465629 1_555
Co0_5 Co1_6 2.465629 1_555
Co0_5 Co1_7 2.465629 1_555
Co0_5 Co1_5 2.465631 1_555
Co0_5 Co1_4 2.465631 1_555
Co0_5 Co0_7 2.472000 1_545
Co0_5 Co0_7 2.472000 1_555
Co0_6 Co1_3 2.465629 1_554
Co0_6 Co1_2 2.465629 1_555
Co0_6 Co1_4 2.465629 1_565
Co0_6 Co1_5 2.465629 1_564
Co0_6 Co1_6 2.465631 1_555
Co0_6 Co1_7 2.465631 1_554
Co0_7 Co1_3 2.465629 1_555
Co0_7 Co1_2 2.465629 1_555
Co0_7 Co1_5 2.465629 1_565
Co0_7 Co1_4 2.465629 1_565
Co0_7 Co1_6 2.465631 1_555
Co0_7 Co1_7 2.465631 1_555
Co1_0 Co1_4 2.472000 1_555
Co1_0 Co1_4 2.472000 1_455
Co1_0 Co1_2 2.472000 1_555
Co1_0 Co1_2 2.472000 1_545
Co1_0 Co1_6 2.472000 1_555
Co1_0 Co1_6 2.472000 1_445
Co1_1 Co1_5 2.472000 1_555
Co1_1 Co1_5 2.472000 1_455
Co1_1 Co1_3 2.472000 1_555
Co1_1 Co1_3 2.472000 1_545
Co1_1 Co1_7 2.472000 1_555
Co1_1 Co1_7 2.472000 1_445
Co1_2 Co1_6 2.472000 1_455
Co1_2 Co1_6 2.472000 1_555
Co1_2 Co1_4 2.472000 1_455
Co1_2 Co1_4 2.472000 1_565
Co1_3 Co1_7 2.472000 1_455
Co1_3 Co1_7 2.472000 1_555
Co1_3 Co1_5 2.472000 1_455
Co1_3 Co1_5 2.472000 1_565
Co1_4 Co1_6 2.472000 1_555
Co1_4 Co1_6 2.472000 1_545
Co1_5 Co1_7 2.472000 1_555
Co1_5 Co1_7 2.472000 1_545
