# generated using pymatgen
data_CeAgSb2
_symmetry_space_group_name_H-M   'P 1'
_cell_length_a   4.39049198
_cell_length_b   4.39049198
_cell_length_c   10.74764214
_cell_angle_alpha   90.00000000
_cell_angle_beta   90.00000000
_cell_angle_gamma   90.00000000
_symmetry_Int_Tables_number   1
_chemical_formula_structural   CeAgSb2
_chemical_formula_sum   'Ce2 Ag2 Sb4'
_cell_volume   207.17606204
_cell_formula_units_Z   2
loop_
 _symmetry_equiv_pos_site_id
 _symmetry_equiv_pos_as_xyz
  1  'x, y, z'
loop_
 _atom_site_type_symbol
 _atom_site_label
 _atom_site_symmetry_multiplicity
 _atom_site_fract_x
 _atom_site_fract_y
 _atom_site_fract_z
 _atom_site_occupancy
  Ce  Ce0  1  0.50000000  -0.00000000  0.23592931  1
  Ce  Ce1  1  -0.00000000  0.50000000  0.76412591  1
  Ag  Ag0  1  0.00000000  -0.00000000  0.49998001  1
  Ag  Ag1  1  0.50000000  0.50000000  0.49998001  1
  Sb  Sb0  1  0.00000000  -0.00000000  0.00008936  1
  Sb  Sb1  1  0.50000000  0.50000000  0.00008936  1
  Sb  Sb2  1  0.50000000  -0.00000000  0.67384743  1
  Sb  Sb3  1  -0.00000000  0.50000000  0.32595860  1
loop_
_geom_bond_atom_site_label_1
_geom_bond_atom_site_label_2
_geom_bond_distance
_geom_bond_site_symmetry_2
Ce0 Sb3 3.251840 1_655
Ce0 Sb3 3.251840 1_545
Ce0 Sb3 3.251840 1_645
Ce0 Sb3 3.251840 1_555
Ce0 Sb0 3.353197 1_655
Ce0 Sb1 3.353197 1_555
Ce0 Sb1 3.353197 1_545
Ce0 Sb0 3.353197 1_555
Ce1 Sb2 3.252638 1_455
Ce1 Sb2 3.252638 1_465
Ce1 Sb2 3.252638 1_555
Ce1 Sb2 3.252638 1_565
Ce1 Sb0 3.354200 1_556
Ce1 Sb1 3.354200 1_556
Ce1 Sb0 3.354200 1_566
Ce1 Sb1 3.354200 1_456
Ag0 Sb2 2.882883 1_555
Ag0 Sb2 2.882883 1_455
Ag0 Sb3 2.883956 1_545
Ag0 Sb3 2.883956 1_555
Ag0 Ag1 3.104547 1_555
Ag0 Ag1 3.104547 1_445
Ag0 Ag1 3.104547 1_545
Ag0 Ag1 3.104547 1_455
Ag0 Ce0 3.587884 1_455
Ag0 Ce0 3.587884 1_555
Ag0 Ce1 3.588693 1_555
Ag0 Ce1 3.588693 1_545
Ag1 Sb2 2.882883 1_555
Ag1 Sb2 2.882883 1_565
Ag1 Sb3 2.883956 1_655
Ag1 Sb3 2.883956 1_555
Ag1 Ce0 3.587884 1_565
Ag1 Ce0 3.587884 1_555
Ag1 Ce1 3.588693 1_555
Ag1 Ce1 3.588693 1_655
Sb0 Sb1 3.104547 1_555
Sb0 Sb1 3.104547 1_545
Sb0 Sb1 3.104547 1_445
Sb0 Sb1 3.104547 1_455
