# generated using pymatgen
data_CaAgAs
_symmetry_space_group_name_H-M   'P 1'
_cell_length_a   7.20327013
_cell_length_b   7.20326964
_cell_length_c   4.28892519
_cell_angle_alpha   90.00000000
_cell_angle_beta   90.00000000
_cell_angle_gamma   119.99999746
_symmetry_Int_Tables_number   1
_chemical_formula_structural   CaAgAs
_chemical_formula_sum   'Ca3 Ag3 As3'
_cell_volume   192.72519212
_cell_formula_units_Z   3
loop_
 _symmetry_equiv_pos_site_id
 _symmetry_equiv_pos_as_xyz
  1  'x, y, z'
loop_
 _atom_site_type_symbol
 _atom_site_label
 _atom_site_symmetry_multiplicity
 _atom_site_fract_x
 _atom_site_fract_y
 _atom_site_fract_z
 _atom_site_occupancy
  Ca  Ca0  1  -0.00000000  0.58656470  0.50000000  1
  Ca  Ca1  1  0.41343530  0.41343530  0.50000000  1
  Ca  Ca2  1  0.58656470  -0.00000000  0.50000000  1
  Ag  Ag0  1  -0.00000000  0.25009156  0.00000000  1
  Ag  Ag1  1  0.74990844  0.74990844  -0.00000000  1
  Ag  Ag2  1  0.25009156  -0.00000000  -0.00000000  1
  As  As0  1  0.00000000  0.00000000  0.50000000  1
  As  As1  1  0.33333300  0.66666700  0.00000000  1
  As  As2  1  0.66666700  0.33333300  0.00000000  1
loop_
_geom_bond_atom_site_label_1
_geom_bond_atom_site_label_2
_geom_bond_distance
_geom_bond_site_symmetry_2
Ag0 As2 2.750359 1_455
Ag0 As1 2.750363 1_555
Ag0 As0 2.800721 1_554
Ag0 As0 2.800721 1_555
Ag0 Ag2 3.120250 1_555
Ag0 Ag1 3.120250 1_445
Ag0 Ca0 3.236213 1_555
Ag0 Ca0 3.236213 1_554
Ag0 Ca1 3.368692 1_554
Ag0 Ca1 3.368692 1_555
Ag0 Ca2 3.368692 1_454
Ag0 Ca2 3.368692 1_455
Ag1 As2 2.750365 1_555
Ag1 As1 2.750366 1_555
Ag1 As0 2.800721 1_664
Ag1 As0 2.800721 1_665
Ag1 Ag2 3.120250 1_665
Ag1 Ca1 3.236213 1_554
Ag1 Ca1 3.236213 1_555
Ag1 Ca2 3.368691 1_565
Ag1 Ca2 3.368691 1_564
Ag1 Ca0 3.368691 1_655
Ag1 Ca0 3.368691 1_654
Ag2 As1 2.750358 1_545
Ag2 As2 2.750363 1_555
Ag2 As0 2.800721 1_555
Ag2 As0 2.800721 1_554
Ag2 Ca2 3.236213 1_555
Ag2 Ca2 3.236213 1_554
Ag2 Ca1 3.368691 1_555
Ag2 Ca1 3.368691 1_554
Ag2 Ca0 3.368691 1_545
Ag2 Ca0 3.368691 1_544
As0 Ca0 2.978086 1_545
As0 Ca2 2.978086 1_455
As0 Ca1 2.978086 1_555
As1 Ca0 3.051466 1_554
As1 Ca0 3.051466 1_555
As1 Ca2 3.051467 1_565
As1 Ca2 3.051467 1_564
As1 Ca1 3.051471 1_555
As1 Ca1 3.051471 1_554
As2 Ca2 3.051466 1_555
As2 Ca2 3.051466 1_554
As2 Ca0 3.051468 1_655
As2 Ca0 3.051468 1_654
As2 Ca1 3.051471 1_555
As2 Ca1 3.051471 1_554
