# generated using pymatgen
data_Sc2(WO4)3
_symmetry_space_group_name_H-M   'P 1'
_cell_length_a   9.77388600
_cell_length_b   9.86646500
_cell_length_c   13.67643100
_cell_angle_alpha   90.00000000
_cell_angle_beta   90.00000000
_cell_angle_gamma   90.00000000
_symmetry_Int_Tables_number   1
_chemical_formula_structural   Sc2(WO4)3
_chemical_formula_sum   'Sc8 W12 O48'
_cell_volume   1318.86890065
_cell_formula_units_Z   4
loop_
 _symmetry_equiv_pos_site_id
 _symmetry_equiv_pos_as_xyz
  1  'x, y, z'
loop_
 _atom_site_type_symbol
 _atom_site_label
 _atom_site_symmetry_multiplicity
 _atom_site_fract_x
 _atom_site_fract_y
 _atom_site_fract_z
 _atom_site_occupancy
  Sc  Sc0  1  0.24956900  0.46762300  0.38209800  1
  Sc  Sc1  1  0.24956900  0.03237700  0.61790200  1
  Sc  Sc2  1  0.25043100  0.96762300  0.11790200  1
  Sc  Sc3  1  0.25043100  0.53237700  0.88209800  1
  Sc  Sc4  1  0.75043100  0.53237700  0.61790200  1
  Sc  Sc5  1  0.75043100  0.96762300  0.38209800  1
  Sc  Sc6  1  0.74956900  0.03237700  0.88209800  1
  Sc  Sc7  1  0.74956900  0.46762300  0.11790200  1
  W  W0  1  0.97364400  0.25000000  0.50000000  1
  W  W1  1  0.52635600  0.75000000  0.00000000  1
  W  W2  1  0.02635600  0.75000000  0.50000000  1
  W  W3  1  0.47364400  0.25000000  0.00000000  1
  W  W4  1  0.39219300  0.11463500  0.35605300  1
  W  W5  1  0.39219300  0.38536500  0.64394700  1
  W  W6  1  0.10780700  0.61463500  0.14394700  1
  W  W7  1  0.10780700  0.88536500  0.85605300  1
  W  W8  1  0.60780700  0.88536500  0.64394700  1
  W  W9  1  0.60780700  0.61463500  0.35605300  1
  W  W10  1  0.89219300  0.38536500  0.85605300  1
  W  W11  1  0.89219300  0.11463500  0.14394700  1
  O  O0  1  0.85893400  0.29346500  0.16310600  1
  O  O1  1  0.85893400  0.20653500  0.83689400  1
  O  O2  1  0.64106600  0.79346500  0.33689400  1
  O  O3  1  0.64106600  0.70653500  0.66310600  1
  O  O4  1  0.14106600  0.70653500  0.83689400  1
  O  O5  1  0.14106600  0.79346500  0.16310600  1
  O  O6  1  0.35893400  0.20653500  0.66310600  1
  O  O7  1  0.35893400  0.29346500  0.33689400  1
  O  O8  1  0.81781100  0.06481100  0.02846300  1
  O  O9  1  0.81781100  0.43518900  0.97153700  1
  O  O10  1  0.68218900  0.56481100  0.47153700  1
  O  O11  1  0.68218900  0.93518900  0.52846300  1
  O  O12  1  0.18218900  0.93518900  0.97153700  1
  O  O13  1  0.18218900  0.56481100  0.02846300  1
  O  O14  1  0.31781100  0.43518900  0.52846300  1
  O  O15  1  0.31781100  0.06481100  0.47153700  1
  O  O16  1  0.41861400  0.66170500  0.91301500  1
  O  O17  1  0.58138600  0.33829500  0.08698500  1
  O  O18  1  0.91861400  0.83829500  0.41301500  1
  O  O19  1  0.91861400  0.66170500  0.58698500  1
  O  O20  1  0.07543100  0.08728000  0.14008100  1
  O  O21  1  0.07543100  0.41272000  0.85991900  1
  O  O22  1  0.42456900  0.58728000  0.35991900  1
  O  O23  1  0.42456900  0.91272000  0.64008100  1
  O  O24  1  0.92456900  0.91272000  0.85991900  1
  O  O25  1  0.92456900  0.58728000  0.14008100  1
  O  O26  1  0.57543100  0.41272000  0.64008100  1
  O  O27  1  0.57543100  0.08728000  0.35991900  1
  O  O28  1  0.36701300  0.13049100  0.06533800  1
  O  O29  1  0.36701300  0.36950900  0.93466200  1
  O  O30  1  0.13298700  0.63049100  0.43466200  1
  O  O31  1  0.13298700  0.86950900  0.56533800  1
  O  O32  1  0.63298700  0.86950900  0.93466200  1
  O  O33  1  0.63298700  0.63049100  0.06533800  1
  O  O34  1  0.86701300  0.36950900  0.56533800  1
  O  O35  1  0.86701300  0.13049100  0.43466200  1
  O  O36  1  0.31698100  0.01420200  0.25879200  1
  O  O37  1  0.31698100  0.48579800  0.74120800  1
  O  O38  1  0.18301900  0.51420200  0.24120800  1
  O  O39  1  0.18301900  0.98579800  0.75879200  1
  O  O40  1  0.68301900  0.98579800  0.74120800  1
  O  O41  1  0.68301900  0.51420200  0.25879200  1
  O  O42  1  0.81698100  0.48579800  0.75879200  1
  O  O43  1  0.81698100  0.01420200  0.24120800  1
  O  O44  1  0.08138600  0.33829500  0.41301500  1
  O  O45  1  0.08138600  0.16170500  0.58698500  1
  O  O46  1  0.41861400  0.83829500  0.08698500  1
  O  O47  1  0.58138600  0.16170500  0.91301500  1
loop_
_geom_bond_atom_site_label_1
_geom_bond_atom_site_label_2
_geom_bond_distance
_geom_bond_site_symmetry_2
O0 W11 1.813148 1_555
O0 Sc7 2.115995 1_555
O1 W10 1.813148 1_555
O1 Sc6 2.115995 1_555
O2 W9 1.813148 1_555
O2 Sc5 2.115995 1_555
O3 W8 1.813148 1_555
O3 Sc4 2.115995 1_555
O4 W7 1.813148 1_555
O4 Sc3 2.115995 1_555
O5 W6 1.813148 1_555
O5 Sc2 2.115995 1_555
O6 W5 1.813148 1_555
O6 Sc1 2.115995 1_555
O7 W4 1.813148 1_555
O7 Sc0 2.115995 1_555
O8 W11 1.806854 1_555
O8 Sc6 2.134078 1_554
O9 W10 1.806854 1_555
O9 Sc7 2.134078 1_556
O10 W9 1.806854 1_555
O10 Sc4 2.134078 1_555
O11 W8 1.806854 1_555
O11 Sc5 2.134078 1_555
O12 W7 1.806854 1_555
O12 Sc2 2.134078 1_556
O13 W6 1.806854 1_555
O13 Sc3 2.134078 1_554
O14 W5 1.806854 1_555
O14 Sc0 2.134078 1_555
O15 W4 1.806854 1_555
O15 Sc1 2.134078 1_555
O16 W1 1.811934 1_556
O16 Sc3 2.123458 1_555
O17 W3 1.811934 1_555
O17 Sc7 2.123458 1_555
O18 W2 1.811934 1_655
O18 Sc5 2.123458 1_555
O19 W2 1.811934 1_655
O19 Sc4 2.123458 1_555
O20 W11 1.811942 1_455
O20 Sc2 2.100328 1_545
O21 W10 1.811942 1_455
O21 Sc3 2.100328 1_555
O22 W9 1.811942 1_555
O22 Sc0 2.100328 1_555
O23 W8 1.811942 1_555
O23 Sc1 2.100328 1_565
O24 W7 1.811942 1_655
O24 Sc6 2.100328 1_565
O25 W6 1.811942 1_655
O25 Sc7 2.100328 1_555
O26 W5 1.811942 1_555
O26 Sc4 2.100328 1_555
O27 W4 1.811942 1_555
O27 Sc5 2.100328 1_545
O28 W3 1.809706 1_555
O28 Sc2 2.096997 1_545
O29 W3 1.809706 1_556
O29 Sc3 2.096997 1_555
O30 W2 1.809706 1_555
O30 Sc0 2.096997 1_555
O31 W2 1.809706 1_555
O31 Sc1 2.096997 1_565
O32 W1 1.809706 1_556
O32 Sc6 2.096997 1_565
O33 W1 1.809706 1_555
O33 Sc7 2.096997 1_555
O34 W0 1.809706 1_555
O34 Sc4 2.096997 1_555
O35 W0 1.809706 1_555
O35 Sc5 2.096997 1_545
O36 W4 1.814304 1_555
O36 Sc2 2.084977 1_545
O37 W5 1.814304 1_555
O37 Sc3 2.084977 1_555
O38 W6 1.814304 1_555
O38 Sc0 2.084977 1_555
O39 W7 1.814304 1_555
O39 Sc1 2.084977 1_565
O40 W8 1.814304 1_555
O40 Sc6 2.084977 1_565
O41 W9 1.814304 1_555
O41 Sc7 2.084977 1_555
O42 W10 1.814304 1_555
O42 Sc4 2.084977 1_555
O43 W11 1.814304 1_555
O43 Sc5 2.084977 1_545
O44 W0 1.811934 1_455
O44 Sc0 2.123458 1_555
O45 W0 1.811934 1_455
O45 Sc1 2.123458 1_555
O46 W1 1.811934 1_555
O46 Sc2 2.123458 1_555
O47 W3 1.811934 1_556
O47 Sc6 2.123458 1_555
