# generated using pymatgen
data_ZnS
_symmetry_space_group_name_H-M   'P 1'
_cell_length_a   3.80684799
_cell_length_b   3.80684889
_cell_length_c   49.83885373
_cell_angle_alpha   90.00000000
_cell_angle_beta   90.00000000
_cell_angle_gamma   119.99999209
_symmetry_Int_Tables_number   1
_chemical_formula_structural   ZnS
_chemical_formula_sum   'Zn16 S16'
_cell_volume   625.50370315
_cell_formula_units_Z   16
loop_
 _symmetry_equiv_pos_site_id
 _symmetry_equiv_pos_as_xyz
  1  'x, y, z'
loop_
 _atom_site_type_symbol
 _atom_site_label
 _atom_site_symmetry_multiplicity
 _atom_site_fract_x
 _atom_site_fract_y
 _atom_site_fract_z
 _atom_site_occupancy
  Zn  Zn0  1  0.33333300  0.66666700  0.62500017  1
  Zn  Zn1  1  0.66666700  0.33333300  0.12503552  1
  Zn  Zn2  1  0.00000000  0.00000000  0.43749594  1
  Zn  Zn3  1  0.33333300  0.66666700  0.06255757  1
  Zn  Zn4  1  0.66666700  0.33333300  0.50001909  1
  Zn  Zn5  1  0.33333300  0.66666700  0.24999887  1
  Zn  Zn6  1  0.66666700  0.33333300  0.31252708  1
  Zn  Zn7  1  0.00000000  0.00000000  0.81251624  1
  Zn  Zn8  1  0.66666700  0.33333300  0.68752518  1
  Zn  Zn9  1  -0.00000000  0.00000000  0.18751706  1
  Zn  Zn10  1  0.33333300  0.66666700  0.37506324  1
  Zn  Zn11  1  0.33333300  0.66666700  0.93750349  1
  Zn  Zn12  1  -0.00000000  0.00000000  0.56255175  1
  Zn  Zn13  1  0.66666700  0.33333300  0.87501747  1
  Zn  Zn14  1  0.33333300  0.66666700  0.75006167  1
  Zn  Zn15  1  -0.00000000  0.00000000  0.00001247  1
  S  S0  1  0.00000000  0.00000000  0.23433132  1
  S  S1  1  0.33333300  0.66666700  0.29679142  1
  S  S2  1  0.66666700  0.33333300  0.35939574  1
  S  S3  1  0.66666700  0.33333300  0.54689847  1
  S  S4  1  0.33333300  0.66666700  0.10935889  1
  S  S5  1  0.66666700  0.33333300  0.73439848  1
  S  S6  1  0.33333300  0.66666700  0.98429202  1
  S  S7  1  0.66666700  0.33333300  0.92184086  1
  S  S8  1  0.00000000  0.00000000  0.85934102  1
  S  S9  1  0.33333300  0.66666700  0.67179428  1
  S  S10  1  -0.00000000  0.00000000  0.48428737  1
  S  S11  1  0.33333300  0.66666700  0.79685547  1
  S  S12  1  0.00000000  0.00000000  0.60934475  1
  S  S13  1  0.00000000  0.00000000  0.04689075  1
  S  S14  1  0.66666700  0.33333300  0.17185096  1
  S  S15  1  0.33333300  0.66666700  0.42184939  1
loop_
_geom_bond_atom_site_label_1
_geom_bond_atom_site_label_2
_geom_bond_distance
_geom_bond_site_symmetry_2
S0 Zn5 2.332471 1_545
S0 Zn5 2.332474 1_445
S0 Zn5 2.332474 1_555
S0 Zn9 2.333169 1_555
S1 Zn5 2.332087 1_555
S1 Zn6 2.333609 1_455
S1 Zn6 2.333610 1_565
S1 Zn6 2.333615 1_555
S2 Zn10 2.332470 1_655
S2 Zn10 2.332470 1_545
S2 Zn10 2.332476 1_555
S2 Zn6 2.335880 1_555
S3 Zn12 2.332233 1_655
S3 Zn12 2.332236 1_555
S3 Zn12 2.332236 1_665
S3 Zn4 2.336415 1_555
S4 Zn3 2.332524 1_555
S4 Zn1 2.332622 1_455
S4 Zn1 2.332623 1_565
S4 Zn1 2.332628 1_555
S5 Zn14 2.332398 1_655
S5 Zn14 2.332398 1_545
S5 Zn14 2.332404 1_555
S5 Zn8 2.336112 1_555
S6 Zn11 2.331887 1_555
S6 Zn15 2.333355 1_566
S6 Zn15 2.333358 1_666
S6 Zn15 2.333358 1_556
S7 Zn11 2.332389 1_655
S7 Zn11 2.332389 1_545
S7 Zn11 2.332395 1_555
S7 Zn13 2.333624 1_555
S8 Zn13 2.332619 1_455
S8 Zn13 2.332622 1_555
S8 Zn13 2.332623 1_445
S8 Zn7 2.333693 1_555
S9 Zn0 2.332165 1_555
S9 Zn8 2.333530 1_455
S9 Zn8 2.333530 1_565
S9 Zn8 2.333536 1_555
S10 Zn2 2.332031 1_555
S10 Zn4 2.333543 1_455
S10 Zn4 2.333546 1_555
S10 Zn4 2.333547 1_445
S11 Zn14 2.332149 1_555
S11 Zn7 2.332358 1_565
S11 Zn7 2.332361 1_665
S11 Zn7 2.332361 1_555
S12 Zn12 2.332109 1_555
S12 Zn0 2.332268 1_545
S12 Zn0 2.332271 1_445
S12 Zn0 2.332272 1_555
S13 Zn3 2.332458 1_545
S13 Zn3 2.332462 1_445
S13 Zn3 2.332462 1_555
S13 Zn15 2.336360 1_555
S14 Zn9 2.332446 1_655
S14 Zn9 2.332450 1_555
S14 Zn9 2.332450 1_665
S14 Zn1 2.333228 1_555
S15 Zn10 2.331768 1_555
S15 Zn2 2.332120 1_565
S15 Zn2 2.332124 1_665
S15 Zn2 2.332124 1_555
