# generated using pymatgen
data_ZrOs2
_symmetry_space_group_name_H-M   'P 1'
_cell_length_a   5.20874590
_cell_length_b   5.20874741
_cell_length_c   8.58838303
_cell_angle_alpha   90.00000000
_cell_angle_beta   90.00000000
_cell_angle_gamma   120.00000972
_symmetry_Int_Tables_number   1
_chemical_formula_structural   ZrOs2
_chemical_formula_sum   'Zr4 Os8'
_cell_volume   201.79409949
_cell_formula_units_Z   4
loop_
 _symmetry_equiv_pos_site_id
 _symmetry_equiv_pos_as_xyz
  1  'x, y, z'
loop_
 _atom_site_type_symbol
 _atom_site_label
 _atom_site_symmetry_multiplicity
 _atom_site_fract_x
 _atom_site_fract_y
 _atom_site_fract_z
 _atom_site_occupancy
  Zr  Zr0  1  0.33333300  0.66666700  0.06685797  1
  Zr  Zr1  1  0.33333300  0.66666700  0.43314203  1
  Zr  Zr2  1  0.66666700  0.33333300  0.56685797  1
  Zr  Zr3  1  0.66666700  0.33333300  0.93314203  1
  Os  Os0  1  0.17244280  0.34488560  0.75000000  1
  Os  Os1  1  0.17244280  0.82755720  0.75000000  1
  Os  Os2  1  0.34488560  0.17244280  0.25000000  1
  Os  Os3  1  0.82755720  0.65511440  0.25000000  1
  Os  Os4  1  0.00000000  -0.00000000  0.00000000  1
  Os  Os5  1  0.65511440  0.82755720  0.75000000  1
  Os  Os6  1  0.82755720  0.17244280  0.25000000  1
  Os  Os7  1  0.00000000  -0.00000000  0.50000000  1
loop_
_geom_bond_atom_site_label_1
_geom_bond_atom_site_label_2
_geom_bond_distance
_geom_bond_site_symmetry_2
Os0 Os5 2.514114 1_555
Os0 Os1 2.514114 1_555
Os0 Os7 2.651484 1_555
Os0 Os4 2.651484 1_556
Os0 Os5 2.694632 1_445
Os0 Os1 2.694633 1_545
Os0 Zr2 3.042935 1_455
Os0 Zr3 3.042935 1_455
Os0 Zr3 3.042940 1_555
Os0 Zr2 3.042940 1_555
Os0 Zr1 3.084216 1_555
Os0 Zr0 3.084216 1_556
Os1 Os5 2.514114 1_555
Os1 Os7 2.651484 1_565
Os1 Os4 2.651484 1_566
Os1 Os5 2.694632 1_455
Os1 Zr3 3.042938 1_455
Os1 Zr2 3.042938 1_455
Os1 Zr2 3.042938 1_565
Os1 Zr3 3.042938 1_565
Os1 Zr1 3.084214 1_555
Os1 Zr0 3.084214 1_556
Os2 Os3 2.514114 1_555
Os2 Os6 2.514114 1_555
Os2 Os4 2.651484 1_555
Os2 Os7 2.651484 1_555
Os2 Os3 2.694632 1_445
Os2 Os6 2.694632 1_455
Os2 Zr1 3.042936 1_545
Os2 Zr0 3.042936 1_545
Os2 Zr1 3.042941 1_555
Os2 Zr0 3.042941 1_555
Os2 Zr3 3.084216 1_554
Os2 Zr2 3.084216 1_555
Os3 Os6 2.514114 1_555
Os3 Os7 2.651484 1_665
Os3 Os4 2.651484 1_665
Os3 Os6 2.694633 1_565
Os3 Zr0 3.042935 1_655
Os3 Zr1 3.042935 1_655
Os3 Zr1 3.042940 1_555
Os3 Zr0 3.042940 1_555
Os3 Zr2 3.084216 1_555
Os3 Zr3 3.084216 1_554
Os4 Os5 2.651484 1_444
Os4 Os6 2.651484 1_455
Os4 Zr0 3.061596 1_545
Os4 Zr3 3.061596 1_454
Os4 Zr0 3.061600 1_445
Os4 Zr3 3.061600 1_554
Os4 Zr0 3.061601 1_555
Os4 Zr3 3.061601 1_444
Os5 Os7 2.651484 1_665
Os5 Zr2 3.042936 1_565
Os5 Zr3 3.042936 1_565
Os5 Zr2 3.042941 1_555
Os5 Zr3 3.042941 1_555
Os5 Zr1 3.084216 1_555
Os5 Zr0 3.084216 1_556
Os6 Os7 2.651484 1_655
Os6 Zr0 3.042938 1_655
Os6 Zr1 3.042938 1_655
Os6 Zr0 3.042938 1_545
Os6 Zr1 3.042938 1_545
Os6 Zr2 3.084214 1_555
Os6 Zr3 3.084214 1_554
Os7 Zr2 3.061596 1_455
Os7 Zr1 3.061596 1_545
Os7 Zr1 3.061600 1_445
Os7 Zr2 3.061600 1_555
Os7 Zr2 3.061601 1_445
Os7 Zr1 3.061601 1_555
