# generated using pymatgen
data_SrV6O11
_symmetry_space_group_name_H-M   'P 1'
_cell_length_a   6.12184587
_cell_length_b   6.12184587
_cell_length_c   13.29469500
_cell_angle_alpha   90.00000000
_cell_angle_beta   90.00000000
_cell_angle_gamma   119.99999856
_symmetry_Int_Tables_number   1
_chemical_formula_structural   SrV6O11
_chemical_formula_sum   'Sr2 V12 O22'
_cell_volume   431.49304330
_cell_formula_units_Z   2
loop_
 _symmetry_equiv_pos_site_id
 _symmetry_equiv_pos_as_xyz
  1  'x, y, z'
loop_
 _atom_site_type_symbol
 _atom_site_label
 _atom_site_symmetry_multiplicity
 _atom_site_fract_x
 _atom_site_fract_y
 _atom_site_fract_z
 _atom_site_occupancy
  Sr  Sr0  1  0.66666700  0.33333300  0.75000000  1
  Sr  Sr1  1  0.33333300  0.66666700  0.25000000  1
  V  V0  1  0.00000000  0.00000000  0.85537400  1
  V  V1  1  0.50000000  0.00000000  0.00000000  1
  V  V2  1  0.00000000  0.00000000  0.14462600  1
  V  V3  1  0.50000000  0.50000000  0.00000000  1
  V  V4  1  0.50000000  0.50000000  0.50000000  1
  V  V5  1  0.33333300  0.66666700  0.75000000  1
  V  V6  1  0.00000000  0.50000000  0.00000000  1
  V  V7  1  0.66666700  0.33333300  0.25000000  1
  V  V8  1  0.00000000  0.00000000  0.64462600  1
  V  V9  1  0.00000000  0.00000000  0.35537400  1
  V  V10  1  0.00000000  0.50000000  0.50000000  1
  V  V11  1  0.50000000  0.00000000  0.50000000  1
  O  O0  1  0.75347000  0.87673500  0.25000000  1
  O  O1  1  0.16979400  0.83020600  0.07304700  1
  O  O2  1  0.33333300  0.66666700  0.90075700  1
  O  O3  1  0.33958700  0.16979400  0.57304700  1
  O  O4  1  0.24653000  0.12326500  0.75000000  1
  O  O5  1  0.12326500  0.24653000  0.25000000  1
  O  O6  1  0.66666700  0.33333300  0.40075700  1
  O  O7  1  0.66041300  0.83020600  0.07304700  1
  O  O8  1  0.12326500  0.87673500  0.25000000  1
  O  O9  1  0.83020600  0.66041300  0.92695300  1
  O  O10  1  0.83020600  0.16979400  0.92695300  1
  O  O11  1  0.83020600  0.16979400  0.57304700  1
  O  O12  1  0.87673500  0.75347000  0.75000000  1
  O  O13  1  0.16979400  0.33958700  0.07304700  1
  O  O14  1  0.87673500  0.12326500  0.75000000  1
  O  O15  1  0.16979400  0.83020600  0.42695300  1
  O  O16  1  0.83020600  0.66041300  0.57304700  1
  O  O17  1  0.33958700  0.16979400  0.92695300  1
  O  O18  1  0.33333300  0.66666700  0.59924300  1
  O  O19  1  0.16979400  0.33958700  0.42695300  1
  O  O20  1  0.66666700  0.33333300  0.09924300  1
  O  O21  1  0.66041300  0.83020600  0.42695300  1
loop_
_geom_bond_atom_site_label_1
_geom_bond_atom_site_label_2
_geom_bond_distance
_geom_bond_site_symmetry_2
O0 V2 1.915951 1_665
O0 V9 1.915951 1_665
O0 Sr1 2.227429 1_555
O1 V6 2.002171 1_555
O1 V1 2.002171 1_565
O1 V2 2.036411 1_565
O2 V5 2.004268 1_555
O2 V6 2.205427 1_556
O2 V1 2.205427 1_566
O2 V3 2.205431 1_556
O3 V4 2.002171 1_555
O3 V11 2.002176 1_555
O3 V8 2.036406 1_555
O4 V0 1.915951 1_555
O4 V8 1.915951 1_555
O4 Sr0 2.227429 1_555
O5 V2 1.915951 1_555
O5 V9 1.915951 1_555
O5 Sr1 2.227429 1_555
O6 V7 2.004268 1_555
O6 V11 2.205427 1_555
O6 V10 2.205427 1_655
O6 V4 2.205431 1_555
O7 V3 2.002171 1_555
O7 V1 2.002176 1_565
O7 V2 2.036406 1_665
O8 V2 1.915951 1_565
O8 V9 1.915951 1_565
O8 Sr1 2.227424 1_555
O9 V3 2.002171 1_556
O9 V6 2.002176 1_656
O9 V0 2.036406 1_665
O10 V1 2.002171 1_556
O10 V6 2.002171 1_656
O10 V0 2.036411 1_655
O11 V10 2.002171 1_655
O11 V11 2.002171 1_555
O11 V8 2.036411 1_655
O12 V0 1.915951 1_665
O12 V8 1.915951 1_665
O12 Sr0 2.227429 1_555
O13 V3 2.002171 1_555
O13 V6 2.002176 1_555
O13 V2 2.036406 1_555
O14 V8 1.915951 1_655
O14 V0 1.915951 1_655
O14 Sr0 2.227424 1_555
O15 V11 2.002171 1_565
O15 V10 2.002171 1_555
O15 V9 2.036411 1_565
O16 V4 2.002171 1_555
O16 V10 2.002176 1_655
O16 V8 2.036406 1_665
O17 V3 2.002171 1_556
O17 V1 2.002176 1_556
O17 V0 2.036406 1_555
O18 V5 2.004268 1_555
O18 V11 2.205427 1_565
O18 V10 2.205427 1_555
O18 V4 2.205431 1_555
O19 V4 2.002171 1_555
O19 V10 2.002176 1_555
O19 V9 2.036406 1_555
O20 V7 2.004268 1_555
O20 V6 2.205427 1_655
O20 V1 2.205427 1_555
O20 V3 2.205431 1_555
O21 V4 2.002171 1_555
O21 V11 2.002176 1_565
O21 V9 2.036406 1_665
