# generated using pymatgen
data_K3(MoO3)10
_symmetry_space_group_name_H-M   'P 1'
_cell_length_a   10.25319979
_cell_length_b   10.25319979
_cell_length_c   10.23248438
_cell_angle_alpha   63.16428700
_cell_angle_beta   63.16428700
_cell_angle_gamma   44.08886022
_symmetry_Int_Tables_number   1
_chemical_formula_structural   K3(MoO3)10
_chemical_formula_sum   'K3 Mo10 O30'
_cell_volume   653.68833904
_cell_formula_units_Z   1
loop_
 _symmetry_equiv_pos_site_id
 _symmetry_equiv_pos_as_xyz
  1  'x, y, z'
loop_
 _atom_site_type_symbol
 _atom_site_label
 _atom_site_symmetry_multiplicity
 _atom_site_fract_x
 _atom_site_fract_y
 _atom_site_fract_z
 _atom_site_occupancy
  K  K0  1  0.50000000  0.50000000  0.50000000  1
  K  K1  1  0.18400500  0.18400500  0.27244500  1
  K  K2  1  0.81599500  0.81599500  0.72755500  1
  Mo  Mo0  1  0.77654700  0.77654700  0.17215000  1
  Mo  Mo1  1  0.22345300  0.22345300  0.82785000  1
  Mo  Mo2  1  0.33347900  0.82283500  0.04123000  1
  Mo  Mo3  1  0.17716500  0.66652100  0.95877000  1
  Mo  Mo4  1  0.66652100  0.17716500  0.95877000  1
  Mo  Mo5  1  0.82283500  0.33347900  0.04123000  1
  Mo  Mo6  1  0.61107600  0.11029000  0.34493100  1
  Mo  Mo7  1  0.88971000  0.38892400  0.65506900  1
  Mo  Mo8  1  0.38892400  0.88971000  0.65506900  1
  Mo  Mo9  1  0.11029000  0.61107600  0.34493100  1
  O  O0  1  0.50000000  0.00000000  0.50000000  1
  O  O1  1  0.00000000  0.50000000  0.50000000  1
  O  O2  1  0.75382200  0.75382200  0.02687700  1
  O  O3  1  0.24617800  0.24617800  0.97312300  1
  O  O4  1  0.68351100  0.68351100  0.33317800  1
  O  O5  1  0.31648900  0.31648900  0.66682200  1
  O  O6  1  0.57842900  0.57842900  0.01472100  1
  O  O7  1  0.42157100  0.42157100  0.98527900  1
  O  O8  1  0.08780300  0.08780300  0.00588700  1
  O  O9  1  0.91219700  0.91219700  0.99411300  1
  O  O10  1  0.84427600  0.84427600  0.31182800  1
  O  O11  1  0.15572400  0.15572400  0.68817200  1
  O  O12  1  0.35807300  0.35807300  0.33022000  1
  O  O13  1  0.64192700  0.64192700  0.66978000  1
  O  O14  1  0.35085200  0.84498100  0.18885200  1
  O  O15  1  0.15501900  0.64914800  0.81114800  1
  O  O16  1  0.64914800  0.15501900  0.81114800  1
  O  O17  1  0.84498100  0.35085200  0.18885200  1
  O  O18  1  0.57273600  0.05767700  0.16065000  1
  O  O19  1  0.94232300  0.42726400  0.83935000  1
  O  O20  1  0.42726400  0.94232300  0.83935000  1
  O  O21  1  0.05767700  0.57273600  0.16065000  1
  O  O22  1  0.68824900  0.12872700  0.44937400  1
  O  O23  1  0.87127300  0.31175100  0.55062600  1
  O  O24  1  0.31175100  0.87127300  0.55062600  1
  O  O25  1  0.12872700  0.68824900  0.44937400  1
  O  O26  1  0.71410400  0.20590900  0.14574700  1
  O  O27  1  0.79409100  0.28589600  0.85425300  1
  O  O28  1  0.28589600  0.79409100  0.85425300  1
  O  O29  1  0.20590900  0.71410400  0.14574700  1
loop_
_geom_bond_atom_site_label_1
_geom_bond_atom_site_label_2
_geom_bond_distance
_geom_bond_site_symmetry_2
K0 O23 2.967796 1_555
K0 O24 2.967796 1_555
K0 O25 2.967796 1_555
K0 O22 2.967796 1_555
K0 O4 3.046393 1_555
K0 O5 3.046393 1_555
K0 O17 3.382969 1_555
K0 O15 3.382969 1_555
K0 O16 3.382969 1_555
K0 O14 3.382969 1_555
K1 O3 2.692894 1_554
K1 O14 2.926138 1_545
K1 O17 2.926138 1_455
K1 O21 2.945750 1_555
K1 O18 2.945750 1_555
K1 O23 3.031825 1_455
K1 O24 3.031825 1_545
K2 O2 2.692894 1_556
K2 O16 2.926138 1_565
K2 O15 2.926138 1_655
K2 O19 2.945750 1_555
K2 O20 2.945750 1_555
K2 O22 3.031825 1_565
K2 O25 3.031825 1_655
Mo0 O4 1.733157 1_555
Mo0 O2 1.738304 1_555
Mo0 O21 1.988024 1_655
Mo0 O18 1.988024 1_565
Mo0 O9 2.321908 1_554
Mo0 O10 2.343556 1_555
Mo1 O5 1.733157 1_555
Mo1 O3 1.738304 1_555
Mo1 O20 1.988024 1_545
Mo1 O19 1.988024 1_455
Mo1 O8 2.321908 1_556
Mo1 O11 2.343556 1_555
Mo2 O14 1.725032 1_555
Mo2 O6 1.902266 1_555
Mo2 O29 1.962852 1_555
Mo2 O8 1.990340 1_565
Mo2 O20 2.075280 1_554
Mo2 O28 2.354523 1_554
Mo3 O15 1.725032 1_555
Mo3 O7 1.902266 1_555
Mo3 O28 1.962852 1_555
Mo3 O9 1.990340 1_455
Mo3 O21 2.075280 1_556
Mo3 O29 2.354523 1_556
Mo4 O16 1.725032 1_555
Mo4 O7 1.902266 1_555
Mo4 O27 1.962852 1_555
Mo4 O9 1.990340 1_545
Mo4 O18 2.075280 1_556
Mo4 O26 2.354523 1_556
Mo5 O17 1.725032 1_555
Mo5 O6 1.902266 1_555
Mo5 O26 1.962852 1_555
Mo5 O8 1.990340 1_655
Mo5 O19 2.075280 1_554
Mo5 O27 2.354523 1_554
Mo6 O22 1.721850 1_555
Mo6 O0 1.921462 1_555
Mo6 O12 1.935555 1_555
Mo6 O26 1.992707 1_555
Mo6 O10 2.001394 1_545
Mo6 O18 2.427661 1_555
Mo7 O23 1.721850 1_555
Mo7 O1 1.921462 1_655
Mo7 O13 1.935555 1_555
Mo7 O27 1.992707 1_555
Mo7 O11 2.001394 1_655
Mo7 O19 2.427661 1_555
Mo8 O24 1.721850 1_555
Mo8 O0 1.921462 1_565
Mo8 O13 1.935555 1_555
Mo8 O28 1.992707 1_555
Mo8 O11 2.001394 1_565
Mo8 O20 2.427661 1_555
Mo9 O25 1.721850 1_555
Mo9 O1 1.921462 1_555
Mo9 O12 1.935555 1_555
Mo9 O29 1.992707 1_555
Mo9 O10 2.001394 1_455
Mo9 O21 2.427661 1_555
