# generated using pymatgen
data_LiCo(PO3)3
_symmetry_space_group_name_H-M   'P 1'
_cell_length_a   5.16294400
_cell_length_b   12.07634300
_cell_length_c   13.20811500
_cell_angle_alpha   90.00000000
_cell_angle_beta   90.00000000
_cell_angle_gamma   90.00000000
_symmetry_Int_Tables_number   1
_chemical_formula_structural   LiCo(PO3)3
_chemical_formula_sum   'Li4 Co4 P12 O36'
_cell_volume   823.51913682
_cell_formula_units_Z   4
loop_
 _symmetry_equiv_pos_site_id
 _symmetry_equiv_pos_as_xyz
  1  'x, y, z'
loop_
 _atom_site_type_symbol
 _atom_site_label
 _atom_site_symmetry_multiplicity
 _atom_site_fract_x
 _atom_site_fract_y
 _atom_site_fract_z
 _atom_site_occupancy
  Li  Li0  1  0.99224600  0.00288800  0.75000000  1
  Li  Li1  1  0.99224600  0.49711200  0.25000000  1
  Li  Li2  1  0.00775400  0.99711200  0.25000000  1
  Li  Li3  1  0.00775400  0.50288800  0.75000000  1
  Co  Co0  1  0.00000000  0.00000000  0.50000000  1
  Co  Co1  1  0.00000000  0.00000000  0.00000000  1
  Co  Co2  1  0.00000000  0.50000000  0.00000000  1
  Co  Co3  1  0.00000000  0.50000000  0.50000000  1
  P  P0  1  0.50521000  0.08885900  0.86136200  1
  P  P1  1  0.50521000  0.41114100  0.13863800  1
  P  P2  1  0.49479000  0.91114100  0.36136200  1
  P  P3  1  0.49479000  0.91114100  0.13863800  1
  P  P4  1  0.49479000  0.58885900  0.63863800  1
  P  P5  1  0.24508300  0.75000000  0.50000000  1
  P  P6  1  0.75491700  0.25000000  0.00000000  1
  P  P7  1  0.75491700  0.25000000  0.50000000  1
  P  P8  1  0.49479000  0.58885900  0.86136200  1
  P  P9  1  0.50521000  0.41114100  0.36136200  1
  P  P10  1  0.24508300  0.75000000  0.00000000  1
  P  P11  1  0.50521000  0.08885900  0.63863800  1
  O  O0  1  0.28735700  0.50459800  0.88475700  1
  O  O1  1  0.71264300  0.00459800  0.61524300  1
  O  O2  1  0.90047000  0.15620300  0.45236400  1
  O  O3  1  0.90047000  0.15620300  0.04763600  1
  O  O4  1  0.09953000  0.65620300  0.04763600  1
  O  O5  1  0.28735700  0.99540200  0.38475700  1
  O  O6  1  0.56410900  0.36315400  0.25000000  1
  O  O7  1  0.77487200  0.94553200  0.13295200  1
  O  O8  1  0.54328800  0.20186600  0.57876400  1
  O  O9  1  0.77487200  0.55446800  0.86704800  1
  O  O10  1  0.90047000  0.34379700  0.54763600  1
  O  O11  1  0.56410900  0.13684600  0.75000000  1
  O  O12  1  0.45671200  0.70186600  0.57876400  1
  O  O13  1  0.09953000  0.84379700  0.54763600  1
  O  O14  1  0.22512800  0.44553200  0.36704800  1
  O  O15  1  0.09953000  0.65620300  0.45236400  1
  O  O16  1  0.77487200  0.94553200  0.36704800  1
  O  O17  1  0.22512800  0.05446800  0.63295200  1
  O  O18  1  0.45671200  0.79813400  0.07876400  1
  O  O19  1  0.22512800  0.05446800  0.86704800  1
  O  O20  1  0.09953000  0.84379700  0.95236400  1
  O  O21  1  0.45671200  0.70186600  0.92123600  1
  O  O22  1  0.71264300  0.49540200  0.38475700  1
  O  O23  1  0.43589100  0.63684600  0.75000000  1
  O  O24  1  0.28735700  0.50459800  0.61524300  1
  O  O25  1  0.90047000  0.34379700  0.95236400  1
  O  O26  1  0.77487200  0.55446800  0.63295200  1
  O  O27  1  0.54328800  0.20186600  0.92123600  1
  O  O28  1  0.71264300  0.49540200  0.11524300  1
  O  O29  1  0.22512800  0.44553200  0.13295200  1
  O  O30  1  0.45671200  0.79813400  0.42123600  1
  O  O31  1  0.54328800  0.29813400  0.42123600  1
  O  O32  1  0.54328800  0.29813400  0.07876400  1
  O  O33  1  0.71264300  0.00459800  0.88475700  1
  O  O34  1  0.43589100  0.86315400  0.25000000  1
  O  O35  1  0.28735700  0.99540200  0.11524300  1
loop_
_geom_bond_atom_site_label_1
_geom_bond_atom_site_label_2
_geom_bond_distance
_geom_bond_site_symmetry_2
Li0 O17 2.055171 1_655
Li0 O19 2.055171 1_655
Li0 O1 2.291796 1_555
Li0 O33 2.291796 1_555
Li1 O29 2.055171 1_655
Li1 O14 2.055171 1_655
Li1 O22 2.291796 1_555
Li1 O28 2.291796 1_555
Li2 O16 2.055171 1_455
Li2 O7 2.055171 1_455
Li2 O35 2.291796 1_555
Li2 O5 2.291796 1_555
Li3 O9 2.055171 1_455
Li3 O26 2.055171 1_455
Li3 O0 2.291796 1_555
Li3 O24 2.291796 1_555
Co0 O13 2.053847 1_545
Co0 O2 2.053847 1_455
Co0 O1 2.126287 1_455
Co0 O5 2.126287 1_545
Co0 O17 2.206209 1_555
Co0 O16 2.206209 1_445
Co1 O20 2.053847 1_544
Co1 O3 2.053847 1_455
Co1 O35 2.126287 1_545
Co1 O33 2.126287 1_454
Co1 O19 2.206209 1_554
Co1 O7 2.206209 1_445
Co2 O4 2.053847 1_555
Co2 O25 2.053847 1_454
Co2 O28 2.126287 1_455
Co2 O0 2.126287 1_554
Co2 O9 2.206209 1_454
Co2 O29 2.206209 1_555
Co3 O15 2.053847 1_555
Co3 O10 2.053847 1_455
Co3 O24 2.126287 1_555
Co3 O22 2.126287 1_455
Co3 O26 2.206209 1_455
Co3 O14 2.206209 1_555
O0 P8 1.509267 1_555
O1 P11 1.509267 1_555
O2 P7 1.497885 1_555
O3 P6 1.497885 1_555
O4 P10 1.497885 1_555
O5 P2 1.509267 1_555
O6 P9 1.609905 1_555
O6 P1 1.609905 1_555
O7 P3 1.506381 1_555
O8 P11 1.589493 1_555
O8 P7 1.616787 1_555
O9 P8 1.506381 1_555
O10 P7 1.497885 1_555
O11 P0 1.609905 1_555
O11 P11 1.609905 1_555
O12 P4 1.589493 1_555
O12 P5 1.616787 1_555
O13 P5 1.497885 1_555
O14 P9 1.506381 1_555
O15 P5 1.497885 1_555
O16 P2 1.506381 1_555
O17 P11 1.506381 1_555
O18 P3 1.589493 1_555
O18 P10 1.616787 1_555
O19 P0 1.506381 1_555
O20 P10 1.497885 1_556
O21 P8 1.589493 1_555
O21 P10 1.616787 1_556
O22 P9 1.509267 1_555
O23 P4 1.609905 1_555
O23 P8 1.609905 1_555
O24 P4 1.509267 1_555
O25 P6 1.497885 1_556
O26 P4 1.506381 1_555
O27 P0 1.589493 1_555
O27 P6 1.616787 1_556
O28 P1 1.509267 1_555
O29 P1 1.506381 1_555
O30 P2 1.589493 1_555
O30 P5 1.616787 1_555
O31 P9 1.589493 1_555
O31 P7 1.616787 1_555
O32 P1 1.589493 1_555
O32 P6 1.616787 1_555
O33 P0 1.509267 1_555
O34 P3 1.609905 1_555
O34 P2 1.609905 1_555
O35 P3 1.509267 1_555
