# generated using pymatgen
data_Cs2FeNi(CN)6
_symmetry_space_group_name_H-M   'P 1'
_cell_length_a   7.25819796
_cell_length_b   7.25819796
_cell_length_c   7.25819796
_cell_angle_alpha   60.00000000
_cell_angle_beta   60.00000000
_cell_angle_gamma   60.00000000
_symmetry_Int_Tables_number   1
_chemical_formula_structural   Cs2FeNi(CN)6
_chemical_formula_sum   'Cs2 Fe1 Ni1 C6 N6'
_cell_volume   270.37804899
_cell_formula_units_Z   1
loop_
 _symmetry_equiv_pos_site_id
 _symmetry_equiv_pos_as_xyz
  1  'x, y, z'
loop_
 _atom_site_type_symbol
 _atom_site_label
 _atom_site_symmetry_multiplicity
 _atom_site_fract_x
 _atom_site_fract_y
 _atom_site_fract_z
 _atom_site_occupancy
  Cs  Cs0  1  0.25000000  0.25000000  0.25000000  1
  Cs  Cs1  1  0.75000000  0.75000000  0.75000000  1
  Fe  Fe0  1  0.00000000  0.00000000  0.00000000  1
  Ni  Ni0  1  0.50000000  0.50000000  0.50000000  1
  C  C0  1  0.18397400  0.81602600  0.18397400  1
  C  C1  1  0.81602600  0.18397400  0.81602600  1
  C  C2  1  0.18397400  0.18397400  0.81602600  1
  C  C3  1  0.18397400  0.81602600  0.81602600  1
  C  C4  1  0.81602600  0.18397400  0.18397400  1
  C  C5  1  0.81602600  0.81602600  0.18397400  1
  N  N0  1  0.70102000  0.29898000  0.70102000  1
  N  N1  1  0.70102000  0.29898000  0.29898000  1
  N  N2  1  0.29898000  0.29898000  0.70102000  1
  N  N3  1  0.29898000  0.70102000  0.70102000  1
  N  N4  1  0.70102000  0.70102000  0.29898000  1
  N  N5  1  0.29898000  0.70102000  0.29898000  1
loop_
_geom_bond_atom_site_label_1
_geom_bond_atom_site_label_2
_geom_bond_distance
_geom_bond_site_symmetry_2
Cs0 N3 3.663759 1_554
Cs0 N2 3.663759 1_555
Cs0 N0 3.663759 1_554
Cs0 N0 3.663759 1_455
Cs0 N2 3.663759 1_554
Cs0 N5 3.663759 1_555
Cs0 N1 3.663759 1_455
Cs0 N3 3.663759 1_545
Cs0 N1 3.663759 1_555
Cs0 N4 3.663759 1_545
Cs0 N5 3.663759 1_545
Cs0 N4 3.663759 1_455
Cs1 N0 3.663759 1_555
Cs1 N2 3.663759 1_565
Cs1 N5 3.663759 1_556
Cs1 N1 3.663759 1_556
Cs1 N0 3.663759 1_565
Cs1 N1 3.663759 1_565
Cs1 N4 3.663759 1_555
Cs1 N4 3.663759 1_556
Cs1 N3 3.663759 1_655
Cs1 N5 3.663759 1_655
Cs1 N2 3.663759 1_655
Cs1 N3 3.663759 1_555
C0 N5 1.180495 1_555
C0 Fe0 1.888427 1_565
C0 Cs0 3.691840 1_565
C0 Cs1 3.691840 1_554
C0 Cs1 3.691840 1_455
C0 Cs0 3.691840 1_555
C1 N0 1.180495 1_555
C1 Fe0 1.888427 1_656
C1 Cs0 3.691840 1_655
C1 Cs1 3.691840 1_545
C1 Cs1 3.691840 1_555
C1 Cs0 3.691840 1_556
C2 N2 1.180495 1_555
C2 Fe0 1.888427 1_556
C2 Cs1 3.691840 1_545
C2 Cs0 3.691840 1_556
C2 Cs1 3.691840 1_455
C2 Cs0 3.691840 1_555
C3 N3 1.180495 1_555
C3 Fe0 1.888427 1_566
C3 Cs0 3.691840 1_556
C3 Cs1 3.691840 1_455
C3 Cs0 3.691840 1_565
C3 Cs1 3.691840 1_555
C4 N1 1.180495 1_555
C4 Fe0 1.888427 1_655
C4 Cs0 3.691840 1_655
C4 Cs1 3.691840 1_545
C4 Cs1 3.691840 1_554
C4 Cs0 3.691840 1_555
C5 N4 1.180495 1_555
C5 Fe0 1.888427 1_665
C5 Cs1 3.691840 1_554
C5 Cs0 3.691840 1_565
C5 Cs0 3.691840 1_655
C5 Cs1 3.691840 1_555
N0 Ni0 2.063398 1_555
N1 Ni0 2.063398 1_555
N2 Ni0 2.063398 1_555
N3 Ni0 2.063398 1_555
N4 Ni0 2.063398 1_555
N5 Ni0 2.063398 1_555
