# generated using pymatgen
data_CsTi3P5O19
_symmetry_space_group_name_H-M   'P 1'
_cell_length_a   8.58149494
_cell_length_b   8.58149494
_cell_length_c   6.40188191
_cell_angle_alpha   81.39406824
_cell_angle_beta   81.39406824
_cell_angle_gamma   113.20109859
_symmetry_Int_Tables_number   1
_chemical_formula_structural   CsTi3P5O19
_chemical_formula_sum   'Cs1 Ti3 P5 O19'
_cell_volume   417.00355049
_cell_formula_units_Z   1
loop_
 _symmetry_equiv_pos_site_id
 _symmetry_equiv_pos_as_xyz
  1  'x, y, z'
loop_
 _atom_site_type_symbol
 _atom_site_label
 _atom_site_symmetry_multiplicity
 _atom_site_fract_x
 _atom_site_fract_y
 _atom_site_fract_z
 _atom_site_occupancy
  Cs  Cs0  1  0.09752400  0.09752400  0.47590500  1
  Ti  Ti0  1  0.24392500  0.49067300  0.81822200  1
  Ti  Ti1  1  0.76536800  0.76536800  0.15685000  1
  Ti  Ti2  1  0.49067300  0.24392500  0.81822200  1
  P  P0  1  0.81511400  0.18485500  0.00034600  1
  P  P1  1  0.18485500  0.81511400  0.00034600  1
  P  P2  1  0.66988500  0.66988500  0.69733200  1
  P  P3  1  0.61028200  0.31709900  0.26977900  1
  P  P4  1  0.31709900  0.61028200  0.26977900  1
  O  O0  1  0.66310700  0.48500500  0.73803700  1
  O  O1  1  0.23480500  0.52503500  0.50956000  1
  O  O2  1  0.25021900  0.47542100  0.13447100  1
  O  O3  1  0.68525600  0.16601000  0.85850400  1
  O  O4  1  0.32211300  0.99782200  0.88746300  1
  O  O5  1  0.77281500  0.77281500  0.84840400  1
  O  O6  1  0.51528900  0.70615500  0.22047100  1
  O  O7  1  0.76987700  0.76987700  0.46143300  1
  O  O8  1  0.31649200  0.31649200  0.81377800  1
  O  O9  1  0.70615500  0.51528900  0.22047100  1
  O  O10  1  0.16601000  0.68525600  0.85850400  1
  O  O11  1  0.24712000  0.75663500  0.21371300  1
  O  O12  1  0.01387600  0.82265200  0.09588800  1
  O  O13  1  0.47542100  0.25021900  0.13447100  1
  O  O14  1  0.52503500  0.23480500  0.50956000  1
  O  O15  1  0.48500500  0.66310700  0.73803700  1
  O  O16  1  0.99782200  0.32211300  0.88746300  1
  O  O17  1  0.82265200  0.01387600  0.09588800  1
  O  O18  1  0.75663500  0.24712000  0.21371300  1
loop_
_geom_bond_atom_site_label_1
_geom_bond_atom_site_label_2
_geom_bond_distance
_geom_bond_site_symmetry_2
Cs0 O7 3.121988 1_445
Cs0 O13 3.268736 1_555
Cs0 O2 3.268736 1_555
Cs0 O5 3.334767 1_445
Cs0 O8 3.375088 1_555
Cs0 O14 3.435210 1_555
Cs0 O1 3.435210 1_555
Cs0 O12 3.592191 1_545
Cs0 O17 3.592191 1_455
Cs0 O16 3.678693 1_455
Cs0 O4 3.678693 1_545
O0 P2 1.545135 1_555
O0 Ti2 1.943181 1_555
O1 P4 1.524041 1_555
O1 Ti0 1.971752 1_555
O2 P4 1.531198 1_555
O2 Ti0 2.019406 1_554
O3 P0 1.515700 1_556
O3 Ti2 2.063688 1_555
O4 P1 1.522825 1_556
O4 Ti2 1.967237 1_565
O5 P2 1.546729 1_555
O5 Ti1 1.956681 1_556
O6 P4 1.525853 1_555
O6 Ti1 1.961348 1_555
O7 P2 1.548390 1_555
O7 Ti1 1.961913 1_555
O8 Ti0 1.834031 1_555
O8 Ti2 1.834031 1_555
O9 P3 1.525853 1_555
O9 Ti1 1.961348 1_555
O10 P1 1.515700 1_556
O10 Ti0 2.063688 1_555
O11 P4 1.609556 1_555
O11 P1 1.621026 1_555
O12 P1 1.532703 1_555
O12 Ti1 1.951748 1_455
O13 P3 1.531198 1_555
O13 Ti2 2.019406 1_554
O14 P3 1.524041 1_555
O14 Ti2 1.971752 1_555
O15 P2 1.545135 1_555
O15 Ti0 1.943181 1_555
O16 P0 1.522825 1_556
O16 Ti0 1.967237 1_655
O17 P0 1.532703 1_555
O17 Ti1 1.951748 1_545
O18 P3 1.609556 1_555
O18 P0 1.621026 1_555
