# generated using pymatgen
data_GaNi2
_symmetry_space_group_name_H-M   'P 1'
_cell_length_a   3.99414530
_cell_length_b   3.99414426
_cell_length_c   4.96384256
_cell_angle_alpha   90.00000000
_cell_angle_beta   90.00000000
_cell_angle_gamma   120.00000865
_symmetry_Int_Tables_number   1
_chemical_formula_structural   GaNi2
_chemical_formula_sum   'Ga2 Ni4'
_cell_volume   68.57979744
_cell_formula_units_Z   2
loop_
 _symmetry_equiv_pos_site_id
 _symmetry_equiv_pos_as_xyz
  1  'x, y, z'
loop_
 _atom_site_type_symbol
 _atom_site_label
 _atom_site_symmetry_multiplicity
 _atom_site_fract_x
 _atom_site_fract_y
 _atom_site_fract_z
 _atom_site_occupancy
  Ga  Ga0  1  0.33333300  0.66666700  0.25000000  1
  Ga  Ga1  1  0.66666700  0.33333300  0.75000000  1
  Ni  Ni0  1  -0.00000000  0.00000000  -0.00000000  1
  Ni  Ni1  1  0.66666700  0.33333300  0.25000000  1
  Ni  Ni2  1  0.33333300  0.66666700  0.75000000  1
  Ni  Ni3  1  -0.00000000  0.00000000  0.50000000  1
loop_
_geom_bond_atom_site_label_1
_geom_bond_atom_site_label_2
_geom_bond_distance
_geom_bond_site_symmetry_2
Ga0 Ni1 2.306018 1_565
Ga0 Ni1 2.306018 1_455
Ga0 Ni1 2.306025 1_555
Ga0 Ni2 2.481921 1_554
Ga0 Ni2 2.481921 1_555
Ga0 Ni0 2.618722 1_565
Ga0 Ni3 2.618722 1_565
Ga0 Ni3 2.618724 1_555
Ga0 Ni0 2.618724 1_555
Ga0 Ni3 2.618725 1_665
Ga0 Ni0 2.618725 1_665
Ga1 Ni2 2.306018 1_545
Ga1 Ni2 2.306018 1_655
Ga1 Ni2 2.306025 1_555
Ga1 Ni1 2.481921 1_556
Ga1 Ni1 2.481921 1_555
Ga1 Ni0 2.618722 1_656
Ga1 Ni3 2.618722 1_655
Ga1 Ni0 2.618724 1_666
Ga1 Ni3 2.618724 1_665
Ga1 Ni0 2.618725 1_556
Ga1 Ni3 2.618725 1_555
Ni0 Ni3 2.481921 1_555
Ni0 Ni3 2.481921 1_554
Ni0 Ni1 2.618722 1_455
Ni0 Ni2 2.618722 1_544
Ni0 Ni2 2.618724 1_554
Ni0 Ni1 2.618724 1_445
Ni0 Ni1 2.618725 1_555
Ni0 Ni2 2.618725 1_444
Ni1 Ni3 2.618722 1_655
Ni1 Ni3 2.618724 1_665
Ni1 Ni3 2.618725 1_555
Ni2 Ni3 2.618722 1_565
Ni2 Ni3 2.618724 1_555
Ni2 Ni3 2.618725 1_665
