# generated using pymatgen
data_Li2Mg2Si4O11
_symmetry_space_group_name_H-M   'P 1'
_cell_length_a   6.96051900
_cell_length_b   7.50249991
_cell_length_c   8.75202434
_cell_angle_alpha   99.46181879
_cell_angle_beta   101.05506546
_cell_angle_gamma   104.80984410
_symmetry_Int_Tables_number   1
_chemical_formula_structural   Li2Mg2Si4O11
_chemical_formula_sum   'Li4 Mg4 Si8 O22'
_cell_volume   422.54877328
_cell_formula_units_Z   2
loop_
 _symmetry_equiv_pos_site_id
 _symmetry_equiv_pos_as_xyz
  1  'x, y, z'
loop_
 _atom_site_type_symbol
 _atom_site_label
 _atom_site_symmetry_multiplicity
 _atom_site_fract_x
 _atom_site_fract_y
 _atom_site_fract_z
 _atom_site_occupancy
  Li  Li0  1  0.61039300  0.79424300  0.19553900  1
  Li  Li1  1  0.14194400  0.75389100  0.15179800  1
  Li  Li2  1  0.38960700  0.20575700  0.80446100  1
  Li  Li3  1  0.85805600  0.24610900  0.84820200  1
  Mg  Mg0  1  0.11767100  0.38029100  0.61074800  1
  Mg  Mg1  1  0.36886900  0.61979000  0.39889400  1
  Mg  Mg2  1  0.63113100  0.38021000  0.60110600  1
  Mg  Mg3  1  0.88232900  0.61970900  0.38925200  1
  Si  Si0  1  0.75952600  0.60830400  0.96831400  1
  Si  Si1  1  0.95962000  0.22565800  0.23341100  1
  Si  Si2  1  0.52135000  0.22426000  0.22558600  1
  Si  Si3  1  0.23254300  0.02523000  0.40492400  1
  Si  Si4  1  0.24047400  0.39169600  0.03168600  1
  Si  Si5  1  0.76745700  0.97477000  0.59507600  1
  Si  Si6  1  0.47865000  0.77574000  0.77441400  1
  Si  Si7  1  0.04038000  0.77434200  0.76658900  1
  O  O0  1  0.32417400  0.59401800  0.15869100  1
  O  O1  1  0.97533600  0.73983500  0.93319000  1
  O  O2  1  0.39946400  0.26001500  0.05836800  1
  O  O3  1  0.41407200  0.59000800  0.62972600  1
  O  O4  1  0.06327800  0.41599300  0.37381400  1
  O  O5  1  0.67582600  0.40598200  0.84130900  1
  O  O6  1  0.97955300  0.95238100  0.70555000  1
  O  O7  1  0.29037900  0.84887200  0.81848600  1
  O  O8  1  0.02044700  0.04761900  0.29445000  1
  O  O9  1  0.67450600  0.80533100  0.43603200  1
  O  O10  1  0.18253900  0.80548300  0.41603100  1
  O  O11  1  0.02466400  0.26016500  0.06681000  1
  O  O12  1  0.70962100  0.15112800  0.18151400  1
  O  O13  1  0.38143500  0.03862400  0.27424700  1
  O  O14  1  0.60053600  0.73998500  0.94163200  1
  O  O15  1  0.81746100  0.19451700  0.58396900  1
  O  O16  1  0.61856500  0.96137600  0.72575300  1
  O  O17  1  0.93672200  0.58400700  0.62618600  1
  O  O18  1  0.18316400  0.38221400  0.84412300  1
  O  O19  1  0.32549400  0.19466900  0.56396800  1
  O  O20  1  0.81683600  0.61778600  0.15587700  1
  O  O21  1  0.58592800  0.40999200  0.37027400  1
loop_
_geom_bond_atom_site_label_1
_geom_bond_atom_site_label_2
_geom_bond_distance
_geom_bond_site_symmetry_2
Li0 O9 2.049265 1_555
Li0 O0 2.096174 1_555
Li0 O14 2.176793 1_554
Li0 O20 2.225010 1_555
Li1 O0 1.955354 1_555
Li1 O1 2.009175 1_454
Li1 O10 2.230885 1_555
Li1 O20 2.241975 1_455
Li1 O13 2.287450 1_565
Li2 O19 2.049265 1_555
Li2 O5 2.096174 1_555
Li2 O2 2.176793 1_556
Li2 O18 2.225010 1_555
Li3 O5 1.955354 1_555
Li3 O11 2.009175 1_656
Li3 O15 2.230885 1_555
Li3 O18 2.241975 1_655
Li3 O16 2.287450 1_545
Mg0 O18 2.002426 1_555
Mg0 O4 2.109145 1_555
Mg0 O15 2.140069 1_455
Mg0 O3 2.209698 1_555
Mg0 O17 2.218560 1_455
Mg0 O19 2.295452 1_555
Mg1 O0 2.034322 1_555
Mg1 O3 2.042278 1_555
Mg1 O10 2.138948 1_555
Mg1 O9 2.154368 1_555
Mg1 O4 2.226743 1_555
Mg1 O21 2.460515 1_555
Mg2 O5 2.034322 1_555
Mg2 O21 2.042278 1_555
Mg2 O15 2.138948 1_555
Mg2 O19 2.154368 1_555
Mg2 O17 2.226743 1_555
Mg2 O3 2.460515 1_555
Mg3 O20 2.002426 1_555
Mg3 O17 2.109145 1_555
Mg3 O10 2.140069 1_655
Mg3 O21 2.209698 1_555
Mg3 O4 2.218560 1_655
Mg3 O9 2.295452 1_555
O0 Si4 1.619836 1_555
O1 Si7 1.647846 1_655
O1 Si0 1.686348 1_555
O2 Si2 1.644019 1_555
O2 Si4 1.670598 1_555
O3 Si6 1.621315 1_555
O4 Si1 1.620509 1_455
O5 Si0 1.619836 1_555
O6 Si7 1.638847 1_655
O6 Si5 1.665914 1_555
O7 Si6 1.630639 1_555
O7 Si7 1.631855 1_555
O8 Si1 1.638847 1_455
O8 Si3 1.665914 1_555
O9 Si5 1.620037 1_555
O10 Si3 1.618938 1_565
O11 Si1 1.647846 1_455
O11 Si4 1.686348 1_555
O12 Si2 1.630639 1_555
O12 Si1 1.631855 1_555
O13 Si2 1.652332 1_555
O13 Si3 1.682641 1_555
O14 Si6 1.644019 1_555
O14 Si0 1.670598 1_555
O15 Si5 1.618938 1_545
O16 Si6 1.652332 1_555
O16 Si5 1.682641 1_555
O17 Si7 1.620509 1_655
O18 Si4 1.598394 1_556
O19 Si3 1.620037 1_555
O20 Si0 1.598394 1_554
O21 Si2 1.621315 1_555
