# generated using pymatgen
data_NiAsO4
_symmetry_space_group_name_H-M   'P 1'
_cell_length_a   4.94183900
_cell_length_b   5.81342400
_cell_length_c   10.22486200
_cell_angle_alpha   90.00000000
_cell_angle_beta   90.00000000
_cell_angle_gamma   90.00000000
_symmetry_Int_Tables_number   1
_chemical_formula_structural   NiAsO4
_chemical_formula_sum   'Ni4 As4 O16'
_cell_volume   293.75011609
_cell_formula_units_Z   4
loop_
 _symmetry_equiv_pos_site_id
 _symmetry_equiv_pos_as_xyz
  1  'x, y, z'
loop_
 _atom_site_type_symbol
 _atom_site_label
 _atom_site_symmetry_multiplicity
 _atom_site_fract_x
 _atom_site_fract_y
 _atom_site_fract_z
 _atom_site_occupancy
  Ni  Ni0  1  0.46024200  0.75000000  0.23133900  1
  Ni  Ni1  1  0.96024200  0.25000000  0.26866100  1
  Ni  Ni2  1  0.03975800  0.75000000  0.73133900  1
  Ni  Ni3  1  0.53975800  0.25000000  0.76866100  1
  As  As0  1  0.42119200  0.25000000  0.09268400  1
  As  As1  1  0.92119200  0.75000000  0.40731600  1
  As  As2  1  0.07880800  0.25000000  0.59268400  1
  As  As3  1  0.57880800  0.75000000  0.90731600  1
  O  O0  1  0.66611000  0.75000000  0.06969100  1
  O  O1  1  0.76617500  0.25000000  0.10469600  1
  O  O2  1  0.25018000  0.02871800  0.17391500  1
  O  O3  1  0.25018000  0.47128200  0.17391500  1
  O  O4  1  0.75018000  0.52871800  0.32608500  1
  O  O5  1  0.75018000  0.97128200  0.32608500  1
  O  O6  1  0.26617500  0.75000000  0.39530400  1
  O  O7  1  0.16611000  0.25000000  0.43030900  1
  O  O8  1  0.83389000  0.75000000  0.56969100  1
  O  O9  1  0.73382500  0.25000000  0.60469600  1
  O  O10  1  0.24982000  0.02871800  0.67391500  1
  O  O11  1  0.24982000  0.47128200  0.67391500  1
  O  O12  1  0.74982000  0.52871800  0.82608500  1
  O  O13  1  0.74982000  0.97128200  0.82608500  1
  O  O14  1  0.23382500  0.75000000  0.89530400  1
  O  O15  1  0.33389000  0.25000000  0.93030900  1
loop_
_geom_bond_atom_site_label_1
_geom_bond_atom_site_label_2
_geom_bond_distance
_geom_bond_site_symmetry_2
Ni0 O6 1.931448 1_555
Ni0 O0 1.940844 1_555
Ni0 O2 2.011908 1_565
Ni0 O3 2.011908 1_555
Ni0 O4 2.155537 1_555
Ni0 O5 2.155537 1_555
Ni1 O1 1.931448 1_555
Ni1 O7 1.940844 1_655
Ni1 O5 2.011908 1_545
Ni1 O4 2.011908 1_555
Ni1 O3 2.155537 1_655
Ni1 O2 2.155537 1_655
Ni2 O14 1.931448 1_555
Ni2 O8 1.940844 1_455
Ni2 O10 2.011908 1_565
Ni2 O11 2.011908 1_555
Ni2 O12 2.155537 1_455
Ni2 O13 2.155537 1_455
Ni3 O9 1.931448 1_555
Ni3 O15 1.940844 1_555
Ni3 O13 2.011908 1_545
Ni3 O12 2.011908 1_555
Ni3 O11 2.155537 1_555
Ni3 O10 2.155537 1_555
As0 O1 1.709269 1_555
As0 O15 1.715402 1_554
As0 O3 1.748975 1_555
As0 O2 1.748975 1_555
As1 O6 1.709269 1_655
As1 O8 1.715402 1_555
As1 O4 1.748975 1_555
As1 O5 1.748975 1_555
As2 O9 1.709269 1_455
As2 O7 1.715402 1_555
As2 O11 1.748975 1_555
As2 O10 1.748975 1_555
As3 O14 1.709269 1_555
As3 O0 1.715402 1_556
As3 O13 1.748975 1_555
As3 O12 1.748975 1_555
