# generated using pymatgen
data_TiNb3Cl7O2
_symmetry_space_group_name_H-M   'P 1'
_cell_length_a   9.80830422
_cell_length_b   9.80830422
_cell_length_c   12.75043918
_cell_angle_alpha   86.25212133
_cell_angle_beta   86.25212133
_cell_angle_gamma   98.29681861
_symmetry_Int_Tables_number   1
_chemical_formula_structural   TiNb3Cl7O2
_chemical_formula_sum   'Ti4 Nb12 Cl28 O8'
_cell_volume   1207.71422729
_cell_formula_units_Z   4
loop_
 _symmetry_equiv_pos_site_id
 _symmetry_equiv_pos_as_xyz
  1  'x, y, z'
loop_
 _atom_site_type_symbol
 _atom_site_label
 _atom_site_symmetry_multiplicity
 _atom_site_fract_x
 _atom_site_fract_y
 _atom_site_fract_z
 _atom_site_occupancy
  Ti  Ti0  1  0.88973100  0.11026900  0.75000000  1
  Ti  Ti1  1  0.00000000  0.00000000  0.50000000  1
  Ti  Ti2  1  0.11026900  0.88973100  0.25000000  1
  Ti  Ti3  1  0.00000000  0.00000000  0.00000000  1
  Nb  Nb0  1  0.55345000  0.17395300  0.89190600  1
  Nb  Nb1  1  0.90467600  0.36517500  0.39245800  1
  Nb  Nb2  1  0.66514000  0.92581700  0.93900100  1
  Nb  Nb3  1  0.17395300  0.55345000  0.39190600  1
  Nb  Nb4  1  0.92581700  0.66514000  0.43900100  1
  Nb  Nb5  1  0.07418300  0.33486000  0.56099900  1
  Nb  Nb6  1  0.44655000  0.82604700  0.10809400  1
  Nb  Nb7  1  0.09532400  0.63482500  0.60754200  1
  Nb  Nb8  1  0.82604700  0.44655000  0.60809400  1
  Nb  Nb9  1  0.36517500  0.90467600  0.89245800  1
  Nb  Nb10  1  0.33486000  0.07418300  0.06099900  1
  Nb  Nb11  1  0.63482500  0.09532400  0.10754200  1
  Cl  Cl0  1  0.68296100  0.29589300  0.49687600  1
  Cl  Cl1  1  0.38468000  0.61532000  0.25000000  1
  Cl  Cl2  1  0.58136500  0.91281000  0.25083400  1
  Cl  Cl3  1  0.36091600  0.29754700  0.95227900  1
  Cl  Cl4  1  0.87663200  0.90604200  0.35139300  1
  Cl  Cl5  1  0.70245300  0.63908400  0.54772100  1
  Cl  Cl6  1  0.45016600  0.20846800  0.19734000  1
  Cl  Cl7  1  0.61532000  0.38468000  0.75000000  1
  Cl  Cl8  1  0.79153200  0.54983400  0.30266000  1
  Cl  Cl9  1  0.01780700  0.21540700  0.88894000  1
  Cl  Cl10  1  0.63908400  0.70245300  0.04772100  1
  Cl  Cl11  1  0.20846800  0.45016600  0.69734000  1
  Cl  Cl12  1  0.79201100  0.20798900  0.25000000  1
  Cl  Cl13  1  0.78459300  0.98219300  0.61106000  1
  Cl  Cl14  1  0.70410700  0.31703900  0.00312400  1
  Cl  Cl15  1  0.90604200  0.87663200  0.85139300  1
  Cl  Cl16  1  0.98219300  0.78459300  0.11106000  1
  Cl  Cl17  1  0.29589300  0.68296100  0.99687600  1
  Cl  Cl18  1  0.08719000  0.41863500  0.24916600  1
  Cl  Cl19  1  0.41863500  0.08719000  0.74916600  1
  Cl  Cl20  1  0.91281000  0.58136500  0.75083400  1
  Cl  Cl21  1  0.09395800  0.12336800  0.14860700  1
  Cl  Cl22  1  0.54983400  0.79153200  0.80266000  1
  Cl  Cl23  1  0.12336800  0.09395800  0.64860700  1
  Cl  Cl24  1  0.29754700  0.36091600  0.45227900  1
  Cl  Cl25  1  0.21540700  0.01780700  0.38894000  1
  Cl  Cl26  1  0.31703900  0.70410700  0.50312400  1
  Cl  Cl27  1  0.20798900  0.79201100  0.75000000  1
  O  O0  1  0.19726100  0.98210400  0.95842300  1
  O  O1  1  0.98210400  0.19726100  0.45842300  1
  O  O2  1  0.09752900  0.72144000  0.32965200  1
  O  O3  1  0.27856000  0.90247100  0.17034800  1
  O  O4  1  0.72144000  0.09752900  0.82965200  1
  O  O5  1  0.01789600  0.80273900  0.54157700  1
  O  O6  1  0.90247100  0.27856000  0.67034800  1
  O  O7  1  0.80273900  0.01789600  0.04157700  1
loop_
_geom_bond_atom_site_label_1
_geom_bond_atom_site_label_2
_geom_bond_distance
_geom_bond_site_symmetry_2
Nb0 O4 2.042085 1_555
Nb1 O1 2.063976 1_555
Nb2 O7 2.093107 1_566
Nb2 O4 2.099846 1_565
Nb3 O2 2.042085 1_555
Nb4 O5 2.093107 1_655
Nb4 O2 2.099846 1_655
Nb5 O1 2.093107 1_455
Nb5 O6 2.099846 1_455
Nb6 O3 2.042085 1_555
Nb7 O5 2.063976 1_555
Nb8 O6 2.042085 1_555
Nb9 O0 2.063976 1_555
Nb10 O0 2.093107 1_544
Nb10 O3 2.099846 1_545
Nb11 O7 2.063976 1_555
Cl0 Nb1 2.457674 1_555
Cl0 Nb8 2.469766 1_555
Cl1 Nb6 2.630512 1_555
Cl1 Nb3 2.630512 1_555
Cl2 Nb6 2.444877 1_555
Cl2 Nb11 2.448249 1_565
Cl3 Nb10 2.486304 1_556
Cl3 Nb0 2.494177 1_555
Cl4 Ti1 2.471830 1_665
Cl4 Ti2 2.587244 1_655
Cl4 Nb4 2.667938 1_555
Cl5 Nb4 2.486304 1_555
Cl5 Nb8 2.494177 1_555
Cl6 Nb10 2.482410 1_555
Cl6 Nb11 2.509580 1_555
Cl7 Nb8 2.630512 1_555
Cl7 Nb0 2.630512 1_555
Cl8 Nb4 2.482410 1_555
Cl8 Nb1 2.509580 1_555
Cl9 Ti0 2.436342 1_455
Cl9 Ti3 2.443279 1_556
Cl10 Nb2 2.486304 1_554
Cl10 Nb6 2.494177 1_555
Cl11 Nb5 2.482410 1_555
Cl11 Nb7 2.509580 1_555
Cl12 Nb1 2.652208 1_555
Cl12 Nb11 2.652208 1_555
Cl13 Ti0 2.436342 1_565
Cl13 Ti1 2.443279 1_665
Cl14 Nb11 2.457674 1_555
Cl14 Nb0 2.469766 1_554
Cl15 Ti3 2.471830 1_666
Cl15 Ti0 2.587244 1_565
Cl15 Nb2 2.667938 1_555
Cl16 Ti2 2.436342 1_655
Cl16 Ti3 2.443279 1_665
Cl17 Nb9 2.457674 1_555
Cl17 Nb6 2.469766 1_556
Cl18 Nb3 2.444877 1_555
Cl18 Nb1 2.448249 1_455
Cl19 Nb0 2.444877 1_555
Cl19 Nb9 2.448249 1_545
Cl20 Nb8 2.444877 1_555
Cl20 Nb7 2.448249 1_655
Cl21 Ti3 2.471830 1_555
Cl21 Ti2 2.587244 1_545
Cl21 Nb10 2.667938 1_555
Cl22 Nb2 2.482410 1_555
Cl22 Nb9 2.509580 1_555
Cl23 Ti1 2.471830 1_555
Cl23 Ti0 2.587244 1_455
Cl23 Nb5 2.667938 1_555
Cl24 Nb5 2.486304 1_555
Cl24 Nb3 2.494177 1_555
Cl25 Ti2 2.436342 1_545
Cl25 Ti1 2.443279 1_555
Cl26 Nb7 2.457674 1_555
Cl26 Nb3 2.469766 1_555
Cl27 Nb7 2.652208 1_555
Cl27 Nb9 2.652208 1_555
O0 Ti3 2.007826 1_566
O1 Ti1 2.007826 1_655
O2 Ti2 1.864516 1_555
O3 Ti2 1.864516 1_555
O4 Ti0 1.864516 1_555
O5 Ti1 2.007826 1_565
O6 Ti0 1.864516 1_555
O7 Ti3 2.007826 1_655
