# generated using pymatgen
data_ZnS
_symmetry_space_group_name_H-M   'P 1'
_cell_length_a   3.81073441
_cell_length_b   3.81073415
_cell_length_c   87.17494600
_cell_angle_alpha   90.00000000
_cell_angle_beta   90.00000000
_cell_angle_gamma   120.00001098
_symmetry_Int_Tables_number   1
_chemical_formula_structural   ZnS
_chemical_formula_sum   'Zn28 S28'
_cell_volume   1096.32572475
_cell_formula_units_Z   28
loop_
 _symmetry_equiv_pos_site_id
 _symmetry_equiv_pos_as_xyz
  1  'x, y, z'
loop_
 _atom_site_type_symbol
 _atom_site_label
 _atom_site_symmetry_multiplicity
 _atom_site_fract_x
 _atom_site_fract_y
 _atom_site_fract_z
 _atom_site_occupancy
  Zn  Zn0  1  0.66666700  0.33333300  0.07151669  1
  Zn  Zn1  1  0.00000000  -0.00000000  0.92856161  1
  Zn  Zn2  1  0.00000000  -0.00000000  0.32141376  1
  Zn  Zn3  1  0.00000000  -0.00000000  0.67852887  1
  Zn  Zn4  1  0.33333300  0.66666700  0.14287846  1
  Zn  Zn5  1  0.33333300  0.66666700  0.35715711  1
  Zn  Zn6  1  0.66666700  0.33333300  0.39285287  1
  Zn  Zn7  1  0.33333300  0.66666700  0.46430243  1
  Zn  Zn8  1  0.33333300  0.66666700  0.57135848  1
  Zn  Zn9  1  0.00000000  0.00000000  0.21425307  1
  Zn  Zn10  1  0.66666700  0.33333300  0.96429359  1
  Zn  Zn11  1  0.33333300  0.66666700  0.64283451  1
  Zn  Zn12  1  0.33333300  0.66666700  0.78578898  1
  Zn  Zn13  1  0.66666700  0.33333300  0.28566480  1
  Zn  Zn14  1  0.66666700  0.33333300  0.60708153  1
  Zn  Zn15  1  -0.00000000  0.00000000  0.53575343  1
  Zn  Zn16  1  0.66666700  0.33333300  0.71427303  1
  Zn  Zn17  1  0.66666700  0.33333300  0.82147855  1
  Zn  Zn18  1  0.00000000  -0.00000000  0.10720580  1
  Zn  Zn19  1  0.33333300  0.66666700  0.03580917  1
  Zn  Zn20  1  0.33333300  0.66666700  0.89283589  1
  Zn  Zn21  1  0.66666700  0.33333300  0.17854173  1
  Zn  Zn22  1  0.00000000  0.00000000  0.75005495  1
  Zn  Zn23  1  0.66666700  0.33333300  0.50005630  1
  Zn  Zn24  1  -0.00000000  -0.00000000  0.85715005  1
  Zn  Zn25  1  -0.00000000  -0.00000000  0.42856102  1
  Zn  Zn26  1  0.33333300  0.66666700  0.24995031  1
  Zn  Zn27  1  -0.00000000  -0.00000000  0.00007084  1
  S  S0  1  0.66666700  0.33333300  0.20531400  1
  S  S1  1  0.00000000  -0.00000000  0.34819705  1
  S  S2  1  0.33333300  0.66666700  0.81255786  1
  S  S3  1  0.00000000  -0.00000000  0.77683420  1
  S  S4  1  -0.00000000  -0.00000000  0.45534535  1
  S  S5  1  0.00000000  -0.00000000  0.02684354  1
  S  S6  1  0.66666700  0.33333300  0.63389424  1
  S  S7  1  0.66666700  0.33333300  0.84822746  1
  S  S8  1  0.66666700  0.33333300  0.41962239  1
  S  S9  1  0.66666700  0.33333300  0.52682441  1
  S  S10  1  0.66666700  0.33333300  0.09827786  1
  S  S11  1  0.00000000  -0.00000000  0.13395567  1
  S  S12  1  0.66666700  0.33333300  0.31244631  1
  S  S13  1  0.33333300  0.66666700  0.16962656  1
  S  S14  1  0.33333300  0.66666700  0.59810814  1
  S  S15  1  0.00000000  -0.00000000  0.88389023  1
  S  S16  1  0.00000000  -0.00000000  0.24101938  1
  S  S17  1  -0.00000000  -0.00000000  0.70528987  1
  S  S18  1  0.66666700  0.33333300  0.99110424  1
  S  S19  1  0.33333300  0.66666700  0.91963531  1
  S  S20  1  0.33333300  0.66666700  0.66959052  1
  S  S21  1  0.66666700  0.33333300  0.74109012  1
  S  S22  1  0.00000000  -0.00000000  0.95531189  1
  S  S23  1  0.33333300  0.66666700  0.27672570  1
  S  S24  1  0.33333300  0.66666700  0.06258513  1
  S  S25  1  0.33333300  0.66666700  0.38393138  1
  S  S26  1  0.33333300  0.66666700  0.49108550  1
  S  S27  1  0.00000000  -0.00000000  0.56249590  1
loop_
_geom_bond_atom_site_label_1
_geom_bond_atom_site_label_2
_geom_bond_distance
_geom_bond_site_symmetry_2
S0 Zn21 2.333871 1_555
S0 Zn9 2.334054 1_655
S0 Zn9 2.334056 1_665
S0 Zn9 2.334057 1_555
S1 Zn5 2.334665 1_545
S1 Zn5 2.334668 1_555
S1 Zn5 2.334668 1_445
S1 Zn2 2.334832 1_555
S2 Zn17 2.333519 1_565
S2 Zn17 2.333519 1_455
S2 Zn17 2.333526 1_555
S2 Zn12 2.333576 1_555
S3 Zn22 2.334480 1_555
S3 Zn12 2.334511 1_545
S3 Zn12 2.334514 1_555
S3 Zn12 2.334514 1_445
S4 Zn7 2.334578 1_545
S4 Zn7 2.334581 1_555
S4 Zn7 2.334581 1_445
S4 Zn25 2.334923 1_555
S5 Zn27 2.333909 1_555
S5 Zn19 2.334828 1_545
S5 Zn19 2.334830 1_555
S5 Zn19 2.334831 1_445
S6 Zn11 2.334088 1_545
S6 Zn11 2.334088 1_655
S6 Zn11 2.334095 1_555
S6 Zn14 2.337397 1_555
S7 Zn17 2.331835 1_555
S7 Zn24 2.333574 1_655
S7 Zn24 2.333577 1_665
S7 Zn24 2.333577 1_555
S8 Zn6 2.333631 1_555
S8 Zn25 2.334041 1_655
S8 Zn25 2.334044 1_665
S8 Zn25 2.334044 1_555
S9 Zn23 2.333509 1_555
S9 Zn15 2.333761 1_655
S9 Zn15 2.333764 1_665
S9 Zn15 2.333764 1_555
S10 Zn0 2.332904 1_555
S10 Zn18 2.333730 1_655
S10 Zn18 2.333733 1_665
S10 Zn18 2.333733 1_555
S11 Zn18 2.331918 1_555
S11 Zn4 2.333580 1_545
S11 Zn4 2.333583 1_555
S11 Zn4 2.333583 1_445
S12 Zn13 2.334677 1_555
S12 Zn2 2.334881 1_655
S12 Zn2 2.334884 1_665
S12 Zn2 2.334884 1_555
S13 Zn4 2.331764 1_555
S13 Zn21 2.333359 1_565
S13 Zn21 2.333359 1_455
S13 Zn21 2.333365 1_555
S14 Zn8 2.331900 1_555
S14 Zn14 2.335054 1_565
S14 Zn14 2.335054 1_455
S14 Zn14 2.335061 1_555
S15 Zn24 2.331074 1_555
S15 Zn20 2.334246 1_545
S15 Zn20 2.334248 1_555
S15 Zn20 2.334248 1_445
S16 Zn9 2.333352 1_555
S16 Zn26 2.333817 1_545
S16 Zn26 2.333820 1_555
S16 Zn26 2.333820 1_445
S17 Zn3 2.332889 1_555
S17 Zn16 2.335340 1_455
S17 Zn16 2.335342 1_445
S17 Zn16 2.335343 1_555
S18 Zn27 2.334856 1_656
S18 Zn27 2.334859 1_666
S18 Zn27 2.334859 1_556
S18 Zn10 2.337217 1_555
S19 Zn1 2.333682 1_565
S19 Zn1 2.333685 1_555
S19 Zn1 2.333685 1_665
S19 Zn20 2.336238 1_555
S20 Zn11 2.332454 1_555
S20 Zn3 2.334033 1_565
S20 Zn3 2.334035 1_555
S20 Zn3 2.334036 1_665
S21 Zn22 2.334804 1_655
S21 Zn22 2.334807 1_665
S21 Zn22 2.334807 1_555
S21 Zn16 2.337778 1_555
S22 Zn1 2.331954 1_555
S22 Zn10 2.335297 1_455
S22 Zn10 2.335300 1_445
S22 Zn10 2.335300 1_555
S23 Zn13 2.334054 1_565
S23 Zn13 2.334054 1_455
S23 Zn13 2.334061 1_555
S23 Zn26 2.334143 1_555
S24 Zn0 2.333835 1_565
S24 Zn0 2.333835 1_455
S24 Zn0 2.333841 1_555
S24 Zn19 2.334193 1_555
S25 Zn6 2.333542 1_565
S25 Zn6 2.333542 1_455
S25 Zn6 2.333549 1_555
S25 Zn5 2.334046 1_555
S26 Zn7 2.334813 1_555
S26 Zn23 2.334978 1_565
S26 Zn23 2.334978 1_455
S26 Zn23 2.334985 1_555
S27 Zn15 2.331273 1_555
S27 Zn8 2.331836 1_545
S27 Zn8 2.331839 1_555
S27 Zn8 2.331839 1_445
