# generated using pymatgen
data_CuBi2(SeO3)4
_symmetry_space_group_name_H-M   'P 1'
_cell_length_a   7.46305300
_cell_length_b   8.18020900
_cell_length_c   10.83381155
_cell_angle_alpha   69.39037298
_cell_angle_beta   90.00000000
_cell_angle_gamma   90.00000000
_symmetry_Int_Tables_number   1
_chemical_formula_structural   CuBi2(SeO3)4
_chemical_formula_sum   'Cu2 Bi4 Se8 O24'
_cell_volume   619.06783414
_cell_formula_units_Z   2
loop_
 _symmetry_equiv_pos_site_id
 _symmetry_equiv_pos_as_xyz
  1  'x, y, z'
loop_
 _atom_site_type_symbol
 _atom_site_label
 _atom_site_symmetry_multiplicity
 _atom_site_fract_x
 _atom_site_fract_y
 _atom_site_fract_z
 _atom_site_occupancy
  Cu  Cu0  1  0.00000000  0.00000000  0.00000000  1
  Cu  Cu1  1  0.50000000  0.50000000  0.00000000  1
  Bi  Bi0  1  0.88484100  0.74793200  0.39887600  1
  Bi  Bi1  1  0.38484100  0.75206800  0.60112400  1
  Bi  Bi2  1  0.11515900  0.25206800  0.60112400  1
  Bi  Bi3  1  0.61515900  0.24793200  0.39887600  1
  Se  Se0  1  0.82791800  0.85543400  0.68666600  1
  Se  Se1  1  0.16582800  0.38912200  0.86903600  1
  Se  Se2  1  0.67208200  0.35543400  0.68666600  1
  Se  Se3  1  0.33417200  0.88912200  0.86903600  1
  Se  Se4  1  0.32791800  0.64456600  0.31333400  1
  Se  Se5  1  0.17208200  0.14456600  0.31333400  1
  Se  Se6  1  0.83417200  0.61087800  0.13096400  1
  Se  Se7  1  0.66582800  0.11087800  0.13096400  1
  O  O0  1  0.72581100  0.02159400  0.29493100  1
  O  O1  1  0.85519900  0.42038200  0.57692100  1
  O  O2  1  0.14480100  0.57961800  0.42307900  1
  O  O3  1  0.51678000  0.30568500  0.58759500  1
  O  O4  1  0.22581100  0.47840600  0.70506900  1
  O  O5  1  0.77418900  0.52159400  0.29493100  1
  O  O6  1  0.64480100  0.92038200  0.57692100  1
  O  O7  1  0.89029500  0.81266000  0.14673300  1
  O  O8  1  0.11497600  0.94038700  0.31148400  1
  O  O9  1  0.27418900  0.97840600  0.70506900  1
  O  O10  1  0.13781100  0.82548900  0.95747000  1
  O  O11  1  0.36218900  0.32548900  0.95747000  1
  O  O12  1  0.88502400  0.05961300  0.68851600  1
  O  O13  1  0.10970500  0.18734000  0.85326700  1
  O  O14  1  0.39029500  0.68734000  0.85326700  1
  O  O15  1  0.35519900  0.07961800  0.42307900  1
  O  O16  1  0.60970500  0.31266000  0.14673300  1
  O  O17  1  0.48322000  0.69431500  0.41240500  1
  O  O18  1  0.01678000  0.19431500  0.41240500  1
  O  O19  1  0.98322000  0.80568500  0.58759500  1
  O  O20  1  0.61497600  0.55961300  0.68851600  1
  O  O21  1  0.63781100  0.67451100  0.04253000  1
  O  O22  1  0.86218900  0.17451100  0.04253000  1
  O  O23  1  0.38502400  0.44038700  0.31148400  1
loop_
_geom_bond_atom_site_label_1
_geom_bond_atom_site_label_2
_geom_bond_distance
_geom_bond_site_symmetry_2
Cu0 O22 1.941910 1_455
Cu0 O10 1.941910 1_544
Cu0 O13 1.957256 1_554
Cu0 O7 1.957256 1_445
Cu1 O21 1.941910 1_555
Cu1 O11 1.941910 1_554
Cu1 O16 1.957256 1_555
Cu1 O14 1.957256 1_554
Bi0 O8 2.296823 1_655
Bi0 O2 2.339714 1_655
Bi0 O19 2.371164 1_555
Bi0 O0 2.431749 1_565
Bi0 O7 2.593411 1_555
Bi0 O5 2.616478 1_555
Bi0 O1 2.703781 1_555
Bi1 O20 2.296823 1_555
Bi1 O6 2.339714 1_555
Bi1 O17 2.371164 1_555
Bi1 O4 2.431749 1_555
Bi1 O14 2.593411 1_555
Bi1 O9 2.616478 1_555
Bi1 O15 2.703781 1_565
Bi2 O12 2.296823 1_455
Bi2 O1 2.339714 1_455
Bi2 O18 2.371164 1_555
Bi2 O9 2.431749 1_545
Bi2 O13 2.593411 1_555
Bi2 O4 2.616478 1_555
Bi2 O2 2.703781 1_555
Bi3 O23 2.296823 1_555
Bi3 O15 2.339714 1_555
Bi3 O3 2.371164 1_555
Bi3 O5 2.431749 1_555
Bi3 O16 2.593411 1_555
Bi3 O0 2.616478 1_555
Bi3 O6 2.703781 1_545
O0 Se7 1.725111 1_555
O1 Se2 1.766016 1_555
O2 Se4 1.766016 1_555
O3 Se2 1.722924 1_555
O4 Se1 1.725111 1_555
O5 Se6 1.725111 1_555
O6 Se0 1.766016 1_555
O7 Se6 1.768526 1_555
O8 Se5 1.730682 1_565
O9 Se3 1.725111 1_555
O10 Se3 1.727810 1_555
O11 Se1 1.727810 1_555
O12 Se0 1.730682 1_545
O13 Se1 1.768526 1_555
O14 Se3 1.768526 1_555
O15 Se5 1.766016 1_555
O16 Se7 1.768526 1_555
O17 Se4 1.722924 1_555
O18 Se5 1.722924 1_555
O19 Se0 1.722924 1_555
O20 Se2 1.730682 1_555
O21 Se6 1.727810 1_555
O22 Se7 1.727810 1_555
O23 Se4 1.730682 1_555
