# generated using pymatgen
data_Sr2Cu3O5
_symmetry_space_group_name_H-M   'P 1'
_cell_length_a   9.71127652
_cell_length_b   9.71127652
_cell_length_c   9.71127652
_cell_angle_alpha   159.47831921
_cell_angle_beta   156.52183076
_cell_angle_gamma   31.37791700
_symmetry_Int_Tables_number   1
_chemical_formula_structural   Sr2Cu3O5
_chemical_formula_sum   'Sr2 Cu3 O5'
_cell_volume   127.82181197
_cell_formula_units_Z   1
loop_
 _symmetry_equiv_pos_site_id
 _symmetry_equiv_pos_as_xyz
  1  'x, y, z'
loop_
 _atom_site_type_symbol
 _atom_site_label
 _atom_site_symmetry_multiplicity
 _atom_site_fract_x
 _atom_site_fract_y
 _atom_site_fract_z
 _atom_site_occupancy
  Sr  Sr0  1  0.39422500  0.39422500  0.00000000  1
  Sr  Sr1  1  0.60577500  0.60577500  0.00000000  1
  Cu  Cu0  1  0.00000000  0.00000000  0.00000000  1
  Cu  Cu1  1  0.78793800  0.78793800  0.00000000  1
  Cu  Cu2  1  0.21206200  0.21206200  0.00000000  1
  O  O0  1  0.10383300  0.10383300  0.00000000  1
  O  O1  1  0.89616700  0.89616700  0.00000000  1
  O  O2  1  0.50000000  0.00000000  0.50000000  1
  O  O3  1  0.28082400  0.78082400  0.50000000  1
  O  O4  1  0.71917600  0.21917600  0.50000000  1
loop_
_geom_bond_atom_site_label_1
_geom_bond_atom_site_label_2
_geom_bond_distance
_geom_bond_site_symmetry_2
Cu0 O0 1.941567 1_555
Cu0 O1 1.941567 1_445
Cu0 O2 1.975810 1_555
Cu0 O2 1.975810 1_454
Cu1 O3 1.980283 1_655
Cu1 O3 1.980283 1_554
Cu1 O1 2.023768 1_555
Cu1 O4 2.155380 1_554
Cu1 O4 2.155380 1_565
Cu2 O4 1.980283 1_555
Cu2 O4 1.980283 1_454
Cu2 O0 2.023768 1_555
Cu2 O3 2.155380 1_544
Cu2 O3 2.155380 1_555
O0 Sr1 2.626325 1_556
O0 Sr1 2.626325 1_444
O0 Sr1 2.626325 1_545
O0 Sr1 2.626325 1_455
O1 Sr0 2.626325 1_554
O1 Sr0 2.626325 1_565
O1 Sr0 2.626325 1_666
O1 Sr0 2.626325 1_655
O2 Sr1 2.627632 1_545
O2 Sr1 2.627632 1_556
O2 Sr0 2.627632 1_545
O2 Sr0 2.627632 1_556
O3 Sr0 2.736580 1_566
O3 Sr0 2.736580 1_555
O4 Sr1 2.736580 1_556
O4 Sr1 2.736580 1_545
