# generated using pymatgen
data_Ba4Ti2PtO10
_symmetry_space_group_name_H-M   'P 1'
_cell_length_a   7.39624866
_cell_length_b   7.39624866
_cell_length_c   13.31864400
_cell_angle_alpha   90.00000000
_cell_angle_beta   90.00000000
_cell_angle_gamma   133.41379662
_symmetry_Int_Tables_number   1
_chemical_formula_structural   Ba4Ti2PtO10
_chemical_formula_sum   'Ba8 Ti4 Pt2 O20'
_cell_volume   529.25425074
_cell_formula_units_Z   2
loop_
 _symmetry_equiv_pos_site_id
 _symmetry_equiv_pos_as_xyz
  1  'x, y, z'
loop_
 _atom_site_type_symbol
 _atom_site_label
 _atom_site_symmetry_multiplicity
 _atom_site_fract_x
 _atom_site_fract_y
 _atom_site_fract_z
 _atom_site_occupancy
  Ba  Ba0  1  0.47078100  0.52921900  0.14209200  1
  Ba  Ba1  1  0.23437100  0.76562900  0.89983900  1
  Ba  Ba2  1  0.73437100  0.26562900  0.60016100  1
  Ba  Ba3  1  0.02921900  0.97078100  0.64209200  1
  Ba  Ba4  1  0.97078100  0.02921900  0.35790800  1
  Ba  Ba5  1  0.26562900  0.73437100  0.39983900  1
  Ba  Ba6  1  0.52921900  0.47078100  0.85790800  1
  Ba  Ba7  1  0.76562900  0.23437100  0.10016100  1
  Ti  Ti0  1  0.13877700  0.86122300  0.15529300  1
  Ti  Ti1  1  0.36122300  0.63877700  0.65529300  1
  Ti  Ti2  1  0.86122300  0.13877700  0.84470700  1
  Ti  Ti3  1  0.63877700  0.36122300  0.34470700  1
  Pt  Pt0  1  0.00000000  0.00000000  0.00000000  1
  Pt  Pt1  1  0.50000000  0.50000000  0.50000000  1
  O  O0  1  0.53612500  0.46387500  0.65125700  1
  O  O1  1  0.72969400  0.27030600  0.85900800  1
  O  O2  1  0.38299100  0.16586200  0.46009100  1
  O  O3  1  0.88299100  0.66586200  0.03990900  1
  O  O4  1  0.62220900  0.87779100  0.75000000  1
  O  O5  1  0.12220900  0.37779100  0.75000000  1
  O  O6  1  0.27030600  0.72969400  0.14099200  1
  O  O7  1  0.03612500  0.96387500  0.84874300  1
  O  O8  1  0.37779100  0.12220900  0.25000000  1
  O  O9  1  0.83413800  0.61700900  0.46009100  1
  O  O10  1  0.77030600  0.22969400  0.35900800  1
  O  O11  1  0.46387500  0.53612500  0.34874300  1
  O  O12  1  0.87779100  0.62220900  0.25000000  1
  O  O13  1  0.11700900  0.33413800  0.96009100  1
  O  O14  1  0.61700900  0.83413800  0.53990900  1
  O  O15  1  0.22969400  0.77030600  0.64099200  1
  O  O16  1  0.66586200  0.88299100  0.96009100  1
  O  O17  1  0.16586200  0.38299100  0.53990900  1
  O  O18  1  0.96387500  0.03612500  0.15125700  1
  O  O19  1  0.33413800  0.11700900  0.03990900  1
loop_
_geom_bond_atom_site_label_1
_geom_bond_atom_site_label_2
_geom_bond_distance
_geom_bond_site_symmetry_2
Ba0 O6 2.723857 1_555
Ba0 O11 2.753910 1_555
Ba0 O19 2.816649 1_555
Ba0 O3 2.816649 1_555
Ba0 O18 2.928785 1_565
Ba0 O18 2.928785 1_455
Ba0 O8 2.958860 1_555
Ba0 O12 2.958860 1_555
Ba0 O13 3.100779 1_554
Ba0 O16 3.100779 1_554
Ba1 O7 2.778172 1_555
Ba1 O13 2.788329 1_555
Ba1 O16 2.788329 1_555
Ba1 O19 2.853600 1_566
Ba1 O3 2.853600 1_456
Ba1 O1 2.975541 1_565
Ba1 O1 2.975541 1_455
Ba1 O4 3.102975 1_555
Ba1 O5 3.102975 1_555
Ba1 O6 3.248729 1_556
Ba1 O15 3.448077 1_555
Ba2 O0 2.778172 1_555
Ba2 O17 2.788329 1_655
Ba2 O14 2.788329 1_545
Ba2 O9 2.853600 1_555
Ba2 O2 2.853600 1_555
Ba2 O15 2.975541 1_545
Ba2 O15 2.975541 1_655
Ba2 O5 3.102975 1_655
Ba2 O4 3.102975 1_545
Ba2 O10 3.248729 1_555
Ba2 O1 3.448077 1_555
Ba3 O15 2.723857 1_555
Ba3 O7 2.753910 1_555
Ba3 O14 2.816649 1_455
Ba3 O17 2.816649 1_565
Ba3 O0 2.928785 1_565
Ba3 O0 2.928785 1_455
Ba3 O4 2.958860 1_455
Ba3 O5 2.958860 1_565
Ba3 O9 3.100779 1_455
Ba3 O2 3.100779 1_565
Ba4 O10 2.723857 1_555
Ba4 O18 2.753910 1_555
Ba4 O9 2.816649 1_545
Ba4 O2 2.816649 1_655
Ba4 O11 2.928785 1_655
Ba4 O11 2.928785 1_545
Ba4 O12 2.958860 1_545
Ba4 O8 2.958860 1_655
Ba4 O14 3.100779 1_545
Ba4 O17 3.100779 1_655
Ba5 O11 2.778172 1_555
Ba5 O9 2.788329 1_455
Ba5 O2 2.788329 1_565
Ba5 O14 2.853600 1_555
Ba5 O17 2.853600 1_555
Ba5 O10 2.975541 1_565
Ba5 O10 2.975541 1_455
Ba5 O12 3.102975 1_455
Ba5 O8 3.102975 1_565
Ba5 O15 3.248729 1_555
Ba5 O6 3.448077 1_555
Ba6 O1 2.723857 1_555
Ba6 O0 2.753910 1_555
Ba6 O13 2.816649 1_555
Ba6 O16 2.816649 1_555
Ba6 O7 2.928785 1_545
Ba6 O7 2.928785 1_655
Ba6 O4 2.958860 1_555
Ba6 O5 2.958860 1_555
Ba6 O19 3.100779 1_556
Ba6 O3 3.100779 1_556
Ba7 O18 2.778172 1_555
Ba7 O3 2.788329 1_555
Ba7 O19 2.788329 1_555
Ba7 O13 2.853600 1_654
Ba7 O16 2.853600 1_544
Ba7 O6 2.975541 1_655
Ba7 O6 2.975541 1_545
Ba7 O12 3.102975 1_555
Ba7 O8 3.102975 1_555
Ba7 O1 3.248729 1_554
Ba7 O10 3.448077 1_555
O0 Pt1 2.073469 1_555
O0 Ti1 2.376970 1_555
O1 Ti2 1.797183 1_555
O2 Pt1 2.049227 1_555
O2 Ti3 2.066681 1_555
O3 Pt0 2.049227 1_665
O3 Ti0 2.066681 1_655
O4 Ti2 1.936969 1_565
O4 Ti1 1.936969 1_555
O5 Ti1 1.936969 1_555
O5 Ti2 1.936969 1_455
O6 Ti0 1.797183 1_555
O7 Pt0 2.073469 1_566
O7 Ti2 2.376970 1_465
O8 Ti3 1.936969 1_555
O8 Ti0 1.936969 1_545
O9 Pt1 2.049227 1_555
O9 Ti3 2.066681 1_555
O10 Ti3 1.797183 1_555
O11 Pt1 2.073469 1_555
O11 Ti3 2.376970 1_555
O12 Ti3 1.936969 1_555
O12 Ti0 1.936969 1_655
O13 Pt0 2.049227 1_556
O13 Ti2 2.066681 1_455
O14 Pt1 2.049227 1_555
O14 Ti1 2.066681 1_555
O15 Ti1 1.797183 1_555
O16 Pt0 2.049227 1_666
O16 Ti2 2.066681 1_565
O17 Pt1 2.049227 1_555
O17 Ti1 2.066681 1_555
O18 Pt0 2.073469 1_655
O18 Ti0 2.376970 1_645
O19 Pt0 2.049227 1_555
O19 Ti0 2.066681 1_545
