# generated using pymatgen
data_TiPCl7O
_symmetry_space_group_name_H-M   'P 1'
_cell_length_a   13.03422100
_cell_length_b   13.16202200
_cell_length_c   14.09186600
_cell_angle_alpha   90.00000000
_cell_angle_beta   90.00000000
_cell_angle_gamma   90.00000000
_symmetry_Int_Tables_number   1
_chemical_formula_structural   TiPCl7O
_chemical_formula_sum   'Ti8 P8 Cl56 O8'
_cell_volume   2417.55407790
_cell_formula_units_Z   8
loop_
 _symmetry_equiv_pos_site_id
 _symmetry_equiv_pos_as_xyz
  1  'x, y, z'
loop_
 _atom_site_type_symbol
 _atom_site_label
 _atom_site_symmetry_multiplicity
 _atom_site_fract_x
 _atom_site_fract_y
 _atom_site_fract_z
 _atom_site_occupancy
  Ti  Ti0  1  0.93685700  0.86564600  0.00077500  1
  Ti  Ti1  1  0.06314300  0.36564600  0.49922500  1
  Ti  Ti2  1  0.06314300  0.13435400  0.99922500  1
  Ti  Ti3  1  0.56314300  0.13435400  0.50077500  1
  Ti  Ti4  1  0.93685700  0.63435400  0.50077500  1
  Ti  Ti5  1  0.56314300  0.36564600  0.00077500  1
  Ti  Ti6  1  0.43685700  0.86564600  0.49922500  1
  Ti  Ti7  1  0.43685700  0.63435400  0.99922500  1
  P  P0  1  0.68478900  0.06679000  0.71646900  1
  P  P1  1  0.18478900  0.43321000  0.28353100  1
  P  P2  1  0.81521100  0.56679000  0.71646900  1
  P  P3  1  0.81521100  0.93321000  0.21646900  1
  P  P4  1  0.68478900  0.43321000  0.21646900  1
  P  P5  1  0.31521100  0.56679000  0.78353100  1
  P  P6  1  0.18478900  0.06679000  0.78353100  1
  P  P7  1  0.31521100  0.93321000  0.28353100  1
  Cl  Cl0  1  0.22902000  0.17042200  0.02357000  1
  Cl  Cl1  1  0.77297400  0.18629300  0.74309500  1
  Cl  Cl2  1  0.88008400  0.97009900  0.33897800  1
  Cl  Cl3  1  0.39959200  0.04792700  0.54198400  1
  Cl  Cl4  1  0.78129200  0.95477300  0.68496700  1
  Cl  Cl5  1  0.77098000  0.67042200  0.47643000  1
  Cl  Cl6  1  0.10040800  0.54792700  0.54198400  1
  Cl  Cl7  1  0.11991600  0.47009900  0.16102200  1
  Cl  Cl8  1  0.49022900  0.72096200  0.43159200  1
  Cl  Cl9  1  0.50977100  0.27903800  0.56840800  1
  Cl  Cl10  1  0.50965900  0.16952900  0.35391600  1
  Cl  Cl11  1  0.49022900  0.77903800  0.93159200  1
  Cl  Cl12  1  0.77297400  0.31370700  0.24309500  1
  Cl  Cl13  1  0.00977100  0.22096200  0.43159200  1
  Cl  Cl14  1  0.11991600  0.02990100  0.66102200  1
  Cl  Cl15  1  0.27098000  0.82957800  0.52357000  1
  Cl  Cl16  1  0.99034100  0.83047100  0.85391600  1
  Cl  Cl17  1  0.21870800  0.04522700  0.31503300  1
  Cl  Cl18  1  0.00965900  0.33047100  0.64608400  1
  Cl  Cl19  1  0.72902000  0.32957800  0.97643000  1
  Cl  Cl20  1  0.50965900  0.33047100  0.85391600  1
  Cl  Cl21  1  0.60040800  0.95207300  0.45801600  1
  Cl  Cl22  1  0.27098000  0.67042200  0.02357000  1
  Cl  Cl23  1  0.22702600  0.81370700  0.25690500  1
  Cl  Cl24  1  0.28129200  0.95477300  0.81503300  1
  Cl  Cl25  1  0.99022900  0.77903800  0.56840800  1
  Cl  Cl26  1  0.21870800  0.45477300  0.81503300  1
  Cl  Cl27  1  0.22902000  0.32957800  0.52357000  1
  Cl  Cl28  1  0.89959200  0.04792700  0.95801600  1
  Cl  Cl29  1  0.22702600  0.68629300  0.75690500  1
  Cl  Cl30  1  0.10040800  0.95207300  0.04198400  1
  Cl  Cl31  1  0.77098000  0.82957800  0.97643000  1
  Cl  Cl32  1  0.71870800  0.45477300  0.68496700  1
  Cl  Cl33  1  0.78129200  0.54522700  0.18496700  1
  Cl  Cl34  1  0.38008400  0.52990100  0.66102200  1
  Cl  Cl35  1  0.49034100  0.66952900  0.14608400  1
  Cl  Cl36  1  0.71870800  0.04522700  0.18496700  1
  Cl  Cl37  1  0.88008400  0.52990100  0.83897800  1
  Cl  Cl38  1  0.28129200  0.54522700  0.31503300  1
  Cl  Cl39  1  0.72902000  0.17042200  0.47643000  1
  Cl  Cl40  1  0.61991600  0.47009900  0.33897800  1
  Cl  Cl41  1  0.99034100  0.66952900  0.35391600  1
  Cl  Cl42  1  0.60040800  0.54792700  0.95801600  1
  Cl  Cl43  1  0.38008400  0.97009900  0.16102200  1
  Cl  Cl44  1  0.49034100  0.83047100  0.64608400  1
  Cl  Cl45  1  0.00965900  0.16952900  0.14608400  1
  Cl  Cl46  1  0.00977100  0.27903800  0.93159200  1
  Cl  Cl47  1  0.72702600  0.68629300  0.74309500  1
  Cl  Cl48  1  0.50977100  0.22096200  0.06840800  1
  Cl  Cl49  1  0.99022900  0.72096200  0.06840800  1
  Cl  Cl50  1  0.27297400  0.31370700  0.25690500  1
  Cl  Cl51  1  0.89959200  0.45207300  0.45801600  1
  Cl  Cl52  1  0.27297400  0.18629300  0.75690500  1
  Cl  Cl53  1  0.72702600  0.81370700  0.24309500  1
  Cl  Cl54  1  0.39959200  0.45207300  0.04198400  1
  Cl  Cl55  1  0.61991600  0.02990100  0.83897800  1
  O  O0  1  0.89381900  0.91531300  0.14191900  1
  O  O1  1  0.60618100  0.08468700  0.64191900  1
  O  O2  1  0.10618100  0.08468700  0.85808100  1
  O  O3  1  0.89381900  0.58468700  0.64191900  1
  O  O4  1  0.60618100  0.41531300  0.14191900  1
  O  O5  1  0.39381900  0.58468700  0.85808100  1
  O  O6  1  0.10618100  0.41531300  0.35808100  1
  O  O7  1  0.39381900  0.91531300  0.35808100  1
loop_
_geom_bond_atom_site_label_1
_geom_bond_atom_site_label_2
_geom_bond_distance
_geom_bond_site_symmetry_2
Cl0 Ti2 2.240009 1_554
Cl1 P0 1.983929 1_555
Cl2 P3 1.982705 1_555
Cl3 Ti3 2.485087 1_555
Cl3 Ti6 2.520931 1_545
Cl4 P0 1.988215 1_565
Cl5 Ti4 2.240009 1_555
Cl6 Ti4 2.485087 1_455
Cl6 Ti1 2.520931 1_555
Cl7 P1 1.982705 1_555
Cl8 Ti6 2.240265 1_555
Cl9 Ti3 2.240265 1_555
Cl10 Ti3 2.232314 1_555
Cl11 Ti7 2.240265 1_555
Cl12 P4 1.983929 1_555
Cl13 Ti1 2.240265 1_555
Cl14 P6 1.982705 1_555
Cl15 Ti6 2.240009 1_555
Cl16 Ti0 2.232314 1_556
Cl17 P7 1.988215 1_545
Cl18 Ti1 2.232314 1_555
Cl19 Ti5 2.240009 1_556
Cl20 Ti5 2.232314 1_556
Cl21 Ti6 2.485087 1_555
Cl21 Ti3 2.520931 1_565
Cl22 Ti7 2.240009 1_554
Cl23 P7 1.983929 1_555
Cl24 P6 1.988215 1_565
Cl25 Ti4 2.240265 1_555
Cl26 P5 1.988215 1_555
Cl27 Ti1 2.240009 1_555
Cl28 Ti2 2.485087 1_655
Cl28 Ti0 2.520931 1_546
Cl29 P5 1.983929 1_555
Cl30 Ti0 2.485087 1_455
Cl30 Ti2 2.520931 1_564
Cl31 Ti0 2.240009 1_556
Cl32 P2 1.988215 1_555
Cl33 P4 1.988215 1_555
Cl34 P5 1.982705 1_555
Cl35 Ti7 2.232314 1_554
Cl36 P3 1.988215 1_545
Cl37 P2 1.982705 1_555
Cl38 P1 1.988215 1_555
Cl39 Ti3 2.240009 1_555
Cl40 P4 1.982705 1_555
Cl41 Ti4 2.232314 1_555
Cl42 Ti7 2.485087 1_555
Cl42 Ti5 2.520931 1_556
Cl43 P7 1.982705 1_555
Cl44 Ti6 2.232314 1_555
Cl45 Ti2 2.232314 1_554
Cl46 Ti2 2.240265 1_555
Cl47 P2 1.983929 1_555
Cl48 Ti5 2.240265 1_555
Cl49 Ti0 2.240265 1_555
Cl50 P1 1.983929 1_555
Cl51 Ti1 2.485087 1_655
Cl51 Ti4 2.520931 1_555
Cl52 P6 1.983929 1_555
Cl53 P3 1.983929 1_555
Cl54 Ti5 2.485087 1_555
Cl54 Ti7 2.520931 1_554
Cl55 P0 1.982705 1_555
O0 P3 1.486248 1_555
O0 Ti0 2.167506 1_555
O1 P0 1.486248 1_555
O1 Ti3 2.167506 1_555
O2 P6 1.486248 1_555
O2 Ti2 2.167506 1_555
O3 P2 1.486248 1_555
O3 Ti4 2.167506 1_555
O4 P4 1.486248 1_555
O4 Ti5 2.167506 1_555
O5 P5 1.486248 1_555
O5 Ti7 2.167506 1_555
O6 P1 1.486248 1_555
O6 Ti1 2.167506 1_555
O7 P7 1.486248 1_555
O7 Ti6 2.167506 1_555
