# generated using pymatgen
data_Sb2Pd5
_symmetry_space_group_name_H-M   'P 1'
_cell_length_a   7.66593984
_cell_length_b   7.66594036
_cell_length_c   14.03208579
_cell_angle_alpha   89.99907817
_cell_angle_beta   89.99908048
_cell_angle_gamma   119.99642242
_symmetry_Int_Tables_number   1
_chemical_formula_structural   Sb2Pd5
_chemical_formula_sum   'Sb12 Pd30'
_cell_volume   714.16631354
_cell_formula_units_Z   6
loop_
 _symmetry_equiv_pos_site_id
 _symmetry_equiv_pos_as_xyz
  1  'x, y, z'
loop_
 _atom_site_type_symbol
 _atom_site_label
 _atom_site_symmetry_multiplicity
 _atom_site_fract_x
 _atom_site_fract_y
 _atom_site_fract_z
 _atom_site_occupancy
  Sb  Sb0  1  0.66666266  0.33331301  0.28992237  1
  Sb  Sb1  1  0.33334323  0.66674563  0.79005366  1
  Sb  Sb2  1  0.33100630  0.33100630  0.01690305  1
  Sb  Sb3  1  -0.00002709  0.66906307  0.01689953  1
  Sb  Sb4  1  -0.00001029  -0.00001029  0.74327027  1
  Sb  Sb5  1  0.00003813  0.00003813  0.24337143  1
  Sb  Sb6  1  0.66905301  0.66905301  0.51693130  1
  Sb  Sb7  1  0.33091076  0.00000860  0.51693512  1
  Sb  Sb8  1  0.00000860  0.33091076  0.51693512  1
  Sb  Sb9  1  0.66674563  0.33334323  0.79005366  1
  Sb  Sb10  1  0.66906307  -0.00002709  0.01689953  1
  Sb  Sb11  1  0.33331301  0.66666266  0.28992237  1
  Pd  Pd0  1  0.62720201  0.62720201  0.92375883  1
  Pd  Pd1  1  0.62912534  -0.00001853  0.21302242  1
  Pd  Pd2  1  0.33335620  0.66666359  0.08929519  1
  Pd  Pd3  1  0.73803150  0.73803150  0.11486801  1
  Pd  Pd4  1  0.30970797  -0.00000008  0.32224561  1
  Pd  Pd5  1  0.30968734  0.30968734  0.82217701  1
  Pd  Pd6  1  0.66666359  0.33335620  0.08929519  1
  Pd  Pd7  1  0.26197526  0.00000720  0.11488628  1
  Pd  Pd8  1  0.26202899  0.26202899  0.61488360  1
  Pd  Pd9  1  0.37275358  0.37275358  0.42378655  1
  Pd  Pd10  1  -0.00000008  0.30970797  0.32224561  1
  Pd  Pd11  1  0.99997654  0.37279009  0.92373516  1
  Pd  Pd12  1  0.69026558  0.69026558  0.32225557  1
  Pd  Pd13  1  0.37097289  0.00004210  0.71300633  1
  Pd  Pd14  1  0.00001883  0.62724505  0.42377555  1
  Pd  Pd15  1  0.66665233  0.33333088  0.58933513  1
  Pd  Pd16  1  0.62903491  0.62903491  0.71301477  1
  Pd  Pd17  1  -0.00001762  -0.00001762  0.94368960  1
  Pd  Pd18  1  0.73795427  -0.00003416  0.61486894  1
  Pd  Pd19  1  -0.00003416  0.73795427  0.61486894  1
  Pd  Pd20  1  0.33333088  0.66665233  0.58933513  1
  Pd  Pd21  1  0.69035647  -0.00001685  0.82220284  1
  Pd  Pd22  1  0.62724505  0.00001883  0.42377555  1
  Pd  Pd23  1  -0.00003231  -0.00003231  0.44370748  1
  Pd  Pd24  1  0.37082963  0.37082963  0.21301830  1
  Pd  Pd25  1  0.37279109  0.99997654  0.92373516  1
  Pd  Pd26  1  -0.00001853  0.62912534  0.21302242  1
  Pd  Pd27  1  0.00004210  0.37097289  0.71300633  1
  Pd  Pd28  1  -0.00001685  0.69035647  0.82220284  1
  Pd  Pd29  1  0.00000720  0.26197526  0.11488628  1
loop_
_geom_bond_atom_site_label_1
_geom_bond_atom_site_label_2
_geom_bond_distance
_geom_bond_site_symmetry_2
Pd0 Sb2 2.619989 1_556
Pd0 Pd17 2.871527 1_665
Pd0 Pd16 2.957212 1_555
Pd0 Sb3 3.010054 1_656
Pd0 Sb10 3.010054 1_566
Pd0 Sb1 3.060960 1_555
Pd0 Sb9 3.060961 1_555
Pd1 Sb0 2.653604 1_555
Pd1 Sb11 2.653657 1_545
Pd1 Sb10 2.768990 1_555
Pd1 Sb5 2.874901 1_655
Pd1 Pd3 2.881456 1_545
Pd1 Pd29 2.881620 1_655
Pd1 Pd4 2.888769 1_555
Pd1 Pd22 2.957342 1_555
Pd1 Pd2 2.981860 1_545
Pd1 Pd6 2.982076 1_555
Pd1 Pd12 3.052668 1_545
Pd1 Pd10 3.052897 1_655
Pd1 Pd7 3.133473 1_555
Pd2 Sb2 2.758066 1_555
Pd2 Sb10 2.758352 1_565
Pd2 Sb3 2.758801 1_555
Pd2 Sb11 2.815218 1_555
Pd2 Pd24 2.981773 1_555
Pd2 Pd26 2.982076 1_555
Pd3 Sb3 2.694994 1_655
Pd3 Sb10 2.694994 1_565
Pd3 Sb5 2.699310 1_665
Pd4 Sb5 2.619383 1_555
Pd4 Sb11 2.688983 1_545
Pd4 Sb0 2.689082 1_555
Pd4 Sb7 2.736732 1_555
Pd5 Sb4 2.619769 1_555
Pd5 Sb9 2.689219 1_555
Pd5 Sb1 2.689219 1_555
Pd5 Sb2 2.737301 1_556
Pd6 Sb2 2.758066 1_555
Pd6 Sb3 2.758352 1_655
Pd6 Sb10 2.758802 1_555
Pd6 Sb0 2.815218 1_555
Pd7 Sb3 2.695575 1_545
Pd7 Sb2 2.695580 1_555
Pd7 Sb5 2.698685 1_555
Pd8 Sb8 2.695007 1_555
Pd8 Sb7 2.695008 1_555
Pd8 Sb4 2.698316 1_555
Pd9 Sb6 2.620755 1_555
Pd9 Sb8 3.009931 1_555
Pd9 Sb7 3.009931 1_555
Pd9 Sb0 3.062224 1_555
Pd9 Sb11 3.062224 1_555
Pd10 Sb5 2.619383 1_555
Pd10 Sb0 2.688983 1_455
Pd10 Sb11 2.689082 1_555
Pd10 Sb8 2.736732 1_555
Pd10 Pd26 2.888769 1_555
Pd10 Pd23 2.922696 1_555
Pd10 Pd24 3.052530 1_555
Pd11 Sb3 2.620604 1_656
Pd11 Pd17 2.871623 1_655
Pd11 Pd27 2.956999 1_655
Pd11 Sb10 3.010450 1_556
Pd11 Sb2 3.010693 1_656
Pd11 Sb9 3.059995 1_555
Pd11 Sb1 3.060913 1_655
Pd12 Sb5 2.620091 1_665
Pd12 Sb11 2.689112 1_555
Pd12 Sb0 2.689112 1_555
Pd12 Sb6 2.736538 1_555
Pd12 Pd24 2.889110 1_555
Pd12 Pd23 2.922648 1_665
Pd12 Pd26 3.052668 1_655
Pd13 Sb1 2.653900 1_545
Pd13 Sb9 2.654375 1_555
Pd13 Sb7 2.768367 1_555
Pd13 Sb4 2.875261 1_555
Pd13 Pd8 2.881649 1_555
Pd13 Pd19 2.882463 1_545
Pd13 Pd21 2.888524 1_555
Pd13 Pd25 2.956999 1_545
Pd13 Pd15 2.980977 1_555
Pd13 Pd20 2.981501 1_545
Pd13 Pd5 3.052400 1_555
Pd13 Pd28 3.053006 1_545
Pd13 Pd18 3.132453 1_555
Pd14 Sb8 2.620895 1_555
Pd14 Pd23 2.871125 1_565
Pd14 Pd26 2.957342 1_555
Pd14 Sb7 3.010218 1_565
Pd14 Sb6 3.010247 1_455
Pd14 Sb11 3.061868 1_555
Pd14 Sb0 3.062389 1_455
Pd15 Sb6 2.758379 1_555
Pd15 Sb7 2.758606 1_555
Pd15 Sb8 2.758676 1_655
Pd15 Sb9 2.816500 1_555
Pd15 Pd16 2.981175 1_555
Pd15 Pd27 2.981500 1_655
Pd16 Sb1 2.654336 1_555
Pd16 Sb9 2.654336 1_555
Pd16 Sb6 2.768501 1_555
Pd16 Sb4 2.875399 1_665
Pd16 Pd19 2.881900 1_655
Pd16 Pd18 2.881900 1_565
Pd16 Pd5 2.887894 1_555
Pd16 Pd20 2.981175 1_555
Pd16 Pd28 3.052606 1_655
Pd16 Pd21 3.052606 1_565
Pd16 Pd8 3.132518 1_555
Pd17 Sb10 2.736868 1_456
Pd17 Sb3 2.736868 1_546
Pd17 Sb2 2.737836 1_556
Pd17 Sb4 2.812301 1_555
Pd17 Pd25 2.871631 1_545
Pd17 Pd21 2.922335 1_455
Pd17 Pd28 2.922335 1_545
Pd17 Pd5 2.923074 1_555
Pd17 Pd3 3.130838 1_446
Pd17 Pd7 3.131185 1_556
Pd17 Pd29 3.131185 1_556
Pd18 Sb6 2.695019 1_545
Pd18 Sb8 2.695235 1_655
Pd18 Sb4 2.698347 1_655
Pd18 Pd27 2.882463 1_655
Pd18 Pd23 3.130914 1_655
Pd19 Sb6 2.695019 1_455
Pd19 Sb7 2.695235 1_565
Pd19 Sb4 2.698348 1_565
Pd19 Pd23 3.130914 1_565
Pd19 Pd27 3.132454 1_555
Pd20 Sb6 2.758379 1_555
Pd20 Sb8 2.758606 1_555
Pd20 Sb7 2.758676 1_565
Pd20 Sb1 2.816500 1_555
Pd20 Pd27 2.980977 1_555
Pd21 Sb4 2.619288 1_655
Pd21 Sb1 2.688688 1_545
Pd21 Sb9 2.688756 1_555
Pd21 Sb10 2.736868 1_556
Pd21 Pd27 3.053006 1_655
Pd22 Sb7 2.620895 1_555
Pd22 Pd23 2.871125 1_655
Pd22 Sb8 3.010218 1_655
Pd22 Sb6 3.010247 1_545
Pd22 Sb0 3.061869 1_555
Pd22 Sb11 3.062389 1_545
Pd23 Sb7 2.737049 1_555
Pd23 Sb8 2.737049 1_555
Pd23 Sb6 2.737054 1_445
Pd23 Sb5 2.811133 1_555
Pd23 Pd9 2.871538 1_555
Pd23 Pd4 2.922696 1_555
Pd23 Pd8 3.131456 1_555
Pd24 Sb0 2.653779 1_555
Pd24 Sb11 2.653779 1_555
Pd24 Sb2 2.768799 1_555
Pd24 Sb5 2.874337 1_555
Pd24 Pd29 2.881265 1_555
Pd24 Pd7 2.881265 1_555
Pd24 Pd9 2.957555 1_555
Pd24 Pd6 2.981772 1_555
Pd24 Pd4 3.052530 1_555
Pd24 Pd3 3.133906 1_555
Pd25 Sb10 2.620597 1_566
Pd25 Sb3 3.010454 1_556
Pd25 Sb2 3.010697 1_566
Pd25 Sb1 3.059993 1_555
Pd25 Sb9 3.060910 1_565
Pd26 Sb11 2.653604 1_555
Pd26 Sb0 2.653657 1_455
Pd26 Sb3 2.768990 1_555
Pd26 Sb5 2.874901 1_565
Pd26 Pd3 2.881456 1_455
Pd26 Pd7 2.881620 1_565
Pd26 Pd6 2.981860 1_455
Pd26 Pd4 3.052897 1_565
Pd26 Pd29 3.133473 1_555
Pd27 Sb9 2.653900 1_455
Pd27 Sb1 2.654375 1_555
Pd27 Sb8 2.768367 1_555
Pd27 Sb4 2.875261 1_555
Pd27 Pd8 2.881649 1_555
Pd27 Pd28 2.888525 1_555
Pd27 Pd5 3.052400 1_555
Pd28 Sb4 2.619288 1_565
Pd28 Sb9 2.688688 1_455
Pd28 Sb1 2.688756 1_555
Pd28 Sb3 2.736868 1_556
Pd29 Sb10 2.695575 1_455
Pd29 Sb2 2.695580 1_555
Pd29 Sb5 2.698685 1_555
