# generated using pymatgen
data_Pr2Zr2O7
_symmetry_space_group_name_H-M   'P 1'
_cell_length_a   7.60406141
_cell_length_b   7.60406141
_cell_length_c   7.60406141
_cell_angle_alpha   60.00000000
_cell_angle_beta   60.00000000
_cell_angle_gamma   60.00000000
_symmetry_Int_Tables_number   1
_chemical_formula_structural   Pr2Zr2O7
_chemical_formula_sum   'Pr4 Zr4 O14'
_cell_volume   310.90080704
_cell_formula_units_Z   2
loop_
 _symmetry_equiv_pos_site_id
 _symmetry_equiv_pos_as_xyz
  1  'x, y, z'
loop_
 _atom_site_type_symbol
 _atom_site_label
 _atom_site_symmetry_multiplicity
 _atom_site_fract_x
 _atom_site_fract_y
 _atom_site_fract_z
 _atom_site_occupancy
  Pr  Pr0  1  0.62500000  0.12500000  0.62500000  1
  Pr  Pr1  1  0.62500000  0.62500000  0.12500000  1
  Pr  Pr2  1  0.12500000  0.62500000  0.62500000  1
  Pr  Pr3  1  0.62500000  0.62500000  0.62500000  1
  Zr  Zr0  1  0.62500000  0.12500000  0.12500000  1
  Zr  Zr1  1  0.12500000  0.62500000  0.12500000  1
  Zr  Zr2  1  0.12500000  0.12500000  0.62500000  1
  Zr  Zr3  1  0.12500000  0.12500000  0.12500000  1
  O  O0  1  0.79164362  0.79164362  0.20835638  1
  O  O1  1  0.45835638  0.04164362  0.45835638  1
  O  O2  1  0.20835638  0.79164362  0.79164362  1
  O  O3  1  0.45835638  0.45835638  0.04164362  1
  O  O4  1  0.79164362  0.20835638  0.79164362  1
  O  O5  1  0.04164362  0.04164362  0.45835638  1
  O  O6  1  0.50000000  0.50000000  0.50000000  1
  O  O7  1  0.20835638  0.79164362  0.20835638  1
  O  O8  1  0.04164362  0.45835638  0.04164362  1
  O  O9  1  0.45835638  0.04164362  0.04164362  1
  O  O10  1  0.79164362  0.20835638  0.20835638  1
  O  O11  1  0.20835638  0.20835638  0.79164362  1
  O  O12  1  0.04164362  0.45835638  0.45835638  1
  O  O13  1  0.75000000  0.75000000  0.75000000  1
loop_
_geom_bond_atom_site_label_1
_geom_bond_atom_site_label_2
_geom_bond_distance
_geom_bond_site_symmetry_2
O0 Zr1 2.101757 1_655
O0 Zr0 2.101757 1_565
O0 Pr3 2.612526 1_555
O0 Pr1 2.612526 1_555
O1 Zr2 2.101757 1_555
O1 Zr0 2.101757 1_555
O1 Pr0 2.612526 1_555
O1 Pr3 2.612526 1_545
O2 Zr2 2.101757 1_565
O2 Zr1 2.101757 1_556
O2 Pr2 2.612526 1_555
O2 Pr3 2.612526 1_555
O3 Zr0 2.101757 1_555
O3 Zr1 2.101757 1_555
O3 Pr1 2.612526 1_555
O3 Pr3 2.612526 1_554
O4 Zr0 2.101757 1_556
O4 Zr2 2.101757 1_655
O4 Pr3 2.612526 1_555
O4 Pr0 2.612526 1_555
O5 Zr2 2.101757 1_555
O5 Zr3 2.101757 1_555
O5 Pr2 2.612526 1_545
O5 Pr0 2.612526 1_455
O6 Pr3 2.328259 1_555
O6 Pr1 2.328259 1_555
O6 Pr2 2.328259 1_555
O6 Pr0 2.328259 1_555
O7 Zr3 2.101757 1_565
O7 Zr1 2.101757 1_555
O7 Pr2 2.612526 1_555
O7 Pr1 2.612526 1_555
O8 Zr3 2.101757 1_555
O8 Zr1 2.101757 1_555
O8 Pr2 2.612526 1_554
O8 Pr1 2.612526 1_455
O9 Zr3 2.101757 1_555
O9 Zr0 2.101757 1_555
O9 Pr1 2.612526 1_545
O9 Pr0 2.612526 1_554
O10 Zr3 2.101757 1_655
O10 Zr0 2.101757 1_555
O10 Pr1 2.612526 1_555
O10 Pr0 2.612526 1_555
O11 Zr2 2.101757 1_555
O11 Zr3 2.101757 1_556
O11 Pr2 2.612526 1_555
O11 Pr0 2.612526 1_555
O12 Zr2 2.101757 1_555
O12 Zr1 2.101757 1_555
O12 Pr2 2.612526 1_555
O12 Pr3 2.612526 1_455
O13 Pr1 2.328259 1_556
O13 Pr3 2.328259 1_555
O13 Pr2 2.328259 1_655
O13 Pr0 2.328259 1_565
