# generated using pymatgen
data_YAl3Ni2
_symmetry_space_group_name_H-M   'P 1'
_cell_length_a   8.97912889
_cell_length_b   8.97912921
_cell_length_c   4.03672246
_cell_angle_alpha   90.00000000
_cell_angle_beta   90.00000000
_cell_angle_gamma   119.99999511
_symmetry_Int_Tables_number   1
_chemical_formula_structural   YAl3Ni2
_chemical_formula_sum   'Y3 Al9 Ni6'
_cell_volume   281.85644551
_cell_formula_units_Z   3
loop_
 _symmetry_equiv_pos_site_id
 _symmetry_equiv_pos_as_xyz
  1  'x, y, z'
loop_
 _atom_site_type_symbol
 _atom_site_label
 _atom_site_symmetry_multiplicity
 _atom_site_fract_x
 _atom_site_fract_y
 _atom_site_fract_z
 _atom_site_occupancy
  Y  Y0  1  0.33333300  0.66666700  0.50000000  1
  Y  Y1  1  0.66666700  0.33333300  0.50000000  1
  Y  Y2  1  -0.00000000  -0.00000000  0.00000000  1
  Al  Al0  1  0.00000000  0.29671820  0.50000000  1
  Al  Al1  1  -0.00000000  0.50000000  0.00000000  1
  Al  Al2  1  0.50000000  0.50000000  0.00000000  1
  Al  Al3  1  0.50000000  -0.00000000  0.00000000  1
  Al  Al4  1  0.70328180  -0.00000000  0.50000000  1
  Al  Al5  1  0.70328180  0.70328180  0.50000000  1
  Al  Al6  1  0.29671820  0.00000000  0.50000000  1
  Al  Al7  1  -0.00000000  0.70328180  0.50000000  1
  Al  Al8  1  0.29671820  0.29671820  0.50000000  1
  Ni  Ni0  1  0.81883342  0.18116658  -0.00000000  1
  Ni  Ni1  1  0.81883342  0.63766785  0.00000000  1
  Ni  Ni2  1  0.18116658  0.81883342  0.00000000  1
  Ni  Ni3  1  0.63766785  0.81883342  0.00000000  1
  Ni  Ni4  1  0.36233215  0.18116658  -0.00000000  1
  Ni  Ni5  1  0.18116658  0.36233215  -0.00000000  1
loop_
_geom_bond_atom_site_label_1
_geom_bond_atom_site_label_2
_geom_bond_distance
_geom_bond_site_symmetry_2
Al0 Ni0 2.471579 1_456
Al0 Ni0 2.471579 1_455
Al0 Ni5 2.471580 1_555
Al0 Ni5 2.471580 1_556
Al0 Al8 2.664271 1_555
Al0 Al4 2.664271 1_455
Al0 Al1 2.721301 1_556
Al0 Al1 2.721301 1_555
Al0 Y1 3.170236 1_455
Al0 Y0 3.170241 1_555
Al1 Ni2 2.486978 1_555
Al1 Ni0 2.486978 1_455
Al1 Ni5 2.486985 1_555
Al1 Ni1 2.486985 1_455
Al1 Al7 2.721301 1_554
Al1 Al7 2.721301 1_555
Al1 Y0 3.285194 1_555
Al1 Y1 3.285194 1_455
Al1 Y1 3.285194 1_454
Al1 Y0 3.285194 1_554
Al2 Ni5 2.486977 1_555
Al2 Ni1 2.486977 1_555
Al2 Ni3 2.486977 1_555
Al2 Ni4 2.486977 1_555
Al2 Al5 2.721301 1_555
Al2 Al5 2.721301 1_554
Al2 Al8 2.721301 1_554
Al2 Al8 2.721301 1_555
Al2 Y0 3.285200 1_554
Al2 Y1 3.285200 1_555
Al2 Y1 3.285200 1_554
Al2 Y0 3.285200 1_555
Al3 Ni0 2.486978 1_555
Al3 Ni2 2.486978 1_545
Al3 Ni4 2.486985 1_555
Al3 Ni3 2.486985 1_545
Al3 Al4 2.721301 1_555
Al3 Al4 2.721301 1_554
Al3 Al6 2.721301 1_554
Al3 Al6 2.721301 1_555
Al3 Y0 3.285194 1_544
Al3 Y1 3.285194 1_554
Al3 Y0 3.285194 1_545
Al3 Y1 3.285194 1_555
Al4 Ni0 2.471579 1_556
Al4 Ni0 2.471579 1_555
Al4 Ni3 2.471580 1_545
Al4 Ni3 2.471580 1_546
Al4 Al5 2.664271 1_545
Al4 Y1 3.170236 1_555
Al4 Y0 3.170241 1_545
Al5 Ni1 2.471575 1_555
Al5 Ni1 2.471575 1_556
Al5 Ni3 2.471575 1_556
Al5 Ni3 2.471575 1_555
Al5 Al7 2.664271 1_655
Al5 Y0 3.170245 1_555
Al5 Y1 3.170245 1_555
Al6 Ni2 2.471579 1_545
Al6 Ni2 2.471579 1_546
Al6 Ni4 2.471580 1_555
Al6 Ni4 2.471580 1_556
Al6 Al8 2.664271 1_555
Al6 Al7 2.664271 1_545
Al6 Y0 3.170236 1_545
Al6 Y1 3.170241 1_555
Al7 Ni2 2.471579 1_556
Al7 Ni2 2.471579 1_555
Al7 Ni1 2.471580 1_456
Al7 Ni1 2.471580 1_455
Al7 Y0 3.170236 1_555
Al7 Y1 3.170241 1_455
Al8 Ni5 2.471575 1_555
Al8 Ni5 2.471575 1_556
Al8 Ni4 2.471575 1_555
Al8 Ni4 2.471575 1_556
Al8 Y1 3.170245 1_555
Al8 Y0 3.170245 1_555
Ni0 Y2 2.817558 1_655
Ni0 Ni5 2.817558 1_655
Ni0 Ni3 2.817559 1_545
Ni0 Y1 3.110352 1_555
Ni0 Y1 3.110352 1_554
Ni1 Ni3 2.817543 1_555
Ni1 Y2 2.817551 1_665
Ni1 Ni2 2.817558 1_655
Ni1 Y1 3.110364 1_555
Ni1 Y1 3.110364 1_554
Ni2 Y2 2.817558 1_565
Ni2 Ni4 2.817559 1_565
Ni2 Y0 3.110352 1_554
Ni2 Y0 3.110352 1_555
Ni3 Y2 2.817551 1_665
Ni3 Y0 3.110364 1_554
Ni3 Y0 3.110364 1_555
Ni4 Ni5 2.817543 1_555
Ni4 Y2 2.817551 1_555
Ni4 Y1 3.110364 1_555
Ni4 Y1 3.110364 1_554
Ni5 Y2 2.817551 1_555
Ni5 Y0 3.110364 1_554
Ni5 Y0 3.110364 1_555
