# generated using pymatgen
data_K3P5RuSe10
_symmetry_space_group_name_H-M   'P 1'
_cell_length_a   7.42463700
_cell_length_b   11.37741500
_cell_length_c   12.68372603
_cell_angle_alpha   86.91569708
_cell_angle_beta   90.00000000
_cell_angle_gamma   90.00000000
_symmetry_Int_Tables_number   1
_chemical_formula_structural   K3P5RuSe10
_chemical_formula_sum   'K6 P10 Ru2 Se20'
_cell_volume   1069.88259780
_cell_formula_units_Z   2
loop_
 _symmetry_equiv_pos_site_id
 _symmetry_equiv_pos_as_xyz
  1  'x, y, z'
loop_
 _atom_site_type_symbol
 _atom_site_label
 _atom_site_symmetry_multiplicity
 _atom_site_fract_x
 _atom_site_fract_y
 _atom_site_fract_z
 _atom_site_occupancy
  K  K0  1  0.25000000  0.98709100  0.60781400  1
  K  K1  1  0.75000000  0.01290900  0.39218600  1
  K  K2  1  0.25000000  0.09815300  0.06887100  1
  K  K3  1  0.25000000  0.47270000  0.61222500  1
  K  K4  1  0.75000000  0.90184700  0.93112900  1
  K  K5  1  0.75000000  0.52730000  0.38777500  1
  P  P0  1  0.75000000  0.27608800  0.59135600  1
  P  P1  1  0.52011600  0.47612800  0.91632400  1
  P  P2  1  0.47988400  0.52387200  0.08367600  1
  P  P3  1  0.25000000  0.86404500  0.27389600  1
  P  P4  1  0.25000000  0.72391200  0.40864400  1
  P  P5  1  0.75000000  0.13595500  0.72610400  1
  P  P6  1  0.25000000  0.72266800  0.94230900  1
  P  P7  1  0.97988400  0.47612800  0.91632400  1
  P  P8  1  0.02011600  0.52387200  0.08367600  1
  P  P9  1  0.75000000  0.27733200  0.05769100  1
  Ru  Ru0  1  0.25000000  0.64990700  0.11498200  1
  Ru  Ru1  1  0.75000000  0.35009300  0.88501800  1
  Se  Se0  1  0.25000000  0.90607300  0.88126800  1
  Se  Se1  1  0.75000000  0.96227300  0.66693100  1
  Se  Se2  1  0.25000000  0.37901100  0.87906100  1
  Se  Se3  1  0.99548100  0.25777400  0.50037800  1
  Se  Se4  1  0.47586500  0.81335900  0.16871800  1
  Se  Se5  1  0.49013500  0.65911900  0.83842300  1
  Se  Se6  1  0.00986500  0.65911900  0.83842300  1
  Se  Se7  1  0.50451900  0.25777400  0.50037800  1
  Se  Se8  1  0.25000000  0.03772700  0.33306900  1
  Se  Se9  1  0.50986500  0.34088100  0.16157700  1
  Se  Se10  1  0.75000000  0.62098900  0.12093900  1
  Se  Se11  1  0.52413500  0.18664100  0.83128200  1
  Se  Se12  1  0.25000000  0.56173100  0.31220500  1
  Se  Se13  1  0.97586500  0.18664100  0.83128200  1
  Se  Se14  1  0.49548100  0.74222600  0.49962200  1
  Se  Se15  1  0.99013500  0.34088100  0.16157700  1
  Se  Se16  1  0.75000000  0.09392700  0.11873200  1
  Se  Se17  1  0.02413500  0.81335900  0.16871800  1
  Se  Se18  1  0.00451900  0.74222600  0.49962200  1
  Se  Se19  1  0.75000000  0.43826900  0.68779500  1
loop_
_geom_bond_atom_site_label_1
_geom_bond_atom_site_label_2
_geom_bond_distance
_geom_bond_site_symmetry_2
K0 Se8 3.501374 1_565
K0 Se0 3.540556 1_555
K0 Se18 3.657575 1_555
K0 Se14 3.657575 1_555
K0 Se1 3.794798 1_555
K0 Se1 3.794798 1_455
K0 Se7 3.802724 1_565
K0 Se3 3.802724 1_465
K1 Se1 3.501374 1_545
K1 Se16 3.540556 1_555
K1 Se3 3.657575 1_555
K1 Se7 3.657575 1_555
K1 Se8 3.794798 1_655
K1 Se8 3.794798 1_555
K1 Se18 3.802724 1_645
K1 Se14 3.802724 1_545
K2 Se0 3.316246 1_544
K2 Se8 3.384381 1_555
K2 Se9 3.616795 1_555
K2 Se15 3.616795 1_455
K2 P3 3.620995 1_545
K2 Se13 3.729748 1_454
K2 Se11 3.729748 1_554
K2 Se16 3.765675 1_455
K2 Se16 3.765675 1_555
K2 Se4 3.804406 1_545
K2 Se17 3.804406 1_545
K2 Se2 3.896026 1_554
K3 Se7 3.454901 1_555
K3 Se3 3.454901 1_455
K3 Se2 3.493233 1_555
K3 Se14 3.780728 1_555
K3 Se18 3.780728 1_555
K4 Se16 3.316246 1_566
K4 Se1 3.384381 1_555
K4 Se6 3.616795 1_655
K4 Se5 3.616795 1_555
K4 P5 3.620995 1_565
K4 Se17 3.729748 1_656
K4 Se4 3.729748 1_556
K4 Se0 3.765675 1_555
K4 Se0 3.765675 1_655
K4 Se11 3.804406 1_565
K4 Se13 3.804406 1_565
K4 Se10 3.896026 1_556
K5 Se14 3.454901 1_555
K5 Se18 3.454901 1_655
K5 Se10 3.493233 1_555
K5 Se3 3.780728 1_555
K5 Se7 3.780728 1_555
P0 Se3 2.173192 1_555
P0 Se7 2.173192 1_555
P0 Se19 2.268013 1_555
P1 P2 2.239197 1_556
P1 Se5 2.266947 1_555
P1 Ru1 2.277794 1_555
P1 Se2 2.350012 1_555
P2 Se9 2.266947 1_555
P2 Ru0 2.277794 1_555
P2 Se10 2.350012 1_555
P3 Se8 2.151204 1_565
P3 Se4 2.237687 1_555
P3 Se17 2.237687 1_555
P4 Se18 2.173192 1_555
P4 Se14 2.173192 1_555
P4 Se12 2.268013 1_555
P5 Se1 2.151204 1_545
P5 Se13 2.237687 1_555
P5 Se11 2.237687 1_555
P6 Se0 2.186273 1_555
P6 Ru0 2.299326 1_556
P6 Se5 2.353785 1_555
P6 Se6 2.353785 1_555
P7 P8 2.239197 1_656
P7 Se6 2.266947 1_655
P7 Ru1 2.277794 1_555
P7 Se2 2.350012 1_655
P8 Se15 2.266947 1_455
P8 Ru0 2.277794 1_555
P8 Se10 2.350012 1_455
P9 Se16 2.186273 1_555
P9 Ru1 2.299326 1_554
P9 Se15 2.353785 1_555
P9 Se9 2.353785 1_555
Ru0 Se4 2.621353 1_555
Ru0 Se17 2.621353 1_555
Ru0 Se12 2.644617 1_555
Ru1 Se13 2.621353 1_555
Ru1 Se11 2.621353 1_555
Ru1 Se19 2.644617 1_555
