# generated using pymatgen
data_CsEr(NbBr3)6
_symmetry_space_group_name_H-M   'P 1'
_cell_length_a   9.94917003
_cell_length_b   9.94917003
_cell_length_c   18.54517600
_cell_angle_alpha   90.00000000
_cell_angle_beta   90.00000000
_cell_angle_gamma   120.00000019
_symmetry_Int_Tables_number   1
_chemical_formula_structural   CsEr(NbBr3)6
_chemical_formula_sum   'Cs2 Er2 Nb12 Br36'
_cell_volume   1589.77365572
_cell_formula_units_Z   2
loop_
 _symmetry_equiv_pos_site_id
 _symmetry_equiv_pos_as_xyz
  1  'x, y, z'
loop_
 _atom_site_type_symbol
 _atom_site_label
 _atom_site_symmetry_multiplicity
 _atom_site_fract_x
 _atom_site_fract_y
 _atom_site_fract_z
 _atom_site_occupancy
  Cs  Cs0  1  0.66666700  0.33333300  0.75000000  1
  Cs  Cs1  1  0.33333300  0.66666700  0.25000000  1
  Er  Er0  1  0.33333300  0.66666700  0.75000000  1
  Er  Er1  1  0.66666700  0.33333300  0.25000000  1
  Nb  Nb0  1  0.03787700  0.18763200  0.93499500  1
  Nb  Nb1  1  0.18763200  0.03787700  0.43499500  1
  Nb  Nb2  1  0.14975400  0.18763200  0.56500500  1
  Nb  Nb3  1  0.85024600  0.81236800  0.43499500  1
  Nb  Nb4  1  0.81236800  0.96212300  0.56500500  1
  Nb  Nb5  1  0.96212300  0.14975400  0.43499500  1
  Nb  Nb6  1  0.81236800  0.85024600  0.93499500  1
  Nb  Nb7  1  0.14975400  0.96212300  0.93499500  1
  Nb  Nb8  1  0.85024600  0.03787700  0.06500500  1
  Nb  Nb9  1  0.96212300  0.81236800  0.06500500  1
  Nb  Nb10  1  0.03787700  0.85024600  0.56500500  1
  Nb  Nb11  1  0.18763200  0.14975400  0.06500500  1
  Br  Br0  1  0.14035900  0.72538800  0.00092500  1
  Br  Br1  1  0.04539100  0.23033900  0.15939700  1
  Br  Br2  1  0.63686800  0.54996900  0.33741000  1
  Br  Br3  1  0.85964100  0.27461200  0.99907500  1
  Br  Br4  1  0.72538800  0.14035900  0.50092500  1
  Br  Br5  1  0.72538800  0.58502900  0.99907500  1
  Br  Br6  1  0.23033900  0.04539100  0.65939700  1
  Br  Br7  1  0.41497100  0.14035900  0.99907500  1
  Br  Br8  1  0.81505200  0.76966100  0.65939700  1
  Br  Br9  1  0.95460900  0.76966100  0.84060300  1
  Br  Br10  1  0.76966100  0.81505200  0.15939700  1
  Br  Br11  1  0.85964100  0.58502900  0.50092500  1
  Br  Br12  1  0.36313200  0.45003100  0.66259000  1
  Br  Br13  1  0.91310100  0.54996900  0.16259000  1
  Br  Br14  1  0.81505200  0.04539100  0.84060300  1
  Br  Br15  1  0.58502900  0.72538800  0.49907500  1
  Br  Br16  1  0.08689900  0.63686800  0.66259000  1
  Br  Br17  1  0.08689900  0.45003100  0.83741000  1
  Br  Br18  1  0.54996900  0.63686800  0.83741000  1
  Br  Br19  1  0.14035900  0.41497100  0.49907500  1
  Br  Br20  1  0.23033900  0.18494800  0.84060300  1
  Br  Br21  1  0.95460900  0.18494800  0.65939700  1
  Br  Br22  1  0.27461200  0.85964100  0.49907500  1
  Br  Br23  1  0.36313200  0.91310100  0.83741000  1
  Br  Br24  1  0.27461200  0.41497100  0.00092500  1
  Br  Br25  1  0.04539100  0.81505200  0.34060300  1
  Br  Br26  1  0.45003100  0.36313200  0.16259000  1
  Br  Br27  1  0.18494800  0.95460900  0.15939700  1
  Br  Br28  1  0.76966100  0.95460900  0.34060300  1
  Br  Br29  1  0.41497100  0.27461200  0.50092500  1
  Br  Br30  1  0.58502900  0.85964100  0.00092500  1
  Br  Br31  1  0.18494800  0.23033900  0.34060300  1
  Br  Br32  1  0.91310100  0.36313200  0.33741000  1
  Br  Br33  1  0.54996900  0.91310100  0.66259000  1
  Br  Br34  1  0.63686800  0.08689900  0.16259000  1
  Br  Br35  1  0.45003100  0.08689900  0.33741000  1
loop_
_geom_bond_atom_site_label_1
_geom_bond_atom_site_label_2
_geom_bond_distance
_geom_bond_site_symmetry_2
Br0 Nb7 2.613628 1_554
Br0 Nb9 2.615394 1_455
Br1 Nb8 2.604368 1_455
Br1 Nb11 2.616195 1_555
Br1 Cs1 4.176011 1_555
Br2 Er1 2.828459 1_555
Br2 Nb3 3.009192 1_555
Br2 Cs1 4.074553 1_555
Br3 Nb8 2.613628 1_556
Br3 Nb0 2.615394 1_655
Br4 Nb5 2.613628 1_555
Br4 Nb4 2.615394 1_545
Br5 Nb9 2.613624 1_556
Br5 Nb6 2.615402 1_555
Br6 Nb10 2.604368 1_545
Br6 Nb2 2.616195 1_555
Br6 Cs0 4.176011 1_555
Br7 Nb11 2.613619 1_556
Br7 Nb7 2.615401 1_545
Br8 Nb4 2.604372 1_555
Br8 Nb10 2.616188 1_655
Br8 Cs0 4.176012 1_555
Br9 Nb7 2.604368 1_655
Br9 Nb6 2.616195 1_555
Br9 Cs0 4.176011 1_555
Br10 Nb9 2.604372 1_555
Br10 Nb8 2.616188 1_565
Br10 Cs1 4.176012 1_555
Br11 Nb3 2.613619 1_555
Br11 Nb10 2.615401 1_655
Br12 Er0 2.828459 1_555
Br12 Nb2 3.009192 1_555
Br12 Cs0 4.074553 1_555
Br13 Er1 2.828455 1_555
Br13 Nb9 3.009190 1_555
Br13 Cs1 4.074544 1_655
Br14 Nb6 2.604365 1_545
Br14 Nb0 2.616189 1_655
Br14 Cs0 4.176004 1_555
Br15 Nb4 2.613624 1_555
Br15 Nb3 2.615402 1_555
Br16 Er0 2.828451 1_555
Br16 Nb10 3.009197 1_555
Br16 Cs0 4.074547 1_455
Br17 Er0 2.828455 1_555
Br17 Nb0 3.009190 1_555
Br17 Cs0 4.074544 1_455
Br18 Er0 2.828459 1_555
Br18 Nb6 3.009192 1_555
Br18 Cs0 4.074553 1_555
Br19 Nb2 2.613619 1_555
Br19 Nb5 2.615401 1_455
Br20 Nb0 2.604372 1_555
Br20 Nb7 2.616188 1_545
Br20 Cs0 4.176012 1_555
Br21 Nb2 2.604365 1_655
Br21 Nb4 2.616189 1_545
Br21 Cs0 4.176004 1_555
Br22 Nb10 2.613628 1_555
Br22 Nb1 2.615394 1_565
Br23 Er0 2.828451 1_555
Br23 Nb7 3.009197 1_555
Br23 Cs0 4.074547 1_565
Br24 Nb0 2.613624 1_554
Br24 Nb11 2.615402 1_555
Br25 Nb3 2.604365 1_455
Br25 Nb1 2.616189 1_565
Br25 Cs1 4.176004 1_555
Br26 Er1 2.828459 1_555
Br26 Nb11 3.009192 1_555
Br26 Cs1 4.074553 1_555
Br27 Nb11 2.604365 1_565
Br27 Nb9 2.616189 1_455
Br27 Cs1 4.176004 1_555
Br28 Nb5 2.604368 1_565
Br28 Nb3 2.616195 1_555
Br28 Cs1 4.176011 1_555
Br29 Nb1 2.613624 1_555
Br29 Nb2 2.615402 1_555
Br30 Nb6 2.613619 1_554
Br30 Nb8 2.615401 1_565
Br31 Nb1 2.604372 1_555
Br31 Nb5 2.616188 1_455
Br31 Cs1 4.176012 1_555
Br32 Er1 2.828451 1_555
Br32 Nb5 3.009197 1_555
Br32 Cs1 4.074547 1_655
Br33 Er0 2.828455 1_555
Br33 Nb4 3.009190 1_555
Br33 Cs0 4.074544 1_565
Br34 Er1 2.828451 1_555
Br34 Nb8 3.009197 1_555
Br34 Cs1 4.074547 1_545
Br35 Er1 2.828455 1_555
Br35 Nb1 3.009190 1_555
Br35 Cs1 4.074544 1_545
