# generated using pymatgen
data_Mn3BO5
_symmetry_space_group_name_H-M   'P 1'
_cell_length_a   3.11177066
_cell_length_b   9.44145341
_cell_length_c   12.65211280
_cell_angle_alpha   90.00000000
_cell_angle_beta   90.00000000
_cell_angle_gamma   90.00000000
_symmetry_Int_Tables_number   1
_chemical_formula_structural   Mn3BO5
_chemical_formula_sum   'Mn12 B4 O20'
_cell_volume   371.71449032
_cell_formula_units_Z   4
loop_
 _symmetry_equiv_pos_site_id
 _symmetry_equiv_pos_as_xyz
  1  'x, y, z'
loop_
 _atom_site_type_symbol
 _atom_site_label
 _atom_site_symmetry_multiplicity
 _atom_site_fract_x
 _atom_site_fract_y
 _atom_site_fract_z
 _atom_site_occupancy
  Mn  Mn0  1  0.50000000  0.00850857  0.27915729  1
  Mn  Mn1  1  0.50000000  0.99149143  0.72084271  1
  Mn  Mn2  1  0.50000000  0.50850857  0.22084271  1
  Mn  Mn3  1  0.50000000  0.49149143  0.77915729  1
  Mn  Mn4  1  0.50000000  -0.00000000  -0.00000000  1
  Mn  Mn5  1  0.50000000  0.50000000  0.50000000  1
  Mn  Mn6  1  0.00000000  0.50000000  -0.00000000  1
  Mn  Mn7  1  0.00000000  -0.00000000  0.50000000  1
  Mn  Mn8  1  0.00000000  0.24060756  0.11773822  1
  Mn  Mn9  1  0.00000000  0.75939244  0.88226178  1
  Mn  Mn10  1  0.00000000  0.74060756  0.38226178  1
  Mn  Mn11  1  0.00000000  0.25939244  0.61773822  1
  B  B0  1  0.00000000  0.28231726  0.35873766  1
  B  B1  1  0.00000000  0.71768274  0.64126234  1
  B  B2  1  0.00000000  0.78231726  0.14126234  1
  B  B3  1  0.00000000  0.21768274  0.85873766  1
  O  O0  1  0.00000000  0.14558809  0.95418426  1
  O  O1  1  0.00000000  0.85441191  0.04581574  1
  O  O2  1  0.00000000  0.64558809  0.54581574  1
  O  O3  1  0.00000000  0.35441191  0.45418426  1
  O  O4  1  0.50000000  0.10020154  0.13613820  1
  O  O5  1  0.50000000  0.89979846  0.86386180  1
  O  O6  1  0.50000000  0.60020154  0.36386180  1
  O  O7  1  0.50000000  0.39979846  0.63613820  1
  O  O8  1  -0.00000000  0.13570153  0.35545704  1
  O  O9  1  0.00000000  0.86429847  0.64454296  1
  O  O10  1  0.00000000  0.63570153  0.14454296  1
  O  O11  1  0.00000000  0.36429847  0.85545704  1
  O  O12  1  0.50000000  0.39053493  0.07811552  1
  O  O13  1  0.50000000  0.60946507  0.92188448  1
  O  O14  1  0.50000000  0.89053493  0.42188448  1
  O  O15  1  0.50000000  0.10946507  0.57811552  1
  O  O16  1  0.00000000  0.35671399  0.26474784  1
  O  O17  1  0.00000000  0.64328601  0.73525216  1
  O  O18  1  -0.00000000  0.85671399  0.23525216  1
  O  O19  1  0.00000000  0.14328601  0.76474784  1
loop_
_geom_bond_atom_site_label_1
_geom_bond_atom_site_label_2
_geom_bond_distance
_geom_bond_site_symmetry_2
Mn0 O4 2.005924 1_555
Mn0 O14 2.121688 1_545
Mn0 O18 2.187076 1_545
Mn0 O18 2.187076 1_645
Mn0 O8 2.189706 1_555
Mn0 O8 2.189706 1_655
Mn1 O5 2.005924 1_555
Mn1 O15 2.121688 1_565
Mn1 O19 2.187076 1_565
Mn1 O19 2.187076 1_665
Mn1 O9 2.189706 1_555
Mn1 O9 2.189706 1_655
Mn2 O6 2.005924 1_555
Mn2 O12 2.121688 1_555
Mn2 O16 2.187076 1_655
Mn2 O16 2.187076 1_555
Mn2 O10 2.189706 1_555
Mn2 O10 2.189706 1_655
Mn3 O7 2.005924 1_555
Mn3 O13 2.121688 1_555
Mn3 O17 2.187076 1_555
Mn3 O17 2.187076 1_655
Mn3 O11 2.189706 1_555
Mn3 O11 2.189706 1_655
Mn4 O5 1.965144 1_544
Mn4 O4 1.965144 1_555
Mn4 O1 2.155508 1_545
Mn4 O1 2.155508 1_645
Mn4 O0 2.155508 1_654
Mn4 O0 2.155508 1_554
Mn5 O7 1.965144 1_555
Mn5 O6 1.965144 1_555
Mn5 O2 2.155508 1_655
Mn5 O2 2.155508 1_555
Mn5 O3 2.155508 1_655
Mn5 O3 2.155508 1_555
Mn6 O12 2.113223 1_455
Mn6 O13 2.113223 1_454
Mn6 O13 2.113223 1_554
Mn6 O12 2.113223 1_555
Mn6 O11 2.232921 1_554
Mn6 O10 2.232921 1_555
Mn7 O15 2.113223 1_455
Mn7 O14 2.113223 1_445
Mn7 O15 2.113223 1_555
Mn7 O14 2.113223 1_545
Mn7 O9 2.232921 1_545
Mn7 O8 2.232921 1_555
Mn8 O4 2.057252 1_455
Mn8 O4 2.057252 1_555
Mn8 O16 2.158985 1_555
Mn8 O12 2.162365 1_555
Mn8 O12 2.162365 1_455
Mn8 O0 2.255403 1_554
Mn9 O5 2.057252 1_455
Mn9 O5 2.057252 1_555
Mn9 O17 2.158985 1_555
Mn9 O13 2.162365 1_455
Mn9 O13 2.162365 1_555
Mn9 O1 2.255403 1_556
Mn10 O6 2.057252 1_455
Mn10 O6 2.057252 1_555
Mn10 O18 2.158985 1_555
Mn10 O14 2.162365 1_555
Mn10 O14 2.162365 1_455
Mn10 O2 2.255403 1_555
Mn11 O7 2.057252 1_455
Mn11 O7 2.057252 1_555
Mn11 O19 2.158985 1_555
Mn11 O15 2.162365 1_455
Mn11 O15 2.162365 1_555
Mn11 O3 2.255403 1_555
B0 O16 1.381126 1_555
B0 O8 1.384888 1_555
B0 O3 1.386226 1_555
B1 O17 1.381126 1_555
B1 O9 1.384888 1_555
B1 O2 1.386226 1_555
B2 O18 1.381126 1_555
B2 O10 1.384888 1_555
B2 O1 1.386226 1_555
B3 O19 1.381126 1_555
B3 O11 1.384888 1_555
B3 O0 1.386226 1_555
