# generated using pymatgen
data_CaMnB2O5
_symmetry_space_group_name_H-M   'P 1'
_cell_length_a   11.55231100
_cell_length_b   5.73648600
_cell_length_c   12.53654509
_cell_angle_alpha   77.43368125
_cell_angle_beta   90.00000000
_cell_angle_gamma   90.00000000
_symmetry_Int_Tables_number   1
_chemical_formula_structural   CaMnB2O5
_chemical_formula_sum   'Ca8 Mn8 B16 O40'
_cell_volume   810.89092805
_cell_formula_units_Z   8
loop_
 _symmetry_equiv_pos_site_id
 _symmetry_equiv_pos_as_xyz
  1  'x, y, z'
loop_
 _atom_site_type_symbol
 _atom_site_label
 _atom_site_symmetry_multiplicity
 _atom_site_fract_x
 _atom_site_fract_y
 _atom_site_fract_z
 _atom_site_occupancy
  Ca  Ca0  1  0.88081200  0.87370400  0.09155400  1
  Ca  Ca1  1  0.61918800  0.37370400  0.09155400  1
  Ca  Ca2  1  0.38081200  0.62629600  0.90844600  1
  Ca  Ca3  1  0.11918800  0.12629600  0.90844600  1
  Ca  Ca4  1  0.87203400  0.85353600  0.58687400  1
  Ca  Ca5  1  0.62796600  0.35353600  0.58687400  1
  Ca  Ca6  1  0.12796600  0.14646400  0.41312600  1
  Ca  Ca7  1  0.37203400  0.64646400  0.41312600  1
  Mn  Mn0  1  0.12816300  0.75502700  0.23598600  1
  Mn  Mn1  1  0.62778600  0.74956300  0.26220400  1
  Mn  Mn2  1  0.37183700  0.25502700  0.23598600  1
  Mn  Mn3  1  0.87183700  0.24497300  0.76401400  1
  Mn  Mn4  1  0.37221400  0.25043700  0.73779600  1
  Mn  Mn5  1  0.62816300  0.74497300  0.76401400  1
  Mn  Mn6  1  0.87221400  0.24956300  0.26220400  1
  Mn  Mn7  1  0.12778600  0.75043700  0.73779600  1
  B  B0  1  0.87501900  0.37017600  0.99083900  1
  B  B1  1  0.88081600  0.35221800  0.48867100  1
  B  B2  1  0.11918400  0.64778200  0.51132900  1
  B  B3  1  0.87568900  0.69999600  0.32732300  1
  B  B4  1  0.38081600  0.14778200  0.51132900  1
  B  B5  1  0.62498100  0.87017600  0.99083900  1
  B  B6  1  0.11558200  0.29335200  0.17205200  1
  B  B7  1  0.62431100  0.19999600  0.32732300  1
  B  B8  1  0.38441800  0.79335200  0.17205200  1
  B  B9  1  0.61558200  0.20664800  0.82794800  1
  B  B10  1  0.61918400  0.85221800  0.48867100  1
  B  B11  1  0.12498100  0.62982400  0.00916100  1
  B  B12  1  0.37568900  0.80000400  0.67267700  1
  B  B13  1  0.88441800  0.70664800  0.82794800  1
  B  B14  1  0.37501900  0.12982400  0.00916100  1
  B  B15  1  0.12431100  0.30000400  0.67267700  1
  O  O0  1  0.08666300  0.80046800  0.06219400  1
  O  O1  1  0.94627100  0.60540700  0.25927700  1
  O  O2  1  0.66577600  0.77700400  0.59082000  1
  O  O3  1  0.05372900  0.39459300  0.74072300  1
  O  O4  1  0.67681700  0.80840800  0.09100500  1
  O  O5  1  0.30960100  0.89602100  0.23380700  1
  O  O6  1  0.11230900  0.38076700  0.05718600  1
  O  O7  1  0.16577600  0.72299600  0.40918000  1
  O  O8  1  0.44627100  0.89459300  0.74072300  1
  O  O9  1  0.19497200  0.11113700  0.71476100  1
  O  O10  1  0.17681700  0.69159200  0.90899500  1
  O  O11  1  0.80960100  0.60397900  0.76619300  1
  O  O12  1  0.07416100  0.80814900  0.56618100  1
  O  O13  1  0.42583900  0.30814900  0.56618100  1
  O  O14  1  0.82318300  0.30840800  0.09100500  1
  O  O15  1  0.30502800  0.61113700  0.71476100  1
  O  O16  1  0.83422400  0.27700400  0.59082000  1
  O  O17  1  0.88769100  0.61923300  0.94281400  1
  O  O18  1  0.04577300  0.10719300  0.22170300  1
  O  O19  1  0.69497200  0.38886300  0.28523900  1
  O  O20  1  0.69039900  0.10397900  0.76619300  1
  O  O21  1  0.19039900  0.39602100  0.23380700  1
  O  O22  1  0.57416100  0.69185100  0.43381900  1
  O  O23  1  0.54577300  0.39280700  0.77829700  1
  O  O24  1  0.80502800  0.88886300  0.28523900  1
  O  O25  1  0.62745400  0.10232500  0.44227100  1
  O  O26  1  0.38769100  0.88076700  0.05718600  1
  O  O27  1  0.95422700  0.89280700  0.77829700  1
  O  O28  1  0.37254600  0.89767500  0.55772900  1
  O  O29  1  0.45422700  0.60719300  0.22170300  1
  O  O30  1  0.91333700  0.19953200  0.93780600  1
  O  O31  1  0.55372900  0.10540700  0.25927700  1
  O  O32  1  0.33422400  0.22299600  0.40918000  1
  O  O33  1  0.87254600  0.60232500  0.44227100  1
  O  O34  1  0.61230900  0.11923300  0.94281400  1
  O  O35  1  0.58666300  0.69953200  0.93780600  1
  O  O36  1  0.41333700  0.30046800  0.06219400  1
  O  O37  1  0.12745400  0.39767500  0.55772900  1
  O  O38  1  0.32318300  0.19159200  0.90899500  1
  O  O39  1  0.92583900  0.19185100  0.43381900  1
loop_
_geom_bond_atom_site_label_1
_geom_bond_atom_site_label_2
_geom_bond_distance
_geom_bond_site_symmetry_2
Ca0 O4 2.386441 1_555
Ca0 O30 2.404626 1_564
Ca0 O1 2.440008 1_555
Ca0 O0 2.456503 1_655
Ca0 O14 2.579575 1_565
Ca0 O24 2.600341 1_555
Ca0 O17 2.607441 1_554
Ca0 O18 3.006453 1_665
Ca1 O14 2.386441 1_555
Ca1 O35 2.404626 1_554
Ca1 O31 2.440008 1_555
Ca1 O36 2.456503 1_555
Ca1 O4 2.579575 1_555
Ca1 O19 2.600341 1_555
Ca1 O34 2.607441 1_554
Ca1 O29 3.006453 1_555
Ca2 O10 2.386441 1_555
Ca2 O36 2.404626 1_556
Ca2 O8 2.440008 1_555
Ca2 O35 2.456503 1_555
Ca2 O38 2.579575 1_555
Ca2 O15 2.600341 1_555
Ca2 O26 2.607441 1_556
Ca2 O23 3.006453 1_555
Ca3 O38 2.386441 1_555
Ca3 O0 2.404626 1_546
Ca3 O3 2.440008 1_555
Ca3 O30 2.456503 1_455
Ca3 O10 2.579575 1_545
Ca3 O9 2.600341 1_555
Ca3 O6 2.607441 1_556
Ca3 O27 3.006453 1_445
Ca4 O12 2.369992 1_655
Ca4 O2 2.421419 1_555
Ca4 O16 2.479239 1_565
Ca4 O39 2.492819 1_565
Ca4 O11 2.494578 1_555
Ca4 O33 2.549469 1_555
Ca4 O27 2.635629 1_555
Ca5 O13 2.369992 1_555
Ca5 O16 2.421419 1_555
Ca5 O2 2.479239 1_555
Ca5 O22 2.492819 1_555
Ca5 O20 2.494578 1_555
Ca5 O25 2.549469 1_555
Ca5 O23 2.635629 1_555
Ca6 O39 2.369992 1_455
Ca6 O32 2.421419 1_555
Ca6 O7 2.479239 1_545
Ca6 O12 2.492819 1_545
Ca6 O21 2.494578 1_555
Ca6 O37 2.549469 1_555
Ca6 O18 2.635629 1_555
Ca7 O22 2.369992 1_555
Ca7 O7 2.421419 1_555
Ca7 O32 2.479239 1_555
Ca7 O13 2.492819 1_555
Ca7 O5 2.494578 1_555
Ca7 O28 2.549469 1_555
Ca7 O29 2.635629 1_555
Mn0 O7 2.182501 1_555
Mn0 O21 2.187100 1_555
Mn0 O0 2.190347 1_555
Mn0 O18 2.204940 1_565
Mn0 O5 2.244692 1_555
Mn0 O1 2.264558 1_455
Mn1 O19 2.169605 1_555
Mn1 O4 2.173911 1_555
Mn1 O22 2.193676 1_555
Mn1 O31 2.206256 1_565
Mn1 O24 2.239383 1_555
Mn1 O29 2.263913 1_555
Mn2 O32 2.182501 1_555
Mn2 O5 2.187100 1_545
Mn2 O36 2.190347 1_555
Mn2 O29 2.204940 1_555
Mn2 O21 2.244692 1_555
Mn2 O31 2.264558 1_555
Mn3 O16 2.182501 1_555
Mn3 O11 2.187100 1_555
Mn3 O30 2.190347 1_555
Mn3 O27 2.204940 1_545
Mn3 O20 2.244692 1_555
Mn3 O3 2.264558 1_655
Mn4 O15 2.169605 1_555
Mn4 O38 2.173911 1_555
Mn4 O13 2.193676 1_555
Mn4 O8 2.206256 1_545
Mn4 O9 2.239383 1_555
Mn4 O23 2.263913 1_555
Mn5 O2 2.182501 1_555
Mn5 O20 2.187100 1_565
Mn5 O35 2.190347 1_555
Mn5 O23 2.204940 1_555
Mn5 O11 2.244692 1_555
Mn5 O8 2.264558 1_555
Mn6 O24 2.169605 1_545
Mn6 O14 2.173911 1_555
Mn6 O39 2.193676 1_555
Mn6 O1 2.206256 1_555
Mn6 O19 2.239383 1_555
Mn6 O18 2.263913 1_655
Mn7 O9 2.169605 1_565
Mn7 O10 2.173911 1_555
Mn7 O12 2.193676 1_555
Mn7 O3 2.206256 1_555
Mn7 O15 2.239383 1_555
Mn7 O27 2.263913 1_455
B0 O14 1.366529 1_556
B0 O30 1.370916 1_555
B0 O17 1.432074 1_555
B1 O39 1.365635 1_555
B1 O16 1.369440 1_555
B1 O33 1.429267 1_555
B2 O12 1.365635 1_555
B2 O7 1.369440 1_555
B2 O37 1.429267 1_555
B3 O24 1.367403 1_555
B3 O1 1.374194 1_555
B3 O33 1.428473 1_555
B4 O13 1.365635 1_555
B4 O32 1.369440 1_555
B4 O28 1.429267 1_545
B5 O4 1.366529 1_556
B5 O35 1.370916 1_555
B5 O34 1.432074 1_565
B6 O18 1.374402 1_555
B6 O21 1.375387 1_555
B6 O6 1.418568 1_555
B7 O19 1.367403 1_555
B7 O31 1.374194 1_555
B7 O25 1.428473 1_555
B8 O29 1.374402 1_555
B8 O5 1.375387 1_555
B8 O26 1.418568 1_555
B9 O23 1.374402 1_555
B9 O20 1.375387 1_555
B9 O34 1.418568 1_555
B10 O22 1.365635 1_555
B10 O2 1.369440 1_555
B10 O25 1.429267 1_565
B11 O10 1.366529 1_554
B11 O0 1.370916 1_555
B11 O6 1.432074 1_555
B12 O15 1.367403 1_555
B12 O8 1.374194 1_555
B12 O28 1.428473 1_555
B13 O27 1.374402 1_555
B13 O11 1.375387 1_555
B13 O17 1.418568 1_555
B14 O38 1.366529 1_554
B14 O36 1.370916 1_555
B14 O26 1.432074 1_545
B15 O9 1.367403 1_555
B15 O3 1.374194 1_555
B15 O37 1.428473 1_555
