# generated using pymatgen
data_KH18OsN6(ClO2)4
_symmetry_space_group_name_H-M   'P 1'
_cell_length_a   10.13393477
_cell_length_b   10.13393477
_cell_length_c   10.13393431
_cell_angle_alpha   41.57010661
_cell_angle_beta   41.57010661
_cell_angle_gamma   41.57010254
_symmetry_Int_Tables_number   1
_chemical_formula_structural   KH18OsN6(ClO2)4
_chemical_formula_sum   'K1 H18 Os1 N6 Cl4 O8'
_cell_volume   414.12678366
_cell_formula_units_Z   1
loop_
 _symmetry_equiv_pos_site_id
 _symmetry_equiv_pos_as_xyz
  1  'x, y, z'
loop_
 _atom_site_type_symbol
 _atom_site_label
 _atom_site_symmetry_multiplicity
 _atom_site_fract_x
 _atom_site_fract_y
 _atom_site_fract_z
 _atom_site_occupancy
  K  K0  1  0.50000000  0.50000000  0.50000000  1
  H  H0  1  0.56117700  0.19200900  0.17962000  1
  H  H1  1  0.19200900  0.17962000  0.56117700  1
  H  H2  1  0.17962000  0.56117700  0.19200900  1
  H  H3  1  0.43882300  0.80799100  0.82038000  1
  H  H4  1  0.80799100  0.82038000  0.43882300  1
  H  H5  1  0.82038000  0.43882300  0.80799100  1
  H  H6  1  0.64056800  0.14269100  0.00078100  1
  H  H7  1  0.14269100  0.00078100  0.64056800  1
  H  H8  1  0.00078100  0.64056800  0.14269100  1
  H  H9  1  0.35943200  0.85730900  0.99921900  1
  H  H10  1  0.85730900  0.99921900  0.35943200  1
  H  H11  1  0.99921900  0.35943200  0.85730900  1
  H  H12  1  0.63945000  0.94468600  0.24362900  1
  H  H13  1  0.94468600  0.24362900  0.63945000  1
  H  H14  1  0.24362900  0.63945000  0.94468600  1
  H  H15  1  0.36055000  0.05531400  0.75637100  1
  H  H16  1  0.05531400  0.75637100  0.36055000  1
  H  H17  1  0.75637100  0.36055000  0.05531400  1
  Os  Os0  1  0.00000000  0.00000000  0.00000000  1
  N  N0  1  0.67537100  0.07915900  0.11606200  1
  N  N1  1  0.07915900  0.11606200  0.67537100  1
  N  N2  1  0.11606200  0.67537100  0.07915900  1
  N  N3  1  0.32462900  0.92084100  0.88393800  1
  N  N4  1  0.92084100  0.88393800  0.32462900  1
  N  N5  1  0.88393800  0.32462900  0.92084100  1
  Cl  Cl0  1  0.18501800  0.18501800  0.18501800  1
  Cl  Cl1  1  0.81498200  0.81498200  0.81498200  1
  Cl  Cl2  1  0.37591200  0.37591200  0.37591200  1
  Cl  Cl3  1  0.62408800  0.62408800  0.62408800  1
  O  O0  1  0.13248000  0.13248000  0.13248000  1
  O  O1  1  0.86752000  0.86752000  0.86752000  1
  O  O2  1  0.98175400  0.31992100  0.30732200  1
  O  O3  1  0.31992100  0.30732200  0.98175400  1
  O  O4  1  0.30732200  0.98175400  0.31992100  1
  O  O5  1  0.01824600  0.68007900  0.69267800  1
  O  O6  1  0.68007900  0.69267800  0.01824600  1
  O  O7  1  0.69267800  0.01824600  0.68007900  1
loop_
_geom_bond_atom_site_label_1
_geom_bond_atom_site_label_2
_geom_bond_distance
_geom_bond_site_symmetry_2
K0 O4 2.952055 1_555
K0 O7 2.952055 1_555
K0 O2 2.952055 1_555
K0 O5 2.952055 1_555
K0 O3 2.952055 1_555
K0 O6 2.952055 1_555
H0 N0 1.033703 1_555
H1 N1 1.033703 1_555
H2 N2 1.033703 1_555
H3 N3 1.033703 1_555
H4 N4 1.033703 1_555
H5 N5 1.033703 1_555
H6 N0 1.027146 1_555
H7 N1 1.027146 1_555
H8 N2 1.027146 1_555
H9 N3 1.027146 1_555
H10 N4 1.027146 1_555
H11 N5 1.027146 1_555
H12 N0 1.030976 1_565
H13 N1 1.030976 1_655
H14 N2 1.030976 1_556
H15 N3 1.030976 1_545
H16 N4 1.030976 1_455
H17 N5 1.030976 1_554
N0 Os0 2.126704 1_655
N1 Os0 2.126703 1_556
N2 Os0 2.126703 1_565
N3 Os0 2.126704 1_566
N4 Os0 2.126703 1_665
N5 Os0 2.126703 1_656
Cl0 O0 1.457000 1_555
Cl0 O2 1.466220 1_455
Cl0 O4 1.466220 1_545
Cl0 O3 1.466220 1_554
Cl1 O1 1.457000 1_555
Cl1 O5 1.466220 1_655
Cl1 O7 1.466220 1_565
Cl1 O6 1.466220 1_556
Cl2 K0 3.441248 1_555
Cl3 K0 3.441248 1_555
