# generated using pymatgen
data_K2CrH2Cl5O
_symmetry_space_group_name_H-M   'P 1'
_cell_length_a   7.46962900
_cell_length_b   9.38129300
_cell_length_c   13.97787400
_cell_angle_alpha   90.00000000
_cell_angle_beta   90.00000000
_cell_angle_gamma   90.00000000
_symmetry_Int_Tables_number   1
_chemical_formula_structural   K2CrH2Cl5O
_chemical_formula_sum   'K8 Cr4 H8 Cl20 O4'
_cell_volume   979.49642096
_cell_formula_units_Z   4
loop_
 _symmetry_equiv_pos_site_id
 _symmetry_equiv_pos_as_xyz
  1  'x, y, z'
loop_
 _atom_site_type_symbol
 _atom_site_label
 _atom_site_symmetry_multiplicity
 _atom_site_fract_x
 _atom_site_fract_y
 _atom_site_fract_z
 _atom_site_occupancy
  K  K0  1  0.63129300  0.00234700  0.34865900  1
  K  K1  1  0.13129300  0.99765300  0.15134100  1
  K  K2  1  0.36870700  0.50234700  0.65134100  1
  K  K3  1  0.86870700  0.49765300  0.84865900  1
  K  K4  1  0.36870700  0.99765300  0.65134100  1
  K  K5  1  0.86870700  0.00234700  0.84865900  1
  K  K6  1  0.63129300  0.49765300  0.34865900  1
  K  K7  1  0.13129300  0.50234700  0.15134100  1
  Cr  Cr0  1  0.19002300  0.75000000  0.39367100  1
  Cr  Cr1  1  0.69002300  0.25000000  0.10632900  1
  Cr  Cr2  1  0.80997700  0.25000000  0.60632900  1
  Cr  Cr3  1  0.30997700  0.75000000  0.89367100  1
  H  H0  1  0.96522200  0.83526900  0.53432300  1
  H  H1  1  0.46522200  0.16473100  0.96567700  1
  H  H2  1  0.03477800  0.33526900  0.46567700  1
  H  H3  1  0.53477800  0.66473100  0.03432300  1
  H  H4  1  0.03477800  0.16473100  0.46567700  1
  H  H5  1  0.53477800  0.83526900  0.03432300  1
  H  H6  1  0.96522200  0.66473100  0.53432300  1
  H  H7  1  0.46522200  0.33526900  0.96567700  1
  Cl  Cl0  1  0.19132800  0.00400600  0.39822600  1
  Cl  Cl1  1  0.69132800  0.99599400  0.10177400  1
  Cl  Cl2  1  0.80867200  0.50400600  0.60177400  1
  Cl  Cl3  1  0.30867200  0.49599400  0.89822600  1
  Cl  Cl4  1  0.80867200  0.99599400  0.60177400  1
  Cl  Cl5  1  0.30867200  0.00400600  0.89822600  1
  Cl  Cl6  1  0.19132800  0.49599400  0.39822600  1
  Cl  Cl7  1  0.69132800  0.50400600  0.10177400  1
  Cl  Cl8  1  0.92729600  0.75000000  0.29611100  1
  Cl  Cl9  1  0.42729600  0.25000000  0.20388900  1
  Cl  Cl10  1  0.07270400  0.25000000  0.70388900  1
  Cl  Cl11  1  0.57270400  0.75000000  0.79611100  1
  Cl  Cl12  1  0.37437800  0.75000000  0.25566600  1
  Cl  Cl13  1  0.87437800  0.25000000  0.24433400  1
  Cl  Cl14  1  0.62562200  0.25000000  0.74433400  1
  Cl  Cl15  1  0.12562200  0.75000000  0.75566600  1
  Cl  Cl16  1  0.45393000  0.75000000  0.49250600  1
  Cl  Cl17  1  0.95393000  0.25000000  0.00749400  1
  Cl  Cl18  1  0.54607000  0.25000000  0.50749400  1
  Cl  Cl19  1  0.04607000  0.75000000  0.99250600  1
  O  O0  1  0.03540400  0.75000000  0.51568100  1
  O  O1  1  0.53540400  0.25000000  0.98431900  1
  O  O2  1  0.96459600  0.25000000  0.48431900  1
  O  O3  1  0.46459600  0.75000000  0.01568100  1
loop_
_geom_bond_atom_site_label_1
_geom_bond_atom_site_label_2
_geom_bond_distance
_geom_bond_site_symmetry_2
Cr0 O0 2.059716 1_555
Cr1 O1 2.059716 1_554
Cr2 O2 2.059716 1_555
Cr3 O3 2.059716 1_556
H0 O0 0.991269 1_655
H1 O1 0.991269 1_555
H2 O2 0.991269 1_455
H3 O3 0.991269 1_555
H4 O2 0.991269 1_455
H5 O3 0.991269 1_555
H6 O0 0.991269 1_655
H7 O1 0.991269 1_555
Cl0 Cr0 2.383775 1_545
Cl0 K0 3.358651 1_555
Cl0 K1 3.480453 1_545
Cl1 Cr1 2.383775 1_565
Cl1 K1 3.358651 1_655
Cl1 K0 3.480453 1_565
Cl2 Cr2 2.383775 1_555
Cl2 K2 3.358651 1_555
Cl2 K3 3.480453 1_555
Cl3 Cr3 2.383775 1_555
Cl3 K3 3.358651 1_455
Cl3 K2 3.480453 1_555
Cl4 Cr2 2.383775 1_565
Cl4 K4 3.358651 1_555
Cl4 K5 3.480453 1_565
Cl5 Cr3 2.383775 1_545
Cl5 K5 3.358651 1_455
Cl5 K4 3.480453 1_545
Cl6 Cr0 2.383775 1_555
Cl6 K6 3.358651 1_555
Cl6 K7 3.480453 1_555
Cl7 Cr1 2.383775 1_555
Cl7 K7 3.358651 1_655
Cl7 K6 3.480453 1_555
Cl8 Cr0 2.389755 1_655
Cl8 K6 3.321517 1_555
Cl8 K0 3.321517 1_565
Cl8 K1 3.437226 1_655
Cl8 K7 3.437226 1_655
Cl9 Cr1 2.389755 1_555
Cl9 K7 3.321517 1_555
Cl9 K1 3.321517 1_545
Cl9 K6 3.437226 1_555
Cl9 K0 3.437226 1_555
Cl10 Cr2 2.389755 1_455
Cl10 K4 3.321517 1_545
Cl10 K2 3.321517 1_555
Cl10 K3 3.437226 1_455
Cl10 K5 3.437226 1_455
Cl11 Cr3 2.389755 1_555
Cl11 K3 3.321517 1_555
Cl11 K5 3.321517 1_565
Cl11 K2 3.437226 1_555
Cl11 K4 3.437226 1_555
Cl12 Cr0 2.370107 1_555
Cl12 K1 3.289557 1_555
Cl12 K7 3.289557 1_555
Cl12 K6 3.313109 1_555
Cl12 K0 3.313109 1_565
Cl13 Cr1 2.370107 1_555
Cl13 K6 3.289557 1_555
Cl13 K0 3.289557 1_555
Cl13 K7 3.313109 1_655
Cl13 K1 3.313109 1_645
Cl14 Cr2 2.370107 1_555
Cl14 K5 3.289557 1_555
Cl14 K3 3.289557 1_555
Cl14 K2 3.313109 1_555
Cl14 K4 3.313109 1_545
Cl15 Cr3 2.370107 1_555
Cl15 K4 3.289557 1_555
Cl15 K2 3.289557 1_555
Cl15 K3 3.313109 1_455
Cl15 K5 3.313109 1_465
Cl16 Cr0 2.407182 1_555
Cl16 K4 3.275999 1_555
Cl16 K2 3.275999 1_555
Cl16 K6 3.376731 1_555
Cl16 K0 3.376731 1_565
Cl17 Cr1 2.407182 1_555
Cl17 K5 3.275999 1_554
Cl17 K3 3.275999 1_554
Cl17 K7 3.376731 1_655
Cl17 K1 3.376731 1_645
Cl18 Cr2 2.407182 1_555
Cl18 K6 3.275999 1_555
Cl18 K0 3.275999 1_555
Cl18 K2 3.376731 1_555
Cl18 K4 3.376731 1_545
Cl19 Cr3 2.407182 1_555
Cl19 K7 3.275999 1_556
Cl19 K1 3.275999 1_556
Cl19 K3 3.376731 1_455
Cl19 K5 3.376731 1_465
