# generated using pymatgen
data_TlFeO3
_symmetry_space_group_name_H-M   'P 1'
_cell_length_a   5.40263203
_cell_length_b   5.54573300
_cell_length_c   7.92921104
_cell_angle_alpha   90.00021176
_cell_angle_beta   90.01210026
_cell_angle_gamma   89.99902657
_symmetry_Int_Tables_number   1
_chemical_formula_structural   TlFeO3
_chemical_formula_sum   'Tl4 Fe4 O12'
_cell_volume   237.57148540
_cell_formula_units_Z   4
loop_
 _symmetry_equiv_pos_site_id
 _symmetry_equiv_pos_as_xyz
  1  'x, y, z'
loop_
 _atom_site_type_symbol
 _atom_site_label
 _atom_site_symmetry_multiplicity
 _atom_site_fract_x
 _atom_site_fract_y
 _atom_site_fract_z
 _atom_site_occupancy
  Tl  Tl0  1  0.98236100  0.04984200  0.25000800  1
  Tl  Tl1  1  0.48236800  0.45015000  0.74997400  1
  Tl  Tl2  1  0.51762700  0.54985300  0.25002600  1
  Tl  Tl3  1  0.01763900  0.95015900  0.74999300  1
  Fe  Fe0  1  0.99999900  0.49999600  0.99999800  1
  Fe  Fe1  1  0.50001000  0.99998800  0.50000400  1
  Fe  Fe2  1  0.50000300  0.00000600  0.99999800  1
  Fe  Fe3  1  0.00000200  0.49999800  0.49999500  1
  O  O0  1  0.11212400  0.44689000  0.24994000  1
  O  O1  1  0.61212000  0.05310200  0.74992000  1
  O  O2  1  0.38787800  0.94689800  0.25008100  1
  O  O3  1  0.88787200  0.55311200  0.75006000  1
  O  O4  1  0.69734900  0.29979300  0.06058700  1
  O  O5  1  0.19728600  0.20019700  0.93939800  1
  O  O6  1  0.80266200  0.79979200  0.43941300  1
  O  O7  1  0.30271800  0.70019000  0.56061100  1
  O  O8  1  0.30264900  0.70021000  0.93941400  1
  O  O9  1  0.80271300  0.79980400  0.06060300  1
  O  O10  1  0.19733700  0.20020700  0.56058800  1
  O  O11  1  0.69728100  0.29981200  0.43939000  1
loop_
_geom_bond_atom_site_label_1
_geom_bond_atom_site_label_2
_geom_bond_distance
_geom_bond_site_symmetry_2
Fe0 O5 2.032578 1_655
Fe0 O9 2.032625 1_556
Fe0 O4 2.034080 1_556
Fe0 O8 2.034104 1_655
Fe0 O3 2.093038 1_555
Fe0 O0 2.093057 1_656
Fe1 O7 2.032633 1_555
Fe1 O11 2.032705 1_565
Fe1 O6 2.034039 1_555
Fe1 O10 2.034187 1_565
Fe1 O1 2.092845 1_565
Fe1 O2 2.092913 1_555
Fe2 O4 2.032593 1_556
Fe2 O8 2.032647 1_545
Fe2 O5 2.034162 1_555
Fe2 O9 2.034174 1_546
Fe2 O1 2.094303 1_555
Fe2 O2 2.094362 1_546
Fe3 O10 2.032561 1_555
Fe3 O6 2.032568 1_455
Fe3 O11 2.034202 1_455
Fe3 O7 2.034219 1_555
Fe3 O0 2.094142 1_555
Fe3 O3 2.094235 1_455
O0 Tl2 2.263984 1_555
O0 Tl0 2.310844 1_455
O1 Tl3 2.264020 1_645
O1 Tl1 2.310804 1_555
O2 Tl0 2.264011 1_465
O2 Tl2 2.310783 1_555
O3 Tl1 2.263987 1_555
O3 Tl3 2.310846 1_655
O4 Tl2 2.263354 1_555
O4 Tl0 2.558773 1_555
O5 Tl3 2.262674 1_545
O5 Tl1 2.559431 1_555
O6 Tl0 2.263115 1_565
O6 Tl2 2.558676 1_555
O7 Tl1 2.262454 1_555
O7 Tl3 2.559239 1_555
O8 Tl1 2.263352 1_555
O8 Tl3 2.558761 1_555
O9 Tl0 2.262677 1_565
O9 Tl2 2.559433 1_555
O10 Tl3 2.263106 1_545
O10 Tl1 2.558671 1_555
O11 Tl2 2.262472 1_555
O11 Tl0 2.559246 1_555
