# generated using pymatgen
data_Rb2AgSbS4
_symmetry_space_group_name_H-M   'P 1'
_cell_length_a   10.99247300
_cell_length_b   8.38154300
_cell_length_c   13.37265562
_cell_angle_alpha   52.66880327
_cell_angle_beta   90.00000000
_cell_angle_gamma   90.00000000
_symmetry_Int_Tables_number   1
_chemical_formula_structural   Rb2AgSbS4
_chemical_formula_sum   'Rb8 Ag4 Sb4 S16'
_cell_volume   979.67609251
_cell_formula_units_Z   4
loop_
 _symmetry_equiv_pos_site_id
 _symmetry_equiv_pos_as_xyz
  1  'x, y, z'
loop_
 _atom_site_type_symbol
 _atom_site_label
 _atom_site_symmetry_multiplicity
 _atom_site_fract_x
 _atom_site_fract_y
 _atom_site_fract_z
 _atom_site_occupancy
  Rb  Rb0  1  0.99199900  0.11250500  0.26259200  1
  Rb  Rb1  1  0.72882800  0.62987300  0.01059500  1
  Rb  Rb2  1  0.77117200  0.62987300  0.51059500  1
  Rb  Rb3  1  0.50800100  0.11250500  0.76259200  1
  Rb  Rb4  1  0.22882800  0.37012700  0.48940500  1
  Rb  Rb5  1  0.27117200  0.37012700  0.98940500  1
  Rb  Rb6  1  0.00800100  0.88749500  0.73740800  1
  Rb  Rb7  1  0.49199900  0.88749500  0.23740800  1
  Ag  Ag0  1  0.03237000  0.34949700  0.77982300  1
  Ag  Ag1  1  0.96763000  0.65050300  0.22017700  1
  Ag  Ag2  1  0.46763000  0.34949700  0.27982300  1
  Ag  Ag3  1  0.53237000  0.65050300  0.72017700  1
  Sb  Sb0  1  0.72397800  0.18421800  0.45982100  1
  Sb  Sb1  1  0.27602200  0.81578200  0.54017900  1
  Sb  Sb2  1  0.77602200  0.18421800  0.95982100  1
  Sb  Sb3  1  0.22397800  0.81578200  0.04017900  1
  S  S0  1  0.72479400  0.85997700  0.65656400  1
  S  S1  1  0.92213600  0.32066200  0.43769100  1
  S  S2  1  0.57786400  0.32066200  0.93769100  1
  S  S3  1  0.43154100  0.61066500  0.55096300  1
  S  S4  1  0.27520600  0.14002300  0.34343600  1
  S  S5  1  0.56845900  0.38933500  0.44903700  1
  S  S6  1  0.68332300  0.16765300  0.29240400  1
  S  S7  1  0.42213600  0.67933800  0.06230900  1
  S  S8  1  0.06845900  0.61066500  0.05096300  1
  S  S9  1  0.77520600  0.85997700  0.15656400  1
  S  S10  1  0.22479400  0.14002300  0.84343600  1
  S  S11  1  0.18332300  0.83234700  0.20759600  1
  S  S12  1  0.07786400  0.67933800  0.56230900  1
  S  S13  1  0.81667700  0.16765300  0.79240400  1
  S  S14  1  0.31667700  0.83234700  0.70759600  1
  S  S15  1  0.93154100  0.38933500  0.94903700  1
loop_
_geom_bond_atom_site_label_1
_geom_bond_atom_site_label_2
_geom_bond_distance
_geom_bond_site_symmetry_2
Rb0 S4 3.349039 1_655
Rb0 S15 3.406950 1_554
Rb0 S8 3.437680 1_655
Rb0 S6 3.479841 1_555
Rb0 S12 3.533788 1_645
Rb0 S11 3.545750 1_645
Rb0 S1 3.751162 1_555
Rb1 S15 3.423520 1_554
Rb1 S6 3.428360 1_555
Rb1 S9 3.515072 1_555
Rb1 S7 3.516185 1_555
Rb1 S2 3.672258 1_554
Rb1 S13 3.716443 1_564
Rb1 S8 3.761660 1_655
Rb1 S0 3.880890 1_554
Rb2 S5 3.423520 1_555
Rb2 S13 3.428360 1_555
Rb2 S0 3.515072 1_555
Rb2 S12 3.516185 1_655
Rb2 S1 3.672258 1_555
Rb2 S6 3.716443 1_565
Rb2 S3 3.761660 1_555
Rb2 S9 3.880890 1_555
Rb3 S10 3.349039 1_555
Rb3 S5 3.406950 1_555
Rb3 S3 3.437680 1_555
Rb3 S13 3.479841 1_555
Rb3 S7 3.533788 1_546
Rb3 S14 3.545750 1_545
Rb3 S2 3.751162 1_555
Rb4 S3 3.423520 1_555
Rb4 S11 3.428360 1_555
Rb4 S4 3.515072 1_555
Rb4 S1 3.516185 1_455
Rb4 S12 3.672258 1_555
Rb4 S14 3.716443 1_545
Rb4 S5 3.761660 1_555
Rb4 S10 3.880890 1_555
Rb5 S8 3.423520 1_556
Rb5 S14 3.428360 1_555
Rb5 S10 3.515072 1_555
Rb5 S2 3.516185 1_555
Rb5 S7 3.672258 1_556
Rb5 S11 3.716443 1_546
Rb5 S15 3.761660 1_455
Rb5 S4 3.880890 1_556
Rb6 S0 3.349039 1_455
Rb6 S8 3.406950 1_556
Rb6 S15 3.437680 1_455
Rb6 S14 3.479841 1_555
Rb6 S1 3.533788 1_465
Rb6 S13 3.545750 1_465
Rb6 S12 3.751162 1_555
Rb7 S9 3.349039 1_555
Rb7 S3 3.406950 1_555
Rb7 S5 3.437680 1_555
Rb7 S11 3.479841 1_555
Rb7 S2 3.533788 1_564
Rb7 S6 3.545750 1_565
Rb7 S7 3.751162 1_555
Ag0 S10 2.543401 1_555
Ag0 S12 2.569192 1_555
Ag0 S15 2.716025 1_455
Ag0 S13 2.768018 1_455
Ag1 S9 2.543401 1_555
Ag1 S1 2.569192 1_555
Ag1 S8 2.716025 1_655
Ag1 S11 2.768018 1_655
Ag2 S4 2.543401 1_555
Ag2 S7 2.569192 1_555
Ag2 S5 2.716025 1_555
Ag2 S6 2.768018 1_555
Ag3 S0 2.543401 1_555
Ag3 S2 2.569192 1_555
Ag3 S3 2.716025 1_555
Ag3 S14 2.768018 1_555
S0 Sb0 2.373984 1_565
S1 Sb0 2.393682 1_555
S2 Sb2 2.393682 1_555
S3 Sb1 2.366064 1_555
S4 Sb1 2.373984 1_545
S5 Sb0 2.366064 1_555
S6 Sb0 2.368177 1_555
S7 Sb3 2.393682 1_555
S8 Sb3 2.366064 1_555
S9 Sb2 2.373984 1_564
S10 Sb3 2.373984 1_546
S11 Sb3 2.368177 1_555
S12 Sb1 2.393682 1_555
S13 Sb2 2.368177 1_555
S14 Sb1 2.368177 1_555
S15 Sb2 2.366064 1_555
