# generated using pymatgen
data_ZnS
_symmetry_space_group_name_H-M   'P 1'
_cell_length_a   3.81038924
_cell_length_b   3.81038905
_cell_length_c   87.13030274
_cell_angle_alpha   90.00000000
_cell_angle_beta   90.00000000
_cell_angle_gamma   120.00001048
_symmetry_Int_Tables_number   1
_chemical_formula_structural   ZnS
_chemical_formula_sum   'Zn28 S28'
_cell_volume   1095.56581333
_cell_formula_units_Z   28
loop_
 _symmetry_equiv_pos_site_id
 _symmetry_equiv_pos_as_xyz
  1  'x, y, z'
loop_
 _atom_site_type_symbol
 _atom_site_label
 _atom_site_symmetry_multiplicity
 _atom_site_fract_x
 _atom_site_fract_y
 _atom_site_fract_z
 _atom_site_occupancy
  Zn  Zn0  1  0.66666700  0.33333300  0.07143950  1
  Zn  Zn1  1  0.00000000  -0.00000000  0.92854178  1
  Zn  Zn2  1  -0.00000000  -0.00000000  0.32139231  1
  Zn  Zn3  1  -0.00000000  -0.00000000  0.21432839  1
  Zn  Zn4  1  0.33333300  0.66666700  0.14287895  1
  Zn  Zn5  1  0.33333300  0.66666700  0.35711066  1
  Zn  Zn6  1  0.66666700  0.33333300  0.39286960  1
  Zn  Zn7  1  0.33333300  0.66666700  0.46431244  1
  Zn  Zn8  1  -0.00000000  -0.00000000  0.64286699  1
  Zn  Zn9  1  0.33333300  0.66666700  0.57144674  1
  Zn  Zn10  1  0.33333300  0.66666700  0.78575423  1
  Zn  Zn11  1  0.00000000  -0.00000000  0.53575191  1
  Zn  Zn12  1  0.66666700  0.33333300  0.96429872  1
  Zn  Zn13  1  0.33333300  0.66666700  0.89285757  1
  Zn  Zn14  1  0.66666700  0.33333300  0.28571786  1
  Zn  Zn15  1  0.66666700  0.33333300  0.60714168  1
  Zn  Zn16  1  0.33333300  0.66666700  0.67855086  1
  Zn  Zn17  1  0.66666700  0.33333300  0.71432811  1
  Zn  Zn18  1  0.66666700  0.33333300  0.82141607  1
  Zn  Zn19  1  0.00000000  -0.00000000  0.10715377  1
  Zn  Zn20  1  0.33333300  0.66666700  0.03573583  1
  Zn  Zn21  1  0.66666700  0.33333300  0.17855462  1
  Zn  Zn22  1  -0.00000000  0.00000000  -0.00002525  1
  Zn  Zn23  1  0.66666700  0.33333300  0.49998672  1
  Zn  Zn24  1  -0.00000000  0.00000000  0.85713906  1
  Zn  Zn25  1  0.00000000  0.00000000  0.42854855  1
  Zn  Zn26  1  0.33333300  0.66666700  0.24997955  1
  Zn  Zn27  1  0.00000000  -0.00000000  0.74999499  1
  S  S0  1  0.66666700  0.33333300  0.20536533  1
  S  S1  1  0.00000000  -0.00000000  0.34817272  1
  S  S2  1  0.33333300  0.66666700  0.81251412  1
  S  S3  1  0.33333300  0.66666700  0.70536543  1
  S  S4  1  0.00000000  0.00000000  0.45534229  1
  S  S5  1  0.66666700  0.33333300  0.63393109  1
  S  S6  1  0.00000000  -0.00000000  0.02677328  1
  S  S7  1  0.66666700  0.33333300  0.84820039  1
  S  S8  1  0.66666700  0.33333300  0.41963274  1
  S  S9  1  0.66666700  0.33333300  0.52677535  1
  S  S10  1  0.66666700  0.33333300  0.09823422  1
  S  S11  1  0.00000000  -0.00000000  0.13393765  1
  S  S12  1  0.66666700  0.33333300  0.31249335  1
  S  S13  1  0.33333300  0.66666700  0.16965013  1
  S  S14  1  0.00000000  -0.00000000  0.66965210  1
  S  S15  1  0.00000000  -0.00000000  0.77680084  1
  S  S16  1  0.33333300  0.66666700  0.59821320  1
  S  S17  1  0.00000000  -0.00000000  0.88389708  1
  S  S18  1  -0.00000000  -0.00000000  0.24110774  1
  S  S19  1  0.00000000  -0.00000000  0.95531290  1
  S  S20  1  0.66666700  0.33333300  0.99108371  1
  S  S21  1  0.33333300  0.66666700  0.91965184  1
  S  S22  1  0.66666700  0.33333300  0.74109588  1
  S  S23  1  0.33333300  0.66666700  0.38391276  1
  S  S24  1  0.33333300  0.66666700  0.27677973  1
  S  S25  1  0.33333300  0.66666700  0.06250985  1
  S  S26  1  0.33333300  0.66666700  0.49105769  1
  S  S27  1  0.00000000  -0.00000000  0.56251937  1
loop_
_geom_bond_atom_site_label_1
_geom_bond_atom_site_label_2
_geom_bond_distance
_geom_bond_site_symmetry_2
S0 Zn3 2.334431 1_655
S0 Zn3 2.334434 1_665
S0 Zn3 2.334434 1_555
S0 Zn21 2.336025 1_555
S1 Zn2 2.333385 1_555
S1 Zn5 2.333700 1_545
S1 Zn5 2.333703 1_555
S1 Zn5 2.333703 1_445
S2 Zn10 2.331597 1_555
S2 Zn18 2.332655 1_565
S2 Zn18 2.332655 1_455
S2 Zn18 2.332661 1_555
S3 Zn17 2.334420 1_565
S3 Zn17 2.334420 1_455
S3 Zn17 2.334426 1_555
S3 Zn16 2.336362 1_555
S4 Zn25 2.334547 1_555
S4 Zn7 2.334638 1_545
S4 Zn7 2.334641 1_555
S4 Zn7 2.334641 1_445
S5 Zn8 2.333641 1_655
S5 Zn8 2.333643 1_665
S5 Zn8 2.333643 1_555
S5 Zn15 2.334169 1_555
S6 Zn20 2.334416 1_545
S6 Zn20 2.334419 1_555
S6 Zn20 2.334419 1_445
S6 Zn22 2.334964 1_555
S7 Zn24 2.333721 1_655
S7 Zn24 2.333724 1_665
S7 Zn24 2.333724 1_555
S7 Zn18 2.333726 1_555
S8 Zn6 2.331880 1_555
S8 Zn25 2.333057 1_655
S8 Zn25 2.333060 1_665
S8 Zn25 2.333060 1_555
S9 Zn23 2.334101 1_555
S9 Zn11 2.334825 1_655
S9 Zn11 2.334828 1_665
S9 Zn11 2.334828 1_555
S10 Zn19 2.333166 1_655
S10 Zn19 2.333168 1_665
S10 Zn19 2.333168 1_555
S10 Zn0 2.334632 1_555
S11 Zn19 2.333688 1_555
S11 Zn4 2.333798 1_545
S11 Zn4 2.333800 1_555
S11 Zn4 2.333800 1_445
S12 Zn2 2.332569 1_655
S12 Zn2 2.332571 1_665
S12 Zn2 2.332571 1_555
S12 Zn14 2.332957 1_555
S13 Zn4 2.332581 1_555
S13 Zn21 2.332728 1_565
S13 Zn21 2.332729 1_455
S13 Zn21 2.332735 1_555
S14 Zn16 2.332563 1_545
S14 Zn16 2.332566 1_555
S14 Zn16 2.332566 1_445
S14 Zn8 2.333795 1_555
S15 Zn10 2.334149 1_545
S15 Zn10 2.334152 1_555
S15 Zn10 2.334152 1_445
S15 Zn27 2.335602 1_555
S16 Zn9 2.332170 1_555
S16 Zn15 2.333425 1_565
S16 Zn15 2.333425 1_455
S16 Zn15 2.333431 1_555
S17 Zn24 2.331434 1_555
S17 Zn13 2.334356 1_545
S17 Zn13 2.334359 1_555
S17 Zn13 2.334359 1_445
S18 Zn26 2.331783 1_545
S18 Zn26 2.331786 1_555
S18 Zn26 2.331786 1_445
S18 Zn3 2.333293 1_555
S19 Zn1 2.332576 1_555
S19 Zn12 2.335095 1_455
S19 Zn12 2.335098 1_445
S19 Zn12 2.335098 1_555
S20 Zn22 2.332339 1_656
S20 Zn22 2.332342 1_666
S20 Zn22 2.332342 1_556
S20 Zn12 2.333784 1_555
S21 Zn1 2.332308 1_565
S21 Zn1 2.332310 1_555
S21 Zn1 2.332310 1_665
S21 Zn13 2.334593 1_555
S22 Zn17 2.332284 1_555
S22 Zn27 2.332573 1_655
S22 Zn27 2.332576 1_665
S22 Zn27 2.332576 1_555
S23 Zn6 2.334249 1_565
S23 Zn6 2.334250 1_455
S23 Zn6 2.334256 1_555
S23 Zn5 2.335275 1_555
S24 Zn14 2.333705 1_565
S24 Zn14 2.333705 1_455
S24 Zn14 2.333712 1_555
S24 Zn26 2.335108 1_555
S25 Zn20 2.332828 1_555
S25 Zn0 2.333459 1_565
S25 Zn0 2.333459 1_455
S25 Zn0 2.333465 1_555
S26 Zn7 2.330322 1_555
S26 Zn23 2.333440 1_565
S26 Zn23 2.333441 1_455
S26 Zn23 2.333447 1_555
S27 Zn11 2.332257 1_555
S27 Zn9 2.333393 1_545
S27 Zn9 2.333395 1_555
S27 Zn9 2.333395 1_445
