# generated using pymatgen
data_KAgCO3
_symmetry_space_group_name_H-M   'P 1'
_cell_length_a   11.19519102
_cell_length_b   11.19519102
_cell_length_c   11.19519102
_cell_angle_alpha   149.67648900
_cell_angle_beta   148.54306643
_cell_angle_gamma   44.25663703
_symmetry_Int_Tables_number   1
_chemical_formula_structural   KAgCO3
_chemical_formula_sum   'K4 Ag4 C4 O12'
_cell_volume   368.61070487
_cell_formula_units_Z   4
loop_
 _symmetry_equiv_pos_site_id
 _symmetry_equiv_pos_as_xyz
  1  'x, y, z'
loop_
 _atom_site_type_symbol
 _atom_site_label
 _atom_site_symmetry_multiplicity
 _atom_site_fract_x
 _atom_site_fract_y
 _atom_site_fract_z
 _atom_site_occupancy
  K  K0  1  0.43009000  0.18009000  0.25000000  1
  K  K1  1  0.06991000  0.31991000  0.75000000  1
  K  K2  1  0.56991000  0.81991000  0.75000000  1
  K  K3  1  0.93009000  0.68009000  0.25000000  1
  Ag  Ag0  1  0.36535300  0.25000000  0.61535300  1
  Ag  Ag1  1  0.13464700  0.75000000  0.88464700  1
  Ag  Ag2  1  0.63464700  0.75000000  0.38464700  1
  Ag  Ag3  1  0.86535300  0.25000000  0.11535300  1
  C  C0  1  0.12274800  0.87274800  0.25000000  1
  C  C1  1  0.37725200  0.62725200  0.75000000  1
  C  C2  1  0.87725200  0.12725200  0.75000000  1
  C  C3  1  0.62274800  0.37274800  0.25000000  1
  O  O0  1  0.06075200  0.81075200  0.25000000  1
  O  O1  1  0.43924800  0.68924800  0.75000000  1
  O  O2  1  0.93924800  0.18924800  0.75000000  1
  O  O3  1  0.56075200  0.31075200  0.25000000  1
  O  O4  1  0.28657600  0.04200100  0.52300300  1
  O  O5  1  0.21342400  0.73642800  0.75542500  1
  O  O6  1  0.48100200  0.45799900  0.74457500  1
  O  O7  1  0.01899800  0.76357200  0.97699700  1
  O  O8  1  0.71342400  0.95799900  0.47699700  1
  O  O9  1  0.78657600  0.26357200  0.24457500  1
  O  O10  1  0.51899800  0.54200100  0.25542500  1
  O  O11  1  0.98100200  0.23642800  0.02300300  1
loop_
_geom_bond_atom_site_label_1
_geom_bond_atom_site_label_2
_geom_bond_distance
_geom_bond_site_symmetry_2
K0 O3 2.710082 1_555
K0 O5 2.842202 1_544
K0 O6 2.842210 1_555
K0 O11 2.925752 1_455
K0 O8 2.925755 1_545
K0 O1 2.934201 1_544
K0 O1 2.934201 1_555
K0 O2 3.040717 1_555
K0 O2 3.040717 1_454
K1 O2 2.710082 1_455
K1 O7 2.842201 1_555
K1 O4 2.842210 1_555
K1 O9 2.925747 1_455
K1 O10 2.925755 1_556
K1 O0 2.934201 1_556
K1 O0 2.934201 1_545
K1 O3 3.040717 1_455
K1 O3 3.040717 1_556
K2 O1 2.710082 1_555
K2 O9 2.842202 1_566
K2 O10 2.842210 1_555
K2 O7 2.925752 1_655
K2 O4 2.925755 1_565
K2 O3 2.934201 1_555
K2 O3 2.934201 1_566
K2 O0 3.040717 1_555
K2 O0 3.040717 1_656
K3 O0 2.710082 1_655
K3 O11 2.842201 1_555
K3 O8 2.842210 1_555
K3 O5 2.925747 1_655
K3 O6 2.925755 1_554
K3 O2 2.934201 1_554
K3 O2 2.934201 1_565
K3 O1 3.040717 1_655
K3 O1 3.040717 1_554
Ag0 O6 2.121070 1_555
Ag0 O4 2.121070 1_555
Ag1 O7 2.121079 1_555
Ag1 O5 2.121079 1_555
Ag2 O8 2.121070 1_555
Ag2 O10 2.121070 1_555
Ag3 O11 2.121079 1_555
Ag3 O9 2.121079 1_555
C0 O0 1.285869 1_555
C0 O7 1.308515 1_554
C0 O4 1.308520 1_565
C1 O1 1.285869 1_555
C1 O5 1.308519 1_555
C1 O6 1.308520 1_555
C2 O2 1.285869 1_555
C2 O11 1.308515 1_556
C2 O8 1.308520 1_545
C3 O3 1.285869 1_555
C3 O9 1.308519 1_555
C3 O10 1.308520 1_555
