# generated using pymatgen
data_La2(MoO4)3
_symmetry_space_group_name_H-M   'P 1'
_cell_length_a   10.54018162
_cell_length_b   10.54018162
_cell_length_c   16.32239264
_cell_angle_alpha   75.06633722
_cell_angle_beta   75.06633722
_cell_angle_gamma   70.20029517
_symmetry_Int_Tables_number   1
_chemical_formula_structural   La2(MoO4)3
_chemical_formula_sum   'La12 Mo18 O72'
_cell_volume   1619.29722289
_cell_formula_units_Z   6
loop_
 _symmetry_equiv_pos_site_id
 _symmetry_equiv_pos_as_xyz
  1  'x, y, z'
loop_
 _atom_site_type_symbol
 _atom_site_label
 _atom_site_symmetry_multiplicity
 _atom_site_fract_x
 _atom_site_fract_y
 _atom_site_fract_z
 _atom_site_occupancy
  La  La0  1  0.36887200  0.61760800  0.58886800  1
  La  La1  1  0.63112800  0.38239200  0.41113200  1
  La  La2  1  0.03649800  0.29517700  0.69744400  1
  La  La3  1  0.38239200  0.63112800  0.91113200  1
  La  La4  1  0.70482300  0.96350200  0.80255600  1
  La  La5  1  0.96350200  0.70482300  0.30255600  1
  La  La6  1  0.95564700  0.71334300  0.97658600  1
  La  La7  1  0.28665700  0.04435300  0.52341400  1
  La  La8  1  0.04435300  0.28665700  0.02341400  1
  La  La9  1  0.29517700  0.03649800  0.19744400  1
  La  La10  1  0.61760800  0.36887200  0.08886800  1
  La  La11  1  0.71334300  0.95564700  0.47658600  1
  Mo  Mo0  1  0.87760100  0.13625300  0.57876500  1
  Mo  Mo1  1  0.54721300  0.79518100  0.36310200  1
  Mo  Mo2  1  0.46691600  0.20002400  0.30952300  1
  Mo  Mo3  1  0.79518100  0.54721300  0.86310200  1
  Mo  Mo4  1  0.54857800  0.77626700  0.03370200  1
  Mo  Mo5  1  0.79997600  0.53308400  0.19047700  1
  Mo  Mo6  1  0.20002400  0.46691600  0.80952300  1
  Mo  Mo7  1  0.13625300  0.87760100  0.07876500  1
  Mo  Mo8  1  0.12239900  0.86374700  0.42123500  1
  Mo  Mo9  1  0.45142200  0.22373300  0.96629800  1
  Mo  Mo10  1  0.45278700  0.20481900  0.63689800  1
  Mo  Mo11  1  0.77626700  0.54857800  0.53370200  1
  Mo  Mo12  1  0.87527500  0.12472500  0.25000000  1
  Mo  Mo13  1  0.12472500  0.87527500  0.75000000  1
  Mo  Mo14  1  0.20481900  0.45278700  0.13689800  1
  Mo  Mo15  1  0.22373300  0.45142200  0.46629800  1
  Mo  Mo16  1  0.86374700  0.12239900  0.92123500  1
  Mo  Mo17  1  0.53308400  0.79997600  0.69047700  1
  O  O0  1  0.46797800  0.35724700  0.33248100  1
  O  O1  1  0.81634400  0.42389200  0.96444400  1
  O  O2  1  0.10794300  0.46317500  0.56664600  1
  O  O3  1  0.57990600  0.15355700  0.88094300  1
  O  O4  1  0.80799000  0.70966300  0.87553300  1
  O  O5  1  0.75168400  0.71760300  0.55154300  1
  O  O6  1  0.84781000  0.24850100  0.14784800  1
  O  O7  1  0.15088100  0.76065500  0.17838900  1
  O  O8  1  0.53115400  0.61650400  0.01650700  1
  O  O9  1  0.53682400  0.89205700  0.93335400  1
  O  O10  1  0.18389900  0.72586000  0.50496200  1
  O  O11  1  0.80191700  0.68563700  0.21845000  1
  O  O12  1  0.53202200  0.64275300  0.66751900  1
  O  O13  1  0.98321000  0.87266700  0.05194200  1
  O  O14  1  0.95681300  0.85971400  0.40415400  1
  O  O15  1  0.38349600  0.46884600  0.48349300  1
  O  O16  1  0.62966200  0.56988300  0.84400000  1
  O  O17  1  0.82289600  0.40120200  0.28454700  1
  O  O18  1  0.81610100  0.27414000  0.49503800  1
  O  O19  1  0.75149900  0.15219000  0.35215200  1
  O  O20  1  0.59879800  0.17710400  0.21545300  1
  O  O21  1  0.46884600  0.38349600  0.98349300  1
  O  O22  1  0.18365600  0.57610800  0.03555600  1
  O  O23  1  0.27414000  0.81610100  0.99503800  1
  O  O24  1  0.61650400  0.53115400  0.51650700  1
  O  O25  1  0.14028600  0.04318700  0.09584600  1
  O  O26  1  0.29033600  0.19201000  0.62446700  1
  O  O27  1  0.28239700  0.24831600  0.94845700  1
  O  O28  1  0.92218100  0.48793000  0.77489800  1
  O  O29  1  0.19201000  0.29033600  0.12446700  1
  O  O30  1  0.76065500  0.15088100  0.67838900  1
  O  O31  1  0.04318700  0.14028600  0.59584600  1
  O  O32  1  0.46317500  0.10794300  0.06664600  1
  O  O33  1  0.89205700  0.53682500  0.43335400  1
  O  O34  1  0.72586000  0.18389900  0.00496200  1
  O  O35  1  0.03952900  0.11142000  0.26582400  1
  O  O36  1  0.93554000  0.49939500  0.09375600  1
  O  O37  1  0.96047100  0.88858000  0.73417600  1
  O  O38  1  0.70966400  0.80799000  0.37553300  1
  O  O39  1  0.87266700  0.98321000  0.55194200  1
  O  O40  1  0.24831600  0.28239700  0.44845700  1
  O  O41  1  0.64275300  0.53202200  0.16751900  1
  O  O42  1  0.84644300  0.42009400  0.61905700  1
  O  O43  1  0.88858000  0.96047100  0.23417600  1
  O  O44  1  0.07781900  0.51207000  0.22510200  1
  O  O45  1  0.11142000  0.03952900  0.76582400  1
  O  O46  1  0.48793000  0.92218100  0.27489800  1
  O  O47  1  0.12733300  0.01679000  0.44805800  1
  O  O48  1  0.68563700  0.80191700  0.71845000  1
  O  O49  1  0.35724800  0.46797800  0.83248100  1
  O  O50  1  0.17710400  0.59879800  0.71545300  1
  O  O51  1  0.31436300  0.19808300  0.28155000  1
  O  O52  1  0.71760300  0.75168400  0.05154300  1
  O  O53  1  0.57610800  0.18365600  0.53555600  1
  O  O54  1  0.51207000  0.07781900  0.72510200  1
  O  O55  1  0.42389200  0.81634400  0.46444400  1
  O  O56  1  0.01679000  0.12733300  0.94805800  1
  O  O57  1  0.56988300  0.62966200  0.34400000  1
  O  O58  1  0.85971400  0.95681300  0.90415400  1
  O  O59  1  0.15355700  0.57990600  0.38094300  1
  O  O60  1  0.40120200  0.82289600  0.78454700  1
  O  O61  1  0.50060500  0.06446000  0.40624400  1
  O  O62  1  0.06446000  0.50060500  0.90624400  1
  O  O63  1  0.43011700  0.37033800  0.65600000  1
  O  O64  1  0.42009400  0.84644300  0.11905700  1
  O  O65  1  0.37033800  0.43011700  0.15600000  1
  O  O66  1  0.49939500  0.93554000  0.59375600  1
  O  O67  1  0.84911900  0.23934500  0.82161100  1
  O  O68  1  0.19808300  0.31436300  0.78155000  1
  O  O69  1  0.24850100  0.84781000  0.64784800  1
  O  O70  1  0.23934500  0.84911900  0.32161100  1
  O  O71  1  0.15219000  0.75149900  0.85215200  1
loop_
_geom_bond_atom_site_label_1
_geom_bond_atom_site_label_2
_geom_bond_distance
_geom_bond_site_symmetry_2
La0 O10 2.458131 1_555
La0 O63 2.482522 1_555
La0 O12 2.509457 1_555
La0 O50 2.510337 1_555
La0 O24 2.528332 1_555
La0 O15 2.555429 1_555
La0 O55 2.621456 1_555
La0 O69 2.629184 1_555
La1 O18 2.458131 1_555
La1 O57 2.482522 1_555
La1 O0 2.509457 1_555
La1 O17 2.510337 1_555
La1 O15 2.528332 1_555
La1 O24 2.555429 1_555
La1 O53 2.621456 1_555
La1 O19 2.629184 1_555
La2 O42 2.459546 1_455
La2 O28 2.461300 1_455
La2 O2 2.527219 1_555
La2 O68 2.531331 1_555
La2 O67 2.542469 1_455
La2 O45 2.567631 1_555
La2 O31 2.584076 1_555
La2 O26 2.610295 1_555
La3 O23 2.458131 1_555
La3 O16 2.482522 1_555
La3 O49 2.509452 1_555
La3 O60 2.510337 1_555
La3 O21 2.528332 1_555
La3 O8 2.555429 1_556
La3 O22 2.621456 1_556
La3 O71 2.629184 1_555
La4 O3 2.459546 1_565
La4 O54 2.461300 1_565
La4 O9 2.527226 1_555
La4 O48 2.531331 1_555
La4 O30 2.542469 1_565
La4 O37 2.567631 1_555
La4 O58 2.584076 1_555
La4 O4 2.610303 1_555
La5 O59 2.459546 1_655
La5 O44 2.461300 1_655
La5 O33 2.527219 1_555
La5 O11 2.531331 1_555
La5 O7 2.542469 1_655
La5 O43 2.567631 1_555
La5 O14 2.584076 1_555
La5 O38 2.610295 1_555
La6 O52 2.437457 1_556
La6 O13 2.448796 1_556
La6 O58 2.510014 1_555
La6 O4 2.557580 1_555
La6 O71 2.559946 1_655
La6 O62 2.562714 1_655
La6 O36 2.584544 1_556
La6 O22 2.629451 1_656
La7 O40 2.437457 1_555
La7 O47 2.448796 1_555
La7 O31 2.510014 1_555
La7 O26 2.557576 1_555
La7 O69 2.559946 1_545
La7 O66 2.562714 1_545
La7 O61 2.584544 1_555
La7 O55 2.629451 1_545
La8 O27 2.437457 1_554
La8 O56 2.448796 1_554
La8 O25 2.510014 1_555
La8 O29 2.557576 1_555
La8 O6 2.559946 1_455
La8 O36 2.562714 1_455
La8 O62 2.584544 1_554
La8 O1 2.629451 1_454
La9 O64 2.459546 1_545
La9 O46 2.461300 1_545
La9 O32 2.527219 1_555
La9 O51 2.531331 1_555
La9 O70 2.542469 1_545
La9 O35 2.567631 1_555
La9 O25 2.584076 1_555
La9 O29 2.610295 1_555
La10 O34 2.458131 1_555
La10 O65 2.482522 1_555
La10 O41 2.509457 1_555
La10 O20 2.510337 1_555
La10 O8 2.528332 1_555
La10 O21 2.555429 1_554
La10 O1 2.621456 1_554
La10 O6 2.629184 1_555
La11 O5 2.437457 1_555
La11 O39 2.448796 1_555
La11 O14 2.510014 1_555
La11 O38 2.557576 1_555
La11 O19 2.559946 1_565
La11 O61 2.562714 1_565
La11 O66 2.584544 1_555
La11 O53 2.629451 1_565
Mo0 O30 1.776166 1_555
Mo0 O18 1.787387 1_555
Mo0 O39 1.796955 1_545
Mo0 O31 1.852780 1_655
Mo1 O57 1.776930 1_555
Mo1 O46 1.777291 1_555
Mo1 O38 1.827850 1_555
Mo1 O55 1.833324 1_555
Mo2 O51 1.788809 1_555
Mo2 O20 1.792164 1_555
Mo2 O0 1.794856 1_555
Mo2 O61 1.855443 1_555
Mo3 O16 1.776930 1_555
Mo3 O28 1.777291 1_555
Mo3 O4 1.827839 1_555
Mo3 O1 1.833324 1_555
Mo4 O9 1.777495 1_554
Mo4 O64 1.789462 1_555
Mo4 O52 1.800457 1_555
Mo4 O8 1.851429 1_555
Mo5 O11 1.788809 1_555
Mo5 O17 1.792164 1_555
Mo5 O41 1.794856 1_555
Mo5 O36 1.855443 1_555
Mo6 O68 1.788809 1_555
Mo6 O50 1.792164 1_555
Mo6 O49 1.794867 1_555
Mo6 O62 1.855443 1_555
Mo7 O7 1.776166 1_555
Mo7 O23 1.787387 1_554
Mo7 O13 1.796955 1_455
Mo7 O25 1.852780 1_565
Mo8 O70 1.776166 1_555
Mo8 O10 1.787387 1_555
Mo8 O47 1.796955 1_565
Mo8 O14 1.852780 1_455
Mo9 O32 1.777494 1_556
Mo9 O3 1.789462 1_555
Mo9 O27 1.800457 1_555
Mo9 O21 1.851429 1_555
Mo10 O63 1.776930 1_555
Mo10 O54 1.777291 1_555
Mo10 O26 1.827850 1_555
Mo10 O53 1.833324 1_555
Mo11 O33 1.777494 1_555
Mo11 O42 1.789462 1_555
Mo11 O5 1.800457 1_555
Mo11 O24 1.851429 1_555
Mo12 O43 1.769458 1_545
Mo12 O35 1.769458 1_655
Mo12 O19 1.854109 1_555
Mo12 O6 1.854109 1_555
Mo13 O37 1.769458 1_455
Mo13 O45 1.769458 1_565
Mo13 O71 1.854109 1_555
Mo13 O69 1.854109 1_555
Mo14 O65 1.776930 1_555
Mo14 O44 1.777291 1_555
Mo14 O29 1.827850 1_555
Mo14 O22 1.833324 1_555
Mo15 O2 1.777494 1_555
Mo15 O59 1.789462 1_555
Mo15 O40 1.800457 1_555
Mo15 O15 1.851429 1_555
Mo16 O67 1.776166 1_555
Mo16 O34 1.787387 1_556
Mo16 O56 1.796955 1_655
Mo16 O58 1.852780 1_545
Mo17 O48 1.788809 1_555
Mo17 O60 1.792164 1_555
Mo17 O12 1.794856 1_555
Mo17 O66 1.855443 1_555
