# generated using pymatgen
data_Ce6Y26O51
_symmetry_space_group_name_H-M   'P 1'
_cell_length_a   9.32005500
_cell_length_b   9.36940930
_cell_length_c   15.26306121
_cell_angle_alpha   90.09530159
_cell_angle_beta   90.05564010
_cell_angle_gamma   109.58734205
_symmetry_Int_Tables_number   1
_chemical_formula_structural   Ce6Y26O51
_chemical_formula_sum   'Ce6 Y26 O51'
_cell_volume   1255.69077111
_cell_formula_units_Z   1
loop_
 _symmetry_equiv_pos_site_id
 _symmetry_equiv_pos_as_xyz
  1  'x, y, z'
loop_
 _atom_site_type_symbol
 _atom_site_label
 _atom_site_symmetry_multiplicity
 _atom_site_fract_x
 _atom_site_fract_y
 _atom_site_fract_z
 _atom_site_occupancy
  Ce  Ce0  1  0.37903100  0.65589900  0.62789300  1
  Ce  Ce1  1  0.89995000  0.13960600  0.61278000  1
  Ce  Ce2  1  0.08804900  0.84231500  0.87420200  1
  Ce  Ce3  1  0.63817200  0.36581900  0.61076000  1
  Ce  Ce4  1  0.59711000  0.34656600  0.37271200  1
  Ce  Ce5  1  0.14129000  0.86277100  0.11124400  1
  Y  Y0  1  0.73759700  0.74727600  0.75449300  1
  Y  Y1  1  0.85928700  0.14651000  0.88906100  1
  Y  Y2  1  0.52787600  0.99795500  0.49850200  1
  Y  Y3  1  0.35850900  0.64137300  0.38685300  1
  Y  Y4  1  0.59905000  0.34385900  0.87672700  1
  Y  Y5  1  0.73098400  0.77072200  0.98481100  1
  Y  Y6  1  0.48413300  0.01656800  0.73579600  1
  Y  Y7  1  0.38174500  0.58876200  0.87295900  1
  Y  Y8  1  0.90381800  0.15852400  0.12768900  1
  Y  Y9  1  0.02649800  0.49399600  0.99842600  1
  Y  Y10  1  0.24597600  0.24788400  0.25196100  1
  Y  Y11  1  0.24496400  0.24070200  0.74934700  1
  Y  Y12  1  0.23440400  0.26204200  0.48250400  1
  Y  Y13  1  0.98497800  0.51264000  0.23678700  1
  Y  Y14  1  0.09270800  0.84226100  0.37428700  1
  Y  Y15  1  0.10980100  0.86609900  0.64069300  1
  Y  Y16  1  0.88503800  0.09738400  0.36944700  1
  Y  Y17  1  0.02648900  0.49047200  0.75641700  1
  Y  Y18  1  0.76645800  0.76123000  0.51472900  1
  Y  Y19  1  0.74398300  0.75167100  0.24567200  1
  Y  Y20  1  0.01712100  0.51894900  0.51211800  1
  Y  Y21  1  0.61203000  0.39185900  0.13968400  1
  Y  Y22  1  0.39839000  0.64329300  0.11225300  1
  Y  Y23  1  0.51500100  0.97968600  0.26409900  1
  Y  Y24  1  0.26984000  0.26186800  0.01713500  1
  Y  Y25  1  0.50473400  0.00740000  0.00014200  1
  O  O0  1  0.85894800  0.39259400  0.88017100  1
  O  O1  1  0.50695300  0.78574500  0.75388600  1
  O  O2  1  0.60455000  0.09775500  0.86559800  1
  O  O3  1  0.63575400  0.59691000  0.87410200  1
  O  O4  1  0.62541300  0.59652700  0.63640900  1
  O  O5  1  0.50636300  0.27739500  0.73220100  1
  O  O6  1  0.36394200  0.89836400  0.61099700  1
  O  O7  1  0.35704400  0.89215700  0.37932300  1
  O  O8  1  0.47366100  0.23661800  0.50203600  1
  O  O9  1  0.13682500  0.63539400  0.63692300  1
  O  O10  1  0.24701100  0.98422800  0.98055500  1
  O  O11  1  0.01801800  0.28748400  0.25692400  1
  O  O12  1  0.10507200  0.59830800  0.36790800  1
  O  O13  1  0.23714200  0.99111600  0.76946500  1
  O  O14  1  0.48865600  0.76720400  0.98036000  1
  O  O15  1  0.34766200  0.32597800  0.87903400  1
  O  O16  1  0.13738600  0.09605100  0.37152500  1
  O  O17  1  0.15375500  0.13958400  0.61037400  1
  O  O18  1  0.01754000  0.77068500  0.50923700  1
  O  O19  1  0.27427900  0.48611300  0.73796300  1
  O  O20  1  0.12597800  0.09431800  0.13641500  1
  O  O21  1  0.00492100  0.77884000  0.23083400  1
  O  O22  1  0.26332800  0.50312300  0.51590900  1
  O  O23  1  0.85204100  0.37749700  0.11520900  1
  O  O24  1  0.97065000  0.73657100  0.00422400  1
  O  O25  1  0.15526900  0.63983000  0.87431600  1
  O  O26  1  0.02328700  0.24622000  0.99562100  1
  O  O27  1  0.74884600  0.48832800  0.48123600  1
  O  O28  1  0.99534000  0.22253900  0.76132900  1
  O  O29  1  0.87063400  0.90744500  0.86670500  1
  O  O30  1  0.73985000  0.50063200  0.26979700  1
  O  O31  1  0.99264500  0.26970800  0.48342900  1
  O  O32  1  0.84168600  0.83626000  0.37462700  1
  O  O33  1  0.86768700  0.89512200  0.64437200  1
  O  O34  1  0.77459800  0.00309700  0.50079700  1
  O  O35  1  0.65541300  0.64182000  0.10996600  1
  O  O36  1  0.52856800  0.26086300  0.01639300  1
  O  O37  1  0.87760400  0.39163400  0.63437800  1
  O  O38  1  0.75911000  0.99852400  0.23085800  1
  O  O39  1  0.96407300  0.71049100  0.75832500  1
  O  O40  1  0.74781700  0.01307500  0.02368500  1
  O  O41  1  0.51804700  0.74997300  0.49641300  1
  O  O42  1  0.65577800  0.14002300  0.37587600  1
  O  O43  1  0.64984100  0.12207500  0.62802800  1
  O  O44  1  0.49354800  0.72148500  0.26256500  1
  O  O45  1  0.37898300  0.40257000  0.36315500  1
  O  O46  1  0.36784500  0.39799000  0.14409000  1
  O  O47  1  0.26910400  0.49936300  0.99950300  1
  O  O48  1  0.39325300  0.90862400  0.13365100  1
  O  O49  1  0.48580100  0.21245600  0.24605800  1
  O  O50  1  0.14696600  0.62323500  0.12896600  1
loop_
_geom_bond_atom_site_label_1
_geom_bond_atom_site_label_2
_geom_bond_distance
_geom_bond_site_symmetry_2
Ce0 O9 2.204893 1_555
Ce0 O22 2.255344 1_555
Ce0 O19 2.297161 1_555
Ce0 O6 2.337356 1_555
Ce0 O1 2.369564 1_555
Ce0 O41 2.393326 1_555
Ce0 O4 2.540755 1_555
Ce1 O34 2.215651 1_555
Ce1 O33 2.261024 1_545
Ce1 O43 2.293317 1_555
Ce1 O31 2.331379 1_555
Ce1 O17 2.365866 1_655
Ce1 O37 2.460755 1_555
Ce1 O28 2.462097 1_555
Ce2 O25 2.188300 1_555
Ce2 O39 2.240663 1_455
Ce2 O13 2.267806 1_555
Ce2 O10 2.294614 1_555
Ce2 O29 2.306577 1_455
Ce2 O24 2.324024 1_456
Ce3 O37 2.191891 1_555
Ce3 O5 2.226732 1_555
Ce3 O4 2.238197 1_555
Ce3 O8 2.305208 1_555
Ce3 O43 2.337782 1_555
Ce3 O27 2.346791 1_555
Ce4 O42 2.180821 1_555
Ce4 O30 2.246099 1_555
Ce4 O45 2.268135 1_555
Ce4 O27 2.288344 1_555
Ce4 O8 2.344710 1_555
Ce4 O49 2.346505 1_555
Ce5 O21 2.214647 1_555
Ce5 O20 2.253760 1_565
Ce5 O48 2.266629 1_555
Ce5 O50 2.279143 1_555
Ce5 O24 2.307219 1_455
Ce5 O10 2.346128 1_554
O0 Y4 2.310131 1_555
O0 Y1 2.310935 1_555
O0 Y9 2.364957 1_655
O0 Y17 2.428668 1_655
O1 Y6 2.260289 1_565
O1 Y0 2.295713 1_555
O1 Y7 2.577265 1_555
O2 Y6 2.276291 1_555
O2 Y1 2.290024 1_555
O2 Y25 2.297967 1_556
O2 Y4 2.329460 1_555
O3 Y4 2.279586 1_555
O3 Y5 2.305192 1_555
O3 Y0 2.309525 1_555
O3 Y7 2.342936 1_555
O4 Y0 2.309596 1_555
O4 Y18 2.492545 1_555
O5 Y11 2.358383 1_555
O5 Y4 2.372995 1_555
O5 Y6 2.383078 1_555
O6 Y2 2.282054 1_555
O6 Y6 2.294934 1_565
O6 Y15 2.330145 1_555
O7 Y23 2.265633 1_555
O7 Y14 2.349724 1_555
O7 Y3 2.357304 1_555
O7 Y2 2.399304 1_555
O8 Y12 2.339468 1_555
O8 Y2 2.452699 1_545
O9 Y15 2.259153 1_555
O9 Y20 2.288342 1_555
O9 Y17 2.302883 1_555
O10 Y25 2.356866 1_566
O10 Y24 2.597636 1_566
O11 Y13 2.253251 1_455
O11 Y10 2.277278 1_555
O11 Y8 2.368406 1_455
O11 Y16 2.488434 1_455
O12 Y3 2.277048 1_555
O12 Y13 2.300049 1_455
O12 Y14 2.328743 1_555
O12 Y20 2.381146 1_555
O13 Y6 2.292304 1_565
O13 Y11 2.335849 1_565
O13 Y15 2.387324 1_555
O14 Y25 2.224834 1_566
O14 Y5 2.248633 1_555
O14 Y7 2.312147 1_555
O14 Y22 2.337594 1_556
O15 Y11 2.225068 1_555
O15 Y24 2.246097 1_556
O15 Y4 2.292536 1_555
O15 Y7 2.376555 1_555
O16 Y12 2.269575 1_555
O16 Y14 2.272858 1_545
O16 Y10 2.329211 1_555
O16 Y16 2.356297 1_455
O17 Y12 2.263307 1_555
O17 Y11 2.359944 1_555
O17 Y15 2.499666 1_545
O18 Y14 2.208053 1_555
O18 Y15 2.244900 1_555
O18 Y18 2.313513 1_455
O18 Y20 2.357795 1_555
O19 Y11 2.229817 1_555
O19 Y17 2.340699 1_555
O19 Y7 2.348862 1_555
O20 Y10 2.310853 1_555
O20 Y8 2.345561 1_455
O20 Y24 2.485888 1_555
O21 Y14 2.341534 1_555
O21 Y19 2.369954 1_455
O21 Y13 2.439976 1_455
O22 Y12 2.241067 1_555
O22 Y20 2.349195 1_555
O22 Y3 2.363537 1_555
O23 Y8 2.267895 1_555
O23 Y21 2.316188 1_555
O23 Y13 2.348970 1_555
O23 Y9 2.415465 1_654
O24 Y5 2.378622 1_554
O24 Y9 2.497381 1_654
O25 Y7 2.315584 1_555
O25 Y17 2.344856 1_555
O25 Y9 2.410237 1_555
O26 Y1 2.210662 1_455
O26 Y24 2.276422 1_556
O26 Y9 2.311978 1_555
O26 Y8 2.318331 1_456
O27 Y20 2.464237 1_655
O27 Y18 2.557391 1_555
O28 Y11 2.282657 1_655
O28 Y1 2.306507 1_555
O28 Y17 2.429795 1_655
O29 Y1 2.302414 1_565
O29 Y0 2.337204 1_555
O29 Y5 2.340712 1_555
O30 Y13 2.305649 1_555
O30 Y21 2.361428 1_555
O30 Y19 2.368870 1_555
O31 Y12 2.278348 1_655
O31 Y20 2.310056 1_655
O31 Y16 2.353900 1_555
O32 Y19 2.199719 1_555
O32 Y18 2.288210 1_555
O32 Y14 2.321305 1_655
O32 Y16 2.343749 1_565
O33 Y0 2.258214 1_555
O33 Y18 2.360903 1_555
O33 Y15 2.362324 1_655
O34 Y18 2.252282 1_545
O34 Y2 2.283996 1_545
O34 Y16 2.293327 1_555
O35 Y5 2.245817 1_554
O35 Y21 2.285412 1_555
O35 Y19 2.334720 1_555
O35 Y22 2.400418 1_555
O36 Y21 2.236513 1_555
O36 Y4 2.290464 1_554
O36 Y25 2.322665 1_555
O36 Y24 2.414570 1_555
O37 Y17 2.319553 1_655
O37 Y20 2.359670 1_655
O38 Y23 2.279910 1_555
O38 Y8 2.280843 1_565
O38 Y19 2.281123 1_555
O38 Y16 2.443288 1_565
O39 Y0 2.250588 1_555
O39 Y17 2.322216 1_655
O39 Y15 2.424794 1_655
O40 Y8 2.269540 1_555
O40 Y25 2.276454 1_555
O40 Y5 2.299836 1_544
O40 Y1 2.450770 1_554
O41 Y3 2.240010 1_555
O41 Y2 2.294525 1_555
O41 Y18 2.298775 1_555
O42 Y16 2.303781 1_555
O42 Y23 2.356793 1_545
O42 Y2 2.375838 1_545
O43 Y6 2.248267 1_555
O43 Y2 2.377936 1_545
O44 Y3 2.263194 1_555
O44 Y19 2.270054 1_555
O44 Y23 2.359766 1_555
O44 Y22 2.478213 1_555
O45 Y10 2.302321 1_555
O45 Y3 2.336043 1_555
O45 Y12 2.385548 1_555
O46 Y10 2.217910 1_555
O46 Y22 2.272630 1_555
O46 Y21 2.296760 1_555
O46 Y24 2.328722 1_555
O47 Y7 2.225747 1_555
O47 Y24 2.244138 1_556
O47 Y9 2.244787 1_555
O47 Y22 2.265118 1_556
O48 Y23 2.275900 1_555
O48 Y25 2.335413 1_565
O48 Y22 2.523145 1_555
O49 Y23 2.303496 1_545
O49 Y21 2.352112 1_555
O49 Y10 2.368986 1_555
O50 Y13 2.241178 1_455
O50 Y22 2.301615 1_555
O50 Y9 2.402656 1_554
