# generated using pymatgen
data_Hg3TeO6
_symmetry_space_group_name_H-M   'P 1'
_cell_length_a   11.90954671
_cell_length_b   11.90954671
_cell_length_c   11.90954671
_cell_angle_alpha   109.47122063
_cell_angle_beta   109.47122063
_cell_angle_gamma   109.47122063
_symmetry_Int_Tables_number   1
_chemical_formula_structural   Hg3TeO6
_chemical_formula_sum   'Hg24 Te8 O48'
_cell_volume   1300.36061049
_cell_formula_units_Z   8
loop_
 _symmetry_equiv_pos_site_id
 _symmetry_equiv_pos_as_xyz
  1  'x, y, z'
loop_
 _atom_site_type_symbol
 _atom_site_label
 _atom_site_symmetry_multiplicity
 _atom_site_fract_x
 _atom_site_fract_y
 _atom_site_fract_z
 _atom_site_occupancy
  Hg  Hg0  1  0.68735700  0.59367900  0.34367900  1
  Hg  Hg1  1  0.18735700  0.84367900  0.09367900  1
  Hg  Hg2  1  0.25000000  0.65632100  0.84367900  1
  Hg  Hg3  1  0.09367900  0.40632100  0.25000000  1
  Hg  Hg4  1  0.59367900  0.34367900  0.68735700  1
  Hg  Hg5  1  0.65632100  0.31264300  0.40632100  1
  Hg  Hg6  1  0.15632100  0.90632100  0.81264300  1
  Hg  Hg7  1  0.90632100  0.81264300  0.15632100  1
  Hg  Hg8  1  0.81264300  0.15632100  0.90632100  1
  Hg  Hg9  1  0.75000000  0.34367900  0.15632100  1
  Hg  Hg10  1  0.84367900  0.09367900  0.18735700  1
  Hg  Hg11  1  0.31264300  0.40632100  0.65632100  1
  Hg  Hg12  1  0.90632100  0.59367900  0.75000000  1
  Hg  Hg13  1  0.75000000  0.90632100  0.59367900  1
  Hg  Hg14  1  0.25000000  0.09367900  0.40632100  1
  Hg  Hg15  1  0.59367900  0.75000000  0.90632100  1
  Hg  Hg16  1  0.40632100  0.25000000  0.09367900  1
  Hg  Hg17  1  0.40632100  0.65632100  0.31264300  1
  Hg  Hg18  1  0.34367900  0.15632100  0.75000000  1
  Hg  Hg19  1  0.84367900  0.25000000  0.65632100  1
  Hg  Hg20  1  0.65632100  0.84367900  0.25000000  1
  Hg  Hg21  1  0.34367900  0.68735700  0.59367900  1
  Hg  Hg22  1  0.15632100  0.75000000  0.34367900  1
  Hg  Hg23  1  0.09367900  0.18735700  0.84367900  1
  Te  Te0  1  0.00000000  0.50000000  0.50000000  1
  Te  Te1  1  0.00000000  0.00000000  0.00000000  1
  Te  Te2  1  0.50000000  0.00000000  0.50000000  1
  Te  Te3  1  0.50000000  0.00000000  0.00000000  1
  Te  Te4  1  0.00000000  0.50000000  0.00000000  1
  Te  Te5  1  0.00000000  0.00000000  0.50000000  1
  Te  Te6  1  0.50000000  0.50000000  0.00000000  1
  Te  Te7  1  0.50000000  0.50000000  0.50000000  1
  O  O0  1  0.64178800  0.65064700  0.50498300  1
  O  O1  1  0.85433600  0.50498300  0.36319500  1
  O  O2  1  0.00498300  0.35433600  0.86319500  1
  O  O3  1  0.49114200  0.13680500  0.64178800  1
  O  O4  1  0.65064700  0.50498300  0.64178800  1
  O  O5  1  0.00498300  0.15064700  0.14178800  1
  O  O6  1  0.50498300  0.64178800  0.65064700  1
  O  O7  1  0.65064700  0.64566400  0.00885800  1
  O  O8  1  0.15064700  0.50885800  0.14566400  1
  O  O9  1  0.99114200  0.34935300  0.35433600  1
  O  O10  1  0.86319500  0.00498300  0.35433600  1
  O  O11  1  0.50885800  0.14566400  0.15064700  1
  O  O12  1  0.64566400  0.13680500  0.99501700  1
  O  O13  1  0.13680500  0.64178800  0.49114200  1
  O  O14  1  0.85821200  0.36319500  0.00885800  1
  O  O15  1  0.99501700  0.64566400  0.13680500  1
  O  O16  1  0.86319500  0.35821200  0.50885800  1
  O  O17  1  0.35821200  0.34935300  0.49501700  1
  O  O18  1  0.63680500  0.14566400  0.49501700  1
  O  O19  1  0.00885800  0.85821200  0.36319500  1
  O  O20  1  0.50885800  0.86319500  0.35821200  1
  O  O21  1  0.35433600  0.86319500  0.00498300  1
  O  O22  1  0.13680500  0.99501700  0.64566400  1
  O  O23  1  0.14566400  0.49501700  0.63680500  1
  O  O24  1  0.36319500  0.00885800  0.85821200  1
  O  O25  1  0.64566400  0.00885800  0.65064700  1
  O  O26  1  0.84935300  0.85821200  0.99501700  1
  O  O27  1  0.34935300  0.49501700  0.35821200  1
  O  O28  1  0.36319500  0.85433600  0.50498300  1
  O  O29  1  0.34935300  0.35433600  0.99114200  1
  O  O30  1  0.50498300  0.36319500  0.85433600  1
  O  O31  1  0.49501700  0.63680500  0.14566400  1
  O  O32  1  0.14178800  0.00498300  0.15064700  1
  O  O33  1  0.63680500  0.99114200  0.14178800  1
  O  O34  1  0.99501700  0.84935300  0.85821200  1
  O  O35  1  0.64178800  0.49114200  0.13680500  1
  O  O36  1  0.15064700  0.14178800  0.00498300  1
  O  O37  1  0.35821200  0.50885800  0.86319500  1
  O  O38  1  0.85821200  0.99501700  0.84935300  1
  O  O39  1  0.49114200  0.85433600  0.84935300  1
  O  O40  1  0.49501700  0.35821200  0.34935300  1
  O  O41  1  0.14566400  0.15064700  0.50885800  1
  O  O42  1  0.00885800  0.65064700  0.64566400  1
  O  O43  1  0.99114200  0.14178800  0.63680500  1
  O  O44  1  0.35433600  0.99114200  0.34935300  1
  O  O45  1  0.14178800  0.63680500  0.99114200  1
  O  O46  1  0.84935300  0.49114200  0.85433600  1
  O  O47  1  0.85433600  0.84935300  0.49114200  1
loop_
_geom_bond_atom_site_label_1
_geom_bond_atom_site_label_2
_geom_bond_distance
_geom_bond_site_symmetry_2
Hg0 O0 2.125302 1_555
Hg0 O35 2.125313 1_555
Hg0 O47 2.525964 1_555
Hg0 O1 2.525973 1_555
Hg1 O32 2.125302 1_565
Hg1 O45 2.125313 1_554
Hg1 O44 2.525964 1_555
Hg1 O21 2.525973 1_555
Hg2 O23 2.125310 1_555
Hg2 O21 2.125310 1_556
Hg2 O37 2.525973 1_555
Hg2 O45 2.525973 1_555
Hg3 O9 2.125302 1_455
Hg3 O8 2.125302 1_555
Hg3 O5 2.525962 1_555
Hg3 O27 2.525962 1_555
Hg4 O4 2.125302 1_555
Hg4 O3 2.125313 1_555
Hg4 O46 2.525964 1_555
Hg4 O30 2.525973 1_555
Hg5 O40 2.125302 1_555
Hg5 O16 2.125313 1_555
Hg5 O11 2.525964 1_555
Hg5 O18 2.525973 1_555
Hg6 O34 2.125302 1_455
Hg6 O24 2.125313 1_565
Hg6 O42 2.525964 1_555
Hg6 O22 2.525973 1_555
Hg7 O26 2.125302 1_554
Hg7 O19 2.125313 1_655
Hg7 O7 2.525964 1_555
Hg7 O15 2.525973 1_555
Hg8 O38 2.125302 1_545
Hg8 O14 2.125313 1_556
Hg8 O25 2.525964 1_555
Hg8 O12 2.525973 1_555
Hg9 O1 2.125310 1_555
Hg9 O12 2.125310 1_554
Hg9 O14 2.525973 1_555
Hg9 O35 2.525973 1_555
Hg10 O5 2.125302 1_655
Hg10 O33 2.125313 1_545
Hg10 O9 2.525964 1_555
Hg10 O10 2.525973 1_555
Hg11 O17 2.125302 1_555
Hg11 O37 2.125313 1_555
Hg11 O41 2.525964 1_555
Hg11 O23 2.525973 1_555
Hg12 O46 2.125302 1_555
Hg12 O42 2.125302 1_655
Hg12 O34 2.525962 1_555
Hg12 O4 2.525962 1_555
Hg13 O25 2.125302 1_565
Hg13 O47 2.125302 1_555
Hg13 O0 2.525962 1_555
Hg13 O38 2.525962 1_555
Hg14 O44 2.125302 1_545
Hg14 O41 2.125302 1_555
Hg14 O32 2.525962 1_555
Hg14 O17 2.525962 1_555
Hg15 O39 2.125302 1_555
Hg15 O7 2.125302 1_556
Hg15 O26 2.525962 1_555
Hg15 O6 2.525962 1_555
Hg16 O29 2.125302 1_554
Hg16 O11 2.125302 1_555
Hg16 O36 2.525962 1_555
Hg16 O40 2.525962 1_555
Hg17 O27 2.125302 1_555
Hg17 O20 2.125313 1_555
Hg17 O8 2.525964 1_555
Hg17 O31 2.525973 1_555
Hg18 O22 2.125310 1_545
Hg18 O30 2.125310 1_555
Hg18 O24 2.525973 1_555
Hg18 O3 2.525973 1_555
Hg19 O2 2.125310 1_655
Hg19 O18 2.125310 1_555
Hg19 O16 2.525973 1_555
Hg19 O43 2.525973 1_555
Hg20 O10 2.125310 1_565
Hg20 O31 2.125310 1_555
Hg20 O20 2.525973 1_555
Hg20 O33 2.525973 1_555
Hg21 O6 2.125302 1_555
Hg21 O13 2.125313 1_555
Hg21 O39 2.525964 1_555
Hg21 O28 2.525973 1_555
Hg22 O15 2.125310 1_455
Hg22 O28 2.125310 1_555
Hg22 O13 2.525973 1_555
Hg22 O19 2.525973 1_555
Hg23 O36 2.125302 1_556
Hg23 O43 2.125313 1_455
Hg23 O29 2.525964 1_555
Hg23 O2 2.525973 1_555
O0 Te7 1.978984 1_555
O1 Te0 1.978984 1_655
O2 Te4 1.978984 1_556
O3 Te2 1.978977 1_555
O4 Te7 1.978984 1_555
O5 Te1 1.978984 1_555
O6 Te7 1.978984 1_555
O7 Te6 1.978990 1_555
O8 Te4 1.978990 1_555
O9 Te0 1.978990 1_655
O10 Te5 1.978984 1_655
O11 Te3 1.978990 1_555
O12 Te3 1.978984 1_556
O13 Te0 1.978977 1_555
O14 Te4 1.978977 1_655
O15 Te4 1.978984 1_655
O16 Te0 1.978977 1_655
O17 Te7 1.978984 1_555
O18 Te2 1.978984 1_555
O19 Te5 1.978977 1_565
O20 Te2 1.978977 1_565
O21 Te3 1.978984 1_565
O22 Te5 1.978984 1_565
O23 Te0 1.978984 1_555
O24 Te3 1.978977 1_556
O25 Te2 1.978990 1_555
O26 Te1 1.978984 1_666
O27 Te7 1.978984 1_555
O28 Te2 1.978984 1_565
O29 Te6 1.978990 1_556
O30 Te6 1.978984 1_556
O31 Te6 1.978984 1_555
O32 Te1 1.978984 1_555
O33 Te3 1.978977 1_565
O34 Te1 1.978984 1_666
O35 Te6 1.978977 1_555
O36 Te1 1.978984 1_555
O37 Te6 1.978977 1_556
O38 Te1 1.978984 1_666
O39 Te3 1.978990 1_566
O40 Te7 1.978984 1_555
O41 Te5 1.978990 1_555
O42 Te0 1.978990 1_555
O43 Te5 1.978977 1_655
O44 Te2 1.978990 1_565
O45 Te4 1.978977 1_556
O46 Te4 1.978990 1_656
O47 Te5 1.978990 1_665
