# generated using pymatgen
data_Fe2PClO4
_symmetry_space_group_name_H-M   'P 1'
_cell_length_a   8.34918997
_cell_length_b   8.44661607
_cell_length_c   8.34487698
_cell_angle_alpha   111.39966747
_cell_angle_beta   111.41830627
_cell_angle_gamma   105.22050122
_symmetry_Int_Tables_number   1
_chemical_formula_structural   Fe2PClO4
_chemical_formula_sum   'Fe8 P4 Cl4 O16'
_cell_volume   453.80670415
_cell_formula_units_Z   4
loop_
 _symmetry_equiv_pos_site_id
 _symmetry_equiv_pos_as_xyz
  1  'x, y, z'
loop_
 _atom_site_type_symbol
 _atom_site_label
 _atom_site_symmetry_multiplicity
 _atom_site_fract_x
 _atom_site_fract_y
 _atom_site_fract_z
 _atom_site_occupancy
  Fe  Fe0  1  0.99753300  0.49906900  0.49951900  1
  Fe  Fe1  1  0.00046200  0.00097400  0.99844100  1
  Fe  Fe2  1  0.55213500  0.32069200  0.24714800  1
  Fe  Fe3  1  0.92652700  0.17942000  0.73168300  1
  Fe  Fe4  1  0.27327600  0.75000400  0.02337600  1
  Fe  Fe5  1  0.72821600  0.24999900  0.97815300  1
  Fe  Fe6  1  0.07128000  0.82306700  0.26749300  1
  Fe  Fe7  1  0.44451600  0.67685900  0.74822000  1
  P  P0  1  0.77751000  0.51600200  0.75828900  1
  P  P1  1  0.75784100  0.01356700  0.23692400  1
  P  P2  1  0.22343500  0.48638300  0.24424100  1
  P  P3  1  0.24228400  0.98403800  0.76160000  1
  Cl  Cl0  1  0.33528300  0.07258500  0.26703700  1
  Cl  Cl1  1  0.80367300  0.57147700  0.23550400  1
  Cl  Cl2  1  0.19445400  0.42740100  0.76269700  1
  Cl  Cl3  1  0.66404800  0.92853600  0.73220600  1
  O  O0  1  0.21124300  0.96086200  0.56226700  1
  O  O1  1  0.60134300  0.53901100  0.75023500  1
  O  O2  1  0.40170200  0.46476400  0.25837100  1
  O  O3  1  0.79357100  0.03533000  0.43696300  1
  O  O4  1  0.21606000  0.52405700  0.43877500  1
  O  O5  1  0.08437100  0.02233300  0.80313000  1
  O  O6  1  0.78083900  0.47757700  0.56202400  1
  O  O7  1  0.91475600  0.97602100  0.19205300  1
  O  O8  1  0.77077300  0.20504200  0.23637200  1
  O  O9  1  0.03158400  0.29493600  0.06567200  1
  O  O10  1  0.22835600  0.79318300  0.76358700  1
  O  O11  1  0.97017800  0.70683000  0.93527200  1
  O  O12  1  0.55534800  0.84482700  0.06599100  1
  O  O13  1  0.78123800  0.34720500  0.79227400  1
  O  O14  1  0.22128800  0.65512000  0.21033400  1
  O  O15  1  0.44488000  0.15283000  0.93415100  1
loop_
_geom_bond_atom_site_label_1
_geom_bond_atom_site_label_2
_geom_bond_distance
_geom_bond_site_symmetry_2
Fe0 O6 2.040626 1_555
Fe0 O4 2.044926 1_655
Fe0 O8 2.255981 1_555
Fe0 O10 2.265215 1_655
Fe1 O5 2.040071 1_555
Fe1 O7 2.044638 1_446
Fe1 O9 2.255147 1_556
Fe1 O11 2.265331 1_445
Fe2 O2 1.967859 1_555
Fe2 O15 2.134704 1_554
Fe2 O6 2.184601 1_555
Fe2 O8 2.299278 1_555
Fe3 O3 1.968386 1_555
Fe3 O13 2.136198 1_555
Fe3 O5 2.185034 1_655
Fe3 O9 2.295646 1_656
Fe4 O14 2.118760 1_555
Fe4 O12 2.122355 1_555
Fe4 O10 2.242429 1_554
Fe4 O11 2.244663 1_454
Fe5 O13 2.125133 1_555
Fe5 O15 2.128579 1_555
Fe5 O8 2.241074 1_556
Fe5 O9 2.243836 1_656
Fe6 O0 1.966795 1_555
Fe6 O7 2.156955 1_455
Fe6 O14 2.164240 1_555
Fe6 O11 2.287306 1_454
Fe7 O1 1.967022 1_555
Fe7 O4 2.156421 1_555
Fe7 O12 2.161958 1_556
Fe7 O10 2.290669 1_555
Cl0 Fe2 2.485646 1_555
Cl0 Fe4 2.504812 1_545
Cl0 Fe1 2.598281 1_554
Cl0 Fe6 2.621680 1_545
Cl1 Fe6 2.497340 1_655
Cl1 Fe5 2.498091 1_554
Cl1 Fe0 2.597397 1_555
Cl1 Fe2 2.621169 1_555
Cl2 Fe3 2.485903 1_455
Cl2 Fe4 2.505499 1_556
Cl2 Fe0 2.597780 1_455
Cl2 Fe7 2.621723 1_555
Cl3 Fe7 2.497366 1_555
Cl3 Fe5 2.497691 1_565
Cl3 Fe1 2.597625 1_665
Cl3 Fe3 2.620803 1_565
O0 P3 1.514365 1_555
O1 P0 1.514305 1_555
O2 P2 1.514194 1_555
O3 P1 1.514242 1_555
O4 P2 1.564187 1_555
O5 P3 1.561688 1_545
O6 P0 1.561602 1_555
O7 P1 1.564277 1_565
O8 P1 1.594208 1_555
O9 P2 1.593567 1_555
O10 P3 1.592193 1_555
O11 P0 1.591605 1_555
O12 P1 1.553793 1_565
O13 P0 1.557602 1_555
O14 P2 1.554264 1_555
O15 P3 1.556926 1_545
