# generated using pymatgen
data_CSNF5
_symmetry_space_group_name_H-M   'P 1'
_cell_length_a   6.08164500
_cell_length_b   8.48035600
_cell_length_c   9.87387600
_cell_angle_alpha   90.00000000
_cell_angle_beta   90.00000000
_cell_angle_gamma   90.00000000
_symmetry_Int_Tables_number   1
_chemical_formula_structural   CSNF5
_chemical_formula_sum   'C4 S4 N4 F20'
_cell_volume   509.24036257
_cell_formula_units_Z   4
loop_
 _symmetry_equiv_pos_site_id
 _symmetry_equiv_pos_as_xyz
  1  'x, y, z'
loop_
 _atom_site_type_symbol
 _atom_site_label
 _atom_site_symmetry_multiplicity
 _atom_site_fract_x
 _atom_site_fract_y
 _atom_site_fract_z
 _atom_site_occupancy
  C  C0  1  0.75000000  0.58143700  0.04530100  1
  C  C1  1  0.25000000  0.41856300  0.95469900  1
  C  C2  1  0.25000000  0.08143700  0.45469900  1
  C  C3  1  0.75000000  0.91856300  0.54530100  1
  S  S0  1  0.25000000  0.57483600  0.69572900  1
  S  S1  1  0.75000000  0.42516400  0.30427100  1
  S  S2  1  0.25000000  0.92516400  0.19572900  1
  S  S3  1  0.75000000  0.07483600  0.80427100  1
  N  N0  1  0.25000000  0.01800700  0.34762900  1
  N  N1  1  0.75000000  0.98199300  0.65237100  1
  N  N2  1  0.75000000  0.51800700  0.15237100  1
  N  N3  1  0.25000000  0.48199300  0.84762900  1
  F  F0  1  0.75000000  0.16287900  0.94738500  1
  F  F1  1  0.51318100  0.92466500  0.19551800  1
  F  F2  1  0.25000000  0.09174800  0.11995800  1
  F  F3  1  0.75000000  0.90825200  0.88004200  1
  F  F4  1  0.75000000  0.24230300  0.72916700  1
  F  F5  1  0.25000000  0.83712100  0.05261500  1
  F  F6  1  0.25000000  0.66287900  0.55261500  1
  F  F7  1  0.75000000  0.25769700  0.22916700  1
  F  F8  1  0.75000000  0.33712100  0.44738500  1
  F  F9  1  0.25000000  0.40825200  0.61995800  1
  F  F10  1  0.51318100  0.57533500  0.69551800  1
  F  F11  1  0.01318100  0.07533500  0.80448200  1
  F  F12  1  0.48681900  0.07533500  0.80448200  1
  F  F13  1  0.25000000  0.75769700  0.27083300  1
  F  F14  1  0.98681900  0.57533500  0.69551800  1
  F  F15  1  0.01318100  0.42466500  0.30448200  1
  F  F16  1  0.98681900  0.92466500  0.19551800  1
  F  F17  1  0.25000000  0.74230300  0.77083300  1
  F  F18  1  0.75000000  0.59174800  0.38004200  1
  F  F19  1  0.48681900  0.42466500  0.30448200  1
loop_
_geom_bond_atom_site_label_1
_geom_bond_atom_site_label_2
_geom_bond_distance
_geom_bond_site_symmetry_2
C0 N2 1.186174 1_555
C1 N3 1.186174 1_555
C2 N0 1.186174 1_555
C3 N1 1.186174 1_555
N0 S2 1.693940 1_545
N1 S3 1.693940 1_565
N2 S1 1.693940 1_555
N3 S0 1.693940 1_555
F0 S3 1.598214 1_555
F1 S2 1.600580 1_555
F2 S2 1.598572 1_545
F3 S3 1.598572 1_565
F4 S3 1.602134 1_555
F5 S2 1.598214 1_555
F6 S0 1.598214 1_555
F7 S1 1.602134 1_555
F8 S1 1.598214 1_555
F9 S0 1.598572 1_555
F10 S0 1.600580 1_555
F11 S3 1.600580 1_455
F12 S3 1.600580 1_555
F13 S2 1.602134 1_555
F14 S0 1.600580 1_655
F15 S1 1.600580 1_455
F16 S2 1.600580 1_655
F17 S0 1.602134 1_555
F18 S1 1.598572 1_555
F19 S1 1.600580 1_555
