# generated using pymatgen
data_Pr9O16
_symmetry_space_group_name_H-M   'P 1'
_cell_length_a   6.88355100
_cell_length_b   7.01136435
_cell_length_c   9.14782757
_cell_angle_alpha   74.04454950
_cell_angle_beta   80.83498768
_cell_angle_gamma   81.39419623
_symmetry_Int_Tables_number   1
_chemical_formula_structural   Pr9O16
_chemical_formula_sum   'Pr9 O16'
_cell_volume   416.46066336
_cell_formula_units_Z   1
loop_
 _symmetry_equiv_pos_site_id
 _symmetry_equiv_pos_as_xyz
  1  'x, y, z'
loop_
 _atom_site_type_symbol
 _atom_site_label
 _atom_site_symmetry_multiplicity
 _atom_site_fract_x
 _atom_site_fract_y
 _atom_site_fract_z
 _atom_site_occupancy
  Pr  Pr0  1  0.67186000  0.30920600  0.67192600  1
  Pr  Pr1  1  0.32814000  0.69079400  0.32807400  1
  Pr  Pr2  1  0.40869800  0.23839100  0.10089700  1
  Pr  Pr3  1  0.22996900  0.12438400  0.52691100  1
  Pr  Pr4  1  0.00000000  0.00000000  0.00000000  1
  Pr  Pr5  1  0.10724500  0.52134200  0.77301800  1
  Pr  Pr6  1  0.89275500  0.47865800  0.22698200  1
  Pr  Pr7  1  0.59130200  0.76160900  0.89910300  1
  Pr  Pr8  1  0.77003100  0.87561600  0.47308900  1
  O  O0  1  0.07079400  0.29559800  0.04475100  1
  O  O1  1  0.77927300  0.61188300  0.70242400  1
  O  O2  1  0.52770900  0.00530600  0.66320400  1
  O  O3  1  0.64654800  0.58108300  0.42885900  1
  O  O4  1  0.92920600  0.70440200  0.95524900  1
  O  O5  1  0.12423600  0.80557400  0.54599800  1
  O  O6  1  0.35345200  0.41891700  0.57114100  1
  O  O7  1  0.97431600  0.78677400  0.25686200  1
  O  O8  1  0.66805500  0.08753700  0.94011100  1
  O  O9  1  0.22072700  0.38811700  0.29757600  1
  O  O10  1  0.02568400  0.21322600  0.74313800  1
  O  O11  1  0.42374100  0.49672700  0.85811900  1
  O  O12  1  0.47229100  0.99469400  0.33679600  1
  O  O13  1  0.57625900  0.50327300  0.14188100  1
  O  O14  1  0.87576400  0.19442600  0.45400200  1
  O  O15  1  0.33194500  0.91246300  0.05988900  1
loop_
_geom_bond_atom_site_label_1
_geom_bond_atom_site_label_2
_geom_bond_distance
_geom_bond_site_symmetry_2
O0 Pr4 2.352185 1_555
O0 Pr2 2.413081 1_555
O0 Pr6 2.446024 1_455
O0 Pr5 2.550348 1_554
O1 Pr8 2.387283 1_555
O1 Pr5 2.393111 1_655
O1 Pr7 2.429735 1_555
O1 Pr0 2.447237 1_555
O2 Pr7 2.412020 1_545
O2 Pr8 2.474908 1_545
O2 Pr3 2.486291 1_555
O2 Pr0 2.506493 1_555
O3 Pr1 2.448442 1_555
O3 Pr6 2.483203 1_555
O3 Pr8 2.499000 1_555
O3 Pr0 2.510361 1_555
O4 Pr4 2.352185 1_666
O4 Pr7 2.413081 1_555
O4 Pr5 2.446024 1_655
O4 Pr6 2.550348 1_556
O5 Pr3 2.405944 1_565
O5 Pr5 2.452557 1_555
O5 Pr1 2.498898 1_555
O5 Pr8 2.571066 1_455
O6 Pr0 2.448442 1_555
O6 Pr5 2.483203 1_555
O6 Pr3 2.499000 1_555
O6 Pr1 2.510361 1_555
O7 Pr6 2.406943 1_555
O7 Pr4 2.408940 1_665
O7 Pr8 2.409797 1_555
O7 Pr1 2.565758 1_655
O8 Pr4 2.385812 1_656
O8 Pr2 2.433734 1_556
O8 Pr0 2.516028 1_555
O8 Pr7 2.556905 1_545
O9 Pr3 2.387283 1_555
O9 Pr6 2.393111 1_455
O9 Pr2 2.429735 1_555
O9 Pr1 2.447237 1_555
O10 Pr5 2.406943 1_555
O10 Pr4 2.408940 1_556
O10 Pr3 2.409797 1_555
O10 Pr0 2.565758 1_455
O11 Pr5 2.395014 1_555
O11 Pr2 2.448496 1_556
O11 Pr7 2.466108 1_555
O11 Pr0 2.679412 1_555
O12 Pr2 2.412020 1_565
O12 Pr3 2.474908 1_565
O12 Pr8 2.486291 1_555
O12 Pr1 2.506493 1_555
O13 Pr6 2.395014 1_555
O13 Pr7 2.448496 1_554
O13 Pr2 2.466108 1_555
O13 Pr1 2.679412 1_555
O14 Pr8 2.405944 1_545
O14 Pr6 2.452557 1_555
O14 Pr0 2.498898 1_555
O14 Pr3 2.571066 1_655
O15 Pr4 2.385812 1_565
O15 Pr7 2.433734 1_554
O15 Pr1 2.516028 1_555
O15 Pr2 2.556905 1_565
