# generated using pymatgen
data_P2W2O11
_symmetry_space_group_name_H-M   'P 1'
_cell_length_a   6.34858161
_cell_length_b   7.65493908
_cell_length_c   7.79986301
_cell_angle_alpha   90.00000000
_cell_angle_beta   90.00000000
_cell_angle_gamma   90.00000000
_symmetry_Int_Tables_number   1
_chemical_formula_structural   P2W2O11
_chemical_formula_sum   'P4 W4 O22'
_cell_volume   379.05778522
_cell_formula_units_Z   2
loop_
 _symmetry_equiv_pos_site_id
 _symmetry_equiv_pos_as_xyz
  1  'x, y, z'
loop_
 _atom_site_type_symbol
 _atom_site_label
 _atom_site_symmetry_multiplicity
 _atom_site_fract_x
 _atom_site_fract_y
 _atom_site_fract_z
 _atom_site_occupancy
  P  P0  1  0.50000000  0.38389380  0.74533160  1
  P  P1  1  -0.00000000  0.88389380  0.75466840  1
  P  P2  1  -0.00000000  0.11610620  0.24533160  1
  P  P3  1  0.50000000  0.61610620  0.25466840  1
  W  W0  1  0.50000000  0.18344252  0.15988594  1
  W  W1  1  0.50000000  0.81655748  0.84011406  1
  W  W2  1  -0.00000000  0.68344252  0.34011406  1
  W  W3  1  -0.00000000  0.31655748  0.65988594  1
  O  O0  1  0.30850831  0.31129442  0.64687598  1
  O  O1  1  0.80850831  0.18870558  0.14687598  1
  O  O2  1  0.30850831  0.68870558  0.35312402  1
  O  O3  1  0.50000000  0.66806770  0.07005806  1
  O  O4  1  0.50000000  0.93834697  0.65824515  1
  O  O5  1  0.80850831  0.81129442  0.85312402  1
  O  O6  1  0.69149169  0.31129442  0.64687598  1
  O  O7  1  -0.00000000  0.16806770  0.42994194  1
  O  O8  1  -0.00000000  0.83193230  0.57005806  1
  O  O9  1  0.50000000  0.58491089  0.72775214  1
  O  O10  1  0.69149169  0.68870558  0.35312402  1
  O  O11  1  0.50000000  0.06165303  0.34175485  1
  O  O12  1  0.19149169  0.18870558  0.14687598  1
  O  O13  1  -0.00000000  0.43834697  0.84175485  1
  O  O14  1  0.50000000  0.41508911  0.27224786  1
  O  O15  1  -0.00000000  0.08491089  0.77224786  1
  O  O16  1  -0.00000000  0.56165303  0.15824515  1
  O  O17  1  0.50000000  0.33193230  0.92994194  1
  O  O18  1  -0.00000000  0.91508911  0.22775214  1
  O  O19  1  -0.00000000  0.50000000  0.50000000  1
  O  O20  1  0.19149169  0.81129442  0.85312402  1
  O  O21  1  0.50000000  0.00000000  -0.00000000  1
loop_
_geom_bond_atom_site_label_1
_geom_bond_atom_site_label_2
_geom_bond_distance
_geom_bond_site_symmetry_2
O0 P0 1.541594 1_555
O0 W3 1.961631 1_555
O1 P2 1.541594 1_655
O1 W0 1.961631 1_555
O2 P3 1.541594 1_555
O2 W2 1.961631 1_555
O3 P3 1.493864 1_555
O3 W1 2.123393 1_554
O4 W1 1.697486 1_555
O5 P1 1.541594 1_655
O5 W1 1.961631 1_555
O6 P0 1.541594 1_555
O6 W3 1.961631 1_655
O7 P2 1.493864 1_555
O7 W3 2.123393 1_555
O8 P1 1.493864 1_555
O8 W2 2.123393 1_555
O9 P0 1.544871 1_555
O9 W1 1.977997 1_555
O10 P3 1.541594 1_555
O10 W2 1.961631 1_655
O11 W0 1.697486 1_555
O12 P2 1.541594 1_555
O12 W0 1.961631 1_555
O13 W3 1.697486 1_555
O14 P3 1.544871 1_555
O14 W0 1.977997 1_555
O15 P1 1.544871 1_545
O15 W3 1.977997 1_555
O16 W2 1.697486 1_555
O17 P0 1.493864 1_555
O17 W0 2.123393 1_556
O18 P2 1.544871 1_565
O18 W2 1.977997 1_555
O19 W3 1.878064 1_555
O19 W2 1.878064 1_555
O20 P1 1.541594 1_555
O20 W1 1.961631 1_555
O21 W0 1.878064 1_555
O21 W1 1.878064 1_544
