# generated using pymatgen
data_RbPr6(CI6)2
_symmetry_space_group_name_H-M   'P 1'
_cell_length_a   9.77312000
_cell_length_b   9.80062893
_cell_length_c   10.26375012
_cell_angle_alpha   70.82858519
_cell_angle_beta   71.91440133
_cell_angle_gamma   72.58088341
_symmetry_Int_Tables_number   1
_chemical_formula_structural   RbPr6(CI6)2
_chemical_formula_sum   'Rb1 Pr6 C2 I12'
_cell_volume   861.09148007
_cell_formula_units_Z   1
loop_
 _symmetry_equiv_pos_site_id
 _symmetry_equiv_pos_as_xyz
  1  'x, y, z'
loop_
 _atom_site_type_symbol
 _atom_site_label
 _atom_site_symmetry_multiplicity
 _atom_site_fract_x
 _atom_site_fract_y
 _atom_site_fract_z
 _atom_site_occupancy
  Rb  Rb0  1  0.50000000  0.00000000  0.00000000  1
  Pr  Pr0  1  0.96921500  0.22840200  0.58963700  1
  Pr  Pr1  1  0.03078500  0.77159800  0.41036300  1
  Pr  Pr2  1  0.10847300  0.47637500  0.19290300  1
  Pr  Pr3  1  0.73033800  0.59015700  0.47608500  1
  Pr  Pr4  1  0.26966200  0.40984300  0.52391500  1
  Pr  Pr5  1  0.89152700  0.52362500  0.80709700  1
  C  C0  1  0.02408200  0.49436500  0.42947800  1
  C  C1  1  0.97591800  0.50563500  0.57052200  1
  I  I0  1  0.36626400  0.71906700  0.42975700  1
  I  I1  1  0.63373600  0.28093300  0.57024300  1
  I  I2  1  0.22284100  0.41220900  0.85659700  1
  I  I3  1  0.77715900  0.58779100  0.14340300  1
  I  I4  1  0.15969600  0.80202400  0.07770700  1
  I  I5  1  0.71692700  0.92877000  0.35424400  1
  I  I6  1  0.43607600  0.35124300  0.21983300  1
  I  I7  1  0.92993700  0.86338900  0.70907400  1
  I  I8  1  0.84030400  0.19797600  0.92229300  1
  I  I9  1  0.07006300  0.13661100  0.29092600  1
  I  I10  1  0.56392400  0.64875700  0.78016700  1
  I  I11  1  0.28307300  0.07123000  0.64575600  1
loop_
_geom_bond_atom_site_label_1
_geom_bond_atom_site_label_2
_geom_bond_distance
_geom_bond_site_symmetry_2
C0 C1 1.407212 1_455
C0 Pr2 2.357529 1_555
C0 Pr4 2.666977 1_555
C0 Pr1 2.678369 1_555
C0 Pr3 2.679620 1_455
C0 Pr0 2.694334 1_455
C1 Pr5 2.357529 1_555
C1 Pr3 2.666977 1_555
C1 Pr0 2.678369 1_555
C1 Pr4 2.679620 1_655
C1 Pr1 2.694334 1_655
I0 Pr4 3.198861 1_555
I0 Pr1 3.222060 1_555
I0 Pr3 3.528041 1_555
I1 Pr3 3.198861 1_555
I1 Pr0 3.222060 1_555
I1 Pr4 3.528041 1_555
I2 Pr5 3.236520 1_455
I2 Pr4 3.308283 1_555
I2 Pr2 3.488392 1_556
I2 Rb0 4.224039 1_556
I3 Pr2 3.236520 1_655
I3 Pr3 3.308283 1_555
I3 Pr5 3.488392 1_554
I3 Rb0 4.224039 1_565
I4 Pr2 3.153619 1_555
I4 Pr1 3.196735 1_555
I4 Rb0 4.081944 1_565
I5 Pr3 3.116070 1_555
I5 Pr1 3.130276 1_655
I6 Pr2 3.131653 1_555
I6 Pr4 3.190959 1_555
I7 Pr5 3.248833 1_555
I7 Pr1 3.253450 1_655
I7 Pr0 3.478122 1_565
I8 Pr5 3.153619 1_555
I8 Pr0 3.196735 1_555
I8 Rb0 4.081944 1_556
I9 Pr2 3.248833 1_555
I9 Pr0 3.253450 1_455
I9 Pr1 3.478122 1_545
I10 Pr5 3.131653 1_555
I10 Pr3 3.190959 1_555
I11 Pr4 3.116070 1_555
I11 Pr0 3.130276 1_455
