# generated using pymatgen
data_Na2Be(SiO3)2
_symmetry_space_group_name_H-M   'P 1'
_cell_length_a   15.32717751
_cell_length_b   11.60258429
_cell_length_c   11.20562817
_cell_angle_alpha   84.42449524
_cell_angle_beta   48.88688238
_cell_angle_gamma   46.68862238
_symmetry_Int_Tables_number   1
_chemical_formula_structural   Na2Be(SiO3)2
_chemical_formula_sum   'Na12 Be6 Si12 O36'
_cell_volume   834.32457104
_cell_formula_units_Z   6
loop_
 _symmetry_equiv_pos_site_id
 _symmetry_equiv_pos_as_xyz
  1  'x, y, z'
loop_
 _atom_site_type_symbol
 _atom_site_label
 _atom_site_symmetry_multiplicity
 _atom_site_fract_x
 _atom_site_fract_y
 _atom_site_fract_z
 _atom_site_occupancy
  Na  Na0  1  0.81919000  0.81919000  0.18081000  1
  Na  Na1  1  0.50815600  0.86562300  0.15802100  1
  Na  Na2  1  0.18081000  0.18081000  0.81919000  1
  Na  Na3  1  0.74184400  0.38437700  0.09197900  1
  Na  Na4  1  0.43081000  0.43081000  0.06919000  1
  Na  Na5  1  0.38437700  0.74184400  0.78180000  1
  Na  Na6  1  0.06919000  0.06919000  0.43081000  1
  Na  Na7  1  0.78180000  0.09197900  0.38437700  1
  Na  Na8  1  0.46820000  0.15802100  0.86562300  1
  Na  Na9  1  0.86562300  0.50815600  0.46820000  1
  Na  Na10  1  0.09197900  0.78180000  0.74184400  1
  Na  Na11  1  0.15802100  0.46820000  0.50815600  1
  Be  Be0  1  0.56568800  0.93431200  0.56568800  1
  Be  Be1  1  0.31568800  0.68431200  0.31568800  1
  Be  Be2  1  0.68431200  0.31568800  0.68431200  1
  Be  Be3  1  0.25000000  0.25000000  0.25000000  1
  Be  Be4  1  0.93431200  0.56568800  0.93431200  1
  Be  Be5  1  0.00000000  0.00000000  0.00000000  1
  Si  Si0  1  0.34396400  0.34396400  0.65603600  1
  Si  Si1  1  0.00609800  0.34563700  0.67589000  1
  Si  Si2  1  0.90436300  0.24390200  0.27762500  1
  Si  Si3  1  0.65603600  0.65603600  0.34396400  1
  Si  Si4  1  0.90603600  0.90603600  0.59396400  1
  Si  Si5  1  0.97237500  0.67589000  0.34563700  1
  Si  Si6  1  0.59396400  0.59396400  0.90603600  1
  Si  Si7  1  0.34563700  0.00609800  0.97237500  1
  Si  Si8  1  0.27762500  0.57411000  0.90436300  1
  Si  Si9  1  0.67589000  0.97237500  0.00609800  1
  Si  Si10  1  0.57411000  0.27762500  0.24390200  1
  Si  Si11  1  0.24390200  0.90436300  0.57411000  1
  O  O0  1  0.14800900  0.73747200  0.39271400  1
  O  O1  1  0.74181100  0.80701600  0.04222300  1
  O  O2  1  0.37750700  0.40122300  0.49797300  1
  O  O3  1  0.30933200  0.09951500  0.12017900  1
  O  O4  1  0.84105000  0.20777700  0.44298400  1
  O  O5  1  0.15048500  0.94066800  0.77902600  1
  O  O6  1  0.75202700  0.52670300  0.87249300  1
  O  O7  1  0.49797300  0.72329700  0.37750700  1
  O  O8  1  0.85728600  0.52819500  0.10199100  1
  O  O9  1  0.12500000  0.12500000  0.62500000  1
  O  O10  1  0.12017900  0.47097400  0.30933200  1
  O  O11  1  0.44298400  0.50818900  0.84105000  1
  O  O12  1  0.39271400  0.72180500  0.14800900  1
  O  O13  1  0.50818900  0.44298400  0.20777700  1
  O  O14  1  0.20777700  0.84105000  0.50818900  1
  O  O15  1  0.80701600  0.74181100  0.40895000  1
  O  O16  1  0.73747200  0.14800900  0.72180500  1
  O  O17  1  0.09951500  0.30933200  0.47097400  1
  O  O18  1  0.51252800  0.10199100  0.52819500  1
  O  O19  1  0.12982100  0.77902600  0.94066800  1
  O  O20  1  0.04222300  0.40895000  0.74181100  1
  O  O21  1  0.10199100  0.51252800  0.85728600  1
  O  O22  1  0.77902600  0.12982100  0.15048500  1
  O  O23  1  0.87249300  0.84877700  0.75202700  1
  O  O24  1  0.12500000  0.62500000  0.12500000  1
  O  O25  1  0.40122300  0.37750700  0.72329700  1
  O  O26  1  0.72180500  0.39271400  0.73747200  1
  O  O27  1  0.94066800  0.15048500  0.12982100  1
  O  O28  1  0.72329700  0.49797300  0.40122300  1
  O  O29  1  0.52819500  0.85728600  0.51252800  1
  O  O30  1  0.84877700  0.87249300  0.52670300  1
  O  O31  1  0.47097400  0.12017900  0.09951500  1
  O  O32  1  0.62500000  0.12500000  0.12500000  1
  O  O33  1  0.52670300  0.75202700  0.84877700  1
  O  O34  1  0.12500000  0.12500000  0.12500000  1
  O  O35  1  0.40895000  0.04222300  0.80701600  1
loop_
_geom_bond_atom_site_label_1
_geom_bond_atom_site_label_2
_geom_bond_distance
_geom_bond_site_symmetry_2
Na0 O18 2.296362 1_565
Na0 O21 2.296362 1_654
Na0 O15 2.555939 1_555
Na0 O1 2.555939 1_555
Na1 O1 2.385550 1_555
Na1 O6 2.494726 1_554
Na1 O3 2.638383 1_565
Na1 O31 2.698829 1_565
Na1 O7 2.803555 1_555
Na1 O17 2.901081 1_565
Na2 O8 2.296362 1_456
Na2 O29 2.296362 1_545
Na2 O35 2.555939 1_555
Na2 O20 2.555939 1_555
Na3 O13 2.385550 1_555
Na3 O7 2.494726 1_555
Na3 O27 2.638383 1_555
Na3 O22 2.698829 1_555
Na3 O6 2.803555 1_554
Na3 O5 2.901081 1_644
Na4 O0 2.296362 1_555
Na4 O16 2.296362 1_554
Na4 O11 2.555939 1_554
Na4 O13 2.555939 1_555
Na5 O11 2.385550 1_555
Na5 O28 2.494726 1_555
Na5 O5 2.638383 1_555
Na5 O19 2.698829 1_555
Na5 O33 2.803555 1_555
Na5 O27 2.901081 1_466
Na6 O26 2.296362 1_455
Na6 O12 2.296362 1_545
Na6 O14 2.555939 1_545
Na6 O4 2.555939 1_455
Na7 O4 2.385550 1_555
Na7 O25 2.494726 1_555
Na7 O22 2.638383 1_555
Na7 O27 2.698829 1_555
Na7 O30 2.803555 1_545
Na7 O19 2.901081 1_644
Na8 O35 2.385550 1_555
Na8 O30 2.494726 1_545
Na8 O31 2.638383 1_556
Na8 O3 2.698829 1_556
Na8 O25 2.803555 1_555
Na8 O10 2.901081 1_556
Na9 O15 2.385550 1_555
Na9 O33 2.494726 1_555
Na9 O17 2.638383 1_655
Na9 O10 2.698829 1_655
Na9 O28 2.803555 1_555
Na9 O3 2.901081 1_655
Na10 O14 2.385550 1_555
Na10 O2 2.494726 1_555
Na10 O19 2.638383 1_555
Na10 O5 2.698829 1_555
Na10 O23 2.803555 1_455
Na10 O22 2.901081 1_466
Na11 O20 2.385550 1_555
Na11 O23 2.494726 1_455
Na11 O10 2.638383 1_555
Na11 O17 2.698829 1_555
Na11 O2 2.803555 1_555
Na11 O31 2.901081 1_555
Be0 O35 1.624686 1_565
Be0 O15 1.624686 1_555
Be0 O29 1.655900 1_555
Be0 O18 1.655900 1_565
Be1 O13 1.624686 1_555
Be1 O14 1.624686 1_555
Be1 O0 1.655900 1_555
Be1 O12 1.655900 1_555
Be2 O11 1.624686 1_555
Be2 O4 1.624686 1_555
Be2 O16 1.655900 1_555
Be2 O26 1.655900 1_555
Be3 O31 1.602255 1_555
Be3 O10 1.602255 1_555
Be3 O17 1.602255 1_555
Be3 O3 1.602255 1_555
Be4 O20 1.624686 1_655
Be4 O1 1.624686 1_556
Be4 O8 1.655900 1_556
Be4 O21 1.655900 1_655
Be5 O27 1.602255 1_455
Be5 O5 1.602255 1_544
Be5 O19 1.602255 1_544
Be5 O22 1.602255 1_455
O0 Si4 1.603816 1_455
O1 Si9 1.610343 1_555
O2 Si10 1.680734 1_555
O2 Si0 1.698594 1_555
O3 Si7 1.592770 1_554
O4 Si2 1.610343 1_555
O5 Si11 1.592770 1_555
O6 Si1 1.680734 1_655
O6 Si6 1.698594 1_555
O7 Si11 1.680734 1_555
O7 Si3 1.698594 1_555
O8 Si3 1.603816 1_555
O9 Si1 1.648113 1_555
O9 Si11 1.648113 1_545
O10 Si5 1.592770 1_455
O11 Si8 1.610343 1_555
O12 Si6 1.603816 1_554
O13 Si10 1.610343 1_555
O14 Si11 1.610343 1_555
O15 Si5 1.610343 1_555
O16 Si4 1.603816 1_545
O17 Si1 1.592770 1_555
O18 Si0 1.603816 1_555
O19 Si8 1.592770 1_555
O20 Si1 1.610343 1_555
O21 Si0 1.603816 1_555
O22 Si10 1.592770 1_555
O23 Si9 1.680734 1_556
O23 Si4 1.698594 1_555
O24 Si5 1.648113 1_455
O24 Si8 1.648113 1_554
O25 Si8 1.680734 1_555
O25 Si0 1.698594 1_555
O26 Si6 1.603816 1_555
O27 Si2 1.592770 1_555
O28 Si2 1.680734 1_555
O28 Si3 1.698594 1_555
O29 Si3 1.603816 1_555
O30 Si5 1.680734 1_555
O30 Si4 1.698594 1_555
O31 Si9 1.592770 1_545
O32 Si10 1.648113 1_555
O32 Si9 1.648113 1_545
O33 Si7 1.680734 1_565
O33 Si6 1.698594 1_555
O34 Si7 1.648113 1_554
O34 Si2 1.648113 1_455
O35 Si7 1.610343 1_555
