# generated using pymatgen
data_Cs2Ba2(CO3)3
_symmetry_space_group_name_H-M   'P 1'
_cell_length_a   9.10776920
_cell_length_b   9.10776920
_cell_length_c   9.10776920
_cell_angle_alpha   109.47122063
_cell_angle_beta   109.47122063
_cell_angle_gamma   109.47122063
_symmetry_Int_Tables_number   1
_chemical_formula_structural   Cs2Ba2(CO3)3
_chemical_formula_sum   'Cs4 Ba4 C6 O18'
_cell_volume   581.58628885
_cell_formula_units_Z   2
loop_
 _symmetry_equiv_pos_site_id
 _symmetry_equiv_pos_as_xyz
  1  'x, y, z'
loop_
 _atom_site_type_symbol
 _atom_site_label
 _atom_site_symmetry_multiplicity
 _atom_site_fract_x
 _atom_site_fract_y
 _atom_site_fract_z
 _atom_site_occupancy
  Cs  Cs0  1  0.00000000  0.11987700  0.50000000  1
  Cs  Cs1  1  0.11987700  0.50000000  0.00000000  1
  Cs  Cs2  1  0.38012300  0.38012300  0.38012300  1
  Cs  Cs3  1  0.50000000  0.00000000  0.11987700  1
  Ba  Ba0  1  0.00000000  0.58283300  0.50000000  1
  Ba  Ba1  1  0.50000000  0.00000000  0.58283300  1
  Ba  Ba2  1  0.91716700  0.91716700  0.91716700  1
  Ba  Ba3  1  0.58283300  0.50000000  0.00000000  1
  C  C0  1  0.65937800  0.75000000  0.40937800  1
  C  C1  1  0.09062200  0.84062200  0.25000000  1
  C  C2  1  0.25000000  0.09062200  0.84062200  1
  C  C3  1  0.40937800  0.65937800  0.75000000  1
  C  C4  1  0.84062200  0.25000000  0.09062200  1
  C  C5  1  0.75000000  0.40937800  0.65937800  1
  O  O0  1  0.96526800  0.25000000  0.21526800  1
  O  O1  1  0.25000000  0.21526800  0.96526800  1
  O  O2  1  0.36420900  0.70415800  0.62744000  1
  O  O3  1  0.62744000  0.36420900  0.70415800  1
  O  O4  1  0.70415800  0.62744000  0.36420900  1
  O  O5  1  0.21526800  0.96526800  0.25000000  1
  O  O6  1  0.87256000  0.57671700  0.73676900  1
  O  O7  1  0.79584200  0.16005200  0.92328300  1
  O  O8  1  0.13579100  0.76323100  0.33994800  1
  O  O9  1  0.33994800  0.13579100  0.76323100  1
  O  O10  1  0.92328300  0.79584200  0.16005200  1
  O  O11  1  0.16005200  0.92328300  0.79584200  1
  O  O12  1  0.28473200  0.53473200  0.75000000  1
  O  O13  1  0.75000000  0.28473200  0.53473200  1
  O  O14  1  0.76323100  0.33994800  0.13579100  1
  O  O15  1  0.57671700  0.73676900  0.87256000  1
  O  O16  1  0.53473200  0.75000000  0.28473200  1
  O  O17  1  0.73676900  0.87256000  0.57671700  1
loop_
_geom_bond_atom_site_label_1
_geom_bond_atom_site_label_2
_geom_bond_distance
_geom_bond_site_symmetry_2
Cs0 O9 3.142544 1_555
Cs0 O17 3.142544 1_445
Cs0 O10 3.142549 1_445
Cs0 O13 3.159370 1_455
Cs0 O12 3.159370 1_555
Cs0 O0 3.159370 1_455
Cs1 O8 3.142544 1_555
Cs1 O6 3.142544 1_454
Cs1 O7 3.142549 1_454
Cs1 O1 3.159370 1_554
Cs1 O16 3.159370 1_555
Cs1 O12 3.159370 1_554
Cs2 O3 3.142551 1_555
Cs2 O2 3.142551 1_555
Cs2 O4 3.142551 1_555
Cs2 O1 3.159370 1_554
Cs2 O0 3.159370 1_455
Cs2 O5 3.159370 1_545
Cs3 O15 3.142544 1_544
Cs3 O14 3.142544 1_555
Cs3 O11 3.142549 1_544
Cs3 O13 3.159370 1_555
Cs3 O5 3.159370 1_545
Cs3 O16 3.159370 1_545
Ba0 O2 2.775995 1_555
Ba0 O6 2.775996 1_455
Ba0 O14 2.775996 1_455
Ba0 O4 2.792472 1_455
Ba0 O11 2.792476 1_555
Ba0 O8 2.792480 1_555
Ba0 O0 3.096348 1_455
Ba0 O13 3.096348 1_455
Ba0 O12 3.096348 1_555
Ba1 O3 2.775995 1_555
Ba1 O8 2.775996 1_545
Ba1 O17 2.775996 1_545
Ba1 O2 2.792472 1_545
Ba1 O7 2.792476 1_555
Ba1 O9 2.792480 1_555
Ba1 O13 3.096348 1_555
Ba1 O5 3.096348 1_545
Ba1 O16 3.096348 1_545
Ba2 O7 2.776003 1_565
Ba2 O11 2.776003 1_655
Ba2 O10 2.776003 1_556
Ba2 O15 2.792480 1_555
Ba2 O6 2.792480 1_555
Ba2 O17 2.792480 1_555
Ba2 O5 3.096348 1_656
Ba2 O0 3.096348 1_566
Ba2 O1 3.096348 1_665
Ba3 O4 2.775995 1_555
Ba3 O15 2.775996 1_554
Ba3 O9 2.775996 1_554
Ba3 O3 2.792472 1_554
Ba3 O10 2.792476 1_555
Ba3 O14 2.792480 1_555
Ba3 O16 3.096348 1_555
Ba3 O1 3.096348 1_554
Ba3 O12 3.096348 1_554
C0 O17 1.300304 1_555
C0 O4 1.300311 1_555
C0 O16 1.310870 1_555
C1 O10 1.300302 1_455
C1 O8 1.300304 1_555
C1 O5 1.310870 1_555
C2 O11 1.300302 1_545
C2 O9 1.300304 1_555
C2 O1 1.310870 1_555
C3 O15 1.300304 1_555
C3 O2 1.300311 1_555
C3 O12 1.310870 1_555
C4 O7 1.300302 1_554
C4 O14 1.300304 1_555
C4 O0 1.310870 1_555
C5 O6 1.300304 1_555
C5 O3 1.300311 1_555
C5 O13 1.310870 1_555
