# generated using pymatgen
data_CeNiSb3
_symmetry_space_group_name_H-M   'P 1'
_cell_length_a   6.21719813
_cell_length_b   12.08356078
_cell_length_c   12.51647355
_cell_angle_alpha   90.00087633
_cell_angle_beta   89.99129250
_cell_angle_gamma   90.00095176
_symmetry_Int_Tables_number   1
_chemical_formula_structural   CeNiSb3
_chemical_formula_sum   'Ce8 Ni8 Sb24'
_cell_volume   940.31122214
_cell_formula_units_Z   8
loop_
 _symmetry_equiv_pos_site_id
 _symmetry_equiv_pos_as_xyz
  1  'x, y, z'
loop_
 _atom_site_type_symbol
 _atom_site_label
 _atom_site_symmetry_multiplicity
 _atom_site_fract_x
 _atom_site_fract_y
 _atom_site_fract_z
 _atom_site_occupancy
  Ce  Ce0  1  0.28302600  0.74999712  0.30230869  1
  Ce  Ce1  1  0.75000399  0.50000567  0.30006971  1
  Ce  Ce2  1  0.78298434  0.74999539  0.69763757  1
  Ce  Ce3  1  0.75000538  -0.00000533  0.30006746  1
  Ce  Ce4  1  0.71697400  0.25000288  0.69769131  1
  Ce  Ce5  1  0.24999462  0.00000533  0.69993354  1
  Ce  Ce6  1  0.21701566  0.25000461  0.30236243  1
  Ce  Ce7  1  0.24999601  0.49999433  0.69993129  1
  Ni  Ni0  1  0.95363341  0.13520104  0.90250097  1
  Ni  Ni1  1  0.04636190  0.63517969  0.09749597  1
  Ni  Ni2  1  0.95363810  0.36482031  0.90250403  1
  Ni  Ni3  1  0.54637850  0.63522323  0.90244590  1
  Ni  Ni4  1  0.54639388  0.86473922  0.90241502  1
  Ni  Ni5  1  0.45362150  0.36477677  0.09755410  1
  Ni  Ni6  1  0.04636659  0.86479896  0.09749903  1
  Ni  Ni7  1  0.45360612  0.13526078  0.09758498  1
  Sb  Sb0  1  0.71218701  0.25000880  0.22324170  1
  Sb  Sb1  1  0.74998753  0.50002006  0.77599197  1
  Sb  Sb2  1  0.48171395  0.37533393  0.49631400  1
  Sb  Sb3  1  0.60181282  0.24999994  0.94309913  1
  Sb  Sb4  1  0.74998476  -0.00002338  0.77599048  1
  Sb  Sb5  1  0.28781299  0.74999120  0.77675830  1
  Sb  Sb6  1  0.25010314  0.00004007  0.97035323  1
  Sb  Sb7  1  0.25009107  0.49996889  0.97033601  1
  Sb  Sb8  1  0.48171408  0.12466550  0.49631134  1
  Sb  Sb9  1  0.89832050  0.75000256  0.94308839  1
  Sb  Sb10  1  0.25001524  0.00002338  0.22400952  1
  Sb  Sb11  1  0.01828791  0.62465243  0.49630320  1
  Sb  Sb12  1  0.78802131  0.74999764  0.22314914  1
  Sb  Sb13  1  0.74989686  -0.00004007  0.02964677  1
  Sb  Sb14  1  0.39818718  0.75000006  0.05690087  1
  Sb  Sb15  1  0.51828605  0.62466607  0.50368600  1
  Sb  Sb16  1  0.98171209  0.37534757  0.50369680  1
  Sb  Sb17  1  0.74990893  0.50003111  0.02966399  1
  Sb  Sb18  1  0.25001247  0.49997994  0.22400803  1
  Sb  Sb19  1  0.21197869  0.25000236  0.77685086  1
  Sb  Sb20  1  0.51828592  0.87533450  0.50368866  1
  Sb  Sb21  1  0.01828699  0.87534888  0.49630152  1
  Sb  Sb22  1  0.10167950  0.24999744  0.05691161  1
  Sb  Sb23  1  0.98171301  0.12465212  0.50369848  1
loop_
_geom_bond_atom_site_label_1
_geom_bond_atom_site_label_2
_geom_bond_distance
_geom_bond_site_symmetry_2
Ce0 Sb14 3.153876 1_555
Ce0 Sb18 3.182704 1_555
Ce0 Sb10 3.182836 1_565
Ce0 Sb12 3.233245 1_455
Ce0 Ni6 3.265285 1_555
Ce0 Ni1 3.265355 1_555
Ce0 Sb15 3.284405 1_555
Ce0 Sb20 3.284407 1_555
Ce0 Sb12 3.292138 1_555
Ce0 Sb11 3.301173 1_555
Ce0 Sb21 3.301191 1_555
Ce1 Sb0 3.178913 1_555
Ce1 Sb12 3.179306 1_555
Ce1 Sb18 3.251025 1_655
Ce1 Sb18 3.251201 1_555
Ce1 Sb15 3.292185 1_555
Ce1 Sb16 3.292625 1_555
Ce1 Sb2 3.329245 1_555
Ce1 Sb11 3.329329 1_655
Ce1 Sb17 3.384526 1_555
Ce1 Ni1 3.534150 1_655
Ce1 Ni5 3.534380 1_555
Ce2 Sb9 3.154859 1_555
Ce2 Sb1 3.182434 1_555
Ce2 Sb4 3.182475 1_565
Ce2 Sb5 3.233796 1_555
Ce2 Ni4 3.264094 1_555
Ce2 Ni3 3.264598 1_555
Ce2 Sb11 3.283803 1_655
Ce2 Sb21 3.283888 1_655
Ce2 Sb5 3.291291 1_655
Ce2 Sb15 3.300903 1_555
Ce2 Sb20 3.300992 1_555
Ce3 Sb0 3.179139 1_555
Ce3 Sb12 3.179335 1_545
Ce3 Sb10 3.251020 1_655
Ce3 Sb10 3.251179 1_555
Ce3 Sb20 3.292249 1_545
Ce3 Sb23 3.292601 1_555
Ce3 Sb8 3.329231 1_555
Ce3 Sb21 3.329381 1_645
Ce3 Sb13 3.384714 1_555
Ce3 Ni6 3.534227 1_645
Ce3 Ni7 3.534409 1_555
Ce4 Sb3 3.153876 1_555
Ce4 Sb1 3.182704 1_555
Ce4 Sb4 3.182836 1_555
Ce4 Sb19 3.233245 1_655
Ce4 Ni0 3.265285 1_555
Ce4 Ni2 3.265355 1_555
Ce4 Sb2 3.284405 1_555
Ce4 Sb8 3.284407 1_555
Ce4 Sb19 3.292138 1_555
Ce4 Sb16 3.301173 1_555
Ce4 Sb23 3.301185 1_555
Ce5 Sb5 3.179135 1_545
Ce5 Sb19 3.179331 1_555
Ce5 Sb4 3.251016 1_455
Ce5 Sb4 3.251176 1_555
Ce5 Sb8 3.292259 1_555
Ce5 Sb21 3.292605 1_545
Ce5 Sb20 3.329240 1_545
Ce5 Sb23 3.329396 1_455
Ce5 Sb6 3.384701 1_555
Ce5 Ni0 3.534218 1_455
Ce5 Ni4 3.534401 1_545
Ce6 Sb22 3.154859 1_555
Ce6 Sb18 3.182434 1_555
Ce6 Sb10 3.182475 1_555
Ce6 Sb0 3.233796 1_555
Ce6 Ni7 3.264094 1_555
Ce6 Ni5 3.264598 1_555
Ce6 Sb16 3.283803 1_455
Ce6 Sb23 3.283882 1_455
Ce6 Sb0 3.291291 1_455
Ce6 Sb2 3.300903 1_555
Ce6 Sb8 3.300992 1_555
Ce7 Sb5 3.178909 1_555
Ce7 Sb19 3.179302 1_555
Ce7 Sb1 3.251022 1_455
Ce7 Sb1 3.251198 1_555
Ce7 Sb2 3.292195 1_555
Ce7 Sb11 3.292635 1_555
Ce7 Sb15 3.329254 1_555
Ce7 Sb16 3.329339 1_455
Ce7 Sb7 3.384514 1_555
Ce7 Ni2 3.534141 1_455
Ce7 Ni3 3.534371 1_555
Ni0 Sb22 2.550889 1_656
Ni0 Sb4 2.604002 1_555
Ni0 Sb6 2.605136 1_655
Ni0 Sb13 2.609033 1_556
Ni0 Sb3 2.639445 1_555
Ni0 Sb19 2.641358 1_655
Ni0 Ni2 2.774618 1_555
Ni1 Sb9 2.551072 1_454
Ni1 Sb18 2.603889 1_555
Ni1 Sb17 2.604831 1_455
Ni1 Sb7 2.608885 1_554
Ni1 Sb14 2.639568 1_555
Ni1 Sb12 2.641472 1_455
Ni1 Ni6 2.774618 1_555
Ni2 Sb22 2.551072 1_656
Ni2 Sb1 2.603889 1_555
Ni2 Sb7 2.604831 1_655
Ni2 Sb17 2.608885 1_556
Ni2 Sb3 2.639568 1_555
Ni2 Sb19 2.641472 1_655
Ni3 Sb14 2.551311 1_556
Ni3 Sb1 2.603083 1_555
Ni3 Sb7 2.604975 1_555
Ni3 Sb17 2.608853 1_556
Ni3 Sb9 2.640143 1_555
Ni3 Sb5 2.642578 1_555
Ni3 Ni4 2.773370 1_555
Ni4 Sb14 2.551407 1_556
Ni4 Sb4 2.603068 1_565
Ni4 Sb6 2.605561 1_565
Ni4 Sb13 2.609034 1_566
Ni4 Sb9 2.639914 1_555
Ni4 Sb5 2.642226 1_555
Ni5 Sb3 2.551311 1_554
Ni5 Sb18 2.603083 1_555
Ni5 Sb17 2.604975 1_555
Ni5 Sb7 2.608853 1_554
Ni5 Sb22 2.640143 1_555
Ni5 Sb0 2.642578 1_555
Ni5 Ni7 2.773370 1_555
Ni6 Sb9 2.550889 1_454
Ni6 Sb10 2.604002 1_565
Ni6 Sb13 2.605136 1_465
Ni6 Sb6 2.609033 1_564
Ni6 Sb14 2.639445 1_555
Ni6 Sb12 2.641358 1_455
Ni7 Sb3 2.551407 1_554
Ni7 Sb10 2.603068 1_555
Ni7 Sb13 2.605561 1_555
Ni7 Sb6 2.609034 1_554
Ni7 Sb22 2.639914 1_555
Ni7 Sb0 2.642226 1_555
Sb0 Sb22 3.193203 1_655
Sb2 Sb8 3.028967 1_555
Sb5 Sb9 3.193203 1_455
Sb11 Sb16 3.022475 1_455
Sb11 Sb21 3.029306 1_555
Sb11 Sb15 3.109970 1_455
Sb11 Sb15 3.109975 1_555
Sb12 Sb14 3.194627 1_555
Sb15 Sb2 3.022792 1_555
Sb15 Sb20 3.028967 1_555
Sb16 Sb23 3.029294 1_555
Sb16 Sb2 3.109970 1_655
Sb16 Sb2 3.109975 1_555
Sb19 Sb3 3.194627 1_555
Sb20 Sb8 3.022791 1_565
Sb20 Sb21 3.109966 1_655
Sb20 Sb21 3.109981 1_555
Sb21 Sb23 3.022460 1_465
Sb23 Sb8 3.109966 1_655
Sb23 Sb8 3.109981 1_555
