# generated using pymatgen
data_SiO2
_symmetry_space_group_name_H-M   'P 1'
_cell_length_a   8.28882833
_cell_length_b   8.28882833
_cell_length_c   7.54689400
_cell_angle_alpha   90.00000000
_cell_angle_beta   90.00000000
_cell_angle_gamma   120.00000266
_symmetry_Int_Tables_number   1
_chemical_formula_structural   SiO2
_chemical_formula_sum   'Si12 O24'
_cell_volume   449.04013587
_cell_formula_units_Z   12
loop_
 _symmetry_equiv_pos_site_id
 _symmetry_equiv_pos_as_xyz
  1  'x, y, z'
loop_
 _atom_site_type_symbol
 _atom_site_label
 _atom_site_symmetry_multiplicity
 _atom_site_fract_x
 _atom_site_fract_y
 _atom_site_fract_z
 _atom_site_occupancy
  Si  Si0  1  0.71008000  0.64958000  0.57258600  1
  Si  Si1  1  0.93950000  0.28992000  0.57258600  1
  Si  Si2  1  0.93950000  0.64958000  0.92741400  1
  Si  Si3  1  0.35042000  0.28992000  0.92741400  1
  Si  Si4  1  0.64958000  0.93950000  0.42741400  1
  Si  Si5  1  0.06050000  0.35042000  0.07258600  1
  Si  Si6  1  0.06050000  0.71008000  0.42741400  1
  Si  Si7  1  0.64958000  0.71008000  0.07258600  1
  Si  Si8  1  0.28992000  0.93950000  0.07258600  1
  Si  Si9  1  0.28992000  0.35042000  0.42741400  1
  Si  Si10  1  0.71008000  0.06050000  0.92741400  1
  Si  Si11  1  0.35042000  0.06050000  0.57258600  1
  O  O0  1  0.30808200  0.16455500  0.41174600  1
  O  O1  1  0.60193800  0.80096900  0.25000000  1
  O  O2  1  0.00000000  0.50000000  0.00000000  1
  O  O3  1  0.69191800  0.85647200  0.91174600  1
  O  O4  1  0.80096900  0.60193800  0.75000000  1
  O  O5  1  0.85647200  0.69191800  0.41174600  1
  O  O6  1  0.39806200  0.19903100  0.75000000  1
  O  O7  1  0.14352800  0.30808200  0.58825400  1
  O  O8  1  0.69191800  0.83544500  0.58825400  1
  O  O9  1  0.30808200  0.14352800  0.08825400  1
  O  O10  1  0.19903100  0.39806200  0.25000000  1
  O  O11  1  0.83544500  0.14352800  0.41174600  1
  O  O12  1  0.50000000  0.50000000  0.50000000  1
  O  O13  1  0.19903100  0.80096900  0.25000000  1
  O  O14  1  0.16455500  0.85647200  0.58825400  1
  O  O15  1  0.83544500  0.69191800  0.08825400  1
  O  O16  1  0.50000000  0.00000000  0.00000000  1
  O  O17  1  0.16455500  0.30808200  0.91174600  1
  O  O18  1  0.14352800  0.83544500  0.91174600  1
  O  O19  1  0.85647200  0.16455500  0.08825400  1
  O  O20  1  0.50000000  0.00000000  0.50000000  1
  O  O21  1  0.50000000  0.50000000  0.00000000  1
  O  O22  1  0.80096900  0.19903100  0.75000000  1
  O  O23  1  0.00000000  0.50000000  0.50000000  1
loop_
_geom_bond_atom_site_label_1
_geom_bond_atom_site_label_2
_geom_bond_distance
_geom_bond_site_symmetry_2
O0 Si9 1.625431 1_555
O0 Si11 1.625774 1_555
O1 Si4 1.677414 1_555
O1 Si7 1.677414 1_555
O2 Si5 1.646366 1_555
O2 Si2 1.646366 1_454
O3 Si10 1.625440 1_565
O3 Si7 1.625768 1_556
O4 Si2 1.677414 1_555
O4 Si0 1.677414 1_555
O5 Si6 1.625440 1_655
O5 Si0 1.625768 1_555
O6 Si11 1.677414 1_555
O6 Si3 1.677414 1_555
O7 Si1 1.625440 1_455
O7 Si9 1.625768 1_555
O8 Si0 1.625431 1_555
O8 Si4 1.625774 1_555
O9 Si8 1.625440 1_545
O9 Si3 1.625768 1_554
O10 Si5 1.677414 1_555
O10 Si9 1.677414 1_555
O11 Si4 1.625436 1_545
O11 Si1 1.625770 1_555
O12 Si9 1.646365 1_555
O12 Si0 1.646365 1_555
O13 Si8 1.677414 1_555
O13 Si6 1.677414 1_555
O14 Si11 1.625436 1_565
O14 Si6 1.625770 1_555
O15 Si7 1.625431 1_555
O15 Si2 1.625774 1_554
O16 Si8 1.646366 1_545
O16 Si10 1.646366 1_554
O17 Si3 1.625431 1_555
O17 Si5 1.625774 1_556
O18 Si2 1.625436 1_455
O18 Si8 1.625770 1_556
O19 Si5 1.625436 1_655
O19 Si10 1.625770 1_554
O20 Si11 1.646366 1_555
O20 Si4 1.646366 1_545
O21 Si3 1.646365 1_554
O21 Si7 1.646365 1_555
O22 Si1 1.677414 1_555
O22 Si10 1.677414 1_555
O23 Si1 1.646366 1_455
O23 Si6 1.646366 1_555
