# generated using pymatgen
data_NaY(SeO3)2
_symmetry_space_group_name_H-M   'P 1'
_cell_length_a   5.39608398
_cell_length_b   8.53326652
_cell_length_c   12.69626348
_cell_angle_alpha   90.00000000
_cell_angle_beta   90.00000000
_cell_angle_gamma   90.00000000
_symmetry_Int_Tables_number   1
_chemical_formula_structural   NaY(SeO3)2
_chemical_formula_sum   'Na4 Y4 Se8 O24'
_cell_volume   584.61497649
_cell_formula_units_Z   4
loop_
 _symmetry_equiv_pos_site_id
 _symmetry_equiv_pos_as_xyz
  1  'x, y, z'
loop_
 _atom_site_type_symbol
 _atom_site_label
 _atom_site_symmetry_multiplicity
 _atom_site_fract_x
 _atom_site_fract_y
 _atom_site_fract_z
 _atom_site_occupancy
  Na  Na0  1  0.79499277  0.99024912  0.61820879  1
  Na  Na1  1  0.79499277  0.50975088  0.11820879  1
  Na  Na2  1  0.29499277  0.00975088  0.38179121  1
  Na  Na3  1  0.29499277  0.49024912  0.88179121  1
  Y  Y0  1  0.24122133  0.17639826  0.08409287  1
  Y  Y1  1  0.74122133  0.82360174  0.91590713  1
  Y  Y2  1  0.74122133  0.67639826  0.41590713  1
  Y  Y3  1  0.24122133  0.32360174  0.58409287  1
  Se  Se0  1  0.74868781  0.96899301  0.20182099  1
  Se  Se1  1  0.24868781  0.46899301  0.29817901  1
  Se  Se2  1  0.79551479  0.26550868  0.41660427  1
  Se  Se3  1  0.29551479  0.73449132  0.58339573  1
  Se  Se4  1  0.74868781  0.53100699  0.70182099  1
  Se  Se5  1  0.29551479  0.76550868  0.08339573  1
  Se  Se6  1  0.24868781  0.03100699  0.79817901  1
  Se  Se7  1  0.79551479  0.23449132  0.91660427  1
  O  O0  1  0.99462415  0.14794218  0.48370930  1
  O  O1  1  0.06115654  0.87019669  0.80020791  1
  O  O2  1  0.19378957  0.09585106  0.67358790  1
  O  O3  1  0.37971589  0.56470452  0.51551771  1
  O  O4  1  0.01838535  0.78132684  0.52946198  1
  O  O5  1  0.49462415  0.85205782  0.51629070  1
  O  O6  1  0.54021082  0.54637623  0.28447168  1
  O  O7  1  0.06115654  0.62980331  0.30020791  1
  O  O8  1  0.01838535  0.71867316  0.02946198  1
  O  O9  1  0.69378957  0.90414894  0.32641210  1
  O  O10  1  0.04021082  0.04637623  0.21552832  1
  O  O11  1  0.51838535  0.21867316  0.47053802  1
  O  O12  1  0.69378957  0.59585106  0.82641210  1
  O  O13  1  0.19378957  0.40414894  0.17358790  1
  O  O14  1  0.99462415  0.35205782  0.98370930  1
  O  O15  1  0.37971589  0.93529548  0.01551771  1
  O  O16  1  0.56115654  0.37019669  0.69979209  1
  O  O17  1  0.87971589  0.43529548  0.48448229  1
  O  O18  1  0.49462415  0.64794218  0.01629070  1
  O  O19  1  0.04021082  0.45362377  0.71552832  1
  O  O20  1  0.56115654  0.12980331  0.19979209  1
  O  O21  1  0.54021082  0.95362377  0.78447168  1
  O  O22  1  0.51838535  0.28132684  0.97053802  1
  O  O23  1  0.87971589  0.06470452  0.98448229  1
loop_
_geom_bond_atom_site_label_1
_geom_bond_atom_site_label_2
_geom_bond_distance
_geom_bond_site_symmetry_2
Na0 O5 2.385789 1_555
Na0 O0 2.426354 1_565
Na0 O4 2.429199 1_655
Na0 O2 2.436646 1_665
Na0 O21 2.538463 1_555
Na1 O18 2.385789 1_555
Na1 O14 2.426354 1_554
Na1 O8 2.429199 1_655
Na1 O13 2.436646 1_655
Na1 O6 2.538463 1_555
Na2 O0 2.385789 1_455
Na2 O5 2.426354 1_545
Na2 O11 2.429199 1_555
Na2 O9 2.436646 1_545
Na2 O10 2.538463 1_555
Na3 O14 2.385789 1_455
Na3 O18 2.426354 1_556
Na3 O22 2.429199 1_555
Na3 O12 2.436646 1_555
Na3 O19 2.538463 1_555
O0 Se2 1.699028 1_555
O0 Y3 2.375257 1_655
O1 Se6 1.705201 1_565
O1 Y1 2.301379 1_455
O2 Se6 1.701809 1_555
O2 Y3 2.265746 1_555
O3 Se3 1.745927 1_555
O3 Y3 2.355716 1_555
O3 Y2 2.512594 1_555
O4 Se3 1.692596 1_555
O4 Y2 2.262100 1_455
O5 Se3 1.699028 1_555
O5 Y2 2.375257 1_555
O6 Se1 1.714909 1_555
O6 Y2 2.278644 1_555
O7 Se1 1.705201 1_555
O7 Y2 2.301379 1_455
O8 Se5 1.692596 1_555
O8 Y1 2.262100 1_454
O9 Se0 1.701809 1_555
O9 Y2 2.265746 1_555
O10 Se0 1.714909 1_445
O10 Y0 2.278644 1_555
O11 Se2 1.692596 1_555
O11 Y3 2.262100 1_555
O12 Se4 1.701809 1_555
O12 Y1 2.265746 1_555
O13 Se1 1.701809 1_555
O13 Y0 2.265746 1_555
O14 Se7 1.699028 1_555
O14 Y0 2.375257 1_656
O15 Se5 1.745927 1_555
O15 Y0 2.355716 1_565
O15 Y1 2.512594 1_554
O16 Se4 1.705201 1_555
O16 Y3 2.301379 1_555
O17 Se2 1.745927 1_555
O17 Y2 2.355716 1_555
O17 Y3 2.512594 1_655
O18 Se5 1.699028 1_555
O18 Y1 2.375257 1_554
O19 Se4 1.714909 1_455
O19 Y3 2.278644 1_555
O20 Se0 1.705201 1_545
O20 Y0 2.301379 1_555
O21 Se6 1.714909 1_565
O21 Y1 2.278644 1_555
O22 Se7 1.692596 1_555
O22 Y0 2.262100 1_556
O23 Se7 1.745927 1_555
O23 Y1 2.355716 1_545
O23 Y0 2.512594 1_656
