# generated using pymatgen
data_KBa2(PO3)5
_symmetry_space_group_name_H-M   'P 1'
_cell_length_a   7.44070000
_cell_length_b   8.79104900
_cell_length_c   13.97638569
_cell_angle_alpha   51.65477852
_cell_angle_beta   90.00000000
_cell_angle_gamma   90.00000000
_symmetry_Int_Tables_number   1
_chemical_formula_structural   KBa2(PO3)5
_chemical_formula_sum   'K2 Ba4 P10 O30'
_cell_volume   717.00860001
_cell_formula_units_Z   2
loop_
 _symmetry_equiv_pos_site_id
 _symmetry_equiv_pos_as_xyz
  1  'x, y, z'
loop_
 _atom_site_type_symbol
 _atom_site_label
 _atom_site_symmetry_multiplicity
 _atom_site_fract_x
 _atom_site_fract_y
 _atom_site_fract_z
 _atom_site_occupancy
  K  K0  1  0.64400800  0.93667000  0.12042300  1
  K  K1  1  0.35599200  0.93667000  0.62042300  1
  Ba  Ba0  1  0.83606200  0.75434100  0.49854100  1
  Ba  Ba1  1  0.12857000  0.34194800  0.91076100  1
  Ba  Ba2  1  0.16393800  0.75434100  0.99854100  1
  Ba  Ba3  1  0.87143000  0.34194800  0.41076100  1
  P  P0  1  0.34139900  0.55138200  0.60279000  1
  P  P1  1  0.15613100  0.17221400  0.24103800  1
  P  P2  1  0.65210400  0.51956600  0.90216200  1
  P  P3  1  0.10147200  0.84149700  0.22863000  1
  P  P4  1  0.45022500  0.13169100  0.80524900  1
  P  P5  1  0.54977500  0.13169100  0.30524900  1
  P  P6  1  0.65860100  0.55138200  0.10279000  1
  P  P7  1  0.34789600  0.51956600  0.40216200  1
  P  P8  1  0.84386900  0.17221400  0.74103800  1
  P  P9  1  0.89852800  0.84149700  0.72863000  1
  O  O0  1  0.94284400  0.93942100  0.59701500  1
  O  O1  1  0.19868900  0.99698800  0.23556300  1
  O  O2  1  0.82643300  0.57609800  0.15284500  1
  O  O3  1  0.38724400  0.32535700  0.67473900  1
  O  O4  1  0.28912800  0.60752700  0.47203900  1
  O  O5  1  0.61275600  0.32535700  0.17473900  1
  O  O6  1  0.04844400  0.73552700  0.82014200  1
  O  O7  1  0.73170800  0.69761100  0.76491000  1
  O  O8  1  0.66371400  0.16555000  0.80741000  1
  O  O9  1  0.33628600  0.16555000  0.30741000  1
  O  O10  1  0.26829200  0.69761100  0.26491000  1
  O  O11  1  0.62475600  0.12011300  0.40976200  1
  O  O12  1  0.17356700  0.57609800  0.65284500  1
  O  O13  1  0.58960500  0.96787400  0.30237400  1
  O  O14  1  0.45264200  0.51869900  0.89073000  1
  O  O15  1  0.23697900  0.34265100  0.45037300  1
  O  O16  1  0.95155600  0.73552700  0.32014200  1
  O  O17  1  0.49483300  0.65975000  0.09249100  1
  O  O18  1  0.14855400  0.35619800  0.11146000  1
  O  O19  1  0.80131100  0.99698800  0.73556300  1
  O  O20  1  0.50516700  0.65975000  0.59249100  1
  O  O21  1  0.37524400  0.12011300  0.90976200  1
  O  O22  1  0.76302100  0.34265100  0.95037300  1
  O  O23  1  0.99502600  0.11850500  0.82766300  1
  O  O24  1  0.05715600  0.93942100  0.09701500  1
  O  O25  1  0.54735800  0.51869900  0.39073000  1
  O  O26  1  0.71087200  0.60752700  0.97203900  1
  O  O27  1  0.41039500  0.96787400  0.80237400  1
  O  O28  1  0.00497400  0.11850500  0.32766300  1
  O  O29  1  0.85144600  0.35619800  0.61146000  1
loop_
_geom_bond_atom_site_label_1
_geom_bond_atom_site_label_2
_geom_bond_distance
_geom_bond_site_symmetry_2
K0 O13 2.751657 1_555
K0 O17 2.913766 1_555
K0 O22 2.940349 1_564
K0 O21 3.062217 1_564
K0 O24 3.089977 1_655
K0 O16 3.167122 1_555
K0 O2 3.211419 1_555
K0 O10 3.323265 1_555
K0 O25 3.326684 1_555
K1 O27 2.751657 1_555
K1 O20 2.913766 1_555
K1 O15 2.940349 1_565
K1 O11 3.062217 1_565
K1 O0 3.089977 1_455
K1 O6 3.167122 1_555
K1 O12 3.211419 1_555
K1 O7 3.323265 1_555
K1 O14 3.326684 1_555
Ba0 O20 2.668844 1_555
Ba0 O16 2.737600 1_555
Ba0 O29 2.810784 1_555
Ba0 O0 2.819812 1_555
Ba0 O13 2.831545 1_555
Ba0 O28 2.836449 1_665
Ba0 O12 3.036408 1_655
Ba0 O11 3.066040 1_565
Ba1 O21 2.684382 1_555
Ba1 O22 2.776485 1_455
Ba1 O14 2.787018 1_555
Ba1 O12 2.852457 1_555
Ba1 O24 2.854990 1_546
Ba1 O18 2.888269 1_556
Ba1 O6 2.914377 1_555
Ba1 O23 3.004230 1_455
Ba2 O17 2.668844 1_556
Ba2 O6 2.737600 1_555
Ba2 O18 2.810784 1_556
Ba2 O24 2.819812 1_556
Ba2 O27 2.831545 1_555
Ba2 O23 2.836449 1_465
Ba2 O2 3.036408 1_456
Ba2 O21 3.066040 1_565
Ba3 O11 2.684382 1_555
Ba3 O15 2.776485 1_655
Ba3 O25 2.787018 1_555
Ba3 O2 2.852457 1_555
Ba3 O0 2.854990 1_545
Ba3 O29 2.888269 1_555
Ba3 O16 2.914377 1_555
Ba3 O28 3.004230 1_655
O0 P9 1.506225 1_555
O1 P3 1.601713 1_555
O1 P1 1.620272 1_565
O2 P6 1.511527 1_555
O3 P4 1.609997 1_555
O3 P0 1.611363 1_555
O4 P0 1.617161 1_555
O4 P7 1.637071 1_555
O5 P5 1.609997 1_555
O5 P6 1.611363 1_555
O6 P9 1.506517 1_455
O7 P9 1.613070 1_555
O7 P2 1.659823 1_555
O8 P8 1.610405 1_555
O8 P4 1.619884 1_555
O9 P1 1.610405 1_555
O9 P5 1.619884 1_555
O10 P3 1.613070 1_555
O10 P7 1.659823 1_555
O11 P5 1.506929 1_555
O12 P0 1.511527 1_555
O13 P5 1.495059 1_565
O14 P2 1.493238 1_555
O15 P7 1.501232 1_555
O16 P3 1.506517 1_655
O17 P6 1.497667 1_555
O18 P1 1.504831 1_555
O19 P9 1.601713 1_555
O19 P8 1.620272 1_565
O20 P0 1.497667 1_555
O21 P4 1.506929 1_555
O22 P2 1.501232 1_555
O23 P8 1.498141 1_555
O24 P3 1.506225 1_555
O25 P7 1.493238 1_555
O26 P6 1.617161 1_556
O26 P2 1.637071 1_555
O27 P4 1.495059 1_565
O28 P1 1.498141 1_555
O29 P8 1.504831 1_555
