# generated using pymatgen
data_HfAlPt
_symmetry_space_group_name_H-M   'P 1'
_cell_length_a   7.10596791
_cell_length_b   7.10596774
_cell_length_c   7.10873464
_cell_angle_alpha   90.00000000
_cell_angle_beta   90.00000000
_cell_angle_gamma   120.00000550
_symmetry_Int_Tables_number   1
_chemical_formula_structural   HfAlPt
_chemical_formula_sum   'Hf6 Al6 Pt6'
_cell_volume   310.86325056
_cell_formula_units_Z   6
loop_
 _symmetry_equiv_pos_site_id
 _symmetry_equiv_pos_as_xyz
  1  'x, y, z'
loop_
 _atom_site_type_symbol
 _atom_site_label
 _atom_site_symmetry_multiplicity
 _atom_site_fract_x
 _atom_site_fract_y
 _atom_site_fract_z
 _atom_site_occupancy
  Hf  Hf0  1  0.41289766  0.39199233  0.25000000  1
  Hf  Hf1  1  0.39199233  0.41289766  0.75000000  1
  Hf  Hf2  1  0.60800767  0.02090733  0.25000000  1
  Hf  Hf3  1  0.02090733  0.60800767  0.75000000  1
  Hf  Hf4  1  0.58710234  0.97909267  0.75000000  1
  Hf  Hf5  1  0.97909267  0.58710234  0.25000000  1
  Al  Al0  1  0.00000000  0.25987967  -0.00000000  1
  Al  Al1  1  0.25987967  0.00000000  0.50000000  1
  Al  Al2  1  0.25987967  0.00000000  -0.00000000  1
  Al  Al3  1  0.00000000  0.25987967  0.50000000  1
  Al  Al4  1  0.74012033  0.74012033  -0.00000000  1
  Al  Al5  1  0.74012033  0.74012033  0.50000000  1
  Pt  Pt0  1  0.33333300  0.66666700  0.47023201  1
  Pt  Pt1  1  0.66666700  0.33333300  0.52976799  1
  Pt  Pt2  1  0.00000000  0.00000000  0.25000000  1
  Pt  Pt3  1  0.66666700  0.33333300  0.97023201  1
  Pt  Pt4  1  0.33333300  0.66666700  0.02976799  1
  Pt  Pt5  1  0.00000000  0.00000000  0.75000000  1
loop_
_geom_bond_atom_site_label_1
_geom_bond_atom_site_label_2
_geom_bond_distance
_geom_bond_site_symmetry_2
Hf0 Pt0 2.771974 1_555
Hf0 Pt4 2.771974 1_555
Hf0 Pt3 2.851759 1_554
Hf0 Pt1 2.851759 1_555
Hf0 Pt2 2.862653 1_555
Hf1 Pt1 2.771974 1_555
Hf1 Pt3 2.771974 1_555
Hf1 Pt0 2.851759 1_555
Hf1 Pt4 2.851759 1_556
Hf1 Pt5 2.862653 1_555
Hf2 Pt4 2.771978 1_545
Hf2 Pt0 2.771978 1_545
Hf2 Pt3 2.851744 1_554
Hf2 Pt1 2.851744 1_555
Hf2 Pt2 2.862661 1_655
Hf3 Pt1 2.771978 1_455
Hf3 Pt3 2.771978 1_455
Hf3 Pt0 2.851744 1_555
Hf3 Pt4 2.851744 1_556
Hf3 Pt5 2.862661 1_565
Hf4 Pt3 2.771980 1_565
Hf4 Pt1 2.771980 1_565
Hf4 Pt0 2.851749 1_555
Hf4 Pt4 2.851749 1_556
Hf4 Pt5 2.862647 1_665
Hf5 Pt0 2.771980 1_655
Hf5 Pt4 2.771980 1_655
Hf5 Pt1 2.851749 1_555
Hf5 Pt3 2.851749 1_554
Hf5 Pt2 2.862647 1_665
Al0 Pt5 2.562942 1_554
Al0 Pt2 2.562942 1_555
Al0 Pt3 2.676579 1_454
Al0 Pt4 2.676583 1_555
Al0 Hf3 2.988737 1_554
Al0 Hf5 2.988749 1_455
Al0 Hf2 3.011783 1_455
Al0 Hf1 3.011785 1_554
Al0 Hf0 3.145448 1_555
Al0 Hf4 3.145450 1_444
Al1 Pt5 2.562942 1_555
Al1 Pt2 2.562942 1_555
Al1 Pt0 2.676579 1_545
Al1 Pt1 2.676583 1_555
Al1 Hf2 2.988737 1_555
Al1 Hf4 2.988749 1_545
Al1 Hf3 3.011783 1_545
Al1 Hf0 3.011784 1_555
Al1 Hf1 3.145448 1_555
Al1 Hf5 3.145450 1_445
Al2 Pt5 2.562942 1_554
Al2 Pt2 2.562942 1_555
Al2 Pt4 2.676579 1_545
Al2 Pt3 2.676583 1_554
Al2 Hf2 2.988737 1_555
Al2 Hf4 2.988749 1_544
Al2 Hf3 3.011783 1_544
Al2 Hf0 3.011784 1_555
Al2 Hf1 3.145448 1_554
Al2 Hf5 3.145450 1_445
Al3 Pt5 2.562942 1_555
Al3 Pt2 2.562942 1_555
Al3 Pt1 2.676579 1_455
Al3 Pt0 2.676583 1_555
Al3 Hf3 2.988737 1_555
Al3 Hf5 2.988749 1_455
Al3 Hf2 3.011783 1_455
Al3 Hf1 3.011785 1_555
Al3 Hf0 3.145448 1_555
Al3 Hf4 3.145450 1_445
Al4 Pt5 2.562942 1_664
Al4 Pt2 2.562942 1_665
Al4 Pt3 2.676586 1_554
Al4 Pt4 2.676586 1_555
Al4 Hf0 2.988742 1_555
Al4 Hf1 2.988742 1_554
Al4 Hf4 3.011774 1_554
Al4 Hf5 3.011774 1_555
Al4 Hf2 3.145459 1_565
Al4 Hf3 3.145459 1_654
Al5 Pt2 2.562942 1_665
Al5 Pt5 2.562942 1_665
Al5 Pt1 2.676586 1_555
Al5 Pt0 2.676586 1_555
Al5 Hf0 2.988742 1_555
Al5 Hf1 2.988742 1_555
Al5 Hf4 3.011774 1_555
Al5 Hf5 3.011774 1_555
Al5 Hf2 3.145459 1_565
Al5 Hf3 3.145459 1_655
