# generated using pymatgen
data_Rb(CoS)2
_symmetry_space_group_name_H-M   'P 1'
_cell_length_a   3.71237563
_cell_length_b   3.71237553
_cell_length_c   7.52812463
_cell_angle_alpha   104.27445086
_cell_angle_beta   104.27444904
_cell_angle_gamma   90.00001407
_symmetry_Int_Tables_number   1
_chemical_formula_structural   Rb(CoS)2
_chemical_formula_sum   'Rb1 Co2 S2'
_cell_volume   97.23869760
_cell_formula_units_Z   1
loop_
 _symmetry_equiv_pos_site_id
 _symmetry_equiv_pos_as_xyz
  1  'x, y, z'
loop_
 _atom_site_type_symbol
 _atom_site_label
 _atom_site_symmetry_multiplicity
 _atom_site_fract_x
 _atom_site_fract_y
 _atom_site_fract_z
 _atom_site_occupancy
  Rb  Rb0  1  -0.00000000  -0.00000000  -0.00000000  1
  Co  Co0  1  0.25000000  0.75000000  0.50000000  1
  Co  Co1  1  0.75000000  0.25000000  0.50000000  1
  S  S0  1  0.34966951  0.34966951  0.69933803  1
  S  S1  1  0.65033049  0.65033049  0.30066197  1
loop_
_geom_bond_atom_site_label_1
_geom_bond_atom_site_label_2
_geom_bond_distance
_geom_bond_site_symmetry_2
Rb0 S1 3.375057 1_555
Rb0 S0 3.375057 1_444
Rb0 S0 3.375059 1_544
Rb0 S1 3.375059 1_455
Rb0 S0 3.375059 1_454
Rb0 S1 3.375059 1_545
Rb0 S0 3.375060 1_554
Rb0 S1 3.375060 1_445
Co0 S1 2.328849 1_555
Co0 S0 2.328849 1_555
Co0 S0 2.328852 1_565
Co0 S1 2.328852 1_455
Co1 S0 2.328849 1_555
Co1 S1 2.328849 1_555
Co1 S1 2.328852 1_545
Co1 S0 2.328852 1_655
