# generated using pymatgen
data_NdTl(MoO4)2
_symmetry_space_group_name_H-M   'P 1'
_cell_length_a   6.41116100
_cell_length_b   6.41116100
_cell_length_c   9.70717600
_cell_angle_alpha   90.00000000
_cell_angle_beta   90.00000000
_cell_angle_gamma   90.00000000
_symmetry_Int_Tables_number   1
_chemical_formula_structural   NdTl(MoO4)2
_chemical_formula_sum   'Nd2 Tl2 Mo4 O16'
_cell_volume   398.99391309
_cell_formula_units_Z   2
loop_
 _symmetry_equiv_pos_site_id
 _symmetry_equiv_pos_as_xyz
  1  'x, y, z'
loop_
 _atom_site_type_symbol
 _atom_site_label
 _atom_site_symmetry_multiplicity
 _atom_site_fract_x
 _atom_site_fract_y
 _atom_site_fract_z
 _atom_site_occupancy
  Nd  Nd0  1  0.00000000  0.00000000  0.00000000  1
  Nd  Nd1  1  0.50000000  0.50000000  0.50000000  1
  Tl  Tl0  1  0.00000000  0.00000000  0.50000000  1
  Tl  Tl1  1  0.50000000  0.50000000  0.00000000  1
  Mo  Mo0  1  0.00000000  0.50000000  0.75000000  1
  Mo  Mo1  1  0.00000000  0.50000000  0.25000000  1
  Mo  Mo2  1  0.50000000  0.00000000  0.75000000  1
  Mo  Mo3  1  0.50000000  0.00000000  0.25000000  1
  O  O0  1  0.38931000  0.19621300  0.36071300  1
  O  O1  1  0.38931000  0.80378700  0.63928700  1
  O  O2  1  0.11069000  0.69621300  0.86071300  1
  O  O3  1  0.61069000  0.19621300  0.63928700  1
  O  O4  1  0.11069000  0.30378700  0.13928700  1
  O  O5  1  0.80378700  0.38931000  0.36071300  1
  O  O6  1  0.30378700  0.11069000  0.86071300  1
  O  O7  1  0.19621300  0.61069000  0.36071300  1
  O  O8  1  0.88931000  0.69621300  0.13928700  1
  O  O9  1  0.69621300  0.88931000  0.86071300  1
  O  O10  1  0.61069000  0.80378700  0.36071300  1
  O  O11  1  0.80378700  0.61069000  0.63928700  1
  O  O12  1  0.19621300  0.38931000  0.63928700  1
  O  O13  1  0.88931000  0.30378700  0.86071300  1
  O  O14  1  0.30378700  0.88931000  0.13928700  1
  O  O15  1  0.69621300  0.11069000  0.13928700  1
loop_
_geom_bond_atom_site_label_1
_geom_bond_atom_site_label_2
_geom_bond_distance
_geom_bond_site_symmetry_2
Nd0 O15 2.474871 1_455
Nd0 O8 2.474871 1_445
Nd0 O14 2.474871 1_545
Nd0 O6 2.474871 1_554
Nd0 O13 2.474871 1_454
Nd0 O4 2.474871 1_555
Nd0 O2 2.474871 1_544
Nd0 O9 2.474871 1_444
Nd1 O7 2.474871 1_555
Nd1 O10 2.474871 1_555
Nd1 O1 2.474871 1_555
Nd1 O5 2.474871 1_555
Nd1 O3 2.474871 1_555
Nd1 O11 2.474871 1_555
Nd1 O12 2.474871 1_555
Nd1 O0 2.474871 1_555
Mo0 O2 1.800293 1_555
Mo0 O11 1.800293 1_455
Mo0 O13 1.800293 1_455
Mo0 O12 1.800293 1_555
Mo1 O8 1.800293 1_455
Mo1 O5 1.800293 1_455
Mo1 O7 1.800293 1_555
Mo1 O4 1.800293 1_555
Mo2 O9 1.800293 1_545
Mo2 O3 1.800293 1_555
Mo2 O1 1.800293 1_545
Mo2 O6 1.800293 1_555
Mo3 O15 1.800293 1_555
Mo3 O10 1.800293 1_545
Mo3 O0 1.800293 1_555
Mo3 O14 1.800293 1_545
