# generated using pymatgen
data_La3CI5
_symmetry_space_group_name_H-M   'P 1'
_cell_length_a   8.08891052
_cell_length_b   9.79754132
_cell_length_c   9.89183735
_cell_angle_alpha   107.35828784
_cell_angle_beta   97.40299106
_cell_angle_gamma   105.12944358
_symmetry_Int_Tables_number   1
_chemical_formula_structural   La3CI5
_chemical_formula_sum   'La6 C2 I10'
_cell_volume   703.89131023
_cell_formula_units_Z   2
loop_
 _symmetry_equiv_pos_site_id
 _symmetry_equiv_pos_as_xyz
  1  'x, y, z'
loop_
 _atom_site_type_symbol
 _atom_site_label
 _atom_site_symmetry_multiplicity
 _atom_site_fract_x
 _atom_site_fract_y
 _atom_site_fract_z
 _atom_site_occupancy
  La  La0  1  0.62237908  0.86104123  0.81505939  1
  La  La1  1  0.02922388  0.72875826  0.92202552  1
  La  La2  1  0.10700236  0.04053420  0.77344610  1
  La  La3  1  0.97077612  0.27124174  0.07797448  1
  La  La4  1  0.89299764  0.95946580  0.22655390  1
  La  La5  1  0.37762092  0.13895877  0.18494061  1
  C  C0  1  0.08692229  0.03091479  0.04175147  1
  C  C1  1  0.91307771  0.96908521  0.95824853  1
  I  I0  1  0.18526629  0.72851886  0.63947641  1
  I  I1  1  0.91026366  0.62667726  0.18323700  1
  I  I2  1  0.08973634  0.37332274  0.81676300  1
  I  I3  1  0.73978208  0.91196394  0.53172238  1
  I  I4  1  0.26021792  0.08803606  0.46827762  1
  I  I5  1  0.64817701  0.53303258  0.72164380  1
  I  I6  1  0.45541957  0.80785206  0.09197568  1
  I  I7  1  0.81473371  0.27148114  0.36052359  1
  I  I8  1  0.35182299  0.46696742  0.27835620  1
  I  I9  1  0.54458043  0.19214794  0.90802432  1
loop_
_geom_bond_atom_site_label_1
_geom_bond_atom_site_label_2
_geom_bond_distance
_geom_bond_site_symmetry_2
C0 C1 1.408588 1_444
C0 La5 2.367222 1_555
C0 La4 2.687320 1_445
C0 La3 2.700614 1_455
C0 La2 2.707675 1_554
C0 La1 2.725554 1_544
C1 La0 2.367222 1_555
C1 La2 2.687320 1_665
C1 La1 2.700614 1_655
C1 La4 2.707675 1_556
C1 La3 2.725554 1_566
I0 La2 3.211110 1_565
I0 La1 3.211160 1_555
I0 La0 3.446672 1_555
I1 La4 3.202113 1_555
I1 La1 3.206697 1_654
I1 La3 3.508326 1_555
I2 La2 3.202113 1_555
I2 La3 3.206697 1_456
I2 La1 3.508326 1_555
I3 La0 3.206084 1_555
I3 La2 3.247573 1_665
I3 La4 3.516572 1_555
I4 La5 3.206084 1_555
I4 La4 3.247573 1_445
I4 La2 3.516572 1_555
I5 La0 3.138943 1_555
I5 La1 3.190411 1_655
I6 La0 3.322113 1_554
I6 La5 3.346665 1_565
I6 La4 3.371682 1_555
I6 La1 3.412664 1_554
I7 La4 3.211110 1_545
I7 La3 3.211160 1_555
I7 La5 3.446672 1_555
I8 La5 3.138943 1_555
I8 La3 3.190411 1_455
I9 La5 3.322113 1_556
I9 La0 3.346665 1_545
I9 La2 3.371682 1_555
I9 La3 3.412664 1_556
