# generated using pymatgen
data_Sr2CaCu2(BiO4)2
_symmetry_space_group_name_H-M   'P 1'
_cell_length_a   16.12815350
_cell_length_b   16.12815350
_cell_length_c   16.12815350
_cell_angle_alpha   166.63902784
_cell_angle_beta   166.63902784
_cell_angle_gamma   18.93858236
_symmetry_Int_Tables_number   1
_chemical_formula_structural   Sr2CaCu2(BiO4)2
_chemical_formula_sum   'Sr2 Ca1 Cu2 Bi2 O8'
_cell_volume   224.00486288
_cell_formula_units_Z   1
loop_
 _symmetry_equiv_pos_site_id
 _symmetry_equiv_pos_as_xyz
  1  'x, y, z'
loop_
 _atom_site_type_symbol
 _atom_site_label
 _atom_site_symmetry_multiplicity
 _atom_site_fract_x
 _atom_site_fract_y
 _atom_site_fract_z
 _atom_site_occupancy
  Sr  Sr0  1  0.89212300  0.89212300  0.00000000  1
  Sr  Sr1  1  0.10787700  0.10787700  0.00000000  1
  Ca  Ca0  1  0.00000000  0.00000000  0.00000000  1
  Cu  Cu0  1  0.54804200  0.54804200  0.00000000  1
  Cu  Cu1  1  0.45195800  0.45195800  0.00000000  1
  Bi  Bi0  1  0.30193400  0.30193400  0.00000000  1
  Bi  Bi1  1  0.69806600  0.69806600  0.00000000  1
  O  O0  1  0.19704700  0.19704700  0.00000000  1
  O  O1  1  0.44966400  0.94966400  0.50000000  1
  O  O2  1  0.55033700  0.05033700  0.50000000  1
  O  O3  1  0.80295300  0.80295300  0.00000000  1
  O  O4  1  0.36692800  0.36692800  0.00000000  1
  O  O5  1  0.63307200  0.63307200  0.00000000  1
  O  O6  1  0.94966400  0.44966400  0.50000000  1
  O  O7  1  0.05033700  0.55033700  0.50000000  1
loop_
_geom_bond_atom_site_label_1
_geom_bond_atom_site_label_2
_geom_bond_distance
_geom_bond_site_symmetry_2
Ca0 O1 2.466805 1_444
Ca0 O6 2.466805 1_444
Ca0 O1 2.466805 1_545
Ca0 O6 2.466805 1_455
Ca0 O2 2.466826 1_454
Ca0 O7 2.466826 1_555
Ca0 O7 2.466826 1_544
Ca0 O2 2.466826 1_555
Cu0 O7 1.877648 1_554
Cu0 O2 1.877648 1_554
Cu0 O2 1.877648 1_565
Cu0 O7 1.877648 1_655
Cu1 O6 1.877647 1_555
Cu1 O1 1.877647 1_555
Cu1 O1 1.877647 1_544
Cu1 O6 1.877647 1_454
Bi0 O4 2.067900 1_555
Bi0 O3 2.653585 1_444
Bi0 O3 2.653585 1_545
Bi0 O3 2.653585 1_455
Bi0 O3 2.653585 1_556
Bi1 O5 2.067900 1_555
Bi1 O0 2.653585 1_655
Bi1 O0 2.653585 1_666
Bi1 O0 2.653585 1_554
Bi1 O0 2.653585 1_565
O0 Sr1 2.837102 1_555
O1 Sr0 2.621440 1_556
O1 Sr0 2.621440 1_455
O2 Sr1 2.621418 1_656
O2 Sr1 2.621418 1_555
O3 Sr0 2.837102 1_555
O4 Sr0 2.771834 1_556
O4 Sr0 2.771834 1_444
O4 Sr0 2.771834 1_545
O4 Sr0 2.771834 1_455
O5 Sr1 2.771834 1_554
O5 Sr1 2.771834 1_565
O5 Sr1 2.771834 1_655
O5 Sr1 2.771834 1_666
O6 Sr0 2.621440 1_556
O6 Sr0 2.621440 1_545
O7 Sr1 2.621418 1_555
O7 Sr1 2.621418 1_566
