# generated using pymatgen
data_Lu2Ru2O7
_symmetry_space_group_name_H-M   'P 1'
_cell_length_a   7.13472439
_cell_length_b   7.13472439
_cell_length_c   7.13472439
_cell_angle_alpha   60.00000000
_cell_angle_beta   60.00000000
_cell_angle_gamma   60.00000000
_symmetry_Int_Tables_number   1
_chemical_formula_structural   Lu2Ru2O7
_chemical_formula_sum   'Lu4 Ru4 O14'
_cell_volume   256.81276480
_cell_formula_units_Z   2
loop_
 _symmetry_equiv_pos_site_id
 _symmetry_equiv_pos_as_xyz
  1  'x, y, z'
loop_
 _atom_site_type_symbol
 _atom_site_label
 _atom_site_symmetry_multiplicity
 _atom_site_fract_x
 _atom_site_fract_y
 _atom_site_fract_z
 _atom_site_occupancy
  Lu  Lu0  1  0.12500000  0.12500000  0.62500000  1
  Lu  Lu1  1  0.12500000  0.12500000  0.12500000  1
  Lu  Lu2  1  0.62500000  0.12500000  0.12500000  1
  Lu  Lu3  1  0.12500000  0.62500000  0.12500000  1
  Ru  Ru0  1  0.62500000  0.62500000  0.62500000  1
  Ru  Ru1  1  0.12500000  0.62500000  0.62500000  1
  Ru  Ru2  1  0.62500000  0.62500000  0.12500000  1
  Ru  Ru3  1  0.62500000  0.12500000  0.62500000  1
  O  O0  1  0.28633000  0.71367000  0.28633000  1
  O  O1  1  0.28633000  0.28633000  0.71367000  1
  O  O2  1  0.53633000  0.96367000  0.96367000  1
  O  O3  1  0.53633000  0.96367000  0.53633000  1
  O  O4  1  0.53633000  0.53633000  0.96367000  1
  O  O5  1  0.28633000  0.71367000  0.71367000  1
  O  O6  1  0.96367000  0.53633000  0.96367000  1
  O  O7  1  0.71367000  0.28633000  0.28633000  1
  O  O8  1  0.71367000  0.28633000  0.71367000  1
  O  O9  1  0.71367000  0.71367000  0.28633000  1
  O  O10  1  0.25000000  0.25000000  0.25000000  1
  O  O11  1  0.96367000  0.96367000  0.53633000  1
  O  O12  1  0.96367000  0.53633000  0.53633000  1
  O  O13  1  0.00000000  0.00000000  0.00000000  1
loop_
_geom_bond_atom_site_label_1
_geom_bond_atom_site_label_2
_geom_bond_distance
_geom_bond_site_symmetry_2
Lu0 O13 2.184554 1_556
Lu0 O10 2.184554 1_555
Lu0 O1 2.414814 1_555
Lu0 O8 2.414814 1_455
Lu0 O12 2.414814 1_455
Lu0 O3 2.414814 1_545
Lu0 O11 2.414814 1_445
Lu0 O5 2.414814 1_545
Lu1 O13 2.184554 1_555
Lu1 O10 2.184554 1_555
Lu1 O6 2.414814 1_454
Lu1 O0 2.414814 1_545
Lu1 O11 2.414814 1_445
Lu1 O2 2.414814 1_544
Lu1 O7 2.414814 1_455
Lu1 O1 2.414814 1_554
Lu2 O13 2.184554 1_655
Lu2 O10 2.184554 1_555
Lu2 O4 2.414814 1_554
Lu2 O9 2.414814 1_545
Lu2 O8 2.414814 1_554
Lu2 O3 2.414814 1_545
Lu2 O2 2.414814 1_544
Lu2 O7 2.414814 1_555
Lu3 O13 2.184554 1_565
Lu3 O10 2.184554 1_555
Lu3 O9 2.414814 1_455
Lu3 O4 2.414814 1_554
Lu3 O6 2.414814 1_454
Lu3 O12 2.414814 1_455
Lu3 O5 2.414814 1_554
Lu3 O0 2.414814 1_555
O0 Ru2 1.995489 1_555
O0 Ru1 1.995489 1_555
O1 Ru1 1.995489 1_555
O1 Ru3 1.995489 1_555
O2 Ru3 1.995489 1_565
O2 Ru2 1.995489 1_556
O3 Ru3 1.995489 1_565
O3 Ru0 1.995489 1_555
O4 Ru0 1.995489 1_555
O4 Ru2 1.995489 1_556
O5 Ru1 1.995489 1_555
O5 Ru0 1.995489 1_555
O6 Ru1 1.995489 1_655
O6 Ru2 1.995489 1_556
O7 Ru2 1.995489 1_555
O7 Ru3 1.995489 1_555
O8 Ru0 1.995489 1_555
O8 Ru3 1.995489 1_555
O9 Ru0 1.995489 1_555
O9 Ru2 1.995489 1_555
O11 Ru3 1.995489 1_565
O11 Ru1 1.995489 1_655
O12 Ru0 1.995489 1_555
O12 Ru1 1.995489 1_655
