# generated using pymatgen
data_BaN3Cl
_symmetry_space_group_name_H-M   'P 1'
_cell_length_a   4.54043195
_cell_length_b   5.62712661
_cell_length_c   7.86234739
_cell_angle_alpha   101.65931737
_cell_angle_beta   90.00000000
_cell_angle_gamma   90.00000000
_symmetry_Int_Tables_number   1
_chemical_formula_structural   BaN3Cl
_chemical_formula_sum   'Ba2 N6 Cl2'
_cell_volume   196.73487531
_cell_formula_units_Z   2
loop_
 _symmetry_equiv_pos_site_id
 _symmetry_equiv_pos_as_xyz
  1  'x, y, z'
loop_
 _atom_site_type_symbol
 _atom_site_label
 _atom_site_symmetry_multiplicity
 _atom_site_fract_x
 _atom_site_fract_y
 _atom_site_fract_z
 _atom_site_occupancy
  Ba  Ba0  1  0.25000000  0.31697751  0.23701407  1
  Ba  Ba1  1  0.75000000  0.68302249  0.76298593  1
  N  N0  1  0.75000000  0.64037065  0.37866477  1
  N  N1  1  0.25000000  0.94811741  0.64379110  1
  N  N2  1  0.75000000  0.84708215  0.36654851  1
  N  N3  1  0.75000000  0.05188259  0.35620890  1
  N  N4  1  0.25000000  0.15291785  0.63345149  1
  N  N5  1  0.25000000  0.35962935  0.62133523  1
  Cl  Cl0  1  0.25000000  0.76291608  0.05354451  1
  Cl  Cl1  1  0.75000000  0.23708392  0.94645549  1
loop_
_geom_bond_atom_site_label_1
_geom_bond_atom_site_label_2
_geom_bond_distance
_geom_bond_site_symmetry_2
Ba0 N3 2.970254 1_555
Ba0 N3 2.970254 1_455
Ba0 N0 2.981048 1_555
Ba0 N0 2.981048 1_455
Ba0 N5 2.982440 1_555
Ba0 Cl0 3.136990 1_555
Ba0 Cl0 3.159676 1_545
Ba0 Cl1 3.187428 1_554
Ba0 Cl1 3.187428 1_454
Ba1 N1 2.970254 1_655
Ba1 N1 2.970254 1_555
Ba1 N5 2.981048 1_555
Ba1 N5 2.981048 1_655
Ba1 N0 2.982440 1_555
Ba1 Cl1 3.136990 1_555
Ba1 Cl1 3.159676 1_565
Ba1 Cl0 3.187428 1_556
Ba1 Cl0 3.187428 1_656
N0 N2 1.186118 1_555
N1 N4 1.171575 1_565
N2 N3 1.171575 1_565
N4 N5 1.186118 1_555
