# generated using pymatgen
data_CsBaIn2(PO4)3
_symmetry_space_group_name_H-M   'P 1'
_cell_length_a   10.42292100
_cell_length_b   10.42292100
_cell_length_c   10.42292100
_cell_angle_alpha   90.00000000
_cell_angle_beta   90.00000000
_cell_angle_gamma   90.00000000
_symmetry_Int_Tables_number   1
_chemical_formula_structural   CsBaIn2(PO4)3
_chemical_formula_sum   'Cs4 Ba4 In8 P12 O48'
_cell_volume   1132.31780974
_cell_formula_units_Z   4
loop_
 _symmetry_equiv_pos_site_id
 _symmetry_equiv_pos_as_xyz
  1  'x, y, z'
loop_
 _atom_site_type_symbol
 _atom_site_label
 _atom_site_symmetry_multiplicity
 _atom_site_fract_x
 _atom_site_fract_y
 _atom_site_fract_z
 _atom_site_occupancy
  Cs  Cs0  1  0.04611300  0.04611300  0.04611300  1
  Cs  Cs1  1  0.45388700  0.95388700  0.54611300  1
  Cs  Cs2  1  0.54611300  0.45388700  0.95388700  1
  Cs  Cs3  1  0.95388700  0.54611300  0.45388700  1
  Ba  Ba0  1  0.18513800  0.31486200  0.68513800  1
  Ba  Ba1  1  0.31486200  0.68513800  0.18513800  1
  Ba  Ba2  1  0.68513800  0.18513800  0.31486200  1
  Ba  Ba3  1  0.81486200  0.81486200  0.81486200  1
  In  In0  1  0.09829400  0.90170600  0.40170600  1
  In  In1  1  0.16943400  0.66943400  0.83056600  1
  In  In2  1  0.33056600  0.33056600  0.33056600  1
  In  In3  1  0.40170600  0.09829400  0.90170600  1
  In  In4  1  0.59829400  0.59829400  0.59829400  1
  In  In5  1  0.66943400  0.83056600  0.16943400  1
  In  In6  1  0.83056600  0.16943400  0.66943400  1
  In  In7  1  0.90170600  0.40170600  0.09829400  1
  P  P0  1  0.01463500  0.21371500  0.37828400  1
  P  P1  1  0.12171600  0.98536500  0.71371500  1
  P  P2  1  0.21371500  0.37828400  0.01463500  1
  P  P3  1  0.28628500  0.62171600  0.51463500  1
  P  P4  1  0.37828400  0.01463500  0.21371500  1
  P  P5  1  0.48536500  0.78628500  0.87828400  1
  P  P6  1  0.51463500  0.28628500  0.62171600  1
  P  P7  1  0.62171600  0.51463500  0.28628500  1
  P  P8  1  0.71371500  0.12171600  0.98536500  1
  P  P9  1  0.78628500  0.87828400  0.48536500  1
  P  P10  1  0.87828400  0.48536500  0.78628500  1
  P  P11  1  0.98536500  0.71371500  0.12171600  1
  O  O0  1  0.00218800  0.56522600  0.76478000  1
  O  O1  1  0.00802400  0.07265800  0.33254400  1
  O  O2  1  0.05132800  0.79604200  0.22626800  1
  O  O3  1  0.06522600  0.73522000  0.99781200  1
  O  O4  1  0.07265800  0.33254400  0.00802400  1
  O  O5  1  0.08985000  0.84616300  0.75659000  1
  O  O6  1  0.15383700  0.25659000  0.41015000  1
  O  O7  1  0.16745600  0.99197600  0.57265800  1
  O  O8  1  0.20395800  0.72626800  0.44867200  1
  O  O9  1  0.22626800  0.05132800  0.79604200  1
  O  O10  1  0.23522000  0.50218800  0.93477400  1
  O  O11  1  0.24341000  0.58985000  0.65383700  1
  O  O12  1  0.25659000  0.41015000  0.15383700  1
  O  O13  1  0.26478000  0.49781200  0.43477400  1
  O  O14  1  0.27373200  0.94867200  0.29604200  1
  O  O15  1  0.29604200  0.27373200  0.94867200  1
  O  O16  1  0.33254400  0.00802400  0.07265800  1
  O  O17  1  0.34616300  0.74341000  0.91015000  1
  O  O18  1  0.41015000  0.15383700  0.25659000  1
  O  O19  1  0.42734200  0.66745600  0.50802400  1
  O  O20  1  0.43477400  0.26478000  0.49781200  1
  O  O21  1  0.44867200  0.20395800  0.72626800  1
  O  O22  1  0.49197600  0.92734200  0.83254400  1
  O  O23  1  0.49781200  0.43477400  0.26478000  1
  O  O24  1  0.50218800  0.93477400  0.23522000  1
  O  O25  1  0.50802400  0.42734200  0.66745600  1
  O  O26  1  0.55132800  0.70395800  0.77373200  1
  O  O27  1  0.56522600  0.76478000  0.00218800  1
  O  O28  1  0.57265800  0.16745600  0.99197600  1
  O  O29  1  0.58985000  0.65383700  0.24341000  1
  O  O30  1  0.65383700  0.24341000  0.58985000  1
  O  O31  1  0.66745600  0.50802400  0.42734200  1
  O  O32  1  0.70395800  0.77373200  0.55132800  1
  O  O33  1  0.72626800  0.44867200  0.20395800  1
  O  O34  1  0.73522000  0.99781200  0.06522600  1
  O  O35  1  0.74341000  0.91015000  0.34616300  1
  O  O36  1  0.75659000  0.08985000  0.84616300  1
  O  O37  1  0.76478000  0.00218800  0.56522600  1
  O  O38  1  0.77373200  0.55132800  0.70395800  1
  O  O39  1  0.79604200  0.22626800  0.05132800  1
  O  O40  1  0.83254400  0.49197600  0.92734200  1
  O  O41  1  0.84616300  0.75659000  0.08985000  1
  O  O42  1  0.91015000  0.34616300  0.74341000  1
  O  O43  1  0.92734200  0.83254400  0.49197600  1
  O  O44  1  0.93477400  0.23522000  0.50218800  1
  O  O45  1  0.94867200  0.29604200  0.27373200  1
  O  O46  1  0.99197600  0.57265800  0.16745600  1
  O  O47  1  0.99781200  0.06522600  0.73522000  1
loop_
_geom_bond_atom_site_label_1
_geom_bond_atom_site_label_2
_geom_bond_distance
_geom_bond_site_symmetry_2
Cs0 O4 3.024410 1_555
Cs0 O1 3.024410 1_555
Cs0 O16 3.024410 1_555
Cs0 O9 3.212873 1_554
Cs0 O2 3.212873 1_545
Cs0 O39 3.212873 1_455
Cs0 O34 3.285333 1_445
Cs0 O47 3.285333 1_454
Cs0 O3 3.285333 1_544
Cs1 O22 3.024410 1_555
Cs1 O19 3.024410 1_555
Cs1 O7 3.024410 1_555
Cs1 O14 3.212873 1_555
Cs1 O32 3.212873 1_555
Cs1 O21 3.212873 1_565
Cs1 O20 3.285333 1_565
Cs1 O24 3.285333 1_555
Cs1 O37 3.285333 1_565
Cs2 O25 3.024410 1_555
Cs2 O28 3.024410 1_555
Cs2 O40 3.024410 1_555
Cs2 O15 3.212873 1_555
Cs2 O26 3.212873 1_555
Cs2 O33 3.212873 1_556
Cs2 O23 3.285333 1_556
Cs2 O10 3.285333 1_555
Cs2 O27 3.285333 1_556
Cs3 O31 3.024410 1_555
Cs3 O46 3.024410 1_555
Cs3 O43 3.024410 1_555
Cs3 O45 3.212873 1_555
Cs3 O38 3.212873 1_555
Cs3 O8 3.212873 1_655
Cs3 O44 3.285333 1_555
Cs3 O13 3.285333 1_655
Cs3 O0 3.285333 1_655
Ba0 O42 2.947933 1_455
Ba0 O6 2.947933 1_555
Ba0 O11 2.947933 1_555
Ba0 O15 3.010791 1_555
Ba0 O9 3.010791 1_555
Ba0 O21 3.010791 1_555
Ba0 O10 3.294655 1_555
Ba0 O47 3.294655 1_455
Ba0 O20 3.294655 1_555
Ba0 O44 3.336893 1_455
Ba0 O0 3.336893 1_555
Ba0 O13 3.336893 1_555
Ba1 O12 2.947933 1_555
Ba1 O29 2.947933 1_555
Ba1 O17 2.947933 1_554
Ba1 O14 3.010791 1_555
Ba1 O2 3.010791 1_555
Ba1 O8 3.010791 1_555
Ba1 O24 3.294655 1_555
Ba1 O3 3.294655 1_554
Ba1 O13 3.294655 1_555
Ba1 O27 3.336893 1_555
Ba1 O10 3.336893 1_554
Ba1 O23 3.336893 1_555
Ba2 O18 2.947933 1_555
Ba2 O30 2.947933 1_555
Ba2 O35 2.947933 1_545
Ba2 O45 3.010791 1_555
Ba2 O39 3.010791 1_555
Ba2 O33 3.010791 1_555
Ba2 O44 3.294655 1_555
Ba2 O34 3.294655 1_545
Ba2 O23 3.294655 1_555
Ba2 O37 3.336893 1_555
Ba2 O24 3.336893 1_545
Ba2 O20 3.336893 1_555
Ba3 O41 2.947933 1_556
Ba3 O5 2.947933 1_655
Ba3 O36 2.947933 1_565
Ba3 O26 3.010791 1_555
Ba3 O38 3.010791 1_555
Ba3 O32 3.010791 1_555
Ba3 O27 3.294655 1_556
Ba3 O0 3.294655 1_655
Ba3 O37 3.294655 1_565
Ba3 O34 3.336893 1_556
Ba3 O47 3.336893 1_565
Ba3 O3 3.336893 1_655
In0 O7 2.140043 1_555
In0 O43 2.140043 1_455
In0 O1 2.140043 1_565
In0 O14 2.190033 1_555
In0 O8 2.190033 1_555
In0 O2 2.190033 1_555
In1 O11 2.162328 1_555
In1 O17 2.162328 1_555
In1 O5 2.162328 1_555
In1 O3 2.165318 1_555
In1 O10 2.165318 1_555
In1 O0 2.165318 1_555
In2 O6 2.162328 1_555
In2 O12 2.162328 1_555
In2 O18 2.162328 1_555
In2 O13 2.165318 1_555
In2 O20 2.165318 1_555
In2 O23 2.165318 1_555
In3 O28 2.140043 1_555
In3 O22 2.140043 1_545
In3 O16 2.140043 1_556
In3 O21 2.190033 1_555
In3 O15 2.190033 1_555
In3 O9 2.190033 1_555
In4 O19 2.140043 1_555
In4 O31 2.140043 1_555
In4 O25 2.140043 1_555
In4 O32 2.190033 1_555
In4 O26 2.190033 1_555
In4 O38 2.190033 1_555
In5 O35 2.162328 1_555
In5 O29 2.162328 1_555
In5 O41 2.162328 1_555
In5 O24 2.165318 1_555
In5 O27 2.165318 1_555
In5 O34 2.165318 1_555
In6 O42 2.162328 1_555
In6 O30 2.162328 1_555
In6 O36 2.162328 1_555
In6 O37 2.165318 1_555
In6 O47 2.165318 1_555
In6 O44 2.165318 1_555
In7 O46 2.140043 1_555
In7 O40 2.140043 1_554
In7 O4 2.140043 1_655
In7 O45 2.190033 1_555
In7 O33 2.190033 1_555
In7 O39 2.190033 1_555
O0 P10 1.552716 1_455
O1 P0 1.547126 1_555
O2 P11 1.548075 1_455
O3 P11 1.552716 1_456
O4 P2 1.547126 1_555
O5 P1 1.554061 1_555
O6 P0 1.554061 1_555
O7 P1 1.547126 1_555
O8 P3 1.548075 1_555
O9 P1 1.548075 1_545
O10 P2 1.552716 1_556
O11 P3 1.554061 1_555
O12 P2 1.554061 1_555
O13 P3 1.552716 1_555
O14 P4 1.548075 1_565
O15 P2 1.548075 1_556
O16 P4 1.547126 1_555
O17 P5 1.554061 1_555
O18 P4 1.554061 1_555
O19 P3 1.547126 1_555
O20 P6 1.552716 1_555
O21 P6 1.548075 1_555
O22 P5 1.547126 1_555
O23 P7 1.552716 1_555
O24 P4 1.552716 1_565
O25 P6 1.547126 1_555
O26 P5 1.548075 1_555
O27 P5 1.552716 1_554
O28 P8 1.547126 1_555
O29 P7 1.554061 1_555
O30 P6 1.554061 1_555
O31 P7 1.547126 1_555
O32 P9 1.548075 1_555
O33 P7 1.548075 1_555
O34 P8 1.552716 1_564
O35 P9 1.554061 1_555
O36 P8 1.554061 1_555
O37 P9 1.552716 1_545
O38 P10 1.548075 1_555
O39 P8 1.548075 1_554
O40 P10 1.547126 1_555
O41 P11 1.554061 1_555
O42 P10 1.554061 1_555
O43 P9 1.547126 1_555
O44 P0 1.552716 1_655
O45 P0 1.548075 1_655
O46 P11 1.547126 1_555
O47 P1 1.552716 1_645
