# generated using pymatgen
data_Rb5Ta(TlAs2)2
_symmetry_space_group_name_H-M   'P 1'
_cell_length_a   7.85406373
_cell_length_b   11.18877816
_cell_length_c   19.33252854
_cell_angle_alpha   90.00000000
_cell_angle_beta   90.00000000
_cell_angle_gamma   90.00000000
_symmetry_Int_Tables_number   1
_chemical_formula_structural   Rb5Ta(TlAs2)2
_chemical_formula_sum   'Rb20 Ta4 Tl8 As16'
_cell_volume   1698.89189364
_cell_formula_units_Z   4
loop_
 _symmetry_equiv_pos_site_id
 _symmetry_equiv_pos_as_xyz
  1  'x, y, z'
loop_
 _atom_site_type_symbol
 _atom_site_label
 _atom_site_symmetry_multiplicity
 _atom_site_fract_x
 _atom_site_fract_y
 _atom_site_fract_z
 _atom_site_occupancy
  Rb  Rb0  1  0.89269542  0.75000000  0.47869687  1
  Rb  Rb1  1  0.69326864  0.02516245  0.57817717  1
  Rb  Rb2  1  0.47986997  0.94644222  0.74859188  1
  Rb  Rb3  1  0.97986997  0.05355778  0.75140812  1
  Rb  Rb4  1  0.02013003  0.94644222  0.24859188  1
  Rb  Rb5  1  0.97986997  0.44644222  0.75140812  1
  Rb  Rb6  1  0.10730458  0.25000000  0.52130313  1
  Rb  Rb7  1  0.80673136  0.47483755  0.07817717  1
  Rb  Rb8  1  0.52013003  0.05355778  0.25140812  1
  Rb  Rb9  1  0.69326864  0.47483755  0.57817717  1
  Rb  Rb10  1  0.30673136  0.52516245  0.42182283  1
  Rb  Rb11  1  0.39269542  0.25000000  0.02130313  1
  Rb  Rb12  1  0.30673136  0.97483755  0.42182283  1
  Rb  Rb13  1  0.52013003  0.44644222  0.25140812  1
  Rb  Rb14  1  0.60730458  0.75000000  0.97869687  1
  Rb  Rb15  1  0.19326864  0.52516245  0.92182283  1
  Rb  Rb16  1  0.80673136  0.02516245  0.07817717  1
  Rb  Rb17  1  0.47986997  0.55355778  0.74859188  1
  Rb  Rb18  1  0.19326864  0.97483755  0.92182283  1
  Rb  Rb19  1  0.02013003  0.55355778  0.24859188  1
  Ta  Ta0  1  0.41725544  0.75000000  0.16327779  1
  Ta  Ta1  1  0.58274456  0.25000000  0.83672221  1
  Ta  Ta2  1  0.91725544  0.25000000  0.33672221  1
  Ta  Ta3  1  0.08274456  0.75000000  0.66327779  1
  Tl  Tl0  1  0.67776482  0.75000000  0.31252794  1
  Tl  Tl1  1  0.42092167  0.75000000  0.55405628  1
  Tl  Tl2  1  0.92092167  0.25000000  0.94594372  1
  Tl  Tl3  1  0.57907833  0.25000000  0.44594372  1
  Tl  Tl4  1  0.32223518  0.25000000  0.68747206  1
  Tl  Tl5  1  0.82223518  0.75000000  0.81252794  1
  Tl  Tl6  1  0.07907833  0.75000000  0.05405628  1
  Tl  Tl7  1  0.17776482  0.25000000  0.18747206  1
  As  As0  1  0.19685410  0.92979450  0.60279611  1
  As  As1  1  0.16683029  0.75000000  0.78895254  1
  As  As2  1  0.33316971  0.75000000  0.28895254  1
  As  As3  1  0.30314590  0.92979450  0.10279611  1
  As  As4  1  0.76799000  0.75000000  0.66402612  1
  As  As5  1  0.30314590  0.57020550  0.10279611  1
  As  As6  1  0.80314590  0.07020550  0.39720389  1
  As  As7  1  0.23201000  0.25000000  0.33597388  1
  As  As8  1  0.80314590  0.42979450  0.39720389  1
  As  As9  1  0.83316971  0.25000000  0.21104746  1
  As  As10  1  0.69685410  0.07020550  0.89720389  1
  As  As11  1  0.73201000  0.75000000  0.16402612  1
  As  As12  1  0.66683029  0.25000000  0.71104746  1
  As  As13  1  0.26799000  0.25000000  0.83597388  1
  As  As14  1  0.19685410  0.57020550  0.60279611  1
  As  As15  1  0.69685410  0.42979450  0.89720389  1
loop_
_geom_bond_atom_site_label_1
_geom_bond_atom_site_label_2
_geom_bond_distance
_geom_bond_site_symmetry_2
Rb0 Tl0 3.628987 1_555
Rb0 Tl1 3.981466 1_555
Rb1 Tl3 3.697040 1_555
Rb1 Tl1 3.777763 1_545
Rb2 Tl5 3.686364 1_555
Rb2 Tl4 3.803264 1_565
Rb3 Tl4 3.686364 1_655
Rb3 Tl5 3.803264 1_545
Rb4 Tl0 3.686364 1_455
Rb4 Tl7 3.803264 1_565
Rb5 Tl4 3.686364 1_655
Rb5 Tl5 3.803264 1_555
Rb6 Tl4 3.628987 1_555
Rb6 Tl3 3.981466 1_555
Rb7 Tl2 3.697040 1_554
Rb7 Tl6 3.777763 1_655
Rb8 Tl7 3.686364 1_555
Rb8 Tl0 3.803264 1_545
Rb9 Tl3 3.697040 1_555
Rb9 Tl1 3.777763 1_555
Rb10 Tl1 3.697040 1_555
Rb10 Tl3 3.777763 1_555
Rb11 Tl7 3.628987 1_555
Rb11 Tl2 3.981466 1_454
Rb12 Tl1 3.697040 1_555
Rb12 Tl3 3.777763 1_565
Rb13 Tl7 3.686364 1_555
Rb13 Tl0 3.803264 1_555
Rb14 Tl5 3.628987 1_555
Rb14 Tl6 3.981466 1_656
Rb15 Tl6 3.697040 1_556
Rb15 Tl2 3.777763 1_455
Rb16 Tl2 3.697040 1_554
Rb16 Tl6 3.777763 1_645
Rb17 Tl5 3.686364 1_555
Rb17 Tl4 3.803264 1_555
Rb18 Tl6 3.697040 1_556
Rb18 Tl2 3.777763 1_465
Rb19 Tl0 3.686364 1_455
Rb19 Tl7 3.803264 1_555
As0 Ta3 2.493442 1_555
As0 Tl1 2.834036 1_555
As0 Rb2 3.594462 1_555
As0 Rb3 3.616113 1_465
As0 Rb12 3.638603 1_555
As0 Rb0 3.938216 1_455
As0 Rb6 3.976501 1_565
As1 Ta3 2.517768 1_555
As1 Tl5 2.744580 1_455
As1 Rb17 3.388906 1_555
As1 Rb2 3.388906 1_555
As1 Rb18 3.601384 1_555
As1 Rb15 3.601384 1_555
As1 Rb3 3.770786 1_465
As1 Rb5 3.770786 1_455
As2 Ta0 2.517768 1_555
As2 Tl0 2.744580 1_555
As2 Rb19 3.388906 1_555
As2 Rb4 3.388906 1_555
As2 Rb10 3.601384 1_555
As2 Rb12 3.601384 1_555
As2 Rb8 3.770786 1_565
As2 Rb13 3.770786 1_555
As3 Ta0 2.493442 1_555
As3 Tl6 2.834036 1_555
As3 Rb4 3.594462 1_555
As3 Rb8 3.616113 1_565
As3 Rb18 3.638603 1_554
As3 Rb14 3.938216 1_554
As3 Rb11 3.976501 1_565
As4 Ta3 2.472145 1_655
As4 Tl5 2.902356 1_555
As4 Rb9 3.546481 1_555
As4 Rb1 3.546481 1_565
As4 Rb2 3.553105 1_555
As4 Rb17 3.553105 1_555
As4 Rb0 3.714345 1_555
As5 Ta0 2.493442 1_555
As5 Tl6 2.834036 1_555
As5 Rb19 3.594462 1_555
As5 Rb13 3.616113 1_555
As5 Rb15 3.638603 1_554
As5 Rb14 3.938216 1_554
As5 Rb11 3.976501 1_555
As6 Ta2 2.493442 1_555
As6 Tl3 2.834036 1_555
As6 Rb8 3.594462 1_555
As6 Rb4 3.616113 1_645
As6 Rb1 3.638603 1_555
As6 Rb6 3.938216 1_655
As6 Rb0 3.976501 1_545
As7 Ta2 2.472145 1_455
As7 Tl7 2.902356 1_555
As7 Rb10 3.546481 1_555
As7 Rb12 3.546481 1_545
As7 Rb13 3.553105 1_555
As7 Rb8 3.553105 1_555
As7 Rb6 3.714345 1_555
As8 Ta2 2.493442 1_555
As8 Tl3 2.834036 1_555
As8 Rb13 3.594462 1_555
As8 Rb19 3.616113 1_655
As8 Rb9 3.638603 1_555
As8 Rb6 3.938216 1_655
As8 Rb0 3.976501 1_555
As9 Ta2 2.517768 1_555
As9 Tl7 2.744580 1_655
As9 Rb13 3.388906 1_555
As9 Rb8 3.388906 1_555
As9 Rb16 3.601384 1_555
As9 Rb7 3.601384 1_555
As9 Rb4 3.770786 1_645
As9 Rb19 3.770786 1_655
As10 Ta1 2.493442 1_555
As10 Tl2 2.834036 1_555
As10 Rb3 3.594462 1_555
As10 Rb2 3.616113 1_545
As10 Rb16 3.638603 1_556
As10 Rb11 3.938216 1_556
As10 Rb14 3.976501 1_545
As11 Ta0 2.472145 1_555
As11 Tl0 2.902356 1_555
As11 Rb7 3.546481 1_555
As11 Rb16 3.546481 1_565
As11 Rb4 3.553105 1_655
As11 Rb19 3.553105 1_655
As11 Rb14 3.714345 1_554
As12 Ta1 2.517768 1_555
As12 Tl4 2.744580 1_555
As12 Rb3 3.388906 1_555
As12 Rb5 3.388906 1_555
As12 Rb9 3.601384 1_555
As12 Rb1 3.601384 1_555
As12 Rb2 3.770786 1_545
As12 Rb17 3.770786 1_555
As13 Ta1 2.472145 1_555
As13 Tl4 2.902356 1_555
As13 Rb15 3.546481 1_555
As13 Rb18 3.546481 1_545
As13 Rb3 3.553105 1_455
As13 Rb5 3.553105 1_455
As13 Rb11 3.714345 1_556
As14 Ta3 2.493442 1_555
As14 Tl1 2.834036 1_555
As14 Rb17 3.594462 1_555
As14 Rb5 3.616113 1_455
As14 Rb10 3.638603 1_555
As14 Rb0 3.938216 1_455
As14 Rb6 3.976501 1_555
As15 Ta1 2.493442 1_555
As15 Tl2 2.834036 1_555
As15 Rb5 3.594462 1_555
As15 Rb17 3.616113 1_555
As15 Rb7 3.638603 1_556
As15 Rb11 3.938216 1_556
As15 Rb14 3.976501 1_555
