# generated using pymatgen
data_P3S3N6F5
_symmetry_space_group_name_H-M   'P 1'
_cell_length_a   10.00561500
_cell_length_b   15.13817300
_cell_length_c   16.39257000
_cell_angle_alpha   90.00000000
_cell_angle_beta   90.00000000
_cell_angle_gamma   90.00000000
_symmetry_Int_Tables_number   1
_chemical_formula_structural   P3S3N6F5
_chemical_formula_sum   'P24 S24 N48 F40'
_cell_volume   2482.92898799
_cell_formula_units_Z   8
loop_
 _symmetry_equiv_pos_site_id
 _symmetry_equiv_pos_as_xyz
  1  'x, y, z'
loop_
 _atom_site_type_symbol
 _atom_site_label
 _atom_site_symmetry_multiplicity
 _atom_site_fract_x
 _atom_site_fract_y
 _atom_site_fract_z
 _atom_site_occupancy
  P  P0  1  0.79332500  0.91649100  0.74295500  1
  P  P1  1  0.54609200  0.28620600  0.31793700  1
  P  P2  1  0.45390800  0.21379400  0.81793700  1
  P  P3  1  0.20667500  0.08350900  0.25704500  1
  P  P4  1  0.20199400  0.11525600  0.42366800  1
  P  P5  1  0.29332500  0.08350900  0.75704500  1
  P  P6  1  0.79800600  0.88474400  0.57633200  1
  P  P7  1  0.29332500  0.58350900  0.74295500  1
  P  P8  1  0.70667500  0.41649100  0.25704500  1
  P  P9  1  0.29800600  0.11525600  0.92366800  1
  P  P10  1  0.29800600  0.61525600  0.57633200  1
  P  P11  1  0.54609200  0.78620600  0.18206300  1
  P  P12  1  0.95390800  0.28620600  0.81793700  1
  P  P13  1  0.04609200  0.21379400  0.31793700  1
  P  P14  1  0.79800600  0.38474400  0.92366800  1
  P  P15  1  0.70667500  0.91649100  0.24295500  1
  P  P16  1  0.04609200  0.71379400  0.18206300  1
  P  P17  1  0.70199400  0.38474400  0.42366800  1
  P  P18  1  0.70199400  0.88474400  0.07633200  1
  P  P19  1  0.95390800  0.78620600  0.68206300  1
  P  P20  1  0.20667500  0.58350900  0.24295500  1
  P  P21  1  0.45390800  0.71379400  0.68206300  1
  P  P22  1  0.20199400  0.61525600  0.07633200  1
  P  P23  1  0.79332500  0.41649100  0.75704500  1
  S  S0  1  0.18280400  0.95620500  0.52289000  1
  S  S1  1  0.12763300  0.85805700  0.41851300  1
  S  S2  1  0.62763300  0.14194300  0.08148700  1
  S  S3  1  0.62763300  0.64194300  0.41851300  1
  S  S4  1  0.10193700  0.88484600  0.93247200  1
  S  S5  1  0.12763300  0.35805700  0.08148700  1
  S  S6  1  0.87236700  0.14194300  0.58148700  1
  S  S7  1  0.68280400  0.04379500  0.97711000  1
  S  S8  1  0.81719600  0.54379500  0.02289000  1
  S  S9  1  0.39806300  0.88484600  0.43247200  1
  S  S10  1  0.31719600  0.45620500  0.47711000  1
  S  S11  1  0.87236700  0.64194300  0.91851300  1
  S  S12  1  0.89806300  0.61515400  0.43247200  1
  S  S13  1  0.37236700  0.35805700  0.58148700  1
  S  S14  1  0.18280400  0.45620500  0.97711000  1
  S  S15  1  0.10193700  0.38484600  0.56752800  1
  S  S16  1  0.89806300  0.11515400  0.06752800  1
  S  S17  1  0.60193700  0.11515400  0.56752800  1
  S  S18  1  0.39806300  0.38484600  0.06752800  1
  S  S19  1  0.81719600  0.04379500  0.47711000  1
  S  S20  1  0.60193700  0.61515400  0.93247200  1
  S  S21  1  0.68280400  0.54379500  0.52289000  1
  S  S22  1  0.37236700  0.85805700  0.91851300  1
  S  S23  1  0.31719600  0.95620500  0.02289000  1
  N  N0  1  0.27693700  0.84517200  0.38365800  1
  N  N1  1  0.40039100  0.65898000  0.75779000  1
  N  N2  1  0.22306300  0.84517200  0.88365800  1
  N  N3  1  0.22306300  0.34517200  0.61634200  1
  N  N4  1  0.59960900  0.34102000  0.24221000  1
  N  N5  1  0.40437400  0.69211000  0.59332000  1
  N  N6  1  0.90039100  0.34102000  0.74221000  1
  N  N7  1  0.35262900  0.55331400  0.50237500  1
  N  N8  1  0.90437400  0.80789000  0.59332000  1
  N  N9  1  0.64737100  0.44668600  0.49762500  1
  N  N10  1  0.09960900  0.65898000  0.25779000  1
  N  N11  1  0.72306300  0.65482800  0.88365800  1
  N  N12  1  0.35262900  0.05331400  0.99762500  1
  N  N13  1  0.77693700  0.65482800  0.38365800  1
  N  N14  1  0.65794300  0.06776400  0.48767200  1
  N  N15  1  0.59960900  0.84102000  0.25779000  1
  N  N16  1  0.34205700  0.93223600  0.51232800  1
  N  N17  1  0.59562600  0.80789000  0.09332000  1
  N  N18  1  0.59562600  0.30789000  0.40668000  1
  N  N19  1  0.65794300  0.56776400  0.01232800  1
  N  N20  1  0.24441900  0.06141200  0.84592400  1
  N  N21  1  0.74441900  0.93858800  0.65407600  1
  N  N22  1  0.09562600  0.69211000  0.09332000  1
  N  N23  1  0.14737100  0.55331400  0.00237500  1
  N  N24  1  0.84205700  0.56776400  0.51232800  1
  N  N25  1  0.90437400  0.30789000  0.90668000  1
  N  N26  1  0.27693700  0.34517200  0.11634200  1
  N  N27  1  0.72306300  0.15482800  0.61634200  1
  N  N28  1  0.09960900  0.15898000  0.24221000  1
  N  N29  1  0.25558100  0.56141200  0.15407600  1
  N  N30  1  0.75558100  0.93858800  0.15407600  1
  N  N31  1  0.40039100  0.15898000  0.74221000  1
  N  N32  1  0.74441900  0.43858800  0.84592400  1
  N  N33  1  0.85262900  0.44668600  0.99762500  1
  N  N34  1  0.85262900  0.94668600  0.50237500  1
  N  N35  1  0.25558100  0.06141200  0.34592400  1
  N  N36  1  0.75558100  0.43858800  0.34592400  1
  N  N37  1  0.84205700  0.06776400  0.98767200  1
  N  N38  1  0.90039100  0.84102000  0.75779000  1
  N  N39  1  0.77693700  0.15482800  0.11634200  1
  N  N40  1  0.34205700  0.43223600  0.98767200  1
  N  N41  1  0.09562600  0.19211000  0.40668000  1
  N  N42  1  0.15794300  0.93223600  0.01232800  1
  N  N43  1  0.64737100  0.94668600  0.00237500  1
  N  N44  1  0.14737100  0.05331400  0.49762500  1
  N  N45  1  0.40437400  0.19211000  0.90668000  1
  N  N46  1  0.15794300  0.43223600  0.48767200  1
  N  N47  1  0.24441900  0.56141200  0.65407600  1
  F  F0  1  0.82850300  0.83804100  0.03753000  1
  F  F1  1  0.88952400  0.71140900  0.18421200  1
  F  F2  1  0.56412400  0.18579700  0.29980800  1
  F  F3  1  0.93587600  0.68579700  0.70019200  1
  F  F4  1  0.43587600  0.81420300  0.70019200  1
  F  F5  1  0.43587600  0.31420300  0.79980800  1
  F  F6  1  0.17031100  0.10060000  0.70029700  1
  F  F7  1  0.84411500  0.50275100  0.71485800  1
  F  F8  1  0.67031100  0.89940000  0.79970300  1
  F  F9  1  0.82968900  0.39940000  0.20029700  1
  F  F10  1  0.67149700  0.83804100  0.53753000  1
  F  F11  1  0.56412400  0.68579700  0.20019200  1
  F  F12  1  0.34411500  0.49724900  0.78514200  1
  F  F13  1  0.11047600  0.78859100  0.68421200  1
  F  F14  1  0.11047600  0.28859100  0.81578800  1
  F  F15  1  0.32968900  0.60060000  0.29970300  1
  F  F16  1  0.38952400  0.78859100  0.18421200  1
  F  F17  1  0.32850300  0.16195900  0.46247000  1
  F  F18  1  0.17031100  0.60060000  0.79970300  1
  F  F19  1  0.93587600  0.18579700  0.79980800  1
  F  F20  1  0.34411500  0.99724900  0.71485800  1
  F  F21  1  0.32850300  0.66195900  0.03753000  1
  F  F22  1  0.65588500  0.00275100  0.28514200  1
  F  F23  1  0.17149700  0.66195900  0.53753000  1
  F  F24  1  0.15588500  0.99724900  0.21485800  1
  F  F25  1  0.67031100  0.39940000  0.70029700  1
  F  F26  1  0.32968900  0.10060000  0.20029700  1
  F  F27  1  0.15588500  0.49724900  0.28514200  1
  F  F28  1  0.84411500  0.00275100  0.78514200  1
  F  F29  1  0.06412400  0.31420300  0.29980800  1
  F  F30  1  0.61047600  0.21140900  0.81578800  1
  F  F31  1  0.38952400  0.28859100  0.31578800  1
  F  F32  1  0.67149700  0.33804100  0.96247000  1
  F  F33  1  0.65588500  0.50275100  0.21485800  1
  F  F34  1  0.61047600  0.71140900  0.68421200  1
  F  F35  1  0.06412400  0.81420300  0.20019200  1
  F  F36  1  0.82968900  0.89940000  0.29970300  1
  F  F37  1  0.17149700  0.16195900  0.96247000  1
  F  F38  1  0.82850300  0.33804100  0.46247000  1
  F  F39  1  0.88952400  0.21140900  0.31578800  1
loop_
_geom_bond_atom_site_label_1
_geom_bond_atom_site_label_2
_geom_bond_distance
_geom_bond_site_symmetry_2
N0 S9 1.571562 1_555
N0 S1 1.611265 1_555
N1 P7 1.584938 1_555
N1 P21 1.586268 1_555
N2 S4 1.571562 1_555
N2 S22 1.611265 1_555
N3 S15 1.571562 1_555
N3 S13 1.611265 1_555
N4 P8 1.584938 1_555
N4 P1 1.586268 1_555
N5 P21 1.571501 1_555
N5 P10 1.601188 1_555
N6 P23 1.584938 1_555
N6 P12 1.586268 1_555
N7 S10 1.567888 1_555
N7 P10 1.627189 1_555
N8 P19 1.571501 1_555
N8 P6 1.601188 1_555
N9 S21 1.567888 1_555
N9 P17 1.627189 1_555
N10 P20 1.584938 1_555
N10 P16 1.586268 1_555
N11 S20 1.571562 1_555
N11 S11 1.611265 1_555
N12 S23 1.567888 1_546
N12 P9 1.627189 1_555
N13 S12 1.571562 1_555
N13 S3 1.611265 1_555
N14 S17 1.594452 1_555
N14 S19 1.643361 1_555
N15 P15 1.584938 1_555
N15 P11 1.586268 1_555
N16 S9 1.594452 1_555
N16 S0 1.643361 1_555
N17 P11 1.571501 1_555
N17 P18 1.601188 1_555
N18 P1 1.571501 1_555
N18 P17 1.601188 1_555
N19 S20 1.594452 1_554
N19 S8 1.643361 1_555
N20 P5 1.572915 1_555
N20 P9 1.604999 1_555
N21 P0 1.572915 1_555
N21 P6 1.604999 1_555
N22 P16 1.571501 1_555
N22 P22 1.601188 1_555
N23 S14 1.567888 1_554
N23 P22 1.627189 1_555
N24 S12 1.594452 1_555
N24 S21 1.643361 1_555
N25 P12 1.571501 1_555
N25 P14 1.601188 1_555
N26 S18 1.571562 1_555
N26 S5 1.611265 1_555
N27 S17 1.571562 1_555
N27 S6 1.611265 1_555
N28 P3 1.584938 1_555
N28 P13 1.586268 1_555
N29 P20 1.572915 1_555
N29 P22 1.604999 1_555
N30 P15 1.572915 1_555
N30 P18 1.604999 1_555
N31 P5 1.584938 1_555
N31 P2 1.586268 1_555
N32 P23 1.572915 1_555
N32 P14 1.604999 1_555
N33 S8 1.567888 1_556
N33 P14 1.627189 1_555
N34 S19 1.567888 1_565
N34 P6 1.627189 1_555
N35 P3 1.572915 1_555
N35 P4 1.604999 1_555
N36 P8 1.572915 1_555
N36 P17 1.604999 1_555
N37 S16 1.594452 1_556
N37 S7 1.643361 1_555
N38 P0 1.584938 1_555
N38 P19 1.586268 1_555
N39 S16 1.571562 1_555
N39 S2 1.611265 1_555
N40 S18 1.594452 1_556
N40 S14 1.643361 1_555
N41 P13 1.571501 1_555
N41 P4 1.601188 1_555
N42 S4 1.594452 1_554
N42 S23 1.643361 1_555
N43 S7 1.567888 1_564
N43 P18 1.627189 1_555
N44 S0 1.567888 1_545
N44 P4 1.627189 1_555
N45 P2 1.571501 1_555
N45 P9 1.601188 1_555
N46 S15 1.594452 1_555
N46 S10 1.643361 1_555
N47 P7 1.572915 1_555
N47 P10 1.604999 1_555
F0 P18 1.583248 1_555
F1 P16 1.567371 1_655
F2 P1 1.559261 1_555
F3 P19 1.559261 1_555
F4 P21 1.559261 1_555
F5 P2 1.559261 1_555
F6 P5 1.564366 1_555
F7 P23 1.562582 1_555
F8 P0 1.564366 1_555
F9 P8 1.564366 1_555
F10 P6 1.583248 1_555
F11 P11 1.559261 1_555
F12 P7 1.562582 1_555
F13 P19 1.567371 1_455
F14 P12 1.567371 1_455
F15 P20 1.564366 1_555
F16 P11 1.567371 1_555
F17 P4 1.583248 1_555
F18 P7 1.564366 1_555
F19 P12 1.559261 1_555
F20 P5 1.562582 1_565
F21 P22 1.583248 1_555
F22 P15 1.562582 1_545
F23 P10 1.583248 1_555
F24 P3 1.562582 1_565
F25 P23 1.564366 1_555
F26 P3 1.564366 1_555
F27 P20 1.562582 1_555
F28 P0 1.562582 1_545
F29 P13 1.559261 1_555
F30 P2 1.567371 1_555
F31 P1 1.567371 1_555
F32 P14 1.583248 1_555
F33 P8 1.562582 1_555
F34 P21 1.567371 1_555
F35 P16 1.559261 1_555
F36 P15 1.564366 1_555
F37 P9 1.583248 1_555
F38 P17 1.583248 1_555
F39 P13 1.567371 1_655
