# generated using pymatgen
data_CsLaZr6FeCl18
_symmetry_space_group_name_H-M   'P 1'
_cell_length_a   9.86218993
_cell_length_b   9.86218993
_cell_length_c   18.73291200
_cell_angle_alpha   90.00000000
_cell_angle_beta   90.00000000
_cell_angle_gamma   119.99999955
_symmetry_Int_Tables_number   1
_chemical_formula_structural   CsLaZr6FeCl18
_chemical_formula_sum   'Cs2 La2 Zr12 Fe2 Cl36'
_cell_volume   1577.91153539
_cell_formula_units_Z   2
loop_
 _symmetry_equiv_pos_site_id
 _symmetry_equiv_pos_as_xyz
  1  'x, y, z'
loop_
 _atom_site_type_symbol
 _atom_site_label
 _atom_site_symmetry_multiplicity
 _atom_site_fract_x
 _atom_site_fract_y
 _atom_site_fract_z
 _atom_site_occupancy
  Cs  Cs0  1  0.66666700  0.33333300  0.75000000  1
  Cs  Cs1  1  0.33333300  0.66666700  0.25000000  1
  La  La0  1  0.66666700  0.33333300  0.25000000  1
  La  La1  1  0.33333300  0.66666700  0.75000000  1
  Zr  Zr0  1  0.21985100  0.04197500  0.07486400  1
  Zr  Zr1  1  0.04197500  0.82212400  0.92513600  1
  Zr  Zr2  1  0.78014900  0.95802500  0.92513600  1
  Zr  Zr3  1  0.21985100  0.17787600  0.42513600  1
  Zr  Zr4  1  0.17787600  0.21985100  0.92513600  1
  Zr  Zr5  1  0.82212400  0.78014900  0.07486400  1
  Zr  Zr6  1  0.95802500  0.17787600  0.07486400  1
  Zr  Zr7  1  0.82212400  0.04197500  0.42513600  1
  Zr  Zr8  1  0.04197500  0.21985100  0.57486400  1
  Zr  Zr9  1  0.17787600  0.95802500  0.57486400  1
  Zr  Zr10  1  0.95802500  0.78014900  0.42513600  1
  Zr  Zr11  1  0.78014900  0.82212400  0.57486400  1
  Fe  Fe0  1  0.00000000  0.00000000  0.00000000  1
  Fe  Fe1  1  0.00000000  0.00000000  0.50000000  1
  Cl  Cl0  1  0.81177500  0.76744600  0.84159500  1
  Cl  Cl1  1  0.58053000  0.85346100  0.49881800  1
  Cl  Cl2  1  0.45628800  0.08112100  0.16335500  1
  Cl  Cl3  1  0.91887900  0.37516700  0.16335500  1
  Cl  Cl4  1  0.08112100  0.45628800  0.66335500  1
  Cl  Cl5  1  0.76744600  0.95567100  0.15840500  1
  Cl  Cl6  1  0.85346100  0.58053000  0.99881800  1
  Cl  Cl7  1  0.58053000  0.72706900  0.00118200  1
  Cl  Cl8  1  0.27293100  0.41947000  0.49881800  1
  Cl  Cl9  1  0.76744600  0.81177500  0.34159500  1
  Cl  Cl10  1  0.62483300  0.54371200  0.16335500  1
  Cl  Cl11  1  0.95567100  0.18822500  0.84159500  1
  Cl  Cl12  1  0.14653900  0.41947000  0.00118200  1
  Cl  Cl13  1  0.18822500  0.95567100  0.34159500  1
  Cl  Cl14  1  0.45628800  0.37516700  0.33664500  1
  Cl  Cl15  1  0.04432900  0.81177500  0.15840500  1
  Cl  Cl16  1  0.27293100  0.85346100  0.00118200  1
  Cl  Cl17  1  0.23255400  0.04432900  0.84159500  1
  Cl  Cl18  1  0.18822500  0.23255400  0.15840500  1
  Cl  Cl19  1  0.37516700  0.91887900  0.66335500  1
  Cl  Cl20  1  0.14653900  0.72706900  0.49881800  1
  Cl  Cl21  1  0.23255400  0.18822500  0.65840500  1
  Cl  Cl22  1  0.85346100  0.27293100  0.50118200  1
  Cl  Cl23  1  0.62483300  0.08112100  0.33664500  1
  Cl  Cl24  1  0.41947000  0.27293100  0.99881800  1
  Cl  Cl25  1  0.95567100  0.76744600  0.65840500  1
  Cl  Cl26  1  0.72706900  0.58053000  0.50118200  1
  Cl  Cl27  1  0.54371200  0.62483300  0.66335500  1
  Cl  Cl28  1  0.04432900  0.23255400  0.34159500  1
  Cl  Cl29  1  0.41947000  0.14653900  0.50118200  1
  Cl  Cl30  1  0.81177500  0.04432900  0.65840500  1
  Cl  Cl31  1  0.37516700  0.45628800  0.83664500  1
  Cl  Cl32  1  0.54371200  0.91887900  0.83664500  1
  Cl  Cl33  1  0.08112100  0.62483300  0.83664500  1
  Cl  Cl34  1  0.91887900  0.54371200  0.33664500  1
  Cl  Cl35  1  0.72706900  0.14653900  0.99881800  1
loop_
_geom_bond_atom_site_label_1
_geom_bond_atom_site_label_2
_geom_bond_distance
_geom_bond_site_symmetry_2
Fe0 Zr6 2.437567 1_455
Fe0 Zr1 2.437567 1_544
Fe0 Zr0 2.437567 1_555
Fe0 Zr2 2.437567 1_444
Fe0 Zr5 2.437567 1_445
Fe0 Zr4 2.437567 1_554
Fe1 Zr7 2.437567 1_455
Fe1 Zr9 2.437567 1_545
Fe1 Zr10 2.437567 1_445
Fe1 Zr8 2.437567 1_555
Fe1 Zr3 2.437567 1_555
Fe1 Zr11 2.437567 1_445
Cl0 Zr2 2.581714 1_555
Cl0 Zr1 2.582600 1_655
Cl0 Cs0 4.146659 1_555
Cl1 Zr7 2.570783 1_565
Cl1 Zr11 2.570801 1_555
Cl2 Zr0 2.726537 1_555
Cl2 La0 2.822318 1_555
Cl2 Cs1 3.981898 1_545
Cl3 Zr6 2.726537 1_555
Cl3 La0 2.822315 1_555
Cl3 Cs1 3.981900 1_655
Cl4 Zr8 2.726537 1_555
Cl4 La1 2.822318 1_555
Cl4 Cs0 3.981898 1_455
Cl5 Zr6 2.581714 1_565
Cl5 Zr5 2.582600 1_555
Cl5 Cs1 4.146657 1_555
Cl6 Zr1 2.570783 1_655
Cl6 Zr5 2.570801 1_556
Cl7 Zr5 2.570783 1_555
Cl7 Zr2 2.570801 1_554
Cl8 Zr3 2.570783 1_555
Cl8 Zr8 2.570801 1_555
Cl9 Zr10 2.581714 1_555
Cl9 Zr7 2.582600 1_565
Cl9 Cs1 4.146659 1_555
Cl10 Zr5 2.726537 1_555
Cl10 La0 2.822323 1_555
Cl10 Cs1 3.981907 1_555
Cl11 Zr4 2.581714 1_655
Cl11 Zr2 2.582600 1_545
Cl11 Cs0 4.146650 1_555
Cl12 Zr6 2.570783 1_455
Cl12 Zr4 2.570801 1_554
Cl13 Zr3 2.581714 1_565
Cl13 Zr10 2.582600 1_455
Cl13 Cs1 4.146650 1_555
Cl14 Zr3 2.726537 1_555
Cl14 La0 2.822323 1_555
Cl14 Cs1 3.981907 1_555
Cl15 Zr5 2.581714 1_455
Cl15 Zr0 2.582600 1_565
Cl15 Cs1 4.146650 1_555
Cl16 Zr0 2.570783 1_565
Cl16 Zr1 2.570801 1_554
Cl17 Zr1 2.581714 1_545
Cl17 Zr4 2.582600 1_555
Cl17 Cs0 4.146657 1_555
Cl18 Zr0 2.581714 1_555
Cl18 Zr6 2.582600 1_455
Cl18 Cs1 4.146659 1_555
Cl19 Zr9 2.726537 1_555
Cl19 La1 2.822315 1_555
Cl19 Cs0 3.981900 1_565
Cl20 Zr10 2.570783 1_455
Cl20 Zr9 2.570801 1_555
Cl21 Zr8 2.581714 1_555
Cl21 Zr9 2.582600 1_545
Cl21 Cs0 4.146659 1_555
Cl22 Zr8 2.570783 1_655
Cl22 Zr7 2.570801 1_555
Cl23 Zr7 2.726537 1_555
Cl23 La0 2.822315 1_555
Cl23 Cs1 3.981900 1_545
Cl24 Zr4 2.570783 1_555
Cl24 Zr0 2.570801 1_556
Cl25 Zr9 2.581714 1_655
Cl25 Zr11 2.582600 1_555
Cl25 Cs0 4.146657 1_555
Cl26 Zr11 2.570783 1_555
Cl26 Zr10 2.570801 1_555
Cl27 Zr11 2.726537 1_555
Cl27 La1 2.822323 1_555
Cl27 Cs0 3.981907 1_555
Cl28 Zr7 2.581714 1_455
Cl28 Zr3 2.582600 1_555
Cl28 Cs1 4.146657 1_555
Cl29 Zr9 2.570783 1_545
Cl29 Zr3 2.570801 1_555
Cl30 Zr11 2.581714 1_545
Cl30 Zr8 2.582600 1_655
Cl30 Cs0 4.146650 1_555
Cl31 Zr4 2.726537 1_555
Cl31 La1 2.822323 1_555
Cl31 Cs0 3.981907 1_555
Cl32 Zr2 2.726537 1_555
Cl32 La1 2.822318 1_555
Cl32 Cs0 3.981898 1_565
Cl33 Zr1 2.726537 1_555
Cl33 La1 2.822315 1_555
Cl33 Cs0 3.981900 1_455
Cl34 Zr10 2.726537 1_555
Cl34 La0 2.822318 1_555
Cl34 Cs1 3.981898 1_655
Cl35 Zr2 2.570783 1_545
Cl35 Zr6 2.570801 1_556
