# generated using pymatgen
data_Tm2O3
_symmetry_space_group_name_H-M   'P 1'
_cell_length_a   3.40460259
_cell_length_b   7.06603908
_cell_length_c   8.42989807
_cell_angle_alpha   99.90308231
_cell_angle_beta   90.00000000
_cell_angle_gamma   103.94043777
_symmetry_Int_Tables_number   1
_chemical_formula_structural   Tm2O3
_chemical_formula_sum   'Tm6 O9'
_cell_volume   193.71059989
_cell_formula_units_Z   3
loop_
 _symmetry_equiv_pos_site_id
 _symmetry_equiv_pos_as_xyz
  1  'x, y, z'
loop_
 _atom_site_type_symbol
 _atom_site_label
 _atom_site_symmetry_multiplicity
 _atom_site_fract_x
 _atom_site_fract_y
 _atom_site_fract_z
 _atom_site_occupancy
  Tm  Tm0  1  0.63513331  0.27026463  0.48692195  1
  Tm  Tm1  1  0.69104824  0.38209747  0.13726720  1
  Tm  Tm2  1  0.30895176  0.61790253  0.86273280  1
  Tm  Tm3  1  0.03273639  0.06547277  0.81369131  1
  Tm  Tm4  1  0.36486669  0.72973537  0.51307805  1
  Tm  Tm5  1  0.96726361  0.93452723  0.18630869  1
  O  O0  1  0.12741982  0.25483963  0.28146823  1
  O  O1  1  0.20676662  0.41353424  0.62301450  1
  O  O2  1  0.52974510  0.05949019  0.65672359  1
  O  O3  1  0.87258018  0.74516037  0.71853177  1
  O  O4  1  0.82552336  0.65104573  0.03114076  1
  O  O5  1  0.50000000  -0.00000000  -0.00000000  1
  O  O6  1  0.17447664  0.34895427  0.96885924  1
  O  O7  1  0.79323338  0.58646576  0.37698450  1
  O  O8  1  0.47025490  0.94050981  0.34327641  1
loop_
_geom_bond_atom_site_label_1
_geom_bond_atom_site_label_2
_geom_bond_distance
_geom_bond_site_symmetry_2
O0 Tm5 2.200996 1_445
O0 Tm1 2.348007 1_555
O0 Tm1 2.348009 1_455
O0 Tm0 2.417383 1_455
O0 Tm0 2.417388 1_555
O1 Tm0 2.186291 1_455
O1 Tm0 2.186299 1_555
O1 Tm2 2.245930 1_555
O1 Tm4 2.504678 1_555
O2 Tm3 2.152020 1_555
O2 Tm3 2.152020 1_655
O2 Tm0 2.207174 1_555
O2 Tm4 2.368523 1_545
O3 Tm3 2.200996 1_665
O3 Tm2 2.348007 1_555
O3 Tm2 2.348009 1_655
O3 Tm4 2.417383 1_655
O3 Tm4 2.417388 1_555
O4 Tm5 2.142256 1_555
O4 Tm1 2.187938 1_555
O4 Tm2 2.202402 1_654
O4 Tm2 2.202402 1_554
O5 Tm3 2.411644 1_554
O5 Tm5 2.411644 1_545
O5 Tm3 2.411644 1_654
O5 Tm5 2.411644 1_445
O5 Tm2 2.670364 1_544
O5 Tm1 2.670364 1_555
O6 Tm3 2.142256 1_555
O6 Tm2 2.187938 1_555
O6 Tm1 2.202402 1_456
O6 Tm1 2.202402 1_556
O7 Tm4 2.186295 1_655
O7 Tm4 2.186303 1_555
O7 Tm1 2.245924 1_555
O7 Tm0 2.504682 1_555
O8 Tm5 2.152020 1_555
O8 Tm5 2.152020 1_455
O8 Tm4 2.207174 1_555
O8 Tm0 2.368523 1_565
