# generated using pymatgen
data_MnH2(CO2)2
_symmetry_space_group_name_H-M   'P 1'
_cell_length_a   5.93980400
_cell_length_b   7.64368700
_cell_length_c   9.64721300
_cell_angle_alpha   90.00000000
_cell_angle_beta   90.00000000
_cell_angle_gamma   90.00000000
_symmetry_Int_Tables_number   1
_chemical_formula_structural   MnH2(CO2)2
_chemical_formula_sum   'Mn4 H8 C8 O16'
_cell_volume   438.00278988
_cell_formula_units_Z   4
loop_
 _symmetry_equiv_pos_site_id
 _symmetry_equiv_pos_as_xyz
  1  'x, y, z'
loop_
 _atom_site_type_symbol
 _atom_site_label
 _atom_site_symmetry_multiplicity
 _atom_site_fract_x
 _atom_site_fract_y
 _atom_site_fract_z
 _atom_site_occupancy
  Mn  Mn0  1  0.25000000  0.00000000  0.89365600  1
  Mn  Mn1  1  0.25000000  0.50000000  0.39365600  1
  Mn  Mn2  1  0.75000000  0.50000000  0.60634400  1
  Mn  Mn3  1  0.75000000  0.00000000  0.10634400  1
  H  H0  1  0.19082500  0.16511100  0.58777900  1
  H  H1  1  0.80917500  0.83488900  0.41222100  1
  H  H2  1  0.69082500  0.33488900  0.91222100  1
  H  H3  1  0.80917500  0.66511100  0.91222100  1
  H  H4  1  0.30917500  0.83488900  0.58777900  1
  H  H5  1  0.30917500  0.66511100  0.08777900  1
  H  H6  1  0.19082500  0.33488900  0.08777900  1
  H  H7  1  0.69082500  0.16511100  0.41222100  1
  C  C0  1  0.65316600  0.77874200  0.36855100  1
  C  C1  1  0.34683400  0.27874200  0.13144900  1
  C  C2  1  0.84683400  0.27874200  0.86855100  1
  C  C3  1  0.65316600  0.72125800  0.86855100  1
  C  C4  1  0.15316600  0.77874200  0.63144900  1
  C  C5  1  0.84683400  0.22125800  0.36855100  1
  C  C6  1  0.34683400  0.22125800  0.63144900  1
  C  C7  1  0.15316600  0.72125800  0.13144900  1
  O  O0  1  0.92691400  0.34167500  0.75876500  1
  O  O1  1  0.42691400  0.15832500  0.74123500  1
  O  O2  1  0.06543200  0.84800700  0.06274900  1
  O  O3  1  0.56543200  0.84800700  0.93725100  1
  O  O4  1  0.06543200  0.65199300  0.56274900  1
  O  O5  1  0.42691400  0.34167500  0.24123500  1
  O  O6  1  0.43456800  0.34800700  0.56274900  1
  O  O7  1  0.57308600  0.84167500  0.25876500  1
  O  O8  1  0.07308600  0.65832500  0.24123500  1
  O  O9  1  0.93456800  0.15199300  0.93725100  1
  O  O10  1  0.07308600  0.84167500  0.74123500  1
  O  O11  1  0.56543200  0.65199300  0.43725100  1
  O  O12  1  0.92691400  0.15832500  0.25876500  1
  O  O13  1  0.57308600  0.65832500  0.75876500  1
  O  O14  1  0.93456800  0.34800700  0.43725100  1
  O  O15  1  0.43456800  0.15199300  0.06274900  1
loop_
_geom_bond_atom_site_label_1
_geom_bond_atom_site_label_2
_geom_bond_distance
_geom_bond_site_symmetry_2
Mn0 O1 2.175084 1_555
Mn0 O10 2.175084 1_545
Mn0 O3 2.244331 1_545
Mn0 O9 2.244331 1_455
Mn0 O15 2.283129 1_556
Mn0 O2 2.283129 1_546
Mn1 O8 2.175084 1_555
Mn1 O5 2.175084 1_555
Mn1 O11 2.244331 1_555
Mn1 O14 2.244331 1_455
Mn1 O6 2.283129 1_555
Mn1 O4 2.283129 1_555
Mn2 O13 2.175084 1_555
Mn2 O0 2.175084 1_555
Mn2 O4 2.244331 1_655
Mn2 O6 2.244331 1_555
Mn2 O11 2.283129 1_555
Mn2 O14 2.283129 1_555
Mn3 O12 2.175084 1_555
Mn3 O7 2.175084 1_545
Mn3 O2 2.244331 1_645
Mn3 O15 2.244331 1_555
Mn3 O9 2.283129 1_554
Mn3 O3 2.283129 1_544
C0 H1 1.104708 1_555
C0 O7 1.256744 1_555
C0 O11 1.284311 1_555
C1 H6 1.104708 1_555
C1 O5 1.256744 1_555
C1 O15 1.284311 1_555
C2 H2 1.104708 1_555
C2 O0 1.256744 1_555
C2 O9 1.284311 1_555
C3 H3 1.104708 1_555
C3 O13 1.256744 1_555
C3 O3 1.284311 1_555
C4 H4 1.104708 1_555
C4 O10 1.256744 1_555
C4 O4 1.284311 1_555
C5 H7 1.104708 1_555
C5 O12 1.256744 1_555
C5 O14 1.284311 1_555
C6 H0 1.104708 1_555
C6 O1 1.256744 1_555
C6 O6 1.284311 1_555
C7 H5 1.104708 1_555
C7 O8 1.256744 1_555
C7 O2 1.284311 1_555
