# generated using pymatgen
data_CdAg4Ge2S7
_symmetry_space_group_name_H-M   'P 1'
_cell_length_a   9.55580939
_cell_length_b   9.55580939
_cell_length_c   10.65016113
_cell_angle_alpha   86.99913207
_cell_angle_beta   86.99913207
_cell_angle_gamma   42.54142314
_symmetry_Int_Tables_number   1
_chemical_formula_structural   CdAg4Ge2S7
_chemical_formula_sum   'Cd2 Ag8 Ge4 S14'
_cell_volume   656.49358570
_cell_formula_units_Z   2
loop_
 _symmetry_equiv_pos_site_id
 _symmetry_equiv_pos_as_xyz
  1  'x, y, z'
loop_
 _atom_site_type_symbol
 _atom_site_label
 _atom_site_symmetry_multiplicity
 _atom_site_fract_x
 _atom_site_fract_y
 _atom_site_fract_z
 _atom_site_occupancy
  Cd  Cd0  1  0.96938800  0.32988300  0.28951600  1
  Cd  Cd1  1  0.32988300  0.96938800  0.78951600  1
  Ag  Ag0  1  0.82481800  0.18456600  0.99970500  1
  Ag  Ag1  1  0.18456600  0.82481800  0.49970500  1
  Ag  Ag2  1  0.61337500  0.25964900  0.38617000  1
  Ag  Ag3  1  0.25964900  0.61337500  0.88617000  1
  Ag  Ag4  1  0.46973000  0.10820700  0.09760100  1
  Ag  Ag5  1  0.10820700  0.46973000  0.59760100  1
  Ag  Ag6  1  0.60270100  0.84479800  0.44509600  1
  Ag  Ag7  1  0.84479800  0.60270100  0.94509600  1
  Ge  Ge0  1  0.39766300  0.74711500  0.16865500  1
  Ge  Ge1  1  0.74711500  0.39766300  0.66865500  1
  Ge  Ge2  1  0.03490600  0.68954300  0.24382600  1
  Ge  Ge3  1  0.68954300  0.03490600  0.74382600  1
  S  S0  1  0.80344000  0.13451900  0.59587500  1
  S  S1  1  0.13451900  0.80344000  0.09587500  1
  S  S2  1  0.70012300  0.96730500  0.28373500  1
  S  S3  1  0.96730500  0.70012300  0.78373500  1
  S  S4  1  0.08395000  0.45354100  0.14148000  1
  S  S5  1  0.45354100  0.08395000  0.64148000  1
  S  S6  1  0.46590800  0.86405700  0.01672300  1
  S  S7  1  0.86405700  0.46590800  0.51672300  1
  S  S8  1  0.29320300  0.93687700  0.33898500  1
  S  S9  1  0.93687700  0.29320300  0.83898500  1
  S  S10  1  0.40473400  0.67379700  0.70335700  1
  S  S11  1  0.67379700  0.40473400  0.20335700  1
  S  S12  1  0.21917100  0.55803500  0.41607700  1
  S  S13  1  0.55803500  0.21917100  0.91607700  1
loop_
_geom_bond_atom_site_label_1
_geom_bond_atom_site_label_2
_geom_bond_distance
_geom_bond_site_symmetry_2
Cd0 S11 2.560774 1_555
Cd0 S4 2.571161 1_655
Cd0 S7 2.589296 1_555
Cd0 S8 2.606844 1_645
Cd1 S10 2.560774 1_555
Cd1 S5 2.571161 1_565
Cd1 S6 2.589296 1_556
Cd1 S9 2.606844 1_465
Ag0 S13 2.523160 1_555
Ag0 S9 2.532653 1_555
Ag0 S11 2.624729 1_556
Ag0 S1 2.667503 1_646
Ag1 S12 2.523160 1_555
Ag1 S8 2.532653 1_555
Ag1 S10 2.624729 1_555
Ag1 S0 2.667503 1_465
Ag2 S2 2.548221 1_545
Ag2 S12 2.561922 1_555
Ag2 S0 2.580968 1_555
Ag2 S11 2.612565 1_555
Ag3 S3 2.548221 1_455
Ag3 S13 2.561922 1_555
Ag3 S1 2.580968 1_556
Ag3 S10 2.612565 1_555
Ag4 S2 2.529625 1_545
Ag4 S13 2.550868 1_554
Ag4 S6 2.554540 1_545
Ag4 S4 2.598617 1_555
Ag5 S3 2.529625 1_455
Ag5 S12 2.550868 1_555
Ag5 S7 2.554540 1_455
Ag5 S5 2.598617 1_555
Ag6 S2 2.533413 1_555
Ag6 S7 2.552202 1_555
Ag6 S5 2.648965 1_565
Ag6 S8 2.685020 1_555
Ag7 S3 2.533413 1_555
Ag7 S6 2.552202 1_556
Ag7 S4 2.648965 1_656
Ag7 S9 2.685020 1_555
Ge0 S11 2.248883 1_555
Ge0 S8 2.250081 1_555
Ge0 S6 2.250853 1_555
Ge0 S1 2.319379 1_555
Ge1 S10 2.248883 1_555
Ge1 S9 2.250081 1_555
Ge1 S7 2.250853 1_555
Ge1 S0 2.319379 1_555
Ge2 S12 2.209347 1_555
Ge2 S2 2.218848 1_455
Ge2 S4 2.267174 1_555
Ge2 S1 2.400734 1_555
Ge3 S13 2.209347 1_555
Ge3 S3 2.218848 1_545
Ge3 S5 2.267174 1_555
Ge3 S0 2.400734 1_555
