# generated using pymatgen
data_LiV6O13
_symmetry_space_group_name_H-M   'P 1'
_cell_length_a   11.37579651
_cell_length_b   11.37579651
_cell_length_c   12.01010363
_cell_angle_alpha   69.68584958
_cell_angle_beta   69.68584958
_cell_angle_gamma   19.03617685
_symmetry_Int_Tables_number   1
_chemical_formula_structural   LiV6O13
_chemical_formula_sum   'Li2 V12 O26'
_cell_volume   474.48380924
_cell_formula_units_Z   2
loop_
 _symmetry_equiv_pos_site_id
 _symmetry_equiv_pos_as_xyz
  1  'x, y, z'
loop_
 _atom_site_type_symbol
 _atom_site_label
 _atom_site_symmetry_multiplicity
 _atom_site_fract_x
 _atom_site_fract_y
 _atom_site_fract_z
 _atom_site_occupancy
  Li  Li0  1  0.81529600  0.81529600  0.75984200  1
  Li  Li1  1  0.18470400  0.18470400  0.24015800  1
  V  V0  1  0.77496000  0.77496000  0.07452700  1
  V  V1  1  0.22504000  0.22504000  0.92547300  1
  V  V2  1  0.24797400  0.24797400  0.60470600  1
  V  V3  1  0.75202600  0.75202600  0.39529400  1
  V  V4  1  0.94815700  0.94815700  0.96350200  1
  V  V5  1  0.05184300  0.05184300  0.03649800  1
  V  V6  1  0.42929100  0.42929100  0.48313000  1
  V  V7  1  0.57070900  0.57070900  0.51687000  1
  V  V8  1  0.92730000  0.92730000  0.28701300  1
  V  V9  1  0.07270000  0.07270000  0.71298700  1
  V  V10  1  0.43580000  0.43580000  0.77395400  1
  V  V11  1  0.56420000  0.56420000  0.22604600  1
  O  O0  1  0.75285600  0.75285600  0.92710300  1
  O  O1  1  0.24714400  0.24714400  0.07289700  1
  O  O2  1  0.24854200  0.24854200  0.43752200  1
  O  O3  1  0.75145800  0.75145800  0.56247800  1
  O  O4  1  0.93882600  0.93882600  0.44340600  1
  O  O5  1  0.06117400  0.06117400  0.55659400  1
  O  O6  1  0.44687000  0.44687000  0.93366200  1
  O  O7  1  0.55313000  0.55313000  0.06633800  1
  O  O8  1  0.95784100  0.95784100  0.78692600  1
  O  O9  1  0.04215900  0.04215900  0.21307400  1
  O  O10  1  0.44951000  0.44951000  0.30411100  1
  O  O11  1  0.55049000  0.55049000  0.69588900  1
  O  O12  1  0.74914900  0.74914900  0.24844600  1
  O  O13  1  0.25085100  0.25085100  0.75155400  1
  O  O14  1  0.85515700  0.85515700  0.02635100  1
  O  O15  1  0.14484300  0.14484300  0.97364900  1
  O  O16  1  0.34929500  0.34929500  0.54791600  1
  O  O17  1  0.65070500  0.65070500  0.45208400  1
  O  O18  1  0.84688000  0.84688000  0.32778500  1
  O  O19  1  0.15312000  0.15312000  0.67221500  1
  O  O20  1  0.35645900  0.35645900  0.80627200  1
  O  O21  1  0.64354100  0.64354100  0.19372800  1
  O  O22  1  0.95565700  0.95565700  0.11014800  1
  O  O23  1  0.04434300  0.04434300  0.88985200  1
  O  O24  1  0.45807000  0.45807000  0.60188300  1
  O  O25  1  0.54193000  0.54193000  0.39811700  1
loop_
_geom_bond_atom_site_label_1
_geom_bond_atom_site_label_2
_geom_bond_distance
_geom_bond_site_symmetry_2
Li0 O0 2.004209 1_555
Li0 O20 2.250589 1_565
Li0 O20 2.250589 1_655
Li0 O13 2.395993 1_655
Li0 O13 2.395993 1_565
Li1 O1 2.004209 1_555
Li1 O21 2.250589 1_545
Li1 O21 2.250589 1_455
Li1 O12 2.395993 1_545
Li1 O12 2.395993 1_455
O0 V1 1.984198 1_565
O0 V1 1.984198 1_655
O0 V0 1.999798 1_556
O1 V0 1.984198 1_545
O1 V0 1.984198 1_455
O1 V1 1.999798 1_554
O2 V3 1.942656 1_545
O2 V3 1.942656 1_455
O2 V2 2.003446 1_555
O3 V2 1.942656 1_655
O3 V2 1.942656 1_565
O3 V3 2.003446 1_555
O4 V6 1.933915 1_655
O4 V6 1.933915 1_565
O4 V8 1.984157 1_555
O5 V7 1.933915 1_455
O5 V7 1.933915 1_545
O5 V9 1.984157 1_555
O6 V4 1.917044 1_455
O6 V4 1.917044 1_545
O6 V10 2.018978 1_555
O7 V5 1.917044 1_655
O7 V5 1.917044 1_565
O7 V11 2.018978 1_555
O8 V10 1.965098 1_565
O8 V10 1.965098 1_655
O8 V4 2.054299 1_555
O8 V9 2.412370 1_665
O9 V11 1.965098 1_455
O9 V11 1.965098 1_545
O9 V5 2.054299 1_555
O9 V8 2.412370 1_445
O10 V8 1.975114 1_545
O10 V8 1.975114 1_455
O10 V6 2.035130 1_555
O10 V11 2.408952 1_555
O11 V9 1.975114 1_655
O11 V9 1.975114 1_565
O11 V7 2.035130 1_555
O11 V10 2.408952 1_555
O12 V3 1.787406 1_555
O12 V0 1.961316 1_555
O13 V2 1.787406 1_555
O13 V1 1.961316 1_555
O14 V0 1.685207 1_555
O14 V4 1.953311 1_554
O15 V1 1.685207 1_555
O15 V5 1.953311 1_556
O16 V6 1.686445 1_555
O16 V2 2.131248 1_555
O17 V7 1.686445 1_555
O17 V3 2.131248 1_555
O18 V8 1.695256 1_555
O18 V3 1.993095 1_555
O19 V9 1.695256 1_555
O19 V2 1.993095 1_555
O20 V10 1.683324 1_555
O21 V11 1.683324 1_555
O22 V4 1.827275 1_554
O22 V8 1.991331 1_555
O22 V5 2.023971 1_665
O23 V5 1.827275 1_556
O23 V9 1.991331 1_555
O23 V4 2.023971 1_445
O24 V6 1.760555 1_555
O24 V10 1.947682 1_555
O24 V7 2.369311 1_555
O25 V7 1.760555 1_555
O25 V11 1.947682 1_555
O25 V6 2.369311 1_555
