# generated using pymatgen
data_BaP2PbO7
_symmetry_space_group_name_H-M   'P 1'
_cell_length_a   5.63635310
_cell_length_b   9.12987411
_cell_length_c   13.46135443
_cell_angle_alpha   90.00000000
_cell_angle_beta   90.00000000
_cell_angle_gamma   90.00000000
_symmetry_Int_Tables_number   1
_chemical_formula_structural   BaP2PbO7
_chemical_formula_sum   'Ba4 P8 Pb4 O28'
_cell_volume   692.71045238
_cell_formula_units_Z   4
loop_
 _symmetry_equiv_pos_site_id
 _symmetry_equiv_pos_as_xyz
  1  'x, y, z'
loop_
 _atom_site_type_symbol
 _atom_site_label
 _atom_site_symmetry_multiplicity
 _atom_site_fract_x
 _atom_site_fract_y
 _atom_site_fract_z
 _atom_site_occupancy
  Ba  Ba0  1  0.75000000  0.15761793  0.26045241  1
  Ba  Ba1  1  0.25000000  0.84238207  0.73954759  1
  Ba  Ba2  1  0.75000000  0.65761793  0.23954759  1
  Ba  Ba3  1  0.25000000  0.34238207  0.76045241  1
  P  P0  1  0.75000000  0.28322597  0.96614731  1
  P  P1  1  0.25000000  0.71677403  0.03385269  1
  P  P2  1  0.75000000  0.78322597  0.53385269  1
  P  P3  1  0.25000000  0.21677403  0.46614731  1
  P  P4  1  0.75000000  0.04345250  0.82052567  1
  P  P5  1  0.25000000  0.95654750  0.17947433  1
  P  P6  1  0.75000000  0.54345250  0.67947433  1
  P  P7  1  0.25000000  0.45654750  0.32052567  1
  Pb  Pb0  1  0.25000000  0.36347898  0.08842172  1
  Pb  Pb1  1  0.75000000  0.63652102  0.91157828  1
  Pb  Pb2  1  0.25000000  0.86347898  0.41157828  1
  Pb  Pb3  1  0.75000000  0.13652102  0.58842172  1
  O  O0  1  0.97324612  0.35720414  0.92644840  1
  O  O1  1  0.47324612  0.64279586  0.07355160  1
  O  O2  1  0.52675388  0.85720414  0.57355160  1
  O  O3  1  0.02675388  0.14279586  0.42644840  1
  O  O4  1  0.02675388  0.64279586  0.07355160  1
  O  O5  1  0.52675388  0.35720414  0.92644840  1
  O  O6  1  0.47324612  0.14279586  0.42644840  1
  O  O7  1  0.97324612  0.85720414  0.57355160  1
  O  O8  1  0.75000000  0.27678724  0.07835612  1
  O  O9  1  0.25000000  0.72321276  0.92164388  1
  O  O10  1  0.75000000  0.77678724  0.42164388  1
  O  O11  1  0.25000000  0.22321276  0.57835612  1
  O  O12  1  0.75000000  0.11545861  0.92949772  1
  O  O13  1  0.25000000  0.88454139  0.07050228  1
  O  O14  1  0.75000000  0.61545861  0.57050228  1
  O  O15  1  0.25000000  0.38454139  0.42949772  1
  O  O16  1  0.75000000  0.87948966  0.83744345  1
  O  O17  1  0.25000000  0.12051034  0.16255655  1
  O  O18  1  0.75000000  0.37948966  0.66255655  1
  O  O19  1  0.25000000  0.62051034  0.33744345  1
  O  O20  1  0.52843927  0.09354450  0.76551209  1
  O  O21  1  0.02843927  0.90645550  0.23448791  1
  O  O22  1  0.97156073  0.59354450  0.73448791  1
  O  O23  1  0.47156073  0.40645550  0.26551209  1
  O  O24  1  0.47156073  0.90645550  0.23448791  1
  O  O25  1  0.97156073  0.09354450  0.76551209  1
  O  O26  1  0.02843927  0.40645550  0.26551209  1
  O  O27  1  0.52843927  0.59354450  0.73448791  1
loop_
_geom_bond_atom_site_label_1
_geom_bond_atom_site_label_2
_geom_bond_distance
_geom_bond_site_symmetry_2
Ba0 O8 2.681871 1_555
Ba0 O6 2.728493 1_555
Ba0 O3 2.728493 1_655
Ba0 O23 2.762051 1_555
Ba0 O26 2.762051 1_655
Ba0 O21 2.800597 1_645
Ba0 O24 2.800597 1_545
Ba0 O17 3.129460 1_655
Ba0 O17 3.129460 1_555
Ba1 O9 2.681871 1_555
Ba1 O2 2.728493 1_555
Ba1 O7 2.728493 1_455
Ba1 O27 2.762051 1_555
Ba1 O22 2.762051 1_455
Ba1 O25 2.800597 1_465
Ba1 O20 2.800597 1_565
Ba1 O16 3.129460 1_455
Ba1 O16 3.129460 1_555
Ba2 O10 2.681871 1_555
Ba2 O1 2.728493 1_555
Ba2 O4 2.728493 1_655
Ba2 O24 2.762051 1_555
Ba2 O21 2.762051 1_655
Ba2 O26 2.800597 1_655
Ba2 O23 2.800597 1_555
Ba2 O19 3.129460 1_555
Ba2 O19 3.129460 1_655
Ba3 O11 2.681871 1_555
Ba3 O5 2.728493 1_555
Ba3 O0 2.728493 1_455
Ba3 O20 2.762051 1_555
Ba3 O25 2.762051 1_455
Ba3 O27 2.800597 1_555
Ba3 O22 2.800597 1_455
Ba3 O18 3.129460 1_455
Ba3 O18 3.129460 1_555
O0 P0 1.524818 1_555
O0 Pb0 2.681525 1_656
O1 P1 1.524818 1_555
O1 Pb1 2.681525 1_554
O2 P2 1.524818 1_555
O2 Pb2 2.681525 1_555
O3 P3 1.524818 1_555
O3 Pb3 2.681525 1_455
O4 P1 1.524818 1_555
O4 Pb1 2.681525 1_454
O5 P0 1.524818 1_555
O5 Pb0 2.681525 1_556
O6 P3 1.524818 1_555
O6 Pb3 2.681525 1_555
O7 P2 1.524818 1_555
O7 Pb2 2.681525 1_655
O8 P0 1.511626 1_554
O9 P1 1.511626 1_556
O10 P2 1.511626 1_555
O11 P3 1.511626 1_555
O12 P4 1.607486 1_555
O12 P0 1.609188 1_555
O13 P5 1.607486 1_555
O13 P1 1.609188 1_555
O14 P6 1.607486 1_555
O14 P2 1.609188 1_555
O15 P7 1.607486 1_555
O15 P3 1.609188 1_555
O16 P4 1.514184 1_565
O16 Pb1 2.432417 1_555
O17 P5 1.514184 1_545
O17 Pb0 2.432417 1_555
O18 P6 1.514184 1_555
O18 Pb3 2.432417 1_555
O19 P7 1.514184 1_555
O19 Pb2 2.432417 1_555
O20 P4 1.522191 1_555
O20 Pb3 2.719615 1_555
O21 P5 1.522191 1_555
O21 Pb2 2.719615 1_555
O22 P6 1.522191 1_555
O22 Pb1 2.719615 1_555
O23 P7 1.522191 1_555
O23 Pb0 2.719615 1_555
O24 P5 1.522191 1_555
O24 Pb2 2.719615 1_555
O25 P4 1.522191 1_555
O25 Pb3 2.719615 1_555
O26 P7 1.522191 1_555
O26 Pb0 2.719615 1_555
O27 P6 1.522191 1_555
O27 Pb1 2.719615 1_555
