# generated using pymatgen
data_Tl8Sb21As19(PbS17)4
_symmetry_space_group_name_H-M   'P 1'
_cell_length_a   8.59967500
_cell_length_b   17.04317354
_cell_length_c   21.71991592
_cell_angle_alpha   84.91318441
_cell_angle_beta   84.51673985
_cell_angle_gamma   89.34210101
_symmetry_Int_Tables_number   1
_chemical_formula_structural   Tl8Sb21As19(PbS17)4
_chemical_formula_sum   'Tl8 Sb21 As19 Pb4 S68'
_cell_volume   3156.33413256
_cell_formula_units_Z   1
loop_
 _symmetry_equiv_pos_site_id
 _symmetry_equiv_pos_as_xyz
  1  'x, y, z'
loop_
 _atom_site_type_symbol
 _atom_site_label
 _atom_site_symmetry_multiplicity
 _atom_site_fract_x
 _atom_site_fract_y
 _atom_site_fract_z
 _atom_site_occupancy
  Tl  Tl0  1  0.40834700  0.72919800  0.32314700  1
  Tl  Tl1  1  0.55603800  0.27464300  0.68814400  1
  Tl  Tl2  1  0.06630700  0.77663500  0.68820200  1
  Tl  Tl3  1  0.07690100  0.28170700  0.68786800  1
  Tl  Tl4  1  0.42888700  0.23575900  0.31554800  1
  Tl  Tl5  1  0.90459200  0.22992900  0.31798900  1
  Tl  Tl6  1  0.91537600  0.73628700  0.31752900  1
  Tl  Tl7  1  0.57360400  0.78529600  0.68330300  1
  Sb  Sb0  1  0.93908300  0.16349500  0.05688800  1
  Sb  Sb1  1  0.82850500  0.00490300  0.61063700  1
  Sb  Sb2  1  0.86959100  0.34268500  0.48542400  1
  Sb  Sb3  1  0.47951500  0.84203100  0.93401900  1
  Sb  Sb4  1  0.21568200  0.83380300  0.11986300  1
  Sb  Sb5  1  0.11175400  0.17085100  0.52106200  1
  Sb  Sb6  1  0.15301000  0.50994900  0.39504500  1
  Sb  Sb7  1  0.76310300  0.67991400  0.88710600  1
  Sb  Sb8  1  0.41216400  0.49221100  0.24070100  1
  Sb  Sb9  1  0.72427700  0.49138400  0.98133900  1
  Sb  Sb10  1  0.94041200  0.66308500  0.05844000  1
  Sb  Sb11  1  0.33154400  0.50044400  0.61404300  1
  Sb  Sb12  1  0.04383100  0.52744400  0.76656700  1
  Sb  Sb13  1  0.57682700  0.02296100  0.76517100  1
  Sb  Sb14  1  0.76270900  0.18321900  0.88456100  1
  Sb  Sb15  1  0.24767700  0.67650900  0.87312300  1
  Sb  Sb16  1  0.21707600  0.33607400  0.12503000  1
  Sb  Sb17  1  0.95726300  0.97944600  0.23454500  1
  Sb  Sb18  1  0.64880500  0.01454200  0.38913300  1
  Sb  Sb19  1  0.61284000  0.67021100  0.52066400  1
  Sb  Sb20  1  0.37005700  0.84476400  0.48451500  1
  As  As0  1  0.63281600  0.15776200  0.49370100  1
  As  As1  1  0.32934500  0.99932500  0.63149200  1
  As  As2  1  0.73282600  0.99710200  0.96121700  1
  As  As3  1  0.82081100  0.49690000  0.63183100  1
  As  As4  1  0.71825700  0.32761000  0.13305800  1
  As  As5  1  0.47264800  0.34630200  0.93357700  1
  As  As6  1  0.74024900  0.82837500  0.13715300  1
  As  As7  1  0.06070400  0.85064200  0.93726800  1
  As  As8  1  0.51501100  0.16620100  0.06905500  1
  As  As9  1  0.65182400  0.51434000  0.37414500  1
  As  As10  1  0.06448600  0.34907200  0.94328600  1
  As  As11  1  0.52140600  0.67372600  0.07703900  1
  As  As12  1  0.25872200  0.01740800  0.03756200  1
  As  As13  1  0.25870900  0.52319600  0.04619900  1
  As  As14  1  0.85013900  0.85660600  0.51048700  1
  As  As15  1  0.26144500  0.18689600  0.87241500  1
  As  As16  1  0.34963800  0.35534600  0.51071200  1
  As  As17  1  0.13263600  0.65830600  0.49507600  1
  As  As18  1  0.16114300  0.01480600  0.37087700  1
  Pb  Pb0  1  0.45466500  0.00307100  0.22484600  1
  Pb  Pb1  1  0.92740900  0.49303900  0.22911600  1
  Pb  Pb2  1  0.05443700  0.02106100  0.77771000  1
  Pb  Pb3  1  0.54746000  0.51326500  0.77805000  1
  S  S0  1  0.54898600  0.08992900  0.93562700  1
  S  S1  1  0.69156500  0.37238700  0.22829200  1
  S  S2  1  0.10576500  0.27941000  0.43247000  1
  S  S3  1  0.67196600  0.59631600  0.28693800  1
  S  S4  1  0.69698800  0.57921500  0.10425400  1
  S  S5  1  0.87504900  0.23409400  0.57386900  1
  S  S6  1  0.91708300  0.23984600  0.15486900  1
  S  S7  1  0.06819700  0.28002000  0.85361000  1
  S  S8  1  0.43513000  0.42713400  0.07221500  1
  S  S9  1  0.37299300  0.93434300  0.35558800  1
  S  S10  1  0.05027900  0.78166600  0.84762700  1
  S  S11  1  0.82881800  0.73587500  0.56820000  1
  S  S12  1  0.03290400  0.90666900  0.56798200  1
  S  S13  1  0.77675300  0.13025800  0.76920000  1
  S  S14  1  0.69180700  0.07680500  0.10006800  1
  S  S15  1  0.48228800  0.76280200  0.83912600  1
  S  S16  1  0.44409400  0.10837900  0.43855600  1
  S  S17  1  0.94775500  0.07238600  0.92371300  1
  S  S18  1  0.15341600  0.77893600  0.43721700  1
  S  S19  1  0.28398800  0.09842800  0.11892200  1
  S  S20  1  0.28048600  0.43325000  0.90781300  1
  S  S21  1  0.71295600  0.92214300  0.87719200  1
  S  S22  1  0.51782000  0.74970300  0.16380500  1
  S  S23  1  0.60602000  0.78109500  0.43205700  1
  S  S24  1  0.32551100  0.23591600  0.57039400  1
  S  S25  1  0.50107900  0.24364900  0.15565100  1
  S  S26  1  0.94869300  0.60759400  0.43832700  1
  S  S27  1  0.53763200  0.59262200  0.94500100  1
  S  S28  1  0.19791200  0.75791800  0.99068600  1
  S  S29  1  0.79029500  0.93177000  0.71684100  1
  S  S30  1  0.72434600  0.87647000  0.23640800  1
  S  S31  1  0.65515800  0.27835800  0.43564400  1
  S  S32  1  0.77325400  0.76266900  0.01258200  1
  S  S33  1  0.79948000  0.62910200  0.78135300  1
  S  S34  1  0.95433600  0.93470300  0.34742800  1
  S  S35  1  0.29188700  0.42772900  0.71767000  1
  S  S36  1  0.30563200  0.91640000  0.71771100  1
  S  S37  1  0.53614800  0.40547100  0.56662700  1
  S  S38  1  0.84156200  0.09496700  0.44476800  1
  S  S39  1  0.63985400  0.92013100  0.55887300  1
  S  S40  1  0.04093700  0.94479300  0.07768300  1
  S  S41  1  0.27151800  0.93474700  0.90135400  1
  S  S42  1  0.45041800  0.43237900  0.34967900  1
  S  S43  1  0.02553100  0.57739600  0.65617400  1
  S  S44  1  0.34263700  0.59518100  0.44601900  1
  S  S45  1  0.61127800  0.57872700  0.64807000  1
  S  S46  1  0.28175400  0.14490900  0.77681500  1
  S  S47  1  0.77512600  0.25593000  0.99975200  1
  S  S48  1  0.47899800  0.26998600  0.84837600  1
  S  S49  1  0.19206600  0.58237100  0.28858400  1
  S  S50  1  0.43942600  0.92507200  0.06393500  1
  S  S51  1  0.18946900  0.88004600  0.22688200  1
  S  S52  1  0.19458000  0.26217100  0.00322500  1
  S  S53  1  0.53141700  0.08134400  0.65605400  1
  S  S54  1  0.28850200  0.60332100  0.12676700  1
  S  S55  1  0.11177700  0.07779700  0.65054800  1
  S  S56  1  0.20673800  0.38349700  0.23727800  1
  S  S57  1  0.95092800  0.57580200  0.93450100  1
  S  S58  1  0.68582000  0.08725500  0.28568100  1
  S  S59  1  0.37677900  0.73389500  0.57305900  1
  S  S60  1  0.93385000  0.73874400  0.15915200  1
  S  S61  1  0.04018300  0.45156000  0.08622400  1
  S  S62  1  0.69067100  0.41428900  0.88513500  1
  S  S63  1  0.25826600  0.63396800  0.76302200  1
  S  S64  1  0.87001600  0.43621400  0.35572700  1
  S  S65  1  0.79616900  0.41928300  0.72206400  1
  S  S66  1  0.18448000  0.09115000  0.27991300  1
  S  S67  1  0.14071600  0.42038000  0.55757300  1
loop_
_geom_bond_atom_site_label_1
_geom_bond_atom_site_label_2
_geom_bond_distance
_geom_bond_site_symmetry_2
As0 S38 2.300107 1_555
As0 S31 2.314002 1_555
As0 S16 2.314852 1_555
As1 S36 2.238350 1_555
As1 S55 2.313736 1_565
As1 S53 2.371416 1_565
As2 S0 2.294749 1_565
As2 S17 2.303802 1_565
As2 S21 2.338814 1_555
As3 S65 2.259018 1_555
As3 S45 2.285661 1_555
As3 S43 2.371312 1_655
As4 S1 2.258057 1_555
As4 S6 2.314246 1_555
As4 S25 2.353362 1_555
As5 S20 2.283283 1_555
As5 S62 2.328453 1_555
As5 S48 2.350567 1_555
As6 S60 2.301730 1_555
As6 S22 2.345510 1_555
As6 S30 2.364859 1_555
As7 S28 2.264832 1_555
As7 S41 2.353936 1_555
As7 S10 2.371170 1_555
As8 S14 2.246593 1_555
As8 S25 2.384916 1_555
As8 S19 2.423629 1_555
As9 S3 2.245725 1_555
As9 S64 2.312443 1_555
As9 S42 2.365724 1_555
As10 S52 2.244648 1_556
As10 S7 2.360831 1_555
As10 S20 2.386203 1_555
As11 S4 2.273719 1_555
As11 S22 2.376958 1_555
As11 S54 2.455596 1_555
As11 S32 2.840457 1_555
As12 S50 2.274567 1_545
As12 S40 2.312741 1_545
As12 S19 2.364246 1_555
As13 S8 2.290034 1_555
As13 S61 2.308724 1_555
As13 S54 2.347382 1_555
As14 S39 2.310951 1_555
As14 S11 2.312178 1_555
As14 S12 2.313573 1_655
As15 S46 2.246202 1_555
As15 S7 2.324179 1_555
As15 S48 2.349735 1_555
As16 S67 2.301588 1_555
As16 S24 2.314506 1_555
As16 S37 2.316255 1_555
As17 S44 2.311950 1_555
As17 S18 2.312005 1_555
As17 S26 2.315479 1_455
As18 S66 2.260778 1_555
As18 S9 2.284235 1_545
As18 S34 2.374516 1_445
Pb0 S58 2.942735 1_555
Pb0 S66 2.964765 1_555
Pb0 S9 2.996189 1_545
Pb0 S51 3.110223 1_545
Pb0 S30 3.161883 1_545
Pb0 S19 3.164828 1_555
Pb1 S64 2.832534 1_555
Pb1 S1 2.907133 1_555
Pb1 S56 3.034284 1_655
Pb1 S3 3.045820 1_555
Pb1 S49 3.186921 1_655
Pb1 S61 3.297082 1_655
Pb2 S55 2.843167 1_555
Pb2 S46 2.890911 1_555
Pb2 S13 3.020186 1_455
Pb2 S36 3.054868 1_545
Pb2 S29 3.199017 1_445
Pb3 S65 2.896292 1_555
Pb3 S45 2.945430 1_555
Pb3 S33 2.958541 1_555
Pb3 S62 3.094504 1_555
Pb3 S35 3.104685 1_555
Pb3 S63 3.231420 1_555
S0 Sb14 2.549712 1_555
S1 Sb8 3.142857 1_555
S2 Sb2 2.516760 1_455
S2 Sb5 2.552229 1_555
S4 Sb10 2.614187 1_555
S5 Sb5 2.518645 1_655
S5 Sb2 2.550002 1_555
S6 Sb0 2.581963 1_555
S6 Sb16 3.058507 1_655
S7 Sb14 3.104954 1_455
S8 Sb16 2.565319 1_555
S9 Sb18 2.933652 1_565
S9 Sb20 3.066320 1_555
S10 Sb15 2.516778 1_555
S10 Sb7 3.044934 1_455
S11 Sb19 2.527307 1_555
S12 Sb1 2.578242 1_465
S13 Sb13 2.537135 1_555
S13 Sb14 2.729144 1_555
S14 Sb0 2.651373 1_555
S15 Sb15 2.523826 1_555
S15 Sb3 2.560334 1_555
S15 Sb7 3.009160 1_555
S16 Sb18 2.586083 1_555
S17 Sb14 2.593906 1_555
S18 Sb20 2.530443 1_555
S21 Sb3 2.590047 1_555
S23 Sb20 2.513997 1_555
S23 Sb19 2.579294 1_555
S24 Sb5 2.528010 1_555
S25 Sb16 2.987463 1_555
S26 Sb6 2.575872 1_655
S27 Sb9 2.472511 1_555
S27 Sb7 2.612040 1_555
S28 Sb3 2.937986 1_555
S28 Sb10 2.952828 1_456
S28 Sb15 3.005685 1_555
S29 Sb1 2.517397 1_565
S29 Sb13 2.596713 1_565
S30 Sb17 2.673292 1_555
S31 Sb2 2.531638 1_555
S32 Sb10 2.420105 1_555
S32 Sb7 3.186566 1_554
S33 Sb7 2.516539 1_555
S33 Sb12 2.721520 1_655
S34 Sb17 2.500121 1_555
S34 Sb18 3.042575 1_565
S35 Sb11 2.467082 1_555
S35 Sb12 2.893178 1_555
S35 Tl3 3.263532 1_555
S37 Sb11 2.580789 1_555
S38 Sb18 2.610653 1_555
S39 Sb1 2.583393 1_565
S40 Sb4 2.562485 1_555
S41 Sb3 2.485679 1_555
S42 Sb8 2.542403 1_555
S42 Sb6 2.988612 1_555
S43 Sb12 2.491124 1_555
S43 Sb11 3.025913 1_555
S44 Sb6 2.584534 1_555
S45 Sb11 2.949853 1_555
S45 Sb19 3.052399 1_555
S47 Sb0 2.438571 1_556
S47 Sb14 2.900118 1_555
S48 Sb14 2.972329 1_555
S49 Sb6 2.517564 1_555
S49 Sb8 2.620265 1_555
S50 Sb4 2.623828 1_555
S51 Sb4 2.509112 1_555
S51 Sb17 2.606538 1_455
S52 Sb0 2.874421 1_455
S52 Sb16 3.052434 1_555
S53 Sb13 2.551335 1_555
S53 Sb1 2.977834 1_555
S55 Sb1 2.982154 1_455
S55 Sb5 3.103881 1_555
S56 Sb8 2.585357 1_555
S56 Sb16 2.628961 1_555
S57 Sb9 2.515934 1_555
S57 Sb7 2.597154 1_555
S58 Sb18 2.462628 1_555
S58 Sb17 3.134744 1_545
S59 Sb19 2.514189 1_555
S59 Sb20 2.578116 1_555
S60 Sb10 2.631693 1_555
S60 Sb4 2.945650 1_655
S61 Sb16 2.603964 1_555
S62 Sb9 2.605216 1_555
S63 Sb15 2.552844 1_555
S63 Sb12 2.593753 1_555
S64 Sb6 2.981432 1_655
S64 Sb2 3.111007 1_555
S65 Sb12 3.109363 1_655
S66 Sb17 3.033078 1_445
S67 Sb11 2.606203 1_555
