# generated using pymatgen
data_NaLi2Sb
_symmetry_space_group_name_H-M   'P 1'
_cell_length_a   4.80524814
_cell_length_b   4.80524765
_cell_length_c   4.80524800
_cell_angle_alpha   59.99999761
_cell_angle_beta   60.00000096
_cell_angle_gamma   59.99999331
_symmetry_Int_Tables_number   1
_chemical_formula_structural   NaLi2Sb
_chemical_formula_sum   'Na1 Li2 Sb1'
_cell_volume   78.45712262
_cell_formula_units_Z   1
loop_
 _symmetry_equiv_pos_site_id
 _symmetry_equiv_pos_as_xyz
  1  'x, y, z'
loop_
 _atom_site_type_symbol
 _atom_site_label
 _atom_site_symmetry_multiplicity
 _atom_site_fract_x
 _atom_site_fract_y
 _atom_site_fract_z
 _atom_site_occupancy
  Na  Na0  1  0.50000000  0.50000000  0.50000000  1
  Li  Li0  1  0.25000000  0.25000000  0.25000000  1
  Li  Li1  1  0.75000000  0.75000000  0.75000000  1
  Sb  Sb0  1  0.00000000  0.00000000  0.00000000  1
loop_
_geom_bond_atom_site_label_1
_geom_bond_atom_site_label_2
_geom_bond_distance
_geom_bond_site_symmetry_2
Na0 Sb0 3.397823 1_565
Na0 Sb0 3.397823 1_656
Na0 Sb0 3.397823 1_655
Na0 Sb0 3.397823 1_566
Na0 Sb0 3.397824 1_665
Na0 Sb0 3.397824 1_556
Li0 Sb0 2.942601 1_565
Li0 Na0 2.942601 1_545
Li0 Na0 2.942601 1_455
Li0 Sb0 2.942601 1_655
Li0 Sb0 2.942601 1_556
Li0 Sb0 2.942601 1_555
Li0 Na0 2.942601 1_555
Li0 Na0 2.942601 1_554
Li1 Sb0 2.942601 1_656
Li1 Na0 2.942601 1_565
Li1 Sb0 2.942601 1_566
Li1 Na0 2.942601 1_655
Li1 Sb0 2.942601 1_665
Li1 Sb0 2.942601 1_666
Li1 Na0 2.942601 1_555
Li1 Na0 2.942601 1_556
