# generated using pymatgen
data_Bi2SeO2
_symmetry_space_group_name_H-M   'P 1'
_cell_length_a   3.89133477
_cell_length_b   3.89133414
_cell_length_c   6.71425188
_cell_angle_alpha   106.84489134
_cell_angle_beta   106.84488839
_cell_angle_gamma   89.99999860
_symmetry_Int_Tables_number   1
_chemical_formula_structural   Bi2SeO2
_chemical_formula_sum   'Bi2 Se1 O2'
_cell_volume   92.74067800
_cell_formula_units_Z   1
loop_
 _symmetry_equiv_pos_site_id
 _symmetry_equiv_pos_as_xyz
  1  'x, y, z'
loop_
 _atom_site_type_symbol
 _atom_site_label
 _atom_site_symmetry_multiplicity
 _atom_site_fract_x
 _atom_site_fract_y
 _atom_site_fract_z
 _atom_site_occupancy
  Bi  Bi0  1  0.35272918  0.35272918  0.70546136  1
  Bi  Bi1  1  0.64726982  0.64726982  0.29453864  1
  Se  Se0  1  -0.00000000  0.00000000  -0.00000000  1
  O  O0  1  0.75000000  0.25000000  0.50000000  1
  O  O1  1  0.25000000  0.75000000  0.50000000  1
loop_
_geom_bond_atom_site_label_1
_geom_bond_atom_site_label_2
_geom_bond_distance
_geom_bond_site_symmetry_2
Bi0 O1 2.317122 1_545
Bi0 O0 2.317123 1_455
Bi0 O1 2.317132 1_555
Bi0 O0 2.317132 1_555
Bi0 Se0 3.290182 1_556
Bi0 Se0 3.290189 1_566
Bi0 Se0 3.290189 1_656
Bi0 Se0 3.290195 1_666
Bi1 O0 2.317125 1_565
Bi1 O1 2.317126 1_655
Bi1 O0 2.317129 1_555
Bi1 O1 2.317129 1_555
Bi1 Se0 3.290187 1_665
Bi1 Se0 3.290189 1_655
Bi1 Se0 3.290189 1_565
Bi1 Se0 3.290191 1_555
