# generated using pymatgen
data_Nd(NiAs)2
_symmetry_space_group_name_H-M   'P 1'
_cell_length_a   4.06711238
_cell_length_b   4.06711195
_cell_length_c   5.70984932
_cell_angle_alpha   110.86385035
_cell_angle_beta   110.86385313
_cell_angle_gamma   90.00000654
_symmetry_Int_Tables_number   1
_chemical_formula_structural   Nd(NiAs)2
_chemical_formula_sum   'Nd1 Ni2 As2'
_cell_volume   81.59404139
_cell_formula_units_Z   1
loop_
 _symmetry_equiv_pos_site_id
 _symmetry_equiv_pos_as_xyz
  1  'x, y, z'
loop_
 _atom_site_type_symbol
 _atom_site_label
 _atom_site_symmetry_multiplicity
 _atom_site_fract_x
 _atom_site_fract_y
 _atom_site_fract_z
 _atom_site_occupancy
  Nd  Nd0  1  -0.00000000  -0.00000000  -0.00000000  1
  Ni  Ni0  1  0.75000000  0.25000000  0.50000000  1
  Ni  Ni1  1  0.25000000  0.75000000  0.50000000  1
  As  As0  1  0.36461781  0.36461781  0.72923461  1
  As  As1  1  0.63538219  0.63538219  0.27076539  1
loop_
_geom_bond_atom_site_label_1
_geom_bond_atom_site_label_2
_geom_bond_distance
_geom_bond_site_symmetry_2
Nd0 Ni1 3.196603 1_545
Nd0 Ni0 3.196603 1_454
Nd0 Ni1 3.196603 1_544
Nd0 Ni0 3.196603 1_455
Nd0 Ni0 3.196604 1_444
Nd0 Ni1 3.196604 1_555
Nd0 Ni1 3.196604 1_444
Nd0 Ni0 3.196604 1_555
As0 Ni1 2.326786 1_555
As0 Ni0 2.326786 1_555
As0 Ni1 2.326790 1_545
As0 Ni0 2.326791 1_455
As0 Nd0 3.170889 1_666
As0 Nd0 3.170891 1_656
As0 Nd0 3.170891 1_566
As0 Nd0 3.170893 1_556
As1 Ni0 2.326786 1_555
As1 Ni1 2.326786 1_555
As1 Ni0 2.326790 1_565
As1 Ni1 2.326791 1_655
As1 Nd0 3.170889 1_555
As1 Nd0 3.170891 1_565
As1 Nd0 3.170891 1_655
As1 Nd0 3.170893 1_665
