# generated using pymatgen
data_Be12Pt
_symmetry_space_group_name_H-M   'P 1'
_cell_length_a   5.53737645
_cell_length_b   5.53737645
_cell_length_c   5.53737645
_cell_angle_alpha   98.15447150
_cell_angle_beta   98.15447150
_cell_angle_gamma   135.75109005
_symmetry_Int_Tables_number   1
_chemical_formula_structural   Be12Pt
_chemical_formula_sum   'Be12 Pt1'
_cell_volume   109.75194427
_cell_formula_units_Z   1
loop_
 _symmetry_equiv_pos_site_id
 _symmetry_equiv_pos_as_xyz
  1  'x, y, z'
loop_
 _atom_site_type_symbol
 _atom_site_label
 _atom_site_symmetry_multiplicity
 _atom_site_fract_x
 _atom_site_fract_y
 _atom_site_fract_z
 _atom_site_occupancy
  Be  Be0  1  0.34830200  0.00000000  0.34830200  1
  Be  Be1  1  0.50000000  0.00000000  0.00000000  1
  Be  Be2  1  0.00000000  0.34830200  0.34830200  1
  Be  Be3  1  0.27519000  0.50000000  0.77519000  1
  Be  Be4  1  0.65169800  0.00000000  0.65169800  1
  Be  Be5  1  0.50000000  0.50000000  0.50000000  1
  Be  Be6  1  0.00000000  0.65169800  0.65169800  1
  Be  Be7  1  0.50000000  0.72481000  0.22481000  1
  Be  Be8  1  0.72481000  0.50000000  0.22481000  1
  Be  Be9  1  0.00000000  0.00000000  0.50000000  1
  Be  Be10  1  0.50000000  0.27519000  0.77519000  1
  Be  Be11  1  0.00000000  0.50000000  0.00000000  1
  Pt  Pt0  1  0.00000000  0.00000000  0.00000000  1
loop_
_geom_bond_atom_site_label_1
_geom_bond_atom_site_label_2
_geom_bond_distance
_geom_bond_site_symmetry_2
Be0 Be4 2.200961 1_555
Be0 Be11 2.210208 1_545
Be0 Be1 2.210208 1_555
Be0 Be5 2.210208 1_555
Be0 Be9 2.210208 1_555
Be0 Be8 2.269762 1_555
Be0 Be8 2.269762 1_445
Be0 Be10 2.279571 1_555
Be0 Be7 2.279571 1_545
Be0 Pt0 2.526728 1_555
Be1 Be11 2.085485 1_545
Be1 Be11 2.085485 1_655
Be1 Be3 2.099968 1_544
Be1 Be10 2.099968 1_554
Be1 Be7 2.099968 1_545
Be1 Be8 2.099968 1_555
Be1 Be4 2.210208 1_554
Be1 Be2 2.210208 1_655
Be1 Be6 2.210208 1_544
Be1 Pt0 2.768688 1_655
Be1 Pt0 2.768688 1_555
Be2 Be6 2.200961 1_555
Be2 Be5 2.210208 1_555
Be2 Be9 2.210208 1_555
Be2 Be7 2.269762 1_555
Be2 Be7 2.269762 1_445
Be2 Be8 2.279571 1_455
Be2 Be3 2.279571 1_555
Be2 Pt0 2.526728 1_555
Be3 Be5 2.099968 1_555
Be3 Be9 2.099968 1_555
Be3 Be4 2.269762 1_455
Be3 Be4 2.269762 1_565
Be3 Be6 2.279571 1_555
Be3 Be7 2.306392 1_556
Be3 Pt0 2.647446 1_666
Be3 Pt0 2.647446 1_556
Be4 Be5 2.210208 1_545
Be4 Be9 2.210208 1_655
Be4 Be7 2.279571 1_545
Be4 Pt0 2.526728 1_656
Be5 Be9 2.085485 1_665
Be5 Be9 2.085485 1_555
Be5 Be7 2.099968 1_555
Be5 Be8 2.099968 1_555
Be5 Be6 2.210208 1_655
Be5 Pt0 2.768688 1_666
Be5 Pt0 2.768688 1_555
Be6 Be9 2.210208 1_565
Be6 Be8 2.279571 1_455
Be6 Pt0 2.526728 1_566
Be7 Be9 2.099968 1_665
Be7 Be8 2.306392 1_555
Be7 Pt0 2.647446 1_665
Be7 Pt0 2.647446 1_555
Be8 Be9 2.099968 1_665
Be8 Pt0 2.647446 1_665
Be8 Pt0 2.647446 1_555
Be9 Pt0 2.768688 1_556
Be9 Pt0 2.768688 1_555
Be10 Be11 2.099968 1_656
Be10 Be5 2.099968 1_555
Be10 Be9 2.099968 1_555
Be10 Be6 2.269762 1_545
Be10 Be6 2.269762 1_655
Be10 Be4 2.279571 1_555
Be10 Be8 2.306392 1_556
Be10 Be3 2.306392 1_555
Be10 Pt0 2.647446 1_666
Be10 Pt0 2.647446 1_556
Be11 Be3 2.099968 1_554
Be11 Be7 2.099968 1_555
Be11 Be8 2.099968 1_455
Be11 Be2 2.210208 1_555
Be11 Be4 2.210208 1_454
Be11 Be6 2.210208 1_554
Be11 Pt0 2.768688 1_565
Be11 Pt0 2.768688 1_555
