# generated using pymatgen
data_Cd3Se3O10
_symmetry_space_group_name_H-M   'P 1'
_cell_length_a   5.38391844
_cell_length_b   8.34213967
_cell_length_c   10.83575411
_cell_angle_alpha   71.27193689
_cell_angle_beta   90.00000000
_cell_angle_gamma   90.00000000
_symmetry_Int_Tables_number   1
_chemical_formula_structural   Cd3Se3O10
_chemical_formula_sum   'Cd6 Se6 O20'
_cell_volume   460.90287194
_cell_formula_units_Z   2
loop_
 _symmetry_equiv_pos_site_id
 _symmetry_equiv_pos_as_xyz
  1  'x, y, z'
loop_
 _atom_site_type_symbol
 _atom_site_label
 _atom_site_symmetry_multiplicity
 _atom_site_fract_x
 _atom_site_fract_y
 _atom_site_fract_z
 _atom_site_occupancy
  Cd  Cd0  1  0.74896096  0.99590178  0.87326026  1
  Cd  Cd1  1  0.24896096  0.00409822  0.12673974  1
  Cd  Cd2  1  0.73857277  0.97130557  0.38585143  1
  Cd  Cd3  1  0.23857277  0.02869443  0.61414857  1
  Cd  Cd4  1  0.26904257  0.36286481  0.80031623  1
  Cd  Cd5  1  0.76904257  0.63713519  0.19968377  1
  Se  Se0  1  0.77269039  0.25304310  0.04560783  1
  Se  Se1  1  0.27269039  0.74695690  0.95439217  1
  Se  Se2  1  0.71581252  0.27408551  0.57039719  1
  Se  Se3  1  0.21581252  0.72591449  0.42960281  1
  Se  Se4  1  0.75570602  0.65462504  0.71705221  1
  Se  Se5  1  0.25570602  0.34537496  0.28294779  1
  O  O0  1  0.86397440  0.08808236  0.17798627  1
  O  O1  1  0.36397440  0.91191764  0.82201373  1
  O  O2  1  0.61050734  0.11890469  0.51099320  1
  O  O3  1  0.11050734  0.88109531  0.48900680  1
  O  O4  1  0.92625239  0.16150000  0.68697999  1
  O  O5  1  0.42625239  0.83850000  0.31302001  1
  O  O6  1  0.54086654  0.15986465  0.97965438  1
  O  O7  1  0.04086654  0.84013535  0.02034562  1
  O  O8  1  0.00953200  0.22070743  0.94970885  1
  O  O9  1  0.50953200  0.77929257  0.05029115  1
  O  O10  1  0.46141964  0.25953382  0.66747648  1
  O  O11  1  0.96141964  0.74046618  0.33252352  1
  O  O12  1  0.96208639  0.52845587  0.68112343  1
  O  O13  1  0.46208639  0.47154413  0.31887657  1
  O  O14  1  0.56399186  0.53775142  0.83250029  1
  O  O15  1  0.06399186  0.46224858  0.16749971  1
  O  O16  1  0.59125118  0.75233153  0.58684587  1
  O  O17  1  0.09125118  0.24766847  0.41315413  1
  O  O18  1  0.90123202  0.78789494  0.77671264  1
  O  O19  1  0.40123202  0.21210506  0.22328736  1
loop_
_geom_bond_atom_site_label_1
_geom_bond_atom_site_label_2
_geom_bond_distance
_geom_bond_site_symmetry_2
Cd0 O4 2.259025 1_565
Cd0 O1 2.311983 1_555
Cd0 O7 2.317036 1_656
Cd0 O6 2.338329 1_565
Cd0 O18 2.437884 1_555
Cd0 O9 2.526012 1_556
Cd0 O8 2.677478 1_665
Cd1 O5 2.259025 1_545
Cd1 O0 2.311983 1_455
Cd1 O6 2.317036 1_554
Cd1 O7 2.338329 1_545
Cd1 O19 2.437884 1_555
Cd1 O8 2.526012 1_554
Cd1 O9 2.677478 1_545
Cd2 O2 2.214136 1_565
Cd2 O0 2.251449 1_565
Cd2 O5 2.288915 1_555
Cd2 O3 2.299007 1_655
Cd2 O16 2.480843 1_555
Cd2 O11 2.489230 1_555
Cd3 O3 2.214136 1_545
Cd3 O1 2.251449 1_545
Cd3 O4 2.288915 1_455
Cd3 O2 2.299007 1_555
Cd3 O17 2.480843 1_555
Cd3 O10 2.489230 1_555
Cd4 O10 2.164372 1_555
Cd4 O8 2.178573 1_555
Cd4 O14 2.257986 1_555
Cd4 O12 2.271961 1_455
Cd4 O6 2.583141 1_555
Cd5 O11 2.164372 1_555
Cd5 O9 2.178573 1_555
Cd5 O15 2.257986 1_655
Cd5 O13 2.271961 1_555
Cd5 O7 2.583141 1_655
O0 Se0 1.710335 1_555
O1 Se1 1.710335 1_555
O2 Se2 1.716595 1_555
O3 Se3 1.716595 1_555
O4 Se2 1.731968 1_555
O5 Se3 1.731968 1_555
O6 Se0 1.740536 1_556
O7 Se1 1.740536 1_554
O8 Se0 1.720042 1_456
O9 Se1 1.720042 1_554
O10 Se2 1.707388 1_555
O11 Se3 1.707388 1_655
O12 Se4 1.660457 1_555
O13 Se5 1.660457 1_555
O14 Se4 1.672623 1_555
O15 Se5 1.672623 1_555
O16 Se4 1.643301 1_555
O17 Se5 1.643301 1_555
O18 Se4 1.652064 1_555
O19 Se5 1.652064 1_555
