# generated using pymatgen
data_U6Co
_symmetry_space_group_name_H-M   'P 1'
_cell_length_a   7.66916903
_cell_length_b   7.66916903
_cell_length_c   7.66916903
_cell_angle_alpha   96.49741736
_cell_angle_beta   96.49741736
_cell_angle_gamma   140.68579398
_symmetry_Int_Tables_number   1
_chemical_formula_structural   U6Co
_chemical_formula_sum   'U12 Co2'
_cell_volume   269.13143074
_cell_formula_units_Z   2
loop_
 _symmetry_equiv_pos_site_id
 _symmetry_equiv_pos_as_xyz
  1  'x, y, z'
loop_
 _atom_site_type_symbol
 _atom_site_label
 _atom_site_symmetry_multiplicity
 _atom_site_fract_x
 _atom_site_fract_y
 _atom_site_fract_z
 _atom_site_occupancy
  U  U0  1  0.89520900  0.21676500  0.11197300  1
  U  U1  1  0.40596300  0.90596300  0.31192700  1
  U  U2  1  0.09403700  0.40596300  0.50000000  1
  U  U3  1  0.10479100  0.78323500  0.88802700  1
  U  U4  1  0.59403700  0.09403700  0.68807300  1
  U  U5  1  0.21676500  0.10479100  0.32155600  1
  U  U6  1  0.78323500  0.89520900  0.67844400  1
  U  U7  1  0.60479100  0.71676500  0.32155600  1
  U  U8  1  0.71676500  0.39520900  0.11197300  1
  U  U9  1  0.39520900  0.28323500  0.67844400  1
  U  U10  1  0.90596300  0.59403700  0.50000000  1
  U  U11  1  0.28323500  0.60479100  0.88802700  1
  Co  Co0  1  0.25000000  0.25000000  0.00000000  1
  Co  Co1  1  0.75000000  0.75000000  0.00000000  1
loop_
_geom_bond_atom_site_label_1
_geom_bond_atom_site_label_2
_geom_bond_distance
_geom_bond_site_symmetry_2
U0 U2 2.803283 1_655
U0 U1 3.225197 1_655
U0 U1 3.225205 1_545
U0 U4 3.321704 1_554
U1 U4 2.716613 1_565
U1 U5 2.803276 1_565
U1 U7 2.803276 1_555
U1 U10 3.216449 1_455
U1 U2 3.216449 1_555
U1 U10 3.216453 1_565
U1 U2 3.216453 1_665
U1 U8 3.225197 1_455
U1 U8 3.225205 1_565
U1 U3 3.321704 1_554
U1 U11 3.321704 1_554
U2 U4 3.216449 1_455
U2 U4 3.216453 1_565
U2 U7 3.225194 1_445
U2 U6 3.225194 1_445
U2 U7 3.225194 1_555
U2 U6 3.225194 1_555
U2 U5 3.321704 1_555
U2 U9 3.321704 1_555
U3 U4 3.225197 1_455
U3 U4 3.225205 1_565
U4 U9 2.803276 1_555
U4 U6 2.803276 1_545
U4 U8 3.321704 1_556
U10 U2 2.716627 1_655
U10 U3 2.803283 1_655
U10 U8 2.803283 1_555
U10 U4 3.216449 1_555
U10 U4 3.216453 1_665
U10 U9 3.225194 1_555
U10 U9 3.225194 1_665
U10 U5 3.225194 1_555
U10 U5 3.225194 1_665
U10 U6 3.321704 1_555
U10 U7 3.321704 1_555
U11 U2 2.803283 1_555
U11 U4 3.225197 1_455
U11 U4 3.225205 1_565
Co0 Co1 2.579834 1_445
Co0 Co1 2.579834 1_555
Co0 U0 2.776902 1_455
Co0 U11 2.776902 1_554
Co0 U8 2.776904 1_555
Co0 U3 2.776904 1_544
Co0 U5 2.776905 1_555
Co0 U7 2.776905 1_555
Co0 U6 2.776905 1_444
Co0 U9 2.776905 1_554
Co1 U8 2.776902 1_555
Co1 U3 2.776902 1_654
Co1 U0 2.776904 1_565
Co1 U11 2.776904 1_554
Co1 U5 2.776905 1_665
Co1 U7 2.776905 1_555
Co1 U6 2.776905 1_554
Co1 U9 2.776905 1_554
