# generated using pymatgen
data_KFe(MoO4)2
_symmetry_space_group_name_H-M   'P 1'
_cell_length_a   5.75845300
_cell_length_b   5.75845138
_cell_length_c   14.81567800
_cell_angle_alpha   90.00001717
_cell_angle_beta   89.99998232
_cell_angle_gamma   120.00000357
_symmetry_Int_Tables_number   1
_chemical_formula_structural   KFe(MoO4)2
_chemical_formula_sum   'K2 Fe2 Mo4 O16'
_cell_volume   425.46484108
_cell_formula_units_Z   2
loop_
 _symmetry_equiv_pos_site_id
 _symmetry_equiv_pos_as_xyz
  1  'x, y, z'
loop_
 _atom_site_type_symbol
 _atom_site_label
 _atom_site_symmetry_multiplicity
 _atom_site_fract_x
 _atom_site_fract_y
 _atom_site_fract_z
 _atom_site_occupancy
  K  K0  1  0.00000000  0.00000000  0.74999900  1
  K  K1  1  0.00000000  0.00000000  0.24999900  1
  Fe  Fe0  1  0.00000000  0.00000000  0.50001200  1
  Fe  Fe1  1  0.99999900  0.99999800  0.99999100  1
  Mo  Mo0  1  0.66666700  0.33333300  0.88170600  1
  Mo  Mo1  1  0.33333300  0.66666700  0.61829300  1
  Mo  Mo2  1  0.66666700  0.33333300  0.38171700  1
  Mo  Mo3  1  0.33333300  0.66666600  0.11828400  1
  O  O0  1  0.66666700  0.33333300  0.76362300  1
  O  O1  1  0.66666700  0.33333300  0.26360700  1
  O  O2  1  0.33333300  0.66666700  0.73637900  1
  O  O3  1  0.33333400  0.66666700  0.23639200  1
  O  O4  1  0.13404600  0.81192300  0.58120300  1
  O  O5  1  0.86595300  0.18808300  0.41877800  1
  O  O6  1  0.32212900  0.13404700  0.41877800  1
  O  O7  1  0.67787600  0.86595400  0.58120300  1
  O  O8  1  0.67787300  0.81191900  0.08122200  1
  O  O9  1  0.86595400  0.67787600  0.91879800  1
  O  O10  1  0.18808100  0.86595400  0.08122200  1
  O  O11  1  0.13404600  0.32212800  0.08122200  1
  O  O12  1  0.32212400  0.18807700  0.91879800  1
  O  O13  1  0.81192300  0.13404600  0.91879800  1
  O  O14  1  0.18807700  0.32212400  0.58120300  1
  O  O15  1  0.81191800  0.67787100  0.41877800  1
loop_
_geom_bond_atom_site_label_1
_geom_bond_atom_site_label_2
_geom_bond_distance
_geom_bond_site_symmetry_2
K0 O4 2.976392 1_545
K0 O14 2.976395 1_555
K0 O7 2.976396 1_445
K0 O13 2.976429 1_455
K0 O12 2.976433 1_555
K0 O9 2.976433 1_445
K0 O2 3.330759 1_545
K0 O0 3.330762 1_455
K0 O2 3.330763 1_555
K0 O2 3.330764 1_445
K0 O0 3.330767 1_445
K0 O0 3.330768 1_555
K1 O10 2.976167 1_545
K1 O8 2.976167 1_445
K1 O11 2.976170 1_555
K1 O15 2.976198 1_445
K1 O6 2.976198 1_555
K1 O5 2.976200 1_455
K1 O3 3.330748 1_445
K1 O1 3.330748 1_455
K1 O3 3.330752 1_555
K1 O3 3.330752 1_545
K1 O1 3.330752 1_445
K1 O1 3.330753 1_555
Fe0 O4 2.012894 1_545
Fe0 O14 2.012898 1_555
Fe0 O7 2.012898 1_445
Fe0 O15 2.013299 1_445
Fe0 O6 2.013300 1_555
Fe0 O5 2.013304 1_455
Fe1 O9 2.012908 1_555
Fe1 O13 2.012916 1_565
Fe1 O12 2.012920 1_665
Fe1 O8 2.013260 1_556
Fe1 O10 2.013262 1_656
Fe1 O11 2.013277 1_666
Mo0 O0 1.749480 1_555
Mo0 O9 1.810661 1_555
Mo0 O12 1.810661 1_555
Mo0 O13 1.810661 1_555
Mo1 O2 1.749524 1_555
Mo1 O14 1.810652 1_555
Mo1 O7 1.810652 1_555
Mo1 O4 1.810652 1_555
Mo2 O1 1.749880 1_555
Mo2 O5 1.810490 1_555
Mo2 O6 1.810499 1_555
Mo2 O15 1.810499 1_555
Mo3 O3 1.749850 1_555
Mo3 O11 1.810503 1_555
Mo3 O8 1.810513 1_555
Mo3 O10 1.810513 1_555
