# generated using pymatgen
data_Cs2Zr7CI18
_symmetry_space_group_name_H-M   'P 1'
_cell_length_a   11.77312241
_cell_length_b   11.77312241
_cell_length_c   11.77312246
_cell_angle_alpha   55.54200316
_cell_angle_beta   55.54200317
_cell_angle_gamma   55.54200333
_symmetry_Int_Tables_number   1
_chemical_formula_structural   Cs2Zr7CI18
_chemical_formula_sum   'Cs2 Zr7 C1 I18'
_cell_volume   1034.46576863
_cell_formula_units_Z   1
loop_
 _symmetry_equiv_pos_site_id
 _symmetry_equiv_pos_as_xyz
  1  'x, y, z'
loop_
 _atom_site_type_symbol
 _atom_site_label
 _atom_site_symmetry_multiplicity
 _atom_site_fract_x
 _atom_site_fract_y
 _atom_site_fract_z
 _atom_site_occupancy
  Cs  Cs0  1  0.77540952  0.77540952  0.77540952  1
  Cs  Cs1  1  0.22459048  0.22459048  0.22459048  1
  Zr  Zr0  1  0.14386604  0.91249075  0.81195819  1
  Zr  Zr1  1  0.85613396  0.08750925  0.18804181  1
  Zr  Zr2  1  0.08750925  0.18804181  0.85613396  1
  Zr  Zr3  1  0.18804181  0.85613396  0.08750925  1
  Zr  Zr4  1  0.91249075  0.81195819  0.14386604  1
  Zr  Zr5  1  0.81195819  0.14386604  0.91249075  1
  Zr  Zr6  1  0.50000000  0.50000000  0.50000000  1
  C  C0  1  0.00000000  -0.00000000  -0.00000000  1
  I  I0  1  0.21469380  0.47619897  0.64268554  1
  I  I1  1  0.78530620  0.52380103  0.35731446  1
  I  I2  1  0.34500647  0.05617139  0.93120651  1
  I  I3  1  0.65499353  0.94382861  0.06879349  1
  I  I4  1  0.93120651  0.34500647  0.05617139  1
  I  I5  1  0.71265662  0.87227445  0.41549392  1
  I  I6  1  0.35731446  0.78530620  0.52380103  1
  I  I7  1  0.58450608  0.28734338  0.12772555  1
  I  I8  1  0.28734338  0.12772555  0.58450608  1
  I  I9  1  0.12772555  0.58450608  0.28734338  1
  I  I10  1  0.94382861  0.06879349  0.65499353  1
  I  I11  1  0.41549392  0.71265662  0.87227445  1
  I  I12  1  0.87227445  0.41549392  0.71265662  1
  I  I13  1  0.06879349  0.65499353  0.94382861  1
  I  I14  1  0.47619897  0.64268554  0.21469380  1
  I  I15  1  0.64268554  0.21469380  0.47619897  1
  I  I16  1  0.52380103  0.35731446  0.78530620  1
  I  I17  1  0.05617139  0.93120651  0.34500647  1
loop_
_geom_bond_atom_site_label_1
_geom_bond_atom_site_label_2
_geom_bond_distance
_geom_bond_site_symmetry_2
Cs0 I10 4.110938 1_565
Cs0 I13 4.110938 1_655
Cs0 I3 4.110938 1_556
Cs0 I11 4.113662 1_555
Cs0 I12 4.113662 1_555
Cs0 I5 4.113662 1_555
Cs0 I17 4.166106 1_655
Cs0 I4 4.166106 1_556
Cs0 I2 4.166106 1_565
Cs0 I14 4.250394 1_556
Cs0 I15 4.250394 1_565
Cs0 I0 4.250394 1_655
Cs1 I17 4.110938 1_545
Cs1 I4 4.110938 1_455
Cs1 I2 4.110938 1_554
Cs1 I7 4.113662 1_555
Cs1 I9 4.113662 1_555
Cs1 I8 4.113662 1_555
Cs1 I10 4.166106 1_455
Cs1 I13 4.166106 1_554
Cs1 I3 4.166106 1_545
Cs1 I16 4.250394 1_554
Cs1 I6 4.250394 1_545
Cs1 I1 4.250394 1_455
C0 Zr4 2.279140 1_445
C0 Zr2 2.279140 1_554
C0 Zr5 2.279140 1_454
C0 Zr3 2.279140 1_545
C0 Zr0 2.279140 1_544
C0 Zr1 2.279140 1_455
I0 Zr6 2.886216 1_555
I0 Zr2 3.450986 1_555
I1 Zr6 2.886216 1_555
I1 Zr4 3.450986 1_555
I2 Zr3 2.918939 1_546
I2 Zr2 2.921485 1_555
I3 Zr5 2.918939 1_564
I3 Zr4 2.921485 1_555
I4 Zr2 2.918939 1_654
I4 Zr1 2.921485 1_555
I5 Zr4 2.903683 1_555
I5 Zr1 2.914039 1_565
I6 Zr6 2.886216 1_555
I6 Zr0 3.450986 1_555
I7 Zr1 2.903683 1_555
I7 Zr5 2.914039 1_554
I8 Zr2 2.903683 1_555
I8 Zr0 2.914039 1_545
I9 Zr3 2.903683 1_555
I9 Zr4 2.914039 1_455
I10 Zr0 2.918939 1_645
I10 Zr5 2.921485 1_555
I11 Zr0 2.903683 1_555
I11 Zr3 2.914039 1_556
I12 Zr5 2.903683 1_555
I12 Zr2 2.914039 1_655
I13 Zr4 2.918939 1_456
I13 Zr0 2.921485 1_555
I14 Zr6 2.886216 1_555
I14 Zr3 3.450986 1_555
I15 Zr6 2.886216 1_555
I15 Zr1 3.450986 1_555
I16 Zr6 2.886216 1_555
I16 Zr5 3.450986 1_555
I17 Zr1 2.918939 1_465
I17 Zr3 2.921485 1_555
