# generated using pymatgen
data_LaSe2
_symmetry_space_group_name_H-M   'P 1'
_cell_length_a   4.28136659
_cell_length_b   8.54923485
_cell_length_c   8.62444337
_cell_angle_alpha   89.80174460
_cell_angle_beta   90.00000000
_cell_angle_gamma   90.00000000
_symmetry_Int_Tables_number   1
_chemical_formula_structural   LaSe2
_chemical_formula_sum   'La4 Se8'
_cell_volume   315.67350911
_cell_formula_units_Z   4
loop_
 _symmetry_equiv_pos_site_id
 _symmetry_equiv_pos_as_xyz
  1  'x, y, z'
loop_
 _atom_site_type_symbol
 _atom_site_label
 _atom_site_symmetry_multiplicity
 _atom_site_fract_x
 _atom_site_fract_y
 _atom_site_fract_z
 _atom_site_occupancy
  La  La0  1  0.22060123  0.87271913  0.27671434  1
  La  La1  1  0.27939877  0.37271913  0.27671434  1
  La  La2  1  0.77939877  0.12728087  0.72328566  1
  La  La3  1  0.72060123  0.62728087  0.72328566  1
  Se  Se0  1  0.67408451  0.88410090  0.00249370  1
  Se  Se1  1  0.17408451  0.61589910  0.99750630  1
  Se  Se2  1  0.82591549  0.38410090  0.00249370  1
  Se  Se3  1  0.75882380  0.12574415  0.36596719  1
  Se  Se4  1  0.25882380  0.37425585  0.63403281  1
  Se  Se5  1  0.32591549  0.11589910  0.99750630  1
  Se  Se6  1  0.74117620  0.62574415  0.36596719  1
  Se  Se7  1  0.24117620  0.87425585  0.63403281  1
loop_
_geom_bond_atom_site_label_1
_geom_bond_atom_site_label_2
_geom_bond_distance
_geom_bond_site_symmetry_2
La0 Se3 3.031837 1_465
La0 Se6 3.041813 1_455
La0 Se0 3.061149 1_555
La0 Se7 3.083005 1_555
La0 Se6 3.163370 1_555
La0 Se5 3.207715 1_564
La0 Se3 3.254732 1_565
La0 Se1 3.270399 1_554
La0 Se0 3.328054 1_455
La1 Se6 3.031837 1_555
La1 Se3 3.041813 1_555
La1 Se2 3.061149 1_455
La1 Se4 3.083005 1_555
La1 Se3 3.163370 1_455
La1 Se1 3.207715 1_554
La1 Se6 3.254732 1_455
La1 Se5 3.270399 1_554
La1 Se2 3.328054 1_555
La2 Se7 3.031837 1_645
La2 Se4 3.041813 1_655
La2 Se5 3.061149 1_555
La2 Se3 3.083005 1_555
La2 Se4 3.163370 1_555
La2 Se0 3.207715 1_546
La2 Se7 3.254732 1_545
La2 Se2 3.270399 1_556
La2 Se5 3.328054 1_655
La3 Se4 3.031837 1_555
La3 Se7 3.041813 1_555
La3 Se1 3.061149 1_655
La3 Se6 3.083005 1_555
La3 Se7 3.163370 1_655
La3 Se2 3.207715 1_556
La3 Se4 3.254732 1_655
La3 Se0 3.270399 1_556
La3 Se1 3.328054 1_555
Se0 Se5 2.479998 1_564
Se1 Se2 2.479998 1_456
