# generated using pymatgen
data_BaTaF7
_symmetry_space_group_name_H-M   'P 1'
_cell_length_a   9.91316657
_cell_length_b   9.91316657
_cell_length_c   9.91316657
_cell_angle_alpha   90.00000000
_cell_angle_beta   90.00000000
_cell_angle_gamma   90.00000000
_symmetry_Int_Tables_number   1
_chemical_formula_structural   BaTaF7
_chemical_formula_sum   'Ba8 Ta8 F56'
_cell_volume   974.17551761
_cell_formula_units_Z   8
loop_
 _symmetry_equiv_pos_site_id
 _symmetry_equiv_pos_as_xyz
  1  'x, y, z'
loop_
 _atom_site_type_symbol
 _atom_site_label
 _atom_site_symmetry_multiplicity
 _atom_site_fract_x
 _atom_site_fract_y
 _atom_site_fract_z
 _atom_site_occupancy
  Ba  Ba0  1  0.50000000  0.50000000  0.50000000  1
  Ba  Ba1  1  0.50000000  0.00000000  0.50000000  1
  Ba  Ba2  1  0.00000000  0.50000000  0.50000000  1
  Ba  Ba3  1  0.50000000  0.00000000  -0.00000000  1
  Ba  Ba4  1  0.00000000  0.00000000  -0.00000000  1
  Ba  Ba5  1  0.00000000  0.00000000  0.50000000  1
  Ba  Ba6  1  0.50000000  0.50000000  -0.00000000  1
  Ba  Ba7  1  0.00000000  0.50000000  -0.00000000  1
  Ta  Ta0  1  0.22364372  0.22364372  0.22364372  1
  Ta  Ta1  1  0.27635628  0.77635628  0.72364372  1
  Ta  Ta2  1  0.72364372  0.22364372  0.27635628  1
  Ta  Ta3  1  0.77635628  0.72364372  0.27635628  1
  Ta  Ta4  1  0.27635628  0.72364372  0.22364372  1
  Ta  Ta5  1  0.77635628  0.77635628  0.77635628  1
  Ta  Ta6  1  0.22364372  0.27635628  0.72364372  1
  Ta  Ta7  1  0.72364372  0.27635628  0.77635628  1
  F  F0  1  0.10097301  0.36638537  0.27426553  1
  F  F1  1  0.94740325  0.88139004  0.74404890  1
  F  F2  1  0.24404890  0.55259675  0.11860996  1
  F  F3  1  0.72573447  0.89902699  0.63361463  1
  F  F4  1  0.66355420  0.83644580  0.16355420  1
  F  F5  1  0.88139004  0.75595110  0.44740325  1
  F  F6  1  0.38139004  0.74404890  0.55259675  1
  F  F7  1  0.61860996  0.24404890  0.94740325  1
  F  F8  1  0.22573447  0.89902699  0.86638537  1
  F  F9  1  0.61860996  0.25595110  0.44740325  1
  F  F10  1  0.05259675  0.11860996  0.25595110  1
  F  F11  1  0.36638537  0.27426553  0.10097301  1
  F  F12  1  0.89902699  0.86638537  0.22573447  1
  F  F13  1  0.13361463  0.72573447  0.60097301  1
  F  F14  1  0.36638537  0.22573447  0.60097301  1
  F  F15  1  0.33644580  0.33644580  0.33644580  1
  F  F16  1  0.25595110  0.44740325  0.61860996  1
  F  F17  1  0.83644580  0.16355420  0.66355420  1
  F  F18  1  0.11860996  0.24404890  0.55259675  1
  F  F19  1  0.74404890  0.55259675  0.38139004  1
  F  F20  1  0.27426553  0.39902699  0.86638537  1
  F  F21  1  0.75595110  0.05259675  0.38139004  1
  F  F22  1  0.60097301  0.36638537  0.22573447  1
  F  F23  1  0.74404890  0.94740325  0.88139004  1
  F  F24  1  0.75595110  0.44740325  0.88139004  1
  F  F25  1  0.72573447  0.60097301  0.13361463  1
  F  F26  1  0.44740325  0.61860996  0.25595110  1
  F  F27  1  0.10097301  0.13361463  0.77426553  1
  F  F28  1  0.16355420  0.83644580  0.33644580  1
  F  F29  1  0.86638537  0.27426553  0.39902699  1
  F  F30  1  0.22573447  0.60097301  0.36638537  1
  F  F31  1  0.16355420  0.66355420  0.83644580  1
  F  F32  1  0.38139004  0.75595110  0.05259675  1
  F  F33  1  0.88139004  0.74404890  0.94740325  1
  F  F34  1  0.24404890  0.94740325  0.61860996  1
  F  F35  1  0.60097301  0.13361463  0.72573447  1
  F  F36  1  0.89902699  0.63361463  0.72573447  1
  F  F37  1  0.63361463  0.77426553  0.39902699  1
  F  F38  1  0.55259675  0.11860996  0.24404890  1
  F  F39  1  0.77426553  0.39902699  0.63361463  1
  F  F40  1  0.83644580  0.33644580  0.16355420  1
  F  F41  1  0.63361463  0.72573447  0.89902699  1
  F  F42  1  0.39902699  0.86638537  0.27426553  1
  F  F43  1  0.66355420  0.66355420  0.66355420  1
  F  F44  1  0.39902699  0.63361463  0.77426553  1
  F  F45  1  0.05259675  0.38139004  0.75595110  1
  F  F46  1  0.27426553  0.10097301  0.36638537  1
  F  F47  1  0.44740325  0.88139004  0.75595110  1
  F  F48  1  0.86638537  0.22573447  0.89902699  1
  F  F49  1  0.55259675  0.38139004  0.74404890  1
  F  F50  1  0.33644580  0.16355420  0.83644580  1
  F  F51  1  0.25595110  0.05259675  0.11860996  1
  F  F52  1  0.77426553  0.10097301  0.13361463  1
  F  F53  1  0.94740325  0.61860996  0.24404890  1
  F  F54  1  0.11860996  0.25595110  0.05259675  1
  F  F55  1  0.13361463  0.77426553  0.10097301  1
loop_
_geom_bond_atom_site_label_1
_geom_bond_atom_site_label_2
_geom_bond_distance
_geom_bond_site_symmetry_2
Ba0 F19 2.739957 1_555
Ba0 F16 2.739957 1_555
Ba0 F49 2.739957 1_555
Ba0 F26 2.739957 1_555
Ba0 F9 2.739957 1_555
Ba0 F6 2.739957 1_555
Ba0 F15 2.808243 1_555
Ba0 F43 2.808243 1_555
Ba1 F42 2.786366 1_545
Ba1 F3 2.786366 1_545
Ba1 F37 2.786366 1_545
Ba1 F35 2.786366 1_555
Ba1 F46 2.786366 1_555
Ba1 F14 2.786366 1_555
Ba1 F6 2.844676 1_545
Ba1 F21 2.844676 1_555
Ba1 F34 2.844676 1_545
Ba1 F38 2.844676 1_555
Ba1 F47 2.844676 1_545
Ba1 F9 2.844676 1_555
Ba2 F29 2.786366 1_455
Ba2 F39 2.786366 1_455
Ba2 F36 2.786366 1_455
Ba2 F0 2.786366 1_555
Ba2 F30 2.786366 1_555
Ba2 F13 2.786366 1_555
Ba2 F53 2.844676 1_455
Ba2 F18 2.844676 1_555
Ba2 F45 2.844676 1_555
Ba2 F16 2.844676 1_555
Ba2 F19 2.844676 1_455
Ba2 F5 2.844676 1_455
Ba3 F38 2.739957 1_555
Ba3 F51 2.739957 1_555
Ba3 F23 2.739957 1_544
Ba3 F32 2.739957 1_545
Ba3 F47 2.739957 1_544
Ba3 F7 2.739957 1_554
Ba3 F4 2.808243 1_545
Ba3 F50 2.808243 1_554
Ba4 F12 2.786366 1_445
Ba4 F48 2.786366 1_454
Ba4 F8 2.786366 1_544
Ba4 F27 2.786366 1_554
Ba4 F52 2.786366 1_455
Ba4 F55 2.786366 1_545
Ba4 F1 2.844676 1_444
Ba4 F33 2.844676 1_444
Ba4 F23 2.844676 1_444
Ba4 F54 2.844676 1_555
Ba4 F51 2.844676 1_555
Ba4 F10 2.844676 1_555
Ba5 F18 2.739957 1_555
Ba5 F34 2.739957 1_545
Ba5 F10 2.739957 1_555
Ba5 F21 2.739957 1_455
Ba5 F1 2.739957 1_445
Ba5 F5 2.739957 1_445
Ba5 F17 2.808243 1_455
Ba5 F28 2.808243 1_545
Ba6 F20 2.786366 1_554
Ba6 F41 2.786366 1_554
Ba6 F44 2.786366 1_554
Ba6 F11 2.786366 1_555
Ba6 F25 2.786366 1_555
Ba6 F22 2.786366 1_555
Ba6 F2 2.844676 1_555
Ba6 F7 2.844676 1_554
Ba6 F24 2.844676 1_554
Ba6 F32 2.844676 1_555
Ba6 F49 2.844676 1_554
Ba6 F26 2.844676 1_555
Ba7 F53 2.739957 1_455
Ba7 F2 2.739957 1_555
Ba7 F54 2.739957 1_555
Ba7 F45 2.739957 1_554
Ba7 F24 2.739957 1_454
Ba7 F33 2.739957 1_454
Ba7 F40 2.808243 1_455
Ba7 F31 2.808243 1_554
F0 Ta0 1.932072 1_555
F1 Ta5 2.015396 1_555
F2 Ta4 2.015396 1_555
F3 Ta5 1.932072 1_555
F4 Ta3 1.936824 1_555
F5 Ta3 2.015396 1_555
F6 Ta1 2.015396 1_555
F7 Ta7 2.015396 1_555
F8 Ta1 1.932072 1_555
F9 Ta2 2.015396 1_555
F10 Ta0 2.015396 1_555
F11 Ta0 1.932072 1_555
F12 Ta3 1.932072 1_555
F13 Ta1 1.932072 1_555
F14 Ta6 1.932072 1_555
F15 Ta0 1.936824 1_555
F16 Ta6 2.015396 1_555
F17 Ta7 1.936824 1_555
F18 Ta6 2.015396 1_555
F19 Ta3 2.015396 1_555
F20 Ta6 1.932072 1_555
F21 Ta2 2.015396 1_555
F22 Ta2 1.932072 1_555
F23 Ta5 2.015396 1_555
F24 Ta7 2.015396 1_555
F25 Ta3 1.932072 1_555
F26 Ta4 2.015396 1_555
F27 Ta6 1.932072 1_555
F28 Ta4 1.936824 1_555
F29 Ta2 1.932072 1_555
F30 Ta4 1.932072 1_555
F31 Ta1 1.936824 1_555
F32 Ta4 2.015396 1_555
F33 Ta5 2.015396 1_555
F34 Ta1 2.015396 1_555
F35 Ta7 1.932072 1_555
F36 Ta5 1.932072 1_555
F37 Ta3 1.932072 1_555
F38 Ta2 2.015396 1_555
F39 Ta7 1.932072 1_555
F40 Ta2 1.936824 1_555
F41 Ta5 1.932072 1_555
F42 Ta4 1.932072 1_555
F43 Ta5 1.936824 1_555
F44 Ta1 1.932072 1_555
F45 Ta6 2.015396 1_555
F46 Ta0 1.932072 1_555
F47 Ta1 2.015396 1_555
F48 Ta7 1.932072 1_555
F49 Ta7 2.015396 1_555
F50 Ta6 1.936824 1_555
F51 Ta0 2.015396 1_555
F52 Ta2 1.932072 1_555
F53 Ta3 2.015396 1_555
F54 Ta0 2.015396 1_555
F55 Ta4 1.932072 1_555
