# generated using pymatgen
data_K2RuNCl5O
_symmetry_space_group_name_H-M   'P 1'
_cell_length_a   7.06575000
_cell_length_b   10.61172300
_cell_length_c   13.58738800
_cell_angle_alpha   90.00000000
_cell_angle_beta   90.00000000
_cell_angle_gamma   90.00000000
_symmetry_Int_Tables_number   1
_chemical_formula_structural   K2RuNCl5O
_chemical_formula_sum   'K8 Ru4 N4 Cl20 O4'
_cell_volume   1018.77938730
_cell_formula_units_Z   4
loop_
 _symmetry_equiv_pos_site_id
 _symmetry_equiv_pos_as_xyz
  1  'x, y, z'
loop_
 _atom_site_type_symbol
 _atom_site_label
 _atom_site_symmetry_multiplicity
 _atom_site_fract_x
 _atom_site_fract_y
 _atom_site_fract_z
 _atom_site_occupancy
  K  K0  1  0.35488900  0.99980600  0.14620000  1
  K  K1  1  0.85488900  0.00019400  0.35380000  1
  K  K2  1  0.64511100  0.49980600  0.85380000  1
  K  K3  1  0.14511100  0.50019400  0.64620000  1
  K  K4  1  0.64511100  0.00019400  0.85380000  1
  K  K5  1  0.14511100  0.99980600  0.64620000  1
  K  K6  1  0.35488900  0.50019400  0.14620000  1
  K  K7  1  0.85488900  0.49980600  0.35380000  1
  Ru  Ru0  1  0.82949200  0.75000000  0.10706800  1
  Ru  Ru1  1  0.32949200  0.25000000  0.39293200  1
  Ru  Ru2  1  0.17050800  0.25000000  0.89293200  1
  Ru  Ru3  1  0.67050800  0.75000000  0.60706800  1
  N  N0  1  0.98901800  0.75000000  0.00946500  1
  N  N1  1  0.48901800  0.25000000  0.49053500  1
  N  N2  1  0.01098200  0.25000000  0.99053500  1
  N  N3  1  0.51098200  0.75000000  0.50946500  1
  Cl  Cl0  1  0.55091700  0.75000000  0.00502000  1
  Cl  Cl1  1  0.05091700  0.25000000  0.49498000  1
  Cl  Cl2  1  0.44908300  0.25000000  0.99498000  1
  Cl  Cl3  1  0.94908300  0.75000000  0.50502000  1
  Cl  Cl4  1  0.62692000  0.75000000  0.24719500  1
  Cl  Cl5  1  0.12692000  0.25000000  0.25280500  1
  Cl  Cl6  1  0.37308000  0.25000000  0.75280500  1
  Cl  Cl7  1  0.87308000  0.75000000  0.74719500  1
  Cl  Cl8  1  0.09191900  0.75000000  0.22069600  1
  Cl  Cl9  1  0.59191900  0.25000000  0.27930400  1
  Cl  Cl10  1  0.90808100  0.25000000  0.77930400  1
  Cl  Cl11  1  0.40808100  0.75000000  0.72069600  1
  Cl  Cl12  1  0.81724300  0.97604000  0.11319700  1
  Cl  Cl13  1  0.31724300  0.02396000  0.38680300  1
  Cl  Cl14  1  0.18275700  0.47604000  0.88680300  1
  Cl  Cl15  1  0.68275700  0.52396000  0.61319700  1
  Cl  Cl16  1  0.18275700  0.02396000  0.88680300  1
  Cl  Cl17  1  0.68275700  0.97604000  0.61319700  1
  Cl  Cl18  1  0.81724300  0.52396000  0.11319700  1
  Cl  Cl19  1  0.31724300  0.47604000  0.38680300  1
  O  O0  1  0.10629300  0.75000000  0.94913600  1
  O  O1  1  0.60629300  0.25000000  0.55086400  1
  O  O2  1  0.89370700  0.25000000  0.05086400  1
  O  O3  1  0.39370700  0.75000000  0.44913600  1
loop_
_geom_bond_atom_site_label_1
_geom_bond_atom_site_label_2
_geom_bond_distance
_geom_bond_site_symmetry_2
N0 O0 1.165576 1_654
N0 Ru0 1.740471 1_555
N1 O1 1.165576 1_555
N1 Ru1 1.740471 1_555
N2 O2 1.165576 1_456
N2 Ru2 1.740471 1_555
N3 O3 1.165576 1_555
N3 Ru3 1.740471 1_555
Cl0 Ru0 2.407682 1_555
Cl0 K2 3.422522 1_554
Cl0 K4 3.422522 1_564
Cl0 K6 3.553214 1_555
Cl0 K0 3.553214 1_555
Cl1 Ru1 2.407682 1_555
Cl1 K3 3.422522 1_555
Cl1 K5 3.422522 1_545
Cl1 K7 3.553214 1_455
Cl1 K1 3.553214 1_455
Cl2 Ru2 2.407682 1_555
Cl2 K6 3.422522 1_556
Cl2 K0 3.422522 1_546
Cl2 K2 3.553214 1_555
Cl2 K4 3.553214 1_555
Cl3 Ru3 2.407682 1_555
Cl3 K7 3.422522 1_555
Cl3 K1 3.422522 1_565
Cl3 K3 3.553214 1_655
Cl3 K5 3.553214 1_655
Cl4 Ru0 2.381963 1_555
Cl4 K7 3.426611 1_555
Cl4 K1 3.426611 1_565
Cl4 K6 3.550309 1_555
Cl4 K0 3.550309 1_555
Cl5 Ru1 2.381963 1_555
Cl5 K0 3.426611 1_545
Cl5 K6 3.426611 1_555
Cl5 K1 3.550309 1_455
Cl5 K7 3.550309 1_455
Cl6 Ru2 2.381963 1_555
Cl6 K5 3.426611 1_545
Cl6 K3 3.426611 1_555
Cl6 K2 3.550309 1_555
Cl6 K4 3.550309 1_555
Cl7 Ru3 2.381963 1_555
Cl7 K4 3.426611 1_565
Cl7 K2 3.426611 1_555
Cl7 K3 3.550309 1_655
Cl7 K5 3.550309 1_655
Cl8 Ru0 2.412855 1_455
Cl8 K6 3.391776 1_555
Cl8 K0 3.391776 1_555
Cl8 K1 3.622804 1_465
Cl8 K7 3.622804 1_455
Cl9 Ru1 2.412855 1_555
Cl9 K7 3.391776 1_555
Cl9 K1 3.391776 1_555
Cl9 K0 3.622804 1_545
Cl9 K6 3.622804 1_555
Cl10 Ru2 2.412855 1_655
Cl10 K2 3.391776 1_555
Cl10 K4 3.391776 1_555
Cl10 K3 3.622804 1_655
Cl10 K5 3.622804 1_645
Cl11 Ru3 2.412855 1_555
Cl11 K5 3.391776 1_555
Cl11 K3 3.391776 1_555
Cl11 K4 3.622804 1_565
Cl11 K2 3.622804 1_555
Cl12 Ru0 2.401679 1_555
Cl12 K1 3.289970 1_565
Cl12 K0 3.307141 1_555
Cl12 K4 3.737277 1_564
Cl13 Ru1 2.401679 1_555
Cl13 K0 3.289970 1_545
Cl13 K1 3.307141 1_455
Cl13 K5 3.737277 1_545
Cl14 Ru2 2.401679 1_555
Cl14 K3 3.289970 1_555
Cl14 K2 3.307141 1_555
Cl14 K6 3.737277 1_556
Cl15 Ru3 2.401679 1_555
Cl15 K2 3.289970 1_555
Cl15 K3 3.307141 1_655
Cl15 K7 3.737277 1_555
Cl16 Ru2 2.401679 1_555
Cl16 K5 3.289970 1_545
Cl16 K4 3.307141 1_555
Cl16 K0 3.737277 1_546
Cl17 Ru3 2.401679 1_555
Cl17 K4 3.289970 1_565
Cl17 K5 3.307141 1_655
Cl17 K1 3.737277 1_565
Cl18 Ru0 2.401679 1_555
Cl18 K7 3.289970 1_555
Cl18 K6 3.307141 1_555
Cl18 K2 3.737277 1_554
Cl19 Ru1 2.401679 1_555
Cl19 K6 3.289970 1_555
Cl19 K7 3.307141 1_455
Cl19 K3 3.737277 1_555
