# generated using pymatgen
data_LiMn(PO3)4
_symmetry_space_group_name_H-M   'P 1'
_cell_length_a   10.34248141
_cell_length_b   10.34248141
_cell_length_c   5.23126535
_cell_angle_alpha   81.39194007
_cell_angle_beta   81.39194007
_cell_angle_gamma   71.64600387
_symmetry_Int_Tables_number   1
_chemical_formula_structural   LiMn(PO3)4
_chemical_formula_sum   'Li2 Mn2 P8 O24'
_cell_volume   521.97925704
_cell_formula_units_Z   2
loop_
 _symmetry_equiv_pos_site_id
 _symmetry_equiv_pos_as_xyz
  1  'x, y, z'
loop_
 _atom_site_type_symbol
 _atom_site_label
 _atom_site_symmetry_multiplicity
 _atom_site_fract_x
 _atom_site_fract_y
 _atom_site_fract_z
 _atom_site_occupancy
  Li  Li0  1  0.57402800  0.57402800  0.41538600  1
  Li  Li1  1  0.42597200  0.42597200  0.58461400  1
  Mn  Mn0  1  0.50000000  0.00000000  0.00000000  1
  Mn  Mn1  1  0.00000000  0.50000000  0.00000000  1
  P  P0  1  0.30469300  0.06169400  0.51629500  1
  P  P1  1  0.06169400  0.30469300  0.51629500  1
  P  P2  1  0.63212300  0.21446800  0.18117500  1
  P  P3  1  0.93830600  0.69530700  0.48370500  1
  P  P4  1  0.36787700  0.78553200  0.81882500  1
  P  P5  1  0.69530700  0.93830600  0.48370500  1
  P  P6  1  0.21446800  0.63212300  0.18117500  1
  P  P7  1  0.78553200  0.36787700  0.81882500  1
  O  O0  1  0.07321100  0.33142700  0.22179900  1
  O  O1  1  0.55026700  0.16750500  0.01646700  1
  O  O2  1  0.66857300  0.92678900  0.77820100  1
  O  O3  1  0.23247100  0.76752900  0.00000000  1
  O  O4  1  0.89725800  0.60442800  0.33607200  1
  O  O5  1  0.85332100  0.85332100  0.41695600  1
  O  O6  1  0.76752900  0.23247100  0.00000000  1
  O  O7  1  0.33762100  0.56158700  0.31845200  1
  O  O8  1  0.39557200  0.10274200  0.66392800  1
  O  O9  1  0.66237900  0.43841300  0.68154800  1
  O  O10  1  0.44973300  0.83249500  0.98353300  1
  O  O11  1  0.33142700  0.07321100  0.22179900  1
  O  O12  1  0.43841300  0.66237900  0.68154800  1
  O  O13  1  0.56158700  0.33762100  0.31845200  1
  O  O14  1  0.08900200  0.70595900  0.38427900  1
  O  O15  1  0.29404100  0.91099800  0.61572100  1
  O  O16  1  0.16750500  0.55026700  0.01646700  1
  O  O17  1  0.14667900  0.14667900  0.58304400  1
  O  O18  1  0.10274200  0.39557200  0.66392800  1
  O  O19  1  0.92678900  0.66857300  0.77820100  1
  O  O20  1  0.70595900  0.08900200  0.38427900  1
  O  O21  1  0.83249500  0.44973300  0.98353300  1
  O  O22  1  0.60442800  0.89725800  0.33607200  1
  O  O23  1  0.91099800  0.29404100  0.61572100  1
loop_
_geom_bond_atom_site_label_1
_geom_bond_atom_site_label_2
_geom_bond_distance
_geom_bond_site_symmetry_2
Li0 O12 1.931329 1_555
Li0 O9 1.931329 1_555
Li1 O7 1.931329 1_555
Li1 O13 1.931329 1_555
Mn0 O2 1.945589 1_544
Mn0 O11 1.945589 1_555
Mn0 O1 1.975921 1_555
Mn0 O10 1.975921 1_544
Mn0 O22 2.161687 1_545
Mn0 O8 2.161687 1_554
Mn1 O19 1.945589 1_454
Mn1 O0 1.945589 1_555
Mn1 O16 1.975921 1_555
Mn1 O21 1.975921 1_454
Mn1 O4 2.161687 1_455
Mn1 O18 2.161687 1_554
O0 P1 1.517347 1_555
O1 P2 1.515801 1_555
O2 P5 1.517347 1_555
O3 P6 1.615000 1_555
O3 P4 1.615000 1_554
O4 P3 1.492272 1_555
O5 P3 1.606768 1_555
O5 P5 1.606768 1_555
O6 P2 1.615000 1_555
O6 P7 1.615000 1_554
O7 P6 1.483929 1_555
O8 P0 1.492272 1_555
O9 P7 1.483929 1_555
O10 P4 1.515801 1_555
O11 P0 1.517347 1_555
O12 P4 1.483929 1_555
O13 P2 1.483929 1_555
O14 P3 1.600038 1_455
O14 P6 1.613068 1_555
O15 P0 1.600038 1_565
O15 P4 1.613068 1_555
O16 P6 1.515801 1_555
O17 P0 1.606768 1_555
O17 P1 1.606768 1_555
O18 P1 1.492272 1_555
O19 P3 1.517347 1_555
O20 P5 1.600038 1_545
O20 P2 1.613068 1_555
O21 P7 1.515801 1_555
O22 P5 1.492272 1_555
O23 P1 1.600038 1_655
O23 P7 1.613068 1_555
