# generated using pymatgen
data_In9Pt13
_symmetry_space_group_name_H-M   'P 1'
_cell_length_a   7.24219074
_cell_length_b   7.24219074
_cell_length_c   9.64371510
_cell_angle_alpha   62.95557709
_cell_angle_beta   62.95557709
_cell_angle_gamma   76.68995174
_symmetry_Int_Tables_number   1
_chemical_formula_structural   In9Pt13
_chemical_formula_sum   'In9 Pt13'
_cell_volume   401.06261178
_cell_formula_units_Z   1
loop_
 _symmetry_equiv_pos_site_id
 _symmetry_equiv_pos_as_xyz
  1  'x, y, z'
loop_
 _atom_site_type_symbol
 _atom_site_label
 _atom_site_symmetry_multiplicity
 _atom_site_fract_x
 _atom_site_fract_y
 _atom_site_fract_z
 _atom_site_occupancy
  In  In0  1  0.29688600  0.29688600  0.16809600  1
  In  In1  1  0.74710200  0.17471100  0.31057500  1
  In  In2  1  0.82242600  0.82242600  0.11760900  1
  In  In3  1  0.17757400  0.17757400  0.88239100  1
  In  In4  1  0.50000000  0.50000000  0.50000000  1
  In  In5  1  0.70311400  0.70311400  0.83190400  1
  In  In6  1  0.17471100  0.74710200  0.31057500  1
  In  In7  1  0.82528900  0.25289800  0.68942500  1
  In  In8  1  0.25289800  0.82528900  0.68942500  1
  Pt  Pt0  1  0.54269100  0.06266000  0.65967800  1
  Pt  Pt1  1  0.06266000  0.54269100  0.65967800  1
  Pt  Pt2  1  0.54615700  0.54615700  0.17641400  1
  Pt  Pt3  1  0.74438700  0.74438700  0.50715800  1
  Pt  Pt4  1  0.45730900  0.93734000  0.34032200  1
  Pt  Pt5  1  0.75227200  0.24772800  0.00000000  1
  Pt  Pt6  1  0.25561300  0.25561300  0.49284200  1
  Pt  Pt7  1  0.45384300  0.45384300  0.82358600  1
  Pt  Pt8  1  0.24772800  0.75227200  0.00000000  1
  Pt  Pt9  1  0.00000000  0.00000000  0.50000000  1
  Pt  Pt10  1  0.93734000  0.45730900  0.34032200  1
  Pt  Pt11  1  0.00000000  0.50000000  0.00000000  1
  Pt  Pt12  1  0.50000000  0.00000000  0.00000000  1
loop_
_geom_bond_atom_site_label_1
_geom_bond_atom_site_label_2
_geom_bond_distance
_geom_bond_site_symmetry_2
In0 Pt4 2.705121 1_545
In0 Pt10 2.705121 1_455
In0 Pt7 2.710848 1_554
In0 Pt2 2.878953 1_555
In0 Pt6 2.885346 1_555
In0 Pt5 2.958692 1_555
In0 Pt8 2.958692 1_555
In0 Pt12 2.993237 1_555
In0 Pt11 2.993237 1_555
In0 Pt9 3.017122 1_555
In1 Pt5 2.778221 1_555
In1 Pt0 2.778657 1_555
In1 Pt2 2.788009 1_555
In1 Pt3 2.815763 1_545
In1 Pt4 2.847370 1_545
In1 Pt9 2.857646 1_655
In1 Pt10 2.891502 1_555
In1 Pt11 2.908069 1_655
In1 Pt6 3.223263 1_555
In2 Pt8 2.767366 1_655
In2 Pt5 2.767366 1_565
In2 Pt10 2.783035 1_555
In2 Pt4 2.783035 1_555
In2 Pt11 2.844659 1_655
In2 Pt12 2.844659 1_565
In2 Pt2 2.847377 1_555
In2 Pt3 3.322231 1_555
In3 Pt8 2.767366 1_546
In3 Pt5 2.767366 1_456
In3 Pt0 2.783035 1_555
In3 Pt1 2.783035 1_555
In3 Pt12 2.844659 1_556
In3 Pt11 2.844659 1_556
In3 Pt7 2.847377 1_555
In3 Pt6 3.322231 1_555
In4 Pt6 2.816805 1_555
In4 Pt3 2.816805 1_555
In4 Pt1 2.836453 1_555
In4 Pt0 2.836453 1_555
In4 Pt10 2.836453 1_555
In4 Pt4 2.836453 1_555
In4 Pt7 2.848810 1_555
In4 Pt2 2.848810 1_555
In5 Pt0 2.705121 1_565
In5 Pt1 2.705121 1_655
In5 Pt2 2.710848 1_556
In5 Pt7 2.878953 1_555
In5 Pt3 2.885346 1_555
In5 Pt8 2.958692 1_556
In5 Pt5 2.958692 1_556
In5 Pt12 2.993237 1_566
In5 Pt11 2.993237 1_656
In5 Pt9 3.017122 1_665
In6 Pt8 2.778221 1_555
In6 Pt1 2.778657 1_555
In6 Pt2 2.788009 1_555
In6 Pt3 2.815763 1_455
In6 Pt10 2.847370 1_455
In6 Pt9 2.857646 1_565
In6 Pt4 2.891502 1_555
In6 Pt12 2.908069 1_565
In6 Pt6 3.223263 1_555
In7 Pt5 2.778221 1_556
In7 Pt10 2.778657 1_555
In7 Pt7 2.788009 1_555
In7 Pt6 2.815763 1_655
In7 Pt1 2.847370 1_655
In7 Pt9 2.857646 1_655
In7 Pt0 2.891502 1_555
In7 Pt12 2.908069 1_556
In7 Pt3 3.223263 1_555
In8 Pt8 2.778221 1_556
In8 Pt4 2.778657 1_555
In8 Pt7 2.788009 1_555
In8 Pt6 2.815763 1_565
In8 Pt0 2.847370 1_565
In8 Pt9 2.857646 1_565
In8 Pt1 2.891502 1_555
In8 Pt11 2.908069 1_556
In8 Pt3 3.223263 1_555
Pt0 Pt6 2.919508 1_555
Pt0 Pt9 2.975181 1_655
Pt0 Pt12 2.976634 1_556
Pt0 Pt3 3.031353 1_545
Pt1 Pt6 2.919508 1_555
Pt1 Pt9 2.975181 1_565
Pt1 Pt11 2.976634 1_556
Pt1 Pt3 3.031353 1_455
Pt2 Pt6 2.920213 1_555
Pt3 Pt9 2.864284 1_665
Pt3 Pt4 2.919508 1_555
Pt3 Pt7 2.920213 1_555
Pt4 Pt9 2.975181 1_565
Pt4 Pt6 3.031353 1_565
Pt6 Pt9 2.864284 1_555
Pt10 Pt3 2.919508 1_555
Pt10 Pt9 2.975181 1_655
Pt10 Pt11 2.976634 1_655
Pt10 Pt6 3.031353 1_655
Pt11 Pt8 2.840061 1_555
Pt11 Pt5 2.840061 1_455
Pt11 Pt2 2.955599 1_455
Pt11 Pt7 2.955599 1_554
Pt12 Pt5 2.840061 1_555
Pt12 Pt8 2.840061 1_545
Pt12 Pt2 2.955599 1_545
Pt12 Pt7 2.955599 1_554
Pt12 Pt4 2.976634 1_545
