# generated using pymatgen
data_YSeO3F
_symmetry_space_group_name_H-M   'P 1'
_cell_length_a   6.58033106
_cell_length_b   6.87400370
_cell_length_c   7.16291824
_cell_angle_alpha   90.00000000
_cell_angle_beta   99.16271598
_cell_angle_gamma   90.00000000
_symmetry_Int_Tables_number   1
_chemical_formula_structural   YSeO3F
_chemical_formula_sum   'Y4 Se4 O12 F4'
_cell_volume   319.86762440
_cell_formula_units_Z   4
loop_
 _symmetry_equiv_pos_site_id
 _symmetry_equiv_pos_as_xyz
  1  'x, y, z'
loop_
 _atom_site_type_symbol
 _atom_site_label
 _atom_site_symmetry_multiplicity
 _atom_site_fract_x
 _atom_site_fract_y
 _atom_site_fract_z
 _atom_site_occupancy
  Y  Y0  1  0.85970567  0.64021366  0.67551074  1
  Y  Y1  1  0.14029433  0.14021366  0.82448926  1
  Y  Y2  1  0.14029433  0.35978634  0.32448926  1
  Y  Y3  1  0.85970567  0.85978634  0.17551074  1
  Se  Se0  1  0.35375454  0.88219214  0.29069270  1
  Se  Se1  1  0.64624546  0.11780786  0.70930730  1
  Se  Se2  1  0.35375454  0.61780786  0.79069270  1
  Se  Se3  1  0.64624546  0.38219214  0.20930730  1
  O  O0  1  0.82400935  0.96666530  0.85078303  1
  O  O1  1  0.48803278  0.31328238  0.36133468  1
  O  O2  1  0.17599065  0.03333470  0.14921697  1
  O  O3  1  0.82244823  0.30442532  0.71837566  1
  O  O4  1  0.17755177  0.80442532  0.78162434  1
  O  O5  1  0.51196722  0.81328238  0.13866532  1
  O  O6  1  0.82400935  0.53333470  0.35078303  1
  O  O7  1  0.17755177  0.69557468  0.28162434  1
  O  O8  1  0.17599065  0.46666530  0.64921697  1
  O  O9  1  0.51196722  0.68671762  0.63866532  1
  O  O10  1  0.82244823  0.19557468  0.21837566  1
  O  O11  1  0.48803278  0.18671762  0.86133468  1
  F  F0  1  0.16791230  0.11359753  0.52410955  1
  F  F1  1  0.16791230  0.38640247  0.02410955  1
  F  F2  1  0.83208770  0.61359753  0.97589045  1
  F  F3  1  0.83208770  0.88640247  0.47589045  1
loop_
_geom_bond_atom_site_label_1
_geom_bond_atom_site_label_2
_geom_bond_distance
_geom_bond_site_symmetry_2
O0 Se1 1.759871 1_565
O0 Y3 2.414788 1_556
O0 Y1 2.432105 1_665
O0 Y0 2.600182 1_555
O1 Se3 1.689717 1_555
O1 Y2 2.283752 1_555
O2 Se0 1.759871 1_545
O2 Y1 2.414788 1_554
O2 Y3 2.432105 1_445
O2 Y2 2.600182 1_555
O3 Se1 1.723429 1_555
O3 Y0 2.346527 1_555
O3 Y1 2.391675 1_655
O4 Se2 1.723429 1_555
O4 Y1 2.346527 1_565
O4 Y0 2.391675 1_455
O5 Se0 1.689717 1_555
O5 Y3 2.283752 1_555
O6 Se3 1.759871 1_555
O6 Y0 2.414788 1_555
O6 Y2 2.432105 1_655
O6 Y3 2.600182 1_555
O7 Se0 1.723429 1_555
O7 Y2 2.346527 1_555
O7 Y3 2.391675 1_455
O8 Se2 1.759871 1_555
O8 Y2 2.414788 1_555
O8 Y0 2.432105 1_455
O8 Y1 2.600182 1_555
O9 Se2 1.689717 1_555
O9 Y0 2.283752 1_555
O10 Se3 1.723429 1_555
O10 Y3 2.346527 1_545
O10 Y2 2.391675 1_655
O11 Se1 1.689717 1_555
O11 Y1 2.283752 1_555
F0 Y1 2.195540 1_555
F0 Y2 2.204239 1_555
F1 Y2 2.195540 1_555
F1 Y1 2.204239 1_554
F2 Y0 2.195540 1_555
F2 Y3 2.204239 1_556
F3 Y3 2.195540 1_555
F3 Y0 2.204239 1_555
