# generated using pymatgen
data_CdHg2SeO6
_symmetry_space_group_name_H-M   'P 1'
_cell_length_a   7.02288500
_cell_length_b   7.35483560
_cell_length_c   7.69477917
_cell_angle_alpha   74.42970602
_cell_angle_beta   68.54983371
_cell_angle_gamma   64.29397634
_symmetry_Int_Tables_number   1
_chemical_formula_structural   CdHg2SeO6
_chemical_formula_sum   'Cd2 Hg4 Se2 O12'
_cell_volume   330.44289350
_cell_formula_units_Z   2
loop_
 _symmetry_equiv_pos_site_id
 _symmetry_equiv_pos_as_xyz
  1  'x, y, z'
loop_
 _atom_site_type_symbol
 _atom_site_label
 _atom_site_symmetry_multiplicity
 _atom_site_fract_x
 _atom_site_fract_y
 _atom_site_fract_z
 _atom_site_occupancy
  Cd  Cd0  1  0.33393900  0.13670000  0.21224700  1
  Cd  Cd1  1  0.66606100  0.86330000  0.78775300  1
  Hg  Hg0  1  0.84446000  0.64350300  0.20941100  1
  Hg  Hg1  1  0.15554000  0.35649700  0.79058900  1
  Hg  Hg2  1  0.65753600  0.35853000  0.79196900  1
  Hg  Hg3  1  0.34246400  0.64147000  0.20803100  1
  Se  Se0  1  0.79749000  0.13397800  0.31305200  1
  Se  Se1  1  0.20251000  0.86602200  0.68694800  1
  O  O0  1  0.63636200  0.20610800  0.17017500  1
  O  O1  1  0.44970600  0.19688300  0.86185400  1
  O  O2  1  0.94189900  0.92056400  0.83051600  1
  O  O3  1  0.77860700  0.92070300  0.45525000  1
  O  O4  1  0.27805300  0.67426200  0.57005700  1
  O  O5  1  0.15287500  0.47705500  0.24348500  1
  O  O6  1  0.22139300  0.07929700  0.54475000  1
  O  O7  1  0.55029400  0.80311700  0.13814600  1
  O  O8  1  0.36363800  0.79389200  0.82982500  1
  O  O9  1  0.84712500  0.52294500  0.75651500  1
  O  O10  1  0.72194700  0.32573800  0.42994300  1
  O  O11  1  0.05810100  0.07943600  0.16948400  1
loop_
_geom_bond_atom_site_label_1
_geom_bond_atom_site_label_2
_geom_bond_distance
_geom_bond_site_symmetry_2
Cd0 O0 2.285877 1_555
Cd0 O5 2.297629 1_555
Cd0 O11 2.299283 1_555
Cd0 O7 2.353003 1_545
Cd0 O6 2.362124 1_555
Cd0 O1 2.488910 1_554
Cd1 O8 2.285877 1_555
Cd1 O9 2.297629 1_555
Cd1 O2 2.299283 1_555
Cd1 O1 2.353003 1_565
Cd1 O3 2.362124 1_555
Cd1 O7 2.488910 1_556
Hg0 O5 2.049777 1_655
Hg0 O7 2.079861 1_555
Hg1 O9 2.049777 1_455
Hg1 O1 2.079861 1_555
Hg2 O9 2.064816 1_555
Hg2 O1 2.102629 1_555
Hg3 O5 2.064816 1_555
Hg3 O7 2.102629 1_555
O0 Se0 1.687194 1_555
O2 Se1 1.689174 1_655
O3 Se0 1.681745 1_565
O4 Se1 1.662077 1_555
O6 Se1 1.681745 1_545
O8 Se1 1.687194 1_555
O10 Se0 1.662077 1_555
O11 Se0 1.689174 1_455
