# generated using pymatgen
data_KLiZnO2
_symmetry_space_group_name_H-M   'P 1'
_cell_length_a   5.73799353
_cell_length_b   5.73799353
_cell_length_c   8.33498711
_cell_angle_alpha   61.39542036
_cell_angle_beta   61.39542036
_cell_angle_gamma   34.33233728
_symmetry_Int_Tables_number   1
_chemical_formula_structural   KLiZnO2
_chemical_formula_sum   'K2 Li2 Zn2 O4'
_cell_volume   133.94125971
_cell_formula_units_Z   2
loop_
 _symmetry_equiv_pos_site_id
 _symmetry_equiv_pos_as_xyz
  1  'x, y, z'
loop_
 _atom_site_type_symbol
 _atom_site_label
 _atom_site_symmetry_multiplicity
 _atom_site_fract_x
 _atom_site_fract_y
 _atom_site_fract_z
 _atom_site_occupancy
  K  K0  1  0.83651500  0.83651500  0.62993200  1
  K  K1  1  0.16348500  0.16348500  0.37006800  1
  Li  Li0  1  0.34112000  0.34112000  0.94500700  1
  Li  Li1  1  0.65888000  0.65888000  0.05499300  1
  Zn  Zn0  1  0.04411700  0.04411700  0.81754100  1
  Zn  Zn1  1  0.95588300  0.95588300  0.18245900  1
  O  O0  1  0.46143700  0.46143700  0.30664500  1
  O  O1  1  0.53856300  0.53856300  0.69335500  1
  O  O2  1  0.83799300  0.83799300  0.06214900  1
  O  O3  1  0.16200700  0.16200700  0.93785100  1
loop_
_geom_bond_atom_site_label_1
_geom_bond_atom_site_label_2
_geom_bond_distance
_geom_bond_site_symmetry_2
K0 O3 2.862646 1_565
K0 O3 2.862646 1_655
K0 O0 2.882045 1_655
K0 O0 2.882045 1_565
K0 O1 3.036742 1_555
K0 O1 3.037962 1_655
K0 O1 3.037962 1_565
K1 O2 2.862646 1_545
K1 O2 2.862646 1_455
K1 O1 2.882045 1_545
K1 O1 2.882045 1_455
K1 O0 3.036742 1_555
K1 O0 3.037962 1_545
K1 O0 3.037962 1_455
Li0 O2 1.946534 1_456
Li0 O2 1.946534 1_546
Li0 O3 1.994487 1_555
Li0 O1 2.129705 1_555
Li1 O3 1.946534 1_654
Li1 O3 1.946534 1_564
Li1 O2 1.994487 1_555
Li1 O0 2.129705 1_555
O0 Zn1 2.001586 1_455
O0 Zn1 2.001586 1_545
O1 Zn0 2.001586 1_565
O1 Zn0 2.001586 1_655
O2 Zn1 1.993871 1_555
O2 Zn0 2.155664 1_664
O3 Zn0 1.993871 1_555
O3 Zn1 2.155664 1_446
