# generated using pymatgen
data_Li5La3Nb2O12
_symmetry_space_group_name_H-M   'P 1'
_cell_length_a   11.36757762
_cell_length_b   11.36757762
_cell_length_c   11.36757762
_cell_angle_alpha   109.47122063
_cell_angle_beta   109.47122063
_cell_angle_gamma   109.47122063
_symmetry_Int_Tables_number   1
_chemical_formula_structural   Li5La3Nb2O12
_chemical_formula_sum   'Li20 La12 Nb8 O48'
_cell_volume   1130.78983142
_cell_formula_units_Z   4
loop_
 _symmetry_equiv_pos_site_id
 _symmetry_equiv_pos_as_xyz
  1  'x, y, z'
loop_
 _atom_site_type_symbol
 _atom_site_label
 _atom_site_symmetry_multiplicity
 _atom_site_fract_x
 _atom_site_fract_y
 _atom_site_fract_z
 _atom_site_occupancy
  Li  Li0  1  0.75000000  0.87500000  0.12500000  1
  Li  Li1  1  0.62500000  0.75000000  0.37500000  1
  Li  Li2  1  0.37500000  0.62500000  0.75000000  1
  Li  Li3  1  0.25000000  0.25000000  0.25000000  1
  Li  Li4  1  0.87500000  0.12500000  0.75000000  1
  Li  Li5  1  0.00000000  0.75000000  0.50000000  1
  Li  Li6  1  0.12500000  0.75000000  0.87500000  1
  Li  Li7  1  0.25000000  0.50000000  0.00000000  1
  Li  Li8  1  0.87500000  0.25000000  0.12500000  1
  Li  Li9  1  0.50000000  0.00000000  0.75000000  1
  Li  Li10  1  0.37500000  0.25000000  0.62500000  1
  Li  Li11  1  0.50000000  0.00000000  0.25000000  1
  Li  Li12  1  0.25000000  0.62500000  0.37500000  1
  Li  Li13  1  0.75000000  0.75000000  0.75000000  1
  Li  Li14  1  0.75000000  0.37500000  0.62500000  1
  Li  Li15  1  0.00000000  0.25000000  0.50000000  1
  Li  Li16  1  0.25000000  0.12500000  0.87500000  1
  Li  Li17  1  0.75000000  0.50000000  0.00000000  1
  Li  Li18  1  0.62500000  0.37500000  0.25000000  1
  Li  Li19  1  0.12500000  0.87500000  0.25000000  1
  La  La0  1  0.12500000  0.37500000  0.75000000  1
  La  La1  1  0.25000000  0.87500000  0.62500000  1
  La  La2  1  0.12500000  0.25000000  0.37500000  1
  La  La3  1  0.62500000  0.87500000  0.75000000  1
  La  La4  1  0.25000000  0.37500000  0.12500000  1
  La  La5  1  0.37500000  0.12500000  0.25000000  1
  La  La6  1  0.62500000  0.25000000  0.87500000  1
  La  La7  1  0.87500000  0.62500000  0.25000000  1
  La  La8  1  0.87500000  0.75000000  0.62500000  1
  La  La9  1  0.75000000  0.62500000  0.87500000  1
  La  La10  1  0.37500000  0.75000000  0.12500000  1
  La  La11  1  0.75000000  0.12500000  0.37500000  1
  Nb  Nb0  1  0.00000000  0.50000000  0.50000000  1
  Nb  Nb1  1  0.00000000  0.00000000  0.50000000  1
  Nb  Nb2  1  0.50000000  0.50000000  0.50000000  1
  Nb  Nb3  1  0.00000000  0.50000000  0.00000000  1
  Nb  Nb4  1  0.50000000  0.00000000  0.00000000  1
  Nb  Nb5  1  0.50000000  0.00000000  0.50000000  1
  Nb  Nb6  1  0.00000000  0.00000000  0.00000000  1
  Nb  Nb7  1  0.50000000  0.50000000  0.00000000  1
  O  O0  1  0.57567500  0.16587600  0.19962700  1
  O  O1  1  0.87604700  0.96624900  0.80037300  1
  O  O2  1  0.57567500  0.90979900  0.37604700  1
  O  O3  1  0.07567500  0.69962700  0.66587600  1
  O  O4  1  0.33412400  0.90979900  0.03375100  1
  O  O5  1  0.42432500  0.83412400  0.80037300  1
  O  O6  1  0.30037300  0.33412400  0.92432500  1
  O  O7  1  0.90979900  0.03375100  0.33412400  1
  O  O8  1  0.53375100  0.62395200  0.69962700  1
  O  O9  1  0.37604700  0.30037300  0.46624900  1
  O  O10  1  0.80037300  0.87604700  0.96624900  1
  O  O11  1  0.03375100  0.19962700  0.12395300  1
  O  O12  1  0.59020100  0.16587600  0.46624900  1
  O  O13  1  0.59020100  0.92432500  0.12395300  1
  O  O14  1  0.96624900  0.66587600  0.09020100  1
  O  O15  1  0.37604700  0.57567500  0.90979900  1
  O  O16  1  0.12395300  0.03375100  0.19962700  1
  O  O17  1  0.16587600  0.19962700  0.57567500  1
  O  O18  1  0.96624900  0.80037300  0.87604700  1
  O  O19  1  0.42432500  0.09020100  0.62395300  1
  O  O20  1  0.69962700  0.53375100  0.62395300  1
  O  O21  1  0.92432500  0.30037300  0.33412400  1
  O  O22  1  0.46624900  0.37604700  0.30037300  1
  O  O23  1  0.40979900  0.07567500  0.87604700  1
  O  O24  1  0.66587600  0.07567500  0.69962700  1
  O  O25  1  0.30037300  0.46624900  0.37604700  1
  O  O26  1  0.09020100  0.96624900  0.66587600  1
  O  O27  1  0.12395300  0.59020100  0.92432500  1
  O  O28  1  0.90979900  0.37604700  0.57567500  1
  O  O29  1  0.69962700  0.66587600  0.07567500  1
  O  O30  1  0.62395200  0.42432500  0.09020100  1
  O  O31  1  0.33412400  0.92432500  0.30037300  1
  O  O32  1  0.66587600  0.09020100  0.96624900  1
  O  O33  1  0.80037300  0.42432500  0.83412400  1
  O  O34  1  0.83412400  0.80037300  0.42432500  1
  O  O35  1  0.03375100  0.33412400  0.90979900  1
  O  O36  1  0.19962700  0.57567500  0.16587600  1
  O  O37  1  0.16587600  0.46624900  0.59020100  1
  O  O38  1  0.09020100  0.62395200  0.42432500  1
  O  O39  1  0.62395300  0.69962700  0.53375100  1
  O  O40  1  0.46624900  0.59020100  0.16587600  1
  O  O41  1  0.87604700  0.40979900  0.07567500  1
  O  O42  1  0.40979900  0.83412400  0.53375100  1
  O  O43  1  0.53375100  0.40979900  0.83412400  1
  O  O44  1  0.83412400  0.53375100  0.40979900  1
  O  O45  1  0.07567500  0.87604700  0.40979900  1
  O  O46  1  0.19962700  0.12395200  0.03375100  1
  O  O47  1  0.92432500  0.12395300  0.59020100  1
loop_
_geom_bond_atom_site_label_1
_geom_bond_atom_site_label_2
_geom_bond_distance
_geom_bond_site_symmetry_2
Li0 O10 2.069625 1_554
Li0 O7 2.069627 1_565
Li0 O29 2.069627 1_555
Li0 O13 2.069629 1_555
Li1 O39 2.069625 1_555
Li1 O34 2.069627 1_555
Li1 O40 2.069627 1_555
Li1 O2 2.069629 1_555
Li2 O8 2.069627 1_555
Li2 O5 2.069627 1_555
Li2 O37 2.069627 1_555
Li2 O15 2.069629 1_555
Li3 O25 2.142487 1_555
Li3 O22 2.142487 1_555
Li3 O9 2.142487 1_555
Li3 O16 2.142487 1_555
Li3 O11 2.142487 1_555
Li3 O46 2.142489 1_555
Li4 O1 2.069625 1_545
Li4 O35 2.069627 1_655
Li4 O24 2.069627 1_555
Li4 O47 2.069629 1_555
Li5 O45 2.142481 1_555
Li5 O38 2.142489 1_555
Li5 O26 2.142489 1_555
Li5 O3 2.142489 1_555
Li5 O44 2.142489 1_455
Li5 O34 2.142489 1_455
Li6 O18 2.069625 1_455
Li6 O4 2.069627 1_556
Li6 O3 2.069627 1_555
Li6 O27 2.069629 1_555
Li7 O15 2.142481 1_554
Li7 O27 2.142481 1_554
Li7 O40 2.142489 1_555
Li7 O36 2.142489 1_555
Li7 O6 2.142489 1_554
Li7 O35 2.142489 1_554
Li8 O11 2.069625 1_655
Li8 O21 2.069627 1_555
Li8 O32 2.069627 1_554
Li8 O41 2.069629 1_555
Li9 O19 2.142481 1_555
Li9 O23 2.142481 1_555
Li9 O32 2.142489 1_555
Li9 O24 2.142489 1_555
Li9 O42 2.142489 1_545
Li9 O5 2.142489 1_545
Li10 O9 2.069625 1_555
Li10 O17 2.069627 1_555
Li10 O43 2.069627 1_555
Li10 O19 2.069629 1_555
Li11 O2 2.142481 1_545
Li11 O13 2.142481 1_545
Li11 O12 2.142489 1_555
Li11 O0 2.142489 1_555
Li11 O31 2.142489 1_545
Li11 O4 2.142489 1_545
Li12 O25 2.069625 1_555
Li12 O42 2.069627 1_555
Li12 O36 2.069627 1_555
Li12 O38 2.069627 1_555
Li13 O18 2.142487 1_555
Li13 O1 2.142487 1_555
Li13 O10 2.142487 1_555
Li13 O20 2.142487 1_555
Li13 O39 2.142487 1_555
Li13 O8 2.142489 1_555
Li14 O20 2.069625 1_555
Li14 O33 2.069627 1_555
Li14 O12 2.069627 1_555
Li14 O28 2.069629 1_555
Li15 O28 2.142481 1_455
Li15 O47 2.142481 1_455
Li15 O37 2.142489 1_555
Li15 O17 2.142489 1_555
Li15 O21 2.142489 1_455
Li15 O7 2.142489 1_455
Li16 O46 2.069627 1_556
Li16 O6 2.069627 1_555
Li16 O26 2.069627 1_545
Li16 O23 2.069629 1_555
Li17 O41 2.142481 1_555
Li17 O30 2.142489 1_555
Li17 O14 2.142489 1_555
Li17 O29 2.142489 1_555
Li17 O43 2.142489 1_554
Li17 O33 2.142489 1_554
Li18 O22 2.069625 1_555
Li18 O44 2.069627 1_555
Li18 O0 2.069627 1_555
Li18 O30 2.069627 1_555
Li19 O16 2.069625 1_565
Li19 O31 2.069627 1_555
Li19 O14 2.069627 1_455
Li19 O45 2.069629 1_555
La0 Li15 2.320397 1_555
La0 Li7 2.320397 1_556
La0 O15 2.467621 1_555
La0 O47 2.467621 1_455
La0 O37 2.467628 1_555
La0 O35 2.467628 1_555
La0 O27 2.591302 1_555
La0 O28 2.591302 1_455
La0 O6 2.591309 1_555
La0 O17 2.591309 1_555
La1 Li9 2.320397 1_565
La1 Li5 2.320397 1_555
La1 O23 2.467621 1_565
La1 O42 2.467628 1_555
La1 O38 2.467628 1_555
La1 O26 2.467628 1_555
La1 O19 2.591302 1_565
La1 O45 2.591302 1_555
La1 O5 2.591309 1_555
La1 O3 2.591309 1_555
La2 Li15 2.320397 1_555
La2 Li3 2.320397 1_555
La2 O9 2.467617 1_555
La2 O11 2.467617 1_555
La2 O17 2.467628 1_555
La2 O21 2.467628 1_455
La2 O37 2.591309 1_555
La2 O7 2.591309 1_455
La2 O25 2.591315 1_555
La2 O16 2.591315 1_555
La3 Li9 2.320397 1_565
La3 Li13 2.320397 1_555
La3 O1 2.467617 1_555
La3 O24 2.467628 1_565
La3 O8 2.467628 1_555
La3 O5 2.467628 1_555
La3 O32 2.591309 1_565
La3 O42 2.591309 1_555
La3 O10 2.591315 1_555
La3 O39 2.591315 1_555
La4 Li3 2.320397 1_555
La4 Li7 2.320397 1_555
La4 O25 2.467617 1_555
La4 O36 2.467628 1_555
La4 O6 2.467628 1_554
La4 O46 2.467628 1_555
La4 O40 2.591309 1_555
La4 O35 2.591309 1_554
La4 O22 2.591315 1_555
La4 O11 2.591315 1_555
La5 Li11 2.320397 1_555
La5 Li3 2.320397 1_555
La5 O22 2.467617 1_555
La5 O16 2.467617 1_555
La5 O0 2.467628 1_555
La5 O31 2.467628 1_545
La5 O12 2.591309 1_555
La5 O46 2.591309 1_555
La5 O4 2.591309 1_545
La5 O9 2.591315 1_555
La6 Li17 2.320397 1_556
La6 Li9 2.320397 1_555
La6 O41 2.467621 1_556
La6 O19 2.467621 1_555
La6 O43 2.467628 1_555
La6 O32 2.467628 1_555
La6 O23 2.591302 1_555
La6 O30 2.591309 1_556
La6 O33 2.591309 1_555
La6 O24 2.591309 1_555
La7 Li5 2.320397 1_655
La7 Li17 2.320397 1_555
La7 O45 2.467621 1_655
La7 O44 2.467628 1_555
La7 O30 2.467628 1_555
La7 O14 2.467628 1_555
La7 O41 2.591302 1_555
La7 O38 2.591309 1_655
La7 O34 2.591309 1_555
La7 O29 2.591309 1_555
La8 Li5 2.320397 1_655
La8 Li13 2.320397 1_555
La8 O18 2.467617 1_555
La8 O39 2.467617 1_555
La8 O3 2.467628 1_655
La8 O34 2.467628 1_555
La8 O26 2.591309 1_655
La8 O44 2.591309 1_555
La8 O1 2.591315 1_555
La8 O20 2.591315 1_555
La9 Li17 2.320397 1_556
La9 Li13 2.320397 1_555
La9 O10 2.467617 1_555
La9 O20 2.467617 1_555
La9 O29 2.467628 1_556
La9 O33 2.467628 1_555
La9 O14 2.591309 1_556
La9 O8 2.591309 1_555
La9 O43 2.591309 1_555
La9 O18 2.591315 1_555
La10 Li11 2.320397 1_565
La10 Li7 2.320397 1_555
La10 O2 2.467621 1_555
La10 O27 2.467621 1_554
La10 O40 2.467628 1_555
La10 O4 2.467628 1_555
La10 O13 2.591302 1_555
La10 O15 2.591302 1_554
La10 O31 2.591309 1_555
La10 O36 2.591309 1_555
La11 Li11 2.320397 1_555
La11 Li15 2.320397 1_655
La11 O28 2.467621 1_555
La11 O13 2.467621 1_545
La11 O12 2.467628 1_555
La11 O7 2.467628 1_555
La11 O47 2.591302 1_555
La11 O2 2.591302 1_545
La11 O21 2.591309 1_555
La11 O0 2.591309 1_555
Nb0 O38 2.051755 1_555
Nb0 O21 2.051755 1_455
Nb0 O44 2.051755 1_455
Nb0 O3 2.051755 1_555
Nb0 O37 2.051755 1_555
Nb0 O28 2.051763 1_455
Nb1 O7 2.051755 1_455
Nb1 O34 2.051755 1_445
Nb1 O17 2.051755 1_555
Nb1 O26 2.051755 1_545
Nb1 O47 2.051763 1_455
Nb1 O45 2.051763 1_545
Nb2 O8 2.051755 1_555
Nb2 O9 2.051758 1_555
Nb2 O22 2.051758 1_555
Nb2 O25 2.051758 1_555
Nb2 O39 2.051758 1_555
Nb2 O20 2.051758 1_555
Nb3 O35 2.051755 1_554
Nb3 O33 2.051755 1_454
Nb3 O36 2.051755 1_555
Nb3 O14 2.051755 1_455
Nb3 O27 2.051763 1_554
Nb3 O41 2.051763 1_455
Nb4 O4 2.051755 1_545
Nb4 O5 2.051755 1_544
Nb4 O0 2.051755 1_555
Nb4 O32 2.051755 1_554
Nb4 O13 2.051763 1_545
Nb4 O23 2.051763 1_554
Nb5 O31 2.051755 1_545
Nb5 O42 2.051755 1_545
Nb5 O24 2.051755 1_555
Nb5 O12 2.051755 1_555
Nb5 O19 2.051763 1_555
Nb5 O2 2.051763 1_545
Nb6 O46 2.051755 1_555
Nb6 O1 2.051758 1_444
Nb6 O10 2.051758 1_444
Nb6 O18 2.051758 1_444
Nb6 O11 2.051758 1_555
Nb6 O16 2.051758 1_555
Nb7 O30 2.051755 1_555
Nb7 O6 2.051755 1_554
Nb7 O43 2.051755 1_554
Nb7 O29 2.051755 1_555
Nb7 O40 2.051755 1_555
Nb7 O15 2.051763 1_554
