# generated using pymatgen
data_Rb2Ga2B2O7
_symmetry_space_group_name_H-M   'P 1'
_cell_length_a   7.86720900
_cell_length_b   8.92748400
_cell_length_c   12.16763638
_cell_angle_alpha   75.54280134
_cell_angle_beta   90.00000000
_cell_angle_gamma   90.00000000
_symmetry_Int_Tables_number   1
_chemical_formula_structural   Rb2Ga2B2O7
_chemical_formula_sum   'Rb8 Ga8 B8 O28'
_cell_volume   827.52544421
_cell_formula_units_Z   4
loop_
 _symmetry_equiv_pos_site_id
 _symmetry_equiv_pos_as_xyz
  1  'x, y, z'
loop_
 _atom_site_type_symbol
 _atom_site_label
 _atom_site_symmetry_multiplicity
 _atom_site_fract_x
 _atom_site_fract_y
 _atom_site_fract_z
 _atom_site_occupancy
  Rb  Rb0  1  0.37211000  0.46695100  0.12696600  1
  Rb  Rb1  1  0.37451100  0.94670400  0.65136300  1
  Rb  Rb2  1  0.62548900  0.05329600  0.34863700  1
  Rb  Rb3  1  0.87451100  0.05329600  0.84863700  1
  Rb  Rb4  1  0.87211000  0.53304900  0.37303400  1
  Rb  Rb5  1  0.12789000  0.46695100  0.62696600  1
  Rb  Rb6  1  0.12548900  0.94670400  0.15136300  1
  Rb  Rb7  1  0.62789000  0.53304900  0.87303400  1
  Ga  Ga0  1  0.56897300  0.31466900  0.63336000  1
  Ga  Ga1  1  0.12152000  0.15439300  0.38566200  1
  Ga  Ga2  1  0.62152000  0.84560700  0.11433800  1
  Ga  Ga3  1  0.37848000  0.15439300  0.88566200  1
  Ga  Ga4  1  0.06897300  0.68533100  0.86664000  1
  Ga  Ga5  1  0.87848000  0.84560700  0.61433800  1
  Ga  Ga6  1  0.93102700  0.31466900  0.13336000  1
  Ga  Ga7  1  0.43102700  0.68533100  0.36664000  1
  B  B0  1  0.09216700  0.34546500  0.91297700  1
  B  B1  1  0.62938800  0.18487600  0.06082600  1
  B  B2  1  0.40783300  0.34546500  0.41297700  1
  B  B3  1  0.37061200  0.81512400  0.93917400  1
  B  B4  1  0.87061200  0.18487600  0.56082600  1
  B  B5  1  0.90783300  0.65453500  0.08702300  1
  B  B6  1  0.59216700  0.65453500  0.58702300  1
  B  B7  1  0.12938800  0.81512400  0.43917400  1
  O  O0  1  0.99107200  0.51618700  0.13412000  1
  O  O1  1  0.80692600  0.71607300  0.15842200  1
  O  O2  1  0.00892800  0.48381300  0.86588000  1
  O  O3  1  0.21415300  0.95508000  0.41863000  1
  O  O4  1  0.02773200  0.21279500  0.50920700  1
  O  O5  1  0.53423800  0.17626500  0.77072100  1
  O  O6  1  0.49107200  0.48381300  0.36588000  1
  O  O7  1  0.52773200  0.78720500  0.99079300  1
  O  O8  1  0.20147900  0.69085300  0.40573300  1
  O  O9  1  0.50892800  0.51618700  0.63412000  1
  O  O10  1  0.71415300  0.04492000  0.08137000  1
  O  O11  1  0.79852100  0.30914700  0.59426700  1
  O  O12  1  0.19307400  0.28392700  0.84157800  1
  O  O13  1  0.96576200  0.17626500  0.27072100  1
  O  O14  1  0.30692600  0.28392700  0.34157800  1
  O  O15  1  0.47226800  0.21279500  0.00920700  1
  O  O16  1  0.43228200  0.26065700  0.52342900  1
  O  O17  1  0.29852100  0.69085300  0.90573300  1
  O  O18  1  0.97226800  0.78720500  0.49079300  1
  O  O19  1  0.69307400  0.71607300  0.65842200  1
  O  O20  1  0.56771800  0.73934300  0.47657100  1
  O  O21  1  0.46576200  0.82373500  0.22927900  1
  O  O22  1  0.28584700  0.95508000  0.91863000  1
  O  O23  1  0.06771800  0.26065700  0.02342900  1
  O  O24  1  0.70147900  0.30914700  0.09426700  1
  O  O25  1  0.78584700  0.04492000  0.58137000  1
  O  O26  1  0.93228200  0.73934300  0.97657100  1
  O  O27  1  0.03423800  0.82373500  0.72927900  1
loop_
_geom_bond_atom_site_label_1
_geom_bond_atom_site_label_2
_geom_bond_distance
_geom_bond_site_symmetry_2
Ga0 O5 1.834032 1_555
Ga0 O9 1.862288 1_555
Ga0 O16 1.870873 1_555
Ga0 O11 1.871278 1_555
Ga1 O13 1.832840 1_455
Ga1 O14 1.855501 1_555
Ga1 O4 1.862088 1_555
Ga1 O3 1.871295 1_545
Ga2 O21 1.832840 1_555
Ga2 O1 1.855501 1_555
Ga2 O7 1.862088 1_554
Ga2 O10 1.871295 1_565
Ga3 O5 1.832840 1_555
Ga3 O12 1.855501 1_555
Ga3 O15 1.862088 1_556
Ga3 O22 1.871295 1_545
Ga4 O27 1.834032 1_555
Ga4 O2 1.862288 1_555
Ga4 O26 1.870873 1_455
Ga4 O17 1.871278 1_555
Ga5 O27 1.832840 1_655
Ga5 O19 1.855501 1_555
Ga5 O18 1.862088 1_555
Ga5 O25 1.871295 1_565
Ga6 O13 1.834032 1_555
Ga6 O0 1.862288 1_555
Ga6 O23 1.870873 1_655
Ga6 O24 1.871278 1_555
Ga7 O21 1.834032 1_555
Ga7 O6 1.862288 1_555
Ga7 O20 1.870873 1_555
Ga7 O8 1.871278 1_555
B0 O23 1.381427 1_556
B0 O12 1.387471 1_555
B0 O2 1.388993 1_555
B1 O15 1.380716 1_555
B1 O10 1.382889 1_555
B1 O24 1.394081 1_555
B2 O16 1.381427 1_555
B2 O14 1.387471 1_555
B2 O6 1.388993 1_555
B3 O7 1.380716 1_555
B3 O22 1.382889 1_555
B3 O17 1.394081 1_555
B4 O4 1.380716 1_655
B4 O25 1.382889 1_555
B4 O11 1.394081 1_555
B5 O26 1.381427 1_554
B5 O1 1.387471 1_555
B5 O0 1.388993 1_555
B6 O20 1.381427 1_555
B6 O19 1.387471 1_555
B6 O9 1.388993 1_555
B7 O18 1.380716 1_455
B7 O3 1.382889 1_555
B7 O8 1.394081 1_555
O0 Rb0 3.034160 1_655
O0 Rb4 3.093191 1_555
O1 Rb4 2.760671 1_555
O2 Rb7 3.034160 1_455
O2 Rb5 3.093191 1_555
O3 Rb1 3.083921 1_555
O4 Rb5 3.073353 1_555
O4 Rb4 3.170672 1_455
O5 Rb3 2.958146 1_555
O5 Rb1 3.061769 1_545
O6 Rb4 3.034160 1_555
O6 Rb0 3.093191 1_555
O7 Rb7 3.073353 1_555
O7 Rb0 3.170672 1_556
O8 Rb5 2.981652 1_555
O8 Rb4 3.022791 1_455
O9 Rb5 3.034160 1_555
O9 Rb7 3.093191 1_555
O10 Rb3 3.083921 1_554
O11 Rb4 2.981652 1_555
O11 Rb5 3.022791 1_655
O12 Rb5 2.760671 1_555
O13 Rb2 2.958146 1_555
O13 Rb6 3.061769 1_645
O14 Rb0 2.760671 1_555
O15 Rb0 3.073353 1_555
O15 Rb7 3.170672 1_554
O16 Rb1 2.882183 1_545
O16 Rb5 3.445585 1_555
O17 Rb0 2.981652 1_556
O17 Rb7 3.022791 1_555
O18 Rb4 3.073353 1_555
O18 Rb5 3.170672 1_655
O19 Rb7 2.760671 1_555
O20 Rb2 2.882183 1_565
O20 Rb4 3.445585 1_555
O21 Rb6 2.958146 1_555
O21 Rb2 3.061769 1_565
O22 Rb6 3.083921 1_556
O23 Rb6 2.882183 1_545
O23 Rb0 3.445585 1_555
O24 Rb7 2.981652 1_554
O24 Rb0 3.022791 1_555
O25 Rb2 3.083921 1_555
O26 Rb3 2.882183 1_565
O26 Rb7 3.445585 1_555
O27 Rb1 2.958146 1_555
O27 Rb3 3.061769 1_465
