# generated using pymatgen
data_Sr(InAu)2
_symmetry_space_group_name_H-M   'P 1'
_cell_length_a   4.63642975
_cell_length_b   8.60340097
_cell_length_c   12.46365265
_cell_angle_alpha   90.00000000
_cell_angle_beta   90.00000000
_cell_angle_gamma   90.00000000
_symmetry_Int_Tables_number   1
_chemical_formula_structural   Sr(InAu)2
_chemical_formula_sum   'Sr4 In8 Au8'
_cell_volume   497.16344083
_cell_formula_units_Z   4
loop_
 _symmetry_equiv_pos_site_id
 _symmetry_equiv_pos_as_xyz
  1  'x, y, z'
loop_
 _atom_site_type_symbol
 _atom_site_label
 _atom_site_symmetry_multiplicity
 _atom_site_fract_x
 _atom_site_fract_y
 _atom_site_fract_z
 _atom_site_occupancy
  Sr  Sr0  1  0.25000000  0.78970762  0.83171281  1
  Sr  Sr1  1  0.25000000  0.28970762  0.66828719  1
  Sr  Sr2  1  0.75000000  0.21029238  0.16828719  1
  Sr  Sr3  1  0.75000000  0.71029238  0.33171281  1
  In  In0  1  0.25000000  0.40501135  0.94797337  1
  In  In1  1  0.75000000  0.59498865  0.05202663  1
  In  In2  1  0.75000000  0.09498865  0.44797337  1
  In  In3  1  0.25000000  0.90501135  0.55202663  1
  In  In4  1  0.25000000  0.84961907  0.14030242  1
  In  In5  1  0.75000000  0.65038093  0.64030242  1
  In  In6  1  0.75000000  0.15038093  0.85969758  1
  In  In7  1  0.25000000  0.34961907  0.35969758  1
  Au  Au0  1  0.25000000  0.51138831  0.16915543  1
  Au  Au1  1  0.25000000  0.09312006  0.98277412  1
  Au  Au2  1  0.75000000  0.98861169  0.66915543  1
  Au  Au3  1  0.75000000  0.90687994  0.01722588  1
  Au  Au4  1  0.25000000  0.01138831  0.33084457  1
  Au  Au5  1  0.75000000  0.40687994  0.48277412  1
  Au  Au6  1  0.25000000  0.59312006  0.51722588  1
  Au  Au7  1  0.75000000  0.48861169  0.83084457  1
loop_
_geom_bond_atom_site_label_1
_geom_bond_atom_site_label_2
_geom_bond_distance
_geom_bond_site_symmetry_2
In0 Sr0 3.613002 1_555
In0 Sr1 3.624314 1_555
In1 Sr2 3.613002 1_555
In1 Sr3 3.624314 1_555
In2 Sr3 3.613002 1_545
In2 Sr2 3.624314 1_555
In3 Sr1 3.613002 1_565
In3 Sr0 3.624314 1_555
In4 Sr3 3.535873 1_455
In4 Sr3 3.535873 1_555
In5 Sr0 3.535873 1_555
In5 Sr0 3.535873 1_655
In6 Sr1 3.535873 1_655
In6 Sr1 3.535873 1_555
In7 Sr2 3.535873 1_555
In7 Sr2 3.535873 1_455
Au0 In7 2.752622 1_555
Au0 In1 2.832421 1_455
Au0 In1 2.832421 1_555
Au0 In0 2.904685 1_554
Au0 In4 2.932071 1_555
Au0 Sr2 3.476300 1_455
Au0 Sr2 3.476300 1_555
Au0 Sr3 3.522416 1_455
Au0 Sr3 3.522416 1_555
Au1 In0 2.718156 1_555
Au1 In6 2.823104 1_455
Au1 In6 2.823104 1_555
Au1 Au3 2.850589 1_446
Au1 Au3 2.850589 1_546
Au1 In4 2.871169 1_546
Au1 Sr0 3.218528 1_545
Au1 Sr2 3.425854 1_456
Au1 Sr2 3.425854 1_556
Au2 In6 2.752622 1_565
Au2 In3 2.832421 1_555
Au2 In3 2.832421 1_655
Au2 In2 2.904685 1_565
Au2 In5 2.932071 1_555
Au2 Sr1 3.476300 1_565
Au2 Sr1 3.476300 1_665
Au2 Sr0 3.522416 1_555
Au2 Sr0 3.522416 1_655
Au3 In1 2.718156 1_555
Au3 In4 2.823104 1_555
Au3 In4 2.823104 1_655
Au3 In6 2.871169 1_564
Au3 Sr2 3.218528 1_565
Au3 Sr0 3.425854 1_654
Au3 Sr0 3.425854 1_554
Au4 In4 2.752622 1_545
Au4 In2 2.832421 1_455
Au4 In2 2.832421 1_555
Au4 In3 2.904685 1_545
Au4 In7 2.932071 1_555
Au4 Sr3 3.476300 1_545
Au4 Sr3 3.476300 1_445
Au4 Sr2 3.522416 1_455
Au4 Sr2 3.522416 1_555
Au5 In2 2.718156 1_555
Au5 In7 2.823104 1_555
Au5 In7 2.823104 1_655
Au5 Au6 2.850589 1_555
Au5 Au6 2.850589 1_655
Au5 In5 2.871169 1_555
Au5 Sr3 3.218528 1_555
Au5 Sr1 3.425854 1_655
Au5 Sr1 3.425854 1_555
Au6 In3 2.718156 1_555
Au6 In5 2.823104 1_455
Au6 In5 2.823104 1_555
Au6 In7 2.871169 1_555
Au6 Sr1 3.218528 1_555
Au6 Sr3 3.425854 1_555
Au6 Sr3 3.425854 1_455
Au7 In5 2.752622 1_555
Au7 In0 2.832421 1_555
Au7 In0 2.832421 1_655
Au7 In1 2.904685 1_556
Au7 In6 2.932071 1_555
Au7 Sr0 3.476300 1_555
Au7 Sr0 3.476300 1_655
Au7 Sr1 3.522416 1_555
Au7 Sr1 3.522416 1_655
