# generated using pymatgen
data_Li3Ni2(PO4)3
_symmetry_space_group_name_H-M   'P 1'
_cell_length_a   8.81583000
_cell_length_b   8.73881600
_cell_length_c   15.07880078
_cell_angle_alpha   54.91636795
_cell_angle_beta   90.00000000
_cell_angle_gamma   90.00000000
_symmetry_Int_Tables_number   1
_chemical_formula_structural   Li3Ni2(PO4)3
_chemical_formula_sum   'Li12 Ni8 P12 O48'
_cell_volume   950.61039540
_cell_formula_units_Z   4
loop_
 _symmetry_equiv_pos_site_id
 _symmetry_equiv_pos_as_xyz
  1  'x, y, z'
loop_
 _atom_site_type_symbol
 _atom_site_label
 _atom_site_symmetry_multiplicity
 _atom_site_fract_x
 _atom_site_fract_y
 _atom_site_fract_z
 _atom_site_occupancy
  Li  Li0  1  0.27021700  0.03362800  0.68060600  1
  Li  Li1  1  0.72978300  0.96637200  0.31939400  1
  Li  Li2  1  0.20839300  0.33313600  0.25209900  1
  Li  Li3  1  0.29160700  0.33313600  0.75209900  1
  Li  Li4  1  0.08526100  0.61743600  0.29810500  1
  Li  Li5  1  0.22978300  0.03362800  0.18060600  1
  Li  Li6  1  0.58526100  0.38256400  0.20189500  1
  Li  Li7  1  0.41473900  0.61743600  0.79810500  1
  Li  Li8  1  0.77021700  0.96637200  0.81939400  1
  Li  Li9  1  0.70839300  0.66686400  0.24790100  1
  Li  Li10  1  0.79160700  0.66686400  0.74790100  1
  Li  Li11  1  0.91473900  0.38256400  0.70189500  1
  Ni  Ni0  1  0.54509300  0.13054100  0.11453500  1
  Ni  Ni1  1  0.04509300  0.86945900  0.38546500  1
  Ni  Ni2  1  0.96222000  0.35729100  0.89074000  1
  Ni  Ni3  1  0.03778000  0.64270900  0.10926000  1
  Ni  Ni4  1  0.95490700  0.13054100  0.61453500  1
  Ni  Ni5  1  0.45490700  0.86945900  0.88546500  1
  Ni  Ni6  1  0.53778000  0.35729100  0.39074000  1
  Ni  Ni7  1  0.46222000  0.64270900  0.60926000  1
  P  P0  1  0.24848600  0.45830500  0.50542200  1
  P  P1  1  0.89994000  0.95386100  0.14858700  1
  P  P2  1  0.25151400  0.45830500  0.00542200  1
  P  P3  1  0.74848600  0.54169500  0.99457800  1
  P  P4  1  0.38965000  0.74747000  0.14775900  1
  P  P5  1  0.88965000  0.25253000  0.35224100  1
  P  P6  1  0.11035000  0.74747000  0.64775900  1
  P  P7  1  0.60006000  0.95386100  0.64858700  1
  P  P8  1  0.10006000  0.04613900  0.85141300  1
  P  P9  1  0.75151400  0.54169500  0.49457800  1
  P  P10  1  0.39994000  0.04613900  0.35141300  1
  P  P11  1  0.61035000  0.25253000  0.85224100  1
  O  O0  1  0.98688200  0.59683000  0.71747700  1
  O  O1  1  0.43870000  0.88215000  0.46499000  1
  O  O2  1  0.66173000  0.72972000  0.92608300  1
  O  O3  1  0.27209800  0.66263700  0.68592100  1
  O  O4  1  0.76094200  0.96308900  0.68762900  1
  O  O5  1  0.56130000  0.11785000  0.53501000  1
  O  O6  1  0.26094200  0.03691100  0.81237100  1
  O  O7  1  0.93870000  0.11785000  0.03501000  1
  O  O8  1  0.47525900  0.93319700  0.72857300  1
  O  O9  1  0.90077900  0.76078600  0.16334800  1
  O  O10  1  0.17583100  0.47733600  0.09090300  1
  O  O11  1  0.23905800  0.03691100  0.31237100  1
  O  O12  1  0.51311800  0.59683000  0.21747700  1
  O  O13  1  0.97525900  0.06680300  0.77142700  1
  O  O14  1  0.40077900  0.23921400  0.33665200  1
  O  O15  1  0.85923600  0.55178900  0.07051300  1
  O  O16  1  0.09786500  0.90937600  0.66202900  1
  O  O17  1  0.59922100  0.76078600  0.66334800  1
  O  O18  1  0.40213500  0.90937600  0.16202900  1
  O  O19  1  0.72790200  0.33736300  0.31407900  1
  O  O20  1  0.35552600  0.62379500  0.92380200  1
  O  O21  1  0.22790200  0.66263700  0.18592100  1
  O  O22  1  0.83827000  0.72972000  0.42608300  1
  O  O23  1  0.73905800  0.96308900  0.18762900  1
  O  O24  1  0.64447400  0.37620500  0.07619800  1
  O  O25  1  0.82416900  0.52266400  0.90909700  1
  O  O26  1  0.90213500  0.09062400  0.33797100  1
  O  O27  1  0.01311800  0.40317000  0.28252300  1
  O  O28  1  0.32416900  0.47733600  0.59090300  1
  O  O29  1  0.91604200  0.18036700  0.47042100  1
  O  O30  1  0.85552600  0.37620500  0.57619800  1
  O  O31  1  0.77209800  0.33736300  0.81407900  1
  O  O32  1  0.35923600  0.44821100  0.42948700  1
  O  O33  1  0.33827000  0.27028000  0.07391700  1
  O  O34  1  0.67583100  0.52266400  0.40909700  1
  O  O35  1  0.48688200  0.40317000  0.78252300  1
  O  O36  1  0.58395800  0.18036700  0.97042100  1
  O  O37  1  0.14447400  0.62379500  0.42380200  1
  O  O38  1  0.02474100  0.93319700  0.22857300  1
  O  O39  1  0.08395800  0.81963300  0.52957900  1
  O  O40  1  0.16173000  0.27028000  0.57391700  1
  O  O41  1  0.06130000  0.88215000  0.96499000  1
  O  O42  1  0.41604200  0.81963300  0.02957900  1
  O  O43  1  0.52474100  0.06680300  0.27142700  1
  O  O44  1  0.59786500  0.09062400  0.83797100  1
  O  O45  1  0.09922100  0.23921400  0.83665200  1
  O  O46  1  0.14076400  0.44821100  0.92948700  1
  O  O47  1  0.64076400  0.55178900  0.57051300  1
loop_
_geom_bond_atom_site_label_1
_geom_bond_atom_site_label_2
_geom_bond_distance
_geom_bond_site_symmetry_2
Li0 O8 1.957336 1_545
Li0 O16 1.978828 1_545
Li0 O40 1.988750 1_555
Li0 O6 2.005154 1_555
Li1 O43 1.957336 1_565
Li1 O26 1.978828 1_565
Li1 O22 1.988750 1_555
Li1 O23 2.005154 1_555
Li2 O27 1.967581 1_555
Li2 O14 1.993189 1_555
Li2 O10 2.014296 1_555
Li2 O11 2.212628 1_555
Li2 O21 2.452250 1_555
Li3 O35 1.967581 1_555
Li3 O45 1.993189 1_555
Li3 O28 2.014296 1_555
Li3 O6 2.212628 1_555
Li3 O3 2.452250 1_555
Li4 O21 1.957226 1_555
Li4 O37 1.997261 1_555
Li4 O27 2.114576 1_555
Li4 O9 2.327471 1_455
Li4 O38 2.381670 1_555
Li5 O38 1.957336 1_545
Li5 O18 1.978828 1_545
Li5 O33 1.988750 1_555
Li5 O11 2.005154 1_555
Li6 O19 1.957226 1_555
Li6 O24 1.997261 1_555
Li6 O12 2.114576 1_555
Li6 O14 2.327471 1_555
Li6 O43 2.381670 1_555
Li7 O3 1.957226 1_555
Li7 O20 1.997261 1_555
Li7 O35 2.114576 1_555
Li7 O17 2.327471 1_555
Li7 O8 2.381670 1_555
Li8 O13 1.957336 1_565
Li8 O44 1.978828 1_565
Li8 O2 1.988750 1_555
Li8 O4 2.005154 1_555
Li9 O12 1.967581 1_555
Li9 O9 1.993189 1_555
Li9 O34 2.014296 1_555
Li9 O23 2.212628 1_555
Li9 O19 2.452250 1_555
Li10 O0 1.967581 1_555
Li10 O17 1.993189 1_555
Li10 O25 2.014296 1_555
Li10 O4 2.212628 1_555
Li10 O31 2.452250 1_555
Li11 O31 1.957226 1_555
Li11 O30 1.997261 1_555
Li11 O0 2.114576 1_555
Li11 O45 2.327471 1_655
Li11 O13 2.381670 1_555
Ni0 O36 1.985323 1_554
Ni0 O18 2.060464 1_545
Ni0 O24 2.069774 1_555
Ni0 O33 2.081118 1_555
Ni0 O43 2.103429 1_555
Ni0 O23 2.103821 1_545
Ni1 O39 1.985323 1_555
Ni1 O26 2.060464 1_465
Ni1 O37 2.069774 1_555
Ni1 O22 2.081118 1_455
Ni1 O38 2.103429 1_555
Ni1 O11 2.103821 1_565
Ni2 O7 1.980173 1_556
Ni2 O46 1.995944 1_655
Ni2 O25 2.026360 1_555
Ni2 O45 2.038635 1_655
Ni2 O31 2.099340 1_555
Ni2 O0 2.228909 1_555
Ni3 O41 1.980173 1_554
Ni3 O15 1.995944 1_455
Ni3 O10 2.026360 1_555
Ni3 O9 2.038635 1_455
Ni3 O21 2.099340 1_555
Ni3 O27 2.228909 1_555
Ni4 O29 1.985323 1_555
Ni4 O16 2.060464 1_645
Ni4 O30 2.069774 1_555
Ni4 O40 2.081118 1_655
Ni4 O13 2.103429 1_555
Ni4 O4 2.103821 1_545
Ni5 O42 1.985323 1_556
Ni5 O44 2.060464 1_565
Ni5 O20 2.069774 1_555
Ni5 O2 2.081118 1_555
Ni5 O8 2.103429 1_555
Ni5 O6 2.103821 1_565
Ni6 O5 1.980173 1_555
Ni6 O32 1.995944 1_555
Ni6 O34 2.026360 1_555
Ni6 O14 2.038635 1_555
Ni6 O19 2.099340 1_555
Ni6 O12 2.228909 1_555
Ni7 O1 1.980173 1_555
Ni7 O47 1.995944 1_555
Ni7 O28 2.026360 1_555
Ni7 O17 2.038635 1_555
Ni7 O3 2.099340 1_555
Ni7 O35 2.228909 1_555
O0 P6 1.559495 1_655
O1 P10 1.510682 1_565
O2 P3 1.549414 1_555
O3 P6 1.556804 1_555
O4 P7 1.555394 1_555
O5 P7 1.510682 1_545
O6 P8 1.555394 1_555
O7 P1 1.510682 1_545
O8 P7 1.564416 1_555
O9 P1 1.569934 1_555
O10 P2 1.542932 1_555
O11 P10 1.555394 1_555
O12 P4 1.559495 1_555
O13 P8 1.564416 1_655
O14 P10 1.569934 1_555
O15 P3 1.545379 1_554
O16 P6 1.552493 1_555
O17 P7 1.569934 1_555
O18 P4 1.552493 1_555
O19 P5 1.556804 1_555
O20 P2 1.549491 1_556
O21 P4 1.556804 1_555
O22 P9 1.549414 1_555
O23 P1 1.555394 1_555
O24 P3 1.549491 1_554
O25 P3 1.542932 1_555
O26 P5 1.552493 1_555
O27 P5 1.559495 1_455
O28 P0 1.542932 1_555
O29 P5 1.528254 1_555
O30 P9 1.549491 1_555
O31 P11 1.556804 1_555
O32 P0 1.545379 1_555
O33 P2 1.549414 1_555
O34 P9 1.542932 1_555
O35 P11 1.559495 1_555
O36 P11 1.528254 1_555
O37 P0 1.549491 1_555
O38 P1 1.564416 1_455
O39 P6 1.528254 1_555
O40 P0 1.549414 1_555
O41 P8 1.510682 1_565
O42 P4 1.528254 1_555
O43 P10 1.564416 1_555
O44 P11 1.552493 1_555
O45 P8 1.569934 1_555
O46 P2 1.545379 1_556
O47 P9 1.545379 1_555
