# generated using pymatgen
data_DyMn4(CuO4)3
_symmetry_space_group_name_H-M   'P 1'
_cell_length_a   6.41573097
_cell_length_b   6.41573097
_cell_length_c   6.41573097
_cell_angle_alpha   109.47122063
_cell_angle_beta   109.47122063
_cell_angle_gamma   109.47122063
_symmetry_Int_Tables_number   1
_chemical_formula_structural   DyMn4(CuO4)3
_chemical_formula_sum   'Dy1 Mn4 Cu3 O12'
_cell_volume   203.29024613
_cell_formula_units_Z   1
loop_
 _symmetry_equiv_pos_site_id
 _symmetry_equiv_pos_as_xyz
  1  'x, y, z'
loop_
 _atom_site_type_symbol
 _atom_site_label
 _atom_site_symmetry_multiplicity
 _atom_site_fract_x
 _atom_site_fract_y
 _atom_site_fract_z
 _atom_site_occupancy
  Dy  Dy0  1  0.00000000  0.00000000  0.00000000  1
  Mn  Mn0  1  0.50000000  0.50000000  0.50000000  1
  Mn  Mn1  1  0.50000000  0.00000000  0.00000000  1
  Mn  Mn2  1  0.00000000  0.00000000  0.50000000  1
  Mn  Mn3  1  0.00000000  0.50000000  0.00000000  1
  Cu  Cu0  1  0.00000000  0.50000000  0.50000000  1
  Cu  Cu1  1  0.50000000  0.50000000  0.00000000  1
  Cu  Cu2  1  0.50000000  0.00000000  0.50000000  1
  O  O0  1  0.69811500  0.83013300  0.52824800  1
  O  O1  1  0.69811500  0.16986700  0.86798200  1
  O  O2  1  0.16986700  0.86798200  0.69811500  1
  O  O3  1  0.13201800  0.30188500  0.83013300  1
  O  O4  1  0.16986700  0.47175200  0.30188500  1
  O  O5  1  0.83013300  0.52824800  0.69811500  1
  O  O6  1  0.52824800  0.69811500  0.83013300  1
  O  O7  1  0.30188500  0.16986700  0.47175200  1
  O  O8  1  0.47175200  0.30188500  0.16986700  1
  O  O9  1  0.83013300  0.13201800  0.30188500  1
  O  O10  1  0.30188500  0.83013300  0.13201800  1
  O  O11  1  0.86798200  0.69811500  0.16986700  1
loop_
_geom_bond_atom_site_label_1
_geom_bond_atom_site_label_2
_geom_bond_distance
_geom_bond_site_symmetry_2
Dy0 O6 2.566179 1_444
Dy0 O9 2.566179 1_455
Dy0 O5 2.566179 1_444
Dy0 O8 2.566179 1_555
Dy0 O1 2.566179 1_454
Dy0 O11 2.566179 1_445
Dy0 O2 2.566179 1_544
Dy0 O0 2.566179 1_444
Dy0 O3 2.566179 1_554
Dy0 O7 2.566179 1_555
Dy0 O4 2.566179 1_555
Dy0 O10 2.566179 1_545
Mn0 O5 1.982497 1_555
Mn0 O6 1.982497 1_555
Mn0 O0 1.982497 1_555
Mn0 O7 1.982497 1_555
Mn0 O4 1.982497 1_555
Mn0 O8 1.982497 1_555
Mn1 O10 1.982497 1_545
Mn1 O2 1.982497 1_544
Mn1 O6 1.982497 1_544
Mn1 O8 1.982497 1_555
Mn1 O1 1.982497 1_554
Mn1 O9 1.982497 1_555
Mn2 O9 1.982497 1_455
Mn2 O11 1.982497 1_445
Mn2 O3 1.982497 1_555
Mn2 O2 1.982497 1_545
Mn2 O7 1.982497 1_555
Mn2 O0 1.982497 1_445
Mn3 O1 1.982497 1_454
Mn3 O3 1.982497 1_554
Mn3 O4 1.982497 1_555
Mn3 O11 1.982497 1_455
Mn3 O5 1.982497 1_454
Mn3 O10 1.982497 1_555
Cu0 O4 1.933316 1_555
Cu0 O5 1.933316 1_455
Cu0 O9 1.933316 1_455
Cu0 O2 1.933316 1_555
Cu1 O8 1.933316 1_555
Cu1 O3 1.933316 1_554
Cu1 O11 1.933316 1_555
Cu1 O6 1.933316 1_554
Cu2 O7 1.933316 1_555
Cu2 O1 1.933316 1_555
Cu2 O10 1.933316 1_545
Cu2 O0 1.933316 1_545
