# generated using pymatgen
data_ScBiO3
_symmetry_space_group_name_H-M   'P 1'
_cell_length_a   5.79552263
_cell_length_b   5.79552263
_cell_length_c   10.14259118
_cell_angle_alpha   73.79084707
_cell_angle_beta   73.79084707
_cell_angle_gamma   61.12308309
_symmetry_Int_Tables_number   1
_chemical_formula_structural   ScBiO3
_chemical_formula_sum   'Sc4 Bi4 O12'
_cell_volume   282.20099549
_cell_formula_units_Z   4
loop_
 _symmetry_equiv_pos_site_id
 _symmetry_equiv_pos_as_xyz
  1  'x, y, z'
loop_
 _atom_site_type_symbol
 _atom_site_label
 _atom_site_symmetry_multiplicity
 _atom_site_fract_x
 _atom_site_fract_y
 _atom_site_fract_z
 _atom_site_occupancy
  Sc  Sc0  1  0.00000000  0.50000000  0.00000000  1
  Sc  Sc1  1  0.25045300  0.74954700  0.25000000  1
  Sc  Sc2  1  0.50000000  0.00000000  0.50000000  1
  Sc  Sc3  1  0.74954700  0.25045300  0.75000000  1
  Bi  Bi0  1  0.95351200  0.31345900  0.36665500  1
  Bi  Bi1  1  0.31345900  0.95351200  0.86665500  1
  Bi  Bi2  1  0.04648800  0.68654100  0.63334500  1
  Bi  Bi3  1  0.68654100  0.04648800  0.13334500  1
  O  O0  1  0.11710000  0.17522800  0.16352900  1
  O  O1  1  0.10672800  0.73140300  0.08129200  1
  O  O2  1  0.68746000  0.62838100  0.63604700  1
  O  O3  1  0.82477200  0.88290000  0.33647100  1
  O  O4  1  0.37161900  0.31254000  0.86395300  1
  O  O5  1  0.31254000  0.37161900  0.36395300  1
  O  O6  1  0.73140300  0.10672800  0.58129200  1
  O  O7  1  0.26859700  0.89327200  0.41870800  1
  O  O8  1  0.88290000  0.82477200  0.83647100  1
  O  O9  1  0.62838100  0.68746000  0.13604700  1
  O  O10  1  0.89327200  0.26859700  0.91870800  1
  O  O11  1  0.17522800  0.11710000  0.66352900  1
loop_
_geom_bond_atom_site_label_1
_geom_bond_atom_site_label_2
_geom_bond_distance
_geom_bond_site_symmetry_2
Bi0 O0 2.209648 1_655
Bi0 O7 2.251427 1_645
Bi0 O5 2.254845 1_655
Bi0 O6 2.510106 1_555
Bi1 O11 2.209648 1_565
Bi1 O10 2.251427 1_465
Bi1 O4 2.254845 1_565
Bi1 O1 2.510106 1_556
Bi2 O8 2.209648 1_455
Bi2 O6 2.251427 1_465
Bi2 O2 2.254845 1_455
Bi2 O7 2.510106 1_555
Bi3 O3 2.209648 1_545
Bi3 O1 2.251427 1_645
Bi3 O9 2.254845 1_545
Bi3 O10 2.510106 1_554
O0 Sc0 2.099063 1_555
O0 Sc1 2.186708 1_545
O1 Sc0 2.136407 1_555
O1 Sc1 2.147943 1_555
O2 Sc3 2.078541 1_555
O2 Sc2 2.154230 1_565
O3 Sc2 2.099063 1_565
O3 Sc1 2.186708 1_655
O4 Sc3 2.078541 1_555
O4 Sc0 2.154230 1_556
O5 Sc1 2.078541 1_555
O5 Sc2 2.154230 1_555
O6 Sc2 2.136407 1_555
O6 Sc3 2.147943 1_555
O7 Sc2 2.136407 1_565
O7 Sc1 2.147943 1_555
O8 Sc0 2.099063 1_656
O8 Sc3 2.186708 1_565
O9 Sc1 2.078541 1_555
O9 Sc0 2.154230 1_655
O10 Sc0 2.136407 1_656
O10 Sc3 2.147943 1_555
O11 Sc2 2.099063 1_555
O11 Sc3 2.186708 1_455
