# generated using pymatgen
data_Ga2Os
_symmetry_space_group_name_H-M   'P 1'
_cell_length_a   4.78451800
_cell_length_b   4.80974470
_cell_length_c   5.00492511
_cell_angle_alpha   76.24698507
_cell_angle_beta   61.44638064
_cell_angle_gamma   60.17334925
_symmetry_Int_Tables_number   1
_chemical_formula_structural   Ga2Os
_chemical_formula_sum   'Ga4 Os2'
_cell_volume   87.76512784
_cell_formula_units_Z   2
loop_
 _symmetry_equiv_pos_site_id
 _symmetry_equiv_pos_as_xyz
  1  'x, y, z'
loop_
 _atom_site_type_symbol
 _atom_site_label
 _atom_site_symmetry_multiplicity
 _atom_site_fract_x
 _atom_site_fract_y
 _atom_site_fract_z
 _atom_site_occupancy
  Ga  Ga0  1  0.58176100  0.83647800  0.50000000  1
  Ga  Ga1  1  0.91823900  0.16352200  0.50000000  1
  Ga  Ga2  1  0.16823900  0.66352200  0.00000000  1
  Ga  Ga3  1  0.83176100  0.33647800  0.00000000  1
  Os  Os0  1  0.25000000  0.50000000  0.50000000  1
  Os  Os1  1  0.50000000  0.00000000  0.00000000  1
loop_
_geom_bond_atom_site_label_1
_geom_bond_atom_site_label_2
_geom_bond_distance
_geom_bond_site_symmetry_2
Ga0 Os1 2.593814 1_566
Ga0 Os1 2.593814 1_565
Ga0 Ga2 2.604446 1_556
Ga0 Ga2 2.604446 1_655
Ga0 Ga1 2.754109 1_465
Ga0 Ga1 2.754109 1_565
Ga0 Os0 2.768624 1_565
Ga0 Os0 2.773825 1_555
Ga0 Os0 2.773825 1_655
Ga0 Ga1 2.807988 1_555
Ga1 Os1 2.593814 1_655
Ga1 Os1 2.593814 1_556
Ga1 Ga3 2.604446 1_556
Ga1 Ga3 2.604446 1_555
Ga1 Os0 2.768624 1_645
Ga1 Os0 2.773825 1_555
Ga1 Os0 2.773825 1_655
Ga2 Os0 2.593814 1_555
Ga2 Os0 2.593814 1_554
Ga2 Ga3 2.754109 1_555
Ga2 Ga3 2.754109 1_455
Ga2 Os1 2.768624 1_555
Ga2 Os1 2.773825 1_465
Ga2 Os1 2.773825 1_565
Ga2 Ga3 2.807988 1_465
Ga3 Os0 2.593814 1_555
Ga3 Os0 2.593814 1_654
Ga3 Os1 2.768624 1_565
Ga3 Os1 2.773825 1_655
Ga3 Os1 2.773825 1_555
