# generated using pymatgen
data_BaB2F8
_symmetry_space_group_name_H-M   'P 1'
_cell_length_a   4.71604252
_cell_length_b   5.01812449
_cell_length_c   6.73946500
_cell_angle_alpha   111.88068658
_cell_angle_beta   109.88479071
_cell_angle_gamma   89.98877831
_symmetry_Int_Tables_number   1
_chemical_formula_structural   BaB2F8
_chemical_formula_sum   'Ba1 B2 F8'
_cell_volume   137.70857546
_cell_formula_units_Z   1
loop_
 _symmetry_equiv_pos_site_id
 _symmetry_equiv_pos_as_xyz
  1  'x, y, z'
loop_
 _atom_site_type_symbol
 _atom_site_label
 _atom_site_symmetry_multiplicity
 _atom_site_fract_x
 _atom_site_fract_y
 _atom_site_fract_z
 _atom_site_occupancy
  Ba  Ba0  1  0.00000000  -0.00000000  0.00000000  1
  B  B0  1  0.28651505  0.34784892  0.69557208  1
  B  B1  1  0.71348495  0.65215108  0.30442792  1
  F  F0  1  0.46531949  0.61475222  0.76919341  1
  F  F1  1  0.85832035  0.77104594  0.54227559  1
  F  F2  1  0.46556517  0.15466428  0.76895250  1
  F  F3  1  0.06532431  0.40052674  0.80121546  1
  F  F4  1  0.53443483  0.84533572  0.23104750  1
  F  F5  1  0.53468051  0.38524778  0.23080659  1
  F  F6  1  0.14167865  0.22895406  0.45772441  1
  F  F7  1  0.93467569  0.59947326  0.19878354  1
loop_
_geom_bond_atom_site_label_1
_geom_bond_atom_site_label_2
_geom_bond_distance
_geom_bond_site_symmetry_2
Ba0 F1 2.690549 1_444
Ba0 F6 2.690550 1_555
Ba0 F5 2.758193 1_555
Ba0 F0 2.758193 1_444
Ba0 F4 2.758585 1_545
Ba0 F2 2.758585 1_454
Ba0 F7 2.866304 1_455
Ba0 F3 2.866305 1_544
Ba0 F7 2.866587 1_445
Ba0 F3 2.866593 1_554
B0 F6 1.390873 1_555
B0 F2 1.403683 1_555
B0 F0 1.404147 1_555
B0 F3 1.424705 1_555
B1 F1 1.390873 1_555
B1 F4 1.403683 1_555
B1 F5 1.404147 1_555
B1 F7 1.424709 1_555
