# generated using pymatgen
data_Sr2MnSbO6
_symmetry_space_group_name_H-M   'P 1'
_cell_length_a   5.61537000
_cell_length_b   5.69244745
_cell_length_c   5.61537000
_cell_angle_alpha   119.55309222
_cell_angle_beta   90.00000000
_cell_angle_gamma   119.55309222
_symmetry_Int_Tables_number   1
_chemical_formula_structural   Sr2MnSbO6
_chemical_formula_sum   'Sr2 Mn1 Sb1 O6'
_cell_volume   128.61875011
_cell_formula_units_Z   1
loop_
 _symmetry_equiv_pos_site_id
 _symmetry_equiv_pos_as_xyz
  1  'x, y, z'
loop_
 _atom_site_type_symbol
 _atom_site_label
 _atom_site_symmetry_multiplicity
 _atom_site_fract_x
 _atom_site_fract_y
 _atom_site_fract_z
 _atom_site_occupancy
  Sr  Sr0  1  0.49614000  0.99228000  0.99614000  1
  Sr  Sr1  1  0.99614000  0.99228000  0.49614000  1
  Mn  Mn0  1  0.24258300  0.48516600  0.24258300  1
  Sb  Sb0  1  0.74180800  0.48361500  0.74180800  1
  O  O0  1  0.49695600  0.99391100  0.49695600  1
  O  O1  1  0.99263400  0.47864700  0.48601300  1
  O  O2  1  0.99263400  0.47864700  0.99263400  1
  O  O3  1  0.48601300  0.47864700  0.99263400  1
  O  O4  1  0.98512300  0.97024700  0.98512300  1
  O  O5  1  0.48601300  0.47864700  0.48601300  1
loop_
_geom_bond_atom_site_label_1
_geom_bond_atom_site_label_2
_geom_bond_distance
_geom_bond_site_symmetry_2
Mn0 O1 1.959224 1_455
Mn0 O2 1.959224 1_454
Mn0 O5 1.959224 1_555
Mn0 O3 1.959224 1_554
Mn0 O0 2.075141 1_555
Mn0 O4 2.100325 1_444
O0 Sb0 1.997474 1_565
O0 Sr0 2.807690 1_555
O0 Sr1 2.807690 1_555
O0 Sr0 2.807696 1_554
O0 Sr1 2.807696 1_455
O1 Sb0 2.011725 1_555
O1 Sr1 2.806769 1_545
O1 Sr0 2.806769 1_544
O1 Sr1 2.886450 1_555
O1 Sr0 2.886450 1_655
O2 Sb0 2.011721 1_555
O2 Sr1 2.806769 1_545
O2 Sr0 2.806769 1_545
O2 Sr1 2.886450 1_556
O2 Sr0 2.886450 1_655
O3 Sb0 2.011725 1_555
O3 Sr1 2.806769 1_445
O3 Sr0 2.806769 1_545
O3 Sr0 2.886450 1_555
O3 Sr1 2.886450 1_556
O4 Sb0 1.984944 1_555
O4 Sr1 2.809120 1_555
O4 Sr0 2.809120 1_555
O4 Sr1 2.809126 1_556
O4 Sr0 2.809126 1_655
O5 Sb0 2.011729 1_555
O5 Sr0 2.806769 1_544
O5 Sr1 2.806769 1_445
O5 Sr0 2.886450 1_555
O5 Sr1 2.886450 1_555
