# generated using pymatgen
data_AgBi(PSe3)2
_symmetry_space_group_name_H-M   'P 1'
_cell_length_a   14.86163538
_cell_length_b   14.86163538
_cell_length_c   14.86163541
_cell_angle_alpha   26.27224950
_cell_angle_beta   26.27224950
_cell_angle_gamma   26.27225133
_symmetry_Int_Tables_number   1
_chemical_formula_structural   AgBi(PSe3)2
_chemical_formula_sum   'Ag2 Bi2 P4 Se12'
_cell_volume   566.71274837
_cell_formula_units_Z   2
loop_
 _symmetry_equiv_pos_site_id
 _symmetry_equiv_pos_as_xyz
  1  'x, y, z'
loop_
 _atom_site_type_symbol
 _atom_site_label
 _atom_site_symmetry_multiplicity
 _atom_site_fract_x
 _atom_site_fract_y
 _atom_site_fract_z
 _atom_site_occupancy
  Ag  Ag0  1  0.59413400  0.59413400  0.59413400  1
  Ag  Ag1  1  0.40586600  0.40586600  0.40586600  1
  Bi  Bi0  1  0.08736700  0.08736700  0.08736700  1
  Bi  Bi1  1  0.91263300  0.91263300  0.91263300  1
  P  P0  1  0.72418400  0.72418400  0.72418400  1
  P  P1  1  0.77737600  0.77737600  0.77737600  1
  P  P2  1  0.22262400  0.22262400  0.22262400  1
  P  P3  1  0.27581600  0.27581600  0.27581600  1
  Se  Se0  1  0.49857900  0.75158300  0.12402300  1
  Se  Se1  1  0.00777600  0.73008900  0.38543400  1
  Se  Se2  1  0.61456600  0.99222400  0.26991100  1
  Se  Se3  1  0.73008900  0.38543400  0.00777600  1
  Se  Se4  1  0.75158300  0.12402300  0.49857900  1
  Se  Se5  1  0.38543400  0.00777600  0.73008900  1
  Se  Se6  1  0.26991100  0.61456600  0.99222400  1
  Se  Se7  1  0.12402300  0.49857900  0.75158300  1
  Se  Se8  1  0.99222400  0.26991100  0.61456600  1
  Se  Se9  1  0.87597700  0.50142100  0.24841700  1
  Se  Se10  1  0.24841700  0.87597700  0.50142100  1
  Se  Se11  1  0.50142100  0.24841700  0.87597700  1
loop_
_geom_bond_atom_site_label_1
_geom_bond_atom_site_label_2
_geom_bond_distance
_geom_bond_site_symmetry_2
Ag0 Se2 2.790115 1_555
Ag0 Se6 2.790115 1_555
Ag0 Se8 2.790115 1_555
Ag0 Se11 3.097021 1_555
Ag0 Se9 3.097021 1_555
Ag0 Se10 3.097021 1_555
Ag1 Se5 2.790115 1_555
Ag1 Se3 2.790115 1_555
Ag1 Se1 2.790115 1_555
Ag1 Se0 3.097021 1_555
Ag1 Se7 3.097021 1_555
Ag1 Se4 3.097021 1_555
Bi0 Se1 2.983215 1_545
Bi0 Se5 2.983215 1_554
Bi0 Se3 2.983215 1_455
Bi0 Se7 2.991524 1_554
Bi0 Se4 2.991524 1_455
Bi0 Se0 2.991524 1_545
Bi1 Se8 2.983215 1_565
Bi1 Se2 2.983215 1_556
Bi1 Se6 2.983215 1_655
Bi1 Se9 2.991524 1_556
Bi1 Se10 2.991524 1_655
Bi1 Se11 2.991524 1_565
P0 Se3 2.221323 1_556
P0 Se1 2.221323 1_655
P0 Se5 2.221324 1_565
P0 P1 2.288444 1_555
P1 Se0 2.209184 1_556
P1 Se4 2.209184 1_565
P1 Se7 2.209184 1_655
P2 Se11 2.209184 1_554
P2 Se10 2.209184 1_545
P2 Se9 2.209184 1_455
P2 P3 2.288444 1_555
P3 Se6 2.221323 1_554
P3 Se8 2.221323 1_455
P3 Se2 2.221324 1_545
