# generated using pymatgen
data_K2Na3InO4
_symmetry_space_group_name_H-M   'P 1'
_cell_length_a   7.63954200
_cell_length_b   9.38156300
_cell_length_c   9.65842300
_cell_angle_alpha   90.00000000
_cell_angle_beta   90.00000000
_cell_angle_gamma   90.00000000
_symmetry_Int_Tables_number   1
_chemical_formula_structural   K2Na3InO4
_chemical_formula_sum   'K8 Na12 In4 O16'
_cell_volume   692.22733357
_cell_formula_units_Z   4
loop_
 _symmetry_equiv_pos_site_id
 _symmetry_equiv_pos_as_xyz
  1  'x, y, z'
loop_
 _atom_site_type_symbol
 _atom_site_label
 _atom_site_symmetry_multiplicity
 _atom_site_fract_x
 _atom_site_fract_y
 _atom_site_fract_z
 _atom_site_occupancy
  K  K0  1  0.00000000  0.23114900  0.26438400  1
  K  K1  1  0.00000000  0.76885100  0.73561600  1
  K  K2  1  0.50000000  0.73114900  0.23561600  1
  K  K3  1  0.50000000  0.26885100  0.76438400  1
  K  K4  1  0.74595000  0.00000000  0.50000000  1
  K  K5  1  0.75405000  0.50000000  0.00000000  1
  K  K6  1  0.25405000  0.00000000  0.50000000  1
  K  K7  1  0.24595000  0.50000000  0.00000000  1
  Na  Na0  1  0.75203900  0.48176800  0.34976300  1
  Na  Na1  1  0.75203900  0.51823200  0.65023700  1
  Na  Na2  1  0.74796100  0.98176800  0.15023700  1
  Na  Na3  1  0.74796100  0.01823200  0.84976300  1
  Na  Na4  1  0.24796100  0.51823200  0.65023700  1
  Na  Na5  1  0.24796100  0.48176800  0.34976300  1
  Na  Na6  1  0.25203900  0.01823200  0.84976300  1
  Na  Na7  1  0.25203900  0.98176800  0.15023700  1
  Na  Na8  1  0.00000000  0.23747500  0.92632500  1
  Na  Na9  1  0.00000000  0.76252500  0.07367500  1
  Na  Na10  1  0.50000000  0.73747500  0.57367500  1
  Na  Na11  1  0.50000000  0.26252500  0.42632500  1
  In  In0  1  0.50000000  0.77226200  0.87082200  1
  In  In1  1  0.50000000  0.22773800  0.12917800  1
  In  In2  1  0.00000000  0.27226200  0.62917800  1
  In  In3  1  0.00000000  0.72773800  0.37082200  1
  O  O0  1  0.50000000  0.56895700  0.77638200  1
  O  O1  1  0.50000000  0.43104300  0.22361800  1
  O  O2  1  0.00000000  0.06895700  0.72361800  1
  O  O3  1  0.00000000  0.93104300  0.27638200  1
  O  O4  1  0.76734600  0.30051600  0.51771800  1
  O  O5  1  0.76734600  0.69948400  0.48228200  1
  O  O6  1  0.73265400  0.80051600  0.98228200  1
  O  O7  1  0.73265400  0.19948400  0.01771800  1
  O  O8  1  0.23265400  0.69948400  0.48228200  1
  O  O9  1  0.23265400  0.30051600  0.51771800  1
  O  O10  1  0.26734600  0.19948400  0.01771800  1
  O  O11  1  0.26734600  0.80051600  0.98228200  1
  O  O12  1  0.00000000  0.44126400  0.77865000  1
  O  O13  1  0.00000000  0.55873600  0.22135000  1
  O  O14  1  0.50000000  0.94126400  0.72135000  1
  O  O15  1  0.50000000  0.05873600  0.27865000  1
loop_
_geom_bond_atom_site_label_1
_geom_bond_atom_site_label_2
_geom_bond_distance
_geom_bond_site_symmetry_2
K0 O3 2.817847 1_545
K0 O9 3.093446 1_555
K0 O4 3.093446 1_455
K0 O13 3.101257 1_555
K0 O10 3.152063 1_555
K0 O7 3.152063 1_455
K1 O2 2.817847 1_565
K1 O8 3.093446 1_555
K1 O5 3.093446 1_455
K1 O12 3.101257 1_555
K1 O11 3.152063 1_555
K1 O6 3.152063 1_455
K2 O1 2.817847 1_555
K2 O6 3.093446 1_554
K2 O11 3.093446 1_554
K2 O15 3.101257 1_565
K2 O8 3.152063 1_555
K2 O5 3.152063 1_555
K3 O0 2.817847 1_555
K3 O7 3.093446 1_556
K3 O10 3.093446 1_556
K3 O14 3.101257 1_545
K3 O4 3.152063 1_555
K3 O9 3.152063 1_555
K4 O5 2.829224 1_545
K4 O4 2.829224 1_555
K4 O15 2.899079 1_555
K4 O14 2.899079 1_545
K4 O2 2.974902 1_655
K4 O3 2.974902 1_645
K5 O7 2.829224 1_555
K5 O6 2.829224 1_554
K5 O12 2.899079 1_654
K5 O13 2.899079 1_655
K5 O1 2.974902 1_555
K5 O0 2.974902 1_554
K6 O9 2.829224 1_555
K6 O8 2.829224 1_545
K6 O15 2.899079 1_555
K6 O14 2.899079 1_545
K6 O2 2.974902 1_555
K6 O3 2.974902 1_545
K7 O10 2.829224 1_555
K7 O11 2.829224 1_554
K7 O12 2.899079 1_554
K7 O13 2.899079 1_555
K7 O1 2.974902 1_555
K7 O0 2.974902 1_554
Na0 O1 2.327718 1_555
Na0 O4 2.352997 1_555
Na0 O13 2.376566 1_655
Na0 O5 2.413246 1_555
Na1 O0 2.327718 1_555
Na1 O5 2.352997 1_555
Na1 O12 2.376566 1_655
Na1 O4 2.413246 1_555
Na2 O3 2.327718 1_655
Na2 O6 2.352997 1_554
Na2 O15 2.376566 1_565
Na2 O7 2.413246 1_565
Na3 O2 2.327718 1_655
Na3 O7 2.352997 1_556
Na3 O14 2.376566 1_545
Na3 O6 2.413246 1_545
Na4 O0 2.327718 1_555
Na4 O8 2.352997 1_555
Na4 O12 2.376566 1_555
Na4 O9 2.413246 1_555
Na5 O1 2.327718 1_555
Na5 O9 2.352997 1_555
Na5 O13 2.376566 1_555
Na5 O8 2.413246 1_555
Na6 O2 2.327718 1_555
Na6 O10 2.352997 1_556
Na6 O14 2.376566 1_545
Na6 O11 2.413246 1_545
Na7 O3 2.327718 1_555
Na7 O11 2.352997 1_554
Na7 O15 2.376566 1_565
Na7 O10 2.413246 1_565
Na8 O10 2.253356 1_556
Na8 O7 2.253356 1_456
Na8 O12 2.385280 1_555
Na8 O2 2.516454 1_555
Na9 O11 2.253356 1_554
Na9 O6 2.253356 1_454
Na9 O13 2.385280 1_555
Na9 O3 2.516454 1_555
Na10 O8 2.253356 1_555
Na10 O5 2.253356 1_555
Na10 O14 2.385280 1_555
Na10 O0 2.516454 1_555
Na11 O9 2.253356 1_555
Na11 O4 2.253356 1_555
Na11 O15 2.385280 1_555
Na11 O1 2.516454 1_555
In0 O6 2.094807 1_555
In0 O11 2.094807 1_555
In0 O0 2.114206 1_555
In0 O14 2.144291 1_555
In1 O7 2.094807 1_555
In1 O10 2.094807 1_555
In1 O1 2.114206 1_555
In1 O15 2.144291 1_555
In2 O9 2.094807 1_555
In2 O4 2.094807 1_455
In2 O2 2.114206 1_555
In2 O12 2.144291 1_555
In3 O8 2.094807 1_555
In3 O5 2.094807 1_455
In3 O3 2.114206 1_555
In3 O13 2.144291 1_555
