# generated using pymatgen
data_Cr2(Se2O5)3
_symmetry_space_group_name_H-M   'P 1'
_cell_length_a   11.64486000
_cell_length_b   11.18337800
_cell_length_c   15.63951345
_cell_angle_alpha   49.69718725
_cell_angle_beta   90.00000000
_cell_angle_gamma   90.00000000
_symmetry_Int_Tables_number   1
_chemical_formula_structural   Cr2(Se2O5)3
_chemical_formula_sum   'Cr8 Se24 O60'
_cell_volume   1553.27425670
_cell_formula_units_Z   4
loop_
 _symmetry_equiv_pos_site_id
 _symmetry_equiv_pos_as_xyz
  1  'x, y, z'
loop_
 _atom_site_type_symbol
 _atom_site_label
 _atom_site_symmetry_multiplicity
 _atom_site_fract_x
 _atom_site_fract_y
 _atom_site_fract_z
 _atom_site_occupancy
  Cr  Cr0  1  0.00000000  0.50000000  0.50000000  1
  Cr  Cr1  1  0.50000000  0.50000000  0.00000000  1
  Cr  Cr2  1  0.00000000  0.00000000  0.50000000  1
  Cr  Cr3  1  0.50000000  0.00000000  0.00000000  1
  Cr  Cr4  1  0.50000000  0.50000000  0.50000000  1
  Cr  Cr5  1  0.00000000  0.50000000  0.00000000  1
  Cr  Cr6  1  0.50000000  0.00000000  0.50000000  1
  Cr  Cr7  1  0.00000000  0.00000000  0.00000000  1
  Se  Se0  1  0.03329200  0.11933100  0.74178600  1
  Se  Se1  1  0.46670800  0.11933100  0.24178600  1
  Se  Se2  1  0.96670800  0.88066900  0.25821400  1
  Se  Se3  1  0.53329200  0.88066900  0.75821400  1
  Se  Se4  1  0.95316900  0.83551400  0.75314000  1
  Se  Se5  1  0.54683100  0.83551400  0.25314000  1
  Se  Se6  1  0.04683100  0.16448600  0.24686000  1
  Se  Se7  1  0.45316900  0.16448600  0.74686000  1
  Se  Se8  1  0.60716500  0.65683300  0.60915200  1
  Se  Se9  1  0.89283500  0.65683300  0.10915200  1
  Se  Se10  1  0.39283500  0.34316700  0.39084800  1
  Se  Se11  1  0.10716500  0.34316700  0.89084800  1
  Se  Se12  1  0.86929100  0.70150400  0.54950800  1
  Se  Se13  1  0.63070900  0.70150400  0.04950800  1
  Se  Se14  1  0.13070900  0.29849600  0.45049200  1
  Se  Se15  1  0.36929100  0.29849600  0.95049200  1
  Se  Se16  1  0.74764500  0.38681100  0.48485700  1
  Se  Se17  1  0.75235500  0.38681100  0.98485700  1
  Se  Se18  1  0.25235500  0.61318900  0.51514300  1
  Se  Se19  1  0.24764500  0.61318900  0.01514300  1
  Se  Se20  1  0.74615700  0.16933400  0.41928300  1
  Se  Se21  1  0.75384300  0.16933400  0.91928300  1
  Se  Se22  1  0.25384300  0.83066600  0.58071700  1
  Se  Se23  1  0.24615700  0.83066600  0.08071700  1
  O  O0  1  0.92806600  0.96688600  0.78347400  1
  O  O1  1  0.57193400  0.96688600  0.28347400  1
  O  O2  1  0.07193400  0.03311400  0.21652600  1
  O  O3  1  0.42806600  0.03311400  0.71652600  1
  O  O4  1  0.97076100  0.26634600  0.61536700  1
  O  O5  1  0.52923900  0.26634600  0.11536700  1
  O  O6  1  0.02923900  0.73365400  0.38463300  1
  O  O7  1  0.47076100  0.73365400  0.88463300  1
  O  O8  1  0.98363300  0.14893200  0.82896800  1
  O  O9  1  0.51636700  0.14893200  0.32896800  1
  O  O10  1  0.01636700  0.85106800  0.17103200  1
  O  O11  1  0.48363300  0.85106800  0.67103200  1
  O  O12  1  0.04978700  0.70763100  0.85398000  1
  O  O13  1  0.45021300  0.70763100  0.35398000  1
  O  O14  1  0.95021300  0.29236900  0.14602000  1
  O  O15  1  0.54978700  0.29236900  0.64602000  1
  O  O16  1  0.04666000  0.95338700  0.64258800  1
  O  O17  1  0.45334000  0.95338700  0.14258800  1
  O  O18  1  0.95334000  0.04661300  0.35741200  1
  O  O19  1  0.54666000  0.04661300  0.85741200  1
  O  O20  1  0.75529000  0.61721800  0.65845500  1
  O  O21  1  0.74471000  0.61721800  0.15845500  1
  O  O22  1  0.24471000  0.38278200  0.34154500  1
  O  O23  1  0.25529000  0.38278200  0.84154500  1
  O  O24  1  0.61736400  0.85726300  0.51391300  1
  O  O25  1  0.88263600  0.85726300  0.01391300  1
  O  O26  1  0.38263600  0.14273700  0.48608700  1
  O  O27  1  0.11736400  0.14273700  0.98608700  1
  O  O28  1  0.61760200  0.60981200  0.52466900  1
  O  O29  1  0.88239800  0.60981200  0.02466900  1
  O  O30  1  0.38239800  0.39018800  0.47533100  1
  O  O31  1  0.11760200  0.39018800  0.97533100  1
  O  O32  1  0.95703700  0.76946200  0.59755400  1
  O  O33  1  0.54296300  0.76946200  0.09755400  1
  O  O34  1  0.04296300  0.23053800  0.40244600  1
  O  O35  1  0.45703700  0.23053800  0.90244600  1
  O  O36  1  0.93142900  0.52708600  0.60558600  1
  O  O37  1  0.56857100  0.52708600  0.10558600  1
  O  O38  1  0.06857100  0.47291400  0.39441400  1
  O  O39  1  0.43142900  0.47291400  0.89441400  1
  O  O40  1  0.78928800  0.34893800  0.38982100  1
  O  O41  1  0.71071200  0.34893800  0.88982100  1
  O  O42  1  0.21071200  0.65106200  0.61017900  1
  O  O43  1  0.28928800  0.65106200  0.11017900  1
  O  O44  1  0.62302700  0.48510800  0.41699700  1
  O  O45  1  0.87697300  0.48510800  0.91699700  1
  O  O46  1  0.37697300  0.51489200  0.58300300  1
  O  O47  1  0.12302700  0.51489200  0.08300300  1
  O  O48  1  0.84323500  0.53668600  0.42955000  1
  O  O49  1  0.65676500  0.53668600  0.92955000  1
  O  O50  1  0.15676500  0.46331400  0.57045000  1
  O  O51  1  0.34323500  0.46331400  0.07045000  1
  O  O52  1  0.83886600  0.03829000  0.52483600  1
  O  O53  1  0.66113400  0.03829000  0.02483600  1
  O  O54  1  0.16113400  0.96171000  0.47516400  1
  O  O55  1  0.33886600  0.96171000  0.97516400  1
  O  O56  1  0.62418300  0.13001200  0.49563600  1
  O  O57  1  0.87581700  0.13001200  0.99563600  1
  O  O58  1  0.37581700  0.86998800  0.50436400  1
  O  O59  1  0.12418300  0.86998800  0.00436400  1
loop_
_geom_bond_atom_site_label_1
_geom_bond_atom_site_label_2
_geom_bond_distance
_geom_bond_site_symmetry_2
Cr0 O4 2.024896 1_455
Cr0 O6 2.024896 1_555
Cr0 O38 2.025657 1_555
Cr0 O36 2.025657 1_455
Cr0 O50 2.032236 1_555
Cr0 O48 2.032236 1_455
Cr1 O5 2.024896 1_555
Cr1 O7 2.024896 1_554
Cr1 O39 2.025657 1_554
Cr1 O37 2.025657 1_555
Cr1 O51 2.032236 1_555
Cr1 O49 2.032236 1_554
Cr2 O18 2.008993 1_455
Cr2 O16 2.008993 1_545
Cr2 O52 2.017479 1_455
Cr2 O54 2.017479 1_545
Cr2 O34 2.033836 1_555
Cr2 O32 2.033836 1_445
Cr3 O17 2.008993 1_545
Cr3 O19 2.008993 1_554
Cr3 O53 2.017479 1_555
Cr3 O55 2.017479 1_544
Cr3 O35 2.033836 1_554
Cr3 O33 2.033836 1_545
Cr4 O44 2.011215 1_555
Cr4 O46 2.011215 1_555
Cr4 O15 2.020684 1_555
Cr4 O13 2.020684 1_555
Cr4 O30 2.036015 1_555
Cr4 O28 2.036015 1_555
Cr5 O47 2.011215 1_555
Cr5 O45 2.011215 1_454
Cr5 O12 2.020684 1_554
Cr5 O14 2.020684 1_455
Cr5 O29 2.036015 1_455
Cr5 O31 2.036015 1_554
Cr6 O26 2.003487 1_555
Cr6 O24 2.003487 1_545
Cr6 O58 2.020274 1_545
Cr6 O56 2.020274 1_555
Cr6 O11 2.049847 1_545
Cr6 O9 2.049847 1_555
Cr7 O25 2.003487 1_445
Cr7 O27 2.003487 1_554
Cr7 O59 2.020274 1_545
Cr7 O57 2.020274 1_454
Cr7 O8 2.049847 1_454
Cr7 O10 2.049847 1_545
O0 Se4 1.835942 1_555
O0 Se0 1.842586 1_665
O1 Se5 1.835942 1_555
O1 Se1 1.842586 1_565
O2 Se6 1.835942 1_555
O2 Se2 1.842586 1_445
O3 Se7 1.835942 1_555
O3 Se3 1.842586 1_545
O4 Se0 1.713826 1_655
O5 Se1 1.713826 1_555
O6 Se2 1.713826 1_455
O7 Se3 1.713826 1_555
O8 Se0 1.699114 1_655
O9 Se1 1.699114 1_555
O10 Se2 1.699114 1_455
O11 Se3 1.699114 1_555
O12 Se4 1.697234 1_455
O13 Se5 1.697234 1_555
O14 Se6 1.697234 1_655
O15 Se7 1.697234 1_555
O16 Se4 1.721584 1_455
O17 Se5 1.721584 1_555
O18 Se6 1.721584 1_655
O19 Se7 1.721584 1_555
O20 Se8 1.823231 1_555
O20 Se12 1.864487 1_555
O21 Se9 1.823231 1_555
O21 Se13 1.864487 1_555
O22 Se10 1.823231 1_555
O22 Se14 1.864487 1_555
O23 Se11 1.823231 1_555
O23 Se15 1.864487 1_555
O24 Se8 1.714017 1_555
O25 Se9 1.714017 1_555
O26 Se10 1.714017 1_555
O27 Se11 1.714017 1_555
O28 Se8 1.713442 1_555
O29 Se9 1.713442 1_555
O30 Se10 1.713442 1_555
O31 Se11 1.713442 1_555
O32 Se12 1.710279 1_555
O33 Se13 1.710279 1_555
O34 Se14 1.710279 1_555
O35 Se15 1.710279 1_555
O36 Se12 1.698367 1_555
O37 Se13 1.698367 1_555
O38 Se14 1.698367 1_555
O39 Se15 1.698367 1_555
O40 Se20 1.817055 1_555
O40 Se16 1.854205 1_555
O41 Se21 1.817055 1_555
O41 Se17 1.854205 1_555
O42 Se22 1.817055 1_555
O42 Se18 1.854205 1_555
O43 Se23 1.817055 1_555
O43 Se19 1.854205 1_555
O44 Se16 1.712128 1_555
O45 Se17 1.712128 1_555
O46 Se18 1.712128 1_555
O47 Se19 1.712128 1_555
O48 Se16 1.709110 1_555
O49 Se17 1.709110 1_555
O50 Se18 1.709110 1_555
O51 Se19 1.709110 1_555
O52 Se20 1.705482 1_555
O53 Se21 1.705482 1_554
O54 Se22 1.705482 1_555
O55 Se23 1.705482 1_556
O56 Se20 1.719722 1_555
O57 Se21 1.719722 1_555
O58 Se22 1.719722 1_555
O59 Se23 1.719722 1_555
