# generated using pymatgen
data_LiAlSiO4
_symmetry_space_group_name_H-M   'P 1'
_cell_length_a   5.14489200
_cell_length_b   8.18486800
_cell_length_c   8.29718521
_cell_angle_alpha   73.85731008
_cell_angle_beta   90.00000000
_cell_angle_gamma   90.00000000
_symmetry_Int_Tables_number   1
_chemical_formula_structural   LiAlSiO4
_chemical_formula_sum   'Li4 Al4 Si4 O16'
_cell_volume   335.62072437
_cell_formula_units_Z   4
loop_
 _symmetry_equiv_pos_site_id
 _symmetry_equiv_pos_as_xyz
  1  'x, y, z'
loop_
 _atom_site_type_symbol
 _atom_site_label
 _atom_site_symmetry_multiplicity
 _atom_site_fract_x
 _atom_site_fract_y
 _atom_site_fract_z
 _atom_site_occupancy
  Li  Li0  1  0.33026700  0.50234500  0.72331200  1
  Li  Li1  1  0.15591600  0.97289600  0.41818700  1
  Li  Li2  1  0.84408400  0.97289600  0.91818700  1
  Li  Li3  1  0.66973300  0.50234500  0.22331200  1
  Al  Al0  1  0.17890400  0.36695000  0.12607600  1
  Al  Al1  1  0.66990600  0.86694900  0.28332900  1
  Al  Al2  1  0.33009400  0.86694900  0.78332900  1
  Al  Al3  1  0.82109600  0.36695000  0.62607600  1
  Si  Si0  1  0.82780200  0.74063300  0.66253500  1
  Si  Si1  1  0.67471600  0.24626700  0.99959200  1
  Si  Si2  1  0.17219800  0.74063300  0.16253500  1
  Si  Si3  1  0.32528400  0.24626700  0.49959200  1
  O  O0  1  0.37816300  0.32279900  0.97104400  1
  O  O1  1  0.86188000  0.71571700  0.21555100  1
  O  O2  1  0.71046300  0.05444200  0.12360200  1
  O  O3  1  0.84816100  0.38063200  0.07134700  1
  O  O4  1  0.70189700  0.55863200  0.65810100  1
  O  O5  1  0.22117300  0.21762900  0.32219600  1
  O  O6  1  0.33492400  0.81614400  0.29750500  1
  O  O7  1  0.62183700  0.32279900  0.47104400  1
  O  O8  1  0.66507600  0.81614400  0.79750500  1
  O  O9  1  0.80738300  0.87696500  0.47462400  1
  O  O10  1  0.28953700  0.05444200  0.62360200  1
  O  O11  1  0.19261700  0.87696500  0.97462400  1
  O  O12  1  0.29810300  0.55863200  0.15810100  1
  O  O13  1  0.15183900  0.38063200  0.57134700  1
  O  O14  1  0.13812000  0.71571700  0.71555100  1
  O  O15  1  0.77882700  0.21762900  0.82219600  1
loop_
_geom_bond_atom_site_label_1
_geom_bond_atom_site_label_2
_geom_bond_distance
_geom_bond_site_symmetry_2
Li0 O14 1.992205 1_555
Li0 O4 2.005522 1_555
Li0 O13 2.030622 1_555
Li0 O0 2.183038 1_555
Li1 O9 1.961320 1_455
Li1 O5 1.967834 1_565
Li1 O6 2.052141 1_555
Li1 O10 2.110808 1_565
Li2 O11 1.961320 1_655
Li2 O15 1.967834 1_565
Li2 O8 2.052141 1_555
Li2 O2 2.110808 1_566
Li3 O1 1.992205 1_555
Li3 O12 2.005522 1_555
Li3 O3 2.030622 1_555
Li3 O7 2.183038 1_555
Al0 O5 1.755860 1_555
Al0 O3 1.756712 1_455
Al0 O0 1.759169 1_554
Al0 O12 1.771986 1_555
Al1 O2 1.738972 1_565
Al1 O9 1.760281 1_555
Al1 O6 1.769130 1_555
Al1 O1 1.791937 1_555
Al2 O10 1.738972 1_565
Al2 O11 1.760281 1_555
Al2 O8 1.769130 1_555
Al2 O14 1.791937 1_555
Al3 O15 1.755860 1_555
Al3 O13 1.756712 1_655
Al3 O7 1.759169 1_555
Al3 O4 1.771986 1_555
O0 Si1 1.641294 1_555
O1 Si2 1.653537 1_655
O2 Si1 1.630740 1_554
O3 Si1 1.650550 1_554
O4 Si0 1.634167 1_555
O5 Si3 1.643214 1_555
O6 Si2 1.649812 1_555
O7 Si3 1.641294 1_555
O8 Si0 1.649812 1_555
O9 Si0 1.649137 1_555
O10 Si3 1.630740 1_555
O11 Si2 1.649137 1_556
O12 Si2 1.634167 1_555
O13 Si3 1.650550 1_555
O14 Si0 1.653537 1_455
O15 Si1 1.643214 1_555
