# generated using pymatgen
data_MnSbPt
_symmetry_space_group_name_H-M   'P 1'
_cell_length_a   4.38838835
_cell_length_b   4.38838835
_cell_length_c   4.38838835
_cell_angle_alpha   60.00000000
_cell_angle_beta   60.00000000
_cell_angle_gamma   60.00000000
_symmetry_Int_Tables_number   1
_chemical_formula_structural   MnSbPt
_chemical_formula_sum   'Mn1 Sb1 Pt1'
_cell_volume   59.75856529
_cell_formula_units_Z   1
loop_
 _symmetry_equiv_pos_site_id
 _symmetry_equiv_pos_as_xyz
  1  'x, y, z'
loop_
 _atom_site_type_symbol
 _atom_site_label
 _atom_site_symmetry_multiplicity
 _atom_site_fract_x
 _atom_site_fract_y
 _atom_site_fract_z
 _atom_site_occupancy
  Mn  Mn0  1  0.50000000  0.50000000  0.50000000  1
  Sb  Sb0  1  -0.00000000  0.00000000  0.00000000  1
  Pt  Pt0  1  0.25000000  0.25000000  0.25000000  1
loop_
_geom_bond_atom_site_label_1
_geom_bond_atom_site_label_2
_geom_bond_distance
_geom_bond_site_symmetry_2
Mn0 Pt0 2.687328 1_565
Mn0 Pt0 2.687328 1_655
Mn0 Pt0 2.687328 1_555
Mn0 Pt0 2.687328 1_556
Mn0 Sb0 3.103059 1_556
Mn0 Sb0 3.103059 1_565
Mn0 Sb0 3.103059 1_656
Mn0 Sb0 3.103059 1_655
Mn0 Sb0 3.103059 1_665
Mn0 Sb0 3.103059 1_566
Pt0 Sb0 2.687328 1_655
Pt0 Sb0 2.687328 1_565
Pt0 Sb0 2.687328 1_556
Pt0 Sb0 2.687328 1_555
