# generated using pymatgen
data_Na4Al3Ge3ClO12
_symmetry_space_group_name_H-M   'P 1'
_cell_length_a   9.14108500
_cell_length_b   9.14108500
_cell_length_c   9.14108500
_cell_angle_alpha   90.00000000
_cell_angle_beta   90.00000000
_cell_angle_gamma   90.00000000
_symmetry_Int_Tables_number   1
_chemical_formula_structural   Na4Al3Ge3ClO12
_chemical_formula_sum   'Na8 Al6 Ge6 Cl2 O24'
_cell_volume   763.82389768
_cell_formula_units_Z   2
loop_
 _symmetry_equiv_pos_site_id
 _symmetry_equiv_pos_as_xyz
  1  'x, y, z'
loop_
 _atom_site_type_symbol
 _atom_site_label
 _atom_site_symmetry_multiplicity
 _atom_site_fract_x
 _atom_site_fract_y
 _atom_site_fract_z
 _atom_site_occupancy
  Na  Na0  1  0.17283600  0.82716400  0.82716400  1
  Na  Na1  1  0.32716400  0.67283600  0.32716400  1
  Na  Na2  1  0.67283600  0.32716400  0.32716400  1
  Na  Na3  1  0.82716400  0.17283600  0.82716400  1
  Na  Na4  1  0.32716400  0.32716400  0.67283600  1
  Na  Na5  1  0.67283600  0.67283600  0.67283600  1
  Na  Na6  1  0.17283600  0.17283600  0.17283600  1
  Na  Na7  1  0.82716400  0.82716400  0.17283600  1
  Al  Al0  1  0.00000000  0.50000000  0.75000000  1
  Al  Al1  1  0.00000000  0.50000000  0.25000000  1
  Al  Al2  1  0.50000000  0.75000000  0.00000000  1
  Al  Al3  1  0.75000000  0.00000000  0.50000000  1
  Al  Al4  1  0.50000000  0.25000000  0.00000000  1
  Al  Al5  1  0.25000000  0.00000000  0.50000000  1
  Ge  Ge0  1  0.50000000  0.00000000  0.75000000  1
  Ge  Ge1  1  0.50000000  0.00000000  0.25000000  1
  Ge  Ge2  1  0.75000000  0.50000000  0.00000000  1
  Ge  Ge3  1  0.25000000  0.50000000  0.00000000  1
  Ge  Ge4  1  0.00000000  0.25000000  0.50000000  1
  Ge  Ge5  1  0.00000000  0.75000000  0.50000000  1
  Cl  Cl0  1  0.00000000  0.00000000  0.00000000  1
  Cl  Cl1  1  0.50000000  0.50000000  0.50000000  1
  O  O0  1  0.64319900  0.92617400  0.64356500  1
  O  O1  1  0.57382600  0.14319900  0.85643500  1
  O  O2  1  0.14319900  0.85643500  0.57382600  1
  O  O3  1  0.57382600  0.85680100  0.14356500  1
  O  O4  1  0.64356500  0.35680100  0.07382600  1
  O  O5  1  0.64319900  0.07382600  0.35643500  1
  O  O6  1  0.85680100  0.85643500  0.42617400  1
  O  O7  1  0.42617400  0.85680100  0.85643500  1
  O  O8  1  0.64356500  0.64319900  0.92617400  1
  O  O9  1  0.35680100  0.92617400  0.35643500  1
  O  O10  1  0.35643500  0.64319900  0.07382600  1
  O  O11  1  0.85643500  0.57382600  0.14319900  1
  O  O12  1  0.92617400  0.35643500  0.35680100  1
  O  O13  1  0.42617400  0.14319900  0.14356500  1
  O  O14  1  0.85680100  0.14356500  0.57382600  1
  O  O15  1  0.14356500  0.42617400  0.14319900  1
  O  O16  1  0.35680100  0.07382600  0.64356500  1
  O  O17  1  0.07382600  0.35643500  0.64319900  1
  O  O18  1  0.92617400  0.64356500  0.64319900  1
  O  O19  1  0.14356500  0.57382600  0.85680100  1
  O  O20  1  0.14319900  0.14356500  0.42617400  1
  O  O21  1  0.85643500  0.42617400  0.85680100  1
  O  O22  1  0.07382600  0.64356500  0.35680100  1
  O  O23  1  0.35643500  0.35680100  0.92617400  1
loop_
_geom_bond_atom_site_label_1
_geom_bond_atom_site_label_2
_geom_bond_distance
_geom_bond_site_symmetry_2
Na0 O7 2.346880 1_555
Na0 O19 2.346880 1_555
Na0 O2 2.346880 1_555
Na1 O9 2.346880 1_555
Na1 O10 2.346880 1_555
Na1 O22 2.346880 1_555
Na2 O12 2.346880 1_555
Na2 O5 2.346880 1_555
Na2 O4 2.346880 1_555
Na3 O21 2.346880 1_555
Na3 O14 2.346880 1_555
Na3 O1 2.346880 1_555
Na4 O23 2.346880 1_555
Na4 O17 2.346880 1_555
Na4 O16 2.346880 1_555
Na5 O8 2.346880 1_555
Na5 O18 2.346880 1_555
Na5 O0 2.346880 1_555
Na6 O13 2.346880 1_555
Na6 O20 2.346880 1_555
Na6 O15 2.346880 1_555
Na7 O6 2.346880 1_555
Na7 O3 2.346880 1_555
Na7 O11 2.346880 1_555
Al0 O19 1.769400 1_555
Al0 O21 1.769400 1_455
Al0 O18 1.769400 1_455
Al0 O17 1.769400 1_555
Al1 O22 1.769400 1_555
Al1 O11 1.769400 1_455
Al1 O15 1.769400 1_555
Al1 O12 1.769400 1_455
Al2 O3 1.769400 1_555
Al2 O7 1.769400 1_554
Al2 O8 1.769400 1_554
Al2 O10 1.769400 1_555
Al3 O14 1.769400 1_555
Al3 O6 1.769400 1_545
Al3 O0 1.769400 1_545
Al3 O5 1.769400 1_555
Al4 O4 1.769400 1_555
Al4 O13 1.769400 1_555
Al4 O1 1.769400 1_554
Al4 O23 1.769400 1_554
Al5 O16 1.769400 1_555
Al5 O2 1.769400 1_545
Al5 O20 1.769400 1_555
Al5 O9 1.769400 1_545
Ge0 O1 1.765073 1_555
Ge0 O16 1.765073 1_555
Ge0 O7 1.765073 1_545
Ge0 O0 1.765073 1_545
Ge1 O5 1.765073 1_555
Ge1 O13 1.765073 1_555
Ge1 O9 1.765073 1_545
Ge1 O3 1.765073 1_545
Ge2 O11 1.765073 1_555
Ge2 O4 1.765073 1_555
Ge2 O21 1.765073 1_554
Ge2 O8 1.765073 1_554
Ge3 O10 1.765073 1_555
Ge3 O15 1.765073 1_555
Ge3 O23 1.765073 1_554
Ge3 O19 1.765073 1_554
Ge4 O17 1.765073 1_555
Ge4 O20 1.765073 1_555
Ge4 O12 1.765073 1_455
Ge4 O14 1.765073 1_455
Ge5 O2 1.765073 1_555
Ge5 O22 1.765073 1_555
Ge5 O6 1.765073 1_455
Ge5 O18 1.765073 1_455
Cl0 Na3 2.736482 1_454
Cl0 Na7 2.736482 1_445
Cl0 Na0 2.736482 1_544
Cl0 Na6 2.736482 1_555
Cl1 Na4 2.736482 1_555
Cl1 Na5 2.736482 1_555
Cl1 Na2 2.736482 1_555
Cl1 Na1 2.736482 1_555
