# generated using pymatgen
data_Ca5(CoN2)2
_symmetry_space_group_name_H-M   'P 1'
_cell_length_a   8.05251814
_cell_length_b   8.05251814
_cell_length_c   12.05004651
_cell_angle_alpha   90.00000000
_cell_angle_beta   90.00000000
_cell_angle_gamma   90.00000000
_symmetry_Int_Tables_number   1
_chemical_formula_structural   Ca5(CoN2)2
_chemical_formula_sum   'Ca20 Co8 N16'
_cell_volume   781.36174901
_cell_formula_units_Z   4
loop_
 _symmetry_equiv_pos_site_id
 _symmetry_equiv_pos_as_xyz
  1  'x, y, z'
loop_
 _atom_site_type_symbol
 _atom_site_label
 _atom_site_symmetry_multiplicity
 _atom_site_fract_x
 _atom_site_fract_y
 _atom_site_fract_z
 _atom_site_occupancy
  Ca  Ca0  1  0.50000000  -0.00000000  0.64947103  1
  Ca  Ca1  1  0.00000000  0.50000000  0.35052897  1
  Ca  Ca2  1  0.50000000  -0.00000000  0.14947103  1
  Ca  Ca3  1  0.67357246  0.38268321  0.59520206  1
  Ca  Ca4  1  0.11731679  0.82642754  0.09520206  1
  Ca  Ca5  1  0.38268321  0.67357246  0.90479794  1
  Ca  Ca6  1  0.32642754  0.38268321  0.09520206  1
  Ca  Ca7  1  0.82642754  0.88268321  0.90479794  1
  Ca  Ca8  1  0.88268321  0.82642754  0.59520206  1
  Ca  Ca9  1  0.61731679  0.32642754  0.90479794  1
  Ca  Ca10  1  0.32642754  0.61731679  0.59520206  1
  Ca  Ca11  1  0.17357246  0.11731679  0.90479794  1
  Ca  Ca12  1  0.00000000  0.50000000  0.85052897  1
  Ca  Ca13  1  0.82642754  0.11731679  0.40479794  1
  Ca  Ca14  1  0.17357246  0.88268321  0.40479794  1
  Ca  Ca15  1  0.88268321  0.17357246  0.09520206  1
  Ca  Ca16  1  0.67357246  0.61731679  0.09520206  1
  Ca  Ca17  1  0.38268321  0.32642754  0.40479794  1
  Ca  Ca18  1  0.11731679  0.17357246  0.59520206  1
  Ca  Ca19  1  0.61731679  0.67357246  0.40479794  1
  Co  Co0  1  0.65864442  0.34135558  0.25000000  1
  Co  Co1  1  0.84135558  0.15864442  0.75000000  1
  Co  Co2  1  0.15864442  0.15864442  0.25000000  1
  Co  Co3  1  0.65864442  0.65864442  0.75000000  1
  Co  Co4  1  0.34135558  0.65864442  0.25000000  1
  Co  Co5  1  0.34135558  0.34135558  0.75000000  1
  Co  Co6  1  0.15864442  0.84135558  0.75000000  1
  Co  Co7  1  0.84135558  0.84135558  0.25000000  1
  N  N0  1  0.38959262  0.29888560  0.60729463  1
  N  N1  1  0.70111440  0.38959262  0.39270537  1
  N  N2  1  0.70111440  0.61040738  0.89270537  1
  N  N3  1  0.79888560  0.88959262  0.10729463  1
  N  N4  1  0.29888560  0.38959262  0.89270537  1
  N  N5  1  0.20111440  0.11040738  0.10729463  1
  N  N6  1  0.88959262  0.79888560  0.39270537  1
  N  N7  1  0.88959262  0.20111440  0.89270537  1
  N  N8  1  0.38959262  0.70111440  0.10729463  1
  N  N9  1  0.61040738  0.70111440  0.60729463  1
  N  N10  1  0.29888560  0.61040738  0.39270537  1
  N  N11  1  0.11040738  0.79888560  0.89270537  1
  N  N12  1  0.20111440  0.88959262  0.60729463  1
  N  N13  1  0.11040738  0.20111440  0.39270537  1
  N  N14  1  0.79888560  0.11040738  0.60729463  1
  N  N15  1  0.61040738  0.29888560  0.10729463  1
loop_
_geom_bond_atom_site_label_1
_geom_bond_atom_site_label_2
_geom_bond_distance
_geom_bond_site_symmetry_2
Ca0 N0 2.615591 1_555
Ca0 N14 2.615591 1_555
Ca0 N12 2.615591 1_545
Ca0 N9 2.615591 1_545
Ca1 N6 2.615591 1_455
Ca1 N13 2.615591 1_555
Ca1 N10 2.615591 1_555
Ca1 N1 2.615591 1_455
Ca2 N5 2.615591 1_555
Ca2 N3 2.615591 1_545
Ca2 N15 2.615591 1_555
Ca2 N8 2.615591 1_545
Ca3 N0 2.388682 1_555
Ca3 N14 2.417968 1_555
Ca3 N1 2.450784 1_555
Ca3 N9 2.618192 1_555
Ca4 N5 2.388682 1_565
Ca4 N8 2.417968 1_555
Ca4 N11 2.450784 1_554
Ca4 N3 2.618192 1_455
Ca5 N4 2.388682 1_555
Ca5 N11 2.417968 1_555
Ca5 N8 2.450784 1_556
Ca5 N2 2.618192 1_555
Ca6 N15 2.388682 1_555
Ca6 N5 2.417968 1_555
Ca6 N4 2.450784 1_554
Ca6 N8 2.618192 1_555
Ca7 N11 2.388682 1_655
Ca7 N2 2.417968 1_555
Ca7 N3 2.450784 1_556
Ca7 N7 2.618192 1_565
Ca8 N14 2.388682 1_565
Ca8 N9 2.417968 1_555
Ca8 N6 2.450784 1_555
Ca8 N12 2.618192 1_655
Ca9 N2 2.388682 1_555
Ca9 N7 2.417968 1_555
Ca9 N15 2.450784 1_556
Ca9 N4 2.618192 1_555
Ca10 N9 2.388682 1_555
Ca10 N12 2.417968 1_555
Ca10 N10 2.450784 1_555
Ca10 N0 2.618192 1_555
Ca11 N7 2.388682 1_455
Ca11 N4 2.417968 1_555
Ca11 N5 2.450784 1_556
Ca11 N11 2.618192 1_545
Ca12 N4 2.615591 1_555
Ca12 N7 2.615591 1_455
Ca12 N11 2.615591 1_555
Ca12 N2 2.615591 1_455
Ca13 N13 2.388682 1_655
Ca13 N1 2.417968 1_555
Ca13 N14 2.450784 1_555
Ca13 N6 2.618192 1_545
Ca14 N6 2.388682 1_455
Ca14 N10 2.417968 1_555
Ca14 N12 2.450784 1_555
Ca14 N13 2.618192 1_565
Ca15 N3 2.388682 1_545
Ca15 N15 2.417968 1_555
Ca15 N7 2.450784 1_554
Ca15 N5 2.618192 1_655
Ca16 N8 2.388682 1_555
Ca16 N3 2.417968 1_555
Ca16 N2 2.450784 1_554
Ca16 N15 2.618192 1_555
Ca17 N10 2.388682 1_555
Ca17 N13 2.417968 1_555
Ca17 N0 2.450784 1_555
Ca17 N1 2.618192 1_555
Ca18 N12 2.388682 1_545
Ca18 N0 2.417968 1_555
Ca18 N13 2.450784 1_555
Ca18 N14 2.618192 1_455
Ca19 N1 2.388682 1_555
Ca19 N6 2.417968 1_555
Ca19 N9 2.450784 1_555
Ca19 N10 2.618192 1_555
Co0 N1 1.795795 1_555
Co0 N15 1.795795 1_555
Co1 N14 1.795795 1_555
Co1 N7 1.795795 1_555
Co2 N13 1.795795 1_555
Co2 N5 1.795795 1_555
Co3 N9 1.795795 1_555
Co3 N2 1.795795 1_555
Co4 N8 1.795795 1_555
Co4 N10 1.795795 1_555
Co5 N0 1.795795 1_555
Co5 N4 1.795795 1_555
Co6 N12 1.795795 1_555
Co6 N11 1.795795 1_555
Co7 N3 1.795795 1_555
Co7 N6 1.795795 1_555
