# generated using pymatgen
data_Na2Si2O5
_symmetry_space_group_name_H-M   'P 1'
_cell_length_a   5.65116500
_cell_length_b   8.46353400
_cell_length_c   9.53623100
_cell_angle_alpha   90.00000000
_cell_angle_beta   90.00000000
_cell_angle_gamma   90.00000000
_symmetry_Int_Tables_number   1
_chemical_formula_structural   Na2Si2O5
_chemical_formula_sum   'Na8 Si8 O20'
_cell_volume   456.10674385
_cell_formula_units_Z   4
loop_
 _symmetry_equiv_pos_site_id
 _symmetry_equiv_pos_as_xyz
  1  'x, y, z'
loop_
 _atom_site_type_symbol
 _atom_site_label
 _atom_site_symmetry_multiplicity
 _atom_site_fract_x
 _atom_site_fract_y
 _atom_site_fract_z
 _atom_site_occupancy
  Na  Na0  1  0.06234300  0.47830200  0.01098700  1
  Na  Na1  1  0.08695800  0.75317000  0.75440100  1
  Na  Na2  1  0.91304200  0.75317000  0.25440100  1
  Na  Na3  1  0.91304200  0.25317000  0.24559900  1
  Na  Na4  1  0.93765700  0.47830200  0.51098700  1
  Na  Na5  1  0.06234300  0.97830200  0.48901300  1
  Na  Na6  1  0.93765700  0.97830200  0.98901300  1
  Na  Na7  1  0.08695800  0.25317000  0.74559900  1
  Si  Si0  1  0.54927200  0.24890800  0.95271200  1
  Si  Si1  1  0.36987600  0.05676100  0.19173700  1
  Si  Si2  1  0.36987600  0.55676100  0.30826300  1
  Si  Si3  1  0.63012400  0.55676100  0.80826300  1
  Si  Si4  1  0.45072800  0.24890800  0.45271200  1
  Si  Si5  1  0.54927200  0.74890800  0.54728800  1
  Si  Si6  1  0.63012400  0.05676100  0.69173700  1
  Si  Si7  1  0.45072800  0.74890800  0.04728800  1
  O  O0  1  0.89102600  0.00189700  0.73278000  1
  O  O1  1  0.18115400  0.74669300  0.99911600  1
  O  O2  1  0.64225200  0.70877800  0.92042300  1
  O  O3  1  0.81884600  0.24669300  0.00088400  1
  O  O4  1  0.35774800  0.70877800  0.42042300  1
  O  O5  1  0.45790200  0.42115200  0.88544100  1
  O  O6  1  0.10897400  0.00189700  0.23278000  1
  O  O7  1  0.47321700  0.61964000  0.67229000  1
  O  O8  1  0.35774800  0.20877800  0.07957700  1
  O  O9  1  0.52678300  0.11964000  0.32771000  1
  O  O10  1  0.47321700  0.11964000  0.82771000  1
  O  O11  1  0.89102600  0.50189700  0.76722000  1
  O  O12  1  0.10897400  0.50189700  0.26722000  1
  O  O13  1  0.54209800  0.42115200  0.38544100  1
  O  O14  1  0.18115400  0.24669300  0.50088400  1
  O  O15  1  0.52678300  0.61964000  0.17229000  1
  O  O16  1  0.81884600  0.74669300  0.49911600  1
  O  O17  1  0.54209800  0.92115200  0.11455900  1
  O  O18  1  0.64225200  0.20877800  0.57957700  1
  O  O19  1  0.45790200  0.92115200  0.61455900  1
loop_
_geom_bond_atom_site_label_1
_geom_bond_atom_site_label_2
_geom_bond_distance
_geom_bond_site_symmetry_2
Na0 O1 2.371392 1_554
Na0 O3 2.396931 1_455
Na0 O12 2.465765 1_555
Na0 O11 2.526069 1_454
Na0 O5 2.581512 1_554
Na0 O8 2.901414 1_555
Na1 O0 2.387464 1_465
Na1 O1 2.394228 1_555
Na1 O11 2.400751 1_455
Na1 O7 2.579732 1_555
Na1 O19 2.862520 1_555
Na1 O16 2.867970 1_455
Na2 O6 2.387464 1_665
Na2 O16 2.394228 1_555
Na2 O12 2.400751 1_655
Na2 O15 2.579732 1_555
Na2 O17 2.862520 1_555
Na2 O1 2.867970 1_654
Na3 O12 2.387464 1_655
Na3 O3 2.394228 1_555
Na3 O6 2.400751 1_655
Na3 O9 2.579732 1_555
Na3 O13 2.862520 1_555
Na3 O14 2.867970 1_655
Na4 O16 2.371392 1_555
Na4 O14 2.396931 1_655
Na4 O11 2.465765 1_555
Na4 O12 2.526069 1_655
Na4 O13 2.581512 1_555
Na4 O18 2.901414 1_555
Na5 O14 2.371392 1_565
Na5 O16 2.396931 1_455
Na5 O6 2.465765 1_565
Na5 O0 2.526069 1_465
Na5 O19 2.581512 1_555
Na5 O4 2.901414 1_555
Na6 O3 2.371392 1_566
Na6 O1 2.396931 1_655
Na6 O0 2.465765 1_565
Na6 O6 2.526069 1_666
Na6 O17 2.581512 1_556
Na6 O2 2.901414 1_555
Na7 O11 2.387464 1_455
Na7 O14 2.394228 1_555
Na7 O0 2.400751 1_455
Na7 O10 2.579732 1_555
Na7 O5 2.862520 1_555
Na7 O3 2.867970 1_456
O0 Si6 1.594572 1_555
O1 Si7 1.591273 1_556
O2 Si7 1.658449 1_556
O2 Si3 1.674529 1_555
O3 Si0 1.591273 1_554
O4 Si5 1.658449 1_555
O4 Si2 1.674529 1_555
O5 Si0 1.674309 1_555
O5 Si3 1.675169 1_555
O6 Si1 1.594572 1_555
O7 Si3 1.658559 1_555
O7 Si5 1.674121 1_555
O8 Si0 1.658449 1_554
O8 Si1 1.674529 1_555
O9 Si1 1.658559 1_555
O9 Si4 1.674121 1_555
O10 Si6 1.658559 1_555
O10 Si0 1.674121 1_555
O11 Si3 1.594572 1_555
O12 Si2 1.594572 1_555
O13 Si4 1.674309 1_555
O13 Si2 1.675169 1_555
O14 Si4 1.591273 1_555
O15 Si2 1.658559 1_555
O15 Si7 1.674121 1_555
O16 Si5 1.591273 1_555
O17 Si7 1.674309 1_555
O17 Si1 1.675169 1_565
O18 Si4 1.658449 1_555
O18 Si6 1.674529 1_555
O19 Si5 1.674309 1_555
O19 Si6 1.675169 1_565
