# generated using pymatgen
data_ZnS
_symmetry_space_group_name_H-M   'P 1'
_cell_length_a   3.80650106
_cell_length_b   3.80650204
_cell_length_c   56.08026041
_cell_angle_alpha   90.00000000
_cell_angle_beta   90.00000000
_cell_angle_gamma   120.00000031
_symmetry_Int_Tables_number   1
_chemical_formula_structural   ZnS
_chemical_formula_sum   'Zn18 S18'
_cell_volume   703.70830167
_cell_formula_units_Z   18
loop_
 _symmetry_equiv_pos_site_id
 _symmetry_equiv_pos_as_xyz
  1  'x, y, z'
loop_
 _atom_site_type_symbol
 _atom_site_label
 _atom_site_symmetry_multiplicity
 _atom_site_fract_x
 _atom_site_fract_y
 _atom_site_fract_z
 _atom_site_occupancy
  Zn  Zn0  1  0.00000000  -0.00000000  0.16671102  1
  Zn  Zn1  1  0.00000000  0.00000000  0.55555605  1
  Zn  Zn2  1  0.33333300  0.66666700  0.72224112  1
  Zn  Zn3  1  0.66666700  0.33333300  0.27780798  1
  Zn  Zn4  1  -0.00000000  0.00000000  0.66672725  1
  Zn  Zn5  1  0.33333300  0.66666700  0.05560316  1
  Zn  Zn6  1  0.66666700  0.33333300  0.61113716  1
  Zn  Zn7  1  0.66666700  0.33333300  0.11115646  1
  Zn  Zn8  1  0.66666700  0.33333300  0.44447741  1
  Zn  Zn9  1  0.33333300  0.66666700  0.22226349  1
  Zn  Zn10  1  0.66666700  0.33333300  0.77779978  1
  Zn  Zn11  1  0.66666700  0.33333300  0.94448131  1
  Zn  Zn12  1  0.33333300  0.66666700  0.38890759  1
  Zn  Zn13  1  0.00000000  -0.00000000  0.33336357  1
  Zn  Zn14  1  0.33333300  0.66666700  0.83339560  1
  Zn  Zn15  1  -0.00000000  -0.00000000  0.00006668  1
  Zn  Zn16  1  0.33333300  0.66666700  0.50006226  1
  Zn  Zn17  1  0.00000000  0.00000000  0.88890743  1
  S  S0  1  0.66666700  0.33333300  0.98611789  1
  S  S1  1  0.33333300  0.66666700  0.54162208  1
  S  S2  1  0.33333300  0.66666700  0.43047892  1
  S  S3  1  0.00000000  -0.00000000  0.04165013  1
  S  S4  1  0.66666700  0.33333300  0.48611877  1
  S  S5  1  0.66666700  0.33333300  0.65277989  1
  S  S6  1  0.66666700  0.33333300  0.15275473  1
  S  S7  1  0.33333300  0.66666700  0.76380356  1
  S  S8  1  -0.00000000  0.00000000  0.70830527  1
  S  S9  1  0.66666700  0.33333300  0.81943821  1
  S  S10  1  0.00000000  0.00000000  0.37496664  1
  S  S11  1  0.00000000  0.00000000  0.93047043  1
  S  S12  1  -0.00000000  0.00000000  0.59712036  1
  S  S13  1  0.33333300  0.66666700  0.26386087  1
  S  S14  1  0.33333300  0.66666700  0.87496073  1
  S  S15  1  0.33333300  0.66666700  0.09720227  1
  S  S16  1  0.66666700  0.33333300  0.31940797  1
  S  S17  1  -0.00000000  0.00000000  0.20831295  1
loop_
_geom_bond_atom_site_label_1
_geom_bond_atom_site_label_2
_geom_bond_distance
_geom_bond_site_symmetry_2
S0 Zn15 2.332751 1_656
S0 Zn15 2.332754 1_556
S0 Zn15 2.332754 1_666
S0 Zn11 2.334990 1_555
S1 Zn16 2.330686 1_555
S1 Zn1 2.332472 1_565
S1 Zn1 2.332475 1_665
S1 Zn1 2.332476 1_555
S2 Zn12 2.331331 1_555
S2 Zn8 2.333687 1_455
S2 Zn8 2.333687 1_565
S2 Zn8 2.333693 1_555
S3 Zn15 2.332011 1_555
S3 Zn5 2.332831 1_545
S3 Zn5 2.332833 1_445
S3 Zn5 2.332834 1_555
S4 Zn16 2.332651 1_655
S4 Zn16 2.332651 1_545
S4 Zn16 2.332657 1_555
S4 Zn8 2.335258 1_555
S5 Zn4 2.332724 1_655
S5 Zn4 2.332727 1_555
S5 Zn4 2.332727 1_665
S5 Zn6 2.335335 1_555
S6 Zn7 2.332842 1_555
S6 Zn0 2.332892 1_655
S6 Zn0 2.332895 1_555
S6 Zn0 2.332895 1_665
S7 Zn2 2.330832 1_555
S7 Zn10 2.333644 1_455
S7 Zn10 2.333644 1_565
S7 Zn10 2.333650 1_555
S8 Zn4 2.331706 1_555
S8 Zn2 2.332508 1_545
S8 Zn2 2.332510 1_445
S8 Zn2 2.332511 1_555
S9 Zn14 2.332912 1_655
S9 Zn14 2.332913 1_545
S9 Zn14 2.332919 1_555
S9 Zn10 2.335094 1_555
S10 Zn12 2.332603 1_545
S10 Zn12 2.332606 1_445
S10 Zn12 2.332607 1_555
S10 Zn13 2.333111 1_555
S11 Zn17 2.330864 1_555
S11 Zn11 2.333921 1_455
S11 Zn11 2.333924 1_555
S11 Zn11 2.333924 1_445
S12 Zn1 2.330937 1_555
S12 Zn6 2.334033 1_455
S12 Zn6 2.334035 1_555
S12 Zn6 2.334036 1_445
S13 Zn3 2.332719 1_455
S13 Zn3 2.332719 1_565
S13 Zn3 2.332725 1_555
S13 Zn9 2.332792 1_555
S14 Zn14 2.330983 1_555
S14 Zn17 2.332711 1_565
S14 Zn17 2.332714 1_665
S14 Zn17 2.332715 1_555
S15 Zn7 2.332852 1_455
S15 Zn7 2.332853 1_565
S15 Zn7 2.332859 1_555
S15 Zn5 2.332889 1_555
S16 Zn13 2.332879 1_655
S16 Zn13 2.332882 1_555
S16 Zn13 2.332882 1_665
S16 Zn3 2.332938 1_555
S17 Zn9 2.332784 1_545
S17 Zn9 2.332787 1_445
S17 Zn9 2.332787 1_555
S17 Zn0 2.333047 1_555
