# generated using pymatgen
data_Bi(BO2)3
_symmetry_space_group_name_H-M   'P 1'
_cell_length_a   6.70615411
_cell_length_b   4.41383443
_cell_length_c   13.99939899
_cell_angle_alpha   84.61540788
_cell_angle_beta   90.00000000
_cell_angle_gamma   90.00000000
_symmetry_Int_Tables_number   1
_chemical_formula_structural   Bi(BO2)3
_chemical_formula_sum   'Bi4 B12 O24'
_cell_volume   412.55160313
_cell_formula_units_Z   4
loop_
 _symmetry_equiv_pos_site_id
 _symmetry_equiv_pos_as_xyz
  1  'x, y, z'
loop_
 _atom_site_type_symbol
 _atom_site_label
 _atom_site_symmetry_multiplicity
 _atom_site_fract_x
 _atom_site_fract_y
 _atom_site_fract_z
 _atom_site_occupancy
  Bi  Bi0  1  0.80050372  0.22593749  0.42939387  1
  Bi  Bi1  1  0.19949628  0.77406251  0.57060613  1
  Bi  Bi2  1  0.30050372  0.77406251  0.07060613  1
  Bi  Bi3  1  0.69949628  0.22593749  0.92939387  1
  B  B0  1  0.18822402  0.17248197  0.25293690  1
  B  B1  1  0.81177598  0.82751803  0.74706310  1
  B  B2  1  0.91865836  0.12271829  0.13958380  1
  B  B3  1  0.31177598  0.17248197  0.75293690  1
  B  B4  1  0.24126122  0.34355005  0.91333645  1
  B  B5  1  0.68822402  0.82751803  0.24706310  1
  B  B6  1  0.08134164  0.87728171  0.86041620  1
  B  B7  1  0.41865836  0.87728171  0.36041620  1
  B  B8  1  0.58134164  0.12271829  0.63958380  1
  B  B9  1  0.75873878  0.65644995  0.08666355  1
  B  B10  1  0.74126122  0.65644995  0.58666355  1
  B  B11  1  0.25873878  0.34355005  0.41333645  1
  O  O0  1  0.18977386  0.65951050  0.92769965  1
  O  O1  1  0.56261373  0.84129171  0.59347289  1
  O  O2  1  0.38129289  0.23619159  0.65975874  1
  O  O3  1  0.43738627  0.15870829  0.40652711  1
  O  O4  1  0.86417890  0.65721602  0.67468897  1
  O  O5  1  0.81022614  0.34048950  0.07230035  1
  O  O6  1  0.18258820  0.93558890  0.76735500  1
  O  O7  1  0.63052805  0.76355251  0.00403777  1
  O  O8  1  0.93738627  0.84129171  0.09347289  1
  O  O9  1  0.36417890  0.34278398  0.82531103  1
  O  O10  1  0.68977386  0.34048950  0.57230035  1
  O  O11  1  0.88129289  0.76380841  0.84024126  1
  O  O12  1  0.13582110  0.34278398  0.32531103  1
  O  O13  1  0.63582110  0.65721602  0.17468897  1
  O  O14  1  0.68258820  0.06441110  0.73264500  1
  O  O15  1  0.13052805  0.23644749  0.49596223  1
  O  O16  1  0.36947195  0.23644749  0.99596223  1
  O  O17  1  0.86947195  0.76355251  0.50403777  1
  O  O18  1  0.11870711  0.23619159  0.15975874  1
  O  O19  1  0.06261373  0.15870829  0.90652711  1
  O  O20  1  0.31741180  0.93558890  0.26735500  1
  O  O21  1  0.81741180  0.06441110  0.23264500  1
  O  O22  1  0.31022614  0.65951050  0.42769965  1
  O  O23  1  0.61870711  0.76380841  0.34024126  1
loop_
_geom_bond_atom_site_label_1
_geom_bond_atom_site_label_2
_geom_bond_distance
_geom_bond_site_symmetry_2
Bi0 O10 2.235917 1_555
Bi0 O17 2.251855 1_545
Bi0 O15 2.403531 1_655
Bi0 O3 2.477534 1_555
Bi0 O12 2.702719 1_655
Bi0 O17 2.720685 1_555
Bi0 O23 2.771728 1_545
Bi0 O23 2.850293 1_555
Bi0 O21 2.911399 1_555
Bi1 O22 2.235917 1_555
Bi1 O15 2.251855 1_565
Bi1 O17 2.403531 1_455
Bi1 O1 2.477534 1_555
Bi1 O4 2.702719 1_455
Bi1 O15 2.720685 1_555
Bi1 O2 2.771728 1_565
Bi1 O2 2.850293 1_555
Bi1 O6 2.911399 1_555
Bi2 O0 2.235917 1_554
Bi2 O16 2.251855 1_564
Bi2 O7 2.403531 1_555
Bi2 O8 2.477534 1_455
Bi2 O13 2.702719 1_555
Bi2 O16 2.720685 1_554
Bi2 O18 2.771728 1_565
Bi2 O18 2.850293 1_555
Bi2 O20 2.911399 1_555
Bi3 O5 2.235917 1_556
Bi3 O7 2.251855 1_546
Bi3 O16 2.403531 1_555
Bi3 O19 2.477534 1_655
Bi3 O9 2.702719 1_555
Bi3 O7 2.720685 1_556
Bi3 O11 2.771728 1_545
Bi3 O11 2.850293 1_555
Bi3 O14 2.911399 1_555
B0 O20 1.358305 1_545
B0 O12 1.363095 1_555
B0 O18 1.388929 1_555
B1 O14 1.358305 1_565
B1 O4 1.363095 1_555
B1 O11 1.388929 1_555
B2 O8 1.458066 1_545
B2 O18 1.468656 1_655
B2 O21 1.470239 1_555
B2 O5 1.473088 1_555
B3 O6 1.358305 1_545
B3 O9 1.363095 1_555
B3 O2 1.388929 1_555
B4 O19 1.457603 1_555
B4 O0 1.468735 1_555
B4 O16 1.482595 1_555
B4 O9 1.482850 1_555
B5 O21 1.358305 1_565
B5 O13 1.363095 1_555
B5 O23 1.388929 1_555
B6 O19 1.458066 1_565
B6 O11 1.468656 1_455
B6 O6 1.470239 1_555
B6 O0 1.473088 1_555
B7 O3 1.458066 1_565
B7 O23 1.468656 1_555
B7 O20 1.470239 1_555
B7 O22 1.473088 1_555
B8 O1 1.458066 1_545
B8 O2 1.468656 1_555
B8 O14 1.470239 1_555
B8 O10 1.473088 1_555
B9 O8 1.457603 1_555
B9 O5 1.468735 1_555
B9 O7 1.482595 1_555
B9 O13 1.482850 1_555
B10 O1 1.457603 1_555
B10 O10 1.468735 1_555
B10 O17 1.482595 1_555
B10 O4 1.482850 1_555
B11 O3 1.457603 1_555
B11 O22 1.468735 1_555
B11 O15 1.482595 1_555
B11 O12 1.482850 1_555
