# generated using pymatgen
data_Ta2Cd2O7
_symmetry_space_group_name_H-M   'P 1'
_cell_length_a   7.36059947
_cell_length_b   7.36059947
_cell_length_c   7.36059947
_cell_angle_alpha   60.00000000
_cell_angle_beta   60.00000000
_cell_angle_gamma   60.00000000
_symmetry_Int_Tables_number   1
_chemical_formula_structural   Ta2Cd2O7
_chemical_formula_sum   'Ta4 Cd4 O14'
_cell_volume   281.98406094
_cell_formula_units_Z   2
loop_
 _symmetry_equiv_pos_site_id
 _symmetry_equiv_pos_as_xyz
  1  'x, y, z'
loop_
 _atom_site_type_symbol
 _atom_site_label
 _atom_site_symmetry_multiplicity
 _atom_site_fract_x
 _atom_site_fract_y
 _atom_site_fract_z
 _atom_site_occupancy
  Ta  Ta0  1  0.62500000  0.62500000  0.62500000  1
  Ta  Ta1  1  0.12500000  0.62500000  0.62500000  1
  Ta  Ta2  1  0.62500000  0.62500000  0.12500000  1
  Ta  Ta3  1  0.62500000  0.12500000  0.62500000  1
  Cd  Cd0  1  0.12500000  0.12500000  0.12500000  1
  Cd  Cd1  1  0.62500000  0.12500000  0.12500000  1
  Cd  Cd2  1  0.12500000  0.12500000  0.62500000  1
  Cd  Cd3  1  0.12500000  0.62500000  0.12500000  1
  O  O0  1  0.55714662  0.55714662  0.94285338  1
  O  O1  1  0.30714662  0.30714662  0.69285338  1
  O  O2  1  0.94285338  0.55714662  0.94285338  1
  O  O3  1  0.94285338  0.55714662  0.55714662  1
  O  O4  1  0.55714662  0.94285338  0.94285338  1
  O  O5  1  0.55714662  0.94285338  0.55714662  1
  O  O6  1  0.30714662  0.69285338  0.30714662  1
  O  O7  1  0.69285338  0.30714662  0.69285338  1
  O  O8  1  0.25000000  0.25000000  0.25000000  1
  O  O9  1  0.00000000  0.00000000  0.00000000  1
  O  O10  1  0.94285338  0.94285338  0.55714662  1
  O  O11  1  0.69285338  0.30714662  0.30714662  1
  O  O12  1  0.30714662  0.69285338  0.69285338  1
  O  O13  1  0.69285338  0.69285338  0.30714662  1
loop_
_geom_bond_atom_site_label_1
_geom_bond_atom_site_label_2
_geom_bond_distance
_geom_bond_site_symmetry_2
Cd0 O8 2.253714 1_555
Cd0 O9 2.253714 1_555
Cd0 O1 2.642186 1_554
Cd0 O11 2.642186 1_455
Cd0 O6 2.642186 1_545
Cd0 O10 2.642186 1_445
Cd0 O2 2.642186 1_454
Cd0 O4 2.642186 1_544
Cd1 O9 2.253714 1_655
Cd1 O8 2.253714 1_555
Cd1 O4 2.642186 1_544
Cd1 O11 2.642186 1_555
Cd1 O0 2.642186 1_554
Cd1 O7 2.642186 1_554
Cd1 O5 2.642186 1_545
Cd1 O13 2.642186 1_545
Cd2 O8 2.253714 1_555
Cd2 O9 2.253714 1_556
Cd2 O10 2.642186 1_445
Cd2 O1 2.642186 1_555
Cd2 O5 2.642186 1_545
Cd2 O3 2.642186 1_455
Cd2 O7 2.642186 1_455
Cd2 O12 2.642186 1_545
Cd3 O9 2.253714 1_565
Cd3 O8 2.253714 1_555
Cd3 O2 2.642186 1_454
Cd3 O6 2.642186 1_555
Cd3 O12 2.642186 1_554
Cd3 O0 2.642186 1_554
Cd3 O13 2.642186 1_455
Cd3 O3 2.642186 1_455
O0 Ta2 1.971049 1_556
O0 Ta0 1.971049 1_555
O1 Ta1 1.971049 1_555
O1 Ta3 1.971049 1_555
O2 Ta2 1.971049 1_556
O2 Ta1 1.971049 1_655
O3 Ta1 1.971049 1_655
O3 Ta0 1.971049 1_555
O4 Ta3 1.971049 1_565
O4 Ta2 1.971049 1_556
O5 Ta3 1.971049 1_565
O5 Ta0 1.971049 1_555
O6 Ta1 1.971049 1_555
O6 Ta2 1.971049 1_555
O7 Ta3 1.971049 1_555
O7 Ta0 1.971049 1_555
O10 Ta3 1.971049 1_565
O10 Ta1 1.971049 1_655
O11 Ta2 1.971049 1_555
O11 Ta3 1.971049 1_555
O12 Ta1 1.971049 1_555
O12 Ta0 1.971049 1_555
O13 Ta2 1.971049 1_555
O13 Ta0 1.971049 1_555
