# generated using pymatgen
data_GdSeClO3
_symmetry_space_group_name_H-M   'P 1'
_cell_length_a   7.12221900
_cell_length_b   7.37168500
_cell_length_c   8.97909000
_cell_angle_alpha   90.00000000
_cell_angle_beta   90.00000000
_cell_angle_gamma   90.00000000
_symmetry_Int_Tables_number   1
_chemical_formula_structural   GdSeClO3
_chemical_formula_sum   'Gd4 Se4 Cl4 O12'
_cell_volume   471.42696211
_cell_formula_units_Z   4
loop_
 _symmetry_equiv_pos_site_id
 _symmetry_equiv_pos_as_xyz
  1  'x, y, z'
loop_
 _atom_site_type_symbol
 _atom_site_label
 _atom_site_symmetry_multiplicity
 _atom_site_fract_x
 _atom_site_fract_y
 _atom_site_fract_z
 _atom_site_occupancy
  Gd  Gd0  1  0.25000000  0.10819100  0.53973500  1
  Gd  Gd1  1  0.75000000  0.39180900  0.03973500  1
  Gd  Gd2  1  0.75000000  0.89180900  0.46026500  1
  Gd  Gd3  1  0.25000000  0.60819100  0.96026500  1
  Se  Se0  1  0.75000000  0.28931400  0.63193500  1
  Se  Se1  1  0.75000000  0.78931400  0.86806500  1
  Se  Se2  1  0.25000000  0.21068600  0.13193500  1
  Se  Se3  1  0.25000000  0.71068600  0.36806500  1
  Cl  Cl0  1  0.75000000  0.55415900  0.31882900  1
  Cl  Cl1  1  0.25000000  0.94584100  0.81882900  1
  Cl  Cl2  1  0.75000000  0.05415900  0.18117100  1
  Cl  Cl3  1  0.25000000  0.44584100  0.68117100  1
  O  O0  1  0.92605100  0.64286400  0.93259400  1
  O  O1  1  0.92605100  0.14286400  0.56740600  1
  O  O2  1  0.75000000  0.74766400  0.68156400  1
  O  O3  1  0.57394900  0.14286400  0.56740600  1
  O  O4  1  0.75000000  0.24766400  0.81843600  1
  O  O5  1  0.42605100  0.35713600  0.06740600  1
  O  O6  1  0.07394900  0.35713600  0.06740600  1
  O  O7  1  0.07394900  0.85713600  0.43259400  1
  O  O8  1  0.42605100  0.85713600  0.43259400  1
  O  O9  1  0.25000000  0.25233600  0.31843600  1
  O  O10  1  0.25000000  0.75233600  0.18156400  1
  O  O11  1  0.57394900  0.64286400  0.93259400  1
loop_
_geom_bond_atom_site_label_1
_geom_bond_atom_site_label_2
_geom_bond_distance
_geom_bond_site_symmetry_2
Gd0 O9 2.253336 1_555
Gd0 O3 2.334609 1_555
Gd0 O1 2.334609 1_455
Gd0 O7 2.433677 1_545
Gd0 O8 2.433677 1_545
Gd1 O4 2.253336 1_554
Gd1 O5 2.334609 1_555
Gd1 O6 2.334609 1_655
Gd1 O0 2.433677 1_554
Gd1 O11 2.433677 1_554
Gd2 O2 2.253336 1_555
Gd2 O8 2.334609 1_555
Gd2 O7 2.334609 1_655
Gd2 O3 2.433677 1_565
Gd2 O1 2.433677 1_565
Gd3 O10 2.253336 1_556
Gd3 O11 2.334609 1_555
Gd3 O0 2.334609 1_455
Gd3 O6 2.433677 1_556
Gd3 O5 2.433677 1_556
Cl0 Gd1 2.777121 1_555
Cl0 Gd2 2.794312 1_555
Cl1 Gd0 2.777121 1_565
Cl1 Gd3 2.794312 1_555
Cl2 Gd2 2.777121 1_545
Cl2 Gd1 2.794312 1_555
Cl3 Gd3 2.777121 1_555
Cl3 Gd0 2.794312 1_555
O0 Se1 1.753116 1_555
O1 Se0 1.753116 1_555
O2 Se1 1.702523 1_555
O3 Se0 1.753116 1_555
O4 Se0 1.702523 1_555
O5 Se2 1.753116 1_555
O6 Se2 1.753116 1_555
O7 Se3 1.753116 1_555
O8 Se3 1.753116 1_555
O9 Se2 1.702523 1_555
O10 Se3 1.702523 1_555
O11 Se1 1.753116 1_555
