# generated using pymatgen
data_Cs2Al2As2O7
_symmetry_space_group_name_H-M   'P 1'
_cell_length_a   7.34830718
_cell_length_b   7.34830718
_cell_length_c   7.34830718
_cell_angle_alpha   135.52059448
_cell_angle_beta   103.98978116
_cell_angle_gamma   92.56477521
_symmetry_Int_Tables_number   1
_chemical_formula_structural   Cs2Al2As2O7
_chemical_formula_sum   'Cs2 Al2 As2 O7'
_cell_volume   255.62467869
_cell_formula_units_Z   1
loop_
 _symmetry_equiv_pos_site_id
 _symmetry_equiv_pos_as_xyz
  1  'x, y, z'
loop_
 _atom_site_type_symbol
 _atom_site_label
 _atom_site_symmetry_multiplicity
 _atom_site_fract_x
 _atom_site_fract_y
 _atom_site_fract_z
 _atom_site_occupancy
  Cs  Cs0  1  0.34447800  0.00000000  0.34447800  1
  Cs  Cs1  1  0.69892200  0.50000000  0.19892200  1
  Al  Al0  1  0.77560700  0.83798300  0.93762400  1
  Al  Al1  1  0.09964100  0.16201700  0.93762400  1
  As  As0  1  0.31633800  0.70004300  0.61629500  1
  As  As1  1  0.91625200  0.29995700  0.61629500  1
  O  O0  1  0.25317500  0.99745800  0.74370700  1
  O  O1  1  0.00008900  0.00000000  0.00008900  1
  O  O2  1  0.57790100  0.83772400  0.74017700  1
  O  O3  1  0.25317500  0.50946800  0.25571700  1
  O  O4  1  0.74625000  0.00254200  0.25571700  1
  O  O5  1  0.74625000  0.49053200  0.74370700  1
  O  O6  1  0.90245300  0.16227600  0.74017700  1
loop_
_geom_bond_atom_site_label_1
_geom_bond_atom_site_label_2
_geom_bond_distance
_geom_bond_site_symmetry_2
Cs0 O1 3.116435 1_555
Cs0 O3 3.175776 1_545
Cs0 O0 3.175776 1_545
Cs0 O5 3.175781 1_555
Cs0 O4 3.175784 1_555
Cs1 O2 3.254397 1_555
Cs1 O6 3.254397 1_565
Cs1 O6 3.254397 1_554
Cs1 O2 3.254397 1_544
Cs1 O3 3.398196 1_555
Cs1 O0 3.398196 1_544
Cs1 O4 3.398196 1_565
Cs1 O5 3.398198 1_554
Al0 O1 1.739966 1_666
Al0 O2 1.786734 1_555
Al0 O4 1.790567 1_566
Al0 O5 1.790571 1_555
Al1 O1 1.739966 1_556
Al1 O6 1.786734 1_455
Al1 O3 1.790570 1_556
Al1 O0 1.790570 1_545
As0 O2 1.792279 1_555
As0 O0 1.802600 1_555
As0 O3 1.802600 1_555
As1 O6 1.792279 1_555
As1 O5 1.802594 1_555
As1 O4 1.802598 1_555
