# generated using pymatgen
data_Ga23N5O27
_symmetry_space_group_name_H-M   'P 1'
_cell_length_a   5.91806300
_cell_length_b   5.92534622
_cell_length_c   19.61851901
_cell_angle_alpha   81.76149967
_cell_angle_beta   82.17131587
_cell_angle_gamma   60.53365848
_symmetry_Int_Tables_number   1
_chemical_formula_structural   Ga23N5O27
_chemical_formula_sum   'Ga23 N5 O27'
_cell_volume   591.05566383
_cell_formula_units_Z   1
loop_
 _symmetry_equiv_pos_site_id
 _symmetry_equiv_pos_as_xyz
  1  'x, y, z'
loop_
 _atom_site_type_symbol
 _atom_site_label
 _atom_site_symmetry_multiplicity
 _atom_site_fract_x
 _atom_site_fract_y
 _atom_site_fract_z
 _atom_site_occupancy
  Ga  Ga0  1  0.35775200  0.84278200  0.96531300  1
  Ga  Ga1  1  0.00414700  0.46978000  0.99406900  1
  Ga  Ga2  1  0.10546900  0.59837600  0.72486100  1
  Ga  Ga3  1  0.37806300  0.37234400  0.87424200  1
  Ga  Ga4  1  0.63929800  0.12196200  0.62285700  1
  Ga  Ga5  1  0.76447000  0.26407800  0.75612800  1
  Ga  Ga6  1  0.87880700  0.87484300  0.87598400  1
  Ga  Ga7  1  0.84854300  0.34444000  0.47301700  1
  Ga  Ga8  1  0.12154600  0.12929100  0.62429400  1
  Ga  Ga9  1  0.37555200  0.87275700  0.37028900  1
  Ga  Ga10  1  0.39861400  0.90294200  0.78183000  1
  Ga  Ga11  1  0.50992100  0.99557300  0.50146800  1
  Ga  Ga12  1  0.59969700  0.09516400  0.21685700  1
  Ga  Ga13  1  0.63706300  0.62088000  0.62183000  1
  Ga  Ga14  1  0.88210500  0.87906600  0.37306400  1
  Ga  Ga15  1  0.12502700  0.62052700  0.11974400  1
  Ga  Ga16  1  0.13425500  0.66353100  0.53448000  1
  Ga  Ga17  1  0.38064200  0.38036900  0.37353600  1
  Ga  Ga18  1  0.25387600  0.75446800  0.25294600  1
  Ga  Ga19  1  0.62698600  0.62439100  0.12305700  1
  Ga  Ga20  1  0.89209900  0.39546500  0.28545300  1
  Ga  Ga21  1  0.12663100  0.13104500  0.12201600  1
  Ga  Ga22  1  0.62564200  0.16103400  0.02722800  1
  N  N0  1  0.81453800  0.31022900  0.57043300  1
  N  N1  1  0.77939000  0.82847800  0.56595200  1
  N  N2  1  0.07007500  0.03665300  0.31485500  1
  N  N3  1  0.53507100  0.57029800  0.31522100  1
  N  N4  1  0.26912100  0.33057700  0.06372200  1
  O  O0  1  0.71275800  0.69191500  0.94174600  1
  O  O1  1  0.20078400  0.19227800  0.93622500  1
  O  O2  1  0.07071600  0.56967800  0.81964200  1
  O  O3  1  0.18540100  0.67719700  0.93616500  1
  O  O4  1  0.57256300  0.06935000  0.81284800  1
  O  O5  1  0.46402200  0.42849500  0.68587800  1
  O  O6  1  0.93228400  0.95935100  0.68838400  1
  O  O7  1  0.67990800  0.17812900  0.93195700  1
  O  O8  1  0.55154800  0.54957800  0.81044500  1
  O  O9  1  0.04813700  0.05251700  0.81190000  1
  O  O10  1  0.93797600  0.43219000  0.68966100  1
  O  O11  1  0.31531700  0.82338000  0.56331500  1
  O  O12  1  0.22044800  0.17662400  0.43519500  1
  O  O13  1  0.68210800  0.71192600  0.43330500  1
  O  O14  1  0.43220300  0.94618700  0.68120500  1
  O  O15  1  0.31634300  0.29821900  0.56428000  1
  O  O16  1  0.56250500  0.06115600  0.31559000  1
  O  O17  1  0.68035100  0.17962200  0.43605300  1
  O  O18  1  0.06542800  0.56557500  0.31468900  1
  O  O19  1  0.96394000  0.92533100  0.18315000  1
  O  O20  1  0.30962500  0.80921400  0.06882500  1
  O  O21  1  0.18631300  0.68388300  0.43515500  1
  O  O22  1  0.42759200  0.45932900  0.18479200  1
  O  O23  1  0.43206000  0.92902600  0.18441500  1
  O  O24  1  0.80472900  0.31895000  0.06486900  1
  O  O25  1  0.80582200  0.80340600  0.06795600  1
  O  O26  1  0.92971900  0.44115400  0.18260700  1
loop_
_geom_bond_atom_site_label_1
_geom_bond_atom_site_label_2
_geom_bond_distance
_geom_bond_site_symmetry_2
Ga0 O1 1.841269 1_565
Ga0 O0 1.852826 1_555
Ga0 O3 1.906378 1_555
Ga0 O20 2.006750 1_556
Ga1 O0 1.903121 1_455
Ga1 O1 1.907407 1_555
Ga1 N4 1.998723 1_556
Ga1 O24 2.087146 1_456
Ga1 O3 2.125209 1_555
Ga1 O25 2.337041 1_456
Ga2 O2 1.835327 1_555
Ga2 O6 1.934395 1_455
Ga2 O10 1.941839 1_455
Ga2 O5 1.943684 1_555
Ga3 O2 1.975459 1_555
Ga3 O7 1.988095 1_555
Ga3 O8 2.014320 1_555
Ga3 O1 2.024771 1_555
Ga3 O4 2.051301 1_555
Ga3 O3 2.064963 1_555
Ga4 N1 1.960509 1_545
Ga4 N0 1.973975 1_555
Ga4 O6 2.048427 1_545
Ga4 O5 2.084282 1_555
Ga4 O15 2.086843 1_555
Ga4 O14 2.104565 1_545
Ga5 O9 1.903621 1_655
Ga5 O8 1.907565 1_555
Ga5 O10 2.004062 1_555
Ga5 O4 2.106277 1_555
Ga5 O6 2.139355 1_545
Ga5 O5 2.142114 1_555
Ga6 O7 1.988260 1_565
Ga6 O2 1.997920 1_655
Ga6 O9 2.002144 1_665
Ga6 O0 2.026525 1_555
Ga6 O3 2.038250 1_655
Ga6 O4 2.072350 1_565
Ga7 N0 1.886384 1_555
Ga7 O17 1.956110 1_555
Ga7 O13 1.982771 1_555
Ga7 O12 1.999238 1_655
Ga8 N0 1.961893 1_455
Ga8 O14 2.013302 1_545
Ga8 O15 2.035902 1_555
Ga8 O6 2.052446 1_445
Ga8 O11 2.057803 1_545
Ga8 O10 2.099484 1_455
Ga9 N3 1.970479 1_555
Ga9 N2 1.974782 1_565
Ga9 O16 2.042118 1_565
Ga9 O13 2.073733 1_555
Ga9 O12 2.102030 1_565
Ga9 O21 2.136081 1_555
Ga10 O9 1.855681 1_565
Ga10 O8 1.858894 1_555
Ga10 O4 1.934826 1_565
Ga10 O14 1.949496 1_555
Ga11 N1 1.939365 1_555
Ga11 O12 2.043300 1_565
Ga11 O17 2.045000 1_565
Ga11 O13 2.058969 1_555
Ga11 O11 2.064019 1_555
Ga11 O15 2.067450 1_565
Ga12 O16 1.912232 1_555
Ga12 O23 1.915941 1_545
Ga12 O22 1.926796 1_555
Ga12 O19 1.940329 1_545
Ga13 N1 1.950816 1_555
Ga13 N0 1.962009 1_555
Ga13 O5 2.077139 1_555
Ga13 O11 2.082352 1_555
Ga13 O10 2.110118 1_555
Ga13 O14 2.121753 1_555
Ga14 N2 1.945184 1_665
Ga14 O21 2.051294 1_655
Ga14 O13 2.053090 1_555
Ga14 O18 2.056104 1_655
Ga14 O16 2.058533 1_565
Ga14 O17 2.064235 1_565
Ga15 N4 1.931657 1_555
Ga15 O25 1.992113 1_455
Ga15 O20 2.006406 1_555
Ga15 O22 2.082704 1_555
Ga15 O19 2.084456 1_455
Ga15 O26 2.105047 1_455
Ga16 N1 1.883419 1_455
Ga16 O11 1.918987 1_555
Ga16 O15 1.924219 1_555
Ga16 O21 1.926707 1_555
Ga17 N3 1.941310 1_555
Ga17 O17 2.040596 1_555
Ga17 O12 2.052949 1_555
Ga17 O18 2.055880 1_555
Ga17 O21 2.056167 1_555
Ga17 O16 2.075672 1_555
Ga18 N3 1.959080 1_555
Ga18 N2 1.971507 1_565
Ga18 O23 2.068258 1_555
Ga18 O19 2.092326 1_455
Ga18 O22 2.104723 1_555
Ga18 O18 2.106007 1_555
Ga19 O25 1.969267 1_555
Ga19 O20 2.011390 1_555
Ga19 O26 2.011583 1_555
Ga19 O24 2.019205 1_555
Ga19 O22 2.054886 1_555
Ga19 O23 2.057633 1_555
Ga20 N3 1.887438 1_555
Ga20 N2 1.890309 1_655
Ga20 O18 1.933999 1_655
Ga20 O26 1.993563 1_555
Ga21 N4 1.935839 1_555
Ga21 O20 2.031977 1_545
Ga21 O23 2.062250 1_545
Ga21 O24 2.064733 1_455
Ga21 O19 2.066959 1_445
Ga21 O26 2.071083 1_455
Ga22 O7 1.849612 1_554
Ga22 N4 1.919069 1_555
Ga22 O25 1.946725 1_545
Ga22 O24 1.982689 1_555
