# generated using pymatgen
data_CdI2
_symmetry_space_group_name_H-M   'P 1'
_cell_length_a   4.28657581
_cell_length_b   4.28657581
_cell_length_c   57.27445966
_cell_angle_alpha   90.00000000
_cell_angle_beta   90.00000000
_cell_angle_gamma   119.99999094
_symmetry_Int_Tables_number   1
_chemical_formula_structural   CdI2
_chemical_formula_sum   'Cd8 I16'
_cell_volume   911.40769345
_cell_formula_units_Z   8
loop_
 _symmetry_equiv_pos_site_id
 _symmetry_equiv_pos_as_xyz
  1  'x, y, z'
loop_
 _atom_site_type_symbol
 _atom_site_label
 _atom_site_symmetry_multiplicity
 _atom_site_fract_x
 _atom_site_fract_y
 _atom_site_fract_z
 _atom_site_occupancy
  Cd  Cd0  1  0.00000000  -0.00000000  0.90611343  1
  Cd  Cd1  1  -0.00000000  0.00000000  0.78121837  1
  Cd  Cd2  1  0.33333300  0.66666700  0.40619297  1
  Cd  Cd3  1  0.00000000  -0.00000000  0.65626833  1
  Cd  Cd4  1  0.00000000  -0.00000000  0.03116740  1
  Cd  Cd5  1  0.33333300  0.66666700  0.15627616  1
  Cd  Cd6  1  0.00000000  -0.00000000  0.28165222  1
  Cd  Cd7  1  0.33333300  0.66666700  0.53116661  1
  I  I0  1  0.66666700  0.33333300  0.81127339  1
  I  I1  1  0.33333300  0.66666700  0.87609085  1
  I  I2  1  0.66666700  0.33333300  0.56114869  1
  I  I3  1  0.33333300  0.66666700  0.25163346  1
  I  I4  1  0.66666700  0.33333300  0.06115220  1
  I  I5  1  0.00000000  -0.00000000  0.12620657  1
  I  I6  1  0.66666700  0.33333300  0.43622834  1
  I  I7  1  0.66666700  0.33333300  0.18631932  1
  I  I8  1  0.00000000  -0.00000000  0.50114460  1
  I  I9  1  0.33333300  0.66666700  0.00114704  1
  I  I10  1  0.66666700  0.33333300  0.31164470  1
  I  I11  1  0.66666700  0.33333300  0.93618798  1
  I  I12  1  0.33333300  0.66666700  0.75108486  1
  I  I13  1  0.00000000  -0.00000000  0.37617520  1
  I  I14  1  0.66666700  0.33333300  0.68630214  1
  I  I15  1  0.33333300  0.66666700  0.62620615  1
loop_
_geom_bond_atom_site_label_1
_geom_bond_atom_site_label_2
_geom_bond_distance
_geom_bond_site_symmetry_2
Cd0 I1 3.013581 1_545
Cd0 I1 3.013584 1_555
Cd0 I1 3.013584 1_445
Cd0 I11 3.015281 1_455
Cd0 I11 3.015284 1_445
Cd0 I11 3.015284 1_555
Cd1 I0 3.014642 1_455
Cd1 I0 3.014645 1_555
Cd1 I0 3.014645 1_445
Cd1 I12 3.017211 1_545
Cd1 I12 3.017214 1_445
Cd1 I12 3.017214 1_555
Cd2 I13 3.013424 1_565
Cd2 I13 3.013427 1_665
Cd2 I13 3.013427 1_555
Cd2 I6 3.013999 1_455
Cd2 I6 3.013999 1_565
Cd2 I6 3.014005 1_555
Cd3 I14 3.013948 1_455
Cd3 I14 3.013951 1_555
Cd3 I14 3.013951 1_445
Cd3 I15 3.014876 1_545
Cd3 I15 3.014879 1_445
Cd3 I15 3.014879 1_555
Cd4 I4 3.012347 1_455
Cd4 I4 3.012350 1_555
Cd4 I4 3.012350 1_445
Cd4 I9 3.013509 1_545
Cd4 I9 3.013512 1_445
Cd4 I9 3.013512 1_555
Cd5 I7 3.014254 1_455
Cd5 I7 3.014254 1_565
Cd5 I7 3.014260 1_555
Cd5 I5 3.015118 1_565
Cd5 I5 3.015122 1_665
Cd5 I5 3.015122 1_555
Cd6 I10 3.012598 1_455
Cd6 I10 3.012601 1_555
Cd6 I10 3.012601 1_445
Cd6 I3 3.013456 1_545
Cd6 I3 3.013460 1_445
Cd6 I3 3.013460 1_555
Cd7 I2 3.012258 1_455
Cd7 I2 3.012258 1_565
Cd7 I2 3.012264 1_555
Cd7 I8 3.013562 1_565
Cd7 I8 3.013566 1_665
Cd7 I8 3.013566 1_555
