# generated using pymatgen
data_Li14Cr2N8O
_symmetry_space_group_name_H-M   'P 1'
_cell_length_a   5.81298416
_cell_length_b   5.81298416
_cell_length_c   8.22629000
_cell_angle_alpha   90.00000000
_cell_angle_beta   90.00000000
_cell_angle_gamma   120.00000182
_symmetry_Int_Tables_number   1
_chemical_formula_structural   Li14Cr2N8O
_chemical_formula_sum   'Li14 Cr2 N8 O1'
_cell_volume   240.73149798
_cell_formula_units_Z   1
loop_
 _symmetry_equiv_pos_site_id
 _symmetry_equiv_pos_as_xyz
  1  'x, y, z'
loop_
 _atom_site_type_symbol
 _atom_site_label
 _atom_site_symmetry_multiplicity
 _atom_site_fract_x
 _atom_site_fract_y
 _atom_site_fract_z
 _atom_site_occupancy
  Li  Li0  1  0.92796100  0.30366900  0.09027100  1
  Li  Li1  1  0.69633100  0.62429200  0.09027100  1
  Li  Li2  1  0.37570800  0.07203900  0.09027100  1
  Li  Li3  1  0.07203900  0.69633100  0.90972900  1
  Li  Li4  1  0.30366900  0.37570800  0.90972900  1
  Li  Li5  1  0.62429200  0.92796100  0.90972900  1
  Li  Li6  1  0.35233700  0.31260300  0.41388500  1
  Li  Li7  1  0.68739700  0.03973400  0.41388500  1
  Li  Li8  1  0.96026600  0.64766300  0.41388500  1
  Li  Li9  1  0.64766300  0.68739700  0.58611500  1
  Li  Li10  1  0.31260300  0.96026600  0.58611500  1
  Li  Li11  1  0.03973400  0.35233700  0.58611500  1
  Li  Li12  1  0.00000000  0.00000000  0.25676000  1
  Li  Li13  1  0.00000000  0.00000000  0.74324000  1
  Cr  Cr0  1  0.66666700  0.33333300  0.76087600  1
  Cr  Cr1  1  0.33333300  0.66666700  0.23912400  1
  N  N0  1  0.93883500  0.30680700  0.83134500  1
  N  N1  1  0.66666700  0.33333300  0.54783000  1
  N  N2  1  0.06116500  0.69319300  0.16865500  1
  N  N3  1  0.30680700  0.36797200  0.16865500  1
  N  N4  1  0.63202800  0.93883500  0.16865500  1
  N  N5  1  0.36797200  0.06116500  0.83134500  1
  N  N6  1  0.69319300  0.63202800  0.83134500  1
  N  N7  1  0.33333300  0.66666700  0.45217000  1
  O  O0  1  0.00000000  0.00000000  0.50000000  1
loop_
_geom_bond_atom_site_label_1
_geom_bond_atom_site_label_2
_geom_bond_distance
_geom_bond_site_symmetry_2
Li0 N4 2.055351 1_545
Li0 N2 2.095019 1_655
Li0 N0 2.130746 1_554
Li0 N3 2.140589 1_655
Li1 N2 2.055351 1_655
Li1 N3 2.095019 1_555
Li1 N6 2.130746 1_554
Li1 N4 2.140590 1_555
Li2 N3 2.055351 1_555
Li2 N4 2.095019 1_545
Li2 N5 2.130746 1_554
Li2 N2 2.140589 1_545
Li3 N5 2.055351 1_565
Li3 N0 2.095019 1_455
Li3 N2 2.130746 1_556
Li3 N6 2.140589 1_455
Li4 N0 2.055351 1_455
Li4 N6 2.095019 1_555
Li4 N3 2.130746 1_556
Li4 N5 2.140590 1_555
Li5 N6 2.055351 1_555
Li5 N5 2.095019 1_565
Li5 N4 2.130746 1_556
Li5 N0 2.140589 1_565
Li6 O0 2.068081 1_555
Li6 N3 2.080495 1_555
Li6 N1 2.084970 1_555
Li6 N7 2.138882 1_555
Li7 O0 2.068081 1_655
Li7 N4 2.080495 1_545
Li7 N1 2.084965 1_555
Li7 N7 2.138879 1_545
Li8 O0 2.068081 1_665
Li8 N2 2.080495 1_655
Li8 N1 2.084968 1_555
Li8 N7 2.138876 1_655
Li9 O0 2.068081 1_665
Li9 N6 2.080495 1_555
Li9 N7 2.084970 1_555
Li9 N1 2.138882 1_555
Li10 O0 2.068081 1_565
Li10 N5 2.080495 1_565
Li10 N7 2.084965 1_555
Li10 N1 2.138879 1_565
Li11 O0 2.068081 1_555
Li11 N0 2.080495 1_455
Li11 N7 2.084968 1_555
Li11 N1 2.138876 1_455
Li12 O0 2.000963 1_555
Li12 N3 2.113428 1_555
Li12 N4 2.113428 1_445
Li12 N2 2.113428 1_545
Li13 O0 2.000963 1_555
Li13 N6 2.113428 1_445
Li13 N5 2.113428 1_555
Li13 N0 2.113428 1_455
Cr0 N1 1.752578 1_555
Cr0 N0 1.762625 1_555
Cr0 N5 1.762628 1_555
Cr0 N6 1.762630 1_555
Cr1 N7 1.752578 1_555
Cr1 N2 1.762625 1_555
Cr1 N4 1.762628 1_555
Cr1 N3 1.762630 1_555
