# generated using pymatgen
data_Cs2K2TeO5
_symmetry_space_group_name_H-M   'P 1'
_cell_length_a   9.36162300
_cell_length_b   9.36162300
_cell_length_c   9.71189800
_cell_angle_alpha   90.00000000
_cell_angle_beta   90.00000000
_cell_angle_gamma   90.00000000
_symmetry_Int_Tables_number   1
_chemical_formula_structural   Cs2K2TeO5
_chemical_formula_sum   'Cs8 K8 Te4 O20'
_cell_volume   851.15059693
_cell_formula_units_Z   4
loop_
 _symmetry_equiv_pos_site_id
 _symmetry_equiv_pos_as_xyz
  1  'x, y, z'
loop_
 _atom_site_type_symbol
 _atom_site_label
 _atom_site_symmetry_multiplicity
 _atom_site_fract_x
 _atom_site_fract_y
 _atom_site_fract_z
 _atom_site_occupancy
  Cs  Cs0  1  0.66534200  0.66534200  0.50000000  1
  Cs  Cs1  1  0.33465800  0.33465800  0.50000000  1
  Cs  Cs2  1  0.83465800  0.16534200  0.00000000  1
  Cs  Cs3  1  0.50000000  0.00000000  0.75000000  1
  Cs  Cs4  1  0.16534200  0.83465800  0.00000000  1
  Cs  Cs5  1  0.00000000  0.50000000  0.25000000  1
  Cs  Cs6  1  0.00000000  0.50000000  0.75000000  1
  Cs  Cs7  1  0.50000000  0.00000000  0.25000000  1
  K  K0  1  0.12373900  0.12373900  0.71534700  1
  K  K1  1  0.87626100  0.87626100  0.28465300  1
  K  K2  1  0.62373900  0.37626100  0.78465300  1
  K  K3  1  0.37626100  0.62373900  0.21534700  1
  K  K4  1  0.37626100  0.62373900  0.78465300  1
  K  K5  1  0.62373900  0.37626100  0.21534700  1
  K  K6  1  0.12373900  0.12373900  0.28465300  1
  K  K7  1  0.87626100  0.87626100  0.71534700  1
  Te  Te0  1  0.19239800  0.80760200  0.50000000  1
  Te  Te1  1  0.69239800  0.69239800  0.00000000  1
  Te  Te2  1  0.30760200  0.30760200  0.00000000  1
  Te  Te3  1  0.80760200  0.19239800  0.50000000  1
  O  O0  1  0.50165400  0.76862000  0.00000000  1
  O  O1  1  0.23138000  0.49834600  0.00000000  1
  O  O2  1  0.73138000  0.00165400  0.50000000  1
  O  O3  1  0.18033500  0.81966500  0.70112800  1
  O  O4  1  0.31966500  0.31966500  0.20112800  1
  O  O5  1  0.49834600  0.23138000  0.00000000  1
  O  O6  1  0.31966500  0.31966500  0.79887200  1
  O  O7  1  0.16375000  0.16375000  0.00000000  1
  O  O8  1  0.26862000  0.99834600  0.50000000  1
  O  O9  1  0.81966500  0.18033500  0.70112800  1
  O  O10  1  0.76862000  0.50165400  0.00000000  1
  O  O11  1  0.68033500  0.68033500  0.79887200  1
  O  O12  1  0.66375000  0.33625000  0.50000000  1
  O  O13  1  0.00165400  0.73138000  0.50000000  1
  O  O14  1  0.33625000  0.66375000  0.50000000  1
  O  O15  1  0.18033500  0.81966500  0.29887200  1
  O  O16  1  0.68033500  0.68033500  0.20112800  1
  O  O17  1  0.99834600  0.26862000  0.50000000  1
  O  O18  1  0.81966500  0.18033500  0.29887200  1
  O  O19  1  0.83625000  0.83625000  0.00000000  1
loop_
_geom_bond_atom_site_label_1
_geom_bond_atom_site_label_2
_geom_bond_distance
_geom_bond_site_symmetry_2
Cs0 O11 2.909394 1_555
Cs0 O16 2.909394 1_555
Cs0 O14 3.080871 1_555
Cs0 O12 3.080871 1_555
Cs0 O13 3.208549 1_655
Cs0 O2 3.208549 1_565
Cs1 O6 2.909394 1_555
Cs1 O4 2.909394 1_555
Cs1 O14 3.080871 1_555
Cs1 O12 3.080871 1_555
Cs1 O17 3.208549 1_455
Cs1 O8 3.208549 1_545
Cs2 O18 2.909394 1_555
Cs2 O9 2.909394 1_554
Cs2 O19 3.080871 1_545
Cs2 O7 3.080871 1_655
Cs2 O10 3.208549 1_555
Cs2 O5 3.208549 1_555
Cs3 O0 3.253806 1_546
Cs3 O2 3.253806 1_555
Cs3 O8 3.253806 1_545
Cs3 O5 3.253806 1_556
Cs3 O11 3.468566 1_545
Cs3 O6 3.468566 1_555
Cs3 O3 3.468566 1_545
Cs3 O9 3.468566 1_555
Cs4 O15 2.909394 1_555
Cs4 O3 2.909394 1_554
Cs4 O19 3.080871 1_455
Cs4 O7 3.080871 1_565
Cs4 O0 3.208549 1_555
Cs4 O1 3.208549 1_555
Cs5 O10 3.253806 1_455
Cs5 O17 3.253806 1_455
Cs5 O13 3.253806 1_555
Cs5 O1 3.253806 1_555
Cs5 O18 3.468566 1_455
Cs5 O15 3.468566 1_555
Cs5 O16 3.468566 1_455
Cs5 O4 3.468566 1_555
Cs6 O10 3.253806 1_456
Cs6 O17 3.253806 1_455
Cs6 O13 3.253806 1_555
Cs6 O1 3.253806 1_556
Cs6 O6 3.468566 1_555
Cs6 O11 3.468566 1_455
Cs6 O9 3.468566 1_455
Cs6 O3 3.468566 1_555
Cs7 O0 3.253806 1_545
Cs7 O2 3.253806 1_555
Cs7 O8 3.253806 1_545
Cs7 O5 3.253806 1_555
Cs7 O18 3.468566 1_555
Cs7 O15 3.468566 1_545
Cs7 O16 3.468566 1_545
Cs7 O4 3.468566 1_555
K0 O6 2.717811 1_555
K0 O17 2.755300 1_455
K0 O8 2.755300 1_545
K0 O7 2.814814 1_556
K0 O3 2.898805 1_545
K0 O9 2.898805 1_455
K1 O16 2.717811 1_555
K1 O2 2.755300 1_565
K1 O13 2.755300 1_655
K1 O19 2.814814 1_555
K1 O15 2.898805 1_655
K1 O18 2.898805 1_565
K2 O9 2.717811 1_555
K2 O5 2.755300 1_556
K2 O10 2.755300 1_556
K2 O12 2.814814 1_555
K2 O6 2.898805 1_555
K2 O11 2.898805 1_555
K3 O15 2.717811 1_555
K3 O1 2.755300 1_555
K3 O0 2.755300 1_555
K3 O14 2.814814 1_555
K3 O4 2.898805 1_555
K3 O16 2.898805 1_555
K4 O3 2.717811 1_555
K4 O1 2.755300 1_556
K4 O0 2.755300 1_556
K4 O14 2.814814 1_555
K4 O6 2.898805 1_555
K4 O11 2.898805 1_555
K5 O18 2.717811 1_555
K5 O5 2.755300 1_555
K5 O10 2.755300 1_555
K5 O12 2.814814 1_555
K5 O4 2.898805 1_555
K5 O16 2.898805 1_555
K6 O4 2.717811 1_555
K6 O8 2.755300 1_545
K6 O17 2.755300 1_455
K6 O7 2.814814 1_555
K6 O18 2.898805 1_455
K6 O15 2.898805 1_545
K7 O11 2.717811 1_555
K7 O13 2.755300 1_655
K7 O2 2.755300 1_565
K7 O19 2.814814 1_556
K7 O9 2.898805 1_565
K7 O3 2.898805 1_655
O0 Te1 1.922966 1_555
O1 Te2 1.922966 1_555
O2 Te3 1.922966 1_555
O3 Te0 1.959853 1_555
O4 Te2 1.959853 1_555
O5 Te2 1.922966 1_555
O6 Te2 1.959853 1_556
O7 Te2 1.904505 1_555
O8 Te0 1.922966 1_555
O9 Te3 1.959853 1_555
O10 Te1 1.922966 1_555
O11 Te1 1.959853 1_556
O12 Te3 1.904505 1_555
O13 Te0 1.922966 1_555
O14 Te0 1.904505 1_555
O15 Te0 1.959853 1_555
O16 Te1 1.959853 1_555
O17 Te3 1.922966 1_555
O18 Te3 1.959853 1_555
O19 Te1 1.904505 1_555
