# generated using pymatgen
data_BaGd2PdO5
_symmetry_space_group_name_H-M   'P 1'
_cell_length_a   6.61745461
_cell_length_b   6.61745461
_cell_length_c   5.89333299
_cell_angle_alpha   90.00000000
_cell_angle_beta   90.00000000
_cell_angle_gamma   90.00000000
_symmetry_Int_Tables_number   1
_chemical_formula_structural   BaGd2PdO5
_chemical_formula_sum   'Ba2 Gd4 Pd2 O10'
_cell_volume   258.07320947
_cell_formula_units_Z   2
loop_
 _symmetry_equiv_pos_site_id
 _symmetry_equiv_pos_as_xyz
  1  'x, y, z'
loop_
 _atom_site_type_symbol
 _atom_site_label
 _atom_site_symmetry_multiplicity
 _atom_site_fract_x
 _atom_site_fract_y
 _atom_site_fract_z
 _atom_site_occupancy
  Ba  Ba0  1  -0.00000000  0.00000000  -0.00000000  1
  Ba  Ba1  1  0.50000000  0.50000000  0.00000000  1
  Gd  Gd0  1  0.17337585  0.32662415  0.50000000  1
  Gd  Gd1  1  0.82662415  0.67337585  0.50000000  1
  Gd  Gd2  1  0.32662415  0.82662415  0.50000000  1
  Gd  Gd3  1  0.67337585  0.17337585  0.50000000  1
  Pd  Pd0  1  -0.00000000  0.50000000  0.00000000  1
  Pd  Pd1  1  0.50000000  0.00000000  -0.00000000  1
  O  O0  1  0.85885122  0.35885122  0.25509726  1
  O  O1  1  0.35885122  0.14114878  0.25509726  1
  O  O2  1  0.35885122  0.14114878  0.74490274  1
  O  O3  1  0.64114878  0.85885122  0.74490274  1
  O  O4  1  0.85885122  0.35885122  0.74490274  1
  O  O5  1  0.14114878  0.64114878  0.25509726  1
  O  O6  1  0.50000000  0.50000000  0.50000000  1
  O  O7  1  0.14114878  0.64114878  0.74490274  1
  O  O8  1  0.00000000  0.00000000  0.50000000  1
  O  O9  1  0.64114878  0.85885122  0.25509726  1
loop_
_geom_bond_atom_site_label_1
_geom_bond_atom_site_label_2
_geom_bond_distance
_geom_bond_site_symmetry_2
Ba0 O8 2.946666 1_555
Ba0 O8 2.946666 1_554
Ba0 O4 2.961703 1_454
Ba0 O7 2.961703 1_544
Ba0 O0 2.961703 1_455
Ba0 O3 2.961703 1_444
Ba0 O5 2.961703 1_545
Ba0 O9 2.961703 1_445
Ba0 O1 2.961703 1_555
Ba0 O2 2.961703 1_554
Ba1 O6 2.946666 1_555
Ba1 O6 2.946666 1_554
Ba1 O5 2.961703 1_555
Ba1 O3 2.961703 1_554
Ba1 O0 2.961703 1_555
Ba1 O9 2.961703 1_555
Ba1 O2 2.961703 1_554
Ba1 O7 2.961703 1_554
Ba1 O4 2.961703 1_554
Ba1 O1 2.961703 1_555
Gd0 O1 2.257431 1_555
Gd0 O2 2.257431 1_555
Gd0 O8 2.447050 1_555
Gd0 O6 2.447050 1_555
Gd0 O0 2.541772 1_455
Gd0 O4 2.541772 1_455
Gd0 O7 2.541772 1_555
Gd0 O5 2.541772 1_555
Gd1 O9 2.257431 1_555
Gd1 O3 2.257431 1_555
Gd1 O8 2.447050 1_665
Gd1 O6 2.447050 1_555
Gd1 O5 2.541772 1_655
Gd1 O7 2.541772 1_655
Gd1 O4 2.541772 1_555
Gd1 O0 2.541772 1_555
Gd2 O7 2.257431 1_555
Gd2 O5 2.257431 1_555
Gd2 O8 2.447050 1_565
Gd2 O6 2.447050 1_555
Gd2 O3 2.541772 1_555
Gd2 O9 2.541772 1_555
Gd2 O2 2.541772 1_565
Gd2 O1 2.541772 1_565
Gd3 O0 2.257431 1_555
Gd3 O4 2.257431 1_555
Gd3 O8 2.447050 1_655
Gd3 O6 2.447050 1_555
Gd3 O2 2.541772 1_555
Gd3 O1 2.541772 1_555
Gd3 O9 2.541772 1_545
Gd3 O3 2.541772 1_545
O0 Pd0 2.001253 1_655
O1 Pd1 2.001253 1_555
O2 Pd1 2.001253 1_556
O3 Pd1 2.001253 1_566
O4 Pd0 2.001253 1_656
O5 Pd0 2.001253 1_555
O7 Pd0 2.001253 1_556
O9 Pd1 2.001253 1_565
