# generated using pymatgen
data_Rb2SbCl3F2
_symmetry_space_group_name_H-M   'P 1'
_cell_length_a   7.63721300
_cell_length_b   7.64394374
_cell_length_c   13.40636794
_cell_angle_alpha   84.55632548
_cell_angle_beta   78.91017072
_cell_angle_gamma   60.68956430
_symmetry_Int_Tables_number   1
_chemical_formula_structural   Rb2SbCl3F2
_chemical_formula_sum   'Rb6 Sb3 Cl9 F6'
_cell_volume   669.70513233
_cell_formula_units_Z   3
loop_
 _symmetry_equiv_pos_site_id
 _symmetry_equiv_pos_as_xyz
  1  'x, y, z'
loop_
 _atom_site_type_symbol
 _atom_site_label
 _atom_site_symmetry_multiplicity
 _atom_site_fract_x
 _atom_site_fract_y
 _atom_site_fract_z
 _atom_site_occupancy
  Rb  Rb0  1  0.30569300  0.33165200  0.08949200  1
  Rb  Rb1  1  0.43522300  0.33748000  0.69300300  1
  Rb  Rb2  1  0.10105700  0.00013400  0.68329200  1
  Rb  Rb3  1  0.69430700  0.66834800  0.91050800  1
  Rb  Rb4  1  0.56477700  0.66252000  0.30699700  1
  Rb  Rb5  1  0.89894300  0.99986600  0.31670800  1
  Sb  Sb0  1  0.20039700  0.33478900  0.39804500  1
  Sb  Sb1  1  0.79960300  0.66521100  0.60195500  1
  Sb  Sb2  1  0.00000000  0.00000000  0.00000000  1
  Cl  Cl0  1  0.28471500  0.78574900  0.11645800  1
  Cl  Cl1  1  0.18584400  0.68201500  0.49831000  1
  Cl  Cl2  1  0.81415600  0.31798500  0.50169000  1
  Cl  Cl3  1  0.85429300  0.32483700  0.11574500  1
  Cl  Cl4  1  0.25839800  0.10580300  0.88243600  1
  Cl  Cl5  1  0.71528500  0.21425100  0.88354200  1
  Cl  Cl6  1  0.50000000  0.00000000  0.50000000  1
  Cl  Cl7  1  0.74160200  0.89419700  0.11756400  1
  Cl  Cl8  1  0.14570700  0.67516300  0.88425500  1
  F  F0  1  0.56291400  0.66278000  0.69507800  1
  F  F1  1  0.76921700  0.87374500  0.69333300  1
  F  F2  1  0.01748000  0.54465100  0.30851900  1
  F  F3  1  0.98252000  0.45534900  0.69148100  1
  F  F4  1  0.23078300  0.12625500  0.30666700  1
  F  F5  1  0.43708600  0.33722000  0.30492200  1
loop_
_geom_bond_atom_site_label_1
_geom_bond_atom_site_label_2
_geom_bond_distance
_geom_bond_site_symmetry_2
Cl0 Sb2 2.679945 1_565
Cl0 Rb5 3.411149 1_455
Cl0 Rb4 3.414675 1_555
Cl0 Rb0 3.446181 1_555
Cl0 Rb3 3.551478 1_554
Cl1 Sb0 3.032238 1_555
Cl1 Sb1 3.067393 1_455
Cl1 Rb2 3.386329 1_565
Cl1 Rb4 3.430819 1_555
Cl1 Rb5 3.514132 1_455
Cl1 Rb1 3.615685 1_555
Cl2 Sb1 3.032238 1_555
Cl2 Sb0 3.067393 1_655
Cl2 Rb5 3.386329 1_545
Cl2 Rb1 3.430819 1_555
Cl2 Rb2 3.514132 1_655
Cl2 Rb4 3.615685 1_555
Cl3 Sb2 2.678259 1_655
Cl3 Rb4 3.407723 1_555
Cl3 Rb0 3.423010 1_655
Cl3 Rb5 3.435075 1_545
Cl3 Rb3 3.569258 1_554
Cl4 Sb2 2.675240 1_556
Cl4 Rb1 3.402697 1_555
Cl4 Rb3 3.427847 1_545
Cl4 Rb2 3.437705 1_555
Cl4 Rb0 3.566760 1_556
Cl5 Sb2 2.679945 1_656
Cl5 Rb2 3.411149 1_655
Cl5 Rb1 3.414675 1_555
Cl5 Rb3 3.446181 1_555
Cl5 Rb0 3.551478 1_556
Cl6 Sb0 2.908475 1_555
Cl6 Sb1 2.908475 1_545
Cl6 Rb2 3.526833 1_555
Cl6 Rb5 3.526833 1_545
Cl6 Rb4 3.622013 1_545
Cl6 Rb1 3.622013 1_555
Cl7 Sb2 2.675240 1_665
Cl7 Rb4 3.402697 1_555
Cl7 Rb0 3.427847 1_565
Cl7 Rb5 3.437705 1_555
Cl7 Rb3 3.566760 1_554
Cl8 Sb2 2.678259 1_566
Cl8 Rb1 3.407723 1_555
Cl8 Rb3 3.423010 1_455
Cl8 Rb2 3.435075 1_565
Cl8 Rb0 3.569258 1_556
F0 Sb1 1.996712 1_555
F0 Rb1 3.087492 1_555
F0 Rb2 3.216837 1_565
F0 Rb3 3.245019 1_555
F1 Sb1 1.998615 1_555
F1 Rb2 3.100911 1_665
F1 Rb1 3.196943 1_565
F1 Rb3 3.262004 1_555
F2 Sb0 2.012716 1_555
F2 Rb4 3.120815 1_455
F2 Rb5 3.144763 1_455
F2 Rb0 3.321135 1_555
F3 Sb1 2.012716 1_555
F3 Rb1 3.120815 1_655
F3 Rb2 3.144763 1_655
F3 Rb3 3.321135 1_555
F4 Sb0 1.998615 1_555
F4 Rb5 3.100911 1_445
F4 Rb4 3.196943 1_545
F4 Rb0 3.262004 1_555
F5 Sb0 1.996712 1_555
F5 Rb4 3.087492 1_555
F5 Rb5 3.216837 1_545
F5 Rb0 3.245019 1_555
