# generated using pymatgen
data_Ta2Cr4Si5
_symmetry_space_group_name_H-M   'P 1'
_cell_length_a   9.32474307
_cell_length_b   9.32474307
_cell_length_c   9.32474307
_cell_angle_alpha   147.93024990
_cell_angle_beta   132.91415126
_cell_angle_gamma   58.10905636
_symmetry_Int_Tables_number   1
_chemical_formula_structural   Ta2Cr4Si5
_chemical_formula_sum   'Ta4 Cr8 Si10'
_cell_volume   312.79990719
_cell_formula_units_Z   2
loop_
 _symmetry_equiv_pos_site_id
 _symmetry_equiv_pos_as_xyz
  1  'x, y, z'
loop_
 _atom_site_type_symbol
 _atom_site_label
 _atom_site_symmetry_multiplicity
 _atom_site_fract_x
 _atom_site_fract_y
 _atom_site_fract_z
 _atom_site_occupancy
  Ta  Ta0  1  0.81009400  0.56009400  0.75000000  1
  Ta  Ta1  1  0.18990600  0.93990600  0.75000000  1
  Ta  Ta2  1  0.18990600  0.43990600  0.25000000  1
  Ta  Ta3  1  0.81009400  0.06009400  0.25000000  1
  Cr  Cr0  1  0.18905300  0.93930700  0.24974600  1
  Cr  Cr1  1  0.81094700  0.06069300  0.75025400  1
  Cr  Cr2  1  0.31043900  0.56069300  0.74974600  1
  Cr  Cr3  1  0.68956100  0.43930700  0.25025400  1
  Cr  Cr4  1  0.76621200  0.64357000  0.12264200  1
  Cr  Cr5  1  0.23378800  0.35643000  0.87735800  1
  Cr  Cr6  1  0.47907200  0.85643000  0.62264200  1
  Cr  Cr7  1  0.52092800  0.14357000  0.37735800  1
  Si  Si0  1  0.50000000  0.25000000  0.75000000  1
  Si  Si1  1  0.50000000  0.75000000  0.25000000  1
  Si  Si2  1  0.10607200  0.79692700  0.30914500  1
  Si  Si3  1  0.89392800  0.20307300  0.69085500  1
  Si  Si4  1  0.51221900  0.70307300  0.80914500  1
  Si  Si5  1  0.48778100  0.29692700  0.19085500  1
  Si  Si6  1  0.96934700  0.55989400  0.40945300  1
  Si  Si7  1  0.03065300  0.44010600  0.59054700  1
  Si  Si8  1  0.84955900  0.94010600  0.90945300  1
  Si  Si9  1  0.15044100  0.05989400  0.09054700  1
loop_
_geom_bond_atom_site_label_1
_geom_bond_atom_site_label_2
_geom_bond_distance
_geom_bond_site_symmetry_2
Cr0 Si9 2.295885 1_565
Cr0 Si2 2.362962 1_555
Cr0 Si0 2.472420 1_565
Cr0 Si1 2.472420 1_555
Cr0 Si8 2.534970 1_454
Cr0 Si7 2.835633 1_565
Cr0 Si7 2.835633 1_554
Cr1 Si8 2.295885 1_545
Cr1 Si3 2.362962 1_555
Cr1 Si1 2.472420 1_545
Cr1 Si0 2.472420 1_555
Cr1 Si9 2.534970 1_656
Cr1 Si6 2.835633 1_556
Cr1 Si6 2.835633 1_545
Cr2 Si7 2.295885 1_555
Cr2 Si4 2.362971 1_555
Cr2 Si0 2.472420 1_555
Cr2 Si1 2.472420 1_556
Cr2 Si6 2.534970 1_455
Cr2 Si9 2.835633 1_566
Cr2 Si9 2.835633 1_555
Cr3 Si6 2.295885 1_555
Cr3 Si5 2.362971 1_555
Cr3 Si0 2.472420 1_554
Cr3 Si1 2.472420 1_555
Cr3 Si7 2.534970 1_655
Cr3 Si8 2.835633 1_544
Cr3 Si8 2.835633 1_555
Cr4 Si4 2.528784 1_554
Cr4 Si6 2.534886 1_555
Cr4 Si3 2.798831 1_565
Cr4 Si3 2.798831 1_554
Cr4 Si0 2.823376 1_554
Cr4 Si1 2.823376 1_555
Cr4 Si2 2.860205 1_655
Cr5 Si5 2.528784 1_556
Cr5 Si7 2.534886 1_555
Cr5 Si2 2.798831 1_556
Cr5 Si2 2.798831 1_545
Cr5 Si1 2.823376 1_556
Cr5 Si0 2.823376 1_555
Cr5 Si3 2.860205 1_455
Cr6 Si2 2.528784 1_555
Cr6 Si8 2.534886 1_555
Cr6 Si5 2.798830 1_555
Cr6 Si5 2.798835 1_566
Cr6 Si1 2.823376 1_555
Cr6 Si0 2.823376 1_565
Cr6 Si4 2.860200 1_555
Cr7 Si3 2.528784 1_555
Cr7 Si9 2.534886 1_555
Cr7 Si4 2.798830 1_555
Cr7 Si4 2.798835 1_544
Cr7 Si1 2.823376 1_545
Cr7 Si0 2.823376 1_555
Cr7 Si5 2.860200 1_555
Si0 Si1 2.575703 1_545
Si0 Si1 2.575703 1_556
Si2 Ta2 2.593054 1_555
Si2 Ta1 2.593054 1_555
Si2 Ta3 2.647266 1_465
Si2 Ta0 2.647266 1_454
Si3 Ta3 2.593054 1_555
Si3 Ta0 2.593054 1_555
Si3 Ta2 2.647266 1_656
Si3 Ta1 2.647266 1_645
Si4 Ta0 2.593045 1_555
Si4 Ta3 2.593048 1_566
Si4 Ta2 2.647269 1_555
Si4 Ta1 2.647271 1_555
Si5 Ta2 2.593045 1_555
Si5 Ta1 2.593048 1_544
Si5 Ta0 2.647269 1_555
Si5 Ta3 2.647271 1_555
Si6 Si7 2.373499 1_655
Si6 Ta2 2.570203 1_655
Si6 Ta1 2.570203 1_655
Si7 Ta0 2.570203 1_455
Si7 Ta3 2.570203 1_455
Si8 Si9 2.373499 1_666
Si8 Ta0 2.570203 1_555
Si8 Ta3 2.570203 1_566
Si9 Ta1 2.570203 1_544
Si9 Ta2 2.570203 1_555
