# generated using pymatgen
data_Zr21Re25
_symmetry_space_group_name_H-M   'P 1'
_cell_length_a   15.27741473
_cell_length_b   15.27741473
_cell_length_c   15.27741519
_cell_angle_alpha   116.38836935
_cell_angle_beta   116.38836935
_cell_angle_gamma   116.38836968
_symmetry_Int_Tables_number   1
_chemical_formula_structural   Zr21Re25
_chemical_formula_sum   'Zr42 Re50'
_cell_volume   1716.71055734
_cell_formula_units_Z   2
loop_
 _symmetry_equiv_pos_site_id
 _symmetry_equiv_pos_as_xyz
  1  'x, y, z'
loop_
 _atom_site_type_symbol
 _atom_site_label
 _atom_site_symmetry_multiplicity
 _atom_site_fract_x
 _atom_site_fract_y
 _atom_site_fract_z
 _atom_site_occupancy
  Zr  Zr0  1  0.55033000  0.31933600  0.43532300  1
  Zr  Zr1  1  0.05435100  0.75000000  0.44564900  1
  Zr  Zr2  1  0.31538000  0.54815100  0.77401300  1
  Zr  Zr3  1  0.45573800  0.36139400  0.93781100  1
  Zr  Zr4  1  0.27401300  0.04815100  0.81538000  1
  Zr  Zr5  1  0.95573800  0.43781100  0.86139400  1
  Zr  Zr6  1  0.63860600  0.06218900  0.54426200  1
  Zr  Zr7  1  0.54815100  0.77401300  0.31538000  1
  Zr  Zr8  1  0.13860600  0.04426200  0.56218900  1
  Zr  Zr9  1  0.43781100  0.86139400  0.95573800  1
  Zr  Zr10  1  0.43532300  0.55033000  0.31933600  1
  Zr  Zr11  1  0.94564900  0.25000000  0.55435100  1
  Zr  Zr12  1  0.93781100  0.45573800  0.36139400  1
  Zr  Zr13  1  0.77401300  0.31538000  0.54815100  1
  Zr  Zr14  1  0.36139400  0.93781100  0.45573800  1
  Zr  Zr15  1  0.18066400  0.94967000  0.06467700  1
  Zr  Zr16  1  0.81538000  0.27401300  0.04815100  1
  Zr  Zr17  1  0.06218900  0.54426200  0.63860600  1
  Zr  Zr18  1  0.68462000  0.45184900  0.22598700  1
  Zr  Zr19  1  0.54426200  0.63860600  0.06218900  1
  Zr  Zr20  1  0.55435100  0.94564900  0.25000000  1
  Zr  Zr21  1  0.18462000  0.72598700  0.95184900  1
  Zr  Zr22  1  0.04815100  0.81538000  0.27401300  1
  Zr  Zr23  1  0.06467700  0.18066400  0.94967000  1
  Zr  Zr24  1  0.68066400  0.56467700  0.44967000  1
  Zr  Zr25  1  0.31933600  0.43532300  0.55033000  1
  Zr  Zr26  1  0.04426300  0.56218900  0.13860600  1
  Zr  Zr27  1  0.95184900  0.18462000  0.72598700  1
  Zr  Zr28  1  0.56467700  0.44967000  0.68066400  1
  Zr  Zr29  1  0.44967000  0.68066400  0.56467700  1
  Zr  Zr30  1  0.72598700  0.95184900  0.18462000  1
  Zr  Zr31  1  0.86139400  0.95573800  0.43781100  1
  Zr  Zr32  1  0.25000000  0.55435100  0.94564900  1
  Zr  Zr33  1  0.75000000  0.44564900  0.05435100  1
  Zr  Zr34  1  0.93532300  0.81933600  0.05033000  1
  Zr  Zr35  1  0.45184900  0.22598700  0.68462000  1
  Zr  Zr36  1  0.44564900  0.05435100  0.75000000  1
  Zr  Zr37  1  0.94967000  0.06467700  0.18066400  1
  Zr  Zr38  1  0.81933600  0.05033000  0.93532300  1
  Zr  Zr39  1  0.05033000  0.93532300  0.81933600  1
  Zr  Zr40  1  0.22598700  0.68462000  0.45184900  1
  Zr  Zr41  1  0.56218900  0.13860600  0.04426200  1
  Re  Re0  1  0.68895000  0.57205800  0.98171200  1
  Re  Re1  1  0.88536400  0.88190800  0.23551600  1
  Re  Re2  1  0.31105000  0.42794200  0.01828800  1
  Re  Re3  1  0.73551600  0.38190800  0.38536400  1
  Re  Re4  1  0.42794200  0.01828800  0.31105000  1
  Re  Re5  1  0.63270100  0.69392700  0.92982400  1
  Re  Re6  1  0.07205800  0.18895000  0.48171200  1
  Re  Re7  1  0.38536400  0.73551600  0.38190800  1
  Re  Re8  1  0.75000000  0.19469900  0.30530100  1
  Re  Re9  1  0.07017600  0.36729900  0.30607300  1
  Re  Re10  1  0.36729900  0.30607300  0.07017600  1
  Re  Re11  1  0.81071100  0.68928900  0.75000000  1
  Re  Re12  1  0.57205800  0.98171200  0.68895000  1
  Re  Re13  1  0.18928900  0.31071100  0.25000000  1
  Re  Re14  1  0.26448400  0.61809200  0.61463600  1
  Re  Re15  1  0.81105000  0.51828800  0.92794200  1
  Re  Re16  1  0.92982400  0.63270100  0.69392700  1
  Re  Re17  1  0.19469900  0.30530100  0.75000000  1
  Re  Re18  1  0.42982400  0.19392700  0.13270100  1
  Re  Re19  1  0.76448400  0.11463600  0.11809200  1
  Re  Re20  1  0.92794200  0.81105000  0.51828800  1
  Re  Re21  1  0.57017600  0.80607300  0.86729900  1
  Re  Re22  1  0.69392700  0.92982400  0.63270100  1
  Re  Re23  1  0.11809200  0.76448400  0.11463600  1
  Re  Re24  1  0.61809200  0.61463600  0.26448400  1
  Re  Re25  1  0.13270100  0.42982400  0.19392700  1
  Re  Re26  1  0.86729900  0.57017600  0.80607300  1
  Re  Re27  1  0.19392700  0.13270100  0.42982400  1
  Re  Re28  1  0.30607300  0.07017600  0.36729900  1
  Re  Re29  1  0.88190800  0.23551600  0.88536400  1
  Re  Re30  1  0.51828800  0.92794200  0.81105000  1
  Re  Re31  1  0.50000000  0.50000000  0.50000000  1
  Re  Re32  1  0.00000000  0.00000000  0.00000000  1
  Re  Re33  1  0.25000000  0.18928900  0.31071100  1
  Re  Re34  1  0.30530100  0.75000000  0.19469900  1
  Re  Re35  1  0.31071100  0.25000000  0.18928900  1
  Re  Re36  1  0.23551600  0.88536400  0.88190800  1
  Re  Re37  1  0.75000000  0.81071100  0.68928900  1
  Re  Re38  1  0.11463600  0.11809200  0.76448400  1
  Re  Re39  1  0.01828800  0.31105000  0.42794200  1
  Re  Re40  1  0.68928900  0.75000000  0.81071100  1
  Re  Re41  1  0.61463600  0.26448400  0.61809200  1
  Re  Re42  1  0.38190800  0.38536400  0.73551600  1
  Re  Re43  1  0.48171200  0.07205800  0.18895000  1
  Re  Re44  1  0.69469900  0.25000000  0.80530100  1
  Re  Re45  1  0.25000000  0.80530100  0.69469900  1
  Re  Re46  1  0.80530100  0.69469900  0.25000000  1
  Re  Re47  1  0.18895000  0.48171200  0.07205800  1
  Re  Re48  1  0.80607300  0.86729900  0.57017600  1
  Re  Re49  1  0.98171200  0.68895000  0.57205800  1
loop_
_geom_bond_atom_site_label_1
_geom_bond_atom_site_label_2
_geom_bond_distance
_geom_bond_site_symmetry_2
Zr0 Zr13 3.113343 1_555
Zr0 Zr24 3.210803 1_555
Zr0 Zr28 3.210804 1_555
Zr0 Zr15 3.263262 1_545
Zr2 Zr25 3.113344 1_555
Zr10 Zr7 3.113343 1_555
Zr10 Zr24 3.210804 1_555
Zr10 Zr29 3.210804 1_555
Zr10 Zr23 3.263262 1_554
Zr15 Zr21 3.113343 1_554
Zr15 Zr34 3.210803 1_455
Zr15 Zr39 3.210804 1_554
Zr16 Zr38 3.113343 1_554
Zr18 Zr24 3.113344 1_555
Zr22 Zr34 3.113344 1_455
Zr23 Zr27 3.113344 1_455
Zr23 Zr38 3.210803 1_455
Zr23 Zr39 3.210804 1_545
Zr24 Zr39 3.263262 1_655
Zr25 Zr29 3.210803 1_555
Zr25 Zr28 3.210804 1_555
Zr25 Zr37 3.263262 1_455
Zr28 Zr35 3.113343 1_555
Zr28 Zr34 3.263262 1_556
Zr29 Zr40 3.113343 1_555
Zr29 Zr38 3.263262 1_565
Zr30 Zr37 3.113343 1_565
Zr34 Zr37 3.210804 1_565
Zr37 Zr38 3.210804 1_554
Zr39 Zr4 3.113343 1_565
Re0 Re15 2.636969 1_555
Re0 Re5 2.638550 1_555
Re0 Re1 2.676246 1_556
Re0 Re42 2.678363 1_555
Re0 Re46 2.684530 1_556
Re0 Zr33 2.901216 1_556
Re0 Zr35 2.950533 1_555
Re0 Zr22 3.033500 1_656
Re0 Zr3 3.044052 1_555
Re0 Zr28 3.113194 1_555
Re0 Zr34 3.141719 1_556
Re0 Zr19 3.276237 1_556
Re1 Re27 2.666445 1_665
Re1 Re5 2.675369 1_554
Re1 Re6 2.678363 1_665
Re1 Re46 2.723702 1_555
Re1 Zr22 3.006988 1_655
Re1 Zr30 3.007190 1_555
Re1 Zr31 3.038474 1_555
Re1 Zr8 3.054597 1_665
Re1 Zr34 3.108776 1_555
Re1 Zr19 3.122637 1_555
Re1 Zr37 3.136451 1_565
Re2 Re47 2.636969 1_555
Re2 Re38 2.676246 1_554
Re2 Re24 2.678363 1_555
Re2 Zr32 2.901216 1_554
Re2 Zr7 2.950533 1_555
Re2 Zr27 3.033500 1_454
Re2 Zr19 3.044052 1_555
Re2 Zr10 3.113194 1_555
Re2 Zr23 3.141719 1_554
Re2 Zr3 3.276237 1_554
Re3 Re43 2.676246 1_555
Re3 Re49 2.678363 1_555
Re3 Re8 2.723702 1_555
Re3 Zr13 3.006988 1_555
Re3 Zr18 3.007190 1_555
Re3 Zr12 3.038474 1_555
Re3 Zr17 3.054596 1_655
Re3 Zr0 3.108776 1_555
Re3 Zr41 3.122638 1_555
Re3 Zr24 3.136451 1_555
Re4 Re43 2.636969 1_555
Re4 Re41 2.678363 1_555
Re4 Zr20 2.901216 1_545
Re4 Zr13 2.950533 1_555
Re4 Zr21 3.033500 1_544
Re4 Zr6 3.044052 1_555
Re4 Zr0 3.113194 1_555
Re4 Zr15 3.141719 1_545
Re4 Zr14 3.276237 1_545
Re5 Zr30 3.025331 1_556
Re5 Zr2 3.092002 1_555
Re5 Zr19 3.092240 1_556
Re5 Zr34 3.140010 1_556
Re5 Zr28 3.147147 1_555
Re5 Zr37 3.169525 1_566
Re5 Zr25 3.208606 1_555
Re6 Zr11 2.901216 1_455
Re6 Zr30 2.950533 1_445
Re6 Zr2 3.033500 1_555
Re6 Zr31 3.044052 1_445
Re6 Zr37 3.113194 1_455
Re6 Zr25 3.141719 1_555
Re6 Zr8 3.276237 1_555
Re7 Zr7 3.006988 1_555
Re7 Zr40 3.007190 1_555
Re7 Zr14 3.038474 1_555
Re7 Zr6 3.054596 1_565
Re7 Zr10 3.108776 1_555
Re7 Zr26 3.122626 1_555
Re7 Zr29 3.136451 1_555
Re8 Zr17 2.965567 1_655
Re8 Zr9 2.965567 1_544
Re8 Zr20 2.985520 1_545
Re8 Zr11 2.985520 1_555
Re8 Zr30 3.067127 1_545
Re8 Zr13 3.067127 1_555
Re8 Zr12 3.078348 1_555
Re8 Zr41 3.078348 1_555
Re9 Zr16 3.025331 1_455
Re9 Zr40 3.092002 1_555
Re9 Zr12 3.092240 1_455
Re9 Zr37 3.140010 1_455
Re9 Zr25 3.147147 1_555
Re9 Zr38 3.169525 1_454
Re9 Zr29 3.208606 1_555
Re10 Re18 2.618921 1_555
Re10 Re35 2.630304 1_555
Re10 Re2 2.638550 1_555
Re10 Re24 2.666445 1_555
Re10 Re38 2.675369 1_554
Re10 Zr4 3.025331 1_554
Re10 Zr18 3.092002 1_555
Re10 Zr3 3.092240 1_554
Re10 Zr23 3.140010 1_554
Re10 Zr10 3.147147 1_555
Re10 Zr39 3.169525 1_544
Re10 Zr24 3.208606 1_555
Re11 Re16 2.630304 1_555
Re11 Re26 2.630304 1_555
Re11 Re32 2.710525 1_666
Re11 Re31 2.710525 1_555
Re11 Re40 2.730515 1_555
Re11 Re37 2.730515 1_555
Re11 Zr24 3.064950 1_555
Re11 Zr34 3.064950 1_556
Re11 Zr39 3.071487 1_655
Re11 Zr28 3.071487 1_555
Re11 Zr15 3.121299 1_656
Re11 Zr0 3.121299 1_555
Re12 Re30 2.636969 1_555
Re12 Re22 2.638550 1_555
Re12 Re29 2.676246 1_565
Re12 Re7 2.678363 1_555
Re12 Re44 2.684530 1_565
Re12 Zr36 2.901216 1_565
Re12 Zr40 2.950533 1_555
Re12 Zr16 3.033500 1_566
Re12 Zr14 3.044052 1_555
Re12 Zr29 3.113194 1_555
Re12 Zr38 3.141719 1_565
Re12 Zr6 3.276237 1_565
Re13 Re25 2.630304 1_555
Re13 Re9 2.630304 1_555
Re13 Re31 2.710525 1_555
Re13 Re32 2.710525 1_555
Re13 Re35 2.730515 1_555
Re13 Re33 2.730515 1_555
Re13 Zr23 3.064950 1_554
Re13 Zr25 3.064950 1_555
Re13 Zr10 3.071487 1_555
Re13 Zr37 3.071487 1_455
Re13 Zr38 3.121299 1_454
Re13 Zr29 3.121299 1_555
Re14 Re9 2.666445 1_555
Re14 Re21 2.675369 1_555
Re14 Re30 2.676246 1_555
Re14 Re39 2.678363 1_555
Re14 Re45 2.723702 1_555
Re14 Zr40 3.006988 1_555
Re14 Zr2 3.007190 1_555
Re14 Zr17 3.038474 1_555
Re14 Zr12 3.054596 1_455
Re14 Zr29 3.108776 1_555
Re14 Zr9 3.122638 1_555
Re14 Zr25 3.136451 1_555
Re15 Re26 2.638550 1_555
Re15 Re41 2.676246 1_555
Re15 Re23 2.678363 1_656
Re15 Re44 2.684530 1_555
Re15 Zr33 2.901216 1_556
Re15 Zr22 2.950533 1_656
Re15 Zr35 3.033500 1_555
Re15 Zr26 3.044061 1_656
Re15 Zr34 3.113194 1_556
Re15 Zr28 3.141719 1_555
Re15 Zr5 3.276237 1_555
Re16 Re26 2.618921 1_555
Re16 Re49 2.638550 1_555
Re16 Re3 2.666445 1_555
Re16 Re36 2.675369 1_655
Re16 Zr21 3.025331 1_655
Re16 Zr13 3.092002 1_555
Re16 Zr17 3.092240 1_655
Re16 Zr39 3.140010 1_655
Re16 Zr24 3.147147 1_555
Re16 Zr15 3.169525 1_656
Re16 Zr0 3.208606 1_555
Re17 Re6 2.684530 1_555
Re17 Re2 2.684530 1_556
Re17 Re38 2.723702 1_555
Re17 Re42 2.723702 1_555
Re17 Zr19 2.965567 1_556
Re17 Zr31 2.965567 1_445
Re17 Zr11 2.985520 1_455
Re17 Zr32 2.985520 1_555
Re17 Zr2 3.067127 1_555
Re17 Zr27 3.067127 1_455
Re17 Zr3 3.078348 1_555
Re17 Zr8 3.078348 1_555
Re18 Re35 2.630304 1_555
Re18 Re43 2.638550 1_555
Re18 Re36 2.666445 1_544
Re18 Re3 2.675369 1_555
Re18 Zr18 3.025331 1_555
Re18 Zr4 3.092002 1_554
Re18 Zr41 3.092240 1_555
Re18 Zr0 3.140011 1_555
Re18 Zr15 3.147146 1_545
Re18 Zr24 3.169525 1_555
Re18 Zr39 3.208606 1_544
Re19 Re21 2.666445 1_544
Re19 Re9 2.675369 1_655
Re19 Re39 2.676246 1_655
Re19 Re30 2.678363 1_544
Re19 Re8 2.723702 1_555
Re19 Zr30 3.006988 1_545
Re19 Zr16 3.007190 1_555
Re19 Zr41 3.038474 1_555
Re19 Zr9 3.054596 1_544
Re19 Zr37 3.108776 1_555
Re19 Zr12 3.122637 1_555
Re19 Zr38 3.136451 1_554
Re20 Re49 2.636969 1_555
Re20 Re48 2.638550 1_555
Re20 Re24 2.676246 1_555
Re20 Re38 2.678363 1_665
Re20 Re46 2.684530 1_555
Re20 Zr1 2.901216 1_655
Re20 Zr4 2.950533 1_665
Re20 Zr18 3.033500 1_555
Re20 Zr8 3.044052 1_665
Re20 Zr39 3.113194 1_655
Re20 Zr24 3.141719 1_555
Re20 Zr31 3.276237 1_555
Re21 Re5 2.618921 1_555
Re21 Re40 2.630304 1_555
Re21 Re30 2.638550 1_555
Re21 Zr2 3.025331 1_555
Re21 Zr30 3.092002 1_556
Re21 Zr9 3.092240 1_555
Re21 Zr29 3.140011 1_555
Re21 Zr38 3.147146 1_565
Re21 Zr25 3.169525 1_555
Re21 Zr37 3.208606 1_566
Re22 Re48 2.618921 1_555
Re22 Re37 2.630304 1_555
Re22 Re7 2.666445 1_555
Re22 Re29 2.675369 1_565
Re22 Zr27 3.025331 1_565
Re22 Zr7 3.092002 1_555
Re22 Zr6 3.092240 1_565
Re22 Zr38 3.140011 1_565
Re22 Zr29 3.147146 1_555
Re22 Zr23 3.169525 1_665
Re22 Zr10 3.208606 1_555
Re23 Re26 2.666445 1_454
Re23 Re28 2.675369 1_565
Re23 Re4 2.676246 1_565
Re23 Re34 2.723702 1_555
Re23 Zr21 3.006988 1_554
Re23 Zr22 3.007190 1_555
Re23 Zr26 3.038474 1_555
Re23 Zr5 3.054596 1_454
Re23 Zr15 3.108776 1_555
Re23 Zr14 3.122638 1_555
Re23 Zr34 3.136451 1_455
Re24 Re48 2.675369 1_555
Re24 Re46 2.723702 1_555
Re24 Zr18 3.006988 1_555
Re24 Zr7 3.007190 1_555
Re24 Zr19 3.038474 1_555
Re24 Zr3 3.054597 1_554
Re24 Zr24 3.108776 1_555
Re24 Zr31 3.122637 1_555
Re24 Zr10 3.136451 1_555
Re25 Re9 2.618921 1_555
Re25 Re47 2.638550 1_555
Re25 Re29 2.666445 1_454
Re25 Re7 2.675369 1_555
Re25 Zr40 3.025331 1_555
Re25 Zr16 3.092002 1_455
Re25 Zr26 3.092231 1_555
Re25 Zr10 3.140010 1_555
Re25 Zr23 3.147147 1_554
Re25 Zr29 3.169525 1_555
Re25 Zr38 3.208606 1_454
Re26 Re41 2.675369 1_555
Re26 Zr13 3.025331 1_555
Re26 Zr21 3.092002 1_655
Re26 Zr5 3.092240 1_555
Re26 Zr28 3.140010 1_555
Re26 Zr34 3.147147 1_556
Re26 Zr0 3.169525 1_555
Re26 Zr15 3.208606 1_656
Re27 Re28 2.618921 1_555
Re27 Re33 2.630304 1_555
Re27 Re6 2.638550 1_555
Re27 Re42 2.675369 1_555
Re27 Zr35 3.025331 1_555
Re27 Zr22 3.092002 1_545
Re27 Zr8 3.092240 1_555
Re27 Zr25 3.140010 1_555
Re27 Zr37 3.147147 1_455
Re27 Zr28 3.169525 1_555
Re27 Zr34 3.208606 1_445
Re28 Re33 2.630304 1_555
Re28 Re4 2.638550 1_555
Re28 Re41 2.666445 1_555
Re28 Zr22 3.025331 1_545
Re28 Zr35 3.092002 1_555
Re28 Zr14 3.092240 1_545
Re28 Zr15 3.140011 1_545
Re28 Zr0 3.147146 1_555
Re28 Zr34 3.169525 1_445
Re28 Zr28 3.208606 1_555
Re29 Re47 2.678363 1_656
Re29 Re44 2.723702 1_555
Re29 Zr16 3.006988 1_556
Re29 Zr27 3.007190 1_555
Re29 Zr5 3.038474 1_555
Re29 Zr26 3.054589 1_656
Re29 Zr38 3.108776 1_555
Re29 Zr6 3.122638 1_555
Re29 Zr23 3.136451 1_655
Re30 Re45 2.684530 1_555
Re30 Zr36 2.901216 1_565
Re30 Zr16 2.950533 1_566
Re30 Zr40 3.033500 1_555
Re30 Zr41 3.044052 1_566
Re30 Zr38 3.113194 1_565
Re30 Zr29 3.141719 1_555
Re30 Zr9 3.276237 1_555
Re31 Re37 2.710525 1_555
Re31 Re33 2.710525 1_555
Re31 Re35 2.710525 1_555
Re31 Re40 2.710525 1_555
Re31 Zr0 3.053390 1_555
Re31 Zr29 3.053390 1_555
Re31 Zr25 3.053391 1_555
Re31 Zr24 3.053391 1_555
Re31 Zr10 3.053391 1_555
Re31 Zr28 3.053391 1_555
Re32 Re40 2.710525 1_444
Re32 Re35 2.710525 1_555
Re32 Re37 2.710525 1_444
Re32 Re33 2.710525 1_555
Re32 Zr15 3.053390 1_545
Re32 Zr38 3.053390 1_454
Re32 Zr23 3.053391 1_554
Re32 Zr34 3.053391 1_445
Re32 Zr37 3.053391 1_455
Re32 Zr39 3.053391 1_544
Re33 Re35 2.730516 1_555
Re33 Zr0 3.064950 1_555
Re33 Zr37 3.064950 1_455
Re33 Zr25 3.071487 1_555
Re33 Zr15 3.071487 1_545
Re33 Zr34 3.121298 1_445
Re33 Zr28 3.121299 1_555
Re34 Re4 2.684530 1_565
Re34 Re47 2.684530 1_555
Re34 Re7 2.723702 1_555
Re34 Zr5 2.965567 1_454
Re34 Zr6 2.965567 1_565
Re34 Zr20 2.985520 1_555
Re34 Zr32 2.985520 1_554
Re34 Zr7 3.067127 1_555
Re34 Zr21 3.067127 1_554
Re34 Zr26 3.078337 1_555
Re34 Zr14 3.078348 1_555
Re35 Zr15 3.064950 1_545
Re35 Zr10 3.064950 1_555
Re35 Zr23 3.071487 1_554
Re35 Zr0 3.071487 1_555
Re35 Zr24 3.121298 1_555
Re35 Zr39 3.121299 1_544
Re36 Re49 2.676246 1_455
Re36 Re43 2.678363 1_566
Re36 Re45 2.723702 1_555
Re36 Zr4 3.006988 1_565
Re36 Zr21 3.007190 1_555
Re36 Zr9 3.038474 1_555
Re36 Zr41 3.054596 1_566
Re36 Zr39 3.108776 1_555
Re36 Zr17 3.122637 1_555
Re36 Zr15 3.136451 1_556
Re37 Re48 2.630304 1_555
Re37 Re40 2.730516 1_555
Re37 Zr29 3.064950 1_555
Re37 Zr39 3.064950 1_655
Re37 Zr24 3.071487 1_555
Re37 Zr38 3.071487 1_565
Re37 Zr23 3.121298 1_665
Re37 Zr10 3.121299 1_555
Re38 Re48 2.666445 1_445
Re38 Zr27 3.006988 1_455
Re38 Zr4 3.007190 1_555
Re38 Zr8 3.038474 1_555
Re38 Zr31 3.054597 1_445
Re38 Zr23 3.108776 1_555
Re38 Zr3 3.122637 1_555
Re38 Zr39 3.136451 1_545
Re39 Re6 2.636969 1_555
Re39 Re9 2.638550 1_555
Re39 Re8 2.684530 1_455
Re39 Zr11 2.901216 1_455
Re39 Zr2 2.950533 1_555
Re39 Zr30 3.033500 1_445
Re39 Zr17 3.044052 1_555
Re39 Zr25 3.113194 1_555
Re39 Zr37 3.141719 1_455
Re39 Zr12 3.276237 1_455
Re40 Re5 2.630304 1_555
Re40 Zr38 3.064950 1_565
Re40 Zr28 3.064950 1_555
Re40 Zr34 3.071487 1_556
Re40 Zr29 3.071487 1_555
Re40 Zr25 3.121298 1_555
Re40 Zr37 3.121299 1_566
Re41 Re44 2.723702 1_555
Re41 Zr35 3.006988 1_555
Re41 Zr13 3.007190 1_555
Re41 Zr6 3.038474 1_555
Re41 Zr14 3.054596 1_545
Re41 Zr28 3.108776 1_555
Re41 Zr5 3.122637 1_555
Re41 Zr0 3.136451 1_555
Re42 Re5 2.666445 1_555
Re42 Re6 2.676246 1_555
Re42 Zr2 3.006988 1_555
Re42 Zr35 3.007190 1_555
Re42 Zr3 3.038474 1_555
Re42 Zr19 3.054597 1_556
Re42 Zr25 3.108776 1_555
Re42 Zr8 3.122637 1_555
Re42 Zr28 3.136451 1_555
Re43 Re8 2.684530 1_555
Re43 Zr20 2.901216 1_545
Re43 Zr21 2.950533 1_544
Re43 Zr13 3.033500 1_555
Re43 Zr9 3.044052 1_544
Re43 Zr15 3.113194 1_545
Re43 Zr0 3.141719 1_555
Re43 Zr41 3.276237 1_555
Re44 Zr14 2.965567 1_545
Re44 Zr26 2.965572 1_656
Re44 Zr36 2.985520 1_555
Re44 Zr33 2.985520 1_556
Re44 Zr35 3.067127 1_555
Re44 Zr16 3.067127 1_556
Re44 Zr5 3.078348 1_555
Re44 Zr6 3.078348 1_555
Re45 Re49 2.684530 1_455
Re45 Zr12 2.965567 1_455
Re45 Zr41 2.965567 1_566
Re45 Zr36 2.985520 1_565
Re45 Zr1 2.985520 1_555
Re45 Zr4 3.067127 1_565
Re45 Zr40 3.067127 1_555
Re45 Zr17 3.078348 1_555
Re45 Zr9 3.078348 1_555
Re46 Zr3 2.965567 1_554
Re46 Zr8 2.965567 1_665
Re46 Zr33 2.985520 1_555
Re46 Zr1 2.985520 1_655
Re46 Zr18 3.067127 1_555
Re46 Zr22 3.067127 1_655
Re46 Zr31 3.078348 1_555
Re46 Zr19 3.078348 1_555
Re47 Re7 2.676246 1_555
Re47 Zr32 2.901216 1_554
Re47 Zr27 2.950533 1_454
Re47 Zr7 3.033500 1_555
Re47 Zr5 3.044052 1_454
Re47 Zr23 3.113194 1_554
Re47 Zr10 3.141719 1_555
Re47 Zr26 3.276222 1_555
Re48 Zr7 3.025331 1_555
Re48 Zr27 3.092002 1_565
Re48 Zr31 3.092240 1_555
Re48 Zr24 3.140010 1_555
Re48 Zr39 3.147147 1_655
Re48 Zr10 3.169525 1_555
Re48 Zr23 3.208606 1_665
Re49 Zr1 2.901216 1_655
Re49 Zr18 2.950533 1_555
Re49 Zr4 3.033500 1_665
Re49 Zr12 3.044052 1_555
Re49 Zr24 3.113194 1_555
Re49 Zr39 3.141719 1_655
Re49 Zr17 3.276237 1_655
