# generated using pymatgen
data_BaMoSeO6
_symmetry_space_group_name_H-M   'P 1'
_cell_length_a   10.35112400
_cell_length_b   6.37519000
_cell_length_c   8.56481265
_cell_angle_alpha   85.17904808
_cell_angle_beta   90.00000000
_cell_angle_gamma   90.00000000
_symmetry_Int_Tables_number   1
_chemical_formula_structural   BaMoSeO6
_chemical_formula_sum   'Ba4 Mo4 Se4 O24'
_cell_volume   563.19570889
_cell_formula_units_Z   4
loop_
 _symmetry_equiv_pos_site_id
 _symmetry_equiv_pos_as_xyz
  1  'x, y, z'
loop_
 _atom_site_type_symbol
 _atom_site_label
 _atom_site_symmetry_multiplicity
 _atom_site_fract_x
 _atom_site_fract_y
 _atom_site_fract_z
 _atom_site_occupancy
  Ba  Ba0  1  0.30860900  0.26456600  0.01167300  1
  Ba  Ba1  1  0.19139100  0.26456600  0.51167300  1
  Ba  Ba2  1  0.80860900  0.73543400  0.48832700  1
  Ba  Ba3  1  0.69139100  0.73543400  0.98832700  1
  Mo  Mo0  1  0.07939000  0.77295300  0.76952700  1
  Mo  Mo1  1  0.92061000  0.22704700  0.23047300  1
  Mo  Mo2  1  0.57939000  0.22704700  0.73047300  1
  Mo  Mo3  1  0.42061000  0.77295300  0.26952700  1
  Se  Se0  1  0.10170600  0.70788900  0.17721900  1
  Se  Se1  1  0.60170600  0.29211100  0.32278100  1
  Se  Se2  1  0.89829400  0.29211100  0.82278100  1
  Se  Se3  1  0.39829400  0.70788900  0.67721900  1
  O  O0  1  0.41229400  0.81903000  0.06068700  1
  O  O1  1  0.15335000  0.00925700  0.82591700  1
  O  O2  1  0.61446000  0.39230500  0.50331500  1
  O  O3  1  0.88554000  0.39230500  0.00331500  1
  O  O4  1  0.08865300  0.18484900  0.19646700  1
  O  O5  1  0.98179500  0.55872100  0.27473100  1
  O  O6  1  0.58770600  0.18097000  0.93931300  1
  O  O7  1  0.58865300  0.81515100  0.30353300  1
  O  O8  1  0.73879500  0.41616500  0.23984100  1
  O  O9  1  0.65335000  0.99074300  0.67408300  1
  O  O10  1  0.26120500  0.58383500  0.76015900  1
  O  O11  1  0.76120500  0.41616500  0.73984100  1
  O  O12  1  0.38554000  0.60769500  0.49668500  1
  O  O13  1  0.34665000  0.00925700  0.32591700  1
  O  O14  1  0.23879500  0.58383500  0.26015900  1
  O  O15  1  0.91134700  0.81515100  0.80353300  1
  O  O16  1  0.11446000  0.60769500  0.99668500  1
  O  O17  1  0.48179500  0.44127900  0.22526900  1
  O  O18  1  0.08770600  0.81903000  0.56068700  1
  O  O19  1  0.51820500  0.55872100  0.77473100  1
  O  O20  1  0.41134700  0.18484900  0.69646700  1
  O  O21  1  0.91229400  0.18097000  0.43931300  1
  O  O22  1  0.01820500  0.44127900  0.72526900  1
  O  O23  1  0.84665000  0.99074300  0.17408300  1
loop_
_geom_bond_atom_site_label_1
_geom_bond_atom_site_label_2
_geom_bond_distance
_geom_bond_site_symmetry_2
Ba0 O4 2.794974 1_555
Ba0 O17 2.859371 1_555
Ba0 O1 2.863292 1_554
Ba0 O10 2.878731 1_554
Ba0 O16 2.965337 1_554
Ba0 O20 2.984644 1_554
Ba0 O6 3.011605 1_554
Ba0 O0 3.032396 1_545
Ba0 O13 3.051524 1_555
Ba0 O14 3.150013 1_555
Ba0 O19 3.420868 1_554
Ba1 O20 2.794974 1_555
Ba1 O22 2.859371 1_555
Ba1 O13 2.863292 1_555
Ba1 O14 2.878731 1_555
Ba1 O12 2.965337 1_555
Ba1 O4 2.984644 1_555
Ba1 O21 3.011605 1_455
Ba1 O18 3.032396 1_545
Ba1 O1 3.051524 1_555
Ba1 O10 3.150013 1_555
Ba1 O5 3.420868 1_455
Ba2 O7 2.794974 1_555
Ba2 O5 2.859371 1_555
Ba2 O9 2.863292 1_555
Ba2 O11 2.878731 1_555
Ba2 O2 2.965337 1_555
Ba2 O15 2.984644 1_555
Ba2 O18 3.011605 1_655
Ba2 O21 3.032396 1_565
Ba2 O23 3.051524 1_555
Ba2 O8 3.150013 1_555
Ba2 O22 3.420868 1_655
Ba3 O15 2.794974 1_555
Ba3 O19 2.859371 1_555
Ba3 O23 2.863292 1_556
Ba3 O8 2.878731 1_556
Ba3 O3 2.965337 1_556
Ba3 O7 2.984644 1_556
Ba3 O0 3.011605 1_556
Ba3 O6 3.032396 1_565
Ba3 O9 3.051524 1_555
Ba3 O11 3.150013 1_555
Ba3 O17 3.420868 1_556
Mo0 O15 1.787737 1_455
Mo0 O18 1.790180 1_555
Mo0 O1 1.791966 1_565
Mo0 O16 2.163895 1_555
Mo0 O10 2.240135 1_555
Mo0 O22 2.269486 1_555
Mo1 O4 1.787737 1_655
Mo1 O21 1.790180 1_555
Mo1 O23 1.791966 1_545
Mo1 O3 2.163895 1_555
Mo1 O8 2.240135 1_555
Mo1 O5 2.269486 1_555
Mo2 O20 1.787737 1_555
Mo2 O6 1.790180 1_555
Mo2 O9 1.791966 1_545
Mo2 O2 2.163895 1_555
Mo2 O11 2.240135 1_555
Mo2 O19 2.269486 1_555
Mo3 O7 1.787737 1_555
Mo3 O0 1.790180 1_555
Mo3 O13 1.791966 1_565
Mo3 O12 2.163895 1_555
Mo3 O14 2.240135 1_555
Mo3 O17 2.269486 1_555
O2 Se1 1.726936 1_555
O3 Se2 1.726936 1_554
O5 Se0 1.734641 1_655
O8 Se1 1.746223 1_555
O10 Se3 1.746223 1_555
O11 Se2 1.746223 1_555
O12 Se3 1.726936 1_555
O14 Se0 1.746223 1_555
O16 Se0 1.726936 1_556
O17 Se1 1.734641 1_555
O19 Se3 1.734641 1_555
O22 Se2 1.734641 1_455
