# generated using pymatgen
data_Zr(WO4)2
_symmetry_space_group_name_H-M   'P 1'
_cell_length_a   9.00167000
_cell_length_b   9.30058800
_cell_length_c   27.56398600
_cell_angle_alpha   90.00000000
_cell_angle_beta   90.00000000
_cell_angle_gamma   90.00000000
_symmetry_Int_Tables_number   1
_chemical_formula_structural   Zr(WO4)2
_chemical_formula_sum   'Zr12 W24 O96'
_cell_volume   2307.67962015
_cell_formula_units_Z   12
loop_
 _symmetry_equiv_pos_site_id
 _symmetry_equiv_pos_as_xyz
  1  'x, y, z'
loop_
 _atom_site_type_symbol
 _atom_site_label
 _atom_site_symmetry_multiplicity
 _atom_site_fract_x
 _atom_site_fract_y
 _atom_site_fract_z
 _atom_site_occupancy
  Zr  Zr0  1  0.72705400  0.77697100  0.57569800  1
  Zr  Zr1  1  0.23183200  0.75736500  0.74596000  1
  Zr  Zr2  1  0.17667200  0.71156400  0.07753600  1
  Zr  Zr3  1  0.77294600  0.22302900  0.07569800  1
  Zr  Zr4  1  0.26816800  0.24263500  0.24596000  1
  Zr  Zr5  1  0.82332800  0.21156400  0.42246400  1
  Zr  Zr6  1  0.67667200  0.78843600  0.92246400  1
  Zr  Zr7  1  0.22705400  0.72302900  0.42430200  1
  Zr  Zr8  1  0.73183200  0.74263500  0.25404000  1
  Zr  Zr9  1  0.27294600  0.27697100  0.92430200  1
  Zr  Zr10  1  0.76816800  0.25736500  0.75404000  1
  Zr  Zr11  1  0.32332800  0.28843600  0.57753600  1
  W  W0  1  0.22468400  0.11967300  0.37812300  1
  W  W1  1  0.58581100  0.90025700  0.37510500  1
  W  W2  1  0.96095200  0.10163600  0.55220200  1
  W  W3  1  0.77531600  0.61967300  0.12187700  1
  W  W4  1  0.64803400  0.85637200  0.71641900  1
  W  W5  1  0.85196600  0.14362800  0.21641900  1
  W  W6  1  0.41418900  0.40025700  0.12489500  1
  W  W7  1  0.03904800  0.60163600  0.94779800  1
  W  W8  1  0.08581100  0.59974300  0.62489500  1
  W  W9  1  0.31001100  0.87611500  0.55367700  1
  W  W10  1  0.91418900  0.09974300  0.87510500  1
  W  W11  1  0.11711500  0.12624600  0.68466300  1
  W  W12  1  0.46095200  0.39836400  0.44779800  1
  W  W13  1  0.38288500  0.87375400  0.18466300  1
  W  W14  1  0.68998900  0.37611500  0.94632300  1
  W  W15  1  0.88288500  0.62624600  0.81533700  1
  W  W16  1  0.35196600  0.35637200  0.78358100  1
  W  W17  1  0.81001100  0.62388500  0.44632300  1
  W  W18  1  0.61711500  0.37375400  0.31533700  1
  W  W19  1  0.72468400  0.38032700  0.62187700  1
  W  W20  1  0.27531600  0.88032700  0.87812300  1
  W  W21  1  0.18998900  0.12388500  0.05367700  1
  W  W22  1  0.14803400  0.64362800  0.28358100  1
  W  W23  1  0.53904800  0.89836400  0.05220200  1
  O  O0  1  0.71840400  0.29336000  0.00642400  1
  O  O1  1  0.29973000  0.52271500  0.43253500  1
  O  O2  1  0.94805200  0.45868200  0.63774000  1
  O  O3  1  0.25580800  0.76521900  0.24727900  1
  O  O4  1  0.79973000  0.97728500  0.56746500  1
  O  O5  1  0.82305400  0.25758900  0.58113900  1
  O  O6  1  0.59731500  0.54254200  0.45876800  1
  O  O7  1  0.73507700  0.72190900  0.39491000  1
  O  O8  1  0.09739900  0.64261700  0.01043600  1
  O  O9  1  0.19499400  0.67090500  0.34650600  1
  O  O10  1  0.01307600  0.06842600  0.63204500  1
  O  O11  1  0.64030800  0.85148900  0.31272700  1
  O  O12  1  0.32727800  0.04635100  0.21286800  1
  O  O13  1  0.17272200  0.95364900  0.71286800  1
  O  O14  1  0.55194800  0.54131800  0.13774000  1
  O  O15  1  0.96399700  0.68485300  0.10831000  1
  O  O16  1  0.67694600  0.74241100  0.08113900  1
  O  O17  1  0.81746700  0.95577100  0.23331100  1
  O  O18  1  0.17694600  0.75758900  0.91886100  1
  O  O19  1  0.28159600  0.79336000  0.49357600  1
  O  O20  1  0.96588200  0.21689600  0.71806600  1
  O  O21  1  0.90260100  0.14261700  0.48956400  1
  O  O22  1  0.45249800  0.80845600  0.72355800  1
  O  O23  1  0.53600300  0.31514700  0.60831000  1
  O  O24  1  0.19133300  0.93785800  0.39957400  1
  O  O25  1  0.22762700  0.49271800  0.59289400  1
  O  O26  1  0.28825300  0.85114400  0.81198000  1
  O  O27  1  0.85830800  0.43189800  0.43642100  1
  O  O28  1  0.05194800  0.95868200  0.86226000  1
  O  O29  1  0.35830800  0.06810200  0.56357900  1
  O  O30  1  0.44805200  0.04131800  0.36226000  1
  O  O31  1  0.69133300  0.56214200  0.60042600  1
  O  O32  1  0.82727800  0.45364900  0.78713200  1
  O  O33  1  0.54760400  0.28606100  0.09354900  1
  O  O34  1  0.03600300  0.18485300  0.39169000  1
  O  O35  1  0.69499400  0.82909500  0.65349400  1
  O  O36  1  0.04760400  0.21393900  0.90645100  1
  O  O37  1  0.24225700  0.77263100  0.15118400  1
  O  O38  1  0.75774200  0.27263100  0.34881600  1
  O  O39  1  0.46399700  0.81514700  0.89169000  1
  O  O40  1  0.21840400  0.20664000  0.99357600  1
  O  O41  1  0.14169200  0.93189800  0.06357900  1
  O  O42  1  0.21174700  0.14885600  0.31198000  1
  O  O43  1  0.99315000  0.18638000  0.06047500  1
  O  O44  1  0.46588200  0.28310400  0.28193400  1
  O  O45  1  0.26492300  0.22190900  0.10509000  1
  O  O46  1  0.67272200  0.54635100  0.28713200  1
  O  O47  1  0.78825300  0.64885600  0.18802000  1
  O  O48  1  0.70027000  0.02271500  0.06746500  1
  O  O49  1  0.11021700  0.24136700  0.55737200  1
  O  O50  1  0.68253300  0.04422900  0.73331100  1
  O  O51  1  0.00685000  0.68638000  0.43952500  1
  O  O52  1  0.80866700  0.43785800  0.10042600  1
  O  O53  1  0.61021700  0.25863300  0.44262800  1
  O  O54  1  0.03411800  0.71689600  0.78193400  1
  O  O55  1  0.09731500  0.95745800  0.54123200  1
  O  O56  1  0.30500600  0.32909500  0.84650600  1
  O  O57  1  0.04750200  0.19154400  0.22355800  1
  O  O58  1  0.80500600  0.17090500  0.15349400  1
  O  O59  1  0.23507700  0.77809100  0.60509000  1
  O  O60  1  0.35969200  0.35148900  0.18727300  1
  O  O61  1  0.90268500  0.45745800  0.95876800  1
  O  O62  1  0.49315000  0.31362000  0.93952500  1
  O  O63  1  0.31746700  0.54422900  0.76668900  1
  O  O64  1  0.53411800  0.78310400  0.21806600  1
  O  O65  1  0.24419200  0.23478100  0.74727900  1
  O  O66  1  0.18253300  0.45577100  0.26668900  1
  O  O67  1  0.14030800  0.64851100  0.68727300  1
  O  O68  1  0.75580800  0.73478100  0.75272100  1
  O  O69  1  0.77237300  0.99271800  0.90710600  1
  O  O70  1  0.40260100  0.35738300  0.51043600  1
  O  O71  1  0.59739900  0.85738300  0.98956400  1
  O  O72  1  0.32305400  0.24241100  0.41886100  1
  O  O73  1  0.45239600  0.78606100  0.40645100  1
  O  O74  1  0.20027000  0.47728500  0.93253500  1
  O  O75  1  0.54750200  0.30845600  0.77644200  1
  O  O76  1  0.98692400  0.56842600  0.86795500  1
  O  O77  1  0.64169200  0.56810200  0.93642100  1
  O  O78  1  0.74419200  0.26521900  0.25272100  1
  O  O79  1  0.25774300  0.22736900  0.65118400  1
  O  O80  1  0.72762700  0.00728200  0.40710600  1
  O  O81  1  0.38978300  0.75863300  0.05737200  1
  O  O82  1  0.50685000  0.81362000  0.56047500  1
  O  O83  1  0.76492300  0.27809100  0.89491000  1
  O  O84  1  0.30866700  0.06214200  0.89957400  1
  O  O85  1  0.40268500  0.04254200  0.04123200  1
  O  O86  1  0.95239600  0.71393900  0.59354900  1
  O  O87  1  0.48692400  0.93157400  0.13204500  1
  O  O88  1  0.51307600  0.43157400  0.36795500  1
  O  O89  1  0.88978300  0.74136700  0.94262800  1
  O  O90  1  0.74225800  0.72736900  0.84881600  1
  O  O91  1  0.95249800  0.69154400  0.27644200  1
  O  O92  1  0.85969200  0.14851100  0.81272700  1
  O  O93  1  0.27237300  0.50728200  0.09289400  1
  O  O94  1  0.71174700  0.35114400  0.68802000  1
  O  O95  1  0.78159600  0.70664000  0.50642400  1
loop_
_geom_bond_atom_site_label_1
_geom_bond_atom_site_label_2
_geom_bond_distance
_geom_bond_site_symmetry_2
O0 W14 1.844510 1_554
O0 Zr3 2.077255 1_555
O1 W12 1.902827 1_555
O1 Zr7 1.987560 1_555
O2 W8 1.839653 1_655
O2 W19 2.182914 1_555
O3 W22 1.794798 1_555
O3 W13 2.303558 1_555
O4 W2 1.902827 1_565
O4 Zr0 1.987560 1_555
O5 W19 1.829785 1_555
O5 W2 2.069027 1_555
O6 W12 1.842904 1_555
O6 W17 2.087053 1_555
O7 W17 1.815065 1_555
O7 W1 2.203364 1_555
O8 W7 1.844493 1_554
O8 Zr2 2.083559 1_555
O9 W22 1.803168 1_555
O9 Zr7 2.217344 1_555
O10 W11 1.808263 1_555
O10 W2 2.271351 1_455
O11 W1 1.844633 1_555
O11 Zr8 2.078584 1_555
O12 W13 1.852515 1_545
O12 Zr4 2.108978 1_555
O13 W11 1.852515 1_565
O13 Zr1 2.108978 1_555
O14 W6 1.839653 1_555
O14 W3 2.182914 1_555
O15 W3 1.841752 1_555
O15 Zr2 2.108624 1_655
O16 W3 1.829785 1_555
O16 W23 2.069027 1_555
O17 W5 1.834632 1_565
O17 Zr8 2.202309 1_555
O18 W20 1.829785 1_555
O18 W7 2.069027 1_555
O19 W9 1.844510 1_555
O19 Zr7 2.077255 1_555
O20 W11 1.847109 1_655
O20 Zr10 2.071821 1_555
O21 W2 1.844493 1_555
O21 Zr5 2.083559 1_555
O22 W4 1.826322 1_555
O22 Zr1 2.133711 1_555
O23 W19 1.841752 1_555
O23 Zr11 2.108624 1_555
O24 W0 1.816362 1_565
O24 Zr7 2.135444 1_555
O25 W8 1.843509 1_555
O25 Zr11 2.128642 1_555
O26 W20 1.846932 1_555
O26 Zr1 2.080927 1_555
O27 W17 1.857914 1_555
O27 Zr5 2.108677 1_555
O28 W10 1.839653 1_465
O28 W20 2.182914 1_555
O29 W9 1.857914 1_545
O29 Zr11 2.108677 1_555
O30 W1 1.839653 1_545
O30 W0 2.182914 1_555
O31 W19 1.816362 1_555
O31 Zr0 2.135444 1_555
O32 W15 1.852515 1_555
O32 Zr10 2.108978 1_555
O33 W6 1.821227 1_555
O33 Zr3 2.168042 1_555
O34 W0 1.841752 1_555
O34 Zr5 2.108624 1_455
O35 W4 1.803168 1_555
O35 Zr0 2.217344 1_555
O36 W10 1.821227 1_455
O36 Zr9 2.168042 1_555
O37 W13 1.827184 1_555
O37 Zr2 2.189098 1_555
O38 W18 1.827178 1_555
O38 Zr5 2.189101 1_555
O39 W20 1.841752 1_555
O39 Zr6 2.108624 1_555
O40 W21 1.844510 1_556
O40 Zr9 2.077255 1_555
O41 W21 1.857914 1_565
O41 Zr2 2.108677 1_555
O42 W0 1.846932 1_555
O42 Zr4 2.080927 1_555
O43 W21 1.874169 1_655
O43 Zr3 2.054601 1_555
O44 W18 1.847109 1_555
O44 Zr4 2.071821 1_555
O45 W21 1.815065 1_555
O45 W6 2.203364 1_555
O46 W18 1.852515 1_555
O46 Zr8 2.108978 1_555
O47 W3 1.846932 1_555
O47 Zr8 2.080927 1_555
O48 W23 1.902827 1_545
O48 Zr3 1.987560 1_555
O49 W2 1.874719 1_455
O49 Zr11 2.044662 1_555
O50 W4 1.834632 1_545
O50 Zr10 2.202309 1_555
O51 W17 1.874169 1_455
O51 Zr7 2.054601 1_555
O52 W3 1.816362 1_555
O52 Zr3 2.135444 1_555
O53 W12 1.874719 1_555
O53 Zr5 2.044662 1_555
O54 W15 1.847109 1_455
O54 Zr1 2.071821 1_555
O55 W2 1.842904 1_465
O55 W9 2.087053 1_555
O56 W16 1.803168 1_555
O56 Zr9 2.217344 1_555
O57 W5 1.826322 1_455
O57 Zr4 2.133711 1_555
O58 W5 1.803168 1_555
O58 Zr3 2.217344 1_555
O59 W9 1.815065 1_555
O59 W8 2.203364 1_555
O60 W6 1.844633 1_555
O60 Zr4 2.078584 1_555
O61 W7 1.842904 1_655
O61 W14 2.087053 1_555
O62 W14 1.874169 1_555
O62 Zr9 2.054601 1_555
O63 W16 1.834632 1_555
O63 Zr1 2.202309 1_555
O64 W13 1.847109 1_555
O64 Zr8 2.071821 1_555
O65 W16 1.794798 1_555
O65 W11 2.303558 1_555
O66 W22 1.834632 1_555
O66 Zr4 2.202309 1_555
O67 W8 1.844633 1_555
O67 Zr1 2.078584 1_555
O68 W4 1.794798 1_555
O68 W15 2.303558 1_555
O69 W10 1.843509 1_565
O69 Zr6 2.128642 1_555
O70 W12 1.844493 1_555
O70 Zr11 2.083559 1_555
O71 W23 1.844493 1_556
O71 Zr6 2.083559 1_555
O72 W0 1.829785 1_555
O72 W12 2.069027 1_555
O73 W1 1.821227 1_555
O73 Zr7 2.168042 1_555
O74 W7 1.902827 1_555
O74 Zr9 1.987560 1_555
O75 W16 1.826322 1_555
O75 Zr10 2.133711 1_555
O76 W15 1.808263 1_555
O76 W7 2.271351 1_655
O77 W14 1.857914 1_555
O77 Zr6 2.108677 1_555
O78 W5 1.794798 1_555
O78 W18 2.303558 1_555
O79 W11 1.827184 1_555
O79 Zr11 2.189098 1_555
O80 W1 1.843509 1_545
O80 Zr5 2.128642 1_555
O81 W23 1.874719 1_555
O81 Zr2 2.044662 1_555
O82 W9 1.874169 1_555
O82 Zr0 2.054601 1_555
O83 W14 1.815065 1_555
O83 W10 2.203364 1_555
O84 W20 1.816362 1_545
O84 Zr9 2.135444 1_555
O85 W23 1.842904 1_545
O85 W21 2.087053 1_555
O86 W8 1.821227 1_655
O86 Zr0 2.168042 1_555
O87 W13 1.808263 1_555
O87 W23 2.271351 1_555
O88 W18 1.808263 1_555
O88 W12 2.271351 1_555
O89 W7 1.874719 1_655
O89 Zr6 2.044662 1_555
O90 W15 1.827178 1_555
O90 Zr6 2.189101 1_555
O91 W22 1.826322 1_655
O91 Zr8 2.133711 1_555
O92 W10 1.844633 1_555
O92 Zr10 2.078584 1_555
O93 W6 1.843509 1_555
O93 Zr2 2.128642 1_555
O94 W19 1.846932 1_555
O94 Zr10 2.080927 1_555
O95 W17 1.844510 1_555
O95 Zr0 2.077255 1_555
