# generated using pymatgen
data_Re2SCl12
_symmetry_space_group_name_H-M   'P 1'
_cell_length_a   11.39863000
_cell_length_b   8.72758500
_cell_length_c   9.15314683
_cell_angle_alpha   85.00479003
_cell_angle_beta   90.00000000
_cell_angle_gamma   90.00000000
_symmetry_Int_Tables_number   1
_chemical_formula_structural   Re2SCl12
_chemical_formula_sum   'Re4 S2 Cl24'
_cell_volume   907.11964812
_cell_formula_units_Z   2
loop_
 _symmetry_equiv_pos_site_id
 _symmetry_equiv_pos_as_xyz
  1  'x, y, z'
loop_
 _atom_site_type_symbol
 _atom_site_label
 _atom_site_symmetry_multiplicity
 _atom_site_fract_x
 _atom_site_fract_y
 _atom_site_fract_z
 _atom_site_occupancy
  Re  Re0  1  0.25000000  0.14038400  0.62587100  1
  Re  Re1  1  0.75000000  0.63900100  0.60779000  1
  Re  Re2  1  0.75000000  0.85961600  0.37412900  1
  Re  Re3  1  0.25000000  0.36099900  0.39221000  1
  S  S0  1  0.25000000  0.83039300  0.93339300  1
  S  S1  1  0.75000000  0.16960700  0.06660700  1
  Cl  Cl0  1  0.89525700  0.61457300  0.78296300  1
  Cl  Cl1  1  0.61176000  0.17190400  0.92586000  1
  Cl  Cl2  1  0.25000000  0.62007200  0.42042100  1
  Cl  Cl3  1  0.10474300  0.38542700  0.21703700  1
  Cl  Cl4  1  0.10541400  0.95347400  0.67698200  1
  Cl  Cl5  1  0.75000000  0.37992800  0.57957900  1
  Cl  Cl6  1  0.40253800  0.32928500  0.58083500  1
  Cl  Cl7  1  0.11176000  0.82809600  0.07414000  1
  Cl  Cl8  1  0.38824000  0.82809600  0.07414000  1
  Cl  Cl9  1  0.25000000  0.61171800  0.87796700  1
  Cl  Cl10  1  0.25000000  0.19008000  0.87318800  1
  Cl  Cl11  1  0.90253800  0.67071500  0.41916500  1
  Cl  Cl12  1  0.39525700  0.38542700  0.21703700  1
  Cl  Cl13  1  0.75000000  0.38828200  0.12203300  1
  Cl  Cl14  1  0.39458600  0.95347400  0.67698200  1
  Cl  Cl15  1  0.09746200  0.32928500  0.58083500  1
  Cl  Cl16  1  0.75000000  0.80992000  0.12681200  1
  Cl  Cl17  1  0.25000000  0.08272300  0.37320000  1
  Cl  Cl18  1  0.60541400  0.04652600  0.32301800  1
  Cl  Cl19  1  0.88824000  0.17190400  0.92586000  1
  Cl  Cl20  1  0.75000000  0.91727700  0.62680000  1
  Cl  Cl21  1  0.59746200  0.67071500  0.41916500  1
  Cl  Cl22  1  0.60474300  0.61457300  0.78296300  1
  Cl  Cl23  1  0.89458600  0.04652600  0.32301800  1
loop_
_geom_bond_atom_site_label_1
_geom_bond_atom_site_label_2
_geom_bond_distance
_geom_bond_site_symmetry_2
Cl0 Re1 2.301784 1_555
Cl1 S1 2.034341 1_556
Cl2 Re3 2.298008 1_555
Cl3 Re3 2.301784 1_555
Cl4 Re0 2.337347 1_565
Cl5 Re1 2.298008 1_555
Cl6 Re0 2.406820 1_555
Cl6 Re3 2.448959 1_555
Cl7 S0 2.034341 1_554
Cl8 S0 2.034341 1_554
Cl9 S0 2.017022 1_555
Cl10 Re0 2.341702 1_555
Cl11 Re2 2.406820 1_555
Cl11 Re1 2.448959 1_555
Cl12 Re3 2.301784 1_555
Cl13 S1 2.017022 1_555
Cl14 Re0 2.337347 1_565
Cl15 Re0 2.406820 1_555
Cl15 Re3 2.448959 1_555
Cl16 Re2 2.341702 1_555
Cl17 Re0 2.409289 1_555
Cl17 Re3 2.449968 1_555
Cl18 Re2 2.337347 1_545
Cl19 S1 2.034341 1_556
Cl20 Re2 2.409289 1_555
Cl20 Re1 2.449968 1_555
Cl21 Re2 2.406820 1_555
Cl21 Re1 2.448959 1_555
Cl22 Re1 2.301784 1_555
Cl23 Re2 2.337347 1_545
