# generated using pymatgen
data_Ba3In2Br2O5
_symmetry_space_group_name_H-M   'P 1'
_cell_length_a   4.32673600
_cell_length_b   4.32673600
_cell_length_c   13.60382163
_cell_angle_alpha   99.15039473
_cell_angle_beta   99.15039473
_cell_angle_gamma   90.00000000
_symmetry_Int_Tables_number   1
_chemical_formula_structural   Ba3In2Br2O5
_chemical_formula_sum   'Ba3 In2 Br2 O5'
_cell_volume   248.14822591
_cell_formula_units_Z   1
loop_
 _symmetry_equiv_pos_site_id
 _symmetry_equiv_pos_as_xyz
  1  'x, y, z'
loop_
 _atom_site_type_symbol
 _atom_site_label
 _atom_site_symmetry_multiplicity
 _atom_site_fract_x
 _atom_site_fract_y
 _atom_site_fract_z
 _atom_site_occupancy
  Ba  Ba0  1  0.65429500  0.65429500  0.30859000  1
  Ba  Ba1  1  0.34570500  0.34570500  0.69141000  1
  Ba  Ba2  1  0.50000000  0.50000000  0.00000000  1
  In  In0  1  0.92091600  0.92091600  0.84183200  1
  In  In1  1  0.07908400  0.07908400  0.15816800  1
  Br  Br0  1  0.79555200  0.79555200  0.59110400  1
  Br  Br1  1  0.20444800  0.20444800  0.40889600  1
  O  O0  1  0.91004300  0.41004300  0.82008600  1
  O  O1  1  0.58995700  0.08995700  0.17991400  1
  O  O2  1  0.41004300  0.91004300  0.82008600  1
  O  O3  1  0.08995700  0.58995700  0.17991400  1
  O  O4  1  0.00000000  0.00000000  0.00000000  1
loop_
_geom_bond_atom_site_label_1
_geom_bond_atom_site_label_2
_geom_bond_distance
_geom_bond_site_symmetry_2
Ba0 O1 2.754882 1_555
Ba0 O3 2.754882 1_555
Ba0 O1 2.754882 1_565
Ba0 O3 2.754882 1_655
Ba0 Br1 3.335885 1_655
Ba0 Br1 3.335885 1_665
Ba0 Br1 3.335885 1_555
Ba0 Br1 3.335885 1_565
Ba0 Br0 3.744815 1_555
Ba1 O2 2.754882 1_545
Ba1 O2 2.754882 1_555
Ba1 O0 2.754882 1_455
Ba1 O0 2.754882 1_555
Ba1 Br0 3.335885 1_445
Ba1 Br0 3.335885 1_545
Ba1 Br0 3.335885 1_455
Ba1 Br0 3.335885 1_555
Ba1 Br1 3.744815 1_555
Ba2 O4 3.059464 1_655
Ba2 O4 3.059464 1_565
Ba2 O4 3.059464 1_665
Ba2 O4 3.059464 1_555
Ba2 O3 3.219863 1_555
Ba2 O2 3.219863 1_544
Ba2 O0 3.219863 1_454
Ba2 O1 3.219863 1_555
Ba2 O3 3.219863 1_655
Ba2 O1 3.219863 1_565
Ba2 O0 3.219863 1_554
Ba2 O2 3.219863 1_554
In0 O4 2.096568 1_666
In0 O2 2.182487 1_555
In0 O0 2.182487 1_555
In0 O2 2.182487 1_655
In0 O0 2.182487 1_565
In1 O4 2.096568 1_555
In1 O3 2.182487 1_555
In1 O1 2.182487 1_555
In1 O1 2.182487 1_455
In1 O3 2.182487 1_545
Br0 In0 3.323481 1_555
Br1 In1 3.323481 1_555
