# generated using pymatgen
data_AlSiP3
_symmetry_space_group_name_H-M   'P 1'
_cell_length_a   5.89959000
_cell_length_b   6.14251400
_cell_length_c   9.90648900
_cell_angle_alpha   90.00000000
_cell_angle_beta   90.00000000
_cell_angle_gamma   90.00000000
_symmetry_Int_Tables_number   1
_chemical_formula_structural   AlSiP3
_chemical_formula_sum   'Al4 Si4 P12'
_cell_volume   358.99446070
_cell_formula_units_Z   4
loop_
 _symmetry_equiv_pos_site_id
 _symmetry_equiv_pos_as_xyz
  1  'x, y, z'
loop_
 _atom_site_type_symbol
 _atom_site_label
 _atom_site_symmetry_multiplicity
 _atom_site_fract_x
 _atom_site_fract_y
 _atom_site_fract_z
 _atom_site_occupancy
  Al  Al0  1  0.00000000  0.00000000  0.00000000  1
  Al  Al1  1  0.50000000  0.50000000  0.50000000  1
  Al  Al2  1  0.50000000  0.50000000  0.00000000  1
  Al  Al3  1  0.00000000  0.00000000  0.50000000  1
  Si  Si0  1  0.99963000  0.56324800  0.75000000  1
  Si  Si1  1  0.00037000  0.43675200  0.25000000  1
  Si  Si2  1  0.50037000  0.06324800  0.25000000  1
  Si  Si3  1  0.49963000  0.93675200  0.75000000  1
  P  P0  1  0.38729400  0.58610500  0.75000000  1
  P  P1  1  0.11038400  0.60748400  0.44156800  1
  P  P2  1  0.61038400  0.89251600  0.05843200  1
  P  P3  1  0.38961600  0.10748400  0.55843200  1
  P  P4  1  0.38961600  0.10748400  0.94156800  1
  P  P5  1  0.88961600  0.39251600  0.55843200  1
  P  P6  1  0.11038400  0.60748400  0.05843200  1
  P  P7  1  0.61038400  0.89251600  0.44156800  1
  P  P8  1  0.88729400  0.91389500  0.75000000  1
  P  P9  1  0.11270600  0.08610500  0.25000000  1
  P  P10  1  0.61270600  0.41389500  0.25000000  1
  P  P11  1  0.88961600  0.39251600  0.94156800  1
loop_
_geom_bond_atom_site_label_1
_geom_bond_atom_site_label_2
_geom_bond_distance
_geom_bond_site_symmetry_2
Al0 P4 2.460572 1_554
Al0 P2 2.460572 1_445
Al0 P6 2.563640 1_545
Al0 P11 2.563640 1_454
Al0 P9 2.618303 1_555
Al0 P8 2.618303 1_444
Al1 P5 2.460572 1_555
Al1 P1 2.460572 1_555
Al1 P3 2.563640 1_555
Al1 P7 2.563640 1_555
Al1 P10 2.618303 1_555
Al1 P0 2.618303 1_555
Al2 P11 2.460572 1_554
Al2 P6 2.460572 1_555
Al2 P2 2.563640 1_555
Al2 P4 2.563640 1_554
Al2 P10 2.618303 1_555
Al2 P0 2.618303 1_554
Al3 P3 2.460572 1_555
Al3 P7 2.460572 1_445
Al3 P5 2.563640 1_455
Al3 P1 2.563640 1_545
Al3 P9 2.618303 1_555
Al3 P8 2.618303 1_445
P0 Si3 2.253510 1_555
P0 Si0 2.291364 1_455
P1 P5 2.186372 1_455
P1 Si1 2.263313 1_555
P2 P4 2.186372 1_564
P2 Si2 2.263313 1_565
P3 P7 2.186372 1_545
P3 Si3 2.263313 1_545
P4 Si3 2.263313 1_545
P5 Si0 2.263313 1_555
P6 Si1 2.263313 1_555
P7 Si2 2.263313 1_565
P8 Si0 2.253510 1_555
P8 Si3 2.291364 1_555
P9 Si1 2.253510 1_555
P9 Si2 2.291364 1_555
P10 Si2 2.253510 1_555
P10 Si1 2.291364 1_655
P11 P6 2.186372 1_656
P11 Si0 2.263313 1_555
