# generated using pymatgen
data_Al(PO3)3
_symmetry_space_group_name_H-M   'P 1'
_cell_length_a   11.09026232
_cell_length_b   11.09026232
_cell_length_c   9.32589600
_cell_angle_alpha   90.00000000
_cell_angle_beta   90.00000000
_cell_angle_gamma   120.00000193
_symmetry_Int_Tables_number   1
_chemical_formula_structural   Al(PO3)3
_chemical_formula_sum   'Al6 P18 O54'
_cell_volume   993.35579331
_cell_formula_units_Z   6
loop_
 _symmetry_equiv_pos_site_id
 _symmetry_equiv_pos_as_xyz
  1  'x, y, z'
loop_
 _atom_site_type_symbol
 _atom_site_label
 _atom_site_symmetry_multiplicity
 _atom_site_fract_x
 _atom_site_fract_y
 _atom_site_fract_z
 _atom_site_occupancy
  Al  Al0  1  0.33333300  0.66666700  0.00198000  1
  Al  Al1  1  0.66666700  0.33333300  0.49802000  1
  Al  Al2  1  0.66666700  0.33333300  0.99802000  1
  Al  Al3  1  0.33333300  0.66666700  0.50198000  1
  Al  Al4  1  0.00000000  0.00000000  0.50000000  1
  Al  Al5  1  0.00000000  0.00000000  0.00000000  1
  P  P0  1  0.00000000  0.20401500  0.25000000  1
  P  P1  1  0.79598500  0.00000000  0.75000000  1
  P  P2  1  0.15899700  0.71247100  0.25666600  1
  P  P3  1  0.20401500  0.20401500  0.75000000  1
  P  P4  1  0.71247100  0.55347400  0.74333400  1
  P  P5  1  0.84100300  0.55347400  0.24333400  1
  P  P6  1  0.15899700  0.44652600  0.75666600  1
  P  P7  1  0.44652600  0.28752900  0.24333400  1
  P  P8  1  0.79598500  0.79598500  0.25000000  1
  P  P9  1  0.20401500  0.00000000  0.25000000  1
  P  P10  1  0.44652600  0.15899700  0.74333400  1
  P  P11  1  0.00000000  0.79598500  0.75000000  1
  P  P12  1  0.55347400  0.84100300  0.25666600  1
  P  P13  1  0.71247100  0.15899700  0.24333400  1
  P  P14  1  0.28752900  0.84100300  0.75666600  1
  P  P15  1  0.28752900  0.44652600  0.25666600  1
  P  P16  1  0.55347400  0.71247100  0.75666600  1
  P  P17  1  0.84100300  0.28752900  0.74333400  1
  O  O0  1  0.18255100  0.53557200  0.88605000  1
  O  O1  1  0.53557200  0.35302100  0.11395000  1
  O  O2  1  0.48351700  0.68298700  0.61370900  1
  O  O3  1  0.88258700  0.84467700  0.38360300  1
  O  O4  1  0.31701300  0.80053000  0.61370900  1
  O  O5  1  0.67499300  0.00000000  0.25000000  1
  O  O6  1  0.76414600  0.12255900  0.71537300  1
  O  O7  1  0.84467700  0.88258700  0.11639700  1
  O  O8  1  0.18255100  0.64697900  0.38605000  1
  O  O9  1  0.46442800  0.64697900  0.88605000  1
  O  O10  1  0.48351700  0.80053000  0.11370900  1
  O  O11  1  0.19947000  0.51648300  0.61370900  1
  O  O12  1  0.03791000  0.15532300  0.11639700  1
  O  O13  1  0.35841400  0.12255900  0.21537300  1
  O  O14  1  0.51648300  0.19947000  0.88629100  1
  O  O15  1  0.53557200  0.18255100  0.61395000  1
  O  O16  1  0.32500700  0.00000000  0.75000000  1
  O  O17  1  0.31701300  0.51648300  0.11370900  1
  O  O18  1  0.67499300  0.67499300  0.75000000  1
  O  O19  1  0.87744100  0.64158600  0.71537300  1
  O  O20  1  0.15532300  0.03791000  0.38360300  1
  O  O21  1  0.80053000  0.31701300  0.88629100  1
  O  O22  1  0.12255900  0.35841400  0.28462700  1
  O  O23  1  0.00000000  0.67499300  0.25000000  1
  O  O24  1  0.64697900  0.18255100  0.11395000  1
  O  O25  1  0.35841400  0.23585400  0.71537300  1
  O  O26  1  0.81744900  0.35302100  0.61395000  1
  O  O27  1  0.87744100  0.23585400  0.21537300  1
  O  O28  1  0.81744900  0.46442800  0.11395000  1
  O  O29  1  0.64697900  0.46442800  0.61395000  1
  O  O30  1  0.96209000  0.11741300  0.38360300  1
  O  O31  1  0.35302100  0.81744900  0.88605000  1
  O  O32  1  0.35302100  0.53557200  0.38605000  1
  O  O33  1  0.23585400  0.87744100  0.28462700  1
  O  O34  1  0.03791000  0.88258700  0.61639700  1
  O  O35  1  0.51648300  0.31701300  0.38629100  1
  O  O36  1  0.46442800  0.81744900  0.38605000  1
  O  O37  1  0.80053000  0.48351700  0.38629100  1
  O  O38  1  0.64158600  0.87744100  0.78462700  1
  O  O39  1  0.76414600  0.64158600  0.21537300  1
  O  O40  1  0.32500700  0.32500700  0.25000000  1
  O  O41  1  0.68298700  0.19947000  0.38629100  1
  O  O42  1  0.11741300  0.96209000  0.11639700  1
  O  O43  1  0.00000000  0.32500700  0.75000000  1
  O  O44  1  0.64158600  0.76414600  0.28462700  1
  O  O45  1  0.15532300  0.11741300  0.88360300  1
  O  O46  1  0.23585400  0.35841400  0.78462700  1
  O  O47  1  0.84467700  0.96209000  0.61639700  1
  O  O48  1  0.12255900  0.76414600  0.78462700  1
  O  O49  1  0.19947000  0.68298700  0.11370900  1
  O  O50  1  0.11741300  0.15532300  0.61639700  1
  O  O51  1  0.88258700  0.03791000  0.88360300  1
  O  O52  1  0.96209000  0.84467700  0.88360300  1
  O  O53  1  0.68298700  0.48351700  0.88629100  1
loop_
_geom_bond_atom_site_label_1
_geom_bond_atom_site_label_2
_geom_bond_distance
_geom_bond_site_symmetry_2
Al0 O49 1.895028 1_555
Al0 O10 1.895033 1_555
Al0 O17 1.895037 1_555
Al0 O31 1.909905 1_554
Al0 O0 1.909908 1_554
Al0 O9 1.909914 1_554
Al1 O41 1.895028 1_555
Al1 O37 1.895033 1_555
Al1 O35 1.895037 1_555
Al1 O26 1.909905 1_555
Al1 O15 1.909908 1_555
Al1 O29 1.909914 1_555
Al2 O21 1.895028 1_555
Al2 O14 1.895033 1_555
Al2 O53 1.895037 1_555
Al2 O24 1.909905 1_556
Al2 O28 1.909908 1_556
Al2 O1 1.909914 1_556
Al3 O4 1.895028 1_555
Al3 O11 1.895033 1_555
Al3 O2 1.895037 1_555
Al3 O8 1.909905 1_555
Al3 O36 1.909908 1_555
Al3 O32 1.909914 1_555
Al4 O50 1.896871 1_555
Al4 O3 1.896871 1_445
Al4 O47 1.896871 1_445
Al4 O20 1.896871 1_555
Al4 O30 1.896871 1_455
Al4 O34 1.896871 1_545
Al5 O7 1.896871 1_445
Al5 O45 1.896871 1_554
Al5 O12 1.896871 1_555
Al5 O52 1.896871 1_444
Al5 O42 1.896871 1_545
Al5 O51 1.896871 1_454
O0 P6 1.497147 1_555
O1 P7 1.497147 1_555
O2 P16 1.494185 1_555
O3 P8 1.499281 1_555
O4 P14 1.494185 1_555
O5 P12 1.597813 1_545
O5 P13 1.597813 1_555
O6 P1 1.598862 1_555
O6 P17 1.606973 1_555
O7 P8 1.499281 1_555
O8 P2 1.497147 1_555
O9 P16 1.497147 1_555
O10 P12 1.494185 1_555
O11 P6 1.494185 1_555
O12 P0 1.499281 1_555
O13 P9 1.598870 1_555
O13 P7 1.606972 1_555
O14 P10 1.494185 1_555
O15 P10 1.497147 1_555
O16 P10 1.597813 1_555
O16 P14 1.597813 1_545
O17 P15 1.494185 1_555
O18 P16 1.597813 1_555
O18 P4 1.597813 1_555
O19 P11 1.598870 1_655
O19 P4 1.606972 1_555
O20 P9 1.499281 1_555
O21 P17 1.494185 1_555
O22 P0 1.598870 1_555
O22 P15 1.606972 1_555
O23 P5 1.597813 1_455
O23 P2 1.597813 1_555
O24 P13 1.497147 1_555
O25 P3 1.598873 1_555
O25 P10 1.606963 1_555
O26 P17 1.497147 1_555
O27 P0 1.598862 1_655
O27 P13 1.606973 1_555
O28 P5 1.497147 1_555
O29 P4 1.497147 1_555
O30 P0 1.499281 1_655
O31 P14 1.497147 1_555
O32 P15 1.497147 1_555
O33 P9 1.598862 1_565
O33 P2 1.606973 1_555
O34 P11 1.499281 1_555
O35 P7 1.494185 1_555
O36 P12 1.497147 1_555
O37 P5 1.494185 1_555
O38 P1 1.598870 1_565
O38 P16 1.606972 1_555
O39 P8 1.598873 1_555
O39 P5 1.606963 1_555
O40 P15 1.597813 1_555
O40 P7 1.597813 1_555
O41 P13 1.494185 1_555
O42 P9 1.499281 1_565
O43 P6 1.597813 1_555
O43 P17 1.597813 1_455
O44 P8 1.598873 1_555
O44 P12 1.606963 1_555
O45 P3 1.499281 1_555
O46 P3 1.598873 1_555
O46 P6 1.606963 1_555
O47 P1 1.499281 1_565
O48 P11 1.598862 1_555
O48 P14 1.606973 1_555
O49 P2 1.494185 1_555
O50 P3 1.499281 1_555
O51 P1 1.499281 1_555
O52 P11 1.499281 1_655
O53 P4 1.494185 1_555
