# generated using pymatgen
data_Dy(IO3)3
_symmetry_space_group_name_H-M   'P 1'
_cell_length_a   7.03242960
_cell_length_b   8.43473504
_cell_length_c   13.26002472
_cell_angle_alpha   90.00000000
_cell_angle_beta   99.79678536
_cell_angle_gamma   90.00000000
_symmetry_Int_Tables_number   1
_chemical_formula_structural   Dy(IO3)3
_chemical_formula_sum   'Dy4 I12 O36'
_cell_volume   775.07087711
_cell_formula_units_Z   4
loop_
 _symmetry_equiv_pos_site_id
 _symmetry_equiv_pos_as_xyz
  1  'x, y, z'
loop_
 _atom_site_type_symbol
 _atom_site_label
 _atom_site_symmetry_multiplicity
 _atom_site_fract_x
 _atom_site_fract_y
 _atom_site_fract_z
 _atom_site_occupancy
  Dy  Dy0  1  0.82713155  0.74269277  0.35471990  1
  Dy  Dy1  1  0.17286845  0.25730723  0.64528010  1
  Dy  Dy2  1  0.17286845  0.24269277  0.14528010  1
  Dy  Dy3  1  0.82713155  0.75730723  0.85471990  1
  I  I0  1  0.33110751  0.95933929  0.35864629  1
  I  I1  1  0.33110751  0.54066071  0.85864629  1
  I  I2  1  0.66889249  0.45933929  0.14135371  1
  I  I3  1  0.83445283  0.20940802  0.38790699  1
  I  I4  1  0.16554717  0.70940802  0.11209301  1
  I  I5  1  0.27094764  0.01940112  0.88895368  1
  I  I6  1  0.66889249  0.04066071  0.64135371  1
  I  I7  1  0.72905236  0.51940112  0.61104632  1
  I  I8  1  0.27094764  0.48059888  0.38895368  1
  I  I9  1  0.72905236  0.98059888  0.11104632  1
  I  I10  1  0.16554717  0.79059198  0.61209301  1
  I  I11  1  0.83445283  0.29059198  0.88790699  1
  O  O0  1  0.15322258  0.97367468  0.68305502  1
  O  O1  1  0.67695812  0.57657088  0.47805563  1
  O  O2  1  0.77145159  0.78872266  0.17577071  1
  O  O3  1  0.14947358  0.69476938  0.82382609  1
  O  O4  1  0.98136158  0.47429186  0.61262822  1
  O  O5  1  0.65703539  0.53049379  0.26959005  1
  O  O6  1  0.22854841  0.28872266  0.32422929  1
  O  O7  1  0.22854841  0.21127734  0.82422929  1
  O  O8  1  0.01863842  0.97429186  0.88737178  1
  O  O9  1  0.53334528  0.82815166  0.36535117  1
  O  O10  1  0.34296461  0.03049379  0.23040995  1
  O  O11  1  0.96641102  0.83176117  0.50993932  1
  O  O12  1  0.77145159  0.71127734  0.67577071  1
  O  O13  1  0.85052642  0.30523062  0.17617391  1
  O  O14  1  0.84677742  0.47367468  0.81694498  1
  O  O15  1  0.32304188  0.42342912  0.52194437  1
  O  O16  1  0.67695812  0.92342912  0.97805563  1
  O  O17  1  0.53334528  0.67184834  0.86535117  1
  O  O18  1  0.96641102  0.66823883  0.00993932  1
  O  O19  1  0.36637751  0.66488552  0.04688881  1
  O  O20  1  0.34296461  0.46950621  0.73040995  1
  O  O21  1  0.03358898  0.33176117  0.99006068  1
  O  O22  1  0.46665472  0.17184834  0.63464883  1
  O  O23  1  0.36637751  0.83511448  0.54688881  1
  O  O24  1  0.63362249  0.33511448  0.95311119  1
  O  O25  1  0.98136158  0.02570814  0.11262822  1
  O  O26  1  0.84677742  0.02632532  0.31694498  1
  O  O27  1  0.15322258  0.52632532  0.18305502  1
  O  O28  1  0.46665472  0.32815166  0.13464883  1
  O  O29  1  0.14947358  0.80523062  0.32382609  1
  O  O30  1  0.01863842  0.52570814  0.38737178  1
  O  O31  1  0.63362249  0.16488552  0.45311119  1
  O  O32  1  0.03358898  0.16823883  0.49006068  1
  O  O33  1  0.85052642  0.19476938  0.67617391  1
  O  O34  1  0.65703539  0.96950621  0.76959005  1
  O  O35  1  0.32304188  0.07657088  0.02194437  1
loop_
_geom_bond_atom_site_label_1
_geom_bond_atom_site_label_2
_geom_bond_distance
_geom_bond_site_symmetry_2
Dy0 O9 2.215188 1_555
Dy0 O11 2.252546 1_555
Dy0 O30 2.269900 1_655
Dy0 O5 2.334338 1_555
Dy0 O2 2.370313 1_555
Dy0 O29 2.429131 1_655
Dy0 O26 2.452947 1_565
Dy0 O1 2.518148 1_555
Dy1 O22 2.215188 1_555
Dy1 O32 2.252546 1_555
Dy1 O4 2.269900 1_455
Dy1 O20 2.334338 1_555
Dy1 O7 2.370313 1_555
Dy1 O33 2.429131 1_455
Dy1 O0 2.452947 1_545
Dy1 O15 2.518148 1_555
Dy2 O28 2.215188 1_555
Dy2 O21 2.252546 1_554
Dy2 O25 2.269900 1_455
Dy2 O10 2.334338 1_555
Dy2 O6 2.370313 1_555
Dy2 O13 2.429131 1_455
Dy2 O27 2.452947 1_555
Dy2 O35 2.518148 1_555
Dy3 O17 2.215188 1_555
Dy3 O18 2.252546 1_556
Dy3 O8 2.269900 1_655
Dy3 O34 2.334338 1_555
Dy3 O12 2.370313 1_555
Dy3 O3 2.429131 1_655
Dy3 O14 2.452947 1_555
Dy3 O16 2.518148 1_555
I0 O9 1.792207 1_555
I0 O10 1.818468 1_565
I0 O29 1.825842 1_555
I1 O17 1.792207 1_555
I1 O20 1.818468 1_555
I1 O3 1.825842 1_555
I2 O28 1.792207 1_555
I2 O5 1.818468 1_555
I2 O13 1.825842 1_555
I3 O32 1.808597 1_655
I3 O31 1.816258 1_555
I3 O26 1.818073 1_555
I4 O18 1.808597 1_455
I4 O19 1.816258 1_555
I4 O27 1.818073 1_555
I5 O35 1.804627 1_556
I5 O8 1.811312 1_545
I5 O7 1.832405 1_555
I6 O22 1.792207 1_555
I6 O34 1.818468 1_545
I6 O33 1.825842 1_555
I7 O1 1.804627 1_555
I7 O4 1.811312 1_555
I7 O12 1.832405 1_555
I8 O15 1.804627 1_555
I8 O30 1.811312 1_555
I8 O6 1.832405 1_555
I9 O16 1.804627 1_554
I9 O25 1.811312 1_565
I9 O2 1.832405 1_555
I10 O11 1.808597 1_455
I10 O23 1.816258 1_555
I10 O0 1.818073 1_555
I11 O21 1.808597 1_655
I11 O24 1.816258 1_555
I11 O14 1.818073 1_555
