# generated using pymatgen
data_CsIn3
_symmetry_space_group_name_H-M   'P 1'
_cell_length_a   7.14329112
_cell_length_b   7.14329123
_cell_length_c   9.85136941
_cell_angle_alpha   111.25708200
_cell_angle_beta   111.25708464
_cell_angle_gamma   89.99999612
_symmetry_Int_Tables_number   1
_chemical_formula_structural   CsIn3
_chemical_formula_sum   'Cs3 In9'
_cell_volume   431.57824842
_cell_formula_units_Z   3
loop_
 _symmetry_equiv_pos_site_id
 _symmetry_equiv_pos_as_xyz
  1  'x, y, z'
loop_
 _atom_site_type_symbol
 _atom_site_label
 _atom_site_symmetry_multiplicity
 _atom_site_fract_x
 _atom_site_fract_y
 _atom_site_fract_z
 _atom_site_occupancy
  Cs  Cs0  1  0.00000000  -0.00000000  0.00000000  1
  Cs  Cs1  1  0.62745343  0.12745343  0.25490685  1
  Cs  Cs2  1  0.87254657  0.37254657  0.74509315  1
  In  In0  1  0.50000000  0.50000000  0.00000000  1
  In  In1  1  0.30576066  0.60903435  0.21806771  1
  In  In2  1  0.39096565  0.69423934  0.78193229  1
  In  In3  1  0.39096565  0.08769195  0.78193229  1
  In  In4  1  0.91230805  0.60903435  0.21806771  1
  In  In5  1  0.57228672  0.77928240  0.55856381  1
  In  In6  1  0.22071760  0.42771328  0.44143619  1
  In  In7  1  0.22071760  0.01372291  0.44143619  1
  In  In8  1  0.98627709  0.77928240  0.55856381  1
loop_
_geom_bond_atom_site_label_1
_geom_bond_atom_site_label_2
_geom_bond_distance
_geom_bond_site_symmetry_2
Cs0 In5 4.015756 1_444
Cs0 In7 4.015756 1_555
Cs0 In6 4.015756 1_555
Cs0 In8 4.015756 1_444
Cs0 Cs1 4.171917 1_555
Cs0 Cs2 4.171917 1_454
Cs0 Cs1 4.171917 1_455
Cs0 Cs2 4.171917 1_444
Cs0 In4 4.258310 1_445
Cs0 In3 4.258310 1_554
Cs0 In1 4.258313 1_545
Cs0 In2 4.258313 1_544
Cs0 In3 4.258316 1_454
Cs0 In4 4.258316 1_455
Cs0 In2 4.258319 1_444
Cs0 In1 4.258319 1_555
Cs1 Cs2 4.145950 1_555
Cs1 In0 4.171917 1_555
Cs1 In0 4.171917 1_545
Cs1 In7 4.175157 1_655
Cs1 In6 4.175157 1_655
Cs1 In6 4.175163 1_555
Cs1 In7 4.175163 1_555
Cs1 In1 4.188898 1_545
Cs1 In4 4.188901 1_545
Cs1 In1 4.188904 1_555
Cs1 In4 4.188908 1_555
Cs1 In3 4.240021 1_554
Cs1 In2 4.240023 1_544
Cs2 In0 4.171917 1_656
Cs2 In0 4.171917 1_556
Cs2 In8 4.175157 1_545
Cs2 In5 4.175157 1_545
Cs2 In5 4.175163 1_555
Cs2 In8 4.175163 1_555
Cs2 In2 4.188898 1_655
Cs2 In3 4.188901 1_655
Cs2 In2 4.188904 1_555
Cs2 In3 4.188907 1_555
Cs2 In4 4.240021 1_556
Cs2 In1 4.240023 1_656
In0 In2 2.845163 1_554
In0 In1 2.845163 1_555
In0 In4 2.845168 1_555
In0 In3 2.845168 1_554
In1 In4 2.810547 1_455
In1 In5 2.960865 1_555
In1 In7 3.150351 1_565
In1 In6 3.150356 1_555
In2 In3 2.810547 1_565
In2 In6 2.960865 1_555
In2 In8 3.150351 1_455
In2 In5 3.150356 1_555
In3 In7 2.960866 1_555
In3 In8 3.150345 1_445
In3 In5 3.150350 1_545
In4 In8 2.960866 1_555
In4 In7 3.150345 1_665
In4 In6 3.150350 1_655
In5 In8 2.957254 1_555
In5 In7 3.121354 1_565
In5 In6 3.121359 1_555
In6 In7 2.957254 1_555
In6 In8 3.121354 1_455
In7 In8 3.121349 1_445
