# generated using pymatgen
data_Na11U5O16
_symmetry_space_group_name_H-M   'P 1'
_cell_length_a   9.68445100
_cell_length_b   9.68445100
_cell_length_c   9.68445100
_cell_angle_alpha   90.00000000
_cell_angle_beta   90.00000000
_cell_angle_gamma   90.00000000
_symmetry_Int_Tables_number   1
_chemical_formula_structural   Na11U5O16
_chemical_formula_sum   'Na22 U10 O32'
_cell_volume   908.29101556
_cell_formula_units_Z   2
loop_
 _symmetry_equiv_pos_site_id
 _symmetry_equiv_pos_as_xyz
  1  'x, y, z'
loop_
 _atom_site_type_symbol
 _atom_site_label
 _atom_site_symmetry_multiplicity
 _atom_site_fract_x
 _atom_site_fract_y
 _atom_site_fract_z
 _atom_site_occupancy
  Na  Na0  1  0.75000000  0.75000000  0.75000000  1
  Na  Na1  1  0.25000000  0.75000000  0.25000000  1
  Na  Na2  1  0.25000000  0.25000000  0.75000000  1
  Na  Na3  1  0.75000000  0.25000000  0.25000000  1
  Na  Na4  1  0.25000000  0.00000000  0.50000000  1
  Na  Na5  1  0.75000000  0.00000000  0.50000000  1
  Na  Na6  1  0.00000000  0.50000000  0.25000000  1
  Na  Na7  1  0.00000000  0.50000000  0.75000000  1
  Na  Na8  1  0.50000000  0.75000000  0.00000000  1
  Na  Na9  1  0.50000000  0.25000000  0.00000000  1
  Na  Na10  1  0.23428500  0.00000000  0.00000000  1
  Na  Na11  1  0.73428500  0.50000000  0.50000000  1
  Na  Na12  1  0.50000000  0.50000000  0.26571500  1
  Na  Na13  1  0.50000000  0.50000000  0.73428500  1
  Na  Na14  1  0.50000000  0.73428500  0.50000000  1
  Na  Na15  1  0.50000000  0.26571500  0.50000000  1
  Na  Na16  1  0.00000000  0.23428500  0.00000000  1
  Na  Na17  1  0.00000000  0.00000000  0.23428500  1
  Na  Na18  1  0.00000000  0.76571500  0.00000000  1
  Na  Na19  1  0.00000000  0.00000000  0.76571500  1
  Na  Na20  1  0.76571500  0.00000000  0.00000000  1
  Na  Na21  1  0.26571500  0.50000000  0.50000000  1
  U  U0  1  0.25000000  0.25000000  0.25000000  1
  U  U1  1  0.75000000  0.25000000  0.75000000  1
  U  U2  1  0.75000000  0.75000000  0.25000000  1
  U  U3  1  0.25000000  0.75000000  0.75000000  1
  U  U4  1  0.25000000  0.50000000  0.00000000  1
  U  U5  1  0.75000000  0.50000000  0.00000000  1
  U  U6  1  0.50000000  0.00000000  0.25000000  1
  U  U7  1  0.50000000  0.00000000  0.75000000  1
  U  U8  1  0.00000000  0.75000000  0.50000000  1
  U  U9  1  0.00000000  0.25000000  0.50000000  1
  O  O0  1  0.00000000  0.00000000  0.00000000  1
  O  O1  1  0.50000000  0.50000000  0.50000000  1
  O  O2  1  0.00000000  0.50000000  0.50000000  1
  O  O3  1  0.50000000  0.00000000  0.00000000  1
  O  O4  1  0.00000000  0.00000000  0.50000000  1
  O  O5  1  0.00000000  0.50000000  0.00000000  1
  O  O6  1  0.50000000  0.00000000  0.50000000  1
  O  O7  1  0.50000000  0.50000000  0.00000000  1
  O  O8  1  0.75097100  0.27381400  0.98279300  1
  O  O9  1  0.25097100  0.51720700  0.77381400  1
  O  O10  1  0.25097100  0.48279300  0.22618600  1
  O  O11  1  0.48279300  0.77381400  0.74902900  1
  O  O12  1  0.51720700  0.77381400  0.25097100  1
  O  O13  1  0.22618600  0.25097100  0.48279300  1
  O  O14  1  0.77381400  0.74902900  0.48279300  1
  O  O15  1  0.98279300  0.75097100  0.27381400  1
  O  O16  1  0.27381400  0.98279300  0.75097100  1
  O  O17  1  0.72618600  0.01720700  0.75097100  1
  O  O18  1  0.98279300  0.24902900  0.72618600  1
  O  O19  1  0.72618600  0.98279300  0.24902900  1
  O  O20  1  0.01720700  0.24902900  0.27381400  1
  O  O21  1  0.01720700  0.75097100  0.72618600  1
  O  O22  1  0.27381400  0.01720700  0.24902900  1
  O  O23  1  0.75097100  0.72618600  0.01720700  1
  O  O24  1  0.24902900  0.27381400  0.01720700  1
  O  O25  1  0.24902900  0.72618600  0.98279300  1
  O  O26  1  0.77381400  0.25097100  0.51720700  1
  O  O27  1  0.22618600  0.74902900  0.51720700  1
  O  O28  1  0.48279300  0.22618600  0.25097100  1
  O  O29  1  0.51720700  0.22618600  0.74902900  1
  O  O30  1  0.74902900  0.48279300  0.77381400  1
  O  O31  1  0.74902900  0.51720700  0.22618600  1
loop_
_geom_bond_atom_site_label_1
_geom_bond_atom_site_label_2
_geom_bond_distance
_geom_bond_site_symmetry_2
Na0 O30 2.598027 1_555
Na0 O14 2.598027 1_555
Na0 O11 2.598027 1_555
Na0 O17 2.598027 1_565
Na0 O21 2.598027 1_655
Na0 O23 2.598027 1_556
Na1 O22 2.598027 1_565
Na1 O27 2.598027 1_555
Na1 O12 2.598027 1_555
Na1 O15 2.598027 1_455
Na1 O25 2.598027 1_554
Na1 O10 2.598027 1_555
Na2 O29 2.598027 1_555
Na2 O18 2.598027 1_455
Na2 O16 2.598027 1_545
Na2 O24 2.598027 1_556
Na2 O9 2.598027 1_555
Na2 O13 2.598027 1_555
Na3 O20 2.598027 1_655
Na3 O31 2.598027 1_555
Na3 O8 2.598027 1_554
Na3 O28 2.598027 1_555
Na3 O19 2.598027 1_545
Na3 O26 2.598027 1_555
Na4 O6 2.421113 1_555
Na4 O4 2.421113 1_555
Na4 O27 2.447114 1_545
Na4 O13 2.447114 1_555
Na4 O22 2.447114 1_555
Na4 O16 2.447114 1_545
Na5 O4 2.421113 1_655
Na5 O6 2.421113 1_555
Na5 O26 2.447114 1_555
Na5 O14 2.447114 1_545
Na5 O17 2.447114 1_555
Na5 O19 2.447114 1_545
Na6 O2 2.421113 1_555
Na6 O5 2.421113 1_555
Na6 O10 2.447114 1_555
Na6 O20 2.447114 1_555
Na6 O15 2.447114 1_455
Na6 O31 2.447114 1_455
Na7 O2 2.421113 1_555
Na7 O5 2.421113 1_556
Na7 O30 2.447114 1_455
Na7 O21 2.447114 1_555
Na7 O18 2.447114 1_455
Na7 O9 2.447114 1_555
Na8 O3 2.421113 1_565
Na8 O7 2.421113 1_555
Na8 O23 2.447114 1_555
Na8 O11 2.447114 1_554
Na8 O12 2.447114 1_555
Na8 O25 2.447114 1_554
Na9 O3 2.421113 1_555
Na9 O7 2.421113 1_555
Na9 O29 2.447114 1_554
Na9 O8 2.447114 1_554
Na9 O24 2.447114 1_555
Na9 O28 2.447114 1_555
Na10 O0 2.268922 1_555
Na10 O16 2.447582 1_544
Na10 O22 2.447582 1_555
Na10 O3 2.573304 1_555
Na10 O24 2.660803 1_555
Na10 O25 2.660803 1_544
Na11 O1 2.268922 1_555
Na11 O26 2.447582 1_555
Na11 O14 2.447582 1_555
Na11 O2 2.573304 1_655
Na11 O31 2.660803 1_555
Na11 O30 2.660803 1_555
Na12 O1 2.268922 1_555
Na12 O31 2.447582 1_555
Na12 O10 2.447582 1_555
Na12 O7 2.573304 1_555
Na12 O28 2.660803 1_555
Na12 O12 2.660803 1_555
Na13 O1 2.268922 1_555
Na13 O30 2.447582 1_555
Na13 O9 2.447582 1_555
Na13 O7 2.573304 1_556
Na13 O29 2.660803 1_555
Na13 O11 2.660803 1_555
Na14 O1 2.268922 1_555
Na14 O11 2.447582 1_555
Na14 O12 2.447582 1_555
Na14 O6 2.573304 1_565
Na14 O14 2.660803 1_555
Na14 O27 2.660803 1_555
Na15 O1 2.268922 1_555
Na15 O29 2.447582 1_555
Na15 O28 2.447582 1_555
Na15 O6 2.573304 1_555
Na15 O13 2.660803 1_555
Na15 O26 2.660803 1_555
Na16 O0 2.268922 1_555
Na16 O8 2.447582 1_454
Na16 O24 2.447582 1_555
Na16 O5 2.573304 1_555
Na16 O20 2.660803 1_555
Na16 O18 2.660803 1_454
Na17 O0 2.268922 1_555
Na17 O15 2.447582 1_445
Na17 O20 2.447582 1_555
Na17 O4 2.573304 1_555
Na17 O19 2.660803 1_445
Na17 O22 2.660803 1_555
Na18 O0 2.268922 1_565
Na18 O25 2.447582 1_554
Na18 O23 2.447582 1_455
Na18 O5 2.573304 1_555
Na18 O21 2.660803 1_554
Na18 O15 2.660803 1_455
Na19 O0 2.268922 1_556
Na19 O18 2.447582 1_455
Na19 O21 2.447582 1_545
Na19 O4 2.573304 1_555
Na19 O16 2.660803 1_545
Na19 O17 2.660803 1_455
Na20 O0 2.268922 1_655
Na20 O17 2.447582 1_554
Na20 O19 2.447582 1_545
Na20 O3 2.573304 1_555
Na20 O8 2.660803 1_554
Na20 O23 2.660803 1_545
Na21 O1 2.268922 1_555
Na21 O27 2.447582 1_555
Na21 O13 2.447582 1_555
Na21 O2 2.573304 1_555
Na21 O9 2.660803 1_555
Na21 O10 2.660803 1_555
O2 U9 2.421113 1_555
O2 U8 2.421113 1_555
O3 U7 2.421113 1_554
O3 U6 2.421113 1_555
O4 U9 2.421113 1_555
O4 U8 2.421113 1_545
O5 U5 2.421113 1_455
O5 U4 2.421113 1_555
O6 U6 2.421113 1_555
O6 U7 2.421113 1_555
O7 U5 2.421113 1_555
O7 U4 2.421113 1_555
O8 U5 2.196837 1_556
O8 U1 2.266257 1_555
O9 U4 2.196837 1_556
O9 U3 2.266257 1_555
O10 U4 2.196837 1_555
O10 U0 2.266257 1_555
O11 U7 2.196837 1_565
O11 U3 2.266257 1_555
O12 U6 2.196837 1_565
O12 U2 2.266257 1_555
O13 U9 2.196837 1_555
O13 U0 2.266257 1_555
O14 U8 2.196837 1_655
O14 U2 2.266257 1_555
O15 U8 2.196837 1_655
O15 U2 2.266257 1_555
O16 U7 2.196837 1_565
O16 U3 2.266257 1_555
O17 U7 2.196837 1_555
O17 U1 2.266257 1_555
O18 U9 2.196837 1_655
O18 U1 2.266257 1_555
O19 U6 2.196837 1_565
O19 U2 2.266257 1_555
O20 U9 2.196837 1_555
O20 U0 2.266257 1_555
O21 U8 2.196837 1_555
O21 U3 2.266257 1_555
O22 U6 2.196837 1_555
O22 U0 2.266257 1_555
O23 U5 2.196837 1_555
O23 U2 2.266257 1_555
O24 U4 2.196837 1_555
O24 U0 2.266257 1_555
O25 U4 2.196837 1_556
O25 U3 2.266257 1_555
O26 U9 2.196837 1_655
O26 U1 2.266257 1_555
O27 U8 2.196837 1_555
O27 U3 2.266257 1_555
O28 U6 2.196837 1_555
O28 U0 2.266257 1_555
O29 U7 2.196837 1_555
O29 U1 2.266257 1_555
O30 U5 2.196837 1_556
O30 U1 2.266257 1_555
O31 U5 2.196837 1_555
O31 U2 2.266257 1_555
