# generated using pymatgen
data_Y2WO6
_symmetry_space_group_name_H-M   'P 1'
_cell_length_a   5.34517835
_cell_length_b   7.63113137
_cell_length_c   11.37056694
_cell_angle_alpha   75.49457358
_cell_angle_beta   90.00000000
_cell_angle_gamma   90.00000000
_symmetry_Int_Tables_number   1
_chemical_formula_structural   Y2WO6
_chemical_formula_sum   'Y8 W4 O24'
_cell_volume   449.01846596
_cell_formula_units_Z   4
loop_
 _symmetry_equiv_pos_site_id
 _symmetry_equiv_pos_as_xyz
  1  'x, y, z'
loop_
 _atom_site_type_symbol
 _atom_site_label
 _atom_site_symmetry_multiplicity
 _atom_site_fract_x
 _atom_site_fract_y
 _atom_site_fract_z
 _atom_site_occupancy
  Y  Y0  1  0.18671539  0.79671891  0.07786249  1
  Y  Y1  1  0.26113223  -0.00000000  0.75000000  1
  Y  Y2  1  0.73886777  -0.00000000  0.25000000  1
  Y  Y3  1  0.31749807  0.50000000  0.75000000  1
  Y  Y4  1  0.18671539  0.20328109  0.42213751  1
  Y  Y5  1  0.68250193  0.50000000  0.25000000  1
  Y  Y6  1  0.81328461  0.20328109  0.92213751  1
  Y  Y7  1  0.81328461  0.79671891  0.57786249  1
  W  W0  1  0.74586939  0.72203050  0.88627333  1
  W  W1  1  0.25413061  0.72203050  0.38627333  1
  W  W2  1  0.74586939  0.27796950  0.61372667  1
  W  W3  1  0.25413061  0.27796950  0.11372667  1
  O  O0  1  0.84637969  0.36590455  0.45205351  1
  O  O1  1  0.47426703  0.84994209  0.92988871  1
  O  O2  1  0.84637969  0.63409545  0.04794649  1
  O  O3  1  0.01537318  0.28912304  0.72834036  1
  O  O4  1  0.98462682  0.28912304  0.22834036  1
  O  O5  1  0.15362031  0.36590455  0.95205351  1
  O  O6  1  0.64258982  0.49035970  0.88695052  1
  O  O7  1  0.52573297  0.15005791  0.07011129  1
  O  O8  1  0.15362031  0.63409545  0.54794649  1
  O  O9  1  0.01537318  0.71087696  0.77165964  1
  O  O10  1  0.46139119  0.21326594  0.27169927  1
  O  O11  1  0.04027548  0.93733232  0.39627454  1
  O  O12  1  0.47426703  0.15005791  0.57011129  1
  O  O13  1  0.98462682  0.71087696  0.27165964  1
  O  O14  1  0.95972452  0.06266768  0.60372546  1
  O  O15  1  0.53860881  0.21326594  0.77169927  1
  O  O16  1  0.53860881  0.78673406  0.72830073  1
  O  O17  1  0.04027548  0.06266768  0.10372546  1
  O  O18  1  0.64258982  0.50964030  0.61304948  1
  O  O19  1  0.35741018  0.50964030  0.11304948  1
  O  O20  1  0.46139119  0.78673406  0.22830073  1
  O  O21  1  0.35741018  0.49035970  0.38695052  1
  O  O22  1  0.52573297  0.84994209  0.42988871  1
  O  O23  1  0.95972452  0.93733232  0.89627454  1
loop_
_geom_bond_atom_site_label_1
_geom_bond_atom_site_label_2
_geom_bond_distance
_geom_bond_site_symmetry_2
O0 W2 1.870930 1_555
O0 Y4 2.275212 1_655
O0 Y5 2.432090 1_555
O1 W0 1.883840 1_555
O1 Y0 2.239644 1_556
O1 Y1 2.370576 1_565
O2 W0 1.870930 1_554
O2 Y0 2.275212 1_655
O2 Y5 2.432090 1_555
O3 W2 1.958666 1_455
O3 Y3 2.335969 1_555
O3 Y6 2.393453 1_455
O3 Y1 2.526259 1_555
O4 W3 1.958666 1_655
O4 Y5 2.335969 1_555
O4 Y4 2.393453 1_655
O4 Y2 2.526259 1_555
O5 W3 1.870930 1_556
O5 Y6 2.275212 1_455
O5 Y3 2.432090 1_555
O6 W0 1.850271 1_555
O6 Y6 2.313607 1_555
O6 Y3 2.322159 1_555
O7 W3 1.883840 1_555
O7 Y6 2.239644 1_554
O7 Y2 2.370576 1_555
O8 W1 1.870930 1_555
O8 Y7 2.275212 1_455
O8 Y3 2.432090 1_555
O9 W0 1.958666 1_455
O9 Y3 2.335969 1_555
O9 Y7 2.393453 1_455
O9 Y1 2.526259 1_565
O10 W3 2.062353 1_555
O10 Y4 2.241014 1_555
O10 Y2 2.260625 1_555
O10 Y5 2.444395 1_555
O11 W1 2.027962 1_555
O11 Y4 2.262074 1_565
O11 Y2 2.278627 1_465
O11 Y7 2.403514 1_455
O12 W2 1.883840 1_555
O12 Y4 2.239644 1_555
O12 Y1 2.370576 1_555
O13 W1 1.958666 1_655
O13 Y5 2.335969 1_555
O13 Y0 2.393453 1_655
O13 Y2 2.526259 1_565
O14 W2 2.027962 1_555
O14 Y7 2.262074 1_545
O14 Y1 2.278627 1_655
O14 Y4 2.403514 1_655
O15 W2 2.062353 1_555
O15 Y6 2.241014 1_555
O15 Y1 2.260625 1_555
O15 Y3 2.444395 1_555
O16 W0 2.062353 1_555
O16 Y7 2.241014 1_555
O16 Y1 2.260625 1_565
O16 Y3 2.444395 1_555
O17 W3 2.027962 1_555
O17 Y0 2.262074 1_545
O17 Y2 2.278627 1_455
O17 Y6 2.403514 1_454
O18 W2 1.850271 1_555
O18 Y7 2.313607 1_555
O18 Y3 2.322159 1_555
O19 W3 1.850271 1_555
O19 Y0 2.313607 1_555
O19 Y5 2.322159 1_555
O20 W1 2.062353 1_555
O20 Y0 2.241014 1_555
O20 Y2 2.260625 1_565
O20 Y5 2.444395 1_555
O21 W1 1.850271 1_555
O21 Y4 2.313607 1_555
O21 Y5 2.322159 1_555
O22 W1 1.883840 1_555
O22 Y7 2.239644 1_555
O22 Y2 2.370576 1_565
O23 W0 2.027962 1_555
O23 Y6 2.262074 1_565
O23 Y1 2.278627 1_665
O23 Y0 2.403514 1_656
