# generated using pymatgen
data_Ba2LaAg5S6
_symmetry_space_group_name_H-M   'P 1'
_cell_length_a   7.39357728
_cell_length_b   7.39357728
_cell_length_c   11.34352461
_cell_angle_alpha   85.04973553
_cell_angle_beta   85.04973553
_cell_angle_gamma   33.72379229
_symmetry_Int_Tables_number   1
_chemical_formula_structural   Ba2LaAg5S6
_chemical_formula_sum   'Ba2 La1 Ag5 S6'
_cell_volume   342.86733063
_cell_formula_units_Z   1
loop_
 _symmetry_equiv_pos_site_id
 _symmetry_equiv_pos_as_xyz
  1  'x, y, z'
loop_
 _atom_site_type_symbol
 _atom_site_label
 _atom_site_symmetry_multiplicity
 _atom_site_fract_x
 _atom_site_fract_y
 _atom_site_fract_z
 _atom_site_occupancy
  Ba  Ba0  1  0.74914300  0.74914300  0.70729200  1
  Ba  Ba1  1  0.25085700  0.25085700  0.29270800  1
  La  La0  1  0.50000000  0.50000000  0.50000000  1
  Ag  Ag0  1  0.64863800  0.64863800  0.03515000  1
  Ag  Ag1  1  0.35136200  0.35136200  0.96485000  1
  Ag  Ag2  1  0.01907200  0.01907200  0.74447900  1
  Ag  Ag3  1  0.98092800  0.98092800  0.25552100  1
  Ag  Ag4  1  0.00000000  0.00000000  0.00000000  1
  S  S0  1  0.41365700  0.41365700  0.74218900  1
  S  S1  1  0.15736200  0.15736200  0.89878100  1
  S  S2  1  0.84263800  0.84263800  0.10121900  1
  S  S3  1  0.58634300  0.58634300  0.25781100  1
  S  S4  1  0.86882200  0.86882200  0.44880300  1
  S  S5  1  0.13117800  0.13117800  0.55119700  1
loop_
_geom_bond_atom_site_label_1
_geom_bond_atom_site_label_2
_geom_bond_distance
_geom_bond_site_symmetry_2
Ba0 S0 3.215957 1_655
Ba0 S0 3.215957 1_565
Ba0 S1 3.239734 1_565
Ba0 S1 3.239734 1_655
Ba0 S4 3.251228 1_555
Ba0 S5 3.324835 1_565
Ba0 S5 3.324835 1_655
Ba1 S3 3.215957 1_545
Ba1 S3 3.215957 1_455
Ba1 S2 3.239734 1_545
Ba1 S2 3.239734 1_455
Ba1 S5 3.251228 1_555
Ba1 S4 3.324835 1_545
Ba1 S4 3.324835 1_455
La0 S0 2.904334 1_555
La0 S3 2.904334 1_555
La0 S4 2.928677 1_545
La0 S5 2.928677 1_565
La0 S5 2.928677 1_655
La0 S4 2.928677 1_455
Ag0 S3 2.599054 1_555
Ag0 S1 2.640668 1_564
Ag0 S1 2.640668 1_654
Ag0 S2 2.910292 1_555
Ag1 S0 2.599054 1_555
Ag1 S2 2.640668 1_546
Ag1 S2 2.640668 1_456
Ag1 S1 2.910292 1_555
Ag2 S5 2.587787 1_555
Ag2 S0 2.613896 1_545
Ag2 S0 2.613896 1_455
Ag2 S1 2.740658 1_555
Ag3 S4 2.587787 1_555
Ag3 S3 2.613896 1_565
Ag3 S3 2.613896 1_655
Ag3 S2 2.740658 1_555
Ag4 S1 2.411696 1_554
Ag4 S2 2.411696 1_445
