# generated using pymatgen
data_Ba(Fe2O3)9
_symmetry_space_group_name_H-M   'P 1'
_cell_length_a   6.02248834
_cell_length_b   6.02248834
_cell_length_c   33.12366700
_cell_angle_alpha   90.00000000
_cell_angle_beta   90.00000000
_cell_angle_gamma   120.00000379
_symmetry_Int_Tables_number   1
_chemical_formula_structural   Ba(Fe2O3)9
_chemical_formula_sum   'Ba2 Fe36 O54'
_cell_volume   1040.44939359
_cell_formula_units_Z   2
loop_
 _symmetry_equiv_pos_site_id
 _symmetry_equiv_pos_as_xyz
  1  'x, y, z'
loop_
 _atom_site_type_symbol
 _atom_site_label
 _atom_site_symmetry_multiplicity
 _atom_site_fract_x
 _atom_site_fract_y
 _atom_site_fract_z
 _atom_site_occupancy
  Ba  Ba0  1  0.00000000  0.00000000  0.75000000  1
  Ba  Ba1  1  0.00000000  0.00000000  0.25000000  1
  Fe  Fe0  1  0.66666700  0.33333300  0.59666700  1
  Fe  Fe1  1  0.33355300  0.16677700  0.14988700  1
  Fe  Fe2  1  0.00000000  0.00000000  0.94442000  1
  Fe  Fe3  1  0.83322300  0.16677700  0.14988700  1
  Fe  Fe4  1  0.33333300  0.66666700  0.75000000  1
  Fe  Fe5  1  0.00000000  0.00000000  0.55558000  1
  Fe  Fe6  1  0.16677700  0.33355300  0.64988700  1
  Fe  Fe7  1  0.66666700  0.33333300  0.90333300  1
  Fe  Fe8  1  0.33333300  0.66666700  0.20787000  1
  Fe  Fe9  1  0.83322300  0.16677700  0.35011300  1
  Fe  Fe10  1  0.50000000  0.00000000  0.50000000  1
  Fe  Fe11  1  0.00000000  0.50000000  0.50000000  1
  Fe  Fe12  1  0.33333300  0.66666700  0.09666700  1
  Fe  Fe13  1  0.50000000  0.50000000  0.00000000  1
  Fe  Fe14  1  0.16677700  0.83322300  0.85011300  1
  Fe  Fe15  1  0.33333300  0.66666700  0.40333300  1
  Fe  Fe16  1  0.66666700  0.33333300  0.79213000  1
  Fe  Fe17  1  0.00000000  0.00000000  0.44442000  1
  Fe  Fe18  1  0.33355300  0.16677700  0.35011300  1
  Fe  Fe19  1  0.66666700  0.33333300  0.42662600  1
  Fe  Fe20  1  0.50000000  0.00000000  0.00000000  1
  Fe  Fe21  1  0.33333300  0.66666700  0.57337400  1
  Fe  Fe22  1  0.66666700  0.33333300  0.25000000  1
  Fe  Fe23  1  0.50000000  0.50000000  0.50000000  1
  Fe  Fe24  1  0.83322300  0.66644700  0.35011300  1
  Fe  Fe25  1  0.33333300  0.66666700  0.92662600  1
  Fe  Fe26  1  0.66644700  0.83322300  0.85011300  1
  Fe  Fe27  1  0.83322300  0.66644700  0.14988700  1
  Fe  Fe28  1  0.00000000  0.00000000  0.05558000  1
  Fe  Fe29  1  0.66666700  0.33333300  0.70787000  1
  Fe  Fe30  1  0.00000000  0.50000000  0.00000000  1
  Fe  Fe31  1  0.16677700  0.83322300  0.64988700  1
  Fe  Fe32  1  0.66644700  0.83322300  0.64988700  1
  Fe  Fe33  1  0.16677700  0.33355300  0.85011300  1
  Fe  Fe34  1  0.66666700  0.33333300  0.07337400  1
  Fe  Fe35  1  0.33333300  0.66666700  0.29213000  1
  O  O0  1  0.32597900  0.16298900  0.82136300  1
  O  O1  1  0.48869800  0.97739600  0.61050600  1
  O  O2  1  0.00000000  0.00000000  0.11246900  1
  O  O3  1  0.17491300  0.82508700  0.53440300  1
  O  O4  1  0.65017400  0.82508700  0.53440300  1
  O  O5  1  0.67402100  0.83701100  0.17863700  1
  O  O6  1  0.48869800  0.97739600  0.88949400  1
  O  O7  1  0.97739600  0.48869800  0.38949400  1
  O  O8  1  0.48390500  0.96781100  0.25000000  1
  O  O9  1  0.83701100  0.16298900  0.67863700  1
  O  O10  1  0.67402100  0.83701100  0.32136300  1
  O  O11  1  0.51130200  0.48869800  0.11050600  1
  O  O12  1  0.48869800  0.51130200  0.61050600  1
  O  O13  1  0.51130200  0.48869800  0.38949400  1
  O  O14  1  0.00000000  0.00000000  0.38753100  1
  O  O15  1  0.66666700  0.33333300  0.31925500  1
  O  O16  1  0.66666700  0.33333300  0.18074500  1
  O  O17  1  0.51130200  0.02260400  0.38949400  1
  O  O18  1  0.65017400  0.82508700  0.96559700  1
  O  O19  1  0.82508700  0.65017400  0.46559700  1
  O  O20  1  0.17491300  0.82508700  0.96559700  1
  O  O21  1  0.96781100  0.48390500  0.75000000  1
  O  O22  1  0.16298900  0.83701100  0.32136300  1
  O  O23  1  0.32597900  0.16298900  0.67863700  1
  O  O24  1  0.51130200  0.02260400  0.11050600  1
  O  O25  1  0.34982600  0.17491300  0.46559700  1
  O  O26  1  0.00000000  0.00000000  0.61246900  1
  O  O27  1  0.16298900  0.83701100  0.17863700  1
  O  O28  1  0.03218900  0.51609500  0.25000000  1
  O  O29  1  0.48390500  0.51609500  0.25000000  1
  O  O30  1  0.82508700  0.65017400  0.03440300  1
  O  O31  1  0.66666700  0.33333300  0.96603400  1
  O  O32  1  0.16298900  0.32597900  0.17863700  1
  O  O33  1  0.48869800  0.51130200  0.88949400  1
  O  O34  1  0.82508700  0.17491300  0.46559700  1
  O  O35  1  0.83701100  0.67402100  0.82136300  1
  O  O36  1  0.33333300  0.66666700  0.81925500  1
  O  O37  1  0.16298900  0.32597900  0.32136300  1
  O  O38  1  0.17491300  0.34982600  0.53440300  1
  O  O39  1  0.51609500  0.03218900  0.75000000  1
  O  O40  1  0.17491300  0.34982600  0.96559700  1
  O  O41  1  0.33333300  0.66666700  0.68074500  1
  O  O42  1  0.83701100  0.67402100  0.67863700  1
  O  O43  1  0.00000000  0.00000000  0.88753100  1
  O  O44  1  0.82508700  0.17491300  0.03440300  1
  O  O45  1  0.33333300  0.66666700  0.03396600  1
  O  O46  1  0.02260400  0.51130200  0.61050600  1
  O  O47  1  0.66666700  0.33333300  0.53396600  1
  O  O48  1  0.51609500  0.48390500  0.75000000  1
  O  O49  1  0.34982600  0.17491300  0.03440300  1
  O  O50  1  0.33333300  0.66666700  0.46603400  1
  O  O51  1  0.02260400  0.51130200  0.88949400  1
  O  O52  1  0.97739600  0.48869800  0.11050600  1
  O  O53  1  0.83701100  0.16298900  0.82136300  1
loop_
_geom_bond_atom_site_label_1
_geom_bond_atom_site_label_2
_geom_bond_distance
_geom_bond_site_symmetry_2
Ba0 O53 2.911732 1_455
Ba0 O9 2.911732 1_455
Ba0 O0 2.911735 1_555
Ba0 O35 2.911735 1_445
Ba0 O23 2.911735 1_555
Ba0 O42 2.911735 1_445
Ba0 O39 3.015918 1_455
Ba0 O21 3.015918 1_455
Ba0 O48 3.015921 1_555
Ba0 O48 3.015921 1_445
Ba0 O21 3.015924 1_445
Ba0 O39 3.015924 1_555
Ba1 O27 2.911732 1_545
Ba1 O22 2.911732 1_545
Ba1 O37 2.911735 1_555
Ba1 O5 2.911735 1_445
Ba1 O32 2.911735 1_555
Ba1 O10 2.911735 1_445
Ba1 O28 3.015918 1_545
Ba1 O8 3.015918 1_545
Ba1 O29 3.015921 1_555
Ba1 O29 3.015921 1_445
Ba1 O28 3.015924 1_555
Ba1 O8 3.015924 1_445
Fe0 O1 1.912192 1_545
Fe0 O46 1.912192 1_655
Fe0 O12 1.912198 1_555
Fe0 O47 2.076887 1_555
Fe1 O27 1.966275 1_545
Fe1 O32 1.966275 1_555
Fe1 O16 2.015764 1_555
Fe1 O11 2.128592 1_555
Fe1 O24 2.128596 1_555
Fe1 O2 2.136043 1_555
Fe2 O43 1.884372 1_555
Fe2 O18 1.954757 1_445
Fe2 O40 1.954757 1_555
Fe2 O20 1.954757 1_545
Fe3 O5 1.966275 1_545
Fe3 O32 1.966275 1_655
Fe3 O16 2.015755 1_555
Fe3 O52 2.128592 1_555
Fe3 O24 2.128592 1_555
Fe3 O2 2.136048 1_655
Fe4 O21 1.906427 1_455
Fe4 O39 1.906427 1_565
Fe4 O48 1.906437 1_555
Fe4 O36 2.293980 1_555
Fe4 O41 2.293980 1_555
Fe5 O26 1.884372 1_555
Fe5 O4 1.954757 1_445
Fe5 O38 1.954757 1_555
Fe5 O3 1.954757 1_545
Fe6 O9 1.966275 1_455
Fe6 O23 1.966275 1_555
Fe6 O41 2.015764 1_555
Fe6 O12 2.128592 1_555
Fe6 O46 2.128596 1_555
Fe6 O26 2.136043 1_555
Fe7 O6 1.912192 1_545
Fe7 O51 1.912192 1_655
Fe7 O33 1.912198 1_555
Fe7 O31 2.076887 1_555
Fe8 O5 2.023609 1_555
Fe8 O32 2.023609 1_555
Fe8 O27 2.023609 1_555
Fe8 O28 2.101042 1_555
Fe8 O8 2.101042 1_555
Fe8 O29 2.101042 1_555
Fe9 O10 1.966275 1_545
Fe9 O37 1.966275 1_655
Fe9 O15 2.015755 1_555
Fe9 O7 2.128592 1_555
Fe9 O17 2.128592 1_555
Fe9 O14 2.136048 1_655
Fe10 O3 2.044251 1_545
Fe10 O34 2.044251 1_555
Fe10 O4 2.044251 1_545
Fe10 O25 2.044251 1_555
Fe10 O50 2.070827 1_545
Fe10 O47 2.070827 1_555
Fe11 O3 2.044251 1_555
Fe11 O34 2.044251 1_455
Fe11 O38 2.044251 1_555
Fe11 O19 2.044251 1_455
Fe11 O50 2.070827 1_555
Fe11 O47 2.070827 1_455
Fe12 O52 1.912192 1_455
Fe12 O24 1.912192 1_565
Fe12 O11 1.912198 1_555
Fe12 O45 2.076887 1_555
Fe13 O40 2.044251 1_554
Fe13 O18 2.044251 1_554
Fe13 O30 2.044251 1_555
Fe13 O49 2.044251 1_555
Fe13 O45 2.070832 1_555
Fe13 O31 2.070832 1_554
Fe14 O35 1.966275 1_455
Fe14 O0 1.966275 1_565
Fe14 O36 2.015755 1_555
Fe14 O51 2.128592 1_555
Fe14 O6 2.128592 1_555
Fe14 O43 2.136048 1_565
Fe15 O7 1.912192 1_455
Fe15 O17 1.912192 1_565
Fe15 O13 1.912198 1_555
Fe15 O50 2.076887 1_555
Fe16 O0 2.023609 1_555
Fe16 O35 2.023609 1_555
Fe16 O53 2.023609 1_555
Fe16 O39 2.101042 1_555
Fe16 O21 2.101042 1_555
Fe16 O48 2.101042 1_555
Fe17 O14 1.884372 1_555
Fe17 O19 1.954757 1_445
Fe17 O25 1.954757 1_555
Fe17 O34 1.954757 1_455
Fe18 O22 1.966275 1_545
Fe18 O37 1.966275 1_555
Fe18 O15 2.015764 1_555
Fe18 O13 2.128592 1_555
Fe18 O17 2.128596 1_555
Fe18 O14 2.136043 1_555
Fe19 O17 2.034519 1_555
Fe19 O7 2.034519 1_555
Fe19 O13 2.034523 1_555
Fe19 O34 2.096937 1_555
Fe19 O25 2.096942 1_555
Fe19 O19 2.096942 1_555
Fe20 O20 2.044251 1_544
Fe20 O44 2.044251 1_555
Fe20 O18 2.044251 1_544
Fe20 O49 2.044251 1_555
Fe20 O45 2.070827 1_545
Fe20 O31 2.070827 1_554
Fe21 O1 2.034519 1_555
Fe21 O46 2.034519 1_555
Fe21 O12 2.034523 1_555
Fe21 O3 2.096937 1_555
Fe21 O38 2.096942 1_555
Fe21 O4 2.096942 1_555
Fe22 O28 1.906427 1_655
Fe22 O8 1.906427 1_545
Fe22 O29 1.906437 1_555
Fe22 O16 2.293980 1_555
Fe22 O15 2.293980 1_555
Fe23 O38 2.044251 1_555
Fe23 O4 2.044251 1_555
Fe23 O19 2.044251 1_555
Fe23 O25 2.044251 1_555
Fe23 O50 2.070832 1_555
Fe23 O47 2.070832 1_555
Fe24 O22 1.966275 1_655
Fe24 O10 1.966275 1_555
Fe24 O15 2.015764 1_555
Fe24 O13 2.128592 1_555
Fe24 O7 2.128596 1_555
Fe24 O14 2.136043 1_665
Fe25 O51 2.034519 1_555
Fe25 O6 2.034519 1_555
Fe25 O33 2.034523 1_555
Fe25 O20 2.096937 1_555
Fe25 O40 2.096942 1_555
Fe25 O18 2.096942 1_555
Fe26 O53 1.966275 1_565
Fe26 O35 1.966275 1_555
Fe26 O36 2.015764 1_555
Fe26 O33 2.128592 1_555
Fe26 O6 2.128596 1_555
Fe26 O43 2.136043 1_665
Fe27 O27 1.966275 1_655
Fe27 O5 1.966275 1_555
Fe27 O16 2.015764 1_555
Fe27 O11 2.128592 1_555
Fe27 O52 2.128596 1_555
Fe27 O2 2.136043 1_665
Fe28 O2 1.884372 1_555
Fe28 O30 1.954757 1_445
Fe28 O49 1.954757 1_555
Fe28 O44 1.954757 1_455
Fe29 O23 2.023609 1_555
Fe29 O42 2.023609 1_555
Fe29 O9 2.023609 1_555
Fe29 O39 2.101042 1_555
Fe29 O21 2.101042 1_555
Fe29 O48 2.101042 1_555
Fe30 O20 2.044251 1_554
Fe30 O44 2.044251 1_455
Fe30 O40 2.044251 1_554
Fe30 O30 2.044251 1_455
Fe30 O45 2.070827 1_555
Fe30 O31 2.070827 1_454
Fe31 O23 1.966275 1_565
Fe31 O42 1.966275 1_455
Fe31 O41 2.015755 1_555
Fe31 O46 2.128592 1_555
Fe31 O1 2.128592 1_555
Fe31 O26 2.136048 1_565
Fe32 O9 1.966275 1_565
Fe32 O42 1.966275 1_555
Fe32 O41 2.015764 1_555
Fe32 O12 2.128592 1_555
Fe32 O1 2.128596 1_555
Fe32 O26 2.136043 1_665
Fe33 O53 1.966275 1_455
Fe33 O0 1.966275 1_555
Fe33 O36 2.015764 1_555
Fe33 O33 2.128592 1_555
Fe33 O51 2.128596 1_555
Fe33 O43 2.136043 1_555
Fe34 O24 2.034519 1_555
Fe34 O52 2.034519 1_555
Fe34 O11 2.034523 1_555
Fe34 O44 2.096937 1_555
Fe34 O30 2.096942 1_555
Fe34 O49 2.096942 1_555
Fe35 O37 2.023609 1_555
Fe35 O10 2.023609 1_555
Fe35 O22 2.023609 1_555
Fe35 O28 2.101042 1_555
Fe35 O8 2.101042 1_555
Fe35 O29 2.101042 1_555
