# generated using pymatgen
data_Na2(WO3)17
_symmetry_space_group_name_H-M   'P 1'
_cell_length_a   65.40260009
_cell_length_b   15.86187532
_cell_length_c   8.60297303
_cell_angle_alpha   29.80584549
_cell_angle_beta   26.56558187
_cell_angle_gamma   14.03827222
_symmetry_Int_Tables_number   1
_chemical_formula_structural   Na2(WO3)17
_chemical_formula_sum   'Na2 W17 O51'
_cell_volume   968.18465541
_cell_formula_units_Z   1
loop_
 _symmetry_equiv_pos_site_id
 _symmetry_equiv_pos_as_xyz
  1  'x, y, z'
loop_
 _atom_site_type_symbol
 _atom_site_label
 _atom_site_symmetry_multiplicity
 _atom_site_fract_x
 _atom_site_fract_y
 _atom_site_fract_z
 _atom_site_occupancy
  Na  Na0  1  0.47050800  0.00026100  0.00016900  1
  Na  Na1  1  0.94125700  0.99972400  0.99985500  1
  W  W0  1  0.02992700  0.49756900  0.50251900  1
  W  W1  1  0.08941700  0.49751000  0.49477900  1
  W  W2  1  0.14804400  0.49827900  0.49758300  1
  W  W3  1  0.20588700  0.49998800  0.49998700  1
  W  W4  1  0.26371400  0.50174300  0.50244900  1
  W  W5  1  0.32234700  0.50250900  0.50521600  1
  W  W6  1  0.38184000  0.50242900  0.49750200  1
  W  W7  1  0.44007600  0.50508000  0.49997000  1
  W  W8  1  0.50057200  0.49560400  0.50248200  1
  W  W9  1  0.55896100  0.49776200  0.50438300  1
  W  W10  1  0.61852900  0.49707900  0.49708400  1
  W  W11  1  0.67681900  0.49986100  0.49854500  1
  W  W12  1  0.73494800  0.50014500  0.50144500  1
  W  W13  1  0.79323600  0.50292500  0.50289900  1
  W  W14  1  0.85279900  0.50225200  0.49562400  1
  W  W15  1  0.91118900  0.50441300  0.49751600  1
  W  W16  1  0.97169100  0.49491300  0.50004100  1
  O  O0  1  0.02871000  0.99955700  0.50449700  1
  O  O1  1  0.02847800  0.50476800  0.00051600  1
  O  O2  1  0.08824300  0.99968600  0.50040000  1
  O  O3  1  0.99943400  0.50449600  0.49563000  1
  O  O4  1  0.08688800  0.50453900  0.00004200  1
  O  O5  1  0.14703400  0.99987600  0.50039600  1
  O  O6  1  0.05892200  0.49954000  0.50001100  1
  O  O7  1  0.20588200  0.00000300  0.49999800  1
  O  O8  1  0.14710500  0.49981600  0.99981600  1
  O  O9  1  0.11600300  0.50448900  0.50476000  1
  O  O10  1  0.26472900  0.00012400  0.49959000  1
  O  O11  1  0.20588200  0.50000100  0.99999900  1
  O  O12  1  0.17658800  0.49969000  0.49978700  1
  O  O13  1  0.32352300  0.00030600  0.49961700  1
  O  O14  1  0.26465900  0.50017300  0.00018900  1
  O  O15  1  0.23518000  0.50029400  0.50020900  1
  O  O16  1  0.32487900  0.49546100  0.99995000  1
  O  O17  1  0.38306000  0.00043300  0.49550200  1
  O  O18  1  0.29575600  0.49553500  0.49524400  1
  O  O19  1  0.44149500  0.99996200  0.49526700  1
  O  O20  1  0.38328900  0.49522400  0.99947000  1
  O  O21  1  0.35284700  0.50043900  0.49997800  1
  O  O22  1  0.49968500  0.00030100  0.50443500  1
  O  O23  1  0.44113300  0.50021900  0.99983600  1
  O  O24  1  0.41232300  0.49553600  0.50436000  1
  O  O25  1  0.50008800  0.49998900  0.99950300  1
  O  O26  1  0.55816500  0.99959900  0.50407500  1
  O  O27  1  0.47062200  0.50005700  0.49963900  1
  O  O28  1  0.61746800  0.00045800  0.50050600  1
  O  O29  1  0.55792900  0.50499500  0.99987300  1
  O  O30  1  0.52895400  0.50448200  0.49507000  1
  O  O31  1  0.61641100  0.50434300  0.99962100  1
  O  O32  1  0.67651200  0.99973700  0.50027100  1
  O  O33  1  0.58836100  0.49957800  0.49981400  1
  O  O34  1  0.73525600  0.00025400  0.49972400  1
  O  O35  1  0.67634300  0.50038500  0.00013000  1
  O  O36  1  0.64553700  0.50416800  0.50457000  1
  O  O37  1  0.73542200  0.49961800  0.99985800  1
  O  O38  1  0.79429800  0.99954200  0.49950500  1
  O  O39  1  0.70587900  0.50001700  0.49999200  1
  O  O40  1  0.79535300  0.49566400  0.00037400  1
  O  O41  1  0.85359600  0.00040700  0.49590700  1
  O  O42  1  0.76623500  0.49580200  0.49541400  1
  O  O43  1  0.91207800  0.99970700  0.49557100  1
  O  O44  1  0.85383500  0.49499700  0.00013600  1
  O  O45  1  0.82340100  0.50042800  0.50019900  1
  O  O46  1  0.97027100  0.00003500  0.50474500  1
  O  O47  1  0.91167600  0.50001200  0.00050600  1
  O  O48  1  0.88281200  0.49550700  0.50494500  1
  O  O49  1  0.97063100  0.49977800  0.00015600  1
  O  O50  1  0.94114700  0.49992900  0.50034400  1
loop_
_geom_bond_atom_site_label_1
_geom_bond_atom_site_label_2
_geom_bond_distance
_geom_bond_site_symmetry_2
Na0 O18 2.694413 1_555
Na0 O17 2.694788 1_555
Na0 O20 2.694970 1_554
Na0 O16 2.695018 1_554
Na0 O29 2.695162 1_544
Na0 O30 2.695200 1_545
Na0 O19 2.695747 1_545
Na0 O22 2.696171 1_554
Na0 O24 2.696298 1_554
Na0 O26 2.697053 1_544
Na0 O31 2.697658 1_544
Na0 O36 2.698067 1_544
Na1 O9 2.694361 1_655
Na1 O1 2.694989 1_656
Na1 O0 2.695005 1_655
Na1 O4 2.695059 1_656
Na1 O44 2.695129 1_566
Na1 O48 2.695235 1_565
Na1 O46 2.695668 1_565
Na1 O3 2.696078 1_556
Na1 O43 2.696182 1_556
Na1 O41 2.697124 1_566
Na1 O40 2.697682 1_566
Na1 O42 2.697917 1_566
O0 W2 1.929280 1_555
O0 W15 1.942891 1_465
O1 W16 1.922389 1_455
O1 W1 1.946073 1_554
O2 W16 1.905450 1_465
O2 W3 1.922647 1_555
O3 W16 1.928415 1_555
O3 W0 1.941101 1_655
O4 W2 1.933688 1_554
O4 W0 1.933728 1_555
O5 W0 1.915014 1_565
O5 W4 1.916728 1_555
O6 W0 1.907420 1_555
O6 W1 1.923077 1_555
O7 W5 1.914270 1_545
O7 W1 1.914320 1_555
O8 W1 1.904360 1_556
O8 W3 1.923061 1_555
O9 W1 1.923559 1_555
O9 W2 1.945122 1_555
O10 W6 1.915017 1_545
O10 W2 1.916815 1_555
O11 W4 1.914402 1_555
O11 W2 1.914534 1_556
O12 W2 1.905550 1_555
O12 W3 1.922356 1_555
O13 W7 1.905446 1_545
O13 W3 1.922585 1_555
O14 W5 1.904399 1_554
O14 W3 1.922942 1_555
O15 W4 1.905759 1_555
O15 W3 1.922256 1_555
O16 W6 1.933613 1_555
O16 W4 1.933842 1_556
O17 W4 1.929405 1_555
O17 W8 1.942790 1_545
O18 W5 1.923739 1_555
O18 W4 1.945004 1_555
O19 W9 1.932748 1_555
O19 W5 1.934064 1_565
O20 W7 1.922296 1_555
O20 W5 1.946112 1_556
O21 W6 1.907827 1_555
O21 W5 1.922743 1_555
O22 W6 1.932475 1_555
O22 W10 1.936608 1_545
O23 W8 1.913651 1_555
O23 W6 1.914813 1_556
O24 W7 1.928627 1_555
O24 W6 1.940728 1_555
O25 W9 1.904974 1_555
O25 W7 1.925621 1_556
O26 W11 1.923117 1_555
O26 W7 1.945102 1_565
O27 W8 1.912269 1_555
O27 W7 1.918044 1_555
O28 W8 1.905177 1_555
O28 W12 1.925032 1_545
O29 W8 1.934301 1_556
O29 W10 1.934882 1_555
O30 W9 1.931294 1_555
O30 W8 1.936351 1_555
O31 W11 1.928115 1_555
O31 W9 1.942370 1_556
O32 W13 1.911590 1_555
O32 W9 1.916288 1_565
O33 W10 1.913657 1_555
O33 W9 1.915718 1_555
O34 W10 1.911641 1_555
O34 W14 1.916199 1_545
O35 W10 1.912059 1_555
O35 W12 1.918676 1_554
O36 W10 1.933489 1_555
O36 W11 1.933497 1_555
O37 W13 1.912078 1_555
O37 W11 1.918685 1_556
O38 W15 1.905111 1_555
O38 W11 1.925055 1_565
O39 W11 1.914143 1_555
O39 W12 1.914346 1_555
O40 W12 1.928094 1_555
O40 W14 1.942325 1_554
O41 W12 1.923111 1_555
O41 W16 1.945147 1_545
O42 W12 1.933225 1_555
O42 W13 1.933549 1_555
O43 W0 1.932519 1_655
O43 W13 1.936589 1_565
O44 W15 1.934347 1_554
O44 W13 1.934783 1_555
O45 W13 1.913722 1_555
O45 W14 1.915664 1_555
O46 W14 1.932816 1_555
O46 W1 1.933980 1_645
O47 W14 1.904966 1_555
O47 W16 1.925613 1_554
O48 W14 1.931365 1_555
O48 W15 1.936327 1_555
O49 W15 1.913675 1_555
O49 W0 1.914705 1_654
O50 W15 1.912200 1_555
O50 W16 1.918236 1_555
