# generated using pymatgen
data_Y3(B3Os4)2
_symmetry_space_group_name_H-M   'P 1'
_cell_length_a   10.05528267
_cell_length_b   9.26282391
_cell_length_c   5.52924738
_cell_angle_alpha   81.43030018
_cell_angle_beta   65.63071988
_cell_angle_gamma   32.93897994
_symmetry_Int_Tables_number   1
_chemical_formula_structural   Y3(B3Os4)2
_chemical_formula_sum   'Y3 B6 Os8'
_cell_volume   233.97192571
_cell_formula_units_Z   1
loop_
 _symmetry_equiv_pos_site_id
 _symmetry_equiv_pos_as_xyz
  1  'x, y, z'
loop_
 _atom_site_type_symbol
 _atom_site_label
 _atom_site_symmetry_multiplicity
 _atom_site_fract_x
 _atom_site_fract_y
 _atom_site_fract_z
 _atom_site_occupancy
  Y  Y0  1  0.00000000  0.00000000  0.00000000  1
  Y  Y1  1  0.17970700  0.17970700  0.82029300  1
  Y  Y2  1  0.82029300  0.82029300  0.17970700  1
  B  B0  1  0.82394900  0.52647000  0.47353000  1
  B  B1  1  0.17605100  0.47353000  0.52647000  1
  B  B2  1  0.47353000  0.17605100  0.82394900  1
  B  B3  1  0.68197900  0.31802100  0.68197900  1
  B  B4  1  0.52647000  0.82394900  0.17605100  1
  B  B5  1  0.31802100  0.68197900  0.31802100  1
  Os  Os0  1  0.42025300  0.42025300  0.57974700  1
  Os  Os1  1  0.59027000  0.59027000  0.90973000  1
  Os  Os2  1  0.09027000  0.09027000  0.40973000  1
  Os  Os3  1  0.90973000  0.90973000  0.59027000  1
  Os  Os4  1  0.57974700  0.57974700  0.42025300  1
  Os  Os5  1  0.25000000  0.25000000  0.25000000  1
  Os  Os6  1  0.40973000  0.40973000  0.09027000  1
  Os  Os7  1  0.75000000  0.75000000  0.75000000  1
loop_
_geom_bond_atom_site_label_1
_geom_bond_atom_site_label_2
_geom_bond_distance
_geom_bond_site_symmetry_2
Y0 Y1 3.177675 1_554
Y0 Y2 3.177675 1_445
B0 Os7 2.144259 1_555
B0 Os5 2.144259 1_655
B0 Os4 2.208963 1_555
B0 Os2 2.259363 1_655
B0 Os1 2.259363 1_555
B0 Y2 2.934555 1_555
B0 Y1 3.109392 1_565
B0 Y1 3.109392 1_654
B1 Os5 2.144259 1_555
B1 Os7 2.144259 1_455
B1 Os0 2.208963 1_555
B1 Os6 2.259363 1_555
B1 Os3 2.259363 1_455
B1 Y1 2.934555 1_555
B1 Y2 3.109392 1_456
B1 Y2 3.109392 1_545
B2 Os7 2.144259 1_545
B2 Os5 2.144259 1_556
B2 Os0 2.208963 1_555
B2 Os3 2.259363 1_545
B2 Os6 2.259363 1_556
B2 Y1 2.934555 1_555
B2 Y2 3.109392 1_545
B2 Y2 3.109392 1_456
B3 Os3 2.209164 1_545
B3 Os6 2.209164 1_556
B3 Os2 2.209164 1_655
B3 Os1 2.209164 1_555
B3 Os0 2.242167 1_555
B3 Os4 2.242167 1_555
B3 Y0 3.046415 1_656
B3 Y0 3.266609 1_566
B3 Y0 3.266609 1_655
B4 Os7 2.144259 1_554
B4 Os5 2.144259 1_565
B4 Os4 2.208963 1_555
B4 Os1 2.259363 1_554
B4 Os2 2.259363 1_565
B4 Y2 2.934555 1_555
B4 Y1 3.109392 1_654
B4 Y1 3.109392 1_565
B5 Os6 2.209164 1_555
B5 Os3 2.209164 1_455
B5 Os2 2.209164 1_565
B5 Os1 2.209164 1_554
B5 Os0 2.242167 1_555
B5 Os4 2.242167 1_555
B5 Y0 3.046415 1_565
B5 Y0 3.266609 1_566
B5 Y0 3.266609 1_655
Os0 Y0 3.101669 1_566
Os0 Y0 3.101669 1_655
Os0 Y2 3.279650 1_456
Os0 Y2 3.279650 1_545
Os1 Y1 3.184996 1_655
Os1 Y1 3.184996 1_565
Os1 Y0 3.192336 1_656
Os1 Y0 3.192336 1_566
Os2 Y1 3.184996 1_555
Os2 Y1 3.184996 1_554
Os2 Y0 3.192336 1_556
Os2 Y0 3.192336 1_555
Os3 Y2 3.184996 1_556
Os3 Y2 3.184996 1_555
Os3 Y0 3.192336 1_666
Os3 Y0 3.192336 1_665
Os4 Y0 3.101669 1_566
Os4 Y0 3.101669 1_655
Os4 Y1 3.279650 1_565
Os4 Y1 3.279650 1_654
Os5 Y2 3.031186 1_545
Os5 Y2 3.031186 1_455
Os5 Y1 3.031186 1_555
Os5 Y1 3.031186 1_554
Os6 Y2 3.184996 1_545
Os6 Y2 3.184996 1_455
Os6 Y0 3.192336 1_655
Os6 Y0 3.192336 1_565
Os7 Y2 3.031186 1_556
Os7 Y1 3.031186 1_655
Os7 Y2 3.031186 1_555
Os7 Y1 3.031186 1_565
