# generated using pymatgen
data_NaLiTi3O7
_symmetry_space_group_name_H-M   'P 1'
_cell_length_a   10.06311714
_cell_length_b   10.06311714
_cell_length_c   11.54493000
_cell_angle_alpha   90.00000000
_cell_angle_beta   90.00000000
_cell_angle_gamma   111.43828377
_symmetry_Int_Tables_number   1
_chemical_formula_structural   NaLiTi3O7
_chemical_formula_sum   'Na8 Li8 Ti24 O56'
_cell_volume   1088.22385702
_cell_formula_units_Z   8
loop_
 _symmetry_equiv_pos_site_id
 _symmetry_equiv_pos_as_xyz
  1  'x, y, z'
loop_
 _atom_site_type_symbol
 _atom_site_label
 _atom_site_symmetry_multiplicity
 _atom_site_fract_x
 _atom_site_fract_y
 _atom_site_fract_z
 _atom_site_occupancy
  Na  Na0  1  0.38040300  0.38040300  0.12478600  1
  Na  Na1  1  0.88107100  0.88107100  0.87057600  1
  Na  Na2  1  0.61892900  0.61892900  0.37057600  1
  Na  Na3  1  0.11959700  0.11959700  0.62478600  1
  Na  Na4  1  0.61959700  0.61959700  0.87521400  1
  Na  Na5  1  0.88040300  0.88040300  0.37521400  1
  Na  Na6  1  0.11892900  0.11892900  0.12942400  1
  Na  Na7  1  0.38107100  0.38107100  0.62942400  1
  Li  Li0  1  0.56632800  0.93346300  0.87484100  1
  Li  Li1  1  0.43346300  0.06632800  0.62515800  1
  Li  Li2  1  0.56653700  0.93367200  0.37484200  1
  Li  Li3  1  0.93367200  0.56653700  0.37484200  1
  Li  Li4  1  0.43367200  0.06653700  0.12515800  1
  Li  Li5  1  0.06653700  0.43367200  0.12515800  1
  Li  Li6  1  0.06632800  0.43346300  0.62515800  1
  Li  Li7  1  0.93346300  0.56632800  0.87484200  1
  Ti  Ti0  1  0.25065200  0.74934800  0.00000000  1
  Ti  Ti1  1  0.76808800  0.98611700  0.62581000  1
  Ti  Ti2  1  0.73191200  0.51388300  0.12581000  1
  Ti  Ti3  1  0.48584100  0.26810300  0.37623300  1
  Ti  Ti4  1  0.26810300  0.48584100  0.37623300  1
  Ti  Ti5  1  0.24934800  0.75065200  0.50000000  1
  Ti  Ti6  1  0.76810300  0.98584100  0.12376700  1
  Ti  Ti7  1  0.75065200  0.24934800  0.50000000  1
  Ti  Ti8  1  0.73189700  0.51415900  0.62376700  1
  Ti  Ti9  1  0.51388300  0.73191200  0.12581000  1
  Ti  Ti10  1  0.25010100  0.75010100  0.75000000  1
  Ti  Ti11  1  0.75010100  0.25010100  0.75000000  1
  Ti  Ti12  1  0.48611700  0.26808800  0.87419000  1
  Ti  Ti13  1  0.74989900  0.24989900  0.25000000  1
  Ti  Ti14  1  0.01388300  0.23191200  0.37419000  1
  Ti  Ti15  1  0.24989900  0.74989900  0.25000000  1
  Ti  Ti16  1  0.26808800  0.48611700  0.87419000  1
  Ti  Ti17  1  0.74934800  0.25065200  0.00000000  1
  Ti  Ti18  1  0.98584100  0.76810300  0.12376700  1
  Ti  Ti19  1  0.23189700  0.01415900  0.87623300  1
  Ti  Ti20  1  0.51415900  0.73189700  0.62376700  1
  Ti  Ti21  1  0.01415900  0.23189700  0.87623300  1
  Ti  Ti22  1  0.23191200  0.01388300  0.37419000  1
  Ti  Ti23  1  0.98611700  0.76808800  0.62581000  1
  O  O0  1  0.37993400  0.85185000  0.12502400  1
  O  O1  1  0.36772800  0.63097700  0.74956200  1
  O  O2  1  0.35661700  0.14408900  0.26343700  1
  O  O3  1  0.62052500  0.14808900  0.37499200  1
  O  O4  1  0.64815000  0.12006600  0.62502400  1
  O  O5  1  0.63193100  0.36806900  0.50000000  1
  O  O6  1  0.87947500  0.35191100  0.87499200  1
  O  O7  1  0.37947500  0.85191100  0.62500800  1
  O  O8  1  0.13227200  0.86902300  0.24956200  1
  O  O9  1  0.14347200  0.35665100  0.98675200  1
  O  O10  1  0.14334900  0.35652800  0.48675200  1
  O  O11  1  0.08450100  0.08450100  0.37427200  1
  O  O12  1  0.85661700  0.64408900  0.23656300  1
  O  O13  1  0.35591100  0.14338300  0.76343700  1
  O  O14  1  0.63097700  0.36772800  0.74956200  1
  O  O15  1  0.14815000  0.62006600  0.87497600  1
  O  O16  1  0.41549900  0.41549900  0.87427200  1
  O  O17  1  0.86902300  0.13227200  0.24956200  1
  O  O18  1  0.14808900  0.62052500  0.37499200  1
  O  O19  1  0.85665100  0.64347200  0.51324800  1
  O  O20  1  0.63227200  0.36902300  0.25043800  1
  O  O21  1  0.36806900  0.63193100  0.50000000  1
  O  O22  1  0.91549900  0.91549900  0.62572800  1
  O  O23  1  0.13144100  0.86855900  0.50000000  1
  O  O24  1  0.36902300  0.63227200  0.25043800  1
  O  O25  1  0.13193100  0.86806900  0.00000000  1
  O  O26  1  0.64338300  0.85591100  0.73656300  1
  O  O27  1  0.36855900  0.63144100  0.00000000  1
  O  O28  1  0.85652800  0.64334900  0.01324800  1
  O  O29  1  0.08450200  0.08450200  0.87569500  1
  O  O30  1  0.85185000  0.37993400  0.12502400  1
  O  O31  1  0.14338300  0.35591100  0.76343700  1
  O  O32  1  0.87993400  0.35185000  0.37497600  1
  O  O33  1  0.12006600  0.64815000  0.62502400  1
  O  O34  1  0.35185000  0.87993400  0.37497600  1
  O  O35  1  0.12052500  0.64808900  0.12500800  1
  O  O36  1  0.35652800  0.14334900  0.48675200  1
  O  O37  1  0.41549800  0.41549800  0.37569500  1
  O  O38  1  0.86855900  0.13144100  0.50000000  1
  O  O39  1  0.86772800  0.13097700  0.75043800  1
  O  O40  1  0.58450100  0.58450100  0.12572800  1
  O  O41  1  0.14408900  0.35661700  0.26343700  1
  O  O42  1  0.64334900  0.85652800  0.01324800  1
  O  O43  1  0.64408900  0.85661700  0.23656300  1
  O  O44  1  0.35665100  0.14347200  0.98675200  1
  O  O45  1  0.85191100  0.37947500  0.62500800  1
  O  O46  1  0.58450200  0.58450200  0.62430500  1
  O  O47  1  0.63144100  0.36855900  0.00000000  1
  O  O48  1  0.86806900  0.13193100  0.00000000  1
  O  O49  1  0.85591100  0.64338300  0.73656300  1
  O  O50  1  0.64808900  0.12052500  0.12500800  1
  O  O51  1  0.13097700  0.86772800  0.75043800  1
  O  O52  1  0.35191100  0.87947500  0.87499200  1
  O  O53  1  0.91549800  0.91549800  0.12430500  1
  O  O54  1  0.64347200  0.85665100  0.51324800  1
  O  O55  1  0.62006600  0.14815000  0.87497600  1
loop_
_geom_bond_atom_site_label_1
_geom_bond_atom_site_label_2
_geom_bond_distance
_geom_bond_site_symmetry_2
Na0 O40 2.313701 1_555
Na0 O41 2.803326 1_555
Na0 O2 2.803326 1_555
Na1 O29 2.306872 1_665
Na1 O26 2.781412 1_555
Na1 O49 2.781412 1_555
Na2 O37 2.306872 1_555
Na2 O12 2.781412 1_555
Na2 O43 2.781412 1_555
Na3 O22 2.313701 1_445
Na3 O31 2.803326 1_555
Na3 O13 2.803326 1_555
Na4 O16 2.313701 1_555
Na4 O26 2.803326 1_555
Na4 O49 2.803326 1_555
Na5 O11 2.313701 1_665
Na5 O43 2.803326 1_555
Na5 O12 2.803326 1_555
Na6 O53 2.306872 1_445
Na6 O41 2.781412 1_555
Na6 O2 2.781412 1_555
Na7 O46 2.306872 1_555
Na7 O31 2.781412 1_555
Na7 O13 2.781412 1_555
Li0 O52 2.023347 1_555
Li0 O55 2.026285 1_565
Li0 O42 2.047452 1_556
Li0 O26 2.049682 1_555
Li1 O7 2.023347 1_545
Li1 O4 2.026285 1_555
Li1 O36 2.047443 1_555
Li1 O13 2.049691 1_555
Li2 O3 2.023347 1_565
Li2 O34 2.026285 1_555
Li2 O54 2.047443 1_555
Li2 O43 2.049691 1_555
Li3 O18 2.023347 1_655
Li3 O32 2.026285 1_555
Li3 O19 2.047443 1_555
Li3 O12 2.049691 1_555
Li4 O50 2.023347 1_555
Li4 O0 2.026285 1_545
Li4 O44 2.047443 1_554
Li4 O2 2.049691 1_555
Li5 O35 2.023347 1_555
Li5 O30 2.026285 1_455
Li5 O9 2.047443 1_554
Li5 O41 2.049691 1_555
Li6 O45 2.023347 1_455
Li6 O33 2.026285 1_555
Li6 O10 2.047443 1_555
Li6 O31 2.049691 1_555
Li7 O6 2.023347 1_555
Li7 O15 2.026285 1_655
Li7 O28 2.047443 1_556
Li7 O49 2.049691 1_555
O0 Ti0 1.964419 1_555
O0 Ti15 1.966037 1_555
O0 Ti9 2.112588 1_555
O1 Ti10 1.968614 1_555
O1 Ti16 2.032765 1_555
O1 Ti20 2.053768 1_555
O2 Ti22 1.929919 1_555
O2 Ti3 1.938539 1_555
O3 Ti13 1.962625 1_555
O3 Ti7 1.964821 1_555
O3 Ti3 2.119499 1_555
O4 Ti7 1.964419 1_555
O4 Ti11 1.966037 1_555
O4 Ti1 2.112588 1_545
O5 Ti7 1.974335 1_555
O5 Ti8 2.033190 1_555
O5 Ti3 2.033190 1_555
O6 Ti11 1.962625 1_555
O6 Ti17 1.964821 1_556
O6 Ti21 2.119499 1_655
O7 Ti10 1.962625 1_555
O7 Ti5 1.964821 1_555
O7 Ti20 2.119499 1_555
O8 Ti15 1.968614 1_555
O8 Ti22 2.032765 1_565
O8 Ti18 2.053768 1_455
O9 Ti21 1.924378 1_555
O9 Ti16 1.940209 1_555
O10 Ti4 1.924378 1_555
O10 Ti14 1.940209 1_555
O11 Ti14 1.864435 1_555
O11 Ti22 1.864435 1_555
O12 Ti2 1.929919 1_555
O12 Ti18 1.938539 1_555
O13 Ti12 1.929919 1_555
O13 Ti19 1.938539 1_555
O14 Ti11 1.968614 1_555
O14 Ti12 2.032765 1_555
O14 Ti8 2.053768 1_555
O15 Ti0 1.964419 1_556
O15 Ti10 1.966037 1_555
O15 Ti16 2.112588 1_555
O16 Ti16 1.864435 1_555
O16 Ti12 1.864435 1_555
O17 Ti13 1.968614 1_555
O17 Ti14 2.032765 1_655
O17 Ti6 2.053768 1_545
O18 Ti15 1.962625 1_555
O18 Ti5 1.964821 1_555
O18 Ti4 2.119499 1_555
O19 Ti8 1.924378 1_555
O19 Ti23 1.940209 1_555
O20 Ti13 1.968614 1_555
O20 Ti2 2.032765 1_555
O20 Ti3 2.053768 1_555
O21 Ti5 1.974335 1_555
O21 Ti20 2.033190 1_555
O21 Ti4 2.033190 1_555
O22 Ti1 1.864435 1_555
O22 Ti23 1.864435 1_555
O23 Ti5 1.960798 1_555
O23 Ti22 2.046876 1_565
O23 Ti23 2.046876 1_455
O24 Ti15 1.968614 1_555
O24 Ti9 2.032765 1_555
O24 Ti4 2.053768 1_555
O25 Ti0 1.974335 1_555
O25 Ti18 2.033190 1_455
O25 Ti19 2.033190 1_564
O26 Ti1 1.929919 1_555
O26 Ti20 1.938539 1_555
O27 Ti0 1.960798 1_555
O27 Ti16 2.046876 1_554
O27 Ti9 2.046876 1_555
O28 Ti18 1.924378 1_555
O28 Ti2 1.940209 1_555
O29 Ti21 1.862436 1_555
O29 Ti19 1.862436 1_555
O30 Ti17 1.964419 1_555
O30 Ti13 1.966037 1_555
O30 Ti2 2.112588 1_555
O31 Ti16 1.929919 1_555
O31 Ti21 1.938539 1_555
O32 Ti7 1.964419 1_555
O32 Ti13 1.966037 1_555
O32 Ti14 2.112588 1_655
O33 Ti5 1.964419 1_555
O33 Ti10 1.966037 1_555
O33 Ti23 2.112588 1_455
O34 Ti5 1.964419 1_555
O34 Ti15 1.966037 1_555
O34 Ti22 2.112588 1_565
O35 Ti15 1.962625 1_555
O35 Ti0 1.964821 1_555
O35 Ti18 2.119499 1_455
O36 Ti3 1.924378 1_555
O36 Ti22 1.940209 1_555
O37 Ti4 1.862436 1_555
O37 Ti3 1.862436 1_555
O38 Ti7 1.960798 1_555
O38 Ti14 2.046876 1_655
O38 Ti1 2.046876 1_545
O39 Ti11 1.968614 1_555
O39 Ti1 2.032765 1_545
O39 Ti21 2.053768 1_655
O40 Ti9 1.864435 1_555
O40 Ti2 1.864435 1_555
O41 Ti14 1.929919 1_555
O41 Ti4 1.938539 1_555
O42 Ti6 1.924378 1_555
O42 Ti9 1.940209 1_555
O43 Ti9 1.929919 1_555
O43 Ti6 1.938539 1_555
O44 Ti19 1.924378 1_555
O44 Ti12 1.940209 1_555
O45 Ti11 1.962625 1_555
O45 Ti7 1.964821 1_555
O45 Ti8 2.119499 1_555
O46 Ti8 1.862436 1_555
O46 Ti20 1.862436 1_555
O47 Ti17 1.960798 1_555
O47 Ti12 2.046876 1_554
O47 Ti2 2.046876 1_555
O48 Ti17 1.974335 1_555
O48 Ti6 2.033190 1_545
O48 Ti21 2.033190 1_654
O49 Ti23 1.929919 1_555
O49 Ti8 1.938539 1_555
O50 Ti13 1.962625 1_555
O50 Ti17 1.964821 1_555
O50 Ti6 2.119499 1_545
O51 Ti10 1.968614 1_555
O51 Ti23 2.032765 1_455
O51 Ti19 2.053768 1_565
O52 Ti10 1.962625 1_555
O52 Ti0 1.964821 1_556
O52 Ti19 2.119499 1_565
O53 Ti18 1.862436 1_555
O53 Ti6 1.862436 1_555
O54 Ti20 1.924378 1_555
O54 Ti1 1.940209 1_555
O55 Ti17 1.964419 1_556
O55 Ti11 1.966037 1_555
O55 Ti12 2.112588 1_555
