# generated using pymatgen
data_Tb4Zn5Ge6
_symmetry_space_group_name_H-M   'P 1'
_cell_length_a   9.50275621
_cell_length_b   9.50275621
_cell_length_c   15.84671700
_cell_angle_alpha   90.00000000
_cell_angle_beta   90.00000000
_cell_angle_gamma   154.05155595
_symmetry_Int_Tables_number   1
_chemical_formula_structural   Tb4Zn5Ge6
_chemical_formula_sum   'Tb8 Zn10 Ge12'
_cell_volume   626.14986348
_cell_formula_units_Z   2
loop_
 _symmetry_equiv_pos_site_id
 _symmetry_equiv_pos_as_xyz
  1  'x, y, z'
loop_
 _atom_site_type_symbol
 _atom_site_label
 _atom_site_symmetry_multiplicity
 _atom_site_fract_x
 _atom_site_fract_y
 _atom_site_fract_z
 _atom_site_occupancy
  Tb  Tb0  1  0.32042000  0.67958000  0.50805200  1
  Tb  Tb1  1  0.53293400  0.46706600  0.82122900  1
  Tb  Tb2  1  0.67230300  0.32769700  0.36661100  1
  Tb  Tb3  1  0.67958000  0.32042000  0.00805200  1
  Tb  Tb4  1  0.46706600  0.53293400  0.32122900  1
  Tb  Tb5  1  0.46670300  0.53329700  0.05073800  1
  Tb  Tb6  1  0.53329700  0.46670300  0.55073800  1
  Tb  Tb7  1  0.32769700  0.67230300  0.86661100  1
  Zn  Zn0  1  0.07480000  0.92520000  0.10452700  1
  Zn  Zn1  1  0.79013600  0.20986400  0.67802900  1
  Zn  Zn2  1  0.35308700  0.64691300  0.18269900  1
  Zn  Zn3  1  0.64691300  0.35308700  0.68269900  1
  Zn  Zn4  1  0.06862600  0.93137400  0.26828600  1
  Zn  Zn5  1  0.20986400  0.79013600  0.17802900  1
  Zn  Zn6  1  0.93137400  0.06862600  0.76828600  1
  Zn  Zn7  1  0.84437800  0.15562200  0.32368600  1
  Zn  Zn8  1  0.15562200  0.84437800  0.82368600  1
  Zn  Zn9  1  0.92520000  0.07480000  0.60452700  1
  Ge  Ge0  1  0.06793700  0.93206300  0.94994700  1
  Ge  Ge1  1  0.72425600  0.27574400  0.82183800  1
  Ge  Ge2  1  0.06992000  0.93008000  0.42618100  1
  Ge  Ge3  1  0.61561200  0.38438800  0.18624900  1
  Ge  Ge4  1  0.05912400  0.94087600  0.68637800  1
  Ge  Ge5  1  0.94087600  0.05912400  0.18637800  1
  Ge  Ge6  1  0.38438800  0.61561200  0.68624900  1
  Ge  Ge7  1  0.71158800  0.28841200  0.54445000  1
  Ge  Ge8  1  0.28841200  0.71158800  0.04445000  1
  Ge  Ge9  1  0.93008000  0.06992000  0.92618100  1
  Ge  Ge10  1  0.27574400  0.72425600  0.32183800  1
  Ge  Ge11  1  0.93206300  0.06793700  0.44994700  1
loop_
_geom_bond_atom_site_label_1
_geom_bond_atom_site_label_2
_geom_bond_distance
_geom_bond_site_symmetry_2
Tb0 Zn9 3.264171 1_455
Tb0 Zn9 3.264171 1_565
Tb1 Zn6 2.965388 1_455
Tb1 Zn6 2.965388 1_565
Tb1 Zn3 3.045508 1_555
Tb1 Zn8 3.117095 1_655
Tb1 Zn8 3.117095 1_545
Tb2 Zn7 3.258671 1_555
Tb3 Zn0 3.264171 1_545
Tb3 Zn0 3.264171 1_655
Tb4 Zn4 2.965388 1_545
Tb4 Zn4 2.965388 1_655
Tb4 Zn2 3.045508 1_555
Tb4 Zn7 3.117095 1_565
Tb4 Zn7 3.117095 1_455
Tb5 Zn2 2.966577 1_555
Tb5 Zn0 3.047342 1_655
Tb5 Zn0 3.047342 1_545
Tb6 Zn3 2.966577 1_555
Tb6 Zn9 3.047342 1_565
Tb6 Zn9 3.047342 1_455
Tb7 Zn8 3.258671 1_555
Zn0 Zn4 2.597560 1_555
Zn0 Zn5 2.759316 1_555
Zn1 Zn3 2.653568 1_555
Zn1 Zn9 2.759316 1_555
Zn2 Zn5 2.653568 1_555
Zn6 Zn9 2.597560 1_555
Ge0 Zn0 2.452881 1_556
Ge0 Zn8 2.576920 1_555
Ge0 Ge9 2.580784 1_465
Ge0 Tb1 3.022025 1_455
Ge0 Tb1 3.022025 1_565
Ge0 Tb3 3.110440 1_456
Ge0 Tb3 3.110440 1_566
Ge0 Tb5 3.258534 1_456
Ge0 Tb5 3.258534 1_566
Ge1 Zn8 2.483624 1_655
Ge1 Zn8 2.483624 1_545
Ge1 Zn1 2.584972 1_555
Ge1 Zn3 2.629332 1_555
Ge1 Tb7 2.953864 1_545
Ge1 Tb7 2.953864 1_655
Ge1 Tb3 3.064688 1_556
Ge1 Tb1 3.543359 1_555
Ge2 Zn4 2.502232 1_555
Ge2 Tb6 2.984592 1_565
Ge2 Tb6 2.984592 1_455
Ge2 Tb2 3.006383 1_565
Ge2 Tb2 3.006383 1_455
Ge2 Tb4 3.308539 1_455
Ge2 Tb4 3.308539 1_565
Ge3 Zn0 2.607715 1_545
Ge3 Zn0 2.607715 1_655
Ge3 Zn4 2.645574 1_655
Ge3 Zn4 2.645574 1_545
Ge3 Zn5 2.759671 1_545
Ge3 Zn5 2.759671 1_655
Ge3 Tb2 3.044891 1_555
Ge3 Tb3 3.062285 1_555
Ge3 Tb4 3.484816 1_555
Ge3 Tb5 3.495289 1_555
Ge4 Zn3 2.683032 1_565
Ge4 Zn3 2.683032 1_455
Ge4 Zn6 2.698621 1_465
Ge4 Zn9 2.798992 1_465
Ge4 Zn8 2.815750 1_555
Ge4 Tb1 3.058363 1_455
Ge4 Tb1 3.058363 1_565
Ge4 Tb6 3.066056 1_565
Ge4 Tb6 3.066056 1_455
Ge5 Zn2 2.683032 1_655
Ge5 Zn2 2.683032 1_545
Ge5 Zn4 2.698621 1_645
Ge5 Zn0 2.798992 1_645
Ge5 Zn7 2.815750 1_555
Ge5 Tb4 3.058363 1_545
Ge5 Tb4 3.058363 1_655
Ge5 Tb5 3.066056 1_655
Ge5 Tb5 3.066056 1_545
Ge6 Zn9 2.607715 1_455
Ge6 Zn9 2.607715 1_565
Ge6 Zn6 2.645574 1_565
Ge6 Zn6 2.645574 1_455
Ge6 Zn1 2.759671 1_455
Ge6 Zn1 2.759671 1_565
Ge6 Tb7 3.044891 1_555
Ge6 Tb0 3.062285 1_555
Ge6 Tb1 3.484816 1_555
Ge6 Tb6 3.495289 1_555
Ge7 Zn3 2.496859 1_555
Ge7 Zn1 2.568472 1_555
Ge7 Tb2 2.910569 1_555
Ge7 Tb0 2.991174 1_655
Ge7 Tb0 2.991174 1_545
Ge7 Tb6 3.303510 1_555
Ge8 Zn2 2.496859 1_555
Ge8 Zn5 2.568472 1_555
Ge8 Tb7 2.910569 1_554
Ge8 Tb3 2.991174 1_565
Ge8 Tb3 2.991174 1_455
Ge8 Tb5 3.303510 1_555
Ge9 Zn6 2.502232 1_555
Ge9 Tb5 2.984592 1_656
Ge9 Tb5 2.984592 1_546
Ge9 Tb7 3.006383 1_545
Ge9 Tb7 3.006383 1_655
Ge9 Tb1 3.308539 1_655
Ge9 Tb1 3.308539 1_545
Ge10 Zn7 2.483624 1_455
Ge10 Zn7 2.483624 1_565
Ge10 Zn5 2.584972 1_555
Ge10 Zn2 2.629332 1_555
Ge10 Tb2 2.953864 1_455
Ge10 Tb2 2.953864 1_565
Ge10 Tb0 3.064688 1_555
Ge10 Tb4 3.543359 1_555
Ge11 Zn9 2.452881 1_555
Ge11 Zn7 2.576920 1_555
Ge11 Ge2 2.580784 1_645
Ge11 Tb4 3.022025 1_655
Ge11 Tb4 3.022025 1_545
Ge11 Tb0 3.110440 1_655
Ge11 Tb0 3.110440 1_545
Ge11 Tb6 3.258534 1_545
Ge11 Tb6 3.258534 1_655
