# generated using pymatgen
data_CdN6
_symmetry_space_group_name_H-M   'P 1'
_cell_length_a   6.59566700
_cell_length_b   7.94095900
_cell_length_c   16.26776700
_cell_angle_alpha   90.00000000
_cell_angle_beta   90.00000000
_cell_angle_gamma   90.00000000
_symmetry_Int_Tables_number   1
_chemical_formula_structural   CdN6
_chemical_formula_sum   'Cd8 N48'
_cell_volume   852.03928289
_cell_formula_units_Z   8
loop_
 _symmetry_equiv_pos_site_id
 _symmetry_equiv_pos_as_xyz
  1  'x, y, z'
loop_
 _atom_site_type_symbol
 _atom_site_label
 _atom_site_symmetry_multiplicity
 _atom_site_fract_x
 _atom_site_fract_y
 _atom_site_fract_z
 _atom_site_occupancy
  Cd  Cd0  1  0.07841600  0.57648800  0.60496100  1
  Cd  Cd1  1  0.92158400  0.42351200  0.39503900  1
  Cd  Cd2  1  0.92158400  0.92351200  0.10496100  1
  Cd  Cd3  1  0.07841600  0.07648800  0.89503900  1
  Cd  Cd4  1  0.42158400  0.07648800  0.39503900  1
  Cd  Cd5  1  0.57841600  0.92351200  0.60496100  1
  Cd  Cd6  1  0.57841600  0.42351200  0.89503900  1
  Cd  Cd7  1  0.42158400  0.57648800  0.10496100  1
  N  N0  1  0.82262700  0.62095100  0.21005200  1
  N  N1  1  0.26276100  0.81147200  0.65369800  1
  N  N2  1  0.23723900  0.31147200  0.34630200  1
  N  N3  1  0.39834400  0.94025800  0.91611900  1
  N  N4  1  0.89834400  0.55974200  0.91611900  1
  N  N5  1  0.07923400  0.30346800  0.05880600  1
  N  N6  1  0.60165600  0.05974200  0.08388100  1
  N  N7  1  0.76276100  0.18852800  0.84630200  1
  N  N8  1  0.17737300  0.87904900  0.71005200  1
  N  N9  1  0.60165600  0.55974200  0.41611900  1
  N  N10  1  0.89834400  0.05974200  0.58388100  1
  N  N11  1  0.10165600  0.44025800  0.08388100  1
  N  N12  1  0.82262700  0.12095100  0.28994800  1
  N  N13  1  0.08730300  0.94269300  0.76318600  1
  N  N14  1  0.32262700  0.87904900  0.21005200  1
  N  N15  1  0.08730300  0.44269300  0.73681400  1
  N  N16  1  0.73723900  0.18852800  0.34630200  1
  N  N17  1  0.44732300  0.66389600  0.96686100  1
  N  N18  1  0.76276100  0.68852800  0.65369800  1
  N  N19  1  0.42076600  0.80346800  0.94119400  1
  N  N20  1  0.57923400  0.69653200  0.44119400  1
  N  N21  1  0.44732300  0.16389600  0.53313900  1
  N  N22  1  0.23723900  0.81147200  0.15369800  1
  N  N23  1  0.57923400  0.19653200  0.05880600  1
  N  N24  1  0.67737300  0.62095100  0.71005200  1
  N  N25  1  0.94732300  0.33610400  0.53313900  1
  N  N26  1  0.91269700  0.55730700  0.26318600  1
  N  N27  1  0.73723900  0.68852800  0.15369800  1
  N  N28  1  0.26276100  0.31147200  0.84630200  1
  N  N29  1  0.32262700  0.37904900  0.28994800  1
  N  N30  1  0.05267700  0.66389600  0.46686100  1
  N  N31  1  0.58730300  0.05730700  0.73681400  1
  N  N32  1  0.94732300  0.83610400  0.96686100  1
  N  N33  1  0.67737300  0.12095100  0.78994800  1
  N  N34  1  0.41269700  0.94269300  0.26318600  1
  N  N35  1  0.58730300  0.55730700  0.76318600  1
  N  N36  1  0.92076600  0.19653200  0.55880600  1
  N  N37  1  0.42076600  0.30346800  0.55880600  1
  N  N38  1  0.17737300  0.37904900  0.78994800  1
  N  N39  1  0.55267700  0.83610400  0.46686100  1
  N  N40  1  0.55267700  0.33610400  0.03313900  1
  N  N41  1  0.39834400  0.44025800  0.58388100  1
  N  N42  1  0.91269700  0.05730700  0.23681400  1
  N  N43  1  0.07923400  0.80346800  0.44119400  1
  N  N44  1  0.05267700  0.16389600  0.03313900  1
  N  N45  1  0.41269700  0.44269300  0.23681400  1
  N  N46  1  0.92076600  0.69653200  0.94119400  1
  N  N47  1  0.10165600  0.94025800  0.41611900  1
loop_
_geom_bond_atom_site_label_1
_geom_bond_atom_site_label_2
_geom_bond_distance
_geom_bond_site_symmetry_2
Cd0 N30 2.357481 1_555
Cd0 N1 2.364087 1_555
Cd0 N15 2.394386 1_555
Cd0 N41 2.395948 1_555
Cd0 N18 2.398898 1_455
Cd0 N25 2.399282 1_455
Cd1 N25 2.357481 1_555
Cd1 N16 2.364087 1_555
Cd1 N26 2.394386 1_555
Cd1 N9 2.395948 1_555
Cd1 N2 2.398898 1_655
Cd1 N30 2.399282 1_655
Cd2 N32 2.357481 1_554
Cd2 N27 2.364087 1_555
Cd2 N42 2.394386 1_565
Cd2 N6 2.395948 1_565
Cd2 N22 2.398898 1_655
Cd2 N44 2.399282 1_665
Cd3 N44 2.357481 1_556
Cd3 N28 2.364087 1_555
Cd3 N13 2.394386 1_545
Cd3 N3 2.395948 1_545
Cd3 N7 2.398898 1_455
Cd3 N32 2.399282 1_445
Cd4 N21 2.357481 1_555
Cd4 N2 2.364087 1_555
Cd4 N34 2.394386 1_545
Cd4 N47 2.395948 1_545
Cd4 N16 2.398898 1_555
Cd4 N39 2.399282 1_545
Cd5 N39 2.357481 1_555
Cd5 N18 2.364087 1_555
Cd5 N31 2.394386 1_565
Cd5 N10 2.395948 1_565
Cd5 N1 2.398898 1_555
Cd5 N21 2.399282 1_565
Cd6 N40 2.357481 1_556
Cd6 N7 2.364087 1_555
Cd6 N35 2.394386 1_555
Cd6 N4 2.395948 1_555
Cd6 N28 2.398898 1_555
Cd6 N17 2.399282 1_555
Cd7 N17 2.357481 1_554
Cd7 N22 2.364087 1_555
Cd7 N45 2.394386 1_555
Cd7 N11 2.395948 1_555
Cd7 N27 2.398898 1_555
Cd7 N40 2.399282 1_555
N0 N26 1.164252 1_555
N0 N27 1.202326 1_555
N1 N8 1.202326 1_555
N2 N29 1.202326 1_555
N4 N46 1.169697 1_555
N10 N36 1.169697 1_555
N11 N5 1.169697 1_555
N12 N42 1.164252 1_555
N12 N16 1.202326 1_555
N13 N8 1.164252 1_555
N14 N34 1.164252 1_555
N14 N22 1.202326 1_555
N15 N38 1.164252 1_555
N17 N19 1.197261 1_555
N18 N24 1.202326 1_555
N19 N3 1.169697 1_555
N20 N9 1.169697 1_555
N20 N39 1.197261 1_555
N21 N37 1.197261 1_555
N23 N6 1.169697 1_555
N23 N40 1.197261 1_555
N24 N35 1.164252 1_555
N25 N36 1.197261 1_555
N28 N38 1.202326 1_555
N29 N45 1.164252 1_555
N30 N43 1.197261 1_555
N31 N33 1.164252 1_555
N32 N46 1.197261 1_555
N33 N7 1.202326 1_555
N37 N41 1.169697 1_555
N43 N47 1.169697 1_555
N44 N5 1.197261 1_555
