# generated using pymatgen
data_SbTe7SXeCl(OF4)9
_symmetry_space_group_name_H-M   'P 1'
_cell_length_a   10.05153700
_cell_length_b   10.28991108
_cell_length_c   19.09554827
_cell_angle_alpha   89.46577166
_cell_angle_beta   83.18222792
_cell_angle_gamma   87.71818105
_symmetry_Int_Tables_number   1
_chemical_formula_structural   SbTe7SXeCl(OF4)9
_chemical_formula_sum   'Sb2 Te14 S2 Xe2 Cl2 O18 F72'
_cell_volume   1959.49946041
_cell_formula_units_Z   2
loop_
 _symmetry_equiv_pos_site_id
 _symmetry_equiv_pos_as_xyz
  1  'x, y, z'
loop_
 _atom_site_type_symbol
 _atom_site_label
 _atom_site_symmetry_multiplicity
 _atom_site_fract_x
 _atom_site_fract_y
 _atom_site_fract_z
 _atom_site_occupancy
  Sb  Sb0  1  0.50000000  0.50000000  0.00000000  1
  Sb  Sb1  1  0.00000000  0.50000000  0.50000000  1
  Te  Te0  1  0.09173100  0.11108500  0.80133300  1
  Te  Te1  1  0.90826900  0.88891500  0.19866700  1
  Te  Te2  1  0.54329400  0.32376100  0.83329400  1
  Te  Te3  1  0.81407000  0.33549600  0.02872200  1
  Te  Te4  1  0.70870200  0.30699600  0.55001500  1
  Te  Te5  1  0.20560100  0.20588600  0.51743900  1
  Te  Te6  1  0.45670600  0.67623900  0.16670600  1
  Te  Te7  1  0.02445200  0.60097600  0.68026700  1
  Te  Te8  1  0.65385400  0.78549300  0.92028600  1
  Te  Te9  1  0.34614600  0.21450700  0.07971400  1
  Te  Te10  1  0.97554800  0.39902400  0.31973300  1
  Te  Te11  1  0.29129800  0.69300400  0.44998500  1
  Te  Te12  1  0.18593000  0.66450400  0.97127800  1
  Te  Te13  1  0.79439900  0.79411400  0.48256100  1
  S  S0  1  0.49904900  0.11698300  0.29791700  1
  S  S1  1  0.50095100  0.88301700  0.70208300  1
  Xe  Xe0  1  0.17691000  0.97122800  0.28876900  1
  Xe  Xe1  1  0.82309000  0.02877200  0.71123100  1
  Cl  Cl0  1  0.54277000  0.29993800  0.30764800  1
  Cl  Cl1  1  0.45723000  0.70006200  0.69235200  1
  O  O0  1  0.62434900  0.64808400  0.98608200  1
  O  O1  1  0.93276200  0.66643500  0.45876400  1
  O  O2  1  0.94462300  0.56391100  0.59809400  1
  O  O3  1  0.63572100  0.40372900  0.05055600  1
  O  O4  1  0.36427900  0.59627100  0.94944400  1
  O  O5  1  0.41617100  0.56945700  0.09355200  1
  O  O6  1  0.37565100  0.35191600  0.01391800  1
  O  O7  1  0.44334400  0.93811200  0.76679600  1
  O  O8  1  0.81606100  0.43126400  0.49968300  1
  O  O9  1  0.55665600  0.06188800  0.23320400  1
  O  O10  1  0.02860800  0.84675600  0.27122500  1
  O  O11  1  0.35617800  0.10890300  0.32230200  1
  O  O12  1  0.18393900  0.56873600  0.50031700  1
  O  O13  1  0.97139200  0.15324400  0.72877500  1
  O  O14  1  0.58382900  0.43054300  0.90644800  1
  O  O15  1  0.06723800  0.33356500  0.54123600  1
  O  O16  1  0.64382200  0.89109700  0.67769800  1
  O  O17  1  0.05537700  0.43608900  0.40190600  1
  F  F0  1  0.94676400  0.45817300  0.72797100  1
  F  F1  1  0.18361700  0.50189600  0.65511400  1
  F  F2  1  0.57752200  0.70577600  0.84689700  1
  F  F3  1  0.57808900  0.45733600  0.76665200  1
  F  F4  1  0.42191100  0.54266400  0.23334800  1
  F  F5  1  0.26437000  0.12215800  0.01396600  1
  F  F6  1  0.69408300  0.69173400  0.54974800  1
  F  F7  1  0.72533300  0.26913900  0.81713600  1
  F  F8  1  0.78849800  0.32015000  0.63392500  1
  F  F9  1  0.22500000  0.18516700  0.73861700  1
  F  F10  1  0.57836500  0.43423300  0.58282400  1
  F  F11  1  0.42247800  0.29422400  0.15310300  1
  F  F12  1  0.09290600  0.64479800  0.76344400  1
  F  F13  1  0.17105000  0.83279100  0.47774500  1
  F  F14  1  0.30591700  0.30826600  0.45025200  1
  F  F15  1  0.66155000  0.92648000  0.50170600  1
  F  F16  1  0.59851300  0.18260400  0.59727700  1
  F  F17  1  0.69626000  0.73674100  0.41228600  1
  F  F18  1  0.50749200  0.17789000  0.89082700  1
  F  F19  1  0.87050100  0.70461800  0.71102100  1
  F  F20  1  0.05323600  0.54182700  0.27202900  1
  F  F21  1  0.42163500  0.56576700  0.41717600  1
  F  F22  1  0.10575300  0.74961300  0.63922300  1
  F  F23  1  0.88156800  0.86424200  0.55481300  1
  F  F24  1  0.40148700  0.81739600  0.40272300  1
  F  F25  1  0.57222900  0.05508900  0.35922700  1
  F  F26  1  0.89424700  0.25038700  0.36077700  1
  F  F27  1  0.87739100  0.45883200  0.08672400  1
  F  F28  1  0.73563000  0.87784200  0.98603400  1
  F  F29  1  0.95445900  0.03602200  0.86126400  1
  F  F30  1  0.82895000  0.16720900  0.52225500  1
  F  F31  1  0.88512000  0.90767800  0.41766900  1
  F  F32  1  0.23718600  0.79420700  0.03000800  1
  F  F33  1  0.12260900  0.54116800  0.91327600  1
  F  F34  1  0.13475600  0.94728700  0.76020200  1
  F  F35  1  0.51060400  0.12777500  0.05116200  1
  F  F36  1  0.21239000  0.07785100  0.86615600  1
  F  F37  1  0.51893100  0.21764300  0.75619800  1
  F  F38  1  0.61971600  0.28324800  0.47060900  1
  F  F39  1  0.04554100  0.96397800  0.13873600  1
  F  F40  1  0.76281400  0.20579300  0.96999200  1
  F  F41  1  0.21150200  0.67985000  0.36607500  1
  F  F42  1  0.48939600  0.87222500  0.94883800  1
  F  F43  1  0.12949900  0.29538200  0.28897900  1
  F  F44  1  0.81638300  0.49810400  0.34488600  1
  F  F45  1  0.82094800  0.71289500  0.88307000  1
  F  F46  1  0.90709400  0.35520200  0.23655600  1
  F  F47  1  0.21540800  0.77626500  0.89331200  1
  F  F48  1  0.78761000  0.92214900  0.13384400  1
  F  F49  1  0.30374000  0.26325900  0.58771400  1
  F  F50  1  0.78459200  0.22373500  0.10668800  1
  F  F51  1  0.64029700  0.63034500  0.15929600  1
  F  F52  1  0.17905200  0.28710500  0.11693000  1
  F  F53  1  0.95311900  0.72584600  0.15921500  1
  F  F54  1  0.85429800  0.44360800  0.95016300  1
  F  F55  1  0.38028400  0.71675200  0.52939100  1
  F  F56  1  0.68978600  0.92497700  0.85664500  1
  F  F57  1  0.31021400  0.07502300  0.14335500  1
  F  F58  1  0.11488000  0.09232200  0.58233100  1
  F  F59  1  0.86524400  0.05271300  0.23979800  1
  F  F60  1  0.42777100  0.94491100  0.64077300  1
  F  F61  1  0.27466700  0.73086100  0.18286400  1
  F  F62  1  0.04688100  0.27415400  0.84078500  1
  F  F63  1  0.11843200  0.13575800  0.44518700  1
  F  F64  1  0.48106900  0.78235700  0.24380200  1
  F  F65  1  0.98873100  0.26295100  0.01192200  1
  F  F66  1  0.49250800  0.82211000  0.10917300  1
  F  F67  1  0.01126900  0.73704900  0.98807800  1
  F  F68  1  0.35970300  0.36965500  0.84070400  1
  F  F69  1  0.77500000  0.81483300  0.26138300  1
  F  F70  1  0.33845000  0.07352000  0.49829400  1
  F  F71  1  0.14570200  0.55639200  0.04983700  1
loop_
_geom_bond_atom_site_label_1
_geom_bond_atom_site_label_2
_geom_bond_distance
_geom_bond_site_symmetry_2
Cl0 S0 1.965603 1_555
Cl1 S1 1.965603 1_555
O0 Te8 1.891430 1_555
O0 Sb0 2.004993 1_556
O1 Te13 1.892718 1_555
O1 Sb1 2.004705 1_655
O2 Te7 1.893667 1_655
O2 Sb1 1.999329 1_655
O3 Te3 1.899546 1_555
O3 Sb0 1.990379 1_555
O4 Te12 1.899546 1_555
O4 Sb0 1.990379 1_556
O5 Te6 1.877257 1_555
O5 Sb0 2.007632 1_555
O6 Te9 1.891430 1_555
O6 Sb0 2.004993 1_555
O7 S1 1.414481 1_555
O8 Te4 1.887871 1_555
O8 Sb1 2.006359 1_655
O9 S0 1.414481 1_555
O10 Te1 1.978870 1_455
O10 Xe0 2.062371 1_555
O11 S0 1.461528 1_555
O11 Xe0 2.481533 1_545
O12 Te11 1.887871 1_555
O12 Sb1 2.006359 1_555
O13 Te0 1.978870 1_655
O13 Xe1 2.062371 1_555
O14 Te2 1.877257 1_555
O14 Sb0 2.007632 1_556
O15 Te5 1.892718 1_555
O15 Sb1 2.004705 1_555
O16 S1 1.461528 1_555
O16 Xe1 2.481533 1_565
O17 Te10 1.893667 1_455
O17 Sb1 1.999329 1_555
F0 Te7 1.869847 1_655
F1 Te7 1.877888 1_555
F2 Te8 1.884757 1_555
F3 Te2 1.879073 1_555
F4 Te6 1.879073 1_555
F5 Te9 1.866647 1_555
F6 Te13 1.877447 1_555
F7 Te2 1.883207 1_555
F8 Te4 1.883308 1_555
F9 Te0 1.868998 1_555
F10 Te4 1.872654 1_555
F11 Te9 1.884757 1_555
F12 Te7 1.870036 1_555
F13 Te11 1.880037 1_555
F14 Te5 1.877447 1_555
F15 Te13 1.876290 1_555
F16 Te4 1.879783 1_555
F17 Te13 1.870253 1_555
F18 Te2 1.872931 1_555
F19 Te7 1.881840 1_655
F20 Te10 1.869847 1_455
F21 Te11 1.872654 1_555
F22 Te7 1.883202 1_555
F23 Te13 1.883585 1_555
F24 Te11 1.879783 1_555
F25 S0 1.571811 1_555
F26 Te10 1.883202 1_555
F27 Te3 1.870934 1_555
F28 Te8 1.866647 1_555
F29 Te0 1.871786 1_655
F30 Te4 1.880037 1_555
F31 Te13 1.876735 1_555
F32 Te12 1.877297 1_554
F33 Te12 1.870934 1_555
F34 Te0 1.879018 1_565
F35 Te9 1.871887 1_555
F36 Te0 1.853534 1_555
F37 Te2 1.885875 1_555
F38 Te4 1.872228 1_555
F39 Te1 1.871786 1_455
F40 Te3 1.877297 1_556
F41 Te11 1.883308 1_555
F42 Te8 1.871887 1_555
F43 Te10 1.881840 1_455
F44 Te10 1.877888 1_555
F45 Te8 1.873655 1_555
F46 Te10 1.870036 1_555
F47 Te12 1.875453 1_555
F48 Te1 1.853534 1_555
F49 Te5 1.870253 1_555
F50 Te3 1.875453 1_555
F51 Te6 1.875711 1_555
F52 Te9 1.873655 1_555
F53 Te1 1.862539 1_555
F54 Te3 1.874070 1_556
F55 Te11 1.872228 1_555
F56 Te8 1.889938 1_555
F57 Te9 1.889938 1_555
F58 Te5 1.876735 1_555
F59 Te1 1.879018 1_545
F60 S1 1.571811 1_555
F61 Te6 1.883207 1_555
F62 Te0 1.862539 1_555
F63 Te5 1.883585 1_555
F64 Te6 1.885875 1_555
F65 Te3 1.873156 1_555
F66 Te6 1.872931 1_555
F67 Te12 1.873156 1_555
F68 Te2 1.875711 1_555
F69 Te1 1.868998 1_555
F70 Te5 1.876290 1_555
F71 Te12 1.874070 1_554
