# generated using pymatgen
data_UNi7(BO4)4
_symmetry_space_group_name_H-M   'P 1'
_cell_length_a   4.54052500
_cell_length_b   5.90362000
_cell_length_c   20.42837100
_cell_angle_alpha   90.00000000
_cell_angle_beta   90.00000000
_cell_angle_gamma   90.00000000
_symmetry_Int_Tables_number   1
_chemical_formula_structural   UNi7(BO4)4
_chemical_formula_sum   'U2 Ni14 B8 O32'
_cell_volume   547.59339750
_cell_formula_units_Z   2
loop_
 _symmetry_equiv_pos_site_id
 _symmetry_equiv_pos_as_xyz
  1  'x, y, z'
loop_
 _atom_site_type_symbol
 _atom_site_label
 _atom_site_symmetry_multiplicity
 _atom_site_fract_x
 _atom_site_fract_y
 _atom_site_fract_z
 _atom_site_occupancy
  U  U0  1  0.00000000  0.00000000  0.00000000  1
  U  U1  1  0.50000000  0.50000000  0.50000000  1
  Ni  Ni0  1  0.99732200  0.25160200  0.37053800  1
  Ni  Ni1  1  0.50267800  0.75160200  0.87053800  1
  Ni  Ni2  1  0.49732200  0.24839800  0.12946200  1
  Ni  Ni3  1  0.50038500  0.00000000  0.73613500  1
  Ni  Ni4  1  0.49961500  0.00000000  0.26386500  1
  Ni  Ni5  1  0.99961500  0.50000000  0.23613500  1
  Ni  Ni6  1  0.00267800  0.74839800  0.62946200  1
  Ni  Ni7  1  0.50000000  0.50000000  0.00000000  1
  Ni  Ni8  1  0.00038500  0.50000000  0.76386500  1
  Ni  Ni9  1  0.49732200  0.75160200  0.12946200  1
  Ni  Ni10  1  0.50267800  0.24839800  0.87053800  1
  Ni  Ni11  1  0.99732200  0.74839800  0.37053800  1
  Ni  Ni12  1  0.00267800  0.25160200  0.62946200  1
  Ni  Ni13  1  0.00000000  0.00000000  0.50000000  1
  B  B0  1  0.93294100  0.50000000  0.08762600  1
  B  B1  1  0.43294100  0.00000000  0.41237400  1
  B  B2  1  0.54166700  0.50000000  0.30680100  1
  B  B3  1  0.04166700  0.00000000  0.19319900  1
  B  B4  1  0.06705900  0.50000000  0.91237400  1
  B  B5  1  0.95833300  0.00000000  0.80680100  1
  B  B6  1  0.45833300  0.50000000  0.69319900  1
  B  B7  1  0.56705900  0.00000000  0.58762600  1
  O  O0  1  0.28126500  0.00000000  0.34849500  1
  O  O1  1  0.25151300  0.00000000  0.82475800  1
  O  O2  1  0.79767600  0.80119300  0.79502100  1
  O  O3  1  0.25267500  0.00000000  0.58583500  1
  O  O4  1  0.74848700  0.00000000  0.17524200  1
  O  O5  1  0.29767600  0.30119300  0.70497900  1
  O  O6  1  0.70991600  0.00000000  0.93036100  1
  O  O7  1  0.20232400  0.80119300  0.20497900  1
  O  O8  1  0.75151300  0.50000000  0.67524200  1
  O  O9  1  0.70474500  0.20563000  0.55075100  1
  O  O10  1  0.74732500  0.00000000  0.41416500  1
  O  O11  1  0.79008400  0.50000000  0.43036100  1
  O  O12  1  0.29525500  0.20563000  0.44924900  1
  O  O13  1  0.70474500  0.79437000  0.55075100  1
  O  O14  1  0.20991600  0.50000000  0.56963900  1
  O  O15  1  0.29008400  0.00000000  0.06963900  1
  O  O16  1  0.70232400  0.69880700  0.29502100  1
  O  O17  1  0.20474500  0.29437000  0.94924900  1
  O  O18  1  0.24848700  0.50000000  0.32475800  1
  O  O19  1  0.71873500  0.00000000  0.65150500  1
  O  O20  1  0.78126500  0.50000000  0.15150500  1
  O  O21  1  0.70232400  0.30119300  0.29502100  1
  O  O22  1  0.29767600  0.69880700  0.70497900  1
  O  O23  1  0.79767600  0.19880700  0.79502100  1
  O  O24  1  0.21873500  0.50000000  0.84849500  1
  O  O25  1  0.79525500  0.70563000  0.05075100  1
  O  O26  1  0.20474500  0.70563000  0.94924900  1
  O  O27  1  0.75267500  0.50000000  0.91416500  1
  O  O28  1  0.20232400  0.19880700  0.20497900  1
  O  O29  1  0.79525500  0.29437000  0.05075100  1
  O  O30  1  0.29525500  0.79437000  0.44924900  1
  O  O31  1  0.24732500  0.50000000  0.08583500  1
loop_
_geom_bond_atom_site_label_1
_geom_bond_atom_site_label_2
_geom_bond_distance
_geom_bond_site_symmetry_2
Ni0 O0 2.017732 1_655
Ni0 O21 2.063908 1_555
Ni0 O10 2.071010 1_555
Ni0 O18 2.079819 1_655
Ni0 O12 2.118753 1_655
Ni0 O11 2.128236 1_555
Ni1 O24 2.017732 1_555
Ni1 O2 2.063908 1_555
Ni1 O27 2.071010 1_555
Ni1 O1 2.079819 1_565
Ni1 O26 2.118753 1_555
Ni1 O6 2.128236 1_565
Ni2 O20 2.017732 1_555
Ni2 O28 2.063908 1_555
Ni2 O31 2.071010 1_555
Ni2 O4 2.079819 1_555
Ni2 O29 2.118753 1_555
Ni2 O15 2.128236 1_555
Ni3 O19 1.992951 1_555
Ni3 O5 2.100947 1_555
Ni3 O22 2.100947 1_545
Ni3 O1 2.134140 1_555
Ni3 O23 2.155625 1_555
Ni3 O2 2.155625 1_545
Ni4 O0 1.992951 1_555
Ni4 O16 2.100947 1_545
Ni4 O21 2.100947 1_555
Ni4 O4 2.134140 1_555
Ni4 O28 2.155625 1_555
Ni4 O7 2.155625 1_545
Ni5 O20 1.992951 1_555
Ni5 O7 2.100947 1_655
Ni5 O28 2.100947 1_655
Ni5 O18 2.134140 1_655
Ni5 O16 2.155625 1_555
Ni5 O21 2.155625 1_555
Ni6 O19 2.017732 1_465
Ni6 O22 2.063908 1_555
Ni6 O3 2.071010 1_565
Ni6 O8 2.079819 1_455
Ni6 O13 2.118753 1_455
Ni6 O14 2.128236 1_555
Ni7 O25 2.084662 1_555
Ni7 O29 2.084662 1_555
Ni7 O17 2.084662 1_554
Ni7 O26 2.084662 1_554
Ni7 O27 2.095447 1_554
Ni7 O31 2.095447 1_555
Ni8 O24 1.992951 1_555
Ni8 O2 2.100947 1_455
Ni8 O23 2.100947 1_455
Ni8 O8 2.134140 1_455
Ni8 O5 2.155625 1_555
Ni8 O22 2.155625 1_555
Ni9 O20 2.017732 1_555
Ni9 O7 2.063908 1_555
Ni9 O31 2.071010 1_555
Ni9 O4 2.079819 1_565
Ni9 O25 2.118753 1_555
Ni9 O15 2.128236 1_565
Ni10 O24 2.017732 1_555
Ni10 O23 2.063908 1_555
Ni10 O27 2.071010 1_555
Ni10 O1 2.079819 1_555
Ni10 O17 2.118753 1_555
Ni10 O6 2.128236 1_555
Ni11 O0 2.017732 1_665
Ni11 O16 2.063908 1_555
Ni11 O10 2.071010 1_565
Ni11 O18 2.079819 1_655
Ni11 O30 2.118753 1_655
Ni11 O11 2.128236 1_555
Ni12 O19 2.017732 1_455
Ni12 O5 2.063908 1_555
Ni12 O3 2.071010 1_555
Ni12 O8 2.079819 1_455
Ni12 O9 2.118753 1_455
Ni12 O14 2.128236 1_555
Ni13 O9 2.084662 1_455
Ni13 O13 2.084662 1_445
Ni13 O30 2.084662 1_545
Ni13 O12 2.084662 1_555
Ni13 O10 2.095447 1_455
Ni13 O3 2.095447 1_555
B0 O31 1.427937 1_655
B0 O20 1.475524 1_555
B0 O29 1.559484 1_555
B0 O25 1.559484 1_555
B1 O10 1.427937 1_555
B1 O0 1.475524 1_555
B1 O30 1.559484 1_545
B1 O12 1.559484 1_555
B2 O18 1.380810 1_555
B2 O16 1.402697 1_555
B2 O21 1.402697 1_555
B3 O4 1.380810 1_455
B3 O28 1.402697 1_555
B3 O7 1.402697 1_545
B4 O27 1.427937 1_455
B4 O24 1.475524 1_555
B4 O17 1.559484 1_555
B4 O26 1.559484 1_555
B5 O1 1.380810 1_655
B5 O23 1.402697 1_555
B5 O2 1.402697 1_545
B6 O8 1.380810 1_555
B6 O22 1.402697 1_555
B6 O5 1.402697 1_555
B7 O3 1.427937 1_555
B7 O19 1.475524 1_555
B7 O13 1.559484 1_545
B7 O9 1.559484 1_555
O6 U0 1.938727 1_656
O9 U1 2.226935 1_555
O11 U1 1.938727 1_555
O12 U1 2.226935 1_555
O13 U1 2.226935 1_555
O14 U1 1.938727 1_555
O15 U0 1.938727 1_555
O17 U0 2.226935 1_556
O25 U0 2.226935 1_665
O26 U0 2.226935 1_566
O29 U0 2.226935 1_655
O30 U1 2.226935 1_555
