# generated using pymatgen
data_Np(CrGe)2
_symmetry_space_group_name_H-M   'P 1'
_cell_length_a   6.19024846
_cell_length_b   6.19024846
_cell_length_c   6.19024846
_cell_angle_alpha   143.41244547
_cell_angle_beta   143.41244547
_cell_angle_gamma   52.70680414
_symmetry_Int_Tables_number   1
_chemical_formula_structural   Np(CrGe)2
_chemical_formula_sum   'Np1 Cr2 Ge2'
_cell_volume   83.76851102
_cell_formula_units_Z   1
loop_
 _symmetry_equiv_pos_site_id
 _symmetry_equiv_pos_as_xyz
  1  'x, y, z'
loop_
 _atom_site_type_symbol
 _atom_site_label
 _atom_site_symmetry_multiplicity
 _atom_site_fract_x
 _atom_site_fract_y
 _atom_site_fract_z
 _atom_site_occupancy
  Np  Np0  1  0.00000000  0.00000000  0.00000000  1
  Cr  Cr0  1  0.25000000  0.75000000  0.50000000  1
  Cr  Cr1  1  0.75000000  0.25000000  0.50000000  1
  Ge  Ge0  1  0.38451300  0.38451300  0.00000000  1
  Ge  Ge1  1  0.61548700  0.61548700  0.00000000  1
loop_
_geom_bond_atom_site_label_1
_geom_bond_atom_site_label_2
_geom_bond_distance
_geom_bond_site_symmetry_2
Cr0 Ge1 2.449961 1_556
Cr0 Ge0 2.449961 1_555
Cr0 Ge1 2.449961 1_455
Cr0 Ge0 2.449961 1_566
Cr1 Ge1 2.449961 1_545
Cr1 Ge1 2.449961 1_556
Cr1 Ge0 2.449961 1_555
Cr1 Ge0 2.449961 1_656
Ge0 Ge1 2.562386 1_555
Ge0 Np0 3.031891 1_565
Ge0 Np0 3.031891 1_655
Ge0 Np0 3.031891 1_666
Ge0 Np0 3.031891 1_554
Ge1 Np0 3.031891 1_565
Ge1 Np0 3.031891 1_655
Ge1 Np0 3.031891 1_666
Ge1 Np0 3.031891 1_554
