# generated using pymatgen
data_HIO3
_symmetry_space_group_name_H-M   'P 1'
_cell_length_a   5.68986300
_cell_length_b   6.28102400
_cell_length_c   15.26468600
_cell_angle_alpha   90.00000000
_cell_angle_beta   90.00000000
_cell_angle_gamma   90.00000000
_symmetry_Int_Tables_number   1
_chemical_formula_structural   HIO3
_chemical_formula_sum   'H8 I8 O24'
_cell_volume   545.53188312
_cell_formula_units_Z   8
loop_
 _symmetry_equiv_pos_site_id
 _symmetry_equiv_pos_as_xyz
  1  'x, y, z'
loop_
 _atom_site_type_symbol
 _atom_site_label
 _atom_site_symmetry_multiplicity
 _atom_site_fract_x
 _atom_site_fract_y
 _atom_site_fract_z
 _atom_site_occupancy
  H  H0  1  0.14121100  0.34506600  0.00170300  1
  H  H1  1  0.85878900  0.65493400  0.99829700  1
  H  H2  1  0.35878900  0.84506600  0.00170300  1
  H  H3  1  0.85878900  0.84506600  0.49829700  1
  H  H4  1  0.14121100  0.15493400  0.50170300  1
  H  H5  1  0.64121100  0.15493400  0.99829700  1
  H  H6  1  0.35878900  0.65493400  0.50170300  1
  H  H7  1  0.64121100  0.34506600  0.49829700  1
  I  I0  1  0.00491100  0.15890900  0.65561100  1
  I  I1  1  0.49508900  0.84109100  0.15561100  1
  I  I2  1  0.50491100  0.34109100  0.34438900  1
  I  I3  1  0.99508900  0.84109100  0.34438900  1
  I  I4  1  0.00491100  0.34109100  0.15561100  1
  I  I5  1  0.99508900  0.65890900  0.84438900  1
  I  I6  1  0.50491100  0.15890900  0.84438900  1
  I  I7  1  0.49508900  0.65890900  0.65561100  1
  O  O0  1  0.74683000  0.48525800  0.29054600  1
  O  O1  1  0.24683000  0.48525800  0.20945400  1
  O  O2  1  0.16391600  0.24458800  0.05268300  1
  O  O3  1  0.84605400  0.94321600  0.60290300  1
  O  O4  1  0.75317000  0.98525800  0.29054600  1
  O  O5  1  0.34605400  0.94321600  0.89709700  1
  O  O6  1  0.83608400  0.74458800  0.44731700  1
  O  O7  1  0.15394600  0.05678400  0.39709700  1
  O  O8  1  0.15394600  0.44321600  0.89709700  1
  O  O9  1  0.25317000  0.51474200  0.70945400  1
  O  O10  1  0.65394600  0.44321600  0.60290300  1
  O  O11  1  0.33608400  0.75541200  0.55268300  1
  O  O12  1  0.74683000  0.01474200  0.79054600  1
  O  O13  1  0.83608400  0.75541200  0.94731700  1
  O  O14  1  0.16391600  0.25541200  0.55268300  1
  O  O15  1  0.24683000  0.01474200  0.70945400  1
  O  O16  1  0.33608400  0.74458800  0.05268300  1
  O  O17  1  0.75317000  0.51474200  0.79054600  1
  O  O18  1  0.34605400  0.55678400  0.39709700  1
  O  O19  1  0.66391600  0.24458800  0.44731700  1
  O  O20  1  0.84605400  0.55678400  0.10290300  1
  O  O21  1  0.65394600  0.05678400  0.10290300  1
  O  O22  1  0.66391600  0.25541200  0.94731700  1
  O  O23  1  0.25317000  0.98525800  0.20945400  1
loop_
_geom_bond_atom_site_label_1
_geom_bond_atom_site_label_2
_geom_bond_distance
_geom_bond_site_symmetry_2
H0 O2 1.010232 1_555
H0 O8 1.713184 1_554
H1 O13 1.010232 1_555
H1 O20 1.713184 1_556
H2 O16 1.010232 1_555
H2 O5 1.713184 1_554
H3 O6 1.010232 1_555
H3 O3 1.713184 1_555
H4 O14 1.010232 1_555
H4 O7 1.713184 1_555
H5 O22 1.010232 1_555
H5 O21 1.713184 1_556
H6 O11 1.010232 1_555
H6 O18 1.713184 1_555
H7 O19 1.010232 1_555
H7 O10 1.713184 1_555
I0 O3 1.816517 1_445
I0 O15 1.841246 1_555
I0 O14 1.911667 1_555
I1 O21 1.816517 1_565
I1 O23 1.841246 1_555
I1 O16 1.911667 1_555
I2 O18 1.816517 1_555
I2 O0 1.841246 1_555
I2 O19 1.911667 1_555
I3 O7 1.816517 1_665
I3 O4 1.841246 1_555
I3 O6 1.911667 1_555
I4 O20 1.816517 1_455
I4 O1 1.841246 1_555
I4 O2 1.911667 1_555
I5 O8 1.816517 1_655
I5 O17 1.841246 1_555
I5 O13 1.911667 1_555
I6 O5 1.816517 1_545
I6 O12 1.841246 1_555
I6 O22 1.911667 1_555
I7 O10 1.816517 1_555
I7 O9 1.841246 1_555
I7 O11 1.911667 1_555
