# generated using pymatgen
data_CsC
_symmetry_space_group_name_H-M   'P 1'
_cell_length_a   5.05562300
_cell_length_b   9.79442000
_cell_length_c   10.49125600
_cell_angle_alpha   90.00000000
_cell_angle_beta   90.00000000
_cell_angle_gamma   90.00000000
_symmetry_Int_Tables_number   1
_chemical_formula_structural   CsC
_chemical_formula_sum   'Cs8 C8'
_cell_volume   519.49442202
_cell_formula_units_Z   8
loop_
 _symmetry_equiv_pos_site_id
 _symmetry_equiv_pos_as_xyz
  1  'x, y, z'
loop_
 _atom_site_type_symbol
 _atom_site_label
 _atom_site_symmetry_multiplicity
 _atom_site_fract_x
 _atom_site_fract_y
 _atom_site_fract_z
 _atom_site_occupancy
  Cs  Cs0  1  0.25000000  0.98418900  0.66745100  1
  Cs  Cs1  1  0.25000000  0.48418900  0.83254900  1
  Cs  Cs2  1  0.75000000  0.51581100  0.16745100  1
  Cs  Cs3  1  0.75000000  0.15739500  0.93115600  1
  Cs  Cs4  1  0.75000000  0.01581100  0.33254900  1
  Cs  Cs5  1  0.25000000  0.84260500  0.06884400  1
  Cs  Cs6  1  0.75000000  0.65739500  0.56884400  1
  Cs  Cs7  1  0.25000000  0.34260500  0.43115600  1
  C  C0  1  0.75000000  0.70995900  0.90737800  1
  C  C1  1  0.25000000  0.79004100  0.40737800  1
  C  C2  1  0.25000000  0.67756800  0.34695600  1
  C  C3  1  0.75000000  0.32243200  0.65304400  1
  C  C4  1  0.25000000  0.17756800  0.15304400  1
  C  C5  1  0.75000000  0.82243200  0.84695600  1
  C  C6  1  0.25000000  0.29004100  0.09262200  1
  C  C7  1  0.75000000  0.20995900  0.59262200  1
loop_
_geom_bond_atom_site_label_1
_geom_bond_atom_site_label_2
_geom_bond_distance
_geom_bond_site_symmetry_2
C0 C5 1.270973 1_555
C0 Cs5 3.308670 1_556
C0 Cs5 3.308670 1_656
C0 Cs2 3.325752 1_556
C0 Cs1 3.449046 1_555
C0 Cs1 3.449046 1_655
C0 Cs6 3.588767 1_555
C1 C2 1.270973 1_555
C1 Cs6 3.308670 1_455
C1 Cs6 3.308670 1_555
C1 Cs0 3.325752 1_555
C1 Cs4 3.449046 1_565
C1 Cs4 3.449046 1_465
C1 Cs5 3.588767 1_555
C2 Cs5 3.335583 1_555
C2 Cs7 3.397613 1_555
C2 Cs6 3.442080 1_455
C2 Cs6 3.442080 1_555
C2 Cs2 3.527953 1_555
C2 Cs2 3.527953 1_455
C3 C7 1.270973 1_555
C3 Cs3 3.335583 1_555
C3 Cs6 3.397613 1_555
C3 Cs7 3.442080 1_555
C3 Cs7 3.442080 1_655
C3 Cs1 3.527953 1_655
C3 Cs1 3.527953 1_555
C4 C6 1.270973 1_555
C4 Cs7 3.335583 1_555
C4 Cs5 3.397613 1_545
C4 Cs3 3.442080 1_554
C4 Cs3 3.442080 1_454
C4 Cs4 3.527953 1_455
C4 Cs4 3.527953 1_555
C5 Cs6 3.335583 1_555
C5 Cs3 3.397613 1_565
C5 Cs5 3.442080 1_656
C5 Cs5 3.442080 1_556
C5 Cs0 3.527953 1_555
C5 Cs0 3.527953 1_655
C6 Cs3 3.308670 1_554
C6 Cs3 3.308670 1_454
C6 Cs1 3.325752 1_554
C6 Cs2 3.449046 1_555
C6 Cs2 3.449046 1_455
C6 Cs7 3.588767 1_555
C7 Cs7 3.308670 1_655
C7 Cs7 3.308670 1_555
C7 Cs4 3.325752 1_555
C7 Cs0 3.449046 1_545
C7 Cs0 3.449046 1_645
C7 Cs3 3.588767 1_555
