# generated using pymatgen
data_SiP2O7
_symmetry_space_group_name_H-M   'P 1'
_cell_length_a   4.71329430
_cell_length_b   4.71329335
_cell_length_c   11.99708982
_cell_angle_alpha   89.99999896
_cell_angle_beta   89.99999924
_cell_angle_gamma   120.00002431
_symmetry_Int_Tables_number   1
_chemical_formula_structural   SiP2O7
_chemical_formula_sum   'Si2 P4 O14'
_cell_volume   230.81044791
_cell_formula_units_Z   2
loop_
 _symmetry_equiv_pos_site_id
 _symmetry_equiv_pos_as_xyz
  1  'x, y, z'
loop_
 _atom_site_type_symbol
 _atom_site_label
 _atom_site_symmetry_multiplicity
 _atom_site_fract_x
 _atom_site_fract_y
 _atom_site_fract_z
 _atom_site_occupancy
  Si  Si0  1  0.00000013  0.00000001  0.00000001  1
  Si  Si1  1  -0.00000003  0.00000002  0.50000001  1
  P  P0  1  0.33333332  0.66666657  0.87979528  1
  P  P1  1  0.66666679  0.33333348  0.12020474  1
  P  P2  1  0.66666656  0.33333342  0.37979528  1
  P  P3  1  0.33333335  0.66666650  0.62020471  1
  O  O0  1  0.93492512  0.26525268  0.08608508  1
  O  O1  1  0.73474770  0.66967223  0.08608520  1
  O  O2  1  0.06507488  0.73474726  0.58608506  1
  O  O3  1  0.26525231  0.33032773  0.91391480  1
  O  O4  1  0.33333304  0.66666699  0.74999999  1
  O  O5  1  0.66967225  0.93492492  0.58608513  1
  O  O6  1  0.73474753  0.66967221  0.41391481  1
  O  O7  1  0.66967230  0.93492463  0.91391486  1
  O  O8  1  0.33032787  0.06507510  0.08608506  1
  O  O9  1  0.26525274  0.33032798  0.58608516  1
  O  O10  1  0.93492501  0.26525268  0.41391494  1
  O  O11  1  0.33032773  0.06507512  0.41391492  1
  O  O12  1  0.06507510  0.73474745  0.91391495  1
  O  O13  1  0.66666630  0.33333303  0.25000001  1
loop_
_geom_bond_atom_site_label_1
_geom_bond_atom_site_label_2
_geom_bond_distance
_geom_bond_site_symmetry_2
O0 P1 1.508278 1_555
O0 Si0 1.762722 1_655
O1 P1 1.508275 1_555
O1 Si0 1.762722 1_665
O2 P3 1.508278 1_555
O2 Si1 1.762722 1_565
O3 P0 1.508275 1_555
O3 Si0 1.762722 1_556
O4 P3 1.557166 1_555
O4 P0 1.557166 1_555
O5 P3 1.508276 1_555
O5 Si1 1.762722 1_665
O6 P2 1.508275 1_555
O6 Si1 1.762722 1_665
O7 P0 1.508276 1_555
O7 Si0 1.762722 1_666
O8 P1 1.508277 1_555
O8 Si0 1.762722 1_555
O9 P3 1.508275 1_555
O9 Si1 1.762723 1_555
O10 P2 1.508278 1_555
O10 Si1 1.762721 1_655
O11 P2 1.508276 1_555
O11 Si1 1.762722 1_555
O12 P0 1.508278 1_555
O12 Si0 1.762721 1_566
O13 P2 1.557166 1_555
O13 P1 1.557166 1_555
