# generated using pymatgen
data_AlS2NCl4
_symmetry_space_group_name_H-M   'P 1'
_cell_length_a   7.58803000
_cell_length_b   10.93618200
_cell_length_c   11.47805700
_cell_angle_alpha   90.00000000
_cell_angle_beta   90.00000000
_cell_angle_gamma   90.00000000
_symmetry_Int_Tables_number   1
_chemical_formula_structural   AlS2NCl4
_chemical_formula_sum   'Al4 S8 N4 Cl16'
_cell_volume   952.49596706
_cell_formula_units_Z   4
loop_
 _symmetry_equiv_pos_site_id
 _symmetry_equiv_pos_as_xyz
  1  'x, y, z'
loop_
 _atom_site_type_symbol
 _atom_site_label
 _atom_site_symmetry_multiplicity
 _atom_site_fract_x
 _atom_site_fract_y
 _atom_site_fract_z
 _atom_site_occupancy
  Al  Al0  1  0.75000000  0.79927100  0.39280900  1
  Al  Al1  1  0.25000000  0.29927100  0.10719100  1
  Al  Al2  1  0.25000000  0.20072900  0.60719100  1
  Al  Al3  1  0.75000000  0.70072900  0.89280900  1
  S  S0  1  0.25000000  0.83895700  0.62716800  1
  S  S1  1  0.25000000  0.56726300  0.66298900  1
  S  S2  1  0.75000000  0.43273700  0.33701100  1
  S  S3  1  0.75000000  0.06726300  0.83701100  1
  S  S4  1  0.25000000  0.66104300  0.12716800  1
  S  S5  1  0.75000000  0.33895700  0.87283200  1
  S  S6  1  0.25000000  0.93273700  0.16298900  1
  S  S7  1  0.75000000  0.16104300  0.37283200  1
  N  N0  1  0.75000000  0.20341400  0.85400300  1
  N  N1  1  0.25000000  0.70341400  0.64599700  1
  N  N2  1  0.25000000  0.79658600  0.14599700  1
  N  N3  1  0.75000000  0.29658600  0.35400300  1
  Cl  Cl0  1  0.02016300  0.31703200  0.60738800  1
  Cl  Cl1  1  0.25000000  0.41931900  0.95768700  1
  Cl  Cl2  1  0.25000000  0.08824300  0.76216000  1
  Cl  Cl3  1  0.52016300  0.81703200  0.89261200  1
  Cl  Cl4  1  0.75000000  0.91175700  0.23784000  1
  Cl  Cl5  1  0.52016300  0.68296800  0.39261200  1
  Cl  Cl6  1  0.25000000  0.41175700  0.26216000  1
  Cl  Cl7  1  0.25000000  0.08068100  0.45768700  1
  Cl  Cl8  1  0.75000000  0.58068100  0.04231300  1
  Cl  Cl9  1  0.02016300  0.18296800  0.10738800  1
  Cl  Cl10  1  0.47983700  0.18296800  0.10738800  1
  Cl  Cl11  1  0.75000000  0.91931900  0.54231300  1
  Cl  Cl12  1  0.97983700  0.68296800  0.39261200  1
  Cl  Cl13  1  0.75000000  0.58824300  0.73784000  1
  Cl  Cl14  1  0.47983700  0.31703200  0.60738800  1
  Cl  Cl15  1  0.97983700  0.81703200  0.89261200  1
loop_
_geom_bond_atom_site_label_1
_geom_bond_atom_site_label_2
_geom_bond_distance
_geom_bond_site_symmetry_2
Al0 Cl5 2.158549 1_555
Al0 Cl12 2.158549 1_555
Al0 Cl11 2.160631 1_555
Al0 Cl4 2.162692 1_555
Al1 Cl10 2.158549 1_555
Al1 Cl9 2.158549 1_555
Al1 Cl1 2.160631 1_554
Al1 Cl6 2.162692 1_555
Al2 Cl0 2.158549 1_555
Al2 Cl14 2.158549 1_555
Al2 Cl7 2.160631 1_555
Al2 Cl2 2.162692 1_555
Al3 Cl15 2.158549 1_555
Al3 Cl3 2.158549 1_555
Al3 Cl8 2.160631 1_556
Al3 Cl13 2.162692 1_555
N0 S5 1.497995 1_555
N0 S3 1.501691 1_555
N1 S0 1.497995 1_555
N1 S1 1.501691 1_555
N2 S4 1.497995 1_555
N2 S6 1.501691 1_555
N3 S7 1.497995 1_555
N3 S2 1.501691 1_555
