# generated using pymatgen
data_La(MnSi)2
_symmetry_space_group_name_H-M   'P 1'
_cell_length_a   4.19653496
_cell_length_b   4.19653573
_cell_length_c   6.10210002
_cell_angle_alpha   110.11220960
_cell_angle_beta   110.11221139
_cell_angle_gamma   90.00000103
_symmetry_Int_Tables_number   1
_chemical_formula_structural   La(MnSi)2
_chemical_formula_sum   'La1 Mn2 Si2'
_cell_volume   93.90128621
_cell_formula_units_Z   1
loop_
 _symmetry_equiv_pos_site_id
 _symmetry_equiv_pos_as_xyz
  1  'x, y, z'
loop_
 _atom_site_type_symbol
 _atom_site_label
 _atom_site_symmetry_multiplicity
 _atom_site_fract_x
 _atom_site_fract_y
 _atom_site_fract_z
 _atom_site_occupancy
  La  La0  1  0.00000000  0.00000000  0.00000000  1
  Mn  Mn0  1  0.25000000  0.75000000  0.50000000  1
  Mn  Mn1  1  0.75000000  0.25000000  0.50000000  1
  Si  Si0  1  0.61698990  0.61698990  0.23397980  1
  Si  Si1  1  0.38301010  0.38301010  0.76602020  1
loop_
_geom_bond_atom_site_label_1
_geom_bond_atom_site_label_2
_geom_bond_distance
_geom_bond_site_symmetry_2
La0 Si1 3.218992 1_554
La0 Si0 3.218992 1_445
La0 Si0 3.218992 1_545
La0 Si1 3.218992 1_454
La0 Si1 3.218992 1_544
La0 Si0 3.218992 1_455
La0 Si1 3.218992 1_444
La0 Si0 3.218992 1_555
La0 Mn1 3.392679 1_455
La0 Mn0 3.392679 1_544
La0 Mn0 3.392679 1_545
La0 Mn1 3.392679 1_454
La0 Mn1 3.392679 1_555
La0 Mn0 3.392679 1_444
La0 Mn1 3.392679 1_444
La0 Mn0 3.392679 1_555
Mn0 Si0 2.532713 1_555
Mn0 Si0 2.532714 1_455
Mn0 Si1 2.532714 1_555
Mn0 Si1 2.532714 1_565
Mn1 Si1 2.532713 1_555
Mn1 Si1 2.532714 1_655
Mn1 Si0 2.532714 1_555
Mn1 Si0 2.532714 1_545
Si0 Si1 2.495158 1_554
