# generated using pymatgen
data_Ba2Eu3Mn2(CuO6)2
_symmetry_space_group_name_H-M   'P 1'
_cell_length_a   18.28695178
_cell_length_b   18.28695178
_cell_length_c   18.28695178
_cell_angle_alpha   167.74147155
_cell_angle_beta   167.74147155
_cell_angle_gamma   17.36956797
_symmetry_Int_Tables_number   1
_chemical_formula_structural   Ba2Eu3Mn2(CuO6)2
_chemical_formula_sum   'Ba2 Eu3 Mn2 Cu2 O12'
_cell_volume   275.67012135
_cell_formula_units_Z   1
loop_
 _symmetry_equiv_pos_site_id
 _symmetry_equiv_pos_as_xyz
  1  'x, y, z'
loop_
 _atom_site_type_symbol
 _atom_site_label
 _atom_site_symmetry_multiplicity
 _atom_site_fract_x
 _atom_site_fract_y
 _atom_site_fract_z
 _atom_site_occupancy
  Ba  Ba0  1  0.60479700  0.60479700  0.00000000  1
  Ba  Ba1  1  0.39520300  0.39520300  0.00000000  1
  Eu  Eu0  1  0.50000000  0.50000000  0.00000000  1
  Eu  Eu1  1  0.71309400  0.71309400  0.00000000  1
  Eu  Eu2  1  0.28690600  0.28690600  0.00000000  1
  Mn  Mn0  1  0.16548700  0.16548700  0.00000000  1
  Mn  Mn1  1  0.83451300  0.83451300  0.00000000  1
  Cu  Cu0  1  0.95166100  0.95166100  0.00000000  1
  Cu  Cu1  1  0.04833900  0.04833900  0.00000000  1
  O  O0  1  0.32964000  0.82964000  0.50000000  1
  O  O1  1  0.22300900  0.22300900  0.00000000  1
  O  O2  1  0.54219400  0.04219400  0.50000000  1
  O  O3  1  0.88635600  0.88635600  0.00000000  1
  O  O4  1  0.17036000  0.67036000  0.50000000  1
  O  O5  1  0.82964000  0.32964000  0.50000000  1
  O  O6  1  0.95780600  0.45780600  0.50000000  1
  O  O7  1  0.04219400  0.54219400  0.50000000  1
  O  O8  1  0.77699100  0.77699100  0.00000000  1
  O  O9  1  0.45780600  0.95780600  0.50000000  1
  O  O10  1  0.11364400  0.11364400  0.00000000  1
  O  O11  1  0.67036000  0.17036000  0.50000000  1
loop_
_geom_bond_atom_site_label_1
_geom_bond_atom_site_label_2
_geom_bond_distance
_geom_bond_site_symmetry_2
Ba0 O10 2.779763 1_554
Ba0 O10 2.779763 1_655
Ba0 O10 2.779763 1_565
Ba0 O10 2.779763 1_666
Ba0 O2 2.989195 1_565
Ba0 O7 2.989195 1_655
Ba0 O7 2.989195 1_554
Ba0 O2 2.989195 1_554
Ba0 O4 3.071023 1_554
Ba0 O11 3.071023 1_565
Ba0 O11 3.071023 1_554
Ba0 O4 3.071023 1_655
Ba1 O3 2.779763 1_556
Ba1 O3 2.779763 1_545
Ba1 O3 2.779763 1_444
Ba1 O3 2.779763 1_455
Ba1 O6 2.989195 1_555
Ba1 O9 2.989195 1_555
Ba1 O9 2.989195 1_544
Ba1 O6 2.989195 1_454
Ba1 O5 3.071023 1_454
Ba1 O0 3.071023 1_544
Ba1 O0 3.071023 1_555
Ba1 O5 3.071023 1_555
Eu0 O2 2.477812 1_565
Eu0 O7 2.477812 1_655
Eu0 O7 2.477812 1_554
Eu0 O2 2.477812 1_554
Eu0 O6 2.477812 1_555
Eu0 O9 2.477812 1_555
Eu0 O9 2.477812 1_544
Eu0 O6 2.477812 1_454
Eu1 O8 2.310167 1_555
Eu1 O4 2.489879 1_655
Eu1 O11 2.489879 1_565
Eu1 O4 2.489879 1_554
Eu1 O11 2.489879 1_554
Eu1 O1 2.784470 1_655
Eu1 O1 2.784470 1_565
Eu1 O1 2.784470 1_666
Eu1 O1 2.784470 1_554
Eu2 O1 2.310167 1_555
Eu2 O0 2.489879 1_544
Eu2 O0 2.489879 1_555
Eu2 O5 2.489879 1_454
Eu2 O5 2.489879 1_555
Eu2 O8 2.784470 1_545
Eu2 O8 2.784470 1_556
Eu2 O8 2.784470 1_444
Eu2 O8 2.784470 1_455
Mn0 O10 1.874360 1_555
Mn0 O11 1.960465 1_454
Mn0 O4 1.960465 1_544
Mn0 O4 1.960465 1_555
Mn0 O11 1.960465 1_555
Mn0 O1 2.079682 1_555
Mn1 O3 1.874360 1_555
Mn1 O0 1.960465 1_554
Mn1 O0 1.960465 1_655
Mn1 O5 1.960465 1_554
Mn1 O5 1.960465 1_565
Mn1 O8 2.079682 1_555
Cu0 O9 1.965132 1_554
Cu0 O6 1.965132 1_554
Cu0 O9 1.965132 1_655
Cu0 O6 1.965132 1_565
Cu0 O3 2.361073 1_555
Cu1 O7 1.965132 1_544
Cu1 O2 1.965132 1_454
Cu1 O7 1.965132 1_555
Cu1 O2 1.965132 1_555
Cu1 O10 2.361073 1_555
