# generated using pymatgen
data_KYP2O7
_symmetry_space_group_name_H-M   'P 1'
_cell_length_a   5.41342001
_cell_length_b   5.41342050
_cell_length_c   12.13710099
_cell_angle_alpha   90.00000000
_cell_angle_beta   90.00000000
_cell_angle_gamma   116.13221172
_symmetry_Int_Tables_number   1
_chemical_formula_structural   KYP2O7
_chemical_formula_sum   'K2 Y2 P4 O14'
_cell_volume   319.32169648
_cell_formula_units_Z   2
loop_
 _symmetry_equiv_pos_site_id
 _symmetry_equiv_pos_as_xyz
  1  'x, y, z'
loop_
 _atom_site_type_symbol
 _atom_site_label
 _atom_site_symmetry_multiplicity
 _atom_site_fract_x
 _atom_site_fract_y
 _atom_site_fract_z
 _atom_site_occupancy
  K  K0  1  0.69602589  0.30397411  0.25000000  1
  K  K1  1  0.30397411  0.69602589  0.75000000  1
  Y  Y0  1  -0.00000000  -0.00000000  0.00000000  1
  Y  Y1  1  -0.00000000  -0.00000000  0.50000000  1
  P  P0  1  0.35691325  0.64308675  0.37082942  1
  P  P1  1  0.64308675  0.35691325  0.62917058  1
  P  P2  1  0.35691325  0.64308675  0.12917058  1
  P  P3  1  0.64308675  0.35691325  0.87082942  1
  O  O0  1  0.33234445  0.22866413  0.62432683  1
  O  O1  1  0.76982069  0.23017931  0.55140875  1
  O  O2  1  0.66765555  0.77133587  0.37567317  1
  O  O3  1  0.66765555  0.77133587  0.12432683  1
  O  O4  1  0.23017931  0.76982069  0.44859125  1
  O  O5  1  0.77133587  0.66765555  0.87567317  1
  O  O6  1  0.23017931  0.76982069  0.05140875  1
  O  O7  1  0.76982069  0.23017931  0.94859125  1
  O  O8  1  0.77133587  0.66765555  0.62432683  1
  O  O9  1  0.71971285  0.28028715  0.75000000  1
  O  O10  1  0.22866413  0.33234445  0.37567317  1
  O  O11  1  0.22866413  0.33234445  0.12432683  1
  O  O12  1  0.28028715  0.71971285  0.25000000  1
  O  O13  1  0.33234445  0.22866413  0.87567317  1
loop_
_geom_bond_atom_site_label_1
_geom_bond_atom_site_label_2
_geom_bond_distance
_geom_bond_site_symmetry_2
K0 O12 2.966200 1_655
K0 O12 2.966200 1_545
K0 O10 3.015537 1_555
K0 O11 3.015537 1_555
K0 O2 3.015537 1_555
K0 O3 3.015537 1_555
K0 O10 3.205313 1_655
K0 O11 3.205313 1_655
K0 O3 3.205313 1_545
K0 O2 3.205313 1_545
K1 O9 2.966200 1_455
K1 O9 2.966200 1_565
K1 O8 3.015537 1_555
K1 O5 3.015537 1_555
K1 O0 3.015537 1_555
K1 O13 3.015537 1_555
K1 O5 3.205313 1_455
K1 O8 3.205313 1_455
K1 O13 3.205313 1_565
K1 O0 3.205313 1_565
O0 P1 1.512090 1_555
O0 Y1 2.254843 1_555
O1 P1 1.498917 1_555
O1 Y1 2.205075 1_655
O2 P0 1.512090 1_555
O2 Y1 2.254843 1_665
O3 P2 1.512090 1_555
O3 Y0 2.254843 1_665
O4 P0 1.498917 1_555
O4 Y1 2.205075 1_565
O5 P3 1.512090 1_555
O5 Y0 2.254844 1_666
O6 P2 1.498917 1_555
O6 Y0 2.205075 1_565
O7 P3 1.498917 1_555
O7 Y0 2.205075 1_656
O8 P1 1.512090 1_555
O8 Y1 2.254844 1_665
O9 P1 1.626771 1_555
O9 P3 1.626771 1_555
O10 P0 1.512090 1_555
O10 Y1 2.254844 1_555
O11 P2 1.512090 1_555
O11 Y0 2.254844 1_555
O12 P2 1.626771 1_555
O12 P0 1.626771 1_555
O13 P3 1.512090 1_555
O13 Y0 2.254843 1_556
