# generated using pymatgen
data_Si3PH27C9BrN2
_symmetry_space_group_name_H-M   'P 1'
_cell_length_a   9.20510000
_cell_length_b   9.74866445
_cell_length_c   12.67255382
_cell_angle_alpha   76.26109766
_cell_angle_beta   81.31903547
_cell_angle_gamma   62.87677425
_symmetry_Int_Tables_number   1
_chemical_formula_structural   Si3PH27C9BrN2
_chemical_formula_sum   'Si6 P2 H54 C18 Br2 N4'
_cell_volume   981.98537976
_cell_formula_units_Z   2
loop_
 _symmetry_equiv_pos_site_id
 _symmetry_equiv_pos_as_xyz
  1  'x, y, z'
loop_
 _atom_site_type_symbol
 _atom_site_label
 _atom_site_symmetry_multiplicity
 _atom_site_fract_x
 _atom_site_fract_y
 _atom_site_fract_z
 _atom_site_occupancy
  Si  Si0  1  0.21100600  0.01688800  0.76639800  1
  Si  Si1  1  0.11659900  0.55204900  0.20541000  1
  Si  Si2  1  0.23023900  0.72702200  0.33362400  1
  Si  Si3  1  0.78899400  0.98311200  0.23360200  1
  Si  Si4  1  0.88340100  0.44795100  0.79459000  1
  Si  Si5  1  0.76976100  0.27297800  0.66637600  1
  P  P0  1  0.09873500  0.91886300  0.06245300  1
  P  P1  1  0.90126500  0.08113700  0.93754700  1
  H  H0  1  0.25567300  0.40470600  0.05674600  1
  H  H1  1  0.62630000  0.50853400  0.91233900  1
  H  H2  1  0.85077900  0.61857600  0.60710700  1
  H  H3  1  0.96123300  0.03354500  0.58919500  1
  H  H4  1  0.36850000  0.75294300  0.72558200  1
  H  H5  1  0.84200400  0.18681400  0.29102600  1
  H  H6  1  0.78589300  0.75495600  0.37379700  1
  H  H7  1  0.14922100  0.38142400  0.39289300  1
  H  H8  1  0.14788500  0.13455200  0.56927700  1
  H  H9  1  0.15204200  0.01743800  0.29420400  1
  H  H10  1  0.65561600  0.65261100  0.67350700  1
  H  H11  1  0.64224200  0.93866000  0.40665300  1
  H  H12  1  0.34438400  0.34738900  0.32649300  1
  H  H13  1  0.37370000  0.49146600  0.08766100  1
  H  H14  1  0.44366000  0.74180600  0.19048500  1
  H  H15  1  0.49512300  0.92569100  0.80680300  1
  H  H16  1  0.55634000  0.25819400  0.80951500  1
  H  H17  1  0.31976400  0.60086300  0.51962200  1
  H  H18  1  0.37482600  0.10382300  0.85458300  1
  H  H19  1  0.71707900  0.53087000  0.53496200  1
  H  H20  1  0.28292100  0.46913000  0.46503800  1
  H  H21  1  0.75245300  0.08226000  0.58041600  1
  H  H22  1  0.22169600  0.27386500  0.28598500  1
  H  H23  1  0.37774600  0.92463100  0.93100800  1
  H  H24  1  0.15799600  0.81318600  0.70897400  1
  H  H25  1  0.84795800  0.98256200  0.70579600  1
  H  H26  1  0.83564200  0.57588100  0.26579500  1
  H  H27  1  0.92806000  0.45833800  0.16515600  1
  H  H28  1  0.50487700  0.07430900  0.19319700  1
  H  H29  1  0.23518900  0.74549500  0.84104700  1
  H  H30  1  0.20038200  0.60715700  0.00723500  1
  H  H31  1  0.50345800  0.45630900  0.74561000  1
  H  H32  1  0.84218600  0.66552500  0.12607700  1
  H  H33  1  0.21410700  0.24504400  0.62620300  1
  H  H34  1  0.62517400  0.89617700  0.14541700  1
  H  H35  1  0.79961800  0.39284300  0.99276500  1
  H  H36  1  0.07194000  0.54166200  0.83484400  1
  H  H37  1  0.15781400  0.33447500  0.87392300  1
  H  H38  1  0.77830400  0.72613500  0.71401500  1
  H  H39  1  0.68023600  0.39913700  0.48037800  1
  H  H40  1  0.11626600  0.63054300  0.51224800  1
  H  H41  1  0.03876700  0.96645500  0.41080500  1
  H  H42  1  0.76481100  0.25450500  0.15895300  1
  H  H43  1  0.47482300  0.33092000  0.67830800  1
  H  H44  1  0.63150000  0.24705700  0.27441800  1
  H  H45  1  0.85211500  0.86544800  0.43072300  1
  H  H46  1  0.88373400  0.36945700  0.48775200  1
  H  H47  1  0.16435800  0.42411900  0.73420500  1
  H  H48  1  0.49654200  0.54369100  0.25439000  1
  H  H49  1  0.74432700  0.59529400  0.94325400  1
  H  H50  1  0.52517700  0.66908000  0.32169200  1
  H  H51  1  0.62225400  0.07536900  0.06899200  1
  H  H52  1  0.24754700  0.91774000  0.41958400  1
  H  H53  1  0.35775800  0.06134000  0.59334700  1
  C  C0  1  0.62209600  0.00776900  0.15165600  1
  C  C1  1  0.15814700  0.92698900  0.36620200  1
  C  C2  1  0.76282200  0.40705000  0.53068000  1
  C  C3  1  0.24869100  0.51133300  0.07719900  1
  C  C4  1  0.91065400  0.56636000  0.18929100  1
  C  C5  1  0.75634000  0.18592300  0.23999100  1
  C  C6  1  0.55673500  0.33570400  0.73081100  1
  C  C7  1  0.76765300  0.87418800  0.37419900  1
  C  C8  1  0.23234700  0.12581200  0.62580100  1
  C  C9  1  0.08934600  0.43364000  0.81070900  1
  C  C10  1  0.37790400  0.99223100  0.84834400  1
  C  C11  1  0.23717800  0.59295000  0.46932000  1
  C  C12  1  0.78204700  0.62589500  0.68589000  1
  C  C13  1  0.44326500  0.66429600  0.26918900  1
  C  C14  1  0.21795300  0.37410500  0.31411000  1
  C  C15  1  0.24366000  0.81407700  0.76000900  1
  C  C16  1  0.75130900  0.48866700  0.92280100  1
  C  C17  1  0.84185300  0.07301100  0.63379800  1
  Br  Br0  1  0.13356300  0.13787200  0.08212700  1
  Br  Br1  1  0.86643700  0.86212800  0.91787300  1
  N  N0  1  0.00710000  0.12681200  0.82393100  1
  N  N1  1  0.90253500  0.27599300  0.75464000  1
  N  N2  1  0.99290000  0.87318800  0.17606900  1
  N  N3  1  0.09746500  0.72400700  0.24536000  1
loop_
_geom_bond_atom_site_label_1
_geom_bond_atom_site_label_2
_geom_bond_distance
_geom_bond_site_symmetry_2
C0 H34 1.096629 1_545
C0 H51 1.097354 1_555
C0 H28 1.102139 1_555
C0 Si3 1.876900 1_545
C1 H9 1.096029 1_565
C1 H41 1.097905 1_555
C1 H52 1.102001 1_555
C1 Si2 1.879105 1_555
C2 H19 1.094559 1_555
C2 H46 1.099562 1_555
C2 H39 1.101515 1_555
C2 Si5 1.886507 1_555
C3 H30 1.096962 1_555
C3 H13 1.099949 1_555
C3 H0 1.101745 1_555
C3 Si1 1.883020 1_555
C4 H32 1.096595 1_555
C4 H26 1.098888 1_555
C4 H27 1.101146 1_555
C4 Si1 1.875430 1_655
C5 H5 1.096822 1_555
C5 H42 1.097704 1_555
C5 H44 1.101722 1_555
C5 Si3 1.879569 1_545
C6 H16 1.099626 1_555
C6 H31 1.099663 1_555
C6 H43 1.100742 1_555
C6 Si5 1.883188 1_555
C7 H45 1.097063 1_555
C7 H6 1.097217 1_555
C7 H11 1.102154 1_555
C7 Si3 1.877914 1_555
C8 H8 1.097063 1_555
C8 H33 1.097217 1_555
C8 H53 1.102154 1_555
C8 Si0 1.877914 1_555
C9 H37 1.096595 1_555
C9 H47 1.098888 1_555
C9 H36 1.101146 1_555
C9 Si4 1.875430 1_455
C10 H18 1.096629 1_565
C10 H23 1.097354 1_555
C10 H15 1.102139 1_555
C10 Si0 1.876900 1_565
C11 H20 1.094559 1_555
C11 H40 1.099562 1_555
C11 H17 1.101515 1_555
C11 Si2 1.886507 1_555
C12 H2 1.097336 1_555
C12 H10 1.098294 1_555
C12 H38 1.101899 1_555
C12 Si4 1.885311 1_555
C13 H14 1.099626 1_555
C13 H48 1.099663 1_555
C13 H50 1.100742 1_555
C13 Si2 1.883188 1_555
C14 H7 1.097336 1_555
C14 H12 1.098294 1_555
C14 H22 1.101899 1_555
C14 Si1 1.885311 1_555
C15 H24 1.096822 1_555
C15 H29 1.097704 1_555
C15 H4 1.101722 1_555
C15 Si0 1.879569 1_565
C16 H35 1.096962 1_555
C16 H1 1.099949 1_555
C16 H49 1.101745 1_555
C16 Si4 1.883020 1_555
C17 H25 1.096029 1_545
C17 H3 1.097905 1_555
C17 H21 1.102001 1_555
C17 Si5 1.879105 1_555
Br0 P0 2.371593 1_545
Br1 P1 2.371593 1_565
N0 N1 1.478082 1_455
N0 P1 1.699413 1_455
N0 Si0 1.823998 1_555
N1 Si4 1.790112 1_555
N1 Si5 1.790749 1_555
N2 N3 1.478082 1_655
N2 P0 1.699413 1_655
N2 Si3 1.823998 1_555
N3 Si1 1.790112 1_555
N3 Si2 1.790749 1_555
