# generated using pymatgen
data_CeGa6Pd
_symmetry_space_group_name_H-M   'P 1'
_cell_length_a   4.33829277
_cell_length_b   4.34312748
_cell_length_c   7.83389426
_cell_angle_alpha   90.00000000
_cell_angle_beta   90.00000000
_cell_angle_gamma   90.00000000
_symmetry_Int_Tables_number   1
_chemical_formula_structural   CeGa6Pd
_chemical_formula_sum   'Ce1 Ga6 Pd1'
_cell_volume   147.60434412
_cell_formula_units_Z   1
loop_
 _symmetry_equiv_pos_site_id
 _symmetry_equiv_pos_as_xyz
  1  'x, y, z'
loop_
 _atom_site_type_symbol
 _atom_site_label
 _atom_site_symmetry_multiplicity
 _atom_site_fract_x
 _atom_site_fract_y
 _atom_site_fract_z
 _atom_site_occupancy
  Ce  Ce0  1  -0.00000000  0.00000000  0.00000000  1
  Ga  Ga0  1  0.50000000  0.50000000  0.15088229  1
  Ga  Ga1  1  0.00000000  0.50000000  0.67259953  1
  Ga  Ga2  1  0.50000000  0.50000000  0.84911771  1
  Ga  Ga3  1  0.50000000  -0.00000000  0.67293518  1
  Ga  Ga4  1  -0.00000000  0.50000000  0.32740047  1
  Ga  Ga5  1  0.50000000  -0.00000000  0.32706482  1
  Pd  Pd0  1  -0.00000000  0.00000000  0.50000000  1
loop_
_geom_bond_atom_site_label_1
_geom_bond_atom_site_label_2
_geom_bond_distance
_geom_bond_site_symmetry_2
Ce0 Ga2 3.289073 1_554
Ce0 Ga2 3.289073 1_454
Ce0 Ga2 3.289073 1_544
Ce0 Ga2 3.289073 1_444
Ce0 Ga0 3.289073 1_555
Ce0 Ga0 3.289073 1_455
Ce0 Ga0 3.289073 1_445
Ce0 Ga0 3.289073 1_545
Ce0 Ga5 3.357085 1_555
Ce0 Ga5 3.357085 1_455
Ce0 Ga3 3.357085 1_554
Ce0 Ga3 3.357085 1_454
Ce0 Ga4 3.360654 1_545
Ce0 Ga4 3.360654 1_555
Ce0 Ga1 3.360654 1_554
Ce0 Ga1 3.360654 1_544
Ga0 Ga2 2.363992 1_554
Ga0 Ga4 2.572431 1_655
Ga0 Ga4 2.572431 1_555
Ga0 Ga5 2.573058 1_565
Ga0 Ga5 2.573058 1_555
Ga1 Pd0 2.558112 1_555
Ga1 Pd0 2.558112 1_565
Ga1 Ga2 2.572431 1_555
Ga1 Ga2 2.572431 1_455
Ga2 Ga3 2.573058 1_555
Ga2 Ga3 2.573058 1_565
Ga3 Pd0 2.557452 1_655
Ga3 Pd0 2.557452 1_555
Ga4 Pd0 2.558112 1_565
Ga4 Pd0 2.558112 1_555
Ga5 Pd0 2.557452 1_555
Ga5 Pd0 2.557452 1_655
