# generated using pymatgen
data_Zn3(PO4)2
_symmetry_space_group_name_H-M   'P 1'
_cell_length_a   9.24296800
_cell_length_b   8.42632800
_cell_length_c   8.88100545
_cell_angle_alpha   66.99733164
_cell_angle_beta   90.00000000
_cell_angle_gamma   90.00000000
_symmetry_Int_Tables_number   1
_chemical_formula_structural   Zn3(PO4)2
_chemical_formula_sum   'Zn12 P8 O32'
_cell_volume   636.69207321
_cell_formula_units_Z   4
loop_
 _symmetry_equiv_pos_site_id
 _symmetry_equiv_pos_as_xyz
  1  'x, y, z'
loop_
 _atom_site_type_symbol
 _atom_site_label
 _atom_site_symmetry_multiplicity
 _atom_site_fract_x
 _atom_site_fract_y
 _atom_site_fract_z
 _atom_site_occupancy
  Zn  Zn0  1  0.89178100  0.01501500  0.12900900  1
  Zn  Zn1  1  0.60821900  0.01501500  0.62900900  1
  Zn  Zn2  1  0.39178100  0.98498500  0.37099100  1
  Zn  Zn3  1  0.23265200  0.41633100  0.96688100  1
  Zn  Zn4  1  0.61155500  0.29165600  0.94799600  1
  Zn  Zn5  1  0.38844500  0.70834400  0.05200400  1
  Zn  Zn6  1  0.73265200  0.58366900  0.53311900  1
  Zn  Zn7  1  0.26734800  0.41633100  0.46688100  1
  Zn  Zn8  1  0.11155500  0.70834400  0.55200400  1
  Zn  Zn9  1  0.88844500  0.29165600  0.44799600  1
  Zn  Zn10  1  0.76734800  0.58366900  0.03311900  1
  Zn  Zn11  1  0.10821900  0.98498500  0.87099100  1
  P  P0  1  0.88563300  0.85706100  0.68130000  1
  P  P1  1  0.11436700  0.14293900  0.31870000  1
  P  P2  1  0.43841000  0.64476500  0.69128300  1
  P  P3  1  0.06159000  0.64476500  0.19128300  1
  P  P4  1  0.61436700  0.85706100  0.18130000  1
  P  P5  1  0.93841000  0.35523500  0.80871700  1
  P  P6  1  0.38563300  0.14293900  0.81870000  1
  P  P7  1  0.56159000  0.35523500  0.30871700  1
  O  O0  1  0.39951400  0.25113900  0.92621100  1
  O  O1  1  0.92653900  0.53232100  0.19825400  1
  O  O2  1  0.11599700  0.60646000  0.36887300  1
  O  O3  1  0.27647600  0.22494000  0.67924700  1
  O  O4  1  0.89951400  0.74886100  0.57378900  1
  O  O5  1  0.45837400  0.87274300  0.23422700  1
  O  O6  1  0.68276900  0.03971300  0.08081600  1
  O  O7  1  0.47790400  0.83953300  0.60459500  1
  O  O8  1  0.95837400  0.12725700  0.26577300  1
  O  O9  1  0.07346100  0.46767900  0.80174600  1
  O  O10  1  0.68529000  0.39148500  0.40916300  1
  O  O11  1  0.02209600  0.83953300  0.10459500  1
  O  O12  1  0.42653900  0.46767900  0.30174600  1
  O  O13  1  0.04162600  0.87274300  0.73422700  1
  O  O14  1  0.10048600  0.25113900  0.42621100  1
  O  O15  1  0.52209600  0.16046700  0.39540500  1
  O  O16  1  0.72352400  0.77506000  0.32075300  1
  O  O17  1  0.22352400  0.22494000  0.17924700  1
  O  O18  1  0.31723100  0.96028700  0.91918400  1
  O  O19  1  0.38400300  0.60646000  0.86887300  1
  O  O20  1  0.77647600  0.77506000  0.82075300  1
  O  O21  1  0.81723100  0.03971300  0.58081600  1
  O  O22  1  0.61599700  0.39354000  0.13112700  1
  O  O23  1  0.97790400  0.16046700  0.89540500  1
  O  O24  1  0.60048600  0.74886100  0.07378900  1
  O  O25  1  0.18529000  0.60851500  0.09083700  1
  O  O26  1  0.18276900  0.96028700  0.41918400  1
  O  O27  1  0.54162600  0.12725700  0.76577300  1
  O  O28  1  0.88400300  0.39354000  0.63112700  1
  O  O29  1  0.57346100  0.53232100  0.69825400  1
  O  O30  1  0.31471000  0.60851500  0.59083700  1
  O  O31  1  0.81471000  0.39148500  0.90916300  1
loop_
_geom_bond_atom_site_label_1
_geom_bond_atom_site_label_2
_geom_bond_distance
_geom_bond_site_symmetry_2
O0 P6 1.561961 1_555
O0 Zn4 2.011660 1_555
O0 Zn3 2.199918 1_555
O1 P3 1.553676 1_655
O1 Zn10 2.001775 1_555
O1 Zn9 2.374975 1_555
O2 P3 1.564193 1_555
O2 Zn7 2.047307 1_555
O2 Zn8 2.115445 1_555
O3 P6 1.536364 1_555
O3 Zn7 1.946252 1_555
O4 P0 1.561961 1_555
O4 Zn8 2.011660 1_655
O4 Zn6 2.199918 1_555
O5 P4 1.538130 1_555
O5 Zn2 1.909566 1_555
O6 P4 1.578431 1_545
O6 Zn0 1.972077 1_555
O6 Zn4 2.091520 1_554
O7 P2 1.559469 1_555
O7 Zn1 1.983647 1_565
O7 Zn2 2.110139 1_555
O8 P1 1.538130 1_655
O8 Zn0 1.909566 1_555
O9 P5 1.553676 1_455
O9 Zn3 2.001775 1_555
O9 Zn8 2.374975 1_555
O10 P7 1.552191 1_555
O10 Zn9 2.031200 1_555
O10 Zn6 2.327935 1_555
O11 P3 1.559469 1_555
O11 Zn0 1.983647 1_465
O11 Zn11 2.110139 1_554
O12 P7 1.553676 1_555
O12 Zn7 2.001775 1_555
O12 Zn5 2.374975 1_555
O13 P0 1.538130 1_455
O13 Zn11 1.909566 1_555
O14 P1 1.561961 1_555
O14 Zn9 2.011660 1_455
O14 Zn7 2.199918 1_555
O15 P7 1.559469 1_555
O15 Zn2 1.983647 1_545
O15 Zn1 2.110139 1_555
O16 P4 1.536364 1_555
O16 Zn6 1.946252 1_555
O17 P1 1.536364 1_555
O17 Zn3 1.946252 1_554
O18 P6 1.578431 1_565
O18 Zn11 1.972077 1_555
O18 Zn5 2.091520 1_556
O19 P2 1.564193 1_555
O19 Zn3 2.047307 1_555
O19 Zn5 2.115445 1_556
O20 P0 1.536364 1_555
O20 Zn10 1.946252 1_556
O21 P0 1.578431 1_545
O21 Zn1 1.972077 1_555
O21 Zn9 2.091520 1_555
O22 P7 1.564193 1_555
O22 Zn10 2.047307 1_555
O22 Zn4 2.115445 1_554
O23 P5 1.559469 1_555
O23 Zn11 1.983647 1_645
O23 Zn0 2.110139 1_556
O24 P4 1.561961 1_555
O24 Zn5 2.011660 1_555
O24 Zn10 2.199918 1_555
O25 P3 1.552191 1_555
O25 Zn5 2.031200 1_555
O25 Zn3 2.327935 1_554
O26 P1 1.578431 1_565
O26 Zn2 1.972077 1_555
O26 Zn8 2.091520 1_555
O27 P6 1.538130 1_555
O27 Zn1 1.909566 1_555
O28 P5 1.564193 1_555
O28 Zn6 2.047307 1_555
O28 Zn9 2.115445 1_555
O29 P2 1.553676 1_555
O29 Zn6 2.001775 1_555
O29 Zn4 2.374975 1_555
O30 P2 1.552191 1_555
O30 Zn8 2.031200 1_555
O30 Zn7 2.327935 1_555
O31 P5 1.552191 1_555
O31 Zn4 2.031200 1_555
O31 Zn10 2.327935 1_556
