# generated using pymatgen
data_KNaZnP2O7
_symmetry_space_group_name_H-M   'P 1'
_cell_length_a   7.37343200
_cell_length_b   7.54654200
_cell_length_c   14.83924816
_cell_angle_alpha   59.39095576
_cell_angle_beta   90.00000000
_cell_angle_gamma   90.00000000
_symmetry_Int_Tables_number   1
_chemical_formula_structural   KNaZnP2O7
_chemical_formula_sum   'K4 Na4 Zn4 P8 O28'
_cell_volume   710.66025749
_cell_formula_units_Z   4
loop_
 _symmetry_equiv_pos_site_id
 _symmetry_equiv_pos_as_xyz
  1  'x, y, z'
loop_
 _atom_site_type_symbol
 _atom_site_label
 _atom_site_symmetry_multiplicity
 _atom_site_fract_x
 _atom_site_fract_y
 _atom_site_fract_z
 _atom_site_occupancy
  K  K0  1  0.79262300  0.79711200  0.60296300  1
  K  K1  1  0.70737700  0.79711200  0.10296300  1
  K  K2  1  0.20737700  0.20288800  0.39703700  1
  K  K3  1  0.29262300  0.20288800  0.89703700  1
  Na  Na0  1  0.52320300  0.74019800  0.88758300  1
  Na  Na1  1  0.02320300  0.25980200  0.61241700  1
  Na  Na2  1  0.47679700  0.25980200  0.11241700  1
  Na  Na3  1  0.97679700  0.74019800  0.38758300  1
  Zn  Zn0  1  0.51974900  0.20931300  0.62121100  1
  Zn  Zn1  1  0.48025100  0.79068700  0.37878900  1
  Zn  Zn2  1  0.98025100  0.20931300  0.12121100  1
  Zn  Zn3  1  0.01974900  0.79068700  0.87878900  1
  P  P0  1  0.71447700  0.42425200  0.40097600  1
  P  P1  1  0.78552300  0.42425200  0.90097600  1
  P  P2  1  0.78136500  0.17801300  0.79722000  1
  P  P3  1  0.71863500  0.17801300  0.29722000  1
  P  P4  1  0.21447700  0.57574800  0.09902400  1
  P  P5  1  0.28552300  0.57574800  0.59902400  1
  P  P6  1  0.21863500  0.82198700  0.20278000  1
  P  P7  1  0.28136500  0.82198700  0.70278000  1
  O  O0  1  0.47660900  0.91018500  0.68234400  1
  O  O1  1  0.09785600  0.63407600  0.55137800  1
  O  O2  1  0.90214400  0.36592400  0.44862200  1
  O  O3  1  0.81682400  0.65925000  0.84923800  1
  O  O4  1  0.40214400  0.63407600  0.05137800  1
  O  O5  1  0.55608000  0.29712600  0.47273400  1
  O  O6  1  0.68317600  0.65925000  0.34923800  1
  O  O7  1  0.59785600  0.36592400  0.94862200  1
  O  O8  1  0.18317600  0.34075000  0.15076200  1
  O  O9  1  0.52339100  0.08981500  0.31765600  1
  O  O10  1  0.44392000  0.70287400  0.52726600  1
  O  O11  1  0.26303700  0.73990600  0.31931700  1
  O  O12  1  0.35953300  0.96168200  0.12480900  1
  O  O13  1  0.05608000  0.70287400  0.02726600  1
  O  O14  1  0.29668500  0.60801400  0.70006200  1
  O  O15  1  0.73696300  0.26009400  0.68068300  1
  O  O16  1  0.94392000  0.29712600  0.97273400  1
  O  O17  1  0.23696300  0.73990600  0.81931700  1
  O  O18  1  0.76303700  0.26009400  0.18068300  1
  O  O19  1  0.70331500  0.39198600  0.29993800  1
  O  O20  1  0.14046700  0.96168200  0.62480900  1
  O  O21  1  0.85953300  0.03831800  0.37519100  1
  O  O22  1  0.97660900  0.08981500  0.81765600  1
  O  O23  1  0.64046700  0.03831800  0.87519100  1
  O  O24  1  0.02339100  0.91018500  0.18234400  1
  O  O25  1  0.31682400  0.34075000  0.65076200  1
  O  O26  1  0.79668500  0.39198600  0.79993800  1
  O  O27  1  0.20331500  0.60801400  0.20006200  1
loop_
_geom_bond_atom_site_label_1
_geom_bond_atom_site_label_2
_geom_bond_distance
_geom_bond_site_symmetry_2
K0 O1 2.850283 1_655
K0 O0 2.927239 1_555
K0 O20 2.938658 1_655
K0 O21 2.952215 1_565
K0 O26 2.965011 1_555
K0 O10 3.031798 1_555
K0 O3 3.255452 1_555
K1 O4 2.850283 1_555
K1 O24 2.927239 1_655
K1 O12 2.938658 1_555
K1 O23 2.952215 1_564
K1 O19 2.965011 1_555
K1 O13 3.031798 1_655
K1 O6 3.255452 1_555
K2 O2 2.850283 1_455
K2 O9 2.927239 1_555
K2 O21 2.938658 1_455
K2 O20 2.952215 1_545
K2 O27 2.965011 1_555
K2 O5 3.031798 1_555
K2 O8 3.255452 1_555
K3 O7 2.850283 1_555
K3 O22 2.927239 1_455
K3 O23 2.938658 1_555
K3 O12 2.952215 1_546
K3 O14 2.965011 1_555
K3 O16 3.031798 1_455
K3 O25 3.255452 1_555
Na0 O4 2.315955 1_556
Na0 O23 2.328433 1_565
Na0 O17 2.341579 1_555
Na0 O3 2.395438 1_555
Na0 O7 2.548683 1_555
Na0 O0 2.657186 1_555
Na1 O2 2.315955 1_455
Na1 O20 2.328433 1_545
Na1 O15 2.341579 1_455
Na1 O25 2.395438 1_555
Na1 O1 2.548683 1_555
Na1 O22 2.657186 1_455
Na2 O7 2.315955 1_554
Na2 O12 2.328433 1_545
Na2 O18 2.341579 1_555
Na2 O8 2.395438 1_555
Na2 O4 2.548683 1_555
Na2 O9 2.657186 1_555
Na3 O1 2.315955 1_655
Na3 O21 2.328433 1_565
Na3 O11 2.341579 1_655
Na3 O6 2.395438 1_555
Na3 O2 2.548683 1_555
Na3 O24 2.657186 1_655
O0 P7 1.549815 1_555
O0 Zn0 1.983557 1_565
O1 P5 1.513764 1_555
O2 P0 1.513764 1_555
O3 P1 1.549580 1_555
O3 Zn3 1.964146 1_655
O4 P4 1.513764 1_555
O5 P0 1.542075 1_555
O5 Zn0 1.969392 1_555
O6 P0 1.549580 1_555
O6 Zn1 1.964146 1_555
O7 P1 1.513764 1_555
O8 P4 1.549580 1_555
O8 Zn2 1.964146 1_455
O9 P3 1.549815 1_555
O9 Zn1 1.983557 1_545
O10 P5 1.542075 1_555
O10 Zn1 1.969392 1_555
O11 P6 1.546150 1_555
O11 Zn1 1.958385 1_555
O12 P6 1.512369 1_555
O13 P4 1.542075 1_555
O13 Zn3 1.969392 1_554
O14 P5 1.638851 1_555
O14 P7 1.639557 1_555
O15 P2 1.546150 1_555
O15 Zn0 1.958385 1_555
O16 P1 1.542075 1_555
O16 Zn2 1.969392 1_556
O17 P7 1.546150 1_555
O17 Zn3 1.958385 1_555
O18 P3 1.546150 1_555
O18 Zn2 1.958385 1_555
O19 P0 1.638851 1_555
O19 P3 1.639557 1_555
O20 P7 1.512369 1_555
O21 P3 1.512369 1_555
O22 P2 1.549815 1_555
O22 Zn3 1.983557 1_645
O23 P2 1.512369 1_555
O24 P6 1.549815 1_555
O24 Zn2 1.983557 1_465
O25 P5 1.549580 1_555
O25 Zn0 1.964146 1_555
O26 P1 1.638851 1_555
O26 P2 1.639557 1_555
O27 P4 1.638851 1_555
O27 P6 1.639557 1_555
