# generated using pymatgen
data_YBPt2
_symmetry_space_group_name_H-M   'P 1'
_cell_length_a   5.32859997
_cell_length_b   5.32860117
_cell_length_c   7.95738587
_cell_angle_alpha   90.00000000
_cell_angle_beta   90.00000000
_cell_angle_gamma   120.00000526
_symmetry_Int_Tables_number   1
_chemical_formula_structural   YBPt2
_chemical_formula_sum   'Y3 B3 Pt6'
_cell_volume   195.67140384
_cell_formula_units_Z   3
loop_
 _symmetry_equiv_pos_site_id
 _symmetry_equiv_pos_as_xyz
  1  'x, y, z'
loop_
 _atom_site_type_symbol
 _atom_site_label
 _atom_site_symmetry_multiplicity
 _atom_site_fract_x
 _atom_site_fract_y
 _atom_site_fract_z
 _atom_site_occupancy
  Y  Y0  1  0.50000000  0.50000000  0.33333300  1
  Y  Y1  1  0.00000000  0.50000000  0.66666700  1
  Y  Y2  1  0.50000000  0.00000000  0.00000000  1
  B  B0  1  0.00000000  0.50000000  0.16666700  1
  B  B1  1  0.50000000  0.50000000  0.83333300  1
  B  B2  1  0.50000000  0.00000000  0.50000000  1
  Pt  Pt0  1  0.30481707  0.15240954  0.66666700  1
  Pt  Pt1  1  0.15240954  0.84759046  0.33333300  1
  Pt  Pt2  1  0.84759046  0.69518293  0.00000000  1
  Pt  Pt3  1  0.84759046  0.15240954  0.33333300  1
  Pt  Pt4  1  0.15240954  0.30481707  -0.00000000  1
  Pt  Pt5  1  0.69518293  0.84759046  0.66666700  1
loop_
_geom_bond_atom_site_label_1
_geom_bond_atom_site_label_2
_geom_bond_distance
_geom_bond_site_symmetry_2
B0 Pt3 2.084410 1_455
B0 Pt1 2.084410 1_555
B0 Pt2 2.084422 1_455
B0 Pt4 2.084422 1_555
B0 Y0 2.976133 1_555
B0 Y0 2.976133 1_455
B0 Y2 2.976137 1_455
B0 Y2 2.976137 1_565
B1 Pt5 2.084410 1_555
B1 Pt0 2.084410 1_555
B1 Pt4 2.084415 1_556
B1 Pt2 2.084415 1_556
B1 Y1 2.976133 1_655
B1 Y1 2.976133 1_555
B1 Y2 2.976137 1_556
B1 Y2 2.976137 1_566
B2 Pt1 2.084414 1_545
B2 Pt3 2.084414 1_555
B2 Pt0 2.084422 1_555
B2 Pt5 2.084422 1_545
B2 Y1 2.976137 1_545
B2 Y1 2.976137 1_655
B2 Y0 2.976137 1_545
B2 Y0 2.976137 1_555
Pt0 Y1 3.012823 1_555
Pt0 Y1 3.012833 1_545
Pt0 Y2 3.101848 1_556
Pt0 Y0 3.101850 1_555
Pt0 Y1 3.208063 1_655
Pt1 Y0 3.012832 1_455
Pt1 Y0 3.012833 1_565
Pt1 Y2 3.101843 1_565
Pt1 Y1 3.101850 1_555
Pt1 Y0 3.208054 1_555
Pt2 Y2 3.012823 1_565
Pt2 Y2 3.012832 1_665
Pt2 Y0 3.101843 1_555
Pt2 Y1 3.101848 1_654
Pt2 Y2 3.208063 1_555
Pt3 Y0 3.012832 1_655
Pt3 Y0 3.012833 1_545
Pt3 Y2 3.101843 1_555
Pt3 Y1 3.101850 1_655
Pt3 Y0 3.208054 1_555
Pt4 Y2 3.012823 1_555
Pt4 Y2 3.012832 1_455
Pt4 Y0 3.101843 1_555
Pt4 Y1 3.101848 1_554
Pt4 Y2 3.208063 1_565
Pt5 Y1 3.012823 1_655
Pt5 Y1 3.012833 1_665
Pt5 Y2 3.101848 1_566
Pt5 Y0 3.101850 1_555
Pt5 Y1 3.208063 1_555
