# generated using pymatgen
data_KUI3O11
_symmetry_space_group_name_H-M   'P 1'
_cell_length_a   7.39988900
_cell_length_b   11.68474500
_cell_length_c   26.00635300
_cell_angle_alpha   90.00000000
_cell_angle_beta   90.00000000
_cell_angle_gamma   90.00000000
_symmetry_Int_Tables_number   1
_chemical_formula_structural   KUI3O11
_chemical_formula_sum   'K8 U8 I24 O88'
_cell_volume   2248.66053315
_cell_formula_units_Z   8
loop_
 _symmetry_equiv_pos_site_id
 _symmetry_equiv_pos_as_xyz
  1  'x, y, z'
loop_
 _atom_site_type_symbol
 _atom_site_label
 _atom_site_symmetry_multiplicity
 _atom_site_fract_x
 _atom_site_fract_y
 _atom_site_fract_z
 _atom_site_occupancy
  K  K0  1  0.55336300  0.83695400  0.97889400  1
  K  K1  1  0.94663700  0.83695400  0.47889400  1
  K  K2  1  0.44663700  0.66304600  0.47889400  1
  K  K3  1  0.44663700  0.16304600  0.02110600  1
  K  K4  1  0.05336300  0.66304600  0.97889400  1
  K  K5  1  0.94663700  0.33695400  0.02110600  1
  K  K6  1  0.55336300  0.33695400  0.52110600  1
  K  K7  1  0.05336300  0.16304600  0.52110600  1
  U  U0  1  0.46366400  0.02505800  0.84823500  1
  U  U1  1  0.46366400  0.52505800  0.65176500  1
  U  U2  1  0.03633600  0.52505800  0.15176500  1
  U  U3  1  0.03633600  0.02505800  0.34823500  1
  U  U4  1  0.96366400  0.47494200  0.84823500  1
  U  U5  1  0.53633600  0.47494200  0.34823500  1
  U  U6  1  0.96366400  0.97494200  0.65176500  1
  U  U7  1  0.53633600  0.97494200  0.15176500  1
  I  I0  1  0.56497500  0.65972500  0.20333500  1
  I  I1  1  0.13873700  0.20386100  0.15531200  1
  I  I2  1  0.63873700  0.79613900  0.34468800  1
  I  I3  1  0.04652900  0.56134300  0.56239200  1
  I  I4  1  0.54652900  0.43865700  0.93760800  1
  I  I5  1  0.06497600  0.34027500  0.29666500  1
  I  I6  1  0.43502500  0.84027500  0.70333500  1
  I  I7  1  0.54652900  0.93865700  0.56239200  1
  I  I8  1  0.95347100  0.93865700  0.06239200  1
  I  I9  1  0.36126300  0.20386100  0.65531200  1
  I  I10  1  0.36126300  0.70386100  0.84468800  1
  I  I11  1  0.93502500  0.65972500  0.70333500  1
  I  I12  1  0.63873700  0.29613900  0.15531200  1
  I  I13  1  0.93502500  0.15972500  0.79666500  1
  I  I14  1  0.04652900  0.06134300  0.93760800  1
  I  I15  1  0.45347100  0.06134300  0.43760800  1
  I  I16  1  0.45347100  0.56134300  0.06239200  1
  I  I17  1  0.86126300  0.79613900  0.84468800  1
  I  I18  1  0.13873700  0.70386100  0.34468800  1
  I  I19  1  0.56497500  0.15972500  0.29666500  1
  I  I20  1  0.95347100  0.43865700  0.43760800  1
  I  I21  1  0.86126300  0.29613900  0.65531200  1
  I  I22  1  0.43502500  0.34027500  0.79666500  1
  I  I23  1  0.06497600  0.84027500  0.20333500  1
  O  O0  1  0.28134300  0.93375500  0.66679400  1
  O  O1  1  0.02553600  0.97352100  0.58399800  1
  O  O2  1  0.83080800  0.93995000  0.12679100  1
  O  O3  1  0.03889100  0.22466600  0.34461600  1
  O  O4  1  0.28428600  0.85070400  0.85760900  1
  O  O5  1  0.52553600  0.52647900  0.58399800  1
  O  O6  1  0.33080800  0.56005000  0.12679100  1
  O  O7  1  0.71865700  0.56624500  0.16679400  1
  O  O8  1  0.60808300  0.84257700  0.41059500  1
  O  O9  1  0.82217700  0.03820900  0.02333400  1
  O  O10  1  0.62324900  0.34749000  0.66487800  1
  O  O11  1  0.33080800  0.06005000  0.37320900  1
  O  O12  1  0.86565100  0.80513200  0.03804100  1
  O  O13  1  0.22217000  0.27071400  0.25310400  1
  O  O14  1  0.10808300  0.65742300  0.41059500  1
  O  O15  1  0.12324900  0.65251000  0.83512200  1
  O  O16  1  0.39191700  0.65742300  0.91059500  1
  O  O17  1  0.37675100  0.65251000  0.33512200  1
  O  O18  1  0.67782300  0.53820900  0.97666600  1
  O  O19  1  0.63434900  0.80513200  0.53804100  1
  O  O20  1  0.46110900  0.72466600  0.65538400  1
  O  O21  1  0.27783000  0.27071400  0.75310400  1
  O  O22  1  0.78428600  0.14929600  0.64239100  1
  O  O23  1  0.47446400  0.97352100  0.08399800  1
  O  O24  1  0.71571400  0.64929600  0.35760900  1
  O  O25  1  0.59013600  0.97788800  0.22042500  1
  O  O26  1  0.09013600  0.02211200  0.27957500  1
  O  O27  1  0.36565100  0.19486800  0.46195900  1
  O  O28  1  0.96110900  0.27533400  0.84461600  1
  O  O29  1  0.28428600  0.35070400  0.64239100  1
  O  O30  1  0.60808300  0.34257700  0.08940500  1
  O  O31  1  0.09013600  0.52211200  0.22042500  1
  O  O32  1  0.16919200  0.56005000  0.62679100  1
  O  O33  1  0.21571400  0.85070400  0.35760900  1
  O  O34  1  0.89191700  0.34257700  0.58940500  1
  O  O35  1  0.67782300  0.03820900  0.52333400  1
  O  O36  1  0.16919200  0.06005000  0.87320900  1
  O  O37  1  0.78134300  0.06624500  0.83320600  1
  O  O38  1  0.72217000  0.72928600  0.24689600  1
  O  O39  1  0.96110900  0.77533400  0.65538400  1
  O  O40  1  0.83080800  0.43995000  0.37320900  1
  O  O41  1  0.53889100  0.27533400  0.34461600  1
  O  O42  1  0.53889100  0.77533400  0.15538400  1
  O  O43  1  0.97446400  0.52647900  0.08399800  1
  O  O44  1  0.89191700  0.84257700  0.91059500  1
  O  O45  1  0.97446400  0.02647900  0.41600200  1
  O  O46  1  0.77783000  0.22928600  0.75310400  1
  O  O47  1  0.66919200  0.43995000  0.87320900  1
  O  O48  1  0.21865700  0.93375500  0.16679400  1
  O  O49  1  0.90986400  0.97788800  0.72042500  1
  O  O50  1  0.02553600  0.47352100  0.91600200  1
  O  O51  1  0.66919200  0.93995000  0.62679100  1
  O  O52  1  0.28134300  0.43375500  0.83320600  1
  O  O53  1  0.77783000  0.72928600  0.74689600  1
  O  O54  1  0.71571400  0.14929600  0.14239100  1
  O  O55  1  0.87675100  0.34749000  0.16487800  1
  O  O56  1  0.47446400  0.47352100  0.41600200  1
  O  O57  1  0.87675100  0.84749000  0.33512200  1
  O  O58  1  0.21571400  0.35070400  0.14239100  1
  O  O59  1  0.32217700  0.96179100  0.47666600  1
  O  O60  1  0.37675100  0.15251000  0.16487800  1
  O  O61  1  0.17782300  0.96179100  0.97666600  1
  O  O62  1  0.13434900  0.69486800  0.53804100  1
  O  O63  1  0.21865700  0.43375500  0.33320600  1
  O  O64  1  0.10808300  0.15742300  0.08940500  1
  O  O65  1  0.27783000  0.77071400  0.74689600  1
  O  O66  1  0.40986400  0.02211200  0.77957500  1
  O  O67  1  0.46110900  0.22466600  0.84461600  1
  O  O68  1  0.39191700  0.15742300  0.58940500  1
  O  O69  1  0.12324900  0.15251000  0.66487800  1
  O  O70  1  0.03889100  0.72466600  0.15538400  1
  O  O71  1  0.90986400  0.47788800  0.77957500  1
  O  O72  1  0.62324900  0.84749000  0.83512200  1
  O  O73  1  0.82217700  0.53820900  0.47666600  1
  O  O74  1  0.40986400  0.52211200  0.72042500  1
  O  O75  1  0.36565100  0.69486800  0.03804100  1
  O  O76  1  0.78428600  0.64929600  0.85760900  1
  O  O77  1  0.71865700  0.06624500  0.33320600  1
  O  O78  1  0.72217000  0.22928600  0.25310400  1
  O  O79  1  0.32217700  0.46179100  0.02333400  1
  O  O80  1  0.52553600  0.02647900  0.91600200  1
  O  O81  1  0.86565100  0.30513200  0.46195900  1
  O  O82  1  0.59013600  0.47788800  0.27957500  1
  O  O83  1  0.63434900  0.30513200  0.96195900  1
  O  O84  1  0.22217000  0.77071400  0.24689600  1
  O  O85  1  0.17782300  0.46179100  0.52333400  1
  O  O86  1  0.78134300  0.56624500  0.66679400  1
  O  O87  1  0.13434900  0.19486800  0.96195900  1
loop_
_geom_bond_atom_site_label_1
_geom_bond_atom_site_label_2
_geom_bond_distance
_geom_bond_site_symmetry_2
K0 O75 2.655541 1_556
K0 O80 2.760761 1_565
K0 O12 2.800813 1_556
K0 O16 2.997138 1_555
K0 O44 3.071737 1_555
K0 O61 3.139063 1_555
K0 O23 3.218480 1_556
K0 O9 3.289783 1_566
K1 O62 2.655541 1_655
K1 O45 2.760761 1_565
K1 O19 2.800813 1_555
K1 O14 2.997138 1_655
K1 O8 3.071737 1_555
K1 O59 3.139063 1_655
K1 O1 3.218480 1_655
K1 O35 3.289783 1_565
K2 O19 2.655541 1_555
K2 O56 2.760761 1_555
K2 O62 2.800813 1_555
K2 O8 2.997138 1_555
K2 O14 3.071737 1_555
K2 O73 3.139063 1_555
K2 O5 3.218480 1_555
K2 O85 3.289783 1_555
K3 O83 2.655541 1_554
K3 O23 2.760761 1_545
K3 O87 2.800813 1_554
K3 O30 2.997138 1_555
K3 O64 3.071737 1_555
K3 O9 3.139063 1_555
K3 O80 3.218480 1_554
K3 O61 3.289783 1_544
K4 O12 2.655541 1_456
K4 O50 2.760761 1_555
K4 O75 2.800813 1_556
K4 O44 2.997138 1_455
K4 O16 3.071737 1_555
K4 O18 3.139063 1_455
K4 O43 3.218480 1_456
K4 O79 3.289783 1_556
K5 O87 2.655541 1_654
K5 O43 2.760761 1_555
K5 O83 2.800813 1_554
K5 O64 2.997138 1_655
K5 O30 3.071737 1_555
K5 O79 3.139063 1_655
K5 O50 3.218480 1_654
K5 O18 3.289783 1_554
K6 O27 2.655541 1_555
K6 O5 2.760761 1_555
K6 O81 2.800813 1_555
K6 O68 2.997138 1_555
K6 O34 3.071737 1_555
K6 O85 3.139063 1_555
K6 O56 3.218480 1_555
K6 O73 3.289783 1_555
K7 O81 2.655541 1_455
K7 O1 2.760761 1_545
K7 O27 2.800813 1_555
K7 O34 2.997138 1_455
K7 O68 3.071737 1_555
K7 O35 3.139063 1_455
K7 O45 3.218480 1_455
K7 O59 3.289783 1_545
I0 O38 1.815797 1_555
I0 O7 1.841047 1_555
I0 O42 1.848559 1_555
I1 O64 1.812094 1_555
I1 O58 1.838867 1_555
I1 O60 1.877236 1_555
I1 O55 2.576219 1_455
I2 O8 1.812094 1_555
I2 O24 1.838867 1_555
I2 O57 1.877236 1_555
I2 O17 2.576219 1_555
I3 O62 1.804883 1_555
I3 O85 1.824505 1_555
I3 O32 1.905002 1_555
I4 O83 1.804883 1_555
I4 O18 1.824505 1_555
I4 O47 1.905002 1_555
I5 O13 1.815793 1_555
I5 O63 1.841043 1_555
I5 O3 1.848559 1_555
I6 O65 1.815797 1_555
I6 O0 1.841047 1_555
I6 O20 1.848559 1_555
I7 O19 1.804883 1_555
I7 O35 1.824505 1_565
I7 O51 1.905002 1_555
I8 O12 1.804883 1_555
I8 O9 1.824505 1_565
I8 O2 1.905002 1_555
I9 O68 1.812094 1_555
I9 O29 1.838867 1_555
I9 O69 1.877236 1_555
I9 O10 2.576219 1_555
I10 O16 1.812094 1_555
I10 O4 1.838867 1_555
I10 O15 1.877236 1_555
I10 O72 2.576219 1_555
I11 O53 1.815797 1_555
I11 O86 1.841047 1_555
I11 O39 1.848559 1_555
I12 O30 1.812094 1_555
I12 O54 1.838867 1_555
I12 O55 1.877236 1_555
I12 O60 2.576219 1_555
I13 O46 1.815797 1_555
I13 O37 1.841047 1_555
I13 O28 1.848559 1_555
I14 O87 1.804883 1_555
I14 O61 1.824505 1_545
I14 O36 1.905002 1_555
I15 O27 1.804883 1_555
I15 O59 1.824505 1_545
I15 O11 1.905002 1_555
I16 O75 1.804883 1_555
I16 O79 1.824505 1_555
I16 O6 1.905002 1_555
I17 O44 1.812094 1_555
I17 O76 1.838867 1_555
I17 O72 1.877236 1_555
I17 O15 2.576219 1_655
I18 O14 1.812094 1_555
I18 O33 1.838867 1_555
I18 O17 1.877236 1_555
I18 O57 2.576219 1_455
I19 O78 1.815797 1_555
I19 O77 1.841047 1_555
I19 O41 1.848559 1_555
I20 O81 1.804883 1_555
I20 O73 1.824505 1_555
I20 O40 1.905002 1_555
I21 O34 1.812094 1_555
I21 O22 1.838867 1_555
I21 O10 1.877236 1_555
I21 O69 2.576219 1_655
I22 O21 1.815797 1_555
I22 O52 1.841047 1_555
I22 O67 1.848559 1_555
I23 O84 1.815793 1_555
I23 O48 1.841043 1_555
I23 O70 1.848559 1_555
O0 U6 2.431169 1_455
O1 U6 1.820949 1_455
O2 U7 2.310261 1_555
O3 U3 2.334343 1_555
O4 U0 2.443743 1_565
O5 U1 1.820949 1_555
O6 U2 2.310261 1_555
O7 U2 2.431169 1_655
O10 U1 2.411596 1_555
O11 U3 2.310261 1_555
O15 U4 2.411596 1_455
O17 U5 2.411596 1_555
O20 U1 2.334343 1_555
O22 U6 2.443743 1_545
O23 U7 1.820949 1_555
O24 U5 2.443743 1_555
O25 U7 1.829763 1_555
O26 U3 1.829763 1_555
O28 U4 2.334343 1_555
O29 U1 2.443743 1_555
O31 U2 1.829763 1_555
O32 U1 2.310261 1_555
O33 U3 2.443743 1_565
O36 U0 2.310261 1_555
O37 U0 2.431169 1_555
O39 U6 2.334343 1_555
O40 U5 2.310261 1_555
O41 U5 2.334343 1_555
O42 U7 2.334343 1_555
O43 U2 1.820949 1_655
O45 U3 1.820949 1_655
O47 U4 2.310261 1_555
O48 U7 2.431169 1_555
O49 U6 1.829763 1_555
O50 U4 1.820949 1_455
O51 U6 2.310261 1_555
O52 U4 2.431169 1_455
O54 U7 2.443743 1_545
O55 U2 2.411596 1_655
O56 U5 1.820949 1_555
O57 U3 2.411596 1_665
O58 U2 2.443743 1_555
O60 U7 2.411596 1_545
O63 U5 2.431169 1_555
O66 U0 1.829763 1_555
O67 U0 2.334343 1_555
O69 U6 2.411596 1_445
O70 U2 2.334343 1_555
O71 U4 1.829763 1_555
O72 U0 2.411596 1_565
O74 U1 1.829763 1_555
O76 U4 2.443743 1_555
O77 U3 2.431169 1_655
O80 U0 1.820949 1_555
O82 U5 1.829763 1_555
O86 U1 2.431169 1_555
