# generated using pymatgen
data_Ca8Mg5Fe2(SiO3)16
_symmetry_space_group_name_H-M   'P 1'
_cell_length_a   7.65204224
_cell_length_b   7.65204224
_cell_length_c   16.41787704
_cell_angle_alpha   86.76617331
_cell_angle_beta   86.76617331
_cell_angle_gamma   72.60888489
_symmetry_Int_Tables_number   1
_chemical_formula_structural   Ca8Mg5Fe2(SiO3)16
_chemical_formula_sum   'Ca8 Mg5 Fe2 Si16 O48'
_cell_volume   915.13249480
_cell_formula_units_Z   1
loop_
 _symmetry_equiv_pos_site_id
 _symmetry_equiv_pos_as_xyz
  1  'x, y, z'
loop_
 _atom_site_type_symbol
 _atom_site_label
 _atom_site_symmetry_multiplicity
 _atom_site_fract_x
 _atom_site_fract_y
 _atom_site_fract_z
 _atom_site_occupancy
  Ca  Ca0  1  0.24265800  0.75734200  0.00000000  1
  Ca  Ca1  1  0.76564900  0.45932900  0.11138000  1
  Ca  Ca2  1  0.48889300  0.01963000  0.24403700  1
  Ca  Ca3  1  0.00945500  0.73676100  0.37662600  1
  Ca  Ca4  1  0.73508300  0.26491700  0.50000000  1
  Ca  Ca5  1  0.26323900  0.99054500  0.62337400  1
  Ca  Ca6  1  0.98037000  0.51110700  0.75596300  1
  Ca  Ca7  1  0.54067100  0.23435100  0.88862000  1
  Mg  Mg0  1  0.08572000  0.40615300  0.25017500  1
  Mg  Mg1  1  0.40333100  0.34555800  0.37461100  1
  Mg  Mg2  1  0.34385000  0.65615000  0.50000000  1
  Mg  Mg3  1  0.65444200  0.59666900  0.62538900  1
  Mg  Mg4  1  0.59384700  0.91428000  0.74982500  1
  Fe  Fe0  1  0.14687700  0.09071100  0.11966500  1
  Fe  Fe1  1  0.90928900  0.85312300  0.88033500  1
  Si  Si0  1  0.07999100  0.39323000  0.52237500  1
  Si  Si1  1  0.39053900  0.33476600  0.64799800  1
  Si  Si2  1  0.32724800  0.64518600  0.77340600  1
  Si  Si3  1  0.64057000  0.59257700  0.89610300  1
  Si  Si4  1  0.58585600  0.89026300  0.02433600  1
  Si  Si5  1  0.89274700  0.82021800  0.14980900  1
  Si  Si6  1  0.83006800  0.13706500  0.27256400  1
  Si  Si7  1  0.60677000  0.92000900  0.47762500  1
  Si  Si8  1  0.14304400  0.08127800  0.39694900  1
  Si  Si9  1  0.91872200  0.85695600  0.60305100  1
  Si  Si10  1  0.86293500  0.16993200  0.72743600  1
  Si  Si11  1  0.17978200  0.10725300  0.85019100  1
  Si  Si12  1  0.10973700  0.41414400  0.97566400  1
  Si  Si13  1  0.40742300  0.35943000  0.10389700  1
  Si  Si14  1  0.35481400  0.67275200  0.22659400  1
  Si  Si15  1  0.66523400  0.60946100  0.35200200  1
  O  O0  1  0.94369100  0.23455900  0.20720200  1
  O  O1  1  0.24382900  0.19454000  0.33363900  1
  O  O2  1  0.19217800  0.49530900  0.45916600  1
  O  O3  1  0.48844700  0.11934300  0.66391800  1
  O  O4  1  0.49321200  0.44676400  0.58491300  1
  O  O5  1  0.33605600  0.44074900  0.73691200  1
  O  O6  1  0.10822100  0.73554400  0.79072200  1
  O  O7  1  0.43760400  0.75084800  0.71106500  1
  O  O8  1  0.42932100  0.60371400  0.86352800  1
  O  O9  1  0.75089100  0.38226500  0.90443500  1
  O  O10  1  0.73997100  0.71383200  0.83516000  1
  O  O11  1  0.58778600  0.68391200  0.98940400  1
  O  O12  1  0.36732400  0.99082400  0.03988400  1
  O  O13  1  0.70182500  0.97611700  0.95722700  1
  O  O14  1  0.68408500  0.84337700  0.11363200  1
  O  O15  1  0.55925100  0.66394400  0.26308800  1
  O  O16  1  0.97520200  0.60328300  0.16398800  1
  O  O17  1  0.01689200  0.91901500  0.09143400  1
  O  O18  1  0.88065700  0.51155300  0.33608200  1
  O  O19  1  0.84190600  0.92745300  0.23907200  1
  O  O20  1  0.65904900  0.81512500  0.38838900  1
  O  O21  1  0.61551900  0.23599300  0.28927800  1
  O  O22  1  0.51151800  0.13570300  0.46125400  1
  O  O23  1  0.93500600  0.09102400  0.36170900  1
  O  O24  1  0.81452100  0.90960900  0.51328300  1
  O  O25  1  0.23658500  0.86558700  0.41370300  1
  O  O26  1  0.13441300  0.76341500  0.58629700  1
  O  O27  1  0.09039100  0.18547900  0.48671700  1
  O  O28  1  0.90897600  0.06499400  0.63829100  1
  O  O29  1  0.86429700  0.48848200  0.53874600  1
  O  O30  1  0.76544100  0.05630900  0.79279800  1
  O  O31  1  0.76400700  0.38448100  0.71072200  1
  O  O32  1  0.18487500  0.34095100  0.61161100  1
  O  O33  1  0.07254700  0.15809400  0.76092800  1
  O  O34  1  0.08098500  0.98310800  0.90856600  1
  O  O35  1  0.39671700  0.02479800  0.83601200  1
  O  O36  1  0.15662300  0.31591500  0.88636800  1
  O  O37  1  0.02388300  0.29817500  0.04277300  1
  O  O38  1  0.00917600  0.63267600  0.96011600  1
  O  O39  1  0.31608800  0.41221400  0.01059600  1
  O  O40  1  0.28616800  0.26002900  0.16484000  1
  O  O41  1  0.61773500  0.24910900  0.09556500  1
  O  O42  1  0.39628600  0.57067900  0.13647200  1
  O  O43  1  0.24915200  0.56239600  0.28893500  1
  O  O44  1  0.26445600  0.89177900  0.20927800  1
  O  O45  1  0.55323600  0.50678800  0.41508700  1
  O  O46  1  0.50469100  0.80782200  0.54083400  1
  O  O47  1  0.80546000  0.75617100  0.66636100  1
loop_
_geom_bond_atom_site_label_1
_geom_bond_atom_site_label_2
_geom_bond_distance
_geom_bond_site_symmetry_2
Ca0 O17 2.325463 1_555
Ca0 O34 2.325463 1_554
Ca0 O38 2.398350 1_554
Ca0 O12 2.398350 1_555
Ca0 O39 2.528369 1_555
Ca0 O11 2.528369 1_554
Ca0 O42 2.715639 1_555
Ca0 O8 2.715639 1_554
Ca1 O41 2.259378 1_555
Ca1 O37 2.267819 1_655
Ca1 O0 2.413512 1_555
Ca1 O16 2.418701 1_555
Ca1 O11 2.708703 1_554
Ca1 O42 2.711599 1_555
Ca1 O14 2.817869 1_555
Ca1 O15 3.109264 1_555
Ca2 O44 2.325981 1_545
Ca2 O21 2.326056 1_555
Ca2 O40 2.394333 1_555
Ca2 O1 2.425386 1_555
Ca2 O19 2.577535 1_545
Ca2 O15 2.615812 1_545
Ca2 O14 2.719271 1_545
Ca2 O20 2.910765 1_545
Ca3 O25 2.360982 1_555
Ca3 O2 2.364742 1_555
Ca3 O18 2.367050 1_455
Ca3 O43 2.381809 1_555
Ca3 O20 2.565123 1_455
Ca3 O23 2.598233 1_465
Ca3 O19 2.776623 1_455
Ca3 O24 2.790348 1_455
Ca4 O29 2.348140 1_555
Ca4 O22 2.348140 1_555
Ca4 O4 2.386100 1_555
Ca4 O45 2.386100 1_555
Ca4 O27 2.601772 1_655
Ca4 O24 2.601772 1_545
Ca4 O23 2.828067 1_555
Ca4 O28 2.828067 1_555
Ca5 O26 2.360982 1_555
Ca5 O46 2.364742 1_555
Ca5 O3 2.367050 1_565
Ca5 O7 2.381809 1_555
Ca5 O32 2.565123 1_565
Ca5 O28 2.598233 1_465
Ca5 O33 2.776623 1_565
Ca5 O27 2.790348 1_565
Ca6 O6 2.325981 1_655
Ca6 O31 2.326056 1_555
Ca6 O10 2.394333 1_555
Ca6 O47 2.425386 1_555
Ca6 O33 2.577535 1_655
Ca6 O5 2.615812 1_655
Ca6 O36 2.719271 1_655
Ca6 O32 2.910765 1_655
Ca7 O9 2.259378 1_555
Ca7 O13 2.267819 1_545
Ca7 O30 2.413512 1_555
Ca7 O35 2.418701 1_555
Ca7 O39 2.708703 1_556
Ca7 O8 2.711599 1_555
Ca7 O36 2.817869 1_555
Ca7 O5 3.109264 1_555
Mg0 O16 2.030877 1_455
Mg0 O18 2.055259 1_455
Mg0 O0 2.108814 1_455
Mg0 O43 2.113704 1_555
Mg0 O40 2.115377 1_555
Mg0 O1 2.174652 1_555
Mg1 O1 2.073888 1_555
Mg1 O45 2.074605 1_555
Mg1 O21 2.089044 1_555
Mg1 O22 2.089963 1_555
Mg1 O2 2.161133 1_555
Mg1 O43 2.208460 1_555
Mg2 O26 2.082822 1_555
Mg2 O25 2.082822 1_555
Mg2 O2 2.084702 1_555
Mg2 O46 2.084702 1_555
Mg2 O45 2.156382 1_555
Mg2 O4 2.156382 1_555
Mg3 O47 2.073888 1_555
Mg3 O4 2.074605 1_555
Mg3 O31 2.089044 1_555
Mg3 O29 2.089963 1_555
Mg3 O46 2.161133 1_555
Mg3 O7 2.208460 1_555
Mg4 O35 2.030877 1_565
Mg4 O3 2.055259 1_565
Mg4 O30 2.108814 1_565
Mg4 O7 2.113704 1_555
Mg4 O10 2.115377 1_555
Mg4 O47 2.174652 1_555
Fe0 O17 1.957598 1_545
Fe0 O37 2.003609 1_555
Fe0 O12 2.058721 1_545
Fe0 O44 2.090273 1_545
Fe0 O40 2.094736 1_555
Fe0 O0 2.144239 1_455
Fe1 O34 1.957598 1_655
Fe1 O13 2.003609 1_555
Fe1 O38 2.058721 1_655
Fe1 O6 2.090273 1_655
Fe1 O10 2.094736 1_555
Fe1 O30 2.144239 1_565
O0 Si6 1.629789 1_555
O1 Si8 1.622892 1_555
O2 Si0 1.622626 1_555
O3 Si1 1.606904 1_555
O4 Si1 1.623269 1_555
O5 Si1 1.680849 1_555
O5 Si2 1.687873 1_555
O6 Si2 1.625905 1_555
O7 Si2 1.622236 1_555
O8 Si2 1.682041 1_555
O8 Si3 1.707735 1_555
O9 Si3 1.580291 1_555
O10 Si3 1.634575 1_555
O11 Si3 1.697132 1_555
O11 Si4 1.705774 1_556
O12 Si4 1.630455 1_555
O13 Si4 1.609203 1_556
O14 Si4 1.657342 1_555
O14 Si5 1.691028 1_555
O15 Si15 1.680849 1_555
O15 Si14 1.687873 1_555
O16 Si5 1.598356 1_555
O17 Si5 1.623986 1_455
O18 Si15 1.606904 1_555
O19 Si5 1.689057 1_555
O19 Si6 1.700082 1_565
O20 Si7 1.680830 1_555
O20 Si15 1.701225 1_555
O21 Si6 1.604162 1_555
O22 Si7 1.606412 1_545
O23 Si6 1.678172 1_555
O23 Si8 1.703693 1_655
O24 Si9 1.686337 1_555
O24 Si7 1.703051 1_555
O25 Si8 1.605259 1_565
O26 Si9 1.605259 1_455
O27 Si8 1.686337 1_555
O27 Si0 1.703051 1_555
O28 Si10 1.678172 1_555
O28 Si9 1.703693 1_545
O29 Si0 1.606412 1_655
O30 Si10 1.629789 1_555
O31 Si10 1.604162 1_555
O32 Si0 1.680830 1_555
O32 Si1 1.701225 1_555
O33 Si11 1.689057 1_555
O33 Si10 1.700082 1_455
O34 Si11 1.623986 1_565
O35 Si11 1.598356 1_555
O36 Si12 1.657342 1_555
O36 Si11 1.691028 1_555
O37 Si12 1.609203 1_554
O38 Si12 1.630455 1_555
O39 Si13 1.697132 1_555
O39 Si12 1.705774 1_554
O40 Si13 1.634575 1_555
O41 Si13 1.580291 1_555
O42 Si14 1.682041 1_555
O42 Si13 1.707735 1_555
O43 Si14 1.622236 1_555
O44 Si14 1.625905 1_555
O45 Si15 1.623269 1_555
O46 Si7 1.622626 1_555
O47 Si9 1.622892 1_555
