# generated using pymatgen
data_Bi6Rh12O29
_symmetry_space_group_name_H-M   'P 1'
_cell_length_a   11.86016729
_cell_length_b   11.86016729
_cell_length_c   9.63526090
_cell_angle_alpha   84.10383001
_cell_angle_beta   84.10383001
_cell_angle_gamma   63.54672547
_symmetry_Int_Tables_number   1
_chemical_formula_structural   Bi6Rh12O29
_chemical_formula_sum   'Bi12 Rh24 O58'
_cell_volume   1204.53314057
_cell_formula_units_Z   2
loop_
 _symmetry_equiv_pos_site_id
 _symmetry_equiv_pos_as_xyz
  1  'x, y, z'
loop_
 _atom_site_type_symbol
 _atom_site_label
 _atom_site_symmetry_multiplicity
 _atom_site_fract_x
 _atom_site_fract_y
 _atom_site_fract_z
 _atom_site_occupancy
  Bi  Bi0  1  0.57113000  0.57113000  0.32898600  1
  Bi  Bi1  1  0.10851300  0.10851300  0.68522800  1
  Bi  Bi2  1  0.24697600  0.57959700  0.35720600  1
  Bi  Bi3  1  0.57959700  0.24697600  0.35720600  1
  Bi  Bi4  1  0.90103900  0.23100200  0.34276700  1
  Bi  Bi5  1  0.89148700  0.89148700  0.31477200  1
  Bi  Bi6  1  0.09896100  0.76899800  0.65723300  1
  Bi  Bi7  1  0.23100200  0.90103900  0.34276700  1
  Bi  Bi8  1  0.42887000  0.42887000  0.67101400  1
  Bi  Bi9  1  0.42040300  0.75302400  0.64279400  1
  Bi  Bi10  1  0.75302400  0.42040300  0.64279400  1
  Bi  Bi11  1  0.76899800  0.09896100  0.65723300  1
  Rh  Rh0  1  0.88570400  0.38270100  0.99468800  1
  Rh  Rh1  1  0.36611000  0.36611000  0.01233800  1
  Rh  Rh2  1  0.87813900  0.12186100  0.00000000  1
  Rh  Rh3  1  0.61729900  0.11429600  0.00531200  1
  Rh  Rh4  1  0.86569900  0.86569900  0.99444400  1
  Rh  Rh5  1  0.38270100  0.88570400  0.99468800  1
  Rh  Rh6  1  0.11429600  0.61729900  0.00531200  1
  Rh  Rh7  1  0.74397800  0.74397800  0.50059800  1
  Rh  Rh8  1  0.60694200  0.85909000  0.22395900  1
  Rh  Rh9  1  0.37176800  0.62823200  0.00000000  1
  Rh  Rh10  1  0.14091000  0.39305800  0.77604100  1
  Rh  Rh11  1  0.85909000  0.60694200  0.22395900  1
  Rh  Rh12  1  0.88802300  0.63826000  0.77245200  1
  Rh  Rh13  1  0.39305800  0.14091000  0.77604100  1
  Rh  Rh14  1  0.63826000  0.88802300  0.77245200  1
  Rh  Rh15  1  0.62823200  0.37176800  0.00000000  1
  Rh  Rh16  1  0.12186100  0.87813900  0.00000000  1
  Rh  Rh17  1  0.00000000  0.50000000  0.50000000  1
  Rh  Rh18  1  0.11197700  0.36174000  0.22754800  1
  Rh  Rh19  1  0.50000000  0.00000000  0.50000000  1
  Rh  Rh20  1  0.25602200  0.25602200  0.49940200  1
  Rh  Rh21  1  0.36174000  0.11197700  0.22754800  1
  Rh  Rh22  1  0.63389000  0.63389000  0.98766200  1
  Rh  Rh23  1  0.13430100  0.13430100  0.00555600  1
  O  O0  1  0.53869400  0.53869400  0.09878600  1
  O  O1  1  0.28409900  0.79454700  0.10800700  1
  O  O2  1  0.03223000  0.28554100  0.11938700  1
  O  O3  1  0.05644300  0.56616200  0.65669000  1
  O  O4  1  0.71853700  0.71853700  0.87122100  1
  O  O5  1  0.82636800  0.56896800  0.61314900  1
  O  O6  1  0.71590100  0.20545300  0.89199300  1
  O  O7  1  0.53179400  0.03027500  0.12785800  1
  O  O8  1  0.27089500  0.61661100  0.59216000  1
  O  O9  1  0.18579000  0.91390300  0.59054100  1
  O  O10  1  0.31435600  0.31435600  0.66124400  1
  O  O11  1  0.94355700  0.43383800  0.34331000  1
  O  O12  1  0.43103200  0.17363200  0.38685100  1
  O  O13  1  0.78145900  0.53290600  0.10912400  1
  O  O14  1  0.55733400  0.55733400  0.59551800  1
  O  O15  1  0.28554100  0.03223000  0.11938700  1
  O  O16  1  0.72149500  0.46516300  0.88428800  1
  O  O17  1  0.91375000  0.67171400  0.38566100  1
  O  O18  1  0.96777000  0.71445900  0.88061300  1
  O  O19  1  0.46820600  0.96972500  0.87214200  1
  O  O20  1  0.27850500  0.53483700  0.11571200  1
  O  O21  1  0.28146300  0.28146300  0.12877900  1
  O  O22  1  0.08625000  0.32828600  0.61433900  1
  O  O23  1  0.91390300  0.18579000  0.59054100  1
  O  O24  1  0.03027500  0.53179400  0.12785800  1
  O  O25  1  0.80758200  0.80758200  0.65197500  1
  O  O26  1  0.19241800  0.19241800  0.34802500  1
  O  O27  1  0.46130600  0.46130600  0.90121400  1
  O  O28  1  0.03820300  0.03820300  0.10898300  1
  O  O29  1  0.56616200  0.05644300  0.65669000  1
  O  O30  1  0.71445900  0.96777000  0.88061300  1
  O  O31  1  0.08609700  0.81421000  0.40945900  1
  O  O32  1  0.43383800  0.94355700  0.34331000  1
  O  O33  1  0.72910500  0.38338900  0.40784000  1
  O  O34  1  0.21825600  0.21825600  0.87163800  1
  O  O35  1  0.44266600  0.44266600  0.40448200  1
  O  O36  1  0.46516300  0.72149500  0.88428800  1
  O  O37  1  0.56896800  0.82636800  0.61314900  1
  O  O38  1  0.21854100  0.46709400  0.89087600  1
  O  O39  1  0.20545300  0.71590100  0.89199300  1
  O  O40  1  0.53483700  0.27850500  0.11571200  1
  O  O41  1  0.81421000  0.08609700  0.40945900  1
  O  O42  1  0.32828600  0.08625000  0.61433900  1
  O  O43  1  0.96179700  0.96179700  0.89101700  1
  O  O44  1  0.96972500  0.46820600  0.87214200  1
  O  O45  1  0.97579500  0.21314800  0.89057400  1
  O  O46  1  0.53290600  0.78145900  0.10912400  1
  O  O47  1  0.78174400  0.78174400  0.12836200  1
  O  O48  1  0.46709400  0.21854100  0.89087600  1
  O  O49  1  0.78685200  0.02420500  0.10942600  1
  O  O50  1  0.67171400  0.91375000  0.38566100  1
  O  O51  1  0.17363200  0.43103200  0.38685100  1
  O  O52  1  0.61661100  0.27089500  0.59216000  1
  O  O53  1  0.68564400  0.68564400  0.33875600  1
  O  O54  1  0.79454700  0.28409900  0.10800700  1
  O  O55  1  0.21314800  0.97579500  0.89057400  1
  O  O56  1  0.02420500  0.78685200  0.10942600  1
  O  O57  1  0.38338900  0.72910500  0.40784000  1
loop_
_geom_bond_atom_site_label_1
_geom_bond_atom_site_label_2
_geom_bond_distance
_geom_bond_site_symmetry_2
Bi0 O33 2.296441 1_555
Bi0 O57 2.296441 1_555
Bi0 O53 2.322493 1_555
Bi0 O0 2.387077 1_555
Bi0 O14 2.549490 1_555
Bi0 O35 2.604740 1_555
Bi1 O9 2.318589 1_545
Bi1 O23 2.318589 1_455
Bi1 O45 2.461033 1_455
Bi1 O55 2.461033 1_545
Bi1 O42 2.527534 1_555
Bi1 O22 2.527534 1_555
Bi2 O35 2.222315 1_555
Bi2 O51 2.270250 1_555
Bi2 O20 2.394592 1_555
Bi2 O8 2.417696 1_555
Bi2 O31 2.645181 1_555
Bi3 O35 2.222315 1_555
Bi3 O12 2.270250 1_555
Bi3 O40 2.394592 1_555
Bi3 O52 2.417696 1_555
Bi3 O41 2.645181 1_555
Bi4 O33 2.122360 1_555
Bi4 O41 2.375069 1_555
Bi4 O23 2.397763 1_555
Bi4 O54 2.587272 1_555
Bi4 O11 2.669361 1_555
Bi4 O2 2.719281 1_655
Bi5 O41 2.318589 1_565
Bi5 O31 2.318589 1_655
Bi5 O49 2.461033 1_565
Bi5 O56 2.461033 1_655
Bi5 O17 2.527534 1_555
Bi5 O50 2.527534 1_555
Bi6 O8 2.122360 1_555
Bi6 O9 2.375069 1_555
Bi6 O31 2.397763 1_555
Bi6 O39 2.587272 1_555
Bi6 O3 2.669361 1_555
Bi6 O18 2.719281 1_455
Bi7 O57 2.122360 1_555
Bi7 O31 2.375069 1_555
Bi7 O9 2.397763 1_555
Bi7 O1 2.587272 1_555
Bi7 O32 2.669361 1_555
Bi7 O15 2.719281 1_565
Bi8 O8 2.296441 1_555
Bi8 O52 2.296441 1_555
Bi8 O10 2.322493 1_555
Bi8 O27 2.387077 1_555
Bi8 O35 2.549490 1_555
Bi8 O14 2.604740 1_555
Bi9 O14 2.222315 1_555
Bi9 O37 2.270250 1_555
Bi9 O36 2.394592 1_555
Bi9 O57 2.417696 1_555
Bi9 O9 2.645181 1_555
Bi10 O14 2.222315 1_555
Bi10 O5 2.270250 1_555
Bi10 O16 2.394592 1_555
Bi10 O33 2.417696 1_555
Bi10 O23 2.645181 1_555
Bi11 O52 2.122360 1_555
Bi11 O23 2.375069 1_555
Bi11 O41 2.397763 1_555
Bi11 O6 2.587272 1_555
Bi11 O29 2.669361 1_555
Bi11 O30 2.719281 1_545
O0 Rh15 2.063873 1_555
O0 Rh9 2.063873 1_555
O0 Rh22 2.082032 1_554
O1 Rh16 2.065956 1_555
O1 Rh5 2.085704 1_554
O1 Rh9 2.104073 1_555
O2 Rh18 1.988704 1_555
O2 Rh23 2.020571 1_555
O2 Rh0 2.037623 1_454
O3 Rh12 2.044924 1_455
O3 Rh17 2.064522 1_555
O3 Rh10 2.111928 1_555
O4 Rh22 1.926037 1_555
O4 Rh12 1.985147 1_555
O4 Rh14 1.985147 1_555
O5 Rh17 2.078367 1_655
O5 Rh7 2.094618 1_555
O5 Rh12 2.142720 1_555
O6 Rh2 2.065956 1_556
O6 Rh3 2.085704 1_556
O6 Rh15 2.104073 1_556
O7 Rh3 1.956582 1_555
O7 Rh8 1.986189 1_545
O7 Rh21 1.995337 1_555
O10 Rh20 2.063680 1_555
O10 Rh13 2.088135 1_555
O10 Rh10 2.088135 1_555
O11 Rh18 2.044924 1_655
O11 Rh17 2.064522 1_655
O11 Rh11 2.111928 1_555
O12 Rh19 2.078367 1_555
O12 Rh20 2.094618 1_555
O12 Rh21 2.142720 1_555
O13 Rh11 1.993040 1_555
O13 Rh0 2.019685 1_554
O13 Rh22 2.032869 1_554
O15 Rh21 1.988704 1_555
O15 Rh23 2.020571 1_555
O15 Rh5 2.037623 1_544
O16 Rh15 2.068328 1_556
O16 Rh0 2.096634 1_555
O16 Rh22 2.102524 1_555
O17 Rh7 2.052961 1_555
O17 Rh17 2.078988 1_655
O17 Rh11 2.082069 1_555
O18 Rh12 1.988704 1_555
O18 Rh4 2.020571 1_555
O18 Rh6 2.037623 1_656
O19 Rh5 1.956582 1_555
O19 Rh13 1.986189 1_565
O19 Rh14 1.995337 1_555
O20 Rh9 2.068328 1_555
O20 Rh6 2.096634 1_555
O20 Rh1 2.102524 1_555
O21 Rh1 1.926037 1_555
O21 Rh18 1.985147 1_555
O21 Rh21 1.985147 1_555
O22 Rh20 2.052961 1_555
O22 Rh17 2.078988 1_555
O22 Rh10 2.082069 1_555
O24 Rh6 1.956582 1_555
O24 Rh11 1.986189 1_455
O24 Rh18 1.995337 1_555
O25 Rh7 2.055378 1_555
O25 Rh14 2.081390 1_555
O25 Rh12 2.081390 1_555
O26 Rh20 2.055378 1_555
O26 Rh18 2.081390 1_555
O26 Rh21 2.081390 1_555
O27 Rh9 2.063873 1_556
O27 Rh15 2.063873 1_556
O27 Rh1 2.082032 1_556
O28 Rh2 2.051427 1_455
O28 Rh16 2.051427 1_545
O28 Rh23 2.069235 1_555
O29 Rh14 2.044924 1_545
O29 Rh19 2.064522 1_555
O29 Rh13 2.111928 1_555
O30 Rh14 1.988704 1_555
O30 Rh4 2.020571 1_555
O30 Rh3 2.037623 1_566
O32 Rh21 2.044924 1_565
O32 Rh19 2.064522 1_565
O32 Rh8 2.111928 1_555
O34 Rh23 2.000818 1_556
O34 Rh13 2.018637 1_555
O34 Rh10 2.018637 1_555
O36 Rh9 2.068328 1_556
O36 Rh5 2.096634 1_555
O36 Rh22 2.102524 1_555
O37 Rh19 2.078367 1_565
O37 Rh7 2.094618 1_555
O37 Rh14 2.142720 1_555
O38 Rh10 1.993040 1_555
O38 Rh6 2.019685 1_556
O38 Rh1 2.032869 1_556
O39 Rh16 2.065956 1_556
O39 Rh6 2.085704 1_556
O39 Rh9 2.104073 1_556
O40 Rh15 2.068328 1_555
O40 Rh3 2.096634 1_555
O40 Rh1 2.102524 1_555
O42 Rh20 2.052961 1_555
O42 Rh19 2.078988 1_555
O42 Rh13 2.082069 1_555
O43 Rh16 2.051427 1_656
O43 Rh2 2.051427 1_566
O43 Rh4 2.069235 1_555
O44 Rh0 1.956582 1_555
O44 Rh10 1.986189 1_655
O44 Rh12 1.995337 1_555
O45 Rh2 2.063275 1_556
O45 Rh23 2.069962 1_656
O45 Rh0 2.114655 1_555
O46 Rh8 1.993040 1_555
O46 Rh5 2.019685 1_554
O46 Rh22 2.032869 1_554
O47 Rh4 2.000818 1_554
O47 Rh8 2.018637 1_555
O47 Rh11 2.018637 1_555
O48 Rh13 1.993040 1_555
O48 Rh3 2.019685 1_556
O48 Rh1 2.032869 1_556
O49 Rh2 2.063275 1_555
O49 Rh4 2.069962 1_544
O49 Rh3 2.114655 1_555
O50 Rh7 2.052961 1_555
O50 Rh19 2.078988 1_565
O50 Rh8 2.082069 1_555
O51 Rh17 2.078367 1_555
O51 Rh20 2.094618 1_555
O51 Rh18 2.142720 1_555
O53 Rh7 2.063680 1_555
O53 Rh8 2.088135 1_555
O53 Rh11 2.088135 1_555
O54 Rh2 2.065956 1_555
O54 Rh0 2.085704 1_554
O54 Rh15 2.104073 1_555
O55 Rh16 2.063275 1_556
O55 Rh23 2.069962 1_566
O55 Rh5 2.114655 1_555
O56 Rh16 2.063275 1_555
O56 Rh4 2.069962 1_454
O56 Rh6 2.114655 1_555
