# generated using pymatgen
data_TlHCO2
_symmetry_space_group_name_H-M   'P 1'
_cell_length_a   6.07108600
_cell_length_b   7.09639200
_cell_length_c   8.04721500
_cell_angle_alpha   90.00000000
_cell_angle_beta   90.00000000
_cell_angle_gamma   90.00000000
_symmetry_Int_Tables_number   1
_chemical_formula_structural   TlHCO2
_chemical_formula_sum   'Tl4 H4 C4 O8'
_cell_volume   346.69660366
_cell_formula_units_Z   4
loop_
 _symmetry_equiv_pos_site_id
 _symmetry_equiv_pos_as_xyz
  1  'x, y, z'
loop_
 _atom_site_type_symbol
 _atom_site_label
 _atom_site_symmetry_multiplicity
 _atom_site_fract_x
 _atom_site_fract_y
 _atom_site_fract_z
 _atom_site_occupancy
  Tl  Tl0  1  0.78125800  0.25000000  0.50000000  1
  Tl  Tl1  1  0.21874200  0.75000000  0.50000000  1
  Tl  Tl2  1  0.71874200  0.25000000  0.00000000  1
  Tl  Tl3  1  0.28125800  0.75000000  0.00000000  1
  H  H0  1  0.75000000  0.81798200  0.25000000  1
  H  H1  1  0.25000000  0.18201800  0.75000000  1
  H  H2  1  0.75000000  0.68201800  0.75000000  1
  H  H3  1  0.25000000  0.31798200  0.25000000  1
  C  C0  1  0.25000000  0.16100700  0.25000000  1
  C  C1  1  0.75000000  0.83899300  0.75000000  1
  C  C2  1  0.25000000  0.33899300  0.75000000  1
  C  C3  1  0.75000000  0.66100700  0.25000000  1
  O  O0  1  0.91069600  0.57850100  0.32041700  1
  O  O1  1  0.41069600  0.42149900  0.82041700  1
  O  O2  1  0.41069600  0.07850100  0.17958300  1
  O  O3  1  0.58930400  0.92149900  0.82041700  1
  O  O4  1  0.08930400  0.07850100  0.32041700  1
  O  O5  1  0.08930400  0.42149900  0.67958300  1
  O  O6  1  0.58930400  0.57850100  0.17958300  1
  O  O7  1  0.91069600  0.92149900  0.67958300  1
loop_
_geom_bond_atom_site_label_1
_geom_bond_atom_site_label_2
_geom_bond_distance
_geom_bond_site_symmetry_2
C0 H3 1.113956 1_555
C0 O4 1.271103 1_555
C0 O2 1.271103 1_555
C1 H2 1.113956 1_555
C1 O3 1.271103 1_555
C1 O7 1.271103 1_555
C2 H1 1.113956 1_555
C2 O1 1.271103 1_555
C2 O5 1.271103 1_555
C3 H0 1.113956 1_555
C3 O6 1.271103 1_555
C3 O0 1.271103 1_555
O0 Tl1 2.658409 1_655
O0 Tl0 2.853126 1_555
O1 Tl2 2.658409 1_556
O1 Tl3 2.853126 1_556
O2 Tl2 2.658409 1_555
O2 Tl3 2.853126 1_545
O3 Tl3 2.658409 1_556
O3 Tl2 2.853126 1_566
O4 Tl0 2.658409 1_455
O4 Tl1 2.853126 1_545
O5 Tl0 2.658409 1_455
O5 Tl1 2.853126 1_555
O6 Tl3 2.658409 1_555
O6 Tl2 2.853126 1_555
O7 Tl1 2.658409 1_655
O7 Tl0 2.853126 1_565
