# generated using pymatgen
data_Gd3OsO7
_symmetry_space_group_name_H-M   'P 1'
_cell_length_a   7.45264500
_cell_length_b   10.69734100
_cell_length_c   14.98256600
_cell_angle_alpha   90.00000000
_cell_angle_beta   90.00000000
_cell_angle_gamma   90.00000000
_symmetry_Int_Tables_number   1
_chemical_formula_structural   Gd3OsO7
_chemical_formula_sum   'Gd24 Os8 O56'
_cell_volume   1194.46237452
_cell_formula_units_Z   8
loop_
 _symmetry_equiv_pos_site_id
 _symmetry_equiv_pos_as_xyz
  1  'x, y, z'
loop_
 _atom_site_type_symbol
 _atom_site_label
 _atom_site_symmetry_multiplicity
 _atom_site_fract_x
 _atom_site_fract_y
 _atom_site_fract_z
 _atom_site_occupancy
  Gd  Gd0  1  0.75032500  0.94356300  0.97519500  1
  Gd  Gd1  1  0.00380700  0.68903400  0.36128700  1
  Gd  Gd2  1  0.49619300  0.68903400  0.86128700  1
  Gd  Gd3  1  0.49594400  0.17056300  0.61067700  1
  Gd  Gd4  1  0.26036600  0.90235600  0.01708800  1
  Gd  Gd5  1  0.50405600  0.67056300  0.38932300  1
  Gd  Gd6  1  0.74533300  0.91572300  0.22538900  1
  Gd  Gd7  1  0.99594400  0.67056300  0.88932300  1
  Gd  Gd8  1  0.75575400  0.45683600  0.73258700  1
  Gd  Gd9  1  0.24533300  0.41572300  0.27461100  1
  Gd  Gd10  1  0.23963400  0.90235600  0.51708800  1
  Gd  Gd11  1  0.24424600  0.95683600  0.26741300  1
  Gd  Gd12  1  0.73963400  0.40235600  0.98291200  1
  Gd  Gd13  1  0.76036600  0.40235600  0.48291200  1
  Gd  Gd14  1  0.75466700  0.91572300  0.72538900  1
  Gd  Gd15  1  0.25575400  0.95683600  0.76741300  1
  Gd  Gd16  1  0.99619300  0.18903400  0.63871300  1
  Gd  Gd17  1  0.50380700  0.18903400  0.13871300  1
  Gd  Gd18  1  0.74424600  0.45683600  0.23258700  1
  Gd  Gd19  1  0.24967500  0.44356300  0.02480500  1
  Gd  Gd20  1  0.25032500  0.44356300  0.52480500  1
  Gd  Gd21  1  0.00405600  0.17056300  0.11067700  1
  Gd  Gd22  1  0.25466700  0.41572300  0.77461100  1
  Gd  Gd23  1  0.74967500  0.94356300  0.47519500  1
  Os  Os0  1  0.00190400  0.67854400  0.62629800  1
  Os  Os1  1  0.00172700  0.18012200  0.87520400  1
  Os  Os2  1  0.99827300  0.68012200  0.12479600  1
  Os  Os3  1  0.99809600  0.17854400  0.37370200  1
  Os  Os4  1  0.49809600  0.67854400  0.12629800  1
  Os  Os5  1  0.50172700  0.68012200  0.62479600  1
  Os  Os6  1  0.49827300  0.18012200  0.37520400  1
  Os  Os7  1  0.50190400  0.17854400  0.87370200  1
  O  O0  1  0.03595900  0.05096400  0.97004900  1
  O  O1  1  0.25099400  0.66775700  0.59119000  1
  O  O2  1  0.46757100  0.28083100  0.98648600  1
  O  O3  1  0.23948300  0.04859200  0.62795900  1
  O  O4  1  0.74819100  0.69030100  0.15914400  1
  O  O5  1  0.54531000  0.33077800  0.80862700  1
  O  O6  1  0.45469000  0.83077800  0.19137300  1
  O  O7  1  0.03128500  0.81117600  0.22083000  1
  O  O8  1  0.47087000  0.55661500  0.72309500  1
  O  O9  1  0.52913000  0.05661500  0.27690500  1
  O  O10  1  0.25180900  0.19030100  0.84085600  1
  O  O11  1  0.53344800  0.07438400  0.76144900  1
  O  O12  1  0.76429400  0.81384600  0.85633800  1
  O  O13  1  0.96871500  0.31117600  0.77917000  1
  O  O14  1  0.03975000  0.02222500  0.43774800  1
  O  O15  1  0.23370100  0.81083000  0.87813900  1
  O  O16  1  0.96655200  0.07438400  0.26144900  1
  O  O17  1  0.73370100  0.31083000  0.62186100  1
  O  O18  1  0.52893300  0.80616500  0.52786800  1
  O  O19  1  0.75180900  0.69030100  0.65914400  1
  O  O20  1  0.53595900  0.55096400  0.52995100  1
  O  O21  1  0.96757100  0.78083100  0.51351400  1
  O  O22  1  0.23315000  0.54479300  0.39431000  1
  O  O23  1  0.76051700  0.54859200  0.37204100  1
  O  O24  1  0.03344800  0.57438400  0.73855100  1
  O  O25  1  0.23570600  0.31384600  0.14366200  1
  O  O26  1  0.73315000  0.04479300  0.10569000  1
  O  O27  1  0.53975000  0.52222500  0.06225200  1
  O  O28  1  0.26685000  0.54479300  0.89431000  1
  O  O29  1  0.76629900  0.31083000  0.12186100  1
  O  O30  1  0.04531000  0.83077800  0.69137300  1
  O  O31  1  0.47106700  0.30616500  0.47213200  1
  O  O32  1  0.26429400  0.31384600  0.64366200  1
  O  O33  1  0.26629900  0.81083000  0.37813900  1
  O  O34  1  0.26051700  0.04859200  0.12795900  1
  O  O35  1  0.75099400  0.16775700  0.90881000  1
  O  O36  1  0.73570600  0.81384600  0.35633800  1
  O  O37  1  0.24900600  0.66775700  0.09119000  1
  O  O38  1  0.53242900  0.78083100  0.01351400  1
  O  O39  1  0.46025000  0.02222500  0.93774800  1
  O  O40  1  0.76685000  0.04479300  0.60569000  1
  O  O41  1  0.96025000  0.52222500  0.56225200  1
  O  O42  1  0.97087000  0.05661500  0.77690500  1
  O  O43  1  0.46404100  0.05096400  0.47004900  1
  O  O44  1  0.46655200  0.57438400  0.23855100  1
  O  O45  1  0.02893300  0.30616500  0.97213200  1
  O  O46  1  0.53128500  0.31117600  0.27917000  1
  O  O47  1  0.24819100  0.19030100  0.34085600  1
  O  O48  1  0.46871500  0.81117600  0.72083000  1
  O  O49  1  0.73948300  0.54859200  0.87204100  1
  O  O50  1  0.74900600  0.16775700  0.40881000  1
  O  O51  1  0.02913000  0.55661500  0.22309500  1
  O  O52  1  0.97106700  0.80616500  0.02786800  1
  O  O53  1  0.96404100  0.55096400  0.02995100  1
  O  O54  1  0.95469000  0.33077800  0.30862700  1
  O  O55  1  0.03242900  0.28083100  0.48648600  1
loop_
_geom_bond_atom_site_label_1
_geom_bond_atom_site_label_2
_geom_bond_distance
_geom_bond_site_symmetry_2
Gd0 O26 2.238671 1_566
Gd0 O12 2.259985 1_555
Gd0 O52 2.342965 1_556
Gd0 O39 2.386703 1_565
Gd0 O0 2.420209 1_665
Gd0 O38 2.448888 1_556
Gd0 O35 2.596350 1_565
Gd1 O22 2.355215 1_555
Gd1 O23 2.360204 1_455
Gd1 O33 2.363944 1_555
Gd1 O36 2.404244 1_455
Gd1 O7 2.485488 1_555
Gd1 O21 2.497808 1_455
Gd1 O51 2.515756 1_555
Gd2 O28 2.355215 1_555
Gd2 O49 2.360204 1_555
Gd2 O15 2.363944 1_555
Gd2 O12 2.404244 1_555
Gd2 O48 2.485488 1_555
Gd2 O38 2.497808 1_556
Gd2 O8 2.515756 1_555
Gd3 O17 2.327923 1_555
Gd3 O3 2.328642 1_555
Gd3 O32 2.360937 1_555
Gd3 O40 2.427328 1_555
Gd3 O43 2.476426 1_555
Gd3 O11 2.497906 1_555
Gd3 O31 2.539160 1_555
Gd4 O34 2.281778 1_565
Gd4 O39 2.297039 1_564
Gd4 O15 2.309122 1_554
Gd4 O52 2.394457 1_455
Gd4 O38 2.409143 1_555
Gd4 O0 2.412650 1_564
Gd4 O37 2.745508 1_555
Gd5 O33 2.327923 1_555
Gd5 O23 2.328642 1_555
Gd5 O36 2.360937 1_555
Gd5 O22 2.427328 1_555
Gd5 O20 2.476426 1_555
Gd5 O44 2.497906 1_555
Gd5 O18 2.539160 1_555
Gd6 O36 2.245461 1_555
Gd6 O26 2.265142 1_565
Gd6 O9 2.337421 1_565
Gd6 O6 2.403593 1_555
Gd6 O7 2.407698 1_655
Gd6 O16 2.427067 1_565
Gd6 O4 2.607772 1_555
Gd7 O15 2.327923 1_655
Gd7 O49 2.328642 1_555
Gd7 O12 2.360937 1_555
Gd7 O28 2.427328 1_655
Gd7 O53 2.476426 1_556
Gd7 O24 2.497906 1_655
Gd7 O52 2.539160 1_556
Gd8 O17 2.284429 1_555
Gd8 O49 2.311631 1_555
Gd8 O13 2.331089 1_555
Gd8 O5 2.361382 1_555
Gd8 O8 2.380593 1_555
Gd8 O24 2.423267 1_655
Gd8 O19 2.729276 1_555
Gd8 O41 3.053679 1_555
Gd9 O25 2.245461 1_555
Gd9 O22 2.265142 1_555
Gd9 O51 2.337421 1_555
Gd9 O54 2.403593 1_455
Gd9 O46 2.407698 1_555
Gd9 O44 2.427067 1_555
Gd9 O47 2.607772 1_555
Gd10 O3 2.281778 1_565
Gd10 O14 2.297039 1_565
Gd10 O33 2.309122 1_555
Gd10 O18 2.394457 1_555
Gd10 O21 2.409143 1_455
Gd10 O43 2.412650 1_565
Gd10 O1 2.745508 1_555
Gd11 O33 2.284429 1_555
Gd11 O34 2.311631 1_565
Gd11 O7 2.331089 1_555
Gd11 O6 2.361382 1_555
Gd11 O9 2.380593 1_565
Gd11 O16 2.423267 1_465
Gd11 O47 2.729276 1_565
Gd11 O14 3.053679 1_565
Gd12 O49 2.281778 1_555
Gd12 O27 2.297039 1_556
Gd12 O29 2.309122 1_556
Gd12 O45 2.394457 1_655
Gd12 O2 2.409143 1_555
Gd12 O53 2.412650 1_556
Gd12 O35 2.745508 1_555
Gd13 O23 2.281778 1_555
Gd13 O41 2.297039 1_555
Gd13 O17 2.309122 1_555
Gd13 O31 2.394457 1_555
Gd13 O55 2.409143 1_655
Gd13 O20 2.412650 1_555
Gd13 O50 2.745508 1_555
Gd14 O12 2.245461 1_555
Gd14 O40 2.265142 1_565
Gd14 O42 2.337421 1_565
Gd14 O30 2.403593 1_655
Gd14 O48 2.407698 1_555
Gd14 O11 2.427067 1_565
Gd14 O19 2.607772 1_555
Gd15 O15 2.284429 1_555
Gd15 O3 2.311631 1_565
Gd15 O48 2.331089 1_555
Gd15 O30 2.361382 1_555
Gd15 O42 2.380593 1_465
Gd15 O11 2.423267 1_565
Gd15 O10 2.729276 1_565
Gd15 O39 3.053679 1_565
Gd16 O40 2.355215 1_555
Gd16 O3 2.360204 1_655
Gd16 O17 2.363944 1_555
Gd16 O32 2.404244 1_655
Gd16 O13 2.485488 1_555
Gd16 O55 2.497808 1_655
Gd16 O42 2.515756 1_555
Gd17 O26 2.355215 1_555
Gd17 O34 2.360204 1_555
Gd17 O29 2.363944 1_555
Gd17 O25 2.404244 1_555
Gd17 O46 2.485488 1_555
Gd17 O2 2.497808 1_554
Gd17 O9 2.515756 1_555
Gd18 O29 2.284429 1_555
Gd18 O23 2.311631 1_555
Gd18 O46 2.331089 1_555
Gd18 O54 2.361382 1_555
Gd18 O51 2.380593 1_655
Gd18 O44 2.423267 1_555
Gd18 O4 2.729276 1_555
Gd18 O27 3.053679 1_555
Gd19 O28 2.238671 1_554
Gd19 O25 2.259985 1_555
Gd19 O45 2.342965 1_554
Gd19 O27 2.386703 1_555
Gd19 O53 2.420209 1_455
Gd19 O2 2.448888 1_554
Gd19 O37 2.596350 1_555
Gd20 O22 2.238671 1_555
Gd20 O32 2.259985 1_555
Gd20 O31 2.342965 1_555
Gd20 O41 2.386703 1_455
Gd20 O20 2.420209 1_555
Gd20 O55 2.448888 1_555
Gd20 O1 2.596350 1_555
Gd21 O29 2.327923 1_455
Gd21 O34 2.328642 1_555
Gd21 O25 2.360937 1_555
Gd21 O26 2.427328 1_455
Gd21 O0 2.476426 1_554
Gd21 O16 2.497906 1_455
Gd21 O45 2.539160 1_554
Gd22 O32 2.245461 1_555
Gd22 O28 2.265142 1_555
Gd22 O8 2.337421 1_555
Gd22 O5 2.403593 1_555
Gd22 O13 2.407698 1_455
Gd22 O24 2.427067 1_555
Gd22 O10 2.607772 1_555
Gd23 O40 2.238671 1_565
Gd23 O36 2.259985 1_555
Gd23 O18 2.342965 1_555
Gd23 O14 2.386703 1_665
Gd23 O43 2.420209 1_565
Gd23 O21 2.448888 1_555
Gd23 O50 2.596350 1_565
O0 Os1 1.998333 1_555
O1 Os0 1.932911 1_555
O1 Os5 1.939786 1_555
O2 Os7 2.029321 1_555
O4 Os4 1.931840 1_555
O4 Os2 1.936579 1_555
O5 Os7 1.925425 1_555
O6 Os4 1.925425 1_555
O7 Os2 2.023903 1_455
O8 Os5 1.991858 1_555
O9 Os6 1.991858 1_555
O10 Os7 1.931840 1_555
O10 Os1 1.936579 1_555
O11 Os7 2.031099 1_555
O13 Os1 2.023903 1_655
O14 Os3 1.952791 1_455
O16 Os3 2.031099 1_555
O18 Os5 1.992000 1_555
O19 Os0 1.931840 1_655
O19 Os5 1.936579 1_555
O20 Os5 1.998333 1_555
O21 Os0 2.029321 1_655
O24 Os0 2.031099 1_555
O27 Os4 1.952791 1_555
O30 Os0 1.925425 1_555
O31 Os6 1.992000 1_555
O35 Os7 1.932911 1_555
O35 Os1 1.939786 1_655
O37 Os4 1.932911 1_555
O37 Os2 1.939786 1_455
O38 Os4 2.029321 1_555
O39 Os7 1.952791 1_555
O41 Os0 1.952791 1_655
O42 Os1 1.991858 1_655
O43 Os6 1.998333 1_555
O44 Os4 2.031099 1_555
O45 Os1 1.992000 1_555
O46 Os6 2.023903 1_555
O47 Os3 1.931840 1_455
O47 Os6 1.936579 1_555
O48 Os5 2.023903 1_555
O50 Os3 1.932911 1_555
O50 Os6 1.939786 1_555
O51 Os2 1.991858 1_455
O52 Os2 1.992000 1_555
O53 Os2 1.998333 1_555
O54 Os3 1.925425 1_555
O55 Os3 2.029321 1_455
