# generated using pymatgen
data_NiH4(IO4)2
_symmetry_space_group_name_H-M   'P 1'
_cell_length_a   6.91513000
_cell_length_b   9.14062700
_cell_length_c   12.32341800
_cell_angle_alpha   90.00000000
_cell_angle_beta   90.00000000
_cell_angle_gamma   90.00000000
_symmetry_Int_Tables_number   1
_chemical_formula_structural   NiH4(IO4)2
_chemical_formula_sum   'Ni4 H16 I8 O32'
_cell_volume   778.94629459
_cell_formula_units_Z   4
loop_
 _symmetry_equiv_pos_site_id
 _symmetry_equiv_pos_as_xyz
  1  'x, y, z'
loop_
 _atom_site_type_symbol
 _atom_site_label
 _atom_site_symmetry_multiplicity
 _atom_site_fract_x
 _atom_site_fract_y
 _atom_site_fract_z
 _atom_site_occupancy
  Ni  Ni0  1  0.00000000  0.00000000  0.00000000  1
  Ni  Ni1  1  0.50000000  0.50000000  0.00000000  1
  Ni  Ni2  1  0.00000000  0.50000000  0.50000000  1
  Ni  Ni3  1  0.50000000  0.00000000  0.50000000  1
  H  H0  1  0.23178400  0.60451900  0.35203400  1
  H  H1  1  0.73178400  0.89548100  0.64796600  1
  H  H2  1  0.76821600  0.10451900  0.14796600  1
  H  H3  1  0.26821600  0.39548100  0.85203400  1
  H  H4  1  0.76821600  0.39548100  0.64796600  1
  H  H5  1  0.26821600  0.10451900  0.35203400  1
  H  H6  1  0.23178400  0.89548100  0.85203400  1
  H  H7  1  0.73178400  0.60451900  0.14796600  1
  H  H8  1  0.26383900  0.43211700  0.35258100  1
  H  H9  1  0.76383900  0.06788300  0.64741900  1
  H  H10  1  0.73616100  0.93211700  0.14741900  1
  H  H11  1  0.23616100  0.56788300  0.85258100  1
  H  H12  1  0.73616100  0.56788300  0.64741900  1
  H  H13  1  0.23616100  0.93211700  0.35258100  1
  H  H14  1  0.26383900  0.06788300  0.85258100  1
  H  H15  1  0.76383900  0.43211700  0.14741900  1
  I  I0  1  0.22136800  0.27593900  0.13675000  1
  I  I1  1  0.72136800  0.22406100  0.86325000  1
  I  I2  1  0.77863200  0.77593900  0.36325000  1
  I  I3  1  0.27863200  0.72406100  0.63675000  1
  I  I4  1  0.77863200  0.72406100  0.86325000  1
  I  I5  1  0.27863200  0.77593900  0.13675000  1
  I  I6  1  0.22136800  0.22406100  0.63675000  1
  I  I7  1  0.72136800  0.27593900  0.36325000  1
  O  O0  1  0.44111000  0.29144200  0.05385100  1
  O  O1  1  0.94111000  0.20855800  0.94614900  1
  O  O2  1  0.55889000  0.79144200  0.44614900  1
  O  O3  1  0.05889000  0.70855800  0.55385100  1
  O  O4  1  0.55889000  0.70855800  0.94614900  1
  O  O5  1  0.05889000  0.79144200  0.05385100  1
  O  O6  1  0.44111000  0.20855800  0.55385100  1
  O  O7  1  0.94111000  0.29144200  0.44614900  1
  O  O8  1  0.32493900  0.27664600  0.27353000  1
  O  O9  1  0.82493900  0.22335400  0.72647000  1
  O  O10  1  0.67506100  0.77664600  0.22647000  1
  O  O11  1  0.17506100  0.72335400  0.77353000  1
  O  O12  1  0.67506100  0.72335400  0.72647000  1
  O  O13  1  0.17506100  0.77664600  0.27353000  1
  O  O14  1  0.32493900  0.22335400  0.77353000  1
  O  O15  1  0.82493900  0.27664600  0.22647000  1
  O  O16  1  0.17856700  0.07856900  0.12399300  1
  O  O17  1  0.67856700  0.42143100  0.87600700  1
  O  O18  1  0.82143300  0.57856900  0.37600700  1
  O  O19  1  0.32143300  0.92143100  0.62399300  1
  O  O20  1  0.82143300  0.92143100  0.87600700  1
  O  O21  1  0.32143300  0.57856900  0.12399300  1
  O  O22  1  0.17856700  0.42143100  0.62399300  1
  O  O23  1  0.67856700  0.07856900  0.37600700  1
  O  O24  1  0.24089300  0.51820400  0.40005900  1
  O  O25  1  0.74089300  0.98179600  0.59994100  1
  O  O26  1  0.75910700  0.01820400  0.09994100  1
  O  O27  1  0.25910700  0.48179600  0.90005900  1
  O  O28  1  0.75910700  0.48179600  0.59994100  1
  O  O29  1  0.25910700  0.01820400  0.40005900  1
  O  O30  1  0.24089300  0.98179600  0.90005900  1
  O  O31  1  0.74089300  0.51820400  0.09994100  1
loop_
_geom_bond_atom_site_label_1
_geom_bond_atom_site_label_2
_geom_bond_distance
_geom_bond_site_symmetry_2
Ni0 O1 2.059227 1_454
Ni0 O5 2.059227 1_545
Ni0 O30 2.078334 1_544
Ni0 O26 2.078334 1_455
Ni0 O16 2.091739 1_555
Ni0 O20 2.091739 1_444
Ni1 O0 2.059227 1_555
Ni1 O4 2.059227 1_554
Ni1 O27 2.078334 1_554
Ni1 O31 2.078334 1_555
Ni1 O21 2.091739 1_555
Ni1 O17 2.091739 1_554
Ni2 O3 2.059227 1_555
Ni2 O7 2.059227 1_455
Ni2 O28 2.078334 1_455
Ni2 O24 2.078334 1_555
Ni2 O22 2.091739 1_555
Ni2 O18 2.091739 1_455
Ni3 O6 2.059227 1_555
Ni3 O2 2.059227 1_545
Ni3 O25 2.078334 1_545
Ni3 O29 2.078334 1_555
Ni3 O19 2.091739 1_545
Ni3 O23 2.091739 1_555
H0 O24 0.988287 1_555
H1 O25 0.988287 1_555
H2 O26 0.988287 1_555
H3 O27 0.988287 1_555
H4 O28 0.988287 1_555
H5 O29 0.988287 1_555
H6 O30 0.988287 1_555
H7 O31 0.988287 1_555
H8 O24 0.993330 1_555
H9 O25 0.993330 1_545
H10 O26 0.993330 1_565
H11 O27 0.993330 1_555
H12 O28 0.993330 1_555
H13 O29 0.993330 1_565
H14 O30 0.993330 1_545
H15 O31 0.993330 1_555
I0 O8 1.831456 1_555
I0 O16 1.834950 1_555
I0 O0 1.836508 1_555
I1 O9 1.831456 1_555
I1 O17 1.834950 1_555
I1 O1 1.836508 1_555
I2 O10 1.831456 1_555
I2 O18 1.834950 1_555
I2 O2 1.836508 1_555
I3 O11 1.831456 1_555
I3 O19 1.834950 1_555
I3 O3 1.836508 1_555
I4 O12 1.831456 1_555
I4 O20 1.834950 1_555
I4 O4 1.836508 1_555
I5 O13 1.831456 1_555
I5 O21 1.834950 1_555
I5 O5 1.836508 1_555
I6 O14 1.831456 1_555
I6 O22 1.834950 1_555
I6 O6 1.836508 1_555
I7 O15 1.831456 1_555
I7 O23 1.834950 1_555
I7 O7 1.836508 1_555
