# generated using pymatgen
data_RbP(OF)2
_symmetry_space_group_name_H-M   'P 1'
_cell_length_a   6.56920861
_cell_length_b   7.64958572
_cell_length_c   7.88428112
_cell_angle_alpha   90.00000000
_cell_angle_beta   90.00000000
_cell_angle_gamma   90.00000000
_symmetry_Int_Tables_number   1
_chemical_formula_structural   RbP(OF)2
_chemical_formula_sum   'Rb4 P4 O8 F8'
_cell_volume   396.19872174
_cell_formula_units_Z   4
loop_
 _symmetry_equiv_pos_site_id
 _symmetry_equiv_pos_as_xyz
  1  'x, y, z'
loop_
 _atom_site_type_symbol
 _atom_site_label
 _atom_site_symmetry_multiplicity
 _atom_site_fract_x
 _atom_site_fract_y
 _atom_site_fract_z
 _atom_site_occupancy
  Rb  Rb0  1  0.25000000  0.35572574  0.63501613  1
  Rb  Rb1  1  0.75000000  0.85572574  0.86498387  1
  Rb  Rb2  1  0.75000000  0.64427426  0.36498387  1
  Rb  Rb3  1  0.25000000  0.14427426  0.13501613  1
  P  P0  1  0.75000000  0.31609023  0.88372691  1
  P  P1  1  0.25000000  0.68390977  0.11627309  1
  P  P2  1  0.25000000  0.81609023  0.61627309  1
  P  P3  1  0.75000000  0.18390977  0.38372691  1
  O  O0  1  0.94634428  0.27662241  0.38344946  1
  O  O1  1  0.44634428  0.77662241  0.11655054  1
  O  O2  1  0.55365572  0.22337759  0.88344946  1
  O  O3  1  0.94634428  0.22337759  0.88344946  1
  O  O4  1  0.55365572  0.27662241  0.38344946  1
  O  O5  1  0.44634428  0.72337759  0.61655054  1
  O  O6  1  0.05365572  0.77662241  0.11655054  1
  O  O7  1  0.05365572  0.72337759  0.61655054  1
  F  F0  1  0.75000000  0.45251495  0.73351147  1
  F  F1  1  0.75000000  0.04508260  0.53183995  1
  F  F2  1  0.25000000  0.95251495  0.76648853  1
  F  F3  1  0.25000000  0.54748505  0.26648853  1
  F  F4  1  0.75000000  0.04748505  0.23351147  1
  F  F5  1  0.25000000  0.95491740  0.46816005  1
  F  F6  1  0.75000000  0.45491740  0.03183995  1
  F  F7  1  0.25000000  0.54508260  0.96816005  1
loop_
_geom_bond_atom_site_label_1
_geom_bond_atom_site_label_2
_geom_bond_distance
_geom_bond_site_symmetry_2
O0 P3 1.471951 1_555
O0 Rb0 2.877370 1_655
O0 Rb3 2.973329 1_655
O0 Rb2 3.097475 1_555
O1 P1 1.471951 1_555
O1 Rb1 2.877370 1_554
O1 Rb2 2.973329 1_555
O1 Rb3 3.097475 1_565
O2 P0 1.471951 1_555
O2 Rb3 2.877370 1_556
O2 Rb0 2.973329 1_555
O2 Rb1 3.097475 1_545
O3 P0 1.471951 1_555
O3 Rb3 2.877370 1_656
O3 Rb0 2.973329 1_655
O3 Rb1 3.097475 1_545
O4 P3 1.471951 1_555
O4 Rb0 2.877370 1_555
O4 Rb3 2.973329 1_555
O4 Rb2 3.097475 1_555
O5 P2 1.471951 1_555
O5 Rb2 2.877370 1_555
O5 Rb1 2.973329 1_555
O5 Rb0 3.097475 1_555
O6 P1 1.471951 1_555
O6 Rb1 2.877370 1_454
O6 Rb2 2.973329 1_455
O6 Rb3 3.097475 1_565
O7 P2 1.471951 1_555
O7 Rb2 2.877370 1_455
O7 Rb1 2.973329 1_455
O7 Rb0 3.097475 1_555
F0 P0 1.578527 1_555
F0 Rb1 3.253915 1_555
F0 Rb2 3.254858 1_555
F0 Rb0 3.455411 1_655
F0 Rb0 3.455411 1_555
F1 P3 1.578435 1_555
F1 Rb1 2.999531 1_545
F1 Rb2 3.336332 1_545
F2 P2 1.578527 1_555
F2 Rb0 3.253915 1_565
F2 Rb3 3.254858 1_566
F2 Rb1 3.455411 1_455
F2 Rb1 3.455411 1_555
F3 P1 1.578527 1_555
F3 Rb3 3.253915 1_555
F3 Rb0 3.254858 1_555
F3 Rb2 3.455411 1_555
F3 Rb2 3.455411 1_455
F4 P3 1.578527 1_555
F4 Rb2 3.253915 1_545
F4 Rb1 3.254858 1_544
F4 Rb3 3.455411 1_655
F4 Rb3 3.455411 1_555
F5 P2 1.578435 1_555
F5 Rb3 2.999531 1_565
F5 Rb0 3.336332 1_565
F6 P0 1.578435 1_554
F6 Rb2 2.999531 1_555
F6 Rb1 3.336332 1_554
F7 P1 1.578435 1_556
F7 Rb0 2.999531 1_555
F7 Rb3 3.336332 1_556
