# generated using pymatgen
data_LiY(MoO4)2
_symmetry_space_group_name_H-M   'P 1'
_cell_length_a   5.27624200
_cell_length_b   6.79625812
_cell_length_c   10.51420864
_cell_angle_alpha   100.91118621
_cell_angle_beta   99.45492906
_cell_angle_gamma   112.72277404
_symmetry_Int_Tables_number   1
_chemical_formula_structural   LiY(MoO4)2
_chemical_formula_sum   'Li2 Y2 Mo4 O16'
_cell_volume   329.53801314
_cell_formula_units_Z   2
loop_
 _symmetry_equiv_pos_site_id
 _symmetry_equiv_pos_as_xyz
  1  'x, y, z'
loop_
 _atom_site_type_symbol
 _atom_site_label
 _atom_site_symmetry_multiplicity
 _atom_site_fract_x
 _atom_site_fract_y
 _atom_site_fract_z
 _atom_site_occupancy
  Li  Li0  1  0.66474000  0.62235300  0.87425700  1
  Li  Li1  1  0.33526000  0.37764700  0.12574300  1
  Y  Y0  1  0.62364600  0.77070700  0.43876500  1
  Y  Y1  1  0.37635400  0.22929300  0.56123500  1
  Mo  Mo0  1  0.10172100  0.84687100  0.20440200  1
  Mo  Mo1  1  0.89827900  0.15312900  0.79559800  1
  Mo  Mo2  1  0.16317100  0.70053800  0.67895000  1
  Mo  Mo3  1  0.83682900  0.29946200  0.32105000  1
  O  O0  1  0.70777800  0.50346600  0.29403300  1
  O  O1  1  0.98055000  0.04415500  0.63572000  1
  O  O2  1  0.80053400  0.68322600  0.06911300  1
  O  O3  1  0.29222200  0.49653400  0.70596700  1
  O  O4  1  0.70512700  0.32002100  0.76391600  1
  O  O5  1  0.19946600  0.31677400  0.93088700  1
  O  O6  1  0.01945000  0.95584500  0.36428000  1
  O  O7  1  0.37638000  0.88324800  0.58622400  1
  O  O8  1  0.79485600  0.56312700  0.56774400  1
  O  O9  1  0.87629200  0.17658500  0.17020500  1
  O  O10  1  0.20514400  0.43687300  0.43225600  1
  O  O11  1  0.62362000  0.11675200  0.41377600  1
  O  O12  1  0.67490900  0.92419200  0.84239300  1
  O  O13  1  0.29487300  0.67997900  0.23608400  1
  O  O14  1  0.32509100  0.07580800  0.15760700  1
  O  O15  1  0.12370800  0.82341500  0.82979500  1
loop_
_geom_bond_atom_site_label_1
_geom_bond_atom_site_label_2
_geom_bond_distance
_geom_bond_site_symmetry_2
Li0 O2 1.962083 1_556
Li0 O12 2.122338 1_555
Li0 O3 2.170586 1_555
Li0 O4 2.265014 1_555
Li0 O15 2.451001 1_655
Li1 O5 1.962083 1_554
Li1 O14 2.122338 1_555
Li1 O0 2.170586 1_555
Li1 O13 2.265014 1_555
Li1 O9 2.451001 1_455
Mo0 O2 1.754621 1_455
Mo0 O14 1.765111 1_565
Mo0 O13 1.833186 1_555
Mo0 O6 1.891944 1_555
Mo1 O5 1.754621 1_655
Mo1 O12 1.765111 1_545
Mo1 O4 1.833186 1_555
Mo1 O1 1.891944 1_555
Mo2 O15 1.731361 1_555
Mo2 O3 1.811485 1_555
Mo2 O8 1.858445 1_455
Mo2 O7 1.870138 1_555
Mo3 O9 1.731361 1_555
Mo3 O0 1.811485 1_555
Mo3 O10 1.858445 1_655
Mo3 O11 1.870138 1_555
O0 Y0 2.368529 1_555
O1 Y1 2.331980 1_655
O1 Y0 2.417940 1_545
O3 Y1 2.368529 1_555
O4 Y1 2.322139 1_555
O6 Y0 2.331980 1_455
O6 Y1 2.417940 1_565
O7 Y0 2.382725 1_555
O7 Y1 2.415411 1_565
O8 Y0 2.439605 1_555
O8 Y1 2.459527 1_555
O10 Y1 2.439605 1_555
O10 Y0 2.459527 1_555
O11 Y1 2.382725 1_555
O11 Y0 2.415411 1_545
O13 Y0 2.322139 1_555
