# generated using pymatgen
data_HoTlSe2
_symmetry_space_group_name_H-M   'P 1'
_cell_length_a   8.09998171
_cell_length_b   8.09998171
_cell_length_c   8.09998307
_cell_angle_alpha   29.66461616
_cell_angle_beta   29.66461616
_cell_angle_gamma   29.66462389
_symmetry_Int_Tables_number   1
_chemical_formula_structural   HoTlSe2
_chemical_formula_sum   'Ho1 Tl1 Se2'
_cell_volume   115.24923759
_cell_formula_units_Z   1
loop_
 _symmetry_equiv_pos_site_id
 _symmetry_equiv_pos_as_xyz
  1  'x, y, z'
loop_
 _atom_site_type_symbol
 _atom_site_label
 _atom_site_symmetry_multiplicity
 _atom_site_fract_x
 _atom_site_fract_y
 _atom_site_fract_z
 _atom_site_occupancy
  Ho  Ho0  1  -0.00000000  -0.00000000  0.00000000  1
  Tl  Tl0  1  0.50000000  0.50000000  0.50000000  1
  Se  Se0  1  0.73424423  0.73424423  0.73424423  1
  Se  Se1  1  0.26575577  0.26575577  0.26575577  1
loop_
_geom_bond_atom_site_label_1
_geom_bond_atom_site_label_2
_geom_bond_distance
_geom_bond_site_symmetry_2
Ho0 Se1 2.862453 1_545
Ho0 Se1 2.862453 1_455
Ho0 Se0 2.862453 1_544
Ho0 Se0 2.862453 1_454
Ho0 Se1 2.862453 1_554
Ho0 Se0 2.862453 1_445
Se0 Tl0 3.320220 1_655
Se0 Tl0 3.320220 1_565
Se0 Tl0 3.320221 1_556
Se1 Tl0 3.320220 1_455
Se1 Tl0 3.320220 1_545
Se1 Tl0 3.320221 1_554
