# generated using pymatgen
data_Na5La(WO4)4
_symmetry_space_group_name_H-M   'P 1'
_cell_length_a   10.20332672
_cell_length_b   10.20332672
_cell_length_c   10.20332672
_cell_angle_alpha   108.95005374
_cell_angle_beta   108.95005374
_cell_angle_gamma   110.51865934
_symmetry_Int_Tables_number   1
_chemical_formula_structural   Na5La(WO4)4
_chemical_formula_sum   'Na10 La2 W8 O32'
_cell_volume   817.51247762
_cell_formula_units_Z   2
loop_
 _symmetry_equiv_pos_site_id
 _symmetry_equiv_pos_as_xyz
  1  'x, y, z'
loop_
 _atom_site_type_symbol
 _atom_site_label
 _atom_site_symmetry_multiplicity
 _atom_site_fract_x
 _atom_site_fract_y
 _atom_site_fract_z
 _atom_site_occupancy
  Na  Na0  1  0.50000000  0.50000000  0.00000000  1
  Na  Na1  1  0.75000000  0.25000000  0.50000000  1
  Na  Na2  1  0.58840000  0.76353600  0.41725400  1
  Na  Na3  1  0.01353600  0.09628200  0.67513500  1
  Na  Na4  1  0.42114600  0.33840000  0.32486400  1
  Na  Na5  1  0.34628200  0.17114600  0.58274600  1
  Na  Na6  1  0.66160000  0.98646400  0.08274600  1
  Na  Na7  1  0.23646400  0.65371800  0.82486500  1
  Na  Na8  1  0.82885400  0.41160000  0.17513500  1
  Na  Na9  1  0.90371800  0.57885400  0.91725400  1
  La  La0  1  0.00000000  0.00000000  0.00000000  1
  La  La1  1  0.25000000  0.75000000  0.50000000  1
  W  W0  1  0.88425000  0.66454000  0.58420400  1
  W  W1  1  0.91454000  0.83033600  0.28029000  1
  W  W2  1  0.55004600  0.63425000  0.71971000  1
  W  W3  1  0.08033600  0.30004600  0.41579600  1
  W  W4  1  0.36575000  0.08546000  0.91579600  1
  W  W5  1  0.33546000  0.91966400  0.21971000  1
  W  W6  1  0.69995400  0.11575000  0.78029000  1
  W  W7  1  0.16966400  0.44995400  0.08420400  1
  O  O0  1  0.96386500  0.64086200  0.44633200  1
  O  O1  1  0.89086200  0.94453000  0.17699700  1
  O  O2  1  0.76753300  0.71386500  0.82300300  1
  O  O3  1  0.19453000  0.51753300  0.55366800  1
  O  O4  1  0.28613500  0.10913800  0.05366800  1
  O  O5  1  0.35913800  0.80547000  0.32300300  1
  O  O6  1  0.48246700  0.03613500  0.67699700  1
  O  O7  1  0.05547000  0.23246700  0.94633200  1
  O  O8  1  0.67018100  0.57286600  0.46267100  1
  O  O9  1  0.82286600  0.86019500  0.40268500  1
  O  O10  1  0.45751000  0.42018100  0.59731500  1
  O  O11  1  0.11019500  0.20751000  0.53732900  1
  O  O12  1  0.57981900  0.17713400  0.03732900  1
  O  O13  1  0.42713400  0.88980500  0.09731500  1
  O  O14  1  0.79249000  0.32981900  0.90268500  1
  O  O15  1  0.13980500  0.54249000  0.96267100  1
  O  O16  1  0.97669600  0.87841800  0.73133800  1
  O  O17  1  0.12841800  0.89707900  0.40172100  1
  O  O18  1  0.49535800  0.72669600  0.59827900  1
  O  O19  1  0.14707900  0.24535800  0.26866200  1
  O  O20  1  0.27330400  0.87158200  0.76866200  1
  O  O21  1  0.12158200  0.85292100  0.09827900  1
  O  O22  1  0.75464200  0.02330400  0.90172100  1
  O  O23  1  0.10292100  0.50464200  0.23133800  1
  O  O24  1  0.91772300  0.54365800  0.67372900  1
  O  O25  1  0.79365800  0.61993000  0.12593500  1
  O  O26  1  0.49399500  0.66772300  0.87406500  1
  O  O27  1  0.86993000  0.24399500  0.32627100  1
  O  O28  1  0.33227700  0.20634200  0.82627100  1
  O  O29  1  0.45634200  0.13007000  0.37406500  1
  O  O30  1  0.75600500  0.08227700  0.62593500  1
  O  O31  1  0.38007000  0.50600500  0.17372900  1
loop_
_geom_bond_atom_site_label_1
_geom_bond_atom_site_label_2
_geom_bond_distance
_geom_bond_site_symmetry_2
Na0 O25 2.456443 1_555
Na0 O26 2.456443 1_554
Na0 O28 2.456444 1_554
Na0 O31 2.456452 1_555
Na1 O30 2.456443 1_555
Na1 O29 2.456443 1_555
Na1 O24 2.456444 1_555
Na1 O27 2.456452 1_555
Na2 O9 2.321683 1_555
Na2 O18 2.407031 1_555
Na2 O31 2.451634 1_555
Na2 O5 2.467330 1_555
Na2 O8 2.483605 1_555
Na2 O30 2.696985 1_565
Na3 O11 2.321674 1_555
Na3 O16 2.407027 1_445
Na3 O30 2.451639 1_455
Na3 O7 2.467339 1_555
Na3 O9 2.483600 1_445
Na3 O28 2.696985 1_555
Na4 O8 2.321683 1_555
Na4 O19 2.407031 1_555
Na4 O29 2.451638 1_555
Na4 O4 2.467330 1_555
Na4 O10 2.483605 1_555
Na4 O31 2.696977 1_555
Na5 O10 2.321683 1_555
Na5 O17 2.407028 1_545
Na5 O28 2.451628 1_555
Na5 O6 2.467330 1_555
Na5 O11 2.483605 1_555
Na5 O29 2.696985 1_555
Na6 O13 2.321683 1_555
Na6 O22 2.407031 1_564
Na6 O27 2.451634 1_565
Na6 O1 2.467330 1_555
Na6 O12 2.483605 1_565
Na6 O26 2.696985 1_554
Na7 O15 2.321674 1_555
Na7 O20 2.407027 1_555
Na7 O26 2.451639 1_555
Na7 O3 2.467339 1_555
Na7 O13 2.483600 1_556
Na7 O24 2.696985 1_455
Na8 O12 2.321684 1_555
Na8 O23 2.407028 1_655
Na8 O25 2.451633 1_555
Na8 O0 2.467336 1_555
Na8 O14 2.483596 1_554
Na8 O27 2.696985 1_555
Na9 O14 2.321683 1_555
Na9 O21 2.407028 1_656
Na9 O24 2.451628 1_555
Na9 O2 2.467330 1_555
Na9 O15 2.483605 1_655
Na9 O25 2.696985 1_556
La0 O21 2.504216 1_545
La0 O16 2.504220 1_444
La0 O19 2.504221 1_555
La0 O22 2.504221 1_454
La0 O7 2.519931 1_554
La0 O4 2.519931 1_555
La0 O2 2.519931 1_444
La0 O1 2.519931 1_445
La1 O17 2.504216 1_555
La1 O20 2.504220 1_555
La1 O18 2.504221 1_555
La1 O23 2.504221 1_555
La1 O3 2.519931 1_555
La1 O5 2.519931 1_555
La1 O6 2.519931 1_565
La1 O0 2.519931 1_455
O0 W0 1.832011 1_555
O1 W1 1.832011 1_555
O2 W2 1.832011 1_555
O3 W3 1.832011 1_555
O4 W4 1.832011 1_554
O5 W5 1.832011 1_555
O6 W6 1.832011 1_555
O7 W7 1.832011 1_556
O8 W0 1.799638 1_555
O9 W1 1.799638 1_555
O10 W2 1.799638 1_555
O11 W3 1.799638 1_555
O12 W4 1.799638 1_554
O13 W5 1.799638 1_555
O14 W6 1.799638 1_555
O15 W7 1.799638 1_556
O16 W0 1.848038 1_555
O17 W1 1.848039 1_455
O18 W2 1.848030 1_555
O19 W3 1.848030 1_555
O20 W4 1.848038 1_565
O21 W5 1.848039 1_555
O22 W6 1.848030 1_555
O23 W7 1.848030 1_555
O24 W0 1.815693 1_555
O25 W1 1.815687 1_555
O26 W2 1.815687 1_555
O27 W3 1.815687 1_655
O28 W4 1.815693 1_555
O29 W5 1.815687 1_545
O30 W6 1.815687 1_555
O31 W7 1.815687 1_555
