# generated using pymatgen
data_NaPr(SeO4)2
_symmetry_space_group_name_H-M   'P 1'
_cell_length_a   6.71381700
_cell_length_b   7.24292501
_cell_length_c   7.47785643
_cell_angle_alpha   99.17660050
_cell_angle_beta   96.94749073
_cell_angle_gamma   89.78079713
_symmetry_Int_Tables_number   1
_chemical_formula_structural   NaPr(SeO4)2
_chemical_formula_sum   'Na2 Pr2 Se4 O16'
_cell_volume   356.29663205
_cell_formula_units_Z   2
loop_
 _symmetry_equiv_pos_site_id
 _symmetry_equiv_pos_as_xyz
  1  'x, y, z'
loop_
 _atom_site_type_symbol
 _atom_site_label
 _atom_site_symmetry_multiplicity
 _atom_site_fract_x
 _atom_site_fract_y
 _atom_site_fract_z
 _atom_site_occupancy
  Na  Na0  1  0.06782200  0.68969500  0.27573500  1
  Na  Na1  1  0.93217800  0.31030500  0.72426500  1
  Pr  Pr0  1  0.64374100  0.80642600  0.80199700  1
  Pr  Pr1  1  0.35625900  0.19357400  0.19800300  1
  Se  Se0  1  0.13321500  0.81440300  0.78452300  1
  Se  Se1  1  0.43162400  0.28512500  0.71139200  1
  Se  Se2  1  0.56837600  0.71487500  0.28860800  1
  Se  Se3  1  0.86678500  0.18559700  0.21547700  1
  O  O0  1  0.43170400  0.90687400  0.31710700  1
  O  O1  1  0.74493300  0.25998600  0.39340700  1
  O  O2  1  0.96551700  0.98333700  0.76157300  1
  O  O3  1  0.40515000  0.53450000  0.24086000  1
  O  O4  1  0.67652900  0.11165700  0.04913600  1
  O  O5  1  0.03448300  0.01666300  0.23842700  1
  O  O6  1  0.00842400  0.35149400  0.15618800  1
  O  O7  1  0.59485000  0.46550000  0.75914000  1
  O  O8  1  0.32347100  0.88834300  0.95086400  1
  O  O9  1  0.99157600  0.64850600  0.84381200  1
  O  O10  1  0.56829600  0.09312600  0.68289300  1
  O  O11  1  0.28807100  0.28764000  0.87974400  1
  O  O12  1  0.27850400  0.29488300  0.51935600  1
  O  O13  1  0.25506700  0.74001400  0.60659300  1
  O  O14  1  0.71192900  0.71236000  0.12025600  1
  O  O15  1  0.72149600  0.70511700  0.48064400  1
loop_
_geom_bond_atom_site_label_1
_geom_bond_atom_site_label_2
_geom_bond_distance
_geom_bond_site_symmetry_2
Na0 O5 2.434727 1_565
Na0 O6 2.486229 1_555
Na0 O14 2.544357 1_455
Na0 O3 2.547660 1_555
Na0 O13 2.607275 1_555
Na0 O0 2.868771 1_555
Na0 O15 2.927816 1_455
Na1 O2 2.434727 1_545
Na1 O9 2.486229 1_555
Na1 O11 2.544357 1_655
Na1 O7 2.547660 1_555
Na1 O1 2.607275 1_555
Na1 O10 2.868771 1_555
Na1 O12 2.927816 1_655
O0 Se2 1.662610 1_555
O0 Pr1 2.415485 1_565
O1 Se3 1.661686 1_555
O1 Pr1 2.835295 1_555
O2 Se0 1.674491 1_655
O2 Pr0 2.589023 1_555
O3 Se2 1.674133 1_555
O3 Pr1 2.456877 1_555
O4 Se3 1.695295 1_555
O4 Pr1 2.563865 1_555
O4 Pr0 2.636943 1_544
O5 Se3 1.674491 1_455
O5 Pr1 2.589023 1_555
O6 Se3 1.680861 1_455
O6 Pr1 2.603204 1_555
O7 Se1 1.674133 1_555
O7 Pr0 2.456877 1_555
O8 Se0 1.695295 1_555
O8 Pr0 2.563865 1_555
O8 Pr1 2.636943 1_566
O9 Se0 1.680861 1_655
O9 Pr0 2.603204 1_555
O10 Se1 1.662610 1_555
O10 Pr0 2.415485 1_545
O11 Se1 1.673367 1_555
O11 Pr1 2.566881 1_556
O12 Se1 1.672916 1_555
O12 Pr1 2.514685 1_555
O13 Se0 1.661686 1_555
O13 Pr0 2.835295 1_555
O14 Se2 1.673367 1_555
O14 Pr0 2.566881 1_554
O15 Se2 1.672916 1_555
O15 Pr0 2.514685 1_555
