# generated using pymatgen
data_Sr2LaTa3O11
_symmetry_space_group_name_H-M   'P 1'
_cell_length_a   11.46003681
_cell_length_b   11.46003681
_cell_length_c   11.46003681
_cell_angle_alpha   159.99589298
_cell_angle_beta   150.90044617
_cell_angle_gamma   35.56619154
_symmetry_Int_Tables_number   1
_chemical_formula_structural   Sr2LaTa3O11
_chemical_formula_sum   'Sr2 La1 Ta3 O11'
_cell_volume   250.13218057
_cell_formula_units_Z   1
loop_
 _symmetry_equiv_pos_site_id
 _symmetry_equiv_pos_as_xyz
  1  'x, y, z'
loop_
 _atom_site_type_symbol
 _atom_site_label
 _atom_site_symmetry_multiplicity
 _atom_site_fract_x
 _atom_site_fract_y
 _atom_site_fract_z
 _atom_site_occupancy
  Sr  Sr0  1  0.20484000  0.20484000  0.00000000  1
  Sr  Sr1  1  0.79516000  0.79516000  0.00000000  1
  La  La0  1  0.50000000  0.00000000  0.50000000  1
  Ta  Ta0  1  0.63504500  0.63504500  0.00000000  1
  Ta  Ta1  1  0.36495500  0.36495500  0.00000000  1
  Ta  Ta2  1  0.00000000  0.50000000  0.50000000  1
  O  O0  1  0.32305700  0.55946200  0.76359400  1
  O  O1  1  0.79586800  0.55946200  0.23640600  1
  O  O2  1  0.06788800  0.30539400  0.76249400  1
  O  O3  1  0.45710000  0.69460600  0.76249400  1
  O  O4  1  0.67694300  0.44053800  0.23640600  1
  O  O5  1  0.20413200  0.44053800  0.76359400  1
  O  O6  1  0.00000000  0.00000000  0.00000000  1
  O  O7  1  0.62014300  0.12014300  0.50000000  1
  O  O8  1  0.37985700  0.87985700  0.50000000  1
  O  O9  1  0.93211200  0.69460600  0.23750600  1
  O  O10  1  0.54290000  0.30539400  0.23750600  1
loop_
_geom_bond_atom_site_label_1
_geom_bond_atom_site_label_2
_geom_bond_distance
_geom_bond_site_symmetry_2
La0 O8 2.622114 1_545
La0 O7 2.622114 1_555
La0 O1 2.738407 1_556
La0 O5 2.738407 1_555
La0 O1 2.738407 1_545
La0 O5 2.738407 1_544
La0 O0 2.738409 1_555
La0 O4 2.738409 1_545
La0 O0 2.738412 1_544
La0 O4 2.738412 1_556
La0 O6 2.879002 1_656
La0 O6 2.879002 1_555
O0 Ta2 1.996959 1_555
O0 Ta0 2.138704 1_556
O1 Ta2 1.996950 1_655
O1 Ta0 2.138715 1_555
O2 Ta1 1.886797 1_556
O2 Sr1 2.509205 1_456
O2 Sr1 2.509205 1_445
O2 Sr0 2.585812 1_556
O3 Ta0 1.886797 1_556
O3 Sr0 2.509205 1_566
O3 Sr0 2.509205 1_555
O3 Sr1 2.585812 1_556
O4 Ta2 1.996959 1_655
O4 Ta1 2.138704 1_555
O5 Ta2 1.996950 1_555
O5 Ta1 2.138715 1_556
O6 Ta2 1.990419 1_544
O6 Ta2 1.990419 1_555
O7 Ta0 2.016816 1_556
O7 Ta0 2.016816 1_545
O8 Ta1 2.016816 1_555
O8 Ta1 2.016816 1_566
O9 Ta0 1.886797 1_555
O9 Sr0 2.509205 1_655
O9 Sr0 2.509205 1_666
O9 Sr1 2.585812 1_555
O10 Ta1 1.886797 1_555
O10 Sr1 2.509205 1_556
O10 Sr1 2.509205 1_545
O10 Sr0 2.585812 1_555
