# generated using pymatgen
data_BaV(AsO4)2
_symmetry_space_group_name_H-M   'P 1'
_cell_length_a   14.89803000
_cell_length_b   6.90667500
_cell_length_c   7.76216009
_cell_angle_alpha   64.90821467
_cell_angle_beta   90.00000000
_cell_angle_gamma   90.00000000
_symmetry_Int_Tables_number   1
_chemical_formula_structural   BaV(AsO4)2
_chemical_formula_sum   'Ba4 V4 As8 O32'
_cell_volume   723.32099828
_cell_formula_units_Z   4
loop_
 _symmetry_equiv_pos_site_id
 _symmetry_equiv_pos_as_xyz
  1  'x, y, z'
loop_
 _atom_site_type_symbol
 _atom_site_label
 _atom_site_symmetry_multiplicity
 _atom_site_fract_x
 _atom_site_fract_y
 _atom_site_fract_z
 _atom_site_occupancy
  Ba  Ba0  1  0.87740200  0.29152800  0.67546500  1
  Ba  Ba1  1  0.37740200  0.20847200  0.32453500  1
  Ba  Ba2  1  0.12259800  0.70847200  0.32453500  1
  Ba  Ba3  1  0.62259800  0.79152800  0.67546500  1
  V  V0  1  0.15017500  0.30365400  0.97699000  1
  V  V1  1  0.65017500  0.19634600  0.02301000  1
  V  V2  1  0.34982500  0.80365400  0.97699000  1
  V  V3  1  0.84982500  0.69634600  0.02301000  1
  As  As0  1  0.81855900  0.89700600  0.33179800  1
  As  As1  1  0.31855900  0.60299400  0.66820200  1
  As  As2  1  0.96457800  0.27589400  0.22086500  1
  As  As3  1  0.03542200  0.72410600  0.77913500  1
  As  As4  1  0.46457800  0.22410600  0.77913500  1
  As  As5  1  0.68144100  0.39700600  0.33179800  1
  As  As6  1  0.18144100  0.10299400  0.66820200  1
  As  As7  1  0.53542200  0.77589400  0.22086500  1
  O  O0  1  0.98845100  0.41312600  0.35069800  1
  O  O1  1  0.04590400  0.14630700  0.15313000  1
  O  O2  1  0.69676400  0.19039900  0.54330900  1
  O  O3  1  0.78315800  0.52243700  0.26176000  1
  O  O4  1  0.60764100  0.57285300  0.38572100  1
  O  O5  1  0.71684200  0.02243700  0.26176000  1
  O  O6  1  0.23199100  0.19273700  0.12900300  1
  O  O7  1  0.87819100  0.88720000  0.14370800  1
  O  O8  1  0.39235900  0.42714700  0.61427900  1
  O  O9  1  0.89235900  0.07285300  0.38572100  1
  O  O10  1  0.62180900  0.38720000  0.14370800  1
  O  O11  1  0.19676400  0.30960100  0.45669100  1
  O  O12  1  0.10764100  0.92714700  0.61427900  1
  O  O13  1  0.12180900  0.11280000  0.85629200  1
  O  O14  1  0.76800900  0.80726300  0.87099700  1
  O  O15  1  0.45409600  0.64630700  0.15313000  1
  O  O16  1  0.90212900  0.42930300  0.02116200  1
  O  O17  1  0.28315800  0.97756300  0.73824000  1
  O  O18  1  0.21684200  0.47756300  0.73824000  1
  O  O19  1  0.73199100  0.30726300  0.87099700  1
  O  O20  1  0.54590400  0.35369300  0.84687000  1
  O  O21  1  0.48845100  0.08687400  0.64930200  1
  O  O22  1  0.40212900  0.07069700  0.97883800  1
  O  O23  1  0.30323600  0.80960100  0.45669100  1
  O  O24  1  0.80323600  0.69039900  0.54330900  1
  O  O25  1  0.37819100  0.61280000  0.85629200  1
  O  O26  1  0.09787100  0.57069700  0.97883800  1
  O  O27  1  0.26800900  0.69273700  0.12900300  1
  O  O28  1  0.95409600  0.85369300  0.84687000  1
  O  O29  1  0.01154900  0.58687400  0.64930200  1
  O  O30  1  0.59787100  0.92930300  0.02116200  1
  O  O31  1  0.51154900  0.91312600  0.35069800  1
loop_
_geom_bond_atom_site_label_1
_geom_bond_atom_site_label_2
_geom_bond_distance
_geom_bond_site_symmetry_2
Ba0 O19 2.673629 1_555
Ba0 O24 2.732334 1_555
Ba0 O29 2.800897 1_655
Ba0 O0 2.828724 1_555
Ba0 O28 2.967795 1_545
Ba0 O2 3.064332 1_555
Ba0 O9 3.204655 1_555
Ba0 O16 3.226022 1_556
Ba0 O3 3.237788 1_555
Ba0 O14 3.441063 1_545
Ba0 O7 3.521401 1_546
Ba1 O6 2.673629 1_555
Ba1 O23 2.732334 1_545
Ba1 O31 2.800897 1_545
Ba1 O21 2.828724 1_555
Ba1 O15 2.967795 1_555
Ba1 O11 3.064332 1_555
Ba1 O8 3.204655 1_555
Ba1 O22 3.226022 1_554
Ba1 O17 3.237788 1_545
Ba1 O27 3.441063 1_555
Ba1 O25 3.521401 1_554
Ba2 O27 2.673629 1_555
Ba2 O11 2.732334 1_555
Ba2 O0 2.800897 1_455
Ba2 O29 2.828724 1_555
Ba2 O1 2.967795 1_565
Ba2 O23 3.064332 1_555
Ba2 O12 3.204655 1_555
Ba2 O26 3.226022 1_554
Ba2 O18 3.237788 1_555
Ba2 O6 3.441063 1_565
Ba2 O13 3.521401 1_564
Ba3 O14 2.673629 1_555
Ba3 O2 2.732334 1_565
Ba3 O21 2.800897 1_565
Ba3 O31 2.828724 1_555
Ba3 O20 2.967795 1_555
Ba3 O24 3.064332 1_555
Ba3 O4 3.204655 1_555
Ba3 O30 3.226022 1_556
Ba3 O5 3.237788 1_565
Ba3 O19 3.441063 1_555
Ba3 O10 3.521401 1_556
As0 O24 1.672365 1_555
As0 O5 1.715513 1_565
As0 O7 1.734722 1_555
As0 O9 1.813902 1_565
As1 O23 1.672365 1_555
As1 O18 1.715513 1_555
As1 O25 1.734722 1_555
As1 O8 1.813902 1_555
As2 O0 1.688378 1_555
As2 O1 1.715973 1_655
As2 O16 1.731503 1_555
As2 O9 1.799905 1_555
As3 O29 1.688378 1_555
As3 O28 1.715973 1_455
As3 O26 1.731503 1_555
As3 O12 1.799905 1_555
As4 O21 1.688378 1_555
As4 O20 1.715973 1_555
As4 O22 1.731503 1_555
As4 O8 1.799905 1_555
As5 O2 1.672365 1_555
As5 O3 1.715513 1_555
As5 O10 1.734722 1_555
As5 O4 1.813902 1_555
As6 O11 1.672365 1_555
As6 O17 1.715513 1_545
As6 O13 1.734722 1_555
As6 O12 1.813902 1_545
As7 O31 1.688378 1_555
As7 O15 1.715973 1_555
As7 O30 1.731503 1_555
As7 O4 1.799905 1_555
O1 V0 2.050192 1_554
O3 V3 1.993907 1_555
O5 V1 1.993907 1_555
O6 V0 1.642620 1_554
O7 V3 1.959926 1_555
O10 V1 1.959926 1_555
O13 V0 1.959926 1_555
O14 V3 1.642620 1_556
O15 V2 2.050192 1_554
O16 V3 2.007878 1_555
O17 V2 1.993907 1_555
O18 V0 1.993907 1_555
O19 V1 1.642620 1_556
O20 V1 2.050192 1_556
O22 V2 2.007878 1_545
O25 V2 1.959926 1_555
O26 V0 2.007878 1_555
O27 V2 1.642620 1_554
O28 V3 2.050192 1_556
O30 V1 2.007878 1_565
