# generated using pymatgen
data_Pu3Zn22
_symmetry_space_group_name_H-M   'P 1'
_cell_length_a   12.31930102
_cell_length_b   12.31930102
_cell_length_c   12.31930102
_cell_angle_alpha   137.80970136
_cell_angle_beta   137.80970136
_cell_angle_gamma   61.19457504
_symmetry_Int_Tables_number   1
_chemical_formula_structural   Pu3Zn22
_chemical_formula_sum   'Pu6 Zn44'
_cell_volume   833.89249663
_cell_formula_units_Z   2
loop_
 _symmetry_equiv_pos_site_id
 _symmetry_equiv_pos_as_xyz
  1  'x, y, z'
loop_
 _atom_site_type_symbol
 _atom_site_label
 _atom_site_symmetry_multiplicity
 _atom_site_fract_x
 _atom_site_fract_y
 _atom_site_fract_z
 _atom_site_occupancy
  Pu  Pu0  1  0.75000000  0.25000000  0.50000000  1
  Pu  Pu1  1  0.37812300  0.37812300  0.00000000  1
  Pu  Pu2  1  0.12812300  0.62812300  0.50000000  1
  Pu  Pu3  1  0.37187700  0.87187700  0.50000000  1
  Pu  Pu4  1  0.62187700  0.62187700  0.00000000  1
  Pu  Pu5  1  0.00000000  0.00000000  0.00000000  1
  Zn  Zn0  1  0.13586100  0.28999700  0.15413600  1
  Zn  Zn1  1  0.13586100  0.98172600  0.84586400  1
  Zn  Zn2  1  0.73172600  0.38586100  0.34586400  1
  Zn  Zn3  1  0.09336100  0.24331000  0.85005200  1
  Zn  Zn4  1  0.25050300  0.96925800  0.71875500  1
  Zn  Zn5  1  0.87500000  0.12500000  0.25000000  1
  Zn  Zn6  1  0.99331000  0.34336100  0.35005200  1
  Zn  Zn7  1  0.61413900  0.96000300  0.34586400  1
  Zn  Zn8  1  0.91576500  0.44521500  0.98919900  1
  Zn  Zn9  1  0.67656500  0.16576500  0.97054900  1
  Zn  Zn10  1  0.29398400  0.32343500  0.48919900  1
  Zn  Zn11  1  0.19521500  0.16576500  0.48919900  1
  Zn  Zn12  1  0.83423500  0.80478500  0.51080100  1
  Zn  Zn13  1  0.07343500  0.54398400  0.98919900  1
  Zn  Zn14  1  0.65663900  0.00669000  0.64994800  1
  Zn  Zn15  1  0.49949700  0.71825200  0.21875500  1
  Zn  Zn16  1  0.03074200  0.74949700  0.28124500  1
  Zn  Zn17  1  0.35674200  0.00669000  0.35005200  1
  Zn  Zn18  1  0.07343500  0.08423500  0.52945100  1
  Zn  Zn19  1  0.75669000  0.60674200  0.85005200  1
  Zn  Zn20  1  0.99331000  0.64325800  0.64994800  1
  Zn  Zn21  1  0.39325800  0.24331000  0.14994800  1
  Zn  Zn22  1  0.28174800  0.50050300  0.78124500  1
  Zn  Zn23  1  0.45601600  0.92656500  0.01080100  1
  Zn  Zn24  1  0.45601600  0.44521500  0.52945100  1
  Zn  Zn25  1  0.29398400  0.80478500  0.97054900  1
  Zn  Zn26  1  0.49949700  0.28074200  0.78124500  1
  Zn  Zn27  1  0.75669000  0.90663900  0.14994800  1
  Zn  Zn28  1  0.25050300  0.53174800  0.28124500  1
  Zn  Zn29  1  0.91576500  0.92656500  0.47054900  1
  Zn  Zn30  1  0.46825200  0.74949700  0.71875500  1
  Zn  Zn31  1  0.55478500  0.08423500  0.01080100  1
  Zn  Zn32  1  0.19521500  0.70601600  0.02945100  1
  Zn  Zn33  1  0.71000300  0.86413900  0.84586400  1
  Zn  Zn34  1  0.71925800  0.50050300  0.21875500  1
  Zn  Zn35  1  0.55478500  0.54398400  0.47054900  1
  Zn  Zn36  1  0.87500000  0.12500000  0.75000000  1
  Zn  Zn37  1  0.03999700  0.38586100  0.65413600  1
  Zn  Zn38  1  0.01827400  0.86413900  0.15413600  1
  Zn  Zn39  1  0.67656500  0.70601600  0.51080100  1
  Zn  Zn40  1  0.83423500  0.32343500  0.02945100  1
  Zn  Zn41  1  0.37500000  0.12500000  0.25000000  1
  Zn  Zn42  1  0.87500000  0.62500000  0.75000000  1
  Zn  Zn43  1  0.61413900  0.26827400  0.65413600  1
loop_
_geom_bond_atom_site_label_1
_geom_bond_atom_site_label_2
_geom_bond_distance
_geom_bond_site_symmetry_2
Pu0 Zn3 3.107453 1_655
Pu0 Zn27 3.107453 1_545
Pu0 Zn19 3.107457 1_555
Pu0 Zn21 3.107457 1_555
Pu0 Zn37 3.189119 1_655
Pu0 Zn7 3.189119 1_545
Pu0 Zn43 3.189127 1_555
Pu0 Zn2 3.189127 1_555
Pu0 Zn31 3.360433 1_555
Pu0 Zn8 3.360433 1_555
Pu0 Zn13 3.360438 1_655
Pu0 Zn24 3.360438 1_555
Pu0 Zn35 3.360438 1_555
Pu0 Zn23 3.360438 1_545
Pu0 Zn29 3.360439 1_545
Pu0 Zn18 3.360439 1_655
Pu0 Zn5 3.455835 1_555
Pu0 Zn42 3.455835 1_555
Pu0 Zn36 3.455835 1_555
Pu0 Zn41 3.455835 1_555
Pu1 Zn37 3.071465 1_554
Pu1 Zn2 3.071470 1_555
Pu1 Zn21 3.153212 1_555
Pu1 Zn3 3.153223 1_554
Pu1 Zn26 3.223230 1_554
Pu1 Zn15 3.223230 1_555
Pu1 Zn22 3.240295 1_554
Pu1 Zn34 3.240295 1_555
Pu1 Zn13 3.248637 1_554
Pu1 Zn35 3.248637 1_555
Pu1 Zn18 3.248641 1_554
Pu1 Zn31 3.248647 1_555
Pu1 Zn9 3.434268 1_554
Pu1 Zn39 3.434270 1_555
Pu1 Zn32 3.434270 1_555
Pu1 Zn11 3.434274 1_554
Pu2 Zn0 3.071465 1_555
Pu2 Zn1 3.071470 1_555
Pu2 Zn20 3.153212 1_455
Pu2 Zn6 3.153223 1_455
Pu2 Zn30 3.223230 1_555
Pu2 Zn16 3.223230 1_555
Pu2 Zn4 3.240295 1_555
Pu2 Zn28 3.240295 1_555
Pu2 Zn10 3.248637 1_555
Pu2 Zn25 3.248637 1_555
Pu2 Zn40 3.248641 1_455
Pu2 Zn12 3.248647 1_455
Pu2 Zn29 3.434268 1_455
Pu2 Zn23 3.434270 1_556
Pu2 Zn24 3.434270 1_555
Pu2 Zn8 3.434274 1_454
Pu3 Zn33 3.071465 1_555
Pu3 Zn38 3.071470 1_555
Pu3 Zn17 3.153212 1_565
Pu3 Zn14 3.153223 1_565
Pu3 Zn4 3.223230 1_555
Pu3 Zn28 3.223230 1_555
Pu3 Zn16 3.240295 1_555
Pu3 Zn30 3.240295 1_555
Pu3 Zn39 3.248637 1_555
Pu3 Zn32 3.248637 1_555
Pu3 Zn9 3.248641 1_565
Pu3 Zn11 3.248647 1_565
Pu3 Zn18 3.434268 1_565
Pu3 Zn13 3.434270 1_554
Pu3 Zn35 3.434270 1_555
Pu3 Zn31 3.434274 1_566
Pu4 Zn7 3.071465 1_555
Pu4 Zn43 3.071470 1_554
Pu4 Zn19 3.153212 1_554
Pu4 Zn27 3.153223 1_555
Pu4 Zn34 3.223230 1_555
Pu4 Zn22 3.223230 1_554
Pu4 Zn15 3.240295 1_555
Pu4 Zn26 3.240295 1_554
Pu4 Zn24 3.248637 1_554
Pu4 Zn23 3.248637 1_555
Pu4 Zn29 3.248641 1_555
Pu4 Zn8 3.248647 1_554
Pu4 Zn40 3.434268 1_555
Pu4 Zn10 3.434270 1_554
Pu4 Zn25 3.434270 1_554
Pu4 Zn12 3.434274 1_555
Pu5 Zn6 3.107453 1_455
Pu5 Zn14 3.107453 1_454
Pu5 Zn20 3.107457 1_444
Pu5 Zn17 3.107457 1_555
Pu5 Zn0 3.189119 1_555
Pu5 Zn33 3.189119 1_444
Pu5 Zn1 3.189127 1_544
Pu5 Zn38 3.189127 1_545
Pu5 Zn12 3.360433 1_444
Pu5 Zn11 3.360433 1_555
Pu5 Zn25 3.360438 1_544
Pu5 Zn32 3.360438 1_545
Pu5 Zn10 3.360438 1_555
Pu5 Zn39 3.360438 1_444
Pu5 Zn9 3.360439 1_454
Pu5 Zn40 3.360439 1_455
Pu5 Zn42 3.455835 1_444
Pu5 Zn5 3.455835 1_455
Pu5 Zn36 3.455835 1_454
Pu5 Zn41 3.455835 1_555
Zn0 Zn36 2.614633 1_454
Zn0 Zn41 2.614633 1_555
Zn0 Zn28 2.679915 1_555
Zn0 Zn10 2.709455 1_555
Zn0 Zn40 2.709466 1_455
Zn0 Zn1 2.733712 1_544
Zn0 Zn8 2.781011 1_454
Zn0 Zn24 2.781012 1_555
Zn0 Zn3 2.971410 1_554
Zn0 Zn21 2.971418 1_555
Zn1 Zn36 2.614628 1_465
Zn1 Zn41 2.614635 1_566
Zn1 Zn4 2.679907 1_555
Zn1 Zn25 2.709466 1_555
Zn1 Zn12 2.709467 1_455
Zn1 Zn29 2.781007 1_455
Zn1 Zn23 2.781013 1_556
Zn1 Zn3 2.971401 1_565
Zn1 Zn21 2.971410 1_566
Zn2 Zn5 2.614628 1_555
Zn2 Zn42 2.614635 1_555
Zn2 Zn34 2.679907 1_555
Zn2 Zn35 2.709466 1_555
Zn2 Zn31 2.709467 1_555
Zn2 Zn37 2.733712 1_655
Zn2 Zn9 2.781007 1_554
Zn2 Zn39 2.781013 1_555
Zn2 Zn6 2.971401 1_555
Zn2 Zn20 2.971410 1_555
Zn3 Zn36 2.661366 1_455
Zn3 Zn8 2.811948 1_455
Zn3 Zn4 2.830498 1_545
Zn5 Zn9 2.643473 1_554
Zn5 Zn6 2.661366 1_555
Zn6 Zn9 2.811963 1_554
Zn10 Zn22 2.565621 1_555
Zn10 Zn24 2.607269 1_555
Zn10 Zn41 2.643464 1_555
Zn10 Zn6 2.656571 1_455
Zn10 Zn11 2.744256 1_555
Zn10 Zn26 2.766532 1_555
Zn10 Zn43 2.781013 1_555
Zn10 Zn17 2.811968 1_555
Zn11 Zn26 2.565618 1_555
Zn11 Zn18 2.607289 1_555
Zn11 Zn5 2.643465 1_455
Zn11 Zn17 2.656568 1_555
Zn11 Zn38 2.709467 1_545
Zn11 Zn22 2.766523 1_555
Zn11 Zn37 2.781011 1_555
Zn11 Zn6 2.811948 1_455
Zn12 Zn34 2.565618 1_555
Zn12 Zn29 2.607289 1_555
Zn12 Zn36 2.643465 1_565
Zn12 Zn20 2.656568 1_555
Zn12 Zn39 2.744256 1_555
Zn12 Zn15 2.766523 1_555
Zn12 Zn7 2.781011 1_555
Zn12 Zn14 2.811948 1_565
Zn13 Zn28 2.565621 1_556
Zn13 Zn32 2.607269 1_556
Zn13 Zn42 2.643464 1_455
Zn13 Zn3 2.656571 1_555
Zn13 Zn37 2.709455 1_555
Zn13 Zn8 2.744256 1_455
Zn13 Zn16 2.766532 1_556
Zn13 Zn38 2.781013 1_556
Zn13 Zn19 2.811968 1_455
Zn14 Zn39 2.656571 1_545
Zn14 Zn9 2.656574 1_555
Zn14 Zn17 2.659444 1_555
Zn14 Zn36 2.661366 1_555
Zn14 Zn40 2.811963 1_556
Zn14 Zn15 2.830491 1_545
Zn14 Zn26 2.830498 1_555
Zn14 Zn43 2.971401 1_555
Zn14 Zn7 2.971410 1_545
Zn15 Zn32 2.565621 1_555
Zn15 Zn39 2.565621 1_555
Zn15 Zn7 2.679915 1_555
Zn15 Zn22 2.743504 1_554
Zn15 Zn34 2.743504 1_555
Zn15 Zn25 2.766532 1_554
Zn15 Zn17 2.830492 1_565
Zn16 Zn29 2.565611 1_455
Zn16 Zn8 2.565618 1_454
Zn16 Zn38 2.679907 1_555
Zn16 Zn28 2.743504 1_555
Zn16 Zn4 2.743504 1_555
Zn16 Zn18 2.766523 1_565
Zn16 Zn19 2.830492 1_454
Zn16 Zn27 2.830498 1_455
Zn17 Zn32 2.656569 1_545
Zn17 Zn41 2.661377 1_555
Zn17 Zn25 2.811968 1_544
Zn17 Zn26 2.830492 1_555
Zn17 Zn43 2.971410 1_555
Zn17 Zn7 2.971418 1_545
Zn18 Zn4 2.565611 1_545
Zn18 Zn5 2.643473 1_455
Zn18 Zn3 2.656574 1_555
Zn18 Zn37 2.709466 1_555
Zn18 Zn29 2.744247 1_445
Zn18 Zn38 2.781007 1_545
Zn18 Zn27 2.811963 1_445
Zn19 Zn8 2.656568 1_555
Zn19 Zn24 2.656569 1_555
Zn19 Zn27 2.659444 1_556
Zn19 Zn42 2.661377 1_555
Zn19 Zn35 2.811968 1_555
Zn19 Zn30 2.830492 1_555
Zn19 Zn38 2.971410 1_656
Zn19 Zn33 2.971418 1_555
Zn20 Zn25 2.656569 1_655
Zn20 Zn6 2.659444 1_555
Zn20 Zn42 2.661377 1_555
Zn20 Zn32 2.811968 1_656
Zn20 Zn39 2.811968 1_555
Zn20 Zn22 2.830492 1_655
Zn20 Zn34 2.830492 1_555
Zn20 Zn37 2.971418 1_655
Zn21 Zn31 2.656568 1_555
Zn21 Zn35 2.656569 1_555
Zn21 Zn3 2.659444 1_554
Zn21 Zn41 2.661377 1_555
Zn21 Zn23 2.811968 1_545
Zn21 Zn24 2.811968 1_555
Zn21 Zn28 2.830492 1_555
Zn21 Zn4 2.830492 1_544
Zn22 Zn25 2.565621 1_555
Zn22 Zn37 2.679915 1_555
Zn22 Zn26 2.743504 1_555
Zn22 Zn32 2.766532 1_556
Zn22 Zn6 2.830491 1_455
Zn23 Zn30 2.565621 1_554
Zn23 Zn25 2.607269 1_554
Zn23 Zn41 2.643464 1_565
Zn23 Zn27 2.656571 1_555
Zn23 Zn7 2.709455 1_555
Zn23 Zn31 2.744256 1_565
Zn23 Zn4 2.766532 1_554
Zn24 Zn30 2.565621 1_555
Zn24 Zn41 2.643464 1_555
Zn24 Zn43 2.709466 1_555
Zn24 Zn35 2.744268 1_555
Zn24 Zn28 2.766532 1_555
Zn25 Zn41 2.643464 1_566
Zn25 Zn32 2.744268 1_556
Zn25 Zn7 2.781012 1_556
Zn26 Zn9 2.565611 1_555
Zn26 Zn43 2.679907 1_555
Zn26 Zn34 2.743504 1_556
Zn26 Zn40 2.766523 1_556
Zn27 Zn29 2.656574 1_555
Zn27 Zn5 2.661366 1_565
Zn27 Zn31 2.811948 1_565
Zn27 Zn30 2.830491 1_554
Zn27 Zn38 2.971401 1_655
Zn27 Zn33 2.971410 1_554
Zn28 Zn35 2.565621 1_555
Zn28 Zn30 2.743504 1_555
Zn28 Zn8 2.766523 1_454
Zn28 Zn3 2.830491 1_554
Zn29 Zn36 2.643473 1_565
Zn29 Zn7 2.709466 1_555
Zn29 Zn4 2.766523 1_655
Zn29 Zn3 2.811963 1_665
Zn30 Zn33 2.679915 1_555
Zn30 Zn4 2.743504 1_555
Zn30 Zn31 2.766523 1_566
Zn30 Zn35 2.766532 1_555
Zn31 Zn4 2.565618 1_544
Zn31 Zn9 2.607289 1_554
Zn31 Zn5 2.643465 1_555
Zn31 Zn33 2.781011 1_544
Zn32 Zn42 2.643464 1_454
Zn32 Zn38 2.709466 1_555
Zn32 Zn37 2.781012 1_554
Zn33 Zn5 2.614633 1_566
Zn33 Zn42 2.614633 1_555
Zn33 Zn39 2.709455 1_555
Zn33 Zn9 2.709466 1_565
Zn33 Zn38 2.733712 1_656
Zn33 Zn35 2.781012 1_555
Zn34 Zn40 2.565611 1_555
Zn34 Zn9 2.766523 1_554
Zn34 Zn39 2.766532 1_555
Zn34 Zn6 2.830498 1_555
Zn35 Zn39 2.607269 1_555
Zn35 Zn42 2.643464 1_555
Zn36 Zn43 2.614628 1_555
Zn36 Zn7 2.614633 1_545
Zn36 Zn8 2.643465 1_555
Zn36 Zn40 2.643473 1_556
Zn37 Zn5 2.614633 1_455
Zn37 Zn42 2.614633 1_455
Zn37 Zn6 2.971410 1_455
Zn38 Zn5 2.614628 1_465
Zn38 Zn42 2.614635 1_454
Zn39 Zn42 2.643464 1_555
Zn40 Zn8 2.607289 1_554
Zn40 Zn6 2.656574 1_555
Zn40 Zn9 2.744247 1_554
Zn40 Zn43 2.781007 1_554
Zn41 Zn7 2.614633 1_545
Zn41 Zn43 2.614635 1_555
Zn43 Zn8 2.709467 1_555
Zn43 Zn7 2.733712 1_545
