# generated using pymatgen
data_Yb5Ag3
_symmetry_space_group_name_H-M   'P 1'
_cell_length_a   9.11254462
_cell_length_b   9.11254462
_cell_length_c   9.11254462
_cell_angle_alpha   132.94554401
_cell_angle_beta   132.94554401
_cell_angle_gamma   68.73968060
_symmetry_Int_Tables_number   1
_chemical_formula_structural   Yb5Ag3
_chemical_formula_sum   'Yb10 Ag6'
_cell_volume   398.10458599
_cell_formula_units_Z   2
loop_
 _symmetry_equiv_pos_site_id
 _symmetry_equiv_pos_as_xyz
  1  'x, y, z'
loop_
 _atom_site_type_symbol
 _atom_site_label
 _atom_site_symmetry_multiplicity
 _atom_site_fract_x
 _atom_site_fract_y
 _atom_site_fract_z
 _atom_site_occupancy
  Yb  Yb0  1  0.81782882  0.98780121  0.50000000  1
  Yb  Yb1  1  0.68217118  0.18217118  0.16997139  1
  Yb  Yb2  1  0.51219879  0.68217118  0.50000000  1
  Yb  Yb3  1  0.01219879  0.51219879  0.83002861  1
  Yb  Yb4  1  0.00000000  0.00000000  0.00000000  1
  Yb  Yb5  1  0.48780121  0.31782882  0.50000000  1
  Yb  Yb6  1  0.31782882  0.81782882  0.83002861  1
  Yb  Yb7  1  0.18217118  0.01219879  0.50000000  1
  Yb  Yb8  1  0.98780121  0.48780121  0.16997139  1
  Yb  Yb9  1  0.50000000  0.50000000  0.00000000  1
  Ag  Ag0  1  0.13258487  0.36741513  0.50000000  1
  Ag  Ag1  1  0.25000000  0.25000000  0.00000000  1
  Ag  Ag2  1  0.86741513  0.63258487  0.50000000  1
  Ag  Ag3  1  0.75000000  0.75000000  0.00000000  1
  Ag  Ag4  1  0.63258487  0.13258487  0.76516974  1
  Ag  Ag5  1  0.36741513  0.86741513  0.23483026  1
loop_
_geom_bond_atom_site_label_1
_geom_bond_atom_site_label_2
_geom_bond_distance
_geom_bond_site_symmetry_2
Ag0 Ag2 2.728241 1_455
Ag0 Yb9 2.841725 1_556
Ag0 Yb4 2.841725 1_555
Ag0 Yb7 3.101796 1_555
Ag0 Yb5 3.101796 1_555
Ag0 Yb1 3.166674 1_455
Ag0 Yb6 3.166674 1_555
Ag0 Yb3 3.166685 1_555
Ag0 Yb8 3.166685 1_455
Ag1 Yb3 3.085113 1_554
Ag1 Yb8 3.085113 1_455
Ag1 Yb7 3.085118 1_554
Ag1 Yb2 3.085118 1_555
Ag1 Yb5 3.085118 1_555
Ag1 Yb0 3.085118 1_444
Ag1 Yb1 3.085120 1_555
Ag1 Yb6 3.085120 1_544
Ag2 Yb4 2.841725 1_666
Ag2 Yb9 2.841725 1_555
Ag2 Yb2 3.101796 1_555
Ag2 Yb0 3.101796 1_555
Ag2 Yb1 3.166674 1_555
Ag2 Yb6 3.166674 1_655
Ag2 Yb3 3.166685 1_655
Ag2 Yb8 3.166685 1_555
Ag3 Yb3 3.085113 1_654
Ag3 Yb8 3.085113 1_555
Ag3 Yb7 3.085118 1_665
Ag3 Yb2 3.085118 1_554
Ag3 Yb0 3.085118 1_555
Ag3 Yb5 3.085118 1_554
Ag3 Yb1 3.085120 1_565
Ag3 Yb6 3.085120 1_554
Ag4 Ag5 2.728241 1_545
Ag4 Yb4 2.841725 1_656
Ag4 Yb9 2.841725 1_556
Ag4 Yb1 3.101787 1_556
Ag4 Yb8 3.101799 1_556
Ag4 Yb2 3.166677 1_545
Ag4 Yb7 3.166677 1_555
Ag4 Yb5 3.166677 1_555
Ag4 Yb0 3.166677 1_545
Ag5 Yb4 2.841725 1_565
Ag5 Yb9 2.841725 1_555
Ag5 Yb6 3.101787 1_554
Ag5 Yb3 3.101799 1_554
Ag5 Yb5 3.166677 1_565
Ag5 Yb0 3.166677 1_555
Ag5 Yb2 3.166677 1_555
Ag5 Yb7 3.166677 1_565
