# generated using pymatgen
data_VBi2O5
_symmetry_space_group_name_H-M   'P 1'
_cell_length_a   11.26970933
_cell_length_b   11.26970933
_cell_length_c   5.46995500
_cell_angle_alpha   90.00000000
_cell_angle_beta   90.00000000
_cell_angle_gamma   94.31418871
_symmetry_Int_Tables_number   1
_chemical_formula_structural   VBi2O5
_chemical_formula_sum   'V6 Bi12 O30'
_cell_volume   692.75054893
_cell_formula_units_Z   6
loop_
 _symmetry_equiv_pos_site_id
 _symmetry_equiv_pos_as_xyz
  1  'x, y, z'
loop_
 _atom_site_type_symbol
 _atom_site_label
 _atom_site_symmetry_multiplicity
 _atom_site_fract_x
 _atom_site_fract_y
 _atom_site_fract_z
 _atom_site_occupancy
  V  V0  1  0.58307600  0.91727600  0.75000000  1
  V  V1  1  0.41692400  0.08272400  0.25000000  1
  V  V2  1  0.91727600  0.58307600  0.75000000  1
  V  V3  1  0.08272400  0.41692400  0.25000000  1
  V  V4  1  0.26625300  0.26625300  0.75000000  1
  V  V5  1  0.73374700  0.73374700  0.25000000  1
  Bi  Bi0  1  0.42424400  0.74920200  0.25000000  1
  Bi  Bi1  1  0.57575600  0.25079800  0.75000000  1
  Bi  Bi2  1  0.74920200  0.42424400  0.25000000  1
  Bi  Bi3  1  0.25079800  0.57575600  0.75000000  1
  Bi  Bi4  1  0.75900500  0.08510600  0.25000000  1
  Bi  Bi5  1  0.24099500  0.91489400  0.75000000  1
  Bi  Bi6  1  0.08510600  0.75900500  0.25000000  1
  Bi  Bi7  1  0.91489400  0.24099500  0.75000000  1
  Bi  Bi8  1  0.08568500  0.08568500  0.25000000  1
  Bi  Bi9  1  0.91431500  0.91431500  0.75000000  1
  Bi  Bi10  1  0.40202400  0.40202400  0.25000000  1
  Bi  Bi11  1  0.59797600  0.59797600  0.75000000  1
  O  O0  1  0.92069300  0.07930700  0.50000000  1
  O  O1  1  0.07930700  0.92069300  0.00000000  1
  O  O2  1  0.07930700  0.92069300  0.50000000  1
  O  O3  1  0.92069300  0.07930700  0.00000000  1
  O  O4  1  0.40950900  0.59049100  0.50000000  1
  O  O5  1  0.59049100  0.40950900  0.00000000  1
  O  O6  1  0.59049100  0.40950900  0.50000000  1
  O  O7  1  0.40950900  0.59049100  0.00000000  1
  O  O8  1  0.75812300  0.24187700  0.50000000  1
  O  O9  1  0.24187700  0.75812300  0.00000000  1
  O  O10  1  0.24187700  0.75812300  0.50000000  1
  O  O11  1  0.75812300  0.24187700  0.00000000  1
  O  O12  1  0.38899400  0.22252500  0.50138200  1
  O  O13  1  0.50000000  0.00000000  0.50000000  1
  O  O14  1  0.00000000  0.50000000  0.50000000  1
  O  O15  1  0.00000000  0.50000000  0.00000000  1
  O  O16  1  0.50000000  0.00000000  0.00000000  1
  O  O17  1  0.61100600  0.77747500  0.49861800  1
  O  O18  1  0.38899400  0.22252500  0.99861800  1
  O  O19  1  0.77747500  0.61100600  0.00138200  1
  O  O20  1  0.22252500  0.38899400  0.50138200  1
  O  O21  1  0.84533000  0.84533000  0.25000000  1
  O  O22  1  0.15467000  0.15467000  0.75000000  1
  O  O23  1  0.99380400  0.71865200  0.75000000  1
  O  O24  1  0.00619600  0.28134800  0.25000000  1
  O  O25  1  0.71865200  0.99380400  0.75000000  1
  O  O26  1  0.28134800  0.00619600  0.25000000  1
  O  O27  1  0.22252500  0.38899400  0.99861800  1
  O  O28  1  0.77747500  0.61100600  0.49861800  1
  O  O29  1  0.61100600  0.77747500  0.00138200  1
loop_
_geom_bond_atom_site_label_1
_geom_bond_atom_site_label_2
_geom_bond_distance
_geom_bond_site_symmetry_2
Bi0 O4 2.247688 1_555
Bi0 O7 2.247688 1_555
Bi0 O10 2.476926 1_555
Bi0 O9 2.476926 1_555
Bi0 O17 2.505997 1_555
Bi0 O29 2.505997 1_555
Bi1 O5 2.247688 1_556
Bi1 O6 2.247688 1_555
Bi1 O11 2.476926 1_556
Bi1 O8 2.476926 1_555
Bi1 O18 2.505997 1_555
Bi1 O12 2.505997 1_555
Bi2 O6 2.247688 1_555
Bi2 O5 2.247688 1_555
Bi2 O11 2.476926 1_555
Bi2 O8 2.476926 1_555
Bi2 O28 2.505997 1_555
Bi2 O19 2.505997 1_555
Bi3 O4 2.247688 1_555
Bi3 O7 2.247688 1_556
Bi3 O10 2.476926 1_555
Bi3 O9 2.476926 1_556
Bi3 O20 2.505997 1_555
Bi3 O27 2.505997 1_555
Bi4 O11 2.234775 1_555
Bi4 O8 2.234775 1_555
Bi4 O0 2.283099 1_555
Bi4 O3 2.283099 1_555
Bi5 O9 2.234775 1_556
Bi5 O10 2.234775 1_555
Bi5 O1 2.283099 1_556
Bi5 O2 2.283099 1_555
Bi6 O9 2.234775 1_555
Bi6 O10 2.234775 1_555
Bi6 O2 2.283099 1_555
Bi6 O1 2.283099 1_555
Bi7 O8 2.234775 1_555
Bi7 O11 2.234775 1_556
Bi7 O3 2.283099 1_556
Bi7 O0 2.283099 1_555
Bi8 O1 2.304885 1_545
Bi8 O3 2.304885 1_455
Bi8 O2 2.304885 1_545
Bi8 O0 2.304885 1_455
Bi8 O26 2.441719 1_555
Bi8 O24 2.441719 1_555
Bi9 O1 2.304885 1_656
Bi9 O2 2.304885 1_655
Bi9 O3 2.304885 1_566
Bi9 O0 2.304885 1_565
Bi9 O23 2.441719 1_555
Bi9 O25 2.441719 1_555
Bi10 O12 2.441262 1_555
Bi10 O20 2.441262 1_555
Bi10 O27 2.441262 1_554
Bi10 O18 2.441262 1_554
Bi10 O4 2.522187 1_555
Bi10 O6 2.522187 1_555
Bi10 O5 2.522187 1_555
Bi10 O7 2.522187 1_555
Bi11 O19 2.441262 1_556
Bi11 O29 2.441262 1_556
Bi11 O28 2.441262 1_555
Bi11 O17 2.441262 1_555
Bi11 O5 2.522187 1_556
Bi11 O6 2.522187 1_555
Bi11 O4 2.522187 1_555
Bi11 O7 2.522187 1_556
O12 V4 2.026873 1_555
O12 V1 2.132299 1_555
O13 V0 1.935725 1_545
O13 V1 1.935725 1_555
O14 V2 1.935725 1_455
O14 V3 1.935725 1_555
O15 V2 1.935725 1_454
O15 V3 1.935725 1_555
O16 V0 1.935725 1_544
O16 V1 1.935725 1_555
O17 V5 2.026873 1_555
O17 V0 2.132299 1_555
O18 V4 2.026873 1_555
O18 V1 2.132299 1_556
O19 V5 2.026873 1_555
O19 V2 2.132299 1_554
O20 V4 2.026873 1_555
O20 V3 2.132299 1_555
O21 V5 1.710187 1_555
O22 V4 1.710187 1_555
O23 V2 1.697070 1_555
O24 V3 1.697070 1_555
O25 V0 1.697070 1_555
O26 V1 1.697070 1_555
O27 V4 2.026873 1_555
O27 V3 2.132299 1_556
O28 V5 2.026873 1_555
O28 V2 2.132299 1_555
O29 V5 2.026873 1_555
O29 V0 2.132299 1_554
