# generated using pymatgen
data_Tl2CdGeTe4
_symmetry_space_group_name_H-M   'P 1'
_cell_length_a   7.07341712
_cell_length_b   7.07341712
_cell_length_c   7.07341712
_cell_angle_alpha   104.95391532
_cell_angle_beta   104.95391532
_cell_angle_gamma   118.94147096
_symmetry_Int_Tables_number   1
_chemical_formula_structural   Tl2CdGeTe4
_chemical_formula_sum   'Tl2 Cd1 Ge1 Te4'
_cell_volume   266.77328375
_cell_formula_units_Z   1
loop_
 _symmetry_equiv_pos_site_id
 _symmetry_equiv_pos_as_xyz
  1  'x, y, z'
loop_
 _atom_site_type_symbol
 _atom_site_label
 _atom_site_symmetry_multiplicity
 _atom_site_fract_x
 _atom_site_fract_y
 _atom_site_fract_z
 _atom_site_occupancy
  Tl  Tl0  1  0.00000000  0.50000000  0.50000000  1
  Tl  Tl1  1  0.50000000  0.00000000  0.50000000  1
  Cd  Cd0  1  0.50000000  0.50000000  0.00000000  1
  Ge  Ge0  1  0.00000000  0.00000000  0.00000000  1
  Te  Te0  1  0.60282100  0.94924500  0.00000000  1
  Te  Te1  1  0.94924500  0.60282100  0.00000000  1
  Te  Te2  1  0.05075500  0.05075500  0.65357600  1
  Te  Te3  1  0.39717900  0.39717900  0.34642400  1
loop_
_geom_bond_atom_site_label_1
_geom_bond_atom_site_label_2
_geom_bond_distance
_geom_bond_site_symmetry_2
Cd0 Te0 2.896539 1_555
Cd0 Te1 2.896539 1_555
Cd0 Te3 2.896539 1_555
Cd0 Te2 2.896539 1_554
Ge0 Te0 2.654340 1_445
Ge0 Te1 2.654340 1_445
Ge0 Te3 2.654340 1_555
Ge0 Te2 2.654340 1_554
