# generated using pymatgen
data_NdCo5
_symmetry_space_group_name_H-M   'P 1'
_cell_length_a   5.01739206
_cell_length_b   5.01739206
_cell_length_c   3.94166900
_cell_angle_alpha   90.00000000
_cell_angle_beta   90.00000000
_cell_angle_gamma   120.00000077
_symmetry_Int_Tables_number   1
_chemical_formula_structural   NdCo5
_chemical_formula_sum   'Nd1 Co5'
_cell_volume   85.93436185
_cell_formula_units_Z   1
loop_
 _symmetry_equiv_pos_site_id
 _symmetry_equiv_pos_as_xyz
  1  'x, y, z'
loop_
 _atom_site_type_symbol
 _atom_site_label
 _atom_site_symmetry_multiplicity
 _atom_site_fract_x
 _atom_site_fract_y
 _atom_site_fract_z
 _atom_site_occupancy
  Nd  Nd0  1  0.00000000  0.00000000  0.00000000  1
  Co  Co0  1  0.33333300  0.66666700  0.00000000  1
  Co  Co1  1  0.66666700  0.33333300  0.00000000  1
  Co  Co2  1  0.50000000  0.00000000  0.50000000  1
  Co  Co3  1  0.50000000  0.50000000  0.50000000  1
  Co  Co4  1  0.00000000  0.50000000  0.50000000  1
loop_
_geom_bond_atom_site_label_1
_geom_bond_atom_site_label_2
_geom_bond_distance
_geom_bond_site_symmetry_2
Co0 Co4 2.445820 1_555
Co0 Co2 2.445820 1_564
Co0 Co4 2.445820 1_554
Co0 Co2 2.445820 1_565
Co0 Co3 2.445823 1_555
Co0 Co3 2.445823 1_554
Co0 Nd0 2.896790 1_565
Co0 Nd0 2.896794 1_665
Co0 Nd0 2.896794 1_555
Co1 Co2 2.445820 1_554
Co1 Co4 2.445820 1_655
Co1 Co2 2.445820 1_555
Co1 Co4 2.445820 1_654
Co1 Co3 2.445823 1_555
Co1 Co3 2.445823 1_554
Co1 Nd0 2.896790 1_655
Co1 Nd0 2.896794 1_555
Co1 Nd0 2.896794 1_665
Co2 Co4 2.508696 1_655
Co2 Co4 2.508696 1_545
Co2 Co3 2.508696 1_545
Co2 Co3 2.508696 1_555
Co2 Nd0 3.190258 1_555
Co2 Nd0 3.190258 1_656
Co2 Nd0 3.190258 1_556
Co2 Nd0 3.190258 1_655
Co3 Co4 2.508696 1_655
Co3 Co4 2.508696 1_555
Co3 Nd0 3.190258 1_665
Co3 Nd0 3.190258 1_666
Co3 Nd0 3.190258 1_555
Co3 Nd0 3.190258 1_556
Co4 Nd0 3.190258 1_555
Co4 Nd0 3.190258 1_556
Co4 Nd0 3.190258 1_565
Co4 Nd0 3.190258 1_566
