# generated using pymatgen
data_Zr6Al7Cu16H9
_symmetry_space_group_name_H-M   'P 1'
_cell_length_a   8.55838914
_cell_length_b   8.55838914
_cell_length_c   8.55838914
_cell_angle_alpha   60.00000000
_cell_angle_beta   60.00000000
_cell_angle_gamma   60.00000000
_symmetry_Int_Tables_number   1
_chemical_formula_structural   Zr6Al7Cu16H9
_chemical_formula_sum   'Zr6 Al7 Cu16 H9'
_cell_volume   443.26260173
_cell_formula_units_Z   1
loop_
 _symmetry_equiv_pos_site_id
 _symmetry_equiv_pos_as_xyz
  1  'x, y, z'
loop_
 _atom_site_type_symbol
 _atom_site_label
 _atom_site_symmetry_multiplicity
 _atom_site_fract_x
 _atom_site_fract_y
 _atom_site_fract_z
 _atom_site_occupancy
  Zr  Zr0  1  0.20035500  0.79964500  0.20035500  1
  Zr  Zr1  1  0.20035500  0.79964500  0.79964500  1
  Zr  Zr2  1  0.79964500  0.20035500  0.20035500  1
  Zr  Zr3  1  0.79964500  0.79964500  0.20035500  1
  Zr  Zr4  1  0.20035500  0.20035500  0.79964500  1
  Zr  Zr5  1  0.79964500  0.20035500  0.79964500  1
  Al  Al0  1  0.00000000  0.50000000  0.00000000  1
  Al  Al1  1  0.50000000  0.00000000  0.00000000  1
  Al  Al2  1  0.00000000  0.50000000  0.50000000  1
  Al  Al3  1  0.50000000  0.00000000  0.50000000  1
  Al  Al4  1  0.00000000  0.00000000  0.50000000  1
  Al  Al5  1  0.50000000  0.50000000  0.00000000  1
  Al  Al6  1  0.50000000  0.50000000  0.50000000  1
  Cu  Cu0  1  0.17531600  0.17531600  0.17531600  1
  Cu  Cu1  1  0.52594900  0.82468400  0.82468400  1
  Cu  Cu2  1  0.82468400  0.52594900  0.82468400  1
  Cu  Cu3  1  0.82468400  0.82468400  0.52594900  1
  Cu  Cu4  1  0.17531600  0.47405100  0.17531600  1
  Cu  Cu5  1  0.17531600  0.17531600  0.47405100  1
  Cu  Cu6  1  0.47405100  0.17531600  0.17531600  1
  Cu  Cu7  1  0.82468400  0.82468400  0.82468400  1
  Cu  Cu8  1  0.38071200  0.38071200  0.38071200  1
  Cu  Cu9  1  0.14213600  0.61928800  0.61928800  1
  Cu  Cu10  1  0.61928800  0.14213600  0.61928800  1
  Cu  Cu11  1  0.61928800  0.61928800  0.14213600  1
  Cu  Cu12  1  0.38071200  0.85786400  0.38071200  1
  Cu  Cu13  1  0.38071200  0.38071200  0.85786400  1
  Cu  Cu14  1  0.85786400  0.38071200  0.38071200  1
  Cu  Cu15  1  0.61928800  0.61928800  0.61928800  1
  H  H0  1  0.00000000  0.00000000  0.00000000  1
  H  H1  1  0.09367400  0.09367400  0.09367400  1
  H  H2  1  0.28102300  0.90632600  0.90632600  1
  H  H3  1  0.90632600  0.28102300  0.90632600  1
  H  H4  1  0.90632600  0.90632600  0.28102300  1
  H  H5  1  0.09367400  0.71897700  0.09367400  1
  H  H6  1  0.09367400  0.09367400  0.71897700  1
  H  H7  1  0.71897700  0.09367400  0.09367400  1
  H  H8  1  0.90632600  0.90632600  0.90632600  1
loop_
_geom_bond_atom_site_label_1
_geom_bond_atom_site_label_2
_geom_bond_distance
_geom_bond_site_symmetry_2
Al0 Cu4 2.477235 1_555
Al0 Cu2 2.477235 1_454
Al0 Cu0 2.477239 1_555
Al0 Cu7 2.477239 1_454
Al0 Cu13 2.662770 1_554
Al0 Cu9 2.662770 1_554
Al0 Cu14 2.662770 1_455
Al0 Cu11 2.662770 1_455
Al1 Cu6 2.477235 1_555
Al1 Cu1 2.477235 1_544
Al1 Cu0 2.477239 1_555
Al1 Cu7 2.477239 1_544
Al1 Cu10 2.662770 1_554
Al1 Cu13 2.662770 1_554
Al1 Cu12 2.662770 1_545
Al1 Cu11 2.662770 1_545
Al2 Cu2 2.477242 1_455
Al2 Cu3 2.477242 1_455
Al2 Cu4 2.477242 1_555
Al2 Cu5 2.477242 1_555
Al2 Cu9 2.662770 1_555
Al2 Cu8 2.662770 1_555
Al2 Cu15 2.662770 1_455
Al2 Cu14 2.662770 1_455
Al3 Cu3 2.477242 1_545
Al3 Cu1 2.477242 1_545
Al3 Cu6 2.477242 1_555
Al3 Cu5 2.477242 1_555
Al3 Cu10 2.662770 1_555
Al3 Cu8 2.662770 1_555
Al3 Cu15 2.662770 1_545
Al3 Cu12 2.662770 1_545
Al4 Cu5 2.477235 1_555
Al4 Cu3 2.477235 1_445
Al4 Cu0 2.477239 1_555
Al4 Cu7 2.477239 1_445
Al4 Cu12 2.662770 1_545
Al4 Cu14 2.662770 1_455
Al4 Cu10 2.662770 1_455
Al4 Cu9 2.662770 1_545
Al5 Cu4 2.477242 1_555
Al5 Cu1 2.477242 1_554
Al5 Cu6 2.477242 1_555
Al5 Cu2 2.477242 1_554
Al5 Cu11 2.662770 1_555
Al5 Cu15 2.662770 1_554
Al5 Cu8 2.662770 1_555
Al5 Cu13 2.662770 1_554
Al6 Cu15 2.500716 1_555
Al6 Cu13 2.500716 1_555
Al6 Cu14 2.500716 1_555
Al6 Cu8 2.500716 1_555
Al6 Cu12 2.500716 1_555
Al6 Cu10 2.500716 1_555
Al6 Cu9 2.500716 1_555
Al6 Cu11 2.500716 1_555
Cu0 H1 1.711517 1_555
Cu0 Cu13 2.664555 1_554
Cu0 Cu12 2.664555 1_545
Cu0 Cu14 2.664555 1_455
Cu1 H2 1.711517 1_555
Cu1 Cu10 2.664551 1_565
Cu1 Cu11 2.664551 1_556
Cu1 Cu15 2.664558 1_555
Cu2 H3 1.711517 1_555
Cu2 Cu9 2.664551 1_655
Cu3 H4 1.711517 1_555
Cu3 Cu9 2.664551 1_655
Cu4 H5 1.711517 1_555
Cu4 Cu8 2.664558 1_555
Cu5 H6 1.711517 1_555
Cu5 Cu8 2.664558 1_555
Cu6 H7 1.711517 1_555
Cu6 Cu8 2.664558 1_555
Cu7 H8 1.711517 1_555
Cu7 Cu9 2.664555 1_655
Cu8 Cu9 2.887578 1_555
Cu8 Zr2 2.989020 1_555
Cu8 Zr0 2.989020 1_555
Cu8 Zr4 2.989020 1_555
Cu9 Zr1 2.989020 1_555
Cu9 Zr4 2.989020 1_555
Cu9 Zr0 2.989020 1_555
Cu10 Cu3 2.664551 1_545
Cu10 Cu7 2.664555 1_545
Cu10 Cu8 2.887578 1_555
Cu10 Cu14 2.887578 1_555
Cu10 Cu13 2.887578 1_555
Cu10 Zr5 2.989020 1_555
Cu10 Zr4 2.989020 1_555
Cu10 Zr2 2.989020 1_555
Cu11 Cu2 2.664551 1_554
Cu11 Cu7 2.664555 1_554
Cu11 Cu8 2.887578 1_555
Cu11 Cu14 2.887578 1_555
Cu11 Cu12 2.887578 1_555
Cu11 Zr3 2.989020 1_555
Cu11 Zr2 2.989020 1_555
Cu11 Zr0 2.989020 1_555
Cu12 Cu5 2.664551 1_565
Cu12 Cu6 2.664551 1_565
Cu12 Cu15 2.887578 1_555
Cu12 Cu9 2.887578 1_555
Cu12 Zr3 2.989020 1_555
Cu12 Zr1 2.989020 1_555
Cu12 Zr0 2.989020 1_555
Cu13 Cu6 2.664551 1_556
Cu13 Cu4 2.664551 1_556
Cu13 Cu15 2.887578 1_555
Cu13 Cu9 2.887578 1_555
Cu13 Zr5 2.989020 1_555
Cu13 Zr1 2.989020 1_555
Cu13 Zr4 2.989020 1_555
Cu14 Cu5 2.664551 1_655
Cu14 Cu4 2.664551 1_655
Cu14 Cu15 2.887578 1_555
Cu14 Zr3 2.989020 1_555
Cu14 Zr5 2.989020 1_555
Cu14 Zr2 2.989020 1_555
Cu15 Cu3 2.664558 1_555
Cu15 Cu2 2.664558 1_555
Cu15 Zr1 2.989020 1_555
Cu15 Zr5 2.989020 1_555
Cu15 Zr3 2.989020 1_555
H0 Zr4 2.424975 1_554
H0 Zr2 2.424975 1_455
H0 Zr0 2.424975 1_545
H0 Zr3 2.424975 1_445
H0 Zr1 2.424975 1_544
H0 Zr5 2.424975 1_454
H1 Zr2 2.058661 1_455
H1 Zr4 2.058661 1_554
H1 Zr0 2.058661 1_545
H2 Zr4 2.058660 1_565
H2 Zr0 2.058660 1_556
H2 Zr1 2.058667 1_555
H3 Zr4 2.058660 1_655
H3 Zr2 2.058660 1_556
H3 Zr5 2.058667 1_555
H4 Zr0 2.058660 1_655
H4 Zr2 2.058660 1_565
H4 Zr3 2.058667 1_555
H5 Zr3 2.058660 1_455
H5 Zr1 2.058660 1_554
H5 Zr0 2.058667 1_555
H6 Zr5 2.058660 1_455
H6 Zr1 2.058660 1_545
H6 Zr4 2.058667 1_555
H7 Zr3 2.058660 1_545
H7 Zr5 2.058660 1_554
H7 Zr2 2.058667 1_555
H8 Zr1 2.058661 1_655
H8 Zr5 2.058661 1_565
H8 Zr3 2.058661 1_556
