# generated using pymatgen
data_Dy2Hf2(MoO4)7
_symmetry_space_group_name_H-M   'P 1'
_cell_length_a   11.68564793
_cell_length_b   11.68564793
_cell_length_c   14.04043762
_cell_angle_alpha   69.56274600
_cell_angle_beta   69.56274600
_cell_angle_gamma   50.46471034
_symmetry_Int_Tables_number   1
_chemical_formula_structural   Dy2Hf2(MoO4)7
_chemical_formula_sum   'Dy4 Hf4 Mo14 O56'
_cell_volume   1364.06496585
_cell_formula_units_Z   2
loop_
 _symmetry_equiv_pos_site_id
 _symmetry_equiv_pos_as_xyz
  1  'x, y, z'
loop_
 _atom_site_type_symbol
 _atom_site_label
 _atom_site_symmetry_multiplicity
 _atom_site_fract_x
 _atom_site_fract_y
 _atom_site_fract_z
 _atom_site_occupancy
  Dy  Dy0  1  0.35217300  0.37565000  0.93603600  1
  Dy  Dy1  1  0.64782700  0.62435000  0.06396400  1
  Dy  Dy2  1  0.37565000  0.35217300  0.43603600  1
  Dy  Dy3  1  0.62435000  0.64782700  0.56396400  1
  Hf  Hf0  1  0.91782100  0.84814900  0.18797100  1
  Hf  Hf1  1  0.15185100  0.08217900  0.31202900  1
  Hf  Hf2  1  0.08217900  0.15185100  0.81202900  1
  Hf  Hf3  1  0.84814900  0.91782100  0.68797100  1
  Mo  Mo0  1  0.27456600  0.04399000  0.02345000  1
  Mo  Mo1  1  0.04399000  0.27456600  0.52345000  1
  Mo  Mo2  1  0.56725900  0.31162000  0.64657100  1
  Mo  Mo3  1  0.51357300  0.99883400  0.32921000  1
  Mo  Mo4  1  0.79421500  0.20578500  0.25000000  1
  Mo  Mo5  1  0.00116600  0.48642700  0.17079000  1
  Mo  Mo6  1  0.48642700  0.00116600  0.67079000  1
  Mo  Mo7  1  0.72543400  0.95601000  0.97655000  1
  Mo  Mo8  1  0.20578500  0.79421500  0.75000000  1
  Mo  Mo9  1  0.31162000  0.56725900  0.14657100  1
  Mo  Mo10  1  0.99883400  0.51357300  0.82921000  1
  Mo  Mo11  1  0.43274100  0.68838000  0.35342900  1
  Mo  Mo12  1  0.95601000  0.72543400  0.47655000  1
  Mo  Mo13  1  0.68838000  0.43274100  0.85342900  1
  O  O0  1  0.30118300  0.49144900  0.28075000  1
  O  O1  1  0.46854700  0.57396700  0.10286400  1
  O  O2  1  0.57396700  0.46854700  0.60286400  1
  O  O3  1  0.63192200  0.24514300  0.34404600  1
  O  O4  1  0.94082700  0.14337500  0.31540500  1
  O  O5  1  0.49144900  0.30118300  0.78075000  1
  O  O6  1  0.75485700  0.36807800  0.15595400  1
  O  O7  1  0.62669900  0.98501500  0.71533800  1
  O  O8  1  0.86975200  0.89400600  0.04485700  1
  O  O9  1  0.05303600  0.19782700  0.66014800  1
  O  O10  1  0.05917300  0.85662500  0.68459500  1
  O  O11  1  0.08140600  0.30570800  0.25840600  1
  O  O12  1  0.37330100  0.01498500  0.28466200  1
  O  O13  1  0.98501500  0.62669900  0.21533800  1
  O  O14  1  0.85662500  0.05917300  0.18459500  1
  O  O15  1  0.10599400  0.13024800  0.45514300  1
  O  O16  1  0.56755400  0.14199100  0.99415100  1
  O  O17  1  0.23750400  0.86111900  0.37331700  1
  O  O18  1  0.80217300  0.94696400  0.83985200  1
  O  O19  1  0.13024800  0.10599400  0.95514300  1
  O  O20  1  0.16678600  0.32892300  0.47263800  1
  O  O21  1  0.45803400  0.11559500  0.54760000  1
  O  O22  1  0.36807800  0.75485700  0.65595400  1
  O  O23  1  0.44804800  0.33386400  0.57950500  1
  O  O24  1  0.44486500  0.17975400  0.33832500  1
  O  O25  1  0.50855100  0.69881700  0.21925000  1
  O  O26  1  0.42603300  0.53145300  0.39713600  1
  O  O27  1  0.14337500  0.94082700  0.81540500  1
  O  O28  1  0.89400600  0.86975200  0.54485700  1
  O  O29  1  0.67107700  0.83321400  0.02736200  1
  O  O30  1  0.43244600  0.85800900  0.00584900  1
  O  O31  1  0.55513500  0.82024600  0.66167500  1
  O  O32  1  0.86111900  0.23750400  0.87331700  1
  O  O33  1  0.55195200  0.66613600  0.42049500  1
  O  O34  1  0.32892300  0.16678600  0.97263800  1
  O  O35  1  0.88440500  0.54196600  0.95240000  1
  O  O36  1  0.82024600  0.55513500  0.16167500  1
  O  O37  1  0.54196600  0.88440500  0.45240000  1
  O  O38  1  0.14199100  0.56755400  0.49415100  1
  O  O39  1  0.01498500  0.37330100  0.78466200  1
  O  O40  1  0.30570800  0.08140600  0.75840600  1
  O  O41  1  0.69429200  0.91859400  0.24159400  1
  O  O42  1  0.19782700  0.05303600  0.16014800  1
  O  O43  1  0.91859400  0.69429200  0.74159400  1
  O  O44  1  0.85800900  0.43244600  0.50584900  1
  O  O45  1  0.53145300  0.42603300  0.89713600  1
  O  O46  1  0.11559500  0.45803400  0.04760000  1
  O  O47  1  0.66613600  0.55195200  0.92049500  1
  O  O48  1  0.17975400  0.44486500  0.83832500  1
  O  O49  1  0.13888100  0.76249600  0.12668300  1
  O  O50  1  0.76249600  0.13888100  0.62668300  1
  O  O51  1  0.33386400  0.44804800  0.07950500  1
  O  O52  1  0.94696400  0.80217300  0.33985200  1
  O  O53  1  0.24514300  0.63192200  0.84404600  1
  O  O54  1  0.83321400  0.67107700  0.52736200  1
  O  O55  1  0.69881700  0.50855100  0.71925000  1
loop_
_geom_bond_atom_site_label_1
_geom_bond_atom_site_label_2
_geom_bond_distance
_geom_bond_site_symmetry_2
Dy0 O5 2.281124 1_555
Dy0 O51 2.340496 1_556
Dy0 O45 2.362336 1_555
Dy0 O16 2.363272 1_555
Dy0 O46 2.379883 1_556
Dy0 O48 2.382563 1_555
Dy0 O53 2.420580 1_555
Dy0 O34 2.483092 1_555
Dy1 O25 2.281124 1_555
Dy1 O47 2.340496 1_554
Dy1 O1 2.362336 1_555
Dy1 O30 2.363272 1_555
Dy1 O35 2.379883 1_554
Dy1 O36 2.382563 1_555
Dy1 O6 2.420580 1_555
Dy1 O29 2.483092 1_555
Dy2 O0 2.281124 1_555
Dy2 O23 2.340496 1_555
Dy2 O26 2.362336 1_555
Dy2 O38 2.363272 1_555
Dy2 O21 2.379883 1_555
Dy2 O24 2.382563 1_555
Dy2 O3 2.420580 1_555
Dy2 O20 2.483092 1_555
Dy3 O55 2.281124 1_555
Dy3 O33 2.340496 1_555
Dy3 O2 2.362336 1_555
Dy3 O44 2.363272 1_555
Dy3 O37 2.379883 1_555
Dy3 O31 2.382563 1_555
Dy3 O22 2.420580 1_555
Dy3 O54 2.483092 1_555
Hf0 O49 2.042734 1_655
Hf0 O14 2.071606 1_565
Hf0 O8 2.072043 1_555
Hf0 O41 2.095085 1_555
Hf0 O13 2.095290 1_555
Hf0 O52 2.103854 1_555
Hf1 O17 2.042734 1_545
Hf1 O4 2.071606 1_455
Hf1 O15 2.072043 1_555
Hf1 O11 2.095085 1_555
Hf1 O12 2.095290 1_555
Hf1 O42 2.103854 1_555
Hf2 O32 2.042734 1_455
Hf2 O27 2.071606 1_545
Hf2 O19 2.072043 1_555
Hf2 O40 2.095085 1_555
Hf2 O39 2.095290 1_555
Hf2 O9 2.103854 1_555
Hf3 O50 2.042734 1_565
Hf3 O10 2.071606 1_655
Hf3 O28 2.072043 1_555
Hf3 O43 2.095085 1_555
Hf3 O7 2.095290 1_555
Hf3 O18 2.103854 1_555
Mo0 O34 1.760833 1_554
Mo0 O30 1.772041 1_545
Mo0 O42 1.821558 1_555
Mo0 O19 1.837796 1_554
Mo1 O20 1.760833 1_555
Mo1 O44 1.772041 1_455
Mo1 O9 1.821558 1_555
Mo1 O15 1.837796 1_555
Mo2 O2 1.763249 1_555
Mo2 O5 1.777759 1_555
Mo2 O23 1.782975 1_555
Mo2 O50 1.855636 1_555
Mo3 O24 1.756950 1_565
Mo3 O37 1.763670 1_555
Mo3 O41 1.822802 1_555
Mo3 O12 1.831233 1_565
Mo4 O6 1.765395 1_555
Mo4 O3 1.765395 1_555
Mo4 O4 1.830501 1_555
Mo4 O14 1.830501 1_555
Mo5 O36 1.756950 1_455
Mo5 O46 1.763670 1_555
Mo5 O11 1.822802 1_555
Mo5 O13 1.831233 1_455
Mo6 O31 1.756950 1_545
Mo6 O21 1.763670 1_555
Mo6 O40 1.822802 1_555
Mo6 O7 1.831233 1_545
Mo7 O29 1.760833 1_556
Mo7 O16 1.772041 1_565
Mo7 O18 1.821558 1_555
Mo7 O8 1.837796 1_556
Mo8 O22 1.765395 1_555
Mo8 O53 1.765395 1_555
Mo8 O27 1.830501 1_555
Mo8 O10 1.830501 1_555
Mo9 O1 1.763249 1_555
Mo9 O0 1.777759 1_555
Mo9 O51 1.782975 1_555
Mo9 O49 1.855636 1_555
Mo10 O48 1.756950 1_655
Mo10 O35 1.763670 1_555
Mo10 O43 1.822802 1_555
Mo10 O39 1.831233 1_655
Mo11 O26 1.763249 1_555
Mo11 O25 1.777759 1_555
Mo11 O33 1.782975 1_555
Mo11 O17 1.855636 1_555
Mo12 O54 1.760833 1_555
Mo12 O38 1.772041 1_655
Mo12 O52 1.821558 1_555
Mo12 O28 1.837796 1_555
Mo13 O45 1.763249 1_555
Mo13 O55 1.777759 1_555
Mo13 O47 1.782975 1_555
Mo13 O32 1.855636 1_555
