# generated using pymatgen
data_Ag3CS(NO2)3
_symmetry_space_group_name_H-M   'P 1'
_cell_length_a   6.59913100
_cell_length_b   7.99327929
_cell_length_c   8.13196815
_cell_angle_alpha   105.37823438
_cell_angle_beta   93.44406134
_cell_angle_gamma   90.53869704
_symmetry_Int_Tables_number   1
_chemical_formula_structural   Ag3CS(NO2)3
_chemical_formula_sum   'Ag6 C2 S2 N6 O12'
_cell_volume   412.70265107
_cell_formula_units_Z   2
loop_
 _symmetry_equiv_pos_site_id
 _symmetry_equiv_pos_as_xyz
  1  'x, y, z'
loop_
 _atom_site_type_symbol
 _atom_site_label
 _atom_site_symmetry_multiplicity
 _atom_site_fract_x
 _atom_site_fract_y
 _atom_site_fract_z
 _atom_site_occupancy
  Ag  Ag0  1  0.44936900  0.27265500  0.14296600  1
  Ag  Ag1  1  0.55063100  0.72734500  0.85703400  1
  Ag  Ag2  1  0.00000000  0.00000000  0.50000000  1
  Ag  Ag3  1  0.02704600  0.64500300  0.82406300  1
  Ag  Ag4  1  0.97295400  0.35499700  0.17593700  1
  Ag  Ag5  1  0.50000000  0.00000000  0.50000000  1
  C  C0  1  0.26983700  0.61121700  0.43555100  1
  C  C1  1  0.73016300  0.38878300  0.56444900  1
  S  S0  1  0.72320300  0.21641000  0.39877100  1
  S  S1  1  0.27679700  0.78359000  0.60122900  1
  N  N0  1  0.68394800  0.67564000  0.21207800  1
  N  N1  1  0.31605200  0.32436000  0.78792200  1
  N  N2  1  0.74126000  0.51445600  0.68115200  1
  N  N3  1  0.82978200  0.06404200  0.86777400  1
  N  N4  1  0.25874000  0.48554400  0.31884800  1
  N  N5  1  0.17021800  0.93595800  0.13222600  1
  O  O0  1  0.75919900  0.05036400  0.00503100  1
  O  O1  1  0.27760200  0.46056200  0.90493500  1
  O  O2  1  0.93273200  0.19628000  0.86367600  1
  O  O3  1  0.72239800  0.53943800  0.09506500  1
  O  O4  1  0.20331600  0.06065800  0.26867300  1
  O  O5  1  0.24080100  0.94963600  0.99496900  1
  O  O6  1  0.57604400  0.79117900  0.17027400  1
  O  O7  1  0.06726800  0.80372000  0.13632400  1
  O  O8  1  0.75000600  0.69514900  0.36431800  1
  O  O9  1  0.24999400  0.30485100  0.63568200  1
  O  O10  1  0.79668400  0.93934200  0.73132700  1
  O  O11  1  0.42395600  0.20882100  0.82972600  1
loop_
_geom_bond_atom_site_label_1
_geom_bond_atom_site_label_2
_geom_bond_distance
_geom_bond_site_symmetry_2
Ag0 N4 2.342962 1_555
Ag0 O11 2.456566 1_554
Ag0 S0 2.802587 1_555
Ag1 N2 2.342962 1_555
Ag1 O6 2.456566 1_556
Ag1 S1 2.802587 1_555
Ag2 O10 2.519670 1_445
Ag2 O4 2.519670 1_555
Ag2 S1 2.764142 1_545
Ag2 S0 2.764142 1_455
Ag2 O9 2.855971 1_555
Ag2 O8 2.855971 1_445
Ag3 N2 2.247824 1_455
Ag3 O1 2.401949 1_555
Ag3 O7 2.516358 1_556
Ag3 O5 2.784888 1_555
Ag3 S1 2.935353 1_555
Ag4 N4 2.247824 1_655
Ag4 O3 2.401949 1_555
Ag4 O2 2.516358 1_554
Ag4 O0 2.784888 1_555
Ag4 S0 2.935353 1_555
Ag5 S0 2.586992 1_555
Ag5 S1 2.586992 1_545
Ag5 O10 2.768770 1_545
Ag5 O4 2.768770 1_555
Ag5 O11 2.833918 1_555
Ag5 O6 2.833918 1_545
C0 N4 1.183110 1_555
C0 S1 1.650004 1_555
C1 N2 1.183110 1_555
C1 S0 1.650004 1_555
N0 O8 1.256386 1_555
N0 O6 1.274883 1_555
N0 O3 1.280566 1_555
N1 O9 1.256386 1_555
N1 O11 1.274883 1_555
N1 O1 1.280566 1_555
N3 O2 1.260099 1_555
N3 O0 1.265297 1_556
N3 O10 1.285538 1_545
N5 O7 1.260099 1_555
N5 O5 1.265297 1_554
N5 O4 1.285538 1_565
