# generated using pymatgen
data_Pr5(RuO6)2
_symmetry_space_group_name_H-M   'P 1'
_cell_length_a   7.08108721
_cell_length_b   7.08108755
_cell_length_c   7.69924708
_cell_angle_alpha   74.21647115
_cell_angle_beta   74.21647603
_cell_angle_gamma   49.97763844
_symmetry_Int_Tables_number   1
_chemical_formula_structural   Pr5(RuO6)2
_chemical_formula_sum   'Pr5 Ru2 O12'
_cell_volume   282.01153832
_cell_formula_units_Z   1
loop_
 _symmetry_equiv_pos_site_id
 _symmetry_equiv_pos_as_xyz
  1  'x, y, z'
loop_
 _atom_site_type_symbol
 _atom_site_label
 _atom_site_symmetry_multiplicity
 _atom_site_fract_x
 _atom_site_fract_y
 _atom_site_fract_z
 _atom_site_occupancy
  Pr  Pr0  1  0.30685551  0.30686159  0.35708738  1
  Pr  Pr1  1  0.69313846  0.69314460  0.64291253  1
  Pr  Pr2  1  0.69087714  0.69088272  0.16719137  1
  Pr  Pr3  1  0.30911727  0.30912282  0.83280847  1
  Pr  Pr4  1  0.00000467  0.99999537  0.49999990  1
  Ru  Ru0  1  0.76481624  0.23518367  -0.00000004  1
  Ru  Ru1  1  0.23519018  0.76480992  -0.00000004  1
  O  O0  1  0.09583329  0.59460177  0.57773076  1
  O  O1  1  0.99914798  0.99912073  0.18357663  1
  O  O2  1  0.40539826  0.90416670  0.42226878  1
  O  O3  1  0.49992506  0.49994653  0.16942687  1
  O  O4  1  0.09680339  0.58749174  0.07777141  1
  O  O5  1  0.90416586  0.40540027  0.42226843  1
  O  O6  1  0.00087921  0.00085198  0.81642342  1
  O  O7  1  0.59459971  0.09583414  0.57773156  1
  O  O8  1  0.50005339  0.50007500  0.83057315  1
  O  O9  1  0.58748701  0.09679988  0.07777417  1
  O  O10  1  0.41250819  0.90319653  0.92222857  1
  O  O11  1  0.90320017  0.41251304  0.92222571  1
loop_
_geom_bond_atom_site_label_1
_geom_bond_atom_site_label_2
_geom_bond_distance
_geom_bond_site_symmetry_2
O0 Pr1 2.392227 1_455
O0 Pr3 2.398215 1_555
O0 Pr4 2.416627 1_555
O0 Pr0 2.419990 1_555
O1 Ru1 1.991988 1_655
O1 Ru0 1.992076 1_565
O1 Pr4 2.439579 1_655
O2 Pr0 2.392228 1_565
O2 Pr2 2.398214 1_555
O2 Pr4 2.416627 1_555
O2 Pr1 2.419992 1_555
O3 Ru1 2.051997 1_555
O3 Ru0 2.052127 1_555
O3 Pr2 2.445936 1_555
O3 Pr0 2.465954 1_555
O4 Ru1 1.936402 1_555
O4 Pr2 2.400662 1_455
O4 Pr3 2.524124 1_554
O4 Pr0 2.529763 1_555
O5 Pr0 2.392204 1_655
O5 Pr2 2.398227 1_555
O5 Pr4 2.416673 1_645
O5 Pr1 2.420008 1_555
O6 Ru1 1.991988 1_546
O6 Ru0 1.992076 1_456
O6 Pr4 2.439580 1_545
O7 Pr1 2.392204 1_545
O7 Pr3 2.398227 1_555
O7 Pr4 2.416673 1_645
O7 Pr0 2.420008 1_555
O8 Ru1 2.051997 1_556
O8 Ru0 2.052126 1_556
O8 Pr3 2.445937 1_555
O8 Pr1 2.465956 1_555
O9 Ru0 1.936453 1_555
O9 Pr2 2.400604 1_545
O9 Pr3 2.524137 1_554
O9 Pr0 2.529769 1_555
O10 Ru1 1.936400 1_556
O10 Pr3 2.400662 1_565
O10 Pr2 2.524123 1_556
O10 Pr1 2.529763 1_555
O11 Ru0 1.936455 1_556
O11 Pr3 2.400603 1_655
O11 Pr2 2.524136 1_556
O11 Pr1 2.529769 1_555
