# generated using pymatgen
data_H12PbC4S4(NO4)2
_symmetry_space_group_name_H-M   'P 1'
_cell_length_a   9.16368400
_cell_length_b   7.87631800
_cell_length_c   21.46163626
_cell_angle_alpha   72.12360640
_cell_angle_beta   90.00000000
_cell_angle_gamma   90.00000000
_symmetry_Int_Tables_number   1
_chemical_formula_structural   H12PbC4S4(NO4)2
_chemical_formula_sum   'H48 Pb4 C16 S16 N8 O32'
_cell_volume   1474.23191674
_cell_formula_units_Z   4
loop_
 _symmetry_equiv_pos_site_id
 _symmetry_equiv_pos_as_xyz
  1  'x, y, z'
loop_
 _atom_site_type_symbol
 _atom_site_label
 _atom_site_symmetry_multiplicity
 _atom_site_fract_x
 _atom_site_fract_y
 _atom_site_fract_z
 _atom_site_occupancy
  H  H0  1  0.45977600  0.46452700  0.23399100  1
  H  H1  1  0.25385400  0.54540000  0.39818900  1
  H  H2  1  0.21595000  0.32025300  0.39712700  1
  H  H3  1  0.95977600  0.53547300  0.26600900  1
  H  H4  1  0.15535600  0.05733400  0.67836200  1
  H  H5  1  0.08714100  0.43607800  0.43332000  1
  H  H6  1  0.42409200  0.06000400  0.71423300  1
  H  H7  1  0.03026500  0.86286300  0.32951500  1
  H  H8  1  0.07590800  0.06000400  0.21423300  1
  H  H9  1  0.53026500  0.13713700  0.17048500  1
  H  H10  1  0.88219900  0.60622600  0.72904300  1
  H  H11  1  0.95043400  0.79731600  0.86863400  1
  H  H12  1  0.71595000  0.67974700  0.10287300  1
  H  H13  1  0.45043400  0.20268400  0.63136600  1
  H  H14  1  0.38226300  0.29114300  0.13930500  1
  H  H15  1  0.88226300  0.70885700  0.36069500  1
  H  H16  1  0.57590800  0.93999600  0.28576700  1
  H  H17  1  0.59505300  0.17534100  0.69151400  1
  H  H18  1  0.28405000  0.32025300  0.89712700  1
  H  H19  1  0.04956600  0.20268400  0.13136600  1
  H  H20  1  0.61773700  0.70885700  0.86069500  1
  H  H21  1  0.38219900  0.39377400  0.77095700  1
  H  H22  1  0.34464400  0.05733400  0.17836200  1
  H  H23  1  0.24614600  0.54540000  0.89818900  1
  H  H24  1  0.92409200  0.93999600  0.78576700  1
  H  H25  1  0.99577400  0.43805100  0.20204700  1
  H  H26  1  0.54956600  0.79731600  0.36863400  1
  H  H27  1  0.11780100  0.39377400  0.27095700  1
  H  H28  1  0.11773700  0.29114300  0.63930500  1
  H  H29  1  0.74614600  0.45460000  0.60181100  1
  H  H30  1  0.54022400  0.53547300  0.76600900  1
  H  H31  1  0.96973500  0.13713700  0.67048500  1
  H  H32  1  0.84464400  0.94266600  0.32163800  1
  H  H33  1  0.65535600  0.94266600  0.82163800  1
  H  H34  1  0.41285900  0.43607800  0.93332000  1
  H  H35  1  0.04022400  0.46452700  0.73399100  1
  H  H36  1  0.61780100  0.60622600  0.22904300  1
  H  H37  1  0.46973500  0.86286300  0.82951500  1
  H  H38  1  0.00422600  0.56194900  0.79795300  1
  H  H39  1  0.90494700  0.17534100  0.19151400  1
  H  H40  1  0.58714100  0.56392200  0.06668000  1
  H  H41  1  0.50422600  0.43805100  0.70204700  1
  H  H42  1  0.75385400  0.45460000  0.10181100  1
  H  H43  1  0.91285900  0.56392200  0.56668000  1
  H  H44  1  0.09505300  0.82465900  0.80848600  1
  H  H45  1  0.49577400  0.56194900  0.29795300  1
  H  H46  1  0.78405000  0.67974700  0.60287300  1
  H  H47  1  0.40494700  0.82465900  0.30848600  1
  Pb  Pb0  1  0.28329400  0.80812400  0.53560500  1
  Pb  Pb1  1  0.78329400  0.19187600  0.96439500  1
  Pb  Pb2  1  0.21670600  0.80812400  0.03560500  1
  Pb  Pb3  1  0.71670600  0.19187600  0.46439500  1
  C  C0  1  0.20251700  0.41729500  0.42391500  1
  C  C1  1  0.49682300  0.88843900  0.32540700  1
  C  C2  1  0.54469900  0.50778900  0.26160200  1
  C  C3  1  0.92153300  0.84561400  0.35199900  1
  C  C4  1  0.42153300  0.15438600  0.14800100  1
  C  C5  1  0.04469900  0.49221100  0.23839800  1
  C  C6  1  0.50317700  0.11156100  0.67459300  1
  C  C7  1  0.57846700  0.84561400  0.85199900  1
  C  C8  1  0.79748300  0.58270500  0.57608500  1
  C  C9  1  0.07846700  0.15438600  0.64800100  1
  C  C10  1  0.29748300  0.41729500  0.92391500  1
  C  C11  1  0.45530100  0.49221100  0.73839800  1
  C  C12  1  0.70251700  0.58270500  0.07608500  1
  C  C13  1  0.00317700  0.88843900  0.82540700  1
  C  C14  1  0.95530100  0.50778900  0.76160200  1
  C  C15  1  0.99682300  0.11156100  0.17459300  1
  S  S0  1  0.65385100  0.32199700  0.30341700  1
  S  S1  1  0.07736800  0.07110200  0.84733300  1
  S  S2  1  0.29123900  0.33147400  0.50077500  1
  S  S3  1  0.15385100  0.67800300  0.19658300  1
  S  S4  1  0.56091000  0.88681600  0.92843100  1
  S  S5  1  0.70876100  0.66852600  0.49922500  1
  S  S6  1  0.43909000  0.11318400  0.07156900  1
  S  S7  1  0.93909000  0.88681600  0.42843100  1
  S  S8  1  0.42263200  0.07110200  0.34733300  1
  S  S9  1  0.34614900  0.67800300  0.69658300  1
  S  S10  1  0.06091000  0.11318400  0.57156900  1
  S  S11  1  0.20876100  0.33147400  0.00077500  1
  S  S12  1  0.79123900  0.66852600  0.99922500  1
  S  S13  1  0.57736800  0.92889800  0.65266700  1
  S  S14  1  0.92263200  0.92889800  0.15266700  1
  S  S15  1  0.84614900  0.32199700  0.80341700  1
  N  N0  1  0.94156800  0.18661300  0.86102900  1
  N  N1  1  0.28017200  0.13861300  0.03693500  1
  N  N2  1  0.44156800  0.81338700  0.63897100  1
  N  N3  1  0.78017200  0.86138700  0.46306500  1
  N  N4  1  0.05843200  0.81338700  0.13897100  1
  N  N5  1  0.55843200  0.18661300  0.36102900  1
  N  N6  1  0.71982800  0.86138700  0.96306500  1
  N  N7  1  0.21982800  0.13861300  0.53693500  1
  O  O0  1  0.04874000  0.76072100  0.46585900  1
  O  O1  1  0.45126000  0.76072100  0.96585900  1
  O  O2  1  0.23585100  0.61354800  0.65921900  1
  O  O3  1  0.44297200  0.29669700  0.48868000  1
  O  O4  1  0.23399900  0.45582000  0.03829100  1
  O  O5  1  0.66795800  0.82595700  0.70677500  1
  O  O6  1  0.95126000  0.23927900  0.53414100  1
  O  O7  1  0.03070400  0.92331000  0.58415300  1
  O  O8  1  0.76414900  0.38645200  0.34078100  1
  O  O9  1  0.73585100  0.38645200  0.84078100  1
  O  O10  1  0.29164600  0.75774100  0.74503700  1
  O  O11  1  0.76600100  0.54418000  0.96170900  1
  O  O12  1  0.34998700  0.99708500  0.41050500  1
  O  O13  1  0.16795800  0.17404300  0.79322500  1
  O  O14  1  0.55702800  0.70330300  0.51132000  1
  O  O15  1  0.73399900  0.54418000  0.46170900  1
  O  O16  1  0.70835400  0.24225900  0.25496300  1
  O  O17  1  0.33204200  0.17404300  0.29322500  1
  O  O18  1  0.53070400  0.07669000  0.91584700  1
  O  O19  1  0.46929600  0.92331000  0.08415300  1
  O  O20  1  0.94297200  0.70330300  0.01132000  1
  O  O21  1  0.05702800  0.29669700  0.98868000  1
  O  O22  1  0.84998700  0.00291500  0.08949500  1
  O  O23  1  0.26414900  0.61354800  0.15921900  1
  O  O24  1  0.26600100  0.45582000  0.53829100  1
  O  O25  1  0.15001300  0.99708500  0.91050500  1
  O  O26  1  0.79164600  0.24225900  0.75496300  1
  O  O27  1  0.54874000  0.23927900  0.03414100  1
  O  O28  1  0.20835400  0.75774100  0.24503700  1
  O  O29  1  0.96929600  0.07669000  0.41584700  1
  O  O30  1  0.65001300  0.00291500  0.58949500  1
  O  O31  1  0.83204200  0.82595700  0.20677500  1
loop_
_geom_bond_atom_site_label_1
_geom_bond_atom_site_label_2
_geom_bond_distance
_geom_bond_site_symmetry_2
C0 H5 1.094888 1_555
C0 H2 1.095291 1_555
C0 H1 1.096453 1_555
C0 S2 1.776053 1_555
C1 H26 1.095720 1_555
C1 H16 1.096253 1_555
C1 H47 1.097757 1_555
C1 S8 1.780218 1_565
C2 H45 1.093584 1_555
C2 H0 1.093995 1_555
C2 H36 1.097969 1_555
C2 S0 1.772288 1_555
C3 H32 1.095242 1_555
C3 H15 1.095968 1_555
C3 H7 1.097198 1_655
C3 S7 1.774479 1_555
C4 H22 1.095242 1_555
C4 H14 1.095968 1_555
C4 H9 1.097198 1_555
C4 S6 1.774479 1_555
C5 H25 1.093584 1_455
C5 H3 1.093995 1_455
C5 H27 1.097969 1_555
C5 S3 1.772288 1_555
C6 H13 1.095720 1_555
C6 H6 1.096253 1_555
C6 H17 1.097757 1_555
C6 S13 1.780218 1_545
C7 H33 1.095242 1_555
C7 H20 1.095968 1_555
C7 H37 1.097198 1_555
C7 S4 1.774479 1_555
C8 H43 1.094888 1_555
C8 H46 1.095291 1_555
C8 H29 1.096453 1_555
C8 S5 1.776053 1_555
C9 H4 1.095242 1_555
C9 H28 1.095968 1_555
C9 H31 1.097198 1_455
C9 S10 1.774479 1_555
C10 H34 1.094888 1_555
C10 H18 1.095291 1_555
C10 H23 1.096453 1_555
C10 S11 1.776053 1_556
C11 H41 1.093584 1_555
C11 H30 1.093995 1_555
C11 H21 1.097969 1_555
C11 S9 1.772288 1_555
C12 H40 1.094888 1_555
C12 H12 1.095291 1_555
C12 H42 1.096453 1_555
C12 S12 1.776053 1_554
C13 H11 1.095720 1_455
C13 H24 1.096253 1_455
C13 H44 1.097757 1_555
C13 S1 1.780218 1_565
C14 H38 1.093584 1_655
C14 H35 1.093995 1_655
C14 H10 1.097969 1_555
C14 S15 1.772288 1_555
C15 H19 1.095720 1_655
C15 H8 1.096253 1_655
C15 H39 1.097757 1_555
C15 S14 1.780218 1_545
N0 S15 1.618942 1_555
N0 S1 1.620778 1_655
N0 Pb1 2.661404 1_555
N1 S11 1.616854 1_555
N1 S6 1.619244 1_555
N1 Pb2 2.675905 1_545
N2 S9 1.618942 1_555
N2 S13 1.620778 1_555
N2 Pb0 2.661404 1_555
N3 S5 1.616854 1_555
N3 S7 1.619244 1_555
N3 Pb3 2.675905 1_565
N4 S3 1.618942 1_555
N4 S14 1.620778 1_455
N4 Pb2 2.661404 1_555
N5 S0 1.618942 1_555
N5 S8 1.620778 1_555
N5 Pb3 2.661404 1_555
N6 S12 1.616854 1_555
N6 S4 1.619244 1_555
N6 Pb1 2.675905 1_565
N7 S2 1.616854 1_555
N7 S10 1.619244 1_555
N7 Pb0 2.675905 1_545
O0 S7 1.466783 1_455
O0 Pb0 2.709785 1_555
O1 S4 1.466783 1_555
O1 Pb2 2.709785 1_556
O2 S9 1.473863 1_555
O2 Pb0 2.660788 1_555
O3 S2 1.455804 1_555
O3 Pb3 2.740360 1_555
O4 S11 1.464610 1_555
O4 Pb2 2.762258 1_555
O5 S13 1.454984 1_555
O6 S10 1.466783 1_655
O6 Pb3 2.709785 1_555
O7 S10 1.462237 1_565
O7 Pb0 2.801186 1_555
O8 S0 1.473863 1_555
O8 Pb3 2.660788 1_555
O9 S15 1.473863 1_555
O9 Pb1 2.660788 1_555
O10 S9 1.458163 1_555
O11 S12 1.464610 1_555
O11 Pb1 2.762258 1_555
O12 S8 1.461471 1_565
O12 Pb0 2.709947 1_555
O13 S1 1.454984 1_555
O14 S5 1.455804 1_555
O14 Pb0 2.740360 1_555
O15 S5 1.464610 1_555
O15 Pb3 2.762258 1_555
O16 S0 1.458163 1_555
O17 S8 1.454984 1_555
O18 S4 1.462237 1_545
O18 Pb1 2.801186 1_555
O19 S6 1.462237 1_565
O19 Pb2 2.801186 1_555
O20 S12 1.455804 1_554
O20 Pb2 2.740360 1_655
O21 S11 1.455804 1_556
O21 Pb1 2.740360 1_455
O22 S14 1.461471 1_545
O22 Pb1 2.709947 1_554
O23 S3 1.473863 1_555
O23 Pb2 2.660788 1_555
O24 S2 1.464610 1_555
O24 Pb0 2.762258 1_555
O25 S1 1.461471 1_565
O25 Pb2 2.709947 1_556
O26 S15 1.458163 1_555
O27 S6 1.466783 1_555
O27 Pb1 2.709785 1_554
O28 S3 1.458163 1_555
O29 S7 1.462237 1_545
O29 Pb3 2.801186 1_555
O30 S13 1.461471 1_545
O30 Pb3 2.709947 1_555
O31 S14 1.454984 1_555
