# generated using pymatgen
data_K4Sr2SnAs4
_symmetry_space_group_name_H-M   'P 1'
_cell_length_a   18.29854987
_cell_length_b   18.29854987
_cell_length_c   7.76537700
_cell_angle_alpha   90.00000000
_cell_angle_beta   90.00000000
_cell_angle_gamma   119.99999952
_symmetry_Int_Tables_number   1
_chemical_formula_structural   K4Sr2SnAs4
_chemical_formula_sum   'K24 Sr12 Sn6 As24'
_cell_volume   2251.78295140
_cell_formula_units_Z   6
loop_
 _symmetry_equiv_pos_site_id
 _symmetry_equiv_pos_as_xyz
  1  'x, y, z'
loop_
 _atom_site_type_symbol
 _atom_site_label
 _atom_site_symmetry_multiplicity
 _atom_site_fract_x
 _atom_site_fract_y
 _atom_site_fract_z
 _atom_site_occupancy
  K  K0  1  0.65923800  0.47697700  0.31069600  1
  K  K1  1  0.34076200  0.52302300  0.81069600  1
  K  K2  1  0.13349700  0.13349700  0.79108200  1
  K  K3  1  0.34076200  0.81773900  0.31069600  1
  K  K4  1  0.47697700  0.81773900  0.81069600  1
  K  K5  1  0.86650300  0.00000000  0.79108200  1
  K  K6  1  0.18226100  0.65923800  0.81069600  1
  K  K7  1  0.47697700  0.65923800  0.31069600  1
  K  K8  1  0.00000000  0.13349700  0.29108200  1
  K  K9  1  0.13349700  0.00000000  0.29108200  1
  K  K10  1  0.46783900  0.46783900  0.11956800  1
  K  K11  1  0.18226100  0.52302300  0.31069600  1
  K  K12  1  0.86650300  0.86650300  0.29108200  1
  K  K13  1  0.53216100  0.00000000  0.11956800  1
  K  K14  1  0.53216100  0.53216100  0.61956800  1
  K  K15  1  0.46783900  0.00000000  0.61956800  1
  K  K16  1  0.00000000  0.53216100  0.11956800  1
  K  K17  1  0.65923800  0.18226100  0.81069600  1
  K  K18  1  0.52302300  0.18226100  0.31069600  1
  K  K19  1  0.00000000  0.86650300  0.79108200  1
  K  K20  1  0.81773900  0.47697700  0.81069600  1
  K  K21  1  0.00000000  0.46783900  0.61956800  1
  K  K22  1  0.81773900  0.34076200  0.31069600  1
  K  K23  1  0.52302300  0.34076200  0.81069600  1
  Sr  Sr0  1  0.81027800  0.67024400  0.61952200  1
  Sr  Sr1  1  0.14003400  0.81027800  0.11952200  1
  Sr  Sr2  1  0.14003400  0.32975600  0.61952200  1
  Sr  Sr3  1  0.85996600  0.67024400  0.11952200  1
  Sr  Sr4  1  0.67024400  0.85996600  0.11952200  1
  Sr  Sr5  1  0.32975600  0.18972200  0.11952200  1
  Sr  Sr6  1  0.18972200  0.85996600  0.61952200  1
  Sr  Sr7  1  0.81027800  0.14003400  0.11952200  1
  Sr  Sr8  1  0.32975600  0.14003400  0.61952200  1
  Sr  Sr9  1  0.18972200  0.32975600  0.11952200  1
  Sr  Sr10  1  0.85996600  0.18972200  0.61952200  1
  Sr  Sr11  1  0.67024400  0.81027800  0.61952200  1
  Sn  Sn0  1  0.66879000  0.66879000  0.00178400  1
  Sn  Sn1  1  0.00000000  0.33121000  0.00178400  1
  Sn  Sn2  1  0.00000000  0.66879000  0.50178400  1
  Sn  Sn3  1  0.33121000  0.33121000  0.50178400  1
  Sn  Sn4  1  0.66879000  0.00000000  0.50178400  1
  Sn  Sn5  1  0.33121000  0.00000000  0.00178400  1
  As  As0  1  0.19393100  0.19393100  0.38061200  1
  As  As1  1  0.31696700  0.00000000  0.34677000  1
  As  As2  1  0.14394800  0.46201600  0.89499800  1
  As  As3  1  0.80606900  0.00000000  0.38061200  1
  As  As4  1  0.31806900  0.85605200  0.89499800  1
  As  As5  1  0.53798400  0.68193100  0.89499800  1
  As  As6  1  0.68303300  0.68303300  0.34677000  1
  As  As7  1  0.80606900  0.80606900  0.88061200  1
  As  As8  1  0.00000000  0.68303300  0.84677000  1
  As  As9  1  0.46201600  0.14394800  0.89499800  1
  As  As10  1  0.85605200  0.31806900  0.89499800  1
  As  As11  1  0.31806900  0.46201600  0.39499800  1
  As  As12  1  0.68193100  0.14394800  0.39499800  1
  As  As13  1  0.85605200  0.53798400  0.39499800  1
  As  As14  1  0.19393100  0.00000000  0.88061200  1
  As  As15  1  0.00000000  0.80606900  0.38061200  1
  As  As16  1  0.68303300  0.00000000  0.84677000  1
  As  As17  1  0.00000000  0.19393100  0.88061200  1
  As  As18  1  0.14394800  0.68193100  0.39499800  1
  As  As19  1  0.46201600  0.31806900  0.39499800  1
  As  As20  1  0.00000000  0.31696700  0.34677000  1
  As  As21  1  0.68193100  0.53798400  0.89499800  1
  As  As22  1  0.31696700  0.31696700  0.84677000  1
  As  As23  1  0.53798400  0.85605200  0.39499800  1
loop_
_geom_bond_atom_site_label_1
_geom_bond_atom_site_label_2
_geom_bond_distance
_geom_bond_site_symmetry_2
As0 Sn3 2.682454 1_555
As0 K8 3.221013 1_555
As0 K9 3.221013 1_555
As0 Sr9 3.238082 1_555
As0 Sr5 3.238082 1_555
As0 K2 3.373837 1_555
As0 Sr2 3.611501 1_555
As0 Sr8 3.611501 1_555
As1 Sn5 2.691594 1_555
As1 Sr8 3.241468 1_555
As1 Sr6 3.241468 1_545
As1 K9 3.384971 1_555
As1 K15 3.479829 1_555
As1 K3 3.583739 1_545
As1 K18 3.583739 1_555
As2 Sn1 2.655220 1_556
As2 Sr2 3.203915 1_555
As2 K1 3.259528 1_555
As2 K11 3.372744 1_556
As2 K6 3.378455 1_555
As2 Sr9 3.409654 1_556
As2 K21 3.435800 1_555
As3 Sn4 2.682454 1_555
As3 K12 3.221013 1_545
As3 K8 3.221013 1_655
As3 Sr7 3.238082 1_555
As3 Sr4 3.238082 1_545
As3 K5 3.373837 1_555
As3 Sr10 3.611501 1_555
As3 Sr11 3.611501 1_545
As4 Sn5 2.655227 1_566
As4 Sr6 3.203928 1_555
As4 K6 3.259532 1_555
As4 K3 3.372739 1_556
As4 K4 3.378437 1_555
As4 Sr1 3.409669 1_556
As4 K15 3.435793 1_565
As5 Sn0 2.655210 1_556
As5 Sr11 3.203921 1_555
As5 K4 3.259546 1_555
As5 K7 3.372744 1_556
As5 K1 3.378449 1_555
As5 Sr4 3.409665 1_556
As5 K14 3.435786 1_555
As6 Sn0 2.691594 1_555
As6 Sr11 3.241468 1_555
As6 Sr0 3.241468 1_555
As6 K12 3.384971 1_555
As6 K14 3.479829 1_555
As6 K7 3.583739 1_555
As6 K0 3.583739 1_555
As7 Sn0 2.682454 1_556
As7 K5 3.221013 1_565
As7 K19 3.221013 1_655
As7 Sr11 3.238082 1_555
As7 Sr0 3.238082 1_555
As7 K12 3.373837 1_556
As7 Sr3 3.611501 1_556
As7 Sr4 3.611501 1_556
As8 Sn2 2.691594 1_555
As8 Sr3 3.241468 1_456
As8 Sr1 3.241468 1_556
As8 K19 3.384971 1_555
As8 K16 3.479829 1_556
As8 K6 3.583739 1_555
As8 K20 3.583739 1_455
As9 Sn5 2.655220 1_556
As9 Sr8 3.203915 1_555
As9 K23 3.259528 1_555
As9 K18 3.372744 1_556
As9 K17 3.378455 1_555
As9 Sr5 3.409654 1_556
As9 K15 3.435800 1_555
As10 Sn1 2.655227 1_656
As10 Sr10 3.203928 1_555
As10 K17 3.259532 1_555
As10 K22 3.372739 1_556
As10 K20 3.378437 1_555
As10 Sr7 3.409669 1_556
As10 K21 3.435793 1_655
As11 Sn3 2.655210 1_555
As11 Sr9 3.203921 1_555
As11 K11 3.259546 1_555
As11 K1 3.372744 1_555
As11 K7 3.378449 1_555
As11 Sr2 3.409665 1_555
As11 K10 3.435786 1_555
As12 Sn4 2.655227 1_555
As12 Sr7 3.203928 1_555
As12 K22 3.259532 1_555
As12 K17 3.372739 1_555
As12 K18 3.378437 1_555
As12 Sr10 3.409669 1_555
As12 K13 3.435793 1_555
As13 Sn2 2.655220 1_655
As13 Sr3 3.203915 1_555
As13 K0 3.259528 1_555
As13 K20 3.372744 1_555
As13 K22 3.378455 1_555
As13 Sr0 3.409654 1_555
As13 K16 3.435800 1_655
As14 Sn5 2.682454 1_556
As14 K2 3.221013 1_555
As14 K19 3.221013 1_545
As14 Sr6 3.238082 1_545
As14 Sr8 3.238082 1_555
As14 K9 3.373837 1_556
As14 Sr1 3.611501 1_546
As14 Sr5 3.611501 1_556
As15 Sn2 2.682454 1_555
As15 K12 3.221013 1_455
As15 K9 3.221013 1_565
As15 Sr1 3.238082 1_555
As15 Sr3 3.238082 1_455
As15 K19 3.373837 1_555
As15 Sr6 3.611501 1_555
As15 Sr0 3.611501 1_455
As16 Sn4 2.691594 1_555
As16 Sr4 3.241468 1_546
As16 Sr7 3.241468 1_556
As16 K5 3.384971 1_555
As16 K13 3.479829 1_556
As16 K17 3.583739 1_555
As16 K4 3.583739 1_545
As17 Sn1 2.682454 1_556
As17 K2 3.221013 1_555
As17 K5 3.221013 1_455
As17 Sr10 3.238082 1_455
As17 Sr2 3.238082 1_555
As17 K8 3.373837 1_556
As17 Sr7 3.611501 1_456
As17 Sr9 3.611501 1_556
As18 Sn2 2.655227 1_555
As18 Sr1 3.203928 1_555
As18 K3 3.259532 1_555
As18 K6 3.372739 1_555
As18 K11 3.378437 1_555
As18 Sr6 3.409669 1_555
As18 K16 3.435793 1_555
As19 Sn3 2.655210 1_555
As19 Sr5 3.203921 1_555
As19 K18 3.259546 1_555
As19 K23 3.372744 1_555
As19 K0 3.378449 1_555
As19 Sr8 3.409665 1_555
As19 K10 3.435786 1_555
As20 Sn1 2.691594 1_555
As20 Sr2 3.241468 1_555
As20 Sr10 3.241468 1_455
As20 K8 3.384971 1_555
As20 K21 3.479829 1_555
As20 K22 3.583739 1_455
As20 K11 3.583739 1_555
As21 Sn0 2.655210 1_556
As21 Sr0 3.203921 1_555
As21 K20 3.259546 1_555
As21 K0 3.372744 1_556
As21 K23 3.378449 1_555
As21 Sr3 3.409665 1_556
As21 K14 3.435786 1_555
As22 Sn3 2.691594 1_555
As22 Sr5 3.241468 1_556
As22 Sr9 3.241468 1_556
As22 K2 3.384971 1_555
As22 K10 3.479829 1_556
As22 K23 3.583739 1_555
As22 K1 3.583739 1_555
As23 Sn4 2.655220 1_565
As23 Sr4 3.203915 1_555
As23 K7 3.259528 1_555
As23 K4 3.372744 1_555
As23 K3 3.378455 1_555
As23 Sr11 3.409654 1_555
As23 K13 3.435800 1_565
