# generated using pymatgen
data_Al17Mo4
_symmetry_space_group_name_H-M   'P 1'
_cell_length_a   5.21592658
_cell_length_b   5.21592658
_cell_length_c   28.97887118
_cell_angle_alpha   84.14548848
_cell_angle_beta   84.14548848
_cell_angle_gamma   56.50382509
_symmetry_Int_Tables_number   1
_chemical_formula_structural   Al17Mo4
_chemical_formula_sum   'Al34 Mo8'
_cell_volume   653.03846401
_cell_formula_units_Z   2
loop_
 _symmetry_equiv_pos_site_id
 _symmetry_equiv_pos_as_xyz
  1  'x, y, z'
loop_
 _atom_site_type_symbol
 _atom_site_label
 _atom_site_symmetry_multiplicity
 _atom_site_fract_x
 _atom_site_fract_y
 _atom_site_fract_z
 _atom_site_occupancy
  Al  Al0  1  0.26491300  0.98929300  0.99288900  1
  Al  Al1  1  0.30656100  0.69343900  0.25000000  1
  Al  Al2  1  0.90958200  0.28582400  0.39450300  1
  Al  Al3  1  0.20530300  0.85981500  0.79935300  1
  Al  Al4  1  0.79469700  0.14018500  0.20064700  1
  Al  Al5  1  0.85981500  0.20530300  0.29935300  1
  Al  Al6  1  0.02229100  0.71607100  0.41429700  1
  Al  Al7  1  0.71417600  0.09041800  0.10549700  1
  Al  Al8  1  0.15466200  0.47918200  0.86966000  1
  Al  Al9  1  0.14018500  0.79469700  0.70064700  1
  Al  Al10  1  0.73508700  0.01070700  0.00711100  1
  Al  Al11  1  0.73276200  0.38952900  0.84396500  1
  Al  Al12  1  0.87772500  0.57385400  0.22719100  1
  Al  Al13  1  0.12227500  0.42614600  0.77280900  1
  Al  Al14  1  0.61047100  0.26723800  0.65603500  1
  Al  Al15  1  0.97770900  0.28392900  0.58570300  1
  Al  Al16  1  0.42614600  0.12227500  0.27280900  1
  Al  Al17  1  0.28582400  0.90958200  0.89450300  1
  Al  Al18  1  0.98929300  0.26491300  0.49288900  1
  Al  Al19  1  0.38952900  0.73276200  0.34396500  1
  Al  Al20  1  0.69343900  0.30656100  0.75000000  1
  Al  Al21  1  0.71607100  0.02229100  0.91429700  1
  Al  Al22  1  0.57385400  0.87772500  0.72719100  1
  Al  Al23  1  0.78863500  0.46456700  0.94592300  1
  Al  Al24  1  0.52081800  0.84533800  0.63034000  1
  Al  Al25  1  0.53543300  0.21136500  0.55407700  1
  Al  Al26  1  0.26723800  0.61047100  0.15603500  1
  Al  Al27  1  0.09041800  0.71417600  0.60549700  1
  Al  Al28  1  0.28392900  0.97770900  0.08570300  1
  Al  Al29  1  0.01070700  0.73508700  0.50711100  1
  Al  Al30  1  0.46456700  0.78863500  0.44592300  1
  Al  Al31  1  0.47918200  0.15466200  0.36966000  1
  Al  Al32  1  0.84533800  0.52081800  0.13034000  1
  Al  Al33  1  0.21136500  0.53543300  0.05407700  1
  Mo  Mo0  1  0.47155700  0.75164300  0.54115000  1
  Mo  Mo1  1  0.64167700  0.95102900  0.82026800  1
  Mo  Mo2  1  0.95102900  0.64167700  0.32026800  1
  Mo  Mo3  1  0.35832300  0.04897100  0.17973200  1
  Mo  Mo4  1  0.52844300  0.24835700  0.45885000  1
  Mo  Mo5  1  0.04897100  0.35832300  0.67973200  1
  Mo  Mo6  1  0.24835700  0.52844300  0.95885000  1
  Mo  Mo7  1  0.75164300  0.47155700  0.04115000  1
loop_
_geom_bond_atom_site_label_1
_geom_bond_atom_site_label_2
_geom_bond_distance
_geom_bond_site_symmetry_2
Al0 Al10 2.591233 1_566
Al0 Al10 2.693657 1_466
Al0 Al28 2.694872 1_556
Al0 Al23 2.715372 1_465
Al0 Mo6 2.736555 1_555
Al0 Mo7 2.823385 1_466
Al0 Mo6 2.841158 1_565
Al0 Mo7 2.842604 1_556
Al0 Al17 2.905504 1_555
Al0 Al23 2.924816 1_555
Al0 Al33 2.932345 1_556
Al1 Mo2 2.707097 1_455
Al1 Mo3 2.707097 1_565
Al1 Al16 2.707882 1_555
Al1 Al12 2.707882 1_555
Al1 Al16 2.784744 1_565
Al1 Al12 2.784744 1_455
Al2 Mo4 2.658129 1_555
Al2 Al31 2.689572 1_655
Al2 Al6 2.701641 1_645
Al2 Al6 2.738314 1_655
Al2 Mo2 2.766434 1_555
Al2 Al31 2.855072 1_555
Al3 Mo1 2.703667 1_555
Al3 Mo1 2.718058 1_455
Al3 Al8 2.793977 1_555
Al4 Mo3 2.703667 1_555
Al4 Mo3 2.718058 1_655
Al5 Mo2 2.703667 1_555
Al5 Mo2 2.718058 1_545
Al6 Mo4 2.744487 1_555
Al6 Mo4 2.858222 1_465
Al6 Mo2 2.880118 1_455
Al7 Mo7 2.658129 1_555
Al7 Mo3 2.766434 1_555
Al8 Mo6 2.741697 1_555
Al8 Mo1 2.838888 1_455
Al8 Mo1 2.903296 1_545
Al9 Mo5 2.703667 1_555
Al9 Mo5 2.718058 1_565
Al10 Al21 2.694872 1_554
Al10 Al33 2.715372 1_645
Al10 Mo7 2.736555 1_555
Al10 Mo6 2.823385 1_644
Al10 Mo7 2.841158 1_545
Al10 Mo6 2.842604 1_554
Al10 Al7 2.905504 1_555
Al10 Al33 2.924816 1_555
Al10 Al23 2.932345 1_554
Al11 Al8 2.675239 1_655
Al11 Al21 2.679946 1_555
Al11 Mo1 2.719426 1_555
Al11 Mo1 2.741322 1_545
Al11 Al13 2.812365 1_655
Al11 Al8 2.814598 1_555
Al12 Al4 2.720290 1_555
Al12 Al5 2.723119 1_555
Al12 Al4 2.774423 1_565
Al12 Al26 2.812365 1_655
Al12 Mo3 2.833157 1_565
Al12 Mo2 2.846212 1_555
Al12 Mo3 2.856645 1_655
Al12 Al16 2.859635 1_655
Al12 Al16 2.859635 1_565
Al12 Al32 2.879052 1_555
Al13 Al20 2.707882 1_555
Al13 Al3 2.720290 1_555
Al13 Al9 2.723119 1_555
Al13 Al3 2.774423 1_545
Al13 Al20 2.784744 1_455
Al13 Mo1 2.833157 1_545
Al13 Mo5 2.846212 1_555
Al13 Mo1 2.856645 1_455
Al13 Al22 2.859635 1_545
Al13 Al22 2.859635 1_455
Al13 Al8 2.879052 1_555
Al14 Al24 2.675239 1_545
Al14 Al15 2.679946 1_555
Al14 Mo5 2.719426 1_555
Al14 Mo5 2.741322 1_655
Al14 Al22 2.812365 1_545
Al14 Al24 2.814598 1_555
Al15 Al18 2.694872 1_555
Al15 Al27 2.701641 1_645
Al15 Al27 2.738314 1_655
Al15 Mo0 2.744487 1_555
Al15 Al25 2.785199 1_655
Al15 Al25 2.787597 1_555
Al15 Al24 2.814669 1_645
Al15 Mo0 2.858222 1_645
Al15 Mo5 2.880118 1_655
Al15 Al24 2.892847 1_555
Al16 Al5 2.720290 1_555
Al16 Al4 2.723119 1_555
Al16 Al5 2.774423 1_455
Al16 Al19 2.812365 1_545
Al16 Mo2 2.833157 1_455
Al16 Mo3 2.846212 1_555
Al16 Mo2 2.856645 1_545
Al16 Al31 2.879052 1_555
Al17 Mo6 2.658129 1_555
Al17 Al8 2.689572 1_565
Al17 Al21 2.701641 1_465
Al17 Al21 2.738314 1_565
Al17 Mo1 2.766434 1_555
Al17 Al8 2.855072 1_555
Al18 Al29 2.591233 1_655
Al18 Al29 2.693657 1_645
Al18 Al30 2.715372 1_645
Al18 Mo4 2.736555 1_555
Al18 Mo0 2.823385 1_645
Al18 Mo4 2.841158 1_655
Al18 Mo0 2.842604 1_555
Al18 Al2 2.905504 1_555
Al18 Al30 2.924816 1_555
Al18 Al25 2.932345 1_555
Al19 Al31 2.675239 1_565
Al19 Al6 2.679946 1_555
Al19 Mo2 2.719426 1_555
Al19 Mo2 2.741322 1_455
Al19 Al31 2.814598 1_555
Al20 Mo1 2.707097 1_545
Al20 Mo5 2.707097 1_655
Al20 Al22 2.707882 1_555
Al20 Al22 2.784744 1_545
Al21 Mo6 2.744487 1_555
Al21 Al23 2.785199 1_545
Al21 Al23 2.787597 1_555
Al21 Al8 2.814669 1_645
Al21 Mo6 2.858222 1_645
Al21 Mo1 2.880118 1_545
Al21 Al8 2.892847 1_555
Al22 Al9 2.720290 1_555
Al22 Al3 2.723119 1_555
Al22 Al9 2.774423 1_655
Al22 Mo5 2.833157 1_655
Al22 Mo1 2.846212 1_555
Al22 Mo5 2.856645 1_565
Al22 Al24 2.879052 1_555
Al23 Mo6 2.639417 1_555
Al23 Mo6 2.663018 1_655
Al23 Mo7 2.749168 1_556
Al23 Al8 2.792923 1_655
Al24 Al27 2.689572 1_655
Al24 Mo0 2.741697 1_555
Al24 Al25 2.792923 1_565
Al24 Al9 2.793977 1_555
Al24 Mo5 2.838888 1_565
Al24 Al27 2.855072 1_555
Al24 Mo5 2.903296 1_655
Al25 Mo0 2.639417 1_555
Al25 Mo0 2.663018 1_545
Al25 Al29 2.715372 1_645
Al25 Mo4 2.749168 1_555
Al25 Al29 2.924816 1_555
Al26 Al32 2.675239 1_455
Al26 Al28 2.679946 1_555
Al26 Mo3 2.719426 1_555
Al26 Mo3 2.741322 1_565
Al26 Al32 2.814598 1_555
Al27 Mo0 2.658129 1_555
Al27 Mo5 2.766434 1_555
Al27 Al29 2.905504 1_555
Al28 Al7 2.701641 1_465
Al28 Al7 2.738314 1_565
Al28 Mo7 2.744487 1_555
Al28 Al33 2.785199 1_565
Al28 Al33 2.787597 1_555
Al28 Al32 2.814669 1_465
Al28 Mo7 2.858222 1_465
Al28 Mo3 2.880118 1_565
Al28 Al32 2.892847 1_555
Al29 Al6 2.694872 1_555
Al29 Mo0 2.736555 1_555
Al29 Mo4 2.823385 1_465
Al29 Mo0 2.841158 1_455
Al29 Mo4 2.842604 1_555
Al29 Al30 2.932345 1_555
Al30 Mo4 2.639417 1_555
Al30 Mo4 2.663018 1_565
Al30 Mo0 2.749168 1_555
Al30 Al6 2.785199 1_655
Al30 Al6 2.787597 1_555
Al30 Al31 2.792923 1_565
Al31 Mo4 2.741697 1_555
Al31 Al5 2.793977 1_555
Al31 Al6 2.814669 1_645
Al31 Mo2 2.838888 1_545
Al31 Al6 2.892847 1_555
Al31 Mo2 2.903296 1_455
Al32 Al7 2.689572 1_565
Al32 Mo7 2.741697 1_555
Al32 Al33 2.792923 1_655
Al32 Al4 2.793977 1_555
Al32 Mo3 2.838888 1_655
Al32 Al7 2.855072 1_555
Al32 Mo3 2.903296 1_565
Al33 Mo7 2.639417 1_555
Al33 Mo7 2.663018 1_455
Al33 Mo6 2.749168 1_554
