# generated using pymatgen
data_CdI2
_symmetry_space_group_name_H-M   'P 1'
_cell_length_a   4.28376403
_cell_length_b   4.28376486
_cell_length_c   94.85300939
_cell_angle_alpha   90.00000000
_cell_angle_beta   90.00000000
_cell_angle_gamma   119.99999348
_symmetry_Int_Tables_number   1
_chemical_formula_structural   CdI2
_chemical_formula_sum   'Cd13 I26'
_cell_volume   1507.41536849
_cell_formula_units_Z   13
loop_
 _symmetry_equiv_pos_site_id
 _symmetry_equiv_pos_as_xyz
  1  'x, y, z'
loop_
 _atom_site_type_symbol
 _atom_site_label
 _atom_site_symmetry_multiplicity
 _atom_site_fract_x
 _atom_site_fract_y
 _atom_site_fract_z
 _atom_site_occupancy
  Cd  Cd0  1  0.00000000  -0.00000000  0.40439605  1
  Cd  Cd1  1  0.00000000  -0.00000000  0.63461173  1
  Cd  Cd2  1  0.00000000  -0.00000000  0.78756593  1
  Cd  Cd3  1  0.66666700  0.33333300  0.48193561  1
  Cd  Cd4  1  0.00000000  -0.00000000  0.55812618  1
  Cd  Cd5  1  0.66666700  0.33333300  0.17314300  1
  Cd  Cd6  1  0.00000000  -0.00000000  0.94214030  1
  Cd  Cd7  1  0.66666700  0.33333300  0.32732908  1
  Cd  Cd8  1  0.33333300  0.66666700  0.86489113  1
  Cd  Cd9  1  0.00000000  -0.00000000  0.71053701  1
  Cd  Cd10  1  0.00000000  -0.00000000  0.09616382  1
  Cd  Cd11  1  0.66666700  0.33333300  0.01868706  1
  Cd  Cd12  1  0.00000000  -0.00000000  0.25042756  1
  I  I0  1  0.66666700  0.33333300  0.69255490  1
  I  I1  1  0.33333300  0.66666700  0.80560227  1
  I  I2  1  0.66666700  0.33333300  0.23238940  1
  I  I3  1  0.33333300  0.66666700  0.65262218  1
  I  I4  1  0.00000000  0.00000000  0.15509736  1
  I  I5  1  0.00000000  -0.00000000  0.46393891  1
  I  I6  1  0.33333300  0.66666700  0.34530945  1
  I  I7  1  0.33333300  0.66666700  0.03669644  1
  I  I8  1  0.33333300  0.66666700  0.96015367  1
  I  I9  1  0.66666700  0.33333300  0.92411797  1
  I  I10  1  0.66666700  0.33333300  0.38639315  1
  I  I11  1  0.33333300  0.66666700  0.42242120  1
  I  I12  1  0.66666700  0.33333300  0.84691217  1
  I  I13  1  0.33333300  0.66666700  0.26840743  1
  I  I14  1  0.33333300  0.66666700  0.57612744  1
  I  I15  1  0.66666700  0.33333300  0.54015355  1
  I  I16  1  0.33333300  0.66666700  0.11416349  1
  I  I17  1  0.33333300  0.66666700  0.19113352  1
  I  I18  1  0.33333300  0.66666700  0.72855075  1
  I  I19  1  0.00000000  0.00000000  0.88292801  1
  I  I20  1  0.00000000  0.00000000  0.30929326  1
  I  I21  1  0.66666700  0.33333300  0.61663774  1
  I  I22  1  0.00000000  -0.00000000  0.00067356  1
  I  I23  1  0.66666700  0.33333300  0.07813356  1
  I  I24  1  0.33333300  0.66666700  0.49995374  1
  I  I25  1  0.66666700  0.33333300  0.76958240  1
loop_
_geom_bond_atom_site_label_1
_geom_bond_atom_site_label_2
_geom_bond_distance
_geom_bond_site_symmetry_2
Cd0 I10 3.005472 1_455
Cd0 I10 3.005475 1_555
Cd0 I10 3.005476 1_445
Cd0 I11 3.006672 1_545
Cd0 I11 3.006675 1_445
Cd0 I11 3.006675 1_555
Cd1 I21 3.003915 1_455
Cd1 I21 3.003918 1_555
Cd1 I21 3.003919 1_445
Cd1 I3 3.005879 1_545
Cd1 I3 3.005882 1_445
Cd1 I3 3.005883 1_555
Cd2 I25 3.004429 1_455
Cd2 I25 3.004432 1_555
Cd2 I25 3.004432 1_445
Cd2 I1 3.007276 1_545
Cd2 I1 3.007279 1_445
Cd2 I1 3.007279 1_555
Cd3 I5 3.005138 1_655
Cd3 I5 3.005141 1_555
Cd3 I5 3.005142 1_665
Cd3 I24 3.006293 1_655
Cd3 I24 3.006294 1_545
Cd3 I24 3.006300 1_555
Cd4 I15 3.003842 1_455
Cd4 I15 3.003845 1_555
Cd4 I15 3.003845 1_445
Cd4 I14 3.005384 1_545
Cd4 I14 3.005387 1_445
Cd4 I14 3.005387 1_555
Cd5 I17 3.004805 1_655
Cd5 I17 3.004806 1_545
Cd5 I17 3.004811 1_555
Cd5 I4 3.007778 1_655
Cd5 I4 3.007781 1_555
Cd5 I4 3.007781 1_665
Cd6 I8 3.006037 1_545
Cd6 I8 3.006040 1_445
Cd6 I8 3.006040 1_555
Cd6 I9 3.006520 1_455
Cd6 I9 3.006523 1_555
Cd6 I9 3.006523 1_445
Cd7 I6 3.004259 1_655
Cd7 I6 3.004259 1_545
Cd7 I6 3.004265 1_555
Cd7 I20 3.007248 1_655
Cd7 I20 3.007251 1_555
Cd7 I20 3.007251 1_665
Cd8 I12 3.004183 1_455
Cd8 I12 3.004183 1_565
Cd8 I12 3.004189 1_555
Cd8 I19 3.007305 1_565
Cd8 I19 3.007308 1_665
Cd8 I19 3.007308 1_555
Cd9 I0 3.004352 1_455
Cd9 I0 3.004355 1_555
Cd9 I0 3.004356 1_445
Cd9 I18 3.006057 1_545
Cd9 I18 3.006060 1_445
Cd9 I18 3.006060 1_555
Cd10 I16 3.005298 1_545
Cd10 I16 3.005301 1_445
Cd10 I16 3.005302 1_555
Cd10 I23 3.006948 1_455
Cd10 I23 3.006951 1_555
Cd10 I23 3.006951 1_445
Cd11 I7 3.005822 1_655
Cd11 I7 3.005822 1_545
Cd11 I7 3.005828 1_555
Cd11 I22 3.006044 1_655
Cd11 I22 3.006047 1_555
Cd11 I22 3.006047 1_665
Cd12 I13 3.004232 1_545
Cd12 I13 3.004235 1_445
Cd12 I13 3.004235 1_555
Cd12 I2 3.007374 1_455
Cd12 I2 3.007377 1_555
Cd12 I2 3.007377 1_445
