# generated using pymatgen
data_V5O9
_symmetry_space_group_name_H-M   'P 1'
_cell_length_a   5.49466712
_cell_length_b   6.99947487
_cell_length_c   8.38323055
_cell_angle_alpha   69.39883636
_cell_angle_beta   74.98751319
_cell_angle_gamma   70.60447418
_symmetry_Int_Tables_number   1
_chemical_formula_structural   V5O9
_chemical_formula_sum   'V10 O18'
_cell_volume   280.95663139
_cell_formula_units_Z   2
loop_
 _symmetry_equiv_pos_site_id
 _symmetry_equiv_pos_as_xyz
  1  'x, y, z'
loop_
 _atom_site_type_symbol
 _atom_site_label
 _atom_site_symmetry_multiplicity
 _atom_site_fract_x
 _atom_site_fract_y
 _atom_site_fract_z
 _atom_site_occupancy
  V  V0  1  0.72036765  0.82309663  0.42179036  1
  V  V1  1  0.28033324  0.17635834  0.57741550  1
  V  V2  1  0.72124590  0.32233209  0.42316650  1
  V  V3  1  0.27819901  0.67767308  0.57698698  1
  V  V4  1  0.35023541  0.65772109  0.20502338  1
  V  V5  1  0.65091583  0.34176277  0.79515265  1
  V  V6  1  0.34124780  0.16586098  0.20248319  1
  V  V7  1  0.65759219  0.83440293  0.79782229  1
  V  V8  1  0.00024428  0.50021593  0.00003492  1
  V  V9  1  0.99948801  0.00077901  0.99953225  1
  O  O0  1  0.05970542  0.20489586  0.41888620  1
  O  O1  1  0.94002491  0.79480279  0.58111147  1
  O  O2  1  0.71569073  0.50944557  0.19973182  1
  O  O3  1  0.28527225  0.49072294  0.80021259  1
  O  O4  1  0.62419559  0.15109201  0.02251807  1
  O  O5  1  0.37470436  0.84904740  0.97779595  1
  O  O6  1  0.91145119  0.80797781  0.92071304  1
  O  O7  1  0.08767372  0.19252557  0.07922310  1
  O  O8  1  0.25862737  0.46587386  0.13876103  1
  O  O9  1  0.74157114  0.53439747  0.86143971  1
  O  O10  1  0.31260638  0.46924904  0.45954975  1
  O  O11  1  0.68770698  0.53055855  0.54053340  1
  O  O12  1  0.02654370  0.18663943  0.75959490  1
  O  O13  1  0.97370807  0.81337274  0.24047491  1
  O  O14  1  0.58037870  0.13430659  0.36592676  1
  O  O15  1  0.41992017  0.86522006  0.63384615  1
  O  O16  1  0.40668666  0.85051042  0.32383662  1
  O  O17  1  0.59366534  0.14915804  0.67643348  1
loop_
_geom_bond_atom_site_label_1
_geom_bond_atom_site_label_2
_geom_bond_distance
_geom_bond_site_symmetry_2
O0 V2 1.762499 1_455
O0 V1 1.939775 1_555
O0 V6 2.091205 1_555
O1 V3 1.760949 1_655
O1 V0 1.941663 1_555
O1 V7 2.096130 1_555
O2 V2 1.871218 1_555
O2 V4 1.927033 1_555
O2 V8 1.975959 1_655
O3 V3 1.869875 1_555
O3 V5 1.928997 1_555
O3 V8 1.978235 1_556
O4 V6 1.868636 1_555
O4 V5 1.905461 1_554
O4 V9 1.972866 1_554
O5 V7 1.868426 1_555
O5 V4 1.905738 1_556
O5 V9 1.974584 1_465
O6 V7 1.865541 1_555
O6 V9 1.928326 1_565
O6 V8 1.944904 1_656
O7 V6 1.865827 1_555
O7 V9 1.926918 1_454
O7 V8 1.944661 1_555
O8 V4 1.866506 1_555
O8 V6 1.898480 1_555
O8 V8 1.964154 1_555
O9 V5 1.868614 1_555
O9 V7 1.898073 1_555
O9 V8 1.965045 1_656
O10 V3 1.965800 1_555
O10 V1 1.983880 1_555
O10 V4 2.075496 1_555
O10 V2 2.127071 1_555
O11 V2 1.965481 1_555
O11 V0 1.983171 1_555
O11 V5 2.076598 1_555
O11 V3 2.131442 1_555
O12 V1 1.785956 1_555
O12 V9 1.972946 1_455
O12 V5 1.987030 1_455
O13 V0 1.779468 1_555
O13 V9 1.982745 1_564
O13 V4 1.991951 1_655
O14 V2 1.968461 1_555
O14 V0 1.977845 1_545
O14 V6 2.044411 1_555
O14 V1 2.116300 1_555
O15 V3 1.966835 1_555
O15 V1 1.976981 1_565
O15 V7 2.043501 1_555
O15 V0 2.120784 1_555
O16 V0 2.021022 1_555
O16 V6 2.029411 1_565
O16 V4 2.071995 1_555
O16 V3 2.109532 1_555
O17 V1 2.025055 1_555
O17 V7 2.026370 1_545
O17 V5 2.072438 1_555
O17 V2 2.109700 1_555
