# generated using pymatgen
data_La9(SbO)5
_symmetry_space_group_name_H-M   'P 1'
_cell_length_a   10.45668731
_cell_length_b   10.45668731
_cell_length_c   9.38913075
_cell_angle_alpha   90.00000000
_cell_angle_beta   90.00000000
_cell_angle_gamma   90.00000000
_symmetry_Int_Tables_number   1
_chemical_formula_structural   La9(SbO)5
_chemical_formula_sum   'La18 Sb10 O10'
_cell_volume   1026.62924039
_cell_formula_units_Z   2
loop_
 _symmetry_equiv_pos_site_id
 _symmetry_equiv_pos_as_xyz
  1  'x, y, z'
loop_
 _atom_site_type_symbol
 _atom_site_label
 _atom_site_symmetry_multiplicity
 _atom_site_fract_x
 _atom_site_fract_y
 _atom_site_fract_z
 _atom_site_occupancy
  La  La0  1  0.00000000  0.50000000  0.32949086  1
  La  La1  1  0.50000000  0.00000000  0.67050914  1
  La  La2  1  0.79658457  0.10369161  0.34304957  1
  La  La3  1  0.60369161  0.70341543  0.34304957  1
  La  La4  1  0.39630839  0.29658457  0.34304957  1
  La  La5  1  0.20341543  0.89630839  0.34304957  1
  La  La6  1  0.70341543  0.39630839  0.65695043  1
  La  La7  1  0.89630839  0.79658457  0.65695043  1
  La  La8  1  0.10369161  0.20341543  0.65695043  1
  La  La9  1  0.29658457  0.60369161  0.65695043  1
  La  La10  1  0.08058352  0.72779662  0.99787563  1
  La  La11  1  0.22779662  0.41941648  0.99787563  1
  La  La12  1  0.77220338  0.58058352  0.99787563  1
  La  La13  1  0.91941648  0.27220338  0.99787563  1
  La  La14  1  0.41941648  0.77220338  0.00212437  1
  La  La15  1  0.27220338  0.08058352  0.00212437  1
  La  La16  1  0.72779662  0.91941648  0.00212437  1
  La  La17  1  0.58058352  0.22779662  0.00212437  1
  Sb  Sb0  1  0.00000000  0.50000000  0.68993537  1
  Sb  Sb1  1  0.50000000  0.00000000  0.31006463  1
  Sb  Sb2  1  0.69729058  0.40263878  0.29804506  1
  Sb  Sb3  1  0.90263878  0.80270942  0.29804506  1
  Sb  Sb4  1  0.09736122  0.19729058  0.29804506  1
  Sb  Sb5  1  0.30270942  0.59736122  0.29804506  1
  Sb  Sb6  1  0.80270942  0.09736122  0.70195494  1
  Sb  Sb7  1  0.59736122  0.69729058  0.70195494  1
  Sb  Sb8  1  0.40263878  0.30270942  0.70195494  1
  Sb  Sb9  1  0.19729058  0.90263878  0.70195494  1
  O  O0  1  0.00000000  0.50000000  0.07281833  1
  O  O1  1  0.50000000  0.00000000  0.92718167  1
  O  O2  1  0.87885872  0.77578885  0.90980302  1
  O  O3  1  0.27578885  0.62114128  0.90980302  1
  O  O4  1  0.72421115  0.37885872  0.90980302  1
  O  O5  1  0.12114128  0.22421115  0.90980302  1
  O  O6  1  0.62114128  0.72421115  0.09019698  1
  O  O7  1  0.22421115  0.87885872  0.09019698  1
  O  O8  1  0.77578885  0.12114128  0.09019698  1
  O  O9  1  0.37885872  0.27578885  0.09019698  1
loop_
_geom_bond_atom_site_label_1
_geom_bond_atom_site_label_2
_geom_bond_distance
_geom_bond_site_symmetry_2
La0 O0 2.409932 1_555
La0 Sb2 3.338115 1_455
La0 Sb5 3.338115 1_555
La0 Sb3 3.338115 1_455
La0 Sb4 3.338115 1_555
La0 Sb0 3.384261 1_555
La1 O1 2.409932 1_555
La1 Sb6 3.338115 1_555
La1 Sb9 3.338115 1_545
La1 Sb7 3.338115 1_545
La1 Sb8 3.338115 1_555
La1 Sb1 3.384261 1_555
La2 O8 2.390977 1_555
La2 Sb1 3.299935 1_555
La2 Sb4 3.320888 1_655
La2 Sb2 3.320911 1_555
La2 Sb3 3.363589 1_545
La2 Sb6 3.371068 1_555
La3 O6 2.390977 1_555
La3 Sb1 3.299935 1_565
La3 Sb2 3.320888 1_555
La3 Sb3 3.320911 1_555
La3 Sb5 3.363589 1_555
La3 Sb7 3.371068 1_555
La4 O9 2.390977 1_555
La4 Sb1 3.299935 1_555
La4 Sb5 3.320888 1_555
La4 Sb4 3.320911 1_555
La4 Sb2 3.363589 1_555
La4 Sb8 3.371068 1_555
La5 O7 2.390977 1_555
La5 Sb1 3.299935 1_565
La5 Sb3 3.320888 1_455
La5 Sb5 3.320911 1_555
La5 Sb4 3.363589 1_565
La5 Sb9 3.371068 1_555
La6 O4 2.390977 1_555
La6 Sb0 3.299935 1_655
La6 Sb8 3.320888 1_555
La6 Sb6 3.320911 1_555
La6 Sb7 3.363589 1_555
La6 Sb2 3.371068 1_555
La7 O2 2.390977 1_555
La7 Sb0 3.299935 1_655
La7 Sb6 3.320888 1_565
La7 Sb7 3.320911 1_555
La7 Sb9 3.363589 1_655
La7 Sb3 3.371068 1_555
La8 O5 2.390977 1_555
La8 Sb0 3.299935 1_555
La8 Sb9 3.320888 1_545
La8 Sb8 3.320911 1_555
La8 Sb6 3.363589 1_455
La8 Sb4 3.371068 1_555
La9 O3 2.390977 1_555
La9 Sb0 3.299935 1_555
La9 Sb7 3.320888 1_555
La9 Sb9 3.320911 1_555
La9 Sb8 3.363589 1_555
La9 Sb5 3.371068 1_555
La10 O2 2.320583 1_455
La10 O7 2.345666 1_556
La10 O3 2.468626 1_555
La10 O0 2.622798 1_556
La10 Sb3 3.466822 1_456
La10 Sb9 3.542822 1_555
La11 O3 2.320583 1_555
La11 O9 2.345666 1_556
La11 O5 2.468626 1_555
La11 O0 2.622798 1_556
La11 Sb5 3.466822 1_556
La11 Sb8 3.542822 1_555
La12 O4 2.320583 1_555
La12 O6 2.345666 1_556
La12 O2 2.468626 1_555
La12 O0 2.622798 1_656
La12 Sb2 3.466822 1_556
La12 Sb7 3.542822 1_555
La13 O5 2.320583 1_655
La13 O8 2.345666 1_556
La13 O4 2.468626 1_555
La13 O0 2.622798 1_656
La13 Sb4 3.466822 1_656
La13 Sb6 3.542822 1_555
La14 O6 2.320583 1_555
La14 O3 2.345666 1_554
La14 O7 2.468626 1_555
La14 O1 2.622798 1_564
La14 Sb7 3.466822 1_554
La14 Sb5 3.542822 1_555
La15 O7 2.320583 1_545
La15 O5 2.345666 1_554
La15 O9 2.468626 1_555
La15 O1 2.622798 1_554
La15 Sb9 3.466822 1_544
La15 Sb4 3.542822 1_555
La16 O8 2.320583 1_565
La16 O2 2.345666 1_554
La16 O6 2.468626 1_555
La16 O1 2.622798 1_564
La16 Sb6 3.466822 1_564
La16 Sb3 3.542822 1_555
La17 O9 2.320583 1_555
La17 O4 2.345666 1_554
La17 O8 2.468626 1_555
La17 O1 2.622798 1_554
La17 Sb8 3.466822 1_554
La17 Sb2 3.542822 1_555
