# generated using pymatgen
data_Pr3Si2ClO8
_symmetry_space_group_name_H-M   'P 1'
_cell_length_a   7.82721017
_cell_length_b   7.82721017
_cell_length_c   8.82315984
_cell_angle_alpha   82.42510659
_cell_angle_beta   82.42510659
_cell_angle_gamma   48.75989170
_symmetry_Int_Tables_number   1
_chemical_formula_structural   Pr3Si2ClO8
_chemical_formula_sum   'Pr6 Si4 Cl2 O16'
_cell_volume   402.19113939
_cell_formula_units_Z   2
loop_
 _symmetry_equiv_pos_site_id
 _symmetry_equiv_pos_as_xyz
  1  'x, y, z'
loop_
 _atom_site_type_symbol
 _atom_site_label
 _atom_site_symmetry_multiplicity
 _atom_site_fract_x
 _atom_site_fract_y
 _atom_site_fract_z
 _atom_site_occupancy
  Pr  Pr0  1  0.70869420  0.91977508  0.17147104  1
  Pr  Pr1  1  0.91977508  0.70869420  0.67147104  1
  Pr  Pr2  1  0.57293416  0.42706584  0.75000000  1
  Pr  Pr3  1  0.29130580  0.08022492  0.82852896  1
  Pr  Pr4  1  0.08022492  0.29130580  0.32852896  1
  Pr  Pr5  1  0.42706584  0.57293416  0.25000000  1
  Si  Si0  1  0.39552788  0.28787909  0.52586640  1
  Si  Si1  1  0.60447212  0.71212091  0.47413360  1
  Si  Si2  1  0.71212091  0.60447212  0.97413360  1
  Si  Si3  1  0.28787909  0.39552788  0.02586640  1
  Cl  Cl0  1  0.02497107  0.97502893  0.75000000  1
  Cl  Cl1  1  0.97502893  0.02497107  0.25000000  1
  O  O0  1  0.76712975  0.54178618  0.15350541  1
  O  O1  1  0.23287025  0.45821382  0.84649459  1
  O  O2  1  0.70299095  0.81924998  0.91874790  1
  O  O3  1  0.54763215  0.29698882  0.03312296  1
  O  O4  1  0.18075002  0.29700905  0.58125210  1
  O  O5  1  0.54178618  0.76712975  0.65350541  1
  O  O6  1  0.59203681  0.11800114  0.64550317  1
  O  O7  1  0.29700905  0.18075002  0.08125210  1
  O  O8  1  0.81924998  0.70299095  0.41874790  1
  O  O9  1  0.40796319  0.88199886  0.35449683  1
  O  O10  1  0.45821382  0.23287025  0.34649459  1
  O  O11  1  0.70301118  0.45236785  0.46687704  1
  O  O12  1  0.11800114  0.59203681  0.14550317  1
  O  O13  1  0.88199886  0.40796319  0.85449683  1
  O  O14  1  0.29698882  0.54763215  0.53312296  1
  O  O15  1  0.45236785  0.70301118  0.96687704  1
loop_
_geom_bond_atom_site_label_1
_geom_bond_atom_site_label_2
_geom_bond_distance
_geom_bond_site_symmetry_2
Cl0 Pr3 2.880649 1_565
Cl0 Pr1 2.880649 1_455
Cl0 Pr2 2.921026 1_465
Cl1 Pr4 2.880649 1_655
Cl1 Pr0 2.880649 1_545
Cl1 Pr5 2.921026 1_645
O0 Si2 1.620874 1_554
O0 Pr4 2.469653 1_655
O0 Pr5 2.543796 1_555
O0 Pr0 2.703336 1_555
O1 Si3 1.620874 1_556
O1 Pr1 2.469653 1_455
O1 Pr2 2.543796 1_555
O1 Pr3 2.703336 1_555
O2 Si2 1.644468 1_555
O2 Pr1 2.444163 1_555
O2 Pr0 2.475539 1_556
O2 Pr3 2.599817 1_565
O3 Si3 1.639045 1_555
O3 Pr0 2.518900 1_545
O3 Pr2 2.604017 1_554
O3 Pr5 2.672737 1_555
O4 Si0 1.644468 1_555
O4 Pr3 2.444163 1_555
O4 Pr4 2.475539 1_555
O4 Pr1 2.599817 1_455
O5 Si1 1.620874 1_555
O5 Pr3 2.469653 1_565
O5 Pr2 2.543796 1_555
O5 Pr1 2.703336 1_555
O6 Si0 1.615435 1_555
O6 Pr1 2.454178 1_545
O6 Pr2 2.607555 1_555
O6 Pr3 2.832944 1_555
O7 Si3 1.644468 1_555
O7 Pr4 2.444163 1_555
O7 Pr3 2.475539 1_554
O7 Pr0 2.599817 1_545
O8 Si1 1.644468 1_555
O8 Pr0 2.444163 1_555
O8 Pr1 2.475539 1_555
O8 Pr4 2.599817 1_655
O9 Si1 1.615435 1_555
O9 Pr4 2.454178 1_565
O9 Pr5 2.607555 1_555
O9 Pr0 2.832944 1_555
O10 Si0 1.620874 1_555
O10 Pr0 2.469653 1_545
O10 Pr5 2.543796 1_555
O10 Pr4 2.703336 1_555
O11 Si1 1.639045 1_555
O11 Pr4 2.518900 1_655
O11 Pr2 2.604017 1_555
O11 Pr5 2.672737 1_555
O12 Si3 1.615435 1_555
O12 Pr0 2.454178 1_455
O12 Pr5 2.607555 1_555
O12 Pr4 2.832944 1_555
O13 Si2 1.615435 1_555
O13 Pr3 2.454178 1_655
O13 Pr2 2.607555 1_555
O13 Pr1 2.832944 1_555
O14 Si0 1.639045 1_555
O14 Pr1 2.518900 1_455
O14 Pr5 2.604017 1_555
O14 Pr2 2.672737 1_555
O15 Si2 1.639045 1_555
O15 Pr3 2.518900 1_565
O15 Pr5 2.604017 1_556
O15 Pr2 2.672737 1_555
