# generated using pymatgen
data_KNaS2O7
_symmetry_space_group_name_H-M   'P 1'
_cell_length_a   5.98786500
_cell_length_b   7.34751003
_cell_length_c   7.59667802
_cell_angle_alpha   101.50331833
_cell_angle_beta   90.12624170
_cell_angle_gamma   94.39604391
_symmetry_Int_Tables_number   1
_chemical_formula_structural   KNaS2O7
_chemical_formula_sum   'K2 Na2 S4 O14'
_cell_volume   326.49335603
_cell_formula_units_Z   2
loop_
 _symmetry_equiv_pos_site_id
 _symmetry_equiv_pos_as_xyz
  1  'x, y, z'
loop_
 _atom_site_type_symbol
 _atom_site_label
 _atom_site_symmetry_multiplicity
 _atom_site_fract_x
 _atom_site_fract_y
 _atom_site_fract_z
 _atom_site_occupancy
  K  K0  1  0.22554300  0.77672400  0.43131600  1
  K  K1  1  0.77445700  0.22327600  0.56868400  1
  Na  Na0  1  0.20814100  0.64433700  0.89792200  1
  Na  Na1  1  0.79185900  0.35566300  0.10207800  1
  S  S0  1  0.71632300  0.72507000  0.69743000  1
  S  S1  1  0.72429100  0.82611300  0.09805500  1
  S  S2  1  0.27570900  0.17388700  0.90194500  1
  S  S3  1  0.28367700  0.27493000  0.30257000  1
  O  O0  1  0.73882700  0.87633000  0.89256000  1
  O  O1  1  0.50021200  0.26131500  0.88749900  1
  O  O2  1  0.90075000  0.69946800  0.10752100  1
  O  O3  1  0.50323600  0.37636300  0.30728700  1
  O  O4  1  0.26117300  0.12367000  0.10744000  1
  O  O5  1  0.49978800  0.73868500  0.11250100  1
  O  O6  1  0.09925000  0.30053200  0.89247900  1
  O  O7  1  0.49676400  0.62363700  0.69271300  1
  O  O8  1  0.09747700  0.39373800  0.30549000  1
  O  O9  1  0.26020700  0.14904600  0.42806900  1
  O  O10  1  0.23199800  0.98809100  0.79467200  1
  O  O11  1  0.73979300  0.85095400  0.57193100  1
  O  O12  1  0.90252300  0.60626200  0.69451000  1
  O  O13  1  0.76800200  0.01190900  0.20532800  1
loop_
_geom_bond_atom_site_label_1
_geom_bond_atom_site_label_2
_geom_bond_distance
_geom_bond_site_symmetry_2
K0 O9 2.732637 1_565
K0 O8 2.830799 1_555
K0 O10 2.883254 1_555
K0 O5 2.908335 1_555
K0 O7 3.000429 1_555
K0 O2 3.067208 1_455
K0 O11 3.150084 1_455
K0 O12 3.154660 1_455
K0 O11 3.227390 1_555
K1 O11 2.732637 1_545
K1 O12 2.830799 1_555
K1 O13 2.883254 1_555
K1 O1 2.908335 1_555
K1 O3 3.000429 1_555
K1 O6 3.067208 1_655
K1 O9 3.150084 1_655
K1 O8 3.154660 1_655
K1 O9 3.227390 1_555
Na0 O7 2.323300 1_555
Na0 O5 2.353427 1_556
Na0 O12 2.356186 1_455
Na0 O2 2.440736 1_456
Na0 O6 2.552215 1_555
Na0 O10 2.783936 1_555
Na1 O3 2.323300 1_555
Na1 O1 2.353427 1_554
Na1 O8 2.356186 1_655
Na1 O6 2.440736 1_654
Na1 O2 2.552215 1_555
Na1 O13 2.783936 1_555
O0 S0 1.664254 1_555
O0 S1 1.675140 1_556
O1 S2 1.458836 1_555
O2 S1 1.471244 1_555
O3 S3 1.457419 1_555
O4 S3 1.664254 1_555
O4 S2 1.675140 1_554
O5 S1 1.458836 1_555
O6 S2 1.471244 1_555
O7 S0 1.457419 1_555
O8 S3 1.465334 1_555
O9 S3 1.454837 1_555
O10 S2 1.448024 1_565
O11 S0 1.454837 1_555
O12 S0 1.465334 1_555
O13 S1 1.448024 1_545
