# generated using pymatgen
data_Ba5Mg18Si13
_symmetry_space_group_name_H-M   'P 1'
_cell_length_a   14.52060782
_cell_length_b   14.52060300
_cell_length_c   4.49941209
_cell_angle_alpha   89.99999731
_cell_angle_beta   89.99999864
_cell_angle_gamma   120.00126285
_symmetry_Int_Tables_number   1
_chemical_formula_structural   Ba5Mg18Si13
_chemical_formula_sum   'Ba5 Mg18 Si13'
_cell_volume   821.58087994
_cell_formula_units_Z   1
loop_
 _symmetry_equiv_pos_site_id
 _symmetry_equiv_pos_as_xyz
  1  'x, y, z'
loop_
 _atom_site_type_symbol
 _atom_site_label
 _atom_site_symmetry_multiplicity
 _atom_site_fract_x
 _atom_site_fract_y
 _atom_site_fract_z
 _atom_site_occupancy
  Ba  Ba0  1  0.00000201  0.81953883  0.50000002  1
  Ba  Ba1  1  0.18045855  0.18045879  0.49999989  1
  Ba  Ba2  1  0.81953961  0.00000242  0.49999983  1
  Ba  Ba3  1  0.66666566  0.33333699  -0.00000020  1
  Ba  Ba4  1  0.33333769  0.66666628  -0.00000004  1
  Mg  Mg0  1  0.17730135  0.37236564  -0.00000003  1
  Mg  Mg1  1  0.80494472  0.62765742  0.00000001  1
  Mg  Mg2  1  0.37236579  0.17730180  -0.00000006  1
  Mg  Mg3  1  0.82270700  0.19505983  -0.00000010  1
  Mg  Mg4  1  0.19505974  0.82270760  0.00000013  1
  Mg  Mg5  1  0.27803091  0.00000061  0.49999983  1
  Mg  Mg6  1  0.72198285  0.72198271  0.49999992  1
  Mg  Mg7  1  0.00000038  0.27803162  0.49999998  1
  Mg  Mg8  1  0.87765507  0.51582909  0.50000007  1
  Mg  Mg9  1  0.63816880  0.12234346  0.50000051  1
  Mg  Mg10  1  0.48416700  0.36182566  0.49999942  1
  Mg  Mg11  1  0.36182535  0.48416634  0.50000086  1
  Mg  Mg12  1  0.12234436  0.63816992  0.50000055  1
  Mg  Mg13  1  0.51582986  0.87765528  0.49999990  1
  Mg  Mg14  1  0.44124187  -0.00004726  -0.00000016  1
  Mg  Mg15  1  0.55873076  0.55873070  -0.00000023  1
  Mg  Mg16  1  -0.00004761  0.44124186  -0.00000001  1
  Mg  Mg17  1  0.62765827  0.80494496  -0.00000004  1
  Si  Si0  1  0.30728156  0.83301724  0.49999996  1
  Si  Si1  1  0.47425725  0.16697863  0.49999993  1
  Si  Si2  1  0.69272414  0.52574817  0.50000000  1
  Si  Si3  1  0.52574849  0.69272377  0.49999999  1
  Si  Si4  1  0.16697814  0.47425724  0.50000000  1
  Si  Si5  1  0.00000191  0.00000197  -0.00000021  1
  Si  Si6  1  0.16626085  0.00000226  -0.00000005  1
  Si  Si7  1  0.83374849  0.83374838  -0.00000007  1
  Si  Si8  1  0.00000230  0.16626108  -0.00000009  1
  Si  Si9  1  0.62779849  0.00000506  0.00000014  1
  Si  Si10  1  0.37220500  0.37220489  0.00000018  1
  Si  Si11  1  0.00000493  0.62779829  0.00000018  1
  Si  Si12  1  0.83301843  0.30728246  0.50000000  1
loop_
_geom_bond_atom_site_label_1
_geom_bond_atom_site_label_2
_geom_bond_distance
_geom_bond_site_symmetry_2
Ba0 Si6 3.380782 1_566
Ba0 Si6 3.380782 1_565
Ba0 Si7 3.380793 1_456
Ba0 Si7 3.380794 1_455
Ba0 Si5 3.453672 1_566
Ba0 Si5 3.453673 1_565
Ba0 Mg6 3.547559 1_455
Ba0 Mg5 3.547638 1_565
Ba0 Si11 3.579525 1_555
Ba0 Si11 3.579525 1_556
Ba0 Mg1 3.599249 1_456
Ba0 Mg1 3.599249 1_455
Ba0 Mg4 3.599334 1_555
Ba0 Mg4 3.599335 1_556
Ba0 Mg8 3.843135 1_455
Ba0 Mg12 3.843225 1_555
Ba1 Si8 3.380770 1_555
Ba1 Si8 3.380770 1_556
Ba1 Si6 3.380772 1_555
Ba1 Si6 3.380772 1_556
Ba1 Si5 3.453563 1_556
Ba1 Si5 3.453564 1_555
Ba1 Mg5 3.547723 1_555
Ba1 Mg7 3.547729 1_555
Ba1 Si10 3.579531 1_555
Ba1 Si10 3.579533 1_556
Ba1 Mg0 3.599471 1_555
Ba1 Mg0 3.599471 1_556
Ba1 Mg2 3.599475 1_555
Ba1 Mg2 3.599475 1_556
Ba1 Mg11 3.843097 1_555
Ba1 Mg10 3.843109 1_555
Ba2 Si8 3.380776 1_655
Ba2 Si8 3.380777 1_656
Ba2 Si7 3.380794 1_545
Ba2 Si7 3.380794 1_546
Ba2 Si5 3.453666 1_656
Ba2 Si5 3.453666 1_655
Ba2 Mg6 3.547563 1_545
Ba2 Mg7 3.547638 1_655
Ba2 Si9 3.579530 1_555
Ba2 Si9 3.579532 1_556
Ba2 Mg17 3.599249 1_545
Ba2 Mg17 3.599250 1_546
Ba2 Mg3 3.599338 1_555
Ba2 Mg3 3.599338 1_556
Ba2 Mg13 3.843136 1_545
Ba2 Mg9 3.843236 1_555
Ba3 Si1 3.457308 1_554
Ba3 Si1 3.457309 1_555
Ba3 Si12 3.457319 1_554
Ba3 Si12 3.457320 1_555
Ba3 Si2 3.457333 1_554
Ba3 Si2 3.457334 1_555
Ba3 Mg8 3.653842 1_554
Ba3 Mg8 3.653844 1_555
Ba3 Mg10 3.653905 1_555
Ba3 Mg10 3.653907 1_554
Ba3 Mg9 3.653925 1_554
Ba3 Mg9 3.653929 1_555
Ba3 Mg2 3.703083 1_555
Ba3 Mg1 3.703343 1_555
Ba3 Mg3 3.703388 1_555
Ba4 Si0 3.457310 1_554
Ba4 Si0 3.457310 1_555
Ba4 Si4 3.457318 1_555
Ba4 Si4 3.457318 1_554
Ba4 Si3 3.457334 1_554
Ba4 Si3 3.457335 1_555
Ba4 Mg13 3.653840 1_555
Ba4 Mg13 3.653840 1_554
Ba4 Mg11 3.653910 1_554
Ba4 Mg11 3.653915 1_555
Ba4 Mg12 3.653926 1_554
Ba4 Mg12 3.653929 1_555
Ba4 Mg0 3.703091 1_555
Ba4 Mg17 3.703347 1_555
Ba4 Mg4 3.703397 1_555
Mg0 Si4 2.737597 1_554
Mg0 Si4 2.737597 1_555
Mg0 Si8 2.807044 1_555
Mg0 Si10 2.831287 1_555
Mg1 Si2 2.737668 1_555
Mg1 Si2 2.737668 1_554
Mg1 Si7 2.806901 1_555
Mg1 Si11 2.831371 1_655
Mg2 Si1 2.737596 1_555
Mg2 Si1 2.737596 1_554
Mg2 Si6 2.807050 1_555
Mg2 Si10 2.831279 1_555
Mg3 Si12 2.737699 1_554
Mg3 Si12 2.737700 1_555
Mg3 Si8 2.806990 1_655
Mg3 Si9 2.831198 1_555
Mg4 Si0 2.737699 1_555
Mg4 Si0 2.737700 1_554
Mg4 Si6 2.806982 1_565
Mg4 Si11 2.831204 1_555
Mg5 Si1 2.662451 1_555
Mg5 Si0 2.662605 1_545
Mg5 Si6 2.774030 1_555
Mg5 Si6 2.774031 1_556
Mg6 Si3 2.662550 1_555
Mg6 Si2 2.662553 1_555
Mg6 Si7 2.773968 1_555
Mg6 Si7 2.773968 1_556
Mg7 Si4 2.662443 1_555
Mg7 Si12 2.662587 1_455
Mg7 Si8 2.774035 1_556
Mg7 Si8 2.774036 1_555
Mg8 Si2 2.760148 1_555
Mg8 Si12 2.761777 1_555
Mg8 Si11 2.823522 1_655
Mg8 Si11 2.823523 1_656
Mg9 Si12 2.760143 1_555
Mg9 Si1 2.761810 1_555
Mg9 Si9 2.823478 1_556
Mg9 Si9 2.823481 1_555
Mg10 Si1 2.760160 1_555
Mg10 Si2 2.761900 1_555
Mg10 Si10 2.823472 1_555
Mg10 Si10 2.823477 1_556
Mg11 Si4 2.760168 1_555
Mg11 Si3 2.761905 1_555
Mg11 Si10 2.823469 1_556
Mg11 Si10 2.823474 1_555
Mg12 Si0 2.760113 1_555
Mg12 Si4 2.761812 1_555
Mg12 Si11 2.823482 1_556
Mg12 Si11 2.823485 1_555
Mg13 Si3 2.760152 1_555
Mg13 Si0 2.761795 1_555
Mg13 Si9 2.823519 1_565
Mg13 Si9 2.823521 1_566
Mg14 Si9 2.708536 1_555
Mg14 Si0 3.163131 1_544
Mg14 Si0 3.163132 1_545
Mg14 Si1 3.163924 1_554
Mg14 Si1 3.163925 1_555
Mg15 Si10 2.708416 1_555
Mg15 Si3 3.163541 1_554
Mg15 Si3 3.163542 1_555
Mg15 Si2 3.163546 1_554
Mg15 Si2 3.163547 1_555
Mg16 Si11 2.708530 1_555
Mg16 Si12 3.163118 1_455
Mg16 Si12 3.163119 1_454
Mg16 Si4 3.163923 1_554
Mg16 Si4 3.163923 1_555
Mg17 Si3 2.737673 1_554
Mg17 Si3 2.737673 1_555
Mg17 Si7 2.806893 1_555
Mg17 Si9 2.831373 1_565
Si5 Si7 2.414055 1_445
Si5 Si6 2.414179 1_555
Si5 Si8 2.414180 1_555
