# generated using pymatgen
data_Al3Pb5F19
_symmetry_space_group_name_H-M   'P 1'
_cell_length_a   7.32981700
_cell_length_b   10.83475515
_cell_length_c   10.84609264
_cell_angle_alpha   83.98425980
_cell_angle_beta   109.38016718
_cell_angle_gamma   108.86411970
_symmetry_Int_Tables_number   1
_chemical_formula_structural   Al3Pb5F19
_chemical_formula_sum   'Al6 Pb10 F38'
_cell_volume   768.90791612
_cell_formula_units_Z   2
loop_
 _symmetry_equiv_pos_site_id
 _symmetry_equiv_pos_as_xyz
  1  'x, y, z'
loop_
 _atom_site_type_symbol
 _atom_site_label
 _atom_site_symmetry_multiplicity
 _atom_site_fract_x
 _atom_site_fract_y
 _atom_site_fract_z
 _atom_site_occupancy
  Al  Al0  1  0.24628000  0.00083600  0.99760900  1
  Al  Al1  1  0.67355100  0.51689400  0.82992300  1
  Al  Al2  1  0.83469800  0.16784100  0.51758500  1
  Al  Al3  1  0.32644900  0.48310600  0.17007700  1
  Al  Al4  1  0.75372000  0.99916400  0.00239100  1
  Al  Al5  1  0.16530200  0.83215900  0.48241500  1
  Pb  Pb0  1  0.76100700  0.53966600  0.47783300  1
  Pb  Pb1  1  0.72092700  0.27950100  0.16042700  1
  Pb  Pb2  1  0.07665500  0.32572200  0.84178500  1
  Pb  Pb3  1  0.24929000  0.15737300  0.32437200  1
  Pb  Pb4  1  0.75071000  0.84262700  0.67562800  1
  Pb  Pb5  1  0.43952000  0.15521500  0.72407800  1
  Pb  Pb6  1  0.27907300  0.72049900  0.83957300  1
  Pb  Pb7  1  0.92334500  0.67427800  0.15821500  1
  Pb  Pb8  1  0.56048000  0.84478500  0.27592200  1
  Pb  Pb9  1  0.23899300  0.46033400  0.52216700  1
  F  F0  1  0.40727100  0.28699800  0.54029900  1
  F  F1  1  0.06759500  0.16510100  0.64941000  1
  F  F2  1  0.75977500  0.38569200  0.80080600  1
  F  F3  1  0.90455700  0.34080300  0.56239800  1
  F  F4  1  0.27470500  0.51986000  0.99577000  1
  F  F5  1  0.69901800  0.83441700  0.06792500  1
  F  F6  1  0.79378000  0.16348100  0.93647700  1
  F  F7  1  0.63419300  0.93307500  0.83802100  1
  F  F8  1  0.24022500  0.61430800  0.19919400  1
  F  F9  1  0.72529500  0.48014000  0.00423000  1
  F  F10  1  0.20622000  0.83651900  0.06352300  1
  F  F11  1  0.76618400  0.99568300  0.47908400  1
  F  F12  1  0.09544300  0.65919700  0.43760200  1
  F  F13  1  0.59272900  0.71300200  0.45970100  1
  F  F14  1  0.36580700  0.06692500  0.16197900  1
  F  F15  1  0.12690700  0.53743500  0.70690100  1
  F  F16  1  0.61767500  0.55865500  0.65364300  1
  F  F17  1  0.07675000  0.36270400  0.14020600  1
  F  F18  1  0.38232500  0.44134500  0.34635700  1
  F  F19  1  0.98123900  0.22311200  0.40052000  1
  F  F20  1  0.23381600  0.00431700  0.52091600  1
  F  F21  1  0.61700400  0.19114800  0.38517200  1
  F  F22  1  0.87309300  0.46256500  0.29309900  1
  F  F23  1  0.00000000  0.00000000  0.00000000  1
  F  F24  1  0.42269900  0.35148500  0.15528100  1
  F  F25  1  0.92325000  0.63729600  0.85979400  1
  F  F26  1  0.85952900  0.06467000  0.16818300  1
  F  F27  1  0.93240500  0.83489900  0.35059000  1
  F  F28  1  0.41379000  0.39733000  0.78346600  1
  F  F29  1  0.30084400  0.87621700  0.36335400  1
  F  F30  1  0.69915600  0.12378300  0.63664600  1
  F  F31  1  0.58621000  0.60267000  0.21653400  1
  F  F32  1  0.38299600  0.80885200  0.61482800  1
  F  F33  1  0.50000000  0.00000000  0.00000000  1
  F  F34  1  0.57730100  0.64851500  0.84471900  1
  F  F35  1  0.14047100  0.93533000  0.83181700  1
  F  F36  1  0.30098200  0.16558300  0.93207500  1
  F  F37  1  0.01876100  0.77688800  0.59948000  1
loop_
_geom_bond_atom_site_label_1
_geom_bond_atom_site_label_2
_geom_bond_distance
_geom_bond_site_symmetry_2
Al0 F23 1.811050 1_556
Al0 F14 1.812153 1_556
Al0 F10 1.816976 1_546
Al0 F36 1.820051 1_555
Al0 F35 1.823386 1_545
Al0 F33 1.854226 1_556
Al1 F25 1.818700 1_555
Al1 F2 1.824135 1_555
Al1 F34 1.825070 1_555
Al1 F9 1.827730 1_556
Al1 F16 1.856565 1_555
Al1 F28 1.860757 1_555
Al2 F30 1.816055 1_555
Al2 F11 1.823246 1_545
Al2 F21 1.826506 1_555
Al2 F1 1.833941 1_655
Al2 F3 1.848119 1_555
Al2 F19 1.858569 1_555
Al3 F17 1.818700 1_555
Al3 F8 1.824135 1_555
Al3 F24 1.825070 1_555
Al3 F4 1.827730 1_554
Al3 F18 1.856565 1_555
Al3 F31 1.860757 1_555
Al4 F23 1.811050 1_665
Al4 F7 1.812153 1_554
Al4 F6 1.816976 1_564
Al4 F5 1.820051 1_555
Al4 F26 1.823386 1_565
Al4 F33 1.854226 1_565
Al5 F29 1.816055 1_555
Al5 F20 1.823246 1_565
Al5 F32 1.826506 1_555
Al5 F27 1.833941 1_455
Al5 F12 1.848119 1_555
Al5 F37 1.858569 1_555
F0 Pb5 2.318787 1_555
F0 Pb9 2.519266 1_555
F0 Pb3 2.576069 1_555
F1 Pb5 2.608562 1_555
F2 Pb2 2.498958 1_655
F3 Pb9 2.532845 1_655
F3 Pb0 2.646150 1_555
F4 Pb2 2.544384 1_555
F4 Pb6 2.610724 1_555
F5 Pb7 2.663298 1_555
F6 Pb2 2.668685 1_655
F7 Pb4 2.587157 1_555
F8 Pb7 2.498958 1_455
F9 Pb7 2.544384 1_555
F9 Pb1 2.610724 1_555
F10 Pb7 2.668685 1_455
F11 Pb4 2.570032 1_555
F11 Pb8 2.599609 1_555
F12 Pb0 2.532845 1_455
F12 Pb9 2.646150 1_555
F13 Pb8 2.318787 1_555
F13 Pb0 2.519266 1_555
F13 Pb4 2.576069 1_555
F14 Pb3 2.587157 1_555
F15 Pb6 2.313280 1_555
F15 Pb2 2.577905 1_555
F15 Pb9 2.697133 1_555
F16 Pb0 2.516689 1_555
F16 Pb9 2.579171 1_555
F17 Pb1 2.545751 1_455
F18 Pb9 2.516689 1_555
F18 Pb0 2.579171 1_555
F19 Pb3 2.674872 1_655
F20 Pb3 2.570032 1_555
F20 Pb5 2.599609 1_555
F21 Pb3 2.463022 1_555
F22 Pb1 2.313280 1_555
F22 Pb7 2.577905 1_555
F22 Pb0 2.697133 1_555
F24 Pb1 2.530253 1_555
F25 Pb6 2.545751 1_655
F26 Pb3 2.707309 1_655
F27 Pb8 2.608562 1_555
F28 Pb2 2.608311 1_555
F29 Pb8 2.514256 1_555
F30 Pb5 2.514256 1_555
F31 Pb7 2.608311 1_555
F32 Pb4 2.463022 1_555
F34 Pb6 2.530253 1_555
F35 Pb4 2.707309 1_455
F36 Pb2 2.663298 1_555
F37 Pb4 2.674872 1_455
