# generated using pymatgen
data_Cs3Ti2Cl9
_symmetry_space_group_name_H-M   'P 1'
_cell_length_a   7.37346492
_cell_length_b   7.36934408
_cell_length_c   17.96458542
_cell_angle_alpha   89.99396055
_cell_angle_beta   89.99986809
_cell_angle_gamma   119.98744329
_symmetry_Int_Tables_number   1
_chemical_formula_structural   Cs3Ti2Cl9
_chemical_formula_sum   'Cs6 Ti4 Cl18'
_cell_volume   845.47976476
_cell_formula_units_Z   2
loop_
 _symmetry_equiv_pos_site_id
 _symmetry_equiv_pos_as_xyz
  1  'x, y, z'
loop_
 _atom_site_type_symbol
 _atom_site_label
 _atom_site_symmetry_multiplicity
 _atom_site_fract_x
 _atom_site_fract_y
 _atom_site_fract_z
 _atom_site_occupancy
  Cs  Cs0  1  0.66650532  0.33329829  0.92431978  1
  Cs  Cs1  1  0.33308569  0.66657142  0.42436255  1
  Cs  Cs2  1  0.00081713  0.00043486  0.24996176  1
  Cs  Cs3  1  0.33308922  0.66663501  0.07571073  1
  Cs  Cs4  1  0.99974091  0.99971180  0.75008299  1
  Cs  Cs5  1  0.66649603  0.33324512  0.57565078  1
  Ti  Ti0  1  0.33314027  0.66644014  0.66232336  1
  Ti  Ti1  1  0.66743572  0.33372392  0.16213142  1
  Ti  Ti2  1  0.33312306  0.66645146  0.83786940  1
  Ti  Ti3  1  0.66748066  0.33372674  0.33756069  1
  Cl  Cl0  1  0.48789172  0.51197196  0.75008744  1
  Cl  Cl1  1  0.51191039  0.48742556  0.24992064  1
  Cl  Cl2  1  0.17664021  0.35353695  0.90690442  1
  Cl  Cl3  1  0.35450129  0.17726348  0.40704100  1
  Cl  Cl4  1  0.64595129  0.82316282  0.90704187  1
  Cl  Cl5  1  0.97658582  0.48831122  0.24991175  1
  Cl  Cl6  1  0.48763739  0.97556678  0.75010605  1
  Cl  Cl7  1  0.02389211  0.51199920  0.75011085  1
  Cl  Cl8  1  0.82279325  0.17630887  0.40659630  1
  Cl  Cl9  1  0.82278901  0.64650056  0.40658458  1
  Cl  Cl10  1  0.17678319  0.35374079  0.59320442  1
  Cl  Cl11  1  0.17689474  0.82298833  0.59318990  1
  Cl  Cl12  1  0.35437501  0.17724448  0.09281717  1
  Cl  Cl13  1  0.64576315  0.82292456  0.59315047  1
  Cl  Cl14  1  0.51192075  0.02462818  0.24993379  1
  Cl  Cl15  1  0.17692706  0.82316231  0.90705256  1
  Cl  Cl16  1  0.82291655  0.64661059  0.09318098  1
  Cl  Cl17  1  0.82291207  0.17641160  0.09319238  1
loop_
_geom_bond_atom_site_label_1
_geom_bond_atom_site_label_2
_geom_bond_distance
_geom_bond_site_symmetry_2
Cl0 Ti0 2.526191 1_555
Cl0 Ti2 2.526680 1_555
Cl0 Cs4 3.688199 1_555
Cl0 Cs4 3.691028 1_445
Cl0 Cs0 3.872697 1_555
Cl0 Cs5 3.876048 1_555
Cl1 Ti3 2.525061 1_555
Cl1 Ti1 2.526667 1_555
Cl1 Cs2 3.682654 1_555
Cl1 Cs2 3.696570 1_665
Cl1 Cs3 3.875167 1_555
Cl1 Cs1 3.878528 1_555
Cl2 Ti2 2.350872 1_555
Cl2 Cs4 3.610926 1_445
Cl2 Cs3 3.632023 1_556
Cl2 Cs0 3.702053 1_555
Cl2 Cs0 3.702420 1_455
Cl3 Ti3 2.356463 1_555
Cl3 Cs2 3.614662 1_555
Cl3 Cs5 3.625714 1_555
Cl3 Cs1 3.700154 1_545
Cl3 Cs1 3.700478 1_555
Cl4 Ti2 2.352854 1_555
Cl4 Cs4 3.613173 1_555
Cl4 Cs3 3.629436 1_556
Cl4 Cs0 3.699033 1_565
Cl4 Cs0 3.701072 1_555
Cl5 Ti3 2.525048 1_555
Cl5 Ti1 2.526901 1_555
Cl5 Cs2 3.687878 1_655
Cl5 Cs2 3.687963 1_665
Cl5 Cs3 3.869919 1_655
Cl5 Cs1 3.873768 1_655
Cl6 Ti2 2.525445 1_555
Cl6 Ti0 2.526022 1_555
Cl6 Cs4 3.689640 1_455
Cl6 Cs4 3.690264 1_555
Cl6 Cs0 3.874314 1_565
Cl6 Cs5 3.877166 1_565
Cl7 Ti2 2.527061 1_555
Cl7 Ti0 2.527315 1_555
Cl7 Cs4 3.686355 1_455
Cl7 Cs4 3.689442 1_445
Cl7 Cs0 3.873355 1_455
Cl7 Cs5 3.877270 1_455
Cl8 Ti3 2.350107 1_555
Cl8 Cs2 3.608624 1_655
Cl8 Cs5 3.636215 1_555
Cl8 Cs1 3.700247 1_545
Cl8 Cs1 3.704554 1_655
Cl9 Ti3 2.350273 1_555
Cl9 Cs2 3.608157 1_665
Cl9 Cs5 3.636064 1_555
Cl9 Cs1 3.700770 1_555
Cl9 Cs1 3.704746 1_655
Cl10 Ti0 2.350761 1_555
Cl10 Cs4 3.612107 1_445
Cl10 Cs1 3.631207 1_555
Cl10 Cs5 3.702148 1_555
Cl10 Cs5 3.702868 1_455
Cl11 Ti0 2.351369 1_555
Cl11 Cs4 3.612154 1_455
Cl11 Cs1 3.630610 1_555
Cl11 Cs5 3.701552 1_565
Cl11 Cs5 3.702831 1_455
Cl12 Ti1 2.355459 1_555
Cl12 Cs2 3.614851 1_555
Cl12 Cs0 3.624293 1_554
Cl12 Cs3 3.699737 1_545
Cl12 Cs3 3.700191 1_555
Cl13 Ti0 2.351609 1_555
Cl13 Cs4 3.613778 1_555
Cl13 Cs1 3.630785 1_555
Cl13 Cs5 3.700045 1_565
Cl13 Cs5 3.700811 1_555
Cl14 Ti3 2.524149 1_555
Cl14 Ti1 2.525798 1_555
Cl14 Cs2 3.682733 1_555
Cl14 Cs2 3.697197 1_655
Cl14 Cs3 3.875434 1_545
Cl14 Cs1 3.878204 1_545
Cl15 Ti2 2.352580 1_555
Cl15 Cs4 3.612452 1_455
Cl15 Cs3 3.628160 1_556
Cl15 Cs0 3.700658 1_565
Cl15 Cs0 3.702858 1_455
Cl16 Ti1 2.349928 1_555
Cl16 Cs2 3.610362 1_665
Cl16 Cs0 3.633599 1_554
Cl16 Cs3 3.701026 1_555
Cl16 Cs3 3.703519 1_655
Cl17 Ti1 2.349631 1_555
Cl17 Cs2 3.610238 1_655
Cl17 Cs0 3.633498 1_554
Cl17 Cs3 3.700429 1_545
Cl17 Cs3 3.703466 1_655
