# generated using pymatgen
data_Ti(PO3)3
_symmetry_space_group_name_H-M   'P 1'
_cell_length_a   11.90711443
_cell_length_b   11.90711443
_cell_length_c   9.71099519
_cell_angle_alpha   69.95929762
_cell_angle_beta   69.95929762
_cell_angle_gamma   110.78832492
_symmetry_Int_Tables_number   1
_chemical_formula_structural   Ti(PO3)3
_chemical_formula_sum   'Ti6 P18 O54'
_cell_volume   1026.45109599
_cell_formula_units_Z   6
loop_
 _symmetry_equiv_pos_site_id
 _symmetry_equiv_pos_as_xyz
  1  'x, y, z'
loop_
 _atom_site_type_symbol
 _atom_site_label
 _atom_site_symmetry_multiplicity
 _atom_site_fract_x
 _atom_site_fract_y
 _atom_site_fract_z
 _atom_site_occupancy
  Ti  Ti0  1  0.90954800  0.75042000  0.17436800  1
  Ti  Ti1  1  0.75042000  0.90954800  0.67436800  1
  Ti  Ti2  1  0.42029800  0.24405000  0.67315900  1
  Ti  Ti3  1  0.24405000  0.42029800  0.17315900  1
  Ti  Ti4  1  0.05576400  0.56590700  0.70927900  1
  Ti  Ti5  1  0.56590700  0.05576400  0.20927900  1
  P  P0  1  0.50618300  0.44998500  0.83455800  1
  P  P1  1  0.44998500  0.50618300  0.33455800  1
  P  P2  1  0.65948300  0.72314000  0.49841800  1
  P  P3  1  0.72314000  0.65948300  0.99841800  1
  P  P4  1  0.07100600  0.11485500  0.90276800  1
  P  P5  1  0.11485500  0.07100600  0.40276800  1
  P  P6  1  0.15807000  0.76357600  0.87005500  1
  P  P7  1  0.76357600  0.15807000  0.37005500  1
  P  P8  1  0.09798700  0.82533600  0.36124000  1
  P  P9  1  0.82533600  0.09798700  0.86124000  1
  P  P10  1  0.41153000  0.69833000  0.46631100  1
  P  P11  1  0.69833000  0.41153000  0.96631100  1
  P  P12  1  0.30960300  0.03719300  0.52587400  1
  P  P13  1  0.03719300  0.30960300  0.02587400  1
  P  P14  1  0.37823000  0.98217200  0.02443700  1
  P  P15  1  0.98217200  0.37823000  0.52443700  1
  P  P16  1  0.77134500  0.39523400  0.41954700  1
  P  P17  1  0.39523400  0.77134500  0.91954700  1
  O  O0  1  0.99281200  0.96287100  0.04464200  1
  O  O1  1  0.96287100  0.99281200  0.54464200  1
  O  O2  1  0.72513900  0.72772300  0.33252300  1
  O  O3  1  0.72772300  0.72513900  0.83252300  1
  O  O4  1  0.85333300  0.73718200  0.99884100  1
  O  O5  1  0.73718200  0.85333300  0.49884100  1
  O  O6  1  0.09383700  0.76593200  0.03128200  1
  O  O7  1  0.76593200  0.09383700  0.53128200  1
  O  O8  1  0.97290800  0.76087500  0.34547000  1
  O  O9  1  0.76087500  0.97290800  0.84547000  1
  O  O10  1  0.80893100  0.53693500  0.29059700  1
  O  O11  1  0.53693500  0.80893100  0.79059700  1
  O  O12  1  0.42316900  0.34568300  0.80025000  1
  O  O13  1  0.34568300  0.42316900  0.30025000  1
  O  O14  1  0.21518300  0.17903800  0.75355800  1
  O  O15  1  0.17903800  0.21518300  0.25355800  1
  O  O16  1  0.48358300  0.42693000  0.45401500  1
  O  O17  1  0.42693000  0.48358300  0.95401500  1
  O  O18  1  0.34857400  0.06224600  0.89964700  1
  O  O19  1  0.06224600  0.34857400  0.39964700  1
  O  O20  1  0.62730900  0.29956000  0.58265000  1
  O  O21  1  0.29956000  0.62730900  0.08265000  1
  O  O22  1  0.40845400  0.14443700  0.54312500  1
  O  O23  1  0.14443700  0.40845400  0.04312500  1
  O  O24  1  0.84674600  0.49589200  0.81343200  1
  O  O25  1  0.49589200  0.84674600  0.31343200  1
  O  O26  1  0.08720700  0.74636400  0.52777800  1
  O  O27  1  0.74636400  0.08720700  0.02777800  1
  O  O28  1  0.00216000  0.37494400  0.89824300  1
  O  O29  1  0.37494400  0.00216000  0.39824300  1
  O  O30  1  0.26716200  0.64500300  0.60633800  1
  O  O31  1  0.64500300  0.26716200  0.10633800  1
  O  O32  1  0.07262300  0.63502100  0.87168200  1
  O  O33  1  0.63502100  0.07262300  0.37168200  1
  O  O34  1  0.06554900  0.48777900  0.55161100  1
  O  O35  1  0.48777900  0.06554900  0.05161100  1
  O  O36  1  0.63488400  0.59040700  0.65232100  1
  O  O37  1  0.59040700  0.63488400  0.15232100  1
  O  O38  1  0.49770300  0.67799100  0.55897400  1
  O  O39  1  0.67799100  0.49770300  0.05897400  1
  O  O40  1  0.59146700  0.39217400  0.89985200  1
  O  O41  1  0.39217400  0.59146700  0.39985200  1
  O  O42  1  0.98331700  0.14097500  0.81591700  1
  O  O43  1  0.14097500  0.98331700  0.31591700  1
  O  O44  1  0.19100000  0.89828900  0.71194200  1
  O  O45  1  0.89828900  0.19100000  0.21194200  1
  O  O46  1  0.23563400  0.85742400  0.20697600  1
  O  O47  1  0.85742400  0.23563400  0.70697600  1
  O  O48  1  0.88978100  0.42872400  0.46664800  1
  O  O49  1  0.42872400  0.88978100  0.96664800  1
  O  O50  1  0.31506800  0.79546000  0.81844100  1
  O  O51  1  0.79546000  0.31506800  0.31844100  1
  O  O52  1  0.08730000  0.21066300  0.98553400  1
  O  O53  1  0.21066300  0.08730000  0.48553400  1
loop_
_geom_bond_atom_site_label_1
_geom_bond_atom_site_label_2
_geom_bond_distance
_geom_bond_site_symmetry_2
O0 P4 1.501996 1_664
O0 Ti0 2.036857 1_555
O1 P5 1.501996 1_665
O1 Ti1 2.036857 1_555
O2 P2 1.501919 1_555
O2 Ti0 2.058215 1_555
O3 P3 1.501919 1_555
O3 Ti1 2.058215 1_555
O4 P3 1.499354 1_555
O4 Ti0 2.066297 1_556
O5 P2 1.499354 1_555
O5 Ti1 2.066297 1_555
O6 P6 1.503896 1_554
O6 Ti0 2.055886 1_455
O7 P7 1.503896 1_555
O7 Ti1 2.055886 1_545
O8 P8 1.502043 1_655
O8 Ti0 2.068753 1_555
O9 P9 1.502043 1_565
O9 Ti1 2.068753 1_555
O10 P16 1.499001 1_555
O10 Ti0 2.028798 1_555
O11 P17 1.499001 1_555
O11 Ti1 2.028798 1_555
O12 P0 1.506106 1_555
O12 Ti2 2.003008 1_555
O13 P1 1.506106 1_555
O13 Ti3 2.003008 1_555
O14 P4 1.495205 1_555
O14 Ti2 2.027465 1_555
O15 P5 1.495205 1_555
O15 Ti3 2.027465 1_555
O16 P1 1.494000 1_555
O16 Ti2 2.097271 1_555
O17 P0 1.494000 1_555
O17 Ti3 2.097271 1_556
O18 P14 1.497557 1_546
O18 Ti2 2.095255 1_555
O19 P15 1.497557 1_455
O19 Ti3 2.095255 1_555
O20 P16 1.504184 1_555
O20 Ti2 2.060500 1_555
O21 P17 1.504184 1_554
O21 Ti3 2.060500 1_555
O22 P12 1.502987 1_555
O22 Ti2 2.012744 1_555
O23 P13 1.502987 1_555
O23 Ti3 2.012744 1_555
O24 P11 1.501926 1_555
O24 Ti4 2.033757 1_655
O25 P10 1.501926 1_555
O25 Ti5 2.033757 1_565
O26 P8 1.498652 1_555
O26 Ti4 2.060287 1_555
O27 P9 1.498652 1_554
O27 Ti5 2.060287 1_555
O28 P13 1.496434 1_556
O28 Ti4 2.062110 1_555
O29 P12 1.496434 1_555
O29 Ti5 2.062110 1_555
O30 P10 1.496191 1_555
O30 Ti4 2.041978 1_555
O31 P11 1.496191 1_554
O31 Ti5 2.041978 1_555
O32 P6 1.498474 1_555
O32 Ti4 2.047929 1_555
O33 P7 1.498474 1_555
O33 Ti5 2.047929 1_555
O34 P15 1.500994 1_455
O34 Ti4 2.038185 1_555
O35 P14 1.500994 1_545
O35 Ti5 2.038185 1_555
O36 P2 1.603062 1_555
O36 P0 1.603239 1_555
O37 P3 1.603062 1_554
O37 P1 1.603239 1_555
O38 P10 1.606564 1_555
O38 P2 1.617845 1_555
O39 P11 1.606564 1_554
O39 P3 1.617845 1_554
O40 P11 1.595408 1_555
O40 P0 1.595446 1_555
O41 P10 1.595408 1_555
O41 P1 1.595446 1_555
O42 P4 1.597669 1_655
O42 P9 1.609014 1_555
O43 P5 1.597669 1_565
O43 P8 1.609014 1_555
O44 P6 1.592849 1_555
O44 P12 1.593632 1_565
O45 P7 1.592849 1_555
O45 P13 1.593632 1_655
O46 P8 1.599006 1_555
O46 P14 1.604312 1_555
O47 P9 1.599006 1_555
O47 P15 1.604312 1_555
O48 P16 1.588994 1_555
O48 P15 1.596259 1_555
O49 P17 1.588994 1_555
O49 P14 1.596259 1_556
O50 P17 1.612851 1_555
O50 P6 1.616666 1_555
O51 P16 1.612851 1_555
O51 P7 1.616666 1_555
O52 P13 1.597614 1_556
O52 P4 1.601015 1_555
O53 P12 1.597614 1_555
O53 P5 1.601015 1_555
