# generated using pymatgen
data_Gd3NbS3O4
_symmetry_space_group_name_H-M   'P 1'
_cell_length_a   6.67624600
_cell_length_b   7.63882200
_cell_length_c   14.34444900
_cell_angle_alpha   90.00000000
_cell_angle_beta   90.00000000
_cell_angle_gamma   90.00000000
_symmetry_Int_Tables_number   1
_chemical_formula_structural   Gd3NbS3O4
_chemical_formula_sum   'Gd12 Nb4 S12 O16'
_cell_volume   731.54760317
_cell_formula_units_Z   4
loop_
 _symmetry_equiv_pos_site_id
 _symmetry_equiv_pos_as_xyz
  1  'x, y, z'
loop_
 _atom_site_type_symbol
 _atom_site_label
 _atom_site_symmetry_multiplicity
 _atom_site_fract_x
 _atom_site_fract_y
 _atom_site_fract_z
 _atom_site_occupancy
  Gd  Gd0  1  0.77575900  0.74982300  0.58138400  1
  Gd  Gd1  1  0.22424100  0.24982300  0.41861600  1
  Gd  Gd2  1  0.72424100  0.24982300  0.08138400  1
  Gd  Gd3  1  0.27575900  0.74982300  0.91861600  1
  Gd  Gd4  1  0.21658600  0.00550200  0.65660800  1
  Gd  Gd5  1  0.78341400  0.50550200  0.34339200  1
  Gd  Gd6  1  0.28341400  0.50550200  0.15660800  1
  Gd  Gd7  1  0.71658600  0.00550200  0.84339200  1
  Gd  Gd8  1  0.22590100  0.49511600  0.66512500  1
  Gd  Gd9  1  0.77409900  0.99511600  0.33487500  1
  Gd  Gd10  1  0.27409900  0.99511600  0.16512500  1
  Gd  Gd11  1  0.72590100  0.49511600  0.83487500  1
  Nb  Nb0  1  0.81578400  0.26167000  0.57230500  1
  Nb  Nb1  1  0.18421600  0.76167000  0.42769500  1
  Nb  Nb2  1  0.68421600  0.76167000  0.07230500  1
  Nb  Nb3  1  0.31578400  0.26167000  0.92769500  1
  S  S0  1  0.50221100  0.75682200  0.72649600  1
  S  S1  1  0.49778900  0.25682200  0.27350400  1
  S  S2  1  0.99778900  0.25682200  0.22649600  1
  S  S3  1  0.00221100  0.75682200  0.77350400  1
  S  S4  1  0.54567900  0.24266300  0.70235400  1
  S  S5  1  0.45432100  0.74266300  0.29764600  1
  S  S6  1  0.95432100  0.74266300  0.20235400  1
  S  S7  1  0.04567900  0.24266300  0.79764600  1
  S  S8  1  0.47518800  0.97549500  0.49401800  1
  S  S9  1  0.52481200  0.47549500  0.50598200  1
  S  S10  1  0.02481200  0.47549500  0.99401800  1
  S  S11  1  0.97518800  0.97549500  0.00598200  1
  O  O0  1  0.85618900  0.24378500  0.43674100  1
  O  O1  1  0.14381100  0.74378500  0.56325900  1
  O  O2  1  0.64381100  0.74378500  0.93674100  1
  O  O3  1  0.35618900  0.24378500  0.06325900  1
  O  O4  1  0.87548500  0.02712100  0.61518300  1
  O  O5  1  0.12451500  0.52712100  0.38481700  1
  O  O6  1  0.62451500  0.52712100  0.11518300  1
  O  O7  1  0.37548500  0.02712100  0.88481700  1
  O  O8  1  0.88199500  0.47945800  0.63290400  1
  O  O9  1  0.11800500  0.97945800  0.36709600  1
  O  O10  1  0.61800500  0.97945800  0.13290400  1
  O  O11  1  0.38199500  0.47945800  0.86709600  1
  O  O12  1  0.13488300  0.25892600  0.57261100  1
  O  O13  1  0.86511700  0.75892600  0.42738900  1
  O  O14  1  0.36511700  0.75892600  0.07261100  1
  O  O15  1  0.63488300  0.25892600  0.92738900  1
loop_
_geom_bond_atom_site_label_1
_geom_bond_atom_site_label_2
_geom_bond_distance
_geom_bond_site_symmetry_2
Gd0 O4 2.272716 1_565
Gd0 O13 2.289171 1_555
Gd0 O8 2.305330 1_555
Gd0 O1 2.471353 1_655
Gd0 S0 2.769656 1_555
Gd0 S9 2.892762 1_555
Gd0 S8 2.927296 1_555
Gd0 S3 3.143769 1_655
Gd1 O5 2.272716 1_555
Gd1 O12 2.289171 1_555
Gd1 O9 2.305330 1_545
Gd1 O0 2.471353 1_455
Gd1 S1 2.769656 1_555
Gd1 S8 2.892762 1_545
Gd1 S9 2.927296 1_555
Gd1 S2 3.143769 1_455
Gd2 O6 2.272716 1_555
Gd2 O15 2.289171 1_554
Gd2 O10 2.305330 1_545
Gd2 O3 2.471353 1_555
Gd2 S2 2.769656 1_555
Gd2 S11 2.892762 1_545
Gd2 S10 2.927296 1_654
Gd2 S1 3.143769 1_555
Gd3 O7 2.272716 1_565
Gd3 O14 2.289171 1_556
Gd3 O11 2.305330 1_555
Gd3 O2 2.471353 1_555
Gd3 S3 2.769656 1_555
Gd3 S10 2.892762 1_555
Gd3 S11 2.927296 1_456
Gd3 S0 3.143769 1_555
Gd4 O12 2.344537 1_555
Gd4 O4 2.359311 1_455
Gd4 O1 2.454777 1_545
Gd4 S0 2.872257 1_545
Gd4 S3 2.910093 1_545
Gd4 S8 2.910802 1_545
Gd4 S4 2.922307 1_555
Gd4 S7 2.945659 1_555
Gd5 O13 2.344537 1_555
Gd5 O5 2.359311 1_655
Gd5 O0 2.454777 1_555
Gd5 S1 2.872257 1_555
Gd5 S2 2.910093 1_555
Gd5 S9 2.910802 1_555
Gd5 S5 2.922307 1_555
Gd5 S6 2.945659 1_555
Gd6 O14 2.344537 1_555
Gd6 O6 2.359311 1_555
Gd6 O3 2.454777 1_555
Gd6 S2 2.872257 1_455
Gd6 S1 2.910093 1_555
Gd6 S10 2.910802 1_554
Gd6 S6 2.922307 1_455
Gd6 S5 2.945659 1_555
Gd7 O15 2.344537 1_555
Gd7 O7 2.359311 1_555
Gd7 O2 2.454777 1_545
Gd7 S3 2.872257 1_645
Gd7 S0 2.910093 1_545
Gd7 S11 2.910802 1_546
Gd7 S7 2.922307 1_655
Gd7 S4 2.945659 1_555
Gd8 O12 2.320674 1_555
Gd8 O8 2.345112 1_455
Gd8 O1 2.458403 1_555
Gd8 S0 2.859101 1_555
Gd8 S4 2.926081 1_555
Gd8 S3 2.940012 1_555
Gd8 S7 2.963136 1_555
Gd8 S9 3.035813 1_555
Gd8 O11 3.081213 1_555
Gd9 O13 2.320674 1_555
Gd9 O9 2.345112 1_655
Gd9 O0 2.458403 1_565
Gd9 S1 2.859101 1_565
Gd9 S5 2.926081 1_555
Gd9 S2 2.940012 1_565
Gd9 S6 2.963136 1_555
Gd9 S8 3.035813 1_555
Gd9 O10 3.081213 1_555
Gd10 O14 2.320674 1_555
Gd10 O10 2.345112 1_555
Gd10 O3 2.458403 1_565
Gd10 S2 2.859101 1_465
Gd10 S6 2.926081 1_455
Gd10 S1 2.940012 1_565
Gd10 S5 2.963136 1_555
Gd10 S11 3.035813 1_455
Gd10 O9 3.081213 1_555
Gd11 O15 2.320674 1_555
Gd11 O11 2.345112 1_555
Gd11 O2 2.458403 1_555
Gd11 S3 2.859101 1_655
Gd11 S7 2.926081 1_655
Gd11 S0 2.940012 1_555
Gd11 S4 2.963136 1_555
Gd11 S10 3.035813 1_655
Gd11 O8 3.081213 1_555
Nb0 O8 1.928399 1_555
Nb0 O4 1.935788 1_555
Nb0 O0 1.967960 1_555
Nb0 O12 2.130491 1_655
Nb0 S4 2.598643 1_555
Nb0 S9 2.710479 1_555
Nb1 O9 1.928399 1_555
Nb1 O5 1.935788 1_555
Nb1 O1 1.967960 1_555
Nb1 O13 2.130491 1_455
Nb1 S5 2.598643 1_555
Nb1 S8 2.710479 1_555
Nb2 O10 1.928399 1_555
Nb2 O6 1.935788 1_555
Nb2 O2 1.967960 1_554
Nb2 O14 2.130491 1_555
Nb2 S6 2.598643 1_555
Nb2 S11 2.710479 1_555
Nb3 O11 1.928399 1_555
Nb3 O7 1.935788 1_555
Nb3 O3 1.967960 1_556
Nb3 O15 2.130491 1_555
Nb3 S7 2.598643 1_555
Nb3 S10 2.710479 1_555
