# generated using pymatgen
data_Yb2(CN2)3
_symmetry_space_group_name_H-M   'P 1'
_cell_length_a   11.04958700
_cell_length_b   11.04958700
_cell_length_c   11.04958694
_cell_angle_alpha   33.71963511
_cell_angle_beta   33.71963511
_cell_angle_gamma   33.71963728
_symmetry_Int_Tables_number   1
_chemical_formula_structural   Yb2(CN2)3
_chemical_formula_sum   'Yb4 C6 N12'
_cell_volume   370.41271753
_cell_formula_units_Z   2
loop_
 _symmetry_equiv_pos_site_id
 _symmetry_equiv_pos_as_xyz
  1  'x, y, z'
loop_
 _atom_site_type_symbol
 _atom_site_label
 _atom_site_symmetry_multiplicity
 _atom_site_fract_x
 _atom_site_fract_y
 _atom_site_fract_z
 _atom_site_occupancy
  Yb  Yb0  1  0.66451100  0.66451100  0.66451100  1
  Yb  Yb1  1  0.16451100  0.16451100  0.16451100  1
  Yb  Yb2  1  0.33548900  0.33548900  0.33548900  1
  Yb  Yb3  1  0.83548900  0.83548900  0.83548900  1
  C  C0  1  0.25000000  0.54844000  0.95156000  1
  C  C1  1  0.95156000  0.25000000  0.54844000  1
  C  C2  1  0.45156000  0.04844000  0.75000000  1
  C  C3  1  0.75000000  0.45156000  0.04844000  1
  C  C4  1  0.04844000  0.75000000  0.45156000  1
  C  C5  1  0.54844000  0.95156000  0.25000000  1
  N  N0  1  0.96126700  0.34860400  0.55383000  1
  N  N1  1  0.94617000  0.15139600  0.53873300  1
  N  N2  1  0.15139600  0.53873300  0.94617000  1
  N  N3  1  0.44617000  0.03873300  0.65139600  1
  N  N4  1  0.53873300  0.94617000  0.15139600  1
  N  N5  1  0.46126700  0.05383000  0.84860400  1
  N  N6  1  0.84860400  0.46126700  0.05383000  1
  N  N7  1  0.03873300  0.65139600  0.44617000  1
  N  N8  1  0.65139600  0.44617000  0.03873300  1
  N  N9  1  0.05383000  0.84860400  0.46126700  1
  N  N10  1  0.55383000  0.96126700  0.34860400  1
  N  N11  1  0.34860400  0.55383000  0.96126700  1
loop_
_geom_bond_atom_site_label_1
_geom_bond_atom_site_label_2
_geom_bond_distance
_geom_bond_site_symmetry_2
C0 N2 1.230898 1_555
C0 N11 1.230898 1_555
C1 N0 1.230898 1_555
C1 N1 1.230898 1_555
C2 N5 1.230898 1_555
C2 N3 1.230898 1_555
C3 N6 1.230898 1_555
C3 N8 1.230898 1_555
C4 N7 1.230898 1_555
C4 N9 1.230898 1_555
C5 N4 1.230898 1_555
C5 N10 1.230898 1_555
N0 Yb0 2.412925 1_555
N0 Yb2 2.434986 1_655
N1 Yb3 2.412925 1_545
N1 Yb1 2.434986 1_655
N2 Yb3 2.412925 1_455
N2 Yb1 2.434986 1_556
N3 Yb2 2.412925 1_555
N3 Yb0 2.434986 1_545
N4 Yb3 2.412925 1_554
N4 Yb1 2.434986 1_565
N5 Yb1 2.412925 1_556
N5 Yb3 2.434986 1_545
N6 Yb1 2.412925 1_655
N6 Yb3 2.434986 1_554
N7 Yb2 2.412925 1_555
N7 Yb0 2.434986 1_455
N8 Yb2 2.412925 1_555
N8 Yb0 2.434986 1_554
N9 Yb1 2.412925 1_565
N9 Yb3 2.434986 1_455
N10 Yb0 2.412925 1_555
N10 Yb2 2.434986 1_565
N11 Yb0 2.412925 1_555
N11 Yb2 2.434986 1_556
