# generated using pymatgen
data_Ta3Al2CoC
_symmetry_space_group_name_H-M   'P 1'
_cell_length_a   8.20812946
_cell_length_b   8.20812946
_cell_length_c   8.20812946
_cell_angle_alpha   60.00000000
_cell_angle_beta   60.00000000
_cell_angle_gamma   60.00000000
_symmetry_Int_Tables_number   1
_chemical_formula_structural   Ta3Al2CoC
_chemical_formula_sum   'Ta12 Al8 Co4 C4'
_cell_volume   391.03676779
_cell_formula_units_Z   4
loop_
 _symmetry_equiv_pos_site_id
 _symmetry_equiv_pos_as_xyz
  1  'x, y, z'
loop_
 _atom_site_type_symbol
 _atom_site_label
 _atom_site_symmetry_multiplicity
 _atom_site_fract_x
 _atom_site_fract_y
 _atom_site_fract_z
 _atom_site_occupancy
  Ta  Ta0  1  0.56112500  0.93887500  0.56112500  1
  Ta  Ta1  1  0.31112500  0.68887500  0.68887500  1
  Ta  Ta2  1  0.68887500  0.31112500  0.31112500  1
  Ta  Ta3  1  0.31112500  0.68887500  0.31112500  1
  Ta  Ta4  1  0.68887500  0.68887500  0.31112500  1
  Ta  Ta5  1  0.31112500  0.31112500  0.68887500  1
  Ta  Ta6  1  0.56112500  0.56112500  0.93887500  1
  Ta  Ta7  1  0.93887500  0.56112500  0.56112500  1
  Ta  Ta8  1  0.56112500  0.93887500  0.93887500  1
  Ta  Ta9  1  0.93887500  0.93887500  0.56112500  1
  Ta  Ta10  1  0.68887500  0.31112500  0.68887500  1
  Ta  Ta11  1  0.93887500  0.56112500  0.93887500  1
  Al  Al0  1  0.91820300  0.91820300  0.91820300  1
  Al  Al1  1  0.00460800  0.33179700  0.33179700  1
  Al  Al2  1  0.33179700  0.00460800  0.33179700  1
  Al  Al3  1  0.33179700  0.33179700  0.00460800  1
  Al  Al4  1  0.91820300  0.24539200  0.91820300  1
  Al  Al5  1  0.91820300  0.91820300  0.24539200  1
  Al  Al6  1  0.24539200  0.91820300  0.91820300  1
  Al  Al7  1  0.33179700  0.33179700  0.33179700  1
  Co  Co0  1  0.12500000  0.12500000  0.12500000  1
  Co  Co1  1  0.62500000  0.12500000  0.12500000  1
  Co  Co2  1  0.12500000  0.62500000  0.12500000  1
  Co  Co3  1  0.12500000  0.12500000  0.62500000  1
  C  C0  1  0.62500000  0.62500000  0.62500000  1
  C  C1  1  0.12500000  0.62500000  0.62500000  1
  C  C2  1  0.62500000  0.12500000  0.62500000  1
  C  C3  1  0.62500000  0.62500000  0.12500000  1
loop_
_geom_bond_atom_site_label_1
_geom_bond_atom_site_label_2
_geom_bond_distance
_geom_bond_site_symmetry_2
Al0 Co2 2.503089 1_656
Al0 Co1 2.503089 1_566
Al0 Co3 2.503089 1_665
Al0 Al4 2.685610 1_565
Al0 Al5 2.685610 1_556
Al0 Al6 2.685610 1_655
Al0 Ta9 2.771671 1_555
Al0 Ta11 2.771671 1_555
Al0 Ta8 2.771671 1_555
Al0 Ta10 2.981548 1_565
Al0 Ta4 2.981548 1_556
Al0 Ta1 2.981548 1_655
Al1 Co0 2.503087 1_555
Al1 Co3 2.503094 1_555
Al1 Co2 2.503094 1_555
Al1 Al3 2.685610 1_555
Al1 Al2 2.685610 1_555
Al1 Al7 2.685610 1_555
Al1 Ta2 2.771663 1_455
Al1 Ta10 2.771667 1_455
Al1 Ta4 2.771667 1_455
Al1 Ta9 2.981544 1_445
Al1 Ta11 2.981544 1_454
Al1 Ta7 2.981551 1_455
Al2 Co0 2.503087 1_555
Al2 Co3 2.503094 1_555
Al2 Co1 2.503094 1_555
Al2 Al3 2.685610 1_555
Al2 Al7 2.685610 1_555
Al2 Ta3 2.771663 1_545
Al2 Ta1 2.771667 1_545
Al2 Ta4 2.771667 1_545
Al2 Ta8 2.981544 1_544
Al2 Ta9 2.981544 1_445
Al2 Ta0 2.981551 1_545
Al3 Co0 2.503087 1_555
Al3 Co2 2.503094 1_555
Al3 Co1 2.503094 1_555
Al3 Al7 2.685610 1_555
Al3 Ta5 2.771663 1_554
Al3 Ta10 2.771667 1_554
Al3 Ta1 2.771667 1_554
Al3 Ta8 2.981544 1_544
Al3 Ta11 2.981544 1_454
Al3 Ta6 2.981551 1_554
Al4 Co0 2.503087 1_656
Al4 Co3 2.503094 1_655
Al4 Co1 2.503094 1_556
Al4 Al6 2.685610 1_645
Al4 Al5 2.685610 1_546
Al4 Ta11 2.771663 1_555
Al4 Ta6 2.771667 1_555
Al4 Ta7 2.771667 1_555
Al4 Ta5 2.981544 1_655
Al4 Ta2 2.981544 1_556
Al4 Ta10 2.981551 1_555
Al5 Co0 2.503087 1_665
Al5 Co2 2.503094 1_655
Al5 Co1 2.503094 1_565
Al5 Al6 2.685610 1_654
Al5 Ta9 2.771663 1_555
Al5 Ta0 2.771667 1_555
Al5 Ta7 2.771667 1_555
Al5 Ta2 2.981544 1_565
Al5 Ta3 2.981544 1_655
Al5 Ta4 2.981551 1_555
Al6 Co0 2.503087 1_566
Al6 Co3 2.503094 1_565
Al6 Co2 2.503094 1_556
Al6 Ta8 2.771663 1_555
Al6 Ta0 2.771667 1_555
Al6 Ta6 2.771667 1_555
Al6 Ta5 2.981544 1_565
Al6 Ta3 2.981544 1_556
Al6 Ta1 2.981551 1_555
Al7 Co2 2.503089 1_555
Al7 Co1 2.503089 1_555
Al7 Co3 2.503089 1_555
Al7 Ta3 2.771671 1_555
Al7 Ta5 2.771671 1_555
Al7 Ta2 2.771671 1_555
Al7 Ta6 2.981548 1_554
Al7 Ta7 2.981548 1_455
Al7 Ta0 2.981548 1_545
Co0 Ta2 2.979732 1_455
Co0 Ta5 2.979732 1_554
Co0 Ta3 2.979732 1_545
Co0 Ta9 2.979732 1_445
Co0 Ta8 2.979732 1_544
Co0 Ta11 2.979732 1_454
Co1 Ta4 2.979732 1_545
Co1 Ta6 2.979732 1_554
Co1 Ta2 2.979732 1_555
Co1 Ta0 2.979732 1_545
Co1 Ta10 2.979732 1_554
Co1 Ta8 2.979732 1_544
Co2 Ta1 2.979732 1_554
Co2 Ta3 2.979732 1_555
Co2 Ta7 2.979732 1_455
Co2 Ta6 2.979732 1_554
Co2 Ta4 2.979732 1_455
Co2 Ta11 2.979732 1_454
Co3 Ta7 2.979732 1_455
Co3 Ta1 2.979732 1_545
Co3 Ta5 2.979732 1_555
Co3 Ta0 2.979732 1_545
Co3 Ta10 2.979732 1_455
Co3 Ta9 2.979732 1_445
C0 Ta7 2.181881 1_555
C0 Ta6 2.181881 1_555
C0 Ta0 2.181881 1_555
C0 Ta4 2.181881 1_555
C0 Ta1 2.181881 1_555
C0 Ta10 2.181881 1_555
C1 Ta9 2.181881 1_455
C1 Ta11 2.181881 1_455
C1 Ta3 2.181881 1_555
C1 Ta1 2.181881 1_555
C1 Ta5 2.181881 1_555
C1 Ta7 2.181881 1_455
C2 Ta8 2.181881 1_545
C2 Ta9 2.181881 1_545
C2 Ta10 2.181881 1_555
C2 Ta2 2.181881 1_555
C2 Ta5 2.181881 1_555
C2 Ta0 2.181881 1_545
C3 Ta8 2.181881 1_554
C3 Ta11 2.181881 1_554
C3 Ta3 2.181881 1_555
C3 Ta4 2.181881 1_555
C3 Ta2 2.181881 1_555
C3 Ta6 2.181881 1_554
