# generated using pymatgen
data_Ba3BPO7
_symmetry_space_group_name_H-M   'P 1'
_cell_length_a   5.60005311
_cell_length_b   5.60005311
_cell_length_c   14.90046600
_cell_angle_alpha   90.00000000
_cell_angle_beta   90.00000000
_cell_angle_gamma   119.99998950
_symmetry_Int_Tables_number   1
_chemical_formula_structural   Ba3BPO7
_chemical_formula_sum   'Ba6 B2 P2 O14'
_cell_volume   404.68286899
_cell_formula_units_Z   2
loop_
 _symmetry_equiv_pos_site_id
 _symmetry_equiv_pos_as_xyz
  1  'x, y, z'
loop_
 _atom_site_type_symbol
 _atom_site_label
 _atom_site_symmetry_multiplicity
 _atom_site_fract_x
 _atom_site_fract_y
 _atom_site_fract_z
 _atom_site_occupancy
  Ba  Ba0  1  0.00000000  0.00000000  0.72044200  1
  Ba  Ba1  1  0.33333300  0.66666700  0.38255400  1
  Ba  Ba2  1  0.00000000  0.00000000  0.22044200  1
  Ba  Ba3  1  0.66666700  0.33333300  0.88255400  1
  Ba  Ba4  1  0.66666700  0.33333300  0.59849800  1
  Ba  Ba5  1  0.33333300  0.66666700  0.09849800  1
  B  B0  1  0.33333300  0.66666700  0.74171500  1
  B  B1  1  0.66666700  0.33333300  0.24171500  1
  P  P0  1  0.00000000  0.00000000  0.99567400  1
  P  P1  1  0.00000000  0.00000000  0.49567400  1
  O  O0  1  0.52222500  0.04445100  0.24228200  1
  O  O1  1  0.00000000  0.00000000  0.39156400  1
  O  O2  1  0.47777500  0.95554900  0.74228200  1
  O  O3  1  0.84954000  0.69907900  0.03200200  1
  O  O4  1  0.15046000  0.84954000  0.53200200  1
  O  O5  1  0.69907900  0.84954000  0.53200200  1
  O  O6  1  0.30092100  0.15046000  0.03200200  1
  O  O7  1  0.95554900  0.47777500  0.24228200  1
  O  O8  1  0.04445100  0.52222500  0.74228200  1
  O  O9  1  0.84954000  0.15046000  0.03200200  1
  O  O10  1  0.52222500  0.47777500  0.24228200  1
  O  O11  1  0.00000000  0.00000000  0.89156400  1
  O  O12  1  0.15046000  0.30092100  0.53200200  1
  O  O13  1  0.47777500  0.52222500  0.74228200  1
loop_
_geom_bond_atom_site_label_1
_geom_bond_atom_site_label_2
_geom_bond_distance
_geom_bond_site_symmetry_2
Ba0 O11 2.549798 1_555
Ba0 O2 2.827103 1_445
Ba0 O8 2.827103 1_555
Ba0 O13 2.827105 1_555
Ba0 O13 2.827105 1_445
Ba0 O2 2.827108 1_545
Ba0 O8 2.827108 1_545
Ba0 O4 3.164464 1_545
Ba0 O12 3.164466 1_555
Ba0 O5 3.164466 1_445
Ba1 O10 2.779469 1_555
Ba1 O0 2.779469 1_565
Ba1 O7 2.779469 1_455
Ba1 O4 2.846958 1_555
Ba1 O12 2.846958 1_555
Ba1 O5 2.846958 1_555
Ba1 O1 3.235975 1_565
Ba1 O1 3.235980 1_555
Ba1 O1 3.235980 1_665
Ba2 O1 2.549798 1_555
Ba2 O7 2.827103 1_445
Ba2 O0 2.827103 1_555
Ba2 O10 2.827105 1_445
Ba2 O10 2.827105 1_555
Ba2 O0 2.827108 1_455
Ba2 O7 2.827108 1_455
Ba2 O9 3.164464 1_455
Ba2 O6 3.164466 1_555
Ba2 O3 3.164466 1_445
Ba3 O13 2.779469 1_555
Ba3 O8 2.779469 1_655
Ba3 O2 2.779469 1_545
Ba3 O9 2.846958 1_556
Ba3 O6 2.846958 1_556
Ba3 O3 2.846958 1_556
Ba3 O11 3.235975 1_655
Ba3 O11 3.235980 1_555
Ba3 O11 3.235980 1_665
Ba4 O13 2.819032 1_555
Ba4 O2 2.819032 1_545
Ba4 O8 2.819032 1_655
Ba4 O5 2.974316 1_545
Ba4 O12 2.974316 1_655
Ba4 O4 2.974322 1_545
Ba4 O4 2.974322 1_655
Ba4 O5 2.974326 1_555
Ba4 O12 2.974326 1_555
Ba5 O10 2.819032 1_555
Ba5 O0 2.819032 1_565
Ba5 O7 2.819032 1_455
Ba5 O3 2.974316 1_455
Ba5 O6 2.974316 1_565
Ba5 O9 2.974322 1_565
Ba5 O9 2.974322 1_455
Ba5 O6 2.974326 1_555
Ba5 O3 2.974326 1_555
B0 O8 1.401042 1_555
B0 O2 1.401042 1_555
B0 O13 1.401052 1_555
B1 O0 1.401042 1_555
B1 O7 1.401042 1_555
B1 O10 1.401052 1_555
O1 P1 1.551288 1_555
O3 P0 1.556556 1_664
O4 P1 1.556552 1_565
O5 P1 1.556556 1_665
O6 P0 1.556556 1_554
O9 P0 1.556552 1_654
O11 P0 1.551288 1_555
O12 P1 1.556556 1_555
