# generated using pymatgen
data_SiO2
_symmetry_space_group_name_H-M   'P 1'
_cell_length_a   5.05506010
_cell_length_b   5.05505966
_cell_length_c   8.27706003
_cell_angle_alpha   90.00000000
_cell_angle_beta   90.00000000
_cell_angle_gamma   121.21385414
_symmetry_Int_Tables_number   1
_chemical_formula_structural   SiO2
_chemical_formula_sum   'Si4 O8'
_cell_volume   180.89068296
_cell_formula_units_Z   4
loop_
 _symmetry_equiv_pos_site_id
 _symmetry_equiv_pos_as_xyz
  1  'x, y, z'
loop_
 _atom_site_type_symbol
 _atom_site_label
 _atom_site_symmetry_multiplicity
 _atom_site_fract_x
 _atom_site_fract_y
 _atom_site_fract_z
 _atom_site_occupancy
  Si  Si0  1  0.34023657  0.66867348  0.06267094  1
  Si  Si1  1  0.66867348  0.34023657  0.56267094  1
  Si  Si2  1  0.34023657  0.66867348  0.43732906  1
  Si  Si3  1  0.66867348  0.34023657  0.93732906  1
  O  O0  1  0.60341678  0.60341678  0.00000000  1
  O  O1  1  0.46532553  0.03192788  0.45668027  1
  O  O2  1  0.57361252  0.26123199  0.75000000  1
  O  O3  1  0.03192788  0.46532553  0.54331973  1
  O  O4  1  0.26123199  0.57361252  0.25000000  1
  O  O5  1  0.03192788  0.46532553  0.95668027  1
  O  O6  1  0.60341678  0.60341678  0.50000000  1
  O  O7  1  0.46532553  0.03192788  0.04331973  1
loop_
_geom_bond_atom_site_label_1
_geom_bond_atom_site_label_2
_geom_bond_distance
_geom_bond_site_symmetry_2
O0 Si3 1.613292 1_554
O0 Si0 1.613292 1_555
O1 Si2 1.610564 1_545
O1 Si1 1.610836 1_555
O2 Si1 1.611105 1_555
O2 Si3 1.611105 1_555
O3 Si1 1.610565 1_455
O3 Si2 1.610836 1_555
O4 Si0 1.611105 1_555
O4 Si2 1.611105 1_555
O5 Si3 1.610565 1_455
O5 Si0 1.610836 1_556
O6 Si1 1.613292 1_555
O6 Si2 1.613292 1_555
O7 Si0 1.610564 1_545
O7 Si3 1.610836 1_554
