# generated using pymatgen
data_Na4CO4
_symmetry_space_group_name_H-M   'P 1'
_cell_length_a   4.73854600
_cell_length_b   4.73854600
_cell_length_c   4.73854600
_cell_angle_alpha   90.00000000
_cell_angle_beta   90.00000000
_cell_angle_gamma   90.00000000
_symmetry_Int_Tables_number   1
_chemical_formula_structural   Na4CO4
_chemical_formula_sum   'Na4 C1 O4'
_cell_volume   106.39845039
_cell_formula_units_Z   1
loop_
 _symmetry_equiv_pos_site_id
 _symmetry_equiv_pos_as_xyz
  1  'x, y, z'
loop_
 _atom_site_type_symbol
 _atom_site_label
 _atom_site_symmetry_multiplicity
 _atom_site_fract_x
 _atom_site_fract_y
 _atom_site_fract_z
 _atom_site_occupancy
  Na  Na0  1  0.21909800  0.21909800  0.78090200  1
  Na  Na1  1  0.21909800  0.78090200  0.21909800  1
  Na  Na2  1  0.78090200  0.78090200  0.78090200  1
  Na  Na3  1  0.78090200  0.21909800  0.21909800  1
  C  C0  1  0.50000000  0.50000000  0.50000000  1
  O  O0  1  0.32283300  0.32283300  0.32283300  1
  O  O1  1  0.67716700  0.32283300  0.67716700  1
  O  O2  1  0.32283300  0.67716700  0.67716700  1
  O  O3  1  0.67716700  0.67716700  0.32283300  1
loop_
_geom_bond_atom_site_label_1
_geom_bond_atom_site_label_2
_geom_bond_distance
_geom_bond_site_symmetry_2
Na0 O2 2.279182 1_555
Na0 O1 2.279182 1_555
Na0 O0 2.279182 1_555
Na0 O0 2.660393 1_556
Na0 O2 2.660393 1_545
Na0 O1 2.660393 1_455
Na1 O3 2.279182 1_555
Na1 O2 2.279182 1_555
Na1 O0 2.279182 1_555
Na1 O0 2.660393 1_565
Na1 O2 2.660393 1_554
Na1 O3 2.660393 1_455
Na2 O2 2.279182 1_555
Na2 O1 2.279182 1_555
Na2 O3 2.279182 1_555
Na2 O3 2.660393 1_556
Na2 O2 2.660393 1_655
Na2 O1 2.660393 1_565
Na3 O3 2.279182 1_555
Na3 O1 2.279182 1_555
Na3 O0 2.279182 1_555
Na3 O0 2.660393 1_655
Na3 O1 2.660393 1_554
Na3 O3 2.660393 1_545
C0 O3 1.454081 1_555
C0 O2 1.454081 1_555
C0 O1 1.454081 1_555
C0 O0 1.454081 1_555
