# generated using pymatgen
data_U(AlC)3
_symmetry_space_group_name_H-M   'P 1'
_cell_length_a   3.38756805
_cell_length_b   3.38756805
_cell_length_c   17.42626700
_cell_angle_alpha   90.00000000
_cell_angle_beta   90.00000000
_cell_angle_gamma   120.00000093
_symmetry_Int_Tables_number   1
_chemical_formula_structural   U(AlC)3
_chemical_formula_sum   'U2 Al6 C6'
_cell_volume   173.18530835
_cell_formula_units_Z   2
loop_
 _symmetry_equiv_pos_site_id
 _symmetry_equiv_pos_as_xyz
  1  'x, y, z'
loop_
 _atom_site_type_symbol
 _atom_site_label
 _atom_site_symmetry_multiplicity
 _atom_site_fract_x
 _atom_site_fract_y
 _atom_site_fract_z
 _atom_site_occupancy
  U  U0  1  0.00000000  0.00000000  0.00285600  1
  U  U1  1  0.00000000  0.00000000  0.50285600  1
  Al  Al0  1  0.33333300  0.66666700  0.13701400  1
  Al  Al1  1  0.66666700  0.33333300  0.86986200  1
  Al  Al2  1  0.66666700  0.33333300  0.63701400  1
  Al  Al3  1  0.33333300  0.66666700  0.75655000  1
  Al  Al4  1  0.33333300  0.66666700  0.36986200  1
  Al  Al5  1  0.66666700  0.33333300  0.25655000  1
  C  C0  1  0.33333300  0.66666700  0.59562500  1
  C  C1  1  0.66666700  0.33333300  0.40734500  1
  C  C2  1  0.33333300  0.66666700  0.90734500  1
  C  C3  1  0.66666700  0.33333300  0.09562500  1
  C  C4  1  0.66666700  0.33333300  0.75304800  1
  C  C5  1  0.33333300  0.66666700  0.25304800  1
loop_
_geom_bond_atom_site_label_1
_geom_bond_atom_site_label_2
_geom_bond_distance
_geom_bond_site_symmetry_2
Al0 C5 2.022039 1_555
Al0 C3 2.084564 1_565
Al0 C3 2.084564 1_455
Al0 C3 2.084570 1_555
Al1 C4 2.035632 1_555
Al1 C2 2.062002 1_655
Al1 C2 2.062002 1_545
Al1 C2 2.062008 1_555
Al2 C4 2.022039 1_555
Al2 C0 2.084564 1_545
Al2 C0 2.084564 1_655
Al2 C0 2.084570 1_555
Al3 C4 1.956763 1_455
Al3 C4 1.956763 1_565
Al3 C4 1.956769 1_555
Al4 C5 2.035632 1_555
Al4 C1 2.062002 1_455
Al4 C1 2.062002 1_565
Al4 C1 2.062008 1_555
Al5 C5 1.956763 1_545
Al5 C5 1.956763 1_655
Al5 C5 1.956769 1_555
C0 U1 2.537449 1_565
C0 U1 2.537452 1_555
C0 U1 2.537452 1_665
C1 U1 2.568156 1_655
C1 U1 2.568158 1_665
C1 U1 2.568158 1_555
C2 U0 2.568156 1_566
C2 U0 2.568158 1_556
C2 U0 2.568158 1_666
C3 U0 2.537449 1_655
C3 U0 2.537452 1_555
C3 U0 2.537452 1_665
