# generated using pymatgen
data_Rb3In(PO4)2
_symmetry_space_group_name_H-M   'P 1'
_cell_length_a   11.81031500
_cell_length_b   10.12234200
_cell_length_c   19.05726276
_cell_angle_alpha   58.30566550
_cell_angle_beta   90.00000000
_cell_angle_gamma   90.00000000
_symmetry_Int_Tables_number   1
_chemical_formula_structural   Rb3In(PO4)2
_chemical_formula_sum   'Rb24 In8 P16 O64'
_cell_volume   1938.48605646
_cell_formula_units_Z   8
loop_
 _symmetry_equiv_pos_site_id
 _symmetry_equiv_pos_as_xyz
  1  'x, y, z'
loop_
 _atom_site_type_symbol
 _atom_site_label
 _atom_site_symmetry_multiplicity
 _atom_site_fract_x
 _atom_site_fract_y
 _atom_site_fract_z
 _atom_site_occupancy
  Rb  Rb0  1  0.87860200  0.19527000  0.50852300  1
  Rb  Rb1  1  0.13648400  0.42849600  0.75717800  1
  Rb  Rb2  1  0.62139800  0.19527000  0.00852300  1
  Rb  Rb3  1  0.91555200  0.71545000  0.67164300  1
  Rb  Rb4  1  0.12139800  0.80473000  0.49147700  1
  Rb  Rb5  1  0.40017600  0.04357800  0.74577000  1
  Rb  Rb6  1  0.60559100  0.76249800  0.49968500  1
  Rb  Rb7  1  0.63648400  0.57150400  0.74282200  1
  Rb  Rb8  1  0.87848100  0.68079500  0.41742200  1
  Rb  Rb9  1  0.41555200  0.28455000  0.82835700  1
  Rb  Rb10  1  0.58444800  0.71545000  0.17164300  1
  Rb  Rb11  1  0.09982400  0.04357800  0.24577000  1
  Rb  Rb12  1  0.10559100  0.23750200  0.00031500  1
  Rb  Rb13  1  0.90017600  0.95642200  0.75423000  1
  Rb  Rb14  1  0.12151900  0.31920500  0.58257800  1
  Rb  Rb15  1  0.37848100  0.31920500  0.08257800  1
  Rb  Rb16  1  0.86351600  0.57150400  0.24282200  1
  Rb  Rb17  1  0.08444800  0.28455000  0.32835700  1
  Rb  Rb18  1  0.62151900  0.68079500  0.91742200  1
  Rb  Rb19  1  0.39440900  0.23750200  0.50031500  1
  Rb  Rb20  1  0.37860200  0.80473000  0.99147700  1
  Rb  Rb21  1  0.89440900  0.76249800  0.99968500  1
  Rb  Rb22  1  0.59982400  0.95642200  0.25423000  1
  Rb  Rb23  1  0.36351600  0.42849600  0.25717800  1
  In  In0  1  0.36856400  0.79093200  0.63152800  1
  In  In1  1  0.63143600  0.20906800  0.36847200  1
  In  In2  1  0.65251500  0.31255800  0.61412400  1
  In  In3  1  0.15251500  0.68744200  0.88587600  1
  In  In4  1  0.34748500  0.68744200  0.38587600  1
  In  In5  1  0.13143600  0.79093200  0.13152800  1
  In  In6  1  0.86856400  0.20906800  0.86847200  1
  In  In7  1  0.84748500  0.31255800  0.11412400  1
  P  P0  1  0.63815000  0.42002300  0.14521600  1
  P  P1  1  0.87865400  0.52038300  0.89854200  1
  P  P2  1  0.86185000  0.42002300  0.64521600  1
  P  P3  1  0.13815000  0.57997700  0.35478400  1
  P  P4  1  0.12134600  0.47961700  0.10145800  1
  P  P5  1  0.36579500  0.00901400  0.40569500  1
  P  P6  1  0.34157600  0.89302700  0.16279800  1
  P  P7  1  0.63420500  0.99098600  0.59430500  1
  P  P8  1  0.36185000  0.57997700  0.85478400  1
  P  P9  1  0.37865400  0.47961700  0.60145800  1
  P  P10  1  0.15842400  0.89302700  0.66279800  1
  P  P11  1  0.65842400  0.10697300  0.83720200  1
  P  P12  1  0.62134600  0.52038300  0.39854200  1
  P  P13  1  0.13420500  0.00901400  0.90569500  1
  P  P14  1  0.84157600  0.10697300  0.33720200  1
  P  P15  1  0.86579500  0.99098600  0.09430500  1
  O  O0  1  0.08883300  0.88107200  0.89034400  1
  O  O1  1  0.06573700  0.00442100  0.60613800  1
  O  O2  1  0.45515300  0.46894000  0.91163900  1
  O  O3  1  0.92747200  0.39722500  0.88028200  1
  O  O4  1  0.17956800  0.75579200  0.64702100  1
  O  O5  1  0.95515300  0.53106000  0.58836100  1
  O  O6  1  0.60530200  0.36806800  0.23553600  1
  O  O7  1  0.80011500  0.63531300  0.82880200  1
  O  O8  1  0.04096600  0.13802000  0.87378400  1
  O  O9  1  0.34430900  0.72262500  0.86565700  1
  O  O10  1  0.65199200  0.05979400  0.50017600  1
  O  O11  1  0.58883300  0.11892800  0.60965600  1
  O  O12  1  0.15569100  0.72262500  0.36565700  1
  O  O13  1  0.98125600  0.60736400  0.90702400  1
  O  O14  1  0.15199200  0.94020600  0.99982400  1
  O  O15  1  0.56573700  0.99557900  0.89386200  1
  O  O16  1  0.72183300  0.02683000  0.35455300  1
  O  O17  1  0.88063800  0.17710600  0.24630200  1
  O  O18  1  0.69988500  0.63531300  0.32880200  1
  O  O19  1  0.30011500  0.36468700  0.67119800  1
  O  O20  1  0.39469800  0.63193200  0.76446400  1
  O  O21  1  0.11936200  0.82289400  0.75369800  1
  O  O22  1  0.89469800  0.36806800  0.73553600  1
  O  O23  1  0.22183300  0.97317000  0.14544700  1
  O  O24  1  0.07252800  0.60277500  0.11971800  1
  O  O25  1  0.74172200  0.50179000  0.62319400  1
  O  O26  1  0.93426300  0.99557900  0.39386200  1
  O  O27  1  0.04484700  0.46894000  0.41163900  1
  O  O28  1  0.10530200  0.63193200  0.26446400  1
  O  O29  1  0.43426300  0.00442100  0.10613800  1
  O  O30  1  0.27816700  0.97317000  0.64544700  1
  O  O31  1  0.54096600  0.86198000  0.62621600  1
  O  O32  1  0.45903400  0.13802000  0.37378400  1
  O  O33  1  0.19988500  0.36468700  0.17119800  1
  O  O34  1  0.80937600  0.44020700  0.98134600  1
  O  O35  1  0.24172200  0.49821000  0.87680600  1
  O  O36  1  0.34800800  0.94020600  0.49982400  1
  O  O37  1  0.95903400  0.86198000  0.12621600  1
  O  O38  1  0.41116700  0.88107200  0.39034400  1
  O  O39  1  0.30937600  0.55979300  0.51865400  1
  O  O40  1  0.74567700  0.92059000  0.63942300  1
  O  O41  1  0.77816700  0.02683000  0.85455300  1
  O  O42  1  0.91116700  0.11892800  0.10965600  1
  O  O43  1  0.32043200  0.75579200  0.14702100  1
  O  O44  1  0.84430900  0.27737500  0.63434300  1
  O  O45  1  0.75432300  0.92059000  0.13942300  1
  O  O46  1  0.25827800  0.49821000  0.37680600  1
  O  O47  1  0.82043200  0.24420800  0.35297900  1
  O  O48  1  0.67956800  0.24420800  0.85297900  1
  O  O49  1  0.19062400  0.55979300  0.01865400  1
  O  O50  1  0.24567700  0.07941000  0.86057700  1
  O  O51  1  0.48125600  0.39263600  0.59297600  1
  O  O52  1  0.57252800  0.39722500  0.38028200  1
  O  O53  1  0.61936200  0.17710600  0.74630200  1
  O  O54  1  0.69062400  0.44020700  0.48134600  1
  O  O55  1  0.01874400  0.39263600  0.09297600  1
  O  O56  1  0.38063800  0.82289400  0.25369800  1
  O  O57  1  0.84800800  0.05979400  0.00017600  1
  O  O58  1  0.25432300  0.07941000  0.36057700  1
  O  O59  1  0.65569100  0.27737500  0.13434300  1
  O  O60  1  0.54484700  0.53106000  0.08836100  1
  O  O61  1  0.42747200  0.60277500  0.61971800  1
  O  O62  1  0.75827800  0.50179000  0.12319400  1
  O  O63  1  0.51874400  0.60736400  0.40702400  1
loop_
_geom_bond_atom_site_label_1
_geom_bond_atom_site_label_2
_geom_bond_distance
_geom_bond_site_symmetry_2
In0 O31 2.144003 1_555
In0 O61 2.147689 1_555
In0 O36 2.157938 1_555
In0 O20 2.195288 1_555
In0 O4 2.255133 1_555
In0 O30 2.264322 1_555
In1 O32 2.144003 1_555
In1 O52 2.147689 1_555
In1 O10 2.157938 1_555
In1 O6 2.195288 1_555
In1 O47 2.255133 1_555
In1 O16 2.264322 1_555
In2 O51 2.137100 1_555
In2 O11 2.142389 1_555
In2 O53 2.179275 1_555
In2 O54 2.199869 1_555
In2 O25 2.270859 1_555
In2 O44 2.293906 1_555
In3 O13 2.137100 1_455
In3 O0 2.142389 1_555
In3 O21 2.179275 1_555
In3 O49 2.199869 1_556
In3 O35 2.270859 1_555
In3 O9 2.293906 1_555
In4 O63 2.137100 1_555
In4 O38 2.142389 1_555
In4 O56 2.179275 1_555
In4 O39 2.199869 1_555
In4 O46 2.270859 1_555
In4 O12 2.293906 1_555
In5 O37 2.144003 1_455
In5 O24 2.147689 1_555
In5 O14 2.157938 1_554
In5 O28 2.195288 1_555
In5 O43 2.255133 1_555
In5 O23 2.264322 1_555
In6 O8 2.144003 1_655
In6 O3 2.147689 1_555
In6 O57 2.157938 1_556
In6 O22 2.195288 1_555
In6 O48 2.255133 1_555
In6 O41 2.264322 1_555
In7 O55 2.137100 1_655
In7 O42 2.142389 1_555
In7 O17 2.179275 1_555
In7 O34 2.199869 1_554
In7 O62 2.270859 1_555
In7 O59 2.293906 1_555
O0 P13 1.564624 1_565
O0 Rb21 2.902955 1_455
O0 Rb13 3.193098 1_455
O1 P10 1.535018 1_545
O1 Rb0 2.881153 1_455
O1 Rb14 3.047158 1_555
O1 Rb3 3.069787 1_445
O1 Rb13 3.253229 1_445
O2 P8 1.540089 1_555
O2 Rb15 2.922530 1_556
O2 Rb18 2.952932 1_555
O2 Rb9 3.055176 1_555
O2 Rb2 3.092482 1_556
O3 P1 1.569549 1_555
O3 Rb12 2.895819 1_656
O4 P10 1.587874 1_555
O4 Rb4 2.821552 1_555
O4 Rb1 2.886837 1_555
O4 Rb3 3.147731 1_455
O5 P2 1.540089 1_555
O5 Rb8 2.922530 1_555
O5 Rb14 2.952932 1_655
O5 Rb3 3.055176 1_555
O5 Rb4 3.092482 1_655
O6 P0 1.561604 1_555
O6 Rb23 2.993928 1_555
O6 Rb10 3.067380 1_555
O7 P1 1.534765 1_555
O7 Rb7 2.819354 1_555
O7 Rb18 2.886213 1_555
O7 Rb3 2.988984 1_555
O7 Rb13 3.021148 1_555
O8 P13 1.566271 1_555
O8 Rb1 2.826734 1_555
O8 Rb12 3.156356 1_556
O9 P8 1.576446 1_555
O9 Rb5 2.900085 1_565
O9 Rb20 2.949253 1_555
O10 P7 1.560211 1_545
O10 Rb0 3.049237 1_555
O10 Rb6 3.063669 1_545
O11 P7 1.564624 1_545
O11 Rb19 2.902955 1_555
O11 Rb5 3.193098 1_555
O12 P3 1.576446 1_555
O12 Rb11 2.900085 1_565
O12 Rb4 2.949253 1_555
O13 P1 1.555389 1_555
O13 Rb21 3.090306 1_555
O13 Rb13 3.327027 1_555
O14 P13 1.560211 1_565
O14 Rb20 3.049237 1_555
O14 Rb12 3.063669 1_566
O15 P11 1.535018 1_565
O15 Rb20 2.881153 1_555
O15 Rb18 3.047158 1_555
O15 Rb9 3.069787 1_565
O15 Rb5 3.253229 1_565
O16 P14 1.576561 1_555
O16 Rb22 2.769725 1_545
O16 Rb6 2.986217 1_545
O17 P14 1.557389 1_555
O17 Rb11 2.922757 1_655
O18 P12 1.534765 1_555
O18 Rb16 2.819354 1_555
O18 Rb8 2.886213 1_555
O18 Rb10 2.988984 1_555
O18 Rb22 3.021148 1_555
O19 P9 1.534765 1_555
O19 Rb1 2.819354 1_555
O19 Rb14 2.886213 1_555
O19 Rb9 2.988984 1_555
O19 Rb5 3.021148 1_555
O20 P8 1.561604 1_555
O20 Rb7 2.993928 1_555
O20 Rb9 3.067380 1_555
O21 P10 1.557389 1_555
O21 Rb13 2.922757 1_455
O22 P2 1.561604 1_555
O22 Rb1 2.993928 1_655
O22 Rb3 3.067380 1_555
O23 P6 1.576561 1_555
O23 Rb11 2.769725 1_565
O23 Rb12 2.986217 1_565
O24 P4 1.569549 1_555
O24 Rb21 2.895819 1_454
O25 P2 1.583992 1_555
O25 Rb6 2.926141 1_555
O25 Rb7 2.988414 1_555
O26 P14 1.535018 1_565
O26 Rb4 2.881153 1_655
O26 Rb8 3.047158 1_555
O26 Rb17 3.069787 1_665
O26 Rb11 3.253229 1_665
O27 P3 1.540089 1_555
O27 Rb14 2.922530 1_555
O27 Rb8 2.952932 1_455
O27 Rb17 3.055176 1_555
O27 Rb0 3.092482 1_455
O28 P3 1.561604 1_555
O28 Rb16 2.993928 1_455
O28 Rb17 3.067380 1_555
O29 P6 1.535018 1_545
O29 Rb2 2.881153 1_555
O29 Rb15 3.047158 1_555
O29 Rb10 3.069787 1_545
O29 Rb22 3.253229 1_545
O30 P10 1.576561 1_555
O30 Rb5 2.769725 1_565
O30 Rb19 2.986217 1_565
O31 P7 1.566271 1_555
O31 Rb7 2.826734 1_555
O31 Rb6 3.156356 1_555
O32 P5 1.566271 1_555
O32 Rb23 2.826734 1_555
O32 Rb19 3.156356 1_555
O33 P4 1.534765 1_555
O33 Rb23 2.819354 1_555
O33 Rb15 2.886213 1_555
O33 Rb17 2.988984 1_555
O33 Rb11 3.021148 1_555
O34 P1 1.572428 1_555
O34 Rb18 3.036419 1_555
O34 Rb2 3.161456 1_556
O35 P8 1.583992 1_555
O35 Rb12 2.926141 1_556
O35 Rb1 2.988414 1_555
O36 P5 1.560211 1_565
O36 Rb4 3.049237 1_555
O36 Rb19 3.063669 1_565
O37 P15 1.566271 1_555
O37 Rb16 2.826734 1_555
O37 Rb21 3.156356 1_554
O38 P5 1.564624 1_565
O38 Rb6 2.902955 1_555
O38 Rb22 3.193098 1_555
O39 P9 1.572428 1_555
O39 Rb14 3.036419 1_555
O39 Rb4 3.161456 1_555
O40 P7 1.528557 1_555
O40 Rb3 2.715558 1_555
O40 Rb13 3.013604 1_555
O40 Rb0 3.021596 1_565
O41 P11 1.576561 1_555
O41 Rb13 2.769725 1_545
O41 Rb21 2.986217 1_545
O42 P15 1.564624 1_545
O42 Rb12 2.902955 1_655
O42 Rb11 3.193098 1_655
O43 P6 1.587874 1_555
O43 Rb20 2.821552 1_554
O43 Rb23 2.886837 1_555
O43 Rb10 3.147731 1_555
O44 P2 1.576446 1_555
O44 Rb13 2.900085 1_545
O44 Rb0 2.949253 1_555
O45 P15 1.528557 1_555
O45 Rb10 2.715558 1_555
O45 Rb22 3.013604 1_555
O45 Rb2 3.021596 1_565
O46 P3 1.583992 1_555
O46 Rb19 2.926141 1_555
O46 Rb23 2.988414 1_555
O47 P14 1.587874 1_555
O47 Rb0 2.821552 1_555
O47 Rb16 2.886837 1_555
O47 Rb17 3.147731 1_655
O48 P11 1.587874 1_555
O48 Rb2 2.821552 1_556
O48 Rb7 2.886837 1_555
O48 Rb9 3.147731 1_555
O49 P4 1.572428 1_555
O49 Rb15 3.036419 1_555
O49 Rb20 3.161456 1_554
O50 P13 1.528557 1_555
O50 Rb9 2.715558 1_555
O50 Rb5 3.013604 1_555
O50 Rb20 3.021596 1_545
O51 P9 1.555389 1_555
O51 Rb19 3.090306 1_555
O51 Rb5 3.327027 1_555
O52 P12 1.569549 1_555
O52 Rb19 2.895819 1_555
O53 P11 1.557389 1_555
O53 Rb5 2.922757 1_555
O54 P12 1.572428 1_555
O54 Rb8 3.036419 1_555
O54 Rb0 3.161456 1_555
O55 P4 1.555389 1_555
O55 Rb12 3.090306 1_555
O55 Rb11 3.327027 1_555
O56 P6 1.557389 1_555
O56 Rb22 2.922757 1_555
O57 P15 1.560211 1_545
O57 Rb2 3.049237 1_555
O57 Rb21 3.063669 1_544
O58 P5 1.528557 1_555
O58 Rb17 2.715558 1_555
O58 Rb11 3.013604 1_555
O58 Rb4 3.021596 1_545
O59 P0 1.576446 1_555
O59 Rb22 2.900085 1_545
O59 Rb2 2.949253 1_555
O60 P0 1.540089 1_555
O60 Rb18 2.922530 1_554
O60 Rb15 2.952932 1_555
O60 Rb10 3.055176 1_555
O60 Rb20 3.092482 1_554
O61 P9 1.569549 1_555
O61 Rb6 2.895819 1_555
O62 P0 1.583992 1_555
O62 Rb21 2.926141 1_554
O62 Rb16 2.988414 1_555
O63 P12 1.555389 1_555
O63 Rb6 3.090306 1_555
O63 Rb22 3.327027 1_555
