# generated using pymatgen
data_K3Nd(AsS4)2
_symmetry_space_group_name_H-M   'P 1'
_cell_length_a   11.04348685
_cell_length_b   11.04348685
_cell_length_c   9.10152070
_cell_angle_alpha   77.10101880
_cell_angle_beta   77.10101880
_cell_angle_gamma   122.48991770
_symmetry_Int_Tables_number   1
_chemical_formula_structural   K3Nd(AsS4)2
_chemical_formula_sum   'K6 Nd2 As4 S16'
_cell_volume   829.36839581
_cell_formula_units_Z   2
loop_
 _symmetry_equiv_pos_site_id
 _symmetry_equiv_pos_as_xyz
  1  'x, y, z'
loop_
 _atom_site_type_symbol
 _atom_site_label
 _atom_site_symmetry_multiplicity
 _atom_site_fract_x
 _atom_site_fract_y
 _atom_site_fract_z
 _atom_site_occupancy
  K  K0  1  0.00354600  0.99645400  0.25000000  1
  K  K1  1  0.99645400  0.00354600  0.75000000  1
  K  K2  1  0.25815300  0.74184700  0.25000000  1
  K  K3  1  0.50000000  0.50000000  0.00000000  1
  K  K4  1  0.74184700  0.25815300  0.75000000  1
  K  K5  1  0.50000000  0.50000000  0.50000000  1
  Nd  Nd0  1  0.24271900  0.75728100  0.75000000  1
  Nd  Nd1  1  0.75728100  0.24271900  0.25000000  1
  As  As0  1  0.90584700  0.65739200  0.10428000  1
  As  As1  1  0.09415300  0.34260800  0.89572000  1
  As  As2  1  0.65739200  0.90584700  0.60428000  1
  As  As3  1  0.34260800  0.09415300  0.39572000  1
  S  S0  1  0.84420600  0.13247500  0.01893600  1
  S  S1  1  0.26780800  0.23936500  0.37080600  1
  S  S2  1  0.86116900  0.50537300  0.34474200  1
  S  S3  1  0.50537300  0.86116900  0.84474200  1
  S  S4  1  0.47000600  0.12612900  0.55626400  1
  S  S5  1  0.76063500  0.73219200  0.12919400  1
  S  S6  1  0.13883100  0.49462700  0.65525800  1
  S  S7  1  0.52999400  0.87387100  0.44373600  1
  S  S8  1  0.13247500  0.84420600  0.51893600  1
  S  S9  1  0.87387100  0.52999400  0.94373600  1
  S  S10  1  0.12612900  0.47000600  0.05626400  1
  S  S11  1  0.73219200  0.76063500  0.62919400  1
  S  S12  1  0.49462700  0.13883100  0.15525800  1
  S  S13  1  0.15579400  0.86752500  0.98106400  1
  S  S14  1  0.86752500  0.15579400  0.48106400  1
  S  S15  1  0.23936500  0.26780800  0.87080600  1
loop_
_geom_bond_atom_site_label_1
_geom_bond_atom_site_label_2
_geom_bond_distance
_geom_bond_site_symmetry_2
K0 S11 3.264826 1_455
K0 S15 3.264826 1_564
K0 S5 3.355759 1_455
K0 S1 3.355759 1_565
K0 S0 3.585681 1_465
K0 S14 3.585681 1_465
K0 S8 3.624359 1_555
K0 S13 3.624359 1_554
K1 S5 3.264826 1_546
K1 S1 3.264826 1_655
K1 S11 3.355759 1_545
K1 S15 3.355759 1_655
K1 S8 3.585681 1_645
K1 S13 3.585681 1_645
K1 S0 3.624359 1_556
K1 S14 3.624359 1_555
K2 S13 3.255696 1_554
K2 S8 3.255696 1_555
K2 S2 3.433770 1_455
K2 S12 3.433770 1_565
K2 S6 3.502014 1_555
K2 S3 3.502014 1_554
K2 S10 3.613357 1_555
K2 S7 3.613357 1_555
K3 S1 3.181218 1_555
K3 S11 3.181218 1_554
K3 S5 3.342269 1_555
K3 S15 3.342269 1_554
K4 S14 3.255696 1_555
K4 S0 3.255696 1_556
K4 S3 3.433770 1_545
K4 S6 3.433770 1_655
K4 S12 3.502014 1_556
K4 S2 3.502014 1_555
K4 S4 3.613357 1_555
K4 S9 3.613357 1_555
K5 S5 3.181218 1_555
K5 S15 3.181218 1_555
K5 S11 3.342269 1_555
K5 S1 3.342269 1_555
Nd0 S13 2.885113 1_555
Nd0 S8 2.885113 1_555
Nd0 S6 2.908036 1_555
Nd0 S3 2.908036 1_555
Nd0 S10 3.090912 1_556
Nd0 S7 3.090912 1_555
Nd0 S4 3.136086 1_565
Nd0 S9 3.136086 1_455
Nd1 S14 2.885113 1_555
Nd1 S0 2.885113 1_555
Nd1 S2 2.908036 1_555
Nd1 S12 2.908036 1_555
Nd1 S4 3.090912 1_555
Nd1 S9 3.090912 1_554
Nd1 S7 3.136086 1_545
Nd1 S10 3.136086 1_655
As0 S5 2.156355 1_555
As0 S13 2.199229 1_654
As0 S2 2.199845 1_555
As0 S9 2.203106 1_554
As1 S15 2.156355 1_555
As1 S0 2.199229 1_456
As1 S6 2.199845 1_555
As1 S10 2.203106 1_556
As2 S11 2.156355 1_555
As2 S14 2.199229 1_565
As2 S3 2.199845 1_555
As2 S7 2.203106 1_555
As3 S1 2.156355 1_555
As3 S8 2.199229 1_545
As3 S12 2.199845 1_555
As3 S4 2.203106 1_555
