# generated using pymatgen
data_NaLiCO3
_symmetry_space_group_name_H-M   'P 1'
_cell_length_a   8.41836170
_cell_length_b   8.41836170
_cell_length_c   3.40376100
_cell_angle_alpha   90.00000000
_cell_angle_beta   90.00000000
_cell_angle_gamma   119.99999762
_symmetry_Int_Tables_number   1
_chemical_formula_structural   NaLiCO3
_chemical_formula_sum   'Na3 Li3 C3 O9'
_cell_volume   208.90308943
_cell_formula_units_Z   3
loop_
 _symmetry_equiv_pos_site_id
 _symmetry_equiv_pos_as_xyz
  1  'x, y, z'
loop_
 _atom_site_type_symbol
 _atom_site_label
 _atom_site_symmetry_multiplicity
 _atom_site_fract_x
 _atom_site_fract_y
 _atom_site_fract_z
 _atom_site_occupancy
  Na  Na0  1  0.34448200  0.34448200  0.50000000  1
  Na  Na1  1  0.00000000  0.65551800  0.50000000  1
  Na  Na2  1  0.65551800  0.00000000  0.50000000  1
  Li  Li0  1  0.71021100  0.71021100  0.00000000  1
  Li  Li1  1  0.28978900  0.00000000  0.00000000  1
  Li  Li2  1  0.00000000  0.28978900  0.00000000  1
  C  C0  1  0.66666700  0.33333300  0.00000000  1
  C  C1  1  0.33333300  0.66666700  0.00000000  1
  C  C2  1  0.00000000  0.00000000  0.50000000  1
  O  O0  1  0.84552400  0.84552400  0.50000000  1
  O  O1  1  0.23652200  0.74803000  0.00000000  1
  O  O2  1  0.48849300  0.25197000  0.00000000  1
  O  O3  1  0.15447600  0.00000000  0.50000000  1
  O  O4  1  0.00000000  0.15447600  0.50000000  1
  O  O5  1  0.74803000  0.23652200  0.00000000  1
  O  O6  1  0.51150700  0.76347800  0.00000000  1
  O  O7  1  0.25197000  0.48849300  0.00000000  1
  O  O8  1  0.76347800  0.51150700  0.00000000  1
loop_
_geom_bond_atom_site_label_1
_geom_bond_atom_site_label_2
_geom_bond_distance
_geom_bond_site_symmetry_2
Na0 O7 2.432458 1_556
Na0 O2 2.432458 1_555
Na0 O2 2.432458 1_556
Na0 O7 2.432458 1_555
Na0 O4 2.515900 1_555
Na0 O3 2.515900 1_555
Na1 O1 2.432453 1_556
Na1 O1 2.432453 1_555
Na1 O8 2.432454 1_456
Na1 O8 2.432454 1_455
Na1 O0 2.515900 1_455
Na1 O3 2.515900 1_565
Na2 O5 2.432453 1_556
Na2 O5 2.432453 1_555
Na2 O6 2.432454 1_545
Na2 O6 2.432454 1_546
Na2 O0 2.515900 1_545
Na2 O4 2.515900 1_655
Li0 O8 1.936315 1_555
Li0 O6 1.936315 1_555
Li0 O0 2.047920 1_555
Li0 O0 2.047920 1_554
Li1 O1 1.936307 1_545
Li1 O2 1.936310 1_555
Li1 O3 2.047920 1_555
Li1 O3 2.047920 1_554
Li2 O5 1.936307 1_455
Li2 O7 1.936310 1_555
Li2 O4 2.047920 1_554
Li2 O4 2.047920 1_555
C0 O5 1.300607 1_555
C0 O2 1.300607 1_555
C0 O8 1.300607 1_555
C1 O1 1.300607 1_555
C1 O7 1.300607 1_555
C1 O6 1.300607 1_555
C2 O3 1.300435 1_555
C2 O4 1.300435 1_555
C2 O0 1.300435 1_445
