# generated using pymatgen
data_Fe(PO3)3
_symmetry_space_group_name_H-M   'P 1'
_cell_length_a   11.78802966
_cell_length_b   11.78802966
_cell_length_c   9.58955101
_cell_angle_alpha   70.05382830
_cell_angle_beta   70.05382830
_cell_angle_gamma   110.79633786
_symmetry_Int_Tables_number   1
_chemical_formula_structural   Fe(PO3)3
_chemical_formula_sum   'Fe6 P18 O54'
_cell_volume   995.89567080
_cell_formula_units_Z   6
loop_
 _symmetry_equiv_pos_site_id
 _symmetry_equiv_pos_as_xyz
  1  'x, y, z'
loop_
 _atom_site_type_symbol
 _atom_site_label
 _atom_site_symmetry_multiplicity
 _atom_site_fract_x
 _atom_site_fract_y
 _atom_site_fract_z
 _atom_site_occupancy
  Fe  Fe0  1  0.07467400  0.23333700  0.07150200  1
  Fe  Fe1  1  0.23333700  0.07467400  0.57150200  1
  Fe  Fe2  1  0.92795100  0.41674600  0.53902500  1
  Fe  Fe3  1  0.41674600  0.92795100  0.03902500  1
  Fe  Fe4  1  0.56329800  0.74016700  0.57403800  1
  Fe  Fe5  1  0.74016700  0.56329800  0.07403800  1
  P  P0  1  0.32205300  0.25955600  0.74790600  1
  P  P1  1  0.25955600  0.32205300  0.24790600  1
  P  P2  1  0.00047200  0.60345300  0.72447200  1
  P  P3  1  0.60345300  0.00047200  0.22447200  1
  P  P4  1  0.94366400  0.66879100  0.22600300  1
  P  P5  1  0.66879100  0.94366400  0.72600300  1
  P  P6  1  0.86855200  0.90953000  0.84567600  1
  P  P7  1  0.90953000  0.86855200  0.34567600  1
  P  P8  1  0.21594000  0.58892700  0.82630000  1
  P  P9  1  0.58892700  0.21594000  0.32630000  1
  P  P10  1  0.48182500  0.53629000  0.40856900  1
  P  P11  1  0.53629000  0.48182500  0.90856900  1
  P  P12  1  0.28381200  0.57329600  0.28164100  1
  P  P13  1  0.57329600  0.28381200  0.78164100  1
  P  P14  1  0.21999100  0.82886500  0.87709700  1
  P  P15  1  0.82886500  0.21999100  0.37709700  1
  P  P16  1  0.88642200  0.15905600  0.88533800  1
  P  P17  1  0.15905600  0.88642200  0.38533800  1
  O  O0  1  0.29899200  0.48270800  0.19062000  1
  O  O1  1  0.48270800  0.29899200  0.69062000  1
  O  O2  1  0.18047400  0.44850300  0.95778200  1
  O  O3  1  0.44850300  0.18047400  0.45778200  1
  O  O4  1  0.01197500  0.22915700  0.90081000  1
  O  O5  1  0.22915700  0.01197500  0.40081000  1
  O  O6  1  0.13799800  0.48964500  0.44187700  1
  O  O7  1  0.48964500  0.13799800  0.94187700  1
  O  O8  1  0.49277400  0.91460400  0.19756000  1
  O  O9  1  0.91460400  0.49277400  0.69756000  1
  O  O10  1  0.56825400  0.64052200  0.44186500  1
  O  O11  1  0.64052200  0.56825400  0.94186500  1
  O  O12  1  0.39885300  0.59705800  0.33838100  1
  O  O13  1  0.59705800  0.39885300  0.83838100  1
  O  O14  1  0.12937200  0.23884900  0.24762600  1
  O  O15  1  0.23884900  0.12937200  0.74762600  1
  O  O16  1  0.33434700  0.71655600  0.13843000  1
  O  O17  1  0.71655600  0.33434700  0.63843000  1
  O  O18  1  0.09282500  0.55223600  0.78404000  1
  O  O19  1  0.55223600  0.09282500  0.28404000  1
  O  O20  1  0.56522000  0.83695700  0.71072800  1
  O  O21  1  0.83695700  0.56522000  0.21072800  1
  O  O22  1  0.76677900  0.80947300  0.49770400  1
  O  O23  1  0.80947300  0.76677900  0.99770400  1
  O  O24  1  0.35014600  0.39527300  0.59204600  1
  O  O25  1  0.39527300  0.35014600  0.09204600  1
  O  O26  1  0.35858900  0.68321500  0.65766800  1
  O  O27  1  0.68321500  0.35858900  0.15766800  1
  O  O28  1  0.19499000  0.67373200  0.92459000  1
  O  O29  1  0.67373200  0.19499000  0.42459000  1
  O  O30  1  0.79107300  0.08144700  0.53753000  1
  O  O31  1  0.08144700  0.79107300  0.03753000  1
  O  O32  1  0.74645300  0.12576800  0.04029800  1
  O  O33  1  0.12576800  0.74645300  0.54029800  1
  O  O34  1  0.63388300  0.91985800  0.35011000  1
  O  O35  1  0.91985800  0.63388300  0.85011000  1
  O  O36  1  0.49878500  0.55890300  0.78980400  1
  O  O37  1  0.55890300  0.49878500  0.28980400  1
  O  O38  1  0.91865500  0.34725400  0.37680200  1
  O  O39  1  0.34725400  0.91865500  0.87680200  1
  O  O40  1  0.25657600  0.25582800  0.91526500  1
  O  O41  1  0.25582800  0.25657600  0.41526500  1
  O  O42  1  0.89195200  0.21651100  0.21461100  1
  O  O43  1  0.21651100  0.89195200  0.71461100  1
  O  O44  1  0.89690300  0.23624500  0.71641800  1
  O  O45  1  0.23624500  0.89690300  0.21641800  1
  O  O46  1  0.60683300  0.98533200  0.85054600  1
  O  O47  1  0.98533200  0.60683300  0.35054600  1
  O  O48  1  0.76280900  0.88775800  0.77432600  1
  O  O49  1  0.88775800  0.76280900  0.27432600  1
  O  O50  1  0.84708100  0.00065400  0.93246400  1
  O  O51  1  0.00065400  0.84708100  0.43246400  1
  O  O52  1  0.98797500  0.01847000  0.19597200  1
  O  O53  1  0.01847000  0.98797500  0.69597200  1
loop_
_geom_bond_atom_site_label_1
_geom_bond_atom_site_label_2
_geom_bond_distance
_geom_bond_site_symmetry_2
Fe0 O40 2.011542 1_554
Fe0 O42 2.014016 1_455
Fe0 O14 2.015103 1_555
Fe0 O4 2.020541 1_554
Fe0 O2 2.028933 1_554
Fe0 O52 2.037511 1_455
Fe1 O41 2.011542 1_555
Fe1 O43 2.014016 1_545
Fe1 O15 2.015103 1_555
Fe1 O5 2.020541 1_555
Fe1 O3 2.028933 1_555
Fe1 O53 2.037511 1_545
Fe2 O9 2.001437 1_555
Fe2 O38 2.006266 1_555
Fe2 O47 2.017845 1_555
Fe2 O17 2.022545 1_555
Fe2 O6 2.026381 1_655
Fe2 O44 2.026767 1_555
Fe3 O8 2.001437 1_555
Fe3 O39 2.006266 1_554
Fe3 O46 2.017845 1_554
Fe3 O16 2.022545 1_555
Fe3 O7 2.026381 1_564
Fe3 O45 2.026767 1_555
Fe4 O22 1.989788 1_555
Fe4 O10 2.000907 1_555
Fe4 O20 2.010669 1_555
Fe4 O26 2.019628 1_555
Fe4 O36 2.044827 1_555
Fe4 O34 2.053379 1_555
Fe5 O23 1.989788 1_554
Fe5 O11 2.000907 1_554
Fe5 O21 2.010669 1_555
Fe5 O27 2.019628 1_555
Fe5 O37 2.044827 1_555
Fe5 O35 2.053379 1_554
O0 P1 1.610960 1_555
O0 P12 1.612221 1_555
O1 P0 1.610960 1_555
O1 P13 1.612221 1_555
O2 P8 1.493176 1_555
O3 P9 1.493176 1_555
O4 P16 1.503446 1_455
O5 P17 1.503446 1_545
O6 P12 1.499529 1_555
O7 P13 1.499529 1_555
O8 P3 1.504518 1_565
O9 P2 1.504518 1_655
O10 P10 1.500112 1_555
O11 P11 1.500112 1_555
O12 P10 1.593896 1_555
O12 P12 1.597256 1_555
O13 P11 1.593896 1_555
O13 P13 1.597256 1_555
O14 P1 1.500944 1_555
O15 P0 1.500944 1_555
O16 P12 1.495968 1_555
O17 P13 1.495968 1_555
O18 P2 1.591135 1_555
O18 P8 1.591432 1_555
O19 P3 1.591135 1_555
O19 P9 1.591432 1_555
O20 P5 1.500497 1_555
O21 P4 1.500497 1_555
O22 P7 1.497800 1_555
O23 P6 1.497800 1_555
O24 P0 1.599286 1_555
O24 P10 1.605400 1_555
O25 P1 1.599286 1_555
O25 P11 1.605400 1_554
O26 P8 1.506413 1_555
O27 P9 1.506413 1_555
O28 P14 1.611195 1_555
O28 P8 1.614975 1_555
O29 P15 1.611195 1_555
O29 P9 1.614975 1_555
O30 P15 1.591877 1_555
O30 P5 1.593610 1_545
O31 P14 1.591877 1_554
O31 P4 1.593610 1_455
O32 P16 1.598162 1_554
O32 P3 1.601046 1_555
O33 P17 1.598162 1_555
O33 P2 1.601046 1_555
O34 P3 1.496346 1_565
O35 P2 1.496346 1_655
O36 P11 1.496955 1_555
O37 P10 1.496955 1_555
O38 P15 1.496125 1_555
O39 P14 1.496125 1_555
O40 P0 1.502002 1_555
O41 P1 1.502002 1_555
O42 P15 1.502430 1_555
O43 P14 1.502430 1_555
O44 P16 1.498387 1_555
O45 P17 1.498387 1_555
O46 P5 1.503635 1_555
O47 P4 1.503635 1_555
O48 P5 1.593119 1_555
O48 P6 1.600725 1_555
O49 P4 1.593119 1_555
O49 P7 1.600725 1_555
O50 P6 1.603073 1_545
O50 P16 1.603835 1_555
O51 P7 1.603073 1_455
O51 P17 1.603835 1_555
O52 P7 1.497346 1_545
O53 P6 1.497346 1_455
