# generated using pymatgen
data_Sb(OF3)2
_symmetry_space_group_name_H-M   'P 1'
_cell_length_a   8.79236621
_cell_length_b   8.79236621
_cell_length_c   8.79236621
_cell_angle_alpha   109.47122063
_cell_angle_beta   109.47122063
_cell_angle_gamma   109.47122063
_symmetry_Int_Tables_number   1
_chemical_formula_structural   Sb(OF3)2
_chemical_formula_sum   'Sb4 O8 F24'
_cell_volume   523.23334757
_cell_formula_units_Z   4
loop_
 _symmetry_equiv_pos_site_id
 _symmetry_equiv_pos_as_xyz
  1  'x, y, z'
loop_
 _atom_site_type_symbol
 _atom_site_label
 _atom_site_symmetry_multiplicity
 _atom_site_fract_x
 _atom_site_fract_y
 _atom_site_fract_z
 _atom_site_occupancy
  Sb  Sb0  1  0.00000000  0.00000000  0.00000000  1
  Sb  Sb1  1  0.50000000  0.50000000  0.00000000  1
  Sb  Sb2  1  0.00000000  0.50000000  0.50000000  1
  Sb  Sb3  1  0.50000000  0.00000000  0.50000000  1
  O  O0  1  0.61915500  0.61915500  0.61915500  1
  O  O1  1  0.88084500  0.50000000  0.00000000  1
  O  O2  1  0.00000000  0.88084500  0.50000000  1
  O  O3  1  0.50000000  0.00000000  0.88084500  1
  O  O4  1  0.38084500  0.38084500  0.38084500  1
  O  O5  1  0.11915500  0.50000000  0.00000000  1
  O  O6  1  0.00000000  0.11915500  0.50000000  1
  O  O7  1  0.50000000  0.00000000  0.11915500  1
  F  F0  1  0.07735500  0.05055700  0.25215900  1
  F  F1  1  0.44944300  0.52679700  0.20160100  1
  F  F2  1  0.97320300  0.42264500  0.67480400  1
  F  F3  1  0.82519600  0.24784100  0.29839900  1
  F  F4  1  0.52679700  0.20160100  0.44944300  1
  F  F5  1  0.67480400  0.97320300  0.42264500  1
  F  F6  1  0.24784100  0.29839900  0.82519600  1
  F  F7  1  0.25215900  0.07735500  0.05055700  1
  F  F8  1  0.05055700  0.25215900  0.07735500  1
  F  F9  1  0.20160100  0.44944300  0.52679700  1
  F  F10  1  0.42264500  0.67480400  0.97320300  1
  F  F11  1  0.29839900  0.82519600  0.24784100  1
  F  F12  1  0.92264500  0.94944300  0.74784100  1
  F  F13  1  0.55055700  0.47320300  0.79839900  1
  F  F14  1  0.02679700  0.57735500  0.32519600  1
  F  F15  1  0.17480400  0.75215900  0.70160100  1
  F  F16  1  0.47320300  0.79839900  0.55055700  1
  F  F17  1  0.32519600  0.02679700  0.57735500  1
  F  F18  1  0.75215900  0.70160100  0.17480400  1
  F  F19  1  0.74784100  0.92264500  0.94944300  1
  F  F20  1  0.94944300  0.74784100  0.92264500  1
  F  F21  1  0.79839900  0.55055700  0.47320300  1
  F  F22  1  0.57735500  0.32519600  0.02679700  1
  F  F23  1  0.70160100  0.17480400  0.75215900  1
loop_
_geom_bond_atom_site_label_1
_geom_bond_atom_site_label_2
_geom_bond_distance
_geom_bond_site_symmetry_2
F0 Sb0 1.926591 1_555
F1 Sb1 1.926584 1_555
F2 Sb2 1.926589 1_655
F3 Sb2 1.926589 1_655
F4 Sb3 1.926584 1_555
F5 Sb3 1.926589 1_565
F6 Sb1 1.926589 1_556
F7 Sb0 1.926591 1_555
F8 Sb0 1.926591 1_555
F9 Sb2 1.926584 1_555
F10 Sb1 1.926589 1_556
F11 Sb3 1.926589 1_565
F12 Sb0 1.926591 1_666
F13 Sb1 1.926584 1_556
F14 Sb2 1.926589 1_555
F15 Sb2 1.926589 1_555
F16 Sb3 1.926584 1_565
F17 Sb3 1.926589 1_555
F18 Sb1 1.926589 1_555
F19 Sb0 1.926591 1_666
F20 Sb0 1.926591 1_666
F21 Sb2 1.926584 1_655
F22 Sb1 1.926589 1_555
F23 Sb3 1.926589 1_555
