# generated using pymatgen
data_FePCl8
_symmetry_space_group_name_H-M   'P 1'
_cell_length_a   6.12541621
_cell_length_b   13.80806364
_cell_length_c   13.95707663
_cell_angle_alpha   90.00000000
_cell_angle_beta   90.00000000
_cell_angle_gamma   90.00000000
_symmetry_Int_Tables_number   1
_chemical_formula_structural   FePCl8
_chemical_formula_sum   'Fe4 P4 Cl32'
_cell_volume   1180.49145138
_cell_formula_units_Z   4
loop_
 _symmetry_equiv_pos_site_id
 _symmetry_equiv_pos_as_xyz
  1  'x, y, z'
loop_
 _atom_site_type_symbol
 _atom_site_label
 _atom_site_symmetry_multiplicity
 _atom_site_fract_x
 _atom_site_fract_y
 _atom_site_fract_z
 _atom_site_occupancy
  Fe  Fe0  1  0.26554133  0.02293474  0.25000000  1
  Fe  Fe1  1  0.26554133  0.47706526  0.75000000  1
  Fe  Fe2  1  0.73445867  0.52293474  0.25000000  1
  Fe  Fe3  1  0.73445867  0.97706526  0.75000000  1
  P  P0  1  0.95336122  0.25000000  -0.00000000  1
  P  P1  1  0.04663878  0.75000000  0.50000000  1
  P  P2  1  0.04663878  0.75000000  -0.00000000  1
  P  P3  1  0.95336122  0.25000000  0.50000000  1
  Cl  Cl0  1  0.39565003  0.95778414  0.11837079  1
  Cl  Cl1  1  0.39565003  0.54221586  0.88162921  1
  Cl  Cl2  1  0.60434997  0.45778414  0.38162921  1
  Cl  Cl3  1  0.60434997  0.04221586  0.61837079  1
  Cl  Cl4  1  0.60434997  0.04221586  0.88162921  1
  Cl  Cl5  1  0.60434997  0.45778414  0.11837079  1
  Cl  Cl6  1  0.39565003  0.54221586  0.61837079  1
  Cl  Cl7  1  0.39565003  0.95778414  0.38162921  1
  Cl  Cl8  1  0.33435841  0.18048397  0.25000000  1
  Cl  Cl9  1  0.33435841  0.31951603  0.75000000  1
  Cl  Cl10  1  0.66564159  0.68048397  0.25000000  1
  Cl  Cl11  1  0.66564159  0.81951603  0.75000000  1
  Cl  Cl12  1  0.91111978  0.00203550  0.25000000  1
  Cl  Cl13  1  0.91111978  0.49796450  0.75000000  1
  Cl  Cl14  1  0.08888022  0.50203550  0.25000000  1
  Cl  Cl15  1  0.08888022  0.99796450  0.75000000  1
  Cl  Cl16  1  0.13819765  0.35251120  0.04978382  1
  Cl  Cl17  1  0.13819765  0.14748880  0.95021618  1
  Cl  Cl18  1  0.86180235  0.85251120  0.45021618  1
  Cl  Cl19  1  0.86180235  0.64748880  0.54978382  1
  Cl  Cl20  1  0.86180235  0.64748880  0.95021618  1
  Cl  Cl21  1  0.86180235  0.85251120  0.04978382  1
  Cl  Cl22  1  0.13819765  0.14748880  0.54978382  1
  Cl  Cl23  1  0.13819765  0.35251120  0.45021618  1
  Cl  Cl24  1  0.76840171  0.19904996  0.10123914  1
  Cl  Cl25  1  0.76840171  0.30095004  0.89876086  1
  Cl  Cl26  1  0.23159829  0.69904996  0.39876086  1
  Cl  Cl27  1  0.23159829  0.80095004  0.60123914  1
  Cl  Cl28  1  0.23159829  0.80095004  0.89876086  1
  Cl  Cl29  1  0.23159829  0.69904996  0.10123914  1
  Cl  Cl30  1  0.76840171  0.30095004  0.60123914  1
  Cl  Cl31  1  0.76840171  0.19904996  0.39876086  1
loop_
_geom_bond_atom_site_label_1
_geom_bond_atom_site_label_2
_geom_bond_distance
_geom_bond_site_symmetry_2
Cl0 Fe0 2.195359 1_565
Cl1 Fe1 2.195359 1_555
Cl2 Fe2 2.195359 1_555
Cl3 Fe3 2.195359 1_545
Cl4 Fe3 2.195359 1_545
Cl5 Fe2 2.195359 1_555
Cl6 Fe1 2.195359 1_555
Cl7 Fe0 2.195359 1_565
Cl8 Fe0 2.215913 1_555
Cl9 Fe1 2.215913 1_555
Cl10 Fe2 2.215913 1_555
Cl11 Fe3 2.215913 1_555
Cl12 Fe0 2.190075 1_655
Cl13 Fe1 2.190075 1_655
Cl14 Fe2 2.190075 1_455
Cl15 Fe3 2.190075 1_455
Cl16 P0 1.941201 1_455
Cl17 P0 1.941201 1_456
Cl18 P1 1.941201 1_655
Cl19 P1 1.941201 1_655
Cl20 P2 1.941201 1_656
Cl21 P2 1.941201 1_655
Cl22 P3 1.941201 1_455
Cl23 P3 1.941201 1_455
Cl24 P0 1.942962 1_555
Cl25 P0 1.942962 1_556
Cl26 P1 1.942962 1_555
Cl27 P1 1.942962 1_555
Cl28 P2 1.942962 1_556
Cl29 P2 1.942962 1_555
Cl30 P3 1.942962 1_555
Cl31 P3 1.942962 1_555
