# generated using pymatgen
data_K2YbMoPO8
_symmetry_space_group_name_H-M   'P 1'
_cell_length_a   12.30937405
_cell_length_b   12.30937405
_cell_length_c   12.30937405
_cell_angle_alpha   147.01529267
_cell_angle_beta   119.57933627
_cell_angle_gamma   70.58280680
_symmetry_Int_Tables_number   1
_chemical_formula_structural   K2YbMoPO8
_chemical_formula_sum   'K8 Yb4 Mo4 P4 O32'
_cell_volume   869.84773783
_cell_formula_units_Z   4
loop_
 _symmetry_equiv_pos_site_id
 _symmetry_equiv_pos_as_xyz
  1  'x, y, z'
loop_
 _atom_site_type_symbol
 _atom_site_label
 _atom_site_symmetry_multiplicity
 _atom_site_fract_x
 _atom_site_fract_y
 _atom_site_fract_z
 _atom_site_occupancy
  K  K0  1  0.74035100  0.63209100  0.05789900  1
  K  K1  1  0.75964900  0.81754800  0.89174000  1
  K  K2  1  0.24035100  0.18245200  0.10826000  1
  K  K3  1  0.07419200  0.68245200  0.44210100  1
  K  K4  1  0.92580800  0.31754800  0.55789900  1
  K  K5  1  0.57419200  0.13209100  0.39174000  1
  K  K6  1  0.42580800  0.86790900  0.60826000  1
  K  K7  1  0.25964900  0.36790900  0.94210100  1
  Yb  Yb0  1  0.68007900  0.75000000  0.43007900  1
  Yb  Yb1  1  0.81992100  0.25000000  0.06992100  1
  Yb  Yb2  1  0.18007900  0.75000000  0.93007900  1
  Yb  Yb3  1  0.31992100  0.25000000  0.56992100  1
  Mo  Mo0  1  0.58592700  0.33592700  0.25000000  1
  Mo  Mo1  1  0.91407300  0.16407300  0.75000000  1
  Mo  Mo2  1  0.41407300  0.66407300  0.75000000  1
  Mo  Mo3  1  0.08592700  0.83592700  0.25000000  1
  P  P0  1  0.93226200  0.75000000  0.68226200  1
  P  P1  1  0.56773800  0.25000000  0.81773800  1
  P  P2  1  0.06773800  0.25000000  0.31773800  1
  P  P3  1  0.43226200  0.75000000  0.18226200  1
  O  O0  1  0.15279400  0.08455600  0.21894100  1
  O  O1  1  0.16182000  0.09609100  0.48506900  1
  O  O2  1  0.63438500  0.06614700  0.71894100  1
  O  O3  1  0.65279400  0.43385300  0.06823800  1
  O  O4  1  0.34720600  0.56614700  0.93176200  1
  O  O5  1  0.43280700  0.20811500  0.76451900  1
  O  O6  1  0.66182000  0.17675200  0.06572900  1
  O  O7  1  0.55640400  0.29188500  0.72469200  1
  O  O8  1  0.44359600  0.70811500  0.27530800  1
  O  O9  1  0.05640400  0.33171100  0.26451900  1
  O  O10  1  0.34811800  0.66562200  0.58494000  1
  O  O11  1  0.56719300  0.79188500  0.23548100  1
  O  O12  1  0.86561500  0.58455600  0.43176200  1
  O  O13  1  0.58068200  0.76317700  0.91506000  1
  O  O14  1  0.84720600  0.91544400  0.78105900  1
  O  O15  1  0.13438500  0.41544400  0.56823800  1
  O  O16  1  0.41931800  0.23682300  0.08494000  1
  O  O17  1  0.36561500  0.93385300  0.28105900  1
  O  O18  1  0.61102300  0.59609100  0.43427100  1
  O  O19  1  0.08068200  0.16562200  0.81750400  1
  O  O20  1  0.93280700  0.16828900  0.22469200  1
  O  O21  1  0.84811800  0.26317700  0.68249600  1
  O  O22  1  0.94359600  0.66828900  0.73548100  1
  O  O23  1  0.91931800  0.83437800  0.18249600  1
  O  O24  1  0.38897700  0.40390900  0.56572900  1
  O  O25  1  0.33818000  0.82324800  0.93427100  1
  O  O26  1  0.11102300  0.67675200  0.01493100  1
  O  O27  1  0.06719300  0.83171100  0.77530800  1
  O  O28  1  0.83818000  0.90390900  0.51493100  1
  O  O29  1  0.65188200  0.33437800  0.41506000  1
  O  O30  1  0.88897700  0.32324800  0.98506900  1
  O  O31  1  0.15188200  0.73682300  0.31750400  1
loop_
_geom_bond_atom_site_label_1
_geom_bond_atom_site_label_2
_geom_bond_distance
_geom_bond_site_symmetry_2
K0 O23 2.703755 1_555
K0 O11 2.790958 1_555
K0 O7 2.794149 1_554
K0 O28 2.950700 1_555
K0 O13 2.966031 1_554
K0 O3 3.088258 1_555
K0 O30 3.143342 1_554
K0 O21 3.252279 1_554
K1 O13 2.703763 1_555
K1 O20 2.790965 1_566
K1 O22 2.794152 1_555
K1 O6 2.950710 1_566
K1 O23 2.966041 1_556
K1 O14 3.088258 1_555
K1 O18 3.143337 1_555
K1 O29 3.252278 1_555
K2 O16 2.703763 1_555
K2 O27 2.790965 1_544
K2 O9 2.794152 1_555
K2 O25 2.950710 1_544
K2 O19 2.966041 1_554
K2 O0 3.088258 1_555
K2 O24 3.143337 1_555
K2 O10 3.252278 1_555
K3 O31 2.703766 1_555
K3 O9 2.790970 1_555
K3 O27 2.794157 1_555
K3 O30 2.950706 1_454
K3 O10 2.966041 1_555
K3 O12 3.088258 1_455
K3 O28 3.143337 1_455
K3 O19 3.252278 1_565
K4 O21 2.703766 1_555
K4 O22 2.790970 1_555
K4 O20 2.794157 1_555
K4 O26 2.950706 1_656
K4 O29 2.966041 1_555
K4 O15 3.088258 1_655
K4 O1 3.143337 1_655
K4 O23 3.252278 1_545
K5 O29 2.703755 1_555
K5 O7 2.790958 1_555
K5 O11 2.794149 1_545
K5 O24 2.950710 1_555
K5 O21 2.966043 1_555
K5 O17 3.088258 1_545
K5 O25 3.143337 1_544
K5 O13 3.252277 1_544
K6 O10 2.703755 1_555
K6 O8 2.790958 1_555
K6 O5 2.794149 1_565
K6 O18 2.950710 1_555
K6 O31 2.966043 1_555
K6 O2 3.088258 1_565
K6 O6 3.143337 1_566
K6 O16 3.252277 1_566
K7 O19 2.703755 1_555
K7 O5 2.790958 1_555
K7 O8 2.794149 1_556
K7 O1 2.950700 1_555
K7 O16 2.966031 1_556
K7 O4 3.088258 1_555
K7 O26 3.143342 1_556
K7 O31 3.252279 1_556
Mo0 O16 1.792713 1_555
Mo0 O29 1.792714 1_555
Mo0 O6 1.809925 1_555
Mo0 O18 1.809925 1_555
Mo1 O21 1.792703 1_555
Mo1 O19 1.792714 1_655
Mo1 O28 1.809923 1_545
Mo1 O30 1.809935 1_555
Mo2 O13 1.792713 1_555
Mo2 O10 1.792714 1_555
Mo2 O25 1.809925 1_555
Mo2 O24 1.809925 1_555
Mo3 O31 1.792703 1_555
Mo3 O23 1.792714 1_455
Mo3 O1 1.809923 1_565
Mo3 O26 1.809935 1_555
O0 P2 1.551443 1_555
O0 Yb2 2.325725 1_544
O0 Yb3 2.509051 1_555
O1 Yb3 2.364854 1_555
O2 P1 1.551443 1_555
O2 Yb0 2.325725 1_545
O2 Yb1 2.509051 1_556
O3 P1 1.551443 1_554
O3 Yb0 2.325725 1_555
O3 Yb1 2.509051 1_555
O4 P3 1.551443 1_556
O4 Yb3 2.325725 1_555
O4 Yb2 2.509051 1_555
O5 P1 1.543426 1_555
O5 Yb3 2.498795 1_555
O6 Yb1 2.364846 1_555
O7 P1 1.543426 1_555
O7 Yb3 2.498795 1_555
O8 P3 1.543426 1_555
O8 Yb0 2.498795 1_555
O9 P2 1.543414 1_555
O9 Yb1 2.498795 1_455
O11 P3 1.543426 1_555
O11 Yb0 2.498795 1_555
O12 P0 1.551443 1_555
O12 Yb1 2.325725 1_555
O12 Yb0 2.509051 1_555
O14 P0 1.551443 1_555
O14 Yb1 2.325725 1_566
O14 Yb0 2.509051 1_555
O15 P2 1.551443 1_555
O15 Yb2 2.325725 1_555
O15 Yb3 2.509051 1_555
O17 P3 1.551443 1_555
O17 Yb3 2.325725 1_565
O17 Yb2 2.509051 1_554
O18 Yb0 2.364846 1_555
O20 P2 1.543421 1_655
O20 Yb1 2.498784 1_555
O22 P0 1.543414 1_555
O22 Yb2 2.498795 1_655
O24 Yb3 2.364846 1_555
O25 Yb2 2.364846 1_555
O26 Yb2 2.364834 1_554
O27 P0 1.543421 1_455
O27 Yb2 2.498784 1_555
O28 Yb0 2.364854 1_555
O30 Yb1 2.364834 1_556
