# generated using pymatgen
data_As2Cl3OF5
_symmetry_space_group_name_H-M   'P 1'
_cell_length_a   19.37523300
_cell_length_b   6.21434800
_cell_length_c   8.03707345
_cell_angle_alpha   71.75374207
_cell_angle_beta   90.00000000
_cell_angle_gamma   90.00000000
_symmetry_Int_Tables_number   1
_chemical_formula_structural   As2Cl3OF5
_chemical_formula_sum   'As8 Cl12 O4 F20'
_cell_volume   919.04300015
_cell_formula_units_Z   4
loop_
 _symmetry_equiv_pos_site_id
 _symmetry_equiv_pos_as_xyz
  1  'x, y, z'
loop_
 _atom_site_type_symbol
 _atom_site_label
 _atom_site_symmetry_multiplicity
 _atom_site_fract_x
 _atom_site_fract_y
 _atom_site_fract_z
 _atom_site_occupancy
  As  As0  1  0.62120700  0.55223300  0.81625200  1
  As  As1  1  0.61307300  0.13939700  0.18376600  1
  As  As2  1  0.87879300  0.55223300  0.31625200  1
  As  As3  1  0.37879300  0.44776700  0.18374800  1
  As  As4  1  0.38692700  0.86060300  0.81623400  1
  As  As5  1  0.12120700  0.44776700  0.68374800  1
  As  As6  1  0.11307300  0.86060300  0.31623400  1
  As  As7  1  0.88692700  0.13939700  0.68376600  1
  Cl  Cl0  1  0.36723600  0.68645800  0.63420100  1
  Cl  Cl1  1  0.70468500  0.96966400  0.15812000  1
  Cl  Cl2  1  0.29531500  0.03033600  0.84188000  1
  Cl  Cl3  1  0.86723600  0.31354200  0.86579900  1
  Cl  Cl4  1  0.79531500  0.96966400  0.65812000  1
  Cl  Cl5  1  0.46275600  0.10712600  0.71089100  1
  Cl  Cl6  1  0.03724400  0.10712600  0.21089100  1
  Cl  Cl7  1  0.20468500  0.03033600  0.34188000  1
  Cl  Cl8  1  0.96275600  0.89287400  0.78910900  1
  Cl  Cl9  1  0.53724400  0.89287400  0.28910900  1
  Cl  Cl10  1  0.63276400  0.31354200  0.36579900  1
  Cl  Cl11  1  0.13276400  0.68645800  0.13420100  1
  O  O0  1  0.57755200  0.30396000  0.99205100  1
  O  O1  1  0.92244800  0.30396000  0.49205100  1
  O  O2  1  0.42244800  0.69604000  0.00794900  1
  O  O3  1  0.07755200  0.69604000  0.50794900  1
  F  F0  1  0.34540500  0.64660100  0.27869600  1
  F  F1  1  0.69613800  0.51925700  0.94897100  1
  F  F2  1  0.15459500  0.64660100  0.77869600  1
  F  F3  1  0.91299300  0.73966900  0.42017200  1
  F  F4  1  0.54315200  0.56398000  0.70008400  1
  F  F5  1  0.45684800  0.43602000  0.29991600  1
  F  F6  1  0.80386200  0.51925700  0.44897100  1
  F  F7  1  0.65459500  0.35339900  0.72130400  1
  F  F8  1  0.58700700  0.73966900  0.92017200  1
  F  F9  1  0.19613800  0.48074300  0.55102900  1
  F  F10  1  0.84269200  0.77789800  0.14764300  1
  F  F11  1  0.65730800  0.77789800  0.64764300  1
  F  F12  1  0.30386200  0.48074300  0.05102900  1
  F  F13  1  0.08700700  0.26033100  0.57982800  1
  F  F14  1  0.34269200  0.22210200  0.35235700  1
  F  F15  1  0.41299300  0.26033100  0.07982800  1
  F  F16  1  0.84540500  0.35339900  0.22130400  1
  F  F17  1  0.04315200  0.43602000  0.79991600  1
  F  F18  1  0.95684800  0.56398000  0.20008400  1
  F  F19  1  0.15730800  0.22210200  0.85235700  1
loop_
_geom_bond_atom_site_label_1
_geom_bond_atom_site_label_2
_geom_bond_distance
_geom_bond_site_symmetry_2
As0 F11 1.761308 1_555
As0 F8 1.761422 1_555
As0 F7 1.765794 1_555
As0 F4 1.766779 1_555
As0 F1 1.775005 1_555
As0 O0 1.930561 1_555
As1 O0 1.704962 1_554
As1 Cl9 2.100029 1_545
As1 Cl1 2.107564 1_545
As1 Cl10 2.109161 1_555
As2 F10 1.761308 1_555
As2 F3 1.761422 1_555
As2 F16 1.765794 1_555
As2 F18 1.766779 1_555
As2 F6 1.775005 1_555
As2 O1 1.930561 1_555
As3 F14 1.761308 1_555
As3 F15 1.761422 1_555
As3 F0 1.765794 1_555
As3 F5 1.766779 1_555
As3 F12 1.775005 1_555
As3 O2 1.930561 1_555
As4 O2 1.704962 1_556
As4 Cl5 2.100029 1_565
As4 Cl2 2.107564 1_565
As4 Cl0 2.109161 1_555
As5 F19 1.761308 1_555
As5 F13 1.761422 1_555
As5 F2 1.765794 1_555
As5 F17 1.766779 1_555
As5 F9 1.775005 1_555
As5 O3 1.930561 1_555
As6 O3 1.704962 1_555
As6 Cl6 2.100029 1_565
As6 Cl7 2.107564 1_565
As6 Cl11 2.109161 1_555
As7 O1 1.704962 1_555
As7 Cl8 2.100029 1_545
As7 Cl4 2.107564 1_545
As7 Cl3 2.109161 1_555
