# generated using pymatgen
data_KPO3
_symmetry_space_group_name_H-M   'P 1'
_cell_length_a   4.55149133
_cell_length_b   11.26279304
_cell_length_c   14.06523710
_cell_angle_alpha   62.92127425
_cell_angle_beta   90.00000000
_cell_angle_gamma   90.00000000
_symmetry_Int_Tables_number   1
_chemical_formula_structural   KPO3
_chemical_formula_sum   'K8 P8 O24'
_cell_volume   641.98251335
_cell_formula_units_Z   8
loop_
 _symmetry_equiv_pos_site_id
 _symmetry_equiv_pos_as_xyz
  1  'x, y, z'
loop_
 _atom_site_type_symbol
 _atom_site_label
 _atom_site_symmetry_multiplicity
 _atom_site_fract_x
 _atom_site_fract_y
 _atom_site_fract_z
 _atom_site_occupancy
  K  K0  1  0.78967002  0.93432813  0.35910896  1
  K  K1  1  0.24008550  0.60540760  0.56572367  1
  K  K2  1  0.28967002  0.06567187  0.14089104  1
  K  K3  1  0.21032998  0.06567187  0.64089104  1
  K  K4  1  0.74008550  0.39459240  0.93427633  1
  K  K5  1  0.75991450  0.39459240  0.43427633  1
  K  K6  1  0.71032998  0.93432813  0.85910896  1
  K  K7  1  0.25991450  0.60540760  0.06572367  1
  P  P0  1  0.18965204  0.21556405  0.83826258  1
  P  P1  1  0.68706938  0.31110461  0.69184975  1
  P  P2  1  0.81293062  0.31110461  0.19184975  1
  P  P3  1  0.81034796  0.78443595  0.16173742  1
  P  P4  1  0.31034796  0.21556405  0.33826258  1
  P  P5  1  0.31293062  0.68889539  0.30815025  1
  P  P6  1  0.68965204  0.78443595  0.66173742  1
  P  P7  1  0.18706938  0.68889539  0.80815025  1
  O  O0  1  0.71331111  0.91863170  0.65620826  1
  O  O1  1  0.86526596  0.67729400  0.76619946  1
  O  O2  1  0.78668889  0.91863170  0.15620826  1
  O  O3  1  0.63473404  0.67729400  0.26619946  1
  O  O4  1  0.70661857  0.19776936  0.66535180  1
  O  O5  1  0.36473809  0.72392652  0.69898606  1
  O  O6  1  0.21331111  0.08136830  0.84379174  1
  O  O7  1  0.73947301  0.76191129  0.06844616  1
  O  O8  1  0.63526191  0.27607348  0.30101394  1
  O  O9  1  0.86473809  0.27607348  0.80101394  1
  O  O10  1  0.73917884  0.44701732  0.10854797  1
  O  O11  1  0.26082116  0.55298268  0.89145203  1
  O  O12  1  0.79338143  0.19776936  0.16535180  1
  O  O13  1  0.26052699  0.23808871  0.93155384  1
  O  O14  1  0.28668889  0.08136830  0.34379174  1
  O  O15  1  0.13473404  0.32270600  0.23380054  1
  O  O16  1  0.23947301  0.23808871  0.43155384  1
  O  O17  1  0.76082116  0.44701732  0.60854797  1
  O  O18  1  0.13526191  0.72392652  0.19898606  1
  O  O19  1  0.76052699  0.76191129  0.56844616  1
  O  O20  1  0.23917884  0.55298268  0.39145203  1
  O  O21  1  0.36526596  0.32270600  0.73380054  1
  O  O22  1  0.20661857  0.80223064  0.83464820  1
  O  O23  1  0.29338143  0.80223064  0.33464820  1
loop_
_geom_bond_atom_site_label_1
_geom_bond_atom_site_label_2
_geom_bond_distance
_geom_bond_site_symmetry_2
K0 O19 2.693024 1_555
K0 O14 2.753478 1_665
K0 O14 2.775816 1_565
K0 O23 2.810750 1_555
K0 O23 2.837972 1_655
K0 O2 2.938572 1_555
K0 O12 2.978098 1_565
K1 O17 2.706522 1_455
K1 O20 2.770299 1_555
K1 O5 2.809783 1_555
K1 O19 2.816758 1_455
K1 O17 2.860836 1_555
K1 O19 2.963285 1_555
K1 O23 2.996135 1_555
K1 O21 3.032873 1_555
K2 O13 2.693024 1_554
K2 O2 2.753478 1_545
K2 O2 2.775816 1_445
K2 O12 2.810750 1_455
K2 O12 2.837972 1_555
K2 O14 2.938572 1_555
K2 O23 2.978098 1_545
K3 O16 2.693024 1_555
K3 O0 2.753478 1_445
K3 O0 2.775816 1_545
K3 O4 2.810750 1_555
K3 O4 2.837972 1_455
K3 O6 2.938572 1_555
K3 O22 2.978098 1_545
K4 O11 2.706522 1_555
K4 O10 2.770299 1_556
K4 O9 2.809783 1_555
K4 O13 2.816758 1_555
K4 O11 2.860836 1_655
K4 O13 2.963285 1_655
K4 O12 2.996135 1_556
K4 O1 3.032873 1_555
K5 O20 2.706522 1_655
K5 O17 2.770299 1_555
K5 O8 2.809783 1_555
K5 O16 2.816758 1_655
K5 O20 2.860836 1_555
K5 O16 2.963285 1_555
K5 O4 2.996135 1_555
K5 O3 3.032873 1_555
K6 O7 2.693024 1_556
K6 O6 2.753478 1_565
K6 O6 2.775816 1_665
K6 O22 2.810750 1_655
K6 O22 2.837972 1_555
K6 O0 2.938572 1_555
K6 O4 2.978098 1_565
K7 O10 2.706522 1_555
K7 O11 2.770299 1_554
K7 O18 2.809783 1_555
K7 O7 2.816758 1_555
K7 O10 2.860836 1_455
K7 O7 2.963285 1_455
K7 O22 2.996135 1_554
K7 O15 3.032873 1_555
O0 P6 1.481559 1_555
O1 P7 1.606464 1_655
O1 P6 1.624700 1_555
O2 P3 1.481559 1_555
O3 P5 1.606464 1_555
O3 P3 1.624700 1_555
O4 P1 1.486381 1_555
O5 P6 1.612713 1_555
O5 P7 1.617274 1_555
O6 P0 1.481559 1_555
O7 P3 1.480966 1_555
O8 P4 1.612713 1_555
O8 P2 1.617274 1_555
O9 P0 1.612713 1_655
O9 P1 1.617274 1_555
O10 P2 1.481825 1_555
O11 P7 1.481825 1_555
O12 P2 1.486381 1_555
O13 P0 1.480966 1_555
O14 P4 1.481559 1_555
O15 P2 1.606464 1_455
O15 P4 1.624700 1_555
O16 P4 1.480966 1_555
O17 P1 1.481825 1_555
O18 P3 1.612713 1_455
O18 P5 1.617274 1_555
O19 P6 1.480966 1_555
O20 P5 1.481825 1_555
O21 P1 1.606464 1_555
O21 P0 1.624700 1_555
O22 P7 1.486381 1_555
O23 P5 1.486381 1_555
