# generated using pymatgen
data_Th(SiRu)2
_symmetry_space_group_name_H-M   'P 1'
_cell_length_a   4.21341924
_cell_length_b   4.21341905
_cell_length_c   5.70625607
_cell_angle_alpha   111.66585997
_cell_angle_beta   111.66586495
_cell_angle_gamma   90.00000944
_symmetry_Int_Tables_number   1
_chemical_formula_structural   Th(SiRu)2
_chemical_formula_sum   'Th1 Si2 Ru2'
_cell_volume   86.39828122
_cell_formula_units_Z   1
loop_
 _symmetry_equiv_pos_site_id
 _symmetry_equiv_pos_as_xyz
  1  'x, y, z'
loop_
 _atom_site_type_symbol
 _atom_site_label
 _atom_site_symmetry_multiplicity
 _atom_site_fract_x
 _atom_site_fract_y
 _atom_site_fract_z
 _atom_site_occupancy
  Th  Th0  1  -0.00000000  -0.00000000  -0.00000000  1
  Si  Si0  1  0.63335511  0.63335511  0.26670922  1
  Si  Si1  1  0.36664489  0.36664489  0.73329078  1
  Ru  Ru0  1  0.75000000  0.25000000  0.50000000  1
  Ru  Ru1  1  0.25000000  0.75000000  0.50000000  1
loop_
_geom_bond_atom_site_label_1
_geom_bond_atom_site_label_2
_geom_bond_distance
_geom_bond_site_symmetry_2
Si0 Th0 3.249805 1_665
Si0 Th0 3.249807 1_565
Si0 Th0 3.249808 1_655
Si0 Th0 3.249809 1_555
Si1 Th0 3.249805 1_556
Si1 Th0 3.249807 1_656
Si1 Th0 3.249808 1_566
Si1 Th0 3.249809 1_666
Ru0 Si0 2.393169 1_545
Ru0 Si1 2.393169 1_655
Ru0 Si0 2.393173 1_555
Ru0 Si1 2.393173 1_555
Ru0 Th0 3.218610 1_555
Ru0 Th0 3.218610 1_666
Ru0 Th0 3.218610 1_656
Ru0 Th0 3.218610 1_655
Ru1 Si1 2.393169 1_565
Ru1 Si0 2.393169 1_455
Ru1 Si1 2.393173 1_555
Ru1 Si0 2.393173 1_555
Ru1 Th0 3.218610 1_666
Ru1 Th0 3.218610 1_555
Ru1 Th0 3.218610 1_565
Ru1 Th0 3.218610 1_566
