# generated using pymatgen
data_Li2Cr(H2O3)2
_symmetry_space_group_name_H-M   'P 1'
_cell_length_a   5.60284000
_cell_length_b   7.78531500
_cell_length_c   12.13535100
_cell_angle_alpha   90.00000000
_cell_angle_beta   90.00000000
_cell_angle_gamma   90.00000000
_symmetry_Int_Tables_number   1
_chemical_formula_structural   Li2Cr(H2O3)2
_chemical_formula_sum   'Li8 Cr4 H16 O24'
_cell_volume   529.34248514
_cell_formula_units_Z   4
loop_
 _symmetry_equiv_pos_site_id
 _symmetry_equiv_pos_as_xyz
  1  'x, y, z'
loop_
 _atom_site_type_symbol
 _atom_site_label
 _atom_site_symmetry_multiplicity
 _atom_site_fract_x
 _atom_site_fract_y
 _atom_site_fract_z
 _atom_site_occupancy
  Li  Li0  1  0.17746500  0.13837700  0.87206000  1
  Li  Li1  1  0.67746500  0.36162300  0.12794000  1
  Li  Li2  1  0.82253500  0.63837700  0.62794000  1
  Li  Li3  1  0.32253500  0.86162300  0.37206000  1
  Li  Li4  1  0.08044600  0.20376800  0.50149700  1
  Li  Li5  1  0.58044600  0.29623200  0.49850300  1
  Li  Li6  1  0.91955400  0.70376800  0.99850300  1
  Li  Li7  1  0.41955400  0.79623200  0.00149700  1
  Cr  Cr0  1  0.17632200  0.11783700  0.13471900  1
  Cr  Cr1  1  0.67632200  0.38216300  0.86528100  1
  Cr  Cr2  1  0.82367800  0.61783700  0.36528100  1
  Cr  Cr3  1  0.32367800  0.88216300  0.63471900  1
  H  H0  1  0.26143700  0.48487800  0.61356200  1
  H  H1  1  0.76143700  0.01512200  0.38643800  1
  H  H2  1  0.73856300  0.98487800  0.88643800  1
  H  H3  1  0.23856300  0.51512200  0.11356200  1
  H  H4  1  0.32502900  0.32868600  0.68774600  1
  H  H5  1  0.82502900  0.17131400  0.31225400  1
  H  H6  1  0.67497100  0.82868500  0.81225400  1
  H  H7  1  0.17497100  0.67131500  0.18774600  1
  H  H8  1  0.33484700  0.28536900  0.31369100  1
  H  H9  1  0.83484700  0.21463100  0.68630900  1
  H  H10  1  0.66515300  0.78536900  0.18630900  1
  H  H11  1  0.16515300  0.71463100  0.81369100  1
  H  H12  1  0.25274800  0.45116900  0.37410000  1
  H  H13  1  0.75274800  0.04883100  0.62590000  1
  H  H14  1  0.74725200  0.95116900  0.12590000  1
  H  H15  1  0.24725200  0.54883100  0.87410000  1
  O  O0  1  0.29924600  0.36021200  0.61008300  1
  O  O1  1  0.79924600  0.13978800  0.38991700  1
  O  O2  1  0.70075400  0.86021200  0.88991700  1
  O  O3  1  0.20075400  0.63978800  0.11008300  1
  O  O4  1  0.30136500  0.33013900  0.38752900  1
  O  O5  1  0.80136500  0.16986100  0.61247100  1
  O  O6  1  0.69863500  0.83013900  0.11247100  1
  O  O7  1  0.19863500  0.66986100  0.88752900  1
  O  O8  1  0.32950000  0.30217600  0.13844400  1
  O  O9  1  0.82950000  0.19782400  0.86155600  1
  O  O10  1  0.67050000  0.80217600  0.36155600  1
  O  O11  1  0.17050000  0.69782400  0.63844400  1
  O  O12  1  0.38294100  0.34304200  0.84907200  1
  O  O13  1  0.88294100  0.15695800  0.15092800  1
  O  O14  1  0.61705900  0.84304200  0.65092800  1
  O  O15  1  0.11705900  0.65695800  0.34907200  1
  O  O16  1  0.22243100  0.01719700  0.01483700  1
  O  O17  1  0.72243100  0.48280300  0.98516300  1
  O  O18  1  0.77756900  0.51719700  0.48516300  1
  O  O19  1  0.27756900  0.98280300  0.51483700  1
  O  O20  1  0.23356300  0.00344900  0.73730800  1
  O  O21  1  0.73356300  0.49655100  0.26269200  1
  O  O22  1  0.76643700  0.50344900  0.76269200  1
  O  O23  1  0.26643700  0.99655100  0.23730800  1
loop_
_geom_bond_atom_site_label_1
_geom_bond_atom_site_label_2
_geom_bond_distance
_geom_bond_site_symmetry_2
Li0 O20 1.968841 1_555
Li0 O12 1.985463 1_555
Li0 O16 1.988868 1_556
Li0 O9 2.007823 1_455
Li1 O21 1.968841 1_555
Li1 O13 1.985463 1_555
Li1 O17 1.988868 1_554
Li1 O8 2.007823 1_555
Li2 O22 1.968841 1_555
Li2 O14 1.985463 1_555
Li2 O18 1.988868 1_555
Li2 O11 2.007823 1_655
Li3 O23 1.968841 1_555
Li3 O15 1.985463 1_555
Li3 O19 1.988868 1_555
Li3 O10 2.007823 1_555
Li4 O19 2.050703 1_545
Li4 O5 2.080456 1_455
Li4 O4 2.100673 1_555
Li4 O1 2.136317 1_455
Li4 O0 2.173174 1_555
Li5 O18 2.050703 1_555
Li5 O4 2.080456 1_555
Li5 O5 2.100673 1_555
Li5 O0 2.136317 1_555
Li5 O1 2.173174 1_555
Li6 O17 2.050703 1_555
Li6 O7 2.080456 1_655
Li6 O6 2.100673 1_556
Li6 O3 2.136317 1_656
Li6 O2 2.173174 1_555
Li7 O16 2.050703 1_565
Li7 O6 2.080456 1_555
Li7 O7 2.100673 1_554
Li7 O2 2.136317 1_554
Li7 O3 2.173174 1_555
Cr0 O23 1.642084 1_545
Cr0 O16 1.672455 1_555
Cr0 O8 1.672789 1_555
Cr0 O13 1.683278 1_455
Cr1 O22 1.642084 1_555
Cr1 O17 1.672455 1_555
Cr1 O9 1.672789 1_555
Cr1 O12 1.683278 1_555
Cr2 O21 1.642084 1_555
Cr2 O18 1.672455 1_555
Cr2 O10 1.672789 1_555
Cr2 O15 1.683278 1_655
Cr3 O20 1.642084 1_565
Cr3 O19 1.672455 1_555
Cr3 O11 1.672789 1_555
Cr3 O14 1.683278 1_555
H0 O0 0.994310 1_555
H1 O1 0.994310 1_555
H2 O2 0.994310 1_555
H3 O3 0.994310 1_555
H4 O0 0.984558 1_555
H5 O1 0.984558 1_555
H6 O2 0.984560 1_555
H7 O3 0.984560 1_555
H8 O4 0.979583 1_555
H9 O5 0.979583 1_555
H10 O6 0.979583 1_555
H11 O7 0.979583 1_555
H12 O4 0.994285 1_555
H13 O5 0.994285 1_555
H14 O6 0.994285 1_555
H15 O7 0.994285 1_555
