# generated using pymatgen
data_LiCr2P3O10
_symmetry_space_group_name_H-M   'P 1'
_cell_length_a   8.65783800
_cell_length_b   4.74409000
_cell_length_c   9.49294066
_cell_angle_alpha   77.76369270
_cell_angle_beta   90.00000000
_cell_angle_gamma   90.00000000
_symmetry_Int_Tables_number   1
_chemical_formula_structural   LiCr2P3O10
_chemical_formula_sum   'Li2 Cr4 P6 O20'
_cell_volume   381.05085941
_cell_formula_units_Z   2
loop_
 _symmetry_equiv_pos_site_id
 _symmetry_equiv_pos_as_xyz
  1  'x, y, z'
loop_
 _atom_site_type_symbol
 _atom_site_label
 _atom_site_symmetry_multiplicity
 _atom_site_fract_x
 _atom_site_fract_y
 _atom_site_fract_z
 _atom_site_occupancy
  Li  Li0  1  0.00000000  0.00000000  0.00000000  1
  Li  Li1  1  0.50000000  0.00000000  0.00000000  1
  Cr  Cr0  1  0.93582000  0.95831400  0.33051800  1
  Cr  Cr1  1  0.56418000  0.95831400  0.33051800  1
  Cr  Cr2  1  0.43582000  0.04168600  0.66948200  1
  Cr  Cr3  1  0.06418000  0.04168600  0.66948200  1
  P  P0  1  0.75000000  0.67491600  0.82462000  1
  P  P1  1  0.25000000  0.46912200  0.86559800  1
  P  P2  1  0.25000000  0.58020500  0.45010500  1
  P  P3  1  0.75000000  0.41979500  0.54989500  1
  P  P4  1  0.75000000  0.53087800  0.13440200  1
  P  P5  1  0.25000000  0.32508400  0.17538000  1
  O  O0  1  0.89828400  0.84702700  0.81578800  1
  O  O1  1  0.60171600  0.84702700  0.81578800  1
  O  O2  1  0.25000000  0.77265200  0.76409600  1
  O  O3  1  0.39721600  0.74562300  0.46570700  1
  O  O4  1  0.10278400  0.74562300  0.46570700  1
  O  O5  1  0.75000000  0.72212900  0.44850300  1
  O  O6  1  0.75000000  0.44029200  0.97384900  1
  O  O7  1  0.89762600  0.69796300  0.14379600  1
  O  O8  1  0.60237400  0.69796300  0.14379600  1
  O  O9  1  0.75000000  0.46751600  0.71477300  1
  O  O10  1  0.25000000  0.53248400  0.28522700  1
  O  O11  1  0.39762600  0.30203700  0.85620400  1
  O  O12  1  0.10237400  0.30203700  0.85620400  1
  O  O13  1  0.25000000  0.55970800  0.02615100  1
  O  O14  1  0.25000000  0.27787100  0.55149700  1
  O  O15  1  0.89721600  0.25437700  0.53429300  1
  O  O16  1  0.60278400  0.25437700  0.53429300  1
  O  O17  1  0.75000000  0.22734800  0.23590400  1
  O  O18  1  0.39828400  0.15297300  0.18421200  1
  O  O19  1  0.10171600  0.15297300  0.18421200  1
loop_
_geom_bond_atom_site_label_1
_geom_bond_atom_site_label_2
_geom_bond_distance
_geom_bond_site_symmetry_2
Li0 O12 1.967997 1_554
Li0 O7 1.967997 1_445
Li0 O19 2.213174 1_555
Li0 O0 2.213174 1_444
Li1 O8 1.967997 1_545
Li1 O11 1.967997 1_554
Li1 O1 2.213174 1_544
Li1 O18 2.213174 1_555
Cr0 O4 2.050805 1_655
Cr0 O19 2.073902 1_665
Cr0 O17 2.130260 1_565
Cr0 O5 2.136868 1_555
Cr0 O7 2.388476 1_555
Cr0 O15 2.641622 1_565
Cr1 O3 2.050805 1_555
Cr1 O18 2.073902 1_565
Cr1 O17 2.130260 1_565
Cr1 O5 2.136868 1_555
Cr1 O8 2.388476 1_555
Cr1 O16 2.641622 1_565
Cr2 O16 2.050805 1_555
Cr2 O1 2.073902 1_545
Cr2 O2 2.130260 1_545
Cr2 O14 2.136868 1_555
Cr2 O11 2.388476 1_555
Cr2 O3 2.641622 1_545
Cr3 O15 2.050805 1_455
Cr3 O0 2.073902 1_445
Cr3 O2 2.130260 1_545
Cr3 O14 2.136868 1_555
Cr3 O12 2.388476 1_555
Cr3 O4 2.641622 1_545
O0 P0 1.514229 1_555
O1 P0 1.514229 1_555
O2 P1 1.553646 1_555
O3 P2 1.520389 1_555
O4 P2 1.520389 1_555
O5 P3 1.548693 1_555
O6 P0 1.605418 1_555
O6 P4 1.668912 1_556
O7 P4 1.516520 1_555
O8 P4 1.516520 1_555
O9 P0 1.578097 1_555
O9 P3 1.628261 1_555
O10 P5 1.578097 1_555
O10 P2 1.628261 1_555
O11 P1 1.516520 1_555
O12 P1 1.516520 1_555
O13 P5 1.605418 1_555
O13 P1 1.668912 1_554
O14 P2 1.548693 1_555
O15 P3 1.520389 1_555
O16 P3 1.520389 1_555
O17 P4 1.553646 1_555
O18 P5 1.514229 1_555
O19 P5 1.514229 1_555
