# generated using pymatgen
data_YbCu9Sn4
_symmetry_space_group_name_H-M   'P 1'
_cell_length_a   8.70368687
_cell_length_b   8.70368687
_cell_length_c   8.70368687
_cell_angle_alpha   120.51081311
_cell_angle_beta   120.51081311
_cell_angle_gamma   89.11749960
_symmetry_Int_Tables_number   1
_chemical_formula_structural   YbCu9Sn4
_chemical_formula_sum   'Yb2 Cu18 Sn8'
_cell_volume   462.56497997
_cell_formula_units_Z   2
loop_
 _symmetry_equiv_pos_site_id
 _symmetry_equiv_pos_as_xyz
  1  'x, y, z'
loop_
 _atom_site_type_symbol
 _atom_site_label
 _atom_site_symmetry_multiplicity
 _atom_site_fract_x
 _atom_site_fract_y
 _atom_site_fract_z
 _atom_site_occupancy
  Yb  Yb0  1  0.75000000  0.75000000  0.00000000  1
  Yb  Yb1  1  0.25000000  0.25000000  0.00000000  1
  Cu  Cu0  1  0.93403600  0.43403600  0.71635900  1
  Cu  Cu1  1  0.79939300  0.94526800  0.74466100  1
  Cu  Cu2  1  0.71767700  0.21767700  0.28364100  1
  Cu  Cu3  1  0.56596400  0.28232300  0.50000000  1
  Cu  Cu4  1  0.55473200  0.70060700  0.25533900  1
  Cu  Cu5  1  0.21767700  0.93403600  0.50000000  1
  Cu  Cu6  1  0.44526800  0.29939300  0.74466100  1
  Cu  Cu7  1  0.50000000  0.00000000  0.50000000  1
  Cu  Cu8  1  0.20060700  0.05473200  0.25533900  1
  Cu  Cu9  1  0.05473200  0.79939300  0.85412600  1
  Cu  Cu10  1  0.29939300  0.55473200  0.85412600  1
  Cu  Cu11  1  0.28232300  0.78232300  0.71635900  1
  Cu  Cu12  1  0.43403600  0.71767700  0.50000000  1
  Cu  Cu13  1  0.06596400  0.56596400  0.28364100  1
  Cu  Cu14  1  0.78232300  0.06596400  0.50000000  1
  Cu  Cu15  1  0.70060700  0.44526800  0.14587400  1
  Cu  Cu16  1  0.94526800  0.20060700  0.14587400  1
  Cu  Cu17  1  0.00000000  0.50000000  0.50000000  1
  Sn  Sn0  1  0.68701800  0.55924800  0.50000000  1
  Sn  Sn1  1  0.44075200  0.94075200  0.12777100  1
  Sn  Sn2  1  0.31298200  0.44075200  0.50000000  1
  Sn  Sn3  1  0.05924800  0.18701800  0.50000000  1
  Sn  Sn4  1  0.18701800  0.68701800  0.12777100  1
  Sn  Sn5  1  0.94075200  0.81298200  0.50000000  1
  Sn  Sn6  1  0.55924800  0.05924800  0.87222900  1
  Sn  Sn7  1  0.81298200  0.31298200  0.87222900  1
loop_
_geom_bond_atom_site_label_1
_geom_bond_atom_site_label_2
_geom_bond_distance
_geom_bond_site_symmetry_2
Cu0 Cu17 2.532028 1_655
Cu0 Sn4 2.579955 1_656
Cu0 Cu2 2.642547 1_555
Cu0 Sn7 2.645314 1_555
Cu0 Cu3 2.651882 1_555
Cu0 Cu14 2.651882 1_555
Cu0 Sn0 2.693853 1_555
Cu0 Sn3 2.693853 1_655
Cu0 Cu9 2.757819 1_655
Cu0 Cu10 2.757819 1_655
Cu0 Yb0 3.634422 1_556
Cu0 Yb1 3.634422 1_656
Cu1 Cu16 2.539705 1_566
Cu1 Cu9 2.539713 1_655
Cu1 Cu7 2.628529 1_565
Cu1 Sn5 2.738813 1_555
Cu1 Sn0 2.738813 1_555
Cu1 Cu14 2.757822 1_565
Cu1 Cu12 2.757822 1_555
Cu1 Sn6 2.785642 1_565
Cu1 Sn7 2.785649 1_565
Cu1 Cu4 2.988219 1_555
Cu1 Yb0 3.583320 1_556
Cu1 Yb1 3.583320 1_666
Cu2 Sn6 2.579957 1_554
Cu2 Sn1 2.645325 1_545
Cu2 Cu3 2.651882 1_555
Cu2 Sn0 2.693853 1_555
Cu2 Sn3 2.693853 1_655
Cu2 Yb0 3.634422 1_545
Cu2 Yb1 3.634422 1_555
Cu3 Cu7 2.532028 1_555
Cu3 Sn2 2.579950 1_555
Cu3 Sn0 2.645322 1_555
Cu3 Sn7 2.693847 1_555
Cu3 Sn1 2.693850 1_545
Cu3 Cu8 2.757822 1_555
Cu3 Cu6 2.757822 1_555
Cu3 Yb1 3.634422 1_555
Cu3 Yb0 3.634422 1_556
Cu4 Cu7 2.628529 1_565
Cu4 Sn5 2.738813 1_555
Cu4 Sn0 2.738813 1_555
Cu4 Sn1 2.785642 1_555
Cu4 Sn4 2.785649 1_555
Cu4 Yb0 3.583320 1_555
Cu4 Yb1 3.583320 1_555
Cu5 Cu7 2.532028 1_565
Cu5 Sn3 2.579950 1_565
Cu5 Sn5 2.645322 1_455
Cu5 Sn4 2.693847 1_555
Cu5 Sn6 2.693850 1_565
Cu5 Cu6 2.757822 1_565
Cu5 Cu8 2.757822 1_565
Cu5 Yb1 3.634422 1_566
Cu5 Yb0 3.634422 1_455
Cu6 Cu7 2.628529 1_555
Cu6 Sn2 2.738813 1_555
Cu6 Sn3 2.738813 1_555
Cu6 Sn6 2.785642 1_555
Cu6 Sn7 2.785649 1_555
Cu6 Cu8 2.988219 1_555
Cu6 Yb1 3.583320 1_556
Cu6 Yb0 3.583320 1_556
Cu7 Cu8 2.628529 1_555
Cu7 Sn6 2.764653 1_555
Cu7 Sn1 2.764653 1_545
Cu7 Sn7 2.764661 1_555
Cu7 Sn4 2.764661 1_545
Cu8 Cu9 2.539705 1_544
Cu8 Sn2 2.738813 1_555
Cu8 Sn3 2.738813 1_555
Cu8 Sn1 2.785642 1_545
Cu8 Sn4 2.785649 1_545
Cu8 Yb1 3.583320 1_555
Cu8 Yb0 3.583320 1_445
Cu9 Sn1 2.738813 1_556
Cu9 Sn4 2.738813 1_556
Cu9 Sn0 2.785649 1_455
Cu9 Sn5 2.785656 1_455
Cu9 Yb0 3.583313 1_456
Cu9 Yb1 3.583324 1_566
Cu10 Cu4 2.539705 1_556
Cu10 Cu6 2.539713 1_555
Cu10 Cu17 2.628534 1_555
Cu10 Sn1 2.738813 1_556
Cu10 Sn4 2.738813 1_556
Cu10 Cu11 2.757828 1_555
Cu10 Sn3 2.785649 1_555
Cu10 Sn2 2.785656 1_555
Cu10 Cu9 2.988219 1_555
Cu10 Yb1 3.583313 1_556
Cu10 Yb0 3.583324 1_556
Cu11 Cu17 2.532028 1_555
Cu11 Sn1 2.579957 1_556
Cu11 Cu13 2.642547 1_555
Cu11 Sn6 2.645325 1_565
Cu11 Cu12 2.651882 1_555
Cu11 Cu5 2.651882 1_555
Cu11 Sn5 2.693853 1_455
Cu11 Sn2 2.693853 1_555
Cu11 Cu9 2.757828 1_555
Cu11 Yb1 3.634422 1_566
Cu11 Yb0 3.634422 1_556
Cu12 Cu7 2.532028 1_565
Cu12 Sn0 2.579950 1_555
Cu12 Cu5 2.642547 1_555
Cu12 Sn2 2.645322 1_555
Cu12 Cu13 2.651882 1_555
Cu12 Sn4 2.693847 1_555
Cu12 Sn6 2.693850 1_565
Cu12 Cu4 2.757822 1_555
Cu12 Yb1 3.634422 1_555
Cu12 Yb0 3.634422 1_556
Cu13 Cu17 2.532028 1_555
Cu13 Sn7 2.579955 1_454
Cu13 Sn4 2.645314 1_555
Cu13 Cu5 2.651882 1_555
Cu13 Sn5 2.693853 1_455
Cu13 Sn2 2.693853 1_555
Cu13 Cu15 2.757819 1_455
Cu13 Cu16 2.757819 1_455
Cu13 Yb0 3.634422 1_455
Cu13 Yb1 3.634422 1_555
Cu14 Cu7 2.532028 1_555
Cu14 Sn5 2.579950 1_545
Cu14 Cu3 2.642547 1_555
Cu14 Sn3 2.645322 1_655
Cu14 Cu2 2.651882 1_555
Cu14 Sn7 2.693847 1_555
Cu14 Sn1 2.693850 1_545
Cu14 Cu4 2.757822 1_545
Cu14 Yb1 3.634422 1_656
Cu14 Yb0 3.634422 1_545
Cu15 Cu6 2.539705 1_554
Cu15 Cu4 2.539713 1_555
Cu15 Cu17 2.628534 1_655
Cu15 Sn7 2.738813 1_554
Cu15 Sn6 2.738813 1_554
Cu15 Cu2 2.757828 1_555
Cu15 Sn5 2.785649 1_555
Cu15 Sn0 2.785656 1_555
Cu15 Cu16 2.988219 1_555
Cu15 Yb0 3.583313 1_555
Cu15 Yb1 3.583324 1_555
Cu16 Cu8 2.539713 1_655
Cu16 Cu17 2.628534 1_655
Cu16 Sn7 2.738813 1_554
Cu16 Sn6 2.738813 1_554
Cu16 Cu2 2.757828 1_555
Cu16 Sn2 2.785649 1_655
Cu16 Sn3 2.785656 1_655
Cu16 Yb1 3.583313 1_655
Cu16 Yb0 3.583324 1_545
Cu17 Cu2 2.532028 1_455
Cu17 Cu9 2.628534 1_555
Cu17 Sn3 2.764662 1_555
Cu17 Sn5 2.764662 1_455
Cu17 Sn2 2.764662 1_555
Cu17 Sn0 2.764662 1_455
Sn0 Yb1 3.502108 1_555
Sn0 Yb0 3.502108 1_556
Sn1 Yb1 3.502112 1_565
Sn1 Yb0 3.502112 1_555
Sn2 Yb0 3.502108 1_556
Sn2 Yb1 3.502108 1_555
Sn3 Yb1 3.502108 1_556
Sn3 Yb0 3.502108 1_445
Sn4 Yb1 3.502107 1_555
Sn4 Yb0 3.502107 1_455
Sn5 Yb1 3.502108 1_666
Sn5 Yb0 3.502108 1_555
Sn6 Yb1 3.502112 1_556
Sn6 Yb0 3.502112 1_546
Sn7 Yb0 3.502107 1_556
Sn7 Yb1 3.502107 1_656
