# generated using pymatgen
data_YH24C9N6(ClO)3
_symmetry_space_group_name_H-M   'P 1'
_cell_length_a   10.19180833
_cell_length_b   10.19180833
_cell_length_c   10.19180863
_cell_angle_alpha   87.82610423
_cell_angle_beta   87.82610423
_cell_angle_gamma   87.82610014
_symmetry_Int_Tables_number   1
_chemical_formula_structural   YH24C9N6(ClO)3
_chemical_formula_sum   'Y2 H48 C18 N12 Cl6 O6'
_cell_volume   1056.42382231
_cell_formula_units_Z   2
loop_
 _symmetry_equiv_pos_site_id
 _symmetry_equiv_pos_as_xyz
  1  'x, y, z'
loop_
 _atom_site_type_symbol
 _atom_site_label
 _atom_site_symmetry_multiplicity
 _atom_site_fract_x
 _atom_site_fract_y
 _atom_site_fract_z
 _atom_site_occupancy
  Y  Y0  1  0.50000000  0.50000000  0.50000000  1
  Y  Y1  1  0.00000000  0.00000000  0.00000000  1
  H  H0  1  0.19511400  0.85546200  0.74221000  1
  H  H1  1  0.94540000  0.50972500  0.64681100  1
  H  H2  1  0.84656100  0.33906100  0.44018500  1
  H  H3  1  0.43239300  0.92533000  0.17963700  1
  H  H4  1  0.50972500  0.64681100  0.94540000  1
  H  H5  1  0.35318900  0.05460000  0.49027500  1
  H  H6  1  0.53292900  0.78094400  0.20312600  1
  H  H7  1  0.84941100  0.86805500  0.36535700  1
  H  H8  1  0.25779000  0.80488600  0.14453800  1
  H  H9  1  0.09332500  0.40463100  0.20612200  1
  H  H10  1  0.79387800  0.90667500  0.59536900  1
  H  H11  1  0.66855900  0.78903000  0.59118000  1
  H  H12  1  0.74221000  0.19511400  0.85546200  1
  H  H13  1  0.40463100  0.20612200  0.09332500  1
  H  H14  1  0.56760700  0.07467000  0.82036300  1
  H  H15  1  0.82036300  0.56760700  0.07467000  1
  H  H16  1  0.20312600  0.53292900  0.78094400  1
  H  H17  1  0.59118000  0.66855900  0.78903000  1
  H  H18  1  0.33144100  0.21097000  0.40882000  1
  H  H19  1  0.64681100  0.94540000  0.50972500  1
  H  H20  1  0.55981500  0.15343900  0.66093900  1
  H  H21  1  0.17963700  0.43239300  0.92533000  1
  H  H22  1  0.33906100  0.44018500  0.84656100  1
  H  H23  1  0.92533000  0.17963700  0.43239300  1
  H  H24  1  0.36535700  0.84941100  0.86805500  1
  H  H25  1  0.85546200  0.74221000  0.19511400  1
  H  H26  1  0.86805500  0.36535700  0.84941100  1
  H  H27  1  0.49027500  0.35318900  0.05460000  1
  H  H28  1  0.21097000  0.40882000  0.33144100  1
  H  H29  1  0.07467000  0.82036300  0.56760700  1
  H  H30  1  0.40882000  0.33144100  0.21097000  1
  H  H31  1  0.66093900  0.55981500  0.15343900  1
  H  H32  1  0.15058900  0.13194500  0.63464300  1
  H  H33  1  0.46707100  0.21905600  0.79687400  1
  H  H34  1  0.80488600  0.14453800  0.25779000  1
  H  H35  1  0.78094400  0.20312600  0.53292900  1
  H  H36  1  0.79687400  0.46707100  0.21905600  1
  H  H37  1  0.90667500  0.59536900  0.79387800  1
  H  H38  1  0.21905600  0.79687400  0.46707100  1
  H  H39  1  0.59536900  0.79387800  0.90667500  1
  H  H40  1  0.20612200  0.09332500  0.40463100  1
  H  H41  1  0.63464300  0.15058900  0.13194500  1
  H  H42  1  0.44018500  0.84656100  0.33906100  1
  H  H43  1  0.14453800  0.25779000  0.80488600  1
  H  H44  1  0.13194500  0.63464300  0.15058900  1
  H  H45  1  0.05460000  0.49027500  0.35318900  1
  H  H46  1  0.15343900  0.66093900  0.55981500  1
  H  H47  1  0.78903000  0.59118000  0.66855900  1
  C  C0  1  0.76703000  0.56052900  0.16984100  1
  C  C1  1  0.83015900  0.23297000  0.43947100  1
  C  C2  1  0.86629700  0.53452100  0.71954500  1
  C  C3  1  0.53452100  0.71954500  0.86629700  1
  C  C4  1  0.28045500  0.13370300  0.46547900  1
  C  C5  1  0.70092200  0.36277100  0.74597600  1
  C  C6  1  0.36277100  0.74597600  0.70092200  1
  C  C7  1  0.71954500  0.86629700  0.53452100  1
  C  C8  1  0.13370300  0.46547900  0.28045500  1
  C  C9  1  0.74597600  0.70092200  0.36277100  1
  C  C10  1  0.23297000  0.43947100  0.83015900  1
  C  C11  1  0.46547900  0.28045500  0.13370300  1
  C  C12  1  0.56052900  0.16984100  0.76703000  1
  C  C13  1  0.63722900  0.25402400  0.29907800  1
  C  C14  1  0.16984100  0.76703000  0.56052900  1
  C  C15  1  0.25402400  0.29907800  0.63722900  1
  C  C16  1  0.43947100  0.83015900  0.23297000  1
  C  C17  1  0.29907800  0.63722900  0.25402400  1
  N  N0  1  0.78182400  0.81234200  0.41710000  1
  N  N1  1  0.41710000  0.78182400  0.81234200  1
  N  N2  1  0.24363300  0.80078700  0.67282800  1
  N  N3  1  0.81234200  0.41710000  0.78182400  1
  N  N4  1  0.32717200  0.75636700  0.19921300  1
  N  N5  1  0.18765800  0.58290000  0.21817600  1
  N  N6  1  0.67282800  0.24363300  0.80078700  1
  N  N7  1  0.75636700  0.19921300  0.32717200  1
  N  N8  1  0.19921300  0.32717200  0.75636700  1
  N  N9  1  0.80078700  0.67282800  0.24363300  1
  N  N10  1  0.58290000  0.21817600  0.18765800  1
  N  N11  1  0.21817600  0.18765800  0.58290000  1
  Cl  Cl0  1  0.74167700  0.97935900  0.03393500  1
  Cl  Cl1  1  0.96606500  0.25832300  0.02064100  1
  Cl  Cl2  1  0.03393500  0.74167700  0.97935900  1
  Cl  Cl3  1  0.25832300  0.02064100  0.96606500  1
  Cl  Cl4  1  0.02064100  0.96606500  0.25832300  1
  Cl  Cl5  1  0.97935900  0.03393500  0.74167700  1
  O  O0  1  0.57858500  0.33452800  0.37643900  1
  O  O1  1  0.33452800  0.37643900  0.57858500  1
  O  O2  1  0.37643900  0.57858500  0.33452800  1
  O  O3  1  0.62356100  0.42141500  0.66547200  1
  O  O4  1  0.66547200  0.62356100  0.42141500  1
  O  O5  1  0.42141500  0.66547200  0.62356100  1
loop_
_geom_bond_atom_site_label_1
_geom_bond_atom_site_label_2
_geom_bond_distance
_geom_bond_site_symmetry_2
H0 N2 1.018593 1_555
H7 N0 1.026844 1_555
H8 N4 1.018593 1_555
H12 N6 1.018593 1_555
H24 N1 1.026843 1_555
H25 N9 1.018593 1_555
H26 N3 1.026843 1_555
H32 N11 1.026844 1_555
H34 N7 1.018593 1_555
H41 N10 1.026843 1_555
H43 N8 1.018593 1_555
H44 N5 1.026843 1_555
C0 H15 1.095062 1_555
C0 H36 1.097600 1_555
C0 H31 1.100691 1_555
C0 N9 1.452149 1_555
C1 H23 1.095062 1_555
C1 H35 1.097600 1_555
C1 H2 1.100691 1_555
C1 N7 1.452149 1_555
C2 H47 1.094260 1_555
C2 H37 1.098424 1_555
C2 H1 1.103067 1_555
C2 N3 1.450264 1_555
C3 H17 1.094260 1_555
C3 H39 1.098424 1_555
C3 H4 1.103067 1_555
C3 N1 1.450263 1_555
C4 H18 1.094260 1_555
C4 H40 1.098424 1_555
C4 H5 1.103067 1_555
C4 N11 1.450264 1_555
C5 O3 1.276007 1_555
C5 N3 1.350603 1_555
C5 N6 1.353213 1_555
C6 O5 1.276007 1_555
C6 N1 1.350603 1_555
C6 N2 1.353213 1_555
C7 H11 1.094260 1_555
C7 H10 1.098424 1_555
C7 H19 1.103067 1_555
C7 N0 1.450264 1_555
C8 H28 1.094260 1_555
C8 H9 1.098424 1_555
C8 H45 1.103067 1_555
C8 N5 1.450264 1_555
C9 O4 1.276007 1_555
C9 N0 1.350603 1_555
C9 N9 1.353213 1_555
C10 H21 1.095062 1_555
C10 H16 1.097600 1_555
C10 H22 1.100691 1_555
C10 N8 1.452149 1_555
C11 H30 1.094260 1_555
C11 H13 1.098424 1_555
C11 H27 1.103067 1_555
C11 N10 1.450263 1_555
C12 H14 1.095062 1_555
C12 H33 1.097600 1_555
C12 H20 1.100691 1_555
C12 N6 1.452149 1_555
C13 O0 1.276007 1_555
C13 N10 1.350603 1_555
C13 N7 1.353213 1_555
C14 H29 1.095062 1_555
C14 H38 1.097600 1_555
C14 H46 1.100691 1_555
C14 N2 1.452149 1_555
C15 O1 1.276007 1_555
C15 N11 1.350603 1_555
C15 N8 1.353213 1_555
C16 H3 1.095062 1_555
C16 H6 1.097600 1_555
C16 H42 1.100691 1_555
C16 N4 1.452149 1_555
C17 O2 1.276007 1_555
C17 N5 1.350603 1_555
C17 N4 1.353213 1_555
Cl0 Y1 2.657596 1_665
Cl1 Y1 2.657596 1_655
Cl2 Y1 2.657596 1_566
Cl3 Y1 2.657596 1_556
Cl4 Y1 2.657596 1_565
Cl5 Y1 2.657596 1_656
O0 Y0 2.248024 1_555
O1 Y0 2.248024 1_555
O2 Y0 2.248024 1_555
O3 Y0 2.248024 1_555
O4 Y0 2.248024 1_555
O5 Y0 2.248024 1_555
