# generated using pymatgen
data_Sr2Li3NbN4
_symmetry_space_group_name_H-M   'P 1'
_cell_length_a   7.05627700
_cell_length_b   8.74823100
_cell_length_c   9.03444200
_cell_angle_alpha   90.00000000
_cell_angle_beta   90.00000000
_cell_angle_gamma   90.00000000
_symmetry_Int_Tables_number   1
_chemical_formula_structural   Sr2Li3NbN4
_chemical_formula_sum   'Sr8 Li12 Nb4 N16'
_cell_volume   557.69557340
_cell_formula_units_Z   4
loop_
 _symmetry_equiv_pos_site_id
 _symmetry_equiv_pos_as_xyz
  1  'x, y, z'
loop_
 _atom_site_type_symbol
 _atom_site_label
 _atom_site_symmetry_multiplicity
 _atom_site_fract_x
 _atom_site_fract_y
 _atom_site_fract_z
 _atom_site_occupancy
  Sr  Sr0  1  0.00000000  0.24327400  0.75433000  1
  Sr  Sr1  1  0.00000000  0.75672600  0.24567000  1
  Sr  Sr2  1  0.50000000  0.74327400  0.74567000  1
  Sr  Sr3  1  0.50000000  0.25672600  0.25433000  1
  Sr  Sr4  1  0.25948500  0.00000000  0.00000000  1
  Sr  Sr5  1  0.24051500  0.50000000  0.50000000  1
  Sr  Sr6  1  0.74051500  0.00000000  0.00000000  1
  Sr  Sr7  1  0.75948500  0.50000000  0.50000000  1
  Li  Li0  1  0.23748500  0.01778500  0.36537000  1
  Li  Li1  1  0.23748500  0.98221500  0.63463000  1
  Li  Li2  1  0.26251500  0.51778500  0.13463000  1
  Li  Li3  1  0.26251500  0.48221500  0.86537000  1
  Li  Li4  1  0.76251500  0.98221500  0.63463000  1
  Li  Li5  1  0.76251500  0.01778500  0.36537000  1
  Li  Li6  1  0.73748500  0.48221500  0.86537000  1
  Li  Li7  1  0.73748500  0.51778500  0.13463000  1
  Li  Li8  1  0.00000000  0.20527900  0.42182900  1
  Li  Li9  1  0.00000000  0.79472100  0.57817100  1
  Li  Li10  1  0.50000000  0.70527900  0.07817100  1
  Li  Li11  1  0.50000000  0.29472100  0.92182900  1
  Nb  Nb0  1  0.00000000  0.28551000  0.13766900  1
  Nb  Nb1  1  0.00000000  0.71449000  0.86233100  1
  Nb  Nb2  1  0.50000000  0.78551000  0.36233100  1
  Nb  Nb3  1  0.50000000  0.21449000  0.63766900  1
  N  N0  1  0.23480800  0.30204400  0.01890700  1
  N  N1  1  0.23480800  0.69795600  0.98109300  1
  N  N2  1  0.26519200  0.80204400  0.48109300  1
  N  N3  1  0.26519200  0.19795600  0.51890700  1
  N  N4  1  0.76519200  0.69795600  0.98109300  1
  N  N5  1  0.76519200  0.30204400  0.01890700  1
  N  N6  1  0.73480800  0.19795600  0.51890700  1
  N  N7  1  0.73480800  0.80204400  0.48109300  1
  N  N8  1  0.00000000  0.07212200  0.22109900  1
  N  N9  1  0.00000000  0.92787800  0.77890100  1
  N  N10  1  0.50000000  0.57212200  0.27890100  1
  N  N11  1  0.50000000  0.42787800  0.72109900  1
  N  N12  1  0.00000000  0.45333000  0.28440500  1
  N  N13  1  0.00000000  0.54667000  0.71559500  1
  N  N14  1  0.50000000  0.95333000  0.21559500  1
  N  N15  1  0.50000000  0.04667000  0.78440500  1
loop_
_geom_bond_atom_site_label_1
_geom_bond_atom_site_label_2
_geom_bond_distance
_geom_bond_site_symmetry_2
Li0 N3 2.108711 1_555
Li0 N2 2.166420 1_545
Li0 N8 2.175547 1_555
Li0 N14 2.362250 1_545
Li1 N2 2.108711 1_555
Li1 N3 2.166420 1_565
Li1 N9 2.175547 1_555
Li1 N15 2.362250 1_565
Li2 N1 2.108711 1_554
Li2 N0 2.166420 1_555
Li2 N10 2.175547 1_555
Li2 N12 2.362250 1_555
Li3 N0 2.108711 1_556
Li3 N1 2.166420 1_555
Li3 N11 2.175547 1_555
Li3 N13 2.362250 1_555
Li4 N7 2.108711 1_555
Li4 N6 2.166420 1_565
Li4 N9 2.175547 1_655
Li4 N15 2.362250 1_565
Li5 N6 2.108711 1_555
Li5 N7 2.166420 1_545
Li5 N8 2.175547 1_655
Li5 N14 2.362250 1_545
Li6 N5 2.108711 1_556
Li6 N4 2.166420 1_555
Li6 N11 2.175547 1_555
Li6 N13 2.362250 1_655
Li7 N4 2.108711 1_554
Li7 N5 2.166420 1_555
Li7 N10 2.175547 1_555
Li7 N12 2.362250 1_655
Li8 N3 2.067597 1_555
Li8 N6 2.067597 1_455
Li8 N8 2.155386 1_555
Li8 N12 2.500075 1_555
Li9 N2 2.067597 1_555
Li9 N7 2.067597 1_455
Li9 N9 2.155386 1_555
Li9 N13 2.500075 1_555
Li10 N1 2.067597 1_554
Li10 N4 2.067597 1_554
Li10 N10 2.155386 1_555
Li10 N14 2.500075 1_555
Li11 N5 2.067597 1_556
Li11 N0 2.067597 1_556
Li11 N11 2.155386 1_555
Li11 N15 2.500075 1_555
N0 Nb0 1.979232 1_555
N0 Sr4 2.653585 1_555
N0 Sr3 2.860522 1_555
N0 Sr0 2.953492 1_554
N1 Nb1 1.979232 1_555
N1 Sr4 2.653585 1_566
N1 Sr2 2.860522 1_555
N1 Sr1 2.953492 1_556
N2 Nb2 1.979232 1_555
N2 Sr5 2.653585 1_555
N2 Sr1 2.860522 1_555
N2 Sr2 2.953492 1_555
N3 Nb3 1.979232 1_555
N3 Sr5 2.653585 1_555
N3 Sr0 2.860522 1_555
N3 Sr3 2.953492 1_555
N4 Nb1 1.979232 1_655
N4 Sr6 2.653585 1_566
N4 Sr2 2.860522 1_555
N4 Sr1 2.953492 1_656
N5 Nb0 1.979232 1_655
N5 Sr6 2.653585 1_555
N5 Sr3 2.860522 1_555
N5 Sr0 2.953492 1_654
N6 Nb3 1.979232 1_555
N6 Sr7 2.653585 1_555
N6 Sr0 2.860522 1_655
N6 Sr3 2.953492 1_555
N7 Nb2 1.979232 1_555
N7 Sr7 2.653585 1_555
N7 Sr1 2.860522 1_655
N7 Sr2 2.953492 1_555
N8 Nb0 2.013194 1_555
N8 Sr1 2.768072 1_545
N8 Sr4 2.782206 1_555
N8 Sr6 2.782206 1_455
N9 Nb1 2.013194 1_555
N9 Sr0 2.768072 1_565
N9 Sr4 2.782206 1_566
N9 Sr6 2.782206 1_466
N10 Nb2 2.013194 1_555
N10 Sr3 2.768072 1_555
N10 Sr7 2.782206 1_555
N10 Sr5 2.782206 1_555
N11 Nb3 2.013194 1_555
N11 Sr2 2.768072 1_555
N11 Sr7 2.782206 1_555
N11 Sr5 2.782206 1_555
N12 Nb0 1.978085 1_555
N12 Sr5 2.615498 1_555
N12 Sr7 2.615498 1_455
N12 Sr1 2.677149 1_555
N13 Nb1 1.978085 1_555
N13 Sr5 2.615498 1_555
N13 Sr7 2.615498 1_455
N13 Sr0 2.677149 1_555
N14 Nb2 1.978085 1_555
N14 Sr6 2.615498 1_565
N14 Sr4 2.615498 1_565
N14 Sr3 2.677149 1_565
N15 Nb3 1.978085 1_555
N15 Sr6 2.615498 1_556
N15 Sr4 2.615498 1_556
N15 Sr2 2.677149 1_545
