# generated using pymatgen
data_K2ZrS4
_symmetry_space_group_name_H-M   'P 1'
_cell_length_a   6.76702227
_cell_length_b   9.50905622
_cell_length_c   23.12615585
_cell_angle_alpha   90.00000000
_cell_angle_beta   90.00000000
_cell_angle_gamma   90.00000000
_symmetry_Int_Tables_number   1
_chemical_formula_structural   K2ZrS4
_chemical_formula_sum   'K16 Zr8 S32'
_cell_volume   1488.12176580
_cell_formula_units_Z   8
loop_
 _symmetry_equiv_pos_site_id
 _symmetry_equiv_pos_as_xyz
  1  'x, y, z'
loop_
 _atom_site_type_symbol
 _atom_site_label
 _atom_site_symmetry_multiplicity
 _atom_site_fract_x
 _atom_site_fract_y
 _atom_site_fract_z
 _atom_site_occupancy
  K  K0  1  0.06599432  0.06910039  0.19852918  1
  K  K1  1  0.56599432  0.43089961  0.19852918  1
  K  K2  1  0.20329513  0.85808462  0.96833363  1
  K  K3  1  0.20329513  0.35808462  0.53166637  1
  K  K4  1  0.79670487  0.64191538  0.46833363  1
  K  K5  1  0.56599432  0.93089961  0.30147082  1
  K  K6  1  0.43400568  0.06910039  0.69852918  1
  K  K7  1  0.43400568  0.56910039  0.80147082  1
  K  K8  1  0.70329513  0.14191538  0.53166637  1
  K  K9  1  0.93400568  0.43089961  0.69852918  1
  K  K10  1  0.93400568  0.93089961  0.80147082  1
  K  K11  1  0.06599432  0.56910039  0.30147082  1
  K  K12  1  0.29670487  0.35808462  0.03166637  1
  K  K13  1  0.70329513  0.64191538  0.96833363  1
  K  K14  1  0.29670487  0.85808462  0.46833363  1
  K  K15  1  0.79670487  0.14191538  0.03166637  1
  Zr  Zr0  1  0.55346316  0.82943907  0.13149928  1
  Zr  Zr1  1  0.44653684  0.17056093  0.86850072  1
  Zr  Zr2  1  0.05346316  0.67056093  0.13149928  1
  Zr  Zr3  1  0.94653684  0.32943907  0.86850072  1
  Zr  Zr4  1  0.44653684  0.67056093  0.63149928  1
  Zr  Zr5  1  0.94653684  0.82943907  0.63149928  1
  Zr  Zr6  1  0.55346316  0.32943907  0.36850072  1
  Zr  Zr7  1  0.05346316  0.17056093  0.36850072  1
  S  S0  1  0.42774287  0.90874446  0.83903487  1
  S  S1  1  0.42774287  0.40874446  0.66096513  1
  S  S2  1  0.86540377  0.33281888  0.43429750  1
  S  S3  1  0.61226197  0.94720828  0.91042891  1
  S  S4  1  0.70937490  0.23118975  0.79497738  1
  S  S5  1  0.88773803  0.94720828  0.41042891  1
  S  S6  1  0.88773803  0.44720828  0.08957109  1
  S  S7  1  0.20937490  0.76881025  0.70502262  1
  S  S8  1  0.70937490  0.73118975  0.70502262  1
  S  S9  1  0.86540377  0.83281888  0.06570250  1
  S  S10  1  0.92774287  0.09125554  0.66096513  1
  S  S11  1  0.38773803  0.05279172  0.08957109  1
  S  S12  1  0.57225713  0.09125554  0.16096513  1
  S  S13  1  0.13459623  0.66718112  0.56570250  1
  S  S14  1  0.20937490  0.26881025  0.79497738  1
  S  S15  1  0.79062510  0.23118975  0.29497738  1
  S  S16  1  0.07225713  0.90874446  0.33903487  1
  S  S17  1  0.11226197  0.55279172  0.91042891  1
  S  S18  1  0.36540377  0.66718112  0.06570250  1
  S  S19  1  0.63459623  0.33281888  0.93429750  1
  S  S20  1  0.61226197  0.44720828  0.58957109  1
  S  S21  1  0.38773803  0.55279172  0.41042891  1
  S  S22  1  0.36540377  0.16718112  0.43429750  1
  S  S23  1  0.79062510  0.73118975  0.20502262  1
  S  S24  1  0.92774287  0.59125554  0.83903487  1
  S  S25  1  0.29062510  0.76881025  0.20502262  1
  S  S26  1  0.57225713  0.59125554  0.33903487  1
  S  S27  1  0.29062510  0.26881025  0.29497738  1
  S  S28  1  0.07225713  0.40874446  0.16096513  1
  S  S29  1  0.63459623  0.83281888  0.56570250  1
  S  S30  1  0.13459623  0.16718112  0.93429750  1
  S  S31  1  0.11226197  0.05279172  0.58957109  1
loop_
_geom_bond_atom_site_label_1
_geom_bond_atom_site_label_2
_geom_bond_distance
_geom_bond_site_symmetry_2
K0 S25 3.238355 1_545
K0 S15 3.289841 1_455
K0 S27 3.300314 1_555
K0 S11 3.333730 1_555
K0 S28 3.344755 1_555
K0 S12 3.458641 1_455
K0 S12 3.540590 1_555
K0 S16 3.589600 1_545
K0 S23 3.717479 1_445
K1 S23 3.238355 1_555
K1 S27 3.289841 1_555
K1 S15 3.300314 1_555
K1 S6 3.333730 1_555
K1 S12 3.344755 1_555
K1 S28 3.458641 1_555
K1 S28 3.540590 1_655
K1 S26 3.589600 1_555
K1 S25 3.717479 1_555
K2 S30 3.078096 1_565
K2 S18 3.093414 1_556
K2 S3 3.189113 1_555
K2 S9 3.218128 1_456
K2 S17 3.255825 1_555
K2 S0 3.388236 1_555
K2 S11 3.584251 1_566
K3 S13 3.078096 1_555
K3 S22 3.093414 1_555
K3 S20 3.189113 1_555
K3 S2 3.218128 1_455
K3 S31 3.255825 1_555
K3 S1 3.388236 1_555
K3 S21 3.584251 1_555
K4 S2 3.078096 1_555
K4 S29 3.093414 1_555
K4 S21 3.189113 1_555
K4 S13 3.218128 1_655
K4 S5 3.255825 1_555
K4 S26 3.388236 1_555
K4 S20 3.584251 1_555
K5 S15 3.238355 1_565
K5 S25 3.289841 1_555
K5 S23 3.300314 1_555
K5 S5 3.333730 1_555
K5 S26 3.344755 1_555
K5 S16 3.458641 1_555
K5 S16 3.540590 1_655
K5 S12 3.589600 1_565
K5 S27 3.717479 1_565
K6 S7 3.238355 1_545
K6 S4 3.289841 1_555
K6 S14 3.300314 1_555
K6 S31 3.333730 1_555
K6 S1 3.344755 1_555
K6 S10 3.458641 1_555
K6 S10 3.540590 1_455
K6 S0 3.589600 1_545
K6 S8 3.717479 1_545
K7 S14 3.238355 1_555
K7 S8 3.289841 1_555
K7 S7 3.300314 1_555
K7 S17 3.333730 1_555
K7 S0 3.344755 1_555
K7 S24 3.458641 1_555
K7 S24 3.540590 1_455
K7 S1 3.589600 1_555
K7 S4 3.717479 1_555
K8 S29 3.078096 1_545
K8 S2 3.093414 1_555
K8 S31 3.189113 1_655
K8 S22 3.218128 1_555
K8 S20 3.255825 1_555
K8 S10 3.388236 1_555
K8 S5 3.584251 1_545
K9 S8 3.238355 1_555
K9 S14 3.289841 1_655
K9 S4 3.300314 1_555
K9 S20 3.333730 1_555
K9 S10 3.344755 1_555
K9 S1 3.458641 1_655
K9 S1 3.540590 1_555
K9 S24 3.589600 1_555
K9 S7 3.717479 1_655
K10 S4 3.238355 1_565
K10 S7 3.289841 1_655
K10 S8 3.300314 1_555
K10 S3 3.333730 1_555
K10 S24 3.344755 1_555
K10 S0 3.458641 1_655
K10 S0 3.540590 1_555
K10 S10 3.589600 1_565
K10 S14 3.717479 1_665
K11 S27 3.238355 1_555
K11 S23 3.289841 1_455
K11 S25 3.300314 1_555
K11 S21 3.333730 1_555
K11 S16 3.344755 1_555
K11 S26 3.458641 1_455
K11 S26 3.540590 1_555
K11 S28 3.589600 1_555
K11 S15 3.717479 1_455
K12 S18 3.078096 1_555
K12 S30 3.093414 1_554
K12 S6 3.189113 1_455
K12 S19 3.218128 1_554
K12 S11 3.255825 1_555
K12 S28 3.388236 1_555
K12 S17 3.584251 1_554
K13 S19 3.078096 1_555
K13 S9 3.093414 1_556
K13 S17 3.189113 1_655
K13 S18 3.218128 1_556
K13 S3 3.255825 1_555
K13 S24 3.388236 1_555
K13 S6 3.584251 1_556
K14 S22 3.078096 1_565
K14 S13 3.093414 1_555
K14 S5 3.189113 1_455
K14 S29 3.218128 1_555
K14 S21 3.255825 1_555
K14 S16 3.388236 1_555
K14 S31 3.584251 1_565
K15 S9 3.078096 1_545
K15 S19 3.093414 1_554
K15 S11 3.189113 1_555
K15 S30 3.218128 1_654
K15 S6 3.255825 1_555
K15 S12 3.388236 1_555
K15 S3 3.584251 1_544
S0 S3 2.102123 1_555
S0 Zr1 2.584331 1_565
S1 S20 2.102123 1_555
S1 Zr4 2.584331 1_555
S2 Zr7 2.513059 1_655
S2 Zr6 2.602368 1_555
S3 Zr1 2.590119 1_565
S4 Zr3 2.517844 1_555
S4 Zr1 2.527245 1_555
S5 Zr7 2.590119 1_665
S6 Zr2 2.590119 1_655
S7 Zr4 2.517844 1_555
S7 Zr5 2.527245 1_455
S8 Zr5 2.517844 1_555
S8 Zr4 2.527245 1_555
S9 Zr2 2.513059 1_655
S9 Zr0 2.602368 1_555
S10 S31 2.102123 1_655
S10 Zr5 2.584331 1_545
S11 S12 2.102123 1_555
S11 Zr0 2.590119 1_545
S12 Zr0 2.584331 1_545
S13 Zr5 2.513059 1_455
S13 Zr4 2.602368 1_555
S14 Zr1 2.517844 1_555
S14 Zr3 2.527245 1_455
S15 Zr6 2.517844 1_555
S15 Zr7 2.527245 1_655
S16 S5 2.102123 1_455
S16 Zr7 2.584331 1_565
S17 S24 2.102123 1_455
S17 Zr3 2.590119 1_455
S18 Zr0 2.513059 1_555
S18 Zr2 2.602368 1_555
S19 Zr1 2.513059 1_555
S19 Zr3 2.602368 1_555
S20 Zr4 2.590119 1_555
S21 S26 2.102123 1_555
S21 Zr6 2.590119 1_555
S22 Zr6 2.513059 1_555
S22 Zr7 2.602368 1_555
S23 Zr0 2.517844 1_555
S23 Zr2 2.527245 1_655
S24 Zr3 2.584331 1_555
S25 Zr2 2.517844 1_555
S25 Zr0 2.527245 1_555
S26 Zr6 2.584331 1_555
S27 Zr7 2.517844 1_555
S27 Zr6 2.527245 1_555
S28 S6 2.102123 1_455
S28 Zr2 2.584331 1_555
S29 Zr4 2.513059 1_555
S29 Zr5 2.602368 1_555
S30 Zr3 2.513059 1_455
S30 Zr1 2.602368 1_555
S31 Zr5 2.590119 1_445
