# generated using pymatgen
data_Rb4CO4
_symmetry_space_group_name_H-M   'P 1'
_cell_length_a   6.60982800
_cell_length_b   6.60982800
_cell_length_c   4.98418700
_cell_angle_alpha   90.00000000
_cell_angle_beta   90.00000000
_cell_angle_gamma   90.00000000
_symmetry_Int_Tables_number   1
_chemical_formula_structural   Rb4CO4
_chemical_formula_sum   'Rb4 C1 O4'
_cell_volume   217.75826373
_cell_formula_units_Z   1
loop_
 _symmetry_equiv_pos_site_id
 _symmetry_equiv_pos_as_xyz
  1  'x, y, z'
loop_
 _atom_site_type_symbol
 _atom_site_label
 _atom_site_symmetry_multiplicity
 _atom_site_fract_x
 _atom_site_fract_y
 _atom_site_fract_z
 _atom_site_occupancy
  Rb  Rb0  1  0.69583400  0.78963000  0.83158400  1
  Rb  Rb1  1  0.78963000  0.30416600  0.16841600  1
  Rb  Rb2  1  0.30416600  0.21037000  0.83158400  1
  Rb  Rb3  1  0.21037000  0.69583400  0.16841600  1
  C  C0  1  0.50000000  0.50000000  0.50000000  1
  O  O0  1  0.39873800  0.35333400  0.33347500  1
  O  O1  1  0.35333400  0.60126200  0.66652500  1
  O  O2  1  0.60126200  0.64666600  0.33347500  1
  O  O3  1  0.64666600  0.39873800  0.66652500  1
loop_
_geom_bond_atom_site_label_1
_geom_bond_atom_site_label_2
_geom_bond_distance
_geom_bond_site_symmetry_2
C0 O3 1.441072 1_555
C0 O1 1.441072 1_555
C0 O2 1.441072 1_555
C0 O0 1.441072 1_555
O0 Rb3 2.711480 1_555
O0 Rb2 2.728985 1_555
O0 Rb1 2.730950 1_555
O0 Rb2 2.746145 1_554
O1 Rb0 2.711480 1_555
O1 Rb3 2.728985 1_555
O1 Rb2 2.730950 1_555
O1 Rb3 2.746145 1_556
O2 Rb1 2.711480 1_555
O2 Rb0 2.728985 1_555
O2 Rb3 2.730950 1_555
O2 Rb0 2.746145 1_554
O3 Rb2 2.711480 1_555
O3 Rb1 2.728985 1_555
O3 Rb0 2.730950 1_555
O3 Rb1 2.746145 1_556
