# generated using pymatgen
data_Ba2VP2O9
_symmetry_space_group_name_H-M   'P 1'
_cell_length_a   9.35394809
_cell_length_b   11.11896400
_cell_length_c   9.59976542
_cell_angle_alpha   90.00000000
_cell_angle_beta   108.87551012
_cell_angle_gamma   107.28788699
_symmetry_Int_Tables_number   1
_chemical_formula_structural   Ba2VP2O9
_chemical_formula_sum   'Ba8 V4 P8 O36'
_cell_volume   896.94141232
_cell_formula_units_Z   4
loop_
 _symmetry_equiv_pos_site_id
 _symmetry_equiv_pos_as_xyz
  1  'x, y, z'
loop_
 _atom_site_type_symbol
 _atom_site_label
 _atom_site_symmetry_multiplicity
 _atom_site_fract_x
 _atom_site_fract_y
 _atom_site_fract_z
 _atom_site_occupancy
  Ba  Ba0  1  0.32653900  0.30899400  0.57817900  1
  Ba  Ba1  1  0.32653900  0.80899400  0.57817900  1
  Ba  Ba2  1  0.67361900  0.66299500  0.92204500  1
  Ba  Ba3  1  0.67361900  0.16299500  0.92204500  1
  Ba  Ba4  1  0.32638100  0.32618500  0.07795500  1
  Ba  Ba5  1  0.32638100  0.82618500  0.07795500  1
  Ba  Ba6  1  0.67346100  0.64572400  0.42182100  1
  Ba  Ba7  1  0.67346100  0.14572400  0.42182100  1
  V  V0  1  0.00000000  0.01755500  0.00000000  1
  V  V1  1  0.00000000  0.95382700  0.50000000  1
  V  V2  1  0.00000000  0.51755500  0.00000000  1
  V  V3  1  0.00000000  0.45382700  0.50000000  1
  P  P0  1  0.26152600  0.56588300  0.82371000  1
  P  P1  1  0.26152600  0.06588300  0.82371000  1
  P  P2  1  0.73945400  0.40628800  0.67685700  1
  P  P3  1  0.73945400  0.90628800  0.67685700  1
  P  P4  1  0.73847400  0.43512000  0.17629000  1
  P  P5  1  0.73847400  0.93512000  0.17629000  1
  P  P6  1  0.26054600  0.53656100  0.32314300  1
  P  P7  1  0.26054600  0.03656100  0.32314300  1
  O  O0  1  0.00000000  0.16801200  0.00000000  1
  O  O1  1  0.00000000  0.66801200  0.00000000  1
  O  O2  1  0.00000000  0.30330200  0.50000000  1
  O  O3  1  0.00000000  0.80330200  0.50000000  1
  O  O4  1  0.88629700  0.90827700  0.81500300  1
  O  O5  1  0.88629700  0.40827700  0.81500300  1
  O  O6  1  0.88616200  0.50486900  0.31431900  1
  O  O7  1  0.88616200  0.00486900  0.31431900  1
  O  O8  1  0.11383800  0.06178800  0.68568100  1
  O  O9  1  0.11383800  0.56178800  0.68568100  1
  O  O10  1  0.11370300  0.46512800  0.18499700  1
  O  O11  1  0.11370300  0.96512800  0.18499700  1
  O  O12  1  0.38034200  0.20158300  0.85087200  1
  O  O13  1  0.38034200  0.70158300  0.85087200  1
  O  O14  1  0.38039500  0.46106800  0.35249500  1
  O  O15  1  0.38039500  0.96106800  0.35249500  1
  O  O16  1  0.61960500  0.77087000  0.64750500  1
  O  O17  1  0.61960500  0.27087000  0.64750500  1
  O  O18  1  0.61965700  0.51141200  0.14912800  1
  O  O19  1  0.61965700  0.01141200  0.14912800  1
  O  O20  1  0.79368400  0.43944100  0.03718500  1
  O  O21  1  0.79368400  0.93944100  0.03718500  1
  O  O22  1  0.20631600  0.54259900  0.96281500  1
  O  O23  1  0.20631600  0.04259900  0.96281500  1
  O  O24  1  0.20496100  0.53336300  0.46193400  1
  O  O25  1  0.20496100  0.03336300  0.46193400  1
  O  O26  1  0.79503900  0.43088200  0.53806600  1
  O  O27  1  0.79503900  0.93088200  0.53806600  1
  O  O28  1  0.65942700  0.79580100  0.19112900  1
  O  O29  1  0.65942700  0.29580100  0.19112900  1
  O  O30  1  0.66163700  0.50649400  0.69325000  1
  O  O31  1  0.66163700  0.00649400  0.69325000  1
  O  O32  1  0.33836300  0.17567500  0.30675000  1
  O  O33  1  0.33836300  0.67567500  0.30675000  1
  O  O34  1  0.34057300  0.46608700  0.80887100  1
  O  O35  1  0.34057300  0.96608700  0.80887100  1
loop_
_geom_bond_atom_site_label_1
_geom_bond_atom_site_label_2
_geom_bond_distance
_geom_bond_site_symmetry_2
Ba0 O17 2.765445 1_555
Ba0 O34 2.765548 1_555
Ba0 O14 2.829597 1_555
Ba0 O12 2.835006 1_555
Ba0 O2 2.880744 1_555
Ba0 O25 3.006420 1_555
Ba0 O32 3.046801 1_555
Ba0 O30 3.088083 1_555
Ba0 O24 3.102818 1_555
Ba0 O8 3.264489 1_555
Ba1 O16 2.765445 1_555
Ba1 O35 2.765548 1_555
Ba1 O15 2.829597 1_555
Ba1 O13 2.835006 1_555
Ba1 O3 2.880744 1_555
Ba1 O24 3.006420 1_555
Ba1 O33 3.046801 1_555
Ba1 O31 3.088083 1_565
Ba1 O25 3.102818 1_565
Ba1 O9 3.264489 1_555
Ba2 O30 2.754904 1_555
Ba2 O13 2.768287 1_555
Ba2 O18 2.837953 1_556
Ba2 O16 2.852815 1_555
Ba2 O1 2.881698 1_656
Ba2 O21 3.012689 1_556
Ba2 O28 3.034662 1_556
Ba2 O34 3.071676 1_555
Ba2 O20 3.085075 1_556
Ba2 O4 3.248016 1_555
Ba3 O31 2.754904 1_555
Ba3 O12 2.768287 1_555
Ba3 O19 2.837953 1_556
Ba3 O17 2.852815 1_555
Ba3 O0 2.881698 1_656
Ba3 O20 3.012689 1_556
Ba3 O29 3.034662 1_556
Ba3 O35 3.071676 1_545
Ba3 O21 3.085075 1_546
Ba3 O5 3.248016 1_555
Ba4 O32 2.754904 1_555
Ba4 O18 2.768283 1_555
Ba4 O12 2.837948 1_554
Ba4 O14 2.852820 1_555
Ba4 O0 2.881696 1_555
Ba4 O22 3.012694 1_554
Ba4 O34 3.034662 1_554
Ba4 O29 3.071672 1_555
Ba4 O23 3.085070 1_554
Ba4 O10 3.248016 1_555
Ba5 O33 2.754904 1_555
Ba5 O19 2.768283 1_565
Ba5 O13 2.837948 1_554
Ba5 O15 2.852820 1_555
Ba5 O1 2.881696 1_555
Ba5 O23 3.012694 1_564
Ba5 O35 3.034662 1_554
Ba5 O28 3.071672 1_555
Ba5 O22 3.085070 1_554
Ba5 O11 3.248016 1_555
Ba6 O14 2.765440 1_555
Ba6 O28 2.765555 1_555
Ba6 O16 2.829597 1_555
Ba6 O18 2.835000 1_555
Ba6 O3 2.880746 1_655
Ba6 O26 3.006420 1_555
Ba6 O30 3.046796 1_555
Ba6 O33 3.088083 1_555
Ba6 O27 3.102818 1_555
Ba6 O6 3.264485 1_555
Ba7 O15 2.765440 1_545
Ba7 O29 2.765555 1_555
Ba7 O17 2.829597 1_555
Ba7 O19 2.835000 1_555
Ba7 O2 2.880746 1_655
Ba7 O27 3.006420 1_545
Ba7 O31 3.046796 1_555
Ba7 O32 3.088083 1_555
Ba7 O26 3.102818 1_555
Ba7 O7 3.264485 1_555
O0 V0 1.672926 1_555
O1 V2 1.672926 1_555
O2 V3 1.673682 1_555
O3 V1 1.673682 1_555
O4 P3 1.565000 1_555
O4 V0 1.941977 1_666
O5 P2 1.565000 1_555
O5 V2 1.941977 1_656
O6 P4 1.563489 1_555
O6 V3 1.940190 1_655
O7 P5 1.563489 1_545
O7 V1 1.940190 1_645
O8 P1 1.563489 1_555
O8 V1 1.940190 1_545
O9 P0 1.563489 1_555
O9 V3 1.940190 1_555
O10 P6 1.565001 1_555
O10 V2 1.941980 1_555
O11 P7 1.565001 1_565
O11 V0 1.941980 1_565
O12 P1 1.547781 1_555
O13 P0 1.547781 1_555
O14 P6 1.547799 1_555
O15 P7 1.547799 1_565
O16 P3 1.547803 1_555
O17 P2 1.547803 1_555
O18 P4 1.547788 1_555
O19 P5 1.547788 1_545
O20 P4 1.575975 1_555
O20 V2 2.013876 1_655
O21 P5 1.575975 1_555
O21 V0 2.013876 1_665
O22 P0 1.575975 1_555
O22 V2 2.013876 1_556
O23 P1 1.575975 1_555
O23 V0 2.013876 1_556
O24 P6 1.576079 1_555
O24 V3 2.009192 1_555
O25 P7 1.576079 1_555
O25 V1 2.009192 1_545
O26 P2 1.576078 1_555
O26 V3 2.009191 1_655
O27 P3 1.576078 1_555
O27 V1 2.009191 1_655
O28 P5 1.534293 1_555
O29 P4 1.534293 1_555
O30 P2 1.533671 1_555
O31 P3 1.533671 1_545
O32 P7 1.533667 1_555
O33 P6 1.533667 1_555
O34 P0 1.534298 1_555
O35 P1 1.534298 1_565
