# generated using pymatgen
data_Er2CdSe4
_symmetry_space_group_name_H-M   'P 1'
_cell_length_a   8.31615296
_cell_length_b   8.31615296
_cell_length_c   40.66348900
_cell_angle_alpha   90.00000000
_cell_angle_beta   90.00000000
_cell_angle_gamma   120.00000762
_symmetry_Int_Tables_number   1
_chemical_formula_structural   Er2CdSe4
_chemical_formula_sum   'Er24 Cd12 Se48'
_cell_volume   2435.45536621
_cell_formula_units_Z   12
loop_
 _symmetry_equiv_pos_site_id
 _symmetry_equiv_pos_as_xyz
  1  'x, y, z'
loop_
 _atom_site_type_symbol
 _atom_site_label
 _atom_site_symmetry_multiplicity
 _atom_site_fract_x
 _atom_site_fract_y
 _atom_site_fract_z
 _atom_site_occupancy
  Er  Er0  1  0.33333300  0.66666700  0.00063100  1
  Er  Er1  1  0.67236900  0.83618500  0.89617800  1
  Er  Er2  1  0.16381500  0.32763100  0.89617800  1
  Er  Er3  1  0.16381500  0.83618500  0.89617800  1
  Er  Er4  1  0.00402900  0.50201400  0.72921200  1
  Er  Er5  1  0.49798600  0.99597100  0.72921200  1
  Er  Er6  1  0.66666700  0.33333300  0.83441100  1
  Er  Er7  1  0.33332500  0.16666300  0.56253300  1
  Er  Er8  1  0.49798600  0.50201400  0.72921200  1
  Er  Er9  1  0.83333700  0.66667500  0.56253300  1
  Er  Er10  1  0.66666700  0.33333300  0.64606300  1
  Er  Er11  1  0.83333700  0.16666300  0.56253300  1
  Er  Er12  1  0.66670500  0.83335200  0.39585900  1
  Er  Er13  1  0.00000000  0.00000000  0.47920500  1
  Er  Er14  1  0.16664800  0.33329500  0.39585900  1
  Er  Er15  1  0.16664800  0.83335200  0.39585900  1
  Er  Er16  1  0.00000500  0.50000200  0.22923200  1
  Er  Er17  1  0.33333300  0.66666700  0.31255700  1
  Er  Er18  1  0.49999800  0.99999500  0.22923200  1
  Er  Er19  1  0.49999800  0.50000200  0.22923200  1
  Er  Er20  1  0.33474300  0.16737200  0.06277900  1
  Er  Er21  1  0.66666700  0.33333300  0.14611900  1
  Er  Er22  1  0.83262800  0.66525700  0.06277900  1
  Er  Er23  1  0.83262800  0.16737200  0.06277900  1
  Cd  Cd0  1  0.66666700  0.33333300  0.95727800  1
  Cd  Cd1  1  0.00000000  0.00000000  0.79023800  1
  Cd  Cd2  1  0.00000000  0.00000000  0.97737500  1
  Cd  Cd3  1  0.33333300  0.66666700  0.62467000  1
  Cd  Cd4  1  0.33333300  0.66666700  0.81095100  1
  Cd  Cd5  1  0.33333300  0.66666700  0.50006800  1
  Cd  Cd6  1  0.66666700  0.33333300  0.45831100  1
  Cd  Cd7  1  0.00000000  0.00000000  0.66691200  1
  Cd  Cd8  1  0.00000000  0.00000000  0.16676400  1
  Cd  Cd9  1  0.00000000  0.00000000  0.29168900  1
  Cd  Cd10  1  0.33333300  0.66666700  0.12524100  1
  Cd  Cd11  1  0.66666700  0.33333300  0.33344400  1
  Se  Se0  1  0.84266800  0.15733200  0.93614100  1
  Se  Se1  1  0.84266800  0.68533600  0.93614100  1
  Se  Se2  1  0.00000000  0.00000000  0.85752100  1
  Se  Se3  1  0.31466400  0.15733200  0.93614100  1
  Se  Se4  1  0.02171900  0.51085900  0.85594000  1
  Se  Se5  1  0.17622300  0.82377700  0.76922000  1
  Se  Se6  1  0.48914100  0.97828100  0.85594000  1
  Se  Se7  1  0.33333300  0.66666700  0.93373600  1
  Se  Se8  1  0.17622300  0.35244600  0.76922000  1
  Se  Se9  1  0.33333300  0.66666700  0.69090000  1
  Se  Se10  1  0.48914100  0.51085900  0.85594000  1
  Se  Se11  1  0.64755400  0.82377700  0.76922000  1
  Se  Se12  1  0.51016200  0.48983800  0.60284100  1
  Se  Se13  1  0.35418500  0.17709300  0.68883000  1
  Se  Se14  1  0.82290700  0.64581500  0.68883000  1
  Se  Se15  1  0.66666700  0.33333300  0.76716800  1
  Se  Se16  1  0.51016200  0.02032300  0.60284100  1
  Se  Se17  1  0.66666700  0.33333300  0.52461700  1
  Se  Se18  1  0.82290700  0.17709300  0.68883000  1
  Se  Se19  1  0.97967700  0.48983800  0.60284100  1
  Se  Se20  1  0.68700600  0.84350300  0.52205400  1
  Se  Se21  1  0.84345300  0.15654700  0.43619200  1
  Se  Se22  1  0.15649700  0.31299400  0.52205400  1
  Se  Se23  1  0.00000000  0.00000000  0.60040200  1
  Se  Se24  1  0.84345300  0.68690600  0.43619200  1
  Se  Se25  1  0.00000000  0.00000000  0.35794200  1
  Se  Se26  1  0.15649700  0.84350300  0.52205400  1
  Se  Se27  1  0.31309400  0.15654700  0.43619200  1
  Se  Se28  1  0.02033600  0.51016800  0.35538600  1
  Se  Se29  1  0.17679100  0.82320900  0.26950600  1
  Se  Se30  1  0.33333300  0.66666700  0.43367500  1
  Se  Se31  1  0.17679100  0.35358100  0.26950600  1
  Se  Se32  1  0.48983200  0.97966400  0.35538600  1
  Se  Se33  1  0.33333300  0.66666700  0.19131500  1
  Se  Se34  1  0.48983200  0.51016800  0.35538600  1
  Se  Se35  1  0.64641900  0.82320900  0.26950600  1
  Se  Se36  1  0.35360900  0.17680500  0.18872700  1
  Se  Se37  1  0.51005200  0.48994800  0.10306100  1
  Se  Se38  1  0.66666700  0.33333300  0.26700200  1
  Se  Se39  1  0.82319500  0.64639100  0.18872700  1
  Se  Se40  1  0.51005200  0.02010400  0.10306100  1
  Se  Se41  1  0.66666700  0.33333300  0.02460500  1
  Se  Se42  1  0.82319500  0.17680500  0.18872700  1
  Se  Se43  1  0.97989600  0.48994800  0.10306100  1
  Se  Se44  1  0.68725100  0.84362500  0.02258400  1
  Se  Se45  1  0.15637500  0.31274900  0.02258400  1
  Se  Se46  1  0.00000000  0.00000000  0.10037200  1
  Se  Se47  1  0.15637500  0.84362500  0.02258400  1
loop_
_geom_bond_atom_site_label_1
_geom_bond_atom_site_label_2
_geom_bond_distance
_geom_bond_site_symmetry_2
Er0 Se47 2.700703 1_555
Er0 Se44 2.700716 1_555
Er0 Se45 2.700716 1_555
Er0 Se7 2.720184 1_554
Er1 Se0 2.827859 1_565
Er1 Se1 2.827865 1_555
Er1 Se2 2.835254 1_665
Er1 Se6 2.862871 1_555
Er1 Se10 2.862882 1_555
Er1 Se7 2.880024 1_555
Er2 Se0 2.827859 1_455
Er2 Se3 2.827865 1_555
Er2 Se2 2.835254 1_555
Er2 Se4 2.862871 1_555
Er2 Se10 2.862882 1_555
Er2 Se7 2.880024 1_555
Er3 Se1 2.827859 1_455
Er3 Se3 2.827859 1_565
Er3 Se2 2.835248 1_565
Er3 Se6 2.862883 1_555
Er3 Se4 2.862883 1_555
Er3 Se7 2.880024 1_555
Er4 Se8 2.832942 1_555
Er4 Se5 2.832947 1_555
Er4 Se9 2.837563 1_555
Er4 Se18 2.862947 1_455
Er4 Se14 2.862959 1_455
Er4 Se15 2.878455 1_455
Er5 Se11 2.832942 1_555
Er5 Se5 2.832947 1_555
Er5 Se9 2.837563 1_555
Er5 Se18 2.862947 1_565
Er5 Se13 2.862959 1_565
Er5 Se15 2.878455 1_565
Er6 Se6 2.702792 1_545
Er6 Se4 2.702792 1_655
Er6 Se10 2.702792 1_555
Er6 Se15 2.734335 1_555
Er7 Se12 2.849543 1_555
Er7 Se16 2.849555 1_555
Er7 Se23 2.852045 1_555
Er7 Se17 2.853180 1_555
Er7 Se22 2.853455 1_555
Er7 Se26 2.853460 1_545
Er8 Se11 2.832947 1_555
Er8 Se8 2.832947 1_555
Er8 Se9 2.837575 1_555
Er8 Se13 2.862946 1_555
Er8 Se14 2.862946 1_555
Er8 Se15 2.878456 1_555
Er9 Se12 2.849543 1_555
Er9 Se19 2.849555 1_555
Er9 Se23 2.852045 1_665
Er9 Se17 2.853180 1_555
Er9 Se20 2.853455 1_555
Er9 Se26 2.853460 1_655
Er10 Se18 2.844113 1_555
Er10 Se13 2.844124 1_555
Er10 Se14 2.844124 1_555
Er10 Se19 2.858473 1_555
Er10 Se16 2.858473 1_555
Er10 Se12 2.858473 1_555
Er11 Se16 2.849543 1_555
Er11 Se19 2.849543 1_555
Er11 Se23 2.852051 1_655
Er11 Se17 2.853168 1_555
Er11 Se22 2.853460 1_655
Er11 Se20 2.853460 1_545
Er12 Se24 2.850204 1_555
Er12 Se21 2.850209 1_565
Er12 Se30 2.851167 1_555
Er12 Se25 2.852917 1_665
Er12 Se34 2.853473 1_555
Er12 Se32 2.853478 1_555
Er13 Se22 2.849081 1_555
Er13 Se20 2.849081 1_445
Er13 Se26 2.849081 1_545
Er13 Se24 2.853733 1_445
Er13 Se27 2.853733 1_555
Er13 Se21 2.853733 1_455
Er14 Se27 2.850204 1_555
Er14 Se21 2.850209 1_455
Er14 Se30 2.851167 1_555
Er14 Se25 2.852917 1_555
Er14 Se34 2.853473 1_555
Er14 Se28 2.853478 1_555
Er15 Se24 2.850210 1_455
Er15 Se27 2.850210 1_565
Er15 Se30 2.851155 1_555
Er15 Se25 2.852923 1_565
Er15 Se32 2.853472 1_555
Er15 Se28 2.853472 1_555
Er16 Se29 2.848912 1_555
Er16 Se31 2.848912 1_555
Er16 Se38 2.849952 1_455
Er16 Se33 2.853117 1_555
Er16 Se42 2.854274 1_455
Er16 Se39 2.854285 1_455
Er17 Se28 2.848601 1_555
Er17 Se32 2.848601 1_555
Er17 Se34 2.848606 1_555
Er17 Se29 2.854624 1_555
Er17 Se31 2.854635 1_555
Er17 Se35 2.854635 1_555
Er18 Se29 2.848912 1_555
Er18 Se35 2.848912 1_555
Er18 Se38 2.849952 1_565
Er18 Se33 2.853117 1_555
Er18 Se42 2.854274 1_565
Er18 Se36 2.854285 1_565
Er19 Se31 2.848912 1_555
Er19 Se35 2.848912 1_555
Er19 Se38 2.849952 1_555
Er19 Se33 2.853130 1_555
Er19 Se36 2.854273 1_555
Er19 Se39 2.854273 1_555
Er20 Se37 2.844975 1_555
Er20 Se40 2.844981 1_555
Er20 Se41 2.850292 1_555
Er20 Se45 2.850740 1_555
Er20 Se47 2.850751 1_545
Er20 Se46 2.854620 1_555
Er21 Se42 2.843452 1_555
Er21 Se36 2.843464 1_555
Er21 Se39 2.843464 1_555
Er21 Se43 2.855623 1_555
Er21 Se40 2.855623 1_555
Er21 Se37 2.855629 1_555
Er22 Se37 2.844975 1_555
Er22 Se43 2.844981 1_555
Er22 Se41 2.850292 1_555
Er22 Se44 2.850740 1_555
Er22 Se47 2.850751 1_655
Er22 Se46 2.854620 1_665
Er23 Se43 2.844975 1_555
Er23 Se40 2.844975 1_555
Er23 Se41 2.850281 1_555
Er23 Se45 2.850752 1_655
Er23 Se44 2.850752 1_545
Er23 Se46 2.854627 1_655
Cd0 Se0 2.676859 1_555
Cd0 Se1 2.676865 1_555
Cd0 Se3 2.676865 1_555
Cd0 Se41 2.737751 1_556
Cd1 Se8 2.678339 1_555
Cd1 Se11 2.678339 1_445
Cd1 Se5 2.678339 1_545
Cd1 Se2 2.735962 1_555
Cd2 Se3 2.819059 1_555
Cd2 Se1 2.819059 1_445
Cd2 Se0 2.819059 1_455
Cd2 Se44 2.907394 1_446
Cd2 Se45 2.907394 1_556
Cd2 Se47 2.907400 1_546
Cd3 Se9 2.693143 1_555
Cd3 Se19 2.697272 1_455
Cd3 Se16 2.697272 1_565
Cd3 Se12 2.697285 1_555
Cd4 Se5 2.828567 1_555
Cd4 Se11 2.828572 1_555
Cd4 Se8 2.828572 1_555
Cd4 Se6 2.895405 1_555
Cd4 Se4 2.895405 1_555
Cd4 Se10 2.895416 1_555
Cd5 Se26 2.699488 1_555
Cd5 Se20 2.699495 1_555
Cd5 Se22 2.699495 1_555
Cd5 Se30 2.699771 1_555
Cd6 Se17 2.696233 1_555
Cd6 Se21 2.700605 1_555
Cd6 Se24 2.700612 1_555
Cd6 Se27 2.700612 1_555
Cd7 Se14 2.702061 1_445
Cd7 Se13 2.702061 1_555
Cd7 Se18 2.702068 1_455
Cd7 Se23 2.704529 1_555
Cd8 Se36 2.698750 1_555
Cd8 Se39 2.698750 1_445
Cd8 Se42 2.698757 1_455
Cd8 Se46 2.699730 1_555
Cd9 Se25 2.694078 1_555
Cd9 Se35 2.701534 1_445
Cd9 Se31 2.701534 1_555
Cd9 Se29 2.701541 1_545
Cd10 Se33 2.686799 1_555
Cd10 Se40 2.700515 1_565
Cd10 Se43 2.700515 1_455
Cd10 Se37 2.700523 1_555
Cd11 Se28 2.698876 1_655
Cd11 Se32 2.698876 1_545
Cd11 Se34 2.698883 1_555
Cd11 Se38 2.701764 1_555
