# generated using pymatgen
data_Er(CoGe)2
_symmetry_space_group_name_H-M   'P 1'
_cell_length_a   3.90511513
_cell_length_b   3.90511543
_cell_length_c   5.71184117
_cell_angle_alpha   109.98926151
_cell_angle_beta   109.98926204
_cell_angle_gamma   90.00000709
_symmetry_Int_Tables_number   1
_chemical_formula_structural   Er(CoGe)2
_chemical_formula_sum   'Er1 Co2 Ge2'
_cell_volume   76.24986652
_cell_formula_units_Z   1
loop_
 _symmetry_equiv_pos_site_id
 _symmetry_equiv_pos_as_xyz
  1  'x, y, z'
loop_
 _atom_site_type_symbol
 _atom_site_label
 _atom_site_symmetry_multiplicity
 _atom_site_fract_x
 _atom_site_fract_y
 _atom_site_fract_z
 _atom_site_occupancy
  Er  Er0  1  0.00000000  -0.00000000  0.00000000  1
  Co  Co0  1  0.75000000  0.25000000  0.50000000  1
  Co  Co1  1  0.25000000  0.75000000  0.50000000  1
  Ge  Ge0  1  0.62738169  0.62738169  0.25476137  1
  Ge  Ge1  1  0.37261831  0.37261831  0.74523863  1
loop_
_geom_bond_atom_site_label_1
_geom_bond_atom_site_label_2
_geom_bond_distance
_geom_bond_site_symmetry_2
Er0 Ge0 3.040975 1_445
Er0 Ge1 3.040975 1_554
Er0 Ge0 3.040980 1_545
Er0 Ge1 3.040980 1_454
Er0 Ge1 3.040980 1_544
Er0 Ge0 3.040980 1_455
Er0 Ge1 3.040984 1_444
Er0 Ge0 3.040984 1_555
Co0 Ge1 2.305650 1_655
Co0 Ge0 2.305650 1_545
Co0 Ge1 2.305658 1_555
Co0 Ge0 2.305658 1_555
Co0 Er0 3.172147 1_555
Co0 Er0 3.172147 1_666
Co0 Er0 3.172148 1_655
Co0 Er0 3.172148 1_656
Co1 Ge0 2.305650 1_455
Co1 Ge1 2.305650 1_565
Co1 Ge0 2.305658 1_555
Co1 Ge1 2.305658 1_555
Co1 Er0 3.172147 1_666
Co1 Er0 3.172147 1_555
Co1 Er0 3.172148 1_566
Co1 Er0 3.172148 1_565
Ge0 Ge1 2.547622 1_554
