# generated using pymatgen
data_Yb3B5O12
_symmetry_space_group_name_H-M   'P 1'
_cell_length_a   4.79943200
_cell_length_b   12.59408000
_cell_length_c   12.72959800
_cell_angle_alpha   90.00000000
_cell_angle_beta   90.00000000
_cell_angle_gamma   90.00000000
_symmetry_Int_Tables_number   1
_chemical_formula_structural   Yb3B5O12
_chemical_formula_sum   'Yb12 B20 O48'
_cell_volume   769.43330240
_cell_formula_units_Z   4
loop_
 _symmetry_equiv_pos_site_id
 _symmetry_equiv_pos_as_xyz
  1  'x, y, z'
loop_
 _atom_site_type_symbol
 _atom_site_label
 _atom_site_symmetry_multiplicity
 _atom_site_fract_x
 _atom_site_fract_y
 _atom_site_fract_z
 _atom_site_occupancy
  Yb  Yb0  1  0.00373400  0.30505000  0.63804800  1
  Yb  Yb1  1  0.99626600  0.69495000  0.36195200  1
  Yb  Yb2  1  0.00373400  0.30505000  0.36195200  1
  Yb  Yb3  1  0.00373400  0.19495000  0.86195200  1
  Yb  Yb4  1  0.00000000  0.00000000  0.36101200  1
  Yb  Yb5  1  0.99626600  0.80505000  0.13804800  1
  Yb  Yb6  1  0.00000000  0.50000000  0.86101200  1
  Yb  Yb7  1  0.99626600  0.80505000  0.86195200  1
  Yb  Yb8  1  0.00000000  0.50000000  0.13898800  1
  Yb  Yb9  1  0.99626600  0.69495000  0.63804800  1
  Yb  Yb10  1  0.00373400  0.19495000  0.13804800  1
  Yb  Yb11  1  0.00000000  0.00000000  0.63898800  1
  B  B0  1  0.54733100  0.62431300  0.50000000  1
  B  B1  1  0.50000000  0.50000000  0.33816700  1
  B  B2  1  0.45266900  0.12431300  0.00000000  1
  B  B3  1  0.52822900  0.15189800  0.29692600  1
  B  B4  1  0.50000000  0.00000000  0.83816700  1
  B  B5  1  0.54733100  0.87568700  0.00000000  1
  B  B6  1  0.52822900  0.34810200  0.79692600  1
  B  B7  1  0.47504300  0.34109700  0.00000000  1
  B  B8  1  0.47177100  0.65189800  0.79692600  1
  B  B9  1  0.47504300  0.15890300  0.50000000  1
  B  B10  1  0.50000000  0.00000000  0.16183300  1
  B  B11  1  0.52495700  0.65890300  0.00000000  1
  B  B12  1  0.52822900  0.15189800  0.70307400  1
  B  B13  1  0.52822900  0.34810200  0.20307400  1
  B  B14  1  0.45266900  0.37568700  0.50000000  1
  B  B15  1  0.52495700  0.84109700  0.50000000  1
  B  B16  1  0.47177100  0.84810200  0.29692600  1
  B  B17  1  0.50000000  0.50000000  0.66183300  1
  B  B18  1  0.47177100  0.65189800  0.20307400  1
  B  B19  1  0.47177100  0.84810200  0.70307400  1
  O  O0  1  0.34871500  0.75000000  0.25000000  1
  O  O1  1  0.33181100  0.42981300  0.59411400  1
  O  O2  1  0.66818900  0.92981300  0.90588600  1
  O  O3  1  0.33181100  0.42981300  0.40588600  1
  O  O4  1  0.32480800  0.23596800  0.00000000  1
  O  O5  1  0.67562200  0.43343300  0.73192800  1
  O  O6  1  0.32437800  0.93343300  0.23192800  1
  O  O7  1  0.66818900  0.57018700  0.40588600  1
  O  O8  1  0.76764600  0.84998700  0.70325900  1
  O  O9  1  0.67519200  0.76403200  0.00000000  1
  O  O10  1  0.74498300  0.57963900  0.00000000  1
  O  O11  1  0.25613200  0.63751500  0.50000000  1
  O  O12  1  0.74386800  0.36248500  0.50000000  1
  O  O13  1  0.65506400  0.14534100  0.59494100  1
  O  O14  1  0.67562200  0.06656700  0.76807200  1
  O  O15  1  0.23235400  0.15001300  0.70325900  1
  O  O16  1  0.76764600  0.84998700  0.29674100  1
  O  O17  1  0.76764600  0.65001300  0.20325900  1
  O  O18  1  0.65506400  0.35465900  0.09494100  1
  O  O19  1  0.32480800  0.26403200  0.50000000  1
  O  O20  1  0.74386800  0.13751500  0.00000000  1
  O  O21  1  0.25613200  0.86248500  0.00000000  1
  O  O22  1  0.34493600  0.85465900  0.40505900  1
  O  O23  1  0.74498300  0.92036100  0.50000000  1
  O  O24  1  0.25501700  0.42036100  0.00000000  1
  O  O25  1  0.67519200  0.73596800  0.50000000  1
  O  O26  1  0.34493600  0.64534100  0.90505900  1
  O  O27  1  0.66818900  0.92981300  0.09411400  1
  O  O28  1  0.34493600  0.64534100  0.09494100  1
  O  O29  1  0.66818900  0.57018700  0.59411400  1
  O  O30  1  0.65128500  0.25000000  0.25000000  1
  O  O31  1  0.23235400  0.15001300  0.29674100  1
  O  O32  1  0.32437800  0.56656700  0.73192800  1
  O  O33  1  0.33181100  0.07018700  0.90588600  1
  O  O34  1  0.23235400  0.34998700  0.20325900  1
  O  O35  1  0.67562200  0.43343300  0.26807200  1
  O  O36  1  0.33181100  0.07018700  0.09411400  1
  O  O37  1  0.34871500  0.75000000  0.75000000  1
  O  O38  1  0.32437800  0.56656700  0.26807200  1
  O  O39  1  0.65506400  0.14534100  0.40505900  1
  O  O40  1  0.25501700  0.07963900  0.50000000  1
  O  O41  1  0.76764600  0.65001300  0.79674100  1
  O  O42  1  0.23235400  0.34998700  0.79674100  1
  O  O43  1  0.67562200  0.06656700  0.23192800  1
  O  O44  1  0.32437800  0.93343300  0.76807200  1
  O  O45  1  0.34493600  0.85465900  0.59494100  1
  O  O46  1  0.65128500  0.25000000  0.75000000  1
  O  O47  1  0.65506400  0.35465900  0.90505900  1
loop_
_geom_bond_atom_site_label_1
_geom_bond_atom_site_label_2
_geom_bond_distance
_geom_bond_site_symmetry_2
B0 O11 1.407445 1_555
B0 O7 1.495464 1_555
B0 O29 1.495464 1_555
B0 O25 1.534260 1_555
B1 O3 1.475143 1_555
B1 O7 1.475143 1_555
B1 O35 1.486423 1_555
B1 O38 1.486423 1_555
B2 O20 1.407445 1_555
B2 O36 1.495464 1_555
B2 O33 1.495464 1_554
B2 O4 1.534260 1_555
B3 O31 1.420232 1_555
B3 O30 1.494023 1_555
B3 O39 1.507349 1_555
B3 O43 1.529677 1_555
B4 O33 1.475143 1_555
B4 O2 1.475143 1_545
B4 O14 1.486423 1_555
B4 O44 1.486423 1_545
B5 O21 1.407445 1_555
B5 O27 1.495464 1_555
B5 O2 1.495464 1_554
B5 O9 1.534260 1_555
B6 O42 1.420232 1_555
B6 O46 1.494023 1_555
B6 O47 1.507349 1_555
B6 O5 1.529677 1_555
B7 O24 1.453153 1_555
B7 O18 1.495422 1_555
B7 O47 1.495422 1_554
B7 O4 1.507610 1_555
B8 O41 1.420232 1_555
B8 O37 1.494023 1_555
B8 O26 1.507349 1_555
B8 O32 1.529677 1_555
B9 O40 1.453153 1_555
B9 O39 1.495422 1_555
B9 O13 1.495422 1_555
B9 O19 1.507610 1_555
B10 O27 1.475143 1_545
B10 O36 1.475143 1_555
B10 O43 1.486423 1_555
B10 O6 1.486423 1_545
B11 O10 1.453153 1_555
B11 O28 1.495422 1_555
B11 O26 1.495422 1_554
B11 O9 1.507610 1_555
B12 O15 1.420232 1_555
B12 O46 1.494023 1_555
B12 O13 1.507349 1_555
B12 O14 1.529677 1_555
B13 O34 1.420232 1_555
B13 O30 1.494023 1_555
B13 O18 1.507349 1_555
B13 O35 1.529677 1_555
B14 O12 1.407445 1_555
B14 O3 1.495464 1_555
B14 O1 1.495464 1_555
B14 O19 1.534260 1_555
B15 O23 1.453153 1_555
B15 O22 1.495422 1_555
B15 O45 1.495422 1_555
B15 O25 1.507610 1_555
B16 O16 1.420232 1_555
B16 O0 1.494023 1_555
B16 O22 1.507349 1_555
B16 O6 1.529677 1_555
B17 O1 1.475143 1_555
B17 O29 1.475143 1_555
B17 O5 1.486423 1_555
B17 O32 1.486423 1_555
B18 O17 1.420232 1_555
B18 O0 1.494023 1_555
B18 O28 1.507349 1_555
B18 O38 1.529677 1_555
B19 O8 1.420232 1_555
B19 O37 1.494023 1_555
B19 O45 1.507349 1_555
B19 O44 1.529677 1_555
O0 Yb5 2.317963 1_455
O0 Yb1 2.317963 1_455
O1 Yb0 2.293685 1_555
O2 Yb7 2.293685 1_555
O3 Yb2 2.293685 1_555
O4 Yb10 2.393647 1_555
O4 Yb3 2.393647 1_554
O5 Yb6 2.413838 1_655
O5 Yb0 2.553870 1_655
O6 Yb4 2.413838 1_565
O6 Yb5 2.553870 1_455
O7 Yb1 2.293685 1_555
O8 Yb11 2.341436 1_665
O8 Yb7 2.367495 1_555
O8 Yb9 2.388614 1_555
O9 Yb7 2.393647 1_554
O9 Yb5 2.393647 1_555
O10 Yb6 2.373663 1_654
O10 Yb8 2.373663 1_655
O11 Yb9 2.273069 1_455
O11 Yb1 2.273069 1_455
O12 Yb0 2.273069 1_655
O12 Yb2 2.273069 1_655
O13 Yb11 2.530919 1_655
O13 Yb0 2.673410 1_655
O14 Yb11 2.413838 1_655
O14 Yb3 2.553870 1_655
O15 Yb11 2.341436 1_555
O15 Yb3 2.367495 1_555
O15 Yb0 2.388614 1_555
O16 Yb4 2.341436 1_665
O16 Yb5 2.367495 1_555
O16 Yb1 2.388614 1_555
O17 Yb8 2.341436 1_655
O17 Yb1 2.367495 1_555
O17 Yb5 2.388614 1_555
O18 Yb8 2.530919 1_655
O18 Yb10 2.673410 1_655
O19 Yb2 2.393647 1_555
O19 Yb0 2.393647 1_555
O20 Yb3 2.273069 1_654
O20 Yb10 2.273069 1_655
O21 Yb7 2.273069 1_454
O21 Yb5 2.273069 1_455
O22 Yb4 2.530919 1_565
O22 Yb1 2.673410 1_455
O23 Yb4 2.373663 1_665
O23 Yb11 2.373663 1_665
O24 Yb8 2.373663 1_555
O24 Yb6 2.373663 1_554
O25 Yb1 2.393647 1_555
O25 Yb9 2.393647 1_555
O26 Yb6 2.530919 1_555
O26 Yb7 2.673410 1_455
O27 Yb5 2.293685 1_555
O28 Yb8 2.530919 1_555
O28 Yb5 2.673410 1_455
O29 Yb9 2.293685 1_555
O30 Yb2 2.317963 1_655
O30 Yb10 2.317963 1_655
O31 Yb4 2.341436 1_555
O31 Yb10 2.367495 1_555
O31 Yb2 2.388614 1_555
O32 Yb6 2.413838 1_555
O32 Yb9 2.553870 1_455
O33 Yb3 2.293685 1_555
O34 Yb8 2.341436 1_555
O34 Yb2 2.367495 1_555
O34 Yb10 2.388614 1_555
O35 Yb8 2.413838 1_655
O35 Yb2 2.553870 1_655
O36 Yb10 2.293685 1_555
O37 Yb7 2.317963 1_455
O37 Yb9 2.317963 1_455
O38 Yb8 2.413838 1_555
O38 Yb1 2.553870 1_455
O39 Yb4 2.530919 1_655
O39 Yb2 2.673410 1_655
O40 Yb4 2.373663 1_555
O40 Yb11 2.373663 1_555
O41 Yb6 2.341436 1_655
O41 Yb9 2.367495 1_555
O41 Yb7 2.388614 1_555
O42 Yb6 2.341436 1_555
O42 Yb0 2.367495 1_555
O42 Yb3 2.388614 1_555
O43 Yb4 2.413838 1_655
O43 Yb10 2.553870 1_655
O44 Yb11 2.413838 1_565
O44 Yb7 2.553870 1_455
O45 Yb11 2.530919 1_565
O45 Yb9 2.673410 1_455
O46 Yb0 2.317963 1_655
O46 Yb3 2.317963 1_655
O47 Yb6 2.530919 1_655
O47 Yb3 2.673410 1_655
