# generated using pymatgen
data_HoCoSi
_symmetry_space_group_name_H-M   'P 1'
_cell_length_a   4.18980285
_cell_length_b   6.86327542
_cell_length_c   6.81872120
_cell_angle_alpha   89.99868203
_cell_angle_beta   90.00000000
_cell_angle_gamma   90.00000000
_symmetry_Int_Tables_number   1
_chemical_formula_structural   HoCoSi
_chemical_formula_sum   'Ho4 Co4 Si4'
_cell_volume   196.07758474
_cell_formula_units_Z   4
loop_
 _symmetry_equiv_pos_site_id
 _symmetry_equiv_pos_as_xyz
  1  'x, y, z'
loop_
 _atom_site_type_symbol
 _atom_site_label
 _atom_site_symmetry_multiplicity
 _atom_site_fract_x
 _atom_site_fract_y
 _atom_site_fract_z
 _atom_site_occupancy
  Ho  Ho0  1  0.75000000  0.02146055  0.80892142  1
  Ho  Ho1  1  0.25000000  0.97853945  0.19107858  1
  Ho  Ho2  1  0.75000000  0.52144961  0.69095648  1
  Ho  Ho3  1  0.25000000  0.47855039  0.30904352  1
  Co  Co0  1  0.75000000  0.84963477  0.43203917  1
  Co  Co1  1  0.25000000  0.15036523  0.56796083  1
  Co  Co2  1  0.75000000  0.34952111  0.06807754  1
  Co  Co3  1  0.25000000  0.65047889  0.93192246  1
  Si  Si0  1  0.75000000  0.19426204  0.39438032  1
  Si  Si1  1  0.25000000  0.80573796  0.60561968  1
  Si  Si2  1  0.75000000  0.69430753  0.10566209  1
  Si  Si3  1  0.25000000  0.30569247  0.89433791  1
loop_
_geom_bond_atom_site_label_1
_geom_bond_atom_site_label_2
_geom_bond_distance
_geom_bond_site_symmetry_2
Ho0 Si1 2.915902 1_645
Ho0 Si1 2.915902 1_545
Ho0 Si3 2.921192 1_655
Ho0 Si3 2.921192 1_555
Ho0 Si2 3.022493 1_546
Ho0 Si0 3.065338 1_555
Ho1 Si0 2.915902 1_465
Ho1 Si0 2.915902 1_565
Ho1 Si2 2.921192 1_455
Ho1 Si2 2.921192 1_555
Ho1 Si3 3.022493 1_564
Ho1 Si1 3.065338 1_555
Ho2 Si3 2.916249 1_555
Ho2 Si3 2.916249 1_655
Ho2 Si1 2.921324 1_655
Ho2 Si1 2.921324 1_555
Ho2 Si0 3.021987 1_555
Ho2 Si2 3.066573 1_556
Ho3 Si2 2.916249 1_555
Ho3 Si2 2.916249 1_455
Ho3 Si0 2.921324 1_455
Ho3 Si0 2.921324 1_555
Ho3 Si1 3.021987 1_555
Ho3 Si3 3.066573 1_554
Co0 Si0 2.379164 1_565
Co0 Si1 2.424926 1_555
Co0 Si1 2.424926 1_655
Co0 Si2 2.467654 1_555
Co0 Ho1 2.805503 1_655
Co0 Ho1 2.805503 1_555
Co0 Ho0 2.827545 1_565
Co0 Ho2 2.861848 1_555
Co1 Si1 2.379164 1_545
Co1 Si0 2.424926 1_555
Co1 Si0 2.424926 1_455
Co1 Si3 2.467654 1_555
Co1 Ho0 2.805503 1_555
Co1 Ho0 2.805503 1_455
Co1 Ho1 2.827545 1_545
Co1 Ho3 2.861848 1_555
Co2 Si2 2.380207 1_555
Co2 Si3 2.425404 1_554
Co2 Si3 2.425404 1_654
Co2 Si0 2.466951 1_555
Co2 Ho3 2.805818 1_655
Co2 Ho3 2.805818 1_555
Co2 Ho2 2.829270 1_554
Co2 Ho0 2.862244 1_554
Co3 Si3 2.380207 1_555
Co3 Si2 2.425404 1_556
Co3 Si2 2.425404 1_456
Co3 Si1 2.466951 1_555
Co3 Ho2 2.805818 1_455
Co3 Ho2 2.805818 1_555
Co3 Ho3 2.829270 1_556
Co3 Ho1 2.862244 1_556
