# generated using pymatgen
data_BaVCu4P4O17
_symmetry_space_group_name_H-M   'P 1'
_cell_length_a   9.73455600
_cell_length_b   9.73455600
_cell_length_c   7.34686600
_cell_angle_alpha   90.00000000
_cell_angle_beta   90.00000000
_cell_angle_gamma   90.00000000
_symmetry_Int_Tables_number   1
_chemical_formula_structural   BaVCu4P4O17
_chemical_formula_sum   'Ba2 V2 Cu8 P8 O34'
_cell_volume   696.20063401
_cell_formula_units_Z   2
loop_
 _symmetry_equiv_pos_site_id
 _symmetry_equiv_pos_as_xyz
  1  'x, y, z'
loop_
 _atom_site_type_symbol
 _atom_site_label
 _atom_site_symmetry_multiplicity
 _atom_site_fract_x
 _atom_site_fract_y
 _atom_site_fract_z
 _atom_site_occupancy
  Ba  Ba0  1  0.00000000  0.00000000  0.00000000  1
  Ba  Ba1  1  0.50000000  0.50000000  0.00000000  1
  V  V0  1  0.00000000  0.50000000  0.95635300  1
  V  V1  1  0.50000000  0.00000000  0.04364700  1
  Cu  Cu0  1  0.23799800  0.48628400  0.40350800  1
  Cu  Cu1  1  0.48628400  0.23799800  0.59649200  1
  Cu  Cu2  1  0.01371600  0.73799800  0.40350800  1
  Cu  Cu3  1  0.76200200  0.51371600  0.40350800  1
  Cu  Cu4  1  0.73799800  0.01371600  0.59649200  1
  Cu  Cu5  1  0.98628400  0.26200200  0.40350800  1
  Cu  Cu6  1  0.51371600  0.76200200  0.59649200  1
  Cu  Cu7  1  0.26200200  0.98628400  0.59649200  1
  P  P0  1  0.21824800  0.69061300  0.73377500  1
  P  P1  1  0.80938700  0.71824800  0.73377500  1
  P  P2  1  0.71824800  0.80938700  0.26622500  1
  P  P3  1  0.19061300  0.28175200  0.73377500  1
  P  P4  1  0.78175200  0.30938700  0.73377500  1
  P  P5  1  0.28175200  0.19061300  0.26622500  1
  P  P6  1  0.69061300  0.21824800  0.26622500  1
  P  P7  1  0.30938700  0.78175200  0.26622500  1
  O  O0  1  0.00000000  0.50000000  0.17935600  1
  O  O1  1  0.87392800  0.83926900  0.26314500  1
  O  O2  1  0.89512800  0.65856900  0.89610300  1
  O  O3  1  0.32067700  0.34299700  0.24239500  1
  O  O4  1  0.84299700  0.17932300  0.24239500  1
  O  O5  1  0.84143100  0.39512800  0.89610300  1
  O  O6  1  0.67932300  0.65700300  0.24239500  1
  O  O7  1  0.50000000  0.00000000  0.82064400  1
  O  O8  1  0.65700300  0.67932300  0.75760500  1
  O  O9  1  0.82067700  0.15700300  0.75760500  1
  O  O10  1  0.65856900  0.89512800  0.10389700  1
  O  O11  1  0.10487200  0.34143100  0.89610300  1
  O  O12  1  0.34299700  0.32067700  0.75760500  1
  O  O13  1  0.17932300  0.84299700  0.75760500  1
  O  O14  1  0.62607200  0.33926900  0.73685500  1
  O  O15  1  0.34143100  0.10487200  0.10389700  1
  O  O16  1  0.12607200  0.16073100  0.26314500  1
  O  O17  1  0.83926900  0.87392800  0.73685500  1
  O  O18  1  0.86364000  0.65309500  0.55141100  1
  O  O19  1  0.34690500  0.13636000  0.44858900  1
  O  O20  1  0.33926900  0.62607200  0.26314500  1
  O  O21  1  0.84690500  0.36364000  0.55141100  1
  O  O22  1  0.65309500  0.86364000  0.44858900  1
  O  O23  1  0.15856900  0.60487200  0.89610300  1
  O  O24  1  0.16073100  0.12607200  0.73685500  1
  O  O25  1  0.37392800  0.66073100  0.73685500  1
  O  O26  1  0.15700300  0.82067700  0.24239500  1
  O  O27  1  0.36364000  0.84690500  0.44858900  1
  O  O28  1  0.39512800  0.84143100  0.10389700  1
  O  O29  1  0.66073100  0.37392800  0.26314500  1
  O  O30  1  0.63636000  0.15309500  0.44858900  1
  O  O31  1  0.13636000  0.34690500  0.55141100  1
  O  O32  1  0.60487200  0.15856900  0.10389700  1
  O  O33  1  0.15309500  0.63636000  0.55141100  1
loop_
_geom_bond_atom_site_label_1
_geom_bond_atom_site_label_2
_geom_bond_distance
_geom_bond_site_symmetry_2
Ba0 O17 2.773424 1_444
Ba0 O16 2.773424 1_555
Ba0 O24 2.773424 1_554
Ba0 O1 2.773424 1_445
Ba0 O26 2.924807 1_545
Ba0 O13 2.924807 1_544
Ba0 O9 2.924807 1_454
Ba0 O4 2.924807 1_455
Ba1 O25 2.773424 1_554
Ba1 O29 2.773424 1_555
Ba1 O20 2.773424 1_555
Ba1 O14 2.773424 1_554
Ba1 O3 2.924807 1_555
Ba1 O8 2.924807 1_554
Ba1 O12 2.924807 1_554
Ba1 O6 2.924807 1_555
Cu0 O20 1.971546 1_555
Cu0 O3 1.998606 1_555
Cu0 O33 1.999534 1_555
Cu0 O31 2.000138 1_555
Cu1 O14 1.971546 1_555
Cu1 O12 1.998606 1_555
Cu1 O30 1.999534 1_555
Cu1 O19 2.000138 1_555
Cu2 O1 1.971546 1_455
Cu2 O26 1.998606 1_555
Cu2 O18 1.999534 1_455
Cu2 O33 2.000138 1_555
Cu3 O29 1.971546 1_555
Cu3 O6 1.998606 1_555
Cu3 O21 1.999534 1_555
Cu3 O18 2.000138 1_555
Cu4 O17 1.971546 1_545
Cu4 O9 1.998606 1_555
Cu4 O22 1.999534 1_545
Cu4 O30 2.000138 1_555
Cu5 O16 1.971546 1_655
Cu5 O4 1.998606 1_555
Cu5 O31 1.999534 1_655
Cu5 O21 2.000138 1_555
Cu6 O25 1.971546 1_555
Cu6 O8 1.998606 1_555
Cu6 O27 1.999534 1_555
Cu6 O22 2.000138 1_555
Cu7 O24 1.971546 1_565
Cu7 O13 1.998606 1_555
Cu7 O19 1.999534 1_565
Cu7 O27 2.000138 1_555
O0 V0 1.638373 1_554
O1 P2 1.543306 1_555
O2 P1 1.567304 1_555
O2 V0 1.902849 1_655
O3 P5 1.540999 1_555
O4 P6 1.540999 1_555
O5 P4 1.567304 1_555
O5 V0 1.902849 1_655
O6 P2 1.540999 1_555
O7 V1 1.638373 1_556
O8 P1 1.540999 1_555
O9 P4 1.540999 1_555
O10 P2 1.567304 1_555
O10 V1 1.902849 1_565
O11 P3 1.567304 1_555
O11 V0 1.902849 1_555
O12 P3 1.540999 1_555
O13 P0 1.540999 1_555
O14 P4 1.543306 1_555
O15 P5 1.567304 1_555
O15 V1 1.902849 1_555
O16 P5 1.543306 1_555
O17 P1 1.543306 1_555
O18 P1 1.573610 1_555
O19 P5 1.573610 1_555
O20 P7 1.543306 1_555
O21 P4 1.573610 1_555
O22 P2 1.573610 1_555
O23 P0 1.567304 1_555
O23 V0 1.902849 1_555
O24 P3 1.543306 1_555
O25 P0 1.543306 1_555
O26 P7 1.540999 1_555
O27 P7 1.573610 1_555
O28 P7 1.567304 1_555
O28 V1 1.902849 1_565
O29 P6 1.543306 1_555
O30 P6 1.573610 1_555
O31 P3 1.573610 1_555
O32 P6 1.567304 1_555
O32 V1 1.902849 1_555
O33 P0 1.573610 1_555
