# generated using pymatgen
data_Cs2Na3InO4
_symmetry_space_group_name_H-M   'P 1'
_cell_length_a   10.35980900
_cell_length_b   6.44599200
_cell_length_c   12.62575273
_cell_angle_alpha   68.88487024
_cell_angle_beta   90.00000000
_cell_angle_gamma   90.00000000
_symmetry_Int_Tables_number   1
_chemical_formula_structural   Cs2Na3InO4
_chemical_formula_sum   'Cs8 Na12 In4 O16'
_cell_volume   786.52862980
_cell_formula_units_Z   4
loop_
 _symmetry_equiv_pos_site_id
 _symmetry_equiv_pos_as_xyz
  1  'x, y, z'
loop_
 _atom_site_type_symbol
 _atom_site_label
 _atom_site_symmetry_multiplicity
 _atom_site_fract_x
 _atom_site_fract_y
 _atom_site_fract_z
 _atom_site_occupancy
  Cs  Cs0  1  0.72655500  0.28399900  0.60832700  1
  Cs  Cs1  1  0.22655500  0.71600100  0.89167300  1
  Cs  Cs2  1  0.27344500  0.71600100  0.39167300  1
  Cs  Cs3  1  0.77344500  0.28399900  0.10832700  1
  Cs  Cs4  1  0.50227400  0.27388700  0.36529600  1
  Cs  Cs5  1  0.00227400  0.72611300  0.13470400  1
  Cs  Cs6  1  0.49772600  0.72611300  0.63470400  1
  Cs  Cs7  1  0.99772600  0.27388700  0.86529600  1
  Na  Na0  1  0.25504100  0.39013800  0.20129600  1
  Na  Na1  1  0.75504100  0.60986200  0.29870400  1
  Na  Na2  1  0.74495900  0.60986200  0.79870400  1
  Na  Na3  1  0.24495900  0.39013800  0.70129600  1
  Na  Na4  1  0.02949100  0.08785100  0.29530300  1
  Na  Na5  1  0.52949100  0.91214900  0.20469700  1
  Na  Na6  1  0.97050900  0.91214900  0.70469700  1
  Na  Na7  1  0.47050900  0.08785100  0.79530300  1
  Na  Na8  1  0.48858800  0.63852500  0.06809800  1
  Na  Na9  1  0.98858800  0.36147500  0.43190200  1
  Na  Na10  1  0.51141200  0.36147500  0.93190200  1
  Na  Na11  1  0.01141200  0.63852500  0.56809800  1
  In  In0  1  0.21589000  0.10277200  0.56407600  1
  In  In1  1  0.71589000  0.89722800  0.93592400  1
  In  In2  1  0.78411000  0.89722800  0.43592400  1
  In  In3  1  0.28411000  0.10277200  0.06407600  1
  O  O0  1  0.31814800  0.76118100  0.14934700  1
  O  O1  1  0.81814800  0.23881900  0.35065300  1
  O  O2  1  0.68185200  0.23881900  0.85065300  1
  O  O3  1  0.18185200  0.76118100  0.64934700  1
  O  O4  1  0.19005600  0.22131400  0.38680900  1
  O  O5  1  0.69005600  0.77868600  0.11319100  1
  O  O6  1  0.80994400  0.77868600  0.61319100  1
  O  O7  1  0.30994400  0.22131400  0.88680900  1
  O  O8  1  0.10730200  0.21355400  0.10828100  1
  O  O9  1  0.60730200  0.78644600  0.39171900  1
  O  O10  1  0.89269800  0.78644600  0.89171900  1
  O  O11  1  0.39269800  0.21355400  0.60828100  1
  O  O12  1  0.06533700  0.26183300  0.62310400  1
  O  O13  1  0.56533700  0.73816700  0.87689600  1
  O  O14  1  0.93466300  0.73816700  0.37689600  1
  O  O15  1  0.43466300  0.26183300  0.12310400  1
loop_
_geom_bond_atom_site_label_1
_geom_bond_atom_site_label_2
_geom_bond_distance
_geom_bond_site_symmetry_2
Cs0 O2 3.003023 1_555
Cs0 O1 3.500283 1_555
Cs1 O3 3.003023 1_555
Cs1 O0 3.500283 1_556
Cs2 O0 3.003023 1_555
Cs2 O3 3.500283 1_555
Cs3 O1 3.003023 1_555
Cs3 O2 3.500283 1_554
Cs4 O11 3.161027 1_555
Cs4 O15 3.165173 1_555
Cs4 O9 3.226823 1_545
Cs4 O4 3.253369 1_555
Cs4 O1 3.289978 1_555
Cs5 O10 3.161027 1_454
Cs5 O14 3.165173 1_455
Cs5 O8 3.226823 1_565
Cs5 O5 3.253369 1_455
Cs5 O0 3.289978 1_555
Cs6 O9 3.161027 1_555
Cs6 O13 3.165173 1_555
Cs6 O11 3.226823 1_565
Cs6 O6 3.253369 1_555
Cs6 O3 3.289978 1_555
Cs7 O8 3.161027 1_656
Cs7 O12 3.165173 1_655
Cs7 O10 3.226823 1_545
Cs7 O7 3.253369 1_655
Cs7 O2 3.289978 1_555
Na0 O4 2.299378 1_555
Na0 O0 2.334051 1_555
Na0 O15 2.389494 1_555
Na0 O8 2.445506 1_555
Na1 O5 2.299378 1_555
Na1 O1 2.334051 1_555
Na1 O14 2.389494 1_555
Na1 O9 2.445506 1_555
Na2 O6 2.299378 1_555
Na2 O2 2.334051 1_555
Na2 O13 2.389494 1_555
Na2 O10 2.445506 1_555
Na3 O7 2.299378 1_555
Na3 O3 2.334051 1_555
Na3 O12 2.389494 1_555
Na3 O11 2.445506 1_555
Na4 O14 2.331123 1_445
Na4 O8 2.345966 1_555
Na4 O4 2.357541 1_555
Na4 O1 2.592130 1_455
Na5 O15 2.331123 1_565
Na5 O9 2.345966 1_555
Na5 O5 2.357541 1_555
Na5 O0 2.592130 1_555
Na6 O12 2.331123 1_665
Na6 O10 2.345966 1_555
Na6 O6 2.357541 1_555
Na6 O3 2.592130 1_655
Na7 O13 2.331123 1_545
Na7 O11 2.345966 1_555
Na7 O7 2.357541 1_555
Na7 O2 2.592130 1_555
Na8 O0 2.319393 1_555
Na8 O15 2.339949 1_555
Na8 O13 2.399025 1_554
Na8 O5 2.422249 1_555
Na9 O1 2.319393 1_555
Na9 O14 2.339949 1_555
Na9 O12 2.399025 1_655
Na9 O4 2.422249 1_655
Na10 O2 2.319393 1_555
Na10 O13 2.339949 1_555
Na10 O15 2.399025 1_556
Na10 O7 2.422249 1_555
Na11 O3 2.319393 1_555
Na11 O12 2.339949 1_555
Na11 O14 2.399025 1_455
Na11 O6 2.422249 1_455
In0 O3 2.103282 1_545
In0 O4 2.105364 1_555
In0 O11 2.112748 1_555
In0 O12 2.142404 1_555
In1 O2 2.103282 1_565
In1 O5 2.105364 1_556
In1 O10 2.112748 1_555
In1 O13 2.142404 1_555
In2 O1 2.103282 1_565
In2 O6 2.105364 1_555
In2 O9 2.112748 1_555
In2 O14 2.142404 1_555
In3 O0 2.103282 1_545
In3 O7 2.105364 1_554
In3 O8 2.112748 1_555
In3 O15 2.142404 1_555
