# generated using pymatgen
data_Rb2GdGa(SiO3)4
_symmetry_space_group_name_H-M   'P 1'
_cell_length_a   14.14540387
_cell_length_b   14.14540387
_cell_length_c   15.08151053
_cell_angle_alpha   58.00522933
_cell_angle_beta   58.00522933
_cell_angle_gamma   30.36491332
_symmetry_Int_Tables_number   1
_chemical_formula_structural   Rb2GdGa(SiO3)4
_chemical_formula_sum   'Rb8 Gd4 Ga4 Si16 O48'
_cell_volume   1275.01140082
_cell_formula_units_Z   4
loop_
 _symmetry_equiv_pos_site_id
 _symmetry_equiv_pos_as_xyz
  1  'x, y, z'
loop_
 _atom_site_type_symbol
 _atom_site_label
 _atom_site_symmetry_multiplicity
 _atom_site_fract_x
 _atom_site_fract_y
 _atom_site_fract_z
 _atom_site_occupancy
  Rb  Rb0  1  0.68858600  0.69506700  0.03386500  1
  Rb  Rb1  1  0.31141400  0.30493300  0.96613500  1
  Rb  Rb2  1  0.30493300  0.31141400  0.46613500  1
  Rb  Rb3  1  0.69506700  0.68858600  0.53386500  1
  Rb  Rb4  1  0.22778500  0.70265500  0.95286200  1
  Rb  Rb5  1  0.29734500  0.77221500  0.54713800  1
  Rb  Rb6  1  0.77221500  0.29734500  0.04713800  1
  Rb  Rb7  1  0.70265500  0.22778500  0.45286200  1
  Gd  Gd0  1  0.48616300  0.05151600  0.75001900  1
  Gd  Gd1  1  0.51383700  0.94848400  0.24998100  1
  Gd  Gd2  1  0.94848400  0.51383700  0.74998100  1
  Gd  Gd3  1  0.05151600  0.48616300  0.25001900  1
  Ga  Ga0  1  0.62895900  0.23119500  0.72623800  1
  Ga  Ga1  1  0.23119500  0.62895900  0.22623800  1
  Ga  Ga2  1  0.37104100  0.76880500  0.27376200  1
  Ga  Ga3  1  0.76880500  0.37104100  0.77376200  1
  Si  Si0  1  0.76058500  0.47831100  0.33907600  1
  Si  Si1  1  0.23941500  0.52168900  0.66092400  1
  Si  Si2  1  0.19539300  0.13958500  0.49124100  1
  Si  Si3  1  0.83258900  0.29186300  0.57733700  1
  Si  Si4  1  0.70813700  0.16741100  0.92266300  1
  Si  Si5  1  0.86155600  0.81432700  0.79533700  1
  Si  Si6  1  0.16741100  0.70813700  0.42266300  1
  Si  Si7  1  0.80460700  0.86041500  0.50875900  1
  Si  Si8  1  0.47831100  0.76058500  0.83907600  1
  Si  Si9  1  0.13844400  0.18567300  0.20466300  1
  Si  Si10  1  0.52168900  0.23941500  0.16092400  1
  Si  Si11  1  0.81432700  0.86155600  0.29533700  1
  Si  Si12  1  0.86041500  0.80460700  0.00875900  1
  Si  Si13  1  0.29186300  0.83258900  0.07733700  1
  Si  Si14  1  0.18567300  0.13844400  0.70466300  1
  Si  Si15  1  0.13958500  0.19539300  0.99124100  1
  O  O0  1  0.65234500  0.92293900  0.07461400  1
  O  O1  1  0.34765500  0.07706100  0.92538600  1
  O  O2  1  0.56202100  0.25578000  0.03226700  1
  O  O3  1  0.08135700  0.26910900  0.08984600  1
  O  O4  1  0.26910900  0.08135700  0.58984600  1
  O  O5  1  0.58542500  0.56088700  0.33275300  1
  O  O6  1  0.61033900  0.76406500  0.77458200  1
  O  O7  1  0.73083800  0.04348300  0.20062900  1
  O  O8  1  0.91864300  0.73089100  0.91015400  1
  O  O9  1  0.96733400  0.37864000  0.92422900  1
  O  O10  1  0.42960600  0.70705200  0.15727600  1
  O  O11  1  0.56088700  0.58542500  0.83275300  1
  O  O12  1  0.05844800  0.13638800  0.55588800  1
  O  O13  1  0.95651700  0.26916200  0.29937100  1
  O  O14  1  0.74422000  0.43797900  0.46773300  1
  O  O15  1  0.20250500  0.24230500  0.20160900  1
  O  O16  1  0.62136000  0.03266600  0.57577100  1
  O  O17  1  0.26916200  0.95651700  0.79937100  1
  O  O18  1  0.76406500  0.61033900  0.27458200  1
  O  O19  1  0.73089100  0.91864300  0.41015400  1
  O  O20  1  0.04752900  0.67144700  0.27010400  1
  O  O21  1  0.03266600  0.62136000  0.07577100  1
  O  O22  1  0.16974400  0.81909900  0.12141100  1
  O  O23  1  0.70705200  0.42960600  0.65727600  1
  O  O24  1  0.41457500  0.43911300  0.66724700  1
  O  O25  1  0.18090100  0.83025600  0.37858900  1
  O  O26  1  0.67144700  0.04752900  0.77010400  1
  O  O27  1  0.75769500  0.79749500  0.29839100  1
  O  O28  1  0.83025600  0.18090100  0.87858900  1
  O  O29  1  0.43911300  0.41457500  0.16724700  1
  O  O30  1  0.07706100  0.34765500  0.42538600  1
  O  O31  1  0.92293900  0.65234500  0.57461400  1
  O  O32  1  0.23593500  0.38966100  0.72541800  1
  O  O33  1  0.57039400  0.29294800  0.84272400  1
  O  O34  1  0.38966100  0.23593500  0.22541800  1
  O  O35  1  0.94155200  0.86361200  0.44411200  1
  O  O36  1  0.25578000  0.56202100  0.53226700  1
  O  O37  1  0.32855300  0.95247100  0.22989600  1
  O  O38  1  0.37864000  0.96733400  0.42422900  1
  O  O39  1  0.29294800  0.57039400  0.34272400  1
  O  O40  1  0.81909900  0.16974400  0.62141100  1
  O  O41  1  0.79749500  0.75769500  0.79839100  1
  O  O42  1  0.13638800  0.05844800  0.05588800  1
  O  O43  1  0.86361200  0.94155200  0.94411200  1
  O  O44  1  0.43797900  0.74422000  0.96773300  1
  O  O45  1  0.04348300  0.73083800  0.70062900  1
  O  O46  1  0.95247100  0.32855300  0.72989600  1
  O  O47  1  0.24230500  0.20250500  0.70160900  1
loop_
_geom_bond_atom_site_label_1
_geom_bond_atom_site_label_2
_geom_bond_distance
_geom_bond_site_symmetry_2
Gd0 O16 2.274061 1_555
Gd0 O1 2.294369 1_555
Gd0 O47 2.301386 1_555
Gd0 O41 2.409711 1_545
Gd0 O32 2.416658 1_555
Gd0 O6 2.554267 1_545
Gd0 O26 2.744496 1_555
Gd1 O38 2.274061 1_555
Gd1 O0 2.294369 1_555
Gd1 O27 2.301386 1_555
Gd1 O15 2.409711 1_565
Gd1 O18 2.416658 1_555
Gd1 O34 2.554267 1_565
Gd1 O37 2.744496 1_555
Gd2 O9 2.274061 1_555
Gd2 O31 2.294369 1_555
Gd2 O41 2.301386 1_555
Gd2 O47 2.409711 1_655
Gd2 O6 2.416658 1_555
Gd2 O32 2.554267 1_655
Gd2 O46 2.744496 1_555
Gd3 O21 2.274061 1_555
Gd3 O30 2.294369 1_555
Gd3 O15 2.301386 1_555
Gd3 O27 2.409711 1_455
Gd3 O34 2.416658 1_555
Gd3 O18 2.554267 1_455
Gd3 O20 2.744496 1_555
Ga0 O24 1.825668 1_555
Ga0 O33 1.835977 1_555
Ga0 O40 1.845228 1_555
Ga0 O26 1.858530 1_555
Ga1 O29 1.825668 1_555
Ga1 O39 1.835977 1_555
Ga1 O22 1.845228 1_555
Ga1 O20 1.858530 1_555
Ga2 O5 1.825668 1_555
Ga2 O10 1.835977 1_555
Ga2 O25 1.845228 1_555
Ga2 O37 1.858530 1_555
Ga3 O11 1.825668 1_555
Ga3 O23 1.835977 1_555
Ga3 O28 1.845228 1_555
Ga3 O46 1.858530 1_555
O0 Si12 1.616597 1_555
O0 Rb1 3.025933 1_564
O0 Rb0 3.153445 1_555
O1 Si15 1.616597 1_555
O1 Rb0 3.025933 1_546
O1 Rb1 3.153445 1_555
O2 Si4 1.636344 1_554
O2 Si10 1.650111 1_555
O2 Rb4 3.185938 1_554
O3 Si9 1.647713 1_555
O3 Si15 1.685343 1_554
O3 Rb0 3.114082 1_455
O3 Rb1 3.120543 1_554
O4 Si14 1.647713 1_555
O4 Si2 1.685343 1_555
O4 Rb3 3.114082 1_545
O4 Rb2 3.120543 1_555
O5 Si0 1.628067 1_555
O5 Rb7 2.981255 1_555
O5 Rb5 3.354825 1_555
O6 Si8 1.618438 1_555
O7 Si11 1.644773 1_545
O7 Si10 1.661850 1_555
O7 Rb6 3.461031 1_555
O8 Si5 1.647713 1_555
O8 Si12 1.685343 1_556
O8 Rb1 3.114082 1_655
O8 Rb0 3.120543 1_556
O9 Si15 1.616099 1_655
O9 Rb0 2.965459 1_556
O9 Rb6 3.189503 1_556
O10 Si13 1.628840 1_555
O10 Rb0 2.991747 1_555
O11 Si8 1.628067 1_555
O11 Rb4 2.981255 1_555
O11 Rb6 3.354825 1_556
O12 Si3 1.637771 1_455
O12 Si2 1.675769 1_555
O12 Rb5 2.860320 1_545
O13 Si9 1.644773 1_655
O13 Si0 1.661850 1_555
O13 Rb7 3.461031 1_555
O14 Si3 1.636344 1_555
O14 Si0 1.650111 1_555
O14 Rb5 3.185938 1_555
O15 Si9 1.623066 1_555
O15 Rb1 2.998939 1_554
O16 Si7 1.616099 1_545
O16 Rb2 2.965459 1_555
O16 Rb7 3.189503 1_555
O17 Si14 1.644773 1_565
O17 Si8 1.661850 1_555
O17 Rb4 3.461031 1_555
O18 Si0 1.618438 1_555
O19 Si11 1.647713 1_555
O19 Si7 1.685343 1_555
O19 Rb2 3.114082 1_565
O19 Rb3 3.120543 1_555
O20 Si11 1.644483 1_455
O20 Rb2 3.374521 1_555
O21 Si12 1.616099 1_455
O21 Rb1 2.965459 1_554
O21 Rb4 3.189503 1_554
O22 Si13 1.637038 1_555
O22 Rb4 3.120976 1_554
O22 Rb6 3.411706 1_465
O23 Si3 1.628840 1_555
O23 Rb3 2.991747 1_555
O24 Si1 1.628067 1_555
O24 Rb5 2.981255 1_555
O24 Rb7 3.354825 1_555
O25 Si6 1.637038 1_555
O25 Rb5 3.120976 1_555
O25 Rb7 3.411706 1_465
O26 Si5 1.644483 1_545
O26 Rb1 3.374521 1_555
O27 Si11 1.623066 1_555
O27 Rb3 2.998939 1_555
O28 Si4 1.637038 1_555
O28 Rb6 3.120976 1_556
O28 Rb4 3.411706 1_645
O29 Si10 1.628067 1_555
O29 Rb6 2.981255 1_555
O29 Rb4 3.354825 1_554
O30 Si2 1.616597 1_555
O30 Rb3 3.025933 1_455
O30 Rb2 3.153445 1_555
O31 Si7 1.616597 1_555
O31 Rb2 3.025933 1_655
O31 Rb3 3.153445 1_555
O32 Si1 1.618438 1_555
O33 Si4 1.628840 1_555
O33 Rb1 2.991747 1_555
O34 Si10 1.618438 1_555
O35 Si6 1.637771 1_655
O35 Si7 1.675769 1_555
O35 Rb7 2.860320 1_565
O36 Si6 1.636344 1_555
O36 Si1 1.650111 1_555
O36 Rb7 3.185938 1_555
O37 Si9 1.644483 1_565
O37 Rb0 3.374521 1_555
O38 Si2 1.616099 1_565
O38 Rb3 2.965459 1_555
O38 Rb5 3.189503 1_555
O39 Si6 1.628840 1_555
O39 Rb2 2.991747 1_555
O40 Si3 1.637038 1_555
O40 Rb7 3.120976 1_555
O40 Rb5 3.411706 1_645
O41 Si5 1.623066 1_555
O41 Rb0 2.998939 1_556
O42 Si13 1.637771 1_545
O42 Si15 1.675769 1_554
O42 Rb6 2.860320 1_455
O43 Si4 1.637771 1_565
O43 Si12 1.675769 1_556
O43 Rb4 2.860320 1_655
O44 Si13 1.636344 1_556
O44 Si8 1.650111 1_555
O44 Rb6 3.185938 1_556
O45 Si5 1.644773 1_455
O45 Si1 1.661850 1_555
O45 Rb5 3.461031 1_555
O46 Si14 1.644483 1_655
O46 Rb3 3.374521 1_555
O47 Si14 1.623066 1_555
O47 Rb2 2.998939 1_555
