# generated using pymatgen
data_PH3CS3
_symmetry_space_group_name_H-M   'P 1'
_cell_length_a   8.44006100
_cell_length_b   8.60428500
_cell_length_c   8.90653766
_cell_angle_alpha   69.33399589
_cell_angle_beta   90.00000000
_cell_angle_gamma   90.00000000
_symmetry_Int_Tables_number   1
_chemical_formula_structural   PH3CS3
_chemical_formula_sum   'P4 H12 C4 S12'
_cell_volume   605.17972933
_cell_formula_units_Z   4
loop_
 _symmetry_equiv_pos_site_id
 _symmetry_equiv_pos_as_xyz
  1  'x, y, z'
loop_
 _atom_site_type_symbol
 _atom_site_label
 _atom_site_symmetry_multiplicity
 _atom_site_fract_x
 _atom_site_fract_y
 _atom_site_fract_z
 _atom_site_occupancy
  P  P0  1  0.57894800  0.05765400  0.34259600  1
  P  P1  1  0.92105200  0.55765400  0.34259600  1
  P  P2  1  0.42105200  0.94234600  0.65740400  1
  P  P3  1  0.07894800  0.44234600  0.65740400  1
  H  H0  1  0.28885000  0.68340000  0.28451700  1
  H  H1  1  0.21193100  0.97559100  0.28068300  1
  H  H2  1  0.78885000  0.81660000  0.71548300  1
  H  H3  1  0.21115000  0.18340000  0.28451700  1
  H  H4  1  0.66220400  0.35222300  0.89667500  1
  H  H5  1  0.83779600  0.85222300  0.89667500  1
  H  H6  1  0.33779600  0.64777700  0.10332500  1
  H  H7  1  0.28806900  0.47559100  0.28068300  1
  H  H8  1  0.78806900  0.02440900  0.71931700  1
  H  H9  1  0.71115000  0.31660000  0.71548300  1
  H  H10  1  0.16220400  0.14777700  0.10332500  1
  H  H11  1  0.71193100  0.52440900  0.71931700  1
  C  C0  1  0.26384100  0.60666800  0.21177100  1
  C  C1  1  0.76384100  0.89333200  0.78822900  1
  C  C2  1  0.73615900  0.39333200  0.78822900  1
  C  C3  1  0.23615900  0.10666800  0.21177100  1
  S  S0  1  0.70173200  0.58055300  0.27597000  1
  S  S1  1  0.79826800  0.08055300  0.27597000  1
  S  S2  1  0.43815100  0.13464400  0.13809500  1
  S  S3  1  0.93815100  0.36535600  0.86190500  1
  S  S4  1  0.20173200  0.91944700  0.72403100  1
  S  S5  1  0.50115300  0.18094200  0.50106100  1
  S  S6  1  0.56184900  0.86535600  0.86190500  1
  S  S7  1  0.99884700  0.68094200  0.50106100  1
  S  S8  1  0.49884700  0.81905800  0.49893900  1
  S  S9  1  0.00115300  0.31905800  0.49893900  1
  S  S10  1  0.06184900  0.63464400  0.13809500  1
  S  S11  1  0.29826800  0.41944700  0.72403100  1
loop_
_geom_bond_atom_site_label_1
_geom_bond_atom_site_label_2
_geom_bond_distance
_geom_bond_site_symmetry_2
P0 S1 1.932590 1_555
P0 S2 2.077693 1_555
P0 S8 2.143098 1_545
P0 S5 2.145968 1_555
P1 S0 1.932590 1_555
P1 S10 2.077693 1_655
P1 S9 2.143098 1_655
P1 S7 2.145968 1_555
P2 S4 1.932592 1_555
P2 S6 2.077693 1_555
P2 S5 2.143098 1_565
P2 S8 2.145968 1_555
P3 S11 1.932592 1_555
P3 S3 2.077693 1_455
P3 S7 2.143098 1_455
P3 S9 2.145968 1_555
C0 H7 1.096318 1_555
C0 H0 1.096439 1_555
C0 H6 1.098406 1_555
C0 S10 1.812036 1_555
C1 H8 1.096318 1_565
C1 H2 1.096439 1_555
C1 H5 1.098406 1_555
C1 S6 1.812036 1_555
C2 H11 1.096318 1_555
C2 H9 1.096439 1_555
C2 H4 1.098406 1_555
C2 S3 1.812036 1_555
C3 H1 1.096318 1_545
C3 H3 1.096439 1_555
C3 H10 1.098406 1_555
C3 S2 1.812036 1_555
