# generated using pymatgen
data_Ti2Cu9(B3O11)2
_symmetry_space_group_name_H-M   'P 1'
_cell_length_a   7.46506772
_cell_length_b   10.71041154
_cell_length_c   11.81833024
_cell_angle_alpha   103.86401482
_cell_angle_beta   98.63688788
_cell_angle_gamma   91.02969457
_symmetry_Int_Tables_number   1
_chemical_formula_structural   Ti2Cu9(B3O11)2
_chemical_formula_sum   'Ti4 Cu18 B12 O44'
_cell_volume   905.55653041
_cell_formula_units_Z   2
loop_
 _symmetry_equiv_pos_site_id
 _symmetry_equiv_pos_as_xyz
  1  'x, y, z'
loop_
 _atom_site_type_symbol
 _atom_site_label
 _atom_site_symmetry_multiplicity
 _atom_site_fract_x
 _atom_site_fract_y
 _atom_site_fract_z
 _atom_site_occupancy
  Ti  Ti0  1  0.88454600  0.91475700  0.06761400  1
  Ti  Ti1  1  0.61052300  0.09952700  0.95171800  1
  Ti  Ti2  1  0.38947700  0.90047300  0.04828200  1
  Ti  Ti3  1  0.11545400  0.08524300  0.93238500  1
  Cu  Cu0  1  0.94644700  0.21330300  0.69707000  1
  Cu  Cu1  1  0.43306100  0.21780200  0.71155100  1
  Cu  Cu2  1  0.07742300  0.76502200  0.87270400  1
  Cu  Cu3  1  0.86879900  0.50399900  0.61133900  1
  Cu  Cu4  1  0.18396100  0.35767900  0.98122500  1
  Cu  Cu5  1  0.38155500  0.50086600  0.61205900  1
  Cu  Cu6  1  0.05355300  0.78669700  0.30293000  1
  Cu  Cu7  1  0.24297800  0.00222100  0.51046100  1
  Cu  Cu8  1  0.13120100  0.49600100  0.38866100  1
  Cu  Cu9  1  0.56693900  0.78219800  0.28844900  1
  Cu  Cu10  1  0.32911100  0.63201800  0.01030300  1
  Cu  Cu11  1  0.92257700  0.23497800  0.12729600  1
  Cu  Cu12  1  0.67088900  0.36798200  0.98969700  1
  Cu  Cu13  1  0.75702200  0.99777900  0.48953900  1
  Cu  Cu14  1  0.36953300  0.23250500  0.20371500  1
  Cu  Cu15  1  0.63046700  0.76749500  0.79628500  1
  Cu  Cu16  1  0.81603900  0.64232100  0.01877500  1
  Cu  Cu17  1  0.61844500  0.49913400  0.38794100  1
  B  B0  1  0.18150900  0.25951500  0.48054300  1
  B  B1  1  0.48787800  0.93476200  0.69644000  1
  B  B2  1  0.03625700  0.07283000  0.31365000  1
  B  B3  1  0.32853800  0.74441300  0.53239600  1
  B  B4  1  0.56868100  0.49618200  0.79447900  1
  B  B5  1  0.43131900  0.50381800  0.20552100  1
  B  B6  1  0.94259600  0.50391300  0.20616100  1
  B  B7  1  0.96374300  0.92717000  0.68635000  1
  B  B8  1  0.67146200  0.25558700  0.46760400  1
  B  B9  1  0.51212200  0.06523800  0.30356000  1
  B  B10  1  0.81849100  0.74048500  0.51945700  1
  B  B11  1  0.05740400  0.49608700  0.79383900  1
  O  O0  1  0.93372200  0.05336100  0.20518700  1
  O  O1  1  0.90659300  0.80122500  0.63131900  1
  O  O2  1  0.07805700  0.97330100  0.36590000  1
  O  O3  1  0.44671000  0.39815100  0.72592100  1
  O  O4  1  0.80931400  0.60850200  0.49494100  1
  O  O5  1  0.65974800  0.24452000  0.08501600  1
  O  O6  1  0.19068600  0.39149800  0.50505900  1
  O  O7  1  0.95752000  0.39526000  0.25153200  1
  O  O8  1  0.25173100  0.18909800  0.55837000  1
  O  O9  1  0.83200300  0.76038700  0.91838700  1
  O  O10  1  0.36653900  0.05468800  0.96123100  1
  O  O11  1  0.92194300  0.02669900  0.63410000  1
  O  O12  1  0.44824600  0.80509800  0.63657800  1
  O  O13  1  0.23665300  0.81657600  0.46416100  1
  O  O14  1  0.74826900  0.81090200  0.44163000  1
  O  O15  1  0.42645300  0.77841800  0.13941300  1
  O  O16  1  0.55329000  0.60184900  0.27407900  1
  O  O17  1  0.04248000  0.60474000  0.74846800  1
  O  O18  1  0.87823100  0.07921200  0.98173800  1
  O  O19  1  0.12176900  0.92078800  0.01826200  1
  O  O20  1  0.84049100  0.50527000  0.10091800  1
  O  O21  1  0.05308000  0.60507200  0.28150400  1
  O  O22  1  0.94692000  0.39492800  0.71849600  1
  O  O23  1  0.58692600  0.96825400  0.34677800  1
  O  O24  1  0.91306200  0.78608000  0.14974800  1
  O  O25  1  0.58183400  0.58987700  0.73161800  1
  O  O26  1  0.76334700  0.18342400  0.53583900  1
  O  O27  1  0.60788400  0.95116100  0.79920200  1
  O  O28  1  0.68451300  0.38719800  0.49479200  1
  O  O29  1  0.09340700  0.19877500  0.36868100  1
  O  O30  1  0.16799700  0.23961300  0.08161300  1
  O  O31  1  0.41816600  0.41012300  0.26838200  1
  O  O32  1  0.65312900  0.50490000  0.90605400  1
  O  O33  1  0.34687100  0.49510000  0.09394600  1
  O  O34  1  0.55175400  0.19490200  0.36342200  1
  O  O35  1  0.31548700  0.61280200  0.50520800  1
  O  O36  1  0.39211600  0.04883900  0.20079800  1
  O  O37  1  0.06627800  0.94663900  0.79481300  1
  O  O38  1  0.57354700  0.22158200  0.86058700  1
  O  O39  1  0.34025200  0.75548000  0.91498400  1
  O  O40  1  0.63346100  0.94531200  0.03876900  1
  O  O41  1  0.08693800  0.21392000  0.85025200  1
  O  O42  1  0.15950900  0.49473000  0.89908200  1
  O  O43  1  0.41307400  0.03174600  0.65322200  1
loop_
_geom_bond_atom_site_label_1
_geom_bond_atom_site_label_2
_geom_bond_distance
_geom_bond_site_symmetry_2
Cu0 O22 1.900437 1_555
Cu0 O41 1.949648 1_655
Cu0 O11 1.953176 1_555
Cu0 O26 2.123995 1_555
Cu1 O3 1.897595 1_555
Cu1 O38 1.900887 1_555
Cu1 O43 1.941279 1_555
Cu1 O8 2.046097 1_555
Cu2 O17 1.957495 1_555
Cu2 O39 1.961361 1_555
Cu2 O9 1.989250 1_455
Cu2 O19 2.070237 1_556
Cu2 O37 2.340736 1_555
Cu3 O22 1.954546 1_555
Cu3 O28 1.974336 1_555
Cu3 O4 1.978532 1_555
Cu3 O17 1.988038 1_655
Cu4 O42 1.941579 1_555
Cu4 O41 1.942239 1_555
Cu4 O30 1.943418 1_556
Cu4 O33 1.982269 1_556
Cu5 O6 1.921042 1_555
Cu5 O3 1.946726 1_555
Cu5 O25 1.951776 1_555
Cu5 O35 1.958305 1_555
Cu6 O21 1.900437 1_555
Cu6 O24 1.949648 1_455
Cu6 O2 1.953176 1_555
Cu6 O13 2.123995 1_555
Cu7 O2 1.905645 1_545
Cu7 O43 1.909293 1_555
Cu7 O13 1.929398 1_545
Cu7 O8 1.942179 1_555
Cu8 O21 1.954546 1_555
Cu8 O35 1.974336 1_555
Cu8 O6 1.978532 1_555
Cu8 O7 1.988038 1_455
Cu9 O16 1.897595 1_555
Cu9 O15 1.900887 1_555
Cu9 O23 1.941279 1_555
Cu9 O14 2.046097 1_555
Cu10 O39 1.939733 1_554
Cu10 O15 1.947914 1_555
Cu10 O33 1.951295 1_555
Cu10 O42 1.999965 1_554
Cu11 O7 1.957495 1_555
Cu11 O5 1.961361 1_555
Cu11 O30 1.989250 1_655
Cu11 O18 2.070237 1_554
Cu11 O0 2.340736 1_555
Cu12 O5 1.939733 1_556
Cu12 O38 1.947914 1_555
Cu12 O32 1.951295 1_555
Cu12 O20 1.999965 1_556
Cu13 O11 1.905645 1_565
Cu13 O23 1.909293 1_555
Cu13 O26 1.929398 1_565
Cu13 O14 1.942179 1_555
Cu14 O31 1.878818 1_555
Cu14 O30 1.938127 1_555
Cu14 O36 1.969875 1_555
Cu14 O34 2.277717 1_555
Cu15 O25 1.878818 1_555
Cu15 O9 1.938127 1_555
Cu15 O27 1.969875 1_555
Cu15 O12 2.277717 1_555
Cu16 O20 1.941579 1_555
Cu16 O24 1.942239 1_555
Cu16 O9 1.943418 1_554
Cu16 O32 1.982269 1_554
Cu17 O4 1.921042 1_555
Cu17 O16 1.946726 1_555
Cu17 O31 1.951776 1_555
Cu17 O28 1.958305 1_555
B0 O6 1.371554 1_555
B0 O8 1.375301 1_555
B0 O29 1.383773 1_555
B1 O43 1.356883 1_565
B1 O27 1.368831 1_555
B1 O12 1.402926 1_555
B2 O0 1.357935 1_455
B2 O2 1.372800 1_545
B2 O29 1.378454 1_555
B3 O35 1.366869 1_555
B3 O13 1.367407 1_555
B3 O12 1.414976 1_555
B4 O32 1.354301 1_555
B4 O3 1.387195 1_555
B4 O25 1.394361 1_555
B5 O33 1.354301 1_555
B5 O16 1.387195 1_555
B5 O31 1.394361 1_555
B6 O20 1.361081 1_555
B6 O21 1.389948 1_655
B6 O7 1.392815 1_555
B7 O37 1.357935 1_655
B7 O11 1.372800 1_565
B7 O1 1.378454 1_555
B8 O28 1.366869 1_555
B8 O26 1.367407 1_555
B8 O34 1.414976 1_555
B9 O23 1.356883 1_545
B9 O36 1.368831 1_555
B9 O34 1.402926 1_555
B10 O4 1.371554 1_555
B10 O14 1.375301 1_555
B10 O1 1.383773 1_555
B11 O42 1.361081 1_555
B11 O22 1.389948 1_455
B11 O17 1.392815 1_555
O0 Ti0 1.904328 1_545
O5 Ti1 1.913531 1_554
O9 Ti0 2.090293 1_556
O10 Ti1 1.901724 1_555
O10 Ti3 1.902672 1_555
O10 Ti2 2.141842 1_546
O15 Ti2 1.882419 1_555
O18 Ti3 1.950534 1_655
O18 Ti1 2.001680 1_555
O18 Ti0 2.231602 1_546
O19 Ti0 1.950529 1_455
O19 Ti2 2.001680 1_555
O19 Ti3 2.231610 1_564
O24 Ti0 1.864547 1_555
O27 Ti1 2.095234 1_565
O30 Ti3 2.090301 1_554
O36 Ti2 2.095234 1_545
O37 Ti3 1.904320 1_565
O38 Ti1 1.882419 1_555
O39 Ti2 1.913531 1_556
O40 Ti2 1.901724 1_555
O40 Ti0 1.902672 1_555
O40 Ti1 2.141842 1_564
O41 Ti3 1.864539 1_555
