# generated using pymatgen
data_BaHf(PO4)2
_symmetry_space_group_name_H-M   'P 1'
_cell_length_a   5.10004225
_cell_length_b   5.10004225
_cell_length_c   7.95615949
_cell_angle_alpha   86.93926986
_cell_angle_beta   86.93926986
_cell_angle_gamma   63.22561008
_symmetry_Int_Tables_number   1
_chemical_formula_structural   BaHf(PO4)2
_chemical_formula_sum   'Ba1 Hf1 P2 O8'
_cell_volume   184.39269517
_cell_formula_units_Z   1
loop_
 _symmetry_equiv_pos_site_id
 _symmetry_equiv_pos_as_xyz
  1  'x, y, z'
loop_
 _atom_site_type_symbol
 _atom_site_label
 _atom_site_symmetry_multiplicity
 _atom_site_fract_x
 _atom_site_fract_y
 _atom_site_fract_z
 _atom_site_occupancy
  Ba  Ba0  1  0.00000000  0.00000000  0.50000000  1
  Hf  Hf0  1  0.00000000  0.00000000  0.00000000  1
  P  P0  1  0.36225500  0.36225500  0.77967000  1
  P  P1  1  0.63774500  0.63774500  0.22033000  1
  O  O0  1  0.30160300  0.77506500  0.18669600  1
  O  O1  1  0.22336400  0.22336400  0.91045900  1
  O  O2  1  0.31792400  0.31792400  0.59742400  1
  O  O3  1  0.68207600  0.68207600  0.40257600  1
  O  O4  1  0.77663600  0.77663600  0.08954100  1
  O  O5  1  0.77506500  0.30160300  0.18669600  1
  O  O6  1  0.22493500  0.69839700  0.81330400  1
  O  O7  1  0.69839700  0.22493500  0.81330400  1
loop_
_geom_bond_atom_site_label_1
_geom_bond_atom_site_label_2
_geom_bond_distance
_geom_bond_site_symmetry_2
Ba0 O6 2.863859 1_545
Ba0 O7 2.863859 1_455
Ba0 O5 2.863859 1_455
Ba0 O0 2.863859 1_545
Ba0 O3 2.914775 1_445
Ba0 O2 2.914775 1_555
Ba0 O3 3.177293 1_545
Ba0 O2 3.177293 1_455
Ba0 O3 3.177293 1_455
Ba0 O2 3.177293 1_545
Hf0 O1 2.024539 1_554
Hf0 O4 2.024539 1_445
Hf0 O5 2.088210 1_455
Hf0 O0 2.088210 1_545
Hf0 O6 2.088210 1_544
Hf0 O7 2.088210 1_454
O0 P1 1.564708 1_555
O1 P0 1.543036 1_555
O2 P0 1.523398 1_555
O3 P1 1.523398 1_555
O4 P1 1.543036 1_555
O5 P1 1.564708 1_555
O6 P0 1.564708 1_555
O7 P0 1.564708 1_555
