# generated using pymatgen
data_Sm10S14O
_symmetry_space_group_name_H-M   'P 1'
_cell_length_a   14.49911326
_cell_length_b   14.49911326
_cell_length_c   14.49911326
_cell_angle_alpha   117.89433710
_cell_angle_beta   117.89433710
_cell_angle_gamma   93.68752738
_symmetry_Int_Tables_number   1
_chemical_formula_structural   Sm10S14O
_chemical_formula_sum   'Sm40 S56 O4'
_cell_volume   2218.93386432
_cell_formula_units_Z   4
loop_
 _symmetry_equiv_pos_site_id
 _symmetry_equiv_pos_as_xyz
  1  'x, y, z'
loop_
 _atom_site_type_symbol
 _atom_site_label
 _atom_site_symmetry_multiplicity
 _atom_site_fract_x
 _atom_site_fract_y
 _atom_site_fract_z
 _atom_site_occupancy
  Sm  Sm0  1  0.36490600  0.86490600  0.22981300  1
  Sm  Sm1  1  0.94912300  0.29936000  0.90488900  1
  Sm  Sm2  1  0.06092100  0.93552900  0.86164500  1
  Sm  Sm3  1  0.44912300  0.54423300  0.64976300  1
  Sm  Sm4  1  0.30087700  0.70576700  0.85023700  1
  Sm  Sm5  1  0.88509400  0.61490600  0.00000000  1
  Sm  Sm6  1  0.95576700  0.05087700  0.35023700  1
  Sm  Sm7  1  0.67611600  0.05072400  0.36164500  1
  Sm  Sm8  1  0.29423300  0.14447100  0.59511100  1
  Sm  Sm9  1  0.86490600  0.63509400  0.50000000  1
  Sm  Sm10  1  0.63509400  0.13509400  0.77018700  1
  Sm  Sm11  1  0.17611600  0.81447100  0.62539300  1
  Sm  Sm12  1  0.39447100  0.04423300  0.09511100  1
  Sm  Sm13  1  0.68552900  0.32388400  0.37460700  1
  Sm  Sm14  1  0.56447100  0.43907900  0.13835500  1
  Sm  Sm15  1  0.18552900  0.81092100  0.36164500  1
  Sm  Sm16  1  0.80087700  0.95064000  0.59511100  1
  Sm  Sm17  1  0.11490600  0.11490600  0.72981300  1
  Sm  Sm18  1  0.44927600  0.82388400  0.63835500  1
  Sm  Sm19  1  0.57388400  0.43552900  0.87460700  1
  Sm  Sm20  1  0.80072400  0.93907900  0.87460700  1
  Sm  Sm21  1  0.68907900  0.31447100  0.63835500  1
  Sm  Sm22  1  0.85552900  0.45064000  0.14976300  1
  Sm  Sm23  1  0.35552900  0.20576700  0.40488900  1
  Sm  Sm24  1  0.04936000  0.64447100  0.85023700  1
  Sm  Sm25  1  0.56092100  0.69927600  0.12539300  1
  Sm  Sm26  1  0.13509400  0.36490600  0.50000000  1
  Sm  Sm27  1  0.18907900  0.55072400  0.37460700  1
  Sm  Sm28  1  0.45576700  0.10552900  0.90488900  1
  Sm  Sm29  1  0.79423300  0.19912300  0.14976300  1
  Sm  Sm30  1  0.89447100  0.79936000  0.35023700  1
  Sm  Sm31  1  0.30072400  0.42611600  0.86164500  1
  Sm  Sm32  1  0.07388400  0.19927600  0.13835500  1
  Sm  Sm33  1  0.54936000  0.69912300  0.40488900  1
  Sm  Sm34  1  0.06447100  0.92611600  0.12539300  1
  Sm  Sm35  1  0.61490600  0.88509400  0.00000000  1
  Sm  Sm36  1  0.38509400  0.38509400  0.27018700  1
  Sm  Sm37  1  0.20064000  0.55087700  0.09511100  1
  Sm  Sm38  1  0.94927600  0.31092100  0.62539300  1
  Sm  Sm39  1  0.70064000  0.60552900  0.64976300  1
  S  S0  1  0.98827700  0.64583500  0.39213600  1
  S  S1  1  0.49630100  0.65385900  0.89213600  1
  S  S2  1  0.26172300  0.15385900  0.15755800  1
  S  S3  1  0.76172300  0.60416500  0.10786400  1
  S  S4  1  0.77380500  0.41532000  0.28216800  1
  S  S5  1  0.25369900  0.59614100  0.60786400  1
  S  S6  1  0.81263000  0.79149400  0.66729100  1
  S  S7  1  0.34614100  0.23827700  0.84244200  1
  S  S8  1  0.97648300  0.87500000  0.60148300  1
  S  S9  1  0.27351700  0.37500000  0.39851700  1
  S  S10  1  0.63315100  0.91532000  0.64151500  1
  S  S11  1  0.97619500  0.83468000  0.21783200  1
  S  S12  1  0.12420300  0.14533900  0.33270900  1
  S  S13  1  0.61684900  0.75836300  0.78216800  1
  S  S14  1  0.11684900  0.33468000  0.85848500  1
  S  S15  1  0.62500000  0.02351700  0.89851700  1
  S  S16  1  0.85416500  0.51172300  0.60786400  1
  S  S17  1  0.66532000  0.52380500  0.78216800  1
  S  S18  1  0.58468000  0.86684900  0.35848500  1
  S  S19  1  0.99630100  0.10416500  0.84244200  1
  S  S20  1  0.47648300  0.87500000  0.10148300  1
  S  S21  1  0.62579700  0.10466100  0.16729100  1
  S  S22  1  0.89533900  0.06263000  0.52113600  1
  S  S23  1  0.40385900  0.01172300  0.65755800  1
  S  S24  1  0.24163700  0.02380500  0.85848500  1
  S  S25  1  0.48827700  0.09614100  0.34244200  1
  S  S26  1  0.62420300  0.29149400  0.97886400  1
  S  S27  1  0.00836300  0.36684900  0.28216800  1
  S  S28  1  0.12579700  0.95850600  0.52113600  1
  S  S29  1  0.35466100  0.37579700  0.66729100  1
  S  S30  1  0.13315100  0.49163700  0.71783200  1
  S  S31  1  0.04149400  0.56263000  0.16729100  1
  S  S32  1  0.90385900  0.24630100  0.39213600  1
  S  S33  1  0.47619500  0.25836300  0.14151500  1
  S  S34  1  0.75369900  0.14583500  0.65755800  1
  S  S35  1  0.20850600  0.87579700  0.02113600  1
  S  S36  1  0.77351700  0.37500000  0.89851700  1
  S  S37  1  0.27380500  0.99163700  0.35848500  1
  S  S38  1  0.43737000  0.60466100  0.47886400  1
  S  S39  1  0.70850600  0.68737000  0.33270900  1
  S  S40  1  0.74163700  0.88315100  0.21783200  1
  S  S41  1  0.54149400  0.37420300  0.47886400  1
  S  S42  1  0.62500000  0.52351700  0.39851700  1
  S  S43  1  0.12500000  0.22648300  0.60148300  1
  S  S44  1  0.35416500  0.74630100  0.34244200  1
  S  S45  1  0.50836300  0.22619500  0.64151500  1
  S  S46  1  0.39583500  0.50369900  0.15755800  1
  S  S47  1  0.39533900  0.87420300  0.83270900  1
  S  S48  1  0.89583500  0.73827700  0.89213600  1
  S  S49  1  0.84614100  0.00369900  0.10786400  1
  S  S50  1  0.12500000  0.72648300  0.10148300  1
  S  S51  1  0.31263000  0.64533900  0.02113600  1
  S  S52  1  0.93737000  0.45850600  0.83270900  1
  S  S53  1  0.85466100  0.18737000  0.97886400  1
  S  S54  1  0.08468000  0.72619500  0.71783200  1
  S  S55  1  0.16532000  0.38315100  0.14151500  1
  O  O0  1  0.00000000  0.00000000  0.00000000  1
  O  O1  1  0.50000000  0.50000000  0.00000000  1
  O  O2  1  0.75000000  0.25000000  0.50000000  1
  O  O3  1  0.25000000  0.75000000  0.50000000  1
loop_
_geom_bond_atom_site_label_1
_geom_bond_atom_site_label_2
_geom_bond_distance
_geom_bond_site_symmetry_2
S0 Sm11 2.760679 1_655
S0 Sm22 2.779986 1_555
S0 Sm30 2.838226 1_555
S0 Sm9 2.911957 1_555
S0 Sm27 3.365074 1_655
S1 Sm25 2.760687 1_556
S1 Sm3 2.779986 1_555
S1 Sm4 2.838232 1_555
S1 Sm35 2.911957 1_556
S1 Sm19 3.365067 1_555
S2 Sm32 2.760673 1_555
S2 Sm12 2.779993 1_555
S2 Sm23 2.838221 1_555
S2 Sm36 2.911960 1_555
S2 Sm2 3.365070 1_544
S3 Sm19 2.760679 1_554
S3 Sm30 2.779986 1_555
S3 Sm22 2.838226 1_555
S3 Sm5 2.911957 1_555
S3 Sm25 3.365074 1_555
S4 Sm9 2.830567 1_555
S4 Sm13 2.870820 1_555
S4 Sm22 2.884799 1_555
S4 Sm14 2.926361 1_555
S4 Sm29 2.935987 1_555
S5 Sm27 2.760687 1_555
S5 Sm4 2.779986 1_555
S5 Sm3 2.838232 1_555
S5 Sm26 2.911957 1_555
S5 Sm11 3.365067 1_555
S6 Sm20 2.856351 1_555
S6 Sm39 2.894977 1_555
S6 Sm9 2.897393 1_555
S6 Sm16 2.931214 1_555
S6 Sm2 3.049013 1_655
S6 Sm33 3.438805 1_555
S7 Sm31 2.760673 1_555
S7 Sm28 2.779993 1_555
S7 Sm8 2.838221 1_555
S7 Sm17 2.911960 1_555
S7 Sm14 3.365070 1_556
S8 Sm30 2.815668 1_555
S8 Sm16 2.815668 1_555
S8 Sm11 2.990160 1_655
S8 Sm2 2.990163 1_655
S8 Sm17 3.023487 1_665
S8 Sm9 3.023490 1_555
S9 Sm23 2.815655 1_555
S9 Sm3 2.815665 1_555
S9 Sm32 2.990163 1_555
S9 Sm27 2.990167 1_555
S9 Sm26 3.023490 1_555
S9 Sm36 3.023503 1_555
S10 Sm10 2.830560 1_565
S10 Sm18 2.870820 1_555
S10 Sm16 2.884813 1_555
S10 Sm20 2.926355 1_555
S10 Sm33 2.935997 1_555
S11 Sm5 2.830567 1_555
S11 Sm34 2.870820 1_655
S11 Sm30 2.884799 1_555
S11 Sm15 2.926361 1_655
S11 Sm6 2.935987 1_565
S12 Sm34 2.856355 1_545
S12 Sm6 2.894964 1_455
S12 Sm26 2.897393 1_555
S12 Sm23 2.931215 1_555
S12 Sm32 3.049013 1_555
S12 Sm8 3.438802 1_555
S13 Sm35 2.830575 1_556
S13 Sm20 2.870829 1_555
S13 Sm3 2.884816 1_555
S13 Sm18 2.926369 1_555
S13 Sm39 2.935983 1_555
S14 Sm17 2.830560 1_555
S14 Sm31 2.870820 1_555
S14 Sm1 2.884813 1_455
S14 Sm38 2.926355 1_455
S14 Sm37 2.935997 1_556
S15 Sm28 2.815655 1_555
S15 Sm29 2.815665 1_556
S15 Sm18 2.990163 1_545
S15 Sm20 2.990167 1_545
S15 Sm35 3.023490 1_546
S15 Sm10 3.023503 1_555
S16 Sm13 2.760679 1_555
S16 Sm24 2.779986 1_655
S16 Sm39 2.838226 1_555
S16 Sm9 2.911957 1_555
S16 Sm38 3.365074 1_555
S17 Sm5 2.830567 1_556
S17 Sm19 2.870820 1_555
S17 Sm39 2.884799 1_555
S17 Sm21 2.926361 1_555
S17 Sm3 2.935987 1_555
S18 Sm0 2.830560 1_555
S18 Sm7 2.870820 1_565
S18 Sm33 2.884813 1_555
S18 Sm25 2.926355 1_555
S18 Sm16 2.935997 1_555
S19 Sm2 2.760673 1_645
S19 Sm1 2.779986 1_555
S19 Sm16 2.838226 1_545
S19 Sm17 2.911944 1_655
S19 Sm32 3.365070 1_656
S20 Sm12 2.815655 1_565
S20 Sm4 2.815665 1_554
S20 Sm7 2.990163 1_565
S20 Sm25 2.990167 1_555
S20 Sm35 3.023490 1_555
S20 Sm0 3.023503 1_555
S21 Sm13 2.856355 1_555
S21 Sm29 2.894964 1_555
S21 Sm35 2.897393 1_545
S21 Sm12 2.931215 1_555
S21 Sm7 3.049013 1_555
S21 Sm28 3.438802 1_554
S22 Sm7 2.856361 1_555
S22 Sm16 2.894977 1_545
S22 Sm17 2.897399 1_655
S22 Sm6 2.931225 1_555
S22 Sm38 3.049011 1_555
S22 Sm30 3.438805 1_545
S23 Sm18 2.760673 1_545
S23 Sm8 2.779993 1_555
S23 Sm28 2.838221 1_555
S23 Sm10 2.911960 1_555
S23 Sm15 3.365070 1_545
S24 Sm17 2.830559 1_555
S24 Sm2 2.870833 1_545
S24 Sm28 2.884813 1_555
S24 Sm11 2.926354 1_545
S24 Sm12 2.936001 1_556
S25 Sm7 2.760673 1_555
S25 Sm23 2.779993 1_555
S25 Sm12 2.838221 1_555
S25 Sm0 2.911960 1_545
S25 Sm21 3.365070 1_555
S26 Sm14 2.856361 1_556
S26 Sm28 2.894968 1_555
S26 Sm10 2.897403 1_555
S26 Sm22 2.931214 1_556
S26 Sm19 3.049024 1_555
S26 Sm29 3.438799 1_556
S27 Sm26 2.830575 1_555
S27 Sm27 2.870829 1_555
S27 Sm29 2.884816 1_455
S27 Sm32 2.926369 1_555
S27 Sm22 2.935983 1_455
S28 Sm15 2.856361 1_555
S28 Sm8 2.894968 1_565
S28 Sm17 2.897403 1_565
S28 Sm30 2.931214 1_455
S28 Sm11 3.049024 1_555
S28 Sm6 3.438799 1_465
S29 Sm19 2.856355 1_555
S29 Sm3 2.894964 1_555
S29 Sm26 2.897393 1_555
S29 Sm8 2.931215 1_555
S29 Sm31 3.049013 1_555
S29 Sm23 3.438802 1_555
S30 Sm26 2.830575 1_555
S30 Sm38 2.870829 1_455
S30 Sm4 2.884816 1_555
S30 Sm31 2.926369 1_555
S30 Sm24 2.935983 1_555
S31 Sm27 2.856351 1_555
S31 Sm22 2.894977 1_455
S31 Sm5 2.897393 1_455
S31 Sm37 2.931214 1_555
S31 Sm15 3.049013 1_555
S31 Sm1 3.438805 1_454
S32 Sm38 2.760687 1_555
S32 Sm29 2.779986 1_555
S32 Sm6 2.838232 1_555
S32 Sm26 2.911957 1_655
S32 Sm13 3.365067 1_555
S33 Sm36 2.830559 1_555
S33 Sm14 2.870833 1_555
S33 Sm12 2.884813 1_555
S33 Sm13 2.926354 1_555
S33 Sm28 2.936001 1_554
S34 Sm21 2.760673 1_555
S34 Sm16 2.779986 1_545
S34 Sm1 2.838226 1_555
S34 Sm10 2.911944 1_555
S34 Sm7 3.365070 1_555
S35 Sm2 2.856361 1_554
S35 Sm12 2.894968 1_565
S35 Sm0 2.897403 1_555
S35 Sm24 2.931214 1_554
S35 Sm34 3.049024 1_555
S35 Sm4 3.438799 1_554
S36 Sm1 2.815668 1_555
S36 Sm22 2.815668 1_556
S36 Sm19 2.990160 1_555
S36 Sm21 2.990163 1_555
S36 Sm10 3.023487 1_555
S36 Sm5 3.023490 1_556
S37 Sm0 2.830559 1_555
S37 Sm15 2.870833 1_555
S37 Sm23 2.884813 1_565
S37 Sm34 2.926354 1_555
S37 Sm8 2.936001 1_565
S38 Sm18 2.856361 1_555
S38 Sm33 2.894977 1_555
S38 Sm36 2.897399 1_555
S38 Sm3 2.931225 1_555
S38 Sm27 3.049011 1_555
S38 Sm39 3.438805 1_555
S39 Sm25 2.856351 1_555
S39 Sm30 2.894977 1_555
S39 Sm9 2.897393 1_555
S39 Sm33 2.931214 1_555
S39 Sm14 3.049013 1_555
S39 Sm16 3.438805 1_555
S40 Sm35 2.830575 1_555
S40 Sm25 2.870829 1_555
S40 Sm6 2.884816 1_565
S40 Sm7 2.926369 1_565
S40 Sm30 2.935983 1_555
S41 Sm21 2.856361 1_555
S41 Sm23 2.894968 1_555
S41 Sm36 2.897403 1_555
S41 Sm39 2.931214 1_555
S41 Sm13 3.049024 1_555
S41 Sm3 3.438799 1_555
S42 Sm39 2.815668 1_555
S42 Sm33 2.815668 1_555
S42 Sm13 2.990160 1_555
S42 Sm14 2.990163 1_555
S42 Sm36 3.023487 1_555
S42 Sm9 3.023490 1_555
S43 Sm8 2.815655 1_555
S43 Sm6 2.815665 1_455
S43 Sm31 2.990163 1_555
S43 Sm38 2.990167 1_455
S43 Sm26 3.023490 1_555
S43 Sm17 3.023503 1_555
S44 Sm15 2.760673 1_555
S44 Sm33 2.779986 1_555
S44 Sm37 2.838226 1_555
S44 Sm0 2.911944 1_555
S44 Sm18 3.365070 1_555
S45 Sm10 2.830559 1_555
S45 Sm21 2.870833 1_555
S45 Sm8 2.884813 1_555
S45 Sm19 2.926354 1_555
S45 Sm23 2.936001 1_555
S46 Sm14 2.760673 1_555
S46 Sm37 2.779986 1_555
S46 Sm33 2.838226 1_555
S46 Sm36 2.911944 1_555
S46 Sm31 3.365070 1_554
S47 Sm11 2.856355 1_555
S47 Sm4 2.894964 1_555
S47 Sm35 2.897393 1_556
S47 Sm28 2.931215 1_565
S47 Sm18 3.049013 1_555
S47 Sm12 3.438802 1_566
S48 Sm34 2.760679 1_656
S48 Sm39 2.779986 1_555
S48 Sm24 2.838226 1_655
S48 Sm5 2.911957 1_556
S48 Sm20 3.365074 1_555
S49 Sm20 2.760687 1_544
S49 Sm6 2.779986 1_555
S49 Sm29 2.838232 1_555
S49 Sm35 2.911957 1_545
S49 Sm34 3.365067 1_645
S50 Sm24 2.815668 1_554
S50 Sm37 2.815668 1_555
S50 Sm34 2.990160 1_555
S50 Sm15 2.990163 1_555
S50 Sm0 3.023487 1_555
S50 Sm5 3.023490 1_455
S51 Sm31 2.856361 1_554
S51 Sm37 2.894977 1_555
S51 Sm0 2.897399 1_555
S51 Sm4 2.931225 1_554
S51 Sm25 3.049011 1_555
S51 Sm24 3.438805 1_554
S52 Sm38 2.856351 1_555
S52 Sm24 2.894977 1_655
S52 Sm5 2.897393 1_556
S52 Sm1 2.931214 1_555
S52 Sm21 3.049013 1_555
S52 Sm37 3.438805 1_656
S53 Sm32 2.856361 1_656
S53 Sm1 2.894977 1_555
S53 Sm10 2.897399 1_555
S53 Sm29 2.931225 1_556
S53 Sm20 3.049011 1_545
S53 Sm22 3.438805 1_556
S54 Sm9 2.830567 1_455
S54 Sm11 2.870820 1_555
S54 Sm24 2.884799 1_555
S54 Sm2 2.926361 1_555
S54 Sm4 2.935987 1_555
S55 Sm36 2.830560 1_555
S55 Sm32 2.870820 1_555
S55 Sm37 2.884813 1_555
S55 Sm27 2.926355 1_555
S55 Sm1 2.935997 1_454
O0 Sm32 2.384900 1_555
O0 Sm2 2.384900 1_544
O0 Sm20 2.384901 1_444
O0 Sm34 2.384912 1_545
O1 Sm31 2.384900 1_554
O1 Sm14 2.384900 1_555
O1 Sm25 2.384901 1_555
O1 Sm19 2.384912 1_554
O2 Sm7 2.384900 1_555
O2 Sm21 2.384900 1_555
O2 Sm38 2.384901 1_555
O2 Sm13 2.384912 1_555
O3 Sm15 2.384900 1_555
O3 Sm18 2.384900 1_555
O3 Sm27 2.384901 1_555
O3 Sm11 2.384912 1_555
