# generated using pymatgen
data_Sr3Co2Cl2O5
_symmetry_space_group_name_H-M   'P 1'
_cell_length_a   3.86816400
_cell_length_b   3.86816400
_cell_length_c   12.61704543
_cell_angle_alpha   98.81770473
_cell_angle_beta   98.81770473
_cell_angle_gamma   90.00000000
_symmetry_Int_Tables_number   1
_chemical_formula_structural   Sr3Co2Cl2O5
_chemical_formula_sum   'Sr3 Co2 Cl2 O5'
_cell_volume   184.29548637
_cell_formula_units_Z   1
loop_
 _symmetry_equiv_pos_site_id
 _symmetry_equiv_pos_as_xyz
  1  'x, y, z'
loop_
 _atom_site_type_symbol
 _atom_site_label
 _atom_site_symmetry_multiplicity
 _atom_site_fract_x
 _atom_site_fract_y
 _atom_site_fract_z
 _atom_site_occupancy
  Sr  Sr0  1  0.84584400  0.84584400  0.69168700  1
  Sr  Sr1  1  0.15376300  0.15376300  0.30752600  1
  Sr  Sr2  1  0.00125400  0.00125400  0.00250800  1
  Co  Co0  1  0.57443800  0.57443800  0.14887700  1
  Co  Co1  1  0.42342100  0.42342100  0.84684200  1
  Cl  Cl0  1  0.29574400  0.29574400  0.59148700  1
  Cl  Cl1  1  0.70342300  0.70342300  0.40684500  1
  O  O0  1  0.41366800  0.91366800  0.82733700  1
  O  O1  1  0.58712400  0.08712400  0.17424900  1
  O  O2  1  0.91366800  0.41366800  0.82733700  1
  O  O3  1  0.50061000  0.50061000  0.00121900  1
  O  O4  1  0.08712400  0.58712400  0.17424900  1
loop_
_geom_bond_atom_site_label_1
_geom_bond_atom_site_label_2
_geom_bond_distance
_geom_bond_site_symmetry_2
Co0 O3 1.818704 1_555
Co0 O4 1.959167 1_655
Co0 O1 1.959167 1_565
Co0 O1 1.959167 1_555
Co0 O4 1.959167 1_555
Co1 O3 1.901462 1_556
Co1 O0 1.948944 1_555
Co1 O2 1.948944 1_555
Co1 O2 1.948948 1_455
Co1 O0 1.948948 1_545
Cl0 Sr0 3.000751 1_555
Cl0 Sr0 3.000751 1_545
Cl0 Sr0 3.000751 1_455
Cl0 Sr0 3.000751 1_445
Cl0 Sr1 3.497548 1_555
Cl1 Sr1 2.996302 1_665
Cl1 Sr1 2.996304 1_655
Cl1 Sr1 2.996304 1_565
Cl1 Sr1 2.996307 1_555
Cl1 Sr0 3.508399 1_555
O0 Sr0 2.555824 1_455
O0 Sr0 2.555829 1_555
O0 Sr2 2.897555 1_566
O0 Sr2 2.897557 1_666
O1 Sr1 2.536814 1_555
O1 Sr1 2.536817 1_655
O1 Sr2 2.866235 1_555
O1 Sr2 2.866238 1_655
O2 Sr0 2.555824 1_545
O2 Sr0 2.555829 1_555
O2 Sr2 2.897555 1_656
O2 Sr2 2.897557 1_666
O3 Sr2 2.735248 1_665
O3 Sr2 2.735251 1_565
O3 Sr2 2.735251 1_655
O3 Sr2 2.735254 1_555
O4 Sr1 2.536814 1_555
O4 Sr1 2.536817 1_565
O4 Sr2 2.866235 1_555
O4 Sr2 2.866238 1_565
