# generated using pymatgen
data_Pr9(SbO)5
_symmetry_space_group_name_H-M   'P 1'
_cell_length_a   10.31684124
_cell_length_b   10.31684124
_cell_length_c   9.29697137
_cell_angle_alpha   90.00000000
_cell_angle_beta   90.00000000
_cell_angle_gamma   90.00000000
_symmetry_Int_Tables_number   1
_chemical_formula_structural   Pr9(SbO)5
_chemical_formula_sum   'Pr18 Sb10 O10'
_cell_volume   989.54372356
_cell_formula_units_Z   2
loop_
 _symmetry_equiv_pos_site_id
 _symmetry_equiv_pos_as_xyz
  1  'x, y, z'
loop_
 _atom_site_type_symbol
 _atom_site_label
 _atom_site_symmetry_multiplicity
 _atom_site_fract_x
 _atom_site_fract_y
 _atom_site_fract_z
 _atom_site_occupancy
  Pr  Pr0  1  0.72657883  0.91861723  0.00151087  1
  Pr  Pr1  1  0.58138277  0.22657883  0.00151087  1
  Pr  Pr2  1  0.00000000  0.50000000  0.33179242  1
  Pr  Pr3  1  0.77342117  0.58138277  0.99848913  1
  Pr  Pr4  1  0.22657883  0.41861723  0.99848913  1
  Pr  Pr5  1  0.20384992  0.89667309  0.34430954  1
  Pr  Pr6  1  0.27342117  0.08138277  0.00151087  1
  Pr  Pr7  1  0.89667309  0.79615008  0.65569046  1
  Pr  Pr8  1  0.91861723  0.27342117  0.99848913  1
  Pr  Pr9  1  0.29615008  0.60332691  0.65569046  1
  Pr  Pr10  1  0.41861723  0.77342117  0.00151087  1
  Pr  Pr11  1  0.10332691  0.20384992  0.65569046  1
  Pr  Pr12  1  0.79615008  0.10332691  0.34430954  1
  Pr  Pr13  1  0.50000000  0.00000000  0.66820758  1
  Pr  Pr14  1  0.08138277  0.72657883  0.99848913  1
  Pr  Pr15  1  0.39667309  0.29615008  0.34430954  1
  Pr  Pr16  1  0.70384992  0.39667309  0.65569046  1
  Pr  Pr17  1  0.60332691  0.70384992  0.34430954  1
  Sb  Sb0  1  0.50000000  0.00000000  0.31381150  1
  Sb  Sb1  1  0.19710259  0.90302294  0.70085515  1
  Sb  Sb2  1  0.40302294  0.30289741  0.70085515  1
  Sb  Sb3  1  0.00000000  0.50000000  0.68618850  1
  Sb  Sb4  1  0.69710259  0.40302294  0.29914485  1
  Sb  Sb5  1  0.09697706  0.19710259  0.29914485  1
  Sb  Sb6  1  0.59697706  0.69710259  0.70085515  1
  Sb  Sb7  1  0.30289741  0.59697706  0.29914485  1
  Sb  Sb8  1  0.80289741  0.09697706  0.70085515  1
  Sb  Sb9  1  0.90302294  0.80289741  0.29914485  1
  O  O0  1  0.50000000  0.00000000  0.93233223  1
  O  O1  1  0.72486211  0.37906322  0.91019647  1
  O  O2  1  0.62093678  0.72486211  0.08980353  1
  O  O3  1  0.37906322  0.27513789  0.08980353  1
  O  O4  1  0.12093678  0.22486211  0.91019647  1
  O  O5  1  0.27513789  0.62093678  0.91019647  1
  O  O6  1  0.00000000  0.50000000  0.06766777  1
  O  O7  1  0.22486211  0.87906322  0.08980353  1
  O  O8  1  0.87906322  0.77513789  0.91019647  1
  O  O9  1  0.77513789  0.12093678  0.08980353  1
loop_
_geom_bond_atom_site_label_1
_geom_bond_atom_site_label_2
_geom_bond_distance
_geom_bond_site_symmetry_2
Pr0 Sb8 3.437881 1_564
Pr0 Sb9 3.520764 1_555
Pr1 Sb2 3.437881 1_554
Pr1 Sb4 3.520764 1_555
Pr2 Sb3 3.294810 1_555
Pr2 Sb9 3.295208 1_455
Pr2 Sb4 3.295208 1_455
Pr2 Sb7 3.295208 1_555
Pr2 Sb5 3.295208 1_555
Pr3 Sb4 3.437881 1_556
Pr3 Sb6 3.520764 1_555
Pr4 Sb7 3.437881 1_556
Pr4 Sb2 3.520764 1_555
Pr5 Sb0 3.248358 1_565
Pr5 Sb9 3.277887 1_455
Pr5 Sb7 3.283360 1_555
Pr5 Sb1 3.316172 1_555
Pr5 Sb5 3.316446 1_565
Pr6 Sb1 3.437881 1_544
Pr6 Sb5 3.520764 1_555
Pr7 Sb3 3.248358 1_655
Pr7 Sb8 3.277887 1_565
Pr7 Sb6 3.283360 1_555
Pr7 Sb9 3.316172 1_555
Pr7 Sb1 3.316446 1_655
Pr8 Sb5 3.437881 1_656
Pr8 Sb8 3.520764 1_555
Pr9 Sb3 3.248358 1_555
Pr9 Sb6 3.277887 1_555
Pr9 Sb1 3.283360 1_555
Pr9 Sb7 3.316172 1_555
Pr9 Sb2 3.316446 1_555
Pr10 Sb6 3.437881 1_554
Pr10 Sb7 3.520764 1_555
Pr11 Sb3 3.248358 1_555
Pr11 Sb1 3.277887 1_545
Pr11 Sb2 3.283360 1_555
Pr11 Sb5 3.316172 1_555
Pr11 Sb8 3.316446 1_455
Pr12 Sb0 3.248358 1_555
Pr12 Sb5 3.277887 1_655
Pr12 Sb4 3.283360 1_555
Pr12 Sb8 3.316172 1_555
Pr12 Sb9 3.316446 1_545
Pr13 Sb0 3.294810 1_555
Pr13 Sb8 3.295208 1_555
Pr13 Sb1 3.295208 1_545
Pr13 Sb2 3.295208 1_555
Pr13 Sb6 3.295208 1_545
Pr14 Sb9 3.437881 1_456
Pr14 Sb1 3.520764 1_555
Pr15 Sb0 3.248358 1_555
Pr15 Sb7 3.277887 1_555
Pr15 Sb5 3.283360 1_555
Pr15 Sb2 3.316172 1_555
Pr15 Sb4 3.316446 1_555
Pr16 Sb3 3.248358 1_655
Pr16 Sb2 3.277887 1_555
Pr16 Sb8 3.283360 1_555
Pr16 Sb4 3.316172 1_555
Pr16 Sb6 3.316446 1_555
Pr17 Sb0 3.248358 1_565
Pr17 Sb4 3.277887 1_555
Pr17 Sb9 3.283360 1_555
Pr17 Sb6 3.316172 1_555
Pr17 Sb7 3.316446 1_555
O0 Pr13 2.455559 1_555
O0 Pr6 2.565709 1_556
O0 Pr10 2.565709 1_546
O0 Pr1 2.565709 1_556
O0 Pr0 2.565709 1_546
O1 Pr3 2.298172 1_555
O1 Pr1 2.320924 1_556
O1 Pr16 2.382980 1_555
O1 Pr8 2.420213 1_555
O2 Pr10 2.298172 1_555
O2 Pr3 2.320924 1_554
O2 Pr17 2.382980 1_555
O2 Pr0 2.420213 1_555
O3 Pr1 2.298172 1_555
O3 Pr4 2.320924 1_554
O3 Pr15 2.382980 1_555
O3 Pr6 2.420213 1_555
O4 Pr8 2.298172 1_455
O4 Pr6 2.320924 1_556
O4 Pr11 2.382980 1_555
O4 Pr4 2.420213 1_555
O5 Pr4 2.298172 1_555
O5 Pr10 2.320924 1_556
O5 Pr9 2.382980 1_555
O5 Pr14 2.420213 1_555
O6 Pr2 2.455559 1_555
O6 Pr4 2.565709 1_554
O6 Pr14 2.565709 1_554
O6 Pr3 2.565709 1_454
O6 Pr8 2.565709 1_454
O7 Pr6 2.298172 1_565
O7 Pr14 2.320924 1_554
O7 Pr5 2.382980 1_555
O7 Pr10 2.420213 1_555
O8 Pr14 2.298172 1_655
O8 Pr0 2.320924 1_556
O8 Pr7 2.382980 1_555
O8 Pr3 2.420213 1_555
O9 Pr0 2.298172 1_545
O9 Pr8 2.320924 1_554
O9 Pr12 2.382980 1_555
O9 Pr1 2.420213 1_555
