# generated using pymatgen
data_Sr2CuF6
_symmetry_space_group_name_H-M   'P 1'
_cell_length_a   5.71943357
_cell_length_b   5.71453139
_cell_length_c   8.69014629
_cell_angle_alpha   90.00000000
_cell_angle_beta   109.21269633
_cell_angle_gamma   90.00000000
_symmetry_Int_Tables_number   1
_chemical_formula_structural   Sr2CuF6
_chemical_formula_sum   'Sr4 Cu2 F12'
_cell_volume   268.20836389
_cell_formula_units_Z   2
loop_
 _symmetry_equiv_pos_site_id
 _symmetry_equiv_pos_as_xyz
  1  'x, y, z'
loop_
 _atom_site_type_symbol
 _atom_site_label
 _atom_site_symmetry_multiplicity
 _atom_site_fract_x
 _atom_site_fract_y
 _atom_site_fract_z
 _atom_site_occupancy
  Sr  Sr0  1  0.66164962  0.50000000  0.32330025  1
  Sr  Sr1  1  0.16164962  0.00000000  0.32330025  1
  Sr  Sr2  1  0.83835038  0.00000000  0.67669975  1
  Sr  Sr3  1  0.33835038  0.50000000  0.67669975  1
  Cu  Cu0  1  0.00000000  0.50000000  0.00000000  1
  Cu  Cu1  1  0.50000000  0.00000000  0.00000000  1
  F  F0  1  0.75238037  0.33246243  0.83912424  1
  F  F1  1  0.99383103  0.25000000  0.50000000  1
  F  F2  1  0.50616897  0.75000000  0.50000000  1
  F  F3  1  0.24762063  0.66753757  0.16087576  1
  F  F4  1  0.00616897  0.75000000  0.50000000  1
  F  F5  1  0.08674386  0.66753757  0.83912424  1
  F  F6  1  0.74761963  0.83246243  0.16087576  1
  F  F7  1  0.58674386  0.83246243  0.83912424  1
  F  F8  1  0.49383103  0.25000000  0.50000000  1
  F  F9  1  0.41325614  0.16753757  0.16087576  1
  F  F10  1  0.25238037  0.16753757  0.83912424  1
  F  F11  1  0.91325614  0.33246243  0.16087576  1
loop_
_geom_bond_atom_site_label_1
_geom_bond_atom_site_label_2
_geom_bond_distance
_geom_bond_site_symmetry_2
Cu0 F0 1.890435 1_454
Cu0 F11 1.890435 1_455
Cu0 F5 1.890435 1_554
Cu0 F3 1.890438 1_555
Cu1 F6 1.890435 1_545
Cu1 F10 1.890435 1_554
Cu1 F9 1.890435 1_555
Cu1 F7 1.890435 1_544
F0 Sr2 2.510050 1_555
F0 Sr3 2.513284 1_555
F1 Sr2 2.467466 1_555
F1 Sr0 2.467469 1_555
F1 Sr1 2.508025 1_655
F1 Sr3 2.508028 1_655
F2 Sr0 2.467466 1_555
F2 Sr2 2.467469 1_565
F2 Sr3 2.508025 1_555
F2 Sr1 2.508028 1_565
F3 Sr1 2.510052 1_565
F3 Sr0 2.513280 1_555
F4 Sr1 2.467466 1_565
F4 Sr3 2.467469 1_555
F4 Sr2 2.508025 1_465
F4 Sr0 2.508028 1_455
F5 Sr2 2.510048 1_465
F5 Sr3 2.513289 1_555
F6 Sr0 2.510050 1_555
F6 Sr1 2.513284 1_665
F7 Sr3 2.510048 1_555
F7 Sr2 2.513289 1_565
F8 Sr3 2.467466 1_555
F8 Sr1 2.467469 1_555
F8 Sr0 2.508025 1_555
F8 Sr2 2.508028 1_555
F9 Sr0 2.510048 1_555
F9 Sr1 2.513289 1_555
F10 Sr3 2.510050 1_555
F10 Sr2 2.513284 1_455
F11 Sr1 2.510048 1_655
F11 Sr0 2.513289 1_555
