# generated using pymatgen
data_CaMn4(SiO3)5
_symmetry_space_group_name_H-M   'P 1'
_cell_length_a   6.70790258
_cell_length_b   7.71127660
_cell_length_c   11.81953493
_cell_angle_alpha   105.44974463
_cell_angle_beta   92.41347184
_cell_angle_gamma   93.74366062
_symmetry_Int_Tables_number   1
_chemical_formula_structural   CaMn4(SiO3)5
_chemical_formula_sum   'Ca2 Mn8 Si10 O30'
_cell_volume   586.90654953
_cell_formula_units_Z   2
loop_
 _symmetry_equiv_pos_site_id
 _symmetry_equiv_pos_as_xyz
  1  'x, y, z'
loop_
 _atom_site_type_symbol
 _atom_site_label
 _atom_site_symmetry_multiplicity
 _atom_site_fract_x
 _atom_site_fract_y
 _atom_site_fract_z
 _atom_site_occupancy
  Ca  Ca0  1  0.63536155  0.04661077  0.69192500  1
  Ca  Ca1  1  0.36463845  0.95338923  0.30807500  1
  Mn  Mn0  1  0.03317215  0.11727748  0.14794471  1
  Mn  Mn1  1  0.12477946  0.31732976  0.44447230  1
  Mn  Mn2  1  0.80040709  0.30506491  0.97851700  1
  Mn  Mn3  1  0.19959291  0.69493509  0.02148300  1
  Mn  Mn4  1  0.81408789  0.49248086  0.27115938  1
  Mn  Mn5  1  0.96682785  0.88272252  0.85205529  1
  Mn  Mn6  1  0.87522054  0.68267024  0.55552770  1
  Mn  Mn7  1  0.18591211  0.50751914  0.72884062  1
  Si  Si0  1  0.29175738  0.53779404  0.26065414  1
  Si  Si1  1  0.49829840  0.22062344  0.12502958  1
  Si  Si2  1  0.84444152  0.92670678  0.34627031  1
  Si  Si3  1  0.15555848  0.07329322  0.65372969  1
  Si  Si4  1  0.75289377  0.74582735  0.08981694  1
  Si  Si5  1  0.50170160  0.77937656  0.87497042  1
  Si  Si6  1  0.24710623  0.25417265  0.91018306  1
  Si  Si7  1  0.63771983  0.27085241  0.47050536  1
  Si  Si8  1  0.70824262  0.46220596  0.73934586  1
  Si  Si9  1  0.36228017  0.72914759  0.52949464  1
  O  O0  1  0.30218080  0.94391948  0.56421727  1
  O  O1  1  0.88676506  0.75177014  0.38985270  1
  O  O2  1  0.10515889  0.39854266  0.26818900  1
  O  O3  1  0.25347137  0.67205537  0.18162601  1
  O  O4  1  0.26314400  0.79937901  0.86899120  1
  O  O5  1  0.30138113  0.13696684  0.77746188  1
  O  O6  1  0.63244921  0.31757371  0.61350036  1
  O  O7  1  0.96265792  0.95370478  0.67687005  1
  O  O8  1  0.11323494  0.24822986  0.61014730  1
  O  O9  1  0.41759568  0.25924399  0.41251520  1
  O  O10  1  0.05941167  0.15628849  0.95919116  1
  O  O11  1  0.69861887  0.86303316  0.22253812  1
  O  O12  1  0.80992396  0.40096159  0.43572259  1
  O  O13  1  0.89484111  0.60145734  0.73181100  1
  O  O14  1  0.03734208  0.04629522  0.32312995  1
  O  O15  1  0.94058833  0.84371151  0.04080884  1
  O  O16  1  0.19007604  0.59903841  0.56427741  1
  O  O17  1  0.58240432  0.74075601  0.58748480  1
  O  O18  1  0.80780737  0.55142432  0.10079100  1
  O  O19  1  0.44766831  0.25826108  0.99547886  1
  O  O20  1  0.55233169  0.74173892  0.00452114  1
  O  O21  1  0.19219263  0.44857568  0.89920900  1
  O  O22  1  0.51482103  0.57948740  0.77900188  1
  O  O23  1  0.74652863  0.32794463  0.81837399  1
  O  O24  1  0.69781920  0.05608052  0.43578273  1
  O  O25  1  0.65855984  0.92948755  0.85250332  1
  O  O26  1  0.36755079  0.68242629  0.38649964  1
  O  O27  1  0.48517897  0.42051260  0.22099812  1
  O  O28  1  0.73685600  0.20062099  0.13100880  1
  O  O29  1  0.34144016  0.07051245  0.14749668  1
loop_
_geom_bond_atom_site_label_1
_geom_bond_atom_site_label_2
_geom_bond_distance
_geom_bond_site_symmetry_2
Ca0 O25 2.312781 1_545
Ca0 O23 2.337449 1_555
Ca0 O17 2.348439 1_545
Ca0 O7 2.352744 1_545
Ca0 O6 2.502240 1_555
Ca0 O5 2.558491 1_555
Ca0 O0 2.597769 1_545
Ca1 O29 2.312781 1_565
Ca1 O3 2.337449 1_555
Ca1 O9 2.348439 1_565
Ca1 O14 2.352744 1_565
Ca1 O26 2.502240 1_555
Ca1 O11 2.558491 1_555
Ca1 O24 2.597769 1_565
Mn0 O29 2.122094 1_555
Mn0 O28 2.146102 1_455
Mn0 O15 2.186052 1_445
Mn0 O2 2.262822 1_555
Mn0 O14 2.277888 1_555
Mn0 O10 2.341468 1_554
Mn1 O9 2.070880 1_555
Mn1 O8 2.165129 1_555
Mn1 O14 2.222879 1_555
Mn1 O12 2.254381 1_455
Mn1 O16 2.258463 1_555
Mn1 O2 2.331036 1_555
Mn2 O23 1.968029 1_555
Mn2 O18 2.054024 1_556
Mn2 O10 2.130948 1_655
Mn2 O28 2.207319 1_556
Mn2 O19 2.395004 1_555
Mn3 O3 1.968029 1_555
Mn3 O21 2.054024 1_554
Mn3 O15 2.130948 1_455
Mn3 O4 2.207319 1_554
Mn3 O20 2.395004 1_555
Mn4 O2 2.124863 1_655
Mn4 O1 2.127024 1_555
Mn4 O18 2.178591 1_555
Mn4 O12 2.239519 1_555
Mn4 O27 2.254296 1_555
Mn4 O28 2.422155 1_555
Mn5 O25 2.122094 1_555
Mn5 O4 2.146102 1_655
Mn5 O10 2.186052 1_665
Mn5 O13 2.262822 1_555
Mn5 O7 2.277888 1_555
Mn5 O15 2.341468 1_556
Mn6 O17 2.070880 1_555
Mn6 O1 2.165129 1_555
Mn6 O7 2.222879 1_555
Mn6 O16 2.254381 1_655
Mn6 O12 2.258463 1_555
Mn6 O13 2.331036 1_555
Mn7 O13 2.124863 1_455
Mn7 O8 2.127024 1_555
Mn7 O21 2.178591 1_555
Mn7 O16 2.239519 1_555
Mn7 O22 2.254296 1_555
Mn7 O4 2.422155 1_555
O0 Si3 1.653897 1_565
O0 Si9 1.677148 1_555
O1 Si2 1.604256 1_555
O2 Si0 1.616332 1_555
O3 Si0 1.593774 1_555
O4 Si5 1.618026 1_555
O5 Si6 1.657083 1_555
O5 Si3 1.664600 1_555
O6 Si7 1.633976 1_555
O6 Si8 1.641111 1_555
O7 Si3 1.614904 1_665
O8 Si3 1.604256 1_555
O9 Si7 1.588359 1_555
O10 Si6 1.631171 1_555
O11 Si4 1.657083 1_555
O11 Si2 1.664600 1_555
O12 Si7 1.618141 1_555
O13 Si8 1.616332 1_555
O14 Si2 1.614904 1_445
O15 Si4 1.631171 1_555
O16 Si9 1.618141 1_555
O17 Si9 1.588359 1_555
O18 Si4 1.603583 1_555
O19 Si6 1.640317 1_555
O19 Si1 1.658341 1_556
O20 Si4 1.640317 1_555
O20 Si5 1.658341 1_554
O21 Si6 1.603583 1_555
O22 Si8 1.643045 1_555
O22 Si5 1.662797 1_555
O23 Si8 1.593774 1_555
O24 Si2 1.653897 1_545
O24 Si7 1.677148 1_555
O25 Si5 1.595554 1_555
O26 Si9 1.633976 1_555
O26 Si0 1.641111 1_555
O27 Si0 1.643045 1_555
O27 Si1 1.662797 1_555
O28 Si1 1.618026 1_555
O29 Si1 1.595554 1_555
