# generated using pymatgen
data_Ta2Bi4Br7O2
_symmetry_space_group_name_H-M   'P 1'
_cell_length_a   14.99370300
_cell_length_b   14.99370300
_cell_length_c   18.52691000
_cell_angle_alpha   90.00000000
_cell_angle_beta   90.00000000
_cell_angle_gamma   90.00000000
_symmetry_Int_Tables_number   1
_chemical_formula_structural   Ta2Bi4Br7O2
_chemical_formula_sum   'Ta16 Bi32 Br56 O16'
_cell_volume   4165.05556606
_cell_formula_units_Z   8
loop_
 _symmetry_equiv_pos_site_id
 _symmetry_equiv_pos_as_xyz
  1  'x, y, z'
loop_
 _atom_site_type_symbol
 _atom_site_label
 _atom_site_symmetry_multiplicity
 _atom_site_fract_x
 _atom_site_fract_y
 _atom_site_fract_z
 _atom_site_occupancy
  Ta  Ta0  1  0.14889200  0.38093700  0.50000000  1
  Ta  Ta1  1  0.00000000  0.50000000  0.13697500  1
  Ta  Ta2  1  0.50000000  0.00000000  0.36302500  1
  Ta  Ta3  1  0.50000000  0.00000000  0.13697500  1
  Ta  Ta4  1  0.88093700  0.64889200  0.00000000  1
  Ta  Ta5  1  0.00000000  0.50000000  0.63697500  1
  Ta  Ta6  1  0.61906300  0.14889200  0.50000000  1
  Ta  Ta7  1  0.38093700  0.85110800  0.50000000  1
  Ta  Ta8  1  0.50000000  0.00000000  0.86302500  1
  Ta  Ta9  1  0.35110800  0.88093700  0.00000000  1
  Ta  Ta10  1  0.00000000  0.50000000  0.86302500  1
  Ta  Ta11  1  0.50000000  0.00000000  0.63697500  1
  Ta  Ta12  1  0.11906300  0.35110800  0.00000000  1
  Ta  Ta13  1  0.00000000  0.50000000  0.36302500  1
  Ta  Ta14  1  0.85110800  0.61906300  0.50000000  1
  Ta  Ta15  1  0.64889200  0.11906300  0.00000000  1
  Bi  Bi0  1  0.90406300  0.88887400  0.33160800  1
  Bi  Bi1  1  0.00861300  0.85309400  0.81371400  1
  Bi  Bi2  1  0.38887400  0.40406300  0.83160800  1
  Bi  Bi3  1  0.11112600  0.90406300  0.33160800  1
  Bi  Bi4  1  0.00861300  0.85309400  0.18628600  1
  Bi  Bi5  1  0.49138700  0.35309400  0.31371400  1
  Bi  Bi6  1  0.64690600  0.49138700  0.31371400  1
  Bi  Bi7  1  0.11112600  0.90406300  0.66839200  1
  Bi  Bi8  1  0.99138700  0.14690600  0.18628600  1
  Bi  Bi9  1  0.85309400  0.99138700  0.18628600  1
  Bi  Bi10  1  0.50861300  0.64690600  0.31371400  1
  Bi  Bi11  1  0.09593700  0.11112600  0.66839200  1
  Bi  Bi12  1  0.90406300  0.88887400  0.66839200  1
  Bi  Bi13  1  0.85309400  0.99138700  0.81371400  1
  Bi  Bi14  1  0.38887400  0.40406300  0.16839200  1
  Bi  Bi15  1  0.40406300  0.61112600  0.16839200  1
  Bi  Bi16  1  0.14690600  0.00861300  0.81371400  1
  Bi  Bi17  1  0.88887400  0.09593700  0.33160800  1
  Bi  Bi18  1  0.64690600  0.49138700  0.68628600  1
  Bi  Bi19  1  0.14690600  0.00861300  0.18628600  1
  Bi  Bi20  1  0.40406300  0.61112600  0.83160800  1
  Bi  Bi21  1  0.61112600  0.59593700  0.16839200  1
  Bi  Bi22  1  0.59593700  0.38887400  0.83160800  1
  Bi  Bi23  1  0.61112600  0.59593700  0.83160800  1
  Bi  Bi24  1  0.59593700  0.38887400  0.16839200  1
  Bi  Bi25  1  0.50861300  0.64690600  0.68628600  1
  Bi  Bi26  1  0.35309400  0.50861300  0.31371400  1
  Bi  Bi27  1  0.09593700  0.11112600  0.33160800  1
  Bi  Bi28  1  0.49138700  0.35309400  0.68628600  1
  Bi  Bi29  1  0.99138700  0.14690600  0.81371400  1
  Bi  Bi30  1  0.88887400  0.09593700  0.66839200  1
  Bi  Bi31  1  0.35309400  0.50861300  0.68628600  1
  Br  Br0  1  0.61166000  0.87566700  0.85269700  1
  Br  Br1  1  0.87566700  0.38834000  0.14730300  1
  Br  Br2  1  0.24433700  0.95422600  0.50000000  1
  Br  Br3  1  0.58433900  0.08433900  0.75000000  1
  Br  Br4  1  0.37566700  0.11166000  0.35269700  1
  Br  Br5  1  0.01427400  0.75253400  0.00000000  1
  Br  Br6  1  0.45422600  0.74433700  0.00000000  1
  Br  Br7  1  0.62433300  0.88834000  0.64730300  1
  Br  Br8  1  0.41566100  0.91566100  0.75000000  1
  Br  Br9  1  0.25809800  0.80953900  0.10063100  1
  Br  Br10  1  0.74190200  0.19046100  0.10063100  1
  Br  Br11  1  0.25253400  0.51427400  0.50000000  1
  Br  Br12  1  0.54577400  0.25566300  0.00000000  1
  Br  Br13  1  0.04577400  0.24433700  0.50000000  1
  Br  Br14  1  0.61166000  0.87566700  0.14730300  1
  Br  Br15  1  0.69046100  0.24190200  0.60063100  1
  Br  Br16  1  0.75809800  0.69046100  0.39936900  1
  Br  Br17  1  0.24190200  0.30953900  0.60063100  1
  Br  Br18  1  0.74746600  0.48572600  0.50000000  1
  Br  Br19  1  0.11166000  0.62433300  0.64730300  1
  Br  Br20  1  0.88834000  0.37566700  0.35269700  1
  Br  Br21  1  0.30953900  0.75809800  0.39936900  1
  Br  Br22  1  0.11166000  0.62433300  0.35269700  1
  Br  Br23  1  0.25566300  0.45422600  0.00000000  1
  Br  Br24  1  0.74190200  0.19046100  0.89936900  1
  Br  Br25  1  0.91566100  0.58433900  0.75000000  1
  Br  Br26  1  0.88834000  0.37566700  0.64730300  1
  Br  Br27  1  0.80953900  0.74190200  0.89936900  1
  Br  Br28  1  0.98572600  0.24746600  0.00000000  1
  Br  Br29  1  0.19046100  0.25809800  0.89936900  1
  Br  Br30  1  0.41566100  0.91566100  0.25000000  1
  Br  Br31  1  0.75253400  0.98572600  0.00000000  1
  Br  Br32  1  0.58433900  0.08433900  0.25000000  1
  Br  Br33  1  0.91566100  0.58433900  0.25000000  1
  Br  Br34  1  0.24746600  0.01427400  0.00000000  1
  Br  Br35  1  0.25809800  0.80953900  0.89936900  1
  Br  Br36  1  0.37566700  0.11166000  0.64730300  1
  Br  Br37  1  0.08433900  0.41566100  0.25000000  1
  Br  Br38  1  0.62433300  0.88834000  0.35269700  1
  Br  Br39  1  0.74433700  0.54577400  0.00000000  1
  Br  Br40  1  0.19046100  0.25809800  0.10063100  1
  Br  Br41  1  0.75809800  0.69046100  0.60063100  1
  Br  Br42  1  0.87566700  0.38834000  0.85269700  1
  Br  Br43  1  0.48572600  0.25253400  0.50000000  1
  Br  Br44  1  0.12433300  0.61166000  0.14730300  1
  Br  Br45  1  0.69046100  0.24190200  0.39936900  1
  Br  Br46  1  0.95422600  0.75566300  0.50000000  1
  Br  Br47  1  0.80953900  0.74190200  0.10063100  1
  Br  Br48  1  0.38834000  0.12433300  0.14730300  1
  Br  Br49  1  0.30953900  0.75809800  0.60063100  1
  Br  Br50  1  0.08433900  0.41566100  0.75000000  1
  Br  Br51  1  0.24190200  0.30953900  0.39936900  1
  Br  Br52  1  0.38834000  0.12433300  0.85269700  1
  Br  Br53  1  0.12433300  0.61166000  0.85269700  1
  Br  Br54  1  0.51427400  0.74746600  0.50000000  1
  Br  Br55  1  0.75566300  0.04577400  0.50000000  1
  O  O0  1  0.06320800  0.42608000  0.92646800  1
  O  O1  1  0.93679200  0.57392000  0.92646800  1
  O  O2  1  0.43679200  0.92608000  0.42646800  1
  O  O3  1  0.93679200  0.57392000  0.07353200  1
  O  O4  1  0.92608000  0.56320800  0.57353200  1
  O  O5  1  0.07392000  0.43679200  0.42646800  1
  O  O6  1  0.56320800  0.07392000  0.57353200  1
  O  O7  1  0.43679200  0.92608000  0.57353200  1
  O  O8  1  0.92608000  0.56320800  0.42646800  1
  O  O9  1  0.56320800  0.07392000  0.42646800  1
  O  O10  1  0.42608000  0.93679200  0.92646800  1
  O  O11  1  0.42608000  0.93679200  0.07353200  1
  O  O12  1  0.07392000  0.43679200  0.57353200  1
  O  O13  1  0.57392000  0.06320800  0.07353200  1
  O  O14  1  0.57392000  0.06320800  0.92646800  1
  O  O15  1  0.06320800  0.42608000  0.07353200  1
loop_
_geom_bond_atom_site_label_1
_geom_bond_atom_site_label_2
_geom_bond_distance
_geom_bond_site_symmetry_2
Bi0 Bi17 3.112983 1_565
Bi0 Bi3 3.112983 1_655
Bi0 Bi4 3.161328 1_655
Bi0 Bi9 3.193022 1_555
Bi1 Bi16 3.120388 1_565
Bi1 Bi13 3.120388 1_455
Bi1 Bi12 3.161328 1_455
Bi1 Bi7 3.193022 1_555
Bi2 Bi20 3.112983 1_555
Bi2 Bi22 3.112983 1_555
Bi2 Bi31 3.161328 1_555
Bi2 Bi28 3.193022 1_555
Bi3 Bi4 3.193022 1_555
Bi4 Bi9 3.120388 1_455
Bi5 Bi6 3.120388 1_555
Bi8 Bi9 3.120388 1_545
Bi10 Bi26 3.120388 1_555
Bi10 Bi6 3.120388 1_555
Bi10 Bi15 3.161328 1_555
Bi10 Bi21 3.193022 1_555
Bi11 Bi30 3.112983 1_455
Bi11 Bi7 3.112983 1_545
Bi11 Bi29 3.161328 1_455
Bi11 Bi16 3.193022 1_555
Bi12 Bi30 3.112983 1_565
Bi12 Bi7 3.112983 1_655
Bi12 Bi13 3.193022 1_555
Bi13 Bi29 3.120388 1_565
Bi13 Bi30 3.161328 1_565
Bi14 Bi15 3.112983 1_555
Bi14 Bi24 3.112983 1_555
Bi14 Bi26 3.161328 1_555
Bi14 Bi5 3.193022 1_555
Bi15 Bi21 3.112983 1_555
Bi15 Bi26 3.193022 1_555
Bi16 Bi29 3.120388 1_455
Bi16 Bi7 3.161328 1_545
Bi17 Bi27 3.112983 1_655
Bi17 Bi9 3.161328 1_545
Bi17 Bi8 3.193022 1_555
Bi18 Bi25 3.120388 1_555
Bi18 Bi28 3.120388 1_555
Bi18 Bi23 3.161328 1_555
Bi18 Bi22 3.193022 1_555
Bi19 Bi4 3.120388 1_545
Bi19 Bi8 3.120388 1_455
Bi19 Bi3 3.161328 1_545
Bi19 Bi27 3.193022 1_555
Bi20 Bi23 3.112983 1_555
Bi20 Bi25 3.161328 1_555
Bi20 Bi31 3.193022 1_555
Bi21 Bi24 3.112983 1_555
Bi21 Bi6 3.161328 1_555
Bi22 Bi23 3.112983 1_555
Bi22 Bi28 3.161328 1_555
Bi23 Bi25 3.193022 1_555
Bi24 Bi5 3.161328 1_555
Bi24 Bi6 3.193022 1_555
Bi25 Bi31 3.120388 1_555
Bi26 Bi5 3.120388 1_555
Bi27 Bi3 3.112983 1_545
Bi27 Bi8 3.161328 1_455
Bi28 Bi31 3.120388 1_555
Bi29 Bi30 3.193022 1_555
Br0 Ta8 2.512934 1_565
Br1 Ta1 2.512934 1_655
Br2 Ta7 2.566197 1_555
Br3 Ta8 2.753733 1_555
Br3 Ta11 2.753733 1_555
Br4 Ta2 2.512934 1_555
Br5 Ta4 2.532135 1_455
Br6 Ta9 2.566197 1_555
Br7 Ta11 2.512934 1_565
Br8 Ta8 2.753733 1_565
Br8 Ta11 2.753733 1_565
Br9 Ta9 2.562565 1_555
Br10 Ta15 2.562565 1_555
Br11 Ta0 2.532135 1_555
Br12 Ta15 2.566197 1_555
Br13 Ta0 2.566197 1_555
Br14 Ta3 2.512934 1_565
Br15 Ta6 2.562565 1_555
Br16 Ta14 2.562565 1_555
Br17 Ta0 2.562565 1_555
Br18 Ta14 2.532135 1_555
Br19 Ta5 2.512934 1_555
Br20 Ta13 2.512934 1_655
Br21 Ta7 2.562565 1_555
Br22 Ta13 2.512934 1_555
Br23 Ta12 2.566197 1_555
Br24 Ta15 2.562565 1_556
Br25 Ta10 2.753733 1_655
Br25 Ta5 2.753733 1_655
Br26 Ta5 2.512934 1_655
Br27 Ta4 2.562565 1_556
Br28 Ta12 2.532135 1_655
Br29 Ta12 2.562565 1_556
Br30 Ta2 2.753733 1_565
Br30 Ta3 2.753733 1_565
Br31 Ta15 2.532135 1_565
Br32 Ta2 2.753733 1_555
Br32 Ta3 2.753733 1_555
Br33 Ta1 2.753733 1_655
Br33 Ta13 2.753733 1_655
Br34 Ta9 2.532135 1_545
Br35 Ta9 2.562565 1_556
Br36 Ta11 2.512934 1_555
Br37 Ta13 2.753733 1_555
Br37 Ta1 2.753733 1_555
Br38 Ta2 2.512934 1_565
Br39 Ta4 2.566197 1_555
Br40 Ta12 2.562565 1_555
Br41 Ta14 2.562565 1_555
Br42 Ta10 2.512934 1_655
Br43 Ta6 2.532135 1_555
Br44 Ta1 2.512934 1_555
Br45 Ta6 2.562565 1_555
Br46 Ta14 2.566197 1_555
Br47 Ta4 2.562565 1_555
Br48 Ta3 2.512934 1_555
Br49 Ta7 2.562565 1_555
Br50 Ta10 2.753733 1_555
Br50 Ta5 2.753733 1_555
Br51 Ta0 2.562565 1_555
Br52 Ta8 2.512934 1_555
Br53 Ta10 2.512934 1_555
Br54 Ta7 2.532135 1_555
Br55 Ta6 2.566197 1_555
O0 Ta10 1.873007 1_555
O0 Ta12 1.954712 1_556
O1 Ta10 1.873007 1_655
O1 Ta4 1.954712 1_556
O2 Ta2 1.873007 1_565
O2 Ta7 1.954712 1_555
O3 Ta1 1.873007 1_655
O3 Ta4 1.954712 1_555
O4 Ta5 1.873007 1_655
O4 Ta14 1.954712 1_555
O5 Ta13 1.873007 1_555
O5 Ta0 1.954712 1_555
O6 Ta11 1.873007 1_555
O6 Ta6 1.954712 1_555
O7 Ta11 1.873007 1_565
O7 Ta7 1.954712 1_555
O8 Ta13 1.873007 1_655
O8 Ta14 1.954712 1_555
O9 Ta2 1.873007 1_555
O9 Ta6 1.954712 1_555
O10 Ta8 1.873007 1_565
O10 Ta9 1.954712 1_556
O11 Ta3 1.873007 1_565
O11 Ta9 1.954712 1_555
O12 Ta5 1.873007 1_555
O12 Ta0 1.954712 1_555
O13 Ta3 1.873007 1_555
O13 Ta15 1.954712 1_555
O14 Ta8 1.873007 1_555
O14 Ta15 1.954712 1_556
O15 Ta1 1.873007 1_555
O15 Ta12 1.954712 1_555
