# generated using pymatgen
data_Pr2Mo4O15
_symmetry_space_group_name_H-M   'P 1'
_cell_length_a   7.52474100
_cell_length_b   7.67424380
_cell_length_c   12.00665424
_cell_angle_alpha   88.69952555
_cell_angle_beta   83.89974066
_cell_angle_gamma   84.42924846
_symmetry_Int_Tables_number   1
_chemical_formula_structural   Pr2Mo4O15
_chemical_formula_sum   'Pr4 Mo8 O30'
_cell_volume   686.10878199
_cell_formula_units_Z   2
loop_
 _symmetry_equiv_pos_site_id
 _symmetry_equiv_pos_as_xyz
  1  'x, y, z'
loop_
 _atom_site_type_symbol
 _atom_site_label
 _atom_site_symmetry_multiplicity
 _atom_site_fract_x
 _atom_site_fract_y
 _atom_site_fract_z
 _atom_site_occupancy
  Pr  Pr0  1  0.24345900  0.41019300  0.22236800  1
  Pr  Pr1  1  0.75654100  0.58980700  0.77763200  1
  Pr  Pr2  1  0.31985000  0.91042300  0.77710000  1
  Pr  Pr3  1  0.68015000  0.08957700  0.22290000  1
  Mo  Mo0  1  0.56336700  0.74986600  0.47448500  1
  Mo  Mo1  1  0.09589700  0.66796300  0.53222400  1
  Mo  Mo2  1  0.77228400  0.07501300  0.87094400  1
  Mo  Mo3  1  0.90410300  0.33203700  0.46777600  1
  Mo  Mo4  1  0.22771600  0.92498700  0.12905600  1
  Mo  Mo5  1  0.72626200  0.57185500  0.12783700  1
  Mo  Mo6  1  0.43663300  0.25013400  0.52551500  1
  Mo  Mo7  1  0.27373800  0.42814500  0.87216300  1
  O  O0  1  0.72298900  0.59654500  0.98047100  1
  O  O1  1  0.37780500  0.05188000  0.59498100  1
  O  O2  1  0.99627500  0.00188200  0.15308100  1
  O  O3  1  0.03448100  0.17137600  0.53106300  1
  O  O4  1  0.33234100  0.71287000  0.44724200  1
  O  O5  1  0.94661800  0.49184800  0.15729500  1
  O  O6  1  0.00372500  0.99811800  0.84691900  1
  O  O7  1  0.70771600  0.09952600  0.01698000  1
  O  O8  1  0.35341500  0.09163600  0.18494200  1
  O  O9  1  0.64658500  0.90836400  0.81505800  1
  O  O10  1  0.41618700  0.26064000  0.37758300  1
  O  O11  1  0.13284400  0.76534500  0.66102200  1
  O  O12  1  0.73462600  0.28518500  0.80470300  1
  O  O13  1  0.29700000  0.42802800  0.58723300  1
  O  O14  1  0.66765900  0.28713000  0.55275800  1
  O  O15  1  0.62219500  0.94812000  0.40501900  1
  O  O16  1  0.05338200  0.50815200  0.84270500  1
  O  O17  1  0.26537400  0.71481500  0.19529700  1
  O  O18  1  0.57326000  0.40729700  0.17973400  1
  O  O19  1  0.27701100  0.40345500  0.01952900  1
  O  O20  1  0.66258000  0.78327800  0.18666900  1
  O  O21  1  0.29228400  0.90047400  0.98302000  1
  O  O22  1  0.70300000  0.57197200  0.41276700  1
  O  O23  1  0.86715600  0.23465500  0.33897800  1
  O  O24  1  0.33742000  0.21672200  0.81333100  1
  O  O25  1  0.91714100  0.52081300  0.59662500  1
  O  O26  1  0.58381300  0.73936000  0.62241700  1
  O  O27  1  0.42674000  0.59270300  0.82026600  1
  O  O28  1  0.08285900  0.47918700  0.40337500  1
  O  O29  1  0.96551900  0.82862400  0.46893700  1
loop_
_geom_bond_atom_site_label_1
_geom_bond_atom_site_label_2
_geom_bond_distance
_geom_bond_site_symmetry_2
Mo0 O22 1.766018 1_555
Mo0 O15 1.789161 1_555
Mo0 O26 1.798365 1_555
Mo0 O4 1.852179 1_555
Mo1 O29 1.714968 1_455
Mo1 O11 1.792046 1_555
Mo1 O25 1.927856 1_455
Mo1 O4 2.010624 1_555
Mo1 O28 2.159474 1_555
Mo1 O13 2.394337 1_555
Mo2 O7 1.778212 1_556
Mo2 O6 1.779272 1_645
Mo2 O12 1.793117 1_555
Mo2 O9 1.840972 1_545
Mo3 O3 1.714968 1_655
Mo3 O23 1.792046 1_555
Mo3 O28 1.927856 1_655
Mo3 O14 2.010624 1_555
Mo3 O25 2.159474 1_555
Mo3 O22 2.394337 1_555
Mo4 O21 1.778212 1_554
Mo4 O2 1.779272 1_465
Mo4 O17 1.793117 1_555
Mo4 O8 1.840972 1_565
Mo5 O0 1.777730 1_554
Mo5 O5 1.780051 1_555
Mo5 O20 1.786131 1_555
Mo5 O18 1.844630 1_555
Mo6 O13 1.766018 1_555
Mo6 O1 1.789161 1_555
Mo6 O10 1.798365 1_555
Mo6 O14 1.852179 1_555
Mo7 O19 1.777730 1_556
Mo7 O16 1.780051 1_555
Mo7 O24 1.786131 1_555
Mo7 O27 1.844630 1_555
O0 Pr1 2.422844 1_555
O1 Pr2 2.435476 1_545
O2 Pr3 2.470855 1_555
O5 Pr0 2.463587 1_655
O6 Pr2 2.470855 1_555
O7 Pr3 2.459101 1_555
O8 Pr0 2.537935 1_555
O8 Pr3 2.546160 1_555
O9 Pr1 2.537935 1_555
O9 Pr2 2.546160 1_555
O10 Pr0 2.570544 1_555
O10 Pr3 2.817493 1_555
O11 Pr2 2.439993 1_555
O12 Pr1 2.372098 1_555
O15 Pr3 2.435476 1_565
O16 Pr1 2.463587 1_455
O17 Pr0 2.372098 1_555
O18 Pr0 2.478106 1_555
O18 Pr3 2.551694 1_555
O19 Pr0 2.422844 1_555
O20 Pr3 2.418899 1_565
O21 Pr2 2.459101 1_555
O23 Pr3 2.439993 1_555
O24 Pr2 2.418899 1_545
O25 Pr1 2.415314 1_555
O26 Pr1 2.570544 1_555
O26 Pr2 2.817493 1_555
O27 Pr1 2.478106 1_555
O27 Pr2 2.551694 1_555
O28 Pr0 2.415314 1_555
