# generated using pymatgen
data_RbNa3SnO4
_symmetry_space_group_name_H-M   'P 1'
_cell_length_a   11.73409838
_cell_length_b   11.73409838
_cell_length_c   11.73409838
_cell_angle_alpha   114.32771289
_cell_angle_beta   114.32771289
_cell_angle_gamma   100.14207942
_symmetry_Int_Tables_number   1
_chemical_formula_structural   RbNa3SnO4
_chemical_formula_sum   'Rb8 Na24 Sn8 O32'
_cell_volume   1219.59207180
_cell_formula_units_Z   8
loop_
 _symmetry_equiv_pos_site_id
 _symmetry_equiv_pos_as_xyz
  1  'x, y, z'
loop_
 _atom_site_type_symbol
 _atom_site_label
 _atom_site_symmetry_multiplicity
 _atom_site_fract_x
 _atom_site_fract_y
 _atom_site_fract_z
 _atom_site_occupancy
  Rb  Rb0  1  0.94596920  0.93921591  0.46667851  1
  Rb  Rb1  1  0.22929069  0.19596920  0.50675329  1
  Rb  Rb2  1  0.47253740  0.47929069  0.53332149  1
  Rb  Rb3  1  0.06078409  0.52746260  0.00675329  1
  Rb  Rb4  1  0.80403080  0.31078409  0.03332149  1
  Rb  Rb5  1  0.52070931  0.05403080  0.99324671  1
  Rb  Rb6  1  0.27746260  0.77070931  0.96667851  1
  Rb  Rb7  1  0.68921591  0.72253740  0.49324671  1
  Na  Na0  1  0.02847158  0.65812539  0.30828854  1
  Na  Na1  1  0.66789511  0.80161908  0.85968965  1
  Na  Na2  1  0.55820546  0.91789511  0.36627603  1
  Na  Na3  1  0.40812539  0.59983685  0.12965281  1
  Na  Na4  1  0.80807057  0.44179454  0.35968965  1
  Na  Na5  1  0.83829644  0.15953082  0.36222358  1
  Na  Na6  1  0.40016315  0.52981697  0.80828854  1
  Na  Na7  1  0.91170356  0.09046918  0.13777642  1
  Na  Na8  1  0.27981697  0.97152842  0.62965281  1
  Na  Na9  1  0.19179454  0.33210489  0.13372397  1
  Na  Na10  1  0.08210489  0.44838092  0.64031035  1
  Na  Na11  1  0.84046918  0.20269276  0.67876562  1
  Na  Na12  1  0.90953082  0.04730724  0.82123438  1
  Na  Na13  1  0.79730724  0.47607286  0.63777642  1
  Na  Na14  1  0.94192943  0.80820546  0.14031035  1
  Na  Na15  1  0.95269276  0.77392714  0.86222358  1
  Na  Na16  1  0.47018303  0.27847158  0.87034719  1
  Na  Na17  1  0.19838092  0.05807057  0.86627603  1
  Na  Na18  1  0.55161908  0.19192943  0.63372397  1
  Na  Na19  1  0.72152842  0.59187461  0.19171146  1
  Na  Na20  1  0.34187461  0.65016315  0.37034719  1
  Na  Na21  1  0.34983685  0.72018303  0.69171146  1
  Na  Na22  1  0.52392714  0.16170356  0.32123438  1
  Na  Na23  1  0.22607286  0.08829644  0.17876562  1
  Sn  Sn0  1  0.64250248  0.85529400  0.13891628  1
  Sn  Sn1  1  0.25358620  0.89250248  0.28720948  1
  Sn  Sn2  1  0.71637772  0.50358620  0.86108372  1
  Sn  Sn3  1  0.14470600  0.28362228  0.78720948  1
  Sn  Sn4  1  0.10749752  0.39470600  0.36108372  1
  Sn  Sn5  1  0.60529400  0.96637772  0.71279052  1
  Sn  Sn6  1  0.03362228  0.74641380  0.63891628  1
  Sn  Sn7  1  0.49641380  0.35749752  0.21279052  1
  O  O0  1  0.83111866  0.94176080  0.19070650  1
  O  O1  1  0.60126389  0.37220043  0.12061161  1
  O  O2  1  0.23713286  0.16129517  0.74630421  1
  O  O3  1  0.33500905  0.75917136  0.24630421  1
  O  O4  1  0.35958784  0.16888134  0.11064314  1
  O  O5  1  0.05823920  0.24894470  0.88935686  1
  O  O6  1  0.83870483  0.58500905  0.07583769  1
  O  O7  1  0.51934772  0.39873611  0.77093754  1
  O  O8  1  0.69176080  0.00105530  0.61064314  1
  O  O9  1  0.14873611  0.87779957  0.37938839  1
  O  O10  1  0.76420935  0.01957561  0.90493533  1
  O  O11  1  0.49841018  0.76934772  0.62061161  1
  O  O12  1  0.25158982  0.48065228  0.87938839  1
  O  O13  1  0.99894470  0.60958784  0.69070650  1
  O  O14  1  0.24082864  0.48713286  0.57583769  1
  O  O15  1  0.76957561  0.36464028  0.75536627  1
  O  O16  1  0.75105530  0.64041216  0.80929350  1
  O  O17  1  0.98042439  0.88535972  0.74463373  1
  O  O18  1  0.11464028  0.85927401  0.09506467  1
  O  O19  1  0.91888134  0.30823920  0.30929350  1
  O  O20  1  0.91129517  0.66499095  0.42416231  1
  O  O21  1  0.63535972  0.39072599  0.40493533  1
  O  O22  1  0.60927401  0.01420935  0.24463373  1
  O  O23  1  0.14072599  0.23579065  0.25536627  1
  O  O24  1  0.23065228  0.85126389  0.72906246  1
  O  O25  1  0.62779957  0.74841018  0.22906246  1
  O  O26  1  0.50917136  0.76286714  0.92416231  1
  O  O27  1  0.98579065  0.23042439  0.59506467  1
  O  O28  1  0.41499095  0.49082864  0.25369579  1
  O  O29  1  0.12220043  0.50158982  0.27093754  1
  O  O30  1  0.39041216  0.08111866  0.38935686  1
  O  O31  1  0.51286714  0.08870483  0.75369579  1
loop_
_geom_bond_atom_site_label_1
_geom_bond_atom_site_label_2
_geom_bond_distance
_geom_bond_site_symmetry_2
Na0 O29 2.284925 1_555
Na0 O20 2.287964 1_455
Na0 O9 2.304121 1_555
Na0 O6 2.351429 1_455
Na1 O16 2.254771 1_555
Na1 O26 2.322501 1_555
Na1 O10 2.338594 1_565
Na1 O11 2.496274 1_555
Na1 O0 2.993038 1_556
Na2 O8 2.254770 1_565
Na2 O3 2.322501 1_555
Na2 O22 2.338594 1_565
Na2 O25 2.496282 1_555
Na2 O30 2.993036 1_565
Na3 O12 2.284925 1_554
Na3 O28 2.287974 1_555
Na3 O25 2.304116 1_555
Na3 O3 2.351434 1_555
Na4 O19 2.254763 1_555
Na4 O20 2.322501 1_555
Na4 O21 2.338594 1_555
Na4 O1 2.496270 1_555
Na4 O13 2.993036 1_555
Na5 O27 2.208298 1_555
Na5 O19 2.262847 1_555
Na5 O22 2.329390 1_555
Na5 O0 2.476826 1_545
Na6 O7 2.284933 1_555
Na6 O26 2.287963 1_555
Na6 O12 2.304110 1_555
Na6 O14 2.351429 1_555
Na7 O10 2.208298 1_554
Na7 O0 2.262847 1_545
Na7 O23 2.329390 1_655
Na7 O19 2.476826 1_555
Na8 O9 2.284926 1_555
Na8 O31 2.287962 1_565
Na8 O24 2.304121 1_555
Na8 O2 2.351433 1_565
Na9 O5 2.254770 1_554
Na9 O28 2.322501 1_555
Na9 O23 2.338594 1_555
Na9 O29 2.496282 1_555
Na9 O4 2.993036 1_555
Na10 O13 2.254771 1_455
Na10 O14 2.322501 1_555
Na10 O27 2.338594 1_455
Na10 O12 2.496274 1_555
Na10 O19 2.993038 1_455
Na11 O15 2.208298 1_555
Na11 O8 2.262843 1_555
Na11 O27 2.329390 1_555
Na11 O5 2.476825 1_655
Na12 O17 2.208298 1_545
Na12 O5 2.262843 1_655
Na12 O10 2.329390 1_555
Na12 O8 2.476825 1_555
Na13 O21 2.208298 1_555
Na13 O13 2.262838 1_555
Na13 O15 2.329390 1_555
Na13 O16 2.476818 1_555
Na14 O0 2.254763 1_555
Na14 O6 2.322501 1_555
Na14 O18 2.338594 1_655
Na14 O9 2.496270 1_655
Na14 O16 2.993036 1_554
Na15 O18 2.208298 1_656
Na15 O16 2.262838 1_555
Na15 O17 2.329390 1_555
Na15 O13 2.476818 1_555
Na16 O1 2.284926 1_556
Na16 O2 2.287962 1_555
Na16 O7 2.304121 1_555
Na16 O31 2.351433 1_555
Na17 O4 2.254771 1_556
Na17 O2 2.322501 1_555
Na17 O17 2.338594 1_445
Na17 O24 2.496274 1_545
Na17 O5 2.993028 1_555
Na18 O30 2.254771 1_555
Na18 O31 2.322501 1_555
Na18 O15 2.338594 1_555
Na18 O7 2.496274 1_555
Na18 O8 2.993028 1_555
Na19 O25 2.284925 1_555
Na19 O6 2.287964 1_555
Na19 O1 2.304121 1_555
Na19 O20 2.351429 1_555
Na20 O11 2.284925 1_555
Na20 O3 2.287974 1_555
Na20 O29 2.304116 1_555
Na20 O28 2.351434 1_555
Na21 O24 2.284933 1_555
Na21 O14 2.287963 1_555
Na21 O11 2.304110 1_555
Na21 O26 2.351429 1_555
Na22 O22 2.208298 1_555
Na22 O30 2.262838 1_555
Na22 O21 2.329390 1_555
Na22 O4 2.476818 1_555
Na23 O23 2.208298 1_555
Na23 O4 2.262838 1_555
Na23 O18 2.329390 1_545
Na23 O30 2.476818 1_555
O0 Sn0 1.972347 1_555
O0 Rb0 2.966778 1_555
O1 Sn7 1.972008 1_555
O1 Rb4 3.038600 1_555
O1 Rb5 3.172015 1_554
O2 Sn3 1.968883 1_555
O2 Rb1 2.969445 1_555
O2 Rb0 3.132573 1_445
O3 Sn1 1.968883 1_555
O3 Rb3 2.969445 1_555
O3 Rb6 3.132572 1_554
O4 Sn7 1.972351 1_555
O4 Rb5 2.966784 1_554
O5 Sn3 1.972330 1_555
O5 Rb3 2.966789 1_556
O6 Sn2 1.968881 1_554
O6 Rb4 2.969445 1_555
O6 Rb3 3.132573 1_655
O7 Sn2 1.972020 1_555
O7 Rb1 3.038603 1_555
O7 Rb2 3.172026 1_555
O8 Sn5 1.972330 1_545
O8 Rb7 2.966789 1_545
O9 Sn1 1.972008 1_555
O9 Rb0 3.038600 1_455
O9 Rb1 3.172015 1_565
O10 Sn5 1.979093 1_545
O10 Rb4 2.963208 1_556
O10 Rb5 3.449971 1_555
O11 Sn5 1.972023 1_555
O11 Rb2 3.038603 1_555
O11 Rb7 3.172026 1_555
O12 Sn3 1.972023 1_555
O12 Rb6 3.038603 1_555
O12 Rb3 3.172026 1_556
O13 Sn6 1.972349 1_655
O13 Rb6 2.966784 1_655
O14 Sn4 1.968881 1_555
O14 Rb2 2.969445 1_555
O14 Rb1 3.132573 1_555
O15 Sn2 1.979085 1_555
O15 Rb3 2.963208 1_656
O15 Rb4 3.449970 1_556
O16 Sn2 1.972349 1_555
O16 Rb2 2.966784 1_555
O17 Sn6 1.979085 1_655
O17 Rb7 2.963208 1_555
O17 Rb0 3.449970 1_555
O18 Sn1 1.979094 1_555
O18 Rb6 2.963208 1_554
O18 Rb3 3.449970 1_555
O19 Sn4 1.972347 1_655
O19 Rb4 2.966778 1_555
O20 Sn6 1.968881 1_655
O20 Rb0 2.969445 1_555
O20 Rb7 3.132573 1_555
O21 Sn7 1.979094 1_555
O21 Rb2 2.963208 1_555
O21 Rb7 3.449970 1_555
O22 Sn0 1.979085 1_545
O22 Rb5 2.963208 1_554
O22 Rb6 3.449970 1_544
O23 Sn4 1.979085 1_555
O23 Rb1 2.963208 1_555
O23 Rb2 3.449970 1_555
O24 Sn6 1.972020 1_555
O24 Rb5 3.038603 1_565
O24 Rb6 3.172026 1_555
O25 Sn0 1.972018 1_555
O25 Rb7 3.038605 1_555
O25 Rb0 3.172018 1_555
O26 Sn0 1.968881 1_556
O26 Rb6 2.969445 1_555
O26 Rb5 3.132573 1_565
O27 Sn3 1.979093 1_655
O27 Rb0 2.963208 1_545
O27 Rb1 3.449971 1_655
O28 Sn7 1.968883 1_555
O28 Rb7 2.969445 1_555
O28 Rb2 3.132572 1_555
O29 Sn4 1.972018 1_555
O29 Rb3 3.038605 1_555
O29 Rb4 3.172018 1_455
O30 Sn1 1.972351 1_545
O30 Rb1 2.966784 1_555
O31 Sn5 1.968883 1_545
O31 Rb5 2.969445 1_555
O31 Rb4 3.132573 1_556
