# generated using pymatgen
data_Na2Cu5(Si2O7)2
_symmetry_space_group_name_H-M   'P 1'
_cell_length_a   5.83406349
_cell_length_b   7.92654718
_cell_length_c   8.11425982
_cell_angle_alpha   63.31870005
_cell_angle_beta   86.92592852
_cell_angle_gamma   68.91726801
_symmetry_Int_Tables_number   1
_chemical_formula_structural   Na2Cu5(Si2O7)2
_chemical_formula_sum   'Na2 Cu5 Si4 O14'
_cell_volume   310.20601001
_cell_formula_units_Z   1
loop_
 _symmetry_equiv_pos_site_id
 _symmetry_equiv_pos_as_xyz
  1  'x, y, z'
loop_
 _atom_site_type_symbol
 _atom_site_label
 _atom_site_symmetry_multiplicity
 _atom_site_fract_x
 _atom_site_fract_y
 _atom_site_fract_z
 _atom_site_occupancy
  Na  Na0  1  0.23167200  0.63143200  0.05898900  1
  Na  Na1  1  0.76832800  0.36856800  0.94101100  1
  Cu  Cu0  1  0.81454900  0.06464400  0.77422700  1
  Cu  Cu1  1  0.50000000  0.50000000  0.50000000  1
  Cu  Cu2  1  0.18545100  0.93535600  0.22577300  1
  Cu  Cu3  1  0.41684200  0.89552300  0.68054000  1
  Cu  Cu4  1  0.58315800  0.10447700  0.31946000  1
  Si  Si0  1  0.69112000  0.71338500  0.09090400  1
  Si  Si1  1  0.98568300  0.26104100  0.36466300  1
  Si  Si2  1  0.01431700  0.73895900  0.63533700  1
  Si  Si3  1  0.30888000  0.28661500  0.90909600  1
  O  O0  1  0.19641200  0.11008900  0.97075300  1
  O  O1  1  0.06376300  0.50444500  0.79431600  1
  O  O2  1  0.09140000  0.85835200  0.73341900  1
  O  O3  1  0.90860100  0.14164800  0.26658100  1
  O  O4  1  0.28046500  0.14396700  0.44872000  1
  O  O5  1  0.42294700  0.30422100  0.07724200  1
  O  O6  1  0.93623700  0.49555500  0.20568400  1
  O  O7  1  0.80358800  0.88991100  0.02924700  1
  O  O8  1  0.71953500  0.85603300  0.55128000  1
  O  O9  1  0.80714000  0.27911400  0.52499800  1
  O  O10  1  0.48578200  0.70520800  0.24301400  1
  O  O11  1  0.51421800  0.29479200  0.75698600  1
  O  O12  1  0.19286000  0.72088600  0.47500200  1
  O  O13  1  0.57705300  0.69577900  0.92275800  1
loop_
_geom_bond_atom_site_label_1
_geom_bond_atom_site_label_2
_geom_bond_distance
_geom_bond_site_symmetry_2
Na0 O6 2.347718 1_455
Na0 O13 2.352948 1_554
Na0 O5 2.363204 1_555
Na0 O2 2.406135 1_554
Na0 O10 2.532751 1_555
Na0 O7 2.536273 1_455
Na1 O1 2.347718 1_655
Na1 O5 2.352948 1_556
Na1 O13 2.363204 1_555
Na1 O3 2.406136 1_556
Na1 O11 2.532751 1_555
Na1 O0 2.536273 1_655
Cu0 O7 1.918348 1_546
Cu0 O9 1.962314 1_555
Cu0 O11 1.978659 1_555
Cu0 O2 1.980161 1_645
Cu1 O12 1.944333 1_555
Cu1 O9 1.944333 1_555
Cu1 O10 1.968849 1_555
Cu1 O11 1.968849 1_555
Cu2 O0 1.918348 1_564
Cu2 O12 1.962314 1_555
Cu2 O10 1.978659 1_555
Cu2 O3 1.980158 1_465
Cu3 O13 1.892373 1_555
Cu3 O4 1.938065 1_565
Cu3 O8 2.003767 1_555
Cu3 O2 2.019241 1_555
Cu4 O5 1.892373 1_555
Cu4 O8 1.938065 1_545
Cu4 O4 2.003767 1_555
Cu4 O3 2.019247 1_555
O0 Si3 1.623372 1_555
O1 Si2 1.644201 1_555
O1 Si3 1.678088 1_555
O2 Si2 1.658984 1_555
O3 Si1 1.658981 1_555
O4 Si1 1.641105 1_455
O5 Si3 1.630661 1_554
O6 Si1 1.644201 1_555
O6 Si0 1.678088 1_555
O7 Si0 1.623372 1_555
O8 Si2 1.641105 1_655
O9 Si1 1.647056 1_555
O10 Si0 1.669769 1_555
O11 Si3 1.669769 1_555
O12 Si2 1.647056 1_555
O13 Si0 1.630661 1_556
