# generated using pymatgen
data_Mn7(PbO5)3
_symmetry_space_group_name_H-M   'P 1'
_cell_length_a   10.25478497
_cell_length_b   10.25478497
_cell_length_c   13.89429900
_cell_angle_alpha   90.00000000
_cell_angle_beta   90.00000000
_cell_angle_gamma   119.99999337
_symmetry_Int_Tables_number   1
_chemical_formula_structural   Mn7(PbO5)3
_chemical_formula_sum   'Mn28 Pb12 O60'
_cell_volume   1265.37840293
_cell_formula_units_Z   4
loop_
 _symmetry_equiv_pos_site_id
 _symmetry_equiv_pos_as_xyz
  1  'x, y, z'
loop_
 _atom_site_type_symbol
 _atom_site_label
 _atom_site_symmetry_multiplicity
 _atom_site_fract_x
 _atom_site_fract_y
 _atom_site_fract_z
 _atom_site_occupancy
  Mn  Mn0  1  0.33333300  0.66666700  0.14640600  1
  Mn  Mn1  1  0.83288200  0.16711800  0.50000000  1
  Mn  Mn2  1  0.50000000  0.00000000  0.00000000  1
  Mn  Mn3  1  0.83288200  0.66576400  0.50000000  1
  Mn  Mn4  1  0.33333300  0.66666700  0.35359400  1
  Mn  Mn5  1  0.33333300  0.66666700  0.85359400  1
  Mn  Mn6  1  0.33333300  0.66666700  0.64640600  1
  Mn  Mn7  1  0.66576400  0.83288200  0.00000000  1
  Mn  Mn8  1  0.83288200  0.66576400  0.00000000  1
  Mn  Mn9  1  0.50000000  0.00000000  0.50000000  1
  Mn  Mn10  1  0.83288200  0.16711800  0.00000000  1
  Mn  Mn11  1  0.00000000  0.00000000  0.00000000  1
  Mn  Mn12  1  0.00000000  0.00000000  0.50000000  1
  Mn  Mn13  1  0.16711800  0.83288200  0.50000000  1
  Mn  Mn14  1  0.33423600  0.16711800  0.00000000  1
  Mn  Mn15  1  0.66666700  0.33333300  0.85359400  1
  Mn  Mn16  1  0.16711800  0.33423600  0.00000000  1
  Mn  Mn17  1  0.66576400  0.83288200  0.50000000  1
  Mn  Mn18  1  0.50000000  0.50000000  0.50000000  1
  Mn  Mn19  1  0.50000000  0.50000000  0.00000000  1
  Mn  Mn20  1  0.33423600  0.16711800  0.50000000  1
  Mn  Mn21  1  0.66666700  0.33333300  0.64640600  1
  Mn  Mn22  1  0.66666700  0.33333300  0.35359400  1
  Mn  Mn23  1  0.16711800  0.33423600  0.50000000  1
  Mn  Mn24  1  0.00000000  0.50000000  0.50000000  1
  Mn  Mn25  1  0.16711800  0.83288200  0.00000000  1
  Mn  Mn26  1  0.00000000  0.50000000  0.00000000  1
  Mn  Mn27  1  0.66666700  0.33333300  0.14640600  1
  Pb  Pb0  1  0.26933900  0.26933900  0.75000000  1
  Pb  Pb1  1  0.73066100  0.73066100  0.25000000  1
  Pb  Pb2  1  0.39018100  0.00000000  0.75000000  1
  Pb  Pb3  1  0.60981900  0.60981900  0.75000000  1
  Pb  Pb4  1  0.00000000  0.39018100  0.75000000  1
  Pb  Pb5  1  0.00000000  0.73066100  0.75000000  1
  Pb  Pb6  1  0.00000000  0.26933900  0.25000000  1
  Pb  Pb7  1  0.73066100  0.00000000  0.75000000  1
  Pb  Pb8  1  0.39018100  0.39018100  0.25000000  1
  Pb  Pb9  1  0.00000000  0.60981900  0.25000000  1
  Pb  Pb10  1  0.26933900  0.00000000  0.25000000  1
  Pb  Pb11  1  0.60981900  0.00000000  0.25000000  1
  O  O0  1  0.32846500  0.32846500  0.92647200  1
  O  O1  1  0.47780300  0.64843400  0.25000000  1
  O  O2  1  0.83612700  0.83612700  0.57149300  1
  O  O3  1  0.48656400  0.32962000  0.42316400  1
  O  O4  1  0.64843400  0.47780300  0.25000000  1
  O  O5  1  0.16387300  0.16387300  0.07149300  1
  O  O6  1  0.32962000  0.84305600  0.92316400  1
  O  O7  1  0.32846500  0.00000000  0.42647200  1
  O  O8  1  0.51343600  0.84305600  0.07683600  1
  O  O9  1  0.83612700  0.00000000  0.07149300  1
  O  O10  1  0.17063100  0.52219700  0.25000000  1
  O  O11  1  0.82936900  0.47780300  0.75000000  1
  O  O12  1  0.32846500  0.32846500  0.57352800  1
  O  O13  1  0.32962000  0.48656400  0.42316400  1
  O  O14  1  0.67153500  0.67153500  0.07352800  1
  O  O15  1  0.00000000  0.67153500  0.92647200  1
  O  O16  1  0.32962000  0.84305600  0.57683600  1
  O  O17  1  0.67153500  0.00000000  0.57352800  1
  O  O18  1  0.83612700  0.83612700  0.92850700  1
  O  O19  1  0.32962000  0.48656400  0.07683600  1
  O  O20  1  0.35156600  0.52219700  0.75000000  1
  O  O21  1  0.16387300  0.16387300  0.42850700  1
  O  O22  1  0.16387300  0.00000000  0.57149300  1
  O  O23  1  0.48656400  0.32962000  0.07683600  1
  O  O24  1  0.82936900  0.35156600  0.25000000  1
  O  O25  1  0.67153500  0.00000000  0.92647200  1
  O  O26  1  0.51343600  0.84305600  0.42316400  1
  O  O27  1  0.83612700  0.00000000  0.42850700  1
  O  O28  1  0.84305600  0.32962000  0.57683600  1
  O  O29  1  0.48656400  0.15694400  0.92316400  1
  O  O30  1  0.00000000  0.32846500  0.42647200  1
  O  O31  1  0.00000000  0.83612700  0.07149300  1
  O  O32  1  0.84305600  0.51343600  0.42316400  1
  O  O33  1  0.67038000  0.51343600  0.57683600  1
  O  O34  1  0.17063100  0.64843400  0.75000000  1
  O  O35  1  0.00000000  0.16387300  0.57149300  1
  O  O36  1  0.15694400  0.67038000  0.07683600  1
  O  O37  1  0.00000000  0.67153500  0.57352800  1
  O  O38  1  0.47780300  0.82936900  0.75000000  1
  O  O39  1  0.00000000  0.32846500  0.07352800  1
  O  O40  1  0.64843400  0.17063100  0.75000000  1
  O  O41  1  0.67038000  0.15694400  0.07683600  1
  O  O42  1  0.51343600  0.67038000  0.92316400  1
  O  O43  1  0.15694400  0.48656400  0.57683600  1
  O  O44  1  0.84305600  0.51343600  0.07683600  1
  O  O45  1  0.35156600  0.82936900  0.25000000  1
  O  O46  1  0.52219700  0.17063100  0.25000000  1
  O  O47  1  0.16387300  0.00000000  0.92850700  1
  O  O48  1  0.15694400  0.67038000  0.42316400  1
  O  O49  1  0.67153500  0.67153500  0.42647200  1
  O  O50  1  0.15694400  0.48656400  0.92316400  1
  O  O51  1  0.51343600  0.67038000  0.57683600  1
  O  O52  1  0.52219700  0.35156600  0.75000000  1
  O  O53  1  0.67038000  0.15694400  0.42316400  1
  O  O54  1  0.00000000  0.16387300  0.92850700  1
  O  O55  1  0.67038000  0.51343600  0.92316400  1
  O  O56  1  0.32846500  0.00000000  0.07352800  1
  O  O57  1  0.48656400  0.15694400  0.57683600  1
  O  O58  1  0.84305600  0.32962000  0.92316400  1
  O  O59  1  0.00000000  0.83612700  0.42850700  1
loop_
_geom_bond_atom_site_label_1
_geom_bond_atom_site_label_2
_geom_bond_distance
_geom_bond_site_symmetry_2
Mn0 O36 2.067985 1_555
Mn0 O8 2.067989 1_555
Mn0 O19 2.067994 1_555
Mn0 O45 2.139761 1_555
Mn0 O10 2.139764 1_555
Mn0 O1 2.139768 1_555
Mn1 O53 1.937452 1_555
Mn1 O28 1.937452 1_555
Mn1 O17 1.970472 1_555
Mn1 O30 1.970472 1_655
Mn1 O35 1.995455 1_655
Mn1 O27 1.995455 1_555
Mn2 O29 1.992667 1_554
Mn2 O8 1.992667 1_545
Mn2 O41 1.992668 1_555
Mn2 O6 1.992668 1_544
Mn2 O56 2.034203 1_555
Mn2 O25 2.034203 1_554
Mn3 O32 1.937452 1_555
Mn3 O33 1.937452 1_555
Mn3 O49 1.970472 1_555
Mn3 O37 1.970472 1_655
Mn3 O2 1.995455 1_555
Mn3 O59 1.995455 1_655
Mn4 O48 2.067985 1_555
Mn4 O26 2.067989 1_555
Mn4 O13 2.067994 1_555
Mn4 O45 2.139761 1_555
Mn4 O10 2.139764 1_555
Mn4 O1 2.139768 1_555
Mn5 O6 2.067985 1_555
Mn5 O50 2.067989 1_555
Mn5 O42 2.067994 1_555
Mn5 O34 2.139761 1_555
Mn5 O38 2.139764 1_555
Mn5 O20 2.139768 1_555
Mn6 O16 2.067985 1_555
Mn6 O43 2.067989 1_555
Mn6 O51 2.067994 1_555
Mn6 O34 2.139761 1_555
Mn6 O38 2.139764 1_555
Mn6 O20 2.139768 1_555
Mn7 O8 1.937452 1_555
Mn7 O42 1.937452 1_554
Mn7 O14 1.970472 1_555
Mn7 O25 1.970472 1_564
Mn7 O18 1.995455 1_554
Mn7 O9 1.995455 1_565
Mn8 O44 1.937452 1_555
Mn8 O55 1.937452 1_554
Mn8 O14 1.970472 1_555
Mn8 O15 1.970472 1_654
Mn8 O18 1.995455 1_554
Mn8 O31 1.995455 1_655
Mn9 O57 1.992667 1_555
Mn9 O26 1.992667 1_545
Mn9 O53 1.992668 1_555
Mn9 O16 1.992668 1_545
Mn9 O17 2.034203 1_555
Mn9 O7 2.034203 1_555
Mn10 O41 1.937452 1_555
Mn10 O58 1.937452 1_554
Mn10 O39 1.970472 1_655
Mn10 O25 1.970472 1_554
Mn10 O9 1.995455 1_555
Mn10 O54 1.995455 1_654
Mn11 O54 1.952116 1_554
Mn11 O47 1.952116 1_554
Mn11 O31 1.952116 1_545
Mn11 O9 1.952116 1_455
Mn11 O5 1.952116 1_555
Mn11 O18 1.952116 1_444
Mn12 O22 1.952116 1_555
Mn12 O35 1.952116 1_555
Mn12 O59 1.952116 1_545
Mn12 O27 1.952116 1_455
Mn12 O2 1.952116 1_445
Mn12 O21 1.952116 1_555
Mn13 O48 1.937452 1_555
Mn13 O16 1.937452 1_555
Mn13 O37 1.970472 1_555
Mn13 O7 1.970472 1_565
Mn13 O22 1.995455 1_565
Mn13 O59 1.995455 1_555
Mn14 O29 1.937452 1_554
Mn14 O23 1.937452 1_555
Mn14 O0 1.970472 1_554
Mn14 O56 1.970472 1_555
Mn14 O5 1.995455 1_555
Mn14 O47 1.995455 1_554
Mn15 O58 2.067985 1_555
Mn15 O29 2.067989 1_555
Mn15 O55 2.067994 1_555
Mn15 O40 2.139761 1_555
Mn15 O11 2.139764 1_555
Mn15 O52 2.139768 1_555
Mn16 O50 1.937452 1_554
Mn16 O19 1.937452 1_555
Mn16 O0 1.970472 1_554
Mn16 O39 1.970472 1_555
Mn16 O5 1.995455 1_555
Mn16 O54 1.995455 1_554
Mn17 O26 1.937452 1_555
Mn17 O51 1.937452 1_555
Mn17 O49 1.970472 1_555
Mn17 O17 1.970472 1_565
Mn17 O2 1.995455 1_555
Mn17 O27 1.995455 1_565
Mn18 O3 1.992667 1_555
Mn18 O13 1.992667 1_555
Mn18 O33 1.992667 1_555
Mn18 O51 1.992667 1_555
Mn18 O12 2.034203 1_555
Mn18 O49 2.034203 1_555
Mn19 O23 1.992667 1_555
Mn19 O19 1.992667 1_555
Mn19 O55 1.992667 1_554
Mn19 O42 1.992667 1_554
Mn19 O14 2.034203 1_555
Mn19 O0 2.034203 1_554
Mn20 O57 1.937452 1_555
Mn20 O3 1.937452 1_555
Mn20 O12 1.970472 1_555
Mn20 O7 1.970472 1_555
Mn20 O21 1.995455 1_555
Mn20 O22 1.995455 1_555
Mn21 O28 2.067985 1_555
Mn21 O57 2.067989 1_555
Mn21 O33 2.067994 1_555
Mn21 O40 2.139761 1_555
Mn21 O11 2.139764 1_555
Mn21 O52 2.139768 1_555
Mn22 O53 2.067985 1_555
Mn22 O32 2.067989 1_555
Mn22 O3 2.067994 1_555
Mn22 O24 2.139761 1_555
Mn22 O46 2.139764 1_555
Mn22 O4 2.139768 1_555
Mn23 O43 1.937452 1_555
Mn23 O13 1.937452 1_555
Mn23 O12 1.970472 1_555
Mn23 O30 1.970472 1_555
Mn23 O21 1.995455 1_555
Mn23 O35 1.995455 1_555
Mn24 O43 1.992667 1_555
Mn24 O32 1.992667 1_455
Mn24 O48 1.992668 1_555
Mn24 O28 1.992668 1_455
Mn24 O37 2.034203 1_555
Mn24 O30 2.034203 1_555
Mn25 O36 1.937452 1_555
Mn25 O6 1.937452 1_554
Mn25 O56 1.970472 1_565
Mn25 O15 1.970472 1_554
Mn25 O31 1.995455 1_555
Mn25 O47 1.995455 1_564
Mn26 O50 1.992667 1_554
Mn26 O44 1.992667 1_455
Mn26 O36 1.992668 1_555
Mn26 O58 1.992668 1_454
Mn26 O39 2.034203 1_555
Mn26 O15 2.034203 1_554
Mn27 O41 2.067985 1_555
Mn27 O44 2.067989 1_555
Mn27 O23 2.067994 1_555
Mn27 O24 2.139761 1_555
Mn27 O46 2.139764 1_555
Mn27 O4 2.139768 1_555
O0 Pb0 2.525809 1_555
O1 Pb1 2.290899 1_555
O1 Pb8 2.332678 1_555
O4 Pb1 2.290899 1_555
O4 Pb8 2.332678 1_555
O7 Pb10 2.525809 1_555
O10 Pb6 2.290899 1_555
O10 Pb9 2.332678 1_555
O11 Pb5 2.290899 1_655
O11 Pb4 2.332678 1_655
O12 Pb0 2.525809 1_555
O14 Pb1 2.525809 1_555
O15 Pb5 2.525809 1_555
O17 Pb7 2.525809 1_555
O20 Pb0 2.290899 1_555
O20 Pb3 2.332678 1_555
O24 Pb6 2.290899 1_655
O24 Pb9 2.332678 1_655
O25 Pb7 2.525809 1_555
O30 Pb6 2.525809 1_555
O34 Pb5 2.290899 1_555
O34 Pb4 2.332678 1_555
O37 Pb5 2.525809 1_555
O38 Pb7 2.290899 1_565
O38 Pb2 2.332678 1_565
O39 Pb6 2.525809 1_555
O40 Pb7 2.290899 1_555
O40 Pb2 2.332678 1_555
O45 Pb10 2.290899 1_565
O45 Pb11 2.332678 1_565
O46 Pb10 2.290899 1_555
O46 Pb11 2.332678 1_555
O49 Pb1 2.525809 1_555
O52 Pb0 2.290899 1_555
O52 Pb3 2.332678 1_555
O56 Pb10 2.525809 1_555
