# generated using pymatgen
data_U(MoO4)2
_symmetry_space_group_name_H-M   'P 1'
_cell_length_a   4.14283600
_cell_length_b   7.45515000
_cell_length_c   20.36956200
_cell_angle_alpha   90.00000000
_cell_angle_beta   90.00000000
_cell_angle_gamma   90.00000000
_symmetry_Int_Tables_number   1
_chemical_formula_structural   U(MoO4)2
_chemical_formula_sum   'U4 Mo8 O32'
_cell_volume   629.12336988
_cell_formula_units_Z   4
loop_
 _symmetry_equiv_pos_site_id
 _symmetry_equiv_pos_as_xyz
  1  'x, y, z'
loop_
 _atom_site_type_symbol
 _atom_site_label
 _atom_site_symmetry_multiplicity
 _atom_site_fract_x
 _atom_site_fract_y
 _atom_site_fract_z
 _atom_site_occupancy
  U  U0  1  0.00000000  0.50000000  0.76259500  1
  U  U1  1  0.00000000  0.50000000  0.23740500  1
  U  U2  1  0.00000000  0.00000000  0.73740500  1
  U  U3  1  0.00000000  0.00000000  0.26259500  1
  Mo  Mo0  1  0.91214400  0.25140400  0.58951300  1
  Mo  Mo1  1  0.91214400  0.74859600  0.41048700  1
  Mo  Mo2  1  0.08785600  0.25140400  0.41048700  1
  Mo  Mo3  1  0.08785600  0.74859600  0.58951300  1
  Mo  Mo4  1  0.08785600  0.24859600  0.91048700  1
  Mo  Mo5  1  0.08785600  0.75140400  0.08951300  1
  Mo  Mo6  1  0.91214400  0.24859600  0.08951300  1
  Mo  Mo7  1  0.91214400  0.75140400  0.91048700  1
  O  O0  1  0.00000000  0.50000000  0.12113100  1
  O  O1  1  0.00000000  0.50000000  0.87886900  1
  O  O2  1  0.00000000  0.00000000  0.37886900  1
  O  O3  1  0.00000000  0.00000000  0.62113100  1
  O  O4  1  0.00000000  0.31369700  0.00000000  1
  O  O5  1  0.00000000  0.68630300  0.00000000  1
  O  O6  1  0.00000000  0.18630300  0.50000000  1
  O  O7  1  0.00000000  0.81369700  0.50000000  1
  O  O8  1  0.50761200  0.25038500  0.40909700  1
  O  O9  1  0.50761200  0.74961500  0.59090300  1
  O  O10  1  0.49238800  0.25038500  0.59090300  1
  O  O11  1  0.49238800  0.74961500  0.40909700  1
  O  O12  1  0.49238800  0.24961500  0.09090300  1
  O  O13  1  0.49238800  0.75038500  0.90909700  1
  O  O14  1  0.50761200  0.24961500  0.90909700  1
  O  O15  1  0.50761200  0.75038500  0.09090300  1
  O  O16  1  0.00000000  0.50000000  0.42416400  1
  O  O17  1  0.00000000  0.50000000  0.57583600  1
  O  O18  1  0.00000000  0.00000000  0.07583600  1
  O  O19  1  0.00000000  0.00000000  0.92416400  1
  O  O20  1  0.50000000  0.50000000  0.23572000  1
  O  O21  1  0.50000000  0.50000000  0.76428000  1
  O  O22  1  0.50000000  0.00000000  0.26428000  1
  O  O23  1  0.50000000  0.00000000  0.73572000  1
  O  O24  1  0.99170100  0.71000800  0.31158800  1
  O  O25  1  0.99170100  0.28999200  0.68841200  1
  O  O26  1  0.00829900  0.71000800  0.68841200  1
  O  O27  1  0.00829900  0.28999200  0.31158800  1
  O  O28  1  0.00829900  0.78999200  0.18841200  1
  O  O29  1  0.00829900  0.21000800  0.81158800  1
  O  O30  1  0.99170100  0.78999200  0.81158800  1
  O  O31  1  0.99170100  0.21000800  0.18841200  1
loop_
_geom_bond_atom_site_label_1
_geom_bond_atom_site_label_2
_geom_bond_distance
_geom_bond_site_symmetry_2
Mo0 O10 1.739227 1_555
Mo0 O17 1.909159 1_655
Mo0 O6 1.921614 1_655
Mo0 O3 2.014969 1_655
Mo0 O25 2.061485 1_555
Mo0 O10 2.404034 1_655
Mo1 O11 1.739227 1_555
Mo1 O16 1.909159 1_655
Mo1 O7 1.921614 1_655
Mo1 O2 2.014969 1_665
Mo1 O24 2.061485 1_555
Mo1 O11 2.404034 1_655
Mo2 O8 1.739227 1_555
Mo2 O16 1.909159 1_555
Mo2 O6 1.921614 1_555
Mo2 O2 2.014969 1_555
Mo2 O27 2.061485 1_555
Mo2 O8 2.404034 1_455
Mo3 O9 1.739227 1_555
Mo3 O17 1.909159 1_555
Mo3 O7 1.921614 1_555
Mo3 O3 2.014969 1_565
Mo3 O26 2.061485 1_555
Mo3 O9 2.404034 1_455
Mo4 O14 1.739227 1_555
Mo4 O19 1.909159 1_555
Mo4 O4 1.921614 1_556
Mo4 O1 2.014969 1_555
Mo4 O29 2.061485 1_555
Mo4 O14 2.404034 1_455
Mo5 O15 1.739227 1_555
Mo5 O18 1.909159 1_565
Mo5 O5 1.921614 1_555
Mo5 O0 2.014969 1_555
Mo5 O28 2.061485 1_555
Mo5 O15 2.404034 1_455
Mo6 O12 1.739227 1_555
Mo6 O18 1.909159 1_655
Mo6 O4 1.921614 1_655
Mo6 O0 2.014969 1_655
Mo6 O31 2.061485 1_555
Mo6 O12 2.404034 1_655
Mo7 O13 1.739227 1_555
Mo7 O19 1.909159 1_665
Mo7 O5 1.921614 1_656
Mo7 O1 2.014969 1_655
Mo7 O30 2.061485 1_555
Mo7 O13 2.404034 1_655
O0 U1 2.368450 1_555
O1 U0 2.368450 1_555
O2 U3 2.368450 1_555
O3 U2 2.368450 1_555
O20 U1 2.071702 1_555
O20 U1 2.071702 1_655
O21 U0 2.071702 1_655
O21 U0 2.071702 1_555
O22 U3 2.071702 1_655
O22 U3 2.071702 1_555
O23 U2 2.071702 1_555
O23 U2 2.071702 1_655
O24 U1 2.176181 1_655
O24 U3 2.381402 1_665
O25 U0 2.176181 1_655
O25 U2 2.381402 1_655
O26 U0 2.176181 1_555
O26 U2 2.381402 1_565
O27 U1 2.176181 1_555
O27 U3 2.381402 1_555
O28 U3 2.176181 1_565
O28 U1 2.381402 1_555
O29 U2 2.176181 1_555
O29 U0 2.381402 1_555
O30 U2 2.176181 1_665
O30 U0 2.381402 1_655
O31 U3 2.176181 1_655
O31 U1 2.381402 1_655
