# generated using pymatgen
data_AsS4N5F6
_symmetry_space_group_name_H-M   'P 1'
_cell_length_a   6.75544400
_cell_length_b   12.22720700
_cell_length_c   12.94470732
_cell_angle_alpha   84.41028713
_cell_angle_beta   90.00000000
_cell_angle_gamma   90.00000000
_symmetry_Int_Tables_number   1
_chemical_formula_structural   AsS4N5F6
_chemical_formula_sum   'As4 S16 N20 F24'
_cell_volume   1064.15125375
_cell_formula_units_Z   4
loop_
 _symmetry_equiv_pos_site_id
 _symmetry_equiv_pos_as_xyz
  1  'x, y, z'
loop_
 _atom_site_type_symbol
 _atom_site_label
 _atom_site_symmetry_multiplicity
 _atom_site_fract_x
 _atom_site_fract_y
 _atom_site_fract_z
 _atom_site_occupancy
  As  As0  1  0.15529100  0.00000000  0.25000000  1
  As  As1  1  0.92785700  0.50000000  0.25000000  1
  As  As2  1  0.07214300  0.50000000  0.75000000  1
  As  As3  1  0.84470900  0.00000000  0.75000000  1
  S  S0  1  0.19345700  0.80491500  0.54807600  1
  S  S1  1  0.64245100  0.36156200  0.56516600  1
  S  S2  1  0.58685200  0.27154400  0.91672300  1
  S  S3  1  0.35754900  0.63843800  0.43483400  1
  S  S4  1  0.80654300  0.19508500  0.45192400  1
  S  S5  1  0.80654300  0.80491500  0.04807600  1
  S  S6  1  0.32857600  0.78420300  0.86935400  1
  S  S7  1  0.19345700  0.19508500  0.95192400  1
  S  S8  1  0.32857600  0.21579700  0.63064600  1
  S  S9  1  0.41314800  0.72845600  0.08327700  1
  S  S10  1  0.58685200  0.72845600  0.58327700  1
  S  S11  1  0.35754900  0.36156200  0.06516600  1
  S  S12  1  0.41314800  0.27154400  0.41672300  1
  S  S13  1  0.67142400  0.78420300  0.36935400  1
  S  S14  1  0.67142400  0.21579700  0.13064600  1
  S  S15  1  0.64245100  0.63843800  0.93483400  1
  N  N0  1  0.39719700  0.18432100  0.89628800  1
  N  N1  1  0.82350400  0.72931300  0.95790500  1
  N  N2  1  0.70837900  0.19612500  0.01438900  1
  N  N3  1  0.82350400  0.27068700  0.54209500  1
  N  N4  1  0.17649600  0.72931300  0.45790500  1
  N  N5  1  0.70837900  0.80387500  0.48561100  1
  N  N6  1  0.48926400  0.71401700  0.34137400  1
  N  N7  1  0.51073600  0.28598300  0.65862600  1
  N  N8  1  0.50306200  0.62034600  0.03739300  1
  N  N9  1  0.17649600  0.27068700  0.04209500  1
  N  N10  1  0.29162100  0.19612500  0.51438900  1
  N  N11  1  0.60280300  0.18432100  0.39628800  1
  N  N12  1  0.49693800  0.62034600  0.53739300  1
  N  N13  1  0.49693800  0.37965400  0.96260700  1
  N  N14  1  0.48926400  0.28598300  0.15862600  1
  N  N15  1  0.39719700  0.81567900  0.60371200  1
  N  N16  1  0.29162100  0.80387500  0.98561100  1
  N  N17  1  0.50306200  0.37965400  0.46260700  1
  N  N18  1  0.51073600  0.71401700  0.84137400  1
  N  N19  1  0.60280300  0.81567900  0.10371200  1
  F  F0  1  0.96874700  0.97030000  0.34591200  1
  F  F1  1  0.65905000  0.96906300  0.84596100  1
  F  F2  1  0.65905000  0.03093700  0.65403900  1
  F  F3  1  0.92910200  0.64561400  0.21863000  1
  F  F4  1  0.92800100  0.51935300  0.38417000  1
  F  F5  1  0.07089800  0.64561400  0.71863000  1
  F  F6  1  0.15459900  0.86085900  0.22217100  1
  F  F7  1  0.96874700  0.02970000  0.15408800  1
  F  F8  1  0.34095000  0.96906300  0.34596100  1
  F  F9  1  0.03125300  0.97030000  0.84591200  1
  F  F10  1  0.80938100  0.50000000  0.75000000  1
  F  F11  1  0.15459900  0.13914100  0.27782900  1
  F  F12  1  0.07199900  0.51935300  0.88417000  1
  F  F13  1  0.19061900  0.50000000  0.25000000  1
  F  F14  1  0.84540100  0.13914100  0.77782900  1
  F  F15  1  0.07199900  0.48064700  0.61583000  1
  F  F16  1  0.66638800  0.50000000  0.25000000  1
  F  F17  1  0.33361200  0.50000000  0.75000000  1
  F  F18  1  0.84540100  0.86085900  0.72217100  1
  F  F19  1  0.92910200  0.35438600  0.28137000  1
  F  F20  1  0.03125300  0.02970000  0.65408800  1
  F  F21  1  0.07089800  0.35438600  0.78137000  1
  F  F22  1  0.34095000  0.03093700  0.15403900  1
  F  F23  1  0.92800100  0.48064700  0.11583000  1
loop_
_geom_bond_atom_site_label_1
_geom_bond_atom_site_label_2
_geom_bond_distance
_geom_bond_site_symmetry_2
As0 F11 1.773028 1_555
As0 F6 1.773028 1_545
As0 F8 1.779781 1_545
As0 F22 1.779781 1_555
As0 F7 1.781452 1_455
As0 F0 1.781452 1_445
As1 F16 1.766339 1_555
As1 F13 1.775074 1_655
As1 F23 1.775529 1_555
As1 F4 1.775529 1_555
As1 F3 1.787214 1_555
As1 F19 1.787214 1_555
As2 F17 1.766339 1_555
As2 F10 1.775074 1_455
As2 F15 1.775529 1_555
As2 F12 1.775529 1_555
As2 F5 1.787214 1_555
As2 F21 1.787214 1_555
As3 F14 1.773028 1_555
As3 F18 1.773028 1_545
As3 F1 1.779781 1_545
As3 F2 1.779781 1_555
As3 F9 1.781452 1_645
As3 F20 1.781452 1_655
N0 S7 1.564869 1_555
N0 S2 1.704061 1_555
N1 S5 1.562142 1_556
N1 S15 1.698364 1_555
N2 S14 1.566991 1_555
N2 S2 1.701648 1_554
N3 S4 1.562142 1_555
N3 S1 1.698364 1_555
N4 S0 1.562142 1_555
N4 S3 1.698364 1_555
N5 S13 1.566991 1_555
N5 S10 1.701648 1_555
N6 S13 1.562854 1_555
N6 S3 1.700464 1_555
N7 S8 1.562854 1_555
N7 S1 1.700464 1_555
N8 S9 1.619276 1_555
N8 S15 1.625088 1_554
N9 S7 1.562142 1_554
N9 S11 1.698364 1_555
N10 S8 1.566991 1_555
N10 S12 1.701648 1_555
N11 S4 1.564869 1_555
N11 S12 1.704061 1_555
N12 S10 1.619276 1_555
N12 S3 1.625088 1_555
N13 S2 1.619276 1_555
N13 S11 1.625088 1_556
N14 S14 1.562854 1_555
N14 S11 1.700464 1_555
N15 S0 1.564869 1_555
N15 S10 1.704061 1_555
N16 S6 1.566991 1_555
N16 S9 1.701648 1_556
N17 S12 1.619276 1_555
N17 S1 1.625088 1_555
N18 S6 1.562854 1_555
N18 S15 1.700464 1_555
N19 S5 1.564869 1_555
N19 S9 1.704061 1_555
