# generated using pymatgen
data_PrAu6
_symmetry_space_group_name_H-M   'P 1'
_cell_length_a   5.55886882
_cell_length_b   5.55886948
_cell_length_c   9.15136301
_cell_angle_alpha   83.02583001
_cell_angle_beta   83.02582775
_cell_angle_gamma   90.01226821
_symmetry_Int_Tables_number   1
_chemical_formula_structural   PrAu6
_chemical_formula_sum   'Pr2 Au12'
_cell_volume   278.58520078
_cell_formula_units_Z   2
loop_
 _symmetry_equiv_pos_site_id
 _symmetry_equiv_pos_as_xyz
  1  'x, y, z'
loop_
 _atom_site_type_symbol
 _atom_site_label
 _atom_site_symmetry_multiplicity
 _atom_site_fract_x
 _atom_site_fract_y
 _atom_site_fract_z
 _atom_site_occupancy
  Pr  Pr0  1  0.31372062  0.68627938  0.75000000  1
  Pr  Pr1  1  0.68627938  0.31372062  0.25000000  1
  Au  Au0  1  0.78061303  0.61324922  0.91946426  1
  Au  Au1  1  0.38675078  0.21938697  0.58053574  1
  Au  Au2  1  0.04069558  0.15891066  0.86302037  1
  Au  Au3  1  0.15891066  0.04069558  0.36302037  1
  Au  Au4  1  0.95930442  0.84108934  0.13697963  1
  Au  Au5  1  0.83219832  0.46068351  0.62656333  1
  Au  Au6  1  0.53931649  0.16780168  0.87343667  1
  Au  Au7  1  0.84108934  0.95930442  0.63697963  1
  Au  Au8  1  0.61324922  0.78061303  0.41946426  1
  Au  Au9  1  0.46068351  0.83219832  0.12656333  1
  Au  Au10  1  0.21938697  0.38675078  0.08053574  1
  Au  Au11  1  0.16780168  0.53931649  0.37343667  1
loop_
_geom_bond_atom_site_label_1
_geom_bond_atom_site_label_2
_geom_bond_distance
_geom_bond_site_symmetry_2
Au0 Au4 2.764959 1_556
Au0 Au9 2.824665 1_556
Au0 Au5 2.889941 1_555
Au0 Au6 2.914990 1_555
Au0 Au2 2.978719 1_655
Au0 Au7 3.012875 1_555
Au0 Pr0 3.175309 1_655
Au0 Pr0 3.182916 1_555
Au0 Pr1 3.253985 1_556
Au0 Au6 3.362023 1_565
Au1 Au3 2.764959 1_555
Au1 Au11 2.824665 1_555
Au1 Au6 2.889941 1_555
Au1 Au5 2.914989 1_555
Au1 Au7 2.978718 1_545
Au1 Au2 3.012875 1_555
Au1 Pr0 3.175309 1_545
Au1 Pr0 3.182917 1_555
Au1 Pr1 3.253985 1_555
Au1 Au5 3.362023 1_455
Au2 Au6 2.777795 1_455
Au2 Au6 2.785584 1_555
Au2 Au7 2.802791 1_445
Au2 Au4 2.874045 1_446
Au2 Au5 2.927150 1_455
Au2 Pr0 3.249044 1_545
Au2 Pr0 3.293614 1_555
Au3 Au4 2.802791 1_445
Au3 Au7 2.874045 1_445
Au3 Au9 2.927150 1_545
Au3 Au8 2.978718 1_545
Au3 Pr1 3.249044 1_455
Au3 Pr1 3.293613 1_555
Au4 Au9 2.777795 1_655
Au4 Au9 2.785584 1_555
Au4 Au8 3.012875 1_555
Au4 Pr1 3.249044 1_565
Au4 Pr1 3.293614 1_555
Au5 Au7 2.777795 1_545
Au5 Au7 2.785584 1_555
Au5 Au8 2.824665 1_555
Au5 Au6 2.935621 1_555
Au5 Pr0 3.272675 1_555
Au5 Pr0 3.330220 1_655
Au5 Pr1 3.816141 1_555
Au6 Au9 2.782391 1_546
Au6 Au7 2.927150 1_545
Au6 Pr0 3.272676 1_555
Au6 Pr0 3.330220 1_545
Au6 Pr1 3.816141 1_556
Au7 Au8 2.764959 1_555
Au7 Pr0 3.249044 1_655
Au7 Pr0 3.293613 1_555
Au8 Au9 2.889941 1_555
Au8 Pr1 3.175309 1_565
Au8 Pr1 3.182917 1_555
Au8 Pr0 3.253985 1_555
Au9 Pr1 3.272676 1_555
Au9 Pr1 3.330220 1_565
Au9 Pr0 3.816141 1_554
Au10 Au2 2.764959 1_554
Au10 Au6 2.824665 1_554
Au10 Au11 2.889941 1_555
Au10 Au9 2.914990 1_555
Au10 Au4 2.978719 1_455
Au10 Au3 3.012875 1_555
Au10 Pr1 3.175309 1_455
Au10 Pr1 3.182916 1_555
Au10 Pr0 3.253985 1_554
Au10 Au9 3.362023 1_545
Au11 Au3 2.777795 1_565
Au11 Au5 2.782391 1_455
Au11 Au3 2.785584 1_555
Au11 Au8 2.914989 1_555
Au11 Au4 2.927150 1_455
Au11 Au9 2.935621 1_555
Au11 Pr1 3.272675 1_555
Au11 Pr1 3.330220 1_455
Au11 Au8 3.362023 1_455
Au11 Pr0 3.816141 1_555
