# generated using pymatgen
data_Fe2O3
_symmetry_space_group_name_H-M   'P 1'
_cell_length_a   8.27583749
_cell_length_b   8.27583749
_cell_length_c   8.27583749
_cell_angle_alpha   109.47122063
_cell_angle_beta   109.47122063
_cell_angle_gamma   109.47122063
_symmetry_Int_Tables_number   1
_chemical_formula_structural   Fe2O3
_chemical_formula_sum   'Fe16 O24'
_cell_volume   436.32889122
_cell_formula_units_Z   8
loop_
 _symmetry_equiv_pos_site_id
 _symmetry_equiv_pos_as_xyz
  1  'x, y, z'
loop_
 _atom_site_type_symbol
 _atom_site_label
 _atom_site_symmetry_multiplicity
 _atom_site_fract_x
 _atom_site_fract_y
 _atom_site_fract_z
 _atom_site_occupancy
  Fe  Fe0  1  0.25000000  0.21193900  0.96193900  1
  Fe  Fe1  1  0.28806100  0.53806100  0.75000000  1
  Fe  Fe2  1  0.75000000  0.78806100  0.03806100  1
  Fe  Fe3  1  0.03806100  0.75000000  0.78806100  1
  Fe  Fe4  1  0.25000000  0.71193900  0.46193900  1
  Fe  Fe5  1  0.96193900  0.25000000  0.21193900  1
  Fe  Fe6  1  0.53806100  0.75000000  0.28806100  1
  Fe  Fe7  1  0.46193900  0.25000000  0.71193900  1
  Fe  Fe8  1  0.00000000  0.00000000  0.50000000  1
  Fe  Fe9  1  0.75000000  0.28806100  0.53806100  1
  Fe  Fe10  1  0.21193900  0.96193900  0.25000000  1
  Fe  Fe11  1  0.78806100  0.03806100  0.75000000  1
  Fe  Fe12  1  0.71193900  0.46193900  0.25000000  1
  Fe  Fe13  1  0.50000000  0.00000000  0.00000000  1
  Fe  Fe14  1  0.50000000  0.50000000  0.50000000  1
  Fe  Fe15  1  0.00000000  0.50000000  0.00000000  1
  O  O0  1  0.27358200  0.00649800  0.04756200  1
  O  O1  1  0.26708400  0.77358200  0.72601900  1
  O  O2  1  0.72601900  0.26708400  0.77358200  1
  O  O3  1  0.04756200  0.27358200  0.00649800  1
  O  O4  1  0.49350200  0.76708400  0.04106400  1
  O  O5  1  0.00649800  0.04756200  0.27358200  1
  O  O6  1  0.22601900  0.45243800  0.45893600  1
  O  O7  1  0.54756200  0.54106400  0.77398100  1
  O  O8  1  0.50649800  0.23291600  0.95893600  1
  O  O9  1  0.23291600  0.95893600  0.50649800  1
  O  O10  1  0.54106400  0.77398100  0.54756200  1
  O  O11  1  0.95893600  0.50649800  0.23291600  1
  O  O12  1  0.95243800  0.72641800  0.99350200  1
  O  O13  1  0.04106400  0.49350200  0.76708400  1
  O  O14  1  0.73291600  0.22641800  0.27398100  1
  O  O15  1  0.77398100  0.54756200  0.54106400  1
  O  O16  1  0.45243800  0.45893600  0.22601900  1
  O  O17  1  0.76708400  0.04106400  0.49350200  1
  O  O18  1  0.45893600  0.22601900  0.45243800  1
  O  O19  1  0.77358200  0.72601900  0.26708400  1
  O  O20  1  0.99350200  0.95243800  0.72641800  1
  O  O21  1  0.22641800  0.27398100  0.73291600  1
  O  O22  1  0.72641800  0.99350200  0.95243800  1
  O  O23  1  0.27398100  0.73291600  0.22641800  1
loop_
_geom_bond_atom_site_label_1
_geom_bond_atom_site_label_2
_geom_bond_distance
_geom_bond_site_symmetry_2
Fe0 O16 2.014754 1_556
Fe0 O3 2.014758 1_556
Fe0 O20 2.080657 1_445
Fe0 O8 2.080657 1_555
Fe0 O0 2.088794 1_556
Fe0 O21 2.088799 1_555
Fe1 O21 2.014750 1_555
Fe1 O13 2.014758 1_555
Fe1 O7 2.080655 1_555
Fe1 O1 2.080660 1_555
Fe1 O6 2.088792 1_555
Fe1 O4 2.088794 1_556
Fe2 O7 2.014754 1_554
Fe2 O12 2.014758 1_554
Fe2 O4 2.080657 1_555
Fe2 O5 2.080657 1_665
Fe2 O22 2.088794 1_554
Fe2 O19 2.088799 1_555
Fe3 O15 2.014754 1_455
Fe3 O20 2.014758 1_455
Fe3 O13 2.080657 1_555
Fe3 O0 2.080657 1_566
Fe3 O12 2.088794 1_455
Fe3 O1 2.088799 1_555
Fe4 O1 2.014750 1_555
Fe4 O9 2.014758 1_555
Fe4 O6 2.080655 1_555
Fe4 O23 2.080660 1_555
Fe4 O10 2.088792 1_555
Fe4 O11 2.088794 1_455
Fe5 O6 2.014754 1_655
Fe5 O5 2.014758 1_655
Fe5 O22 2.080657 1_544
Fe5 O11 2.080657 1_555
Fe5 O3 2.088794 1_655
Fe5 O14 2.088799 1_555
Fe6 O23 2.014750 1_555
Fe6 O4 2.014758 1_555
Fe6 O10 2.080655 1_555
Fe6 O19 2.080660 1_555
Fe6 O16 2.088792 1_555
Fe6 O17 2.088794 1_565
Fe7 O2 2.014750 1_555
Fe7 O8 2.014758 1_555
Fe7 O18 2.080655 1_555
Fe7 O21 2.080660 1_555
Fe7 O7 2.088792 1_555
Fe7 O9 2.088794 1_545
Fe8 O9 2.052734 1_545
Fe8 O17 2.052734 1_455
Fe8 O5 2.052734 1_555
Fe8 O20 2.052734 1_445
Fe8 O21 2.052738 1_555
Fe8 O19 2.052738 1_445
Fe9 O14 2.014750 1_555
Fe9 O17 2.014758 1_555
Fe9 O15 2.080655 1_555
Fe9 O2 2.080660 1_555
Fe9 O18 2.088792 1_555
Fe9 O13 2.088794 1_655
Fe10 O18 2.014754 1_565
Fe10 O0 2.014758 1_565
Fe10 O12 2.080657 1_454
Fe10 O9 2.080657 1_555
Fe10 O5 2.088794 1_565
Fe10 O23 2.088799 1_555
Fe11 O10 2.014754 1_545
Fe11 O22 2.014758 1_545
Fe11 O17 2.080657 1_555
Fe11 O3 2.080657 1_656
Fe11 O20 2.088794 1_545
Fe11 O2 2.088799 1_555
Fe12 O19 2.014750 1_555
Fe12 O11 2.014758 1_555
Fe12 O16 2.080655 1_555
Fe12 O14 2.080660 1_555
Fe12 O15 2.088792 1_555
Fe12 O8 2.088794 1_554
Fe13 O8 2.052734 1_554
Fe13 O4 2.052734 1_545
Fe13 O0 2.052734 1_555
Fe13 O22 2.052734 1_544
Fe13 O14 2.052738 1_555
Fe13 O1 2.052738 1_544
Fe14 O7 2.052742 1_555
Fe14 O10 2.052742 1_555
Fe14 O15 2.052742 1_555
Fe14 O18 2.052742 1_555
Fe14 O6 2.052742 1_555
Fe14 O16 2.052742 1_555
Fe15 O11 2.052734 1_455
Fe15 O13 2.052734 1_554
Fe15 O3 2.052734 1_555
Fe15 O12 2.052734 1_454
Fe15 O23 2.052738 1_555
Fe15 O2 2.052738 1_454
