# generated using pymatgen
data_EuClF
_symmetry_space_group_name_H-M   'P 1'
_cell_length_a   4.08367072
_cell_length_b   4.08367072
_cell_length_c   6.97853229
_cell_angle_alpha   90.00000000
_cell_angle_beta   90.00000000
_cell_angle_gamma   90.00000000
_symmetry_Int_Tables_number   1
_chemical_formula_structural   EuClF
_chemical_formula_sum   'Eu2 Cl2 F2'
_cell_volume   116.37656244
_cell_formula_units_Z   2
loop_
 _symmetry_equiv_pos_site_id
 _symmetry_equiv_pos_as_xyz
  1  'x, y, z'
loop_
 _atom_site_type_symbol
 _atom_site_label
 _atom_site_symmetry_multiplicity
 _atom_site_fract_x
 _atom_site_fract_y
 _atom_site_fract_z
 _atom_site_occupancy
  Eu  Eu0  1  0.75000000  0.75000000  0.79401802  1
  Eu  Eu1  1  0.25000000  0.25000000  0.20598198  1
  Cl  Cl0  1  0.75000000  0.75000000  0.35500378  1
  Cl  Cl1  1  0.25000000  0.25000000  0.64499622  1
  F  F0  1  0.75000000  0.25000000  0.00000000  1
  F  F1  1  0.25000000  0.75000000  -0.00000000  1
loop_
_geom_bond_atom_site_label_1
_geom_bond_atom_site_label_2
_geom_bond_distance
_geom_bond_site_symmetry_2
Eu0 F0 2.497070 1_556
Eu0 F1 2.497070 1_556
Eu0 F0 2.497070 1_566
Eu0 F1 2.497070 1_656
Eu1 F0 2.497070 1_455
Eu1 F0 2.497070 1_555
Eu1 F1 2.497070 1_555
Eu1 F1 2.497070 1_545
Cl0 Eu0 3.063675 1_555
Cl0 Eu1 3.069151 1_665
Cl0 Eu1 3.069151 1_565
Cl0 Eu1 3.069151 1_555
Cl0 Eu1 3.069151 1_655
Cl1 Eu1 3.063675 1_555
Cl1 Eu0 3.069151 1_555
Cl1 Eu0 3.069151 1_445
Cl1 Eu0 3.069151 1_545
Cl1 Eu0 3.069151 1_455
