# generated using pymatgen
data_CoSeO4
_symmetry_space_group_name_H-M   'P 1'
_cell_length_a   4.89393738
_cell_length_b   4.89395285
_cell_length_c   6.52477230
_cell_angle_alpha   90.00732374
_cell_angle_beta   90.00334287
_cell_angle_gamma   112.29997095
_symmetry_Int_Tables_number   1
_chemical_formula_structural   CoSeO4
_chemical_formula_sum   'Co2 Se2 O8'
_cell_volume   144.58519292
_cell_formula_units_Z   2
loop_
 _symmetry_equiv_pos_site_id
 _symmetry_equiv_pos_as_xyz
  1  'x, y, z'
loop_
 _atom_site_type_symbol
 _atom_site_label
 _atom_site_symmetry_multiplicity
 _atom_site_fract_x
 _atom_site_fract_y
 _atom_site_fract_z
 _atom_site_occupancy
  Co  Co0  1  -0.00000000  0.00000000  0.00000000  1
  Co  Co1  1  -0.00000000  0.00000000  0.50000000  1
  Se  Se0  1  0.64983121  0.35009326  0.25006389  1
  Se  Se1  1  0.35016879  0.64990674  0.74993611  1
  O  O0  1  0.75808706  0.24191606  0.46321537  1
  O  O1  1  0.24191294  0.75808394  0.53678463  1
  O  O2  1  0.22252081  0.27887434  0.74993457  1
  O  O3  1  0.77747919  0.72112566  0.25006543  1
  O  O4  1  0.75810432  0.24196387  0.03688689  1
  O  O5  1  0.24189568  0.75803613  0.96311311  1
  O  O6  1  0.72125078  0.77782104  0.74997927  1
  O  O7  1  0.27874922  0.22217896  0.25002073  1
loop_
_geom_bond_atom_site_label_1
_geom_bond_atom_site_label_2
_geom_bond_distance
_geom_bond_site_symmetry_2
Co0 O5 1.981268 1_544
Co0 O4 1.981268 1_455
Co0 O7 2.139648 1_555
Co0 O6 2.139648 1_444
Co0 O3 2.140938 1_445
Co0 O2 2.140938 1_554
Co1 O1 1.981084 1_545
Co1 O0 1.981084 1_455
Co1 O6 2.139775 1_445
Co1 O7 2.139775 1_555
Co1 O2 2.139924 1_555
Co1 O3 2.139924 1_445
O0 Se0 1.645647 1_555
O1 Se1 1.645647 1_555
O2 Se1 1.681241 1_555
O3 Se0 1.681241 1_555
O4 Se0 1.645660 1_555
O5 Se1 1.645660 1_555
O6 Se1 1.681414 1_555
O7 Se0 1.681414 1_555
