# generated using pymatgen
data_SiO2
_symmetry_space_group_name_H-M   'P 1'
_cell_length_a   8.78446761
_cell_length_b   8.78446761
_cell_length_c   4.29823000
_cell_angle_alpha   90.00000000
_cell_angle_beta   90.00000000
_cell_angle_gamma   119.99999709
_symmetry_Int_Tables_number   1
_chemical_formula_structural   SiO2
_chemical_formula_sum   'Si6 O12'
_cell_volume   287.24414661
_cell_formula_units_Z   6
loop_
 _symmetry_equiv_pos_site_id
 _symmetry_equiv_pos_as_xyz
  1  'x, y, z'
loop_
 _atom_site_type_symbol
 _atom_site_label
 _atom_site_symmetry_multiplicity
 _atom_site_fract_x
 _atom_site_fract_y
 _atom_site_fract_z
 _atom_site_occupancy
  Si  Si0  1  0.00000000  0.65933200  0.33791300  1
  Si  Si1  1  0.65933200  0.00000000  0.33791300  1
  Si  Si2  1  0.34066800  0.00000000  0.66208700  1
  Si  Si3  1  0.34066800  0.34066800  0.33791300  1
  Si  Si4  1  0.00000000  0.34066800  0.66208700  1
  Si  Si5  1  0.65933200  0.65933200  0.66208700  1
  O  O0  1  0.66696700  0.83348400  0.50000000  1
  O  O1  1  0.00000000  0.50000000  0.00000000  1
  O  O2  1  0.16651600  0.83348400  0.50000000  1
  O  O3  1  0.16651600  0.33303300  0.50000000  1
  O  O4  1  0.50000000  0.50000000  0.50000000  1
  O  O5  1  0.83348400  0.66696700  0.50000000  1
  O  O6  1  0.33303300  0.16651600  0.50000000  1
  O  O7  1  0.83348400  0.16651600  0.50000000  1
  O  O8  1  0.50000000  0.00000000  0.00000000  1
  O  O9  1  0.00000000  0.50000000  0.50000000  1
  O  O10  1  0.50000000  0.00000000  0.50000000  1
  O  O11  1  0.50000000  0.50000000  0.00000000  1
loop_
_geom_bond_atom_site_label_1
_geom_bond_atom_site_label_2
_geom_bond_distance
_geom_bond_site_symmetry_2
O0 Si1 1.651553 1_565
O0 Si5 1.651561 1_555
O1 Si4 2.017067 1_554
O1 Si0 2.017067 1_555
O2 Si0 1.651557 1_555
O2 Si2 1.651557 1_565
O3 Si4 1.651553 1_555
O3 Si3 1.651561 1_555
O4 Si3 1.563453 1_555
O4 Si5 1.563453 1_555
O5 Si0 1.651553 1_655
O5 Si5 1.651561 1_555
O6 Si2 1.651553 1_555
O6 Si3 1.651561 1_555
O7 Si1 1.651557 1_555
O7 Si4 1.651557 1_655
O8 Si2 2.017067 1_554
O8 Si1 2.017067 1_555
O9 Si4 1.563453 1_555
O9 Si0 1.563453 1_555
O10 Si2 1.563453 1_555
O10 Si1 1.563453 1_555
O11 Si3 2.017067 1_555
O11 Si5 2.017067 1_554
