# generated using pymatgen
data_LiAgC2
_symmetry_space_group_name_H-M   'P 1'
_cell_length_a   3.84160566
_cell_length_b   3.84160566
_cell_length_c   5.35559600
_cell_angle_alpha   90.00000000
_cell_angle_beta   90.00000000
_cell_angle_gamma   119.99999422
_symmetry_Int_Tables_number   1
_chemical_formula_structural   LiAgC2
_chemical_formula_sum   'Li1 Ag1 C2'
_cell_volume   68.44851519
_cell_formula_units_Z   1
loop_
 _symmetry_equiv_pos_site_id
 _symmetry_equiv_pos_as_xyz
  1  'x, y, z'
loop_
 _atom_site_type_symbol
 _atom_site_label
 _atom_site_symmetry_multiplicity
 _atom_site_fract_x
 _atom_site_fract_y
 _atom_site_fract_z
 _atom_site_occupancy
  Li  Li0  1  0.00000000  0.00000000  0.50000000  1
  Ag  Ag0  1  0.66666700  0.33333300  0.00000000  1
  C  C0  1  0.66666700  0.33333300  0.38337700  1
  C  C1  1  0.66666700  0.33333300  0.61662300  1
loop_
_geom_bond_atom_site_label_1
_geom_bond_atom_site_label_2
_geom_bond_distance
_geom_bond_site_symmetry_2
Ag0 C0 2.053212 1_555
Ag0 C1 2.053212 1_554
C0 C1 1.249171 1_555
C0 Li0 2.304215 1_655
C0 Li0 2.304219 1_665
C0 Li0 2.304219 1_555
C1 Li0 2.304215 1_655
C1 Li0 2.304219 1_555
C1 Li0 2.304219 1_665
