# generated using pymatgen
data_K4V3S5O23
_symmetry_space_group_name_H-M   'P 1'
_cell_length_a   16.38989300
_cell_length_b   8.90879500
_cell_length_c   14.82098046
_cell_angle_alpha   71.35752797
_cell_angle_beta   90.00000000
_cell_angle_gamma   90.00000000
_symmetry_Int_Tables_number   1
_chemical_formula_structural   K4V3S5O23
_chemical_formula_sum   'K16 V12 S20 O92'
_cell_volume   2050.52832474
_cell_formula_units_Z   4
loop_
 _symmetry_equiv_pos_site_id
 _symmetry_equiv_pos_as_xyz
  1  'x, y, z'
loop_
 _atom_site_type_symbol
 _atom_site_label
 _atom_site_symmetry_multiplicity
 _atom_site_fract_x
 _atom_site_fract_y
 _atom_site_fract_z
 _atom_site_occupancy
  K  K0  1  0.20228300  0.28533100  0.23830000  1
  K  K1  1  0.02354800  0.62354600  0.62279100  1
  K  K2  1  0.25232900  0.75411900  0.48655000  1
  K  K3  1  0.47428000  0.86470000  0.35600000  1
  K  K4  1  0.75232900  0.24588100  0.01345000  1
  K  K5  1  0.52572000  0.13530000  0.64400000  1
  K  K6  1  0.29771700  0.28533100  0.73830000  1
  K  K7  1  0.97428000  0.13530000  0.14400000  1
  K  K8  1  0.47645200  0.62354600  0.12279100  1
  K  K9  1  0.52354800  0.37645400  0.87720900  1
  K  K10  1  0.70228300  0.71466900  0.26170000  1
  K  K11  1  0.74767100  0.24588100  0.51345000  1
  K  K12  1  0.97645200  0.37645400  0.37720900  1
  K  K13  1  0.24767100  0.75411900  0.98655000  1
  K  K14  1  0.79771700  0.71466900  0.76170000  1
  K  K15  1  0.02572000  0.86470000  0.85600000  1
  V  V0  1  0.63862300  0.59725700  0.57982900  1
  V  V1  1  0.14105900  0.07606000  0.58799000  1
  V  V2  1  0.89088300  0.26213800  0.74635900  1
  V  V3  1  0.35894100  0.07606000  0.08799000  1
  V  V4  1  0.85894100  0.92394000  0.41201000  1
  V  V5  1  0.86137700  0.59725700  0.07982900  1
  V  V6  1  0.60911700  0.26213800  0.24635900  1
  V  V7  1  0.13862300  0.40274300  0.92017100  1
  V  V8  1  0.39088300  0.73786200  0.75364100  1
  V  V9  1  0.64105900  0.92394000  0.91201000  1
  V  V10  1  0.10911700  0.73786200  0.25364100  1
  V  V11  1  0.36137700  0.40274300  0.42017100  1
  S  S0  1  0.65578800  0.96223000  0.44103000  1
  S  S1  1  0.56286000  0.44181700  0.39907300  1
  S  S2  1  0.93714000  0.44181700  0.89907300  1
  S  S3  1  0.32163400  0.71791200  0.23549300  1
  S  S4  1  0.17836600  0.71791200  0.73549300  1
  S  S5  1  0.93524800  0.05740300  0.60131400  1
  S  S6  1  0.15578800  0.03777000  0.05897000  1
  S  S7  1  0.83857500  0.56487300  0.55572400  1
  S  S8  1  0.43524800  0.94259700  0.89868600  1
  S  S9  1  0.34421200  0.03777000  0.55897000  1
  S  S10  1  0.66142500  0.56487300  0.05572400  1
  S  S11  1  0.67836600  0.28208800  0.76450700  1
  S  S12  1  0.16142500  0.43512700  0.44427600  1
  S  S13  1  0.56475200  0.05740300  0.10131400  1
  S  S14  1  0.84421200  0.96223000  0.94103000  1
  S  S15  1  0.33857500  0.43512700  0.94427600  1
  S  S16  1  0.43714000  0.55818300  0.60092700  1
  S  S17  1  0.82163400  0.28208800  0.26450700  1
  S  S18  1  0.06475200  0.94259700  0.39868600  1
  S  S19  1  0.06286000  0.55818300  0.10092700  1
  O  O0  1  0.15057400  0.26104800  0.46089200  1
  O  O1  1  0.12361800  0.85987800  0.69089500  1
  O  O2  1  0.25484400  0.99937600  0.56041900  1
  O  O3  1  0.38174000  0.83640900  0.86223300  1
  O  O4  1  0.44902200  0.39993900  0.66890400  1
  O  O5  1  0.87969800  0.03773800  0.84300000  1
  O  O6  1  0.39004400  0.49567300  0.00418900  1
  O  O7  1  0.37038700  0.62673000  0.32229100  1
  O  O8  1  0.32827500  0.31314600  0.34762500  1
  O  O9  1  0.62361800  0.14012200  0.80910500  1
  O  O10  1  0.62030200  0.03773800  0.34300000  1
  O  O11  1  0.65057400  0.73895200  0.03910800  1
  O  O12  1  0.51593100  0.64849400  0.57737500  1
  O  O13  1  0.05097800  0.39993900  0.16890400  1
  O  O14  1  0.24930200  0.46874300  0.45973300  1
  O  O15  1  0.82752000  0.82968600  0.34091600  1
  O  O16  1  0.11826000  0.83640900  0.36223300  1
  O  O17  1  0.12193300  0.65205500  0.14047300  1
  O  O18  1  0.88363400  0.01599700  0.01297200  1
  O  O19  1  0.98150700  0.86807900  0.41797600  1
  O  O20  1  0.87038700  0.37327000  0.17770900  1
  O  O21  1  0.25587100  0.77123400  0.76619700  1
  O  O22  1  0.60995600  0.50432700  0.99581100  1
  O  O23  1  0.94902200  0.60006100  0.83109600  1
  O  O24  1  0.37638200  0.85987800  0.19089500  1
  O  O25  1  0.25069800  0.46874300  0.95973300  1
  O  O26  1  0.10213200  0.93583800  0.49178300  1
  O  O27  1  0.82827500  0.68685400  0.15237500  1
  O  O28  1  0.37969800  0.96226200  0.65700000  1
  O  O29  1  0.85577700  0.78844200  0.95590700  1
  O  O30  1  0.17172500  0.31314600  0.84762500  1
  O  O31  1  0.74930200  0.53125700  0.04026700  1
  O  O32  1  0.75069800  0.53125700  0.54026700  1
  O  O33  1  0.61826000  0.16359100  0.13776700  1
  O  O34  1  0.24515600  0.99937600  0.06041900  1
  O  O35  1  0.64073200  0.49064800  0.16007500  1
  O  O36  1  0.35926800  0.50935200  0.83992500  1
  O  O37  1  0.14073200  0.50935200  0.33992500  1
  O  O38  1  0.32752000  0.17031400  0.15908400  1
  O  O39  1  0.39786800  0.93583800  0.99178300  1
  O  O40  1  0.10068700  0.55538000  0.01004900  1
  O  O41  1  0.35577700  0.21155800  0.54409300  1
  O  O42  1  0.67248000  0.82968600  0.84091600  1
  O  O43  1  0.74412900  0.22876600  0.23380300  1
  O  O44  1  0.01066300  0.71621600  0.26247600  1
  O  O45  1  0.89931300  0.44462000  0.98995100  1
  O  O46  1  0.39931300  0.55538000  0.51004900  1
  O  O47  1  0.64422300  0.78844200  0.45590700  1
  O  O48  1  0.93860300  0.89746100  0.66936200  1
  O  O49  1  0.37806700  0.65205500  0.64047300  1
  O  O50  1  0.18950600  0.62599300  0.67064100  1
  O  O51  1  0.85926800  0.49064800  0.66007500  1
  O  O52  1  0.01849300  0.13192100  0.58202400  1
  O  O53  1  0.98406900  0.64849400  0.07737500  1
  O  O54  1  0.12030200  0.96226200  0.15700000  1
  O  O55  1  0.51066300  0.28378400  0.23752400  1
  O  O56  1  0.60068700  0.44462000  0.48995100  1
  O  O57  1  0.89004400  0.50432700  0.49581100  1
  O  O58  1  0.10995600  0.49567300  0.50418900  1
  O  O59  1  0.48406900  0.35150600  0.42262500  1
  O  O60  1  0.88174000  0.16359100  0.63776700  1
  O  O61  1  0.12961300  0.62673000  0.82229100  1
  O  O62  1  0.62193300  0.34794500  0.35952700  1
  O  O63  1  0.48933700  0.71621600  0.76247600  1
  O  O64  1  0.56139700  0.89746100  0.16936200  1
  O  O65  1  0.89786800  0.06416200  0.50821700  1
  O  O66  1  0.87806700  0.34794500  0.85952700  1
  O  O67  1  0.81049400  0.37400700  0.32935900  1
  O  O68  1  0.31049400  0.62599300  0.17064100  1
  O  O69  1  0.74515600  0.00062400  0.43958100  1
  O  O70  1  0.17248000  0.17031400  0.65908400  1
  O  O71  1  0.24412900  0.77123400  0.26619700  1
  O  O72  1  0.11636600  0.98400300  0.98702800  1
  O  O73  1  0.55097800  0.60006100  0.33109600  1
  O  O74  1  0.60213200  0.06416200  0.00821700  1
  O  O75  1  0.67172500  0.68685400  0.65237500  1
  O  O76  1  0.01593100  0.35150600  0.92262500  1
  O  O77  1  0.43860300  0.10253900  0.83063800  1
  O  O78  1  0.75587100  0.22876600  0.73380300  1
  O  O79  1  0.62961300  0.37327000  0.67770900  1
  O  O80  1  0.06139700  0.10253900  0.33063800  1
  O  O81  1  0.75484400  0.00062400  0.93958100  1
  O  O82  1  0.34942600  0.26104800  0.96089200  1
  O  O83  1  0.48150700  0.13192100  0.08202400  1
  O  O84  1  0.68950600  0.37400700  0.82935900  1
  O  O85  1  0.61636600  0.01599700  0.51297200  1
  O  O86  1  0.38363400  0.98400300  0.48702800  1
  O  O87  1  0.87638200  0.14012200  0.30910500  1
  O  O88  1  0.98933700  0.28378400  0.73752400  1
  O  O89  1  0.84942600  0.73895200  0.53910800  1
  O  O90  1  0.51849300  0.86807900  0.91797600  1
  O  O91  1  0.14422300  0.21155800  0.04409300  1
loop_
_geom_bond_atom_site_label_1
_geom_bond_atom_site_label_2
_geom_bond_distance
_geom_bond_site_symmetry_2
K0 O8 2.684714 1_555
K0 O38 2.722263 1_555
K0 O13 2.752947 1_555
K0 O80 2.903781 1_555
K0 O37 3.031687 1_555
K1 O58 2.770112 1_555
K1 O50 2.812807 1_555
K1 O51 2.922083 1_455
K1 O88 3.012849 1_455
K1 O48 3.073501 1_455
K1 O1 3.082269 1_555
K1 O26 3.116998 1_555
K1 O89 3.150314 1_455
K1 O19 3.194907 1_455
K1 O23 3.264067 1_455
K1 O57 3.276524 1_455
K2 O14 2.696298 1_555
K2 O2 2.739273 1_555
K2 O50 2.795757 1_555
K2 O16 2.810187 1_555
K2 O46 2.943698 1_555
K2 O26 2.960937 1_555
K2 O86 2.972375 1_555
K2 O49 2.991978 1_555
K2 O71 3.223153 1_555
K2 O58 3.229533 1_555
K3 O73 2.798420 1_555
K3 O10 2.819832 1_565
K3 O7 2.884575 1_555
K3 O86 2.903045 1_555
K3 O24 2.937940 1_555
K3 O64 3.042924 1_555
K3 O47 3.125556 1_555
K3 O46 3.208401 1_555
K3 O12 3.301613 1_555
K4 O31 2.696298 1_555
K4 O81 2.739273 1_554
K4 O84 2.795757 1_554
K4 O33 2.810187 1_555
K4 O45 2.943698 1_554
K4 O74 2.960937 1_555
K4 O18 2.972375 1_555
K4 O66 2.991978 1_554
K4 O43 3.223153 1_555
K4 O22 3.229533 1_554
K5 O4 2.798420 1_555
K5 O28 2.819832 1_545
K5 O79 2.884575 1_555
K5 O85 2.903045 1_555
K5 O9 2.937940 1_555
K5 O77 3.042924 1_555
K5 O41 3.125556 1_555
K5 O56 3.208401 1_555
K5 O59 3.301613 1_555
K6 O30 2.684714 1_555
K6 O70 2.722263 1_555
K6 O4 2.752947 1_555
K6 O77 2.903781 1_555
K6 O36 3.031687 1_555
K7 O13 2.798420 1_655
K7 O54 2.819832 1_645
K7 O20 2.884575 1_555
K7 O18 2.903045 1_555
K7 O87 2.937940 1_555
K7 O80 3.042924 1_655
K7 O91 3.125556 1_655
K7 O45 3.208401 1_554
K7 O76 3.301613 1_654
K8 O6 2.770112 1_555
K8 O68 2.812807 1_555
K8 O35 2.922083 1_555
K8 O55 3.012849 1_555
K8 O64 3.073501 1_555
K8 O24 3.082269 1_555
K8 O39 3.116998 1_554
K8 O11 3.150314 1_555
K8 O90 3.194907 1_554
K8 O73 3.264067 1_555
K8 O22 3.276524 1_554
K9 O22 2.770112 1_555
K9 O84 2.812807 1_555
K9 O36 2.922083 1_555
K9 O63 3.012849 1_555
K9 O77 3.073501 1_555
K9 O9 3.082269 1_555
K9 O74 3.116998 1_556
K9 O82 3.150314 1_555
K9 O83 3.194907 1_556
K9 O4 3.264067 1_555
K9 O6 3.276524 1_556
K10 O27 2.684714 1_555
K10 O15 2.722263 1_555
K10 O73 2.752947 1_555
K10 O64 2.903781 1_555
K10 O35 3.031687 1_555
K11 O32 2.696298 1_555
K11 O69 2.739273 1_555
K11 O67 2.795757 1_555
K11 O60 2.810187 1_555
K11 O56 2.943698 1_555
K11 O65 2.960937 1_555
K11 O85 2.972375 1_555
K11 O62 2.991978 1_555
K11 O78 3.223153 1_555
K11 O57 3.229533 1_555
K12 O57 2.770112 1_555
K12 O67 2.812807 1_555
K12 O37 2.922083 1_655
K12 O44 3.012849 1_655
K12 O80 3.073501 1_655
K12 O87 3.082269 1_555
K12 O65 3.116998 1_555
K12 O0 3.150314 1_655
K12 O52 3.194907 1_655
K12 O13 3.264067 1_655
K12 O58 3.276524 1_655
K13 O25 2.696298 1_555
K13 O34 2.739273 1_556
K13 O68 2.795757 1_556
K13 O3 2.810187 1_555
K13 O40 2.943698 1_556
K13 O39 2.960937 1_555
K13 O72 2.972375 1_555
K13 O17 2.991978 1_556
K13 O21 3.223153 1_555
K13 O6 3.229533 1_556
K14 O75 2.684714 1_555
K14 O42 2.722263 1_555
K14 O23 2.752947 1_555
K14 O48 2.903781 1_555
K14 O51 3.031687 1_555
K15 O23 2.798420 1_455
K15 O5 2.819832 1_465
K15 O61 2.884575 1_555
K15 O72 2.903045 1_555
K15 O1 2.937940 1_555
K15 O48 3.042924 1_455
K15 O29 3.125556 1_455
K15 O40 3.208401 1_556
K15 O53 3.301613 1_456
O0 S12 1.501064 1_555
O0 V1 2.074599 1_555
O1 S4 1.518946 1_555
O1 V1 2.058902 1_565
O2 S9 1.502731 1_565
O2 V1 2.071256 1_565
O3 S8 1.510857 1_555
O3 V8 2.070477 1_555
O4 S16 1.460255 1_555
O5 S14 1.508926 1_545
O5 V2 2.061804 1_555
O6 S15 1.448192 1_554
O7 S3 1.511679 1_555
O7 V11 2.063352 1_555
O8 V11 1.623644 1_555
O9 S11 1.518946 1_555
O9 V9 2.058902 1_545
O10 S0 1.508926 1_545
O10 V6 2.061804 1_555
O11 S10 1.501064 1_555
O11 V9 2.074599 1_554
O12 S16 1.502421 1_555
O12 V0 2.059810 1_555
O13 S19 1.460255 1_555
O14 S12 1.503489 1_555
O14 V11 2.069814 1_555
O15 V4 1.626711 1_555
O16 S18 1.510857 1_555
O16 V10 2.070477 1_555
O17 S19 1.514490 1_555
O17 V10 2.064317 1_555
O18 S14 1.452697 1_544
O19 S18 1.504206 1_655
O19 V4 2.064655 1_555
O20 S17 1.511679 1_555
O20 V5 2.063352 1_555
O21 S4 1.478040 1_555
O21 V8 2.248337 1_555
O22 S10 1.448192 1_556
O23 S2 1.460255 1_555
O24 S3 1.518946 1_555
O24 V3 2.058902 1_565
O25 S15 1.503489 1_555
O25 V7 2.069814 1_555
O26 S18 1.493208 1_555
O26 V1 2.267046 1_565
O27 V5 1.623644 1_555
O28 S9 1.508926 1_565
O28 V8 2.061804 1_555
O29 S14 1.504443 1_555
O29 V5 2.069475 1_556
O30 V7 1.623644 1_555
O31 S10 1.503489 1_555
O31 V5 2.069814 1_555
O32 S7 1.503489 1_555
O32 V0 2.069814 1_555
O33 S13 1.510857 1_555
O33 V6 2.070477 1_555
O34 S6 1.502731 1_565
O34 V3 2.071256 1_565
O35 S10 1.513400 1_555
O35 V6 2.093742 1_555
O36 S15 1.513400 1_555
O36 V8 2.093742 1_555
O37 S12 1.513400 1_555
O37 V10 2.093742 1_555
O38 V3 1.626711 1_555
O39 S8 1.493208 1_555
O39 V3 2.267046 1_566
O40 S19 1.490183 1_555
O40 V7 2.273362 1_554
O41 S9 1.504443 1_555
O41 V11 2.069475 1_555
O42 V9 1.626711 1_555
O43 S17 1.478040 1_555
O43 V6 2.248337 1_555
O44 V10 1.625441 1_555
O45 S2 1.490183 1_555
O45 V5 2.273362 1_556
O46 S16 1.490183 1_555
O46 V11 2.273362 1_555
O47 S0 1.504443 1_555
O47 V0 2.069475 1_555
O48 S5 1.460049 1_565
O49 S16 1.514490 1_555
O49 V8 2.064317 1_555
O50 S4 1.459783 1_555
O51 S7 1.513400 1_555
O51 V2 2.093742 1_555
O52 S5 1.504206 1_455
O52 V1 2.064655 1_555
O53 S19 1.502421 1_655
O53 V5 2.059810 1_555
O54 S6 1.508926 1_565
O54 V10 2.061804 1_555
O55 V6 1.625441 1_555
O56 S1 1.490183 1_555
O56 V0 2.273362 1_555
O57 S7 1.448192 1_555
O58 S12 1.448192 1_555
O59 S1 1.502421 1_555
O59 V11 2.059810 1_555
O60 S5 1.510857 1_555
O60 V2 2.070477 1_555
O61 S4 1.511679 1_555
O61 V7 2.063352 1_555
O62 S1 1.514490 1_555
O62 V6 2.064317 1_555
O63 V8 1.625441 1_555
O64 S13 1.460049 1_565
O65 S5 1.493208 1_555
O65 V4 2.267046 1_545
O66 S2 1.514490 1_555
O66 V2 2.064317 1_555
O67 S17 1.459783 1_555
O68 S3 1.459783 1_555
O69 S0 1.502731 1_545
O69 V4 2.071256 1_545
O70 V1 1.626711 1_555
O71 S3 1.478040 1_555
O71 V10 2.248337 1_555
O72 S6 1.452697 1_566
O73 S1 1.460255 1_555
O74 S13 1.493208 1_555
O74 V9 2.267046 1_544
O75 V0 1.623644 1_555
O76 S2 1.502421 1_455
O76 V7 2.059810 1_555
O77 S8 1.460049 1_545
O78 S11 1.478040 1_555
O78 V2 2.248337 1_555
O79 S11 1.511679 1_555
O79 V0 2.063352 1_555
O80 S18 1.460049 1_545
O81 S14 1.502731 1_545
O81 V9 2.071256 1_545
O82 S15 1.501064 1_555
O82 V3 2.074599 1_556
O83 S13 1.504206 1_555
O83 V3 2.064655 1_555
O84 S11 1.459783 1_555
O85 S0 1.452697 1_545
O86 S9 1.452697 1_565
O87 S17 1.518946 1_555
O87 V4 2.058902 1_545
O88 V2 1.625441 1_555
O89 S7 1.501064 1_555
O89 V4 2.074599 1_555
O90 S8 1.504206 1_555
O90 V9 2.064655 1_555
O91 S6 1.504443 1_555
O91 V7 2.069475 1_554
