# generated using pymatgen
data_ScH3(CO2)3
_symmetry_space_group_name_H-M   'P 1'
_cell_length_a   6.77083000
_cell_length_b   9.19388200
_cell_length_c   10.54948067
_cell_angle_alpha   81.76662614
_cell_angle_beta   90.00000000
_cell_angle_gamma   90.00000000
_symmetry_Int_Tables_number   1
_chemical_formula_structural   ScH3(CO2)3
_chemical_formula_sum   'Sc4 H12 C12 O24'
_cell_volume   649.93871484
_cell_formula_units_Z   4
loop_
 _symmetry_equiv_pos_site_id
 _symmetry_equiv_pos_as_xyz
  1  'x, y, z'
loop_
 _atom_site_type_symbol
 _atom_site_label
 _atom_site_symmetry_multiplicity
 _atom_site_fract_x
 _atom_site_fract_y
 _atom_site_fract_z
 _atom_site_occupancy
  Sc  Sc0  1  0.50000000  0.50000000  0.00000000  1
  Sc  Sc1  1  0.00000000  0.00000000  0.00000000  1
  Sc  Sc2  1  0.50000000  0.00000000  0.50000000  1
  Sc  Sc3  1  0.00000000  0.50000000  0.50000000  1
  H  H0  1  0.34540700  0.79384300  0.26188600  1
  H  H1  1  0.03723400  0.36876000  0.87203200  1
  H  H2  1  0.53723400  0.13124000  0.12796800  1
  H  H3  1  0.29639600  0.70775600  0.67621300  1
  H  H4  1  0.20360400  0.20775600  0.67621300  1
  H  H5  1  0.70360400  0.29224400  0.32378700  1
  H  H6  1  0.84540700  0.70615700  0.73811400  1
  H  H7  1  0.79639600  0.79224400  0.32378700  1
  H  H8  1  0.15459300  0.29384300  0.26188600  1
  H  H9  1  0.96276600  0.63124000  0.12796800  1
  H  H10  1  0.65459300  0.20615700  0.73811400  1
  H  H11  1  0.46276600  0.86876000  0.87203200  1
  C  C0  1  0.40598100  0.15571100  0.06649900  1
  C  C1  1  0.19978000  0.08893600  0.71290800  1
  C  C2  1  0.09401900  0.65571100  0.06649900  1
  C  C3  1  0.90598100  0.34428900  0.93350100  1
  C  C4  1  0.80022000  0.91106400  0.28709200  1
  C  C5  1  0.59401900  0.84428900  0.93350100  1
  C  C6  1  0.30022000  0.58893600  0.71290800  1
  C  C7  1  0.29161600  0.75183500  0.35946200  1
  C  C8  1  0.70838400  0.24816500  0.64053800  1
  C  C9  1  0.79161600  0.74816500  0.64053800  1
  C  C10  1  0.69978000  0.41106400  0.28709200  1
  C  C11  1  0.20838400  0.25183500  0.35946200  1
  O  O0  1  0.19986700  0.50258500  0.65426400  1
  O  O1  1  0.32109600  0.14103400  0.37103900  1
  O  O2  1  0.82109600  0.35896600  0.62896100  1
  O  O3  1  0.84561300  0.68217400  0.54867700  1
  O  O4  1  0.78191600  0.44761800  0.93515200  1
  O  O5  1  0.30013300  0.00258500  0.65426400  1
  O  O6  1  0.34561300  0.81782600  0.45132300  1
  O  O7  1  0.21808400  0.55238200  0.06484800  1
  O  O8  1  0.69986700  0.99741500  0.34573600  1
  O  O9  1  0.28191600  0.05238200  0.06484800  1
  O  O10  1  0.80013300  0.49741500  0.34573600  1
  O  O11  1  0.15438700  0.31782600  0.45132300  1
  O  O12  1  0.38854900  0.28268900  0.00273500  1
  O  O13  1  0.61145100  0.71731100  0.99726500  1
  O  O14  1  0.59421300  0.45314900  0.19000600  1
  O  O15  1  0.09421300  0.04685100  0.80999400  1
  O  O16  1  0.88854900  0.21731100  0.99726500  1
  O  O17  1  0.11145100  0.78268900  0.00273500  1
  O  O18  1  0.17890400  0.64103400  0.37103900  1
  O  O19  1  0.67890400  0.85896600  0.62896100  1
  O  O20  1  0.40578700  0.54685100  0.80999400  1
  O  O21  1  0.71808400  0.94761800  0.93515200  1
  O  O22  1  0.65438700  0.18217400  0.54867700  1
  O  O23  1  0.90578700  0.95314900  0.19000600  1
loop_
_geom_bond_atom_site_label_1
_geom_bond_atom_site_label_2
_geom_bond_distance
_geom_bond_site_symmetry_2
C0 H2 1.104135 1_555
C0 O12 1.266641 1_555
C0 O9 1.270107 1_555
C1 H4 1.105795 1_555
C1 O15 1.263374 1_555
C1 O5 1.270976 1_555
C2 H9 1.104135 1_455
C2 O17 1.266641 1_555
C2 O7 1.270107 1_555
C3 H1 1.104135 1_655
C3 O16 1.266641 1_555
C3 O4 1.270107 1_555
C4 H7 1.105795 1_555
C4 O23 1.263374 1_555
C4 O8 1.270976 1_555
C5 H11 1.104135 1_555
C5 O13 1.266641 1_555
C5 O21 1.270107 1_555
C6 H3 1.105795 1_555
C6 O20 1.263374 1_555
C6 O0 1.270976 1_555
C7 H0 1.107954 1_555
C7 O18 1.264681 1_555
C7 O6 1.268579 1_555
C8 H10 1.107954 1_555
C8 O2 1.264681 1_555
C8 O22 1.268579 1_555
C9 H6 1.107954 1_555
C9 O19 1.264681 1_555
C9 O3 1.268579 1_555
C10 H5 1.105795 1_555
C10 O14 1.263374 1_555
C10 O10 1.270976 1_555
C11 H8 1.107954 1_555
C11 O1 1.264681 1_555
C11 O11 1.268579 1_555
O0 Sc3 2.119296 1_555
O1 Sc2 2.119966 1_555
O2 Sc3 2.119966 1_655
O3 Sc3 2.099522 1_655
O4 Sc0 2.106619 1_556
O5 Sc2 2.119296 1_555
O6 Sc2 2.099522 1_565
O7 Sc0 2.106619 1_555
O8 Sc2 2.119296 1_565
O9 Sc1 2.106619 1_555
O10 Sc3 2.119296 1_655
O11 Sc3 2.099522 1_555
O12 Sc0 2.132017 1_555
O13 Sc0 2.132017 1_556
O14 Sc0 2.088790 1_555
O15 Sc1 2.088790 1_556
O16 Sc1 2.132017 1_656
O17 Sc1 2.132017 1_565
O18 Sc3 2.119966 1_555
O19 Sc2 2.119966 1_565
O20 Sc0 2.088790 1_556
O21 Sc1 2.106619 1_666
O22 Sc2 2.099522 1_555
O23 Sc1 2.088790 1_665
