# generated using pymatgen
data_MgH12SeO9
_symmetry_space_group_name_H-M   'P 1'
_cell_length_a   5.99897031
_cell_length_b   5.99897031
_cell_length_c   5.99896975
_cell_angle_alpha   96.86554412
_cell_angle_beta   96.86554412
_cell_angle_gamma   96.86554598
_symmetry_Int_Tables_number   1
_chemical_formula_structural   MgH12SeO9
_chemical_formula_sum   'Mg1 H12 Se1 O9'
_cell_volume   210.83331924
_cell_formula_units_Z   1
loop_
 _symmetry_equiv_pos_site_id
 _symmetry_equiv_pos_as_xyz
  1  'x, y, z'
loop_
 _atom_site_type_symbol
 _atom_site_label
 _atom_site_symmetry_multiplicity
 _atom_site_fract_x
 _atom_site_fract_y
 _atom_site_fract_z
 _atom_site_occupancy
  Mg  Mg0  1  0.99399300  0.99399300  0.99399300  1
  H  H0  1  0.45097600  0.04380600  0.96068500  1
  H  H1  1  0.96068500  0.45097600  0.04380600  1
  H  H2  1  0.04380600  0.96068500  0.45097600  1
  H  H3  1  0.36100600  0.26060400  0.86313300  1
  H  H4  1  0.86313300  0.36100600  0.26060400  1
  H  H5  1  0.26060400  0.86313300  0.36100600  1
  H  H6  1  0.58297400  0.71783900  0.92535600  1
  H  H7  1  0.92535600  0.58297400  0.71783900  1
  H  H8  1  0.71783900  0.92535600  0.58297400  1
  H  H9  1  0.61749100  0.81682400  0.18616800  1
  H  H10  1  0.18616800  0.61749100  0.81682400  1
  H  H11  1  0.81682400  0.18616800  0.61749100  1
  Se  Se0  1  0.47662900  0.47662900  0.47662900  1
  O  O0  1  0.42372200  0.50851500  0.75616000  1
  O  O1  1  0.75616000  0.42372200  0.50851500  1
  O  O2  1  0.50851500  0.75616000  0.42372200  1
  O  O3  1  0.31467300  0.11865100  0.92737000  1
  O  O4  1  0.92737000  0.31467300  0.11865100  1
  O  O5  1  0.11865100  0.92737000  0.31467300  1
  O  O6  1  0.65723800  0.85502500  0.03596300  1
  O  O7  1  0.03596300  0.65723800  0.85502500  1
  O  O8  1  0.85502500  0.03596300  0.65723800  1
loop_
_geom_bond_atom_site_label_1
_geom_bond_atom_site_label_2
_geom_bond_distance
_geom_bond_site_symmetry_2
Mg0 O5 2.081133 1_656
Mg0 O3 2.081133 1_665
Mg0 O4 2.081133 1_566
Mg0 O8 2.146781 1_565
Mg0 O6 2.146781 1_556
Mg0 O7 2.146781 1_655
H0 O3 0.990097 1_555
H1 O4 0.990096 1_555
H2 O5 0.990096 1_555
H3 O3 0.999202 1_555
H3 O0 1.708006 1_555
H4 O4 0.999202 1_555
H4 O1 1.708006 1_555
H5 O5 0.999202 1_555
H5 O2 1.708006 1_555
H6 O6 1.013484 1_556
H6 O0 1.642073 1_555
H7 O7 1.013484 1_655
H7 O1 1.642073 1_555
H8 O8 1.013484 1_565
H8 O2 1.642073 1_555
H9 O6 1.004480 1_555
H9 O2 1.697209 1_555
H10 O7 1.004480 1_555
H10 O0 1.697209 1_555
H11 O8 1.004480 1_555
H11 O1 1.697209 1_555
O0 Se0 1.736198 1_555
O1 Se0 1.736198 1_555
O2 Se0 1.736198 1_555
