# generated using pymatgen
data_KNaSO4
_symmetry_space_group_name_H-M   'P 1'
_cell_length_a   5.69608448
_cell_length_b   5.69608448
_cell_length_c   7.28459000
_cell_angle_alpha   90.00000000
_cell_angle_beta   90.00000000
_cell_angle_gamma   120.00000557
_symmetry_Int_Tables_number   1
_chemical_formula_structural   KNaSO4
_chemical_formula_sum   'K2 Na2 S2 O8'
_cell_volume   204.68620037
_cell_formula_units_Z   2
loop_
 _symmetry_equiv_pos_site_id
 _symmetry_equiv_pos_as_xyz
  1  'x, y, z'
loop_
 _atom_site_type_symbol
 _atom_site_label
 _atom_site_symmetry_multiplicity
 _atom_site_fract_x
 _atom_site_fract_y
 _atom_site_fract_z
 _atom_site_occupancy
  K  K0  1  0.33333300  0.66666700  0.32777500  1
  K  K1  1  0.00000000  0.00000000  0.00292700  1
  Na  Na0  1  0.00000000  0.00000000  0.50291600  1
  Na  Na1  1  0.66666700  0.33333300  0.70289800  1
  S  S0  1  0.33333300  0.66666700  0.77122200  1
  S  S1  1  0.66666700  0.33333300  0.23272700  1
  O  O0  1  0.19068200  0.80931800  0.69874600  1
  O  O1  1  0.80905800  0.19094200  0.30462600  1
  O  O2  1  0.33333300  0.66666700  0.97291100  1
  O  O3  1  0.80905800  0.61811700  0.30462600  1
  O  O4  1  0.19068200  0.38136400  0.69874600  1
  O  O5  1  0.66666700  0.33333300  0.02950800  1
  O  O6  1  0.38188300  0.19094200  0.30462600  1
  O  O7  1  0.61863600  0.80931800  0.69874600  1
loop_
_geom_bond_atom_site_label_1
_geom_bond_atom_site_label_2
_geom_bond_distance
_geom_bond_site_symmetry_2
K0 O2 2.585039 1_554
K0 O1 2.863064 1_455
K0 O1 2.863064 1_565
K0 O3 2.863065 1_455
K0 O6 2.863065 1_565
K0 O6 2.863065 1_555
K0 O3 2.863065 1_555
K0 O0 3.046889 1_555
K0 O7 3.046892 1_555
K0 O4 3.046892 1_555
K1 O6 2.894627 1_555
K1 O3 2.894627 1_445
K1 O1 2.894630 1_455
K1 O4 2.906721 1_554
K1 O7 2.906721 1_444
K1 O0 2.906721 1_544
K1 O5 3.294328 1_455
K1 O5 3.294333 1_445
K1 O5 3.294333 1_555
K1 O2 3.295894 1_544
K1 O2 3.295898 1_444
K1 O2 3.295898 1_554
Na0 O4 2.360958 1_555
Na0 O7 2.360958 1_445
Na0 O0 2.360959 1_545
Na0 O6 2.373860 1_555
Na0 O3 2.373860 1_445
Na0 O1 2.373864 1_455
Na1 O5 2.379220 1_556
Na1 O7 2.858038 1_545
Na1 O4 2.858038 1_655
Na1 O0 2.858040 1_545
Na1 O0 2.858040 1_655
Na1 O7 2.858044 1_555
Na1 O4 2.858044 1_555
O0 S0 1.503151 1_555
O1 S1 1.499276 1_555
O2 S0 1.469222 1_555
O3 S1 1.499285 1_555
O4 S0 1.503155 1_555
O5 S1 1.480367 1_555
O6 S1 1.499285 1_555
O7 S0 1.503155 1_555
