# generated using pymatgen
data_K3Cr(HO)6
_symmetry_space_group_name_H-M   'P 1'
_cell_length_a   7.33470299
_cell_length_b   7.33470276
_cell_length_c   7.33470445
_cell_angle_alpha   95.98465376
_cell_angle_beta   95.98466245
_cell_angle_gamma   95.98466098
_symmetry_Int_Tables_number   1
_chemical_formula_structural   K3Cr(HO)6
_chemical_formula_sum   'K6 Cr2 H12 O12'
_cell_volume   387.64897979
_cell_formula_units_Z   2
loop_
 _symmetry_equiv_pos_site_id
 _symmetry_equiv_pos_as_xyz
  1  'x, y, z'
loop_
 _atom_site_type_symbol
 _atom_site_label
 _atom_site_symmetry_multiplicity
 _atom_site_fract_x
 _atom_site_fract_y
 _atom_site_fract_z
 _atom_site_occupancy
  K  K0  1  0.86908700  0.25000000  0.63091300  1
  K  K1  1  0.63091300  0.86908700  0.25000000  1
  K  K2  1  0.25000000  0.63091300  0.86908700  1
  K  K3  1  0.13091300  0.75000000  0.36908700  1
  K  K4  1  0.36908700  0.13091300  0.75000000  1
  K  K5  1  0.75000000  0.36908700  0.13091300  1
  Cr  Cr0  1  0.50000000  0.50000000  0.50000000  1
  Cr  Cr1  1  0.00000000  0.00000000  0.00000000  1
  H  H0  1  0.58209900  0.82984300  0.61990900  1
  H  H1  1  0.61990900  0.58209900  0.82984300  1
  H  H2  1  0.82984300  0.61990900  0.58209900  1
  H  H3  1  0.88009100  0.67015700  0.91790100  1
  H  H4  1  0.91790100  0.88009100  0.67015700  1
  H  H5  1  0.67015700  0.91790100  0.88009100  1
  H  H6  1  0.41790100  0.17015700  0.38009100  1
  H  H7  1  0.38009100  0.41790100  0.17015700  1
  H  H8  1  0.17015700  0.38009100  0.41790100  1
  H  H9  1  0.11990900  0.32984300  0.08209900  1
  H  H10  1  0.08209900  0.11990900  0.32984300  1
  H  H11  1  0.32984300  0.08209900  0.11990900  1
  O  O0  1  0.54162600  0.23662900  0.40296600  1
  O  O1  1  0.40296600  0.54162600  0.23662900  1
  O  O2  1  0.23662900  0.40296600  0.54162600  1
  O  O3  1  0.09703400  0.26337100  0.95837400  1
  O  O4  1  0.95837400  0.09703400  0.26337100  1
  O  O5  1  0.26337100  0.95837400  0.09703400  1
  O  O6  1  0.45837400  0.76337100  0.59703400  1
  O  O7  1  0.59703400  0.45837400  0.76337100  1
  O  O8  1  0.76337100  0.59703400  0.45837400  1
  O  O9  1  0.90296600  0.73662900  0.04162600  1
  O  O10  1  0.04162600  0.90296600  0.73662900  1
  O  O11  1  0.73662900  0.04162600  0.90296600  1
loop_
_geom_bond_atom_site_label_1
_geom_bond_atom_site_label_2
_geom_bond_distance
_geom_bond_site_symmetry_2
K0 O0 2.766415 1_555
K0 O3 2.766416 1_655
K0 O7 2.827027 1_555
K0 O11 2.827027 1_555
K0 O2 2.974179 1_655
K0 O4 2.974179 1_555
K1 O1 2.766415 1_555
K1 O4 2.766415 1_565
K1 O8 2.827026 1_555
K1 O9 2.827027 1_555
K1 O5 2.974179 1_555
K1 O0 2.974179 1_565
K2 O5 2.766416 1_556
K2 O2 2.766416 1_555
K2 O10 2.827026 1_555
K2 O6 2.827027 1_555
K2 O3 2.974178 1_555
K2 O1 2.974179 1_556
K3 O6 2.766415 1_555
K3 O9 2.766416 1_455
K3 O1 2.827027 1_555
K3 O5 2.827027 1_555
K3 O8 2.974179 1_455
K3 O10 2.974179 1_555
K4 O7 2.766415 1_555
K4 O10 2.766415 1_545
K4 O2 2.827026 1_555
K4 O3 2.827027 1_555
K4 O11 2.974179 1_555
K4 O6 2.974179 1_545
K5 O11 2.766416 1_554
K5 O8 2.766416 1_555
K5 O4 2.827026 1_555
K5 O0 2.827027 1_555
K5 O9 2.974178 1_555
K5 O7 2.974179 1_554
Cr0 O8 2.052563 1_555
Cr0 O2 2.052563 1_555
Cr0 O6 2.052563 1_555
Cr0 O0 2.052563 1_555
Cr0 O7 2.052563 1_555
Cr0 O1 2.052563 1_555
Cr1 O3 2.052562 1_554
Cr1 O9 2.052562 1_445
Cr1 O5 2.052563 1_545
Cr1 O11 2.052563 1_454
Cr1 O4 2.052563 1_455
Cr1 O10 2.052563 1_544
H0 O6 0.973817 1_555
H0 K1 2.813588 1_555
H1 O7 0.973818 1_555
H1 K2 2.813587 1_555
H2 O8 0.973818 1_555
H2 K0 2.813587 1_555
H3 O9 0.973818 1_556
H3 K2 2.813587 1_655
H4 O10 0.973817 1_655
H4 K0 2.813587 1_565
H5 O11 0.973817 1_565
H5 K1 2.813588 1_556
H6 O0 0.973817 1_555
H6 K4 2.813588 1_555
H7 O1 0.973818 1_555
H7 K5 2.813587 1_555
H8 O2 0.973818 1_555
H8 K3 2.813587 1_555
H9 O3 0.973818 1_554
H9 K5 2.813587 1_455
H10 O4 0.973817 1_455
H10 K3 2.813587 1_545
H11 O5 0.973817 1_545
H11 K4 2.813588 1_554
