# generated using pymatgen
data_Np(IO3)4
_symmetry_space_group_name_H-M   'P 1'
_cell_length_a   10.19078600
_cell_length_b   10.19078600
_cell_length_c   5.36558000
_cell_angle_alpha   90.00000000
_cell_angle_beta   90.00000000
_cell_angle_gamma   90.00000000
_symmetry_Int_Tables_number   1
_chemical_formula_structural   Np(IO3)4
_chemical_formula_sum   'Np2 I8 O24'
_cell_volume   557.22685426
_cell_formula_units_Z   2
loop_
 _symmetry_equiv_pos_site_id
 _symmetry_equiv_pos_as_xyz
  1  'x, y, z'
loop_
 _atom_site_type_symbol
 _atom_site_label
 _atom_site_symmetry_multiplicity
 _atom_site_fract_x
 _atom_site_fract_y
 _atom_site_fract_z
 _atom_site_occupancy
  Np  Np0  1  0.50000000  0.50000000  0.00000000  1
  Np  Np1  1  0.00000000  0.00000000  0.50000000  1
  I  I0  1  0.77168200  0.49811900  0.46929900  1
  I  I1  1  0.99811900  0.72831800  0.96929900  1
  I  I2  1  0.27168200  0.99811900  0.03070100  1
  I  I3  1  0.72831800  0.00188100  0.03070100  1
  I  I4  1  0.22831800  0.50188100  0.46929900  1
  I  I5  1  0.00188100  0.27168200  0.96929900  1
  I  I6  1  0.49811900  0.22831800  0.53070100  1
  I  I7  1  0.50188100  0.77168200  0.53070100  1
  O  O0  1  0.15125300  0.92777200  0.80466700  1
  O  O1  1  0.62028600  0.90245500  0.49518300  1
  O  O2  1  0.12028600  0.40245500  0.00481700  1
  O  O3  1  0.40245500  0.87971400  0.99518300  1
  O  O4  1  0.09754500  0.62028600  0.50481700  1
  O  O5  1  0.42242400  0.30941600  0.80279300  1
  O  O6  1  0.90245500  0.37971400  0.50481700  1
  O  O7  1  0.80941600  0.07757600  0.30279300  1
  O  O8  1  0.92777200  0.84874700  0.19533300  1
  O  O9  1  0.92242400  0.80941600  0.69720700  1
  O  O10  1  0.87971400  0.59754500  0.00481700  1
  O  O11  1  0.34874700  0.57222800  0.69533300  1
  O  O12  1  0.57757600  0.69058400  0.80279300  1
  O  O13  1  0.69058400  0.42242400  0.19720700  1
  O  O14  1  0.07222800  0.15125300  0.19533300  1
  O  O15  1  0.30941600  0.57757600  0.19720700  1
  O  O16  1  0.84874700  0.07222800  0.80466700  1
  O  O17  1  0.57222800  0.65125300  0.30466700  1
  O  O18  1  0.37971400  0.09754500  0.49518300  1
  O  O19  1  0.59754500  0.12028600  0.99518300  1
  O  O20  1  0.07757600  0.19058400  0.69720700  1
  O  O21  1  0.42777200  0.34874700  0.30466700  1
  O  O22  1  0.19058400  0.92242400  0.30279300  1
  O  O23  1  0.65125300  0.42777200  0.69533300  1
loop_
_geom_bond_atom_site_label_1
_geom_bond_atom_site_label_2
_geom_bond_distance
_geom_bond_site_symmetry_2
Np0 O12 2.348780 1_554
Np0 O13 2.348780 1_555
Np0 O15 2.348780 1_555
Np0 O5 2.348780 1_554
Np0 O17 2.364308 1_555
Np0 O21 2.364308 1_555
Np0 O23 2.364308 1_554
Np0 O11 2.364308 1_554
Np1 O20 2.348780 1_555
Np1 O22 2.348780 1_545
Np1 O7 2.348780 1_455
Np1 O9 2.348780 1_445
Np1 O0 2.364308 1_545
Np1 O16 2.364308 1_455
Np1 O14 2.364308 1_555
Np1 O8 2.364308 1_445
I0 O6 1.807853 1_555
I0 O13 1.846475 1_555
I0 O23 1.868424 1_555
I1 O10 1.807853 1_556
I1 O9 1.846475 1_555
I1 O8 1.868424 1_556
I2 O3 1.807853 1_554
I2 O22 1.846475 1_555
I2 O0 1.868424 1_554
I3 O19 1.807853 1_554
I3 O7 1.846475 1_555
I3 O16 1.868424 1_554
I4 O4 1.807853 1_555
I4 O15 1.846475 1_555
I4 O11 1.868424 1_555
I5 O2 1.807853 1_556
I5 O20 1.846475 1_555
I5 O14 1.868424 1_556
I6 O18 1.807853 1_555
I6 O5 1.846475 1_555
I6 O21 1.868424 1_555
I7 O1 1.807853 1_555
I7 O12 1.846475 1_555
I7 O17 1.868424 1_555
