# generated using pymatgen
data_Cs2SnS14
_symmetry_space_group_name_H-M   'P 1'
_cell_length_a   18.84310329
_cell_length_b   7.12820929
_cell_length_c   15.57111711
_cell_angle_alpha   72.28279413
_cell_angle_beta   90.00000000
_cell_angle_gamma   90.00000000
_symmetry_Int_Tables_number   1
_chemical_formula_structural   Cs2SnS14
_chemical_formula_sum   'Cs8 Sn4 S56'
_cell_volume   1992.27646558
_cell_formula_units_Z   4
loop_
 _symmetry_equiv_pos_site_id
 _symmetry_equiv_pos_as_xyz
  1  'x, y, z'
loop_
 _atom_site_type_symbol
 _atom_site_label
 _atom_site_symmetry_multiplicity
 _atom_site_fract_x
 _atom_site_fract_y
 _atom_site_fract_z
 _atom_site_occupancy
  Cs  Cs0  1  0.79927682  0.44469975  0.47759229  1
  Cs  Cs1  1  0.29927682  0.55530025  0.02240771  1
  Cs  Cs2  1  0.20072318  0.55530025  0.52240771  1
  Cs  Cs3  1  0.70072318  0.44469975  0.97759229  1
  Cs  Cs4  1  0.95144516  0.79596823  0.83431927  1
  Cs  Cs5  1  0.45144516  0.20403177  0.66568073  1
  Cs  Cs6  1  0.04855484  0.20403177  0.16568073  1
  Cs  Cs7  1  0.54855484  0.79596823  0.33431927  1
  Sn  Sn0  1  0.82457231  0.86504509  0.16900004  1
  Sn  Sn1  1  0.32457231  0.13495491  0.33099996  1
  Sn  Sn2  1  0.17542769  0.13495491  0.83099996  1
  Sn  Sn3  1  0.67542769  0.86504509  0.66900004  1
  S  S0  1  0.81616360  0.93615213  0.32299133  1
  S  S1  1  0.31616360  0.06384787  0.17700867  1
  S  S2  1  0.18383640  0.06384787  0.67700867  1
  S  S3  1  0.68383640  0.93615213  0.82299133  1
  S  S4  1  0.90750210  0.04774980  0.35639256  1
  S  S5  1  0.40750210  0.95225020  0.14360744  1
  S  S6  1  0.09249790  0.95225020  0.64360744  1
  S  S7  1  0.59249790  0.04774980  0.85639256  1
  S  S8  1  0.96585346  0.82150775  0.44058250  1
  S  S9  1  0.46585346  0.17849225  0.05941750  1
  S  S10  1  0.03414654  0.17849225  0.55941750  1
  S  S11  1  0.53414654  0.82150775  0.94058250  1
  S  S12  1  0.03448478  0.71879528  0.36158346  1
  S  S13  1  0.53448478  0.28120472  0.13841654  1
  S  S14  1  0.96551522  0.28120472  0.63841654  1
  S  S15  1  0.46551522  0.71879528  0.86158346  1
  S  S16  1  0.97453949  0.54494083  0.30511914  1
  S  S17  1  0.47453949  0.45505917  0.19488086  1
  S  S18  1  0.02546051  0.45505917  0.69488086  1
  S  S19  1  0.52546051  0.54494083  0.80511914  1
  S  S20  1  0.95035749  0.70689598  0.17710605  1
  S  S21  1  0.45035749  0.29310402  0.32289395  1
  S  S22  1  0.04964251  0.29310402  0.82289395  1
  S  S23  1  0.54964251  0.70689598  0.67710605  1
  S  S24  1  0.86458342  0.23073509  0.09771298  1
  S  S25  1  0.36458342  0.76926491  0.40228702  1
  S  S26  1  0.13541658  0.76926491  0.90228702  1
  S  S27  1  0.63541658  0.23073509  0.59771298  1
  S  S28  1  0.91000150  0.22231276  0.97916187  1
  S  S29  1  0.41000150  0.77768724  0.52083813  1
  S  S30  1  0.08999850  0.77768724  0.02083813  1
  S  S31  1  0.58999850  0.22231276  0.47916187  1
  S  S32  1  0.83171782  0.09389279  0.92329633  1
  S  S33  1  0.33171782  0.90610721  0.57670367  1
  S  S34  1  0.16828218  0.90610721  0.07670367  1
  S  S35  1  0.66828218  0.09389279  0.42329633  1
  S  S36  1  0.82841104  0.81241038  0.01003313  1
  S  S37  1  0.32841104  0.18758962  0.48996687  1
  S  S38  1  0.17158896  0.18758962  0.98996687  1
  S  S39  1  0.67158896  0.81241038  0.51003313  1
  S  S40  1  0.69282561  0.97943160  0.15998173  1
  S  S41  1  0.19282561  0.02056840  0.34001827  1
  S  S42  1  0.30717439  0.02056840  0.84001827  1
  S  S43  1  0.80717439  0.97943160  0.65998173  1
  S  S44  1  0.64354157  0.74727648  0.13417253  1
  S  S45  1  0.14354157  0.25272352  0.36582747  1
  S  S46  1  0.35645843  0.25272352  0.86582747  1
  S  S47  1  0.85645843  0.74727648  0.63417253  1
  S  S48  1  0.67431172  0.51203601  0.24187433  1
  S  S49  1  0.17431172  0.48796399  0.25812567  1
  S  S50  1  0.32568828  0.48796399  0.75812567  1
  S  S51  1  0.82568828  0.51203601  0.74187433  1
  S  S52  1  0.78203998  0.49788132  0.22697840  1
  S  S53  1  0.28203998  0.50211868  0.27302160  1
  S  S54  1  0.21796002  0.50211868  0.77302160  1
  S  S55  1  0.71796002  0.49788132  0.72697840  1
loop_
_geom_bond_atom_site_label_1
_geom_bond_atom_site_label_2
_geom_bond_distance
_geom_bond_site_symmetry_2
Cs0 S0 3.610518 1_555
Cs0 S43 3.654368 1_545
Cs0 S27 3.690779 1_555
Cs0 S39 3.704091 1_555
Cs0 S35 3.787795 1_555
Cs0 S52 3.817992 1_555
Cs0 S47 3.867552 1_555
Cs0 S14 3.957933 1_555
Cs0 S8 4.056675 1_555
Cs0 S16 4.178697 1_555
Cs1 S1 3.610518 1_555
Cs1 S42 3.654368 1_564
Cs1 S26 3.690779 1_554
Cs1 S38 3.704091 1_554
Cs1 S34 3.787795 1_555
Cs1 S53 3.817992 1_555
Cs1 S46 3.867552 1_554
Cs1 S15 3.957933 1_554
Cs1 S9 4.056675 1_555
Cs1 S17 4.178697 1_555
Cs2 S2 3.610518 1_555
Cs2 S41 3.654368 1_565
Cs2 S25 3.690779 1_555
Cs2 S37 3.704091 1_555
Cs2 S33 3.787795 1_555
Cs2 S54 3.817992 1_555
Cs2 S45 3.867552 1_555
Cs2 S12 3.957933 1_555
Cs2 S10 4.056675 1_555
Cs2 S18 4.178697 1_555
Cs3 S3 3.610518 1_555
Cs3 S40 3.654368 1_546
Cs3 S24 3.690779 1_556
Cs3 S36 3.704091 1_556
Cs3 S32 3.787795 1_555
Cs3 S55 3.817992 1_555
Cs3 S44 3.867552 1_556
Cs3 S13 3.957933 1_556
Cs3 S11 4.056675 1_555
Cs3 S19 4.178697 1_555
Cs4 S26 3.612611 1_655
Cs4 S36 3.615199 1_556
Cs4 S32 3.648285 1_565
Cs4 S51 3.681956 1_555
Cs4 S47 3.700675 1_555
Cs4 S43 3.782728 1_555
Cs4 S14 3.862304 1_565
Cs4 S30 3.877858 1_656
Cs4 S6 3.887201 1_655
Cs4 S22 3.953408 1_665
Cs4 S18 3.971880 1_655
Cs4 S22 4.085626 1_655
Cs4 S28 4.099315 1_555
Cs5 S27 3.612611 1_555
Cs5 S37 3.615199 1_555
Cs5 S33 3.648285 1_545
Cs5 S50 3.681956 1_555
Cs5 S46 3.700675 1_555
Cs5 S42 3.782728 1_555
Cs5 S15 3.862304 1_545
Cs5 S31 3.877858 1_555
Cs5 S7 3.887201 1_555
Cs5 S23 3.953408 1_545
Cs5 S19 3.971880 1_555
Cs5 S23 4.085626 1_555
Cs5 S29 4.099315 1_555
Cs6 S24 3.612611 1_455
Cs6 S38 3.615199 1_554
Cs6 S34 3.648285 1_545
Cs6 S49 3.681956 1_555
Cs6 S45 3.700675 1_555
Cs6 S41 3.782728 1_555
Cs6 S12 3.862304 1_545
Cs6 S28 3.877858 1_454
Cs6 S4 3.887201 1_455
Cs6 S20 3.953408 1_445
Cs6 S16 3.971880 1_455
Cs6 S20 4.085626 1_455
Cs6 S30 4.099315 1_555
Cs7 S25 3.612611 1_555
Cs7 S39 3.615199 1_555
Cs7 S35 3.648285 1_565
Cs7 S48 3.681956 1_555
Cs7 S44 3.700675 1_555
Cs7 S40 3.782728 1_555
Cs7 S13 3.862304 1_565
Cs7 S29 3.877858 1_555
Cs7 S5 3.887201 1_555
Cs7 S21 3.953408 1_565
Cs7 S17 3.971880 1_555
Cs7 S21 4.085626 1_555
Cs7 S31 4.099315 1_555
S0 S4 2.029114 1_565
S0 Sn0 2.602165 1_555
S1 S5 2.029114 1_545
S1 Sn1 2.602165 1_555
S2 S6 2.029114 1_545
S2 Sn2 2.602165 1_555
S3 S7 2.029114 1_565
S3 Sn3 2.602165 1_555
S4 S8 2.059501 1_545
S5 S9 2.059501 1_565
S10 S6 2.059501 1_545
S10 S14 2.066349 1_455
S11 S7 2.059501 1_565
S11 S15 2.066349 1_555
S12 S16 2.061035 1_455
S12 S8 2.066349 1_455
S13 S17 2.061035 1_555
S13 S9 2.066349 1_555
S14 S18 2.061035 1_655
S15 S19 2.061035 1_555
S16 S20 2.028072 1_555
S17 S21 2.028072 1_555
S18 S22 2.028072 1_555
S19 S23 2.028072 1_555
S20 Sn0 2.611120 1_555
S21 Sn1 2.611120 1_555
S22 Sn2 2.611120 1_555
S23 Sn3 2.611120 1_555
S24 S28 2.052096 1_554
S24 Sn0 2.614273 1_545
S25 S29 2.052096 1_555
S25 Sn1 2.614273 1_565
S26 S30 2.052096 1_556
S26 Sn2 2.614273 1_565
S27 S31 2.052096 1_555
S27 Sn3 2.614273 1_545
S28 S32 2.062831 1_555
S29 S33 2.062831 1_555
S30 S34 2.062831 1_555
S31 S35 2.062831 1_555
S32 S36 2.050493 1_546
S33 S37 2.050493 1_565
S34 S38 2.050493 1_564
S35 S39 2.050493 1_545
S36 Sn0 2.615018 1_555
S37 Sn1 2.615018 1_555
S38 Sn2 2.615018 1_555
S39 Sn3 2.615018 1_555
S40 S44 2.041379 1_555
S40 Sn0 2.603411 1_555
S41 S45 2.041379 1_555
S41 Sn1 2.603411 1_555
S42 S46 2.041379 1_555
S42 Sn2 2.603411 1_555
S43 S47 2.041379 1_555
S43 Sn3 2.603411 1_555
S44 S48 2.061277 1_555
S45 S49 2.061277 1_555
S46 S50 2.061277 1_555
S47 S51 2.061277 1_555
S48 S52 2.049112 1_555
S49 S53 2.049112 1_555
S50 S54 2.049112 1_555
S51 S55 2.049112 1_555
S52 Sn0 2.620895 1_555
S53 Sn1 2.620895 1_555
S54 Sn2 2.620895 1_555
S55 Sn3 2.620895 1_555
