# generated using pymatgen
data_KCuCO3F
_symmetry_space_group_name_H-M   'P 1'
_cell_length_a   4.06587800
_cell_length_b   5.14786400
_cell_length_c   9.04262800
_cell_angle_alpha   90.00000000
_cell_angle_beta   90.00000000
_cell_angle_gamma   90.00000000
_symmetry_Int_Tables_number   1
_chemical_formula_structural   KCuCO3F
_chemical_formula_sum   'K2 Cu2 C2 O6 F2'
_cell_volume   189.26751192
_cell_formula_units_Z   2
loop_
 _symmetry_equiv_pos_site_id
 _symmetry_equiv_pos_as_xyz
  1  'x, y, z'
loop_
 _atom_site_type_symbol
 _atom_site_label
 _atom_site_symmetry_multiplicity
 _atom_site_fract_x
 _atom_site_fract_y
 _atom_site_fract_z
 _atom_site_occupancy
  K  K0  1  0.50000000  0.71035100  0.07734900  1
  K  K1  1  0.50000000  0.28964900  0.57734900  1
  Cu  Cu0  1  0.00000000  0.79135400  0.73233600  1
  Cu  Cu1  1  0.00000000  0.20864600  0.23233600  1
  C  C0  1  0.00000000  0.78443000  0.41365500  1
  C  C1  1  0.00000000  0.21557000  0.91365500  1
  O  O0  1  0.00000000  0.33027300  0.78892800  1
  O  O1  1  0.00000000  0.03859900  0.42356400  1
  O  O2  1  0.00000000  0.64844800  0.53534800  1
  O  O3  1  0.00000000  0.66972700  0.28892800  1
  O  O4  1  0.00000000  0.35155200  0.03534800  1
  O  O5  1  0.00000000  0.96140100  0.92356400  1
  F  F0  1  0.50000000  0.80405900  0.72882100  1
  F  F1  1  0.50000000  0.19594100  0.22882100  1
loop_
_geom_bond_atom_site_label_1
_geom_bond_atom_site_label_2
_geom_bond_distance
_geom_bond_site_symmetry_2
K0 O4 2.772846 1_555
K0 O4 2.772846 1_655
K0 O5 2.781527 1_654
K0 O5 2.781527 1_554
K0 O3 2.799469 1_555
K0 O3 2.799469 1_655
K1 O2 2.772846 1_555
K1 O2 2.772846 1_655
K1 O1 2.781527 1_555
K1 O1 2.781527 1_655
K1 O0 2.799469 1_655
K1 O0 2.799469 1_555
Cu0 O2 1.927223 1_555
Cu0 O5 1.938152 1_555
Cu0 F0 2.034239 1_455
Cu0 F0 2.034239 1_555
Cu0 O0 2.428121 1_555
Cu1 O4 1.927223 1_555
Cu1 O1 1.938152 1_555
Cu1 F1 2.034239 1_455
Cu1 F1 2.034239 1_555
Cu1 O3 2.428121 1_555
C0 O3 1.273079 1_555
C0 O2 1.304208 1_555
C0 O1 1.311492 1_565
C1 O0 1.273079 1_555
C1 O4 1.304208 1_556
C1 O5 1.311492 1_545
F0 K1 2.850412 1_565
F0 K1 2.981374 1_555
F0 K0 3.188314 1_556
F1 K0 2.850412 1_545
F1 K0 2.981374 1_555
F1 K1 3.188314 1_555
