# generated using pymatgen
data_C
_symmetry_space_group_name_H-M   'P 1'
_cell_length_a   9.54116000
_cell_length_b   8.21842155
_cell_length_c   13.98774552
_cell_angle_alpha   90.00000000
_cell_angle_beta   90.00000000
_cell_angle_gamma   90.00000000
_symmetry_Int_Tables_number   1
_chemical_formula_structural   C
_chemical_formula_sum   C120
_cell_volume   1096.82493547
_cell_formula_units_Z   120
loop_
 _symmetry_equiv_pos_site_id
 _symmetry_equiv_pos_as_xyz
  1  'x, y, z'
loop_
 _atom_site_type_symbol
 _atom_site_label
 _atom_site_symmetry_multiplicity
 _atom_site_fract_x
 _atom_site_fract_y
 _atom_site_fract_z
 _atom_site_occupancy
  C  C0  1  0.28371682  0.85135886  0.85297075  1
  C  C1  1  0.35221549  0.18355799  0.55434849  1
  C  C2  1  0.83466803  0.77543434  0.78734351  1
  C  C3  1  0.32535316  0.81016802  0.04264759  1
  C  C4  1  0.12045855  0.31949161  0.88247460  1
  C  C5  1  0.71628318  0.85135886  0.85297075  1
  C  C6  1  0.67464684  0.18983198  0.95735241  1
  C  C7  1  0.14778451  0.68355799  0.94565151  1
  C  C8  1  0.92794924  0.30244933  0.14081021  1
  C  C9  1  0.71628318  0.14864114  0.14702925  1
  C  C10  1  0.64778451  0.18355799  0.55434849  1
  C  C11  1  0.17464684  0.31016802  0.45735241  1
  C  C12  1  0.64778451  0.81644201  0.44565151  1
  C  C13  1  0.28371682  0.14864114  0.14702925  1
  C  C14  1  0.87531537  0.92842816  0.25092557  1
  C  C15  1  0.50000000  0.20886105  0.32242555  1
  C  C16  1  0.57380464  0.85757926  0.52620510  1
  C  C17  1  0.23970146  0.76909925  0.12299249  1
  C  C18  1  0.22378639  0.27165761  0.55124240  1
  C  C19  1  0.42986520  0.91935804  0.08756884  1
  C  C20  1  0.12045855  0.68050839  0.11752540  1
  C  C21  1  0.23623232  0.63526218  0.71401154  1
  C  C22  1  0.00000000  0.29113895  0.82242555  1
  C  C23  1  0.33466803  0.72456566  0.28734351  1
  C  C24  1  0.87954145  0.68050839  0.11752540  1
  C  C25  1  0.07013480  0.41935804  0.41243116  1
  C  C26  1  0.26029854  0.73090075  0.62299249  1
  C  C27  1  0.37954145  0.81949161  0.61752540  1
  C  C28  1  0.82535316  0.31016802  0.45735241  1
  C  C29  1  0.35221549  0.81644201  0.44565151  1
  C  C30  1  0.42794924  0.19755067  0.64081021  1
  C  C31  1  0.00000000  0.82940798  0.24365947  1
  C  C32  1  0.57380464  0.14242074  0.47379490  1
  C  C33  1  0.32535316  0.18983198  0.95735241  1
  C  C34  1  0.26029854  0.26909925  0.37700751  1
  C  C35  1  0.07380564  0.35757926  0.97379490  1
  C  C36  1  0.85221549  0.31644201  0.05434849  1
  C  C37  1  0.72378639  0.77165761  0.94875760  1
  C  C38  1  0.33466803  0.27543434  0.71265649  1
  C  C39  1  0.21628318  0.35135886  0.64702925  1
  C  C40  1  0.57013480  0.08064196  0.91243116  1
  C  C41  1  0.78371682  0.35135886  0.64702925  1
  C  C42  1  0.00000000  0.17059202  0.75634053  1
  C  C43  1  0.22378639  0.72834239  0.44875760  1
  C  C44  1  0.16533197  0.22456566  0.21265649  1
  C  C45  1  0.07013480  0.58064196  0.58756884  1
  C  C46  1  0.12468463  0.92842816  0.25092557  1
  C  C47  1  0.92986520  0.58064196  0.58756884  1
  C  C48  1  0.57205076  0.80244933  0.35918979  1
  C  C49  1  0.27621361  0.22834239  0.05124240  1
  C  C50  1  0.82535316  0.68983198  0.54264759  1
  C  C51  1  0.65522976  0.00186147  0.16355012  1
  C  C52  1  0.76376768  0.36473782  0.28598846  1
  C  C53  1  0.62468463  0.57157184  0.75092557  1
  C  C54  1  0.83466803  0.22456566  0.21265649  1
  C  C55  1  0.37954145  0.18050839  0.38247460  1
  C  C56  1  0.15522976  0.50186147  0.33644988  1
  C  C57  1  0.23623232  0.36473782  0.28598846  1
  C  C58  1  0.72378639  0.22834239  0.05124240  1
  C  C59  1  0.23970146  0.23090075  0.87700751  1
  C  C60  1  0.07879296  0.91300023  0.74598034  1
  C  C61  1  0.26376768  0.86473782  0.21401154  1
  C  C62  1  0.42619436  0.85757926  0.52620510  1
  C  C63  1  0.57013480  0.91935804  0.08756884  1
  C  C64  1  0.16533197  0.77543434  0.78734351  1
  C  C65  1  0.87531537  0.07157184  0.74907443  1
  C  C66  1  0.37531537  0.57157184  0.75092557  1
  C  C67  1  0.73970146  0.73090075  0.62299249  1
  C  C68  1  0.14778451  0.31644201  0.05434849  1
  C  C69  1  0.92120704  0.08699977  0.25401966  1
  C  C70  1  0.92986520  0.41935804  0.41243116  1
  C  C71  1  0.84477024  0.49813853  0.66355012  1
  C  C72  1  0.00000000  0.70886105  0.17757445  1
  C  C73  1  0.92619536  0.64242074  0.02620510  1
  C  C74  1  0.42986520  0.08064196  0.91243116  1
  C  C75  1  0.42120704  0.58699977  0.24598034  1
  C  C76  1  0.62045855  0.81949161  0.61752540  1
  C  C77  1  0.34477024  0.00186147  0.16355012  1
  C  C78  1  0.62045855  0.18050839  0.38247460  1
  C  C79  1  0.50000000  0.32940798  0.25634053  1
  C  C80  1  0.92794924  0.69755067  0.85918979  1
  C  C81  1  0.50000000  0.79113895  0.67757445  1
  C  C82  1  0.73623232  0.86473782  0.21401154  1
  C  C83  1  0.77621361  0.72834239  0.44875760  1
  C  C84  1  0.76029854  0.23090075  0.87700751  1
  C  C85  1  0.66533197  0.72456566  0.28734351  1
  C  C86  1  0.15522976  0.49813853  0.66355012  1
  C  C87  1  0.87954145  0.31949161  0.88247460  1
  C  C88  1  0.57879296  0.41300023  0.75401966  1
  C  C89  1  0.77621361  0.27165761  0.55124240  1
  C  C90  1  0.50000000  0.67059202  0.74365947  1
  C  C91  1  0.42120704  0.41300023  0.75401966  1
  C  C92  1  0.07205076  0.69755067  0.85918979  1
  C  C93  1  0.65522976  0.99813853  0.83644988  1
  C  C94  1  0.17464684  0.68983198  0.54264759  1
  C  C95  1  0.78371682  0.64864114  0.35297075  1
  C  C96  1  0.12468463  0.07157184  0.74907443  1
  C  C97  1  0.92619536  0.35757926  0.97379490  1
  C  C98  1  0.34477024  0.99813853  0.83644988  1
  C  C99  1  0.73623232  0.13526218  0.78598846  1
  C  C100  1  0.21628318  0.64864114  0.35297075  1
  C  C101  1  0.57205076  0.19755067  0.64081021  1
  C  C102  1  0.73970146  0.26909925  0.37700751  1
  C  C103  1  0.07879296  0.08699977  0.25401966  1
  C  C104  1  0.92120704  0.91300023  0.74598034  1
  C  C105  1  0.07380564  0.64242074  0.02620510  1
  C  C106  1  0.84477024  0.50186147  0.33644988  1
  C  C107  1  0.37531537  0.42842816  0.24907443  1
  C  C108  1  0.62468463  0.42842816  0.24907443  1
  C  C109  1  0.85221549  0.68355799  0.94565151  1
  C  C110  1  0.67464684  0.81016802  0.04264759  1
  C  C111  1  0.42794924  0.80244933  0.35918979  1
  C  C112  1  0.26376768  0.13526218  0.78598846  1
  C  C113  1  0.66533197  0.27543434  0.71265649  1
  C  C114  1  0.57879296  0.58699977  0.24598034  1
  C  C115  1  0.76029854  0.76909925  0.12299249  1
  C  C116  1  0.07205076  0.30244933  0.14081021  1
  C  C117  1  0.76376768  0.63526218  0.71401154  1
  C  C118  1  0.27621361  0.77165761  0.94875760  1
  C  C119  1  0.42619436  0.14242074  0.47379490  1
loop_
_geom_bond_atom_site_label_1
_geom_bond_atom_site_label_2
_geom_bond_distance
_geom_bond_site_symmetry_2
C0 C98 1.359370 1_555
C0 C118 1.493101 1_555
C0 C64 1.583625 1_555
C1 C119 1.371901 1_555
C1 C30 1.413512 1_555
C1 C18 1.423950 1_555
C2 C80 1.487206 1_555
C2 C5 1.583625 1_555
C4 C59 1.352901 1_555
C5 C93 1.359370 1_555
C6 C84 1.429961 1_555
C7 C92 1.413512 1_555
C10 C32 1.371906 1_555
C10 C101 1.413512 1_555
C10 C89 1.423950 1_555
C11 C18 1.429954 1_555
C11 C34 1.429961 1_555
C11 C25 1.481362 1_555
C12 C16 1.371906 1_555
C12 C48 1.413512 1_555
C12 C83 1.423950 1_555
C13 C77 1.359370 1_555
C13 C49 1.493101 1_555
C13 C44 1.583625 1_555
C14 C69 1.375480 1_565
C14 C31 1.444928 1_655
C14 C82 1.517089 1_555
C15 C79 1.354982 1_555
C15 C55 1.442476 1_555
C15 C78 1.442476 1_555
C16 C76 1.388447 1_555
C16 C62 1.408373 1_555
C17 C20 1.352901 1_555
C17 C3 1.429961 1_555
C17 C61 1.513748 1_555
C18 C39 1.493101 1_555
C19 C63 1.338335 1_555
C19 C3 1.481362 1_555
C19 C77 1.499499 1_565
C20 C72 1.442476 1_555
C21 C26 1.513748 1_555
C21 C66 1.517089 1_555
C21 C86 1.538023 1_555
C21 C64 1.684299 1_555
C22 C42 1.354982 1_555
C22 C87 1.442476 1_455
C22 C4 1.442476 1_555
C23 C75 1.514827 1_555
C23 C61 1.684299 1_555
C24 C73 1.388447 1_555
C24 C72 1.442476 1_655
C25 C70 1.338335 1_455
C25 C56 1.499499 1_555
C26 C27 1.352901 1_555
C26 C94 1.429961 1_555
C27 C62 1.388444 1_555
C27 C81 1.442476 1_555
C28 C89 1.429954 1_555
C28 C70 1.481362 1_555
C29 C62 1.371901 1_555
C29 C43 1.423950 1_555
C30 C38 1.487206 1_555
C31 C72 1.354982 1_555
C31 C46 1.444928 1_555
C32 C78 1.388447 1_555
C33 C49 1.429954 1_556
C33 C59 1.429961 1_555
C33 C74 1.481362 1_555
C34 C55 1.352901 1_555
C34 C57 1.513748 1_555
C35 C68 1.371901 1_556
C35 C4 1.388444 1_555
C35 C97 1.408373 1_455
C36 C97 1.371906 1_554
C36 C8 1.413512 1_555
C36 C58 1.423950 1_555
C37 C5 1.493101 1_555
C38 C91 1.514827 1_555
C38 C39 1.583625 1_555
C39 C86 1.359370 1_555
C40 C74 1.338335 1_555
C40 C6 1.481362 1_555
C40 C93 1.499499 1_545
C41 C71 1.359370 1_555
C41 C89 1.493101 1_555
C42 C65 1.444928 1_455
C42 C96 1.444928 1_555
C43 C94 1.429954 1_555
C44 C57 1.684299 1_555
C45 C47 1.338335 1_455
C45 C94 1.481362 1_555
C45 C86 1.499499 1_555
C46 C61 1.517089 1_555
C47 C50 1.481362 1_555
C47 C71 1.499499 1_555
C48 C85 1.487206 1_555
C49 C68 1.423950 1_555
C50 C83 1.429954 1_555
C50 C67 1.429961 1_555
C51 C9 1.359370 1_555
C51 C63 1.499499 1_545
C51 C82 1.538023 1_545
C52 C54 1.684299 1_555
C53 C88 1.375480 1_555
C53 C90 1.444928 1_555
C54 C8 1.487206 1_555
C54 C69 1.514827 1_555
C54 C9 1.583625 1_555
C56 C57 1.538023 1_555
C58 C6 1.429954 1_554
C58 C9 1.493101 1_555
C60 C96 1.375480 1_565
C60 C64 1.514827 1_555
C61 C77 1.538023 1_565
C64 C92 1.487206 1_555
C65 C99 1.517089 1_555
C66 C91 1.375480 1_555
C66 C90 1.444928 1_555
C67 C76 1.352901 1_555
C74 C98 1.499499 1_545
C76 C81 1.442476 1_555
C80 C92 1.374896 1_655
C81 C90 1.354982 1_555
C82 C85 1.684299 1_555
C83 C95 1.493101 1_555
C84 C87 1.352901 1_555
C84 C99 1.513748 1_555
C85 C95 1.583625 1_555
C87 C97 1.388447 1_555
C88 C91 1.503552 1_555
C93 C99 1.538023 1_565
C100 C56 1.359370 1_555
C100 C43 1.493101 1_555
C100 C23 1.583625 1_555
C101 C30 1.374896 1_555
C101 C113 1.487206 1_555
C102 C78 1.352901 1_555
C102 C28 1.429961 1_555
C102 C52 1.513748 1_555
C103 C46 1.375480 1_545
C103 C69 1.503552 1_455
C103 C44 1.514827 1_555
C104 C65 1.375480 1_565
C104 C60 1.503552 1_655
C104 C2 1.514827 1_555
C105 C7 1.371901 1_554
C105 C20 1.388444 1_555
C105 C73 1.408373 1_455
C106 C95 1.359370 1_555
C106 C70 1.499499 1_555
C106 C52 1.538023 1_555
C107 C75 1.375480 1_555
C107 C79 1.444928 1_555
C107 C57 1.517089 1_555
C108 C114 1.375480 1_555
C108 C79 1.444928 1_555
C108 C52 1.517089 1_555
C109 C73 1.371906 1_556
C109 C80 1.413512 1_555
C109 C37 1.423950 1_555
C110 C37 1.429954 1_554
C110 C115 1.429961 1_555
C110 C63 1.481362 1_555
C111 C48 1.374896 1_555
C111 C29 1.413512 1_555
C111 C23 1.487206 1_555
C112 C59 1.513748 1_555
C112 C96 1.517089 1_555
C112 C98 1.538023 1_545
C112 C38 1.684299 1_555
C113 C88 1.514827 1_555
C113 C41 1.583625 1_555
C113 C99 1.684299 1_555
C114 C75 1.503552 1_555
C114 C85 1.514827 1_555
C115 C24 1.352901 1_555
C115 C82 1.513748 1_555
C116 C8 1.374896 1_455
C116 C68 1.413512 1_555
C116 C44 1.487206 1_555
C117 C67 1.513748 1_555
C117 C53 1.517089 1_555
C117 C71 1.538023 1_555
C117 C2 1.684299 1_555
C118 C7 1.423950 1_555
C118 C3 1.429954 1_556
C119 C55 1.388444 1_555
C119 C32 1.408373 1_555
