# generated using pymatgen
data_U3O8
_symmetry_space_group_name_H-M   'P 1'
_cell_length_a   6.47114838
_cell_length_b   6.47114838
_cell_length_c   4.17538800
_cell_angle_alpha   90.00000000
_cell_angle_beta   90.00000000
_cell_angle_gamma   120.00000390
_symmetry_Int_Tables_number   1
_chemical_formula_structural   U3O8
_chemical_formula_sum   'U3 O8'
_cell_volume   151.42241547
_cell_formula_units_Z   1
loop_
 _symmetry_equiv_pos_site_id
 _symmetry_equiv_pos_as_xyz
  1  'x, y, z'
loop_
 _atom_site_type_symbol
 _atom_site_label
 _atom_site_symmetry_multiplicity
 _atom_site_fract_x
 _atom_site_fract_y
 _atom_site_fract_z
 _atom_site_occupancy
  U  U0  1  0.00000000  0.00000000  0.00000000  1
  U  U1  1  0.66666700  0.33333300  0.00000000  1
  U  U2  1  0.33333300  0.66666700  0.00000000  1
  O  O0  1  0.68124900  0.68124900  0.15854300  1
  O  O1  1  0.31875100  0.00000000  0.15854300  1
  O  O2  1  0.00000000  0.31875100  0.15854300  1
  O  O3  1  0.33333300  0.66666700  0.50000000  1
  O  O4  1  0.31875100  0.31875100  0.84145700  1
  O  O5  1  0.68124900  0.00000000  0.84145700  1
  O  O6  1  0.00000000  0.68124900  0.84145700  1
  O  O7  1  0.66666700  0.33333300  0.50000000  1
loop_
_geom_bond_atom_site_label_1
_geom_bond_atom_site_label_2
_geom_bond_distance
_geom_bond_site_symmetry_2
O0 U0 2.166307 1_665
O0 U1 2.302943 1_555
O0 U2 2.302943 1_555
O1 U0 2.166307 1_555
O1 U2 2.302937 1_545
O1 U1 2.302940 1_555
O2 U0 2.166307 1_555
O2 U1 2.302937 1_455
O2 U2 2.302940 1_555
O3 U2 2.087694 1_555
O3 U2 2.087694 1_556
O4 U0 2.166307 1_556
O4 U2 2.302943 1_556
O4 U1 2.302943 1_556
O5 U0 2.166307 1_656
O5 U1 2.302937 1_556
O5 U2 2.302940 1_546
O6 U0 2.166307 1_566
O6 U2 2.302937 1_556
O6 U1 2.302940 1_456
O7 U1 2.087694 1_556
O7 U1 2.087694 1_555
