# generated using pymatgen
data_BaSi2O5
_symmetry_space_group_name_H-M   'P 1'
_cell_length_a   4.65736664
_cell_length_b   11.84252805
_cell_length_c   13.66432777
_cell_angle_alpha   97.36514687
_cell_angle_beta   90.00000000
_cell_angle_gamma   101.34039128
_symmetry_Int_Tables_number   1
_chemical_formula_structural   BaSi2O5
_chemical_formula_sum   'Ba6 Si12 O30'
_cell_volume   732.59871314
_cell_formula_units_Z   6
loop_
 _symmetry_equiv_pos_site_id
 _symmetry_equiv_pos_as_xyz
  1  'x, y, z'
loop_
 _atom_site_type_symbol
 _atom_site_label
 _atom_site_symmetry_multiplicity
 _atom_site_fract_x
 _atom_site_fract_y
 _atom_site_fract_z
 _atom_site_occupancy
  Ba  Ba0  1  0.70981483  0.32746613  0.43587850  1
  Ba  Ba1  1  0.38234770  0.67253387  0.06412150  1
  Ba  Ba2  1  0.29018517  0.67253387  0.56412150  1
  Ba  Ba3  1  0.61765230  0.32746613  0.93587850  1
  Ba  Ba4  1  0.00000000  0.00000000  -0.00000000  1
  Ba  Ba5  1  0.00000000  0.00000000  0.50000000  1
  Si  Si0  1  0.85968334  0.47448010  0.17943259  1
  Si  Si1  1  0.38520425  0.52551990  0.32056741  1
  Si  Si2  1  0.14031666  0.52551990  0.82056741  1
  Si  Si3  1  0.61479575  0.47448010  0.67943259  1
  Si  Si4  1  0.69058417  0.20471433  0.15023258  1
  Si  Si5  1  0.48587184  0.79528567  0.34976742  1
  Si  Si6  1  0.30941583  0.79528567  0.84976742  1
  Si  Si7  1  0.51412816  0.20471433  0.65023258  1
  Si  Si8  1  0.17277153  0.13320495  0.27085951  1
  Si  Si9  1  0.03956559  0.86679505  0.22914049  1
  Si  Si10  1  0.82722847  0.86679505  0.72914049  1
  Si  Si11  1  0.96043441  0.13320495  0.77085951  1
  O  O0  1  0.67078380  0.47449897  0.28034552  1
  O  O1  1  0.19628483  0.52550103  0.21965448  1
  O  O2  1  0.32921620  0.52550103  0.71965448  1
  O  O3  1  0.80371517  0.47449897  0.78034552  1
  O  O4  1  0.77810693  0.54154259  0.09410830  1
  O  O5  1  0.23656533  0.45845741  0.40589170  1
  O  O6  1  0.22189307  0.45845741  0.90589170  1
  O  O7  1  0.76343467  0.54154259  0.59410830  1
  O  O8  1  0.84203585  0.33789907  0.13549248  1
  O  O9  1  0.50413478  0.66210093  0.36450652  1
  O  O10  1  0.15796415  0.66210093  0.86450652  1
  O  O11  1  0.49586522  0.33789907  0.63549348  1
  O  O12  1  0.53832208  0.14074203  0.04980191  1
  O  O13  1  0.39758005  0.85925797  0.45019809  1
  O  O14  1  0.46167792  0.85925797  0.95019809  1
  O  O15  1  0.60242095  0.14074203  0.54980191  1
  O  O16  1  0.94950848  0.14023514  0.18049817  1
  O  O17  1  0.80927334  0.85976486  0.31950183  1
  O  O18  1  0.77433473  0.00000000  0.75000000  1
  O  O19  1  0.22566527  -0.00000000  0.25000000  1
  O  O20  1  0.09367988  0.17318849  0.87851122  1
  O  O21  1  0.92049138  0.82681151  0.62148878  1
  O  O22  1  0.90632012  0.82681151  0.12148878  1
  O  O23  1  0.07950862  0.17318849  0.37851122  1
  O  O24  1  0.72731194  0.21455222  0.74733028  1
  O  O25  1  0.51276172  0.78544778  0.75266972  1
  O  O26  1  0.27268806  0.78544778  0.25266972  1
  O  O27  1  0.48723928  0.21455222  0.24733028  1
  O  O28  1  0.19072666  0.14023514  0.68049817  1
  O  O29  1  0.05049152  0.85976486  0.81950183  1
loop_
_geom_bond_atom_site_label_1
_geom_bond_atom_site_label_2
_geom_bond_distance
_geom_bond_site_symmetry_2
Ba0 O5 2.694281 1_655
Ba0 O23 2.790538 1_655
Ba0 O15 2.830337 1_555
Ba0 O27 2.841124 1_555
Ba0 O11 2.900000 1_555
Ba0 O0 2.941924 1_555
Ba0 O5 2.989983 1_555
Ba0 O7 3.083829 1_555
Ba0 O23 3.177046 1_555
Ba1 O4 2.694281 1_555
Ba1 O22 2.790542 1_555
Ba1 O14 2.830337 1_554
Ba1 O26 2.841122 1_555
Ba1 O10 2.900002 1_554
Ba1 O1 2.941924 1_555
Ba1 O4 2.989983 1_455
Ba1 O6 3.083828 1_554
Ba1 O22 3.177042 1_455
Ba2 O7 2.694281 1_455
Ba2 O21 2.790538 1_455
Ba2 O13 2.830337 1_555
Ba2 O25 2.841126 1_555
Ba2 O9 2.900000 1_555
Ba2 O2 2.941924 1_555
Ba2 O7 2.989983 1_555
Ba2 O5 3.083829 1_555
Ba2 O21 3.177046 1_555
Ba3 O6 2.694281 1_555
Ba3 O20 2.790542 1_555
Ba3 O12 2.830337 1_556
Ba3 O24 2.841122 1_555
Ba3 O8 2.899989 1_556
Ba3 O3 2.941924 1_555
Ba3 O6 2.989983 1_655
Ba3 O4 3.083828 1_556
Ba3 O20 3.177042 1_655
Ba4 O14 2.755499 1_444
Ba4 O12 2.755499 1_555
Ba4 O20 2.770151 1_554
Ba4 O22 2.770151 1_445
Ba4 O29 2.828399 1_544
Ba4 O16 2.828399 1_455
Ba4 O12 2.997186 1_455
Ba4 O14 2.997186 1_544
Ba5 O15 2.755495 1_455
Ba5 O13 2.755499 1_545
Ba5 O21 2.770151 1_445
Ba5 O23 2.770151 1_555
Ba5 O28 2.828399 1_555
Ba5 O17 2.828399 1_445
Ba5 O13 2.997186 1_445
Ba5 O15 2.997190 1_555
O0 Si1 1.633121 1_555
O0 Si0 1.635661 1_555
O1 Si0 1.633125 1_455
O1 Si1 1.635664 1_555
O2 Si3 1.633121 1_555
O2 Si2 1.635661 1_555
O3 Si2 1.633125 1_655
O3 Si3 1.635664 1_555
O4 Si0 1.578122 1_555
O5 Si1 1.578122 1_555
O6 Si2 1.578122 1_555
O7 Si3 1.578122 1_555
O8 Si4 1.633929 1_555
O8 Si0 1.637734 1_555
O9 Si5 1.633921 1_555
O9 Si1 1.637729 1_555
O10 Si6 1.633925 1_555
O10 Si2 1.637731 1_555
O11 Si7 1.633921 1_555
O11 Si3 1.637729 1_555
O12 Si4 1.575515 1_555
O13 Si5 1.575519 1_555
O14 Si6 1.575515 1_555
O15 Si7 1.575520 1_555
O16 Si4 1.628318 1_555
O16 Si8 1.634963 1_655
O17 Si5 1.628310 1_555
O17 Si9 1.634960 1_655
O18 Si10 1.633381 1_545
O18 Si11 1.633382 1_555
O19 Si8 1.633381 1_555
O19 Si9 1.633382 1_545
O20 Si11 1.574480 1_455
O21 Si10 1.574481 1_555
O22 Si9 1.574480 1_655
O23 Si8 1.574481 1_555
O24 Si7 1.635415 1_555
O24 Si11 1.643474 1_555
O25 Si6 1.635415 1_555
O25 Si10 1.643463 1_555
O26 Si5 1.635415 1_555
O26 Si9 1.643474 1_555
O27 Si4 1.635412 1_555
O27 Si8 1.643467 1_555
O28 Si7 1.628310 1_555
O28 Si11 1.634960 1_455
O29 Si6 1.628318 1_555
O29 Si10 1.634963 1_455
