# generated using pymatgen
data_BaP2(XeF5)4
_symmetry_space_group_name_H-M   'P 1'
_cell_length_a   8.98508300
_cell_length_b   9.17375693
_cell_length_c   26.01878510
_cell_angle_alpha   96.39754391
_cell_angle_beta   93.90892106
_cell_angle_gamma   98.50279370
_symmetry_Int_Tables_number   1
_chemical_formula_structural   BaP2(XeF5)4
_chemical_formula_sum   'Ba4 P8 Xe16 F80'
_cell_volume   2100.03663886
_cell_formula_units_Z   4
loop_
 _symmetry_equiv_pos_site_id
 _symmetry_equiv_pos_as_xyz
  1  'x, y, z'
loop_
 _atom_site_type_symbol
 _atom_site_label
 _atom_site_symmetry_multiplicity
 _atom_site_fract_x
 _atom_site_fract_y
 _atom_site_fract_z
 _atom_site_occupancy
  Ba  Ba0  1  0.84272700  0.72105100  0.60090000  1
  Ba  Ba1  1  0.15727300  0.27894900  0.39910000  1
  Ba  Ba2  1  0.54345700  0.77155300  0.13913400  1
  Ba  Ba3  1  0.45654300  0.22844700  0.86086600  1
  P  P0  1  0.33970200  0.01439300  0.27123600  1
  P  P1  1  0.72003700  0.11056700  0.95529600  1
  P  P2  1  0.09598500  0.56274800  0.71039800  1
  P  P3  1  0.68763800  0.79722900  0.45506500  1
  P  P4  1  0.27996300  0.88943300  0.04470400  1
  P  P5  1  0.90401500  0.43725200  0.28960200  1
  P  P6  1  0.66029800  0.98560700  0.72876400  1
  P  P7  1  0.31236200  0.20277100  0.54493500  1
  Xe  Xe0  1  0.97482200  0.36809800  0.84700800  1
  Xe  Xe1  1  0.17386000  0.77661900  0.42371300  1
  Xe  Xe2  1  0.58003000  0.45758700  0.71657500  1
  Xe  Xe3  1  0.21395500  0.37977900  0.00055900  1
  Xe  Xe4  1  0.98020600  0.10677700  0.12880000  1
  Xe  Xe5  1  0.82614000  0.22338100  0.57628700  1
  Xe  Xe6  1  0.16493400  0.03806300  0.71034000  1
  Xe  Xe7  1  0.83506600  0.96193700  0.28966000  1
  Xe  Xe8  1  0.41997000  0.54241300  0.28342500  1
  Xe  Xe9  1  0.32043700  0.70052300  0.57313300  1
  Xe  Xe10  1  0.02517800  0.63190200  0.15299200  1
  Xe  Xe11  1  0.78604500  0.62022100  0.99944100  1
  Xe  Xe12  1  0.53612400  0.27073800  0.13658800  1
  Xe  Xe13  1  0.01979400  0.89322300  0.87120000  1
  Xe  Xe14  1  0.46387600  0.72926200  0.86341200  1
  Xe  Xe15  1  0.67956300  0.29947700  0.42686700  1
  F  F0  1  0.85853500  0.70823300  0.85098000  1
  F  F1  1  0.04908000  0.55668900  0.27922000  1
  F  F2  1  0.53384200  0.07640800  0.94986900  1
  F  F3  1  0.00971400  0.30367900  0.28484000  1
  F  F4  1  0.82782100  0.93477700  0.46771900  1
  F  F5  1  0.76159700  0.88375400  0.69221500  1
  F  F6  1  0.69545800  0.50186800  0.65236100  1
  F  F7  1  0.03588800  0.40937500  0.04437400  1
  F  F8  1  0.46615800  0.92359200  0.05013100  1
  F  F9  1  0.81143400  0.43195200  0.55360200  1
  F  F10  1  0.80272700  0.02642500  0.77324100  1
  F  F11  1  0.04185100  0.53457000  0.64674100  1
  F  F12  1  0.59769000  0.83974400  0.75614300  1
  F  F13  1  0.23840300  0.11624600  0.30778500  1
  F  F14  1  0.90428600  0.29639400  0.45182600  1
  F  F15  1  0.38937700  0.13951800  0.49315500  1
  F  F16  1  0.15730400  0.98461500  0.40233000  1
  F  F17  1  0.95092000  0.44331100  0.72078000  1
  F  F18  1  0.29125800  0.71749300  0.05781700  1
  F  F19  1  0.89183400  0.08679500  0.36145700  1
  F  F20  1  0.39909700  0.35101400  0.95776200  1
  F  F21  1  0.80321100  0.57000300  0.29655800  1
  F  F22  1  0.72780400  0.94003900  0.96477700  1
  F  F23  1  0.45736100  0.30551900  0.40179900  1
  F  F24  1  0.19678900  0.42999700  0.70344200  1
  F  F25  1  0.55887400  0.08704000  0.76558900  1
  F  F26  1  0.70874200  0.28250700  0.94218300  1
  F  F27  1  0.28776700  0.93833400  0.10887000  1
  F  F28  1  0.40532900  0.10701300  0.58096400  1
  F  F29  1  0.61861000  0.08506200  0.15938600  1
  F  F30  1  0.19727300  0.97357500  0.22675900  1
  F  F31  1  0.20792100  0.39935100  0.86645800  1
  F  F32  1  0.72481100  0.13157600  0.70188300  1
  F  F33  1  0.09676200  0.85298600  0.04293300  1
  F  F34  1  0.78324900  0.84247600  0.21598600  1
  F  F35  1  0.71223300  0.06166600  0.89113000  1
  F  F36  1  0.61062300  0.86048200  0.50684500  1
  F  F37  1  0.23176600  0.27014400  0.59452500  1
  F  F38  1  0.27219600  0.05996100  0.03522300  1
  F  F39  1  0.10816600  0.91320500  0.63854300  1
  F  F40  1  0.23938700  0.68285600  0.69915200  1
  F  F41  1  0.85403800  0.40368700  0.22731800  1
  F  F42  1  0.79207900  0.60064900  0.13354200  1
  F  F43  1  0.18856600  0.56804800  0.44639800  1
  F  F44  1  0.53697700  0.58849000  0.21931600  1
  F  F45  1  0.54198400  0.54415600  0.88796300  1
  F  F46  1  0.09571400  0.70360600  0.54817400  1
  F  F47  1  0.27518900  0.86842400  0.29811700  1
  F  F48  1  0.44959600  0.34390700  0.55562900  1
  F  F49  1  0.72323900  0.16363200  0.01664100  1
  F  F50  1  0.81979900  0.91375800  0.10762600  1
  F  F51  1  0.38139000  0.91493800  0.84061400  1
  F  F52  1  0.18020100  0.08624200  0.89237400  1
  F  F53  1  0.60090300  0.64898600  0.04223800  1
  F  F54  1  0.55040400  0.65609300  0.44437100  1
  F  F55  1  0.14146500  0.29176700  0.14902000  1
  F  F56  1  0.21675100  0.15752400  0.78401400  1
  F  F57  1  0.45801600  0.45584400  0.11203700  1
  F  F58  1  0.51891900  0.94553900  0.68461900  1
  F  F59  1  0.48108100  0.05446100  0.31538100  1
  F  F60  1  0.25679400  0.65431300  0.17040600  1
  F  F61  1  0.59467100  0.89298700  0.41903600  1
  F  F62  1  0.17217900  0.06522300  0.53228100  1
  F  F63  1  0.95814900  0.46543000  0.35325900  1
  F  F64  1  0.14596200  0.59631300  0.77268200  1
  F  F65  1  0.44112600  0.91296000  0.23441100  1
  F  F66  1  0.96411200  0.59062500  0.95562600  1
  F  F67  1  0.46302300  0.41151000  0.78068400  1
  F  F68  1  0.30454200  0.49813200  0.34763900  1
  F  F69  1  0.84269600  0.01538500  0.59767000  1
  F  F70  1  0.27676100  0.83636800  0.98335900  1
  F  F71  1  0.21683400  0.30191600  0.50669100  1
  F  F72  1  0.76061300  0.31714400  0.30084800  1
  F  F73  1  0.76823400  0.72985600  0.40547500  1
  F  F74  1  0.78316600  0.69808400  0.49330900  1
  F  F75  1  0.40231000  0.16025600  0.24385700  1
  F  F76  1  0.99028600  0.69632100  0.71516000  1
  F  F77  1  0.90323800  0.14701400  0.95706700  1
  F  F78  1  0.74320600  0.34568700  0.82959400  1
  F  F79  1  0.54263900  0.69448100  0.59820100  1
loop_
_geom_bond_atom_site_label_1
_geom_bond_atom_site_label_2
_geom_bond_distance
_geom_bond_site_symmetry_2
Ba0 F79 2.666549 1_555
Ba0 F69 2.710840 1_565
Ba0 F46 2.749267 1_655
Ba0 F9 2.762652 1_555
Ba0 F6 2.764327 1_555
Ba0 F74 2.792547 1_555
Ba0 F39 2.794342 1_655
Ba0 F5 2.858627 1_555
Ba0 F11 2.935834 1_655
Ba0 F76 3.217036 1_555
Ba1 F23 2.666549 1_555
Ba1 F16 2.710840 1_545
Ba1 F14 2.749267 1_455
Ba1 F43 2.762652 1_555
Ba1 F68 2.764327 1_555
Ba1 F71 2.792547 1_555
Ba1 F19 2.794342 1_455
Ba1 F13 2.858627 1_555
Ba1 F63 2.935834 1_455
Ba1 F3 3.217036 1_555
Ba2 F53 2.757541 1_555
Ba2 F34 2.787819 1_555
Ba2 F44 2.818601 1_555
Ba2 F29 2.836332 1_565
Ba2 F50 2.845522 1_555
Ba2 F60 2.848605 1_555
Ba2 F57 2.878935 1_555
Ba2 F42 2.915254 1_555
Ba2 F8 2.928726 1_555
Ba2 F65 2.936057 1_555
Ba2 F18 2.938960 1_555
Ba2 F27 3.049638 1_555
Ba3 F20 2.757541 1_555
Ba3 F56 2.787819 1_555
Ba3 F67 2.818601 1_555
Ba3 F51 2.836332 1_545
Ba3 F52 2.845522 1_555
Ba3 F78 2.848605 1_555
Ba3 F45 2.878935 1_555
Ba3 F31 2.915254 1_555
Ba3 F2 2.928726 1_555
Ba3 F25 2.936057 1_555
Ba3 F26 2.938960 1_555
Ba3 F35 3.049638 1_555
F0 Xe13 2.055754 1_655
F1 P5 1.632190 1_455
F2 P1 1.649209 1_555
F3 P5 1.656858 1_455
F4 P3 1.633396 1_555
F5 P6 1.666521 1_555
F6 Xe2 2.072450 1_555
F7 Xe3 2.059450 1_555
F8 P4 1.649209 1_555
F9 Xe5 2.083907 1_555
F10 P6 1.636138 1_545
F11 P2 1.674583 1_555
F12 P6 1.630623 1_555
F13 P0 1.666521 1_555
F14 Xe15 2.083678 1_555
F15 P7 1.643860 1_555
F16 Xe1 2.069241 1_555
F17 P2 1.632190 1_655
F18 P4 1.666506 1_555
F19 Xe7 2.069375 1_545
F20 Xe3 2.096126 1_556
F21 P5 1.623459 1_555
F22 P1 1.621405 1_565
F23 Xe15 2.068273 1_555
F24 P2 1.623459 1_555
F25 P6 1.668982 1_545
F26 P1 1.666506 1_555
F27 P4 1.673707 1_555
F28 P7 1.625415 1_555
F29 Xe12 2.083527 1_555
F30 P0 1.636138 1_565
F31 Xe0 2.090564 1_455
F32 P6 1.628735 1_545
F33 P4 1.626946 1_555
F34 Xe7 2.086046 1_555
F35 P1 1.673707 1_555
F36 P3 1.643860 1_555
F37 P7 1.628878 1_555
F38 P4 1.621405 1_545
F39 Xe6 2.069375 1_565
F40 P2 1.631955 1_555
F41 P5 1.634425 1_555
F42 Xe10 2.090564 1_655
F43 Xe1 2.083907 1_555
F44 Xe8 2.081130 1_555
F45 Xe14 2.077791 1_555
F46 Xe9 2.083678 1_555
F47 P0 1.628735 1_565
F48 P7 1.635559 1_555
F49 P1 1.613027 1_554
F50 Xe4 2.106144 1_565
F51 Xe14 2.083527 1_555
F52 Xe13 2.106144 1_545
F53 Xe11 2.096126 1_554
F54 P3 1.635559 1_555
F55 Xe4 2.055754 1_455
F56 Xe6 2.086046 1_555
F57 Xe12 2.077791 1_555
F58 P6 1.623872 1_555
F59 P0 1.623872 1_555
F60 Xe10 2.074283 1_555
F61 P3 1.625415 1_555
F62 P7 1.633396 1_555
F63 P5 1.674583 1_555
F64 P2 1.634425 1_555
F65 P0 1.668982 1_565
F66 Xe11 2.059450 1_555
F67 Xe2 2.081130 1_555
F68 Xe8 2.072450 1_555
F69 Xe5 2.069241 1_555
F70 P4 1.613027 1_556
F71 P7 1.694174 1_555
F72 P5 1.631955 1_555
F73 P3 1.628878 1_555
F74 P3 1.694174 1_555
F75 P0 1.630623 1_555
F76 P2 1.656858 1_655
F77 P1 1.626946 1_555
F78 Xe0 2.074283 1_555
F79 Xe9 2.068273 1_555
