# generated using pymatgen
data_PtF5
_symmetry_space_group_name_H-M   'P 1'
_cell_length_a   5.35676767
_cell_length_b   9.74498816
_cell_length_c   12.18933956
_cell_angle_alpha   90.00000000
_cell_angle_beta   99.57792405
_cell_angle_gamma   90.00000000
_symmetry_Int_Tables_number   1
_chemical_formula_structural   PtF5
_chemical_formula_sum   'Pt8 F40'
_cell_volume   627.43355370
_cell_formula_units_Z   8
loop_
 _symmetry_equiv_pos_site_id
 _symmetry_equiv_pos_as_xyz
  1  'x, y, z'
loop_
 _atom_site_type_symbol
 _atom_site_label
 _atom_site_symmetry_multiplicity
 _atom_site_fract_x
 _atom_site_fract_y
 _atom_site_fract_z
 _atom_site_occupancy
  Pt  Pt0  1  -0.00051030  0.25176128  0.00032482  1
  Pt  Pt1  1  0.00050086  0.75167874  0.49968073  1
  Pt  Pt2  1  0.00050086  0.74832126  0.99968073  1
  Pt  Pt3  1  -0.00051030  0.24823872  0.50032482  1
  Pt  Pt4  1  0.30553836  -0.00028921  0.20213003  1
  Pt  Pt5  1  0.69445526  0.49961594  0.29786782  1
  Pt  Pt6  1  0.69445526  0.00038406  0.79786782  1
  Pt  Pt7  1  0.30553836  0.50028921  0.70213003  1
  F  F0  1  0.10552438  0.82962627  0.15462791  1
  F  F1  1  0.89449328  0.32954247  0.34535911  1
  F  F2  1  0.89449328  0.17045753  0.84535911  1
  F  F3  1  0.10552438  0.67037373  0.65462791  1
  F  F4  1  0.49202744  0.15599450  0.24832082  1
  F  F5  1  0.50792324  0.65588791  0.25165584  1
  F  F6  1  0.50792324  0.84411209  0.75165584  1
  F  F7  1  0.49202744  0.34400550  0.74832082  1
  F  F8  1  0.80970606  0.40625642  0.95250838  1
  F  F9  1  0.19021880  0.90616598  0.54750979  1
  F  F10  1  0.19021880  0.59383402  0.04750979  1
  F  F11  1  0.80970606  0.09374358  0.45250838  1
  F  F12  1  0.09850153  0.32935555  0.14207352  1
  F  F13  1  0.90150646  0.82928752  0.35793703  1
  F  F14  1  0.90150646  0.67071248  0.85793703  1
  F  F15  1  0.09850153  0.17064445  0.64207352  1
  F  F16  1  0.72072953  0.33513100  0.54623450  1
  F  F17  1  0.27924965  0.83518090  0.95374694  1
  F  F18  1  0.27924965  0.66481910  0.45374694  1
  F  F19  1  0.72072953  0.16486900  0.04623450  1
  F  F20  1  0.20165332  0.08232187  0.04756264  1
  F  F21  1  0.79844880  0.58222787  0.45243557  1
  F  F22  1  0.79844880  0.91777213  0.95243557  1
  F  F23  1  0.20165332  0.41767813  0.54756264  1
  F  F24  1  0.41283459  0.41850836  0.34577012  1
  F  F25  1  0.58717497  0.91860522  0.15423134  1
  F  F26  1  0.58717497  0.58139478  0.65423134  1
  F  F27  1  0.41283459  0.08149164  0.84577012  1
  F  F28  1  0.59958722  0.08137128  0.65726258  1
  F  F29  1  0.40039020  0.58124746  0.84274493  1
  F  F30  1  0.40039020  0.91875254  0.34274493  1
  F  F31  1  0.59958722  0.41862872  0.15726258  1
  F  F32  1  0.01454359  0.07378048  0.24646656  1
  F  F33  1  0.98546418  0.57363086  0.25351589  1
  F  F34  1  0.98546418  0.92636914  0.75351589  1
  F  F35  1  0.01454359  0.42621952  0.74646656  1
  F  F36  1  0.29006214  0.32329450  0.95397825  1
  F  F37  1  0.70997742  0.82324317  0.54605590  1
  F  F38  1  0.70997742  0.67675683  0.04605590  1
  F  F39  1  0.29006214  0.17670550  0.45397825  1
loop_
_geom_bond_atom_site_label_1
_geom_bond_atom_site_label_2
_geom_bond_distance
_geom_bond_site_symmetry_2
F0 Pt4 2.005988 1_565
F0 Pt2 2.039087 1_554
F1 Pt5 2.005935 1_555
F1 Pt3 2.039263 1_655
F2 Pt6 2.005935 1_555
F2 Pt0 2.039263 1_656
F3 Pt7 2.005988 1_555
F3 Pt1 2.039087 1_555
F4 Pt4 1.856682 1_555
F5 Pt5 1.856756 1_555
F6 Pt6 1.856756 1_565
F7 Pt7 1.856682 1_555
F8 Pt0 1.855465 1_656
F9 Pt1 1.855263 1_555
F10 Pt2 1.855263 1_554
F11 Pt3 1.855465 1_655
F12 Pt0 1.879758 1_555
F13 Pt1 1.879749 1_655
F14 Pt2 1.879749 1_655
F15 Pt3 1.879758 1_555
F16 Pt3 1.880973 1_655
F17 Pt2 1.880905 1_555
F18 Pt1 1.880905 1_555
F19 Pt0 1.880973 1_655
F20 Pt0 2.005796 1_555
F20 Pt4 2.039266 1_555
F21 Pt1 2.005611 1_655
F21 Pt5 2.039342 1_555
F22 Pt2 2.005611 1_655
F22 Pt6 2.039342 1_565
F23 Pt3 2.005796 1_555
F23 Pt7 2.039266 1_555
F24 Pt5 1.880050 1_555
F25 Pt4 1.880095 1_565
F26 Pt7 1.880095 1_555
F27 Pt6 1.880050 1_555
F28 Pt6 1.878479 1_555
F29 Pt7 1.878452 1_555
F30 Pt4 1.878452 1_565
F31 Pt5 1.878479 1_555
F32 Pt4 1.877031 1_555
F33 Pt5 1.876972 1_555
F34 Pt6 1.876972 1_565
F35 Pt7 1.877031 1_555
F36 Pt0 1.876297 1_556
F37 Pt1 1.876333 1_655
F38 Pt2 1.876333 1_654
F39 Pt3 1.876297 1_555
