# generated using pymatgen
data_Ti5Re24
_symmetry_space_group_name_H-M   'P 1'
_cell_length_a   8.32845950
_cell_length_b   8.32845741
_cell_length_c   8.32845772
_cell_angle_alpha   109.47122137
_cell_angle_beta   109.47121628
_cell_angle_gamma   109.47121615
_symmetry_Int_Tables_number   1
_chemical_formula_structural   Ti5Re24
_chemical_formula_sum   'Ti5 Re24'
_cell_volume   444.70497219
_cell_formula_units_Z   1
loop_
 _symmetry_equiv_pos_site_id
 _symmetry_equiv_pos_as_xyz
  1  'x, y, z'
loop_
 _atom_site_type_symbol
 _atom_site_label
 _atom_site_symmetry_multiplicity
 _atom_site_fract_x
 _atom_site_fract_y
 _atom_site_fract_z
 _atom_site_occupancy
  Ti  Ti0  1  0.00000000  0.00000000  0.00000000  1
  Ti  Ti1  1  0.63248314  0.63248314  0.63248314  1
  Ti  Ti2  1  0.36751686  0.00000000  0.00000000  1
  Ti  Ti3  1  -0.00000000  0.36751686  -0.00000000  1
  Ti  Ti4  1  0.00000000  0.00000000  0.36751686  1
  Re  Re0  1  0.40037463  0.40037463  0.71833004  1
  Re  Re1  1  0.59962537  0.31795542  0.00000000  1
  Re  Re2  1  0.31795542  0.59962537  0.00000000  1
  Re  Re3  1  -0.00000000  0.31795542  0.59962537  1
  Re  Re4  1  0.28166896  0.68204458  0.68204458  1
  Re  Re5  1  0.68204458  0.28166896  0.68204458  1
  Re  Re6  1  0.31795542  0.00000000  0.59962537  1
  Re  Re7  1  0.59962537  0.00000000  0.31795542  1
  Re  Re8  1  -0.00000000  0.59962537  0.31795542  1
  Re  Re9  1  0.71833004  0.40037463  0.40037463  1
  Re  Re10  1  0.40037463  0.71833004  0.40037463  1
  Re  Re11  1  0.68204458  0.68204458  0.28166896  1
  Re  Re12  1  0.37547136  0.37547136  0.18268659  1
  Re  Re13  1  0.62452864  0.80721523  -0.00000000  1
  Re  Re14  1  0.80721523  0.62452864  0.00000000  1
  Re  Re15  1  -0.00000000  0.80721523  0.62452864  1
  Re  Re16  1  0.81731341  0.19278477  0.19278477  1
  Re  Re17  1  0.19278477  0.81731341  0.19278477  1
  Re  Re18  1  0.80721523  0.00000000  0.62452864  1
  Re  Re19  1  0.62452864  0.00000000  0.80721523  1
  Re  Re20  1  -0.00000000  0.62452864  0.80721523  1
  Re  Re21  1  0.18268659  0.37547136  0.37547136  1
  Re  Re22  1  0.37547136  0.18268659  0.37547136  1
  Re  Re23  1  0.19278477  0.19278477  0.81731341  1
loop_
_geom_bond_atom_site_label_1
_geom_bond_atom_site_label_2
_geom_bond_distance
_geom_bond_site_symmetry_2
Ti0 Ti3 3.060849 1_555
Ti0 Ti4 3.060849 1_555
Ti0 Ti1 3.060849 1_444
Ti0 Ti2 3.060849 1_555
Re0 Re23 2.562311 1_555
Re0 Ti1 2.708605 1_555
Re0 Re22 2.717893 1_555
Re0 Re21 2.717893 1_555
Re0 Re2 2.822367 1_556
Re0 Re1 2.822367 1_556
Re0 Re13 2.834338 1_556
Re0 Re14 2.834339 1_556
Re0 Re6 2.896794 1_555
Re0 Re3 2.896795 1_555
Re0 Re4 2.896799 1_555
Re0 Re5 2.896800 1_555
Re0 Ti4 3.220513 1_555
Re1 Re14 2.562311 1_555
Re1 Ti2 2.708605 1_555
Re1 Re19 2.717893 1_554
Re1 Re16 2.717893 1_555
Re1 Re11 2.822363 1_555
Re1 Re12 2.834338 1_555
Re1 Re23 2.834339 1_554
Re1 Re5 2.896793 1_554
Re1 Re9 2.896795 1_555
Re1 Re6 2.896795 1_554
Re1 Re8 2.896795 1_655
Re1 Ti3 3.220513 1_655
Re2 Ti3 2.708605 1_555
Re2 Re20 2.717894 1_554
Re2 Re23 2.834338 1_554
Re2 Re4 2.896793 1_554
Re2 Re7 2.896795 1_565
Re2 Re3 2.896795 1_554
Re2 Ti2 3.220512 1_565
Re3 Ti4 2.708605 1_555
Re3 Re4 2.822364 1_555
Re3 Re9 2.822367 1_455
Re3 Re5 2.896794 1_455
Re3 Re7 2.896795 1_455
Re3 Ti3 3.220513 1_556
Re4 Ti2 2.708602 1_566
Re4 Re8 2.822364 1_555
Re4 Re6 2.896793 1_565
Re4 Ti1 3.220521 1_555
Re5 Ti3 2.708602 1_656
Re5 Re7 2.822363 1_555
Re5 Re6 2.822364 1_555
Re5 Re9 2.896799 1_555
Re5 Ti1 3.220521 1_555
Re6 Ti4 2.708605 1_555
Re6 Re8 2.896795 1_545
Re6 Ti2 3.220513 1_556
Re7 Ti2 2.708605 1_555
Re7 Re9 2.896794 1_555
Re7 Ti4 3.220513 1_655
Re8 Ti3 2.708605 1_555
Re8 Re9 2.822367 1_455
Re8 Ti4 3.220512 1_565
Re9 Ti1 2.708605 1_555
Re9 Ti2 3.220513 1_555
Re10 Re17 2.562311 1_555
Re10 Ti1 2.708605 1_555
Re10 Re12 2.717893 1_555
Re10 Re21 2.717893 1_555
Re10 Re6 2.822367 1_565
Re10 Re7 2.822367 1_565
Re10 Re19 2.834338 1_565
Re10 Re18 2.834339 1_565
Re10 Re2 2.896794 1_555
Re10 Re8 2.896795 1_555
Re10 Re4 2.896799 1_555
Re10 Re11 2.896800 1_555
Re10 Ti3 3.220513 1_555
Re11 Re12 2.562314 1_555
Re11 Ti4 2.708602 1_665
Re11 Re18 2.717898 1_565
Re11 Re15 2.717898 1_655
Re11 Re2 2.822364 1_555
Re11 Re13 2.834331 1_555
Re11 Re14 2.834331 1_555
Re11 Re7 2.896793 1_565
Re11 Re8 2.896794 1_655
Re11 Re9 2.896799 1_555
Re11 Ti1 3.220521 1_555
Re12 Re23 2.484595 1_554
Re12 Re22 2.621933 1_555
Re12 Re21 2.621934 1_555
Re12 Re9 2.717894 1_555
Re12 Re2 2.834338 1_555
Re12 Ti2 2.953110 1_555
Re12 Ti3 2.953111 1_555
Re12 Ti0 3.001574 1_555
Re12 Ti1 3.074239 1_555
Re13 Re14 2.484595 1_555
Re13 Re2 2.562312 1_555
Re13 Re19 2.621933 1_564
Re13 Re16 2.621934 1_565
Re13 Re7 2.717893 1_565
Re13 Re4 2.717899 1_554
Re13 Ti1 2.953110 1_554
Re13 Ti4 2.953111 1_665
Re13 Ti0 3.001574 1_665
Re13 Ti2 3.074239 1_565
Re14 Re20 2.621934 1_654
Re14 Re17 2.621934 1_655
Re14 Re8 2.717893 1_655
Re14 Re5 2.717898 1_554
Re14 Ti4 2.953110 1_665
Re14 Ti1 2.953110 1_554
Re14 Ti0 3.001574 1_665
Re14 Ti3 3.074239 1_655
Re15 Re20 2.484595 1_555
Re15 Re8 2.562311 1_555
Re15 Re23 2.621934 1_565
Re15 Re18 2.621934 1_465
Re15 Re6 2.717894 1_565
Re15 Re4 2.834331 1_555
Re15 Re9 2.834338 1_455
Re15 Ti2 2.953111 1_566
Re15 Ti1 2.953111 1_455
Re15 Ti0 3.001574 1_566
Re15 Ti4 3.074239 1_565
Re16 Re21 2.484596 1_655
Re16 Re9 2.562311 1_555
Re16 Re19 2.621934 1_554
Re16 Re7 2.717893 1_555
Re16 Re8 2.834338 1_655
Re16 Re3 2.834338 1_655
Re16 Ti4 2.953110 1_655
Re16 Ti3 2.953110 1_655
Re16 Ti0 3.001574 1_655
Re16 Ti2 3.074240 1_555
Re17 Re22 2.484595 1_565
Re17 Re20 2.621934 1_554
Re17 Re2 2.717893 1_555
Re17 Re8 2.717893 1_555
Re17 Re6 2.834338 1_565
Re17 Re7 2.834339 1_565
Re17 Ti2 2.953110 1_565
Re17 Ti4 2.953110 1_565
Re17 Ti0 3.001574 1_565
Re17 Ti3 3.074239 1_555
Re18 Re19 2.484595 1_555
Re18 Re7 2.562311 1_555
Re18 Re23 2.621934 1_655
Re18 Re3 2.717893 1_655
Re18 Re5 2.834331 1_555
Re18 Ti1 2.953110 1_545
Re18 Ti3 2.953110 1_656
Re18 Ti0 3.001574 1_656
Re18 Ti4 3.074239 1_655
Re19 Re6 2.562312 1_555
Re19 Re4 2.717898 1_545
Re19 Re5 2.834331 1_555
Re19 Ti1 2.953110 1_545
Re19 Ti3 2.953111 1_656
Re19 Ti0 3.001574 1_656
Re19 Ti2 3.074239 1_556
Re20 Re3 2.562311 1_555
Re20 Re5 2.717898 1_455
Re20 Re4 2.834331 1_555
Re20 Re9 2.834338 1_455
Re20 Ti2 2.953111 1_566
Re20 Ti1 2.953111 1_455
Re20 Ti0 3.001573 1_566
Re20 Ti3 3.074239 1_556
Re21 Re4 2.562314 1_555
Re21 Re22 2.621934 1_555
Re21 Re8 2.834338 1_555
Re21 Re3 2.834338 1_555
Re21 Ti4 2.953110 1_555
Re21 Ti3 2.953110 1_555
Re21 Ti0 3.001574 1_555
Re21 Ti1 3.074240 1_555
Re22 Re5 2.562314 1_555
Re22 Re9 2.717894 1_555
Re22 Re6 2.834338 1_555
Re22 Re7 2.834338 1_555
Re22 Ti2 2.953110 1_555
Re22 Ti4 2.953111 1_555
Re22 Ti0 3.001574 1_555
Re22 Ti1 3.074239 1_555
Re23 Re6 2.717893 1_555
Re23 Re3 2.717893 1_555
Re23 Ti2 2.953110 1_556
Re23 Ti3 2.953110 1_556
Re23 Ti0 3.001574 1_556
Re23 Ti4 3.074239 1_555
