# generated using pymatgen
data_Dy2O3
_symmetry_space_group_name_H-M   'P 1'
_cell_length_a   3.48418665
_cell_length_b   7.17336693
_cell_length_c   8.59569215
_cell_angle_alpha   99.80267879
_cell_angle_beta   89.99931543
_cell_angle_gamma   104.05515191
_symmetry_Int_Tables_number   1
_chemical_formula_structural   Dy2O3
_chemical_formula_sum   'Dy6 O9'
_cell_volume   205.16869165
_cell_formula_units_Z   3
loop_
 _symmetry_equiv_pos_site_id
 _symmetry_equiv_pos_as_xyz
  1  'x, y, z'
loop_
 _atom_site_type_symbol
 _atom_site_label
 _atom_site_symmetry_multiplicity
 _atom_site_fract_x
 _atom_site_fract_y
 _atom_site_fract_z
 _atom_site_occupancy
  Dy  Dy0  1  0.63496520  0.26990626  0.48744763  1
  Dy  Dy1  1  0.69097796  0.38196723  0.13751846  1
  Dy  Dy2  1  0.03313278  0.06625578  0.81275173  1
  Dy  Dy3  1  0.36503480  0.73009374  0.51255237  1
  Dy  Dy4  1  0.30902204  0.61803277  0.86248154  1
  Dy  Dy5  1  0.96686722  0.93374422  0.18724827  1
  O  O0  1  0.87209812  0.74421922  0.71760674  1
  O  O1  1  0.79466506  0.58919981  0.37616123  1
  O  O2  1  0.12790188  0.25578078  0.28239326  1
  O  O3  1  0.20533494  0.41080019  0.62383877  1
  O  O4  1  0.50000000  0.00000000  -0.00000000  1
  O  O5  1  0.47130566  0.94266368  0.34361320  1
  O  O6  1  0.52869434  0.05733632  0.65638680  1
  O  O7  1  0.17473464  0.34951541  0.97014041  1
  O  O8  1  0.82526536  0.65048459  0.02985959  1
loop_
_geom_bond_atom_site_label_1
_geom_bond_atom_site_label_2
_geom_bond_distance
_geom_bond_site_symmetry_2
Dy0 O3 2.228506 1_655
Dy0 O3 2.228904 1_555
Dy0 O6 2.247382 1_555
Dy0 O5 2.392859 1_545
Dy0 O2 2.467865 1_655
Dy0 O2 2.467898 1_555
Dy0 O1 2.568592 1_555
Dy1 O8 2.225902 1_555
Dy1 O7 2.245332 1_654
Dy1 O7 2.245453 1_554
Dy1 O1 2.291073 1_555
Dy1 O2 2.395883 1_555
Dy1 O2 2.395991 1_655
Dy1 O4 2.712784 1_555
Dy2 O7 2.186192 1_555
Dy2 O6 2.194486 1_455
Dy2 O6 2.194578 1_555
Dy2 O0 2.246621 1_445
Dy2 O4 2.469515 1_456
Dy2 O4 2.469518 1_556
Dy3 O1 2.228506 1_455
Dy3 O1 2.228904 1_555
Dy3 O5 2.247382 1_555
Dy3 O6 2.392859 1_565
Dy3 O0 2.467865 1_455
Dy3 O0 2.467898 1_555
Dy3 O3 2.568592 1_555
Dy4 O7 2.225902 1_555
Dy4 O8 2.245332 1_456
Dy4 O8 2.245453 1_556
Dy4 O3 2.291073 1_555
Dy4 O0 2.395883 1_555
Dy4 O0 2.395991 1_455
Dy4 O4 2.712784 1_566
Dy5 O8 2.186192 1_555
Dy5 O5 2.194486 1_655
Dy5 O5 2.194578 1_555
Dy5 O2 2.246621 1_665
Dy5 O4 2.469515 1_665
Dy5 O4 2.469518 1_565
