# generated using pymatgen
data_Cs3NdCr3O12
_symmetry_space_group_name_H-M   'P 1'
_cell_length_a   10.56685000
_cell_length_b   10.57858367
_cell_length_c   15.24474543
_cell_angle_alpha   105.77814405
_cell_angle_beta   110.27787857
_cell_angle_gamma   90.00000000
_symmetry_Int_Tables_number   1
_chemical_formula_structural   Cs3NdCr3O12
_chemical_formula_sum   'Cs12 Nd4 Cr12 O48'
_cell_volume   1529.84453645
_cell_formula_units_Z   4
loop_
 _symmetry_equiv_pos_site_id
 _symmetry_equiv_pos_as_xyz
  1  'x, y, z'
loop_
 _atom_site_type_symbol
 _atom_site_label
 _atom_site_symmetry_multiplicity
 _atom_site_fract_x
 _atom_site_fract_y
 _atom_site_fract_z
 _atom_site_occupancy
  Cs  Cs0  1  0.41411700  0.25000000  0.00000000  1
  Cs  Cs1  1  0.13734500  0.64822300  0.11155400  1
  Cs  Cs2  1  0.86265500  0.35177700  0.88844600  1
  Cs  Cs3  1  0.60655800  0.73432300  0.30793300  1
  Cs  Cs4  1  0.02579200  0.85177700  0.88844600  1
  Cs  Cs5  1  0.00000000  0.00000000  0.50000000  1
  Cs  Cs6  1  0.97420800  0.14822300  0.11155400  1
  Cs  Cs7  1  0.29862500  0.76567700  0.69206700  1
  Cs  Cs8  1  0.70137500  0.23432300  0.30793300  1
  Cs  Cs9  1  0.58588300  0.75000000  0.00000000  1
  Cs  Cs10  1  0.50000000  0.50000000  0.50000000  1
  Cs  Cs11  1  0.39344200  0.26567700  0.69206700  1
  Nd  Nd0  1  0.30391300  0.07374200  0.34216800  1
  Nd  Nd1  1  0.03825500  0.57374200  0.34216800  1
  Nd  Nd2  1  0.96174500  0.42625800  0.65783200  1
  Nd  Nd3  1  0.69608700  0.92625800  0.65783200  1
  Cr  Cr0  1  0.61923500  0.05820800  0.84295000  1
  Cr  Cr1  1  0.77628500  0.44179200  0.15705000  1
  Cr  Cr2  1  0.12492500  0.35461100  0.45754300  1
  Cr  Cr3  1  0.22371500  0.55820800  0.84295000  1
  Cr  Cr4  1  0.94105000  0.88571600  0.23622400  1
  Cr  Cr5  1  0.87507500  0.64538900  0.54245700  1
  Cr  Cr6  1  0.33261800  0.85461100  0.45754300  1
  Cr  Cr7  1  0.29517400  0.38571600  0.23622400  1
  Cr  Cr8  1  0.38076500  0.94179200  0.15705000  1
  Cr  Cr9  1  0.66738200  0.14538900  0.54245700  1
  Cr  Cr10  1  0.70482600  0.61428400  0.76377600  1
  Cr  Cr11  1  0.05895000  0.11428400  0.76377600  1
  O  O0  1  0.06659600  0.01106600  0.29901400  1
  O  O1  1  0.48007600  0.01654400  0.27448300  1
  O  O2  1  0.33260500  0.83724500  0.34560300  1
  O  O3  1  0.93636900  0.45714200  0.15913800  1
  O  O4  1  0.47715000  0.81496900  0.52867400  1
  O  O5  1  0.74738900  0.73612300  0.54446500  1
  O  O6  1  0.93340400  0.98893400  0.70098600  1
  O  O7  1  0.90680200  0.85842800  0.11863800  1
  O  O8  1  0.72376800  0.75089500  0.73124100  1
  O  O9  1  0.32916300  0.48721800  0.91702100  1
  O  O10  1  0.19402300  0.07312600  0.73665700  1
  O  O11  1  0.52285000  0.18503100  0.47132600  1
  O  O12  1  0.27623200  0.24910500  0.26875900  1
  O  O13  1  0.01299800  0.33724500  0.34560300  1
  O  O14  1  0.76758300  0.48893400  0.70098600  1
  O  O15  1  0.51992400  0.98345600  0.72551700  1
  O  O16  1  0.05152400  0.31496900  0.52867400  1
  O  O17  1  0.79440700  0.51654400  0.27448300  1
  O  O18  1  0.20559300  0.48345600  0.72551700  1
  O  O19  1  0.68624700  0.98669900  0.50309600  1
  O  O20  1  0.94847600  0.68503100  0.47132600  1
  O  O21  1  0.67083700  0.51278200  0.08297900  1
  O  O22  1  0.80597700  0.92687400  0.26334300  1
  O  O23  1  0.31375300  0.01330100  0.49690400  1
  O  O24  1  0.06363100  0.54285800  0.84086200  1
  O  O25  1  0.77723200  0.04285800  0.84086200  1
  O  O26  1  0.25261100  0.26387700  0.45553500  1
  O  O27  1  0.00747300  0.25089500  0.73124100  1
  O  O28  1  0.20292400  0.76387700  0.45553500  1
  O  O29  1  0.79707600  0.23612300  0.54446500  1
  O  O30  1  0.59555100  0.21626500  0.87223200  1
  O  O31  1  0.98700200  0.66275500  0.65439700  1
  O  O32  1  0.99252700  0.74910500  0.26875900  1
  O  O33  1  0.72332000  0.28373500  0.12776800  1
  O  O34  1  0.54263400  0.57312600  0.73665700  1
  O  O35  1  0.22276800  0.95714200  0.15913800  1
  O  O36  1  0.27668000  0.71626500  0.87223200  1
  O  O37  1  0.66739500  0.16275500  0.65439700  1
  O  O38  1  0.78816400  0.64157200  0.88136200  1
  O  O39  1  0.40444900  0.78373500  0.12776800  1
  O  O40  1  0.18315100  0.51330100  0.49690400  1
  O  O41  1  0.41214200  0.01278200  0.08297900  1
  O  O42  1  0.45736600  0.42687400  0.26334300  1
  O  O43  1  0.81684900  0.48669900  0.50309600  1
  O  O44  1  0.58785800  0.98721800  0.91702100  1
  O  O45  1  0.21183600  0.35842800  0.11863800  1
  O  O46  1  0.23241700  0.51106600  0.29901400  1
  O  O47  1  0.09319800  0.14157200  0.88136200  1
loop_
_geom_bond_atom_site_label_1
_geom_bond_atom_site_label_2
_geom_bond_distance
_geom_bond_site_symmetry_2
Cs0 O9 3.105240 1_554
Cs0 O41 3.105240 1_555
Cs0 O30 3.131650 1_554
Cs0 O33 3.131659 1_555
Cs0 O47 3.272143 1_554
Cs0 O45 3.272143 1_555
Cs1 O39 3.066926 1_555
Cs1 O45 3.185969 1_555
Cs1 O35 3.205821 1_555
Cs1 O32 3.221059 1_455
Cs1 O7 3.307988 1_455
Cs1 O3 3.314725 1_455
Cs1 O46 3.397982 1_555
Cs1 O2 3.464598 1_555
Cs1 O24 3.761486 1_554
Cs2 O30 3.066926 1_555
Cs2 O38 3.185969 1_555
Cs2 O25 3.205821 1_555
Cs2 O27 3.221059 1_655
Cs2 O47 3.307988 1_655
Cs2 O24 3.314725 1_655
Cs2 O14 3.397982 1_555
Cs2 O37 3.464598 1_555
Cs2 O3 3.761486 1_556
Cs3 O39 3.015432 1_555
Cs3 O17 3.093597 1_555
Cs3 O19 3.260740 1_555
Cs3 O2 3.272225 1_555
Cs3 O22 3.285940 1_555
Cs3 O1 3.363783 1_565
Cs3 O5 3.385325 1_555
Cs3 O42 3.402972 1_555
Cs4 O36 3.066907 1_555
Cs4 O47 3.185966 1_565
Cs4 O24 3.205821 1_555
Cs4 O8 3.221067 1_455
Cs4 O38 3.307996 1_455
Cs4 O25 3.314725 1_465
Cs4 O6 3.397982 1_455
Cs4 O31 3.464595 1_455
Cs4 O35 3.761482 1_556
Cs5 O16 3.260705 1_555
Cs5 O20 3.260705 1_445
Cs5 O19 3.335543 1_445
Cs5 O23 3.335543 1_555
Cs5 O10 3.342615 1_555
Cs5 O22 3.342615 1_445
Cs5 O28 3.373916 1_545
Cs5 O29 3.373916 1_455
Cs5 O6 3.403891 1_445
Cs5 O0 3.403891 1_555
Cs6 O33 3.066907 1_555
Cs6 O7 3.185966 1_545
Cs6 O3 3.205821 1_555
Cs6 O12 3.221067 1_655
Cs6 O45 3.307996 1_655
Cs6 O35 3.314725 1_645
Cs6 O0 3.397982 1_655
Cs6 O13 3.464595 1_655
Cs6 O25 3.761482 1_554
Cs7 O36 3.015436 1_555
Cs7 O15 3.093597 1_555
Cs7 O40 3.260740 1_555
Cs7 O31 3.272225 1_455
Cs7 O34 3.285940 1_555
Cs7 O18 3.363783 1_555
Cs7 O28 3.385325 1_555
Cs7 O10 3.402972 1_565
Cs8 O33 3.015436 1_555
Cs8 O1 3.093597 1_555
Cs8 O43 3.260740 1_555
Cs8 O13 3.272225 1_655
Cs8 O42 3.285940 1_555
Cs8 O17 3.363783 1_555
Cs8 O29 3.385325 1_555
Cs8 O22 3.402972 1_545
Cs9 O44 3.105240 1_554
Cs9 O21 3.105240 1_555
Cs9 O39 3.131650 1_555
Cs9 O36 3.131659 1_554
Cs9 O38 3.272143 1_554
Cs9 O7 3.272143 1_555
Cs10 O11 3.260705 1_555
Cs10 O4 3.260705 1_555
Cs10 O40 3.335543 1_555
Cs10 O43 3.335543 1_555
Cs10 O42 3.342615 1_555
Cs10 O34 3.342615 1_555
Cs10 O5 3.373916 1_555
Cs10 O26 3.373916 1_555
Cs10 O14 3.403897 1_555
Cs10 O46 3.403897 1_555
Cs11 O30 3.015432 1_555
Cs11 O18 3.093597 1_555
Cs11 O23 3.260740 1_555
Cs11 O37 3.272225 1_555
Cs11 O10 3.285940 1_555
Cs11 O15 3.363783 1_545
Cs11 O26 3.385325 1_555
Cs11 O34 3.402972 1_555
Nd0 O12 2.383573 1_555
Nd0 O0 2.404204 1_555
Nd0 O1 2.426475 1_555
Nd0 O26 2.466835 1_555
Nd0 O11 2.489380 1_555
Nd0 O2 2.532573 1_545
Nd0 O35 2.551882 1_545
Nd0 O23 2.575711 1_555
Nd1 O32 2.383573 1_455
Nd1 O46 2.404194 1_555
Nd1 O17 2.426475 1_455
Nd1 O28 2.466835 1_555
Nd1 O20 2.489380 1_455
Nd1 O13 2.532573 1_555
Nd1 O3 2.551883 1_455
Nd1 O40 2.575711 1_555
Nd2 O27 2.383573 1_655
Nd2 O14 2.404194 1_555
Nd2 O18 2.426475 1_655
Nd2 O29 2.466835 1_555
Nd2 O16 2.489380 1_655
Nd2 O31 2.532573 1_555
Nd2 O24 2.551883 1_655
Nd2 O43 2.575711 1_555
Nd3 O8 2.383573 1_555
Nd3 O6 2.404204 1_555
Nd3 O15 2.426475 1_555
Nd3 O5 2.466835 1_555
Nd3 O4 2.489380 1_555
Nd3 O37 2.532573 1_565
Nd3 O25 2.551882 1_565
Nd3 O19 2.575711 1_555
Cr0 O44 1.633903 1_545
Cr0 O30 1.651994 1_555
Cr0 O25 1.687821 1_555
Cr0 O15 1.690986 1_545
Cr1 O21 1.633903 1_555
Cr1 O33 1.651991 1_555
Cr1 O3 1.687810 1_555
Cr1 O17 1.690986 1_555
Cr2 O40 1.659214 1_555
Cr2 O26 1.659916 1_555
Cr2 O13 1.665902 1_555
Cr2 O16 1.668408 1_555
Cr3 O9 1.633903 1_555
Cr3 O36 1.651991 1_555
Cr3 O24 1.687810 1_555
Cr3 O18 1.690986 1_555
Cr4 O7 1.642113 1_555
Cr4 O22 1.645837 1_555
Cr4 O32 1.683194 1_555
Cr4 O0 1.692354 1_665
Cr5 O43 1.659214 1_555
Cr5 O5 1.659916 1_555
Cr5 O31 1.665902 1_555
Cr5 O20 1.668408 1_555
Cr6 O23 1.659214 1_565
Cr6 O28 1.659916 1_555
Cr6 O2 1.665902 1_555
Cr6 O4 1.668408 1_555
Cr7 O45 1.642113 1_555
Cr7 O42 1.645837 1_555
Cr7 O12 1.683194 1_555
Cr7 O46 1.692360 1_555
Cr8 O41 1.633903 1_565
Cr8 O39 1.651994 1_555
Cr8 O35 1.687821 1_555
Cr8 O1 1.690986 1_565
Cr9 O19 1.659214 1_545
Cr9 O29 1.659916 1_555
Cr9 O37 1.665902 1_555
Cr9 O11 1.668408 1_555
Cr10 O38 1.642113 1_555
Cr10 O34 1.645837 1_555
Cr10 O8 1.683194 1_555
Cr10 O14 1.692360 1_555
Cr11 O47 1.642113 1_555
Cr11 O10 1.645837 1_555
Cr11 O27 1.683194 1_555
Cr11 O6 1.692354 1_445
