# generated using pymatgen
data_Rb7Th2(P2Se7)3
_symmetry_space_group_name_H-M   'P 1'
_cell_length_a   11.82626900
_cell_length_b   12.66202683
_cell_length_c   16.53794974
_cell_angle_alpha   86.77197770
_cell_angle_beta   75.68141227
_cell_angle_gamma   86.86471326
_symmetry_Int_Tables_number   1
_chemical_formula_structural   Rb7Th2(P2Se7)3
_chemical_formula_sum   'Rb14 Th4 P12 Se42'
_cell_volume   2393.60201378
_cell_formula_units_Z   2
loop_
 _symmetry_equiv_pos_site_id
 _symmetry_equiv_pos_as_xyz
  1  'x, y, z'
loop_
 _atom_site_type_symbol
 _atom_site_label
 _atom_site_symmetry_multiplicity
 _atom_site_fract_x
 _atom_site_fract_y
 _atom_site_fract_z
 _atom_site_occupancy
  Rb  Rb0  1  0.52634900  0.99636400  0.17634400  1
  Rb  Rb1  1  0.41170600  0.83572000  0.59117700  1
  Rb  Rb2  1  0.06695100  0.16941600  0.89458000  1
  Rb  Rb3  1  0.63658200  0.29144000  0.98964600  1
  Rb  Rb4  1  0.95945900  0.98454300  0.65421300  1
  Rb  Rb5  1  0.27365900  0.50873600  0.74881000  1
  Rb  Rb6  1  0.58829400  0.16428000  0.40882300  1
  Rb  Rb7  1  0.72634100  0.49126400  0.25119000  1
  Rb  Rb8  1  0.71340100  0.30608700  0.67780800  1
  Rb  Rb9  1  0.36341800  0.70856000  0.01035400  1
  Rb  Rb10  1  0.93304900  0.83058400  0.10542000  1
  Rb  Rb11  1  0.04054100  0.01545700  0.34578700  1
  Rb  Rb12  1  0.47365100  0.00363600  0.82365600  1
  Rb  Rb13  1  0.28659900  0.69391300  0.32219200  1
  Th  Th0  1  0.19883800  0.36200900  0.49020400  1
  Th  Th1  1  0.14225000  0.31645500  0.14918900  1
  Th  Th2  1  0.85775000  0.68354500  0.85081100  1
  Th  Th3  1  0.80116200  0.63799100  0.50979600  1
  P  P0  1  0.59947500  0.65681300  0.74846600  1
  P  P1  1  0.22000400  0.02512300  0.08544400  1
  P  P2  1  0.42304800  0.22069400  0.64901200  1
  P  P3  1  0.91841200  0.46495400  0.99228000  1
  P  P4  1  0.40052500  0.34318700  0.25153400  1
  P  P5  1  0.07344900  0.63921000  0.59313000  1
  P  P6  1  0.74728200  0.84767200  0.35966000  1
  P  P7  1  0.92655100  0.36079000  0.40687000  1
  P  P8  1  0.08158800  0.53504600  0.00772000  1
  P  P9  1  0.57695200  0.77930600  0.35098800  1
  P  P10  1  0.25271800  0.15232800  0.64034000  1
  P  P11  1  0.77999600  0.97487700  0.91455600  1
  Se  Se0  1  0.95861800  0.50099300  0.61213600  1
  Se  Se1  1  0.74531200  0.41938800  0.46255800  1
  Se  Se2  1  0.43262300  0.35317400  0.55195100  1
  Se  Se3  1  0.26862600  0.12827900  0.50494600  1
  Se  Se4  1  0.92209800  0.28509800  0.28932500  1
  Se  Se5  1  0.01172300  0.76076800  0.50858400  1
  Se  Se6  1  0.56936600  0.25900000  0.21192000  1
  Se  Se7  1  0.59966800  0.73280800  0.22242800  1
  Se  Se8  1  0.25468800  0.58061200  0.53744200  1
  Se  Se9  1  0.43829100  0.90184300  0.38717800  1
  Se  Se10  1  0.25909200  0.90353800  0.17691800  1
  Se  Se11  1  0.40629800  0.44636100  0.35570600  1
  Se  Se12  1  0.35972600  0.43189000  0.14015000  1
  Se  Se13  1  0.73137400  0.87172100  0.49505400  1
  Se  Se14  1  0.04580200  0.10542500  0.14247300  1
  Se  Se15  1  0.43063400  0.74100000  0.78808000  1
  Se  Se16  1  0.66364100  0.83430400  0.93237500  1
  Se  Se17  1  0.07790200  0.71490200  0.71067500  1
  Se  Se18  1  0.08924800  0.68315800  0.93061500  1
  Se  Se19  1  0.12192400  0.28802600  0.67090800  1
  Se  Se20  1  0.78659100  0.04771800  0.02935700  1
  Se  Se21  1  0.77725900  0.58940800  0.02799800  1
  Se  Se22  1  0.40033200  0.26719200  0.77757200  1
  Se  Se23  1  0.95419800  0.89457500  0.85752700  1
  Se  Se24  1  0.78604400  0.98713100  0.27771700  1
  Se  Se25  1  0.64027400  0.56811000  0.85985000  1
  Se  Se26  1  0.33635900  0.16569600  0.06762500  1
  Se  Se27  1  0.22274100  0.41059200  0.97200200  1
  Se  Se28  1  0.56737700  0.64682600  0.44804900  1
  Se  Se29  1  0.76220800  0.74868700  0.69220600  1
  Se  Se30  1  0.21395600  0.01286900  0.72228300  1
  Se  Se31  1  0.04138200  0.49900700  0.38786400  1
  Se  Se32  1  0.23779200  0.25131300  0.30779400  1
  Se  Se33  1  0.94672500  0.44689600  0.85633400  1
  Se  Se34  1  0.91075200  0.31684200  0.06938500  1
  Se  Se35  1  0.56170900  0.09815700  0.61282200  1
  Se  Se36  1  0.21340900  0.95228200  0.97064300  1
  Se  Se37  1  0.74090800  0.09646200  0.82308200  1
  Se  Se38  1  0.05327500  0.55310400  0.14366600  1
  Se  Se39  1  0.59370200  0.55363900  0.64429400  1
  Se  Se40  1  0.98827700  0.23923200  0.49141600  1
  Se  Se41  1  0.87807600  0.71197400  0.32909200  1
loop_
_geom_bond_atom_site_label_1
_geom_bond_atom_site_label_2
_geom_bond_distance
_geom_bond_site_symmetry_2
Rb0 Se10 3.429515 1_555
Rb0 Se20 3.484893 1_565
Rb0 Se7 3.491876 1_555
Rb0 Se6 3.495340 1_565
Rb0 Se9 3.541856 1_555
Rb0 Se26 3.730335 1_565
Rb0 Se24 3.839554 1_555
Rb1 Se9 3.371630 1_555
Rb1 Se15 3.461769 1_555
Rb1 Se30 3.559157 1_565
Rb1 Se28 3.565570 1_555
Rb1 Se13 3.763139 1_555
Rb1 Se35 3.925588 1_565
Rb1 Se8 4.058039 1_555
Rb2 Se36 3.508366 1_545
Rb2 Se34 3.583779 1_456
Rb2 Se30 3.588834 1_555
Rb2 Se33 3.796598 1_455
Rb2 Se19 3.827924 1_555
Rb2 Se20 3.853905 1_456
Rb2 Se23 3.926350 1_445
Rb2 Se27 4.072114 1_555
Rb2 Se14 4.082527 1_556
Rb2 Se22 4.160798 1_555
Rb3 Se6 3.568417 1_556
Rb3 Se20 3.584857 1_556
Rb3 Se37 3.735894 1_555
Rb3 Se34 3.825241 1_556
Rb3 Se26 3.863500 1_556
Rb3 Se12 3.988573 1_556
Rb3 Se25 4.000693 1_555
Rb4 Se23 3.475660 1_555
Rb4 Se30 3.506275 1_665
Rb4 Se37 3.600383 1_565
Rb4 Se5 3.748534 1_655
Rb4 Se17 3.775651 1_655
Rb4 Se29 3.818495 1_555
Rb4 Se40 4.056253 1_565
Rb5 Se22 3.392925 1_555
Rb5 Se17 3.528118 1_555
Rb5 Se8 3.620094 1_555
Rb5 Se15 3.731736 1_555
Rb5 Se27 3.741295 1_555
Rb5 Se39 3.811205 1_555
Rb5 Se19 3.845445 1_555
Rb5 Se2 3.911914 1_555
Rb5 Se33 3.936744 1_455
Rb5 Se18 3.956215 1_555
Rb6 Se35 3.371630 1_555
Rb6 Se6 3.461769 1_555
Rb6 Se24 3.559157 1_545
Rb6 Se2 3.565570 1_555
Rb6 Se3 3.763139 1_555
Rb6 Se9 3.925588 1_545
Rb6 Se1 4.058039 1_555
Rb7 Se7 3.392925 1_555
Rb7 Se4 3.528118 1_555
Rb7 Se1 3.620094 1_555
Rb7 Se6 3.731736 1_555
Rb7 Se21 3.741295 1_555
Rb7 Se11 3.811205 1_555
Rb7 Se41 3.845445 1_555
Rb7 Se28 3.911914 1_555
Rb7 Se38 3.936744 1_655
Rb7 Se34 3.956215 1_555
Rb8 Se39 3.441410 1_555
Rb8 Se37 3.535129 1_555
Rb8 Se35 3.618563 1_555
Rb8 Se1 3.700307 1_555
Rb8 Se22 3.709339 1_555
Rb8 Se0 3.821422 1_555
Rb8 Se40 3.977749 1_555
Rb9 Se15 3.568417 1_554
Rb9 Se36 3.584857 1_554
Rb9 Se10 3.735894 1_555
Rb9 Se18 3.825241 1_554
Rb9 Se16 3.863500 1_554
Rb9 Se25 3.988573 1_554
Rb9 Se12 4.000693 1_555
Rb10 Se20 3.508366 1_565
Rb10 Se18 3.583779 1_654
Rb10 Se24 3.588834 1_555
Rb10 Se38 3.796598 1_655
Rb10 Se41 3.827924 1_555
Rb10 Se36 3.853905 1_654
Rb10 Se14 3.926350 1_665
Rb10 Se21 4.072114 1_555
Rb10 Se23 4.082527 1_554
Rb10 Se7 4.160798 1_555
Rb11 Se14 3.475660 1_555
Rb11 Se24 3.506275 1_445
Rb11 Se10 3.600383 1_545
Rb11 Se40 3.748534 1_455
Rb11 Se4 3.775651 1_455
Rb11 Se32 3.818495 1_555
Rb11 Se5 4.056253 1_545
Rb12 Se37 3.429515 1_555
Rb12 Se36 3.484893 1_545
Rb12 Se22 3.491876 1_555
Rb12 Se15 3.495340 1_545
Rb12 Se35 3.541856 1_555
Rb12 Se16 3.730335 1_545
Rb12 Se30 3.839554 1_555
Rb13 Se11 3.441410 1_555
Rb13 Se10 3.535129 1_555
Rb13 Se9 3.618563 1_555
Rb13 Se8 3.700307 1_555
Rb13 Se7 3.709339 1_555
Rb13 Se31 3.821422 1_555
Rb13 Se5 3.977749 1_555
P0 Se15 2.179755 1_555
P0 Se39 2.236232 1_555
P0 Se25 2.243843 1_555
P0 Se29 2.271583 1_555
P1 Se36 2.177073 1_544
P1 Se10 2.208641 1_545
P1 Se14 2.255087 1_555
P1 Se26 2.270859 1_555
P2 Se22 2.186400 1_555
P2 Se35 2.189854 1_555
P2 Se2 2.242983 1_555
P2 Rb8 3.802603 1_555
P3 Se34 2.200791 1_556
P3 Se33 2.212752 1_555
P3 Se21 2.224444 1_556
P3 P8 2.243536 1_656
P4 Se6 2.179755 1_555
P4 Se11 2.236232 1_555
P4 Se12 2.243843 1_555
P4 Se32 2.271583 1_555
P5 Se8 2.217970 1_555
P5 Se17 2.228512 1_555
P5 Se0 2.234456 1_455
P5 Se5 2.235291 1_555
P6 Se24 2.162537 1_555
P6 Se13 2.236967 1_555
P6 Se41 2.240701 1_555
P6 P9 2.274912 1_555
P7 Se1 2.217970 1_555
P7 Se4 2.228512 1_555
P7 Se31 2.234456 1_655
P7 Se40 2.235291 1_555
P8 Se18 2.200791 1_554
P8 Se38 2.212752 1_555
P8 Se27 2.224444 1_554
P9 Se7 2.186400 1_555
P9 Se9 2.189854 1_555
P9 Se28 2.242983 1_555
P9 Rb13 3.802603 1_555
P10 Se30 2.162537 1_555
P10 Se3 2.236967 1_555
P10 Se19 2.240701 1_555
P10 P2 2.274912 1_555
P11 Se20 2.177073 1_566
P11 Se37 2.208641 1_565
P11 Se23 2.255087 1_555
P11 Se16 2.270859 1_555
Se0 Th3 3.196247 1_555
Se0 Th0 3.500458 1_655
Se1 Th3 3.067064 1_555
Se2 Th0 3.170054 1_555
Se3 Th0 3.041432 1_555
Se4 Th1 3.054872 1_655
Se5 Th3 3.002219 1_455
Se8 Th0 3.067064 1_555
Se11 Th0 3.070453 1_555
Se12 Th1 2.994996 1_555
Se13 Th3 3.041432 1_555
Se14 Th1 2.980398 1_555
Se16 Th2 3.002037 1_555
Se17 Th2 3.054872 1_455
Se18 Th2 3.319974 1_455
Se19 Th0 3.011523 1_555
Se21 Th2 3.043793 1_554
Se23 Th2 2.980398 1_555
Se25 Th2 2.994996 1_555
Se26 Th1 3.002037 1_555
Se27 Th1 3.043793 1_556
Se28 Th3 3.170054 1_555
Se29 Th2 3.155552 1_555
Se29 Th3 3.315927 1_555
Se31 Th0 3.196247 1_555
Se31 Th3 3.500458 1_455
Se32 Th1 3.155552 1_555
Se32 Th0 3.315927 1_555
Se33 Th2 3.125080 1_555
Se34 Th1 3.319974 1_655
Se38 Th1 3.125080 1_555
Se39 Th3 3.070453 1_555
Se40 Th0 3.002219 1_655
Se41 Th3 3.011523 1_555
