# generated using pymatgen
data_TeWNCl4F5
_symmetry_space_group_name_H-M   'P 1'
_cell_length_a   6.39145700
_cell_length_b   6.41383887
_cell_length_c   14.29863355
_cell_angle_alpha   83.87365080
_cell_angle_beta   86.54109101
_cell_angle_gamma   80.89666489
_symmetry_Int_Tables_number   1
_chemical_formula_structural   TeWNCl4F5
_chemical_formula_sum   'Te2 W2 N2 Cl8 F10'
_cell_volume   574.90293475
_cell_formula_units_Z   2
loop_
 _symmetry_equiv_pos_site_id
 _symmetry_equiv_pos_as_xyz
  1  'x, y, z'
loop_
 _atom_site_type_symbol
 _atom_site_label
 _atom_site_symmetry_multiplicity
 _atom_site_fract_x
 _atom_site_fract_y
 _atom_site_fract_z
 _atom_site_occupancy
  Te  Te0  1  0.25651700  0.20369600  0.62807000  1
  Te  Te1  1  0.74348300  0.79630400  0.37193000  1
  W  W0  1  0.03476200  0.97657500  0.85695600  1
  W  W1  1  0.96523800  0.02342500  0.14304400  1
  N  N0  1  0.15128700  0.10189500  0.75492800  1
  N  N1  1  0.84871300  0.89810500  0.24507200  1
  Cl  Cl0  1  0.70717200  0.19214800  0.85853100  1
  Cl  Cl1  1  0.32599800  0.72967800  0.90189400  1
  Cl  Cl2  1  0.88785900  0.71933800  0.79607600  1
  Cl  Cl3  1  0.13606300  0.19506300  0.97127600  1
  Cl  Cl4  1  0.29282800  0.80785200  0.14146900  1
  Cl  Cl5  1  0.67400200  0.27032200  0.09810600  1
  Cl  Cl6  1  0.86393700  0.80493700  0.02872400  1
  Cl  Cl7  1  0.11214100  0.28066200  0.20392400  1
  F  F0  1  0.99293700  0.37073500  0.60466700  1
  F  F1  1  0.52382900  0.04063500  0.64762300  1
  F  F2  1  0.64434500  0.70054100  0.49177000  1
  F  F3  1  0.35565500  0.29945900  0.50823000  1
  F  F4  1  0.34911800  0.43296900  0.67596400  1
  F  F5  1  0.47617100  0.95936500  0.35237700  1
  F  F6  1  0.16758800  0.97660300  0.57699900  1
  F  F7  1  0.65088200  0.56703100  0.32403600  1
  F  F8  1  0.00706300  0.62926500  0.39533300  1
  F  F9  1  0.83241200  0.02339700  0.42300100  1
loop_
_geom_bond_atom_site_label_1
_geom_bond_atom_site_label_2
_geom_bond_distance
_geom_bond_site_symmetry_2
N0 W0 1.771173 1_545
N0 Te0 1.976830 1_555
N1 W1 1.771173 1_565
N1 Te1 1.976830 1_555
Cl0 W0 2.319706 1_645
Cl1 W0 2.319446 1_555
Cl2 W0 2.292772 1_655
Cl3 W0 2.441044 1_545
Cl3 W1 2.813502 1_456
Cl4 W1 2.319706 1_465
Cl5 W1 2.319446 1_555
Cl6 W1 2.441044 1_565
Cl6 W0 2.813502 1_654
Cl7 W1 2.292772 1_455
F0 Te0 1.875701 1_655
F1 Te0 1.876378 1_555
F2 Te1 1.866142 1_555
F3 Te0 1.866142 1_555
F4 Te0 1.876420 1_555
F5 Te1 1.876378 1_555
F6 Te0 1.875339 1_565
F7 Te1 1.876420 1_555
F8 Te1 1.875701 1_455
F9 Te1 1.875339 1_545
