# generated using pymatgen
data_Ba6V4S11O5
_symmetry_space_group_name_H-M   'P 1'
_cell_length_a   7.68888500
_cell_length_b   14.07960300
_cell_length_c   23.61650200
_cell_angle_alpha   90.00000000
_cell_angle_beta   90.00000000
_cell_angle_gamma   90.00000000
_symmetry_Int_Tables_number   1
_chemical_formula_structural   Ba6V4S11O5
_chemical_formula_sum   'Ba24 V16 S44 O20'
_cell_volume   2556.63862809
_cell_formula_units_Z   4
loop_
 _symmetry_equiv_pos_site_id
 _symmetry_equiv_pos_as_xyz
  1  'x, y, z'
loop_
 _atom_site_type_symbol
 _atom_site_label
 _atom_site_symmetry_multiplicity
 _atom_site_fract_x
 _atom_site_fract_y
 _atom_site_fract_z
 _atom_site_occupancy
  Ba  Ba0  1  0.78711000  0.25000000  0.15051700  1
  Ba  Ba1  1  0.29040100  0.98323800  0.07367500  1
  Ba  Ba2  1  0.42074200  0.41964600  0.27560800  1
  Ba  Ba3  1  0.92074200  0.91964600  0.22439200  1
  Ba  Ba4  1  0.28711000  0.75000000  0.34948300  1
  Ba  Ba5  1  0.70959900  0.48323800  0.92632500  1
  Ba  Ba6  1  0.20959900  0.51676200  0.57367500  1
  Ba  Ba7  1  0.29040100  0.51676200  0.07367500  1
  Ba  Ba8  1  0.07925800  0.08035400  0.77560800  1
  Ba  Ba9  1  0.70959900  0.01676200  0.92632500  1
  Ba  Ba10  1  0.18852400  0.25000000  0.95750700  1
  Ba  Ba11  1  0.57925800  0.58035400  0.72439200  1
  Ba  Ba12  1  0.79040100  0.48323800  0.42632500  1
  Ba  Ba13  1  0.21289000  0.75000000  0.84948300  1
  Ba  Ba14  1  0.68852400  0.75000000  0.54249300  1
  Ba  Ba15  1  0.81147600  0.75000000  0.04249300  1
  Ba  Ba16  1  0.31147600  0.25000000  0.45750700  1
  Ba  Ba17  1  0.42074200  0.08035400  0.27560800  1
  Ba  Ba18  1  0.57925800  0.91964600  0.72439200  1
  Ba  Ba19  1  0.92074200  0.58035400  0.22439200  1
  Ba  Ba20  1  0.79040100  0.01676200  0.42632500  1
  Ba  Ba21  1  0.07925800  0.41964600  0.77560800  1
  Ba  Ba22  1  0.20959900  0.98323800  0.57367500  1
  Ba  Ba23  1  0.71289000  0.25000000  0.65051700  1
  V  V0  1  0.20032300  0.25000000  0.66190600  1
  V  V1  1  0.70517600  0.99448500  0.58043000  1
  V  V2  1  0.79967700  0.75000000  0.33809400  1
  V  V3  1  0.08355800  0.75000000  0.66609000  1
  V  V4  1  0.29482400  0.00551500  0.41957000  1
  V  V5  1  0.41644200  0.75000000  0.16609000  1
  V  V6  1  0.29482400  0.49448500  0.41957000  1
  V  V7  1  0.79482400  0.99448500  0.08043000  1
  V  V8  1  0.20517600  0.00551500  0.91957000  1
  V  V9  1  0.70517600  0.50551500  0.58043000  1
  V  V10  1  0.29967700  0.25000000  0.16190600  1
  V  V11  1  0.91644200  0.25000000  0.33391000  1
  V  V12  1  0.79482400  0.50551500  0.08043000  1
  V  V13  1  0.70032300  0.75000000  0.83809400  1
  V  V14  1  0.58355800  0.25000000  0.83391000  1
  V  V15  1  0.20517600  0.49448500  0.91957000  1
  S  S0  1  0.30156000  0.25000000  0.82840300  1
  S  S1  1  0.13805300  0.53876400  0.34632800  1
  S  S2  1  0.13805300  0.96123600  0.34632800  1
  S  S3  1  0.41157700  0.88301600  0.46161500  1
  S  S4  1  0.19844000  0.25000000  0.32840300  1
  S  S5  1  0.90689800  0.75000000  0.42288800  1
  S  S6  1  0.18213800  0.62322600  0.70710500  1
  S  S7  1  0.84834000  0.25000000  0.42262400  1
  S  S8  1  0.85705200  0.62228400  0.82356300  1
  S  S9  1  0.08842300  0.88301600  0.96161500  1
  S  S10  1  0.36194700  0.96123600  0.84632800  1
  S  S11  1  0.68213800  0.12322600  0.79289500  1
  S  S12  1  0.58842300  0.38301600  0.53838500  1
  S  S13  1  0.64294800  0.62228400  0.32356300  1
  S  S14  1  0.86194700  0.03876400  0.65367200  1
  S  S15  1  0.35705200  0.37771600  0.67643700  1
  S  S16  1  0.14294800  0.37771600  0.17643700  1
  S  S17  1  0.91157700  0.11698400  0.03838500  1
  S  S18  1  0.34834000  0.75000000  0.07737600  1
  S  S19  1  0.59310200  0.75000000  0.92288800  1
  S  S20  1  0.86194700  0.46123600  0.65367200  1
  S  S21  1  0.58842300  0.11698400  0.53838500  1
  S  S22  1  0.68213800  0.37677400  0.79289500  1
  S  S23  1  0.81786200  0.12322600  0.29289500  1
  S  S24  1  0.63805300  0.03876400  0.15367200  1
  S  S25  1  0.14294800  0.12228400  0.17643700  1
  S  S26  1  0.31786200  0.87677400  0.20710500  1
  S  S27  1  0.18213800  0.87677400  0.70710500  1
  S  S28  1  0.08842300  0.61698400  0.96161500  1
  S  S29  1  0.65166000  0.25000000  0.92262400  1
  S  S30  1  0.81786200  0.37677400  0.29289500  1
  S  S31  1  0.91157700  0.38301600  0.03838500  1
  S  S32  1  0.40689800  0.25000000  0.07711200  1
  S  S33  1  0.80156000  0.75000000  0.67159700  1
  S  S34  1  0.63805300  0.46123600  0.15367200  1
  S  S35  1  0.35705200  0.12228400  0.67643700  1
  S  S36  1  0.15166000  0.75000000  0.57737600  1
  S  S37  1  0.09310200  0.25000000  0.57711200  1
  S  S38  1  0.85705200  0.87771600  0.82356300  1
  S  S39  1  0.41157700  0.61698400  0.46161500  1
  S  S40  1  0.64294800  0.87771600  0.32356300  1
  S  S41  1  0.31786200  0.62322600  0.20710500  1
  S  S42  1  0.36194700  0.53876400  0.84632800  1
  S  S43  1  0.69844000  0.75000000  0.17159700  1
  O  O0  1  0.45310300  0.41723300  0.39621400  1
  O  O1  1  0.16172300  0.43613600  0.46684000  1
  O  O2  1  0.04689700  0.08276700  0.89621400  1
  O  O3  1  0.95310200  0.91723300  0.10378600  1
  O  O4  1  0.53199100  0.75000000  0.79019100  1
  O  O5  1  0.66172300  0.56386400  0.03316000  1
  O  O6  1  0.83827700  0.56386400  0.53316000  1
  O  O7  1  0.16172300  0.06386400  0.46684000  1
  O  O8  1  0.33827700  0.06386400  0.96684000  1
  O  O9  1  0.45310300  0.08276700  0.39621400  1
  O  O10  1  0.33827700  0.43613600  0.96684000  1
  O  O11  1  0.54689800  0.58276700  0.60378600  1
  O  O12  1  0.95310200  0.58276700  0.10378600  1
  O  O13  1  0.03199100  0.25000000  0.70980900  1
  O  O14  1  0.04689700  0.41723300  0.89621400  1
  O  O15  1  0.66172300  0.93613600  0.03316000  1
  O  O16  1  0.96800900  0.75000000  0.29019100  1
  O  O17  1  0.54689800  0.91723300  0.60378600  1
  O  O18  1  0.83827700  0.93613600  0.53316000  1
  O  O19  1  0.46800900  0.25000000  0.20980900  1
loop_
_geom_bond_atom_site_label_1
_geom_bond_atom_site_label_2
_geom_bond_distance
_geom_bond_site_symmetry_2
Ba0 O19 2.824990 1_555
Ba0 S34 3.188172 1_555
Ba0 S24 3.188172 1_555
Ba1 O8 2.791061 1_564
Ba1 O3 2.845229 1_455
Ba1 O15 3.083283 1_555
Ba1 S18 3.315130 1_555
Ba1 S25 3.317795 1_565
Ba1 S24 3.365365 1_565
Ba1 S9 3.377382 1_554
Ba1 S26 3.495889 1_555
Ba1 S17 3.567163 1_465
Ba1 S32 3.862089 1_565
Ba2 O0 2.859341 1_555
Ba2 O19 2.872626 1_555
Ba2 S30 3.139163 1_555
Ba2 S4 3.190816 1_555
Ba2 S1 3.213501 1_555
Ba2 S16 3.224284 1_555
Ba2 S34 3.380446 1_555
Ba2 S41 3.385090 1_555
Ba2 S13 3.513064 1_555
Ba3 O3 2.859341 1_555
Ba3 O16 2.872626 1_555
Ba3 S26 3.139163 1_655
Ba3 S43 3.190816 1_555
Ba3 S24 3.213501 1_565
Ba3 S40 3.224284 1_555
Ba3 S2 3.380446 1_655
Ba3 S23 3.385090 1_565
Ba3 S25 3.513064 1_665
Ba4 O16 2.824990 1_455
Ba4 S2 3.188172 1_555
Ba4 S1 3.188172 1_555
Ba5 O5 2.791061 1_556
Ba5 O14 2.845222 1_655
Ba5 O10 3.083283 1_555
Ba5 S29 3.315130 1_555
Ba5 S8 3.317795 1_555
Ba5 S42 3.365365 1_555
Ba5 S31 3.377382 1_556
Ba5 S22 3.495889 1_555
Ba5 S28 3.567163 1_655
Ba5 S19 3.862089 1_555
Ba6 O1 2.791061 1_555
Ba6 O11 2.845229 1_555
Ba6 O6 3.083283 1_455
Ba6 S36 3.315130 1_555
Ba6 S15 3.317795 1_555
Ba6 S20 3.365365 1_455
Ba6 S39 3.377382 1_555
Ba6 S6 3.495889 1_555
Ba6 S12 3.567163 1_555
Ba6 S37 3.862089 1_555
Ba7 O10 2.791061 1_554
Ba7 O12 2.845229 1_455
Ba7 O5 3.083283 1_555
Ba7 S18 3.315130 1_555
Ba7 S16 3.317795 1_555
Ba7 S34 3.365365 1_555
Ba7 S28 3.377382 1_554
Ba7 S41 3.495889 1_555
Ba7 S31 3.567163 1_455
Ba7 S32 3.862089 1_555
Ba8 O2 2.859341 1_555
Ba8 O13 2.872626 1_555
Ba8 S11 3.139163 1_455
Ba8 S0 3.190816 1_555
Ba8 S10 3.213501 1_545
Ba8 S35 3.224284 1_555
Ba8 S14 3.380446 1_455
Ba8 S27 3.385090 1_545
Ba8 S38 3.513064 1_445
Ba9 O15 2.791061 1_546
Ba9 O2 2.845222 1_655
Ba9 O8 3.083283 1_555
Ba9 S29 3.315130 1_555
Ba9 S38 3.317795 1_545
Ba9 S10 3.365365 1_545
Ba9 S17 3.377382 1_556
Ba9 S11 3.495889 1_555
Ba9 S9 3.567163 1_645
Ba9 S19 3.862089 1_545
Ba10 O10 2.870986 1_555
Ba10 O8 2.870986 1_555
Ba10 O14 2.970719 1_555
Ba10 O2 2.970719 1_555
Ba10 S0 3.170438 1_555
Ba10 S32 3.286012 1_556
Ba10 S31 3.419085 1_456
Ba10 S17 3.419085 1_456
Ba10 S29 3.655050 1_555
Ba11 O11 2.859341 1_555
Ba11 O4 2.872626 1_555
Ba11 S6 3.139163 1_555
Ba11 S33 3.190816 1_555
Ba11 S20 3.213501 1_555
Ba11 S8 3.224284 1_555
Ba11 S42 3.380446 1_555
Ba11 S22 3.385090 1_555
Ba11 S15 3.513064 1_555
Ba12 O6 2.791061 1_555
Ba12 O0 2.845222 1_555
Ba12 O1 3.083283 1_655
Ba12 S7 3.315130 1_555
Ba12 S13 3.317795 1_555
Ba12 S1 3.365365 1_655
Ba12 S12 3.377382 1_555
Ba12 S30 3.495889 1_555
Ba12 S39 3.567163 1_555
Ba12 S5 3.862089 1_555
Ba13 O4 2.824990 1_555
Ba13 S10 3.188172 1_555
Ba13 S42 3.188172 1_555
Ba14 O18 2.870986 1_555
Ba14 O6 2.870986 1_555
Ba14 O17 2.970716 1_555
Ba14 O11 2.970716 1_555
Ba14 S33 3.170438 1_555
Ba14 S5 3.286012 1_555
Ba14 S3 3.419085 1_555
Ba14 S39 3.419085 1_555
Ba14 S36 3.655050 1_655
Ba15 O15 2.870986 1_555
Ba15 O5 2.870986 1_555
Ba15 O3 2.970716 1_555
Ba15 O12 2.970716 1_555
Ba15 S43 3.170438 1_555
Ba15 S19 3.286012 1_554
Ba15 S9 3.419085 1_654
Ba15 S28 3.419085 1_654
Ba15 S18 3.655050 1_555
Ba16 O1 2.870986 1_555
Ba16 O7 2.870986 1_555
Ba16 O0 2.970719 1_555
Ba16 O9 2.970719 1_555
Ba16 S4 3.170438 1_555
Ba16 S37 3.286012 1_555
Ba16 S12 3.419085 1_555
Ba16 S21 3.419085 1_555
Ba16 S7 3.655050 1_455
Ba17 O9 2.859341 1_555
Ba17 O19 2.872626 1_555
Ba17 S23 3.139163 1_555
Ba17 S4 3.190816 1_555
Ba17 S2 3.213501 1_545
Ba17 S25 3.224284 1_555
Ba17 S24 3.380446 1_555
Ba17 S26 3.385090 1_545
Ba17 S40 3.513064 1_545
Ba18 O17 2.859341 1_555
Ba18 O4 2.872626 1_555
Ba18 S27 3.139163 1_555
Ba18 S33 3.190816 1_555
Ba18 S14 3.213501 1_565
Ba18 S38 3.224284 1_555
Ba18 S10 3.380446 1_555
Ba18 S11 3.385090 1_565
Ba18 S35 3.513064 1_565
Ba19 O12 2.859341 1_555
Ba19 O16 2.872626 1_555
Ba19 S41 3.139163 1_655
Ba19 S43 3.190816 1_555
Ba19 S34 3.213501 1_555
Ba19 S13 3.224284 1_555
Ba19 S1 3.380446 1_655
Ba19 S30 3.385090 1_555
Ba19 S16 3.513064 1_655
Ba20 O18 2.791061 1_545
Ba20 O9 2.845222 1_555
Ba20 O7 3.083283 1_655
Ba20 S7 3.315130 1_555
Ba20 S40 3.317795 1_545
Ba20 S2 3.365365 1_645
Ba20 S21 3.377382 1_555
Ba20 S23 3.495889 1_555
Ba20 S3 3.567163 1_545
Ba20 S5 3.862089 1_545
Ba21 O14 2.859341 1_555
Ba21 O13 2.872626 1_555
Ba21 S22 3.139163 1_455
Ba21 S0 3.190816 1_555
Ba21 S42 3.213501 1_555
Ba21 S15 3.224284 1_555
Ba21 S20 3.380446 1_455
Ba21 S6 3.385090 1_555
Ba21 S8 3.513064 1_455
Ba22 O7 2.791061 1_565
Ba22 O17 2.845229 1_555
Ba22 O18 3.083283 1_455
Ba22 S36 3.315130 1_555
Ba22 S35 3.317795 1_565
Ba22 S14 3.365365 1_465
Ba22 S3 3.377382 1_555
Ba22 S27 3.495889 1_555
Ba22 S21 3.567163 1_565
Ba22 S37 3.862089 1_565
Ba23 O13 2.824990 1_655
Ba23 S14 3.188172 1_555
Ba23 S20 3.188172 1_555
S0 V14 2.172147 1_555
S1 V6 2.198539 1_555
S2 V4 2.198539 1_565
S3 V4 2.183242 1_565
S4 V11 2.172147 1_455
S5 V2 2.165597 1_555
S6 V3 2.167656 1_555
S7 V11 2.159558 1_555
S8 V13 2.191678 1_555
S9 V8 2.183242 1_565
S10 V8 2.198539 1_565
S11 V14 2.167656 1_555
S12 V9 2.183242 1_555
S13 V2 2.191678 1_555
S14 V1 2.198539 1_545
S15 V0 2.191678 1_555
S16 V10 2.191678 1_555
S17 V7 2.183242 1_545
S18 V5 2.159558 1_555
S19 V13 2.165597 1_555
S20 V9 2.198539 1_555
S21 V1 2.183242 1_545
S22 V14 2.167656 1_555
S23 V11 2.167656 1_555
S24 V7 2.198539 1_545
S25 V10 2.191678 1_555
S26 V5 2.167656 1_555
S27 V3 2.167656 1_555
S28 V15 2.183242 1_555
S29 V14 2.159558 1_555
S30 V11 2.167656 1_555
S31 V12 2.183242 1_555
S32 V10 2.165597 1_555
S33 V3 2.172147 1_655
S34 V12 2.198539 1_555
S35 V0 2.191678 1_555
S36 V3 2.159558 1_555
S37 V0 2.165597 1_555
S38 V13 2.191678 1_555
S39 V6 2.183242 1_555
S40 V2 2.191678 1_555
S41 V5 2.167656 1_555
S42 V15 2.198539 1_555
S43 V5 2.172147 1_555
O0 V6 1.722891 1_555
O1 V6 1.722933 1_555
O2 V8 1.722891 1_555
O3 V7 1.722885 1_555
O4 V13 1.719016 1_555
O5 V12 1.722933 1_555
O6 V9 1.722933 1_555
O7 V4 1.722933 1_555
O8 V8 1.722933 1_555
O9 V4 1.722891 1_555
O10 V15 1.722933 1_555
O11 V9 1.722885 1_555
O12 V12 1.722885 1_555
O13 V0 1.719016 1_555
O14 V15 1.722891 1_555
O15 V7 1.722933 1_555
O16 V2 1.719016 1_555
O17 V1 1.722885 1_555
O18 V1 1.722933 1_555
O19 V10 1.719016 1_555
