# generated using pymatgen
data_CdI2
_symmetry_space_group_name_H-M   'P 1'
_cell_length_a   4.34457224
_cell_length_b   4.34457224
_cell_length_c   44.01607900
_cell_angle_alpha   90.00000000
_cell_angle_beta   90.00000000
_cell_angle_gamma   120.00000369
_symmetry_Int_Tables_number   1
_chemical_formula_structural   CdI2
_chemical_formula_sum   'Cd6 I12'
_cell_volume   719.50864151
_cell_formula_units_Z   6
loop_
 _symmetry_equiv_pos_site_id
 _symmetry_equiv_pos_as_xyz
  1  'x, y, z'
loop_
 _atom_site_type_symbol
 _atom_site_label
 _atom_site_symmetry_multiplicity
 _atom_site_fract_x
 _atom_site_fract_y
 _atom_site_fract_z
 _atom_site_occupancy
  Cd  Cd0  1  0.33333300  0.66666700  0.53678000  1
  Cd  Cd1  1  0.33333300  0.66666700  0.04139900  1
  Cd  Cd2  1  0.00000000  0.00000000  0.63219700  1
  Cd  Cd3  1  0.33333300  0.66666700  0.20800800  1
  Cd  Cd4  1  0.66666700  0.33333300  0.37385700  1
  Cd  Cd5  1  0.33333300  0.66666700  0.87437000  1
  I  I0  1  0.00000000  0.00000000  0.16952800  1
  I  I1  1  0.33333300  0.66666700  0.41324400  1
  I  I2  1  0.66666700  0.33333300  0.08082300  1
  I  I3  1  0.66666700  0.33333300  0.91379800  1
  I  I4  1  0.33333300  0.66666700  0.66713300  1
  I  I5  1  0.00000000  0.00000000  0.33537300  1
  I  I6  1  0.00000000  0.00000000  0.00289900  1
  I  I7  1  0.66666700  0.33333300  0.58227700  1
  I  I8  1  0.66666700  0.33333300  0.24741300  1
  I  I9  1  0.00000000  0.00000000  0.83582400  1
  I  I10  1  0.00000000  0.00000000  0.49902900  1
  I  I11  1  0.66666700  0.33333300  0.73604800  1
loop_
_geom_bond_atom_site_label_1
_geom_bond_atom_site_label_2
_geom_bond_distance
_geom_bond_site_symmetry_2
Cd0 I10 3.008794 1_565
Cd0 I10 3.008797 1_555
Cd0 I10 3.008797 1_665
Cd0 I7 3.209698 1_455
Cd0 I7 3.209698 1_565
Cd0 I7 3.209704 1_555
Cd1 I6 3.027126 1_565
Cd1 I6 3.027129 1_665
Cd1 I6 3.027129 1_555
Cd1 I2 3.050080 1_455
Cd1 I2 3.050080 1_565
Cd1 I2 3.050086 1_555
Cd2 I4 2.942179 1_545
Cd2 I4 2.942182 1_445
Cd2 I4 2.942182 1_555
Cd2 I7 3.334638 1_455
Cd2 I7 3.334640 1_555
Cd2 I7 3.334640 1_445
Cd3 I0 3.026633 1_565
Cd3 I0 3.026636 1_665
Cd3 I0 3.026636 1_555
Cd3 I8 3.049604 1_455
Cd3 I8 3.049604 1_565
Cd3 I8 3.049610 1_555
Cd4 I5 3.026732 1_655
Cd4 I5 3.026735 1_665
Cd4 I5 3.026735 1_555
Cd4 I1 3.049154 1_545
Cd4 I1 3.049154 1_655
Cd4 I1 3.049160 1_555
Cd5 I9 3.028260 1_565
Cd5 I9 3.028263 1_665
Cd5 I9 3.028263 1_555
Cd5 I3 3.050180 1_455
Cd5 I3 3.050180 1_565
Cd5 I3 3.050186 1_555
