# generated using pymatgen
data_Cs(MoS)3
_symmetry_space_group_name_H-M   'P 1'
_cell_length_a   9.42292501
_cell_length_b   9.42292508
_cell_length_c   4.43097232
_cell_angle_alpha   90.00000000
_cell_angle_beta   90.00000000
_cell_angle_gamma   120.00000634
_symmetry_Int_Tables_number   1
_chemical_formula_structural   Cs(MoS)3
_chemical_formula_sum   'Cs2 Mo6 S6'
_cell_volume   340.72273562
_cell_formula_units_Z   2
loop_
 _symmetry_equiv_pos_site_id
 _symmetry_equiv_pos_as_xyz
  1  'x, y, z'
loop_
 _atom_site_type_symbol
 _atom_site_label
 _atom_site_symmetry_multiplicity
 _atom_site_fract_x
 _atom_site_fract_y
 _atom_site_fract_z
 _atom_site_occupancy
  Cs  Cs0  1  0.33333300  0.66666700  0.75000000  1
  Cs  Cs1  1  0.66666700  0.33333300  0.25000000  1
  Mo  Mo0  1  0.14923181  0.97718969  0.75000000  1
  Mo  Mo1  1  0.97718969  0.82795788  0.25000000  1
  Mo  Mo2  1  0.17204212  0.14923181  0.25000000  1
  Mo  Mo3  1  0.85076819  0.02281031  0.25000000  1
  Mo  Mo4  1  0.02281031  0.17204212  0.75000000  1
  Mo  Mo5  1  0.82795788  0.85076819  0.75000000  1
  S  S0  1  0.32581282  0.28062442  0.75000000  1
  S  S1  1  0.28062442  0.95481260  0.25000000  1
  S  S2  1  0.04518740  0.32581282  0.25000000  1
  S  S3  1  0.67418718  0.71937558  0.25000000  1
  S  S4  1  0.95481260  0.67418718  0.75000000  1
  S  S5  1  0.71937558  0.04518740  0.75000000  1
loop_
_geom_bond_atom_site_label_1
_geom_bond_atom_site_label_2
_geom_bond_distance
_geom_bond_site_symmetry_2
Cs0 S4 3.602723 1_455
Cs0 S5 3.602732 1_565
Cs0 S0 3.602742 1_555
Cs0 S2 3.725020 1_555
Cs0 S2 3.725020 1_556
Cs0 S3 3.725020 1_555
Cs0 S3 3.725020 1_556
Cs0 S1 3.725020 1_555
Cs0 S1 3.725020 1_556
Cs1 S2 3.602723 1_655
Cs1 S1 3.602732 1_545
Cs1 S3 3.602742 1_555
Cs1 S4 3.725020 1_554
Cs1 S4 3.725020 1_555
Cs1 S0 3.725020 1_555
Cs1 S0 3.725020 1_554
Cs1 S5 3.725020 1_554
Cs1 S5 3.725020 1_555
Mo0 S0 2.487236 1_565
Mo0 S4 2.505503 1_455
Mo0 S1 2.597461 1_555
Mo0 S1 2.597461 1_556
Mo1 S1 2.487235 1_655
Mo1 S3 2.505505 1_555
Mo1 S4 2.597465 1_555
Mo1 S4 2.597465 1_554
Mo2 S2 2.487244 1_555
Mo2 S1 2.505496 1_545
Mo2 S0 2.597464 1_554
Mo2 S0 2.597464 1_555
Mo3 S3 2.487236 1_545
Mo3 S2 2.505503 1_655
Mo3 S5 2.597461 1_554
Mo3 S5 2.597461 1_555
Mo4 S5 2.487235 1_455
Mo4 S0 2.505505 1_555
Mo4 S2 2.597465 1_555
Mo4 S2 2.597465 1_556
Mo5 S4 2.487244 1_555
Mo5 S5 2.505496 1_565
Mo5 S3 2.597464 1_555
Mo5 S3 2.597464 1_556
