# generated using pymatgen
data_YbHg6As4Br7
_symmetry_space_group_name_H-M   'P 1'
_cell_length_a   12.68179300
_cell_length_b   12.68179300
_cell_length_c   12.68179300
_cell_angle_alpha   90.00000000
_cell_angle_beta   90.00000000
_cell_angle_gamma   90.00000000
_symmetry_Int_Tables_number   1
_chemical_formula_structural   YbHg6As4Br7
_chemical_formula_sum   'Yb4 Hg24 As16 Br28'
_cell_volume   2039.58580283
_cell_formula_units_Z   4
loop_
 _symmetry_equiv_pos_site_id
 _symmetry_equiv_pos_as_xyz
  1  'x, y, z'
loop_
 _atom_site_type_symbol
 _atom_site_label
 _atom_site_symmetry_multiplicity
 _atom_site_fract_x
 _atom_site_fract_y
 _atom_site_fract_z
 _atom_site_occupancy
  Yb  Yb0  1  0.50000000  0.50000000  0.50000000  1
  Yb  Yb1  1  0.00000000  0.00000000  0.50000000  1
  Yb  Yb2  1  0.00000000  0.50000000  0.00000000  1
  Yb  Yb3  1  0.50000000  0.00000000  0.00000000  1
  Hg  Hg0  1  0.19098600  0.29389400  0.45986500  1
  Hg  Hg1  1  0.70610600  0.54013500  0.80901400  1
  Hg  Hg2  1  0.29389400  0.04013500  0.69098600  1
  Hg  Hg3  1  0.45986500  0.19098600  0.29389400  1
  Hg  Hg4  1  0.79389400  0.45986500  0.30901400  1
  Hg  Hg5  1  0.95986500  0.19098600  0.20610600  1
  Hg  Hg6  1  0.19098600  0.20610600  0.95986500  1
  Hg  Hg7  1  0.30901400  0.79389400  0.45986500  1
  Hg  Hg8  1  0.30901400  0.70610600  0.95986500  1
  Hg  Hg9  1  0.95986500  0.30901400  0.70610600  1
  Hg  Hg10  1  0.79389400  0.04013500  0.80901400  1
  Hg  Hg11  1  0.04013500  0.69098600  0.29389400  1
  Hg  Hg12  1  0.20610600  0.54013500  0.69098600  1
  Hg  Hg13  1  0.20610600  0.95986500  0.19098600  1
  Hg  Hg14  1  0.69098600  0.20610600  0.54013500  1
  Hg  Hg15  1  0.54013500  0.69098600  0.20610600  1
  Hg  Hg16  1  0.04013500  0.80901400  0.79389400  1
  Hg  Hg17  1  0.45986500  0.30901400  0.79389400  1
  Hg  Hg18  1  0.80901400  0.70610600  0.54013500  1
  Hg  Hg19  1  0.54013500  0.80901400  0.70610600  1
  Hg  Hg20  1  0.69098600  0.29389400  0.04013500  1
  Hg  Hg21  1  0.70610600  0.95986500  0.30901400  1
  Hg  Hg22  1  0.29389400  0.45986500  0.19098600  1
  Hg  Hg23  1  0.80901400  0.79389400  0.04013500  1
  As  As0  1  0.27085400  0.22914600  0.77085400  1
  As  As1  1  0.77085400  0.27085400  0.22914600  1
  As  As2  1  0.77085400  0.22914600  0.72914600  1
  As  As3  1  0.72914600  0.72914600  0.72914600  1
  As  As4  1  0.34211500  0.84211500  0.65788500  1
  As  As5  1  0.65788500  0.15788500  0.34211500  1
  As  As6  1  0.15788500  0.34211500  0.65788500  1
  As  As7  1  0.65788500  0.34211500  0.84211500  1
  As  As8  1  0.15788500  0.15788500  0.15788500  1
  As  As9  1  0.27085400  0.27085400  0.27085400  1
  As  As10  1  0.72914600  0.77085400  0.22914600  1
  As  As11  1  0.84211500  0.65788500  0.34211500  1
  As  As12  1  0.84211500  0.84211500  0.84211500  1
  As  As13  1  0.22914600  0.72914600  0.77085400  1
  As  As14  1  0.22914600  0.77085400  0.27085400  1
  As  As15  1  0.34211500  0.65788500  0.15788500  1
  Br  Br0  1  0.54444200  0.45276700  0.28339300  1
  Br  Br1  1  0.45555800  0.95276700  0.21660700  1
  Br  Br2  1  0.21660700  0.04444200  0.45276700  1
  Br  Br3  1  0.71660700  0.04444200  0.04723300  1
  Br  Br4  1  0.78339300  0.95555800  0.54723300  1
  Br  Br5  1  0.95276700  0.21660700  0.45555800  1
  Br  Br6  1  0.71660700  0.45555800  0.54723300  1
  Br  Br7  1  0.00000000  0.00000000  0.00000000  1
  Br  Br8  1  0.95276700  0.28339300  0.95555800  1
  Br  Br9  1  0.45276700  0.28339300  0.54444200  1
  Br  Br10  1  0.28339300  0.54444200  0.45276700  1
  Br  Br11  1  0.45276700  0.21660700  0.04444200  1
  Br  Br12  1  0.54444200  0.04723300  0.78339300  1
  Br  Br13  1  0.00000000  0.50000000  0.50000000  1
  Br  Br14  1  0.50000000  0.00000000  0.50000000  1
  Br  Br15  1  0.28339300  0.95555800  0.95276700  1
  Br  Br16  1  0.50000000  0.50000000  0.00000000  1
  Br  Br17  1  0.45555800  0.54723300  0.71660700  1
  Br  Br18  1  0.78339300  0.54444200  0.04723300  1
  Br  Br19  1  0.54723300  0.71660700  0.45555800  1
  Br  Br20  1  0.04444200  0.45276700  0.21660700  1
  Br  Br21  1  0.54723300  0.78339300  0.95555800  1
  Br  Br22  1  0.95555800  0.95276700  0.28339300  1
  Br  Br23  1  0.04723300  0.78339300  0.54444200  1
  Br  Br24  1  0.21660700  0.45555800  0.95276700  1
  Br  Br25  1  0.04444200  0.04723300  0.71660700  1
  Br  Br26  1  0.04723300  0.71660700  0.04444200  1
  Br  Br27  1  0.95555800  0.54723300  0.78339300  1
loop_
_geom_bond_atom_site_label_1
_geom_bond_atom_site_label_2
_geom_bond_distance
_geom_bond_site_symmetry_2
As0 As6 2.481422 1_555
As0 Hg6 2.618564 1_555
As0 Hg2 2.618564 1_555
As0 Hg17 2.618564 1_555
As1 As5 2.481422 1_555
As1 Hg5 2.618564 1_555
As1 Hg20 2.618564 1_555
As1 Hg4 2.618564 1_555
As2 As7 2.481422 1_555
As2 Hg14 2.618564 1_555
As2 Hg9 2.618564 1_555
As2 Hg10 2.618564 1_555
As3 Hg19 2.618564 1_555
As3 Hg18 2.618564 1_555
As3 Hg1 2.618564 1_555
As4 Hg7 2.618502 1_555
As4 Hg19 2.618502 1_555
As4 Hg2 2.618502 1_565
As5 Hg21 2.618502 1_545
As5 Hg14 2.618502 1_555
As5 Hg3 2.618502 1_555
As6 Hg0 2.618502 1_555
As6 Hg12 2.618502 1_555
As6 Hg9 2.618502 1_455
As7 Hg17 2.618502 1_555
As7 Hg1 2.618502 1_555
As7 Hg20 2.618502 1_556
As8 As9 2.481422 1_555
As8 Hg5 2.618502 1_455
As8 Hg6 2.618502 1_554
As8 Hg13 2.618502 1_545
As9 Hg22 2.618564 1_555
As9 Hg0 2.618564 1_555
As9 Hg3 2.618564 1_555
As10 As11 2.481422 1_555
As10 Hg15 2.618564 1_555
As10 Hg21 2.618564 1_555
As10 Hg23 2.618564 1_555
As11 Hg4 2.618502 1_555
As11 Hg18 2.618502 1_555
As11 Hg11 2.618502 1_655
As12 As3 2.481422 1_555
As12 Hg16 2.618502 1_655
As12 Hg23 2.618502 1_556
As12 Hg10 2.618502 1_565
As13 As4 2.481422 1_555
As13 Hg12 2.618564 1_555
As13 Hg8 2.618564 1_555
As13 Hg16 2.618564 1_555
As14 As15 2.481422 1_555
As14 Hg13 2.618564 1_555
As14 Hg11 2.618564 1_555
As14 Hg7 2.618564 1_555
As15 Hg15 2.618502 1_555
As15 Hg8 2.618502 1_554
As15 Hg22 2.618502 1_555
Br0 Yb0 2.867450 1_555
Br0 Hg15 3.176533 1_555
Br0 Hg4 3.181415 1_555
Br1 Yb3 2.867450 1_565
Br1 Hg3 3.176533 1_565
Br1 Hg13 3.181415 1_555
Br2 Yb1 2.867450 1_555
Br2 Hg2 3.176533 1_555
Br2 Hg0 3.181415 1_555
Br3 Yb3 2.867450 1_555
Br3 Hg10 3.176533 1_554
Br3 Hg20 3.181415 1_555
Br4 Yb1 2.867450 1_665
Br4 Hg21 3.176533 1_555
Br4 Hg18 3.181415 1_555
Br5 Yb1 2.867450 1_655
Br5 Hg0 3.176533 1_655
Br5 Hg5 3.181415 1_555
Br6 Yb0 2.867450 1_555
Br6 Hg4 3.176533 1_555
Br6 Hg14 3.181415 1_555
Br8 Yb2 2.867450 1_656
Br8 Hg6 3.176533 1_655
Br8 Hg9 3.181415 1_555
Br9 Yb0 2.867450 1_555
Br9 Hg14 3.176533 1_555
Br9 Hg17 3.181415 1_555
Br10 Yb0 2.867450 1_555
Br10 Hg12 3.176533 1_555
Br10 Hg7 3.181415 1_555
Br11 Yb3 2.867450 1_555
Br11 Hg20 3.176533 1_555
Br11 Hg3 3.181415 1_555
Br12 Yb3 2.867450 1_556
Br12 Hg19 3.176533 1_545
Br12 Hg10 3.181415 1_555
Br15 Yb3 2.867450 1_566
Br15 Hg13 3.176533 1_556
Br15 Hg8 3.181415 1_555
Br17 Yb0 2.867450 1_555
Br17 Hg17 3.176533 1_555
Br17 Hg12 3.181415 1_555
Br18 Yb2 2.867450 1_655
Br18 Hg1 3.176533 1_554
Br18 Hg23 3.181415 1_555
Br19 Yb0 2.867450 1_555
Br19 Hg7 3.176533 1_555
Br19 Hg15 3.181415 1_555
Br20 Yb2 2.867450 1_555
Br20 Hg11 3.176533 1_555
Br20 Hg22 3.181415 1_555
Br21 Yb3 2.867450 1_566
Br21 Hg8 3.176533 1_555
Br21 Hg19 3.181415 1_555
Br22 Yb1 2.867450 1_665
Br22 Hg5 3.176533 1_565
Br22 Hg21 3.181415 1_555
Br23 Yb1 2.867450 1_565
Br23 Hg18 3.176533 1_455
Br23 Hg16 3.181415 1_555
Br24 Yb2 2.867450 1_556
Br24 Hg22 3.176533 1_556
Br24 Hg6 3.181415 1_555
Br25 Yb1 2.867450 1_555
Br25 Hg16 3.176533 1_545
Br25 Hg2 3.181415 1_555
Br26 Yb2 2.867450 1_555
Br26 Hg23 3.176533 1_455
Br26 Hg11 3.181415 1_555
Br27 Yb2 2.867450 1_656
Br27 Hg9 3.176533 1_555
Br27 Hg1 3.181415 1_555
