# generated using pymatgen
data_Y3Si2ClO8
_symmetry_space_group_name_H-M   'P 1'
_cell_length_a   6.24547100
_cell_length_b   6.91691100
_cell_length_c   17.92019100
_cell_angle_alpha   90.00000000
_cell_angle_beta   90.00000000
_cell_angle_gamma   90.00000000
_symmetry_Int_Tables_number   1
_chemical_formula_structural   Y3Si2ClO8
_chemical_formula_sum   'Y12 Si8 Cl4 O32'
_cell_volume   774.14090880
_cell_formula_units_Z   4
loop_
 _symmetry_equiv_pos_site_id
 _symmetry_equiv_pos_as_xyz
  1  'x, y, z'
loop_
 _atom_site_type_symbol
 _atom_site_label
 _atom_site_symmetry_multiplicity
 _atom_site_fract_x
 _atom_site_fract_y
 _atom_site_fract_z
 _atom_site_occupancy
  Y  Y0  1  0.87241500  0.98548600  0.90976400  1
  Y  Y1  1  0.12758500  0.01451400  0.40976400  1
  Y  Y2  1  0.62758500  0.48548600  0.59023600  1
  Y  Y3  1  0.88494100  0.29371200  0.25000000  1
  Y  Y4  1  0.12758500  0.01451400  0.09023600  1
  Y  Y5  1  0.62758500  0.48548600  0.90976400  1
  Y  Y6  1  0.37241500  0.51451400  0.09023600  1
  Y  Y7  1  0.37241500  0.51451400  0.40976400  1
  Y  Y8  1  0.38494100  0.20628800  0.75000000  1
  Y  Y9  1  0.11505900  0.70628800  0.75000000  1
  Y  Y10  1  0.61505900  0.79371200  0.25000000  1
  Y  Y11  1  0.87241500  0.98548600  0.59023600  1
  Si  Si0  1  0.62127700  0.02378900  0.09983200  1
  Si  Si1  1  0.12127700  0.47621100  0.90016800  1
  Si  Si2  1  0.37872300  0.97621100  0.90016800  1
  Si  Si3  1  0.62127700  0.02378900  0.40016800  1
  Si  Si4  1  0.87872300  0.52378900  0.40016800  1
  Si  Si5  1  0.37872300  0.97621100  0.59983200  1
  Si  Si6  1  0.12127700  0.47621100  0.59983200  1
  Si  Si7  1  0.87872300  0.52378900  0.09983200  1
  Cl  Cl0  1  0.73642000  0.45780100  0.75000000  1
  Cl  Cl1  1  0.76358000  0.95780100  0.75000000  1
  Cl  Cl2  1  0.23642000  0.04219900  0.25000000  1
  Cl  Cl3  1  0.26358000  0.54219900  0.25000000  1
  O  O0  1  0.53157400  0.16719700  0.61805800  1
  O  O1  1  0.05455600  0.69699200  0.09494000  1
  O  O2  1  0.29020300  0.48781600  0.96931700  1
  O  O3  1  0.05455600  0.69699200  0.40506000  1
  O  O4  1  0.27485100  0.46587800  0.67614500  1
  O  O5  1  0.94544400  0.30300800  0.90506000  1
  O  O6  1  0.55455600  0.80300800  0.59494000  1
  O  O7  1  0.77485100  0.03412200  0.17614500  1
  O  O8  1  0.70979700  0.51218400  0.03068300  1
  O  O9  1  0.46842600  0.83280300  0.11805800  1
  O  O10  1  0.22514900  0.96587800  0.82385500  1
  O  O11  1  0.03157400  0.33280300  0.38194200  1
  O  O12  1  0.79020300  0.01218400  0.03068300  1
  O  O13  1  0.77485100  0.03412200  0.32385500  1
  O  O14  1  0.96842600  0.66719700  0.88194200  1
  O  O15  1  0.70979700  0.51218400  0.46931700  1
  O  O16  1  0.29020300  0.48781600  0.53068300  1
  O  O17  1  0.46842600  0.83280300  0.38194200  1
  O  O18  1  0.72514900  0.53412200  0.17614500  1
  O  O19  1  0.20979700  0.98781600  0.53068300  1
  O  O20  1  0.27485100  0.46587800  0.82385500  1
  O  O21  1  0.72514900  0.53412200  0.32385500  1
  O  O22  1  0.79020300  0.01218400  0.46931700  1
  O  O23  1  0.22514900  0.96587800  0.67614500  1
  O  O24  1  0.44544400  0.19699200  0.09494000  1
  O  O25  1  0.44544400  0.19699200  0.40506000  1
  O  O26  1  0.20979700  0.98781600  0.96931700  1
  O  O27  1  0.55455600  0.80300800  0.90506000  1
  O  O28  1  0.94544400  0.30300800  0.59494000  1
  O  O29  1  0.03157400  0.33280300  0.11805800  1
  O  O30  1  0.96842600  0.66719700  0.61805800  1
  O  O31  1  0.53157400  0.16719700  0.88194200  1
loop_
_geom_bond_atom_site_label_1
_geom_bond_atom_site_label_2
_geom_bond_distance
_geom_bond_site_symmetry_2
Cl0 Y8 2.800933 1_555
Cl0 Y9 2.923410 1_655
Cl0 Y2 2.948809 1_555
Cl0 Y5 2.948809 1_555
Cl1 Y9 2.800933 1_655
Cl1 Y8 2.923410 1_565
Cl1 Y0 2.948809 1_555
Cl1 Y11 2.948809 1_555
Cl2 Y3 2.800933 1_455
Cl2 Y10 2.923410 1_545
Cl2 Y4 2.948809 1_555
Cl2 Y1 2.948809 1_555
Cl3 Y10 2.800933 1_555
Cl3 Y3 2.923410 1_455
Cl3 Y6 2.948809 1_555
Cl3 Y7 2.948809 1_555
O0 Si5 1.662263 1_545
O0 Y2 2.335611 1_555
O0 Y11 2.521852 1_545
O0 Y8 2.549960 1_555
O1 Si7 1.627549 1_455
O1 Y4 2.244714 1_565
O1 Y6 2.353965 1_555
O2 Si1 1.629430 1_555
O2 Y6 2.234537 1_556
O2 Y5 2.362009 1_555
O3 Si4 1.627549 1_455
O3 Y1 2.244714 1_565
O3 Y7 2.353965 1_555
O4 Si6 1.671896 1_555
O4 Y8 2.334186 1_555
O4 Y9 2.347939 1_555
O4 Y2 2.691029 1_555
O5 Si1 1.627549 1_655
O5 Y0 2.244714 1_545
O5 Y5 2.353965 1_555
O6 Si5 1.627549 1_555
O6 Y2 2.244714 1_555
O6 Y11 2.353965 1_555
O7 Si0 1.671896 1_555
O7 Y3 2.334186 1_555
O7 Y10 2.347939 1_545
O7 Y4 2.691029 1_655
O8 Si7 1.629430 1_555
O8 Y5 2.234537 1_554
O8 Y6 2.362009 1_555
O9 Si0 1.662263 1_565
O9 Y6 2.335611 1_555
O9 Y4 2.521852 1_565
O9 Y10 2.549960 1_555
O10 Si2 1.671896 1_555
O10 Y9 2.334186 1_555
O10 Y8 2.347939 1_565
O10 Y0 2.691029 1_455
O11 Si4 1.662263 1_455
O11 Y1 2.335611 1_555
O11 Y7 2.521852 1_555
O11 Y3 2.549960 1_455
O12 Si0 1.629430 1_555
O12 Y0 2.234537 1_544
O12 Y4 2.362009 1_655
O13 Si3 1.671896 1_555
O13 Y3 2.334186 1_555
O13 Y10 2.347939 1_545
O13 Y1 2.691029 1_655
O14 Si1 1.662263 1_655
O14 Y0 2.335611 1_555
O14 Y5 2.521852 1_555
O14 Y9 2.549960 1_655
O15 Si4 1.629430 1_555
O15 Y2 2.234537 1_555
O15 Y7 2.362009 1_555
O16 Si6 1.629430 1_555
O16 Y7 2.234537 1_555
O16 Y2 2.362009 1_555
O17 Si3 1.662263 1_565
O17 Y7 2.335611 1_555
O17 Y1 2.521852 1_565
O17 Y10 2.549960 1_555
O18 Si7 1.671896 1_555
O18 Y10 2.334186 1_555
O18 Y3 2.347939 1_555
O18 Y6 2.691029 1_555
O19 Si5 1.629430 1_555
O19 Y1 2.234537 1_565
O19 Y11 2.362009 1_455
O20 Si1 1.671896 1_555
O20 Y8 2.334186 1_555
O20 Y9 2.347939 1_555
O20 Y5 2.691029 1_555
O21 Si4 1.671896 1_555
O21 Y10 2.334186 1_555
O21 Y3 2.347939 1_555
O21 Y7 2.691029 1_555
O22 Si3 1.629430 1_555
O22 Y11 2.234537 1_545
O22 Y1 2.362009 1_655
O23 Si5 1.671896 1_555
O23 Y9 2.334186 1_555
O23 Y8 2.347939 1_565
O23 Y11 2.691029 1_455
O24 Si0 1.627549 1_555
O24 Y6 2.244714 1_555
O24 Y4 2.353965 1_555
O25 Si3 1.627549 1_555
O25 Y7 2.244714 1_555
O25 Y1 2.353965 1_555
O26 Si2 1.629430 1_555
O26 Y4 2.234537 1_566
O26 Y0 2.362009 1_455
O27 Si2 1.627549 1_555
O27 Y5 2.244714 1_555
O27 Y0 2.353965 1_555
O28 Si6 1.627549 1_655
O28 Y11 2.244714 1_545
O28 Y2 2.353965 1_555
O29 Si7 1.662263 1_455
O29 Y4 2.335611 1_555
O29 Y6 2.521852 1_555
O29 Y3 2.549960 1_455
O30 Si6 1.662263 1_655
O30 Y11 2.335611 1_555
O30 Y2 2.521852 1_555
O30 Y9 2.549960 1_655
O31 Si2 1.662263 1_545
O31 Y5 2.335611 1_555
O31 Y0 2.521852 1_545
O31 Y8 2.549960 1_555
