# generated using pymatgen
data_LiCdCoF6
_symmetry_space_group_name_H-M   'P 1'
_cell_length_a   5.10026830
_cell_length_b   5.10026830
_cell_length_c   9.63709400
_cell_angle_alpha   90.00000000
_cell_angle_beta   90.00000000
_cell_angle_gamma   120.00000389
_symmetry_Int_Tables_number   1
_chemical_formula_structural   LiCdCoF6
_chemical_formula_sum   'Li2 Cd2 Co2 F12'
_cell_volume   217.10146561
_cell_formula_units_Z   2
loop_
 _symmetry_equiv_pos_site_id
 _symmetry_equiv_pos_as_xyz
  1  'x, y, z'
loop_
 _atom_site_type_symbol
 _atom_site_label
 _atom_site_symmetry_multiplicity
 _atom_site_fract_x
 _atom_site_fract_y
 _atom_site_fract_z
 _atom_site_occupancy
  Li  Li0  1  0.33333300  0.66666700  0.25000000  1
  Li  Li1  1  0.66666700  0.33333300  0.75000000  1
  Cd  Cd0  1  0.00000000  0.00000000  0.00000000  1
  Cd  Cd1  1  0.00000000  0.00000000  0.50000000  1
  Co  Co0  1  0.66666700  0.33333300  0.25000000  1
  Co  Co1  1  0.33333300  0.66666700  0.75000000  1
  F  F0  1  0.97607400  0.62825100  0.35971400  1
  F  F1  1  0.65217700  0.02392600  0.35971400  1
  F  F2  1  0.02392600  0.37174900  0.64028600  1
  F  F3  1  0.62825100  0.97607400  0.85971400  1
  F  F4  1  0.34782300  0.37174900  0.85971400  1
  F  F5  1  0.62825100  0.65217700  0.64028600  1
  F  F6  1  0.37174900  0.02392600  0.14028600  1
  F  F7  1  0.97607400  0.34782300  0.14028600  1
  F  F8  1  0.02392600  0.65217700  0.85971400  1
  F  F9  1  0.34782300  0.97607400  0.64028600  1
  F  F10  1  0.37174900  0.34782300  0.35971400  1
  F  F11  1  0.65217700  0.62825100  0.14028600  1
loop_
_geom_bond_atom_site_label_1
_geom_bond_atom_site_label_2
_geom_bond_distance
_geom_bond_site_symmetry_2
Cd0 F11 2.281705 1_445
Cd0 F4 2.281705 1_554
Cd0 F6 2.281705 1_555
Cd0 F3 2.281705 1_444
Cd0 F7 2.281705 1_455
Cd0 F8 2.281705 1_544
Cd1 F10 2.281705 1_555
Cd1 F5 2.281705 1_445
Cd1 F2 2.281705 1_555
Cd1 F0 2.281705 1_445
Cd1 F1 2.281705 1_455
Cd1 F9 2.281705 1_545
Co0 F1 1.870038 1_555
Co0 F7 1.870038 1_555
Co0 F6 1.870040 1_555
Co0 F0 1.870040 1_555
Co0 F10 1.870042 1_555
Co0 F11 1.870042 1_555
Co1 F8 1.870038 1_555
Co1 F9 1.870038 1_555
Co1 F3 1.870040 1_555
Co1 F2 1.870040 1_555
Co1 F4 1.870042 1_555
Co1 F5 1.870042 1_555
F0 Li0 2.029636 1_655
F1 Li0 2.029638 1_545
F2 Li1 2.029636 1_455
F3 Li1 2.029636 1_565
F4 Li1 2.029640 1_555
F5 Li1 2.029640 1_555
F6 Li0 2.029636 1_545
F7 Li0 2.029638 1_655
F8 Li1 2.029638 1_455
F9 Li1 2.029638 1_565
F10 Li0 2.029640 1_555
F11 Li0 2.029640 1_555
