# generated using pymatgen
data_Rb3Mo12PO40
_symmetry_space_group_name_H-M   'P 1'
_cell_length_a   12.03358100
_cell_length_b   12.03358100
_cell_length_c   12.03358100
_cell_angle_alpha   90.00000000
_cell_angle_beta   90.00000000
_cell_angle_gamma   90.00000000
_symmetry_Int_Tables_number   1
_chemical_formula_structural   Rb3Mo12PO40
_chemical_formula_sum   'Rb6 Mo24 P2 O80'
_cell_volume   1742.54762648
_cell_formula_units_Z   2
loop_
 _symmetry_equiv_pos_site_id
 _symmetry_equiv_pos_as_xyz
  1  'x, y, z'
loop_
 _atom_site_type_symbol
 _atom_site_label
 _atom_site_symmetry_multiplicity
 _atom_site_fract_x
 _atom_site_fract_y
 _atom_site_fract_z
 _atom_site_occupancy
  Rb  Rb0  1  0.00000000  0.50000000  0.50000000  1
  Rb  Rb1  1  0.50000000  0.50000000  0.00000000  1
  Rb  Rb2  1  0.50000000  0.00000000  0.00000000  1
  Rb  Rb3  1  0.50000000  0.00000000  0.50000000  1
  Rb  Rb4  1  0.00000000  0.50000000  0.00000000  1
  Rb  Rb5  1  0.00000000  0.00000000  0.50000000  1
  Mo  Mo0  1  0.78765700  0.78765700  0.99206000  1
  Mo  Mo1  1  0.50794000  0.28765700  0.28765700  1
  Mo  Mo2  1  0.99206000  0.21234300  0.21234300  1
  Mo  Mo3  1  0.49206000  0.71234300  0.28765700  1
  Mo  Mo4  1  0.28765700  0.50794000  0.28765700  1
  Mo  Mo5  1  0.50794000  0.71234300  0.71234300  1
  Mo  Mo6  1  0.71234300  0.49206000  0.28765700  1
  Mo  Mo7  1  0.99206000  0.78765700  0.78765700  1
  Mo  Mo8  1  0.49206000  0.28765700  0.71234300  1
  Mo  Mo9  1  0.00794000  0.21234300  0.78765700  1
  Mo  Mo10  1  0.78765700  0.99206000  0.78765700  1
  Mo  Mo11  1  0.28765700  0.49206000  0.71234300  1
  Mo  Mo12  1  0.78765700  0.00794000  0.21234300  1
  Mo  Mo13  1  0.21234300  0.78765700  0.00794000  1
  Mo  Mo14  1  0.00794000  0.78765700  0.21234300  1
  Mo  Mo15  1  0.71234300  0.71234300  0.50794000  1
  Mo  Mo16  1  0.71234300  0.50794000  0.71234300  1
  Mo  Mo17  1  0.21234300  0.99206000  0.21234300  1
  Mo  Mo18  1  0.78765700  0.21234300  0.00794000  1
  Mo  Mo19  1  0.28765700  0.71234300  0.49206000  1
  Mo  Mo20  1  0.28765700  0.28765700  0.50794000  1
  Mo  Mo21  1  0.21234300  0.00794000  0.78765700  1
  Mo  Mo22  1  0.21234300  0.21234300  0.99206000  1
  Mo  Mo23  1  0.71234300  0.28765700  0.49206000  1
  P  P0  1  0.50000000  0.50000000  0.50000000  1
  P  P1  1  0.00000000  0.00000000  0.00000000  1
  O  O0  1  0.71791300  0.12358300  0.12358300  1
  O  O1  1  0.57423600  0.57423600  0.57423600  1
  O  O2  1  0.51578600  0.81165700  0.18834300  1
  O  O3  1  0.12358300  0.71791300  0.12358300  1
  O  O4  1  0.42576400  0.42576400  0.57423600  1
  O  O5  1  0.59735400  0.59735400  0.24765400  1
  O  O6  1  0.28208700  0.12358300  0.87641700  1
  O  O7  1  0.62358300  0.62358300  0.78208700  1
  O  O8  1  0.37641700  0.62358300  0.21791300  1
  O  O9  1  0.12358300  0.12358300  0.71791300  1
  O  O10  1  0.09735400  0.09735400  0.25234600  1
  O  O11  1  0.12358300  0.28208700  0.87641700  1
  O  O12  1  0.98421400  0.68834300  0.31165700  1
  O  O13  1  0.48421400  0.81165700  0.81165700  1
  O  O14  1  0.81165700  0.18834300  0.51578600  1
  O  O15  1  0.09735400  0.90264600  0.74765400  1
  O  O16  1  0.25234600  0.09735400  0.09735400  1
  O  O17  1  0.81165700  0.48421400  0.81165700  1
  O  O18  1  0.09735400  0.74765400  0.90264600  1
  O  O19  1  0.18834300  0.18834300  0.48421400  1
  O  O20  1  0.31165700  0.68834300  0.98421400  1
  O  O21  1  0.31165700  0.98421400  0.68834300  1
  O  O22  1  0.59735400  0.24765400  0.59735400  1
  O  O23  1  0.28208700  0.87641700  0.12358300  1
  O  O24  1  0.21791300  0.62358300  0.37641700  1
  O  O25  1  0.07423600  0.92576400  0.07423600  1
  O  O26  1  0.78208700  0.37641700  0.37641700  1
  O  O27  1  0.62358300  0.78208700  0.62358300  1
  O  O28  1  0.51578600  0.18834300  0.81165700  1
  O  O29  1  0.40264600  0.40264600  0.24765400  1
  O  O30  1  0.68834300  0.68834300  0.01578600  1
  O  O31  1  0.98421400  0.31165700  0.68834300  1
  O  O32  1  0.90264600  0.09735400  0.74765400  1
  O  O33  1  0.68834300  0.98421400  0.31165700  1
  O  O34  1  0.59735400  0.40264600  0.75234600  1
  O  O35  1  0.59735400  0.75234600  0.40264600  1
  O  O36  1  0.24765400  0.59735400  0.59735400  1
  O  O37  1  0.90264600  0.90264600  0.25234600  1
  O  O38  1  0.92576400  0.92576400  0.92576400  1
  O  O39  1  0.18834300  0.81165700  0.51578600  1
  O  O40  1  0.71791300  0.87641700  0.87641700  1
  O  O41  1  0.87641700  0.12358300  0.28208700  1
  O  O42  1  0.37641700  0.78208700  0.37641700  1
  O  O43  1  0.92576400  0.07423600  0.07423600  1
  O  O44  1  0.40264600  0.59735400  0.75234600  1
  O  O45  1  0.87641700  0.87641700  0.71791300  1
  O  O46  1  0.75234600  0.40264600  0.59735400  1
  O  O47  1  0.07423600  0.07423600  0.92576400  1
  O  O48  1  0.24765400  0.40264600  0.40264600  1
  O  O49  1  0.21791300  0.37641700  0.62358300  1
  O  O50  1  0.37641700  0.37641700  0.78208700  1
  O  O51  1  0.57423600  0.42576400  0.42576400  1
  O  O52  1  0.68834300  0.31165700  0.98421400  1
  O  O53  1  0.81165700  0.81165700  0.48421400  1
  O  O54  1  0.31165700  0.01578600  0.31165700  1
  O  O55  1  0.81165700  0.51578600  0.18834300  1
  O  O56  1  0.62358300  0.37641700  0.21791300  1
  O  O57  1  0.25234600  0.90264600  0.90264600  1
  O  O58  1  0.40264600  0.75234600  0.59735400  1
  O  O59  1  0.74765400  0.90264600  0.09735400  1
  O  O60  1  0.87641700  0.71791300  0.87641700  1
  O  O61  1  0.78208700  0.62358300  0.62358300  1
  O  O62  1  0.37641700  0.21791300  0.62358300  1
  O  O63  1  0.75234600  0.59735400  0.40264600  1
  O  O64  1  0.31165700  0.31165700  0.01578600  1
  O  O65  1  0.68834300  0.01578600  0.68834300  1
  O  O66  1  0.48421400  0.18834300  0.18834300  1
  O  O67  1  0.01578600  0.31165700  0.31165700  1
  O  O68  1  0.74765400  0.09735400  0.90264600  1
  O  O69  1  0.62358300  0.21791300  0.37641700  1
  O  O70  1  0.09735400  0.25234600  0.09735400  1
  O  O71  1  0.87641700  0.28208700  0.12358300  1
  O  O72  1  0.18834300  0.48421400  0.18834300  1
  O  O73  1  0.01578600  0.68834300  0.68834300  1
  O  O74  1  0.42576400  0.57423600  0.42576400  1
  O  O75  1  0.90264600  0.74765400  0.09735400  1
  O  O76  1  0.40264600  0.24765400  0.40264600  1
  O  O77  1  0.90264600  0.25234600  0.90264600  1
  O  O78  1  0.12358300  0.87641700  0.28208700  1
  O  O79  1  0.18834300  0.51578600  0.81165700  1
loop_
_geom_bond_atom_site_label_1
_geom_bond_atom_site_label_2
_geom_bond_distance
_geom_bond_site_symmetry_2
Mo0 O30 1.714076 1_556
Mo0 O75 1.936978 1_556
Mo0 O59 1.936978 1_556
Mo0 O40 1.944675 1_555
Mo0 O60 1.944675 1_555
Mo1 O66 1.714076 1_555
Mo1 O76 1.936978 1_555
Mo1 O29 1.936978 1_555
Mo1 O56 1.944675 1_555
Mo1 O69 1.944675 1_555
Mo2 O67 1.714076 1_655
Mo2 O70 1.936978 1_655
Mo2 O10 1.936978 1_655
Mo2 O71 1.944675 1_555
Mo2 O41 1.944675 1_555
Mo3 O2 1.714076 1_555
Mo3 O5 1.936978 1_555
Mo3 O35 1.936978 1_555
Mo3 O8 1.944675 1_555
Mo3 O42 1.944675 1_555
Mo4 O72 1.714076 1_555
Mo4 O48 1.936978 1_555
Mo4 O29 1.936978 1_555
Mo4 O8 1.944675 1_555
Mo4 O24 1.944675 1_555
Mo5 O13 1.714076 1_555
Mo5 O58 1.936978 1_555
Mo5 O44 1.936978 1_555
Mo5 O7 1.944675 1_555
Mo5 O27 1.944675 1_555
Mo6 O55 1.714076 1_555
Mo6 O5 1.936978 1_555
Mo6 O63 1.936978 1_555
Mo6 O56 1.944675 1_555
Mo6 O26 1.944675 1_555
Mo7 O73 1.714076 1_655
Mo7 O18 1.936978 1_655
Mo7 O15 1.936978 1_655
Mo7 O45 1.944675 1_555
Mo7 O60 1.944675 1_555
Mo8 O28 1.714076 1_555
Mo8 O22 1.936978 1_555
Mo8 O34 1.936978 1_555
Mo8 O62 1.944675 1_555
Mo8 O50 1.944675 1_555
Mo9 O31 1.714076 1_455
Mo9 O77 1.936978 1_455
Mo9 O32 1.936978 1_455
Mo9 O11 1.944675 1_555
Mo9 O9 1.944675 1_555
Mo10 O65 1.714076 1_565
Mo10 O68 1.936978 1_565
Mo10 O32 1.936978 1_565
Mo10 O45 1.944675 1_555
Mo10 O40 1.944675 1_555
Mo11 O79 1.714076 1_555
Mo11 O36 1.936978 1_555
Mo11 O44 1.936978 1_555
Mo11 O49 1.944675 1_555
Mo11 O50 1.944675 1_555
Mo12 O33 1.714076 1_545
Mo12 O37 1.936978 1_545
Mo12 O59 1.936978 1_545
Mo12 O41 1.944675 1_555
Mo12 O0 1.944675 1_555
Mo13 O20 1.714076 1_554
Mo13 O57 1.936978 1_554
Mo13 O18 1.936978 1_554
Mo13 O23 1.944675 1_555
Mo13 O3 1.944675 1_555
Mo14 O12 1.714076 1_455
Mo14 O37 1.936978 1_455
Mo14 O75 1.936978 1_455
Mo14 O78 1.944675 1_555
Mo14 O3 1.944675 1_555
Mo15 O53 1.714076 1_555
Mo15 O63 1.936978 1_555
Mo15 O35 1.936978 1_555
Mo15 O61 1.944675 1_555
Mo15 O27 1.944675 1_555
Mo16 O17 1.714076 1_555
Mo16 O34 1.936978 1_555
Mo16 O46 1.936978 1_555
Mo16 O61 1.944675 1_555
Mo16 O7 1.944675 1_555
Mo17 O54 1.714076 1_565
Mo17 O16 1.936978 1_565
Mo17 O10 1.936978 1_565
Mo17 O78 1.944675 1_555
Mo17 O23 1.944675 1_555
Mo18 O52 1.714076 1_554
Mo18 O77 1.936978 1_554
Mo18 O68 1.936978 1_554
Mo18 O71 1.944675 1_555
Mo18 O0 1.944675 1_555
Mo19 O39 1.714076 1_555
Mo19 O36 1.936978 1_555
Mo19 O58 1.936978 1_555
Mo19 O24 1.944675 1_555
Mo19 O42 1.944675 1_555
Mo20 O19 1.714076 1_555
Mo20 O76 1.936978 1_555
Mo20 O48 1.936978 1_555
Mo20 O49 1.944675 1_555
Mo20 O62 1.944675 1_555
Mo21 O21 1.714076 1_545
Mo21 O57 1.936978 1_545
Mo21 O15 1.936978 1_545
Mo21 O6 1.944675 1_555
Mo21 O9 1.944675 1_555
Mo22 O64 1.714076 1_556
Mo22 O70 1.936978 1_556
Mo22 O16 1.936978 1_556
Mo22 O11 1.944675 1_555
Mo22 O6 1.944675 1_555
Mo23 O14 1.714076 1_555
Mo23 O22 1.936978 1_555
Mo23 O46 1.936978 1_555
Mo23 O69 1.944675 1_555
Mo23 O26 1.944675 1_555
O0 Rb2 3.361477 1_555
O1 P0 1.547284 1_555
O2 Rb2 3.210855 1_565
O3 Rb4 3.361477 1_555
O4 P0 1.547284 1_555
O5 Rb1 3.409734 1_555
O6 Rb2 3.361477 1_556
O7 Rb1 3.361477 1_556
O8 Rb1 3.361477 1_555
O9 Rb5 3.361477 1_555
O10 Rb5 3.409734 1_555
O11 Rb4 3.361477 1_556
O12 Rb0 3.210855 1_655
O13 Rb2 3.210855 1_566
O14 Rb5 3.210855 1_655
O15 Rb5 3.409734 1_565
O16 Rb2 3.409734 1_555
O17 Rb4 3.210855 1_656
O18 Rb4 3.409734 1_556
O19 Rb5 3.210855 1_555
O20 Rb1 3.210855 1_556
O21 Rb3 3.210855 1_565
O22 Rb3 3.409734 1_555
O23 Rb2 3.361477 1_565
O24 Rb0 3.361477 1_555
O25 P1 1.547284 1_565
O26 Rb0 3.361477 1_655
O27 Rb3 3.361477 1_565
O28 Rb2 3.210855 1_556
O29 Rb1 3.409734 1_555
O30 Rb1 3.210855 1_555
O31 Rb0 3.210855 1_655
O32 Rb5 3.409734 1_655
O33 Rb3 3.210855 1_565
O34 Rb1 3.409734 1_556
O35 Rb3 3.409734 1_565
O36 Rb0 3.409734 1_555
O37 Rb5 3.409734 1_665
O38 P1 1.547284 1_666
O39 Rb5 3.210855 1_565
O40 Rb2 3.361477 1_566
O41 Rb5 3.361477 1_655
O42 Rb3 3.361477 1_565
O43 P1 1.547284 1_655
O44 Rb1 3.409734 1_556
O45 Rb5 3.361477 1_665
O46 Rb0 3.409734 1_655
O47 P1 1.547284 1_556
O48 Rb0 3.409734 1_555
O49 Rb0 3.361477 1_555
O50 Rb1 3.361477 1_556
O51 P0 1.547284 1_555
O52 Rb1 3.210855 1_556
O53 Rb5 3.210855 1_665
O54 Rb3 3.210855 1_555
O55 Rb4 3.210855 1_655
O56 Rb1 3.361477 1_555
O57 Rb2 3.409734 1_566
O58 Rb3 3.409734 1_565
O59 Rb2 3.409734 1_565
O60 Rb4 3.361477 1_656
O61 Rb0 3.361477 1_655
O62 Rb3 3.361477 1_555
O63 Rb0 3.409734 1_655
O64 Rb1 3.210855 1_555
O65 Rb3 3.210855 1_555
O66 Rb2 3.210855 1_555
O67 Rb0 3.210855 1_555
O68 Rb2 3.409734 1_556
O69 Rb3 3.361477 1_555
O70 Rb4 3.409734 1_555
O71 Rb4 3.361477 1_655
O72 Rb4 3.210855 1_555
O73 Rb0 3.210855 1_555
O74 P0 1.547284 1_555
O75 Rb4 3.409734 1_655
O76 Rb3 3.409734 1_555
O77 Rb4 3.409734 1_656
O78 Rb5 3.361477 1_565
O79 Rb4 3.210855 1_556
