# generated using pymatgen
data_Sm(NiAs)2
_symmetry_space_group_name_H-M   'P 1'
_cell_length_a   4.03998151
_cell_length_b   4.03998160
_cell_length_c   5.67023946
_cell_angle_alpha   110.86974776
_cell_angle_beta   110.86973363
_cell_angle_gamma   89.99997555
_symmetry_Int_Tables_number   1
_chemical_formula_structural   Sm(NiAs)2
_chemical_formula_sum   'Sm1 Ni2 As2'
_cell_volume   79.94326558
_cell_formula_units_Z   1
loop_
 _symmetry_equiv_pos_site_id
 _symmetry_equiv_pos_as_xyz
  1  'x, y, z'
loop_
 _atom_site_type_symbol
 _atom_site_label
 _atom_site_symmetry_multiplicity
 _atom_site_fract_x
 _atom_site_fract_y
 _atom_site_fract_z
 _atom_site_occupancy
  Sm  Sm0  1  0.00000000  0.00000000  0.00000000  1
  Ni  Ni0  1  0.25000000  0.75000000  0.50000000  1
  Ni  Ni1  1  0.75000000  0.25000000  0.50000000  1
  As  As0  1  0.36642497  0.36642497  0.73284894  1
  As  As1  1  0.63357503  0.63357503  0.26715106  1
loop_
_geom_bond_atom_site_label_1
_geom_bond_atom_site_label_2
_geom_bond_distance
_geom_bond_site_symmetry_2
Ni0 Sm0 3.174599 1_555
Ni0 Sm0 3.174600 1_566
Ni0 Sm0 3.174600 1_666
Ni0 Sm0 3.174600 1_565
Ni1 Sm0 3.174599 1_666
Ni1 Sm0 3.174600 1_655
Ni1 Sm0 3.174600 1_555
Ni1 Sm0 3.174600 1_656
As0 Ni1 2.319721 1_555
As0 Ni0 2.319722 1_555
As0 Ni0 2.319725 1_545
As0 Ni1 2.319725 1_455
As0 As1 2.617038 1_556
As0 Sm0 3.142122 1_666
As0 Sm0 3.142124 1_566
As0 Sm0 3.142124 1_656
As0 Sm0 3.142128 1_556
As1 Ni0 2.319721 1_555
As1 Ni1 2.319722 1_555
As1 Ni1 2.319725 1_565
As1 Ni0 2.319725 1_655
As1 Sm0 3.142122 1_555
As1 Sm0 3.142124 1_655
As1 Sm0 3.142124 1_565
As1 Sm0 3.142128 1_665
