# generated using pymatgen
data_Rb3Nb6SBr17
_symmetry_space_group_name_H-M   'P 1'
_cell_length_a   13.16555002
_cell_length_b   13.16555002
_cell_length_c   9.59586889
_cell_angle_alpha   89.12789733
_cell_angle_beta   89.12789733
_cell_angle_gamma   94.79065172
_symmetry_Int_Tables_number   1
_chemical_formula_structural   Rb3Nb6SBr17
_chemical_formula_sum   'Rb6 Nb12 S2 Br34'
_cell_volume   1657.03869327
_cell_formula_units_Z   2
loop_
 _symmetry_equiv_pos_site_id
 _symmetry_equiv_pos_as_xyz
  1  'x, y, z'
loop_
 _atom_site_type_symbol
 _atom_site_label
 _atom_site_symmetry_multiplicity
 _atom_site_fract_x
 _atom_site_fract_y
 _atom_site_fract_z
 _atom_site_occupancy
  Rb  Rb0  1  0.16797300  0.27456200  0.83215700  1
  Rb  Rb1  1  0.54455000  0.45545000  0.75000000  1
  Rb  Rb2  1  0.27456200  0.16797300  0.33215700  1
  Rb  Rb3  1  0.72543800  0.83202700  0.66784300  1
  Rb  Rb4  1  0.45545000  0.54455000  0.25000000  1
  Rb  Rb5  1  0.83202700  0.72543800  0.16784300  1
  Nb  Nb0  1  0.30136900  0.94741300  0.73811500  1
  Nb  Nb1  1  0.38261900  0.76008600  0.85637300  1
  Nb  Nb2  1  0.80363700  0.16425000  0.01974900  1
  Nb  Nb3  1  0.61738100  0.23991400  0.14362700  1
  Nb  Nb4  1  0.83575000  0.19636300  0.48025100  1
  Nb  Nb5  1  0.16425000  0.80363700  0.51974900  1
  Nb  Nb6  1  0.76008600  0.38261900  0.35637300  1
  Nb  Nb7  1  0.23991400  0.61738100  0.64362700  1
  Nb  Nb8  1  0.94741300  0.30136900  0.23811500  1
  Nb  Nb9  1  0.05258700  0.69863100  0.76188500  1
  Nb  Nb10  1  0.19636300  0.83575000  0.98025100  1
  Nb  Nb11  1  0.69863100  0.05258700  0.26188500  1
  S  S0  1  0.77744300  0.22255700  0.25000000  1
  S  S1  1  0.22255700  0.77744300  0.75000000  1
  Br  Br0  1  0.64071600  0.20122400  0.88073900  1
  Br  Br1  1  0.43487200  0.30944300  0.06219000  1
  Br  Br2  1  0.88154300  0.11845700  0.75000000  1
  Br  Br3  1  0.03112700  0.25520600  0.47669300  1
  Br  Br4  1  0.48936700  0.93500800  0.81642300  1
  Br  Br5  1  0.69055700  0.56512800  0.43781000  1
  Br  Br6  1  0.43822300  0.68896600  0.60456600  1
  Br  Br7  1  0.14436200  0.36291300  0.16561300  1
  Br  Br8  1  0.34978300  0.90091100  0.47462700  1
  Br  Br9  1  0.56177700  0.31103400  0.39543400  1
  Br  Br10  1  0.36291300  0.14436200  0.66561300  1
  Br  Br11  1  0.87305200  0.00988600  0.38950600  1
  Br  Br12  1  0.90091100  0.34978300  0.97462700  1
  Br  Br13  1  0.00988600  0.87305200  0.88950600  1
  Br  Br14  1  0.11845700  0.88154300  0.25000000  1
  Br  Br15  1  0.68896600  0.43822300  0.10456600  1
  Br  Br16  1  0.06499200  0.51063300  0.68357700  1
  Br  Br17  1  0.56512800  0.69055700  0.93781000  1
  Br  Br18  1  0.25520600  0.03112700  0.97669300  1
  Br  Br19  1  0.09908900  0.65021700  0.02537300  1
  Br  Br20  1  0.99011400  0.12694800  0.11049400  1
  Br  Br21  1  0.12694800  0.99011400  0.61049400  1
  Br  Br22  1  0.65021700  0.09908900  0.52537300  1
  Br  Br23  1  0.31103400  0.56177700  0.89543400  1
  Br  Br24  1  0.20122400  0.64071600  0.38073900  1
  Br  Br25  1  0.51063300  0.06499200  0.18357700  1
  Br  Br26  1  0.30944300  0.43487200  0.56219000  1
  Br  Br27  1  0.35928400  0.79877600  0.11926100  1
  Br  Br28  1  0.96887300  0.74479400  0.52330700  1
  Br  Br29  1  0.79877600  0.35928400  0.61926100  1
  Br  Br30  1  0.85563800  0.63708700  0.83438700  1
  Br  Br31  1  0.74479400  0.96887300  0.02330700  1
  Br  Br32  1  0.93500800  0.48936700  0.31642300  1
  Br  Br33  1  0.63708700  0.85563800  0.33438700  1
loop_
_geom_bond_atom_site_label_1
_geom_bond_atom_site_label_2
_geom_bond_distance
_geom_bond_site_symmetry_2
Nb0 S1 2.387037 1_555
Nb1 S1 2.381948 1_555
Nb2 S0 2.379614 1_555
Nb3 S0 2.381948 1_555
Nb4 S0 2.379614 1_555
Nb5 S1 2.379614 1_555
Nb6 S0 2.381948 1_555
Nb7 S1 2.381948 1_555
Nb8 S0 2.387037 1_555
Nb9 S1 2.387037 1_555
Nb10 S1 2.379614 1_555
Nb11 S0 2.387037 1_555
Br0 Nb3 2.599849 1_556
Br0 Nb2 2.618936 1_556
Br0 Rb1 3.873987 1_555
Br1 Nb3 2.761337 1_555
Br1 Rb4 3.598179 1_555
Br1 Rb2 3.696573 1_555
Br1 Rb1 3.739514 1_554
Br2 Nb4 2.861061 1_555
Br2 Nb2 2.861061 1_556
Br3 Nb4 2.623252 1_455
Br3 Nb8 2.640380 1_455
Br3 Rb2 3.747310 1_555
Br3 Rb0 3.883628 1_555
Br4 Nb0 2.614924 1_555
Br4 Nb1 2.615679 1_555
Br4 Rb3 3.762772 1_555
Br5 Nb6 2.761337 1_555
Br5 Rb4 3.598179 1_555
Br5 Rb5 3.696573 1_555
Br5 Rb1 3.739514 1_555
Br6 Nb1 2.716742 1_555
Br6 Nb7 2.719136 1_555
Br6 Rb1 3.742543 1_555
Br6 Rb4 3.935482 1_555
Br7 Nb8 2.727801 1_455
Br7 Rb0 3.439735 1_554
Br7 Rb2 3.573878 1_555
Br8 Nb5 2.687473 1_555
Br8 Nb0 2.690190 1_555
Br8 Rb2 3.960889 1_565
Br9 Nb3 2.716742 1_555
Br9 Nb6 2.719136 1_555
Br9 Rb4 3.742543 1_555
Br9 Rb1 3.935482 1_555
Br10 Nb0 2.727801 1_545
Br10 Rb2 3.439735 1_555
Br10 Rb0 3.573878 1_555
Br11 Nb4 2.698196 1_555
Br11 Nb11 2.714640 1_555
Br11 Rb3 3.909623 1_545
Br12 Nb2 2.687473 1_556
Br12 Nb8 2.690190 1_556
Br12 Rb0 3.960889 1_655
Br13 Nb10 2.698196 1_555
Br13 Nb9 2.714640 1_555
Br13 Rb5 3.909623 1_456
Br14 Nb10 2.861061 1_554
Br14 Nb5 2.861061 1_555
Br15 Nb6 2.716742 1_555
Br15 Nb3 2.719136 1_555
Br15 Rb4 3.742543 1_555
Br15 Rb1 3.935482 1_554
Br16 Nb9 2.614924 1_555
Br16 Nb7 2.615679 1_555
Br16 Rb0 3.762772 1_555
Br17 Nb1 2.761337 1_555
Br17 Rb1 3.598179 1_555
Br17 Rb3 3.696573 1_555
Br17 Rb4 3.739514 1_556
Br18 Nb10 2.623252 1_545
Br18 Nb0 2.640380 1_545
Br18 Rb0 3.747310 1_555
Br18 Rb2 3.883628 1_556
Br19 Nb10 2.687473 1_554
Br19 Nb9 2.690190 1_554
Br19 Rb5 3.960889 1_455
Br20 Nb2 2.698196 1_555
Br20 Nb8 2.714640 1_555
Br20 Rb0 3.909623 1_654
Br21 Nb5 2.698196 1_555
Br21 Nb0 2.714640 1_555
Br21 Rb2 3.909623 1_565
Br22 Nb4 2.687473 1_555
Br22 Nb11 2.690190 1_555
Br22 Rb3 3.960889 1_545
Br23 Nb7 2.716742 1_555
Br23 Nb1 2.719136 1_555
Br23 Rb1 3.742543 1_555
Br23 Rb4 3.935482 1_556
Br24 Nb7 2.599849 1_555
Br24 Nb5 2.618936 1_555
Br24 Rb4 3.873987 1_555
Br25 Nb11 2.614924 1_555
Br25 Nb3 2.615679 1_555
Br25 Rb2 3.762772 1_555
Br26 Nb7 2.761337 1_555
Br26 Rb1 3.598179 1_555
Br26 Rb0 3.696573 1_555
Br26 Rb4 3.739514 1_555
Br27 Nb1 2.599849 1_554
Br27 Nb10 2.618936 1_554
Br27 Rb4 3.873987 1_555
Br28 Nb5 2.623252 1_655
Br28 Nb9 2.640380 1_655
Br28 Rb3 3.747310 1_555
Br28 Rb5 3.883628 1_555
Br29 Nb6 2.599849 1_555
Br29 Nb4 2.618936 1_555
Br29 Rb1 3.873987 1_555
Br30 Nb9 2.727801 1_655
Br30 Rb5 3.439735 1_556
Br30 Rb3 3.573878 1_555
Br31 Nb2 2.623252 1_565
Br31 Nb11 2.640380 1_565
Br31 Rb5 3.747310 1_555
Br31 Rb3 3.883628 1_554
Br32 Nb8 2.614924 1_555
Br32 Nb6 2.615679 1_555
Br32 Rb5 3.762772 1_555
Br33 Nb11 2.727801 1_565
Br33 Rb3 3.439735 1_555
Br33 Rb5 3.573878 1_555
