# generated using pymatgen
data_KTi3Si2P6O25
_symmetry_space_group_name_H-M   'P 1'
_cell_length_a   8.40856397
_cell_length_b   8.40856397
_cell_length_c   17.31416900
_cell_angle_alpha   90.00000000
_cell_angle_beta   90.00000000
_cell_angle_gamma   119.99999977
_symmetry_Int_Tables_number   1
_chemical_formula_structural   KTi3Si2P6O25
_chemical_formula_sum   'K2 Ti6 Si4 P12 O50'
_cell_volume   1060.17107270
_cell_formula_units_Z   2
loop_
 _symmetry_equiv_pos_site_id
 _symmetry_equiv_pos_as_xyz
  1  'x, y, z'
loop_
 _atom_site_type_symbol
 _atom_site_label
 _atom_site_symmetry_multiplicity
 _atom_site_fract_x
 _atom_site_fract_y
 _atom_site_fract_z
 _atom_site_occupancy
  K  K0  1  0.33333300  0.66666700  0.25000000  1
  K  K1  1  0.66666700  0.33333300  0.75000000  1
  Ti  Ti0  1  0.33333300  0.66666700  0.02425100  1
  Ti  Ti1  1  0.33333300  0.66666700  0.47574900  1
  Ti  Ti2  1  0.66666700  0.33333300  0.97574900  1
  Ti  Ti3  1  0.66666700  0.33333300  0.52425100  1
  Ti  Ti4  1  0.66666700  0.33333300  0.25000000  1
  Ti  Ti5  1  0.33333300  0.66666700  0.75000000  1
  Si  Si0  1  0.00000000  0.00000000  0.09228600  1
  Si  Si1  1  0.00000000  0.00000000  0.40771400  1
  Si  Si2  1  0.00000000  0.00000000  0.90771400  1
  Si  Si3  1  0.00000000  0.00000000  0.59228600  1
  P  P0  1  0.38270700  0.33242400  0.10975100  1
  P  P1  1  0.66757600  0.05028300  0.10975100  1
  P  P2  1  0.94971700  0.61729300  0.10975100  1
  P  P3  1  0.66757600  0.61729300  0.39024900  1
  P  P4  1  0.94971700  0.33242400  0.39024900  1
  P  P5  1  0.38270700  0.05028300  0.39024900  1
  P  P6  1  0.61729300  0.66757600  0.89024900  1
  P  P7  1  0.33242400  0.94971700  0.89024900  1
  P  P8  1  0.05028300  0.38270700  0.89024900  1
  P  P9  1  0.33242400  0.38270700  0.60975100  1
  P  P10  1  0.05028300  0.66757600  0.60975100  1
  P  P11  1  0.61729300  0.94971700  0.60975100  1
  O  O0  1  0.12208100  0.60435800  0.09396100  1
  O  O1  1  0.39564200  0.51772200  0.09396100  1
  O  O2  1  0.48227800  0.87791900  0.09396100  1
  O  O3  1  0.39564200  0.87791900  0.40603900  1
  O  O4  1  0.48227800  0.60435800  0.40603900  1
  O  O5  1  0.12208100  0.51772200  0.40603900  1
  O  O6  1  0.87791900  0.39564200  0.90603900  1
  O  O7  1  0.60435800  0.48227800  0.90603900  1
  O  O8  1  0.51772200  0.12208100  0.90603900  1
  O  O9  1  0.60435800  0.12208100  0.59396100  1
  O  O10  1  0.51772200  0.39564200  0.59396100  1
  O  O11  1  0.87791900  0.48227800  0.59396100  1
  O  O12  1  0.81495600  0.26111200  0.45822100  1
  O  O13  1  0.73888800  0.55384400  0.45822100  1
  O  O14  1  0.44615600  0.18504400  0.45822100  1
  O  O15  1  0.73888800  0.18504400  0.04177900  1
  O  O16  1  0.44615600  0.26111200  0.04177900  1
  O  O17  1  0.81495600  0.55384400  0.04177900  1
  O  O18  1  0.18504400  0.73888800  0.54177900  1
  O  O19  1  0.26111200  0.44615600  0.54177900  1
  O  O20  1  0.55384400  0.81495600  0.54177900  1
  O  O21  1  0.26111200  0.81495600  0.95822100  1
  O  O22  1  0.55384400  0.73888800  0.95822100  1
  O  O23  1  0.18504400  0.44615600  0.95822100  1
  O  O24  1  0.47828100  0.34186500  0.18574000  1
  O  O25  1  0.65813500  0.13641600  0.18574000  1
  O  O26  1  0.86358400  0.52171900  0.18574000  1
  O  O27  1  0.65813500  0.52171900  0.31426000  1
  O  O28  1  0.86358400  0.34186500  0.31426000  1
  O  O29  1  0.47828100  0.13641600  0.31426000  1
  O  O30  1  0.52171900  0.65813500  0.81426000  1
  O  O31  1  0.34186500  0.86358400  0.81426000  1
  O  O32  1  0.13641600  0.47828100  0.81426000  1
  O  O33  1  0.34186500  0.47828100  0.68574000  1
  O  O34  1  0.13641600  0.65813500  0.68574000  1
  O  O35  1  0.52171900  0.86358400  0.68574000  1
  O  O36  1  0.00000000  0.00000000  0.00000000  1
  O  O37  1  0.00000000  0.00000000  0.50000000  1
  O  O38  1  0.01942900  0.82924300  0.12563000  1
  O  O39  1  0.17075700  0.19018600  0.12563000  1
  O  O40  1  0.80981400  0.98057100  0.12563000  1
  O  O41  1  0.17075700  0.98057100  0.37437000  1
  O  O42  1  0.80981400  0.82924300  0.37437000  1
  O  O43  1  0.01942900  0.19018600  0.37437000  1
  O  O44  1  0.98057100  0.17075700  0.87437000  1
  O  O45  1  0.82924300  0.80981400  0.87437000  1
  O  O46  1  0.19018600  0.01942900  0.87437000  1
  O  O47  1  0.82924300  0.01942900  0.62563000  1
  O  O48  1  0.19018600  0.17075700  0.62563000  1
  O  O49  1  0.98057100  0.80981400  0.62563000  1
loop_
_geom_bond_atom_site_label_1
_geom_bond_atom_site_label_2
_geom_bond_distance
_geom_bond_site_symmetry_2
K0 O3 3.130219 1_555
K0 O0 3.130219 1_555
K0 O2 3.130221 1_555
K0 O5 3.130221 1_555
K0 O4 3.130227 1_555
K0 O1 3.130227 1_555
K1 O9 3.130219 1_555
K1 O6 3.130219 1_555
K1 O8 3.130221 1_555
K1 O11 3.130221 1_555
K1 O10 3.130227 1_555
K1 O7 3.130227 1_555
O0 P2 1.531266 1_455
O0 Ti0 1.988956 1_555
O1 P0 1.531258 1_555
O1 Ti0 1.988969 1_555
O2 P1 1.531262 1_565
O2 Ti0 1.988959 1_555
O3 P5 1.531266 1_565
O3 Ti1 1.988956 1_555
O4 P3 1.531258 1_555
O4 Ti1 1.988969 1_555
O5 P4 1.531262 1_455
O5 Ti1 1.988959 1_555
O6 P8 1.531266 1_655
O6 Ti2 1.988956 1_555
O7 P6 1.531258 1_555
O7 Ti2 1.988969 1_555
O8 P7 1.531262 1_545
O8 Ti2 1.988959 1_555
O9 P11 1.531266 1_545
O9 Ti3 1.988956 1_555
O10 P9 1.531258 1_555
O10 Ti3 1.988969 1_555
O11 P10 1.531262 1_655
O11 Ti3 1.988959 1_555
O12 P4 1.532694 1_555
O12 Ti3 1.996942 1_555
O13 P3 1.532694 1_555
O13 Ti3 1.996948 1_555
O14 P5 1.532694 1_555
O14 Ti3 1.996947 1_555
O15 P1 1.532694 1_555
O15 Ti2 1.996942 1_554
O16 P0 1.532694 1_555
O16 Ti2 1.996948 1_554
O17 P2 1.532694 1_555
O17 Ti2 1.996947 1_554
O18 P10 1.532694 1_555
O18 Ti1 1.996942 1_555
O19 P9 1.532694 1_555
O19 Ti1 1.996948 1_555
O20 P11 1.532694 1_555
O20 Ti1 1.996947 1_555
O21 P7 1.532694 1_555
O21 Ti0 1.996942 1_556
O22 P6 1.532694 1_555
O22 Ti0 1.996948 1_556
O23 P8 1.532694 1_555
O23 Ti0 1.996947 1_556
O24 P0 1.522949 1_555
O24 Ti4 1.966194 1_555
O25 P1 1.522949 1_555
O25 Ti4 1.966187 1_555
O26 P2 1.522949 1_555
O26 Ti4 1.966191 1_555
O27 P3 1.522949 1_555
O27 Ti4 1.966194 1_555
O28 P4 1.522949 1_555
O28 Ti4 1.966187 1_555
O29 P5 1.522949 1_555
O29 Ti4 1.966191 1_555
O30 P6 1.522949 1_555
O30 Ti5 1.966194 1_555
O31 P7 1.522949 1_555
O31 Ti5 1.966187 1_555
O32 P8 1.522949 1_555
O32 Ti5 1.966191 1_555
O33 P9 1.522949 1_555
O33 Ti5 1.966194 1_555
O34 P10 1.522949 1_555
O34 Ti5 1.966187 1_555
O35 P11 1.522949 1_555
O35 Ti5 1.966191 1_555
O36 Si2 1.597855 1_554
O36 Si0 1.597855 1_555
O37 Si3 1.597855 1_555
O37 Si1 1.597855 1_555
O38 P2 1.597100 1_455
O38 Si0 1.629768 1_565
O39 P0 1.597100 1_555
O39 Si0 1.629768 1_555
O40 P1 1.597100 1_565
O40 Si0 1.629768 1_665
O41 P5 1.597100 1_565
O41 Si1 1.629768 1_565
O42 P3 1.597100 1_555
O42 Si1 1.629768 1_665
O43 P4 1.597100 1_455
O43 Si1 1.629768 1_555
O44 P8 1.597100 1_655
O44 Si2 1.629768 1_655
O45 P6 1.597100 1_555
O45 Si2 1.629768 1_665
O46 P7 1.597100 1_545
O46 Si2 1.629768 1_555
O47 P11 1.597100 1_545
O47 Si3 1.629768 1_655
O48 P9 1.597100 1_555
O48 Si3 1.629768 1_555
O49 P10 1.597100 1_655
O49 Si3 1.629768 1_665
