# generated using pymatgen
data_RbCuC2
_symmetry_space_group_name_H-M   'P 1'
_cell_length_a   4.93113200
_cell_length_b   4.93113200
_cell_length_c   8.49263000
_cell_angle_alpha   90.00000000
_cell_angle_beta   90.00000000
_cell_angle_gamma   90.00000000
_symmetry_Int_Tables_number   1
_chemical_formula_structural   RbCuC2
_chemical_formula_sum   'Rb2 Cu2 C4'
_cell_volume   206.50732443
_cell_formula_units_Z   2
loop_
 _symmetry_equiv_pos_site_id
 _symmetry_equiv_pos_as_xyz
  1  'x, y, z'
loop_
 _atom_site_type_symbol
 _atom_site_label
 _atom_site_symmetry_multiplicity
 _atom_site_fract_x
 _atom_site_fract_y
 _atom_site_fract_z
 _atom_site_occupancy
  Rb  Rb0  1  0.00000000  0.00000000  0.75000000  1
  Rb  Rb1  1  0.00000000  0.00000000  0.25000000  1
  Cu  Cu0  1  0.50000000  0.50000000  0.00000000  1
  Cu  Cu1  1  0.50000000  0.50000000  0.50000000  1
  C  C0  1  0.87275700  0.50000000  0.50000000  1
  C  C1  1  0.50000000  0.87275700  0.00000000  1
  C  C2  1  0.12724300  0.50000000  0.50000000  1
  C  C3  1  0.50000000  0.12724300  0.00000000  1
loop_
_geom_bond_atom_site_label_1
_geom_bond_atom_site_label_2
_geom_bond_distance
_geom_bond_site_symmetry_2
C0 C2 1.254904 1_655
C0 Cu1 1.838114 1_555
C0 Rb0 3.313685 1_655
C0 Rb1 3.313685 1_655
C0 Rb0 3.313685 1_665
C0 Rb1 3.313685 1_665
C1 C3 1.254904 1_565
C1 Cu0 1.838114 1_555
C1 Rb1 3.313685 1_565
C1 Rb0 3.313685 1_664
C1 Rb0 3.313685 1_564
C1 Rb1 3.313685 1_665
C2 Cu1 1.838114 1_555
C2 Rb1 3.313685 1_555
C2 Rb0 3.313685 1_565
C2 Rb1 3.313685 1_565
C2 Rb0 3.313685 1_555
C3 Cu0 1.838114 1_555
C3 Rb1 3.313685 1_555
C3 Rb1 3.313685 1_655
C3 Rb0 3.313685 1_654
C3 Rb0 3.313685 1_554
