# generated using pymatgen
data_Tm2TiO5
_symmetry_space_group_name_H-M   'P 1'
_cell_length_a   7.38874866
_cell_length_b   7.38874866
_cell_length_c   17.34533912
_cell_angle_alpha   88.69089860
_cell_angle_beta   88.69089860
_cell_angle_gamma   62.37055021
_symmetry_Int_Tables_number   1
_chemical_formula_structural   Tm2TiO5
_chemical_formula_sum   'Tm16 Ti8 O40'
_cell_volume   838.66089491
_cell_formula_units_Z   8
loop_
 _symmetry_equiv_pos_site_id
 _symmetry_equiv_pos_as_xyz
  1  'x, y, z'
loop_
 _atom_site_type_symbol
 _atom_site_label
 _atom_site_symmetry_multiplicity
 _atom_site_fract_x
 _atom_site_fract_y
 _atom_site_fract_z
 _atom_site_occupancy
  Tm  Tm0  1  0.99388200  0.99388200  0.99758800  1
  Tm  Tm1  1  0.50173000  0.95604400  0.98918300  1
  Tm  Tm2  1  0.95604400  0.50173000  0.98918300  1
  Tm  Tm3  1  0.32110800  0.85246000  0.16337200  1
  Tm  Tm4  1  0.84078800  0.84078800  0.16289300  1
  Tm  Tm5  1  0.17414900  0.67010700  0.32529800  1
  Tm  Tm6  1  0.67768100  0.67768100  0.34168600  1
  Tm  Tm7  1  0.00922400  0.53838800  0.50612400  1
  Tm  Tm8  1  0.85246000  0.32110800  0.16337200  1
  Tm  Tm9  1  0.85402500  0.31709600  0.67401600  1
  Tm  Tm10  1  0.50634600  0.50634600  0.50460300  1
  Tm  Tm11  1  0.67010700  0.17414900  0.32529800  1
  Tm  Tm12  1  0.67570100  0.15831500  0.84137800  1
  Tm  Tm13  1  0.53838800  0.00922400  0.50612400  1
  Tm  Tm14  1  0.15831500  0.67570100  0.84137800  1
  Tm  Tm15  1  0.31709600  0.85402500  0.67401600  1
  Ti  Ti0  1  0.47417000  0.47417000  0.00006500  1
  Ti  Ti1  1  0.33519500  0.33519500  0.17394000  1
  Ti  Ti2  1  0.19279300  0.19279300  0.33267300  1
  Ti  Ti3  1  0.16633300  0.16633300  0.82925000  1
  Ti  Ti4  1  0.33561100  0.33561100  0.67524300  1
  Ti  Ti5  1  0.01876300  0.01876300  0.49293300  1
  Ti  Ti6  1  0.82181500  0.82181500  0.67224300  1
  Ti  Ti7  1  0.64916500  0.64916500  0.81351600  1
  O  O0  1  0.36027500  0.74867700  0.03322300  1
  O  O1  1  0.83820800  0.83820800  0.28912800  1
  O  O2  1  0.74867700  0.36027500  0.03322300  1
  O  O3  1  0.21163900  0.61502000  0.18441900  1
  O  O4  1  0.34812600  0.34812600  0.29342400  1
  O  O5  1  0.91955500  0.54985100  0.11504300  1
  O  O6  1  0.34908300  0.34908300  0.56728700  1
  O  O7  1  0.03308300  0.43577400  0.38149900  1
  O  O8  1  0.61502000  0.21163900  0.18441900  1
  O  O9  1  0.34029400  0.34029400  0.05384500  1
  O  O10  1  0.43577400  0.03308300  0.38149900  1
  O  O11  1  0.76914300  0.39273400  0.28250900  1
  O  O12  1  0.54985100  0.91955500  0.11504300  1
  O  O13  1  0.90585100  0.27493700  0.54148600  1
  O  O14  1  0.18429000  0.18429000  0.21288100  1
  O  O15  1  0.02940800  0.02940800  0.87538500  1
  O  O16  1  0.63050800  0.23217600  0.44461900  1
  O  O17  1  0.97001600  0.97001600  0.67480100  1
  O  O18  1  0.58517700  0.23857400  0.71711700  1
  O  O19  1  0.39273400  0.76914300  0.28250900  1
  O  O20  1  0.04372700  0.04372700  0.38289700  1
  O  O21  1  0.00654200  0.00654200  0.12345000  1
  O  O22  1  0.27493700  0.90585100  0.54148600  1
  O  O23  1  0.41416100  0.08954000  0.87264300  1
  O  O24  1  0.23217600  0.63050800  0.44461900  1
  O  O25  1  0.23857400  0.58517700  0.71711700  1
  O  O26  1  0.55986900  0.95765300  0.63183200  1
  O  O27  1  0.80237200  0.80237200  0.78500600  1
  O  O28  1  0.87671900  0.87671900  0.52386400  1
  O  O29  1  0.68276600  0.68276600  0.92288200  1
  O  O30  1  0.36342200  0.81440200  0.80214900  1
  O  O31  1  0.95765300  0.55986900  0.63183200  1
  O  O32  1  0.08954000  0.41416100  0.87264300  1
  O  O33  1  0.67530300  0.67530300  0.46679500  1
  O  O34  1  0.61566800  0.61566800  0.69624200  1
  O  O35  1  0.06775800  0.70397200  0.96441400  1
  O  O36  1  0.81440200  0.36342200  0.80214900  1
  O  O37  1  0.46155500  0.46155500  0.89365500  1
  O  O38  1  0.70397200  0.06775800  0.96441400  1
  O  O39  1  0.18922500  0.18922500  0.71778500  1
loop_
_geom_bond_atom_site_label_1
_geom_bond_atom_site_label_2
_geom_bond_distance
_geom_bond_site_symmetry_2
O0 Ti0 1.897600 1_555
O0 Tm1 2.327841 1_554
O0 Tm3 2.368840 1_555
O0 Tm0 2.543516 1_454
O1 Tm4 2.188961 1_555
O1 Tm6 2.202438 1_555
O1 Tm5 2.296431 1_655
O1 Tm11 2.296431 1_565
O2 Ti0 1.897600 1_555
O2 Tm2 2.327841 1_554
O2 Tm8 2.368840 1_555
O2 Tm0 2.543516 1_544
O3 Ti1 1.843954 1_555
O3 Tm3 2.266880 1_555
O3 Tm5 2.474570 1_555
O3 Tm4 2.491815 1_455
O4 Ti2 2.061148 1_555
O4 Ti1 2.083275 1_555
O4 Tm5 2.192958 1_555
O4 Tm11 2.192958 1_555
O5 Tm8 2.120946 1_555
O5 Tm4 2.132529 1_555
O5 Tm2 2.210119 1_554
O6 Ti4 1.875728 1_555
O6 Tm10 2.240401 1_555
O6 Tm13 2.486743 1_555
O6 Tm7 2.486743 1_555
O7 Ti2 1.841681 1_555
O7 Tm7 2.283029 1_555
O7 Tm6 2.498098 1_455
O7 Tm5 2.566088 1_555
O8 Ti1 1.843954 1_555
O8 Tm8 2.266880 1_555
O8 Tm11 2.474570 1_555
O8 Tm4 2.491815 1_545
O9 Ti0 1.910582 1_555
O9 Ti1 2.082364 1_555
O9 Tm1 2.772135 1_544
O9 Tm2 2.772135 1_454
O10 Ti2 1.841681 1_555
O10 Tm13 2.283029 1_555
O10 Tm6 2.498098 1_545
O10 Tm11 2.566088 1_555
O11 Tm8 2.149192 1_555
O11 Tm6 2.165730 1_555
O11 Tm11 2.170558 1_555
O12 Tm3 2.120946 1_555
O12 Tm4 2.132529 1_555
O12 Tm1 2.210119 1_554
O13 Ti5 1.887874 1_655
O13 Tm9 2.325921 1_555
O13 Tm7 2.460038 1_655
O13 Tm10 2.720519 1_555
O14 Ti1 2.006724 1_555
O14 Ti2 2.083477 1_555
O14 Tm3 2.351260 1_545
O14 Tm8 2.351260 1_455
O15 Ti3 1.887541 1_555
O15 Tm0 2.154946 1_445
O15 Tm12 2.412731 1_455
O15 Tm14 2.412731 1_545
O16 Tm10 2.087314 1_555
O16 Tm11 2.109375 1_555
O16 Tm13 2.289457 1_555
O17 Ti6 1.875283 1_555
O17 Tm15 2.296021 1_655
O17 Tm9 2.296021 1_565
O18 Ti4 1.803612 1_555
O18 Tm12 2.254806 1_555
O18 Tm9 2.413042 1_555
O19 Tm3 2.149192 1_555
O19 Tm6 2.165730 1_555
O19 Tm5 2.170558 1_555
O20 Ti5 1.926195 1_555
O20 Ti2 2.054896 1_555
O20 Tm11 2.676237 1_455
O20 Tm5 2.676237 1_545
O21 Tm3 2.181975 1_545
O21 Tm8 2.181975 1_455
O21 Tm4 2.186900 1_445
O21 Tm0 2.193237 1_444
O22 Ti5 1.887874 1_565
O22 Tm15 2.325921 1_555
O22 Tm13 2.460038 1_565
O22 Tm10 2.720519 1_555
O23 Ti3 1.822447 1_555
O23 Tm1 2.203281 1_545
O23 Tm12 2.266501 1_555
O24 Tm10 2.087314 1_555
O24 Tm5 2.109375 1_555
O24 Tm7 2.289457 1_555
O25 Ti4 1.803612 1_555
O25 Tm14 2.254806 1_555
O25 Tm15 2.413042 1_555
O26 Ti6 1.863537 1_555
O26 Tm13 2.201476 1_565
O26 Tm15 2.351096 1_555
O26 Ti4 2.618889 1_565
O27 Ti6 1.964773 1_555
O27 Ti7 1.986156 1_555
O27 Tm14 2.557628 1_655
O27 Tm12 2.557628 1_565
O28 Ti5 1.860390 1_665
O28 Tm7 2.248062 1_655
O28 Tm13 2.248062 1_565
O28 Ti6 2.647681 1_555
O29 Ti7 1.955008 1_555
O29 Tm1 2.172461 1_555
O29 Tm2 2.172461 1_555
O30 Ti7 1.898477 1_555
O30 Tm15 2.248224 1_555
O30 Tm14 2.274092 1_555
O30 Ti3 2.369750 1_565
O31 Ti6 1.863537 1_555
O31 Tm7 2.201476 1_655
O31 Tm9 2.351096 1_555
O31 Ti4 2.618889 1_655
O32 Ti3 1.822447 1_555
O32 Tm2 2.203281 1_455
O32 Tm14 2.266501 1_555
O33 Tm6 2.169463 1_555
O33 Tm10 2.217573 1_555
O33 Tm7 2.303582 1_655
O33 Tm13 2.303582 1_565
O34 Ti7 2.088811 1_555
O34 Tm9 2.126341 1_555
O34 Tm15 2.126341 1_555
O35 Tm0 2.043284 1_455
O35 Tm2 2.048750 1_455
O35 Tm14 2.207082 1_555
O36 Ti7 1.898477 1_555
O36 Tm9 2.248224 1_555
O36 Tm12 2.274092 1_555
O36 Ti3 2.369750 1_655
O37 Ti0 1.856833 1_556
O37 Tm12 2.255003 1_555
O37 Tm14 2.255003 1_555
O38 Tm0 2.043284 1_545
O38 Tm1 2.048750 1_545
O38 Tm12 2.207082 1_555
O39 Ti3 1.947280 1_555
O39 Ti4 1.973928 1_555
O39 Tm15 2.342197 1_545
O39 Tm9 2.342197 1_455
