# generated using pymatgen
data_TiTlPO5
_symmetry_space_group_name_H-M   'P 1'
_cell_length_a   6.57824400
_cell_length_b   10.64558400
_cell_length_c   13.10809400
_cell_angle_alpha   90.00000000
_cell_angle_beta   90.00000000
_cell_angle_gamma   90.00000000
_symmetry_Int_Tables_number   1
_chemical_formula_structural   TiTlPO5
_chemical_formula_sum   'Ti8 Tl8 P8 O40'
_cell_volume   917.94997962
_cell_formula_units_Z   8
loop_
 _symmetry_equiv_pos_site_id
 _symmetry_equiv_pos_as_xyz
  1  'x, y, z'
loop_
 _atom_site_type_symbol
 _atom_site_label
 _atom_site_symmetry_multiplicity
 _atom_site_fract_x
 _atom_site_fract_y
 _atom_site_fract_z
 _atom_site_occupancy
  Ti  Ti0  1  0.25000000  0.75000000  0.11943400  1
  Ti  Ti1  1  0.75000000  0.75000000  0.61943400  1
  Ti  Ti2  1  0.75000000  0.25000000  0.88056600  1
  Ti  Ti3  1  0.50000000  0.50000000  0.00000000  1
  Ti  Ti4  1  0.25000000  0.25000000  0.38056600  1
  Ti  Ti5  1  0.00000000  0.00000000  0.50000000  1
  Ti  Ti6  1  0.50000000  0.50000000  0.50000000  1
  Ti  Ti7  1  0.00000000  0.00000000  0.00000000  1
  Tl  Tl0  1  0.04725300  0.36534700  0.64361900  1
  Tl  Tl1  1  0.95274700  0.36534700  0.14361900  1
  Tl  Tl2  1  0.95274700  0.63465300  0.35638100  1
  Tl  Tl3  1  0.45274700  0.86534700  0.85638100  1
  Tl  Tl4  1  0.45274700  0.13465300  0.64361900  1
  Tl  Tl5  1  0.04725300  0.63465300  0.85638100  1
  Tl  Tl6  1  0.54725300  0.13465300  0.14361900  1
  Tl  Tl7  1  0.54725300  0.86534700  0.35638100  1
  P  P0  1  0.58483000  0.50000000  0.75000000  1
  P  P1  1  0.41517000  0.50000000  0.25000000  1
  P  P2  1  0.08483000  0.00000000  0.25000000  1
  P  P3  1  0.75000000  0.75000000  0.06963500  1
  P  P4  1  0.91517000  0.00000000  0.75000000  1
  P  P5  1  0.75000000  0.25000000  0.43036500  1
  P  P6  1  0.25000000  0.75000000  0.56963500  1
  P  P7  1  0.25000000  0.25000000  0.93036500  1
  O  O0  1  0.45035200  0.48028300  0.65334600  1
  O  O1  1  0.70857000  0.63548100  0.99799200  1
  O  O2  1  0.20857000  0.86451900  0.49799200  1
  O  O3  1  0.72043500  0.61797000  0.73589000  1
  O  O4  1  0.29143000  0.36451900  0.00200800  1
  O  O5  1  0.95035200  0.98028300  0.34665400  1
  O  O6  1  0.56011600  0.22121300  0.36464300  1
  O  O7  1  0.06011600  0.27878700  0.86464300  1
  O  O8  1  0.77956500  0.88203000  0.73589000  1
  O  O9  1  0.93988400  0.27878700  0.36464300  1
  O  O10  1  0.79690200  0.87674800  0.52776300  1
  O  O11  1  0.54964800  0.48028300  0.15334600  1
  O  O12  1  0.93988400  0.72121300  0.13535700  1
  O  O13  1  0.70309800  0.62325200  0.52776300  1
  O  O14  1  0.22043500  0.88203000  0.23589000  1
  O  O15  1  0.27956500  0.61797000  0.23589000  1
  O  O16  1  0.56011600  0.77878700  0.13535700  1
  O  O17  1  0.70309800  0.37674800  0.97223700  1
  O  O18  1  0.20309800  0.12325200  0.47223700  1
  O  O19  1  0.04964800  0.01971700  0.65334600  1
  O  O20  1  0.79690200  0.12325200  0.97223700  1
  O  O21  1  0.20857000  0.13548100  0.00200800  1
  O  O22  1  0.79143000  0.13548100  0.50200800  1
  O  O23  1  0.04964800  0.98028300  0.84665400  1
  O  O24  1  0.70857000  0.36451900  0.50200800  1
  O  O25  1  0.43988400  0.22121300  0.86464300  1
  O  O26  1  0.79143000  0.86451900  0.99799200  1
  O  O27  1  0.45035200  0.51971700  0.84665400  1
  O  O28  1  0.29690200  0.62325200  0.02776300  1
  O  O29  1  0.06011600  0.72121300  0.63535700  1
  O  O30  1  0.72043500  0.38203000  0.76411000  1
  O  O31  1  0.22043500  0.11797000  0.26411000  1
  O  O32  1  0.43988400  0.77878700  0.63535700  1
  O  O33  1  0.54964800  0.51971700  0.34665400  1
  O  O34  1  0.77956500  0.11797000  0.76411000  1
  O  O35  1  0.20309800  0.87674800  0.02776300  1
  O  O36  1  0.27956500  0.38203000  0.26411000  1
  O  O37  1  0.95035200  0.01971700  0.15334600  1
  O  O38  1  0.29143000  0.63548100  0.49799200  1
  O  O39  1  0.29690200  0.37674800  0.47223700  1
loop_
_geom_bond_atom_site_label_1
_geom_bond_atom_site_label_2
_geom_bond_distance
_geom_bond_site_symmetry_2
O0 P0 1.559419 1_555
O0 Ti6 2.047222 1_555
O1 P3 1.562834 1_556
O1 Ti3 1.990804 1_556
O2 P6 1.562834 1_555
O2 Ti5 1.990804 1_565
O3 P0 1.551493 1_555
O3 Ti1 2.084133 1_555
O3 Tl5 2.673591 1_655
O4 P7 1.562834 1_554
O4 Ti3 1.990804 1_555
O5 P2 1.559419 1_665
O5 Ti5 2.047222 1_665
O6 P5 1.548011 1_555
O6 Ti4 2.073440 1_555
O7 P7 1.548011 1_555
O7 Ti2 2.073440 1_455
O8 P4 1.551493 1_565
O8 Ti1 2.084133 1_555
O8 Tl3 2.673591 1_555
O9 P5 1.548011 1_555
O9 Ti4 2.073440 1_655
O10 Ti1 1.832959 1_555
O10 Ti5 1.907613 1_665
O10 Tl7 2.785399 1_555
O11 P1 1.559419 1_555
O11 Ti3 2.047222 1_555
O12 P3 1.548011 1_555
O12 Ti0 2.073440 1_655
O13 Ti1 1.832959 1_555
O13 Ti6 1.907613 1_555
O13 Tl2 2.785399 1_555
O14 P2 1.551493 1_565
O14 Ti0 2.084133 1_555
O14 Tl7 2.673591 1_555
O15 P1 1.551493 1_555
O15 Ti0 2.084133 1_555
O15 Tl2 2.673591 1_455
O16 P3 1.548011 1_555
O16 Ti0 2.073440 1_555
O17 Ti2 1.832959 1_555
O17 Ti3 1.907613 1_556
O17 Tl1 2.785399 1_556
O18 Ti4 1.832959 1_555
O18 Ti5 1.907613 1_555
O18 Tl4 2.785399 1_555
O19 P4 1.559419 1_455
O19 Ti5 2.047222 1_555
O20 Ti2 1.832959 1_555
O20 Ti7 1.907613 1_656
O20 Tl6 2.785399 1_556
O21 P7 1.562834 1_554
O21 Ti7 1.990804 1_555
O22 P5 1.562834 1_555
O22 Ti5 1.990804 1_655
O23 P4 1.559419 1_465
O23 Ti7 2.047222 1_566
O24 P5 1.562834 1_555
O24 Ti6 1.990804 1_555
O25 P7 1.548011 1_555
O25 Ti2 2.073440 1_555
O26 P3 1.562834 1_556
O26 Ti7 1.990804 1_666
O27 P0 1.559419 1_555
O27 Ti3 2.047222 1_556
O28 Ti0 1.832959 1_555
O28 Ti3 1.907613 1_555
O28 Tl5 2.785399 1_554
O29 P6 1.548011 1_555
O29 Ti1 2.073440 1_455
O30 P0 1.551493 1_555
O30 Ti2 2.084133 1_555
O30 Tl0 2.673591 1_655
O31 P2 1.551493 1_555
O31 Ti4 2.084133 1_555
O31 Tl6 2.673591 1_555
O32 P6 1.548011 1_555
O32 Ti1 2.073440 1_555
O33 P1 1.559419 1_555
O33 Ti6 2.047222 1_555
O34 P4 1.551493 1_555
O34 Ti2 2.084133 1_555
O34 Tl4 2.673591 1_555
O35 Ti0 1.832959 1_555
O35 Ti7 1.907613 1_565
O35 Tl3 2.785399 1_554
O36 P1 1.551493 1_555
O36 Ti4 2.084133 1_555
O36 Tl1 2.673591 1_455
O37 P2 1.559419 1_655
O37 Ti7 2.047222 1_655
O38 P6 1.562834 1_555
O38 Ti6 1.990804 1_555
O39 Ti4 1.832959 1_555
O39 Ti6 1.907613 1_555
O39 Tl0 2.785399 1_555
