# generated using pymatgen
data_TiNi
_symmetry_space_group_name_H-M   'P 1'
_cell_length_a   7.24654160
_cell_length_b   7.24654160
_cell_length_c   5.39742000
_cell_angle_alpha   90.00000000
_cell_angle_beta   90.00000000
_cell_angle_gamma   119.99999635
_symmetry_Int_Tables_number   1
_chemical_formula_structural   TiNi
_chemical_formula_sum   'Ti9 Ni9'
_cell_volume   245.45870638
_cell_formula_units_Z   9
loop_
 _symmetry_equiv_pos_site_id
 _symmetry_equiv_pos_as_xyz
  1  'x, y, z'
loop_
 _atom_site_type_symbol
 _atom_site_label
 _atom_site_symmetry_multiplicity
 _atom_site_fract_x
 _atom_site_fract_y
 _atom_site_fract_z
 _atom_site_occupancy
  Ti  Ti0  1  0.66666700  0.33333300  0.01809300  1
  Ti  Ti1  1  0.00000000  0.00000000  0.93574200  1
  Ti  Ti2  1  0.33333300  0.66666700  0.01809300  1
  Ti  Ti3  1  0.00000000  0.68523100  0.63548100  1
  Ti  Ti4  1  0.31476900  0.31476900  0.63548100  1
  Ti  Ti5  1  0.68523100  0.00000000  0.63548100  1
  Ti  Ti6  1  0.34573400  0.00000000  0.33304500  1
  Ti  Ti7  1  0.00000000  0.34573400  0.33304500  1
  Ti  Ti8  1  0.65426600  0.65426600  0.33304500  1
  Ni  Ni0  1  0.66666700  0.33333300  0.55801000  1
  Ni  Ni1  1  0.00000000  0.00000000  0.38444200  1
  Ni  Ni2  1  0.33333300  0.66666700  0.55801000  1
  Ni  Ni3  1  0.00000000  0.68781000  0.11916400  1
  Ni  Ni4  1  0.31219000  0.31219000  0.11916400  1
  Ni  Ni5  1  0.68781000  0.00000000  0.11916400  1
  Ni  Ni6  1  0.35958000  0.00000000  0.84063800  1
  Ni  Ni7  1  0.00000000  0.35958000  0.84063800  1
  Ni  Ni8  1  0.64042000  0.64042000  0.84063800  1
loop_
_geom_bond_atom_site_label_1
_geom_bond_atom_site_label_2
_geom_bond_distance
_geom_bond_site_symmetry_2
Ni0 Ti0 2.483261 1_556
Ni0 Ti5 2.520433 1_555
Ni0 Ti3 2.520437 1_655
Ni0 Ti4 2.520440 1_555
Ni0 Ti7 2.664594 1_655
Ni0 Ti6 2.664597 1_555
Ni0 Ti8 2.664600 1_555
Ni0 Ti0 2.914159 1_555
Ni1 Ti1 2.421822 1_554
Ni1 Ti7 2.520687 1_555
Ni1 Ti6 2.520687 1_555
Ni1 Ti8 2.520688 1_445
Ni1 Ti3 2.653078 1_545
Ni1 Ti5 2.653078 1_455
Ni1 Ti4 2.653078 1_555
Ni1 Ni5 2.677329 1_455
Ni1 Ni3 2.677329 1_545
Ni1 Ni4 2.677329 1_555
Ni1 Ti1 2.975598 1_555
Ni2 Ti2 2.483261 1_556
Ni2 Ti3 2.520433 1_555
Ni2 Ti5 2.520437 1_565
Ni2 Ti4 2.520440 1_555
Ni2 Ti6 2.664594 1_565
Ni2 Ti7 2.664597 1_555
Ni2 Ti8 2.664600 1_555
Ni2 Ti2 2.914159 1_555
Ni3 Ti1 2.469434 1_564
Ni3 Ti2 2.554575 1_555
Ni3 Ti0 2.554579 1_455
Ni3 Ti3 2.610707 1_554
Ni3 Ti8 2.656999 1_455
Ni3 Ti6 2.656999 1_565
Ni3 Ti7 2.734491 1_555
Ni3 Ti3 2.786842 1_555
Ni4 Ti1 2.469434 1_554
Ni4 Ti2 2.554582 1_555
Ni4 Ti0 2.554582 1_555
Ni4 Ti4 2.610707 1_554
Ni4 Ti7 2.656999 1_555
Ni4 Ti6 2.656999 1_555
Ni4 Ti8 2.734491 1_555
Ni4 Ti4 2.786842 1_555
Ni5 Ti1 2.469434 1_654
Ni5 Ti0 2.554575 1_555
Ni5 Ti2 2.554579 1_545
Ni5 Ti5 2.610707 1_554
Ni5 Ti8 2.656999 1_545
Ni5 Ti7 2.656999 1_655
Ni5 Ti6 2.734491 1_555
Ni5 Ti5 2.786842 1_555
Ni6 Ti2 2.515715 1_546
Ni6 Ti0 2.515718 1_556
Ni6 Ti5 2.606725 1_555
Ni6 Ti1 2.655791 1_555
Ni6 Ti6 2.659621 1_556
Ni6 Ti4 2.697257 1_555
Ni6 Ti3 2.697257 1_545
Ni6 Ti6 2.741529 1_555
Ni7 Ti0 2.515715 1_456
Ni7 Ti2 2.515718 1_556
Ni7 Ti3 2.606725 1_555
Ni7 Ti1 2.655791 1_555
Ni7 Ti7 2.659621 1_556
Ni7 Ti4 2.697257 1_555
Ni7 Ti5 2.697257 1_455
Ni7 Ti7 2.741529 1_555
Ni8 Ti2 2.515721 1_556
Ni8 Ti0 2.515721 1_556
Ni8 Ti4 2.606725 1_555
Ni8 Ti1 2.655791 1_665
Ni8 Ti8 2.659621 1_556
Ni8 Ti5 2.697257 1_565
Ni8 Ti3 2.697257 1_655
Ni8 Ti8 2.741529 1_555
