# generated using pymatgen
data_CsAuSe
_symmetry_space_group_name_H-M   'P 1'
_cell_length_a   5.64503269
_cell_length_b   5.64503160
_cell_length_c   7.07020852
_cell_angle_alpha   90.00000000
_cell_angle_beta   90.00000000
_cell_angle_gamma   100.27689435
_symmetry_Int_Tables_number   1
_chemical_formula_structural   CsAuSe
_chemical_formula_sum   'Cs2 Au2 Se2'
_cell_volume   221.68750155
_cell_formula_units_Z   2
loop_
 _symmetry_equiv_pos_site_id
 _symmetry_equiv_pos_as_xyz
  1  'x, y, z'
loop_
 _atom_site_type_symbol
 _atom_site_label
 _atom_site_symmetry_multiplicity
 _atom_site_fract_x
 _atom_site_fract_y
 _atom_site_fract_z
 _atom_site_occupancy
  Cs  Cs0  1  0.63164212  0.36835788  0.25000000  1
  Cs  Cs1  1  0.36835788  0.63164212  0.75000000  1
  Au  Au0  1  -0.00000000  -0.00000000  0.00000000  1
  Au  Au1  1  -0.00000000  -0.00000000  0.50000000  1
  Se  Se0  1  0.19357695  0.80642305  0.25000000  1
  Se  Se1  1  0.80642305  0.19357695  0.75000000  1
loop_
_geom_bond_atom_site_label_1
_geom_bond_atom_site_label_2
_geom_bond_distance
_geom_bond_site_symmetry_2
Cs0 Se0 3.657692 1_545
Cs0 Se0 3.657693 1_655
Cs0 Se0 3.796361 1_555
Cs0 Se1 3.845938 1_554
Cs0 Se1 3.845938 1_555
Cs1 Se1 3.657692 1_565
Cs1 Se1 3.657693 1_455
Cs1 Se1 3.796361 1_555
Cs1 Se0 3.845938 1_555
Cs1 Se0 3.845938 1_556
Au0 Se1 2.436905 1_454
Au0 Se0 2.436905 1_545
Au0 Cs1 3.648943 1_544
Au0 Cs0 3.648943 1_455
Au0 Cs1 4.185257 1_554
Au0 Cs0 4.185257 1_445
Au0 Cs1 4.185257 1_444
Au0 Cs0 4.185257 1_555
Au1 Se1 2.436905 1_455
Au1 Se0 2.436905 1_545
Au1 Cs1 3.648943 1_545
Au1 Cs0 3.648943 1_455
Au1 Cs1 4.185257 1_555
Au1 Cs0 4.185257 1_445
Au1 Cs0 4.185257 1_555
Au1 Cs1 4.185257 1_445
