# generated using pymatgen
data_LiGe2(PO4)3
_symmetry_space_group_name_H-M   'P 1'
_cell_length_a   8.43970295
_cell_length_b   8.43970295
_cell_length_c   8.43970314
_cell_angle_alpha   59.60515016
_cell_angle_beta   59.60515016
_cell_angle_gamma   59.60515402
_symmetry_Int_Tables_number   1
_chemical_formula_structural   LiGe2(PO4)3
_chemical_formula_sum   'Li2 Ge4 P6 O24'
_cell_volume   421.26121021
_cell_formula_units_Z   2
loop_
 _symmetry_equiv_pos_site_id
 _symmetry_equiv_pos_as_xyz
  1  'x, y, z'
loop_
 _atom_site_type_symbol
 _atom_site_label
 _atom_site_symmetry_multiplicity
 _atom_site_fract_x
 _atom_site_fract_y
 _atom_site_fract_z
 _atom_site_occupancy
  Li  Li0  1  0.50000000  0.50000000  0.50000000  1
  Li  Li1  1  0.00000000  0.00000000  0.00000000  1
  Ge  Ge0  1  0.64107100  0.64107100  0.64107100  1
  Ge  Ge1  1  0.85892900  0.85892900  0.85892900  1
  Ge  Ge2  1  0.35892900  0.35892900  0.35892900  1
  Ge  Ge3  1  0.14107100  0.14107100  0.14107100  1
  P  P0  1  0.46184500  0.03815500  0.75000000  1
  P  P1  1  0.03815500  0.75000000  0.46184500  1
  P  P2  1  0.75000000  0.46184500  0.03815500  1
  P  P3  1  0.53815500  0.96184500  0.25000000  1
  P  P4  1  0.96184500  0.25000000  0.53815500  1
  P  P5  1  0.25000000  0.53815500  0.96184500  1
  O  O0  1  0.49175100  0.86957500  0.70319000  1
  O  O1  1  0.86957500  0.70319000  0.49175100  1
  O  O2  1  0.70319000  0.49175100  0.86957500  1
  O  O3  1  0.63042500  0.00824900  0.79681000  1
  O  O4  1  0.00824900  0.79681000  0.63042500  1
  O  O5  1  0.79681000  0.63042500  0.00824900  1
  O  O6  1  0.50824900  0.13042500  0.29681000  1
  O  O7  1  0.13042500  0.29681000  0.50824900  1
  O  O8  1  0.29681000  0.50824900  0.13042500  1
  O  O9  1  0.36957500  0.99175100  0.20319000  1
  O  O10  1  0.99175100  0.20319000  0.36957500  1
  O  O11  1  0.20319000  0.36957500  0.99175100  1
  O  O12  1  0.55628200  0.76629300  0.42248400  1
  O  O13  1  0.76629300  0.42248400  0.55628200  1
  O  O14  1  0.42248400  0.55628200  0.76629300  1
  O  O15  1  0.73370700  0.94371800  0.07751600  1
  O  O16  1  0.94371800  0.07751600  0.73370700  1
  O  O17  1  0.07751600  0.73370700  0.94371800  1
  O  O18  1  0.44371800  0.23370700  0.57751600  1
  O  O19  1  0.23370700  0.57751600  0.44371800  1
  O  O20  1  0.57751600  0.44371800  0.23370700  1
  O  O21  1  0.26629300  0.05628200  0.92248400  1
  O  O22  1  0.05628200  0.92248400  0.26629300  1
  O  O23  1  0.92248400  0.26629300  0.05628200  1
loop_
_geom_bond_atom_site_label_1
_geom_bond_atom_site_label_2
_geom_bond_distance
_geom_bond_site_symmetry_2
Li0 O12 2.232167 1_555
Li0 O18 2.232167 1_555
Li0 O13 2.232167 1_555
Li0 O19 2.232167 1_555
Li0 O14 2.232167 1_555
Li0 O20 2.232167 1_555
Li1 O21 2.232167 1_554
Li1 O15 2.232167 1_445
Li1 O23 2.232167 1_455
Li1 O17 2.232167 1_544
Li1 O22 2.232167 1_545
Li1 O16 2.232167 1_454
Ge0 O1 1.864775 1_555
Ge0 O2 1.864775 1_555
Ge0 O0 1.864775 1_555
Ge0 O14 1.905255 1_555
Ge0 O12 1.905255 1_555
Ge0 O13 1.905255 1_555
Ge1 O5 1.864775 1_556
Ge1 O4 1.864775 1_655
Ge1 O3 1.864775 1_565
Ge1 O16 1.905255 1_565
Ge1 O15 1.905255 1_556
Ge1 O17 1.905255 1_655
Ge2 O7 1.864775 1_555
Ge2 O8 1.864775 1_555
Ge2 O6 1.864775 1_555
Ge2 O20 1.905255 1_555
Ge2 O18 1.905255 1_555
Ge2 O19 1.905255 1_555
Ge3 O11 1.864775 1_554
Ge3 O10 1.864775 1_455
Ge3 O9 1.864775 1_545
Ge3 O22 1.905255 1_545
Ge3 O21 1.905255 1_554
Ge3 O23 1.905255 1_455
O0 P0 1.532493 1_565
O1 P1 1.532493 1_655
O2 P2 1.532493 1_556
O3 P0 1.532493 1_555
O4 P1 1.532493 1_555
O5 P2 1.532493 1_555
O6 P3 1.532493 1_545
O7 P4 1.532493 1_455
O8 P5 1.532493 1_554
O9 P3 1.532493 1_555
O10 P4 1.532493 1_555
O11 P5 1.532493 1_555
O12 P3 1.550826 1_555
O13 P4 1.550826 1_555
O14 P5 1.550826 1_555
O15 P3 1.550826 1_555
O16 P4 1.550826 1_555
O17 P5 1.550826 1_555
O18 P0 1.550826 1_555
O19 P1 1.550826 1_555
O20 P2 1.550826 1_555
O21 P0 1.550826 1_555
O22 P1 1.550826 1_555
O23 P2 1.550826 1_555
