# generated using pymatgen
data_K3LuSi2O7
_symmetry_space_group_name_H-M   'P 1'
_cell_length_a   5.76515552
_cell_length_b   5.76515552
_cell_length_c   14.06423000
_cell_angle_alpha   90.00000000
_cell_angle_beta   90.00000000
_cell_angle_gamma   119.99999451
_symmetry_Int_Tables_number   1
_chemical_formula_structural   K3LuSi2O7
_chemical_formula_sum   'K6 Lu2 Si4 O14'
_cell_volume   404.82625460
_cell_formula_units_Z   2
loop_
 _symmetry_equiv_pos_site_id
 _symmetry_equiv_pos_as_xyz
  1  'x, y, z'
loop_
 _atom_site_type_symbol
 _atom_site_label
 _atom_site_symmetry_multiplicity
 _atom_site_fract_x
 _atom_site_fract_y
 _atom_site_fract_z
 _atom_site_occupancy
  K  K0  1  0.66666700  0.33333300  0.90837800  1
  K  K1  1  0.33333300  0.66666700  0.09162200  1
  K  K2  1  0.66666700  0.33333300  0.59162200  1
  K  K3  1  0.33333300  0.66666700  0.40837800  1
  K  K4  1  0.00000000  0.00000000  0.75000000  1
  K  K5  1  0.00000000  0.00000000  0.25000000  1
  Lu  Lu0  1  0.00000000  0.00000000  0.00000000  1
  Lu  Lu1  1  0.00000000  0.00000000  0.50000000  1
  Si  Si0  1  0.66666700  0.33333300  0.36874700  1
  Si  Si1  1  0.66666700  0.33333300  0.13125300  1
  Si  Si2  1  0.33333300  0.66666700  0.86874700  1
  Si  Si3  1  0.33333300  0.66666700  0.63125300  1
  O  O0  1  0.17745900  0.35491900  0.59476800  1
  O  O1  1  0.82254100  0.17745900  0.09476800  1
  O  O2  1  0.64508100  0.82254100  0.90523200  1
  O  O3  1  0.82254100  0.64508100  0.09476800  1
  O  O4  1  0.17745900  0.82254100  0.90523200  1
  O  O5  1  0.82254100  0.64508100  0.40523200  1
  O  O6  1  0.82254100  0.17745900  0.40523200  1
  O  O7  1  0.17745900  0.82254100  0.59476800  1
  O  O8  1  0.64508100  0.82254100  0.59476800  1
  O  O9  1  0.35491900  0.17745900  0.09476800  1
  O  O10  1  0.66666700  0.33333300  0.25000000  1
  O  O11  1  0.17745900  0.35491900  0.90523200  1
  O  O12  1  0.35491900  0.17745900  0.40523200  1
  O  O13  1  0.33333300  0.66666700  0.75000000  1
loop_
_geom_bond_atom_site_label_1
_geom_bond_atom_site_label_2
_geom_bond_distance
_geom_bond_site_symmetry_2
K0 O11 2.884925 1_655
K0 O2 2.884925 1_545
K0 O4 2.884931 1_545
K0 O4 2.884931 1_655
K0 O2 2.884937 1_555
K0 O11 2.884937 1_555
K0 O1 3.048697 1_556
K0 O9 3.048697 1_556
K0 O3 3.048697 1_556
K1 O9 2.884925 1_565
K1 O3 2.884925 1_455
K1 O1 2.884931 1_565
K1 O1 2.884931 1_455
K1 O9 2.884937 1_555
K1 O3 2.884937 1_555
K1 O4 3.048697 1_554
K1 O11 3.048697 1_554
K1 O2 3.048697 1_554
K2 O8 2.884925 1_545
K2 O0 2.884925 1_655
K2 O7 2.884931 1_545
K2 O7 2.884931 1_655
K2 O8 2.884937 1_555
K2 O0 2.884937 1_555
K2 O6 3.048697 1_555
K2 O5 3.048697 1_555
K2 O12 3.048697 1_555
K3 O5 2.884925 1_455
K3 O12 2.884925 1_565
K3 O6 2.884931 1_565
K3 O6 2.884931 1_455
K3 O12 2.884937 1_555
K3 O5 2.884937 1_555
K3 O7 3.048697 1_555
K3 O8 3.048697 1_555
K3 O0 3.048697 1_555
K4 O4 2.811852 1_545
K4 O7 2.811852 1_545
K4 O2 2.811856 1_445
K4 O11 2.811856 1_555
K4 O8 2.811856 1_445
K4 O0 2.811856 1_555
K5 O6 2.811852 1_455
K5 O1 2.811852 1_455
K5 O12 2.811856 1_555
K5 O5 2.811856 1_445
K5 O9 2.811856 1_555
K5 O3 2.811856 1_445
Lu0 O1 2.217325 1_455
Lu0 O4 2.217325 1_544
Lu0 O9 2.217329 1_555
Lu0 O3 2.217329 1_445
Lu0 O2 2.217329 1_444
Lu0 O11 2.217329 1_554
Lu1 O7 2.217325 1_545
Lu1 O6 2.217325 1_455
Lu1 O8 2.217329 1_445
Lu1 O0 2.217329 1_555
Lu1 O12 2.217329 1_555
Lu1 O5 2.217329 1_445
O0 Si3 1.638889 1_555
O1 Si1 1.638889 1_555
O2 Si2 1.638889 1_555
O3 Si1 1.638889 1_555
O4 Si2 1.638889 1_555
O5 Si0 1.638889 1_555
O6 Si0 1.638889 1_555
O7 Si3 1.638889 1_555
O8 Si3 1.638889 1_555
O9 Si1 1.638889 1_555
O10 Si0 1.670085 1_555
O10 Si1 1.670085 1_555
O11 Si2 1.638889 1_555
O12 Si0 1.638889 1_555
O13 Si2 1.670085 1_555
O13 Si3 1.670085 1_555
