# generated using pymatgen
data_Ni3B7IO13
_symmetry_space_group_name_H-M   'P 1'
_cell_length_a   8.59676666
_cell_length_b   8.59676666
_cell_length_c   8.59676666
_cell_angle_alpha   60.00000000
_cell_angle_beta   60.00000000
_cell_angle_gamma   60.00000000
_symmetry_Int_Tables_number   1
_chemical_formula_structural   Ni3B7IO13
_chemical_formula_sum   'Ni6 B14 I2 O26'
_cell_volume   449.25241323
_cell_formula_units_Z   2
loop_
 _symmetry_equiv_pos_site_id
 _symmetry_equiv_pos_as_xyz
  1  'x, y, z'
loop_
 _atom_site_type_symbol
 _atom_site_label
 _atom_site_symmetry_multiplicity
 _atom_site_fract_x
 _atom_site_fract_y
 _atom_site_fract_z
 _atom_site_occupancy
  Ni  Ni0  1  0.50000000  0.00000000  0.00000000  1
  Ni  Ni1  1  0.00000000  0.50000000  0.00000000  1
  Ni  Ni2  1  0.50000000  0.00000000  0.50000000  1
  Ni  Ni3  1  0.50000000  0.50000000  0.00000000  1
  Ni  Ni4  1  0.00000000  0.00000000  0.50000000  1
  Ni  Ni5  1  0.00000000  0.50000000  0.50000000  1
  B  B0  1  0.25000000  0.75000000  0.25000000  1
  B  B1  1  0.25000000  0.75000000  0.75000000  1
  B  B2  1  0.75000000  0.25000000  0.25000000  1
  B  B3  1  0.75000000  0.75000000  0.25000000  1
  B  B4  1  0.25000000  0.25000000  0.75000000  1
  B  B5  1  0.75000000  0.25000000  0.75000000  1
  B  B6  1  0.08027000  0.08027000  0.08027000  1
  B  B7  1  0.25918900  0.58027000  0.58027000  1
  B  B8  1  0.58027000  0.25918900  0.58027000  1
  B  B9  1  0.58027000  0.58027000  0.25918900  1
  B  B10  1  0.08027000  0.75918900  0.08027000  1
  B  B11  1  0.08027000  0.08027000  0.75918900  1
  B  B12  1  0.75918900  0.08027000  0.08027000  1
  B  B13  1  0.58027000  0.58027000  0.58027000  1
  I  I0  1  0.25000000  0.25000000  0.25000000  1
  I  I1  1  0.75000000  0.75000000  0.75000000  1
  O  O0  1  0.00000000  0.00000000  0.00000000  1
  O  O1  1  0.50000000  0.50000000  0.50000000  1
  O  O2  1  0.10149500  0.93617800  0.25881400  1
  O  O3  1  0.20351300  0.75881400  0.60149500  1
  O  O4  1  0.75881400  0.20351300  0.43617800  1
  O  O5  1  0.43617800  0.75881400  0.20351300  1
  O  O6  1  0.20351300  0.60149500  0.43617800  1
  O  O7  1  0.75881400  0.60149500  0.20351300  1
  O  O8  1  0.43617800  0.20351300  0.60149500  1
  O  O9  1  0.25881400  0.10149500  0.93617800  1
  O  O10  1  0.93617800  0.25881400  0.10149500  1
  O  O11  1  0.10149500  0.70351300  0.93617800  1
  O  O12  1  0.10149500  0.25881400  0.70351300  1
  O  O13  1  0.93617800  0.70351300  0.25881400  1
  O  O14  1  0.70351300  0.10149500  0.25881400  1
  O  O15  1  0.70351300  0.93617800  0.10149500  1
  O  O16  1  0.25881400  0.93617800  0.70351300  1
  O  O17  1  0.93617800  0.10149500  0.70351300  1
  O  O18  1  0.25881400  0.70351300  0.10149500  1
  O  O19  1  0.70351300  0.25881400  0.93617800  1
  O  O20  1  0.60149500  0.20351300  0.75881400  1
  O  O21  1  0.60149500  0.43617800  0.20351300  1
  O  O22  1  0.20351300  0.43617800  0.75881400  1
  O  O23  1  0.60149500  0.75881400  0.43617800  1
  O  O24  1  0.43617800  0.60149500  0.75881400  1
  O  O25  1  0.75881400  0.43617800  0.60149500  1
loop_
_geom_bond_atom_site_label_1
_geom_bond_atom_site_label_2
_geom_bond_distance
_geom_bond_site_symmetry_2
Ni0 O15 2.052114 1_545
Ni0 O5 2.052114 1_545
Ni0 O20 2.052114 1_554
Ni0 O9 2.052114 1_554
Ni1 O7 2.052114 1_455
Ni1 O22 2.052114 1_554
Ni1 O11 2.052114 1_554
Ni1 O10 2.052114 1_455
Ni2 O14 2.052114 1_555
Ni2 O8 2.052114 1_555
Ni2 O23 2.052114 1_545
Ni2 O16 2.052114 1_545
Ni3 O18 2.052114 1_555
Ni3 O24 2.052114 1_554
Ni3 O21 2.052114 1_555
Ni3 O19 2.052114 1_554
Ni4 O4 2.052114 1_455
Ni4 O3 2.052114 1_545
Ni4 O17 2.052114 1_455
Ni4 O2 2.052114 1_545
Ni5 O25 2.052114 1_455
Ni5 O6 2.052114 1_555
Ni5 O13 2.052114 1_455
Ni5 O12 2.052114 1_555
B0 O2 1.475976 1_555
B0 O18 1.475976 1_555
B0 O6 1.475976 1_555
B0 O5 1.475976 1_555
B1 O11 1.475976 1_555
B1 O16 1.475976 1_555
B1 O24 1.475976 1_555
B1 O3 1.475976 1_555
B2 O10 1.475976 1_555
B2 O14 1.475976 1_555
B2 O21 1.475976 1_555
B2 O4 1.475976 1_555
B3 O13 1.475976 1_555
B3 O15 1.475976 1_555
B3 O7 1.475976 1_555
B3 O23 1.475976 1_555
B4 O12 1.475976 1_555
B4 O9 1.475976 1_555
B4 O8 1.475976 1_555
B4 O22 1.475976 1_555
B5 O19 1.475976 1_555
B5 O17 1.475976 1_555
B5 O20 1.475976 1_555
B5 O25 1.475976 1_555
B6 O10 1.440964 1_455
B6 O2 1.440964 1_545
B6 O9 1.440964 1_554
B6 O0 1.690301 1_555
B7 O6 1.440958 1_555
B7 O22 1.440962 1_555
B7 O3 1.440966 1_555
B7 O1 1.690308 1_555
B8 O8 1.440958 1_555
B8 O4 1.440962 1_555
B8 O20 1.440966 1_555
B8 O1 1.690308 1_555
B9 O21 1.440958 1_555
B9 O5 1.440962 1_555
B9 O7 1.440966 1_555
B9 O1 1.690308 1_555
B10 O11 1.440958 1_554
B10 O13 1.440962 1_455
B10 O18 1.440966 1_555
B10 O0 1.690308 1_565
B11 O17 1.440958 1_455
B11 O16 1.440962 1_545
B11 O12 1.440966 1_555
B11 O0 1.690308 1_556
B12 O15 1.440958 1_545
B12 O19 1.440962 1_554
B12 O14 1.440966 1_555
B12 O0 1.690308 1_655
B13 O25 1.440964 1_555
B13 O23 1.440964 1_555
B13 O24 1.440964 1_555
B13 O1 1.690301 1_555
I0 Ni3 3.039416 1_555
I0 Ni0 3.039416 1_555
I0 Ni4 3.039416 1_555
I0 Ni2 3.039416 1_555
I0 Ni1 3.039416 1_555
I0 Ni5 3.039416 1_555
I1 Ni2 3.039416 1_565
I1 Ni5 3.039416 1_655
I1 Ni3 3.039416 1_556
I1 Ni1 3.039416 1_656
I1 Ni0 3.039416 1_566
I1 Ni4 3.039416 1_665
