# generated using pymatgen
data_Sm3Mg13Zn30
_symmetry_space_group_name_H-M   'P 1'
_cell_length_a   14.64233022
_cell_length_b   14.64233022
_cell_length_c   8.66283600
_cell_angle_alpha   90.00000000
_cell_angle_beta   90.00000000
_cell_angle_gamma   120.00000098
_symmetry_Int_Tables_number   1
_chemical_formula_structural   Sm3Mg13Zn30
_chemical_formula_sum   'Sm6 Mg26 Zn60'
_cell_volume   1608.46314350
_cell_formula_units_Z   2
loop_
 _symmetry_equiv_pos_site_id
 _symmetry_equiv_pos_as_xyz
  1  'x, y, z'
loop_
 _atom_site_type_symbol
 _atom_site_label
 _atom_site_symmetry_multiplicity
 _atom_site_fract_x
 _atom_site_fract_y
 _atom_site_fract_z
 _atom_site_occupancy
  Sm  Sm0  1  0.45911200  0.91822300  0.25000000  1
  Sm  Sm1  1  0.91822300  0.45911200  0.75000000  1
  Sm  Sm2  1  0.08177700  0.54088800  0.25000000  1
  Sm  Sm3  1  0.54088800  0.45911200  0.75000000  1
  Sm  Sm4  1  0.54088800  0.08177700  0.75000000  1
  Sm  Sm5  1  0.45911200  0.54088800  0.25000000  1
  Mg  Mg0  1  0.88419500  0.11580500  0.06516100  1
  Mg  Mg1  1  0.77193900  0.22806100  0.94792300  1
  Mg  Mg2  1  0.88419500  0.76839100  0.06516100  1
  Mg  Mg3  1  0.88419500  0.76839100  0.43483900  1
  Mg  Mg4  1  0.33333300  0.66666700  0.75000000  1
  Mg  Mg5  1  0.77193900  0.54387800  0.94792300  1
  Mg  Mg6  1  0.77193900  0.22806100  0.55207700  1
  Mg  Mg7  1  0.11580500  0.23160900  0.56516100  1
  Mg  Mg8  1  0.23160900  0.11580500  0.43483900  1
  Mg  Mg9  1  0.22806100  0.77193900  0.44792300  1
  Mg  Mg10  1  0.76839100  0.88419500  0.56516100  1
  Mg  Mg11  1  0.45612200  0.22806100  0.94792300  1
  Mg  Mg12  1  0.54387800  0.77193900  0.05207700  1
  Mg  Mg13  1  0.22806100  0.45612200  0.44792300  1
  Mg  Mg14  1  0.23160900  0.11580500  0.06516100  1
  Mg  Mg15  1  0.66666700  0.33333300  0.25000000  1
  Mg  Mg16  1  0.11580500  0.88419500  0.93483900  1
  Mg  Mg17  1  0.22806100  0.77193900  0.05207700  1
  Mg  Mg18  1  0.22806100  0.45612200  0.05207700  1
  Mg  Mg19  1  0.11580500  0.88419500  0.56516100  1
  Mg  Mg20  1  0.77193900  0.54387800  0.55207700  1
  Mg  Mg21  1  0.45612200  0.22806100  0.55207700  1
  Mg  Mg22  1  0.76839100  0.88419500  0.93483900  1
  Mg  Mg23  1  0.11580500  0.23160900  0.93483900  1
  Mg  Mg24  1  0.88419500  0.11580500  0.43483900  1
  Mg  Mg25  1  0.54387800  0.77193900  0.44792300  1
  Zn  Zn0  1  0.29024900  0.40858700  0.75000000  1
  Zn  Zn1  1  0.13761600  0.56880800  0.91279800  1
  Zn  Zn2  1  0.11833800  0.70975100  0.75000000  1
  Zn  Zn3  1  0.59141300  0.70975100  0.75000000  1
  Zn  Zn4  1  0.56880800  0.13761600  0.08720200  1
  Zn  Zn5  1  0.30310600  0.23911100  0.75000000  1
  Zn  Zn6  1  0.64133000  0.00000000  0.50000000  1
  Zn  Zn7  1  0.06399500  0.76088900  0.25000000  1
  Zn  Zn8  1  0.66666700  0.33333300  0.59957700  1
  Zn  Zn9  1  0.29024900  0.88166200  0.75000000  1
  Zn  Zn10  1  0.93600500  0.69689400  0.75000000  1
  Zn  Zn11  1  0.93854500  0.06145500  0.75000000  1
  Zn  Zn12  1  0.64133000  0.00000000  0.00000000  1
  Zn  Zn13  1  0.56880800  0.43119200  0.41279800  1
  Zn  Zn14  1  0.76088900  0.69689400  0.75000000  1
  Zn  Zn15  1  0.43119200  0.56880800  0.91279800  1
  Zn  Zn16  1  0.00000000  0.35867000  0.50000000  1
  Zn  Zn17  1  0.33333300  0.66666700  0.09957700  1
  Zn  Zn18  1  0.56880800  0.43119200  0.08720200  1
  Zn  Zn19  1  0.43119200  0.56880800  0.58720200  1
  Zn  Zn20  1  0.93600500  0.23911100  0.75000000  1
  Zn  Zn21  1  0.70975100  0.11833800  0.25000000  1
  Zn  Zn22  1  0.69689400  0.93600500  0.25000000  1
  Zn  Zn23  1  0.06145500  0.93854500  0.25000000  1
  Zn  Zn24  1  0.43119200  0.86238400  0.91279800  1
  Zn  Zn25  1  0.93854500  0.87708900  0.75000000  1
  Zn  Zn26  1  0.35867000  0.00000000  0.00000000  1
  Zn  Zn27  1  0.23911100  0.93600500  0.25000000  1
  Zn  Zn28  1  0.66666700  0.33333300  0.90042300  1
  Zn  Zn29  1  0.33333300  0.66666700  0.40042300  1
  Zn  Zn30  1  0.00000000  0.35867000  0.00000000  1
  Zn  Zn31  1  0.35867000  0.35867000  0.00000000  1
  Zn  Zn32  1  0.70975100  0.59141300  0.25000000  1
  Zn  Zn33  1  0.88166200  0.29024900  0.25000000  1
  Zn  Zn34  1  0.00000000  0.00000000  0.50000000  1
  Zn  Zn35  1  0.13761600  0.56880800  0.58720200  1
  Zn  Zn36  1  0.11833800  0.40858700  0.75000000  1
  Zn  Zn37  1  0.56880800  0.13761600  0.41279800  1
  Zn  Zn38  1  0.76088900  0.06399500  0.75000000  1
  Zn  Zn39  1  0.00000000  0.64133000  0.00000000  1
  Zn  Zn40  1  0.86238400  0.43119200  0.08720200  1
  Zn  Zn41  1  0.06399500  0.30310600  0.25000000  1
  Zn  Zn42  1  0.59141300  0.88166200  0.75000000  1
  Zn  Zn43  1  0.64133000  0.64133000  0.50000000  1
  Zn  Zn44  1  0.69689400  0.76088900  0.25000000  1
  Zn  Zn45  1  0.35867000  0.35867000  0.50000000  1
  Zn  Zn46  1  0.40858700  0.29024900  0.25000000  1
  Zn  Zn47  1  0.88166200  0.59141300  0.25000000  1
  Zn  Zn48  1  0.64133000  0.64133000  0.00000000  1
  Zn  Zn49  1  0.12291100  0.06145500  0.75000000  1
  Zn  Zn50  1  0.30310600  0.06399500  0.75000000  1
  Zn  Zn51  1  0.00000000  0.64133000  0.50000000  1
  Zn  Zn52  1  0.06145500  0.12291100  0.25000000  1
  Zn  Zn53  1  0.87708900  0.93854500  0.25000000  1
  Zn  Zn54  1  0.00000000  0.00000000  0.00000000  1
  Zn  Zn55  1  0.35867000  0.00000000  0.50000000  1
  Zn  Zn56  1  0.43119200  0.86238400  0.58720200  1
  Zn  Zn57  1  0.23911100  0.30310600  0.25000000  1
  Zn  Zn58  1  0.86238400  0.43119200  0.41279800  1
  Zn  Zn59  1  0.40858700  0.11833800  0.25000000  1
loop_
_geom_bond_atom_site_label_1
_geom_bond_atom_site_label_2
_geom_bond_distance
_geom_bond_site_symmetry_2
Sm0 Zn56 3.005718 1_555
Sm0 Zn24 3.005718 1_554
Sm0 Zn4 3.119083 1_565
Sm0 Zn37 3.119083 1_565
Sm0 Zn12 3.169861 1_565
Sm0 Zn6 3.169861 1_565
Sm0 Zn26 3.169871 1_565
Sm0 Zn55 3.169871 1_565
Sm0 Zn22 3.359074 1_555
Sm0 Zn27 3.359089 1_555
Sm0 Zn21 3.361660 1_565
Sm0 Zn59 3.361670 1_565
Sm0 Zn17 3.445785 1_555
Sm0 Zn29 3.445785 1_555
Sm1 Zn58 3.005718 1_555
Sm1 Zn40 3.005718 1_556
Sm1 Zn35 3.119083 1_655
Sm1 Zn1 3.119083 1_655
Sm1 Zn51 3.169861 1_655
Sm1 Zn39 3.169861 1_656
Sm1 Zn30 3.169871 1_656
Sm1 Zn16 3.169871 1_655
Sm1 Zn10 3.359074 1_555
Sm1 Zn20 3.359089 1_555
Sm1 Zn2 3.361660 1_655
Sm1 Zn36 3.361670 1_655
Sm1 Zn8 3.445785 1_555
Sm1 Zn28 3.445785 1_555
Sm2 Zn1 3.005718 1_554
Sm2 Zn35 3.005718 1_555
Sm2 Zn58 3.119083 1_455
Sm2 Zn40 3.119083 1_455
Sm2 Zn16 3.169861 1_555
Sm2 Zn30 3.169861 1_555
Sm2 Zn51 3.169871 1_555
Sm2 Zn39 3.169871 1_555
Sm2 Zn41 3.359074 1_555
Sm2 Zn7 3.359089 1_555
Sm2 Zn33 3.361660 1_455
Sm2 Zn47 3.361670 1_455
Sm2 Zn29 3.445785 1_555
Sm2 Zn17 3.445785 1_555
Sm3 Zn13 3.005721 1_555
Sm3 Zn18 3.005721 1_556
Sm3 Zn15 3.119072 1_555
Sm3 Zn19 3.119072 1_555
Sm3 Zn43 3.169862 1_555
Sm3 Zn48 3.169862 1_556
Sm3 Zn31 3.169862 1_556
Sm3 Zn45 3.169862 1_555
Sm3 Zn14 3.359081 1_555
Sm3 Zn5 3.359081 1_555
Sm3 Zn3 3.361655 1_555
Sm3 Zn0 3.361655 1_555
Sm3 Zn28 3.445808 1_555
Sm3 Zn8 3.445808 1_555
Sm4 Zn4 3.005718 1_556
Sm4 Zn37 3.005718 1_555
Sm4 Zn24 3.119083 1_545
Sm4 Zn56 3.119083 1_545
Sm4 Zn26 3.169861 1_556
Sm4 Zn55 3.169861 1_555
Sm4 Zn6 3.169871 1_555
Sm4 Zn12 3.169871 1_556
Sm4 Zn50 3.359074 1_555
Sm4 Zn38 3.359089 1_555
Sm4 Zn9 3.361660 1_545
Sm4 Zn42 3.361670 1_545
Sm4 Zn28 3.445785 1_555
Sm4 Zn8 3.445785 1_555
Sm5 Zn15 3.005721 1_554
Sm5 Zn19 3.005721 1_555
Sm5 Zn13 3.119072 1_555
Sm5 Zn18 3.119072 1_555
Sm5 Zn48 3.169862 1_555
Sm5 Zn43 3.169862 1_555
Sm5 Zn45 3.169862 1_555
Sm5 Zn31 3.169862 1_555
Sm5 Zn44 3.359081 1_555
Sm5 Zn57 3.359081 1_555
Sm5 Zn32 3.361655 1_555
Sm5 Zn46 3.361655 1_555
Sm5 Zn29 3.445808 1_555
Sm5 Zn17 3.445808 1_555
Mg0 Zn54 2.990715 1_655
Mg0 Zn53 3.006879 1_545
Mg0 Zn52 3.006879 1_655
Mg0 Mg1 3.022684 1_554
Mg0 Zn21 3.030565 1_555
Mg0 Zn33 3.030565 1_555
Mg0 Zn11 3.058410 1_554
Mg0 Zn22 3.129891 1_545
Mg0 Zn41 3.129891 1_655
Mg0 Zn30 3.132070 1_655
Mg0 Zn12 3.132070 1_555
Mg0 Mg23 3.146472 1_654
Mg0 Mg22 3.146472 1_544
Mg0 Zn38 3.149530 1_554
Mg0 Zn20 3.149530 1_554
Mg0 Mg24 3.202460 1_555
Mg1 Zn28 2.701354 1_555
Mg1 Zn40 2.849066 1_556
Mg1 Zn4 2.849066 1_556
Mg1 Zn20 2.889350 1_555
Mg1 Zn38 2.889350 1_555
Mg1 Zn30 2.936982 1_656
Mg1 Zn12 2.936982 1_556
Mg1 Zn33 2.965679 1_556
Mg1 Zn21 2.965679 1_556
Mg1 Sm4 3.424435 1_555
Mg1 Sm1 3.424435 1_555
Mg2 Zn54 2.990702 1_665
Mg2 Zn23 3.006879 1_655
Mg2 Zn53 3.006879 1_555
Mg2 Mg5 3.022695 1_554
Mg2 Zn32 3.030572 1_555
Mg2 Zn47 3.030578 1_555
Mg2 Zn25 3.058398 1_554
Mg2 Zn44 3.129885 1_555
Mg2 Zn7 3.129897 1_655
Mg2 Zn48 3.132070 1_555
Mg2 Zn39 3.132083 1_655
Mg2 Mg22 3.146448 1_554
Mg2 Zn14 3.149530 1_554
Mg2 Zn10 3.149536 1_554
Mg2 Mg3 3.202460 1_555
Mg3 Zn34 2.990702 1_665
Mg3 Zn23 3.006879 1_655
Mg3 Zn53 3.006879 1_555
Mg3 Zn32 3.030572 1_555
Mg3 Zn47 3.030578 1_555
Mg3 Zn25 3.058398 1_555
Mg3 Zn44 3.129885 1_555
Mg3 Zn7 3.129897 1_655
Mg3 Zn43 3.132070 1_555
Mg3 Zn51 3.132083 1_655
Mg3 Zn14 3.149530 1_555
Mg3 Zn10 3.149536 1_555
Mg4 Zn1 2.854528 1_555
Mg4 Zn24 2.854528 1_555
Mg4 Zn56 2.854528 1_555
Mg4 Zn35 2.854528 1_555
Mg4 Zn15 2.854539 1_555
Mg4 Zn19 2.854539 1_555
Mg4 Zn17 3.028328 1_556
Mg4 Zn29 3.028328 1_555
Mg5 Zn28 2.701367 1_555
Mg5 Zn18 2.849066 1_556
Mg5 Zn40 2.849066 1_556
Mg5 Zn10 2.889350 1_555
Mg5 Zn14 2.889350 1_555
Mg5 Zn39 2.936982 1_656
Mg5 Zn48 2.936982 1_556
Mg5 Zn47 2.965679 1_556
Mg5 Zn32 2.965679 1_556
Mg5 Sm1 3.424425 1_555
Mg5 Sm3 3.424437 1_555
Mg6 Zn8 2.701354 1_555
Mg6 Zn58 2.849066 1_555
Mg6 Zn37 2.849066 1_555
Mg6 Zn20 2.889350 1_555
Mg6 Zn38 2.889350 1_555
Mg6 Zn16 2.936982 1_655
Mg6 Zn6 2.936982 1_555
Mg6 Zn33 2.965679 1_555
Mg6 Zn21 2.965679 1_555
Mg6 Sm1 3.424435 1_555
Mg6 Sm4 3.424435 1_555
Mg7 Zn34 2.990702 1_555
Mg7 Zn11 3.006879 1_455
Mg7 Zn49 3.006879 1_555
Mg7 Zn0 3.030572 1_555
Mg7 Zn36 3.030578 1_555
Mg7 Zn52 3.058398 1_555
Mg7 Zn5 3.129885 1_555
Mg7 Zn20 3.129897 1_455
Mg7 Zn45 3.132070 1_555
Mg7 Zn16 3.132083 1_555
Mg7 Mg8 3.146448 1_555
Mg7 Zn57 3.149530 1_555
Mg7 Zn41 3.149536 1_555
Mg8 Zn34 2.990702 1_555
Mg8 Zn23 3.006879 1_545
Mg8 Zn52 3.006879 1_555
Mg8 Zn46 3.030572 1_555
Mg8 Zn59 3.030578 1_555
Mg8 Zn49 3.058398 1_555
Mg8 Zn57 3.129885 1_555
Mg8 Zn27 3.129897 1_545
Mg8 Zn45 3.132070 1_555
Mg8 Zn55 3.132083 1_555
Mg8 Zn5 3.149530 1_555
Mg8 Zn50 3.149536 1_555
Mg9 Zn29 2.701354 1_555
Mg9 Zn56 2.849066 1_555
Mg9 Zn35 2.849066 1_555
Mg9 Zn27 2.889350 1_555
Mg9 Zn7 2.889350 1_555
Mg9 Zn55 2.936982 1_565
Mg9 Zn51 2.936982 1_555
Mg9 Zn9 2.965679 1_555
Mg9 Zn2 2.965679 1_555
Mg9 Sm2 3.424435 1_555
Mg9 Sm0 3.424435 1_555
Mg10 Zn34 2.990702 1_665
Mg10 Zn11 3.006879 1_565
Mg10 Zn25 3.006879 1_555
Mg10 Mg25 3.022695 1_555
Mg10 Zn3 3.030572 1_555
Mg10 Zn42 3.030578 1_555
Mg10 Zn53 3.058398 1_555
Mg10 Zn14 3.129885 1_555
Mg10 Zn38 3.129897 1_565
Mg10 Zn43 3.132070 1_555
Mg10 Zn6 3.132083 1_565
Mg10 Mg3 3.146448 1_555
Mg10 Mg24 3.146472 1_565
Mg10 Zn44 3.149530 1_555
Mg10 Zn22 3.149536 1_555
Mg10 Mg22 3.202460 1_555
Mg11 Zn28 2.701367 1_555
Mg11 Zn18 2.849066 1_556
Mg11 Zn4 2.849066 1_556
Mg11 Zn50 2.889350 1_555
Mg11 Zn5 2.889350 1_555
Mg11 Zn26 2.936982 1_556
Mg11 Zn31 2.936982 1_556
Mg11 Zn59 2.965679 1_556
Mg11 Zn46 2.965679 1_556
Mg11 Mg14 3.022695 1_556
Mg11 Sm4 3.424425 1_555
Mg11 Sm3 3.424437 1_555
Mg12 Zn17 2.701367 1_555
Mg12 Zn15 2.849066 1_554
Mg12 Zn24 2.849066 1_554
Mg12 Zn22 2.889350 1_555
Mg12 Zn44 2.889350 1_555
Mg12 Zn12 2.936982 1_565
Mg12 Zn48 2.936982 1_555
Mg12 Zn42 2.965679 1_554
Mg12 Zn3 2.965679 1_554
Mg12 Mg22 3.022695 1_554
Mg12 Sm0 3.424425 1_555
Mg12 Sm5 3.424437 1_555
Mg13 Zn29 2.701367 1_555
Mg13 Zn19 2.849066 1_555
Mg13 Zn35 2.849066 1_555
Mg13 Zn41 2.889350 1_555
Mg13 Zn57 2.889350 1_555
Mg13 Zn16 2.936982 1_555
Mg13 Zn45 2.936982 1_555
Mg13 Zn36 2.965679 1_555
Mg13 Zn0 2.965679 1_555
Mg13 Mg7 3.022695 1_555
Mg13 Sm2 3.424425 1_555
Mg13 Sm5 3.424437 1_555
Mg14 Zn54 2.990702 1_555
Mg14 Zn23 3.006879 1_545
Mg14 Zn52 3.006879 1_555
Mg14 Zn46 3.030572 1_555
Mg14 Zn59 3.030578 1_555
Mg14 Zn49 3.058398 1_554
Mg14 Zn57 3.129885 1_555
Mg14 Zn27 3.129897 1_545
Mg14 Zn31 3.132070 1_555
Mg14 Zn26 3.132083 1_555
Mg14 Mg23 3.146448 1_554
Mg14 Mg16 3.146472 1_544
Mg14 Zn5 3.149530 1_554
Mg14 Zn50 3.149536 1_554
Mg14 Mg8 3.202460 1_555
Mg15 Zn37 2.854528 1_555
Mg15 Zn4 2.854528 1_555
Mg15 Zn58 2.854528 1_555
Mg15 Zn40 2.854528 1_555
Mg15 Zn18 2.854539 1_555
Mg15 Zn13 2.854539 1_555
Mg15 Zn8 3.028328 1_555
Mg15 Zn28 3.028328 1_554
Mg16 Zn54 2.990715 1_566
Mg16 Zn25 3.006879 1_455
Mg16 Zn49 3.006879 1_565
Mg16 Mg17 3.022684 1_556
Mg16 Zn2 3.030565 1_555
Mg16 Zn9 3.030565 1_555
Mg16 Zn23 3.058410 1_556
Mg16 Zn10 3.129891 1_455
Mg16 Zn50 3.129891 1_565
Mg16 Zn39 3.132070 1_556
Mg16 Zn26 3.132070 1_566
Mg16 Mg2 3.146472 1_456
Mg16 Zn7 3.149530 1_556
Mg16 Zn27 3.149530 1_556
Mg16 Mg19 3.202460 1_555
Mg17 Zn17 2.701354 1_555
Mg17 Zn24 2.849066 1_554
Mg17 Zn1 2.849066 1_554
Mg17 Zn27 2.889350 1_555
Mg17 Zn7 2.889350 1_555
Mg17 Zn26 2.936982 1_565
Mg17 Zn39 2.936982 1_555
Mg17 Zn9 2.965679 1_554
Mg17 Zn2 2.965679 1_554
Mg17 Sm2 3.424435 1_555
Mg17 Sm0 3.424435 1_555
Mg18 Zn17 2.701367 1_555
Mg18 Zn15 2.849066 1_554
Mg18 Zn1 2.849066 1_554
Mg18 Zn41 2.889350 1_555
Mg18 Zn57 2.889350 1_555
Mg18 Zn30 2.936982 1_555
Mg18 Zn31 2.936982 1_555
Mg18 Zn36 2.965679 1_554
Mg18 Zn0 2.965679 1_554
Mg18 Mg23 3.022695 1_554
Mg18 Sm2 3.424425 1_555
Mg18 Sm5 3.424437 1_555
Mg19 Zn34 2.990715 1_565
Mg19 Zn25 3.006879 1_455
Mg19 Zn49 3.006879 1_565
Mg19 Mg9 3.022684 1_555
Mg19 Zn2 3.030565 1_555
Mg19 Zn9 3.030565 1_555
Mg19 Zn23 3.058410 1_555
Mg19 Zn10 3.129891 1_455
Mg19 Zn50 3.129891 1_565
Mg19 Zn51 3.132070 1_555
Mg19 Zn55 3.132070 1_565
Mg19 Mg8 3.146472 1_565
Mg19 Mg3 3.146472 1_455
Mg19 Zn7 3.149530 1_555
Mg19 Zn27 3.149530 1_555
Mg20 Zn8 2.701367 1_555
Mg20 Zn13 2.849066 1_555
Mg20 Zn58 2.849066 1_555
Mg20 Zn10 2.889350 1_555
Mg20 Zn14 2.889350 1_555
Mg20 Zn51 2.936982 1_655
Mg20 Zn43 2.936982 1_555
Mg20 Zn47 2.965679 1_555
Mg20 Zn32 2.965679 1_555
Mg20 Mg3 3.022695 1_555
Mg20 Sm1 3.424425 1_555
Mg20 Sm3 3.424437 1_555
Mg21 Zn8 2.701367 1_555
Mg21 Zn13 2.849066 1_555
Mg21 Zn37 2.849066 1_555
Mg21 Zn50 2.889350 1_555
Mg21 Zn5 2.889350 1_555
Mg21 Zn55 2.936982 1_555
Mg21 Zn45 2.936982 1_555
Mg21 Zn59 2.965679 1_555
Mg21 Zn46 2.965679 1_555
Mg21 Mg8 3.022695 1_555
Mg21 Sm4 3.424425 1_555
Mg21 Sm3 3.424437 1_555
Mg22 Zn54 2.990702 1_666
Mg22 Zn11 3.006879 1_565
Mg22 Zn25 3.006879 1_555
Mg22 Zn3 3.030572 1_555
Mg22 Zn42 3.030578 1_555
Mg22 Zn53 3.058398 1_556
Mg22 Zn14 3.129885 1_555
Mg22 Zn38 3.129897 1_565
Mg22 Zn48 3.132070 1_556
Mg22 Zn12 3.132083 1_566
Mg22 Zn44 3.149530 1_556
Mg22 Zn22 3.149536 1_556
Mg23 Zn54 2.990702 1_556
Mg23 Zn11 3.006879 1_455
Mg23 Zn49 3.006879 1_555
Mg23 Zn0 3.030572 1_555
Mg23 Zn36 3.030578 1_555
Mg23 Zn52 3.058398 1_556
Mg23 Zn5 3.129885 1_555
Mg23 Zn20 3.129897 1_455
Mg23 Zn31 3.132070 1_556
Mg23 Zn30 3.132083 1_556
Mg23 Zn57 3.149530 1_556
Mg23 Zn41 3.149536 1_556
Mg23 Mg7 3.202460 1_555
Mg24 Zn34 2.990715 1_655
Mg24 Zn53 3.006879 1_545
Mg24 Zn52 3.006879 1_655
Mg24 Mg6 3.022684 1_555
Mg24 Zn21 3.030565 1_555
Mg24 Zn33 3.030565 1_555
Mg24 Zn11 3.058410 1_555
Mg24 Zn22 3.129891 1_545
Mg24 Zn41 3.129891 1_655
Mg24 Zn6 3.132070 1_555
Mg24 Zn16 3.132070 1_655
Mg24 Mg7 3.146472 1_655
Mg24 Zn38 3.149530 1_555
Mg24 Zn20 3.149530 1_555
Mg25 Zn29 2.701367 1_555
Mg25 Zn19 2.849066 1_555
Mg25 Zn56 2.849066 1_555
Mg25 Zn22 2.889350 1_555
Mg25 Zn44 2.889350 1_555
Mg25 Zn6 2.936982 1_565
Mg25 Zn43 2.936982 1_555
Mg25 Zn42 2.965679 1_555
Mg25 Zn3 2.965679 1_555
Mg25 Sm0 3.424425 1_555
Mg25 Sm5 3.424437 1_555
Zn0 Zn36 2.517178 1_555
Zn0 Zn5 2.580807 1_555
Zn0 Zn15 2.628715 1_555
Zn0 Zn19 2.628715 1_555
Zn0 Zn45 2.638266 1_555
Zn0 Zn31 2.638266 1_556
Zn1 Zn36 2.628715 1_555
Zn1 Zn2 2.628715 1_555
Zn1 Zn30 2.810391 1_556
Zn1 Zn39 2.810391 1_556
Zn1 Zn35 2.820585 1_555
Zn1 Zn17 2.962675 1_556
Zn2 Zn9 2.517178 1_555
Zn2 Zn35 2.628715 1_555
Zn2 Zn39 2.638266 1_556
Zn2 Zn51 2.638266 1_555
Zn3 Zn42 2.517178 1_555
Zn3 Zn43 2.638266 1_555
Zn3 Zn48 2.638266 1_556
Zn4 Zn59 2.628715 1_555
Zn5 Zn50 2.564106 1_555
Zn10 Zn14 2.564106 1_555
Zn10 Zn2 2.580807 1_655
Zn10 Zn25 2.620077 1_555
Zn10 Zn39 2.644355 1_656
Zn10 Zn51 2.644355 1_655
Zn11 Zn38 2.620092 1_555
Zn11 Zn20 2.620092 1_555
Zn11 Zn54 2.668231 1_656
Zn11 Zn34 2.668231 1_655
Zn11 Zn25 2.699548 1_545
Zn11 Zn49 2.699548 1_655
Zn12 Zn21 2.638266 1_555
Zn12 Zn42 2.638266 1_544
Zn12 Zn38 2.644355 1_554
Zn12 Zn22 2.644355 1_545
Zn12 Zn24 2.810391 1_544
Zn12 Zn4 2.810391 1_555
Zn13 Zn32 2.628715 1_555
Zn13 Zn46 2.628715 1_555
Zn13 Zn43 2.810391 1_555
Zn13 Zn45 2.810391 1_555
Zn13 Zn18 2.820585 1_555
Zn13 Zn8 2.962686 1_555
Zn14 Zn3 2.580807 1_555
Zn14 Zn25 2.620084 1_555
Zn14 Zn43 2.644355 1_555
Zn14 Zn48 2.644355 1_556
Zn15 Zn3 2.628715 1_555
Zn15 Zn48 2.810391 1_556
Zn15 Zn31 2.810391 1_556
Zn15 Zn19 2.820585 1_555
Zn15 Zn17 2.962686 1_556
Zn16 Zn33 2.638266 1_455
Zn16 Zn36 2.638266 1_555
Zn16 Zn20 2.644355 1_455
Zn16 Zn41 2.644355 1_555
Zn16 Zn35 2.810391 1_555
Zn16 Zn58 2.810391 1_455
Zn17 Zn29 2.606180 1_555
Zn17 Zn24 2.962675 1_554
Zn18 Zn32 2.628715 1_555
Zn18 Zn46 2.628715 1_555
Zn18 Zn48 2.810391 1_555
Zn18 Zn31 2.810391 1_555
Zn18 Zn28 2.962686 1_554
Zn19 Zn3 2.628715 1_555
Zn19 Zn43 2.810391 1_555
Zn19 Zn45 2.810391 1_555
Zn19 Zn29 2.962686 1_555
Zn20 Zn38 2.564106 1_555
Zn20 Zn36 2.580807 1_655
Zn20 Zn30 2.644355 1_656
Zn21 Zn33 2.517178 1_555
Zn21 Zn22 2.580807 1_545
Zn21 Zn37 2.628715 1_555
Zn21 Zn4 2.628715 1_555
Zn21 Zn6 2.638266 1_555
Zn22 Zn44 2.564106 1_555
Zn22 Zn53 2.620077 1_555
Zn22 Zn6 2.644355 1_565
Zn23 Zn7 2.620092 1_555
Zn23 Zn27 2.620092 1_555
Zn23 Zn34 2.668231 1_565
Zn23 Zn54 2.668231 1_565
Zn23 Zn53 2.699548 1_455
Zn23 Zn52 2.699548 1_565
Zn24 Zn42 2.628715 1_555
Zn24 Zn9 2.628715 1_555
Zn24 Zn26 2.810391 1_566
Zn24 Zn56 2.820585 1_555
Zn25 Zn54 2.668238 1_666
Zn25 Zn34 2.668238 1_665
Zn25 Zn49 2.699548 1_665
Zn26 Zn9 2.638266 1_544
Zn26 Zn59 2.638266 1_555
Zn26 Zn27 2.644355 1_545
Zn26 Zn50 2.644355 1_554
Zn26 Zn4 2.810391 1_555
Zn27 Zn7 2.564106 1_555
Zn27 Zn59 2.580807 1_565
Zn27 Zn55 2.644355 1_565
Zn28 Zn8 2.606180 1_555
Zn28 Zn4 2.962675 1_556
Zn28 Zn40 2.962675 1_556
Zn29 Zn56 2.962675 1_555
Zn29 Zn35 2.962675 1_555
Zn30 Zn33 2.638266 1_455
Zn30 Zn36 2.638266 1_554
Zn30 Zn41 2.644355 1_555
Zn30 Zn40 2.810391 1_455
Zn31 Zn46 2.638266 1_555
Zn31 Zn57 2.644355 1_555
Zn31 Zn5 2.644355 1_554
Zn32 Zn47 2.517178 1_555
Zn32 Zn44 2.580807 1_555
Zn32 Zn43 2.638266 1_555
Zn32 Zn48 2.638266 1_555
Zn33 Zn41 2.580807 1_655
Zn33 Zn40 2.628715 1_555
Zn33 Zn58 2.628715 1_555
Zn34 Zn53 2.668238 1_445
Zn34 Zn49 2.668238 1_555
Zn34 Zn52 2.668238 1_555
Zn35 Zn36 2.628715 1_555
Zn35 Zn51 2.810391 1_555
Zn37 Zn59 2.628715 1_555
Zn37 Zn55 2.810391 1_555
Zn37 Zn6 2.810391 1_555
Zn37 Zn4 2.820585 1_555
Zn37 Zn8 2.962675 1_555
Zn38 Zn42 2.580807 1_545
Zn38 Zn6 2.644355 1_555
Zn39 Zn47 2.638266 1_455
Zn39 Zn7 2.644355 1_555
Zn39 Zn40 2.810391 1_455
Zn40 Zn47 2.628715 1_555
Zn40 Zn58 2.820585 1_555
Zn41 Zn57 2.564106 1_555
Zn41 Zn52 2.620077 1_555
Zn42 Zn56 2.628715 1_555
Zn42 Zn6 2.638266 1_565
Zn43 Zn44 2.644355 1_555
Zn44 Zn53 2.620084 1_555
Zn44 Zn48 2.644355 1_555
Zn45 Zn46 2.638266 1_555
Zn45 Zn57 2.644355 1_555
Zn45 Zn5 2.644355 1_555
Zn46 Zn59 2.517178 1_555
Zn46 Zn57 2.580807 1_555
Zn47 Zn7 2.580807 1_655
Zn47 Zn58 2.628715 1_555
Zn47 Zn51 2.638266 1_655
Zn49 Zn50 2.620077 1_555
Zn49 Zn5 2.620084 1_555
Zn49 Zn54 2.668238 1_556
Zn50 Zn9 2.580807 1_545
Zn50 Zn55 2.644355 1_555
Zn51 Zn7 2.644355 1_555
Zn51 Zn58 2.810391 1_455
Zn52 Zn57 2.620084 1_555
Zn52 Zn54 2.668238 1_555
Zn52 Zn53 2.699548 1_445
Zn53 Zn54 2.668238 1_665
Zn55 Zn9 2.638266 1_545
Zn55 Zn59 2.638266 1_555
Zn55 Zn56 2.810391 1_545
Zn56 Zn9 2.628715 1_555
Zn56 Zn6 2.810391 1_565
Zn58 Zn8 2.962675 1_555
