# generated using pymatgen
data_Ba2Tb2Ti2Cu2O11
_symmetry_space_group_name_H-M   'P 1'
_cell_length_a   3.90689900
_cell_length_b   3.90689900
_cell_length_c   15.95595100
_cell_angle_alpha   90.00000000
_cell_angle_beta   90.00000000
_cell_angle_gamma   90.00000000
_symmetry_Int_Tables_number   1
_chemical_formula_structural   Ba2Tb2Ti2Cu2O11
_chemical_formula_sum   'Ba2 Tb2 Ti2 Cu2 O11'
_cell_volume   243.54939898
_cell_formula_units_Z   1
loop_
 _symmetry_equiv_pos_site_id
 _symmetry_equiv_pos_as_xyz
  1  'x, y, z'
loop_
 _atom_site_type_symbol
 _atom_site_label
 _atom_site_symmetry_multiplicity
 _atom_site_fract_x
 _atom_site_fract_y
 _atom_site_fract_z
 _atom_site_occupancy
  Ba  Ba0  1  0.50000000  0.50000000  0.23264600  1
  Ba  Ba1  1  0.50000000  0.50000000  0.76735400  1
  Tb  Tb0  1  0.50000000  0.50000000  0.00000000  1
  Tb  Tb1  1  0.50000000  0.50000000  0.50000000  1
  Ti  Ti0  1  0.00000000  0.00000000  0.37655600  1
  Ti  Ti1  1  0.00000000  0.00000000  0.62344400  1
  Cu  Cu0  1  0.00000000  0.00000000  0.10218700  1
  Cu  Cu1  1  0.00000000  0.00000000  0.89781300  1
  O  O0  1  0.00000000  0.00000000  0.50000000  1
  O  O1  1  0.00000000  0.50000000  0.39109200  1
  O  O2  1  0.50000000  0.00000000  0.39109200  1
  O  O3  1  0.00000000  0.50000000  0.60890800  1
  O  O4  1  0.50000000  0.00000000  0.60890800  1
  O  O5  1  0.00000000  0.00000000  0.25896800  1
  O  O6  1  0.00000000  0.00000000  0.74103200  1
  O  O7  1  0.00000000  0.50000000  0.09123800  1
  O  O8  1  0.50000000  0.00000000  0.09123800  1
  O  O9  1  0.00000000  0.50000000  0.90876200  1
  O  O10  1  0.50000000  0.00000000  0.90876200  1
loop_
_geom_bond_atom_site_label_1
_geom_bond_atom_site_label_2
_geom_bond_distance
_geom_bond_site_symmetry_2
Ba0 O5 2.794338 1_665
Ba0 O5 2.794338 1_555
Ba0 O5 2.794338 1_565
Ba0 O5 2.794338 1_655
Ba0 O8 2.984435 1_565
Ba0 O7 2.984435 1_655
Ba0 O7 2.984435 1_555
Ba0 O8 2.984435 1_555
Ba0 O2 3.194924 1_555
Ba0 O2 3.194924 1_565
Ba0 O1 3.194924 1_655
Ba0 O1 3.194924 1_555
Ba1 O6 2.794338 1_555
Ba1 O6 2.794338 1_565
Ba1 O6 2.794338 1_665
Ba1 O6 2.794338 1_655
Ba1 O10 2.984435 1_555
Ba1 O9 2.984435 1_655
Ba1 O9 2.984435 1_555
Ba1 O10 2.984435 1_565
Ba1 O3 3.194924 1_655
Ba1 O4 3.194924 1_555
Ba1 O4 3.194924 1_565
Ba1 O3 3.194924 1_555
Cu0 O8 1.961246 1_455
Cu0 O8 1.961246 1_555
Cu0 O7 1.961246 1_545
Cu0 O7 1.961246 1_555
Cu0 O5 2.501590 1_555
Cu1 O9 1.961246 1_545
Cu1 O10 1.961246 1_555
Cu1 O10 1.961246 1_455
Cu1 O9 1.961246 1_555
Cu1 O6 2.501590 1_555
O0 Ti1 1.969666 1_555
O0 Ti0 1.969666 1_555
O0 Tb1 2.762595 1_545
O0 Tb1 2.762595 1_445
O0 Tb1 2.762595 1_555
O0 Tb1 2.762595 1_455
O1 Ti0 1.967170 1_555
O1 Ti0 1.967170 1_565
O1 Tb1 2.614512 1_455
O1 Tb1 2.614512 1_555
O2 Ti0 1.967170 1_555
O2 Ti0 1.967170 1_655
O2 Tb1 2.614512 1_545
O2 Tb1 2.614512 1_555
O3 Ti1 1.967170 1_555
O3 Ti1 1.967170 1_565
O3 Tb1 2.614512 1_455
O3 Tb1 2.614512 1_555
O4 Ti1 1.967170 1_655
O4 Ti1 1.967170 1_555
O4 Tb1 2.614512 1_545
O4 Tb1 2.614512 1_555
O5 Ti0 1.876228 1_555
O6 Ti1 1.876228 1_555
O7 Tb0 2.436244 1_455
O7 Tb0 2.436244 1_555
O8 Tb0 2.436244 1_555
O8 Tb0 2.436244 1_545
O9 Tb0 2.436244 1_556
O9 Tb0 2.436244 1_456
O10 Tb0 2.436244 1_556
O10 Tb0 2.436244 1_546
