# generated using pymatgen
data_Pr6Si4S17
_symmetry_space_group_name_H-M   'P 1'
_cell_length_a   9.01055369
_cell_length_b   10.05166622
_cell_length_c   14.34045731
_cell_angle_alpha   81.98287077
_cell_angle_beta   86.88125003
_cell_angle_gamma   89.40549088
_symmetry_Int_Tables_number   1
_chemical_formula_structural   Pr6Si4S17
_chemical_formula_sum   'Pr12 Si8 S34'
_cell_volume   1284.22647349
_cell_formula_units_Z   2
loop_
 _symmetry_equiv_pos_site_id
 _symmetry_equiv_pos_as_xyz
  1  'x, y, z'
loop_
 _atom_site_type_symbol
 _atom_site_label
 _atom_site_symmetry_multiplicity
 _atom_site_fract_x
 _atom_site_fract_y
 _atom_site_fract_z
 _atom_site_occupancy
  Pr  Pr0  1  0.66865514  0.58822678  0.65770342  1
  Pr  Pr1  1  0.10650135  0.38521976  0.81691312  1
  Pr  Pr2  1  0.55226841  0.26113647  0.99884707  1
  Pr  Pr3  1  0.62949378  0.93378687  0.32510762  1
  Pr  Pr4  1  0.89349865  0.61478024  0.18308688  1
  Pr  Pr5  1  0.97961733  0.23120281  0.54046672  1
  Pr  Pr6  1  0.08344410  0.08010541  0.16600190  1
  Pr  Pr7  1  0.91655590  0.91989459  0.83399810  1
  Pr  Pr8  1  0.37050622  0.06621313  0.67489238  1
  Pr  Pr9  1  0.44773159  0.73886353  0.00115293  1
  Pr  Pr10  1  0.33134486  0.41177322  0.34229658  1
  Pr  Pr11  1  0.02038267  0.76879719  0.45953328  1
  Si  Si0  1  0.76948449  0.56218734  0.90141436  1
  Si  Si1  1  0.75070798  0.50008573  0.41603670  1
  Si  Si2  1  0.72571151  0.94151072  0.60559739  1
  Si  Si3  1  0.25137797  0.06021700  0.92310327  1
  Si  Si4  1  0.74862203  0.93978300  0.07689673  1
  Si  Si5  1  0.27428849  0.05848928  0.39440261  1
  Si  Si6  1  0.24929202  0.49991427  0.58396330  1
  Si  Si7  1  0.23051551  0.43781266  0.09858564  1
  S  S0  1  0.74217673  0.11345487  0.14811939  1
  S  S1  1  0.33997046  0.00146182  0.05633647  1
  S  S2  1  0.99010399  0.62735940  0.88608024  1
  S  S3  1  0.70395001  0.69097168  0.45861483  1
  S  S4  1  0.29978094  0.91234068  0.30355623  1
  S  S5  1  0.70021906  0.08765932  0.69644377  1
  S  S6  1  0.24684311  0.61269110  0.16673827  1
  S  S7  1  0.01589637  0.49379143  0.62290680  1
  S  S8  1  0.30785389  0.63293862  0.46209756  1
  S  S9  1  0.81480356  0.01891007  0.46825849  1
  S  S10  1  0.64501559  0.47005477  0.29402092  1
  S  S11  1  0.10722337  0.20029356  0.34583618  1
  S  S12  1  0.04275672  0.14762663  0.95208210  1
  S  S13  1  0.25782327  0.88654513  0.85188061  1
  S  S14  1  0.93105754  0.85607595  0.27823237  1
  S  S15  1  0.38343822  0.21150930  0.83931374  1
  S  S16  1  0.95724328  0.85237337  0.04791790  1
  S  S17  1  0.63388178  0.71636072  0.83392202  1
  S  S18  1  0.66002954  0.99853818  0.94366353  1
  S  S19  1  0.75315689  0.38730890  0.83326173  1
  S  S20  1  0.89277663  0.79970644  0.65416382  1
  S  S21  1  0.29604999  0.30902832  0.54138517  1
  S  S22  1  0.35498441  0.52994523  0.70597908  1
  S  S23  1  0.18519644  0.98108993  0.53174151  1
  S  S24  1  0.69214611  0.36706138  0.53790244  1
  S  S25  1  0.61656178  0.78849070  0.16068626  1
  S  S26  1  0.98410363  0.50620857  0.37709320  1
  S  S27  1  0.06894246  0.14392405  0.72176763  1
  S  S28  1  0.51886171  0.84664045  0.60322449  1
  S  S29  1  0.36611822  0.28363928  0.16607798  1
  S  S30  1  0.67919029  0.51880188  0.04278309  1
  S  S31  1  0.32080971  0.48119812  0.95721691  1
  S  S32  1  0.00989601  0.37264060  0.11391976  1
  S  S33  1  0.48113829  0.15335955  0.39677551  1
loop_
_geom_bond_atom_site_label_1
_geom_bond_atom_site_label_2
_geom_bond_distance
_geom_bond_site_symmetry_2
Pr0 S3 2.899040 1_555
Pr0 S22 2.918737 1_555
Pr0 S20 2.940633 1_555
Pr0 S28 2.941936 1_555
Pr0 S24 2.992394 1_555
Pr0 S17 2.992719 1_555
Pr0 S19 3.123305 1_555
Pr0 S7 3.292455 1_655
Pr1 S12 2.899451 1_555
Pr1 S2 2.918042 1_455
Pr1 S22 2.948645 1_555
Pr1 S27 2.974770 1_555
Pr1 S7 2.996588 1_555
Pr1 S15 3.036302 1_555
Pr1 S31 3.116203 1_555
Pr1 S19 3.179770 1_455
Pr2 S29 2.884702 1_556
Pr2 S15 2.917150 1_555
Pr2 S18 2.997023 1_545
Pr2 S30 3.001311 1_556
Pr2 S0 3.028782 1_556
Pr2 S19 3.043592 1_555
Pr2 S31 3.044715 1_555
Pr2 S1 3.237849 1_556
Pr3 S33 2.852434 1_565
Pr3 S14 2.889494 1_555
Pr3 S9 2.937160 1_565
Pr3 S25 2.949596 1_555
Pr3 S3 2.979088 1_555
Pr3 S4 3.016618 1_555
Pr3 S0 3.035357 1_565
Pr4 S16 2.899451 1_555
Pr4 S32 2.918042 1_655
Pr4 S10 2.948645 1_555
Pr4 S14 2.974770 1_555
Pr4 S26 2.996588 1_555
Pr4 S25 3.036302 1_555
Pr4 S30 3.116203 1_555
Pr4 S6 3.179770 1_655
Pr5 S27 2.784592 1_655
Pr5 S24 2.915254 1_555
Pr5 S9 2.946290 1_555
Pr5 S21 2.965621 1_655
Pr5 S11 3.015632 1_655
Pr5 S7 3.066203 1_655
Pr5 S23 3.119825 1_645
Pr5 S26 3.364118 1_555
Pr5 S5 3.461994 1_555
Pr6 S1 2.890366 1_555
Pr6 S14 2.891251 1_445
Pr6 S32 3.007354 1_555
Pr6 S11 3.015078 1_555
Pr6 S12 3.089065 1_554
Pr6 S0 3.110345 1_455
Pr6 S4 3.155460 1_545
Pr6 S16 3.278006 1_445
Pr6 S29 3.283603 1_555
Pr7 S18 2.890366 1_555
Pr7 S27 2.891251 1_665
Pr7 S2 3.007354 1_555
Pr7 S20 3.015078 1_555
Pr7 S16 3.089065 1_556
Pr7 S13 3.110345 1_655
Pr7 S5 3.155460 1_565
Pr7 S12 3.278006 1_665
Pr7 S17 3.283603 1_555
Pr8 S28 2.852434 1_545
Pr8 S27 2.889494 1_555
Pr8 S23 2.937160 1_545
Pr8 S15 2.949596 1_555
Pr8 S21 2.979088 1_555
Pr8 S5 3.016618 1_555
Pr8 S13 3.035357 1_545
Pr9 S17 2.884702 1_554
Pr9 S25 2.917150 1_555
Pr9 S1 2.997023 1_565
Pr9 S31 3.001311 1_554
Pr9 S13 3.028782 1_554
Pr9 S6 3.043592 1_555
Pr9 S30 3.044715 1_555
Pr9 S18 3.237849 1_554
Pr10 S21 2.899040 1_555
Pr10 S10 2.918737 1_555
Pr10 S11 2.940633 1_555
Pr10 S33 2.941936 1_555
Pr10 S8 2.992394 1_555
Pr10 S29 2.992719 1_555
Pr10 S6 3.123305 1_555
Pr10 S26 3.292455 1_455
Pr11 S14 2.784592 1_455
Pr11 S8 2.915254 1_555
Pr11 S23 2.946290 1_555
Pr11 S3 2.965621 1_455
Pr11 S20 3.015632 1_455
Pr11 S26 3.066203 1_455
Pr11 S9 3.119825 1_465
Pr11 S7 3.364118 1_555
Pr11 S4 3.461994 1_555
S0 Si4 2.140744 1_545
S1 Si3 2.116113 1_554
S2 Si0 2.090104 1_555
S3 Si1 2.124581 1_555
S4 Si5 2.098176 1_565
S5 Si2 2.098176 1_545
S6 Si7 2.137052 1_555
S7 Si6 2.145620 1_555
S8 Si6 2.093550 1_555
S9 Si2 2.131237 1_545
S10 Si1 2.096275 1_555
S11 Si5 2.139033 1_555
S12 Si3 2.112073 1_555
S13 Si3 2.140744 1_565
S15 Si3 2.131822 1_555
S16 Si4 2.112073 1_555
S17 Si0 2.121857 1_555
S18 Si4 2.116113 1_556
S19 Si0 2.137052 1_555
S20 Si2 2.139033 1_555
S21 Si6 2.124581 1_555
S22 Si6 2.096275 1_555
S23 Si5 2.131237 1_565
S24 Si1 2.093550 1_555
S25 Si4 2.131822 1_555
S26 Si1 2.145620 1_555
S28 Si2 2.106471 1_555
S29 Si7 2.121857 1_555
S30 Si0 2.131507 1_554
S31 Si7 2.131507 1_556
S32 Si7 2.090104 1_555
S33 Si5 2.106471 1_555
