# generated using pymatgen
data_Mn7V5O16
_symmetry_space_group_name_H-M   'P 1'
_cell_length_a   6.20521503
_cell_length_b   12.39910279
_cell_length_c   16.53277060
_cell_angle_alpha   39.72822394
_cell_angle_beta   53.97739444
_cell_angle_gamma   58.93747466
_symmetry_Int_Tables_number   1
_chemical_formula_structural   Mn7V5O16
_chemical_formula_sum   'Mn14 V10 O32'
_cell_volume   652.53952054
_cell_formula_units_Z   2
loop_
 _symmetry_equiv_pos_site_id
 _symmetry_equiv_pos_as_xyz
  1  'x, y, z'
loop_
 _atom_site_type_symbol
 _atom_site_label
 _atom_site_symmetry_multiplicity
 _atom_site_fract_x
 _atom_site_fract_y
 _atom_site_fract_z
 _atom_site_occupancy
  Mn  Mn0  1  0.13804800  0.03049100  0.06014600  1
  Mn  Mn1  1  0.12506400  0.52657900  0.06204200  1
  Mn  Mn2  1  0.50000000  0.12500000  0.25000000  1
  Mn  Mn3  1  0.11752500  0.28637100  0.56226000  1
  Mn  Mn4  1  0.00000000  0.12500000  0.25000000  1
  Mn  Mn5  1  0.50000000  0.62500000  0.25000000  1
  Mn  Mn6  1  0.11856600  0.78520800  0.55956600  1
  Mn  Mn7  1  0.86195200  0.21950900  0.43985400  1
  Mn  Mn8  1  0.50000000  0.12500000  0.75000000  1
  Mn  Mn9  1  0.49485900  0.37981600  0.74638600  1
  Mn  Mn10  1  0.87493600  0.72342100  0.43795800  1
  Mn  Mn11  1  0.50514100  0.87018400  0.75361400  1
  Mn  Mn12  1  0.88143400  0.46479200  0.94043400  1
  Mn  Mn13  1  0.88247500  0.96362900  0.93774000  1
  V  V0  1  0.52111600  0.25195900  0.99303200  1
  V  V1  1  0.47888400  0.99804100  0.50696800  1
  V  V2  1  0.48527400  0.37701000  0.25110600  1
  V  V3  1  0.50039500  0.73824300  0.00629200  1
  V  V4  1  0.49960500  0.51175700  0.49370800  1
  V  V5  1  0.51472600  0.87299000  0.24889400  1
  V  V6  1  0.00000000  0.62500000  0.25000000  1
  V  V7  1  0.50000000  0.62500000  0.75000000  1
  V  V8  1  0.99165400  0.37816400  0.75090100  1
  V  V9  1  0.00834600  0.87183600  0.74909900  1
  O  O0  1  0.30489200  0.05955500  0.12090400  1
  O  O1  1  0.28861100  0.29603900  0.11312100  1
  O  O2  1  0.72543900  0.06287000  0.12030300  1
  O  O3  1  0.24846200  0.56017500  0.13586100  1
  O  O4  1  0.27456100  0.18713000  0.37969700  1
  O  O5  1  0.71500800  0.31303600  0.14594700  1
  O  O6  1  0.24739500  0.45021400  0.35478000  1
  O  O7  1  0.25505200  0.78902600  0.12739200  1
  O  O8  1  0.24745600  0.04250100  0.63121500  1
  O  O9  1  0.69510800  0.19044500  0.37909600  1
  O  O10  1  0.70969200  0.55903100  0.13030300  1
  O  O11  1  0.24150500  0.33978300  0.62119800  1
  O  O12  1  0.29030800  0.69096900  0.36969700  1
  O  O13  1  0.74494800  0.46097400  0.37260800  1
  O  O14  1  0.77351400  0.03513600  0.64542300  1
  O  O15  1  0.75260500  0.79978600  0.14522000  1
  O  O16  1  0.28499200  0.93696400  0.35405300  1
  O  O17  1  0.22648600  0.21486400  0.85457700  1
  O  O18  1  0.24303000  0.54962700  0.62078000  1
  O  O19  1  0.75153800  0.68982500  0.36413900  1
  O  O20  1  0.70677400  0.33870700  0.61151300  1
  O  O21  1  0.25539500  0.80729600  0.63614800  1
  O  O22  1  0.29593400  0.43532300  0.87270600  1
  O  O23  1  0.75254400  0.20749900  0.86878500  1
  O  O24  1  0.74312500  0.55345600  0.64525800  1
  O  O25  1  0.71138900  0.95396100  0.38687900  1
  O  O26  1  0.25687500  0.69654400  0.85474200  1
  O  O27  1  0.74460500  0.44270400  0.86385200  1
  O  O28  1  0.70406600  0.81467700  0.62729400  1
  O  O29  1  0.29322600  0.91129300  0.88848700  1
  O  O30  1  0.75697000  0.70037300  0.87922000  1
  O  O31  1  0.75849500  0.91021700  0.87880200  1
loop_
_geom_bond_atom_site_label_1
_geom_bond_atom_site_label_2
_geom_bond_distance
_geom_bond_site_symmetry_2
Mn0 O17 2.056213 1_554
Mn0 O2 2.064932 1_455
Mn0 O7 2.076834 1_545
Mn0 O0 2.091830 1_555
Mn1 O1 2.053146 1_555
Mn1 O26 2.056251 1_554
Mn1 O10 2.070211 1_455
Mn1 O3 2.111775 1_555
Mn2 O16 2.125150 1_545
Mn2 O5 2.125150 1_555
Mn2 O1 2.139634 1_555
Mn2 O25 2.139634 1_545
Mn2 O2 2.246945 1_555
Mn2 O4 2.246945 1_555
Mn3 O20 2.060423 1_455
Mn3 O6 2.064490 1_555
Mn3 O8 2.087070 1_555
Mn3 O11 2.092848 1_555
Mn4 O1 2.143916 1_555
Mn4 O25 2.143916 1_445
Mn4 O16 2.162574 1_545
Mn4 O5 2.162574 1_455
Mn4 O9 2.263484 1_455
Mn4 O0 2.263484 1_555
Mn5 O10 2.154316 1_555
Mn5 O12 2.154316 1_555
Mn5 O7 2.155959 1_555
Mn5 O13 2.155959 1_555
Mn5 O15 2.166016 1_555
Mn5 O6 2.166016 1_555
Mn6 O16 2.048332 1_555
Mn6 O18 2.048698 1_555
Mn6 O28 2.067560 1_455
Mn6 O21 2.106343 1_555
Mn7 O14 2.056213 1_555
Mn7 O4 2.064932 1_655
Mn7 O13 2.076834 1_555
Mn7 O9 2.091830 1_555
Mn8 O29 2.151981 1_545
Mn8 O20 2.151981 1_555
Mn8 O17 2.161377 1_555
Mn8 O14 2.161377 1_555
Mn8 O11 2.255239 1_555
Mn8 O31 2.255239 1_545
Mn9 O17 2.130681 1_555
Mn9 O20 2.137479 1_555
Mn9 O24 2.158771 1_555
Mn9 O22 2.158907 1_555
Mn9 O23 2.201512 1_555
Mn9 O18 2.209873 1_555
Mn10 O25 2.053146 1_555
Mn10 O24 2.056251 1_555
Mn10 O12 2.070211 1_655
Mn10 O19 2.111775 1_555
Mn11 O14 2.130681 1_565
Mn11 O29 2.137479 1_555
Mn11 O26 2.158771 1_555
Mn11 O28 2.158907 1_555
Mn11 O8 2.201512 1_565
Mn11 O30 2.209873 1_555
Mn12 O5 2.048332 1_556
Mn12 O30 2.048698 1_555
Mn12 O22 2.067560 1_655
Mn12 O27 2.106343 1_555
Mn13 O29 2.060423 1_655
Mn13 O15 2.064490 1_556
Mn13 O23 2.087070 1_565
Mn13 O31 2.092848 1_555
O0 V5 2.031591 1_545
O0 V0 2.042045 1_554
O1 V0 1.951480 1_554
O2 V5 1.995112 1_545
O2 V0 2.003480 1_554
O3 V2 2.034892 1_555
O3 V6 2.053329 1_555
O3 V3 2.062875 1_555
O4 V2 1.995112 1_555
O4 V1 2.003480 1_545
O5 V2 1.929565 1_555
O6 V6 1.993564 1_555
O6 V2 1.993768 1_555
O7 V6 1.989204 1_555
O7 V3 2.021739 1_555
O8 V9 1.993189 1_545
O8 V1 2.010189 1_545
O9 V2 2.031591 1_555
O9 V1 2.042045 1_545
O10 V3 1.993509 1_555
O10 V2 2.015024 1_555
O11 V8 2.031328 1_455
O11 V4 2.048142 1_555
O12 V4 1.993509 1_555
O12 V5 2.015024 1_555
O13 V6 1.989204 1_655
O13 V4 2.021739 1_555
O14 V9 1.927647 1_645
O15 V6 1.993564 1_655
O15 V5 1.993768 1_555
O16 V5 1.929565 1_555
O17 V8 1.927647 1_455
O18 V4 1.995141 1_555
O18 V8 2.005288 1_455
O19 V5 2.034892 1_555
O19 V6 2.053329 1_655
O19 V4 2.062875 1_555
O20 V4 1.928803 1_555
O21 V9 2.035460 1_555
O21 V1 2.051713 1_555
O21 V7 2.057094 1_555
O22 V7 1.990726 1_555
O22 V0 2.028098 1_555
O23 V8 1.993189 1_555
O23 V0 2.010189 1_555
O24 V7 1.992634 1_555
O24 V8 2.005717 1_555
O25 V1 1.951480 1_555
O26 V7 1.992634 1_555
O26 V9 2.005717 1_555
O27 V8 2.035460 1_555
O27 V0 2.051713 1_555
O27 V7 2.057094 1_555
O28 V7 1.990726 1_555
O28 V1 2.028098 1_555
O29 V3 1.928803 1_556
O30 V3 1.995141 1_556
O30 V9 2.005288 1_655
O31 V9 2.031328 1_655
O31 V3 2.048142 1_556
