# generated using pymatgen
data_K2CoS2
_symmetry_space_group_name_H-M   'P 1'
_cell_length_a   7.79604390
_cell_length_b   7.79604390
_cell_length_c   7.79604390
_cell_angle_alpha   135.20692173
_cell_angle_beta   128.15112094
_cell_angle_gamma   70.88934555
_symmetry_Int_Tables_number   1
_chemical_formula_structural   K2CoS2
_chemical_formula_sum   'K4 Co2 S4'
_cell_volume   257.20234570
_cell_formula_units_Z   2
loop_
 _symmetry_equiv_pos_site_id
 _symmetry_equiv_pos_as_xyz
  1  'x, y, z'
loop_
 _atom_site_type_symbol
 _atom_site_label
 _atom_site_symmetry_multiplicity
 _atom_site_fract_x
 _atom_site_fract_y
 _atom_site_fract_z
 _atom_site_occupancy
  K  K0  1  0.18696800  0.35372100  0.83324700  1
  K  K1  1  0.81303200  0.64627900  0.16675300  1
  K  K2  1  0.52047400  0.85372100  0.66675300  1
  K  K3  1  0.47952600  0.14627900  0.33324700  1
  Co  Co0  1  0.00000000  0.75000000  0.75000000  1
  Co  Co1  1  0.00000000  0.25000000  0.25000000  1
  S  S0  1  0.71971600  0.40108100  0.31863500  1
  S  S1  1  0.28028400  0.59891900  0.68136500  1
  S  S2  1  0.91755400  0.09891900  0.81863500  1
  S  S3  1  0.08244600  0.90108100  0.18136500  1
loop_
_geom_bond_atom_site_label_1
_geom_bond_atom_site_label_2
_geom_bond_distance
_geom_bond_site_symmetry_2
K0 S3 3.202674 1_556
K0 S3 3.202674 1_545
K0 S2 3.238154 1_455
K0 S1 3.282194 1_555
K0 S0 3.362958 1_556
K0 S0 3.559133 1_455
K1 S2 3.202674 1_554
K1 S2 3.202674 1_565
K1 S3 3.238154 1_655
K1 S0 3.282194 1_555
K1 S1 3.362958 1_554
K1 S1 3.559133 1_655
K2 S0 3.202674 1_555
K2 S0 3.202674 1_566
K2 S1 3.238154 1_555
K2 S2 3.282194 1_565
K2 S3 3.362958 1_555
K2 S3 3.559133 1_656
K3 S1 3.202674 1_544
K3 S1 3.202674 1_555
K3 S0 3.238154 1_555
K3 S3 3.282194 1_545
K3 S2 3.362958 1_555
K3 S2 3.559133 1_454
Co0 S2 2.305017 1_465
Co0 S1 2.305017 1_555
Co0 S0 2.305017 1_455
Co0 S3 2.305017 1_556
Co0 K3 3.289174 1_566
Co0 K2 3.289174 1_455
Co0 K0 3.289174 1_555
Co0 K1 3.289174 1_455
Co1 S2 2.305017 1_454
Co1 S0 2.305017 1_455
Co1 S1 2.305017 1_555
Co1 S3 2.305017 1_545
Co1 K3 3.289174 1_555
Co1 K1 3.289174 1_455
Co1 K2 3.289174 1_444
Co1 K0 3.289174 1_555
