# generated using pymatgen
data_VCuO3
_symmetry_space_group_name_H-M   'P 1'
_cell_length_a   5.56175335
_cell_length_b   5.56175335
_cell_length_c   5.56175281
_cell_angle_alpha   53.42632745
_cell_angle_beta   53.42632745
_cell_angle_gamma   53.42632882
_symmetry_Int_Tables_number   1
_chemical_formula_structural   VCuO3
_chemical_formula_sum   'V2 Cu2 O6'
_cell_volume   102.93500469
_cell_formula_units_Z   2
loop_
 _symmetry_equiv_pos_site_id
 _symmetry_equiv_pos_as_xyz
  1  'x, y, z'
loop_
 _atom_site_type_symbol
 _atom_site_label
 _atom_site_symmetry_multiplicity
 _atom_site_fract_x
 _atom_site_fract_y
 _atom_site_fract_z
 _atom_site_occupancy
  V  V0  1  0.35277500  0.35277500  0.35277500  1
  V  V1  1  0.64722500  0.64722500  0.64722500  1
  Cu  Cu0  1  0.14035900  0.14035900  0.14035900  1
  Cu  Cu1  1  0.85964100  0.85964100  0.85964100  1
  O  O0  1  0.71554600  0.06641300  0.44631000  1
  O  O1  1  0.06641300  0.44631000  0.71554600  1
  O  O2  1  0.44631000  0.71554600  0.06641300  1
  O  O3  1  0.28445400  0.93358700  0.55369000  1
  O  O4  1  0.55369000  0.28445400  0.93358700  1
  O  O5  1  0.93358700  0.55369000  0.28445400  1
loop_
_geom_bond_atom_site_label_1
_geom_bond_atom_site_label_2
_geom_bond_distance
_geom_bond_site_symmetry_2
Cu0 O1 2.044467 1_554
Cu0 O0 2.044467 1_455
Cu0 O2 2.044467 1_545
Cu0 O3 2.279510 1_545
Cu0 O5 2.279510 1_455
Cu0 O4 2.279510 1_554
Cu1 O5 2.044467 1_556
Cu1 O3 2.044467 1_655
Cu1 O4 2.044467 1_565
Cu1 O0 2.279510 1_565
Cu1 O1 2.279510 1_655
Cu1 O2 2.279510 1_556
O0 V0 1.819911 1_555
O0 V1 2.067278 1_545
O1 V0 1.819911 1_555
O1 V1 2.067277 1_455
O2 V0 1.819911 1_555
O2 V1 2.067277 1_554
O3 V1 1.819911 1_555
O3 V0 2.067278 1_565
O4 V1 1.819911 1_555
O4 V0 2.067277 1_556
O5 V1 1.819911 1_555
O5 V0 2.067277 1_655
