# generated using pymatgen
data_Li19(FeAs)20
_symmetry_space_group_name_H-M   'P 1'
_cell_length_a   8.37564100
_cell_length_b   8.46601226
_cell_length_c   13.01922262
_cell_angle_alpha   97.62867300
_cell_angle_beta   104.99611474
_cell_angle_gamma   89.54049252
_symmetry_Int_Tables_number   1
_chemical_formula_structural   Li19(FeAs)20
_chemical_formula_sum   'Li19 Fe20 As20'
_cell_volume   883.50378010
_cell_formula_units_Z   1
loop_
 _symmetry_equiv_pos_site_id
 _symmetry_equiv_pos_as_xyz
  1  'x, y, z'
loop_
 _atom_site_type_symbol
 _atom_site_label
 _atom_site_symmetry_multiplicity
 _atom_site_fract_x
 _atom_site_fract_y
 _atom_site_fract_z
 _atom_site_occupancy
  Li  Li0  1  0.41787400  0.08129500  0.66841900  1
  Li  Li1  1  0.78263300  0.01543500  0.82983600  1
  Li  Li2  1  0.81947600  0.28375700  0.66798000  1
  Li  Li3  1  0.61571500  0.18395500  0.16857700  1
  Li  Li4  1  0.18069700  0.21528900  0.82975800  1
  Li  Li5  1  0.98384900  0.11555400  0.33228300  1
  Li  Li6  1  0.01796800  0.38257700  0.16812400  1
  Li  Li7  1  0.21481800  0.48341800  0.66829500  1
  Li  Li8  1  0.38312600  0.31615500  0.33185000  1
  Li  Li9  1  0.58282700  0.41644900  0.83220100  1
  Li  Li10  1  0.61723600  0.68685200  0.66834100  1
  Li  Li11  1  0.41669000  0.58436700  0.16760600  1
  Li  Li12  1  0.78176400  0.51670400  0.33204300  1
  Li  Li13  1  0.98292300  0.61673000  0.82983200  1
  Li  Li14  1  0.81867800  0.78363200  0.16923900  1
  Li  Li15  1  0.38164900  0.81629200  0.83016000  1
  Li  Li16  1  0.18276000  0.71589100  0.33232600  1
  Li  Li17  1  0.21739900  0.98390800  0.16806200  1
  Li  Li18  1  0.58261700  0.91714600  0.33188300  1
  Fe  Fe0  1  0.34527400  0.04803800  0.99880400  1
  Fe  Fe1  1  0.75067100  0.24937500  0.99970000  1
  Fe  Fe2  1  0.54927500  0.15142900  0.50092600  1
  Fe  Fe3  1  0.04985500  0.14774900  0.99924800  1
  Fe  Fe4  1  0.84932500  0.05007000  0.50050900  1
  Fe  Fe5  1  0.15007100  0.44991700  0.00045700  1
  Fe  Fe6  1  0.94935300  0.34992300  0.49876000  1
  Fe  Fe7  1  0.44811400  0.34920200  0.99966100  1
  Fe  Fe8  1  0.25424100  0.25193000  0.50107500  1
  Fe  Fe9  1  0.54926800  0.65032400  0.99967400  1
  Fe  Fe10  1  0.35090100  0.54869300  0.50057500  1
  Fe  Fe11  1  0.64617800  0.44881200  0.50093300  1
  Fe  Fe12  1  0.85158400  0.55073800  0.99980000  1
  Fe  Fe13  1  0.95450900  0.85228800  0.99932700  1
  Fe  Fe14  1  0.74772800  0.74994200  0.50043600  1
  Fe  Fe15  1  0.24833200  0.75155800  0.99918900  1
  Fe  Fe16  1  0.05173100  0.64973600  0.50070600  1
  Fe  Fe17  1  0.15328900  0.95013000  0.50074600  1
  Fe  Fe18  1  0.44986400  0.85016700  0.49928600  1
  Fe  Fe19  1  0.65085000  0.95027500  0.00126600  1
  As  As0  1  0.50240200  0.12513200  0.88389400  1
  As  As1  1  0.30292700  0.02978300  0.38307700  1
  As  As2  1  0.90182000  0.32655100  0.88344700  1
  As  As3  1  0.70466900  0.22828300  0.38503300  1
  As  As4  1  0.89513500  0.07193400  0.11589700  1
  As  As5  1  0.09658100  0.17255300  0.61562600  1
  As  As6  1  0.10255600  0.42467500  0.38446100  1
  As  As7  1  0.30461500  0.52699000  0.88361000  1
  As  As8  1  0.29709800  0.27011900  0.11618200  1
  As  As9  1  0.49707000  0.37360300  0.61763300  1
  As  As10  1  0.70455600  0.72812000  0.88371800  1
  As  As11  1  0.50330600  0.62391000  0.38296400  1
  As  As12  1  0.89568200  0.57387100  0.61576500  1
  As  As13  1  0.69699000  0.47338500  0.11706400  1
  As  As14  1  0.10391200  0.92683500  0.88225600  1
  As  As15  1  0.90390000  0.82677200  0.38424300  1
  As  As16  1  0.29371600  0.77318700  0.61681200  1
  As  As17  1  0.09599500  0.67576000  0.11665900  1
  As  As18  1  0.70069600  0.97366100  0.61662200  1
  As  As19  1  0.49633800  0.87471400  0.11484400  1
loop_
_geom_bond_atom_site_label_1
_geom_bond_atom_site_label_2
_geom_bond_distance
_geom_bond_site_symmetry_2
Fe0 Fe3 2.609121 1_555
Fe0 Fe15 2.645287 1_545
Fe0 Fe19 2.677157 1_546
Fe0 Fe7 2.695460 1_555
Fe0 Li17 2.801095 1_546
Fe0 Li15 2.820587 1_545
Fe0 Li4 2.823976 1_555
Fe0 Li3 2.848835 1_556
Fe1 Li9 2.816557 1_555
Fe1 Li6 2.816996 1_656
Fe1 Li1 2.831941 1_555
Fe1 Li3 2.835127 1_556
Fe2 Fe8 2.607410 1_555
Fe2 Fe4 2.650158 1_555
Fe2 Li0 2.813390 1_555
Fe2 Li8 2.815227 1_555
Fe2 Li2 2.820196 1_555
Fe2 Li18 2.829450 1_545
Fe3 Li17 2.811717 1_546
Fe3 Li1 2.821066 1_455
Fe3 Li6 2.827106 1_556
Fe3 Li4 2.827298 1_555
Fe4 Li2 2.803450 1_555
Fe4 Li18 2.814713 1_545
Fe4 Li5 2.825450 1_555
Fe5 Li11 2.808249 1_555
Fe5 Li6 2.811532 1_555
Fe5 Li4 2.839920 1_554
Fe5 Li13 2.842676 1_454
Fe6 Fe8 2.672644 1_655
Fe6 Li12 2.807194 1_555
Fe6 Li5 2.809113 1_555
Fe6 Li2 2.815754 1_555
Fe6 Li7 2.816210 1_655
Fe7 Li11 2.819125 1_556
Fe7 Li3 2.819884 1_556
Fe7 Li9 2.821941 1_555
Fe7 Li4 2.829465 1_555
Fe8 Li8 2.805924 1_555
Fe8 Li7 2.813939 1_555
Fe8 Li0 2.823211 1_555
Fe8 Li5 2.843215 1_455
Fe9 Li9 2.813429 1_555
Fe9 Li11 2.813436 1_556
Fe9 Li15 2.829150 1_555
Fe9 Li14 2.835554 1_556
Fe10 Fe11 2.606335 1_555
Fe10 Fe16 2.641580 1_555
Fe10 Fe8 2.647135 1_555
Fe10 Fe18 2.693320 1_555
Fe10 Li8 2.814957 1_555
Fe10 Li10 2.820813 1_555
Fe10 Li16 2.824876 1_555
Fe10 Li7 2.826834 1_555
Fe11 Fe2 2.651408 1_555
Fe11 Fe6 2.673285 1_555
Fe11 Fe14 2.695323 1_555
Fe11 Li8 2.799059 1_555
Fe11 Li2 2.816021 1_555
Fe11 Li10 2.823069 1_555
Fe11 Li12 2.844826 1_555
Fe12 Fe13 2.702377 1_555
Fe12 Li9 2.821577 1_555
Fe12 Li14 2.825047 1_556
Fe12 Li6 2.826191 1_656
Fe12 Li13 2.831393 1_555
Fe13 Fe15 2.598416 1_655
Fe13 Fe3 2.632066 1_665
Fe13 Fe19 2.674173 1_556
Fe13 Li17 2.793212 1_656
Fe13 Li1 2.825377 1_565
Fe13 Li13 2.828228 1_555
Fe13 Li14 2.860071 1_556
Fe14 Li10 2.795386 1_555
Fe14 Li12 2.819877 1_555
Fe14 Li18 2.820392 1_555
Fe15 Fe9 2.654469 1_555
Fe15 Fe5 2.692749 1_556
Fe15 Li17 2.812240 1_556
Fe15 Li13 2.818164 1_455
Fe15 Li11 2.826934 1_556
Fe15 Li15 2.826942 1_555
Fe16 Li7 2.802056 1_555
Fe16 Li16 2.811508 1_555
Fe16 Li12 2.831564 1_455
Fe17 Fe8 2.696862 1_565
Fe17 Li0 2.793167 1_565
Fe17 Li16 2.814103 1_555
Fe17 Li5 2.821103 1_465
Fe18 Fe2 2.684981 1_565
Fe18 Li16 2.808960 1_555
Fe18 Li18 2.810729 1_555
Fe18 Li10 2.810912 1_555
Fe18 Li0 2.811094 1_565
Fe19 Li3 2.814867 1_565
Fe19 Li14 2.818725 1_555
Fe19 Li15 2.846710 1_554
Fe19 Li1 2.848764 1_564
As0 Fe7 2.378788 1_555
As0 Fe19 2.379123 1_546
As0 Fe0 2.384958 1_555
As0 Fe1 2.386435 1_555
As0 Li0 2.684909 1_555
As0 Li4 2.732515 1_555
As0 Li1 2.741005 1_555
As0 Li15 2.745774 1_545
As0 Li9 2.773307 1_555
As1 Fe8 2.368151 1_555
As1 Fe2 2.376603 1_555
As1 Fe17 2.377793 1_545
As1 Fe18 2.394404 1_545
As1 Li17 2.679232 1_545
As1 Li5 2.699728 1_455
As1 Li18 2.728495 1_545
As1 Li8 2.731507 1_555
As1 Li16 2.782800 1_545
As2 Fe1 2.363839 1_555
As2 Fe12 2.372280 1_555
As2 Fe5 2.389146 1_656
As2 Fe3 2.389592 1_655
As2 Li2 2.684974 1_555
As2 Li9 2.709695 1_555
As2 Li4 2.732491 1_655
As2 Li1 2.759472 1_555
As2 Li13 2.776920 1_555
As3 Fe6 2.347650 1_555
As3 Fe11 2.371175 1_555
As3 Fe4 2.373771 1_555
As3 Fe2 2.384199 1_555
As3 Li3 2.697163 1_555
As3 Li8 2.724959 1_555
As3 Li5 2.733385 1_555
As3 Li12 2.749228 1_555
As3 Li18 2.766849 1_545
As4 Fe19 2.349439 1_545
As4 Fe13 2.373786 1_544
As4 Fe1 2.374068 1_554
As4 Fe3 2.385010 1_654
As4 Li5 2.696270 1_555
As4 Li17 2.730489 1_645
As4 Li3 2.732997 1_555
As4 Li14 2.748633 1_545
As4 Li6 2.764741 1_655
As5 Fe17 2.369368 1_545
As5 Fe4 2.371876 1_455
As5 Fe6 2.386710 1_455
As5 Fe8 2.391437 1_555
As5 Li4 2.668168 1_555
As5 Li2 2.711256 1_455
As5 Li0 2.731562 1_555
As5 Li7 2.754715 1_555
As6 Fe6 2.347904 1_455
As6 Fe8 2.370524 1_555
As6 Fe16 2.378416 1_555
As6 Fe10 2.387593 1_555
As6 Li6 2.695687 1_555
As6 Li12 2.729568 1_455
As6 Li8 2.732543 1_555
As6 Li5 2.742079 1_455
As6 Li16 2.774381 1_555
As7 Fe9 2.363365 1_555
As7 Fe7 2.372312 1_555
As7 Fe15 2.386251 1_555
As7 Fe5 2.389894 1_556
As7 Li7 2.683036 1_555
As7 Li9 2.712831 1_555
As7 Li13 2.731157 1_455
As7 Li15 2.758534 1_555
As7 Li4 2.776421 1_555
As8 Fe0 2.361598 1_554
As8 Fe7 2.371852 1_554
As8 Fe3 2.379790 1_554
As8 Fe5 2.392099 1_555
As8 Li8 2.687367 1_555
As8 Li3 2.697742 1_555
As8 Li6 2.727823 1_555
As8 Li17 2.732557 1_545
As8 Li11 2.784281 1_555
As9 Fe8 2.349846 1_555
As9 Fe11 2.350545 1_555
As9 Fe2 2.368456 1_555
As9 Fe10 2.371452 1_555
As9 Li9 2.673564 1_555
As9 Li2 2.735613 1_555
As9 Li7 2.738055 1_555
As9 Li0 2.772896 1_555
As9 Li10 2.777746 1_555
As10 Fe19 2.379113 1_556
As10 Fe12 2.380218 1_555
As10 Fe9 2.387125 1_555
As10 Fe13 2.395376 1_555
As10 Li10 2.683711 1_555
As10 Li13 2.730007 1_555
As10 Li15 2.736403 1_555
As10 Li1 2.748152 1_565
As10 Li9 2.769658 1_555
As11 Fe11 2.369221 1_555
As11 Fe14 2.376969 1_555
As11 Fe10 2.379691 1_555
As11 Fe18 2.393701 1_555
As11 Li11 2.683594 1_555
As11 Li12 2.703547 1_555
As11 Li16 2.726876 1_555
As11 Li8 2.734874 1_555
As11 Li18 2.782077 1_555
As12 Fe14 2.369341 1_555
As12 Fe16 2.376311 1_655
As12 Fe6 2.385596 1_555
As12 Fe11 2.391976 1_555
As12 Li13 2.667350 1_555
As12 Li7 2.712763 1_655
As12 Li10 2.727441 1_555
As12 Li2 2.755900 1_555
As13 Fe1 2.388719 1_554
As13 Fe9 2.389572 1_554
As13 Fe12 2.395464 1_554
As13 Fe7 2.397159 1_554
As13 Li12 2.678708 1_555
As13 Li11 2.725321 1_555
As13 Li6 2.727286 1_655
As13 Li14 2.758615 1_555
As13 Li3 2.759812 1_555
As14 Fe0 2.339757 1_565
As14 Fe13 2.354223 1_455
As14 Fe15 2.366592 1_555
As14 Fe3 2.368502 1_565
As14 Li15 2.712975 1_555
As14 Li1 2.724443 1_465
As14 Li4 2.745945 1_565
As14 Li13 2.755759 1_455
As15 Fe4 2.378747 1_565
As15 Fe16 2.383387 1_655
As15 Fe14 2.391931 1_555
As15 Fe17 2.393569 1_655
As15 Li14 2.679006 1_555
As15 Li16 2.721506 1_655
As15 Li18 2.729002 1_555
As15 Li5 2.753728 1_565
As15 Li12 2.758404 1_555
As16 Fe16 2.348222 1_555
As16 Fe17 2.358759 1_555
As16 Fe10 2.393440 1_555
As16 Fe18 2.406324 1_555
As16 Li15 2.658443 1_555
As16 Li10 2.735759 1_555
As16 Li0 2.748350 1_565
As16 Li7 2.756060 1_555
As17 Fe13 2.369008 1_454
As17 Fe12 2.370873 1_454
As17 Fe15 2.379551 1_554
As17 Fe5 2.392134 1_555
As17 Li16 2.687396 1_555
As17 Li14 2.705630 1_455
As17 Li11 2.726588 1_555
As17 Li17 2.741246 1_555
As17 Li6 2.780468 1_555
As18 Fe4 2.345166 1_565
As18 Fe14 2.359299 1_555
As18 Fe2 2.392686 1_565
As18 Fe18 2.406392 1_555
As18 Li1 2.656867 1_565
As18 Li0 2.743226 1_565
As18 Li10 2.746405 1_555
As18 Li2 2.749634 1_565
As19 Fe19 2.350596 1_555
As19 Fe0 2.367697 1_564
As19 Fe9 2.372307 1_554
As19 Fe15 2.380847 1_554
As19 Li18 2.704376 1_555
As19 Li17 2.725050 1_555
As19 Li14 2.739928 1_555
As19 Li3 2.745354 1_565
As19 Li11 2.769622 1_555
