# generated using pymatgen
data_LiUP(H4O5)2
_symmetry_space_group_name_H-M   'P 1'
_cell_length_a   6.87376560
_cell_length_b   6.87376560
_cell_length_c   9.04361237
_cell_angle_alpha   90.00000000
_cell_angle_beta   90.00000000
_cell_angle_gamma   90.00000000
_symmetry_Int_Tables_number   1
_chemical_formula_structural   LiUP(H4O5)2
_chemical_formula_sum   'Li2 U2 P2 H16 O20'
_cell_volume   427.29850747
_cell_formula_units_Z   2
loop_
 _symmetry_equiv_pos_site_id
 _symmetry_equiv_pos_as_xyz
  1  'x, y, z'
loop_
 _atom_site_type_symbol
 _atom_site_label
 _atom_site_symmetry_multiplicity
 _atom_site_fract_x
 _atom_site_fract_y
 _atom_site_fract_z
 _atom_site_occupancy
  Li  Li0  1  0.00000000  0.00000000  0.50000000  1
  Li  Li1  1  0.50000000  0.50000000  0.50000000  1
  U  U0  1  0.50000000  0.00000000  0.10154680  1
  U  U1  1  0.00000000  0.50000000  0.89845320  1
  P  P0  1  0.00000000  0.00000000  0.00000000  1
  P  P1  1  0.50000000  0.50000000  0.00000000  1
  H  H0  1  0.58310709  0.32712169  0.73020397  1
  H  H1  1  0.16875594  0.35623294  0.38161561  1
  H  H2  1  0.64376706  0.16875594  0.61838439  1
  H  H3  1  0.91689291  0.17287831  0.26979603  1
  H  H4  1  0.14376706  0.66875594  0.38161561  1
  H  H5  1  0.17287831  0.08310709  0.73020397  1
  H  H6  1  0.82712169  0.91689291  0.73020397  1
  H  H7  1  0.66875594  0.85623294  0.61838439  1
  H  H8  1  0.41689291  0.67287831  0.73020397  1
  H  H9  1  0.85623294  0.33124406  0.38161561  1
  H  H10  1  0.33124406  0.14376706  0.61838439  1
  H  H11  1  0.32712169  0.41689291  0.26979603  1
  H  H12  1  0.08310709  0.82712169  0.26979603  1
  H  H13  1  0.67287831  0.58310709  0.26979603  1
  H  H14  1  0.35623294  0.83124406  0.61838439  1
  H  H15  1  0.83124406  0.64376706  0.38161561  1
  O  O0  1  0.44484618  0.32955020  0.10138794  1
  O  O1  1  0.50000000  0.00000000  0.90271767  1
  O  O2  1  0.17044980  0.94484618  0.10138794  1
  O  O3  1  0.55515382  0.67044980  0.10138794  1
  O  O4  1  0.44475823  0.71961223  0.63002811  1
  O  O5  1  0.67044980  0.44484618  0.89861206  1
  O  O6  1  0.78038777  0.94475823  0.63002811  1
  O  O7  1  0.00000000  0.50000000  0.09728233  1
  O  O8  1  0.55524177  0.28038777  0.63002811  1
  O  O9  1  0.21961223  0.05524177  0.63002811  1
  O  O10  1  0.82955020  0.05515382  0.10138794  1
  O  O11  1  0.00000000  0.50000000  0.69952191  1
  O  O12  1  0.50000000  0.00000000  0.30047809  1
  O  O13  1  0.71961223  0.55524177  0.36997189  1
  O  O14  1  0.94475823  0.21961223  0.36997189  1
  O  O15  1  0.28038777  0.44475823  0.36997189  1
  O  O16  1  0.32955020  0.55515382  0.89861206  1
  O  O17  1  0.05524177  0.78038777  0.36997189  1
  O  O18  1  0.94484618  0.82955020  0.89861206  1
  O  O19  1  0.05515382  0.17044980  0.89861206  1
loop_
_geom_bond_atom_site_label_1
_geom_bond_atom_site_label_2
_geom_bond_distance
_geom_bond_site_symmetry_2
Li0 O17 1.950837 1_545
Li0 O14 1.950837 1_455
Li0 O6 1.950837 1_445
Li0 O9 1.950837 1_555
Li1 O13 1.950837 1_555
Li1 O15 1.950837 1_555
Li1 O4 1.950837 1_555
Li1 O8 1.950837 1_555
H0 O8 0.980117 1_555
H1 O15 0.984967 1_555
H2 O8 0.984967 1_555
H3 O14 0.980117 1_555
H4 O17 0.984967 1_555
H5 O9 0.980117 1_555
H6 O6 0.980117 1_555
H7 O6 0.984967 1_555
H8 O4 0.980117 1_555
H9 O14 0.984967 1_555
H10 O9 0.984967 1_555
H11 O15 0.980117 1_555
H12 O17 0.980117 1_555
H13 O13 0.980117 1_555
H14 O4 0.984967 1_555
H15 O13 0.984967 1_555
O0 P1 1.535311 1_555
O0 U0 2.296757 1_555
O1 U0 1.798134 1_556
O2 P0 1.535311 1_565
O2 U0 2.296757 1_565
O3 P1 1.535311 1_555
O3 U0 2.296757 1_565
O5 P1 1.535311 1_556
O5 U1 2.296757 1_655
O7 U1 1.798134 1_554
O10 P0 1.535311 1_655
O10 U0 2.296757 1_555
O11 U1 1.799057 1_555
O12 U0 1.799057 1_555
O16 P1 1.535311 1_556
O16 U1 2.296757 1_555
O18 P0 1.535311 1_666
O18 U1 2.296757 1_655
O19 P0 1.535311 1_556
O19 U1 2.296757 1_555
