# generated using pymatgen
data_Pr2Ti3(ClO4)2
_symmetry_space_group_name_H-M   'P 1'
_cell_length_a   5.04961298
_cell_length_b   11.67792692
_cell_length_c   14.83773221
_cell_angle_alpha   90.00000000
_cell_angle_beta   90.00000000
_cell_angle_gamma   90.00000000
_symmetry_Int_Tables_number   1
_chemical_formula_structural   Pr2Ti3(ClO4)2
_chemical_formula_sum   'Pr8 Ti12 Cl8 O32'
_cell_volume   874.96639917
_cell_formula_units_Z   4
loop_
 _symmetry_equiv_pos_site_id
 _symmetry_equiv_pos_as_xyz
  1  'x, y, z'
loop_
 _atom_site_type_symbol
 _atom_site_label
 _atom_site_symmetry_multiplicity
 _atom_site_fract_x
 _atom_site_fract_y
 _atom_site_fract_z
 _atom_site_occupancy
  Pr  Pr0  1  0.02210391  0.86254253  0.16146949  1
  Pr  Pr1  1  0.47789609  0.86254253  0.83853051  1
  Pr  Pr2  1  0.52210391  0.13745747  0.16146949  1
  Pr  Pr3  1  0.97789609  0.13745747  0.83853051  1
  Pr  Pr4  1  0.02210391  0.36254253  0.33853051  1
  Pr  Pr5  1  0.47789609  0.36254253  0.66146949  1
  Pr  Pr6  1  0.97789609  0.63745747  0.66146949  1
  Pr  Pr7  1  0.52210391  0.63745747  0.33853051  1
  Ti  Ti0  1  0.75000000  0.09058488  0.50000000  1
  Ti  Ti1  1  0.25000000  0.40941512  0.00000000  1
  Ti  Ti2  1  0.25000000  0.90941512  0.50000000  1
  Ti  Ti3  1  0.62741208  0.42318764  0.16243118  1
  Ti  Ti4  1  0.12741108  0.07681236  0.33756882  1
  Ti  Ti5  1  0.37258792  0.57681236  0.83756882  1
  Ti  Ti6  1  0.87258792  0.42318764  0.83756882  1
  Ti  Ti7  1  0.75000000  0.59058488  0.00000000  1
  Ti  Ti8  1  0.12741108  0.57681236  0.16243118  1
  Ti  Ti9  1  0.62741208  0.92318764  0.33756882  1
  Ti  Ti10  1  0.37258792  0.07681236  0.66243118  1
  Ti  Ti11  1  0.87258792  0.92318764  0.66243118  1
  Cl  Cl0  1  0.48272480  0.60347559  0.57528758  1
  Cl  Cl1  1  0.51727520  0.39652441  0.42471242  1
  Cl  Cl2  1  0.01727520  0.60347559  0.42471242  1
  Cl  Cl3  1  0.51727520  0.89652441  0.07528758  1
  Cl  Cl4  1  0.01727520  0.10347559  0.07528758  1
  Cl  Cl5  1  0.98272480  0.89652441  0.92471242  1
  Cl  Cl6  1  0.48272480  0.10347559  0.92471242  1
  Cl  Cl7  1  0.98272480  0.39652441  0.57528758  1
  O  O0  1  0.43734738  0.54475513  0.07644541  1
  O  O1  1  0.67154526  0.53078519  0.76296899  1
  O  O2  1  0.82845474  0.53078519  0.23703101  1
  O  O3  1  0.74879329  0.29929320  0.22064988  1
  O  O4  1  0.82845474  0.03078519  0.26296899  1
  O  O5  1  0.57429471  0.18103678  0.58117313  1
  O  O6  1  0.25120671  0.70070680  0.77935012  1
  O  O7  1  0.25120671  0.20070680  0.72064988  1
  O  O8  1  0.67154526  0.03078519  0.73703101  1
  O  O9  1  0.32845474  0.96921481  0.26296899  1
  O  O10  1  0.07429571  0.81896322  0.58117313  1
  O  O11  1  0.75120671  0.79929320  0.72064988  1
  O  O12  1  0.93734738  0.95524487  0.42355459  1
  O  O13  1  0.07429571  0.31896322  0.91882687  1
  O  O14  1  0.17154526  0.96921481  0.73703101  1
  O  O15  1  0.06265262  0.54475513  0.92355459  1
  O  O16  1  0.06265262  0.04475513  0.57644541  1
  O  O17  1  0.57429471  0.68103678  0.91882687  1
  O  O18  1  0.24879329  0.70070680  0.22064988  1
  O  O19  1  0.56265262  0.45524487  0.92355459  1
  O  O20  1  0.32845474  0.46921481  0.23703101  1
  O  O21  1  0.42570529  0.81896322  0.41882687  1
  O  O22  1  0.56265262  0.95524487  0.57644541  1
  O  O23  1  0.92570529  0.68103678  0.08117313  1
  O  O24  1  0.17154526  0.46921481  0.76296899  1
  O  O25  1  0.42570529  0.31896322  0.08117313  1
  O  O26  1  0.74879329  0.79929320  0.27935012  1
  O  O27  1  0.43734738  0.04475513  0.42355459  1
  O  O28  1  0.93734738  0.45524487  0.07644541  1
  O  O29  1  0.92570529  0.18103678  0.41882687  1
  O  O30  1  0.75120671  0.29929320  0.77935012  1
  O  O31  1  0.24879329  0.20070680  0.27935012  1
loop_
_geom_bond_atom_site_label_1
_geom_bond_atom_site_label_2
_geom_bond_distance
_geom_bond_site_symmetry_2
Cl0 Pr6 2.836333 1_555
Cl0 Pr6 2.879416 1_455
Cl0 Pr5 3.090650 1_555
Cl1 Pr4 2.836333 1_555
Cl1 Pr4 2.879416 1_655
Cl1 Pr7 3.090650 1_555
Cl2 Pr7 2.836333 1_455
Cl2 Pr7 2.879416 1_555
Cl2 Pr4 3.090650 1_555
Cl3 Pr0 2.836333 1_555
Cl3 Pr0 2.879416 1_655
Cl3 Pr2 3.090650 1_565
Cl4 Pr2 2.836333 1_455
Cl4 Pr2 2.879416 1_555
Cl4 Pr0 3.090650 1_545
Cl5 Pr1 2.836333 1_655
Cl5 Pr1 2.879416 1_555
Cl5 Pr3 3.090650 1_565
Cl6 Pr3 2.836333 1_555
Cl6 Pr3 2.879416 1_455
Cl6 Pr1 3.090650 1_545
Cl7 Pr5 2.836333 1_655
Cl7 Pr5 2.879416 1_555
Cl7 Pr6 3.090650 1_555
O0 Ti7 2.016320 1_555
O0 Ti8 2.053608 1_555
O0 Ti3 2.136423 1_555
O0 Ti1 2.163218 1_555
O1 Ti5 1.947580 1_555
O1 Ti6 1.958226 1_555
O1 Pr6 2.492582 1_555
O1 Pr5 2.661662 1_555
O2 Ti8 1.947576 1_655
O2 Ti3 1.958226 1_555
O2 Pr7 2.492582 1_555
O2 Pr4 2.661662 1_655
O3 Ti3 1.793100 1_555
O3 Pr4 2.347245 1_655
O3 Pr2 2.377632 1_555
O4 Ti4 1.947576 1_655
O4 Ti9 1.958226 1_545
O4 Pr2 2.492582 1_555
O4 Pr0 2.661662 1_645
O5 Ti0 1.831281 1_555
O5 Ti10 1.993112 1_555
O5 Pr5 2.479753 1_555
O6 Ti5 1.793100 1_555
O6 Pr6 2.347245 1_455
O6 Pr1 2.377632 1_555
O7 Ti10 1.793100 1_555
O7 Pr3 2.347245 1_455
O7 Pr5 2.377632 1_555
O8 Ti10 1.947580 1_555
O8 Ti11 1.958226 1_545
O8 Pr3 2.492582 1_555
O8 Pr1 2.661662 1_545
O9 Ti9 1.947580 1_555
O9 Ti4 1.958229 1_565
O9 Pr0 2.492582 1_555
O9 Pr2 2.661662 1_565
O10 Ti2 1.831279 1_555
O10 Ti11 1.993115 1_455
O10 Pr6 2.479754 1_455
O11 Ti11 1.793100 1_555
O11 Pr1 2.347245 1_555
O11 Pr6 2.377632 1_555
O12 Ti2 2.016320 1_655
O12 Ti9 2.053604 1_555
O12 Ti4 2.136420 1_665
O12 Ti0 2.163218 1_565
O13 Ti1 1.831279 1_556
O13 Ti6 1.993115 1_455
O13 Pr3 2.479754 1_455
O14 Ti11 1.947580 1_455
O14 Ti10 1.958226 1_565
O14 Pr1 2.492582 1_555
O14 Pr3 2.661662 1_465
O15 Ti7 2.016320 1_456
O15 Ti5 2.053604 1_555
O15 Ti6 2.136423 1_455
O15 Ti1 2.163218 1_556
O16 Ti0 2.016320 1_455
O16 Ti10 2.053604 1_555
O16 Ti11 2.136423 1_445
O16 Ti2 2.163218 1_545
O17 Ti7 1.831281 1_556
O17 Ti5 1.993112 1_555
O17 Pr1 2.479753 1_555
O18 Ti8 1.793102 1_555
O18 Pr7 2.347245 1_555
O18 Pr0 2.377632 1_555
O19 Ti1 2.016320 1_556
O19 Ti6 2.053604 1_555
O19 Ti5 2.136423 1_555
O19 Ti7 2.163218 1_556
O20 Ti3 1.947580 1_555
O20 Ti8 1.958229 1_555
O20 Pr4 2.492582 1_555
O20 Pr7 2.661662 1_555
O21 Ti2 1.831281 1_555
O21 Ti9 1.993112 1_555
O21 Pr7 2.479753 1_555
O22 Ti2 2.016320 1_555
O22 Ti11 2.053604 1_555
O22 Ti10 2.136423 1_565
O22 Ti0 2.163218 1_565
O23 Ti7 1.831281 1_555
O23 Ti8 1.993110 1_655
O23 Pr0 2.479753 1_655
O24 Ti6 1.947580 1_455
O24 Ti5 1.958226 1_555
O24 Pr5 2.492582 1_555
O24 Pr6 2.661662 1_455
O25 Ti1 1.831281 1_555
O25 Ti3 1.993112 1_555
O25 Pr2 2.479753 1_555
O26 Ti9 1.793100 1_555
O26 Pr0 2.347245 1_655
O26 Pr7 2.377632 1_555
O27 Ti0 2.016320 1_555
O27 Ti4 2.053608 1_555
O27 Ti9 2.136423 1_545
O27 Ti2 2.163218 1_545
O28 Ti1 2.016320 1_655
O28 Ti3 2.053604 1_555
O28 Ti8 2.136420 1_655
O28 Ti7 2.163218 1_555
O29 Ti0 1.831281 1_555
O29 Ti4 1.993110 1_655
O29 Pr4 2.479753 1_655
O30 Ti6 1.793100 1_555
O30 Pr5 2.347245 1_555
O30 Pr3 2.377632 1_555
O31 Ti4 1.793102 1_555
O31 Pr2 2.347245 1_555
O31 Pr4 2.377632 1_555
