# generated using pymatgen
data_Sc(Fe2P)2
_symmetry_space_group_name_H-M   'P 1'
_cell_length_a   7.21181161
_cell_length_b   7.21181161
_cell_length_c   3.52668448
_cell_angle_alpha   90.00000000
_cell_angle_beta   90.00000000
_cell_angle_gamma   90.00000000
_symmetry_Int_Tables_number   1
_chemical_formula_structural   Sc(Fe2P)2
_chemical_formula_sum   'Sc2 Fe8 P4'
_cell_volume   183.42365930
_cell_formula_units_Z   2
loop_
 _symmetry_equiv_pos_site_id
 _symmetry_equiv_pos_as_xyz
  1  'x, y, z'
loop_
 _atom_site_type_symbol
 _atom_site_label
 _atom_site_symmetry_multiplicity
 _atom_site_fract_x
 _atom_site_fract_y
 _atom_site_fract_z
 _atom_site_occupancy
  Sc  Sc0  1  0.00000000  -0.00000000  0.50000000  1
  Sc  Sc1  1  0.50000000  0.50000000  -0.00000000  1
  Fe  Fe0  1  0.33865391  0.08601804  0.00000000  1
  Fe  Fe1  1  0.58601804  0.16134609  0.50000000  1
  Fe  Fe2  1  0.41398196  0.83865391  0.50000000  1
  Fe  Fe3  1  0.66134609  0.91398196  0.00000000  1
  Fe  Fe4  1  0.16134609  0.58601804  0.50000000  1
  Fe  Fe5  1  0.83865391  0.41398196  0.50000000  1
  Fe  Fe6  1  0.08601804  0.33865391  0.00000000  1
  Fe  Fe7  1  0.91398196  0.66134609  0.00000000  1
  P  P0  1  0.79165903  0.20834097  -0.00000000  1
  P  P1  1  0.70834097  0.70834097  0.50000000  1
  P  P2  1  0.29165903  0.29165903  0.50000000  1
  P  P3  1  0.20834097  0.79165903  -0.00000000  1
loop_
_geom_bond_atom_site_label_1
_geom_bond_atom_site_label_2
_geom_bond_distance
_geom_bond_site_symmetry_2
Fe0 P3 2.321584 1_545
Fe0 P2 2.328876 1_555
Fe0 P2 2.328876 1_554
Fe1 P2 2.321584 1_555
Fe1 P0 2.328876 1_556
Fe1 P0 2.328876 1_555
Fe2 P1 2.321584 1_555
Fe2 P3 2.328876 1_556
Fe2 P3 2.328876 1_555
Fe3 P0 2.321584 1_565
Fe3 P1 2.328876 1_555
Fe3 P1 2.328876 1_554
Fe4 P2 2.321584 1_555
Fe4 P3 2.328876 1_556
Fe4 P3 2.328876 1_555
Fe5 P1 2.321584 1_555
Fe5 P0 2.328876 1_556
Fe5 P0 2.328876 1_555
Fe6 P0 2.321584 1_455
Fe6 P2 2.328876 1_554
Fe6 P2 2.328876 1_555
Fe7 P3 2.321584 1_655
Fe7 P1 2.328876 1_554
Fe7 P1 2.328876 1_555
P0 Sc0 2.761247 1_654
P0 Sc0 2.761247 1_655
P0 Sc1 2.974643 1_555
P1 Sc1 2.761247 1_555
P1 Sc1 2.761247 1_556
P1 Sc0 2.974643 1_665
P2 Sc1 2.761247 1_555
P2 Sc1 2.761247 1_556
P2 Sc0 2.974643 1_555
P3 Sc0 2.761247 1_565
P3 Sc0 2.761247 1_564
P3 Sc1 2.974643 1_555
