# generated using pymatgen
data_RbTm(PO3)4
_symmetry_space_group_name_H-M   'P 1'
_cell_length_a   8.89393000
_cell_length_b   10.35429000
_cell_length_c   12.81651322
_cell_angle_alpha   55.85657283
_cell_angle_beta   90.00000000
_cell_angle_gamma   90.00000000
_symmetry_Int_Tables_number   1
_chemical_formula_structural   RbTm(PO3)4
_chemical_formula_sum   'Rb4 Tm4 P16 O48'
_cell_volume   976.83869505
_cell_formula_units_Z   4
loop_
 _symmetry_equiv_pos_site_id
 _symmetry_equiv_pos_as_xyz
  1  'x, y, z'
loop_
 _atom_site_type_symbol
 _atom_site_label
 _atom_site_symmetry_multiplicity
 _atom_site_fract_x
 _atom_site_fract_y
 _atom_site_fract_z
 _atom_site_occupancy
  Rb  Rb0  1  0.06452500  0.76804300  0.04145900  1
  Rb  Rb1  1  0.56452500  0.23195700  0.45854100  1
  Rb  Rb2  1  0.93547500  0.23195700  0.95854100  1
  Rb  Rb3  1  0.43547500  0.76804300  0.54145900  1
  Tm  Tm0  1  0.27288600  0.31512800  0.18291200  1
  Tm  Tm1  1  0.77288600  0.68487200  0.31708800  1
  Tm  Tm2  1  0.72711400  0.68487200  0.81708800  1
  Tm  Tm3  1  0.22711400  0.31512800  0.68291200  1
  P  P0  1  0.02532300  0.97407000  0.27987800  1
  P  P1  1  0.52532300  0.02593000  0.22012200  1
  P  P2  1  0.97467700  0.02593000  0.72012200  1
  P  P3  1  0.47467700  0.97407000  0.77987800  1
  P  P4  1  0.17072100  0.67333000  0.36748500  1
  P  P5  1  0.67072100  0.32667000  0.13251500  1
  P  P6  1  0.82927900  0.32667000  0.63251500  1
  P  P7  1  0.32927900  0.67333000  0.86748500  1
  P  P8  1  0.40929200  0.60936200  0.24220600  1
  P  P9  1  0.90929200  0.39063800  0.25779400  1
  P  P10  1  0.59070800  0.39063800  0.75779400  1
  P  P11  1  0.09070800  0.60936200  0.74220600  1
  P  P12  1  0.11261100  0.19928400  0.47601900  1
  P  P13  1  0.61261100  0.80071600  0.02398100  1
  P  P14  1  0.88738900  0.80071600  0.52398100  1
  P  P15  1  0.38738900  0.19928400  0.97601900  1
  O  O0  1  0.45070600  0.03819000  0.09879400  1
  O  O1  1  0.95070600  0.96181000  0.40120600  1
  O  O2  1  0.54929400  0.96181000  0.90120600  1
  O  O3  1  0.04929400  0.03819000  0.59879400  1
  O  O4  1  0.04345500  0.42416300  0.17523400  1
  O  O5  1  0.54345500  0.57583700  0.32476600  1
  O  O6  1  0.95654500  0.57583700  0.82476600  1
  O  O7  1  0.45654500  0.42416300  0.67523400  1
  O  O8  1  0.09443400  0.13285300  0.19938700  1
  O  O9  1  0.59443400  0.86714700  0.30061300  1
  O  O10  1  0.90556600  0.86714700  0.80061300  1
  O  O11  1  0.40556600  0.13285300  0.69938700  1
  O  O12  1  0.32484800  0.47548300  0.25623700  1
  O  O13  1  0.82484800  0.52451700  0.24376300  1
  O  O14  1  0.67515200  0.52451700  0.74376300  1
  O  O15  1  0.17515200  0.47548300  0.75623700  1
  O  O16  1  0.41460000  0.07318200  0.28185000  1
  O  O17  1  0.91460000  0.92681800  0.21815000  1
  O  O18  1  0.58540000  0.92681800  0.71815000  1
  O  O19  1  0.08540000  0.07318200  0.78185000  1
  O  O20  1  0.02567500  0.63107700  0.33418400  1
  O  O21  1  0.52567500  0.36892300  0.16581600  1
  O  O22  1  0.97432500  0.36892300  0.66581600  1
  O  O23  1  0.47432500  0.63107700  0.83418400  1
  O  O24  1  0.15868800  0.84423500  0.34430000  1
  O  O25  1  0.65868800  0.15576500  0.15570000  1
  O  O26  1  0.84131200  0.15576500  0.65570000  1
  O  O27  1  0.34131200  0.84423500  0.84430000  1
  O  O28  1  0.29023200  0.71824000  0.25578500  1
  O  O29  1  0.79023200  0.28176000  0.24421500  1
  O  O30  1  0.70976800  0.28176000  0.74421500  1
  O  O31  1  0.20976800  0.71824000  0.75578500  1
  O  O32  1  0.32890200  0.29698500  0.01958400  1
  O  O33  1  0.82890200  0.70301500  0.48041600  1
  O  O34  1  0.67109800  0.70301500  0.98041600  1
  O  O35  1  0.17109800  0.29698500  0.51958400  1
  O  O36  1  0.21520100  0.16522100  0.40119800  1
  O  O37  1  0.71520100  0.83477900  0.09880200  1
  O  O38  1  0.78479900  0.83477900  0.59880200  1
  O  O39  1  0.28479900  0.16522100  0.90119800  1
  O  O40  1  0.45345700  0.73127600  0.09676700  1
  O  O41  1  0.95345700  0.26872400  0.40323300  1
  O  O42  1  0.54654300  0.26872400  0.90323300  1
  O  O43  1  0.04654300  0.73127600  0.59676700  1
  O  O44  1  0.24183400  0.56806000  0.49412700  1
  O  O45  1  0.74183400  0.43194000  0.00587300  1
  O  O46  1  0.75816600  0.43194000  0.50587300  1
  O  O47  1  0.25816600  0.56806000  0.99412700  1
loop_
_geom_bond_atom_site_label_1
_geom_bond_atom_site_label_2
_geom_bond_distance
_geom_bond_site_symmetry_2
O0 P15 1.621461 1_554
O0 P1 1.628796 1_555
O1 P14 1.621461 1_555
O1 P0 1.628796 1_655
O2 P13 1.621461 1_556
O2 P3 1.628796 1_555
O3 P12 1.621461 1_555
O3 P2 1.628796 1_455
O4 P9 1.500546 1_455
O4 Tm0 2.307246 1_555
O4 Rb0 2.966477 1_555
O5 P8 1.500546 1_555
O5 Tm1 2.307246 1_555
O5 Rb1 2.966477 1_555
O6 P11 1.500546 1_655
O6 Tm2 2.307246 1_555
O6 Rb2 2.966477 1_555
O7 P10 1.500546 1_555
O7 Tm3 2.307246 1_555
O7 Rb3 2.966477 1_555
O8 P0 1.497056 1_545
O8 Tm0 2.382910 1_555
O8 Rb2 3.004072 1_454
O9 P1 1.497056 1_565
O9 Tm1 2.382910 1_555
O9 Rb3 3.004072 1_555
O10 P2 1.497056 1_565
O10 Tm2 2.382910 1_555
O10 Rb0 3.004072 1_656
O11 P3 1.497056 1_545
O11 Tm3 2.382910 1_555
O11 Rb1 3.004072 1_555
O12 P8 1.496055 1_555
O12 Tm0 2.367511 1_555
O12 Rb1 3.207166 1_555
O13 P9 1.496055 1_555
O13 Tm1 2.367511 1_555
O13 Rb0 3.207166 1_655
O14 P10 1.496055 1_555
O14 Tm2 2.367511 1_555
O14 Rb3 3.207166 1_555
O15 P11 1.496055 1_555
O15 Tm3 2.367511 1_555
O15 Rb2 3.207166 1_455
O16 P1 1.506497 1_555
O16 Tm0 2.430335 1_555
O16 Rb3 3.047463 1_545
O17 P0 1.506497 1_655
O17 Tm1 2.430335 1_555
O17 Rb2 3.047463 1_564
O18 P3 1.506497 1_555
O18 Tm2 2.430335 1_555
O18 Rb1 3.047463 1_565
O19 P2 1.506497 1_455
O19 Tm3 2.430335 1_555
O19 Rb0 3.047463 1_546
O20 P4 1.499116 1_555
O20 Tm1 2.296969 1_455
O20 Rb0 3.198972 1_555
O21 P5 1.499116 1_555
O21 Tm0 2.296969 1_555
O21 Rb1 3.198972 1_555
O22 P6 1.499116 1_555
O22 Tm3 2.296969 1_655
O22 Rb2 3.198972 1_555
O23 P7 1.499116 1_555
O23 Tm2 2.296969 1_555
O23 Rb3 3.198972 1_555
O24 P4 1.625105 1_555
O24 P0 1.627861 1_555
O24 Rb3 3.290878 1_555
O25 P5 1.625105 1_555
O25 P1 1.627861 1_555
O25 Rb2 3.290878 1_554
O26 P6 1.625105 1_555
O26 P2 1.627861 1_555
O26 Rb1 3.290878 1_555
O27 P7 1.625105 1_555
O27 P3 1.627861 1_555
O27 Rb0 3.290878 1_556
O28 P8 1.625654 1_555
O28 P4 1.627344 1_555
O28 Rb0 3.201735 1_555
O29 P9 1.625654 1_555
O29 P5 1.627344 1_555
O29 Rb1 3.201735 1_555
O30 P10 1.625654 1_555
O30 P6 1.627344 1_555
O30 Rb2 3.201735 1_555
O31 P11 1.625654 1_555
O31 P7 1.627344 1_555
O31 Rb3 3.201735 1_555
O32 P15 1.496590 1_554
O32 Tm0 2.259825 1_555
O33 P14 1.496590 1_555
O33 Tm1 2.259825 1_555
O34 P13 1.496590 1_556
O34 Tm2 2.259825 1_555
O35 P12 1.496590 1_555
O35 Tm3 2.259825 1_555
O36 P12 1.502051 1_555
O36 Tm0 2.371673 1_555
O36 Rb1 3.352654 1_555
O37 P13 1.502051 1_555
O37 Tm1 2.371673 1_555
O37 Rb0 3.352654 1_655
O38 P14 1.502051 1_555
O38 Tm2 2.371673 1_555
O38 Rb3 3.352654 1_555
O39 P15 1.502051 1_555
O39 Tm3 2.371673 1_555
O39 Rb2 3.352654 1_455
O40 P8 1.606553 1_555
O40 P13 1.624172 1_555
O41 P9 1.606553 1_555
O41 P12 1.624172 1_655
O42 P10 1.606553 1_555
O42 P15 1.624172 1_555
O43 P11 1.606553 1_555
O43 P14 1.624172 1_455
O44 P4 1.495537 1_555
O44 Tm3 2.370044 1_555
O44 Rb3 3.005305 1_555
O45 P5 1.495537 1_555
O45 Tm2 2.370044 1_554
O45 Rb2 3.005305 1_554
O46 P6 1.495537 1_555
O46 Tm1 2.370044 1_555
O46 Rb1 3.005305 1_555
O47 P7 1.495537 1_555
O47 Tm0 2.370044 1_556
O47 Rb0 3.005305 1_556
