# generated using pymatgen
data_BaSrTa2O7
_symmetry_space_group_name_H-M   'P 1'
_cell_length_a   11.18256959
_cell_length_b   11.18256959
_cell_length_c   11.18256959
_cell_angle_alpha   159.23985890
_cell_angle_beta   138.58579209
_cell_angle_gamma   46.76285573
_symmetry_Int_Tables_number   1
_chemical_formula_structural   BaSrTa2O7
_chemical_formula_sum   'Ba2 Sr2 Ta4 O14'
_cell_volume   327.09406627
_cell_formula_units_Z   2
loop_
 _symmetry_equiv_pos_site_id
 _symmetry_equiv_pos_as_xyz
  1  'x, y, z'
loop_
 _atom_site_type_symbol
 _atom_site_label
 _atom_site_symmetry_multiplicity
 _atom_site_fract_x
 _atom_site_fract_y
 _atom_site_fract_z
 _atom_site_occupancy
  Ba  Ba0  1  0.23802100  0.73802100  0.50000000  1
  Ba  Ba1  1  0.76197900  0.26197900  0.50000000  1
  Sr  Sr0  1  0.50000000  0.50000000  0.00000000  1
  Sr  Sr1  1  0.00000000  0.50000000  0.50000000  1
  Ta  Ta0  1  0.85445600  0.10268600  0.75176900  1
  Ta  Ta1  1  0.35091700  0.10268600  0.24823100  1
  Ta  Ta2  1  0.14554400  0.89731400  0.24823100  1
  Ta  Ta3  1  0.64908300  0.89731400  0.75176900  1
  O  O0  1  0.92044300  0.92044300  0.00000000  1
  O  O1  1  0.15461700  0.40744100  0.74717700  1
  O  O2  1  0.33973600  0.59255900  0.74717700  1
  O  O3  1  0.01064400  0.80745400  0.20319000  1
  O  O4  1  0.71268100  0.00000000  0.71268100  1
  O  O5  1  0.66026400  0.40744100  0.25282300  1
  O  O6  1  0.39573600  0.19254600  0.20319000  1
  O  O7  1  0.28731900  0.00000000  0.28731900  1
  O  O8  1  0.98935600  0.19254600  0.79681000  1
  O  O9  1  0.38734500  0.88734500  0.50000000  1
  O  O10  1  0.07955700  0.07955700  0.00000000  1
  O  O11  1  0.84538300  0.59255900  0.25282300  1
  O  O12  1  0.60426400  0.80745400  0.79681000  1
  O  O13  1  0.61265500  0.11265500  0.50000000  1
loop_
_geom_bond_atom_site_label_1
_geom_bond_atom_site_label_2
_geom_bond_distance
_geom_bond_site_symmetry_2
Ba0 O6 2.740993 1_566
Ba0 O6 2.740993 1_555
Ba0 O8 2.740993 1_454
Ba0 O8 2.740993 1_465
Ba0 O3 2.746093 1_555
Ba0 O12 2.746093 1_555
Ba0 O9 3.065411 1_555
Ba1 O3 2.740993 1_645
Ba1 O3 2.740993 1_656
Ba1 O12 2.740993 1_544
Ba1 O12 2.740993 1_555
Ba1 O8 2.746093 1_555
Ba1 O6 2.746093 1_555
Ba1 O13 3.065411 1_555
O0 Ta2 2.019641 1_655
O0 Ta3 2.019643 1_554
O0 Sr1 2.593628 1_665
O0 Sr1 2.593628 1_654
O1 Ta2 2.025556 1_556
O1 Ta2 2.025556 1_545
O1 Sr1 2.726039 1_555
O1 Sr0 2.758235 1_556
O2 Ta1 2.025556 1_566
O2 Ta1 2.025556 1_555
O2 Sr1 2.726034 1_555
O2 Sr0 2.758226 1_556
O3 Ta2 1.878761 1_555
O4 Ta3 2.130542 1_545
O4 Ta0 2.130553 1_555
O4 Sr0 2.624574 1_545
O4 Sr0 2.624574 1_556
O4 Sr1 3.036816 1_656
O4 Sr1 3.036816 1_645
O5 Ta3 2.025556 1_544
O5 Ta3 2.025556 1_555
O5 Sr1 2.726034 1_655
O5 Sr0 2.758226 1_555
O6 Ta1 1.878772 1_555
O7 Ta1 2.130542 1_555
O7 Ta2 2.130553 1_545
O7 Sr0 2.624574 1_545
O7 Sr0 2.624574 1_556
O7 Sr1 3.036816 1_544
O7 Sr1 3.036816 1_555
O8 Ta0 1.878761 1_555
O9 Ta3 2.001506 1_555
O9 Ta2 2.001509 1_555
O9 Sr0 3.067235 1_555
O9 Sr0 3.067235 1_566
O10 Ta0 2.019641 1_454
O10 Ta1 2.019643 1_555
O10 Sr1 2.593628 1_544
O10 Sr1 2.593628 1_555
O11 Ta0 2.025556 1_554
O11 Ta0 2.025556 1_565
O11 Sr1 2.726039 1_655
O11 Sr0 2.758235 1_555
O12 Ta3 1.878772 1_555
O13 Ta1 2.001506 1_555
O13 Ta0 2.001509 1_555
O13 Sr0 3.067235 1_545
O13 Sr0 3.067235 1_556
