# generated using pymatgen
data_NaP2H5O8
_symmetry_space_group_name_H-M   'P 1'
_cell_length_a   7.82523000
_cell_length_b   8.68703400
_cell_length_c   10.50566622
_cell_angle_alpha   89.80122503
_cell_angle_beta   90.00000000
_cell_angle_gamma   90.00000000
_symmetry_Int_Tables_number   1
_chemical_formula_structural   NaP2H5O8
_chemical_formula_sum   'Na4 P8 H20 O32'
_cell_volume   714.15029117
_cell_formula_units_Z   4
loop_
 _symmetry_equiv_pos_site_id
 _symmetry_equiv_pos_as_xyz
  1  'x, y, z'
loop_
 _atom_site_type_symbol
 _atom_site_label
 _atom_site_symmetry_multiplicity
 _atom_site_fract_x
 _atom_site_fract_y
 _atom_site_fract_z
 _atom_site_occupancy
  Na  Na0  1  0.58784200  0.22107600  0.66224500  1
  Na  Na1  1  0.08784200  0.77892400  0.83775500  1
  Na  Na2  1  0.41215800  0.77892400  0.33775500  1
  Na  Na3  1  0.91215800  0.22107600  0.16224500  1
  P  P0  1  0.01285600  0.41415700  0.69239700  1
  P  P1  1  0.51285600  0.58584300  0.80760300  1
  P  P2  1  0.98714400  0.58584300  0.30760300  1
  P  P3  1  0.48714400  0.41415700  0.19239700  1
  P  P4  1  0.74013000  0.03912700  0.92876300  1
  P  P5  1  0.24013000  0.96087300  0.57123700  1
  P  P6  1  0.25987000  0.96087300  0.07123700  1
  P  P7  1  0.75987000  0.03912700  0.42876300  1
  H  H0  1  0.84734600  0.44013500  0.52107400  1
  H  H1  1  0.34734600  0.55986500  0.97892600  1
  H  H2  1  0.15265400  0.55986500  0.47892600  1
  H  H3  1  0.65265400  0.44013500  0.02107400  1
  H  H4  1  0.83677100  0.52271900  0.83479400  1
  H  H5  1  0.33677100  0.47728100  0.66520600  1
  H  H6  1  0.16322900  0.47728100  0.16520600  1
  H  H7  1  0.66322900  0.52271900  0.33479400  1
  H  H8  1  0.96357200  0.19128000  0.85681600  1
  H  H9  1  0.46357200  0.80872000  0.64318400  1
  H  H10  1  0.03642800  0.80872000  0.14318400  1
  H  H11  1  0.53642800  0.19128000  0.35681600  1
  H  H12  1  0.70681600  0.83206900  0.81042800  1
  H  H13  1  0.20681600  0.16793100  0.68957200  1
  H  H14  1  0.29318400  0.16793100  0.18957200  1
  H  H15  1  0.79318400  0.83206900  0.31042800  1
  H  H16  1  0.59639500  0.95953000  0.09984300  1
  H  H17  1  0.09639500  0.04047000  0.40015700  1
  H  H18  1  0.40360500  0.04047000  0.90015700  1
  H  H19  1  0.90360500  0.95953000  0.59984300  1
  O  O0  1  0.15692500  0.48529700  0.61402300  1
  O  O1  1  0.65692500  0.51470300  0.88597700  1
  O  O2  1  0.84307500  0.51470300  0.38597700  1
  O  O3  1  0.34307500  0.48529700  0.11402300  1
  O  O4  1  0.06206000  0.26018300  0.75400800  1
  O  O5  1  0.56206000  0.73981700  0.74599200  1
  O  O6  1  0.93794000  0.73981700  0.24599200  1
  O  O7  1  0.43794000  0.26018300  0.25400800  1
  O  O8  1  0.84765600  0.38612400  0.60808000  1
  O  O9  1  0.34765600  0.61387600  0.89192000  1
  O  O10  1  0.15234400  0.61387600  0.39192000  1
  O  O11  1  0.65234400  0.38612400  0.10808000  1
  O  O12  1  0.95997400  0.53338400  0.79938300  1
  O  O13  1  0.45997400  0.46661600  0.70061700  1
  O  O14  1  0.04002600  0.46661600  0.20061700  1
  O  O15  1  0.54002600  0.53338400  0.29938300  1
  O  O16  1  0.58280800  0.10378700  0.86469400  1
  O  O17  1  0.08280800  0.89621300  0.63530600  1
  O  O18  1  0.41719200  0.89621300  0.13530600  1
  O  O19  1  0.91719200  0.10378700  0.36469400  1
  O  O20  1  0.89668700  0.15011900  0.93712600  1
  O  O21  1  0.39668700  0.84988100  0.56287400  1
  O  O22  1  0.10331300  0.84988100  0.06287400  1
  O  O23  1  0.60331300  0.15011900  0.43712600  1
  O  O24  1  0.80357400  0.88907800  0.85798100  1
  O  O25  1  0.30357400  0.11092200  0.64201900  1
  O  O26  1  0.19642600  0.11092200  0.14201900  1
  O  O27  1  0.69642600  0.88907800  0.35798100  1
  O  O28  1  0.71396900  0.00344600  0.07454500  1
  O  O29  1  0.21396900  0.99655400  0.42545500  1
  O  O30  1  0.28603100  0.99655400  0.92545500  1
  O  O31  1  0.78603100  0.00344600  0.57454500  1
loop_
_geom_bond_atom_site_label_1
_geom_bond_atom_site_label_2
_geom_bond_distance
_geom_bond_site_symmetry_2
Na0 O16 2.355462 1_555
Na0 O13 2.391531 1_555
Na0 O25 2.431147 1_555
Na0 O23 2.449096 1_555
Na0 O8 2.550956 1_555
Na0 O31 2.615414 1_555
Na1 O17 2.355462 1_555
Na1 O12 2.391531 1_455
Na1 O24 2.431147 1_455
Na1 O22 2.449096 1_556
Na1 O9 2.550956 1_555
Na1 O30 2.615414 1_555
Na2 O18 2.355462 1_555
Na2 O15 2.391531 1_555
Na2 O27 2.431147 1_555
Na2 O21 2.449096 1_555
Na2 O10 2.550956 1_555
Na2 O29 2.615414 1_555
Na3 O19 2.355462 1_555
Na3 O14 2.391531 1_655
Na3 O26 2.431147 1_655
Na3 O20 2.449096 1_554
Na3 O11 2.550956 1_555
Na3 O28 2.615414 1_555
H0 O8 1.025998 1_555
H0 O2 1.558434 1_555
H1 O9 1.025998 1_555
H1 O3 1.558434 1_556
H2 O10 1.025998 1_555
H2 O0 1.558434 1_555
H3 O11 1.025998 1_555
H3 O1 1.558434 1_554
H4 O12 1.037407 1_555
H4 O1 1.508084 1_555
H5 O13 1.037407 1_555
H5 O0 1.508084 1_555
H6 O14 1.037407 1_555
H6 O3 1.508084 1_555
H7 O15 1.037407 1_555
H7 O2 1.508084 1_555
H8 O20 1.054298 1_555
H8 O4 1.454063 1_655
H9 O21 1.054298 1_555
H9 O5 1.454063 1_555
H10 O22 1.054298 1_555
H10 O6 1.454063 1_455
H11 O23 1.054298 1_555
H11 O7 1.454063 1_555
H12 O24 1.034329 1_555
H12 O5 1.545112 1_555
H13 O25 1.034329 1_555
H13 O4 1.545112 1_555
H14 O26 1.034329 1_555
H14 O7 1.545112 1_555
H15 O27 1.034329 1_555
H15 O6 1.545112 1_555
H16 O28 1.030511 1_565
H16 O18 1.551251 1_555
H17 O29 1.030511 1_545
H17 O19 1.551251 1_455
H18 O30 1.030511 1_545
H18 O16 1.551251 1_555
H19 O31 1.030511 1_565
H19 O17 1.551251 1_655
O0 P0 1.525548 1_555
O1 P1 1.525548 1_555
O2 P2 1.525548 1_555
O3 P3 1.525548 1_555
O4 P0 1.533071 1_555
O5 P1 1.533071 1_555
O6 P2 1.533071 1_555
O7 P3 1.533071 1_555
O8 P0 1.586379 1_655
O9 P1 1.586379 1_555
O10 P2 1.586379 1_455
O11 P3 1.586379 1_555
O12 P0 1.585982 1_655
O13 P1 1.585982 1_555
O14 P2 1.585982 1_455
O15 P3 1.585982 1_555
O16 P4 1.510462 1_555
O17 P5 1.510462 1_555
O18 P6 1.510462 1_555
O19 P7 1.510462 1_555
O20 P4 1.561675 1_555
O21 P5 1.561675 1_555
O22 P6 1.561675 1_555
O23 P7 1.561675 1_555
O24 P4 1.582790 1_565
O25 P5 1.582790 1_545
O26 P6 1.582790 1_545
O27 P7 1.582790 1_565
O28 P4 1.574896 1_554
O29 P5 1.574896 1_555
O30 P6 1.574896 1_556
O31 P7 1.574896 1_555
