# generated using pymatgen
data_Fe(PO3)4
_symmetry_space_group_name_H-M   'P 1'
_cell_length_a   9.13632500
_cell_length_b   9.40956400
_cell_length_c   10.48650600
_cell_angle_alpha   90.00000000
_cell_angle_beta   90.00000000
_cell_angle_gamma   90.00000000
_symmetry_Int_Tables_number   1
_chemical_formula_structural   Fe(PO3)4
_chemical_formula_sum   'Fe4 P16 O48'
_cell_volume   901.51270207
_cell_formula_units_Z   4
loop_
 _symmetry_equiv_pos_site_id
 _symmetry_equiv_pos_as_xyz
  1  'x, y, z'
loop_
 _atom_site_type_symbol
 _atom_site_label
 _atom_site_symmetry_multiplicity
 _atom_site_fract_x
 _atom_site_fract_y
 _atom_site_fract_z
 _atom_site_occupancy
  Fe  Fe0  1  0.25000000  0.01317400  0.78852900  1
  Fe  Fe1  1  0.75000000  0.48682600  0.28852900  1
  Fe  Fe2  1  0.25000000  0.51317400  0.71147100  1
  Fe  Fe3  1  0.75000000  0.98682600  0.21147100  1
  P  P0  1  0.75000000  0.19826000  0.60933400  1
  P  P1  1  0.54881300  0.21186200  0.38987000  1
  P  P2  1  0.95118700  0.21186200  0.38987000  1
  P  P3  1  0.25000000  0.23473800  0.51736000  1
  P  P4  1  0.75000000  0.26526200  0.01736000  1
  P  P5  1  0.04881300  0.28813800  0.88987000  1
  P  P6  1  0.45118700  0.28813800  0.88987000  1
  P  P7  1  0.25000000  0.30174000  0.10933400  1
  P  P8  1  0.75000000  0.69826000  0.89066600  1
  P  P9  1  0.54881300  0.71186200  0.11013000  1
  P  P10  1  0.95118700  0.71186200  0.11013000  1
  P  P11  1  0.25000000  0.73473800  0.98264000  1
  P  P12  1  0.75000000  0.76526200  0.48264000  1
  P  P13  1  0.04881300  0.78813800  0.61013000  1
  P  P14  1  0.45118700  0.78813800  0.61013000  1
  P  P15  1  0.25000000  0.80174000  0.39066600  1
  O  O0  1  0.58719500  0.10685800  0.28755800  1
  O  O1  1  0.91280500  0.10685800  0.28755800  1
  O  O2  1  0.75000000  0.11092700  0.05357900  1
  O  O3  1  0.75000000  0.11314600  0.73100000  1
  O  O4  1  0.25000000  0.12738900  0.62296000  1
  O  O5  1  0.09402800  0.13633700  0.86996300  1
  O  O6  1  0.40597200  0.13633700  0.86996300  1
  O  O7  1  0.61255000  0.15380700  0.52468600  1
  O  O8  1  0.88745000  0.15380700  0.52468600  1
  O  O9  1  0.25000000  0.14683900  0.14721100  1
  O  O10  1  0.12065700  0.19881000  0.41864700  1
  O  O11  1  0.37934300  0.19881000  0.41864700  1
  O  O12  1  0.62065700  0.30119000  0.91864700  1
  O  O13  1  0.87934300  0.30119000  0.91864700  1
  O  O14  1  0.75000000  0.35316100  0.64721100  1
  O  O15  1  0.11255000  0.34619300  0.02468600  1
  O  O16  1  0.38745000  0.34619300  0.02468600  1
  O  O17  1  0.59402800  0.36366300  0.36996300  1
  O  O18  1  0.90597200  0.36366300  0.36996300  1
  O  O19  1  0.75000000  0.37261100  0.12296000  1
  O  O20  1  0.25000000  0.38685400  0.23100000  1
  O  O21  1  0.25000000  0.38907300  0.55357900  1
  O  O22  1  0.08719500  0.39314200  0.78755800  1
  O  O23  1  0.41280500  0.39314200  0.78755800  1
  O  O24  1  0.58719500  0.60685800  0.21244200  1
  O  O25  1  0.91280500  0.60685800  0.21244200  1
  O  O26  1  0.75000000  0.61092700  0.44642100  1
  O  O27  1  0.75000000  0.61314600  0.76900000  1
  O  O28  1  0.25000000  0.62738900  0.87704000  1
  O  O29  1  0.09402800  0.63633700  0.63003700  1
  O  O30  1  0.40597200  0.63633700  0.63003700  1
  O  O31  1  0.61255000  0.65380700  0.97531400  1
  O  O32  1  0.88745000  0.65380700  0.97531400  1
  O  O33  1  0.25000000  0.64683900  0.35278900  1
  O  O34  1  0.12065700  0.69881000  0.08135300  1
  O  O35  1  0.37934300  0.69881000  0.08135300  1
  O  O36  1  0.62065700  0.80119000  0.58135300  1
  O  O37  1  0.87934300  0.80119000  0.58135300  1
  O  O38  1  0.75000000  0.85316100  0.85278900  1
  O  O39  1  0.11255000  0.84619300  0.47531400  1
  O  O40  1  0.38745000  0.84619300  0.47531400  1
  O  O41  1  0.59402800  0.86366300  0.13003700  1
  O  O42  1  0.90597200  0.86366300  0.13003700  1
  O  O43  1  0.75000000  0.87261100  0.37704000  1
  O  O44  1  0.25000000  0.88685400  0.26900000  1
  O  O45  1  0.25000000  0.88907300  0.94642100  1
  O  O46  1  0.08719500  0.89314200  0.71244200  1
  O  O47  1  0.41280500  0.89314200  0.71244200  1
loop_
_geom_bond_atom_site_label_1
_geom_bond_atom_site_label_2
_geom_bond_distance
_geom_bond_site_symmetry_2
Fe0 O6 2.025580 1_555
Fe0 O5 2.025580 1_555
Fe0 O45 2.026097 1_545
Fe0 O47 2.030949 1_545
Fe0 O46 2.030949 1_545
Fe0 O4 2.041945 1_555
Fe1 O18 2.025580 1_555
Fe1 O17 2.025580 1_555
Fe1 O26 2.026097 1_555
Fe1 O24 2.030949 1_555
Fe1 O25 2.030949 1_555
Fe1 O19 2.041945 1_555
Fe2 O29 2.025580 1_555
Fe2 O30 2.025580 1_555
Fe2 O21 2.026097 1_555
Fe2 O23 2.030949 1_555
Fe2 O22 2.030949 1_555
Fe2 O28 2.041945 1_555
Fe3 O42 2.025580 1_555
Fe3 O41 2.025580 1_555
Fe3 O2 2.026097 1_565
Fe3 O0 2.030949 1_565
Fe3 O1 2.030949 1_565
Fe3 O43 2.041945 1_555
O0 P1 1.500100 1_555
O1 P2 1.500100 1_555
O2 P4 1.501071 1_555
O3 P0 1.506391 1_555
O4 P3 1.498865 1_555
O5 P5 1.501500 1_555
O6 P6 1.501500 1_555
O7 P0 1.593709 1_555
O7 P1 1.623637 1_555
O8 P0 1.593709 1_555
O8 P2 1.623637 1_555
O9 P7 1.510702 1_555
O10 P2 1.582240 1_455
O10 P3 1.606952 1_555
O11 P1 1.582240 1_555
O11 P3 1.606952 1_555
O12 P6 1.582240 1_555
O12 P4 1.606952 1_556
O13 P5 1.582240 1_655
O13 P4 1.606952 1_556
O14 P0 1.510702 1_555
O15 P7 1.593709 1_555
O15 P5 1.623637 1_554
O16 P7 1.593709 1_555
O16 P6 1.623637 1_554
O17 P1 1.501500 1_555
O18 P2 1.501500 1_555
O19 P4 1.498865 1_555
O20 P7 1.506391 1_555
O21 P3 1.501071 1_555
O22 P5 1.500100 1_555
O23 P6 1.500100 1_555
O24 P9 1.500100 1_555
O25 P10 1.500100 1_555
O26 P12 1.501071 1_555
O27 P8 1.506391 1_555
O28 P11 1.498865 1_555
O29 P13 1.501500 1_555
O30 P14 1.501500 1_555
O31 P8 1.593709 1_555
O31 P9 1.623637 1_556
O32 P8 1.593709 1_555
O32 P10 1.623637 1_556
O33 P15 1.510702 1_555
O34 P10 1.582240 1_455
O34 P11 1.606952 1_554
O35 P9 1.582240 1_555
O35 P11 1.606952 1_554
O36 P14 1.582240 1_555
O36 P12 1.606952 1_555
O37 P13 1.582240 1_655
O37 P12 1.606952 1_555
O38 P8 1.510702 1_555
O39 P15 1.593709 1_555
O39 P13 1.623637 1_555
O40 P15 1.593709 1_555
O40 P14 1.623637 1_555
O41 P9 1.501500 1_555
O42 P10 1.501500 1_555
O43 P12 1.498865 1_555
O44 P15 1.506391 1_555
O45 P11 1.501071 1_555
O46 P13 1.500100 1_555
O47 P14 1.500100 1_555
