# generated using pymatgen
data_SrH12C4S4(NO4)2
_symmetry_space_group_name_H-M   'P 1'
_cell_length_a   9.03948800
_cell_length_b   7.86815900
_cell_length_c   21.33699686
_cell_angle_alpha   71.77302611
_cell_angle_beta   90.00000000
_cell_angle_gamma   90.00000000
_symmetry_Int_Tables_number   1
_chemical_formula_structural   SrH12C4S4(NO4)2
_chemical_formula_sum   'Sr4 H48 C16 S16 N8 O32'
_cell_volume   1441.43082755
_cell_formula_units_Z   4
loop_
 _symmetry_equiv_pos_site_id
 _symmetry_equiv_pos_as_xyz
  1  'x, y, z'
loop_
 _atom_site_type_symbol
 _atom_site_label
 _atom_site_symmetry_multiplicity
 _atom_site_fract_x
 _atom_site_fract_y
 _atom_site_fract_z
 _atom_site_occupancy
  Sr  Sr0  1  0.21494100  0.79489300  0.03260400  1
  Sr  Sr1  1  0.71494100  0.20510700  0.46739600  1
  Sr  Sr2  1  0.28505900  0.79489300  0.53260400  1
  Sr  Sr3  1  0.78505900  0.20510700  0.96739600  1
  H  H0  1  0.79112300  0.68285100  0.60699100  1
  H  H1  1  0.74865500  0.45502600  0.10951000  1
  H  H2  1  0.57231000  0.93953400  0.28220300  1
  H  H3  1  0.87058900  0.70898500  0.36246700  1
  H  H4  1  0.52464400  0.14269100  0.16888700  1
  H  H5  1  0.55655200  0.79072900  0.36550900  1
  H  H6  1  0.96055000  0.45820800  0.20306500  1
  H  H7  1  0.59476000  0.60640900  0.23132700  1
  H  H8  1  0.47535600  0.85730900  0.83111300  1
  H  H9  1  0.59540800  0.18610100  0.69224400  1
  H  H10  1  0.66124300  0.94459300  0.82182700  1
  H  H11  1  0.33875700  0.05540700  0.17817300  1
  H  H12  1  0.40524000  0.39359100  0.76867300  1
  H  H13  1  0.25134500  0.54497400  0.89049000  1
  H  H14  1  0.03945000  0.54179200  0.79693500  1
  H  H15  1  0.92769000  0.93953400  0.78220300  1
  H  H16  1  0.62941100  0.70898500  0.86246700  1
  H  H17  1  0.16124300  0.05540700  0.67817300  1
  H  H18  1  0.91839400  0.56302900  0.57095200  1
  H  H19  1  0.37058900  0.29101500  0.13753300  1
  H  H20  1  0.46055000  0.54179200  0.29693500  1
  H  H21  1  0.97535600  0.14269100  0.66888700  1
  H  H22  1  0.41839400  0.43697100  0.92904800  1
  H  H23  1  0.09540800  0.81389900  0.80775600  1
  H  H24  1  0.08160600  0.43697100  0.42904800  1
  H  H25  1  0.90459200  0.18610100  0.19224400  1
  H  H26  1  0.83875700  0.94459300  0.32182700  1
  H  H27  1  0.94344800  0.79072900  0.86550900  1
  H  H28  1  0.44827700  0.45095300  0.22995000  1
  H  H29  1  0.75134500  0.45502600  0.60951000  1
  H  H30  1  0.07231000  0.06046600  0.21779700  1
  H  H31  1  0.70887700  0.68285100  0.10699100  1
  H  H32  1  0.53945000  0.45820800  0.70306500  1
  H  H33  1  0.55172300  0.54904700  0.77005000  1
  H  H34  1  0.94827700  0.54904700  0.27005000  1
  H  H35  1  0.02464400  0.85730900  0.33111300  1
  H  H36  1  0.42769000  0.06046600  0.71779700  1
  H  H37  1  0.58160600  0.56302900  0.07095200  1
  H  H38  1  0.40459200  0.81389900  0.30775600  1
  H  H39  1  0.12941100  0.29101500  0.63753300  1
  H  H40  1  0.20887700  0.31714900  0.39300900  1
  H  H41  1  0.05655200  0.20927100  0.13449100  1
  H  H42  1  0.90524000  0.60640900  0.73132700  1
  H  H43  1  0.05172300  0.45095300  0.72995000  1
  H  H44  1  0.44344800  0.20927100  0.63449100  1
  H  H45  1  0.09476000  0.39359100  0.26867300  1
  H  H46  1  0.29112300  0.31714900  0.89300900  1
  H  H47  1  0.24865500  0.54497400  0.39049000  1
  C  C0  1  0.97636400  0.49794600  0.76107000  1
  C  C1  1  0.19782500  0.41739900  0.41860000  1
  C  C2  1  0.47636400  0.50205400  0.73893000  1
  C  C3  1  0.50312400  0.11869600  0.67639800  1
  C  C4  1  0.49687600  0.88130400  0.32360200  1
  C  C5  1  0.41398700  0.15529400  0.14677000  1
  C  C6  1  0.69782500  0.58260100  0.08140000  1
  C  C7  1  0.80217500  0.58260100  0.58140000  1
  C  C8  1  0.99687600  0.11869600  0.17639800  1
  C  C9  1  0.30217500  0.41739900  0.91860000  1
  C  C10  1  0.91398700  0.84470600  0.35323000  1
  C  C11  1  0.08601300  0.15529400  0.64677000  1
  C  C12  1  0.52363600  0.49794600  0.26107000  1
  C  C13  1  0.00312400  0.88130400  0.82360200  1
  C  C14  1  0.58601300  0.84470600  0.85323000  1
  C  C15  1  0.02363600  0.50205400  0.23893000  1
  S  S0  1  0.35757100  0.67918200  0.69567800  1
  S  S1  1  0.29162600  0.33734300  0.49536000  1
  S  S2  1  0.08168100  0.05679500  0.84882000  1
  S  S3  1  0.64242900  0.32081800  0.30432200  1
  S  S4  1  0.91831900  0.94320500  0.15118000  1
  S  S5  1  0.70837400  0.66265700  0.50464000  1
  S  S6  1  0.41831900  0.05679500  0.34882000  1
  S  S7  1  0.79162600  0.66265700  0.00464000  1
  S  S8  1  0.56734800  0.88767800  0.92968000  1
  S  S9  1  0.14242900  0.67918200  0.19567800  1
  S  S10  1  0.93265200  0.88767800  0.42968000  1
  S  S11  1  0.58168100  0.94320500  0.65118000  1
  S  S12  1  0.20837400  0.33734300  0.99536000  1
  S  S13  1  0.06734800  0.11232200  0.57032000  1
  S  S14  1  0.85757100  0.32081800  0.80432200  1
  S  S15  1  0.43265200  0.11232200  0.07032000  1
  N  N0  1  0.94842800  0.17687300  0.86204600  1
  N  N1  1  0.05157200  0.82312700  0.13795400  1
  N  N2  1  0.55157200  0.17687300  0.36204600  1
  N  N3  1  0.72615600  0.85678500  0.96612000  1
  N  N4  1  0.77384400  0.85678500  0.46612000  1
  N  N5  1  0.44842800  0.82312700  0.63795400  1
  N  N6  1  0.22615600  0.14321500  0.53388000  1
  N  N7  1  0.27384400  0.14321500  0.03388000  1
  O  O0  1  0.95916600  0.07896200  0.41589100  1
  O  O1  1  0.24664800  0.60528100  0.15793900  1
  O  O2  1  0.45916600  0.92103800  0.08410900  1
  O  O3  1  0.79342500  0.24660400  0.75573400  1
  O  O4  1  0.54083400  0.07896200  0.91589100  1
  O  O5  1  0.35132200  0.97202900  0.41365200  1
  O  O6  1  0.04799500  0.76604600  0.46666600  1
  O  O7  1  0.68171800  0.84303200  0.70304900  1
  O  O8  1  0.14867800  0.97202900  0.91365200  1
  O  O9  1  0.94601100  0.69066100  0.01833800  1
  O  O10  1  0.74664800  0.39471900  0.34206100  1
  O  O11  1  0.75335200  0.39471900  0.84206100  1
  O  O12  1  0.23484300  0.46620600  0.03112500  1
  O  O13  1  0.44601100  0.30933900  0.48166200  1
  O  O14  1  0.76515700  0.53379400  0.96887500  1
  O  O15  1  0.05398900  0.30933900  0.98166200  1
  O  O16  1  0.04083400  0.92103800  0.58410900  1
  O  O17  1  0.55398900  0.69066100  0.51833800  1
  O  O18  1  0.73484300  0.53379400  0.46887500  1
  O  O19  1  0.64867800  0.02797100  0.58634800  1
  O  O20  1  0.85132200  0.02797100  0.08634800  1
  O  O21  1  0.26515700  0.46620600  0.53112500  1
  O  O22  1  0.95200500  0.23395400  0.53333400  1
  O  O23  1  0.45200500  0.76604600  0.96666600  1
  O  O24  1  0.20657500  0.75339600  0.24426600  1
  O  O25  1  0.18171800  0.15696800  0.79695100  1
  O  O26  1  0.31828200  0.15696800  0.29695100  1
  O  O27  1  0.25335200  0.60528100  0.65793900  1
  O  O28  1  0.81828200  0.84303200  0.20304900  1
  O  O29  1  0.54799500  0.23395400  0.03333400  1
  O  O30  1  0.70657500  0.24660400  0.25573400  1
  O  O31  1  0.29342500  0.75339600  0.74426600  1
loop_
_geom_bond_atom_site_label_1
_geom_bond_atom_site_label_2
_geom_bond_distance
_geom_bond_site_symmetry_2
C0 H14 1.093151 1_655
C0 H43 1.093274 1_655
C0 H42 1.097998 1_555
C0 S14 1.772717 1_555
C1 H24 1.094790 1_555
C1 H40 1.095329 1_555
C1 H47 1.096272 1_555
C1 S1 1.775622 1_555
C2 H32 1.093151 1_555
C2 H33 1.093274 1_555
C2 H12 1.097998 1_555
C2 S0 1.772717 1_555
C3 H44 1.095347 1_555
C3 H36 1.096349 1_555
C3 H9 1.097111 1_555
C3 S11 1.779087 1_545
C4 H5 1.095347 1_555
C4 H2 1.096349 1_555
C4 H38 1.097111 1_555
C4 S6 1.779087 1_565
C5 H11 1.095295 1_555
C5 H19 1.096100 1_555
C5 H4 1.097189 1_555
C5 S15 1.774447 1_555
C6 H37 1.094790 1_555
C6 H31 1.095329 1_555
C6 H1 1.096272 1_555
C6 S7 1.775622 1_555
C7 H18 1.094790 1_555
C7 H0 1.095329 1_555
C7 H29 1.096272 1_555
C7 S5 1.775622 1_555
C8 H41 1.095347 1_655
C8 H30 1.096349 1_655
C8 H25 1.097111 1_555
C8 S4 1.779087 1_545
C9 H22 1.094790 1_555
C9 H46 1.095329 1_555
C9 H13 1.096272 1_555
C9 S12 1.775622 1_555
C10 H26 1.095295 1_555
C10 H3 1.096100 1_555
C10 H35 1.097189 1_655
C10 S10 1.774447 1_555
C11 H17 1.095295 1_555
C11 H39 1.096100 1_555
C11 H21 1.097189 1_455
C11 S13 1.774447 1_555
C12 H20 1.093151 1_555
C12 H28 1.093274 1_555
C12 H7 1.097998 1_555
C12 S3 1.772717 1_555
C13 H27 1.095347 1_455
C13 H15 1.096349 1_455
C13 H23 1.097111 1_555
C13 S2 1.779087 1_565
C14 H10 1.095295 1_555
C14 H16 1.096100 1_555
C14 H8 1.097189 1_555
C14 S8 1.774447 1_555
C15 H6 1.093151 1_455
C15 H34 1.093274 1_455
C15 H45 1.097998 1_555
C15 S9 1.772717 1_555
N0 S2 1.609340 1_655
N0 S14 1.612955 1_555
N0 Sr3 2.755981 1_555
N1 S4 1.609340 1_455
N1 S9 1.612955 1_555
N1 Sr0 2.755981 1_555
N2 S6 1.609340 1_555
N2 S3 1.612955 1_555
N2 Sr1 2.755981 1_555
N3 S7 1.604206 1_556
N3 S8 1.614366 1_555
N3 Sr3 2.800376 1_565
N4 S5 1.604206 1_555
N4 S10 1.614366 1_555
N4 Sr1 2.800376 1_565
N5 S11 1.609340 1_555
N5 S0 1.612955 1_555
N5 Sr2 2.755981 1_555
N6 S1 1.604206 1_555
N6 S13 1.614366 1_555
N6 Sr2 2.800376 1_545
N7 S12 1.604206 1_554
N7 S15 1.614366 1_555
N7 Sr0 2.800376 1_545
O0 S10 1.460200 1_545
O0 Sr1 2.783697 1_555
O1 S9 1.472051 1_555
O1 Sr0 2.638901 1_555
O2 S15 1.460200 1_565
O2 Sr0 2.783697 1_555
O3 S14 1.459686 1_555
O4 S8 1.460200 1_545
O4 Sr3 2.783697 1_555
O5 S6 1.465614 1_565
O5 Sr2 2.555434 1_555
O6 S10 1.467419 1_455
O6 Sr2 2.612064 1_555
O7 S11 1.455377 1_555
O8 S2 1.465614 1_565
O8 Sr0 2.555434 1_556
O9 S7 1.456658 1_555
O9 Sr0 2.613640 1_655
O10 S3 1.472051 1_555
O10 Sr1 2.638901 1_555
O11 S14 1.472051 1_555
O11 Sr3 2.638901 1_555
O12 S12 1.466847 1_554
O12 Sr0 2.602431 1_555
O13 S1 1.456658 1_555
O13 Sr1 2.613640 1_555
O14 S7 1.466847 1_556
O14 Sr3 2.602431 1_555
O15 S12 1.456658 1_555
O15 Sr3 2.613640 1_455
O16 S13 1.460200 1_565
O16 Sr2 2.783697 1_555
O17 S5 1.456658 1_555
O17 Sr2 2.613640 1_555
O18 S5 1.466847 1_555
O18 Sr1 2.602431 1_555
O19 S11 1.465614 1_545
O19 Sr1 2.555434 1_555
O20 S4 1.465614 1_545
O20 Sr3 2.555434 1_554
O21 S1 1.466847 1_555
O21 Sr2 2.602431 1_555
O22 S13 1.467419 1_655
O22 Sr1 2.612064 1_555
O23 S8 1.467419 1_555
O23 Sr0 2.612064 1_556
O24 S9 1.459686 1_555
O25 S2 1.455377 1_555
O26 S6 1.455377 1_555
O27 S0 1.472051 1_555
O27 Sr2 2.638901 1_555
O28 S4 1.455377 1_555
O29 S15 1.467419 1_555
O29 Sr3 2.612064 1_554
O30 S3 1.459686 1_555
O31 S0 1.459686 1_555
