# generated using pymatgen
data_TlSbSe2
_symmetry_space_group_name_H-M   'P 1'
_cell_length_a   4.12318970
_cell_length_b   9.21754057
_cell_length_c   12.95125870
_cell_angle_alpha   109.22733583
_cell_angle_beta   90.00000000
_cell_angle_gamma   90.00000000
_symmetry_Int_Tables_number   1
_chemical_formula_structural   TlSbSe2
_chemical_formula_sum   'Tl4 Sb4 Se8'
_cell_volume   464.76482711
_cell_formula_units_Z   4
loop_
 _symmetry_equiv_pos_site_id
 _symmetry_equiv_pos_as_xyz
  1  'x, y, z'
loop_
 _atom_site_type_symbol
 _atom_site_label
 _atom_site_symmetry_multiplicity
 _atom_site_fract_x
 _atom_site_fract_y
 _atom_site_fract_z
 _atom_site_occupancy
  Tl  Tl0  1  0.24604067  0.31497972  0.85954511  1
  Tl  Tl1  1  0.24106528  0.94231899  0.64089471  1
  Tl  Tl2  1  0.74604067  0.68502028  0.14045489  1
  Tl  Tl3  1  0.74106528  0.05768101  0.35910529  1
  Sb  Sb0  1  0.24393696  0.81438652  0.89249324  1
  Sb  Sb1  1  0.74393696  0.18561348  0.10750576  1
  Sb  Sb2  1  0.24121687  0.41669163  0.60809514  1
  Sb  Sb3  1  0.74121687  0.58330837  0.39190486  1
  Se  Se0  1  0.24680938  0.93795483  0.10344781  1
  Se  Se1  1  0.74328778  0.65267374  0.60317408  1
  Se  Se2  1  0.24328778  0.34732626  0.39682592  1
  Se  Se3  1  0.74240990  0.20973358  0.60677124  1
  Se  Se4  1  0.74693216  0.61098393  0.88716432  1
  Se  Se5  1  0.24240990  0.79026642  0.39322876  1
  Se  Se6  1  0.74680938  0.06204517  0.89655219  1
  Se  Se7  1  0.24693216  0.38901507  0.11283568  1
loop_
_geom_bond_atom_site_label_1
_geom_bond_atom_site_label_2
_geom_bond_distance
_geom_bond_site_symmetry_2
Sb0 Se0 2.590826 1_556
Sb0 Se4 2.762985 1_455
Sb0 Se4 2.781354 1_555
Sb0 Se6 3.055552 1_465
Sb0 Se6 3.071492 1_565
Sb1 Se6 2.590814 1_554
Sb1 Se7 2.762976 1_555
Sb1 Se7 2.781345 1_655
Sb1 Se0 3.055555 1_545
Sb1 Se0 3.071495 1_645
Sb2 Se2 2.596810 1_555
Sb2 Se3 2.801388 1_455
Sb2 Se3 2.808618 1_555
Sb2 Se1 3.006958 1_455
Sb2 Se1 3.018643 1_555
Sb3 Se1 2.596810 1_555
Sb3 Se5 2.801388 1_555
Sb3 Se5 2.808618 1_655
Sb3 Se2 3.006958 1_555
Sb3 Se2 3.018643 1_655
Se0 Tl2 3.261655 1_555
Se0 Tl2 3.265660 1_455
Se1 Tl1 3.274143 1_655
Se1 Tl1 3.285662 1_555
Se2 Tl3 3.274143 1_555
Se2 Tl3 3.285662 1_455
Se3 Tl3 3.048283 1_555
Se3 Tl1 3.349014 1_645
Se3 Tl1 3.355833 1_545
Se4 Tl2 3.122898 1_556
Se4 Tl0 3.341334 1_655
Se4 Tl0 3.345866 1_555
Se5 Tl1 3.048283 1_555
Se5 Tl3 3.349014 1_565
Se5 Tl3 3.355833 1_465
Se6 Tl0 3.261655 1_655
Se6 Tl0 3.265660 1_555
Se7 Tl0 3.122899 1_554
Se7 Tl2 3.341341 1_555
Se7 Tl2 3.345874 1_455
