# generated using pymatgen
data_Zr5Sn4
_symmetry_space_group_name_H-M   'P 1'
_cell_length_a   8.82772051
_cell_length_b   8.82772196
_cell_length_c   5.95514667
_cell_angle_alpha   90.00000000
_cell_angle_beta   90.00000000
_cell_angle_gamma   120.00000614
_symmetry_Int_Tables_number   1
_chemical_formula_structural   Zr5Sn4
_chemical_formula_sum   'Zr10 Sn8'
_cell_volume   401.90211138
_cell_formula_units_Z   2
loop_
 _symmetry_equiv_pos_site_id
 _symmetry_equiv_pos_as_xyz
  1  'x, y, z'
loop_
 _atom_site_type_symbol
 _atom_site_label
 _atom_site_symmetry_multiplicity
 _atom_site_fract_x
 _atom_site_fract_y
 _atom_site_fract_z
 _atom_site_occupancy
  Zr  Zr0  1  0.33333300  0.66666700  -0.00000000  1
  Zr  Zr1  1  0.66666700  0.33333300  0.50000000  1
  Zr  Zr2  1  0.66666700  0.33333300  0.00000000  1
  Zr  Zr3  1  0.33333300  0.66666700  0.50000000  1
  Zr  Zr4  1  0.27983358  0.00000000  0.25000000  1
  Zr  Zr5  1  0.27983358  0.27983358  0.75000000  1
  Zr  Zr6  1  1.00000000  0.72016642  0.75000000  1
  Zr  Zr7  1  0.00000000  0.27983358  0.25000000  1
  Zr  Zr8  1  0.72016642  0.72016642  0.25000000  1
  Zr  Zr9  1  0.72016642  1.00000000  0.75000000  1
  Sn  Sn0  1  0.00000000  -0.00000000  -0.00000000  1
  Sn  Sn1  1  0.00000000  -0.00000000  0.50000000  1
  Sn  Sn2  1  0.61290093  1.00000000  0.25000000  1
  Sn  Sn3  1  0.61290093  0.61290093  0.75000000  1
  Sn  Sn4  1  0.00000000  0.38709807  0.75000000  1
  Sn  Sn5  1  1.00000000  0.61290093  0.25000000  1
  Sn  Sn6  1  0.38709807  0.38709807  0.25000000  1
  Sn  Sn7  1  0.38709807  0.00000000  0.75000000  1
loop_
_geom_bond_atom_site_label_1
_geom_bond_atom_site_label_2
_geom_bond_distance
_geom_bond_site_symmetry_2
Zr0 Zr3 2.977573 1_554
Zr0 Zr3 2.977573 1_555
Zr1 Zr2 2.977573 1_555
Zr1 Zr2 2.977573 1_556
Sn0 Zr5 2.884238 1_554
Sn0 Zr8 2.884238 1_445
Sn0 Zr4 2.884238 1_555
Sn0 Zr9 2.884238 1_444
Sn0 Zr7 2.884239 1_555
Sn0 Zr6 2.884239 1_444
Sn0 Sn1 2.977573 1_554
Sn0 Sn1 2.977573 1_555
Sn1 Zr5 2.884238 1_555
Sn1 Zr8 2.884238 1_445
Sn1 Zr4 2.884238 1_555
Sn1 Zr9 2.884238 1_445
Sn1 Zr6 2.884239 1_445
Sn1 Zr7 2.884239 1_555
Sn2 Zr4 2.940225 1_565
Sn2 Zr7 3.055835 1_665
Sn2 Zr8 3.055836 1_555
Sn2 Zr2 3.115100 1_565
Sn2 Zr1 3.115100 1_565
Sn2 Zr3 3.115102 1_555
Sn2 Zr0 3.115102 1_555
Sn2 Zr9 3.124513 1_555
Sn2 Zr9 3.124513 1_554
Sn3 Zr5 2.940225 1_555
Sn3 Zr6 3.055835 1_555
Sn3 Zr9 3.055836 1_555
Sn3 Zr3 3.115107 1_555
Sn3 Zr0 3.115107 1_556
Sn3 Zr2 3.115108 1_556
Sn3 Zr1 3.115108 1_555
Sn3 Zr8 3.124513 1_555
Sn3 Zr8 3.124513 1_556
Sn4 Zr6 2.940235 1_455
Sn4 Zr9 3.055829 1_445
Sn4 Zr5 3.055829 1_555
Sn4 Zr2 3.115102 1_456
Sn4 Zr1 3.115102 1_455
Sn4 Zr3 3.115105 1_555
Sn4 Zr0 3.115105 1_556
Sn4 Zr7 3.124510 1_556
Sn4 Zr7 3.124510 1_555
Sn5 Zr7 2.940226 1_655
Sn5 Zr4 3.055835 1_665
Sn5 Zr8 3.055835 1_555
Sn5 Zr0 3.115099 1_655
Sn5 Zr3 3.115099 1_655
Sn5 Zr2 3.115102 1_555
Sn5 Zr1 3.115102 1_555
Sn5 Zr6 3.124513 1_555
Sn5 Zr6 3.124513 1_554
Sn6 Zr8 2.940234 1_555
Sn6 Zr7 3.055829 1_555
Sn6 Zr4 3.055829 1_555
Sn6 Zr2 3.115110 1_555
Sn6 Zr1 3.115110 1_555
Sn6 Zr3 3.115110 1_555
Sn6 Zr0 3.115110 1_555
Sn6 Zr5 3.124510 1_555
Sn6 Zr5 3.124510 1_554
Sn7 Zr9 2.940234 1_545
Sn7 Zr6 3.055829 1_445
Sn7 Zr5 3.055829 1_555
Sn7 Zr0 3.115103 1_546
Sn7 Zr3 3.115103 1_545
Sn7 Zr1 3.115105 1_555
Sn7 Zr2 3.115105 1_556
Sn7 Zr4 3.124510 1_555
Sn7 Zr4 3.124510 1_556
