# generated using pymatgen
data_SrCoO3
_symmetry_space_group_name_H-M   'P 1'
_cell_length_a   4.92884800
_cell_length_b   5.50023710
_cell_length_c   9.63170449
_cell_angle_alpha   89.64130917
_cell_angle_beta   84.25562479
_cell_angle_gamma   89.90167422
_symmetry_Int_Tables_number   1
_chemical_formula_structural   SrCoO3
_chemical_formula_sum   'Sr4 Co4 O12'
_cell_volume   259.79742685
_cell_formula_units_Z   4
loop_
 _symmetry_equiv_pos_site_id
 _symmetry_equiv_pos_as_xyz
  1  'x, y, z'
loop_
 _atom_site_type_symbol
 _atom_site_label
 _atom_site_symmetry_multiplicity
 _atom_site_fract_x
 _atom_site_fract_y
 _atom_site_fract_z
 _atom_site_occupancy
  Sr  Sr0  1  0.46718000  0.74754000  0.65621800  1
  Sr  Sr1  1  0.53282000  0.25246000  0.34378200  1
  Sr  Sr2  1  0.97908300  0.24978300  0.65367800  1
  Sr  Sr3  1  0.02091700  0.75021700  0.34632200  1
  Co  Co0  1  0.50000000  0.00000000  0.00000000  1
  Co  Co1  1  0.99731400  0.75054000  0.99718100  1
  Co  Co2  1  0.50000000  0.50000000  0.00000000  1
  Co  Co3  1  0.00268600  0.24946000  0.00281900  1
  O  O0  1  0.80955900  0.99869900  0.10561600  1
  O  O1  1  0.31438700  0.24562300  0.10360300  1
  O  O2  1  0.30473400  0.75144700  0.10019900  1
  O  O3  1  0.51392100  0.75060700  0.39419300  1
  O  O4  1  0.18585900  0.49990100  0.89685200  1
  O  O5  1  0.69526600  0.24855300  0.89980100  1
  O  O6  1  0.81414100  0.50009900  0.10314800  1
  O  O7  1  0.48607900  0.24939300  0.60580700  1
  O  O8  1  0.19044100  0.00130100  0.89438400  1
  O  O9  1  0.68561300  0.75437700  0.89639700  1
  O  O10  1  0.97901600  0.74313000  0.60482400  1
  O  O11  1  0.02098400  0.25687000  0.39517600  1
loop_
_geom_bond_atom_site_label_1
_geom_bond_atom_site_label_2
_geom_bond_distance
_geom_bond_site_symmetry_2
Co0 O9 1.867556 1_544
Co0 O1 1.867556 1_555
Co0 O5 1.878484 1_554
Co0 O2 1.878484 1_545
Co0 O0 1.916616 1_545
Co0 O8 1.916616 1_554
Co1 O4 1.878938 1_655
Co1 O6 1.885865 1_556
Co1 O2 1.892492 1_656
Co1 O8 1.894064 1_665
Co1 O9 1.897687 1_555
Co1 O0 1.905328 1_556
Co2 O9 1.895905 1_554
Co2 O1 1.895905 1_555
Co2 O5 1.896477 1_554
Co2 O2 1.896477 1_555
Co2 O6 1.921553 1_555
Co2 O4 1.921553 1_554
Co3 O6 1.878938 1_455
Co3 O4 1.885865 1_554
Co3 O5 1.892492 1_454
Co3 O0 1.894064 1_445
Co3 O1 1.897687 1_555
Co3 O8 1.905328 1_554
O0 Sr1 2.911699 1_565
O0 Sr3 2.960926 1_655
O1 Sr1 2.647987 1_555
O2 Sr3 2.629183 1_555
O3 Sr3 2.495291 1_655
O3 Sr0 2.511126 1_555
O3 Sr3 2.518239 1_555
O3 Sr1 2.785382 1_555
O3 Sr1 2.799784 1_565
O4 Sr0 2.910895 1_555
O4 Sr2 2.989998 1_455
O5 Sr2 2.629183 1_555
O6 Sr1 2.910895 1_555
O6 Sr3 2.989998 1_655
O7 Sr2 2.495291 1_455
O7 Sr1 2.511126 1_555
O7 Sr2 2.518239 1_555
O7 Sr0 2.785382 1_555
O7 Sr0 2.799784 1_545
O8 Sr0 2.911699 1_545
O8 Sr2 2.960926 1_455
O9 Sr0 2.647987 1_555
O10 Sr3 2.477747 1_655
O10 Sr0 2.504725 1_655
O10 Sr0 2.521886 1_555
O10 Sr2 2.751123 1_555
O10 Sr2 2.829069 1_565
O11 Sr2 2.477747 1_455
O11 Sr1 2.504725 1_455
O11 Sr1 2.521886 1_555
O11 Sr3 2.751123 1_555
O11 Sr3 2.829069 1_545
