# generated using pymatgen
data_La10Al5Br4
_symmetry_space_group_name_H-M   'P 1'
_cell_length_a   17.67943179
_cell_length_b   17.67943179
_cell_length_c   17.67943179
_cell_angle_alpha   152.91761273
_cell_angle_beta   152.91761273
_cell_angle_gamma   38.67477558
_symmetry_Int_Tables_number   1
_chemical_formula_structural   La10Al5Br4
_chemical_formula_sum   'La20 Al10 Br8'
_cell_volume   1143.44037939
_cell_formula_units_Z   2
loop_
 _symmetry_equiv_pos_site_id
 _symmetry_equiv_pos_as_xyz
  1  'x, y, z'
loop_
 _atom_site_type_symbol
 _atom_site_label
 _atom_site_symmetry_multiplicity
 _atom_site_fract_x
 _atom_site_fract_y
 _atom_site_fract_z
 _atom_site_occupancy
  La  La0  1  0.65224200  0.65224200  0.00000000  1
  La  La1  1  0.60033700  0.10033700  0.84376100  1
  La  La2  1  0.03521200  0.87185100  0.50000000  1
  La  La3  1  0.37185100  0.53521200  0.50000000  1
  La  La4  1  0.39966300  0.89966300  0.15623900  1
  La  La5  1  0.74342400  0.24342400  0.84376100  1
  La  La6  1  0.96478800  0.12814900  0.50000000  1
  La  La7  1  0.87185100  0.37185100  0.83663900  1
  La  La8  1  0.46478800  0.96478800  0.83663900  1
  La  La9  1  0.34775800  0.34775800  0.00000000  1
  La  La10  1  0.10033700  0.25657600  0.50000000  1
  La  La11  1  0.25657600  0.75657600  0.15623900  1
  La  La12  1  0.75657600  0.60033700  0.50000000  1
  La  La13  1  0.12814900  0.62814900  0.16336100  1
  La  La14  1  0.15224200  0.15224200  0.00000000  1
  La  La15  1  0.84775800  0.84775800  0.00000000  1
  La  La16  1  0.24342400  0.39966300  0.50000000  1
  La  La17  1  0.53521200  0.03521200  0.16336100  1
  La  La18  1  0.62814900  0.46478800  0.50000000  1
  La  La19  1  0.89966300  0.74342400  0.50000000  1
  Al  Al0  1  0.25401500  0.75401500  0.73816000  1
  Al  Al1  1  0.48414600  0.74598500  0.50000000  1
  Al  Al2  1  0.51585400  0.25401500  0.50000000  1
  Al  Al3  1  0.24598500  0.98414600  0.50000000  1
  Al  Al4  1  0.75000000  0.75000000  0.00000000  1
  Al  Al5  1  0.74598500  0.24598500  0.26184000  1
  Al  Al6  1  0.75401500  0.01585400  0.50000000  1
  Al  Al7  1  0.01585400  0.51585400  0.26184000  1
  Al  Al8  1  0.98414600  0.48414600  0.73816000  1
  Al  Al9  1  0.25000000  0.25000000  0.00000000  1
  Br  Br0  1  0.14216700  0.64216700  0.78433300  1
  Br  Br1  1  0.35783300  0.14216700  0.50000000  1
  Br  Br2  1  0.64216700  0.85783300  0.50000000  1
  Br  Br3  1  0.44413900  0.44413900  0.00000000  1
  Br  Br4  1  0.94413900  0.94413900  0.00000000  1
  Br  Br5  1  0.55586100  0.55586100  0.00000000  1
  Br  Br6  1  0.05586100  0.05586100  0.00000000  1
  Br  Br7  1  0.85783300  0.35783300  0.21566700  1
loop_
_geom_bond_atom_site_label_1
_geom_bond_atom_site_label_2
_geom_bond_distance
_geom_bond_site_symmetry_2
Al0 Al7 2.788470 1_555
Al0 La4 3.234742 1_556
Al0 La16 3.235281 1_555
Al0 La19 3.235281 1_455
Al0 La3 3.326516 1_555
Al0 La2 3.326516 1_555
Al0 La0 3.354250 1_556
Al0 La14 3.354250 1_566
Al0 La17 3.381439 1_566
Al1 Al3 2.788481 1_555
Al1 La12 3.234727 1_555
Al1 La1 3.235273 1_565
Al1 La11 3.235273 1_555
Al1 La13 3.326530 1_555
Al1 La8 3.326530 1_555
Al1 La9 3.354250 1_555
Al1 La15 3.354250 1_556
Al1 La18 3.381446 1_555
Al2 Al6 2.788481 1_555
Al2 La16 3.234727 1_555
Al2 La5 3.235273 1_555
Al2 La4 3.235273 1_545
Al2 La7 3.326530 1_555
Al2 La17 3.326530 1_555
Al2 La0 3.354250 1_556
Al2 La14 3.354250 1_555
Al2 La3 3.381446 1_555
Al3 La10 3.234727 1_565
Al3 La1 3.235273 1_565
Al3 La11 3.235273 1_555
Al3 La13 3.326530 1_555
Al3 La8 3.326530 1_555
Al3 La15 3.354250 1_455
Al3 La9 3.354250 1_566
Al3 La6 3.381446 1_465
Al4 La0 3.261607 1_555
Al4 La15 3.261607 1_555
Al4 La7 3.447633 1_554
Al4 La2 3.447633 1_655
Al4 La8 3.447633 1_554
Al4 La17 3.447633 1_565
Al4 La3 3.447633 1_554
Al4 La18 3.447633 1_554
Al4 La13 3.447633 1_655
Al4 La6 3.447633 1_565
Al5 Al8 2.788470 1_555
Al5 La1 3.234742 1_554
Al5 La10 3.235281 1_655
Al5 La12 3.235281 1_555
Al5 La6 3.326516 1_555
Al5 La18 3.326516 1_555
Al5 La15 3.354250 1_545
Al5 La9 3.354250 1_555
Al5 La8 3.381439 1_544
Al6 La19 3.234727 1_545
Al6 La5 3.235273 1_555
Al6 La4 3.235273 1_545
Al6 La17 3.326530 1_555
Al6 La7 3.326530 1_555
Al6 La0 3.354250 1_545
Al6 La14 3.354250 1_656
Al6 La2 3.381446 1_645
Al7 La5 3.234720 1_454
Al7 La16 3.235259 1_555
Al7 La19 3.235259 1_455
Al7 La2 3.326539 1_555
Al7 La3 3.326539 1_555
Al7 La14 3.354255 1_555
Al7 La0 3.354255 1_455
Al7 La7 3.381461 1_454
Al8 La11 3.234720 1_656
Al8 La10 3.235259 1_655
Al8 La12 3.235259 1_555
Al8 La18 3.326539 1_555
Al8 La6 3.326539 1_555
Al8 La15 3.354255 1_556
Al8 La9 3.354255 1_656
Al8 La13 3.381461 1_656
Al9 La14 3.261607 1_555
Al9 La9 3.261607 1_555
Al9 La7 3.447633 1_454
Al9 La13 3.447633 1_555
Al9 La8 3.447633 1_544
Al9 La18 3.447633 1_555
Al9 La2 3.447633 1_544
Al9 La6 3.447633 1_454
Al9 La3 3.447633 1_555
Al9 La17 3.447633 1_555
Br0 La4 3.230767 1_556
Br0 La11 3.230792 1_556
Br0 La19 3.538112 1_455
Br0 La16 3.538112 1_555
Br0 La10 3.538135 1_555
Br0 La12 3.538135 1_455
Br1 La16 3.230775 1_555
Br1 La10 3.230775 1_555
Br1 La5 3.538126 1_555
Br1 La11 3.538126 1_545
Br1 La4 3.538126 1_545
Br1 La1 3.538126 1_555
Br2 La12 3.230775 1_555
Br2 La19 3.230775 1_555
Br2 La11 3.538126 1_555
Br2 La4 3.538126 1_555
Br2 La1 3.538126 1_565
Br2 La5 3.538126 1_565
Br3 La11 3.110990 1_555
Br3 La1 3.110990 1_554
Br3 La12 3.110990 1_555
Br3 La10 3.110990 1_554
Br3 La9 3.215665 1_555
Br4 La11 3.110990 1_655
Br4 La1 3.110990 1_564
Br4 La12 3.110990 1_554
Br4 La10 3.110990 1_665
Br4 La15 3.215665 1_555
Br5 La19 3.110990 1_555
Br5 La4 3.110990 1_555
Br5 La16 3.110990 1_554
Br5 La5 3.110990 1_554
Br5 La0 3.215665 1_555
Br6 La19 3.110990 1_444
Br6 La5 3.110990 1_454
Br6 La4 3.110990 1_545
Br6 La16 3.110990 1_555
Br6 La14 3.215665 1_555
Br7 La1 3.230767 1_554
Br7 La5 3.230792 1_554
Br7 La12 3.538112 1_555
Br7 La10 3.538112 1_655
Br7 La19 3.538135 1_555
Br7 La16 3.538135 1_655
