# generated using pymatgen
data_Re4Si7
_symmetry_space_group_name_H-M   'P 1'
_cell_length_a   11.80895754
_cell_length_b   11.80895754
_cell_length_c   8.37227021
_cell_angle_alpha   87.41781667
_cell_angle_beta   87.41781667
_cell_angle_gamma   15.28956064
_symmetry_Int_Tables_number   1
_chemical_formula_structural   Re4Si7
_chemical_formula_sum   'Re8 Si14'
_cell_volume   307.55507202
_cell_formula_units_Z   2
loop_
 _symmetry_equiv_pos_site_id
 _symmetry_equiv_pos_as_xyz
  1  'x, y, z'
loop_
 _atom_site_type_symbol
 _atom_site_label
 _atom_site_symmetry_multiplicity
 _atom_site_fract_x
 _atom_site_fract_y
 _atom_site_fract_z
 _atom_site_occupancy
  Re  Re0  1  0.74851700  0.74851700  0.74390800  1
  Re  Re1  1  0.12801900  0.12801900  0.10688300  1
  Re  Re2  1  0.87455500  0.87455500  0.87483200  1
  Re  Re3  1  0.49713000  0.49713000  0.49597600  1
  Re  Re4  1  0.62481600  0.62481600  0.62139000  1
  Re  Re5  1  0.37914400  0.37914400  0.35535800  1
  Re  Re6  1  0.24808600  0.24808600  0.23754600  1
  Re  Re7  1  0.99860400  0.99860400  0.97998400  1
  Si  Si0  1  0.95886600  0.95886600  0.27497500  1
  Si  Si1  1  0.57947700  0.57947700  0.92071300  1
  Si  Si2  1  0.82956500  0.82956500  0.17080700  1
  Si  Si3  1  0.04217300  0.04217300  0.68994600  1
  Si  Si4  1  0.30450500  0.30450500  0.56328400  1
  Si  Si5  1  0.45658500  0.45658500  0.78108300  1
  Si  Si6  1  0.20427900  0.20427900  0.52295400  1
  Si  Si7  1  0.70921500  0.70921500  0.03668000  1
  Si  Si8  1  0.16471800  0.16471800  0.81963400  1
  Si  Si9  1  0.90656700  0.90656700  0.57641200  1
  Si  Si10  1  0.29401600  0.29401600  0.93985500  1
  Si  Si11  1  0.05846400  0.05846400  0.33017700  1
  Si  Si12  1  0.41651000  0.41651000  0.06913200  1
  Si  Si13  1  0.65978800  0.65978800  0.32337100  1
loop_
_geom_bond_atom_site_label_1
_geom_bond_atom_site_label_2
_geom_bond_distance
_geom_bond_site_symmetry_2
Re0 Si4 2.508419 1_565
Re0 Si4 2.508419 1_655
Re0 Si10 2.540152 1_565
Re0 Si10 2.540152 1_655
Re0 Si8 2.569931 1_655
Re0 Si8 2.569931 1_565
Re0 Si7 2.578676 1_556
Re0 Si6 2.671413 1_565
Re0 Si6 2.671413 1_655
Re1 Si11 2.422618 1_555
Re1 Si7 2.514801 1_545
Re1 Si7 2.514801 1_455
Re1 Si8 2.516707 1_554
Re1 Si1 2.519816 1_454
Re1 Si1 2.519816 1_544
Re1 Si13 2.535469 1_545
Re1 Si13 2.535469 1_455
Re2 Si12 2.494773 1_566
Re2 Si12 2.494773 1_656
Re2 Si10 2.495026 1_655
Re2 Si10 2.495026 1_565
Re2 Si9 2.575571 1_555
Re2 Si5 2.575646 1_655
Re2 Si5 2.575646 1_565
Re2 Si2 2.648060 1_556
Re3 Si11 2.504963 1_655
Re3 Si11 2.504963 1_565
Re3 Si3 2.524389 1_565
Re3 Si3 2.524389 1_655
Re3 Si5 2.528344 1_555
Re3 Si0 2.616173 1_545
Re3 Si0 2.616173 1_455
Re3 Si9 2.699185 1_545
Re3 Si9 2.699185 1_455
Re4 Si8 2.497204 1_655
Re4 Si8 2.497204 1_565
Re4 Si3 2.537464 1_565
Re4 Si3 2.537464 1_655
Re4 Si6 2.543147 1_565
Re4 Si6 2.543147 1_655
Re4 Si13 2.590358 1_555
Re4 Si1 2.676687 1_555
Re5 Si4 2.409658 1_555
Re5 Si0 2.507807 1_455
Re5 Si0 2.507807 1_545
Re5 Si12 2.513370 1_555
Re5 Si2 2.522928 1_455
Re5 Si2 2.522928 1_545
Re5 Si9 2.532420 1_455
Re5 Si9 2.532420 1_545
Re6 Si7 2.502610 1_455
Re6 Si7 2.502610 1_545
Re6 Si2 2.514135 1_455
Re6 Si2 2.514135 1_545
Re6 Si6 2.557054 1_555
Re6 Si13 2.668556 1_545
Re6 Si13 2.668556 1_455
Re6 Si10 2.669101 1_554
Re7 Si1 2.492486 1_565
Re7 Si1 2.492486 1_655
Re7 Si5 2.521371 1_655
Re7 Si5 2.521371 1_565
Re7 Si12 2.566583 1_566
Re7 Si12 2.566583 1_656
Re7 Si3 2.590656 1_665
Re7 Si0 2.599236 1_556
Si0 Si11 2.397276 1_665
Si0 Si12 2.564425 1_655
Si0 Si12 2.564425 1_565
Si0 Si9 2.754441 1_555
Si1 Si8 2.647992 1_655
Si1 Si8 2.647992 1_565
Si1 Si3 2.667692 1_565
Si1 Si3 2.667692 1_655
Si3 Si5 2.631525 1_545
Si3 Si5 2.631525 1_455
Si4 Si6 2.385407 1_555
Si4 Si9 2.865572 1_545
Si4 Si9 2.865572 1_455
Si5 Si9 2.637692 1_455
Si5 Si9 2.637692 1_545
Si6 Si8 2.611154 1_555
Si7 Si8 2.650846 1_654
Si7 Si8 2.650846 1_564
Si10 Si7 2.630413 1_546
Si10 Si7 2.630413 1_456
Si10 Si2 2.654319 1_546
Si10 Si2 2.654319 1_456
Si11 Si13 2.843284 1_545
Si11 Si13 2.843284 1_455
Si12 Si5 2.547596 1_554
Si12 Si2 2.679012 1_455
Si12 Si2 2.679012 1_545
Si13 Si6 2.550067 1_565
Si13 Si6 2.550067 1_655
Si13 Si7 2.616748 1_555
