# generated using pymatgen
data_K3Ta2Ag3Se8
_symmetry_space_group_name_H-M   'P 1'
_cell_length_a   13.23587359
_cell_length_b   13.23587359
_cell_length_c   14.76470499
_cell_angle_alpha   61.51662572
_cell_angle_beta   61.51662572
_cell_angle_gamma   26.97500519
_symmetry_Int_Tables_number   1
_chemical_formula_structural   K3Ta2Ag3Se8
_chemical_formula_sum   'K6 Ta4 Ag6 Se16'
_cell_volume   1022.49836443
_cell_formula_units_Z   2
loop_
 _symmetry_equiv_pos_site_id
 _symmetry_equiv_pos_as_xyz
  1  'x, y, z'
loop_
 _atom_site_type_symbol
 _atom_site_label
 _atom_site_symmetry_multiplicity
 _atom_site_fract_x
 _atom_site_fract_y
 _atom_site_fract_z
 _atom_site_occupancy
  K  K0  1  0.22675600  0.38149400  0.60748300  1
  K  K1  1  0.77324400  0.61850600  0.39251700  1
  K  K2  1  0.38149400  0.22675600  0.10748300  1
  K  K3  1  0.00000000  0.00000000  0.50000000  1
  K  K4  1  0.61850600  0.77324400  0.89251700  1
  K  K5  1  0.00000000  0.00000000  0.00000000  1
  Ta  Ta0  1  0.17749800  0.56643200  0.28136100  1
  Ta  Ta1  1  0.56643200  0.17749800  0.78136100  1
  Ta  Ta2  1  0.43356800  0.82250200  0.21863900  1
  Ta  Ta3  1  0.82250200  0.43356800  0.71863900  1
  Ag  Ag0  1  0.30783200  0.69216800  0.25000000  1
  Ag  Ag1  1  0.06521700  0.67679000  0.79099500  1
  Ag  Ag2  1  0.69216800  0.30783200  0.75000000  1
  Ag  Ag3  1  0.67679000  0.06521700  0.29099500  1
  Ag  Ag4  1  0.32321000  0.93478300  0.70900500  1
  Ag  Ag5  1  0.93478300  0.32321000  0.20900500  1
  Se  Se0  1  0.73218100  0.69586300  0.10294900  1
  Se  Se1  1  0.57567700  0.51757100  0.34869800  1
  Se  Se2  1  0.19365600  0.00195500  0.10994100  1
  Se  Se3  1  0.42432300  0.48242900  0.65130200  1
  Se  Se4  1  0.00195500  0.19365600  0.60994100  1
  Se  Se5  1  0.08233200  0.23562400  0.81788900  1
  Se  Se6  1  0.69586300  0.73218100  0.60294900  1
  Se  Se7  1  0.48242900  0.42432300  0.15130200  1
  Se  Se8  1  0.51757100  0.57567700  0.84869800  1
  Se  Se9  1  0.30413700  0.26781900  0.39705100  1
  Se  Se10  1  0.76437600  0.91766800  0.68211100  1
  Se  Se11  1  0.80634400  0.99804500  0.89005900  1
  Se  Se12  1  0.26781900  0.30413700  0.89705100  1
  Se  Se13  1  0.99804500  0.80634400  0.39005900  1
  Se  Se14  1  0.91766800  0.76437600  0.18211100  1
  Se  Se15  1  0.23562400  0.08233200  0.31788900  1
loop_
_geom_bond_atom_site_label_1
_geom_bond_atom_site_label_2
_geom_bond_distance
_geom_bond_site_symmetry_2
K0 Se9 3.412170 1_555
K0 Se5 3.496567 1_555
K0 Se10 3.555983 1_455
K0 Se10 3.563725 1_545
K0 Se13 3.577711 1_455
K0 Se6 3.597617 1_455
K1 Se6 3.412170 1_555
K1 Se14 3.496567 1_555
K1 Se15 3.555983 1_655
K1 Se15 3.563725 1_565
K1 Se4 3.577711 1_655
K1 Se9 3.597617 1_655
K2 Se12 3.412170 1_554
K2 Se15 3.496567 1_555
K2 Se14 3.555983 1_545
K2 Se14 3.563725 1_455
K2 Se11 3.577711 1_544
K2 Se0 3.597617 1_545
K3 Se3 3.500803 1_545
K3 Se1 3.500803 1_455
K3 Se4 3.651360 1_555
K3 Se13 3.651360 1_445
K3 Se15 3.661707 1_555
K3 Se10 3.661707 1_445
K3 Se3 3.804022 1_455
K3 Se1 3.804022 1_545
K4 Se0 3.412170 1_556
K4 Se10 3.496567 1_555
K4 Se5 3.555983 1_565
K4 Se5 3.563725 1_655
K4 Se2 3.577711 1_566
K4 Se12 3.597617 1_565
K5 Se7 3.500803 1_455
K5 Se8 3.500803 1_544
K5 Se2 3.651360 1_555
K5 Se11 3.651360 1_444
K5 Se5 3.661707 1_554
K5 Se14 3.661707 1_445
K5 Se7 3.804022 1_545
K5 Se8 3.804022 1_454
Ag0 Se7 2.673013 1_555
Ag0 Se1 2.673013 1_555
Ag0 Se2 2.687238 1_565
Ag0 Se13 2.687238 1_455
Ag1 Se12 2.652236 1_555
Ag1 Se11 2.672670 1_455
Ag1 Se10 2.682117 1_455
Ag1 Se3 2.716559 1_555
Ag2 Se8 2.673013 1_555
Ag2 Se3 2.673013 1_555
Ag2 Se4 2.687238 1_655
Ag2 Se11 2.687238 1_545
Ag3 Se9 2.652236 1_555
Ag3 Se13 2.672670 1_545
Ag3 Se14 2.682117 1_545
Ag3 Se7 2.716559 1_555
Ag4 Se6 2.652236 1_555
Ag4 Se4 2.672670 1_565
Ag4 Se5 2.682117 1_565
Ag4 Se8 2.716559 1_555
Ag5 Se0 2.652236 1_555
Ag5 Se2 2.672670 1_655
Ag5 Se15 2.682117 1_655
Ag5 Se1 2.716559 1_555
Se0 Ta2 2.414943 1_555
Se1 Ta2 2.456935 1_555
Se2 Ta2 2.466203 1_545
Se3 Ta1 2.456935 1_555
Se4 Ta3 2.466203 1_455
Se5 Ta3 2.433880 1_455
Se6 Ta3 2.414943 1_555
Se7 Ta0 2.456935 1_555
Se8 Ta3 2.456935 1_555
Se9 Ta0 2.414943 1_555
Se10 Ta1 2.433880 1_565
Se11 Ta1 2.466203 1_565
Se12 Ta1 2.414943 1_555
Se13 Ta0 2.466203 1_655
Se14 Ta0 2.433880 1_655
Se15 Ta2 2.433880 1_545
