# generated using pymatgen
data_Ni(XeF7)4
_symmetry_space_group_name_H-M   'P 1'
_cell_length_a   12.73416005
_cell_length_b   12.73416005
_cell_length_c   18.03804633
_cell_angle_alpha   58.97507813
_cell_angle_beta   58.97507813
_cell_angle_gamma   25.98040525
_symmetry_Int_Tables_number   1
_chemical_formula_structural   Ni(XeF7)4
_chemical_formula_sum   'Ni2 Xe8 F56'
_cell_volume   1087.42266923
_cell_formula_units_Z   2
loop_
 _symmetry_equiv_pos_site_id
 _symmetry_equiv_pos_as_xyz
  1  'x, y, z'
loop_
 _atom_site_type_symbol
 _atom_site_label
 _atom_site_symmetry_multiplicity
 _atom_site_fract_x
 _atom_site_fract_y
 _atom_site_fract_z
 _atom_site_occupancy
  Ni  Ni0  1  0.00000000  0.00000000  0.50000000  1
  Ni  Ni1  1  0.00000000  0.00000000  0.00000000  1
  Xe  Xe0  1  0.40766800  0.77848600  0.28624900  1
  Xe  Xe1  1  0.77848600  0.40766800  0.78624900  1
  Xe  Xe2  1  0.22151400  0.59233200  0.21375100  1
  Xe  Xe3  1  0.22765400  0.09889600  0.44915200  1
  Xe  Xe4  1  0.09889600  0.22765400  0.94915200  1
  Xe  Xe5  1  0.90110400  0.77234600  0.05084800  1
  Xe  Xe6  1  0.77234600  0.90110400  0.55084800  1
  Xe  Xe7  1  0.59233200  0.22151400  0.71375100  1
  F  F0  1  0.27583400  0.06105500  0.21950700  1
  F  F1  1  0.56588500  0.48103500  0.31631400  1
  F  F2  1  0.93894500  0.72416600  0.28049300  1
  F  F3  1  0.43411500  0.51896500  0.68368600  1
  F  F4  1  0.37690400  0.87786900  0.00110800  1
  F  F5  1  0.01429200  0.90359600  0.21832100  1
  F  F6  1  0.69429800  0.83828700  0.04337400  1
  F  F7  1  0.44610300  0.10352000  0.59610300  1
  F  F8  1  0.48103500  0.56588500  0.81631400  1
  F  F9  1  0.25528700  0.52631600  0.33246400  1
  F  F10  1  0.08603700  0.82063900  0.96120900  1
  F  F11  1  0.45549900  0.81487800  0.37494400  1
  F  F12  1  0.47368400  0.74471300  0.16753600  1
  F  F13  1  0.97599500  0.17063400  0.40608800  1
  F  F14  1  0.16171300  0.30570200  0.45662600  1
  F  F15  1  0.32773800  0.94865200  0.56681900  1
  F  F16  1  0.25875000  0.72880600  0.05867400  1
  F  F17  1  0.52631600  0.25528700  0.83246400  1
  F  F18  1  0.67226200  0.05134800  0.43318100  1
  F  F19  1  0.09640400  0.98570800  0.28167900  1
  F  F20  1  0.44324900  0.25703500  0.24976000  1
  F  F21  1  0.82936600  0.02400500  0.09391200  1
  F  F22  1  0.82063900  0.08603700  0.46120900  1
  F  F23  1  0.90359600  0.01429200  0.71832100  1
  F  F24  1  0.72880600  0.25875000  0.55867400  1
  F  F25  1  0.17063400  0.97599500  0.90608800  1
  F  F26  1  0.83828700  0.69429800  0.54337400  1
  F  F27  1  0.74296500  0.55675100  0.25024000  1
  F  F28  1  0.54450100  0.18512200  0.62505600  1
  F  F29  1  0.25703500  0.44324900  0.74976000  1
  F  F30  1  0.98570800  0.09640400  0.78167900  1
  F  F31  1  0.55675100  0.74296500  0.75024000  1
  F  F32  1  0.89648000  0.55389700  0.90389700  1
  F  F33  1  0.30570200  0.16171300  0.95662600  1
  F  F34  1  0.12543600  0.29628300  0.33162300  1
  F  F35  1  0.70371700  0.87456400  0.16837700  1
  F  F36  1  0.06105500  0.27583400  0.71950700  1
  F  F37  1  0.94865200  0.32773800  0.06681900  1
  F  F38  1  0.62309600  0.12213100  0.99889200  1
  F  F39  1  0.87456400  0.70371700  0.66837700  1
  F  F40  1  0.02400500  0.82936600  0.59391200  1
  F  F41  1  0.74471300  0.47368400  0.66753600  1
  F  F42  1  0.72416600  0.93894500  0.78049300  1
  F  F43  1  0.74125000  0.27119400  0.94132600  1
  F  F44  1  0.27119400  0.74125000  0.44132600  1
  F  F45  1  0.51896500  0.43411500  0.18368600  1
  F  F46  1  0.05134800  0.67226200  0.93318100  1
  F  F47  1  0.10352000  0.44610300  0.09610300  1
  F  F48  1  0.55389700  0.89648000  0.40389700  1
  F  F49  1  0.17936100  0.91396300  0.53879100  1
  F  F50  1  0.18512200  0.54450100  0.12505600  1
  F  F51  1  0.29628300  0.12543600  0.83162300  1
  F  F52  1  0.12213100  0.62309600  0.49889200  1
  F  F53  1  0.91396300  0.17936100  0.03879100  1
  F  F54  1  0.81487800  0.45549900  0.87494400  1
  F  F55  1  0.87786900  0.37690400  0.50110800  1
loop_
_geom_bond_atom_site_label_1
_geom_bond_atom_site_label_2
_geom_bond_distance
_geom_bond_site_symmetry_2
F0 Xe0 1.993142 1_545
F1 Xe0 1.997242 1_555
F2 Xe2 1.993142 1_655
F3 Xe7 1.997242 1_555
F4 Xe4 2.004447 1_564
F5 Xe2 1.997165 1_555
F6 Xe5 1.982956 1_555
F7 Xe6 1.997552 1_545
F8 Xe1 1.997242 1_555
F9 Xe2 1.980082 1_555
F10 Ni1 1.806885 1_566
F10 Xe5 2.488391 1_456
F11 Xe3 2.326229 1_565
F11 Xe0 2.328440 1_555
F12 Xe0 1.980082 1_555
F13 Ni0 1.797156 1_655
F14 Xe3 1.982956 1_555
F15 Xe3 2.002060 1_565
F16 Ni1 1.808917 1_565
F16 Xe2 2.484547 1_555
F17 Xe7 1.980082 1_555
F18 Xe6 2.002060 1_545
F19 Xe0 1.997165 1_555
F20 Xe2 1.995386 1_555
F21 Ni1 1.797156 1_655
F22 Ni0 1.806885 1_655
F22 Xe6 2.488391 1_545
F23 Xe7 1.997165 1_555
F24 Ni0 1.808917 1_655
F24 Xe7 2.484547 1_555
F25 Ni1 1.797156 1_566
F26 Xe6 1.982956 1_555
F27 Xe0 1.995386 1_555
F28 Xe6 2.326229 1_545
F28 Xe7 2.328440 1_555
F29 Xe7 1.995386 1_555
F30 Xe1 1.997165 1_555
F31 Xe1 1.995386 1_555
F32 Xe4 1.997552 1_655
F33 Xe4 1.982956 1_555
F34 Xe3 1.993975 1_555
F35 Xe5 1.993975 1_555
F36 Xe1 1.993142 1_455
F37 Xe4 2.002060 1_654
F38 Xe5 2.004447 1_546
F39 Xe6 1.993975 1_555
F40 Ni0 1.797156 1_565
F41 Xe1 1.980082 1_555
F42 Xe7 1.993142 1_565
F43 Ni1 1.808917 1_656
F43 Xe1 2.484547 1_555
F44 Ni0 1.808917 1_565
F44 Xe0 2.484547 1_555
F45 Xe2 1.997242 1_555
F46 Xe5 2.002060 1_456
F47 Xe5 1.997552 1_455
F48 Xe3 1.997552 1_565
F49 Ni0 1.806885 1_565
F49 Xe3 2.488391 1_565
F50 Xe5 2.326229 1_455
F50 Xe2 2.328440 1_555
F51 Xe4 1.993975 1_555
F52 Xe6 2.004447 1_455
F53 Ni1 1.806885 1_655
F53 Xe4 2.488391 1_654
F54 Xe4 2.326229 1_655
F54 Xe1 2.328440 1_555
F55 Xe3 2.004447 1_655
