# generated using pymatgen
data_Na3Sb3(AsO7)2
_symmetry_space_group_name_H-M   'P 1'
_cell_length_a   7.27940198
_cell_length_b   6.46442379
_cell_length_c   12.53604156
_cell_angle_alpha   72.63528780
_cell_angle_beta   90.00000000
_cell_angle_gamma   90.00000000
_symmetry_Int_Tables_number   1
_chemical_formula_structural   Na3Sb3(AsO7)2
_chemical_formula_sum   'Na6 Sb6 As4 O28'
_cell_volume   563.02469503
_cell_formula_units_Z   2
loop_
 _symmetry_equiv_pos_site_id
 _symmetry_equiv_pos_as_xyz
  1  'x, y, z'
loop_
 _atom_site_type_symbol
 _atom_site_label
 _atom_site_symmetry_multiplicity
 _atom_site_fract_x
 _atom_site_fract_y
 _atom_site_fract_z
 _atom_site_occupancy
  Na  Na0  1  -0.00000000  0.00000000  -0.00000000  1
  Na  Na1  1  0.71170461  0.53787828  0.56721409  1
  Na  Na2  1  0.28829539  0.46212172  0.43278591  1
  Na  Na3  1  0.78829539  0.53787828  0.06721409  1
  Na  Na4  1  0.50000000  0.00000000  0.50000000  1
  Na  Na5  1  0.21170461  0.46212172  0.93278591  1
  Sb  Sb0  1  0.24033701  0.02276370  0.74717255  1
  Sb  Sb1  1  0.25966299  0.02276370  0.24717255  1
  Sb  Sb2  1  0.75966299  0.97723630  0.25282745  1
  Sb  Sb3  1  0.74033701  0.97723630  0.75282745  1
  Sb  Sb4  1  -0.00000000  0.00000000  0.50000000  1
  Sb  Sb5  1  0.50000000  0.00000000  -0.00000000  1
  As  As0  1  0.76495660  0.41580597  0.33940332  1
  As  As1  1  0.73504340  0.41580597  0.83940332  1
  As  As2  1  0.26495660  0.58419403  0.16059668  1
  As  As3  1  0.23504340  0.58419403  0.66059668  1
  O  O0  1  0.99362435  0.93269432  0.80247102  1
  O  O1  1  0.53134665  0.31709391  0.90691723  1
  O  O2  1  0.27443121  0.70535129  0.76235190  1
  O  O3  1  0.09513144  0.61124635  0.07027727  1
  O  O4  1  0.81134002  0.67057120  0.25566399  1
  O  O5  1  0.79652534  0.03387415  0.59443755  1
  O  O6  1  0.96865335  0.31709391  0.40691723  1
  O  O7  1  0.03134665  0.68290609  0.59308277  1
  O  O8  1  0.59513144  0.38875365  0.42972273  1
  O  O9  1  0.81118865  0.89903367  0.41537838  1
  O  O10  1  0.31134002  0.32942880  0.24433601  1
  O  O11  1  0.68865998  0.67057120  0.75566399  1
  O  O12  1  0.77443121  0.29464871  0.73764810  1
  O  O13  1  0.90486856  0.38875365  0.92972273  1
  O  O14  1  0.00637565  0.06730568  0.19752898  1
  O  O15  1  0.46865335  0.68290609  0.09308277  1
  O  O16  1  0.20347466  0.96612585  0.40556245  1
  O  O17  1  0.49362435  0.06730568  0.69752898  1
  O  O18  1  0.68881135  0.89903367  0.91537838  1
  O  O19  1  0.40486856  0.61124635  0.57027727  1
  O  O20  1  0.22556879  0.70535129  0.26235190  1
  O  O21  1  0.31118865  0.10096633  0.08462162  1
  O  O22  1  0.72556879  0.29464871  0.23764810  1
  O  O23  1  0.29652534  0.96612585  0.90556245  1
  O  O24  1  0.50637565  0.93269432  0.30247102  1
  O  O25  1  0.70347466  0.03387415  0.09443755  1
  O  O26  1  0.18881135  0.10096633  0.58462162  1
  O  O27  1  0.18865998  0.32942880  0.74433601  1
loop_
_geom_bond_atom_site_label_1
_geom_bond_atom_site_label_2
_geom_bond_distance
_geom_bond_site_symmetry_2
Na0 O3 2.499934 1_545
Na0 O13 2.499934 1_454
Na0 O25 2.502696 1_455
Na0 O23 2.502696 1_544
Na0 O0 2.639372 1_444
Na0 O14 2.639372 1_555
Na0 O18 2.663845 1_444
Na0 O21 2.663845 1_555
Na1 O19 2.286084 1_555
Na1 O12 2.289195 1_555
Na1 O8 2.368962 1_555
Na1 O7 2.565073 1_655
Na1 O9 2.635439 1_555
Na1 O11 2.748552 1_555
Na2 O8 2.286084 1_555
Na2 O20 2.289195 1_555
Na2 O19 2.368962 1_555
Na2 O6 2.565073 1_455
Na2 O26 2.635439 1_555
Na2 O10 2.748552 1_555
Na3 O3 2.286084 1_655
Na3 O22 2.289195 1_555
Na3 O13 2.368962 1_554
Na3 O15 2.565073 1_555
Na3 O18 2.635439 1_554
Na3 O4 2.748552 1_555
Na4 O8 2.499934 1_555
Na4 O19 2.499934 1_545
Na4 O16 2.502696 1_545
Na4 O5 2.502696 1_555
Na4 O17 2.639372 1_555
Na4 O24 2.639372 1_545
Na4 O26 2.663845 1_555
Na4 O9 2.663845 1_545
Na5 O13 2.286084 1_455
Na5 O2 2.289195 1_555
Na5 O3 2.368962 1_556
Na5 O1 2.565073 1_555
Na5 O21 2.635439 1_556
Na5 O27 2.748552 1_555
As0 O8 1.650040 1_555
As0 O4 1.701865 1_555
As0 O22 1.708554 1_555
As0 O6 1.731995 1_555
As1 O13 1.650040 1_555
As1 O11 1.701865 1_555
As1 O12 1.708554 1_555
As1 O1 1.731995 1_555
As2 O3 1.650040 1_555
As2 O10 1.701865 1_555
As2 O20 1.708554 1_555
As2 O15 1.731995 1_555
As3 O19 1.650040 1_555
As3 O27 1.701865 1_555
As3 O2 1.708554 1_555
As3 O7 1.731995 1_555
O0 Sb3 1.939787 1_555
O0 Sb0 1.950378 1_665
O1 Sb5 2.046398 1_556
O2 Sb0 2.018660 1_565
O4 Sb2 2.007650 1_555
O5 Sb4 1.948878 1_655
O5 Sb3 1.951908 1_545
O6 Sb4 2.046398 1_655
O7 Sb4 2.046398 1_565
O9 Sb4 1.963084 1_665
O9 Sb2 1.983368 1_555
O10 Sb1 2.007650 1_555
O11 Sb3 2.007650 1_555
O12 Sb3 2.018660 1_545
O14 Sb1 1.939787 1_555
O14 Sb2 1.950378 1_445
O15 Sb5 2.046398 1_565
O16 Sb4 1.948878 1_565
O16 Sb1 1.951908 1_565
O17 Sb0 1.939787 1_555
O17 Sb3 1.950378 1_545
O18 Sb5 1.963084 1_566
O18 Sb3 1.983368 1_555
O20 Sb1 2.018660 1_565
O21 Sb5 1.963084 1_555
O21 Sb1 1.983368 1_555
O22 Sb2 2.018660 1_545
O23 Sb5 1.948878 1_566
O23 Sb0 1.951908 1_565
O24 Sb2 1.939787 1_555
O24 Sb1 1.950378 1_565
O25 Sb5 1.948878 1_555
O25 Sb2 1.951908 1_545
O26 Sb4 1.963084 1_555
O26 Sb0 1.983368 1_555
O27 Sb0 2.007650 1_555
