# generated using pymatgen
data_SnH21C7S4N(O3F)2
_symmetry_space_group_name_H-M   'P 1'
_cell_length_a   7.82323900
_cell_length_b   10.25610765
_cell_length_c   13.98037160
_cell_angle_alpha   96.97768376
_cell_angle_beta   102.62025646
_cell_angle_gamma   108.86062564
_symmetry_Int_Tables_number   1
_chemical_formula_structural   SnH21C7S4N(O3F)2
_chemical_formula_sum   'Sn2 H42 C14 S8 N2 O12 F4'
_cell_volume   1013.19034335
_cell_formula_units_Z   2
loop_
 _symmetry_equiv_pos_site_id
 _symmetry_equiv_pos_as_xyz
  1  'x, y, z'
loop_
 _atom_site_type_symbol
 _atom_site_label
 _atom_site_symmetry_multiplicity
 _atom_site_fract_x
 _atom_site_fract_y
 _atom_site_fract_z
 _atom_site_occupancy
  Sn  Sn0  1  0.62312300  0.25390900  0.78319800  1
  Sn  Sn1  1  0.37687700  0.74609100  0.21680200  1
  H  H0  1  0.76135700  0.64823600  0.01012500  1
  H  H1  1  0.83610500  0.37589400  0.50695700  1
  H  H2  1  0.25707400  0.22831700  0.72689100  1
  H  H3  1  0.35511300  0.25095500  0.62240400  1
  H  H4  1  0.55800000  0.45359400  0.11564400  1
  H  H5  1  0.23864300  0.35176400  0.98987500  1
  H  H6  1  0.83680300  0.81081700  0.96670700  1
  H  H7  1  0.99305400  0.55400600  0.37174400  1
  H  H8  1  0.70886800  0.35390100  0.14798600  1
  H  H9  1  0.28261300  0.97870400  0.21566800  1
  H  H10  1  0.16319700  0.18918300  0.03329300  1
  H  H11  1  0.99866800  0.39706800  0.81470700  1
  H  H12  1  0.32896700  0.87610600  0.57133400  1
  H  H13  1  0.74292600  0.77168300  0.27310900  1
  H  H14  1  0.51605600  0.69674200  0.82695900  1
  H  H15  1  0.52255500  0.02693400  0.21456300  1
  H  H16  1  0.93991800  0.64822200  0.47159100  1
  H  H17  1  0.88123900  0.08164500  0.45128000  1
  H  H18  1  0.44200000  0.54640600  0.88435600  1
  H  H19  1  0.11876100  0.91835500  0.54872000  1
  H  H20  1  0.29113200  0.64609900  0.85201400  1
  H  H21  1  0.64488700  0.74904500  0.37759600  1
  H  H22  1  0.68198000  0.97792800  0.48841700  1
  H  H23  1  0.33913500  0.93590200  0.10149000  1
  H  H24  1  0.48394400  0.30325800  0.17304100  1
  H  H25  1  0.00133200  0.60293200  0.18529300  1
  H  H26  1  0.71738700  0.02129600  0.78433200  1
  H  H27  1  0.15081000  0.18318800  0.90305400  1
  H  H28  1  0.59718500  0.60021200  0.28177900  1
  H  H29  1  0.00694600  0.44599400  0.62825600  1
  H  H30  1  0.92615500  0.45004000  0.92101600  1
  H  H31  1  0.31802000  0.02207200  0.51158300  1
  H  H32  1  0.66086500  0.06409800  0.89851000  1
  H  H33  1  0.87854800  0.51900000  0.81068100  1
  H  H34  1  0.06008200  0.35177800  0.52840900  1
  H  H35  1  0.84919000  0.81681200  0.09694600  1
  H  H36  1  0.47744500  0.97306600  0.78543700  1
  H  H37  1  0.16389500  0.62410600  0.49304300  1
  H  H38  1  0.40281500  0.39978800  0.71822100  1
  H  H39  1  0.07384500  0.54996000  0.07898400  1
  H  H40  1  0.12145200  0.48100000  0.18931900  1
  H  H41  1  0.67103300  0.12389400  0.42866600  1
  C  C0  1  0.37875800  0.28694400  0.70284300  1
  C  C1  1  0.43595600  0.65057000  0.87777200  1
  C  C2  1  0.76054100  0.08303100  0.47882700  1
  C  C3  1  0.11076300  0.57392600  0.16103200  1
  C  C4  1  0.22928600  0.24161000  0.97965300  1
  C  C5  1  0.88923700  0.42607400  0.83896800  1
  C  C6  1  0.61830600  0.05364300  0.81693600  1
  C  C7  1  0.62124200  0.71305600  0.29715700  1
  C  C8  1  0.77071400  0.75839000  0.02034700  1
  C  C9  1  0.05176100  0.63949500  0.43840600  1
  C  C10  1  0.56404400  0.34943000  0.12222800  1
  C  C11  1  0.94823900  0.36050500  0.56159400  1
  C  C12  1  0.23945900  0.91696900  0.52117300  1
  C  C13  1  0.38169400  0.94635700  0.18306400  1
  S  S0  1  0.46200100  0.23658800  0.00034900  1
  S  S1  1  0.53799900  0.76341200  0.99965100  1
  S  S2  1  0.32000400  0.28843600  0.36302700  1
  S  S3  1  0.97225600  0.18275900  0.22196000  1
  S  S4  1  0.67999600  0.71156400  0.63697300  1
  S  S5  1  0.84977700  0.19792300  0.59999800  1
  S  S6  1  0.02774400  0.81724100  0.77804000  1
  S  S7  1  0.15022300  0.80207700  0.40000200  1
  N  N0  1  0.80513000  0.76186600  0.75076600  1
  N  N1  1  0.19487000  0.23813400  0.24923400  1
  O  O0  1  0.32815500  0.79617000  0.37204400  1
  O  O1  1  0.10045900  0.84601800  0.88520700  1
  O  O2  1  0.24196400  0.21156300  0.43261000  1
  O  O3  1  0.89954100  0.15398200  0.11479300  1
  O  O4  1  0.51192900  0.31504000  0.36359900  1
  O  O5  1  0.67184500  0.20383000  0.62795600  1
  O  O6  1  0.48807100  0.68496000  0.63640100  1
  O  O7  1  0.89196600  0.25413300  0.28432300  1
  O  O8  1  0.44729900  0.67343500  0.06879900  1
  O  O9  1  0.10803400  0.74586700  0.71567700  1
  O  O10  1  0.75803600  0.78843700  0.56739000  1
  O  O11  1  0.55270100  0.32656500  0.93120100  1
  F  F0  1  0.68703800  0.55583200  0.60512800  1
  F  F1  1  0.91819700  0.02486200  0.24842800  1
  F  F2  1  0.08180300  0.97513800  0.75157200  1
  F  F3  1  0.31296200  0.44416800  0.39487200  1
loop_
_geom_bond_atom_site_label_1
_geom_bond_atom_site_label_2
_geom_bond_distance
_geom_bond_site_symmetry_2
C0 H3 1.095086 1_555
C0 H2 1.095309 1_555
C0 H38 1.096411 1_555
C0 Sn0 2.145760 1_555
C1 H20 1.095246 1_555
C1 H14 1.098168 1_555
C1 H18 1.098480 1_555
C1 S1 1.791412 1_555
C2 H22 1.095659 1_545
C2 H41 1.097416 1_555
C2 H17 1.098352 1_555
C2 S5 1.792186 1_555
C3 H40 1.095607 1_555
C3 H39 1.095634 1_555
C3 H25 1.097036 1_555
C3 Sn1 2.153941 1_555
C4 H27 1.096221 1_555
C4 H5 1.097658 1_555
C4 H10 1.098387 1_556
C4 S0 1.798600 1_556
C5 H33 1.095607 1_555
C5 H30 1.095634 1_555
C5 H11 1.097036 1_555
C5 Sn0 2.153941 1_555
C6 H36 1.096349 1_545
C6 H26 1.096619 1_555
C6 H32 1.097373 1_555
C6 Sn0 2.153069 1_555
C7 H21 1.095086 1_555
C7 H13 1.095309 1_555
C7 H28 1.096411 1_555
C7 Sn1 2.145760 1_555
C8 H35 1.096221 1_555
C8 H0 1.097658 1_555
C8 H6 1.098387 1_554
C8 S1 1.798600 1_554
C9 H7 1.096500 1_455
C9 H37 1.097241 1_555
C9 H16 1.098526 1_455
C9 S7 1.797176 1_555
C10 H8 1.095246 1_555
C10 H24 1.098168 1_555
C10 H4 1.098480 1_555
C10 S0 1.791412 1_555
C11 H29 1.096500 1_655
C11 H1 1.097241 1_555
C11 H34 1.098526 1_655
C11 S5 1.797176 1_555
C12 H31 1.095659 1_565
C12 H12 1.097416 1_555
C12 H19 1.098352 1_555
C12 S7 1.792186 1_555
C13 H15 1.096349 1_565
C13 H9 1.096619 1_555
C13 H23 1.097373 1_555
C13 Sn1 2.153069 1_555
N0 S6 1.587042 1_655
N0 S4 1.596524 1_555
N1 S3 1.587042 1_455
N1 S2 1.596524 1_555
O0 S7 1.542933 1_555
O0 Sn1 2.310128 1_555
O1 S6 1.437708 1_555
O2 S2 1.440605 1_555
O3 S3 1.437708 1_555
O4 S2 1.434674 1_555
O5 S5 1.542933 1_555
O5 Sn0 2.310128 1_555
O6 S4 1.434674 1_555
O7 S3 1.439462 1_555
O8 S1 1.543617 1_554
O8 Sn1 2.351396 1_555
O9 S6 1.439462 1_555
O10 S4 1.440605 1_555
O11 S0 1.543617 1_556
O11 Sn0 2.351396 1_555
F0 S4 1.627004 1_555
F1 S3 1.646040 1_555
F2 S6 1.646040 1_555
F3 S2 1.627004 1_555
