# generated using pymatgen
data_Mn2Si2Pb2O9
_symmetry_space_group_name_H-M   'P 1'
_cell_length_a   6.32778604
_cell_length_b   6.32778604
_cell_length_c   11.34068800
_cell_angle_alpha   90.00000000
_cell_angle_beta   90.00000000
_cell_angle_gamma   108.27167518
_symmetry_Int_Tables_number   1
_chemical_formula_structural   Mn2Si2Pb2O9
_chemical_formula_sum   'Mn4 Si4 Pb4 O18'
_cell_volume   431.19607795
_cell_formula_units_Z   2
loop_
 _symmetry_equiv_pos_site_id
 _symmetry_equiv_pos_as_xyz
  1  'x, y, z'
loop_
 _atom_site_type_symbol
 _atom_site_label
 _atom_site_symmetry_multiplicity
 _atom_site_fract_x
 _atom_site_fract_y
 _atom_site_fract_z
 _atom_site_occupancy
  Mn  Mn0  1  0.41315400  0.41315400  0.50000000  1
  Mn  Mn1  1  0.31485300  0.68514700  0.25000000  1
  Mn  Mn2  1  0.68514700  0.31485300  0.75000000  1
  Mn  Mn3  1  0.58684600  0.58684600  0.00000000  1
  Si  Si0  1  0.39156100  0.20128700  0.27296000  1
  Si  Si1  1  0.20128700  0.39156100  0.72704000  1
  Si  Si2  1  0.79871300  0.60843900  0.22704000  1
  Si  Si3  1  0.60843900  0.79871300  0.77296000  1
  Pb  Pb0  1  0.93447100  0.27887700  0.02828300  1
  Pb  Pb1  1  0.72112300  0.06552900  0.47171700  1
  Pb  Pb2  1  0.06552900  0.72112300  0.52828300  1
  Pb  Pb3  1  0.27887700  0.93447100  0.97171700  1
  O  O0  1  0.65923600  0.34076400  0.25000000  1
  O  O1  1  0.87721100  0.62938400  0.08632900  1
  O  O2  1  0.75911200  0.63381200  0.75924300  1
  O  O3  1  0.41871500  0.70487900  0.46613800  1
  O  O4  1  0.62938400  0.87721100  0.91367100  1
  O  O5  1  0.01833000  0.67106100  0.31233600  1
  O  O6  1  0.12278900  0.37061600  0.58632900  1
  O  O7  1  0.67106100  0.01833000  0.68766400  1
  O  O8  1  0.34076400  0.65923600  0.75000000  1
  O  O9  1  0.37061600  0.12278900  0.41367100  1
  O  O10  1  0.58128500  0.29512100  0.96613800  1
  O  O11  1  0.29512100  0.58128500  0.03386200  1
  O  O12  1  0.36618800  0.24088800  0.74075700  1
  O  O13  1  0.98167000  0.32893900  0.81233600  1
  O  O14  1  0.70487900  0.41871500  0.53386200  1
  O  O15  1  0.24088800  0.36618800  0.25924300  1
  O  O16  1  0.63381200  0.75911200  0.24075700  1
  O  O17  1  0.32893900  0.98167000  0.18766400  1
loop_
_geom_bond_atom_site_label_1
_geom_bond_atom_site_label_2
_geom_bond_distance
_geom_bond_site_symmetry_2
Mn0 O14 1.874992 1_555
Mn0 O3 1.874992 1_555
Mn0 O9 2.024045 1_555
Mn0 O6 2.024045 1_555
Mn1 O15 1.926465 1_555
Mn1 O16 1.926465 1_555
Mn1 O5 1.980772 1_555
Mn1 O17 1.980772 1_555
Mn1 O3 2.530656 1_555
Mn1 O11 2.530656 1_555
Mn2 O12 1.926465 1_555
Mn2 O2 1.926465 1_555
Mn2 O7 1.980772 1_555
Mn2 O13 1.980772 1_555
Mn2 O10 2.530656 1_555
Mn2 O14 2.530656 1_555
Mn3 O11 1.874992 1_555
Mn3 O10 1.874992 1_554
Mn3 O1 2.024045 1_555
Mn3 O4 2.024045 1_554
O0 Si2 1.666822 1_555
O0 Si0 1.666822 1_555
O1 Si2 1.664170 1_555
O1 Pb0 2.446989 1_555
O2 Si3 1.626607 1_555
O3 Pb2 2.376136 1_555
O3 Pb1 2.476996 1_565
O4 Si3 1.664170 1_555
O4 Pb3 2.446989 1_555
O5 Si2 1.636660 1_455
O5 Pb2 2.475432 1_555
O6 Si1 1.664170 1_555
O6 Pb2 2.446989 1_555
O7 Si3 1.636660 1_545
O7 Pb1 2.475432 1_555
O8 Si3 1.666822 1_555
O8 Si1 1.666822 1_555
O9 Si0 1.664170 1_555
O9 Pb1 2.446989 1_555
O10 Pb0 2.376136 1_556
O10 Pb3 2.476996 1_545
O11 Pb3 2.376136 1_554
O11 Pb0 2.476996 1_455
O12 Si1 1.626607 1_555
O13 Si1 1.636660 1_655
O13 Pb0 2.475432 1_556
O14 Pb1 2.376136 1_555
O14 Pb2 2.476996 1_655
O15 Si0 1.626607 1_555
O16 Si2 1.626607 1_555
O17 Si0 1.636660 1_565
O17 Pb3 2.475432 1_554
