# generated using pymatgen
data_C2Se3N2
_symmetry_space_group_name_H-M   'P 1'
_cell_length_a   4.85220700
_cell_length_b   10.24817100
_cell_length_c   14.01218900
_cell_angle_alpha   90.00000000
_cell_angle_beta   90.00000000
_cell_angle_gamma   90.00000000
_symmetry_Int_Tables_number   1
_chemical_formula_structural   C2Se3N2
_chemical_formula_sum   'C8 Se12 N8'
_cell_volume   696.77357211
_cell_formula_units_Z   4
loop_
 _symmetry_equiv_pos_site_id
 _symmetry_equiv_pos_as_xyz
  1  'x, y, z'
loop_
 _atom_site_type_symbol
 _atom_site_label
 _atom_site_symmetry_multiplicity
 _atom_site_fract_x
 _atom_site_fract_y
 _atom_site_fract_z
 _atom_site_occupancy
  C  C0  1  0.98356800  0.20784400  0.60669000  1
  C  C1  1  0.48356800  0.29215600  0.39331000  1
  C  C2  1  0.51643200  0.70784400  0.89331000  1
  C  C3  1  0.01643200  0.79215600  0.10669000  1
  C  C4  1  0.01643200  0.79215600  0.39331000  1
  C  C5  1  0.51643200  0.70784400  0.60669000  1
  C  C6  1  0.48356800  0.29215600  0.10669000  1
  C  C7  1  0.98356800  0.20784400  0.89331000  1
  Se  Se0  1  0.77014300  0.05841700  0.61635100  1
  Se  Se1  1  0.27014300  0.44158300  0.38364900  1
  Se  Se2  1  0.72985700  0.55841700  0.88364900  1
  Se  Se3  1  0.22985700  0.94158300  0.11635100  1
  Se  Se4  1  0.22985700  0.94158300  0.38364900  1
  Se  Se5  1  0.72985700  0.55841700  0.61635100  1
  Se  Se6  1  0.27014300  0.44158300  0.11635100  1
  Se  Se7  1  0.77014300  0.05841700  0.88364900  1
  Se  Se8  1  0.99860600  0.96614500  0.75000000  1
  Se  Se9  1  0.49860600  0.53385500  0.25000000  1
  Se  Se10  1  0.50139400  0.46614500  0.75000000  1
  Se  Se11  1  0.00139400  0.03385500  0.25000000  1
  N  N0  1  0.11109100  0.30471900  0.59938700  1
  N  N1  1  0.61109100  0.19528100  0.40061300  1
  N  N2  1  0.38890900  0.80471900  0.90061300  1
  N  N3  1  0.88890900  0.69528100  0.09938700  1
  N  N4  1  0.88890900  0.69528100  0.40061300  1
  N  N5  1  0.38890900  0.80471900  0.59938700  1
  N  N6  1  0.61109100  0.19528100  0.09938700  1
  N  N7  1  0.11109100  0.30471900  0.90061300  1
loop_
_geom_bond_atom_site_label_1
_geom_bond_atom_site_label_2
_geom_bond_distance
_geom_bond_site_symmetry_2
C0 N0 1.174300 1_655
C0 Se0 1.853591 1_555
C1 N1 1.174300 1_555
C1 Se1 1.853591 1_555
C2 N2 1.174300 1_555
C2 Se2 1.853591 1_555
C3 N3 1.174300 1_455
C3 Se3 1.853591 1_555
C4 N4 1.174300 1_455
C4 Se4 1.853591 1_555
C5 N5 1.174300 1_555
C5 Se5 1.853591 1_555
C6 N6 1.174300 1_555
C6 Se6 1.853591 1_555
C7 N7 1.174300 1_655
C7 Se7 1.853591 1_555
Se0 Se8 2.372792 1_545
Se1 Se9 2.372792 1_555
Se6 Se9 2.372792 1_555
Se7 Se8 2.372792 1_545
Se10 Se2 2.372792 1_555
Se10 Se5 2.372792 1_555
Se11 Se3 2.372792 1_545
Se11 Se4 2.372792 1_545
