# generated using pymatgen
data_K3Nb3(BO6)2
_symmetry_space_group_name_H-M   'P 1'
_cell_length_a   3.96768675
_cell_length_b   15.30826983
_cell_length_c   17.67060250
_cell_angle_alpha   90.00000000
_cell_angle_beta   90.00000000
_cell_angle_gamma   90.00000000
_symmetry_Int_Tables_number   1
_chemical_formula_structural   K3Nb3(BO6)2
_chemical_formula_sum   'K12 Nb12 B8 O48'
_cell_volume   1073.28446516
_cell_formula_units_Z   4
loop_
 _symmetry_equiv_pos_site_id
 _symmetry_equiv_pos_as_xyz
  1  'x, y, z'
loop_
 _atom_site_type_symbol
 _atom_site_label
 _atom_site_symmetry_multiplicity
 _atom_site_fract_x
 _atom_site_fract_y
 _atom_site_fract_z
 _atom_site_occupancy
  K  K0  1  0.50687945  0.70198384  0.11598943  1
  K  K1  1  0.49795959  0.20198408  0.86622005  1
  K  K2  1  0.50204041  0.79801592  0.36622005  1
  K  K3  1  0.50204041  0.20198408  0.36622005  1
  K  K4  1  0.49427838  0.50000000  0.91912870  1
  K  K5  1  0.49312055  0.29801616  0.61598943  1
  K  K6  1  0.48653377  -0.00000000  0.66924012  1
  K  K7  1  0.49312055  0.70198384  0.61598943  1
  K  K8  1  0.50687945  0.29801616  0.11598943  1
  K  K9  1  0.51346623  -0.00000000  0.16924012  1
  K  K10  1  0.49795959  0.79801592  0.86622005  1
  K  K11  1  0.50572162  0.50000000  0.41912870  1
  Nb  Nb0  1  0.02682331  0.87624224  0.02906664  1
  Nb  Nb1  1  0.01552539  0.37623326  0.27903605  1
  Nb  Nb2  1  0.96694218  -0.00000000  0.84359059  1
  Nb  Nb3  1  0.97317669  0.12375776  0.52906664  1
  Nb  Nb4  1  0.01552539  0.62376674  0.27903605  1
  Nb  Nb5  1  0.02682331  0.12375776  0.02906664  1
  Nb  Nb6  1  0.03305782  -0.00000000  0.34359059  1
  Nb  Nb7  1  0.98447461  0.62376674  0.77903605  1
  Nb  Nb8  1  0.01401771  0.50000000  0.09339551  1
  Nb  Nb9  1  0.98447461  0.37623326  0.77903605  1
  Nb  Nb10  1  0.97317669  0.87624224  0.52906664  1
  Nb  Nb11  1  0.98598229  0.50000000  0.59339551  1
  B  B0  1  0.99718059  0.33342523  0.96715060  1
  B  B1  1  0.00778180  0.83336076  0.71721052  1
  B  B2  1  0.99221820  0.16663924  0.21721052  1
  B  B3  1  0.00281941  0.66657477  0.46715060  1
  B  B4  1  0.99718059  0.66657477  0.96715060  1
  B  B5  1  0.99221820  0.83336076  0.21721052  1
  B  B6  1  0.00778180  0.16663924  0.71721052  1
  B  B7  1  0.00281941  0.33342523  0.46715060  1
  O  O0  1  0.00215153  0.90635013  0.26142656  1
  O  O1  1  0.99631080  0.90935666  0.92188553  1
  O  O2  1  0.50473272  -0.00000000  0.33529095  1
  O  O3  1  0.00750527  0.15892558  0.64027114  1
  O  O4  1  0.97736909  0.40635031  0.01132573  1
  O  O5  1  0.00750527  0.84107442  0.64027114  1
  O  O6  1  -0.00215153  0.90635013  0.76142656  1
  O  O7  1  0.01879784  0.24736842  0.74984509  1
  O  O8  1  -0.00016765  -0.00000000  0.05776580  1
  O  O9  1  0.98120216  0.75263158  0.24984509  1
  O  O10  1  0.00544817  0.25261737  0.49971703  1
  O  O11  1  0.49815884  0.86801500  0.03308071  1
  O  O12  1  0.01976172  0.34128758  0.89038365  1
  O  O13  1  0.48671953  0.63203770  0.28316486  1
  O  O14  1  0.48489852  0.50000000  0.08505669  1
  O  O15  1  0.50184116  0.86801500  0.53308071  1
  O  O16  1  0.01976172  0.65871242  0.89038365  1
  O  O17  1  0.00368920  0.09064334  0.42188553  1
  O  O18  1  0.99455183  0.25261737  0.99971703  1
  O  O19  1  0.50184116  0.13198500  0.53308071  1
  O  O20  1  0.49815884  0.13198500  0.03308071  1
  O  O21  1  0.51328047  0.63203770  0.78316486  1
  O  O22  1  0.00016765  -0.00000000  0.55776580  1
  O  O23  1  0.01879784  0.75263158  0.74984509  1
  O  O24  1  0.99631080  0.09064334  0.92188553  1
  O  O25  1  0.98764018  0.40935982  0.17181414  1
  O  O26  1  0.49526728  -0.00000000  0.83529095  1
  O  O27  1  0.00368920  0.90935666  0.42188553  1
  O  O28  1  -0.00215153  0.09364987  0.76142656  1
  O  O29  1  0.98764018  0.59064018  0.17181414  1
  O  O30  1  0.01235982  0.40935982  0.67181414  1
  O  O31  1  0.97736909  0.59364969  0.01132573  1
  O  O32  1  0.98023828  0.65871242  0.39038365  1
  O  O33  1  0.51328047  0.36796230  0.78316486  1
  O  O34  1  0.00215153  0.09364987  0.26142656  1
  O  O35  1  0.01149529  0.50000000  0.80762116  1
  O  O36  1  0.98120216  0.24736842  0.24984509  1
  O  O37  1  0.51510048  0.50000000  0.58505669  1
  O  O38  1  0.02263091  0.59364969  0.51132573  1
  O  O39  1  0.98023828  0.34128758  0.39038365  1
  O  O40  1  0.48671953  0.36796230  0.28316486  1
  O  O41  1  0.00544817  0.74738263  0.49971703  1
  O  O42  1  0.99249473  0.15892558  0.14027114  1
  O  O43  1  0.01235982  0.59064018  0.67181414  1
  O  O44  1  0.99249473  0.84107442  0.14027114  1
  O  O45  1  0.02263091  0.40635031  0.51132573  1
  O  O46  1  0.99455183  0.74738263  0.99971703  1
  O  O47  1  0.98850471  0.50000000  0.30762116  1
loop_
_geom_bond_atom_site_label_1
_geom_bond_atom_site_label_2
_geom_bond_distance
_geom_bond_site_symmetry_2
K0 O29 2.741702 1_555
K0 O29 2.850032 1_455
K0 O44 2.903479 1_555
K0 O46 2.906604 1_554
K0 O11 2.933862 1_555
K0 O46 2.972622 1_454
K0 O44 2.980452 1_455
K0 O31 3.107352 1_555
K0 O9 3.120515 1_555
K0 O14 3.141176 1_555
K0 O13 3.143177 1_555
K0 O9 3.247471 1_455
K0 O31 3.253425 1_455
K1 O24 2.789690 1_555
K1 O24 2.798979 1_455
K1 O7 2.885473 1_555
K1 O12 2.886131 1_555
K1 O33 2.934879 1_555
K1 O7 2.997007 1_655
K1 O12 3.002697 1_655
K1 O20 3.137208 1_556
K1 O26 3.139975 1_555
K1 O18 3.169813 1_555
K1 O28 3.180132 1_655
K1 O28 3.180682 1_555
K1 O18 3.186692 1_455
K2 O27 2.789690 1_555
K2 O27 2.798979 1_655
K2 O9 2.885473 1_555
K2 O32 2.886131 1_555
K2 O13 2.934879 1_555
K2 O9 2.997007 1_455
K2 O32 3.002697 1_455
K2 O15 3.137208 1_555
K2 O2 3.139975 1_565
K2 O41 3.169813 1_555
K2 O0 3.180132 1_555
K2 O0 3.180682 1_655
K2 O41 3.186692 1_655
K3 O17 2.789690 1_555
K3 O17 2.798979 1_655
K3 O36 2.885473 1_555
K3 O39 2.886131 1_555
K3 O40 2.934879 1_555
K3 O36 2.997007 1_455
K3 O39 3.002697 1_455
K3 O19 3.137208 1_555
K3 O2 3.139975 1_555
K3 O10 3.169813 1_555
K3 O34 3.180132 1_555
K3 O34 3.180682 1_655
K3 O10 3.186692 1_655
K4 O35 2.748047 1_555
K4 O35 2.844967 1_655
K4 O4 2.895412 1_556
K4 O31 2.895412 1_556
K4 O14 2.932284 1_556
K4 O4 2.985934 1_456
K4 O31 2.985934 1_456
K4 O12 3.115399 1_555
K4 O16 3.115399 1_555
K4 O21 3.140624 1_555
K4 O33 3.140624 1_555
K4 O12 3.241613 1_655
K4 O16 3.241613 1_655
K5 O30 2.741702 1_555
K5 O30 2.850032 1_655
K5 O3 2.903479 1_555
K5 O10 2.906604 1_555
K5 O19 2.933862 1_555
K5 O10 2.972622 1_655
K5 O3 2.980452 1_655
K5 O45 3.107352 1_555
K5 O7 3.120515 1_555
K5 O37 3.141176 1_555
K5 O33 3.143177 1_555
K5 O7 3.247471 1_655
K5 O45 3.253425 1_655
K6 O22 2.757556 1_555
K6 O22 2.834321 1_655
K6 O6 2.910051 1_545
K6 O28 2.910051 1_555
K6 O26 2.934423 1_555
K6 O28 2.970629 1_655
K6 O6 2.970629 1_645
K6 O3 3.129431 1_555
K6 O5 3.129431 1_545
K6 O15 3.142432 1_545
K6 O19 3.142432 1_555
K6 O3 3.233207 1_655
K6 O5 3.233207 1_645
K7 O43 2.741702 1_555
K7 O43 2.850032 1_655
K7 O5 2.903479 1_555
K7 O41 2.906604 1_555
K7 O15 2.933862 1_555
K7 O41 2.972622 1_655
K7 O5 2.980452 1_655
K7 O38 3.107352 1_555
K7 O23 3.120515 1_555
K7 O37 3.141176 1_555
K7 O21 3.143177 1_555
K7 O23 3.247471 1_655
K7 O38 3.253425 1_655
K8 O25 2.741702 1_555
K8 O25 2.850032 1_455
K8 O42 2.903479 1_555
K8 O18 2.906604 1_554
K8 O20 2.933862 1_555
K8 O18 2.972622 1_454
K8 O42 2.980452 1_455
K8 O4 3.107352 1_555
K8 O36 3.120515 1_555
K8 O14 3.141176 1_555
K8 O40 3.143177 1_555
K8 O36 3.247471 1_455
K8 O4 3.253425 1_455
K9 O8 2.757556 1_655
K9 O8 2.834321 1_555
K9 O34 2.910051 1_655
K9 O0 2.910051 1_645
K9 O2 2.934423 1_555
K9 O0 2.970629 1_545
K9 O34 2.970629 1_555
K9 O42 3.129431 1_555
K9 O44 3.129431 1_545
K9 O11 3.142432 1_545
K9 O20 3.142432 1_555
K9 O42 3.233207 1_455
K9 O44 3.233207 1_445
K10 O1 2.789690 1_555
K10 O1 2.798979 1_455
K10 O23 2.885473 1_555
K10 O16 2.886131 1_555
K10 O21 2.934879 1_555
K10 O23 2.997007 1_655
K10 O16 3.002697 1_655
K10 O11 3.137208 1_556
K10 O26 3.139975 1_565
K10 O46 3.169813 1_555
K10 O6 3.180132 1_655
K10 O6 3.180682 1_555
K10 O46 3.186692 1_455
K11 O47 2.748047 1_555
K11 O47 2.844967 1_455
K11 O38 2.895412 1_555
K11 O45 2.895412 1_555
K11 O37 2.932284 1_555
K11 O38 2.985934 1_655
K11 O45 2.985934 1_655
K11 O32 3.115399 1_555
K11 O39 3.115399 1_555
K11 O13 3.140624 1_555
K11 O40 3.140624 1_555
K11 O32 3.241613 1_455
K11 O39 3.241613 1_455
Nb0 O11 1.875690 1_555
Nb0 O8 1.964140 1_565
Nb0 O1 1.964356 1_454
Nb0 O44 2.042010 1_455
Nb0 O46 2.043670 1_454
Nb0 O11 2.102549 1_455
Nb1 O40 1.875253 1_555
Nb1 O47 1.963760 1_455
Nb1 O25 1.964484 1_455
Nb1 O36 2.043564 1_455
Nb1 O39 2.043808 1_455
Nb1 O40 2.103219 1_455
Nb2 O26 1.877196 1_555
Nb2 O1 1.962936 1_545
Nb2 O24 1.962936 1_555
Nb2 O28 2.044083 1_655
Nb2 O6 2.044083 1_645
Nb2 O26 2.101353 1_655
Nb3 O19 1.875690 1_555
Nb3 O22 1.964140 1_655
Nb3 O17 1.964356 1_655
Nb3 O3 2.042010 1_655
Nb3 O10 2.043670 1_655
Nb3 O19 2.102549 1_655
Nb4 O13 1.875253 1_555
Nb4 O47 1.963760 1_455
Nb4 O29 1.964484 1_455
Nb4 O9 2.043564 1_455
Nb4 O32 2.043808 1_455
Nb4 O13 2.103219 1_455
Nb5 O20 1.875690 1_555
Nb5 O8 1.964140 1_555
Nb5 O24 1.964356 1_454
Nb5 O42 2.042010 1_455
Nb5 O18 2.043670 1_454
Nb5 O20 2.102549 1_455
Nb6 O2 1.877196 1_555
Nb6 O27 1.962936 1_545
Nb6 O17 1.962936 1_555
Nb6 O34 2.044083 1_555
Nb6 O0 2.044083 1_545
Nb6 O2 2.101353 1_455
Nb7 O21 1.875253 1_555
Nb7 O35 1.963760 1_655
Nb7 O43 1.964484 1_655
Nb7 O23 2.043564 1_655
Nb7 O16 2.043808 1_655
Nb7 O21 2.103219 1_655
Nb8 O14 1.874109 1_555
Nb8 O29 1.963774 1_455
Nb8 O25 1.963774 1_455
Nb8 O4 2.044392 1_455
Nb8 O31 2.044392 1_455
Nb8 O14 2.104544 1_455
Nb9 O33 1.875253 1_555
Nb9 O35 1.963760 1_655
Nb9 O30 1.964484 1_655
Nb9 O7 2.043564 1_655
Nb9 O12 2.043808 1_655
Nb9 O33 2.103219 1_655
Nb10 O15 1.875690 1_555
Nb10 O22 1.964140 1_665
Nb10 O27 1.964356 1_655
Nb10 O5 2.042010 1_655
Nb10 O41 2.043670 1_655
Nb10 O15 2.102549 1_655
Nb11 O37 1.874113 1_555
Nb11 O43 1.963774 1_655
Nb11 O30 1.963774 1_655
Nb11 O38 2.044392 1_655
Nb11 O45 2.044392 1_655
Nb11 O37 2.104540 1_655
B0 O18 1.364372 1_555
B0 O4 1.364467 1_556
B0 O12 1.364791 1_655
B1 O6 1.363991 1_555
B1 O23 1.364450 1_555
B1 O5 1.364684 1_555
B2 O34 1.363991 1_655
B2 O36 1.364450 1_555
B2 O42 1.364684 1_555
B3 O41 1.364372 1_555
B3 O38 1.364467 1_555
B3 O32 1.364791 1_455
B4 O46 1.364372 1_555
B4 O31 1.364467 1_556
B4 O16 1.364791 1_655
B5 O0 1.363991 1_655
B5 O9 1.364450 1_555
B5 O44 1.364684 1_555
B6 O28 1.363991 1_555
B6 O7 1.364450 1_555
B6 O3 1.364684 1_555
B7 O10 1.364372 1_555
B7 O45 1.364467 1_555
B7 O39 1.364791 1_455
