# generated using pymatgen
data_LaTa3O9
_symmetry_space_group_name_H-M   'P 1'
_cell_length_a   6.62099900
_cell_length_b   7.75428800
_cell_length_c   12.67823500
_cell_angle_alpha   90.00000000
_cell_angle_beta   90.00000000
_cell_angle_gamma   90.00000000
_symmetry_Int_Tables_number   1
_chemical_formula_structural   LaTa3O9
_chemical_formula_sum   'La4 Ta12 O36'
_cell_volume   650.91495053
_cell_formula_units_Z   4
loop_
 _symmetry_equiv_pos_site_id
 _symmetry_equiv_pos_as_xyz
  1  'x, y, z'
loop_
 _atom_site_type_symbol
 _atom_site_label
 _atom_site_symmetry_multiplicity
 _atom_site_fract_x
 _atom_site_fract_y
 _atom_site_fract_z
 _atom_site_occupancy
  La  La0  1  0.05072100  0.25000000  0.47323300  1
  La  La1  1  0.55072100  0.25000000  0.02676700  1
  La  La2  1  0.94927900  0.75000000  0.52676700  1
  La  La3  1  0.44927900  0.75000000  0.97323300  1
  Ta  Ta0  1  0.78329100  0.50206500  0.28453800  1
  Ta  Ta1  1  0.28329100  0.99793500  0.21546200  1
  Ta  Ta2  1  0.21670900  0.00206500  0.71546200  1
  Ta  Ta3  1  0.71670900  0.49793500  0.78453800  1
  Ta  Ta4  1  0.21670900  0.49793500  0.71546200  1
  Ta  Ta5  1  0.71670900  0.00206500  0.78453800  1
  Ta  Ta6  1  0.78329100  0.99793500  0.28453800  1
  Ta  Ta7  1  0.28329100  0.50206500  0.21546200  1
  Ta  Ta8  1  0.00000000  0.50000000  0.00000000  1
  Ta  Ta9  1  0.50000000  0.00000000  0.50000000  1
  Ta  Ta10  1  0.00000000  0.00000000  0.00000000  1
  Ta  Ta11  1  0.50000000  0.50000000  0.50000000  1
  O  O0  1  0.20651700  0.75000000  0.70157000  1
  O  O1  1  0.70651700  0.75000000  0.79843000  1
  O  O2  1  0.79348300  0.25000000  0.29843000  1
  O  O3  1  0.29348300  0.25000000  0.20157000  1
  O  O4  1  0.80982800  0.75000000  0.31805400  1
  O  O5  1  0.30982800  0.75000000  0.18194600  1
  O  O6  1  0.19017200  0.25000000  0.68194600  1
  O  O7  1  0.69017200  0.25000000  0.81805400  1
  O  O8  1  0.56288700  0.75000000  0.51960900  1
  O  O9  1  0.06288700  0.75000000  0.98039100  1
  O  O10  1  0.43711300  0.25000000  0.48039100  1
  O  O11  1  0.93711300  0.25000000  0.01960900  1
  O  O12  1  0.09131700  0.47952200  0.33307900  1
  O  O13  1  0.59131700  0.02047800  0.16692100  1
  O  O14  1  0.90868300  0.97952200  0.66692100  1
  O  O15  1  0.40868300  0.52047800  0.83307900  1
  O  O16  1  0.28586800  0.47312600  0.04183100  1
  O  O17  1  0.78586800  0.02687400  0.45816900  1
  O  O18  1  0.71413200  0.97312600  0.95816900  1
  O  O19  1  0.21413200  0.52687400  0.54183100  1
  O  O20  1  0.71413200  0.52687400  0.95816900  1
  O  O21  1  0.21413200  0.97312600  0.54183100  1
  O  O22  1  0.28586800  0.02687400  0.04183100  1
  O  O23  1  0.78586800  0.47312600  0.45816900  1
  O  O24  1  0.02632600  0.46868300  0.84371900  1
  O  O25  1  0.52632600  0.03131700  0.65628100  1
  O  O26  1  0.97367400  0.96868300  0.15628100  1
  O  O27  1  0.47367400  0.53131700  0.34371900  1
  O  O28  1  0.97367400  0.53131700  0.15628100  1
  O  O29  1  0.47367400  0.96868300  0.34371900  1
  O  O30  1  0.02632600  0.03131700  0.84371900  1
  O  O31  1  0.52632600  0.46868300  0.65628100  1
  O  O32  1  0.59131700  0.47952200  0.16692100  1
  O  O33  1  0.09131700  0.02047800  0.33307900  1
  O  O34  1  0.40868300  0.97952200  0.83307900  1
  O  O35  1  0.90868300  0.52047800  0.66692100  1
loop_
_geom_bond_atom_site_label_1
_geom_bond_atom_site_label_2
_geom_bond_distance
_geom_bond_site_symmetry_2
La0 O23 2.470849 1_455
La0 O17 2.470849 1_455
La0 O33 2.529279 1_555
La0 O12 2.529279 1_555
La0 O19 2.556643 1_555
La0 O21 2.556643 1_545
La0 O10 2.559910 1_555
La0 O2 2.795051 1_455
La0 O6 2.802571 1_555
La1 O16 2.470849 1_555
La1 O22 2.470849 1_555
La1 O32 2.529279 1_555
La1 O13 2.529279 1_555
La1 O20 2.556643 1_554
La1 O18 2.556643 1_544
La1 O11 2.559910 1_555
La1 O3 2.795051 1_555
La1 O7 2.802571 1_554
La2 O21 2.470849 1_655
La2 O19 2.470849 1_655
La2 O14 2.529279 1_555
La2 O35 2.529279 1_555
La2 O23 2.556643 1_555
La2 O17 2.556643 1_565
La2 O8 2.559910 1_555
La2 O0 2.795051 1_655
La2 O4 2.802571 1_555
La3 O18 2.470849 1_555
La3 O20 2.470849 1_555
La3 O15 2.529279 1_555
La3 O34 2.529279 1_555
La3 O16 2.556643 1_556
La3 O22 2.556643 1_566
La3 O9 2.559910 1_555
La3 O1 2.795051 1_555
La3 O5 2.802571 1_556
O0 Ta2 1.963664 1_565
O0 Ta4 1.963664 1_555
O1 Ta3 1.963664 1_555
O1 Ta5 1.963664 1_565
O2 Ta6 1.963664 1_545
O2 Ta0 1.963664 1_555
O3 Ta7 1.963664 1_555
O3 Ta1 1.963664 1_545
O4 Ta6 1.976782 1_555
O4 Ta0 1.976782 1_555
O5 Ta7 1.976782 1_555
O5 Ta1 1.976782 1_555
O6 Ta4 1.976782 1_555
O6 Ta2 1.976782 1_555
O7 Ta5 1.976782 1_555
O7 Ta3 1.976782 1_555
O8 Ta11 1.998308 1_555
O8 Ta9 1.998308 1_565
O9 Ta10 1.998308 1_566
O9 Ta8 1.998308 1_556
O10 Ta11 1.998308 1_555
O10 Ta9 1.998308 1_555
O11 Ta8 1.998308 1_655
O11 Ta10 1.998308 1_655
O12 Ta7 1.967169 1_555
O12 Ta0 2.137430 1_455
O13 Ta6 1.967169 1_545
O13 Ta1 2.137430 1_545
O14 Ta5 1.967169 1_565
O14 Ta2 2.137430 1_665
O15 Ta4 1.967169 1_555
O15 Ta3 2.137430 1_555
O16 Ta8 1.976644 1_555
O16 Ta7 2.212808 1_555
O17 Ta9 1.976644 1_555
O17 Ta6 2.212808 1_545
O18 Ta10 1.976644 1_666
O18 Ta5 2.212808 1_565
O19 Ta11 1.976644 1_555
O19 Ta4 2.212808 1_555
O20 Ta8 1.976644 1_656
O20 Ta3 2.212808 1_555
O21 Ta9 1.976644 1_565
O21 Ta2 2.212808 1_565
O22 Ta10 1.976644 1_555
O22 Ta1 2.212808 1_545
O23 Ta11 1.976644 1_555
O23 Ta0 2.212808 1_555
O24 Ta8 2.003789 1_556
O24 Ta4 2.069900 1_555
O24 Ta3 2.194723 1_455
O25 Ta9 2.003789 1_555
O25 Ta5 2.069900 1_555
O25 Ta2 2.194723 1_555
O26 Ta10 2.003789 1_665
O26 Ta6 2.069900 1_555
O26 Ta1 2.194723 1_655
O27 Ta11 2.003789 1_555
O27 Ta7 2.069900 1_555
O27 Ta0 2.194723 1_555
O28 Ta8 2.003789 1_655
O28 Ta0 2.069900 1_555
O28 Ta7 2.194723 1_655
O29 Ta9 2.003789 1_565
O29 Ta1 2.069900 1_555
O29 Ta6 2.194723 1_555
O30 Ta10 2.003789 1_556
O30 Ta2 2.069900 1_555
O30 Ta5 2.194723 1_455
O31 Ta11 2.003789 1_555
O31 Ta3 2.069900 1_555
O31 Ta4 2.194723 1_555
O32 Ta0 1.967169 1_555
O32 Ta7 2.137430 1_555
O33 Ta1 1.967169 1_545
O33 Ta6 2.137430 1_445
O34 Ta2 1.967169 1_565
O34 Ta5 2.137430 1_565
O35 Ta3 1.967169 1_555
O35 Ta4 2.137430 1_655
