# generated using pymatgen
data_K2Se(SO3)2
_symmetry_space_group_name_H-M   'P 1'
_cell_length_a   6.04970200
_cell_length_b   9.73691100
_cell_length_c   15.75626844
_cell_angle_alpha   68.96668396
_cell_angle_beta   90.00000000
_cell_angle_gamma   90.00000000
_symmetry_Int_Tables_number   1
_chemical_formula_structural   K2Se(SO3)2
_chemical_formula_sum   'K8 Se4 S8 O24'
_cell_volume   866.28993741
_cell_formula_units_Z   4
loop_
 _symmetry_equiv_pos_site_id
 _symmetry_equiv_pos_as_xyz
  1  'x, y, z'
loop_
 _atom_site_type_symbol
 _atom_site_label
 _atom_site_symmetry_multiplicity
 _atom_site_fract_x
 _atom_site_fract_y
 _atom_site_fract_z
 _atom_site_occupancy
  K  K0  1  0.72110500  0.44627700  0.67984300  1
  K  K1  1  0.22110500  0.55372300  0.82015700  1
  K  K2  1  0.73506400  0.22378500  0.46810300  1
  K  K3  1  0.26493600  0.77621500  0.53189700  1
  K  K4  1  0.27889500  0.55372300  0.32015700  1
  K  K5  1  0.23506400  0.77621500  0.03189700  1
  K  K6  1  0.77889500  0.44627700  0.17984300  1
  K  K7  1  0.76493600  0.22378500  0.96810300  1
  Se  Se0  1  0.66890500  0.87321100  0.29703500  1
  Se  Se1  1  0.33109500  0.12678900  0.70296500  1
  Se  Se2  1  0.16890500  0.12678900  0.20296500  1
  Se  Se3  1  0.83109500  0.87321100  0.79703500  1
  S  S0  1  0.28963100  0.33936900  0.09034000  1
  S  S1  1  0.73978200  0.80788900  0.17266200  1
  S  S2  1  0.78963000  0.66063100  0.40966000  1
  S  S3  1  0.26021800  0.19211100  0.82733800  1
  S  S4  1  0.21036900  0.33936900  0.59034000  1
  S  S5  1  0.76021800  0.80788900  0.67266200  1
  S  S6  1  0.71036900  0.66063100  0.90966000  1
  S  S7  1  0.23978200  0.19211100  0.32733800  1
  O  O0  1  0.76518600  0.94957500  0.59723700  1
  O  O1  1  0.95600900  0.73311400  0.18655600  1
  O  O2  1  0.44286000  0.29147600  0.82991600  1
  O  O3  1  0.27193500  0.46081700  0.62051500  1
  O  O4  1  0.33466800  0.33394800  0.51157000  1
  O  O5  1  0.54399100  0.73311400  0.68655600  1
  O  O6  1  0.22806500  0.46081700  0.12051500  1
  O  O7  1  0.26518600  0.05042500  0.90276300  1
  O  O8  1  0.72806500  0.53918300  0.37948500  1
  O  O9  1  0.52985900  0.32587700  0.08178800  1
  O  O10  1  0.45600900  0.26688600  0.31344400  1
  O  O11  1  0.94286000  0.70852400  0.67008400  1
  O  O12  1  0.83466800  0.66605200  0.98843000  1
  O  O13  1  0.04399100  0.26688600  0.81344400  1
  O  O14  1  0.73481400  0.94957500  0.09723700  1
  O  O15  1  0.02985900  0.67412300  0.41821200  1
  O  O16  1  0.97014100  0.32587700  0.58178800  1
  O  O17  1  0.23481400  0.05042500  0.40276300  1
  O  O18  1  0.47014100  0.67412300  0.91821200  1
  O  O19  1  0.05714000  0.29147600  0.32991600  1
  O  O20  1  0.77193500  0.53918300  0.87948500  1
  O  O21  1  0.16533200  0.33394800  0.01157000  1
  O  O22  1  0.66533200  0.66605200  0.48843000  1
  O  O23  1  0.55714000  0.70852400  0.17008400  1
loop_
_geom_bond_atom_site_label_1
_geom_bond_atom_site_label_2
_geom_bond_distance
_geom_bond_site_symmetry_2
K0 O16 2.707631 1_555
K0 O11 2.839331 1_555
K0 O2 2.852770 1_555
K0 O3 2.860566 1_555
K0 O13 2.942535 1_655
K0 O22 3.025947 1_555
K0 O5 3.028473 1_555
K1 O18 2.707631 1_555
K1 O2 2.839331 1_555
K1 O11 2.852770 1_455
K1 O20 2.860566 1_455
K1 O5 2.942535 1_555
K1 O21 3.025947 1_556
K1 O13 3.028473 1_555
K2 O0 2.720701 1_545
K2 O16 2.738138 1_555
K2 O19 2.818065 1_655
K2 O4 2.830969 1_555
K2 O10 2.868846 1_555
K2 O8 2.881744 1_555
K3 O17 2.720701 1_565
K3 O15 2.738138 1_555
K3 O11 2.818065 1_455
K3 O22 2.830969 1_555
K3 O5 2.868846 1_555
K3 O3 2.881744 1_555
K4 O15 2.707631 1_555
K4 O19 2.839331 1_555
K4 O23 2.852770 1_555
K4 O8 2.860566 1_555
K4 O1 2.942535 1_455
K4 O4 3.025947 1_555
K4 O10 3.028473 1_555
K5 O7 2.720701 1_564
K5 O18 2.738138 1_554
K5 O23 2.818065 1_555
K5 O12 2.830969 1_454
K5 O1 2.868846 1_455
K5 O6 2.881744 1_555
K6 O9 2.707631 1_555
K6 O23 2.839331 1_555
K6 O19 2.852770 1_655
K6 O6 2.860566 1_655
K6 O10 2.942535 1_555
K6 O12 3.025947 1_554
K6 O1 3.028473 1_555
K7 O14 2.720701 1_546
K7 O9 2.738138 1_556
K7 O2 2.818065 1_555
K7 O21 2.830969 1_656
K7 O13 2.868846 1_655
K7 O20 2.881744 1_555
S0 Se2 2.308722 1_555
S1 Se0 2.307236 1_555
S2 Se0 2.308720 1_555
S3 Se1 2.307236 1_555
S4 Se1 2.308722 1_555
S5 Se3 2.307236 1_555
S6 Se3 2.308722 1_555
S7 Se2 2.307236 1_555
O0 S5 1.462739 1_555
O1 S1 1.474706 1_555
O2 S3 1.478784 1_555
O3 S4 1.471980 1_555
O4 S4 1.468215 1_555
O5 S5 1.474706 1_555
O6 S0 1.471980 1_555
O7 S3 1.462739 1_555
O8 S2 1.471978 1_555
O9 S0 1.469771 1_555
O10 S7 1.474706 1_555
O11 S5 1.478784 1_555
O12 S6 1.468215 1_555
O13 S3 1.474706 1_555
O14 S1 1.462739 1_555
O15 S2 1.469777 1_455
O16 S4 1.469771 1_655
O17 S7 1.462739 1_555
O18 S6 1.469771 1_555
O19 S7 1.478784 1_555
O20 S6 1.471980 1_555
O21 S0 1.468215 1_555
O22 S2 1.468212 1_555
O23 S1 1.478784 1_555
