# generated using pymatgen
data_CaGe2O5
_symmetry_space_group_name_H-M   'P 1'
_cell_length_a   5.42605407
_cell_length_b   5.54868839
_cell_length_c   6.88679043
_cell_angle_alpha   105.21414839
_cell_angle_beta   101.77613818
_cell_angle_gamma   106.87823081
_symmetry_Int_Tables_number   1
_chemical_formula_structural   CaGe2O5
_chemical_formula_sum   'Ca2 Ge4 O10'
_cell_volume   182.42531825
_cell_formula_units_Z   2
loop_
 _symmetry_equiv_pos_site_id
 _symmetry_equiv_pos_as_xyz
  1  'x, y, z'
loop_
 _atom_site_type_symbol
 _atom_site_label
 _atom_site_symmetry_multiplicity
 _atom_site_fract_x
 _atom_site_fract_y
 _atom_site_fract_z
 _atom_site_occupancy
  Ca  Ca0  1  0.66051636  0.31841510  0.27023749  1
  Ca  Ca1  1  0.33948364  0.68158490  0.72976251  1
  Ge  Ge0  1  0.31150790  0.68070088  0.24203049  1
  Ge  Ge1  1  -0.00000000  -0.00000000  0.50000000  1
  Ge  Ge2  1  0.68849210  0.31929912  0.75796951  1
  Ge  Ge3  1  -0.00000000  -0.00000000  -0.00000000  1
  O  O0  1  0.93077942  0.06863956  0.25380995  1
  O  O1  1  0.37846432  0.23362189  0.56384650  1
  O  O2  1  0.06922058  0.93136044  0.74619005  1
  O  O3  1  0.62153568  0.76637811  0.43615350  1
  O  O4  1  0.29900352  0.88559631  0.08804234  1
  O  O5  1  0.70099648  0.11440369  0.91195766  1
  O  O6  1  0.26080532  0.35696522  0.08209313  1
  O  O7  1  0.92254299  0.31498972  0.61534640  1
  O  O8  1  0.07745701  0.68501028  0.38465360  1
  O  O9  1  0.73919468  0.64303478  0.91790687  1
loop_
_geom_bond_atom_site_label_1
_geom_bond_atom_site_label_2
_geom_bond_distance
_geom_bond_site_symmetry_2
Ca0 O0 2.291223 1_555
Ca0 O8 2.373952 1_655
Ca0 O6 2.386701 1_555
Ca0 O4 2.422404 1_545
Ca0 O5 2.513432 1_554
Ca0 O7 2.516066 1_555
Ca0 O3 2.538081 1_555
Ca0 O1 2.827806 1_555
Ca1 O2 2.291223 1_555
Ca1 O7 2.373952 1_455
Ca1 O9 2.386701 1_555
Ca1 O5 2.422404 1_565
Ca1 O4 2.513432 1_556
Ca1 O8 2.516066 1_555
Ca1 O1 2.538081 1_555
Ca1 O3 2.827806 1_555
Ge0 O6 1.751145 1_555
Ge0 O4 1.752140 1_555
Ge0 O8 1.758582 1_555
Ge0 O3 1.768398 1_555
Ge1 O0 1.822844 1_455
Ge1 O2 1.822844 1_545
Ge1 O7 1.922633 1_455
Ge1 O8 1.922633 1_545
Ge1 O3 1.969101 1_445
Ge1 O1 1.969101 1_555
Ge2 O9 1.751145 1_555
Ge2 O5 1.752140 1_555
Ge2 O7 1.758582 1_555
Ge2 O1 1.768398 1_555
Ge3 O2 1.828398 1_544
Ge3 O0 1.828398 1_455
Ge3 O9 1.924442 1_444
Ge3 O6 1.924442 1_555
Ge3 O4 1.949698 1_545
Ge3 O5 1.949698 1_454
