# generated using pymatgen
data_Er3SiSe2O10F
_symmetry_space_group_name_H-M   'P 1'
_cell_length_a   5.91161000
_cell_length_b   10.35854500
_cell_length_c   15.45002300
_cell_angle_alpha   90.00000000
_cell_angle_beta   90.00000000
_cell_angle_gamma   90.00000000
_symmetry_Int_Tables_number   1
_chemical_formula_structural   Er3SiSe2O10F
_chemical_formula_sum   'Er12 Si4 Se8 O40 F4'
_cell_volume   946.09263673
_cell_formula_units_Z   4
loop_
 _symmetry_equiv_pos_site_id
 _symmetry_equiv_pos_as_xyz
  1  'x, y, z'
loop_
 _atom_site_type_symbol
 _atom_site_label
 _atom_site_symmetry_multiplicity
 _atom_site_fract_x
 _atom_site_fract_y
 _atom_site_fract_z
 _atom_site_occupancy
  Er  Er0  1  0.92976600  0.88690700  0.65215000  1
  Er  Er1  1  0.07023400  0.11309300  0.34785000  1
  Er  Er2  1  0.25000000  0.37239300  0.50000000  1
  Er  Er3  1  0.75000000  0.62760700  0.50000000  1
  Er  Er4  1  0.42976600  0.11309300  0.65215000  1
  Er  Er5  1  0.42976600  0.38690700  0.84785000  1
  Er  Er6  1  0.57023400  0.61309300  0.15215000  1
  Er  Er7  1  0.75000000  0.87239300  0.00000000  1
  Er  Er8  1  0.92976600  0.61309300  0.84785000  1
  Er  Er9  1  0.07023400  0.38690700  0.15215000  1
  Er  Er10  1  0.57023400  0.88690700  0.34785000  1
  Er  Er11  1  0.25000000  0.12760700  0.00000000  1
  Si  Si0  1  0.75000000  0.35812500  0.00000000  1
  Si  Si1  1  0.25000000  0.85812500  0.50000000  1
  Si  Si2  1  0.75000000  0.14187500  0.50000000  1
  Si  Si3  1  0.25000000  0.64187500  0.00000000  1
  Se  Se0  1  0.03006900  0.88392900  0.17494100  1
  Se  Se1  1  0.96993100  0.11607100  0.82505900  1
  Se  Se2  1  0.96993100  0.38392900  0.67494100  1
  Se  Se3  1  0.53006900  0.11607100  0.17494100  1
  Se  Se4  1  0.53006900  0.38392900  0.32505900  1
  Se  Se5  1  0.46993100  0.61607100  0.67494100  1
  Se  Se6  1  0.03006900  0.61607100  0.32505900  1
  Se  Se7  1  0.46993100  0.88392900  0.82505900  1
  O  O0  1  0.48115400  0.98517800  0.91420100  1
  O  O1  1  0.98115400  0.01482200  0.91420100  1
  O  O2  1  0.23215800  0.55281300  0.08868000  1
  O  O3  1  0.02234500  0.77522000  0.52697600  1
  O  O4  1  0.38019400  0.03286900  0.25506100  1
  O  O5  1  0.73215800  0.44718700  0.08868000  1
  O  O6  1  0.01884600  0.98517800  0.08579900  1
  O  O7  1  0.73215800  0.05281300  0.41132000  1
  O  O8  1  0.47765500  0.72478000  0.02697600  1
  O  O9  1  0.97765500  0.22478000  0.47302400  1
  O  O10  1  0.47765500  0.77522000  0.47302400  1
  O  O11  1  0.88019400  0.96713100  0.25506100  1
  O  O12  1  0.51884600  0.01482200  0.08579900  1
  O  O13  1  0.81712500  0.78237700  0.13865600  1
  O  O14  1  0.98115400  0.48517800  0.58579900  1
  O  O15  1  0.18287500  0.21762300  0.86134400  1
  O  O16  1  0.88019400  0.53286900  0.24493900  1
  O  O17  1  0.76784200  0.05281300  0.58868000  1
  O  O18  1  0.23215800  0.94718700  0.41132000  1
  O  O19  1  0.11980600  0.46713100  0.75506100  1
  O  O20  1  0.38019400  0.46713100  0.24493900  1
  O  O21  1  0.52234500  0.22478000  0.52697600  1
  O  O22  1  0.31712500  0.28237700  0.36134400  1
  O  O23  1  0.76784200  0.44718700  0.91132000  1
  O  O24  1  0.26784200  0.55281300  0.91132000  1
  O  O25  1  0.31712500  0.21762300  0.13865600  1
  O  O26  1  0.52234500  0.27522000  0.97302400  1
  O  O27  1  0.18287500  0.28237700  0.63865600  1
  O  O28  1  0.48115400  0.51482200  0.58579900  1
  O  O29  1  0.02234500  0.72478000  0.97302400  1
  O  O30  1  0.81712500  0.71762300  0.36134400  1
  O  O31  1  0.61980600  0.53286900  0.75506100  1
  O  O32  1  0.68287500  0.78237700  0.86134400  1
  O  O33  1  0.51884600  0.48517800  0.41420100  1
  O  O34  1  0.26784200  0.94718700  0.58868000  1
  O  O35  1  0.11980600  0.03286900  0.74493900  1
  O  O36  1  0.68287500  0.71762300  0.63865600  1
  O  O37  1  0.01884600  0.51482200  0.41420100  1
  O  O38  1  0.97765500  0.27522000  0.02697600  1
  O  O39  1  0.61980600  0.96713100  0.74493900  1
  F  F0  1  0.43969300  0.75000000  0.25000000  1
  F  F1  1  0.93969300  0.25000000  0.25000000  1
  F  F2  1  0.56030700  0.25000000  0.75000000  1
  F  F3  1  0.06030700  0.75000000  0.75000000  1
loop_
_geom_bond_atom_site_label_1
_geom_bond_atom_site_label_2
_geom_bond_distance
_geom_bond_site_symmetry_2
Er0 O17 2.198020 1_565
Er0 F3 2.211831 1_655
Er0 O36 2.290974 1_555
Er0 O34 2.312096 1_655
Er0 O3 2.319075 1_655
Er0 O35 2.367132 1_665
Er0 O39 2.470487 1_555
Er1 O18 2.198020 1_545
Er1 F1 2.211831 1_455
Er1 O22 2.290974 1_555
Er1 O7 2.312096 1_455
Er1 O9 2.319075 1_455
Er1 O11 2.367132 1_445
Er1 O4 2.470487 1_555
Er2 O21 2.259161 1_555
Er2 O9 2.259161 1_455
Er2 O22 2.369828 1_555
Er2 O27 2.369828 1_555
Er2 O14 2.376556 1_455
Er2 O33 2.376556 1_555
Er2 O28 2.408565 1_555
Er2 O37 2.408565 1_555
Er3 O10 2.259161 1_555
Er3 O3 2.259161 1_655
Er3 O36 2.369828 1_555
Er3 O30 2.369828 1_555
Er3 O37 2.376556 1_655
Er3 O28 2.376556 1_555
Er3 O14 2.408565 1_555
Er3 O33 2.408565 1_555
Er4 O34 2.198020 1_545
Er4 F2 2.211831 1_555
Er4 O27 2.290974 1_555
Er4 O17 2.312096 1_555
Er4 O21 2.319075 1_555
Er4 O39 2.367132 1_545
Er4 O35 2.470487 1_555
Er5 O24 2.198020 1_555
Er5 F2 2.211831 1_555
Er5 O15 2.290974 1_555
Er5 O23 2.312096 1_555
Er5 O26 2.319075 1_555
Er5 O31 2.367132 1_555
Er5 O19 2.470487 1_555
Er6 O5 2.198020 1_555
Er6 F0 2.211831 1_555
Er6 O13 2.290974 1_555
Er6 O2 2.312096 1_555
Er6 O8 2.319075 1_555
Er6 O20 2.367132 1_555
Er6 O16 2.470487 1_555
Er7 O8 2.259161 1_555
Er7 O29 2.259161 1_654
Er7 O32 2.369828 1_554
Er7 O13 2.369828 1_555
Er7 O6 2.376556 1_655
Er7 O0 2.376556 1_554
Er7 O12 2.408565 1_565
Er7 O1 2.408565 1_564
Er8 O23 2.198020 1_555
Er8 F3 2.211831 1_655
Er8 O32 2.290974 1_555
Er8 O24 2.312096 1_655
Er8 O29 2.319075 1_655
Er8 O19 2.367132 1_655
Er8 O31 2.470487 1_555
Er9 O2 2.198020 1_555
Er9 F1 2.211831 1_455
Er9 O25 2.290974 1_555
Er9 O5 2.312096 1_455
Er9 O38 2.319075 1_455
Er9 O16 2.367132 1_455
Er9 O20 2.470487 1_555
Er10 O7 2.198020 1_565
Er10 F0 2.211831 1_555
Er10 O30 2.290974 1_555
Er10 O18 2.312096 1_555
Er10 O10 2.319075 1_555
Er10 O4 2.367132 1_565
Er10 O11 2.470487 1_555
Er11 O26 2.259161 1_554
Er11 O38 2.259161 1_455
Er11 O25 2.369828 1_555
Er11 O15 2.369828 1_554
Er11 O12 2.376556 1_555
Er11 O1 2.376556 1_454
Er11 O6 2.408565 1_545
Er11 O0 2.408565 1_544
O0 Se7 1.732390 1_555
O1 Se1 1.732390 1_555
O2 Si3 1.655121 1_555
O3 Si1 1.649969 1_555
O4 Se3 1.749307 1_555
O5 Si0 1.655121 1_555
O6 Se0 1.732390 1_555
O7 Si2 1.655121 1_555
O8 Si3 1.649969 1_555
O9 Si2 1.649969 1_555
O10 Si1 1.649969 1_555
O11 Se0 1.749307 1_655
O12 Se3 1.732390 1_555
O13 Se0 1.733643 1_655
O14 Se2 1.732390 1_555
O15 Se1 1.733643 1_455
O16 Se6 1.749307 1_655
O17 Si2 1.655121 1_555
O18 Si1 1.655121 1_555
O19 Se2 1.749307 1_455
O20 Se4 1.749307 1_555
O21 Si2 1.649969 1_555
O22 Se4 1.733643 1_555
O23 Si0 1.655121 1_556
O24 Si3 1.655121 1_556
O25 Se3 1.733643 1_555
O26 Si0 1.649969 1_556
O27 Se2 1.733643 1_455
O28 Se5 1.732390 1_555
O29 Si3 1.649969 1_556
O30 Se6 1.733643 1_655
O31 Se5 1.749307 1_555
O32 Se7 1.733643 1_555
O33 Se4 1.732390 1_555
O34 Si1 1.655121 1_555
O35 Se1 1.749307 1_455
O36 Se5 1.733643 1_555
O37 Se6 1.732390 1_555
O38 Si0 1.649969 1_555
O39 Se7 1.749307 1_555
