# generated using pymatgen
data_ZnS
_symmetry_space_group_name_H-M   'P 1'
_cell_length_a   3.80782296
_cell_length_b   3.80782206
_cell_length_c   74.81003795
_cell_angle_alpha   90.00000000
_cell_angle_beta   90.00000000
_cell_angle_gamma   119.99999897
_symmetry_Int_Tables_number   1
_chemical_formula_structural   ZnS
_chemical_formula_sum   'Zn24 S24'
_cell_volume   939.38561366
_cell_formula_units_Z   24
loop_
 _symmetry_equiv_pos_site_id
 _symmetry_equiv_pos_as_xyz
  1  'x, y, z'
loop_
 _atom_site_type_symbol
 _atom_site_label
 _atom_site_symmetry_multiplicity
 _atom_site_fract_x
 _atom_site_fract_y
 _atom_site_fract_z
 _atom_site_occupancy
  Zn  Zn0  1  0.66666700  0.33333300  0.83333744  1
  Zn  Zn1  1  0.33333300  0.66666700  0.79170890  1
  Zn  Zn2  1  0.66666700  0.33333300  0.33334880  1
  Zn  Zn3  1  0.33333300  0.66666700  0.29171344  1
  Zn  Zn4  1  -0.00000000  0.00000000  0.37499959  1
  Zn  Zn5  1  0.33333300  0.66666700  0.20833776  1
  Zn  Zn6  1  0.33333300  0.66666700  0.70833348  1
  Zn  Zn7  1  0.66666700  0.33333300  0.08334272  1
  Zn  Zn8  1  -0.00000000  0.00000000  0.54170604  1
  Zn  Zn9  1  0.66666700  0.33333300  0.91671391  1
  Zn  Zn10  1  -0.00000000  0.00000000  0.12502368  1
  Zn  Zn11  1  0.66666700  0.33333300  0.16671409  1
  Zn  Zn12  1  0.33333300  0.66666700  0.04171753  1
  Zn  Zn13  1  -0.00000000  0.00000000  0.87502049  1
  Zn  Zn14  1  0.33333300  0.66666700  0.41668432  1
  Zn  Zn15  1  0.00000000  -0.00000000  0.62504552  1
  Zn  Zn16  1  0.33333300  0.66666700  0.95834175  1
  Zn  Zn17  1  -0.00000000  0.00000000  0.45836611  1
  Zn  Zn18  1  0.33333300  0.66666700  0.58336077  1
  Zn  Zn19  1  -0.00000000  -0.00000000  0.25001989  1
  Zn  Zn20  1  0.66666700  0.33333300  0.66668846  1
  Zn  Zn21  1  0.66666700  0.33333300  0.50002035  1
  Zn  Zn22  1  -0.00000000  0.00000000  0.00002501  1
  Zn  Zn23  1  0.00000000  0.00000000  0.75001636  1
  S  S0  1  0.66666700  0.33333300  0.94789862  1
  S  S1  1  0.00000000  -0.00000000  0.48952905  1
  S  S2  1  0.00000000  -0.00000000  0.40618863  1
  S  S3  1  0.00000000  0.00000000  0.65623285  1
  S  S4  1  0.66666700  0.33333300  0.69788285  1
  S  S5  1  0.33333300  0.66666700  0.44792028  1
  S  S6  1  -0.00000000  0.00000000  0.03126353  1
  S  S7  1  0.66666700  0.33333300  0.53125631  1
  S  S8  1  0.33333300  0.66666700  0.98952486  1
  S  S9  1  0.00000000  -0.00000000  0.78125779  1
  S  S10  1  0.00000000  -0.00000000  0.57286216  1
  S  S11  1  0.00000000  -0.00000000  0.90626310  1
  S  S12  1  0.33333300  0.66666700  0.73951585  1
  S  S13  1  0.00000000  -0.00000000  0.28125753  1
  S  S14  1  0.66666700  0.33333300  0.36454846  1
  S  S15  1  0.33333300  0.66666700  0.07289858  1
  S  S16  1  0.66666700  0.33333300  0.11452391  1
  S  S17  1  0.66666700  0.33333300  0.86452408  1
  S  S18  1  0.33333300  0.66666700  0.82289605  1
  S  S19  1  -0.00000000  0.00000000  0.15626037  1
  S  S20  1  0.33333300  0.66666700  0.23951778  1
  S  S21  1  0.33333300  0.66666700  0.61459139  1
  S  S22  1  0.33333300  0.66666700  0.32289839  1
  S  S23  1  0.66666700  0.33333300  0.19789317  1
loop_
_geom_bond_atom_site_label_1
_geom_bond_atom_site_label_2
_geom_bond_distance
_geom_bond_site_symmetry_2
S0 Zn9 2.332929 1_555
S0 Zn16 2.333134 1_545
S0 Zn16 2.333134 1_655
S0 Zn16 2.333140 1_555
S1 Zn17 2.331301 1_555
S1 Zn21 2.334343 1_455
S1 Zn21 2.334346 1_445
S1 Zn21 2.334346 1_555
S2 Zn4 2.333253 1_555
S2 Zn14 2.334454 1_545
S2 Zn14 2.334456 1_555
S2 Zn14 2.334457 1_445
S3 Zn15 2.333125 1_555
S3 Zn20 2.333447 1_455
S3 Zn20 2.333450 1_445
S3 Zn20 2.333450 1_555
S4 Zn6 2.333322 1_545
S4 Zn6 2.333322 1_655
S4 Zn6 2.333328 1_555
S4 Zn20 2.333653 1_555
S5 Zn17 2.333202 1_565
S5 Zn17 2.333204 1_555
S5 Zn17 2.333205 1_665
S5 Zn14 2.336763 1_555
S6 Zn12 2.333406 1_545
S6 Zn12 2.333409 1_555
S6 Zn12 2.333410 1_445
S6 Zn22 2.336955 1_555
S7 Zn8 2.333299 1_655
S7 Zn8 2.333302 1_665
S7 Zn8 2.333303 1_555
S7 Zn21 2.336763 1_555
S8 Zn16 2.332810 1_555
S8 Zn22 2.334566 1_566
S8 Zn22 2.334569 1_556
S8 Zn22 2.334569 1_666
S9 Zn1 2.333334 1_545
S9 Zn1 2.333337 1_555
S9 Zn1 2.333337 1_445
S9 Zn23 2.337173 1_555
S10 Zn8 2.330791 1_555
S10 Zn18 2.334527 1_545
S10 Zn18 2.334530 1_555
S10 Zn18 2.334530 1_445
S11 Zn9 2.333326 1_455
S11 Zn9 2.333329 1_445
S11 Zn9 2.333330 1_555
S11 Zn13 2.337261 1_555
S12 Zn6 2.332754 1_555
S12 Zn23 2.334575 1_565
S12 Zn23 2.334578 1_555
S12 Zn23 2.334578 1_665
S13 Zn3 2.333454 1_545
S13 Zn3 2.333457 1_555
S13 Zn3 2.333458 1_445
S13 Zn19 2.336889 1_555
S14 Zn4 2.333334 1_655
S14 Zn4 2.333337 1_665
S14 Zn4 2.333338 1_555
S14 Zn2 2.334048 1_555
S15 Zn12 2.332656 1_555
S15 Zn7 2.333159 1_565
S15 Zn7 2.333160 1_455
S15 Zn7 2.333165 1_555
S16 Zn7 2.332666 1_555
S16 Zn10 2.334556 1_655
S16 Zn10 2.334559 1_665
S16 Zn10 2.334560 1_555
S17 Zn0 2.333074 1_555
S17 Zn13 2.334472 1_655
S17 Zn13 2.334475 1_665
S17 Zn13 2.334475 1_555
S18 Zn0 2.333090 1_565
S18 Zn0 2.333091 1_455
S18 Zn0 2.333097 1_555
S18 Zn1 2.333112 1_555
S19 Zn11 2.333399 1_455
S19 Zn11 2.333402 1_445
S19 Zn11 2.333403 1_555
S19 Zn10 2.336818 1_555
S20 Zn5 2.332578 1_555
S20 Zn19 2.334615 1_565
S20 Zn19 2.334618 1_555
S20 Zn19 2.334619 1_665
S21 Zn15 2.333410 1_565
S21 Zn15 2.333413 1_555
S21 Zn15 2.333413 1_665
S21 Zn18 2.336364 1_555
S22 Zn3 2.332947 1_555
S22 Zn2 2.333316 1_565
S22 Zn2 2.333317 1_455
S22 Zn2 2.333323 1_555
S23 Zn11 2.332508 1_555
S23 Zn5 2.333170 1_545
S23 Zn5 2.333171 1_655
S23 Zn5 2.333177 1_555
