# generated using pymatgen
data_Ge4PbO9
_symmetry_space_group_name_H-M   'P 1'
_cell_length_a   11.55886995
_cell_length_b   11.55886995
_cell_length_c   4.82870600
_cell_angle_alpha   90.00000000
_cell_angle_beta   90.00000000
_cell_angle_gamma   119.99999971
_symmetry_Int_Tables_number   1
_chemical_formula_structural   Ge4PbO9
_chemical_formula_sum   'Ge12 Pb3 O27'
_cell_volume   558.71734203
_cell_formula_units_Z   3
loop_
 _symmetry_equiv_pos_site_id
 _symmetry_equiv_pos_as_xyz
  1  'x, y, z'
loop_
 _atom_site_type_symbol
 _atom_site_label
 _atom_site_symmetry_multiplicity
 _atom_site_fract_x
 _atom_site_fract_y
 _atom_site_fract_z
 _atom_site_occupancy
  Ge  Ge0  1  0.14917700  0.49058600  0.39837700  1
  Ge  Ge1  1  0.50941400  0.65859000  0.39837700  1
  Ge  Ge2  1  0.34141000  0.85082300  0.39837700  1
  Ge  Ge3  1  0.65859000  0.50941400  0.60162300  1
  Ge  Ge4  1  0.85082300  0.34141000  0.60162300  1
  Ge  Ge5  1  0.49058600  0.14917700  0.60162300  1
  Ge  Ge6  1  0.18029900  0.00000000  0.50000000  1
  Ge  Ge7  1  0.00000000  0.18029900  0.50000000  1
  Ge  Ge8  1  0.81970100  0.81970100  0.50000000  1
  Ge  Ge9  1  0.33333300  0.66666700  0.88838300  1
  Ge  Ge10  1  0.66666700  0.33333300  0.11161700  1
  Ge  Ge11  1  0.00000000  0.00000000  0.00000000  1
  Pb  Pb0  1  0.67388800  0.00000000  0.00000000  1
  Pb  Pb1  1  0.00000000  0.67388800  0.00000000  1
  Pb  Pb2  1  0.32611200  0.32611200  0.00000000  1
  O  O0  1  0.09375200  0.15435900  0.76228800  1
  O  O1  1  0.84564100  0.93939300  0.76228800  1
  O  O2  1  0.06060700  0.90624800  0.76228800  1
  O  O3  1  0.93939300  0.84564100  0.23771200  1
  O  O4  1  0.90624800  0.06060700  0.23771200  1
  O  O5  1  0.15435900  0.09375200  0.23771200  1
  O  O6  1  0.10860400  0.32488200  0.29299900  1
  O  O7  1  0.67511800  0.78372200  0.29299900  1
  O  O8  1  0.21627800  0.89139600  0.29299900  1
  O  O9  1  0.78372200  0.67511800  0.70700100  1
  O  O10  1  0.89139600  0.21627800  0.70700100  1
  O  O11  1  0.32488200  0.10860400  0.70700100  1
  O  O12  1  0.26215700  0.51126000  0.66592200  1
  O  O13  1  0.48874000  0.75089800  0.66592200  1
  O  O14  1  0.24910200  0.73784300  0.66592200  1
  O  O15  1  0.75089800  0.48874000  0.33407800  1
  O  O16  1  0.73784300  0.24910200  0.33407800  1
  O  O17  1  0.51126000  0.26215700  0.33407800  1
  O  O18  1  0.17952500  0.60064200  0.11782700  1
  O  O19  1  0.39935800  0.57888300  0.11782700  1
  O  O20  1  0.42111700  0.82047500  0.11782700  1
  O  O21  1  0.57888300  0.39935800  0.88217300  1
  O  O22  1  0.82047500  0.42111700  0.88217300  1
  O  O23  1  0.60064200  0.17952500  0.88217300  1
  O  O24  1  0.48823900  0.00000000  0.50000000  1
  O  O25  1  0.00000000  0.48823900  0.50000000  1
  O  O26  1  0.51176100  0.51176100  0.50000000  1
loop_
_geom_bond_atom_site_label_1
_geom_bond_atom_site_label_2
_geom_bond_distance
_geom_bond_site_symmetry_2
Ge0 O12 1.766199 1_555
Ge0 O18 1.769265 1_555
Ge0 O25 1.779894 1_555
Ge0 O6 1.802545 1_555
Ge1 O13 1.766214 1_555
Ge1 O19 1.769263 1_555
Ge1 O26 1.779883 1_555
Ge1 O7 1.802549 1_555
Ge2 O14 1.766204 1_555
Ge2 O20 1.769258 1_555
Ge2 O24 1.779889 1_565
Ge2 O8 1.802556 1_555
Ge3 O15 1.766214 1_555
Ge3 O21 1.769263 1_555
Ge3 O26 1.779883 1_555
Ge3 O9 1.802549 1_555
Ge4 O16 1.766204 1_555
Ge4 O22 1.769258 1_555
Ge4 O25 1.779889 1_655
Ge4 O10 1.802556 1_555
Ge5 O17 1.766199 1_555
Ge5 O23 1.769265 1_555
Ge5 O24 1.779894 1_555
Ge5 O11 1.802545 1_555
Ge6 O5 1.786956 1_555
Ge6 O2 1.786956 1_545
Ge6 O8 1.808312 1_545
Ge6 O11 1.808312 1_555
Ge7 O0 1.786956 1_555
Ge7 O4 1.786956 1_455
Ge7 O10 1.808312 1_455
Ge7 O6 1.808312 1_555
Ge8 O1 1.786956 1_555
Ge8 O3 1.786956 1_555
Ge8 O7 1.808312 1_555
Ge8 O9 1.808312 1_555
Ge9 O14 1.892008 1_555
Ge9 O12 1.892008 1_555
Ge9 O13 1.892008 1_555
Ge9 O18 1.901012 1_556
Ge9 O20 1.901013 1_556
Ge9 O19 1.901021 1_556
Ge10 O16 1.892008 1_555
Ge10 O17 1.892008 1_555
Ge10 O15 1.892008 1_555
Ge10 O23 1.901012 1_554
Ge10 O22 1.901013 1_554
Ge10 O21 1.901021 1_554
Ge11 O4 1.934374 1_455
Ge11 O2 1.934374 1_544
Ge11 O3 1.934374 1_445
Ge11 O1 1.934374 1_444
Ge11 O5 1.934374 1_555
Ge11 O0 1.934374 1_554
O0 Pb2 2.672150 1_556
O1 Pb0 2.672150 1_566
O2 Pb1 2.672150 1_556
O3 Pb1 2.672150 1_655
O4 Pb0 2.672150 1_555
O5 Pb2 2.672150 1_555
O18 Pb1 2.665228 1_555
O19 Pb2 2.665228 1_555
O20 Pb0 2.665228 1_565
O21 Pb2 2.665228 1_556
O22 Pb1 2.665228 1_656
O23 Pb0 2.665228 1_556
