# generated using pymatgen
data_AlPO4
_symmetry_space_group_name_H-M   'P 1'
_cell_length_a   8.59563354
_cell_length_b   8.59561008
_cell_length_c   13.62207571
_cell_angle_alpha   88.36841144
_cell_angle_beta   88.36833733
_cell_angle_gamma   34.93587184
_symmetry_Int_Tables_number   1
_chemical_formula_structural   AlPO4
_chemical_formula_sum   'Al6 P6 O24'
_cell_volume   576.10360736
_cell_formula_units_Z   6
loop_
 _symmetry_equiv_pos_site_id
 _symmetry_equiv_pos_as_xyz
  1  'x, y, z'
loop_
 _atom_site_type_symbol
 _atom_site_label
 _atom_site_symmetry_multiplicity
 _atom_site_fract_x
 _atom_site_fract_y
 _atom_site_fract_z
 _atom_site_occupancy
  Al  Al0  1  0.59858629  0.50035226  0.77021087  1
  Al  Al1  1  0.87371188  0.79182497  0.91318933  1
  Al  Al2  1  0.20817596  0.12628685  0.08681102  1
  Al  Al3  1  0.49965038  0.40140980  0.22978874  1
  Al  Al4  1  0.29304422  0.99802190  0.46683921  1
  Al  Al5  1  0.00197023  0.70696417  0.53316068  1
  P  P0  1  0.68455688  0.60150790  0.96471380  1
  P  P1  1  0.81117902  0.51710811  0.58877894  1
  P  P2  1  0.99521131  0.89685409  0.72903551  1
  P  P3  1  0.10314975  0.00478593  0.27096123  1
  P  P4  1  0.39848921  0.31544126  0.03528683  1
  P  P5  1  0.48288807  0.18882982  0.41122474  1
  O  O0  1  0.79632978  0.25360377  0.25956364  1
  O  O1  1  0.72545079  0.54377727  0.69311474  1
  O  O2  1  0.24836125  0.77811669  0.75787324  1
  O  O3  1  0.67542922  0.48123281  0.89031380  1
  O  O4  1  0.22214458  0.03760795  0.20549270  1
  O  O5  1  0.14107777  0.59933780  0.99344503  1
  O  O6  1  0.96239639  0.77784960  0.79450915  1
  O  O7  1  0.17115856  0.97908719  0.37724868  1
  O  O8  1  0.37260739  0.11385064  0.41489424  1
  O  O9  1  0.45622078  0.27454924  0.30688208  1
  O  O10  1  0.51876815  0.32457055  0.10968616  1
  O  O11  1  0.57966274  0.67721730  0.51784477  1
  O  O12  1  0.05365546  0.21912848  0.55962239  1
  O  O13  1  0.40066863  0.85891696  0.00655629  1
  O  O14  1  0.32276933  0.42035162  0.48214984  1
  O  O15  1  0.74639504  0.20366853  0.74043677  1
  O  O16  1  0.78085880  0.94636061  0.44037933  1
  O  O17  1  0.87313307  0.39882673  0.04822112  1
  O  O18  1  0.78810374  0.66632063  0.91430035  1
  O  O19  1  0.60116771  0.12687005  0.95177815  1
  O  O20  1  0.22188709  0.75163588  0.24212669  1
  O  O21  1  0.88614937  0.62739145  0.58510677  1
  O  O22  1  0.33367811  0.21189986  0.08570009  1
  O  O23  1  0.02091108  0.82884233  0.62275306  1
loop_
_geom_bond_atom_site_label_1
_geom_bond_atom_site_label_2
_geom_bond_distance
_geom_bond_site_symmetry_2
Al0 O15 1.731863 1_555
Al0 O3 1.734417 1_555
Al0 O1 1.735294 1_555
Al0 O2 1.735691 1_555
Al1 O6 1.732019 1_555
Al1 O18 1.733634 1_555
Al1 O19 1.735692 1_565
Al1 O5 1.737810 1_655
Al2 O4 1.732036 1_555
Al2 O22 1.733655 1_555
Al2 O17 1.735693 1_455
Al2 O13 1.737807 1_545
Al3 O0 1.731854 1_555
Al3 O10 1.734403 1_555
Al3 O9 1.735273 1_555
Al3 O20 1.735691 1_555
Al4 O7 1.725466 1_555
Al4 O11 1.733773 1_555
Al4 O8 1.734469 1_565
Al4 O12 1.737903 1_565
Al5 O23 1.725468 1_555
Al5 O14 1.733775 1_555
Al5 O21 1.734486 1_455
Al5 O16 1.737911 1_455
O0 P3 1.519871 1_655
O1 P1 1.515754 1_555
O2 P2 1.521661 1_455
O3 P0 1.516347 1_555
O4 P3 1.525773 1_555
O5 P4 1.521613 1_556
O6 P2 1.525834 1_555
O7 P3 1.518249 1_565
O8 P5 1.521049 1_555
O9 P5 1.515819 1_555
O10 P4 1.516377 1_555
O11 P1 1.526853 1_555
O12 P1 1.523209 1_455
O13 P0 1.521585 1_554
O14 P5 1.526779 1_555
O15 P2 1.519844 1_545
O16 P5 1.523165 1_565
O17 P0 1.522707 1_554
O18 P0 1.526617 1_555
O19 P4 1.522706 1_556
O20 P3 1.521642 1_565
O21 P1 1.521000 1_555
O22 P4 1.526563 1_555
O23 P2 1.518187 1_455
