# generated using pymatgen
data_Cs2Se5
_symmetry_space_group_name_H-M   'P 1'
_cell_length_a   7.20806419
_cell_length_b   7.54941620
_cell_length_c   19.05949444
_cell_angle_alpha   90.00000000
_cell_angle_beta   90.00000000
_cell_angle_gamma   90.00000000
_symmetry_Int_Tables_number   1
_chemical_formula_structural   Cs2Se5
_chemical_formula_sum   'Cs8 Se20'
_cell_volume   1037.15434446
_cell_formula_units_Z   4
loop_
 _symmetry_equiv_pos_site_id
 _symmetry_equiv_pos_as_xyz
  1  'x, y, z'
loop_
 _atom_site_type_symbol
 _atom_site_label
 _atom_site_symmetry_multiplicity
 _atom_site_fract_x
 _atom_site_fract_y
 _atom_site_fract_z
 _atom_site_occupancy
  Cs  Cs0  1  0.61936331  0.41798516  0.51307206  1
  Cs  Cs1  1  0.11936331  0.08201484  0.48692794  1
  Cs  Cs2  1  0.38063669  0.91798516  0.98692794  1
  Cs  Cs3  1  0.88063669  0.58201484  0.01307206  1
  Cs  Cs4  1  0.08047376  0.25002519  0.83899431  1
  Cs  Cs5  1  0.58047376  0.24997481  0.16100569  1
  Cs  Cs6  1  0.91952624  0.75002519  0.66100569  1
  Cs  Cs7  1  0.41952624  0.74997481  0.33899431  1
  Se  Se0  1  0.59970865  0.92241194  0.52080419  1
  Se  Se1  1  0.09970865  0.57758806  0.47919581  1
  Se  Se2  1  0.40029135  0.42241194  0.97919581  1
  Se  Se3  1  0.90029135  0.07758806  0.02080419  1
  Se  Se4  1  0.43232643  0.87580835  0.62374666  1
  Se  Se5  1  0.93232643  0.62419165  0.37625334  1
  Se  Se6  1  0.56767357  0.37580735  0.87625334  1
  Se  Se7  1  0.06767357  0.12419265  0.12374666  1
  Se  Se8  1  0.45572639  0.12769921  0.69776223  1
  Se  Se9  1  0.95572539  0.37230079  0.30223777  1
  Se  Se10  1  0.54427461  0.62769921  0.80223777  1
  Se  Se11  1  0.04427361  0.87230079  0.19776223  1
  Se  Se12  1  0.25057905  0.34638908  0.65080441  1
  Se  Se13  1  0.75057905  0.15361092  0.34919559  1
  Se  Se14  1  0.74942095  0.84638908  0.84919559  1
  Se  Se15  1  0.24942095  0.65361092  0.15080441  1
  Se  Se16  1  0.94448959  0.24616292  0.65794210  1
  Se  Se17  1  0.44448959  0.25383708  0.34205790  1
  Se  Se18  1  0.05551041  0.74616292  0.84205790  1
  Se  Se19  1  0.55551041  0.75383708  0.15794210  1
loop_
_geom_bond_atom_site_label_1
_geom_bond_atom_site_label_2
_geom_bond_distance
_geom_bond_site_symmetry_2
Cs0 Se17 3.707898 1_555
Cs0 Se1 3.722449 1_655
Cs0 Se0 3.746869 1_545
Cs0 Se12 3.774849 1_555
Cs0 Se5 3.783174 1_555
Cs0 Se0 3.813611 1_555
Cs0 Se13 3.825403 1_555
Cs0 Se16 3.846908 1_555
Cs0 Se1 3.987353 1_555
Cs1 Se16 3.707898 1_455
Cs1 Se0 3.722449 1_545
Cs1 Se1 3.746869 1_555
Cs1 Se13 3.774849 1_455
Cs1 Se4 3.783174 1_545
Cs1 Se1 3.813611 1_545
Cs1 Se12 3.825403 1_555
Cs1 Se17 3.846908 1_555
Cs1 Se0 3.987353 1_445
Cs2 Se19 3.707898 1_556
Cs2 Se3 3.722449 1_466
Cs2 Se2 3.746869 1_555
Cs2 Se14 3.774849 1_555
Cs2 Se7 3.783177 1_566
Cs2 Se2 3.813611 1_565
Cs2 Se15 3.825403 1_556
Cs2 Se18 3.846908 1_555
Cs2 Se3 3.987353 1_566
Cs3 Se18 3.707898 1_654
Cs3 Se2 3.722449 1_554
Cs3 Se3 3.746869 1_565
Cs3 Se15 3.774849 1_655
Cs3 Se6 3.783177 1_554
Cs3 Se3 3.813611 1_555
Cs3 Se14 3.825403 1_554
Cs3 Se19 3.846908 1_555
Cs3 Se2 3.987353 1_654
Cs4 Se16 3.587391 1_455
Cs4 Se6 3.706550 1_555
Cs4 Se18 3.750324 1_555
Cs4 Se2 3.761440 1_555
Cs4 Se18 3.808567 1_545
Cs4 Se12 3.859767 1_555
Cs4 Se14 3.875245 1_445
Cs4 Se6 3.881831 1_455
Cs4 Se3 3.922897 1_456
Cs4 Se8 3.926178 1_555
Cs5 Se17 3.587391 1_555
Cs5 Se7 3.706550 1_655
Cs5 Se19 3.750324 1_545
Cs5 Se3 3.761440 1_555
Cs5 Se19 3.808567 1_555
Cs5 Se13 3.859767 1_555
Cs5 Se15 3.875245 1_555
Cs5 Se7 3.881831 1_555
Cs5 Se2 3.922897 1_554
Cs5 Se9 3.926173 1_555
Cs6 Se18 3.587391 1_655
Cs6 Se4 3.706552 1_555
Cs6 Se16 3.750324 1_565
Cs6 Se0 3.761440 1_555
Cs6 Se16 3.808567 1_555
Cs6 Se14 3.859767 1_555
Cs6 Se12 3.875245 1_655
Cs6 Se4 3.881833 1_655
Cs6 Se1 3.922897 1_655
Cs6 Se10 3.926173 1_555
Cs7 Se19 3.587391 1_555
Cs7 Se5 3.706552 1_455
Cs7 Se17 3.750324 1_555
Cs7 Se1 3.761440 1_555
Cs7 Se17 3.808567 1_565
Cs7 Se15 3.859767 1_555
Cs7 Se13 3.875245 1_565
Cs7 Se5 3.881833 1_555
Cs7 Se0 3.922897 1_555
Cs7 Se11 3.926178 1_555
Se0 Se4 2.330021 1_555
Se1 Se5 2.330021 1_455
Se2 Se6 2.330022 1_555
Se3 Se7 2.330022 1_655
Se4 Se8 2.373755 1_565
Se5 Se9 2.373755 1_555
Se10 Se6 2.373761 1_555
Se10 Se14 2.390257 1_555
Se11 Se7 2.373761 1_565
Se11 Se15 2.390261 1_555
Se12 Se16 2.336416 1_455
Se12 Se8 2.390261 1_555
Se13 Se17 2.336416 1_555
Se13 Se9 2.390257 1_555
Se14 Se18 2.336416 1_655
Se15 Se19 2.336416 1_555
