# generated using pymatgen
data_Cs3Zr7BCl20
_symmetry_space_group_name_H-M   'P 1'
_cell_length_a   14.03284431
_cell_length_b   14.03284431
_cell_length_c   14.03284415
_cell_angle_alpha   55.83491785
_cell_angle_beta   55.83491785
_cell_angle_gamma   55.83491847
_symmetry_Int_Tables_number   1
_chemical_formula_structural   Cs3Zr7BCl20
_chemical_formula_sum   'Cs6 Zr14 B2 Cl40'
_cell_volume   1765.30376362
_cell_formula_units_Z   2
loop_
 _symmetry_equiv_pos_site_id
 _symmetry_equiv_pos_as_xyz
  1  'x, y, z'
loop_
 _atom_site_type_symbol
 _atom_site_label
 _atom_site_symmetry_multiplicity
 _atom_site_fract_x
 _atom_site_fract_y
 _atom_site_fract_z
 _atom_site_occupancy
  Cs  Cs0  1  0.00000000  0.50000000  0.50000000  1
  Cs  Cs1  1  0.50000000  0.00000000  0.50000000  1
  Cs  Cs2  1  0.00000000  0.50000000  0.00000000  1
  Cs  Cs3  1  0.50000000  0.50000000  0.00000000  1
  Cs  Cs4  1  0.00000000  0.00000000  0.50000000  1
  Cs  Cs5  1  0.50000000  0.00000000  0.00000000  1
  Zr  Zr0  1  0.45011300  0.32402600  0.61169400  1
  Zr  Zr1  1  0.67597400  0.38830600  0.54988700  1
  Zr  Zr2  1  0.38830600  0.54988700  0.67597400  1
  Zr  Zr3  1  0.82402600  0.95011300  0.11169400  1
  Zr  Zr4  1  0.25000000  0.25000000  0.25000000  1
  Zr  Zr5  1  0.32402600  0.61169400  0.45011300  1
  Zr  Zr6  1  0.88830600  0.17597400  0.04988700  1
  Zr  Zr7  1  0.17597400  0.04988700  0.88830600  1
  Zr  Zr8  1  0.04988700  0.88830600  0.17597400  1
  Zr  Zr9  1  0.54988700  0.67597400  0.38830600  1
  Zr  Zr10  1  0.11169400  0.82402600  0.95011300  1
  Zr  Zr11  1  0.61169400  0.45011300  0.32402600  1
  Zr  Zr12  1  0.95011300  0.11169400  0.82402600  1
  Zr  Zr13  1  0.75000000  0.75000000  0.75000000  1
  B  B0  1  0.00000000  0.00000000  0.00000000  1
  B  B1  1  0.50000000  0.50000000  0.50000000  1
  Cl  Cl0  1  0.31827700  0.85862900  0.82483000  1
  Cl  Cl1  1  0.17517000  0.68172300  0.14137100  1
  Cl  Cl2  1  0.57072500  0.43157100  0.74770300  1
  Cl  Cl3  1  0.81969200  0.81969200  0.81969200  1
  Cl  Cl4  1  0.25229700  0.42927500  0.56842900  1
  Cl  Cl5  1  0.74770300  0.57072500  0.43157100  1
  Cl  Cl6  1  0.42927500  0.56842900  0.25229700  1
  Cl  Cl7  1  0.81827700  0.32483000  0.35862900  1
  Cl  Cl8  1  0.07072500  0.24770300  0.93157100  1
  Cl  Cl9  1  0.61156600  0.88843400  0.25000000  1
  Cl  Cl10  1  0.43157100  0.74770300  0.57072500  1
  Cl  Cl11  1  0.43193300  0.25000000  0.06806700  1
  Cl  Cl12  1  0.06806700  0.43193300  0.25000000  1
  Cl  Cl13  1  0.18030800  0.18030800  0.18030800  1
  Cl  Cl14  1  0.68172300  0.14137100  0.17517000  1
  Cl  Cl15  1  0.25000000  0.61156600  0.88843400  1
  Cl  Cl16  1  0.75000000  0.93193300  0.56806700  1
  Cl  Cl17  1  0.14137100  0.17517000  0.68172300  1
  Cl  Cl18  1  0.67517000  0.64137100  0.18172300  1
  Cl  Cl19  1  0.18172300  0.67517000  0.64137100  1
  Cl  Cl20  1  0.75229700  0.06842900  0.92927500  1
  Cl  Cl21  1  0.56806700  0.75000000  0.93193300  1
  Cl  Cl22  1  0.25000000  0.06806700  0.43193300  1
  Cl  Cl23  1  0.64137100  0.18172300  0.67517000  1
  Cl  Cl24  1  0.93193300  0.56806700  0.75000000  1
  Cl  Cl25  1  0.92927500  0.75229700  0.06842900  1
  Cl  Cl26  1  0.24770300  0.93157100  0.07072500  1
  Cl  Cl27  1  0.35862900  0.81827700  0.32483000  1
  Cl  Cl28  1  0.31969200  0.31969200  0.31969200  1
  Cl  Cl29  1  0.88843400  0.25000000  0.61156600  1
  Cl  Cl30  1  0.68030800  0.68030800  0.68030800  1
  Cl  Cl31  1  0.56842900  0.25229700  0.42927500  1
  Cl  Cl32  1  0.38843400  0.11156600  0.75000000  1
  Cl  Cl33  1  0.93157100  0.07072500  0.24770300  1
  Cl  Cl34  1  0.06842900  0.92927500  0.75229700  1
  Cl  Cl35  1  0.75000000  0.38843400  0.11156600  1
  Cl  Cl36  1  0.11156600  0.75000000  0.38843400  1
  Cl  Cl37  1  0.82483000  0.31827700  0.85862900  1
  Cl  Cl38  1  0.32483000  0.35862900  0.81827700  1
  Cl  Cl39  1  0.85862900  0.82483000  0.31827700  1
loop_
_geom_bond_atom_site_label_1
_geom_bond_atom_site_label_2
_geom_bond_distance
_geom_bond_site_symmetry_2
B0 Zr12 2.325257 1_454
B0 Zr8 2.325257 1_545
B0 Zr3 2.325257 1_445
B0 Zr7 2.325257 1_554
B0 Zr10 2.325257 1_544
B0 Zr6 2.325257 1_455
B1 Zr2 2.325257 1_555
B1 Zr11 2.325257 1_555
B1 Zr9 2.325257 1_555
B1 Zr0 2.325257 1_555
B1 Zr1 2.325257 1_555
B1 Zr5 2.325257 1_555
Cl0 Zr10 2.574581 1_555
Cl0 Zr7 2.579167 1_565
Cl0 Cs1 3.699503 1_565
Cl0 Cs3 4.074841 1_556
Cl1 Zr8 2.574581 1_555
Cl1 Zr10 2.579167 1_554
Cl1 Cs3 3.699503 1_555
Cl1 Cs0 4.074841 1_555
Cl2 Zr1 2.556692 1_555
Cl2 Zr2 2.562427 1_555
Cl2 Cs3 3.639137 1_556
Cl3 Zr13 2.468201 1_555
Cl3 Cs4 3.823928 1_665
Cl3 Cs5 3.823928 1_566
Cl3 Cs2 3.823928 1_656
Cl4 Zr0 2.556692 1_555
Cl4 Zr5 2.562427 1_555
Cl4 Cs0 3.639137 1_555
Cl5 Zr9 2.556692 1_555
Cl5 Zr1 2.562427 1_555
Cl5 Cs0 3.639137 1_655
Cl6 Zr5 2.556692 1_555
Cl6 Zr11 2.562427 1_555
Cl6 Cs3 3.639137 1_555
Cl7 Zr11 2.574581 1_555
Cl7 Zr1 2.579167 1_555
Cl7 Cs4 3.699503 1_655
Cl7 Cs2 4.074841 1_655
Cl8 Zr7 2.556692 1_555
Cl8 Zr6 2.562427 1_456
Cl8 Cs2 3.639137 1_556
Cl9 Zr9 2.813776 1_555
Cl9 Zr3 2.813776 1_555
Cl9 Cs1 3.802202 1_565
Cl9 Cs5 3.802202 1_565
Cl10 Zr2 2.556692 1_555
Cl10 Zr9 2.562427 1_555
Cl10 Cs1 3.639137 1_565
Cl11 Zr4 2.390660 1_555
Cl11 Cs3 3.620433 1_555
Cl11 Cs5 3.620433 1_555
Cl12 Zr4 2.390660 1_555
Cl12 Cs0 3.620433 1_555
Cl12 Cs2 3.620433 1_555
Cl13 Zr4 2.468201 1_555
Cl13 Cs4 3.823928 1_555
Cl13 Cs5 3.823928 1_555
Cl13 Cs2 3.823928 1_555
Cl14 Zr6 2.574581 1_555
Cl14 Zr3 2.579167 1_545
Cl14 Cs1 3.699503 1_555
Cl14 Cs3 4.074841 1_555
Cl15 Zr2 2.813776 1_555
Cl15 Zr10 2.813776 1_555
Cl15 Cs2 3.802202 1_556
Cl15 Cs3 3.802202 1_556
Cl16 Zr13 2.390660 1_555
Cl16 Cs4 3.620433 1_665
Cl16 Cs1 3.620433 1_565
Cl17 Zr7 2.574581 1_555
Cl17 Zr12 2.579167 1_455
Cl17 Cs0 3.699503 1_555
Cl17 Cs1 4.074841 1_555
Cl18 Zr9 2.574581 1_555
Cl18 Zr11 2.579167 1_555
Cl18 Cs2 3.699503 1_655
Cl18 Cs5 4.074841 1_565
Cl19 Zr2 2.574581 1_555
Cl19 Zr5 2.579167 1_555
Cl19 Cs4 3.699503 1_565
Cl19 Cs2 4.074841 1_556
Cl20 Zr12 2.556692 1_555
Cl20 Zr3 2.562427 1_546
Cl20 Cs5 3.639137 1_556
Cl21 Zr13 2.390660 1_555
Cl21 Cs3 3.620433 1_556
Cl21 Cs5 3.620433 1_566
Cl22 Zr4 2.390660 1_555
Cl22 Cs4 3.620433 1_555
Cl22 Cs1 3.620433 1_555
Cl23 Zr1 2.574581 1_555
Cl23 Zr0 2.579167 1_555
Cl23 Cs5 3.699503 1_556
Cl23 Cs4 4.074841 1_655
Cl24 Zr13 2.390660 1_555
Cl24 Cs2 3.620433 1_656
Cl24 Cs0 3.620433 1_655
Cl25 Zr3 2.556692 1_555
Cl25 Zr10 2.562427 1_654
Cl25 Cs2 3.639137 1_655
Cl26 Zr8 2.556692 1_555
Cl26 Zr7 2.562427 1_564
Cl26 Cs5 3.639137 1_565
Cl27 Zr5 2.574581 1_555
Cl27 Zr9 2.579167 1_555
Cl27 Cs5 3.699503 1_565
Cl27 Cs4 4.074841 1_565
Cl28 Zr4 2.468201 1_555
Cl28 Cs3 3.823928 1_555
Cl28 Cs0 3.823928 1_555
Cl28 Cs1 3.823928 1_555
Cl29 Zr12 2.813776 1_555
Cl29 Zr1 2.813776 1_555
Cl29 Cs0 3.802202 1_655
Cl29 Cs4 3.802202 1_655
Cl30 Zr13 2.468201 1_555
Cl30 Cs3 3.823928 1_556
Cl30 Cs1 3.823928 1_565
Cl30 Cs0 3.823928 1_655
Cl31 Zr11 2.556692 1_555
Cl31 Zr0 2.562427 1_555
Cl31 Cs1 3.639137 1_555
Cl32 Zr0 2.813776 1_555
Cl32 Zr7 2.813776 1_555
Cl32 Cs5 3.802202 1_556
Cl32 Cs1 3.802202 1_555
Cl33 Zr6 2.556692 1_555
Cl33 Zr8 2.562427 1_645
Cl33 Cs4 3.639137 1_655
Cl34 Zr10 2.556692 1_555
Cl34 Zr12 2.562427 1_465
Cl34 Cs4 3.639137 1_565
Cl35 Zr11 2.813776 1_555
Cl35 Zr6 2.813776 1_555
Cl35 Cs2 3.802202 1_655
Cl35 Cs3 3.802202 1_555
Cl36 Zr8 2.813776 1_555
Cl36 Zr5 2.813776 1_555
Cl36 Cs0 3.802202 1_555
Cl36 Cs4 3.802202 1_565
Cl37 Zr12 2.574581 1_555
Cl37 Zr6 2.579167 1_556
Cl37 Cs3 3.699503 1_556
Cl37 Cs0 4.074841 1_655
Cl38 Zr0 2.574581 1_555
Cl38 Zr2 2.579167 1_555
Cl38 Cs2 3.699503 1_556
Cl38 Cs5 4.074841 1_556
Cl39 Zr3 2.574581 1_555
Cl39 Zr8 2.579167 1_655
Cl39 Cs0 3.699503 1_655
Cl39 Cs1 4.074841 1_565
