# generated using pymatgen
data_Ba3Nb16O23
_symmetry_space_group_name_H-M   'P 1'
_cell_length_a   12.29508603
_cell_length_b   12.29508603
_cell_length_c   4.20094439
_cell_angle_alpha   90.00000000
_cell_angle_beta   90.00000000
_cell_angle_gamma   118.48558527
_symmetry_Int_Tables_number   1
_chemical_formula_structural   Ba3Nb16O23
_chemical_formula_sum   'Ba3 Nb16 O23'
_cell_volume   558.17179564
_cell_formula_units_Z   1
loop_
 _symmetry_equiv_pos_site_id
 _symmetry_equiv_pos_as_xyz
  1  'x, y, z'
loop_
 _atom_site_type_symbol
 _atom_site_label
 _atom_site_symmetry_multiplicity
 _atom_site_fract_x
 _atom_site_fract_y
 _atom_site_fract_z
 _atom_site_occupancy
  Ba  Ba0  1  0.20105816  0.79894184  -0.00000000  1
  Ba  Ba1  1  0.79894184  0.20105816  -0.00000000  1
  Ba  Ba2  1  -0.00000000  -0.00000000  -0.00000000  1
  Nb  Nb0  1  0.47218522  0.86219159  0.50000000  1
  Nb  Nb1  1  0.52781478  0.13780841  0.50000000  1
  Nb  Nb2  1  0.86219159  0.47218522  0.50000000  1
  Nb  Nb3  1  0.13780841  0.52781478  0.50000000  1
  Nb  Nb4  1  0.72964316  0.93175779  0.50000000  1
  Nb  Nb5  1  0.27035684  0.06824221  0.50000000  1
  Nb  Nb6  1  0.93175779  0.72964316  0.50000000  1
  Nb  Nb7  1  0.06824221  0.27035684  0.50000000  1
  Nb  Nb8  1  0.60127315  0.39872685  0.50000000  1
  Nb  Nb9  1  0.39872685  0.60127315  0.50000000  1
  Nb  Nb10  1  0.56927410  0.77250095  -0.00000000  1
  Nb  Nb11  1  0.43072590  0.22749905  -0.00000000  1
  Nb  Nb12  1  0.77250095  0.56927410  -0.00000000  1
  Nb  Nb13  1  0.22749905  0.43072590  0.00000000  1
  Nb  Nb14  1  0.67272119  0.67272119  0.50000000  1
  Nb  Nb15  1  0.32727881  0.32727881  0.50000000  1
  O  O0  1  0.10299140  0.89700860  0.50000000  1
  O  O1  1  0.89700860  0.10299140  0.50000000  1
  O  O2  1  0.70137846  0.29862154  0.50000000  1
  O  O3  1  0.29862154  0.70137846  0.50000000  1
  O  O4  1  0.53968640  0.14049887  -0.00000000  1
  O  O5  1  0.46031360  0.85950113  0.00000000  1
  O  O6  1  0.14049887  0.53968640  -0.00000000  1
  O  O7  1  0.85950113  0.46031360  0.00000000  1
  O  O8  1  0.63437760  0.03382561  0.50000000  1
  O  O9  1  0.36562240  0.96617439  0.50000000  1
  O  O10  1  0.03382561  0.63437760  0.50000000  1
  O  O11  1  0.96617439  0.36562240  0.50000000  1
  O  O12  1  0.73958416  0.93786965  -0.00000000  1
  O  O13  1  0.26041584  0.06213035  -0.00000000  1
  O  O14  1  0.93786965  0.73958416  -0.00000000  1
  O  O15  1  0.06213035  0.26041584  -0.00000000  1
  O  O16  1  0.84062602  0.84062602  0.50000000  1
  O  O17  1  0.15937398  0.15937398  0.50000000  1
  O  O18  1  0.59653951  0.40346049  -0.00000000  1
  O  O19  1  0.50000000  0.50000000  0.50000000  1
  O  O20  1  0.33448485  0.33448485  -0.00000000  1
  O  O21  1  0.66551515  0.66551515  0.00000000  1
  O  O22  1  0.40346049  0.59653951  -0.00000000  1
loop_
_geom_bond_atom_site_label_1
_geom_bond_atom_site_label_2
_geom_bond_distance
_geom_bond_site_symmetry_2
Ba0 O5 2.907071 1_555
Ba0 O6 2.907071 1_555
Ba0 O3 2.943191 1_555
Ba0 O3 2.943191 1_554
Ba0 O0 2.950652 1_555
Ba0 O0 2.950652 1_554
Ba0 O13 2.958235 1_565
Ba0 O14 2.958235 1_455
Ba0 O10 2.960608 1_555
Ba0 O10 2.960608 1_554
Ba0 O9 2.960608 1_555
Ba0 O9 2.960608 1_554
Ba1 O4 2.907071 1_555
Ba1 O7 2.907071 1_555
Ba1 O2 2.943191 1_554
Ba1 O2 2.943191 1_555
Ba1 O1 2.950652 1_554
Ba1 O1 2.950652 1_555
Ba1 O15 2.958235 1_655
Ba1 O12 2.958235 1_545
Ba1 O8 2.960608 1_554
Ba1 O11 2.960608 1_554
Ba1 O8 2.960608 1_555
Ba1 O11 2.960608 1_555
Ba2 O16 2.903239 1_444
Ba2 O16 2.903239 1_445
Ba2 O17 2.903239 1_555
Ba2 O17 2.903239 1_554
Ba2 O12 2.915858 1_445
Ba2 O14 2.915858 1_445
Ba2 O15 2.915858 1_555
Ba2 O13 2.915858 1_555
Ba2 O1 3.024645 1_454
Ba2 O1 3.024645 1_455
Ba2 O0 3.024645 1_544
Ba2 O0 3.024645 1_545
Nb0 O8 2.101377 1_565
Nb0 O5 2.104704 1_556
Nb0 O5 2.104704 1_555
Nb0 O3 2.106780 1_555
Nb0 O9 2.224618 1_555
Nb1 O9 2.101377 1_545
Nb1 O4 2.104704 1_555
Nb1 O4 2.104704 1_556
Nb1 O2 2.106780 1_555
Nb1 O8 2.224618 1_555
Nb2 O10 2.101377 1_655
Nb2 O7 2.104704 1_556
Nb2 O7 2.104704 1_555
Nb2 O2 2.106780 1_555
Nb2 O11 2.224618 1_555
Nb3 O11 2.101377 1_455
Nb3 O6 2.104704 1_556
Nb3 O6 2.104704 1_555
Nb3 O3 2.106780 1_555
Nb3 O10 2.224618 1_555
Nb4 O8 2.085401 1_565
Nb4 O12 2.103285 1_556
Nb4 O12 2.103285 1_555
Nb4 O1 2.129409 1_565
Nb4 O16 2.139124 1_555
Nb5 O9 2.085401 1_545
Nb5 O13 2.103285 1_555
Nb5 O13 2.103285 1_556
Nb5 O0 2.129409 1_545
Nb5 O17 2.139124 1_555
Nb6 O10 2.085401 1_655
Nb6 O14 2.103285 1_556
Nb6 O14 2.103285 1_555
Nb6 O0 2.129409 1_655
Nb6 O16 2.139124 1_555
Nb7 O11 2.085401 1_455
Nb7 O15 2.103285 1_555
Nb7 O15 2.103285 1_556
Nb7 O1 2.129409 1_455
Nb7 O17 2.139124 1_555
Nb8 O18 2.102853 1_555
Nb8 O18 2.102853 1_556
Nb8 O2 2.115362 1_555
Nb8 O19 2.140040 1_555
Nb9 O22 2.102853 1_555
Nb9 O22 2.102853 1_556
Nb9 O3 2.115362 1_555
Nb9 O19 2.140040 1_555
Nb10 O5 2.075058 1_555
Nb10 O12 2.111300 1_555
Nb10 O21 2.148293 1_555
Nb10 O22 2.151659 1_555
Nb11 O4 2.075058 1_555
Nb11 O13 2.111300 1_555
Nb11 O20 2.148293 1_555
Nb11 O18 2.151659 1_555
Nb12 O7 2.075058 1_555
Nb12 O14 2.111300 1_555
Nb12 O21 2.148293 1_555
Nb12 O18 2.151659 1_555
Nb13 O6 2.075058 1_555
Nb13 O15 2.111300 1_555
Nb13 O20 2.148293 1_555
Nb13 O22 2.151659 1_555
Nb14 O21 2.102426 1_555
Nb14 O21 2.102426 1_556
Nb14 O16 2.111478 1_555
Nb14 O19 2.172046 1_555
Nb15 O20 2.102426 1_556
Nb15 O20 2.102426 1_555
Nb15 O17 2.111478 1_555
Nb15 O19 2.172046 1_555
