# generated using pymatgen
data_BiO2
_symmetry_space_group_name_H-M   'P 1'
_cell_length_a   5.19641501
_cell_length_b   5.58875410
_cell_length_c   6.72331161
_cell_angle_alpha   106.84537019
_cell_angle_beta   112.73363109
_cell_angle_gamma   90.00000212
_symmetry_Int_Tables_number   1
_chemical_formula_structural   BiO2
_chemical_formula_sum   'Bi4 O8'
_cell_volume   170.96578386
_cell_formula_units_Z   4
loop_
 _symmetry_equiv_pos_site_id
 _symmetry_equiv_pos_as_xyz
  1  'x, y, z'
loop_
 _atom_site_type_symbol
 _atom_site_label
 _atom_site_symmetry_multiplicity
 _atom_site_fract_x
 _atom_site_fract_y
 _atom_site_fract_z
 _atom_site_occupancy
  Bi  Bi0  1  0.73344327  0.25000000  0.00000000  1
  Bi  Bi1  1  0.26655673  0.75000000  -0.00000000  1
  Bi  Bi2  1  0.00000000  -0.00000000  0.50000000  1
  Bi  Bi3  1  0.50000000  0.50000000  0.50000000  1
  O  O0  1  0.32305956  0.01989284  0.81283750  1
  O  O1  1  0.11370006  0.64818856  0.35226067  1
  O  O2  1  0.88629994  0.35181144  0.64773933  1
  O  O3  1  0.76143940  0.85181144  0.64773933  1
  O  O4  1  0.23856060  0.14818856  0.35226067  1
  O  O5  1  0.48977893  0.51989284  0.81283750  1
  O  O6  1  0.51022107  0.48010716  0.18716250  1
  O  O7  1  0.67694044  0.98010716  0.18716250  1
loop_
_geom_bond_atom_site_label_1
_geom_bond_atom_site_label_2
_geom_bond_distance
_geom_bond_site_symmetry_2
Bi0 O0 2.184718 1_554
Bi0 O6 2.184721 1_555
Bi0 O5 2.308776 1_554
Bi0 O7 2.308778 1_545
Bi1 O7 2.184718 1_555
Bi1 O5 2.184721 1_554
Bi1 O6 2.308776 1_555
Bi1 O0 2.308778 1_564
Bi2 O0 2.095207 1_555
Bi2 O7 2.095207 1_445
Bi2 O2 2.126801 1_455
Bi2 O1 2.126801 1_545
Bi2 O3 2.153551 1_445
Bi2 O4 2.153551 1_555
Bi3 O5 2.095205 1_555
Bi3 O6 2.095205 1_555
Bi3 O4 2.126801 1_555
Bi3 O3 2.126801 1_555
Bi3 O2 2.153552 1_555
Bi3 O1 2.153552 1_555
