# generated using pymatgen
data_Ba6Zn(InCl10)2
_symmetry_space_group_name_H-M   'P 1'
_cell_length_a   10.32866800
_cell_length_b   18.17542700
_cell_length_c   19.97289049
_cell_angle_alpha   68.91206155
_cell_angle_beta   90.00000000
_cell_angle_gamma   90.00000000
_symmetry_Int_Tables_number   1
_chemical_formula_structural   Ba6Zn(InCl10)2
_chemical_formula_sum   'Ba24 Zn4 In8 Cl80'
_cell_volume   3498.36518794
_cell_formula_units_Z   4
loop_
 _symmetry_equiv_pos_site_id
 _symmetry_equiv_pos_as_xyz
  1  'x, y, z'
loop_
 _atom_site_type_symbol
 _atom_site_label
 _atom_site_symmetry_multiplicity
 _atom_site_fract_x
 _atom_site_fract_y
 _atom_site_fract_z
 _atom_site_occupancy
  Ba  Ba0  1  0.79212400  0.73505600  0.95991400  1
  Ba  Ba1  1  0.73826800  0.99004500  0.52555900  1
  Ba  Ba2  1  0.74656400  0.93993700  0.26930800  1
  Ba  Ba3  1  0.25343600  0.06006300  0.73069200  1
  Ba  Ba4  1  0.20787600  0.26494400  0.04008600  1
  Ba  Ba5  1  0.70787600  0.23505600  0.95991400  1
  Ba  Ba6  1  0.75343600  0.43993700  0.26930800  1
  Ba  Ba7  1  0.23826800  0.50995500  0.47444100  1
  Ba  Ba8  1  0.49189600  0.24932100  0.49566200  1
  Ba  Ba9  1  0.00810400  0.74932100  0.49566200  1
  Ba  Ba10  1  0.48656100  0.82104100  0.73462100  1
  Ba  Ba11  1  0.26173200  0.00995500  0.47444100  1
  Ba  Ba12  1  0.24656400  0.56006300  0.73069200  1
  Ba  Ba13  1  0.98656100  0.67895900  0.26537900  1
  Ba  Ba14  1  0.99189600  0.25067900  0.50433800  1
  Ba  Ba15  1  0.74070800  0.08803700  0.73049100  1
  Ba  Ba16  1  0.29212400  0.76494400  0.04008600  1
  Ba  Ba17  1  0.76173200  0.49004500  0.52555900  1
  Ba  Ba18  1  0.24070800  0.41196300  0.26950900  1
  Ba  Ba19  1  0.50810400  0.75067900  0.50433800  1
  Ba  Ba20  1  0.01343900  0.32104100  0.73462100  1
  Ba  Ba21  1  0.51343900  0.17895900  0.26537900  1
  Ba  Ba22  1  0.75929200  0.58803700  0.73049100  1
  Ba  Ba23  1  0.25929200  0.91196300  0.26950900  1
  Zn  Zn0  1  0.02343600  0.57607600  0.10733900  1
  Zn  Zn1  1  0.52343600  0.92392400  0.89266100  1
  Zn  Zn2  1  0.47656400  0.07607600  0.10733900  1
  Zn  Zn3  1  0.97656400  0.42392400  0.89266100  1
  In  In0  1  0.99202200  0.84216400  0.68825600  1
  In  In1  1  0.48247300  0.58569700  0.91178000  1
  In  In2  1  0.01752700  0.08569700  0.91178000  1
  In  In3  1  0.51752700  0.41430300  0.08822000  1
  In  In4  1  0.49202200  0.65783600  0.31174400  1
  In  In5  1  0.98247300  0.91430300  0.08822000  1
  In  In6  1  0.50797800  0.34216400  0.68825600  1
  In  In7  1  0.00797800  0.15783600  0.31174400  1
  Cl  Cl0  1  0.48562900  0.68031300  0.67339500  1
  Cl  Cl1  1  0.50298400  0.50267900  0.83641000  1
  Cl  Cl2  1  0.66970000  0.12325200  0.13566600  1
  Cl  Cl3  1  0.49701600  0.49732100  0.16359000  1
  Cl  Cl4  1  0.31031000  0.66936400  0.83349200  1
  Cl  Cl5  1  0.68639000  0.88490600  0.83179000  1
  Cl  Cl6  1  0.31361000  0.11509400  0.16821000  1
  Cl  Cl7  1  0.73888600  0.30821400  0.66193100  1
  Cl  Cl8  1  0.16867900  0.82401400  0.16108300  1
  Cl  Cl9  1  0.76111400  0.80821400  0.66193100  1
  Cl  Cl10  1  0.01293100  0.21310400  0.18077400  1
  Cl  Cl11  1  0.44290800  0.21198400  0.67252000  1
  Cl  Cl12  1  0.51293100  0.28689600  0.81922600  1
  Cl  Cl13  1  0.50225500  0.32609100  0.01336100  1
  Cl  Cl14  1  0.83132100  0.17598600  0.83891700  1
  Cl  Cl15  1  0.71694500  0.59688400  0.31826700  1
  Cl  Cl16  1  0.50906400  0.05634500  0.84490300  1
  Cl  Cl17  1  0.74942500  0.36814900  0.44202700  1
  Cl  Cl18  1  0.00298400  0.99732100  0.16359000  1
  Cl  Cl19  1  0.47890200  0.89238100  0.56072600  1
  Cl  Cl20  1  0.28305500  0.40311600  0.68173300  1
  Cl  Cl21  1  0.23888600  0.19178600  0.33806900  1
  Cl  Cl22  1  0.09410000  0.01843000  0.33408400  1
  Cl  Cl23  1  0.40590000  0.51843000  0.33408400  1
  Cl  Cl24  1  0.23858000  0.34703900  0.43774900  1
  Cl  Cl25  1  0.25057500  0.63185100  0.55797300  1
  Cl  Cl26  1  0.55709200  0.78801600  0.32748000  1
  Cl  Cl27  1  0.33030000  0.87674800  0.86433400  1
  Cl  Cl28  1  0.66867900  0.67598600  0.83891700  1
  Cl  Cl29  1  0.99774500  0.82609100  0.01336100  1
  Cl  Cl30  1  0.68969000  0.33063600  0.16650800  1
  Cl  Cl31  1  0.21694500  0.90311600  0.68173300  1
  Cl  Cl32  1  0.48706900  0.71310400  0.18077400  1
  Cl  Cl33  1  0.17109500  0.99302700  0.00414800  1
  Cl  Cl34  1  0.76142000  0.65296100  0.56225100  1
  Cl  Cl35  1  0.56658600  0.85386400  0.00913200  1
  Cl  Cl36  1  0.78305500  0.09688400  0.31826700  1
  Cl  Cl37  1  0.01437100  0.18031300  0.67339500  1
  Cl  Cl38  1  0.43341400  0.14613600  0.99086800  1
  Cl  Cl39  1  0.18639000  0.61509400  0.16821000  1
  Cl  Cl40  1  0.82890500  0.00697300  0.99585200  1
  Cl  Cl41  1  0.00906400  0.44365500  0.15509700  1
  Cl  Cl42  1  0.73858000  0.15296100  0.56225100  1
  Cl  Cl43  1  0.98706900  0.78689600  0.81922600  1
  Cl  Cl44  1  0.05709200  0.71198400  0.67252000  1
  Cl  Cl45  1  0.98445400  0.10209200  0.45369500  1
  Cl  Cl46  1  0.26142000  0.84703900  0.43774900  1
  Cl  Cl47  1  0.00225500  0.17390900  0.98663900  1
  Cl  Cl48  1  0.48327700  0.99390100  0.32394400  1
  Cl  Cl49  1  0.83030000  0.62325200  0.13566600  1
  Cl  Cl50  1  0.49093600  0.94365500  0.15509700  1
  Cl  Cl51  1  0.94290800  0.28801600  0.32748000  1
  Cl  Cl52  1  0.33132100  0.32401400  0.16108300  1
  Cl  Cl53  1  0.51554600  0.60209200  0.45369500  1
  Cl  Cl54  1  0.02109800  0.39238100  0.56072600  1
  Cl  Cl55  1  0.99093600  0.55634500  0.84490300  1
  Cl  Cl56  1  0.01672300  0.49390100  0.32394400  1
  Cl  Cl57  1  0.49774500  0.67390900  0.98663900  1
  Cl  Cl58  1  0.59410000  0.48157000  0.66591600  1
  Cl  Cl59  1  0.81361000  0.38490600  0.83179000  1
  Cl  Cl60  1  0.75057500  0.86814900  0.44202700  1
  Cl  Cl61  1  0.93341400  0.35386400  0.00913200  1
  Cl  Cl62  1  0.26111400  0.69178600  0.33806900  1
  Cl  Cl63  1  0.51672300  0.00609900  0.67605600  1
  Cl  Cl64  1  0.32890500  0.49302700  0.00414800  1
  Cl  Cl65  1  0.67109500  0.50697300  0.99585200  1
  Cl  Cl66  1  0.16970000  0.37674800  0.86433400  1
  Cl  Cl67  1  0.18969000  0.16936400  0.83349200  1
  Cl  Cl68  1  0.01554600  0.89790800  0.54630500  1
  Cl  Cl69  1  0.90590000  0.98157000  0.66591600  1
  Cl  Cl70  1  0.81031000  0.83063600  0.16650800  1
  Cl  Cl71  1  0.52109800  0.10761900  0.43927400  1
  Cl  Cl72  1  0.98327700  0.50609900  0.67605600  1
  Cl  Cl73  1  0.48445400  0.39790800  0.54630500  1
  Cl  Cl74  1  0.24942500  0.13185100  0.55797300  1
  Cl  Cl75  1  0.98562900  0.81968700  0.32660500  1
  Cl  Cl76  1  0.99701600  0.00267900  0.83641000  1
  Cl  Cl77  1  0.97890200  0.60761900  0.43927400  1
  Cl  Cl78  1  0.51437100  0.31968700  0.32660500  1
  Cl  Cl79  1  0.06658600  0.64613600  0.99086800  1
loop_
_geom_bond_atom_site_label_1
_geom_bond_atom_site_label_2
_geom_bond_distance
_geom_bond_site_symmetry_2
Ba0 Cl29 3.107851 1_556
Ba0 Cl5 3.184921 1_555
Ba0 Cl79 3.211141 1_655
Ba0 Cl57 3.215289 1_555
Ba0 Cl28 3.238156 1_555
Ba0 Cl43 3.306455 1_555
Ba0 Cl49 3.387306 1_556
Ba0 Cl35 3.547310 1_556
Ba1 Cl71 3.149261 1_565
Ba1 Cl19 3.150176 1_555
Ba1 Cl60 3.219937 1_555
Ba1 Cl69 3.251073 1_555
Ba1 Cl45 3.251120 1_565
Ba1 Cl68 3.267834 1_655
Ba1 Cl42 3.296442 1_565
Ba1 Cl9 3.452389 1_555
Ba2 Cl48 3.212189 1_555
Ba2 Cl60 3.219563 1_555
Ba2 Cl75 3.222370 1_555
Ba2 Cl26 3.239681 1_555
Ba2 Cl18 3.312991 1_655
Ba2 Cl36 3.353016 1_565
Ba2 Cl70 3.395720 1_555
Ba2 Cl50 3.473951 1_555
Ba2 Cl2 3.529363 1_565
Ba3 Cl63 3.212189 1_555
Ba3 Cl74 3.219563 1_555
Ba3 Cl37 3.222370 1_555
Ba3 Cl11 3.239681 1_555
Ba3 Cl76 3.312991 1_455
Ba3 Cl31 3.353016 1_545
Ba3 Cl67 3.395720 1_555
Ba3 Cl16 3.473951 1_555
Ba3 Cl27 3.529363 1_545
Ba4 Cl47 3.107851 1_554
Ba4 Cl6 3.184921 1_555
Ba4 Cl61 3.211141 1_455
Ba4 Cl13 3.215289 1_555
Ba4 Cl52 3.238156 1_555
Ba4 Cl10 3.306455 1_555
Ba4 Cl66 3.387306 1_554
Ba4 Cl38 3.547310 1_554
Ba5 Cl13 3.107851 1_556
Ba5 Cl59 3.184921 1_555
Ba5 Cl38 3.211141 1_555
Ba5 Cl47 3.215289 1_655
Ba5 Cl14 3.238156 1_555
Ba5 Cl12 3.306455 1_555
Ba5 Cl2 3.387306 1_556
Ba5 Cl61 3.547310 1_556
Ba6 Cl56 3.212189 1_655
Ba6 Cl17 3.219563 1_555
Ba6 Cl78 3.222370 1_555
Ba6 Cl51 3.239681 1_555
Ba6 Cl3 3.312991 1_555
Ba6 Cl15 3.353016 1_555
Ba6 Cl30 3.395720 1_555
Ba6 Cl41 3.473951 1_655
Ba6 Cl49 3.529363 1_555
Ba7 Cl54 3.149261 1_555
Ba7 Cl77 3.150176 1_455
Ba7 Cl25 3.219937 1_555
Ba7 Cl23 3.251073 1_555
Ba7 Cl73 3.251120 1_555
Ba7 Cl53 3.267834 1_555
Ba7 Cl24 3.296442 1_555
Ba7 Cl62 3.452389 1_555
Ba8 Cl42 3.106750 1_555
Ba8 Cl24 3.140010 1_555
Ba8 Cl78 3.159617 1_555
Ba8 Cl71 3.174873 1_555
Ba8 Cl73 3.207511 1_555
Ba8 Cl74 3.235322 1_555
Ba8 Cl17 3.349991 1_555
Ba8 Cl11 3.386617 1_555
Ba9 Cl34 3.106750 1_455
Ba9 Cl46 3.140010 1_555
Ba9 Cl75 3.159617 1_455
Ba9 Cl77 3.174873 1_455
Ba9 Cl68 3.207511 1_555
Ba9 Cl25 3.235322 1_555
Ba9 Cl60 3.349991 1_455
Ba9 Cl44 3.386617 1_555
Ba10 Cl63 3.153936 1_565
Ba10 Cl31 3.156292 1_555
Ba10 Cl0 3.207578 1_555
Ba10 Cl9 3.232228 1_555
Ba10 Cl19 3.241890 1_555
Ba10 Cl28 3.297933 1_555
Ba10 Cl4 3.300914 1_555
Ba10 Cl5 3.315862 1_555
Ba10 Cl27 3.497085 1_555
Ba11 Cl19 3.149261 1_545
Ba11 Cl71 3.150176 1_555
Ba11 Cl74 3.219937 1_555
Ba11 Cl22 3.251073 1_555
Ba11 Cl68 3.251120 1_545
Ba11 Cl45 3.267834 1_455
Ba11 Cl46 3.296442 1_545
Ba11 Cl21 3.452389 1_555
Ba12 Cl72 3.212189 1_455
Ba12 Cl25 3.219563 1_555
Ba12 Cl0 3.222370 1_555
Ba12 Cl44 3.239681 1_555
Ba12 Cl1 3.312991 1_555
Ba12 Cl20 3.353016 1_555
Ba12 Cl4 3.395720 1_555
Ba12 Cl55 3.473951 1_455
Ba12 Cl66 3.529363 1_555
Ba13 Cl56 3.153936 1_655
Ba13 Cl15 3.156292 1_555
Ba13 Cl75 3.207578 1_555
Ba13 Cl62 3.232228 1_655
Ba13 Cl77 3.241890 1_555
Ba13 Cl8 3.297933 1_655
Ba13 Cl70 3.300914 1_555
Ba13 Cl39 3.315862 1_655
Ba13 Cl49 3.497085 1_555
Ba14 Cl24 3.106750 1_655
Ba14 Cl42 3.140010 1_555
Ba14 Cl37 3.159617 1_655
Ba14 Cl54 3.174873 1_655
Ba14 Cl45 3.207511 1_555
Ba14 Cl17 3.235322 1_555
Ba14 Cl74 3.349991 1_655
Ba14 Cl51 3.386617 1_555
Ba15 Cl42 3.135413 1_555
Ba15 Cl63 3.149162 1_555
Ba15 Cl69 3.180428 1_545
Ba15 Cl16 3.214167 1_555
Ba15 Cl14 3.257599 1_555
Ba15 Cl37 3.275138 1_655
Ba15 Cl76 3.395412 1_555
Ba15 Cl5 3.558622 1_545
Ba15 Cl7 3.734520 1_555
Ba15 Cl11 3.741617 1_555
Ba16 Cl57 3.107851 1_554
Ba16 Cl39 3.184921 1_555
Ba16 Cl35 3.211141 1_555
Ba16 Cl29 3.215289 1_455
Ba16 Cl8 3.238156 1_555
Ba16 Cl32 3.306455 1_555
Ba16 Cl27 3.387306 1_554
Ba16 Cl79 3.547310 1_554
Ba17 Cl77 3.149261 1_555
Ba17 Cl54 3.150176 1_655
Ba17 Cl17 3.219937 1_555
Ba17 Cl58 3.251073 1_555
Ba17 Cl53 3.251120 1_555
Ba17 Cl73 3.267834 1_555
Ba17 Cl34 3.296442 1_555
Ba17 Cl7 3.452389 1_555
Ba18 Cl24 3.135413 1_555
Ba18 Cl56 3.149162 1_555
Ba18 Cl23 3.180428 1_555
Ba18 Cl41 3.214167 1_555
Ba18 Cl52 3.257599 1_555
Ba18 Cl78 3.275138 1_555
Ba18 Cl3 3.395412 1_555
Ba18 Cl39 3.558622 1_555
Ba18 Cl21 3.734520 1_555
Ba18 Cl51 3.741617 1_455
Ba19 Cl46 3.106750 1_555
Ba19 Cl34 3.140010 1_555
Ba19 Cl0 3.159617 1_555
Ba19 Cl19 3.174873 1_555
Ba19 Cl53 3.207511 1_555
Ba19 Cl60 3.235322 1_555
Ba19 Cl25 3.349991 1_555
Ba19 Cl26 3.386617 1_555
Ba20 Cl72 3.153936 1_455
Ba20 Cl20 3.156292 1_555
Ba20 Cl37 3.207578 1_555
Ba20 Cl7 3.232228 1_455
Ba20 Cl54 3.241890 1_555
Ba20 Cl14 3.297933 1_455
Ba20 Cl67 3.300914 1_555
Ba20 Cl59 3.315862 1_455
Ba20 Cl66 3.497085 1_555
Ba21 Cl48 3.153936 1_545
Ba21 Cl36 3.156292 1_555
Ba21 Cl78 3.207578 1_555
Ba21 Cl21 3.232228 1_555
Ba21 Cl71 3.241890 1_555
Ba21 Cl52 3.297933 1_555
Ba21 Cl30 3.300914 1_555
Ba21 Cl6 3.315862 1_555
Ba21 Cl2 3.497085 1_555
Ba22 Cl34 3.135413 1_555
Ba22 Cl72 3.149162 1_555
Ba22 Cl58 3.180428 1_555
Ba22 Cl55 3.214167 1_555
Ba22 Cl28 3.257599 1_555
Ba22 Cl0 3.275138 1_555
Ba22 Cl1 3.395412 1_555
Ba22 Cl59 3.558622 1_555
Ba22 Cl9 3.734520 1_555
Ba22 Cl44 3.741617 1_655
Ba23 Cl46 3.135413 1_555
Ba23 Cl48 3.149162 1_555
Ba23 Cl22 3.180428 1_565
Ba23 Cl50 3.214167 1_555
Ba23 Cl8 3.257599 1_555
Ba23 Cl75 3.275138 1_455
Ba23 Cl18 3.395412 1_555
Ba23 Cl6 3.558622 1_565
Ba23 Cl62 3.734520 1_555
Ba23 Cl26 3.741617 1_555
Cl1 In1 2.494440 1_555
Cl2 Zn2 2.320297 1_555
Cl3 In3 2.494440 1_555
Cl4 In1 2.491671 1_555
Cl5 Zn1 2.331151 1_555
Cl6 Zn2 2.331151 1_555
Cl7 In6 2.564911 1_555
Cl8 In5 2.606005 1_455
Cl9 In0 2.564911 1_555
Cl10 In7 2.442022 1_555
Cl11 In6 2.585329 1_555
Cl12 In6 2.442022 1_555
Cl13 In3 2.560449 1_555
Cl14 In2 2.606005 1_655
Cl15 In4 2.556843 1_555
Cl16 Zn1 2.252239 1_545
Cl18 In5 2.494440 1_455
Cl20 In6 2.556843 1_555
Cl21 In7 2.564911 1_555
Cl22 In7 2.568415 1_555
Cl23 In4 2.568415 1_555
Cl26 In4 2.585329 1_555
Cl27 Zn1 2.320297 1_555
Cl28 In1 2.606005 1_555
Cl29 In5 2.560449 1_555
Cl30 In3 2.491671 1_555
Cl31 In0 2.556843 1_455
Cl32 In4 2.442022 1_555
Cl33 In2 2.553481 1_564
Cl33 In5 2.633155 1_455
Cl35 Zn1 2.258319 1_554
Cl36 In7 2.556843 1_655
Cl38 Zn2 2.258319 1_556
Cl39 Zn0 2.331151 1_555
Cl40 In5 2.553481 1_546
Cl40 In2 2.633155 1_655
Cl41 Zn0 2.252239 1_555
Cl43 In0 2.442022 1_555
Cl44 In0 2.585329 1_455
Cl45 In7 2.656442 1_655
Cl47 In2 2.560449 1_555
Cl49 Zn0 2.320297 1_655
Cl50 Zn2 2.252239 1_565
Cl51 In7 2.585329 1_655
Cl52 In3 2.606005 1_555
Cl53 In4 2.656442 1_555
Cl55 Zn3 2.252239 1_555
Cl57 In1 2.560449 1_555
Cl58 In6 2.568415 1_555
Cl59 Zn3 2.331151 1_555
Cl61 Zn3 2.258319 1_554
Cl62 In4 2.564911 1_555
Cl64 In1 2.553481 1_554
Cl64 In3 2.633155 1_555
Cl65 In3 2.553481 1_556
Cl65 In1 2.633155 1_555
Cl66 Zn3 2.320297 1_455
Cl67 In2 2.491671 1_555
Cl68 In0 2.656442 1_455
Cl69 In0 2.568415 1_555
Cl70 In5 2.491671 1_555
Cl73 In6 2.656442 1_555
Cl76 In2 2.494440 1_655
Cl79 Zn0 2.258319 1_556
