# generated using pymatgen
data_Eu(BS2)2
_symmetry_space_group_name_H-M   'P 1'
_cell_length_a   14.10450184
_cell_length_b   6.09607702
_cell_length_c   6.42729655
_cell_angle_alpha   70.05467444
_cell_angle_beta   90.00000000
_cell_angle_gamma   90.00000000
_symmetry_Int_Tables_number   1
_chemical_formula_structural   Eu(BS2)2
_chemical_formula_sum   'Eu4 B8 S16'
_cell_volume   519.48494588
_cell_formula_units_Z   4
loop_
 _symmetry_equiv_pos_site_id
 _symmetry_equiv_pos_as_xyz
  1  'x, y, z'
loop_
 _atom_site_type_symbol
 _atom_site_label
 _atom_site_symmetry_multiplicity
 _atom_site_fract_x
 _atom_site_fract_y
 _atom_site_fract_z
 _atom_site_occupancy
  Eu  Eu0  1  0.60276941  0.69775435  0.18954896  1
  Eu  Eu1  1  0.10276941  0.80224565  0.81045104  1
  Eu  Eu2  1  0.39723059  0.30224565  0.81045104  1
  Eu  Eu3  1  0.89723059  0.19775435  0.18954896  1
  B  B0  1  0.72758397  0.32312530  0.73226823  1
  B  B1  1  0.22758397  0.17687470  0.26773177  1
  B  B2  1  0.27241603  0.67687470  0.26773177  1
  B  B3  1  0.77241603  0.82312530  0.73226823  1
  B  B4  1  0.58369409  0.07172937  0.53429244  1
  B  B5  1  0.08369409  0.42827063  0.46570756  1
  B  B6  1  0.41630591  0.92827063  0.46570756  1
  B  B7  1  0.91630591  0.57172937  0.53429244  1
  S  S0  1  0.59877331  0.33484133  0.62935110  1
  S  S1  1  0.09877331  0.16515867  0.37064890  1
  S  S2  1  0.40122669  0.66515867  0.37064890  1
  S  S3  1  0.90122669  0.83484133  0.62935110  1
  S  S4  1  0.73939435  0.50862296  0.92000950  1
  S  S5  1  0.23939435  0.99137704  0.07999050  1
  S  S6  1  0.26060565  0.49137704  0.07999050  1
  S  S7  1  0.76060565  0.00862296  0.92000950  1
  S  S8  1  0.50730643  0.14243859  0.26319657  1
  S  S9  1  0.00730643  0.35756141  0.73680343  1
  S  S10  1  0.49269357  0.85756141  0.73680343  1
  S  S11  1  0.99269357  0.64243859  0.26319657  1
  S  S12  1  0.80373290  0.44215892  0.47152329  1
  S  S13  1  0.30373290  0.05784108  0.52847671  1
  S  S14  1  0.19626710  0.55784108  0.52847671  1
  S  S15  1  0.69626710  0.94215892  0.47152329  1
loop_
_geom_bond_atom_site_label_1
_geom_bond_atom_site_label_2
_geom_bond_distance
_geom_bond_site_symmetry_2
Eu0 S0 2.936243 1_555
Eu0 S15 3.014243 1_555
Eu0 S7 3.051015 1_564
Eu0 S2 3.052418 1_555
Eu0 S4 3.067036 1_554
Eu0 S10 3.145337 1_554
Eu0 S8 3.203289 1_565
Eu0 S12 3.438036 1_555
Eu0 S8 3.521884 1_555
Eu1 S1 2.936243 1_565
Eu1 S14 3.014243 1_555
Eu1 S6 3.051015 1_556
Eu1 S3 3.052418 1_455
Eu1 S5 3.067036 1_556
Eu1 S11 3.145337 1_456
Eu1 S9 3.203289 1_555
Eu1 S13 3.438036 1_565
Eu1 S9 3.521884 1_565
Eu2 S2 2.936243 1_555
Eu2 S13 3.014243 1_555
Eu2 S5 3.051015 1_546
Eu2 S0 3.052418 1_555
Eu2 S6 3.067036 1_556
Eu2 S8 3.145337 1_556
Eu2 S10 3.203289 1_545
Eu2 S14 3.438036 1_555
Eu2 S10 3.521884 1_555
Eu3 S3 2.936243 1_545
Eu3 S12 3.014243 1_555
Eu3 S4 3.051015 1_554
Eu3 S1 3.052418 1_655
Eu3 S7 3.067036 1_554
Eu3 S9 3.145337 1_654
Eu3 S11 3.203289 1_555
Eu3 S15 3.438036 1_545
Eu3 S11 3.521884 1_545
B0 S12 1.912861 1_555
B0 S4 1.921837 1_555
B0 S0 1.926453 1_555
B0 S7 1.941751 1_555
B1 S13 1.912861 1_555
B1 S5 1.921837 1_545
B1 S1 1.926453 1_555
B1 S6 1.941751 1_555
B2 S14 1.912861 1_555
B2 S6 1.921837 1_555
B2 S2 1.926453 1_555
B2 S5 1.941751 1_555
B3 S15 1.912861 1_555
B3 S7 1.921837 1_565
B3 S3 1.926453 1_555
B3 S4 1.941751 1_555
B4 S15 1.877533 1_545
B4 S0 1.913049 1_555
B4 S8 1.967285 1_555
B4 S10 1.971485 1_545
B5 S14 1.877533 1_555
B5 S1 1.913049 1_555
B5 S9 1.967285 1_555
B5 S11 1.971485 1_455
B6 S13 1.877533 1_565
B6 S2 1.913049 1_555
B6 S10 1.967285 1_555
B6 S8 1.971485 1_565
B7 S12 1.877533 1_555
B7 S3 1.913049 1_555
B7 S11 1.967285 1_555
B7 S9 1.971485 1_655
