# generated using pymatgen
data_K2CoH12(SO7)2
_symmetry_space_group_name_H-M   'P 1'
_cell_length_a   12.31597800
_cell_length_b   6.25914100
_cell_length_c   9.10038106
_cell_angle_alpha   75.63937299
_cell_angle_beta   90.00000000
_cell_angle_gamma   90.00000000
_symmetry_Int_Tables_number   1
_chemical_formula_structural   K2CoH12(SO7)2
_chemical_formula_sum   'K4 Co2 H24 S4 O28'
_cell_volume   679.60513174
_cell_formula_units_Z   2
loop_
 _symmetry_equiv_pos_site_id
 _symmetry_equiv_pos_as_xyz
  1  'x, y, z'
loop_
 _atom_site_type_symbol
 _atom_site_label
 _atom_site_symmetry_multiplicity
 _atom_site_fract_x
 _atom_site_fract_y
 _atom_site_fract_z
 _atom_site_occupancy
  K  K0  1  0.34693300  0.65497300  0.13140700  1
  K  K1  1  0.84693300  0.34502700  0.36859300  1
  K  K2  1  0.65306700  0.34502700  0.86859300  1
  K  K3  1  0.15306700  0.65497300  0.63140700  1
  Co  Co0  1  0.00000000  0.00000000  0.00000000  1
  Co  Co1  1  0.50000000  0.00000000  0.50000000  1
  H  H0  1  0.09063600  0.67713800  0.21557900  1
  H  H1  1  0.59063600  0.32286200  0.28442100  1
  H  H2  1  0.90936400  0.32286200  0.78442100  1
  H  H3  1  0.40936400  0.67713800  0.71557900  1
  H  H4  1  0.12458400  0.90785600  0.25014000  1
  H  H5  1  0.62458400  0.09214400  0.24986000  1
  H  H6  1  0.87541600  0.09214400  0.74986000  1
  H  H7  1  0.37541600  0.90785600  0.75014000  1
  H  H8  1  0.10206200  0.07501600  0.72385300  1
  H  H9  1  0.60206200  0.92498400  0.77614700  1
  H  H10  1  0.89793800  0.92498400  0.27614700  1
  H  H11  1  0.39793800  0.07501600  0.22385300  1
  H  H12  1  0.19098000  0.00064800  0.85154500  1
  H  H13  1  0.69098000  0.99935200  0.64845500  1
  H  H14  1  0.80902000  0.99935200  0.14845500  1
  H  H15  1  0.30902000  0.00064800  0.35154500  1
  H  H16  1  0.93883000  0.66609100  0.89449800  1
  H  H17  1  0.43883000  0.33390900  0.60550200  1
  H  H18  1  0.06117000  0.33390900  0.10550200  1
  H  H19  1  0.56117000  0.66609100  0.39449800  1
  H  H20  1  0.85685300  0.67278700  0.02910100  1
  H  H21  1  0.35685300  0.32721300  0.47089900  1
  H  H22  1  0.14314700  0.32721300  0.97089900  1
  H  H23  1  0.64314700  0.67278700  0.52910100  1
  S  S0  1  0.13799700  0.27486500  0.40707000  1
  S  S1  1  0.63799700  0.72513500  0.09293000  1
  S  S2  1  0.86200300  0.72513500  0.59293000  1
  S  S3  1  0.36200300  0.27486500  0.90707000  1
  O  O0  1  0.23617000  0.41684800  0.40394200  1
  O  O1  1  0.73617000  0.58315200  0.09605800  1
  O  O2  1  0.76383000  0.58315200  0.59605800  1
  O  O3  1  0.26383000  0.41684800  0.90394200  1
  O  O4  1  0.07870100  0.25086200  0.55243000  1
  O  O5  1  0.57870100  0.74913800  0.94757000  1
  O  O6  1  0.92129900  0.74913800  0.44757000  1
  O  O7  1  0.42129900  0.25086200  0.05243000  1
  O  O8  1  0.06467400  0.38767400  0.27963600  1
  O  O9  1  0.56467400  0.61232600  0.22036400  1
  O  O10  1  0.93532600  0.61232600  0.72036400  1
  O  O11  1  0.43532600  0.38767400  0.77963600  1
  O  O12  1  0.17124000  0.05290500  0.38733300  1
  O  O13  1  0.67124000  0.94709500  0.11266700  1
  O  O14  1  0.82876000  0.94709500  0.61266700  1
  O  O15  1  0.32876000  0.05290500  0.88733300  1
  O  O16  1  0.11314300  0.83153200  0.16805400  1
  O  O17  1  0.61314300  0.16846800  0.33194600  1
  O  O18  1  0.88685700  0.16846800  0.83194600  1
  O  O19  1  0.38685700  0.83153200  0.66805400  1
  O  O20  1  0.11608200  0.96723100  0.82311700  1
  O  O21  1  0.61608200  0.03276900  0.67688300  1
  O  O22  1  0.88391800  0.03276900  0.17688300  1
  O  O23  1  0.38391800  0.96723100  0.32311700  1
  O  O24  1  0.93311700  0.70587100  0.99344500  1
  O  O25  1  0.43311700  0.29412900  0.50655500  1
  O  O26  1  0.06688300  0.29412900  0.00655500  1
  O  O27  1  0.56688300  0.70587100  0.49344500  1
loop_
_geom_bond_atom_site_label_1
_geom_bond_atom_site_label_2
_geom_bond_distance
_geom_bond_site_symmetry_2
K0 O9 2.794799 1_555
K0 O0 2.898266 1_555
K0 O15 2.905691 1_564
K0 O7 2.941937 1_555
K0 O23 2.960172 1_555
K0 O3 3.014038 1_554
K0 O16 3.131450 1_555
K0 O5 3.287100 1_554
K1 O8 2.794799 1_655
K1 O1 2.898266 1_555
K1 O14 2.905691 1_545
K1 O6 2.941937 1_555
K1 O22 2.960172 1_555
K1 O2 3.014038 1_555
K1 O17 3.131450 1_555
K1 O4 3.287100 1_655
K2 O11 2.794799 1_555
K2 O2 2.898266 1_555
K2 O13 2.905691 1_546
K2 O5 2.941937 1_555
K2 O21 2.960172 1_555
K2 O1 3.014038 1_556
K2 O18 3.131450 1_555
K2 O7 3.287100 1_556
K3 O10 2.794799 1_455
K3 O3 2.898266 1_555
K3 O12 2.905691 1_565
K3 O4 2.941937 1_555
K3 O20 2.960172 1_555
K3 O0 3.014038 1_555
K3 O19 3.131450 1_555
K3 O6 3.287100 1_455
Co0 O26 2.031213 1_555
Co0 O24 2.031213 1_444
Co0 O18 2.143040 1_454
Co0 O16 2.143040 1_545
Co0 O22 2.200210 1_455
Co0 O20 2.200210 1_544
Co1 O27 2.031213 1_545
Co1 O25 2.031213 1_555
Co1 O17 2.143040 1_555
Co1 O19 2.143040 1_545
Co1 O21 2.200210 1_555
Co1 O23 2.200210 1_545
H0 O16 0.995210 1_555
H1 O17 0.995210 1_555
H2 O18 0.995210 1_555
H3 O19 0.995210 1_555
H4 O16 0.991527 1_555
H5 O17 0.991527 1_555
H6 O18 0.991527 1_555
H7 O19 0.991527 1_555
H8 O20 0.999336 1_545
H8 K3 3.018572 1_545
H9 O21 0.999336 1_565
H9 K2 3.018572 1_565
H10 O22 0.999336 1_565
H10 K1 3.018572 1_565
H11 O23 0.999336 1_545
H11 K0 3.018572 1_545
H12 O20 0.994192 1_545
H13 O21 0.994192 1_565
H14 O22 0.994192 1_565
H15 O23 0.994192 1_545
H16 O24 0.994476 1_555
H17 O25 0.994476 1_555
H18 O26 0.994476 1_555
H19 O27 0.994476 1_555
H20 O24 0.998529 1_554
H20 O1 1.650953 1_555
H21 O25 0.998529 1_555
H21 O0 1.650953 1_555
H22 O26 0.998529 1_556
H22 O3 1.650953 1_555
H23 O27 0.998529 1_555
H23 O2 1.650953 1_555
O0 S0 1.496646 1_555
O1 S1 1.496646 1_555
O2 S2 1.496646 1_555
O3 S3 1.496646 1_555
O4 S0 1.485662 1_555
O5 S1 1.485662 1_556
O6 S2 1.485662 1_555
O7 S3 1.485662 1_554
O8 S0 1.500920 1_555
O9 S1 1.500920 1_555
O10 S2 1.500920 1_555
O11 S3 1.500920 1_555
O12 S0 1.501254 1_555
O13 S1 1.501254 1_555
O14 S2 1.501254 1_555
O15 S3 1.501254 1_555
