# generated using pymatgen
data_Cd2BiAsO6
_symmetry_space_group_name_H-M   'P 1'
_cell_length_a   7.52959588
_cell_length_b   7.52959588
_cell_length_c   5.52824700
_cell_angle_alpha   90.00000000
_cell_angle_beta   90.00000000
_cell_angle_gamma   108.13012967
_symmetry_Int_Tables_number   1
_chemical_formula_structural   Cd2BiAsO6
_chemical_formula_sum   'Cd4 Bi2 As2 O12'
_cell_volume   297.86218527
_cell_formula_units_Z   2
loop_
 _symmetry_equiv_pos_site_id
 _symmetry_equiv_pos_as_xyz
  1  'x, y, z'
loop_
 _atom_site_type_symbol
 _atom_site_label
 _atom_site_symmetry_multiplicity
 _atom_site_fract_x
 _atom_site_fract_y
 _atom_site_fract_z
 _atom_site_occupancy
  Cd  Cd0  1  0.40694000  0.19824900  0.38644100  1
  Cd  Cd1  1  0.80175100  0.59306000  0.38644100  1
  Cd  Cd2  1  0.59306000  0.80175100  0.88644100  1
  Cd  Cd3  1  0.19824900  0.40694000  0.88644100  1
  Bi  Bi0  1  0.90645200  0.09354800  0.39199100  1
  Bi  Bi1  1  0.09354800  0.90645200  0.89199100  1
  As  As0  1  0.31657700  0.68342300  0.34622700  1
  As  As1  1  0.68342300  0.31657700  0.84622700  1
  O  O0  1  0.15669800  0.15167200  0.63230000  1
  O  O1  1  0.09273900  0.58641900  0.23597500  1
  O  O2  1  0.15167200  0.15669800  0.13230000  1
  O  O3  1  0.84832800  0.84330200  0.63230000  1
  O  O4  1  0.84330200  0.84832800  0.13230000  1
  O  O5  1  0.55670400  0.44329600  0.70247000  1
  O  O6  1  0.31969400  0.68030600  0.66129000  1
  O  O7  1  0.90726100  0.41358100  0.73597500  1
  O  O8  1  0.58641900  0.09273900  0.73597500  1
  O  O9  1  0.44329600  0.55670400  0.20247000  1
  O  O10  1  0.68030600  0.31969400  0.16129000  1
  O  O11  1  0.41358100  0.90726100  0.23597500  1
loop_
_geom_bond_atom_site_label_1
_geom_bond_atom_site_label_2
_geom_bond_distance
_geom_bond_site_symmetry_2
Cd0 O0 2.260392 1_555
Cd0 O2 2.322039 1_555
Cd0 O10 2.334692 1_555
Cd0 O11 2.358639 1_545
Cd0 O5 2.536424 1_555
Cd0 O8 2.619052 1_555
Cd1 O3 2.260392 1_555
Cd1 O4 2.322039 1_555
Cd1 O10 2.334692 1_555
Cd1 O1 2.358639 1_655
Cd1 O5 2.536424 1_555
Cd1 O7 2.619052 1_555
Cd2 O4 2.260392 1_556
Cd2 O3 2.322039 1_555
Cd2 O6 2.334692 1_555
Cd2 O8 2.358639 1_565
Cd2 O9 2.536424 1_556
Cd2 O11 2.619052 1_556
Cd3 O2 2.260392 1_556
Cd3 O0 2.322039 1_555
Cd3 O6 2.334692 1_555
Cd3 O7 2.358639 1_455
Cd3 O9 2.536424 1_556
Cd3 O1 2.619052 1_556
Bi0 O0 2.234637 1_655
Bi0 O3 2.234637 1_545
Bi0 O2 2.269354 1_655
Bi0 O4 2.269354 1_545
Bi1 O2 2.234637 1_566
Bi1 O4 2.234637 1_456
Bi1 O0 2.269354 1_565
Bi1 O3 2.269354 1_455
As0 O11 1.726109 1_555
As0 O1 1.726109 1_555
As0 O9 1.737512 1_555
As0 O6 1.742161 1_555
As1 O7 1.726109 1_555
As1 O8 1.726109 1_555
As1 O5 1.737512 1_555
As1 O10 1.742161 1_556
