# generated using pymatgen
data_Tm(SiPd)2
_symmetry_space_group_name_H-M   'P 1'
_cell_length_a   4.09338777
_cell_length_b   4.09338742
_cell_length_c   5.75203545
_cell_angle_alpha   110.84375064
_cell_angle_beta   110.84375173
_cell_angle_gamma   90.00000745
_symmetry_Int_Tables_number   1
_chemical_formula_structural   Tm(SiPd)2
_chemical_formula_sum   'Tm1 Si2 Pd2'
_cell_volume   83.28841013
_cell_formula_units_Z   1
loop_
 _symmetry_equiv_pos_site_id
 _symmetry_equiv_pos_as_xyz
  1  'x, y, z'
loop_
 _atom_site_type_symbol
 _atom_site_label
 _atom_site_symmetry_multiplicity
 _atom_site_fract_x
 _atom_site_fract_y
 _atom_site_fract_z
 _atom_site_occupancy
  Tm  Tm0  1  -0.00000000  -0.00000000  -0.00000000  1
  Si  Si0  1  0.38489013  0.38489013  0.76978127  1
  Si  Si1  1  0.61510987  0.61510987  0.23021873  1
  Pd  Pd0  1  0.75000000  0.25000000  0.50000000  1
  Pd  Pd1  1  0.25000000  0.75000000  0.50000000  1
loop_
_geom_bond_atom_site_label_1
_geom_bond_atom_site_label_2
_geom_bond_distance
_geom_bond_site_symmetry_2
Si0 Si1 2.288703 1_556
Si0 Tm0 3.112464 1_556
Si0 Tm0 3.112467 1_566
Si0 Tm0 3.112467 1_656
Si0 Tm0 3.112470 1_666
Si1 Tm0 3.112464 1_665
Si1 Tm0 3.112467 1_655
Si1 Tm0 3.112467 1_565
Si1 Tm0 3.112470 1_555
Pd0 Si1 2.446884 1_545
Pd0 Si0 2.446885 1_655
Pd0 Si1 2.446888 1_555
Pd0 Si0 2.446888 1_555
Pd0 Tm0 3.219620 1_656
Pd0 Tm0 3.219621 1_655
Pd0 Tm0 3.219621 1_666
Pd0 Tm0 3.219621 1_555
Pd1 Si0 2.446884 1_565
Pd1 Si1 2.446885 1_455
Pd1 Si0 2.446888 1_555
Pd1 Si1 2.446888 1_555
Pd1 Tm0 3.219620 1_565
Pd1 Tm0 3.219621 1_566
Pd1 Tm0 3.219621 1_555
Pd1 Tm0 3.219621 1_666
