# generated using pymatgen
data_Nd12Zr12O37
_symmetry_space_group_name_H-M   'P 1'
_cell_length_a   7.56181500
_cell_length_b   7.59590008
_cell_length_c   18.65688462
_cell_angle_alpha   90.36555708
_cell_angle_beta   89.91642200
_cell_angle_gamma   119.71175384
_symmetry_Int_Tables_number   1
_chemical_formula_structural   Nd12Zr12O37
_chemical_formula_sum   'Nd12 Zr12 O37'
_cell_volume   930.72095918
_cell_formula_units_Z   1
loop_
 _symmetry_equiv_pos_site_id
 _symmetry_equiv_pos_as_xyz
  1  'x, y, z'
loop_
 _atom_site_type_symbol
 _atom_site_label
 _atom_site_symmetry_multiplicity
 _atom_site_fract_x
 _atom_site_fract_y
 _atom_site_fract_z
 _atom_site_occupancy
  Nd  Nd0  1  0.99679000  0.00324200  0.00424800  1
  Nd  Nd1  1  0.51025200  0.50446300  0.99427800  1
  Nd  Nd2  1  0.16310000  0.32233600  0.83438900  1
  Nd  Nd3  1  0.99428000  0.48886700  0.00479800  1
  Nd  Nd4  1  0.33213300  0.66557000  0.66480700  1
  Nd  Nd5  1  0.83195000  0.16997400  0.66782700  1
  Nd  Nd6  1  0.49164600  0.98138700  0.49962600  1
  Nd  Nd7  1  0.33228900  0.17043900  0.66666200  1
  Nd  Nd8  1  0.67370400  0.33111500  0.32480300  1
  Nd  Nd9  1  0.84844600  0.67969700  0.16758900  1
  Nd  Nd10  1  0.16189500  0.82176600  0.33745900  1
  Nd  Nd11  1  0.66935900  0.84003300  0.33170200  1
  Zr  Zr0  1  0.64776600  0.30046400  0.83466200  1
  Zr  Zr1  1  0.82869200  0.66146100  0.66348900  1
  Zr  Zr2  1  0.17268000  0.84036700  0.83045200  1
  Zr  Zr3  1  0.66326300  0.84272000  0.83823000  1
  Zr  Zr4  1  0.99129400  0.98189800  0.49788400  1
  Zr  Zr5  1  0.16909700  0.33603800  0.33256100  1
  Zr  Zr6  1  0.50067200  0.49884700  0.50030500  1
  Zr  Zr7  1  0.99868000  0.50051900  0.50278500  1
  Zr  Zr8  1  0.33149900  0.65899100  0.16949300  1
  Zr  Zr9  1  0.51217800  0.00293900  0.99318200  1
  Zr  Zr10  1  0.85231200  0.17248300  0.16847600  1
  Zr  Zr11  1  0.33053100  0.16493700  0.16161700  1
  O  O0  1  0.16804600  0.33220600  0.95948600  1
  O  O1  1  0.66595900  0.84945400  0.95601800  1
  O  O2  1  0.46898800  0.96058200  0.87581400  1
  O  O3  1  0.49907900  0.00095400  0.62451900  1
  O  O4  1  0.34952500  0.15780100  0.79518500  1
  O  O5  1  0.65825400  0.30816700  0.94787400  1
  O  O6  1  0.70603100  0.38911000  0.72467300  1
  O  O7  1  0.98445200  0.52185400  0.61469600  1
  O  O8  1  0.99167800  0.53963100  0.86073500  1
  O  O9  1  0.12765100  0.80971100  0.46901600  1
  O  O10  1  0.53564800  0.53309500  0.85913500  1
  O  O11  1  0.11743900  0.80308800  0.72211400  1
  O  O12  1  0.53674000  0.52004800  0.61561500  1
  O  O13  1  0.83302100  0.66942900  0.29215100  1
  O  O14  1  0.68499700  0.80890000  0.46290600  1
  O  O15  1  0.69732800  0.81106600  0.72670900  1
  O  O16  1  0.97865500  0.95584900  0.61112700  1
  O  O17  1  0.97623200  0.95236700  0.86087100  1
  O  O18  1  0.01608800  0.03481300  0.13272000  1
  O  O19  1  0.04108000  0.05646800  0.38502300  1
  O  O20  1  0.31991500  0.19575800  0.52173400  1
  O  O21  1  0.87496300  0.19390100  0.51996200  1
  O  O22  1  0.16328900  0.33855900  0.70938800  1
  O  O23  1  0.87366000  0.18324500  0.28037500  1
  O  O24  1  0.44793000  0.44089400  0.38731300  1
  O  O25  1  0.01933100  0.48160100  0.14164800  1
  O  O26  1  0.31341500  0.62949000  0.28626600  1
  O  O27  1  0.00027300  0.46168600  0.38924800  1
  O  O28  1  0.31477300  0.62390500  0.52942000  1
  O  O29  1  0.35287000  0.73348300  0.05666800  1
  O  O30  1  0.63727900  0.85186300  0.19203700  1
  O  O31  1  0.50146500  0.01302800  0.37511200  1
  O  O32  1  0.77923700  0.14877400  0.05608300  1
  O  O33  1  0.22214600  0.87455800  0.20367600  1
  O  O34  1  0.36531400  0.14678200  0.05251100  1
  O  O35  1  0.62880600  0.28189900  0.19691500  1
  O  O36  1  0.83873600  0.66622800  0.04413400  1
loop_
_geom_bond_atom_site_label_1
_geom_bond_atom_site_label_2
_geom_bond_distance
_geom_bond_site_symmetry_2
Nd0 O0 2.331123 1_654
Nd0 O36 2.350376 1_545
Nd0 O1 2.351379 1_544
Nd0 O18 2.404760 1_655
Nd0 O32 2.578373 1_555
Nd0 O34 2.597738 1_655
Nd0 O17 2.693962 1_544
Nd1 O0 2.338227 1_555
Nd1 O36 2.347682 1_556
Nd1 O1 2.392874 1_555
Nd1 O5 2.420772 1_555
Nd1 O10 2.530920 1_555
Nd1 O34 2.616414 1_556
Nd1 O29 2.796397 1_556
Nd2 O0 2.334405 1_555
Nd2 O22 2.336129 1_555
Nd2 O4 2.411648 1_555
Nd2 O17 2.493516 1_445
Nd2 O10 2.497212 1_555
Nd2 O8 2.599016 1_455
Nd3 O36 2.300575 1_555
Nd3 O0 2.321892 1_654
Nd3 O5 2.449573 1_554
Nd3 O32 2.469038 1_555
Nd3 O25 2.563456 1_655
Nd3 O29 2.594613 1_655
Nd3 O8 2.719203 1_554
Nd4 O22 2.317633 1_555
Nd4 O3 2.341435 1_565
Nd4 O7 2.475291 1_455
Nd4 O12 2.477134 1_555
Nd4 O28 2.539123 1_555
Nd4 O11 2.555711 1_555
Nd4 O15 2.673754 1_555
Nd5 O22 2.308950 1_655
Nd5 O3 2.329435 1_555
Nd5 O6 2.519474 1_555
Nd5 O7 2.536063 1_555
Nd5 O16 2.599679 1_545
Nd5 O15 2.638058 1_545
Nd5 O21 2.773884 1_555
Nd6 O3 2.332888 1_565
Nd6 O31 2.334253 1_565
Nd6 O28 2.426564 1_555
Nd6 O9 2.457600 1_555
Nd6 O14 2.491617 1_555
Nd6 O21 2.551210 1_565
Nd6 O20 2.567869 1_565
Nd7 O3 2.336667 1_555
Nd7 O22 2.345447 1_555
Nd7 O4 2.406675 1_555
Nd7 O12 2.511491 1_555
Nd7 O16 2.558726 1_445
Nd7 O11 2.652180 1_545
Nd7 O6 2.692622 1_555
Nd7 O20 2.716994 1_555
Nd8 O31 2.306748 1_555
Nd8 O13 2.318466 1_555
Nd8 O35 2.411047 1_555
Nd8 O23 2.429577 1_555
Nd8 O27 2.468423 1_655
Nd8 O24 2.522537 1_555
Nd9 O36 2.304566 1_555
Nd9 O13 2.326561 1_555
Nd9 O18 2.436531 1_665
Nd9 O25 2.466679 1_655
Nd9 O33 2.544842 1_655
Nd9 O30 2.555061 1_555
Nd9 O35 2.689203 1_555
Nd10 O13 2.319310 1_455
Nd10 O31 2.343476 1_565
Nd10 O26 2.448652 1_555
Nd10 O9 2.465206 1_555
Nd10 O19 2.528304 1_565
Nd10 O33 2.535077 1_555
Nd10 O27 2.573885 1_555
Nd11 O13 2.308754 1_555
Nd11 O31 2.373114 1_565
Nd11 O14 2.469386 1_555
Nd11 O23 2.476955 1_565
Nd11 O26 2.498643 1_555
Nd11 O30 2.623567 1_555
Nd11 O19 2.645747 1_665
Nd11 O24 2.841637 1_555
O1 Zr9 2.126843 1_565
O1 Zr3 2.197715 1_555
O2 Zr2 2.130257 1_555
O2 Zr3 2.178090 1_555
O2 Zr9 2.212237 1_565
O2 Zr0 2.375886 1_565
O4 Zr0 2.091643 1_555
O4 Zr2 2.203743 1_545
O5 Zr0 2.113136 1_555
O5 Zr9 2.189447 1_555
O6 Zr1 2.137295 1_555
O6 Zr0 2.139940 1_555
O7 Zr7 2.099886 1_555
O7 Zr1 2.136160 1_555
O8 Zr2 2.079843 1_655
O8 Zr0 2.368388 1_555
O9 Zr4 2.095262 1_455
O9 Zr7 2.147216 1_455
O10 Zr3 2.091777 1_555
O10 Zr0 2.350177 1_555
O11 Zr2 2.053785 1_555
O11 Zr1 2.187375 1_455
O12 Zr1 2.113827 1_555
O12 Zr6 2.163856 1_555
O14 Zr4 2.119829 1_555
O14 Zr6 2.177242 1_555
O15 Zr3 2.122888 1_555
O15 Zr1 2.183521 1_555
O16 Zr4 2.120860 1_555
O16 Zr1 2.179823 1_555
O17 Zr2 2.120541 1_655
O17 Zr3 2.125444 1_555
O18 Zr10 2.084411 1_455
O18 Zr11 2.142102 1_555
O19 Zr5 2.095401 1_555
O19 Zr4 2.167439 1_445
O20 Zr6 2.054069 1_555
O20 Zr4 2.237060 1_445
O21 Zr7 2.061825 1_555
O21 Zr4 2.220683 1_545
O23 Zr10 2.092105 1_555
O23 Zr5 2.169701 1_655
O24 Zr5 2.110626 1_555
O24 Zr6 2.147887 1_555
O25 Zr10 2.105327 1_455
O25 Zr8 2.121178 1_555
O26 Zr5 2.125096 1_555
O26 Zr8 2.188672 1_555
O27 Zr7 2.137662 1_455
O27 Zr5 2.202302 1_555
O28 Zr6 2.118583 1_555
O28 Zr7 2.148357 1_455
O29 Zr9 2.150813 1_564
O29 Zr8 2.168113 1_555
O30 Zr8 2.075270 1_555
O30 Zr10 2.203286 1_565
O32 Zr9 2.110753 1_554
O32 Zr10 2.152834 1_555
O33 Zr11 2.093026 1_565
O33 Zr8 2.258092 1_555
O34 Zr11 2.064603 1_555
O34 Zr9 2.199130 1_554
O35 Zr11 2.078648 1_555
O35 Zr10 2.283181 1_555
