# generated using pymatgen
data_Sr2AlCO3F5
_symmetry_space_group_name_H-M   'P 1'
_cell_length_a   8.85456800
_cell_length_b   5.51977300
_cell_length_c   13.65690351
_cell_angle_alpha   74.71265145
_cell_angle_beta   90.00000000
_cell_angle_gamma   90.00000000
_symmetry_Int_Tables_number   1
_chemical_formula_structural   Sr2AlCO3F5
_chemical_formula_sum   'Sr8 Al4 C4 O12 F20'
_cell_volume   643.86548464
_cell_formula_units_Z   4
loop_
 _symmetry_equiv_pos_site_id
 _symmetry_equiv_pos_as_xyz
  1  'x, y, z'
loop_
 _atom_site_type_symbol
 _atom_site_label
 _atom_site_symmetry_multiplicity
 _atom_site_fract_x
 _atom_site_fract_y
 _atom_site_fract_z
 _atom_site_occupancy
  Sr  Sr0  1  0.14076500  0.69508000  0.58851500  1
  Sr  Sr1  1  0.64076500  0.30492000  0.91148500  1
  Sr  Sr2  1  0.39113900  0.30791200  0.40152600  1
  Sr  Sr3  1  0.89113900  0.69208800  0.09847400  1
  Sr  Sr4  1  0.60886100  0.69208800  0.59847400  1
  Sr  Sr5  1  0.85923500  0.30492000  0.41148500  1
  Sr  Sr6  1  0.10886100  0.30791200  0.90152600  1
  Sr  Sr7  1  0.35923500  0.69508000  0.08851500  1
  Al  Al0  1  0.87195700  0.19689800  0.66964300  1
  Al  Al1  1  0.12804300  0.80310200  0.33035700  1
  Al  Al2  1  0.62804300  0.19689800  0.16964300  1
  Al  Al3  1  0.37195700  0.80310200  0.83035700  1
  C  C0  1  0.37530400  0.17423300  0.63855300  1
  C  C1  1  0.12469600  0.17423300  0.13855300  1
  C  C2  1  0.87530400  0.82576700  0.86144700  1
  C  C3  1  0.62469600  0.82576700  0.36144700  1
  O  O0  1  0.87620200  0.99642500  0.91120500  1
  O  O1  1  0.12379800  0.00357500  0.08879500  1
  O  O2  1  0.87101100  0.88197100  0.76327900  1
  O  O3  1  0.87890600  0.59006000  0.91240700  1
  O  O4  1  0.37890600  0.40994000  0.58759300  1
  O  O5  1  0.62379800  0.99642500  0.41120500  1
  O  O6  1  0.12898900  0.11802900  0.23672100  1
  O  O7  1  0.37101100  0.11802900  0.73672100  1
  O  O8  1  0.62898900  0.88197100  0.26327900  1
  O  O9  1  0.12109400  0.40994000  0.08759300  1
  O  O10  1  0.62109400  0.59006000  0.41240700  1
  O  O11  1  0.37620200  0.00357500  0.58879500  1
  F  F0  1  0.27340200  0.66989200  0.26606600  1
  F  F1  1  0.22437900  0.89400900  0.90872700  1
  F  F2  1  0.12867500  0.48984800  0.42996400  1
  F  F3  1  0.37132500  0.48984800  0.92996400  1
  F  F4  1  0.87132500  0.51015200  0.57003600  1
  F  F5  1  0.97250600  0.67464700  0.27370900  1
  F  F6  1  0.22659800  0.66989200  0.76606600  1
  F  F7  1  0.99374900  0.91359300  0.41122700  1
  F  F8  1  0.77562100  0.10599100  0.09127300  1
  F  F9  1  0.49374900  0.08640700  0.08877300  1
  F  F10  1  0.02749400  0.32535300  0.72629100  1
  F  F11  1  0.77340200  0.33010800  0.23393400  1
  F  F12  1  0.72659800  0.33010800  0.73393400  1
  F  F13  1  0.72437900  0.10599100  0.59127300  1
  F  F14  1  0.27562100  0.89400900  0.40872700  1
  F  F15  1  0.00625100  0.08640700  0.58877300  1
  F  F16  1  0.62867500  0.51015200  0.07003600  1
  F  F17  1  0.50625100  0.91359300  0.91122700  1
  F  F18  1  0.52749400  0.67464700  0.77370900  1
  F  F19  1  0.47250600  0.32535300  0.22629100  1
loop_
_geom_bond_atom_site_label_1
_geom_bond_atom_site_label_2
_geom_bond_distance
_geom_bond_site_symmetry_2
Al0 F10 1.813071 1_655
Al0 F12 1.818956 1_555
Al0 F15 1.833281 1_655
Al0 F13 1.840674 1_555
Al0 O2 1.866795 1_545
Al0 F4 1.897352 1_555
Al1 F5 1.813071 1_455
Al1 F0 1.818956 1_555
Al1 F7 1.833281 1_455
Al1 F14 1.840674 1_555
Al1 O6 1.866795 1_565
Al1 F2 1.897352 1_555
Al2 F19 1.813071 1_555
Al2 F11 1.818956 1_555
Al2 F9 1.833281 1_555
Al2 F8 1.840674 1_555
Al2 O8 1.866795 1_545
Al2 F16 1.897352 1_555
Al3 F18 1.813071 1_555
Al3 F6 1.818956 1_555
Al3 F17 1.833281 1_555
Al3 F1 1.840674 1_555
Al3 O7 1.866795 1_565
Al3 F3 1.897352 1_555
C0 O7 1.294513 1_555
C0 O11 1.298745 1_555
C0 O4 1.304081 1_555
C1 O6 1.294513 1_555
C1 O1 1.298745 1_555
C1 O9 1.304081 1_555
C2 O2 1.294513 1_555
C2 O0 1.298745 1_555
C2 O3 1.304081 1_555
C3 O8 1.294513 1_555
C3 O5 1.298745 1_555
C3 O10 1.304081 1_555
O0 Sr6 2.664159 1_665
O0 Sr3 2.667362 1_556
O0 Sr1 2.692396 1_565
O1 Sr3 2.664159 1_445
O1 Sr6 2.667362 1_554
O1 Sr7 2.692396 1_545
O3 Sr6 2.591430 1_655
O3 Sr1 2.633276 1_555
O3 Sr3 2.746036 1_556
O4 Sr4 2.591430 1_555
O4 Sr0 2.633276 1_555
O4 Sr2 2.746036 1_555
O5 Sr2 2.664159 1_565
O5 Sr4 2.667362 1_555
O5 Sr5 2.692396 1_565
O9 Sr3 2.591430 1_455
O9 Sr7 2.633276 1_555
O9 Sr6 2.746036 1_554
O10 Sr2 2.591430 1_555
O10 Sr5 2.633276 1_555
O10 Sr4 2.746036 1_555
O11 Sr4 2.664159 1_545
O11 Sr2 2.667362 1_555
O11 Sr0 2.692396 1_545
F0 Sr7 2.509745 1_555
F0 Sr2 2.559736 1_555
F1 Sr6 2.481344 1_565
F1 Sr7 2.690462 1_556
F2 Sr2 2.601156 1_555
F2 Sr5 2.633135 1_455
F2 Sr0 2.697564 1_555
F3 Sr6 2.601156 1_555
F3 Sr1 2.633135 1_555
F3 Sr7 2.697564 1_556
F4 Sr4 2.601156 1_555
F4 Sr0 2.633135 1_655
F4 Sr5 2.697564 1_555
F5 Sr3 2.476713 1_555
F5 Sr5 2.585796 1_555
F6 Sr0 2.509745 1_555
F6 Sr6 2.559736 1_555
F7 Sr5 2.467471 1_565
F7 Sr0 2.733433 1_655
F8 Sr3 2.481344 1_545
F8 Sr1 2.690462 1_554
F9 Sr7 2.467471 1_545
F9 Sr1 2.733433 1_554
F10 Sr6 2.476713 1_555
F10 Sr0 2.585796 1_555
F11 Sr5 2.509745 1_555
F11 Sr3 2.559736 1_555
F12 Sr1 2.509745 1_555
F12 Sr4 2.559736 1_555
F13 Sr4 2.481344 1_545
F13 Sr5 2.690462 1_555
F14 Sr2 2.481344 1_565
F14 Sr0 2.690462 1_555
F15 Sr0 2.467471 1_545
F15 Sr5 2.733433 1_455
F16 Sr3 2.601156 1_555
F16 Sr7 2.633135 1_555
F16 Sr1 2.697564 1_554
F17 Sr1 2.467471 1_565
F17 Sr7 2.733433 1_556
F18 Sr4 2.476713 1_555
F18 Sr1 2.585796 1_555
F19 Sr2 2.476713 1_555
F19 Sr7 2.585796 1_555
