# generated using pymatgen
data_Ca(FeP)2
_symmetry_space_group_name_H-M   'P 1'
_cell_length_a   3.79624928
_cell_length_b   3.79624871
_cell_length_c   5.66530476
_cell_angle_alpha   109.57519121
_cell_angle_beta   109.57518006
_cell_angle_gamma   90.00001121
_symmetry_Int_Tables_number   1
_chemical_formula_structural   Ca(FeP)2
_chemical_formula_sum   'Ca1 Fe2 P2'
_cell_volume   71.89872824
_cell_formula_units_Z   1
loop_
 _symmetry_equiv_pos_site_id
 _symmetry_equiv_pos_as_xyz
  1  'x, y, z'
loop_
 _atom_site_type_symbol
 _atom_site_label
 _atom_site_symmetry_multiplicity
 _atom_site_fract_x
 _atom_site_fract_y
 _atom_site_fract_z
 _atom_site_occupancy
  Ca  Ca0  1  0.00000000  0.00000000  0.00000000  1
  Fe  Fe0  1  0.75000000  0.25000000  0.50000000  1
  Fe  Fe1  1  0.25000000  0.75000000  0.50000000  1
  P  P0  1  0.64358544  0.64358544  0.28716888  1
  P  P1  1  0.35641456  0.35641456  0.71283112  1
loop_
_geom_bond_atom_site_label_1
_geom_bond_atom_site_label_2
_geom_bond_distance
_geom_bond_site_symmetry_2
Ca0 P1 3.042745 1_554
Ca0 P0 3.042745 1_445
Ca0 P1 3.042750 1_544
Ca0 P0 3.042750 1_455
Ca0 P0 3.042750 1_545
Ca0 P1 3.042750 1_454
Ca0 P1 3.042754 1_444
Ca0 P0 3.042754 1_555
Ca0 Fe1 3.134543 1_544
Ca0 Fe0 3.134543 1_455
Ca0 Fe1 3.134543 1_555
Ca0 Fe0 3.134543 1_444
Ca0 Fe1 3.134543 1_545
Ca0 Fe0 3.134543 1_454
Ca0 Fe0 3.134543 1_555
Ca0 Fe1 3.134543 1_444
Fe0 P0 2.174926 1_545
Fe0 P1 2.174926 1_655
Fe0 P0 2.174933 1_555
Fe0 P1 2.174933 1_555
Fe1 P1 2.174926 1_565
Fe1 P0 2.174926 1_455
Fe1 P1 2.174933 1_555
Fe1 P0 2.174933 1_555
