# generated using pymatgen
data_Ba2Nb2TeO10
_symmetry_space_group_name_H-M   'P 1'
_cell_length_a   7.37873000
_cell_length_b   10.06887900
_cell_length_c   12.70173700
_cell_angle_alpha   90.00000000
_cell_angle_beta   90.00000000
_cell_angle_gamma   90.00000000
_symmetry_Int_Tables_number   1
_chemical_formula_structural   Ba2Nb2TeO10
_chemical_formula_sum   'Ba8 Nb8 Te4 O40'
_cell_volume   943.68240356
_cell_formula_units_Z   4
loop_
 _symmetry_equiv_pos_site_id
 _symmetry_equiv_pos_as_xyz
  1  'x, y, z'
loop_
 _atom_site_type_symbol
 _atom_site_label
 _atom_site_symmetry_multiplicity
 _atom_site_fract_x
 _atom_site_fract_y
 _atom_site_fract_z
 _atom_site_occupancy
  Ba  Ba0  1  0.48485000  0.61135000  0.14080700  1
  Ba  Ba1  1  0.01515000  0.61135000  0.64080700  1
  Ba  Ba2  1  0.51515000  0.88865000  0.64080700  1
  Ba  Ba3  1  0.01515000  0.11135000  0.85919300  1
  Ba  Ba4  1  0.48485000  0.11135000  0.35919300  1
  Ba  Ba5  1  0.98485000  0.38865000  0.35919300  1
  Ba  Ba6  1  0.98485000  0.88865000  0.14080700  1
  Ba  Ba7  1  0.51515000  0.38865000  0.85919300  1
  Nb  Nb0  1  0.21126200  0.74355600  0.89513600  1
  Nb  Nb1  1  0.21126200  0.24355600  0.60486400  1
  Nb  Nb2  1  0.78873800  0.25644400  0.10486400  1
  Nb  Nb3  1  0.28873800  0.24355600  0.10486400  1
  Nb  Nb4  1  0.28873800  0.74355600  0.39513600  1
  Nb  Nb5  1  0.71126200  0.75644400  0.89513600  1
  Nb  Nb6  1  0.78873800  0.75644400  0.39513600  1
  Nb  Nb7  1  0.71126200  0.25644400  0.60486400  1
  Te  Te0  1  0.00000000  0.00000000  0.50000000  1
  Te  Te1  1  0.50000000  0.00000000  0.00000000  1
  Te  Te2  1  0.50000000  0.50000000  0.50000000  1
  Te  Te3  1  0.00000000  0.50000000  0.00000000  1
  O  O0  1  0.27867300  0.29568500  0.24224000  1
  O  O1  1  0.44477100  0.16583900  0.58348700  1
  O  O2  1  0.73315300  0.59506300  0.48616900  1
  O  O3  1  0.77867300  0.70431500  0.25776000  1
  O  O4  1  0.23315300  0.40493700  0.01383100  1
  O  O5  1  0.22132700  0.29568500  0.74224000  1
  O  O6  1  0.37920000  0.15388800  0.94458800  1
  O  O7  1  0.05522900  0.16583900  0.08348700  1
  O  O8  1  0.12080000  0.65388800  0.05541200  1
  O  O9  1  0.27867300  0.79568500  0.25776000  1
  O  O10  1  0.87920000  0.34611200  0.94458800  1
  O  O11  1  0.12080000  0.15388800  0.44458800  1
  O  O12  1  0.73315300  0.09506300  0.01383100  1
  O  O13  1  0.26684700  0.90493700  0.98616900  1
  O  O14  1  0.77867300  0.20431500  0.24224000  1
  O  O15  1  0.42199100  0.56958600  0.36184800  1
  O  O16  1  0.37920000  0.65388800  0.55541200  1
  O  O17  1  0.07800900  0.56958600  0.86184800  1
  O  O18  1  0.42199100  0.06958600  0.13815200  1
  O  O19  1  0.62080000  0.34611200  0.44458800  1
  O  O20  1  0.07800900  0.06958600  0.63815200  1
  O  O21  1  0.72132700  0.20431500  0.74224000  1
  O  O22  1  0.62080000  0.84611200  0.05541200  1
  O  O23  1  0.44477100  0.66583900  0.91651300  1
  O  O24  1  0.72132700  0.70431500  0.75776000  1
  O  O25  1  0.92199100  0.43041400  0.13815200  1
  O  O26  1  0.76684700  0.59506300  0.98616900  1
  O  O27  1  0.23315300  0.90493700  0.48616900  1
  O  O28  1  0.76684700  0.09506300  0.51383100  1
  O  O29  1  0.57800900  0.43041400  0.63815200  1
  O  O30  1  0.55522900  0.33416100  0.08348700  1
  O  O31  1  0.55522900  0.83416100  0.41651300  1
  O  O32  1  0.92199100  0.93041400  0.36184800  1
  O  O33  1  0.94477100  0.83416100  0.91651300  1
  O  O34  1  0.05522900  0.66583900  0.41651300  1
  O  O35  1  0.94477100  0.33416100  0.58348700  1
  O  O36  1  0.87920000  0.84611200  0.55541200  1
  O  O37  1  0.22132700  0.79568500  0.75776000  1
  O  O38  1  0.57800900  0.93041400  0.86184800  1
  O  O39  1  0.26684700  0.40493700  0.51383100  1
loop_
_geom_bond_atom_site_label_1
_geom_bond_atom_site_label_2
_geom_bond_distance
_geom_bond_site_symmetry_2
Ba0 O22 2.787524 1_555
Ba0 O3 2.789861 1_555
Ba0 O9 2.822422 1_555
Ba0 O26 2.866096 1_554
Ba0 O15 2.876562 1_555
Ba0 O23 2.916304 1_554
Ba0 O8 2.928440 1_555
Ba0 O30 2.930758 1_555
Ba0 O4 3.220235 1_555
Ba1 O36 2.787524 1_455
Ba1 O24 2.789861 1_455
Ba1 O37 2.822422 1_555
Ba1 O2 2.866096 1_455
Ba1 O17 2.876562 1_555
Ba1 O34 2.916304 1_555
Ba1 O16 2.928440 1_555
Ba1 O35 2.930758 1_455
Ba1 O39 3.220235 1_555
Ba2 O16 2.787524 1_555
Ba2 O37 2.789861 1_555
Ba2 O24 2.822422 1_555
Ba2 O27 2.866096 1_555
Ba2 O38 2.876562 1_555
Ba2 O31 2.916304 1_555
Ba2 O36 2.928440 1_555
Ba2 O1 2.930758 1_565
Ba2 O28 3.220235 1_565
Ba3 O10 2.787524 1_455
Ba3 O21 2.789861 1_455
Ba3 O5 2.822422 1_555
Ba3 O12 2.866096 1_456
Ba3 O20 2.876562 1_555
Ba3 O7 2.916304 1_556
Ba3 O6 2.928440 1_555
Ba3 O33 2.930758 1_445
Ba3 O13 3.220235 1_545
Ba4 O19 2.787524 1_555
Ba4 O14 2.789861 1_555
Ba4 O0 2.822422 1_555
Ba4 O28 2.866096 1_555
Ba4 O18 2.876562 1_555
Ba4 O1 2.916304 1_555
Ba4 O11 2.928440 1_555
Ba4 O31 2.930758 1_545
Ba4 O27 3.220235 1_545
Ba5 O11 2.787524 1_655
Ba5 O0 2.789861 1_655
Ba5 O14 2.822422 1_555
Ba5 O39 2.866096 1_655
Ba5 O25 2.876562 1_555
Ba5 O35 2.916304 1_555
Ba5 O19 2.928440 1_555
Ba5 O34 2.930758 1_655
Ba5 O2 3.220235 1_555
Ba6 O8 2.787524 1_655
Ba6 O9 2.789861 1_655
Ba6 O3 2.822422 1_555
Ba6 O13 2.866096 1_654
Ba6 O32 2.876562 1_555
Ba6 O33 2.916304 1_554
Ba6 O22 2.928440 1_555
Ba6 O7 2.930758 1_665
Ba6 O12 3.220235 1_565
Ba7 O6 2.787524 1_555
Ba7 O5 2.789861 1_555
Ba7 O21 2.822422 1_555
Ba7 O4 2.866096 1_556
Ba7 O29 2.876562 1_555
Ba7 O30 2.916304 1_556
Ba7 O10 2.928440 1_555
Ba7 O23 2.930758 1_555
Ba7 O26 3.220235 1_555
Nb0 O37 1.823661 1_555
Nb0 O23 1.911752 1_555
Nb0 O13 2.036070 1_555
Nb0 O17 2.052784 1_555
Nb0 O33 2.184626 1_455
Nb0 O8 2.324890 1_556
Nb1 O5 1.823661 1_555
Nb1 O1 1.911752 1_555
Nb1 O39 2.036070 1_555
Nb1 O20 2.052784 1_555
Nb1 O35 2.184626 1_455
Nb1 O11 2.324890 1_555
Nb2 O14 1.823661 1_555
Nb2 O30 1.911752 1_555
Nb2 O12 2.036070 1_555
Nb2 O25 2.052784 1_555
Nb2 O7 2.184626 1_655
Nb2 O10 2.324890 1_554
Nb3 O0 1.823661 1_555
Nb3 O7 1.911752 1_555
Nb3 O4 2.036070 1_555
Nb3 O18 2.052784 1_555
Nb3 O30 2.184626 1_555
Nb3 O6 2.324890 1_554
Nb4 O9 1.823661 1_555
Nb4 O34 1.911752 1_555
Nb4 O27 2.036070 1_555
Nb4 O15 2.052784 1_555
Nb4 O31 2.184626 1_555
Nb4 O16 2.324890 1_555
Nb5 O24 1.823661 1_555
Nb5 O33 1.911752 1_555
Nb5 O26 2.036070 1_555
Nb5 O38 2.052784 1_555
Nb5 O23 2.184626 1_555
Nb5 O22 2.324890 1_556
Nb6 O3 1.823661 1_555
Nb6 O31 1.911752 1_555
Nb6 O2 2.036070 1_555
Nb6 O32 2.052784 1_555
Nb6 O34 2.184626 1_655
Nb6 O36 2.324890 1_555
Nb7 O21 1.823661 1_555
Nb7 O35 1.911752 1_555
Nb7 O28 2.036070 1_555
Nb7 O29 2.052784 1_555
Nb7 O1 2.184626 1_555
Nb7 O19 2.324890 1_555
O2 Te2 1.976546 1_555
O4 Te3 1.976546 1_555
O6 Te1 1.921137 1_556
O8 Te3 1.921137 1_555
O10 Te3 1.921137 1_656
O11 Te0 1.921137 1_555
O12 Te1 1.976546 1_555
O13 Te1 1.976546 1_566
O15 Te2 1.975211 1_555
O16 Te2 1.921137 1_555
O17 Te3 1.975211 1_556
O18 Te1 1.975211 1_555
O19 Te2 1.921137 1_555
O20 Te0 1.975211 1_555
O22 Te1 1.921137 1_565
O25 Te3 1.975211 1_655
O26 Te3 1.976546 1_656
O27 Te0 1.976546 1_565
O28 Te0 1.976546 1_655
O29 Te2 1.975211 1_555
O32 Te0 1.975211 1_665
O36 Te0 1.921137 1_665
O38 Te1 1.975211 1_566
O39 Te2 1.976546 1_555
