# generated using pymatgen
data_Cu3BiTe2ClO8
_symmetry_space_group_name_H-M   'P 1'
_cell_length_a   6.44878300
_cell_length_b   10.02407500
_cell_length_c   14.53269400
_cell_angle_alpha   90.00000000
_cell_angle_beta   90.00000000
_cell_angle_gamma   90.00000000
_symmetry_Int_Tables_number   1
_chemical_formula_structural   Cu3BiTe2ClO8
_chemical_formula_sum   'Cu12 Bi4 Te8 Cl4 O32'
_cell_volume   939.43816554
_cell_formula_units_Z   4
loop_
 _symmetry_equiv_pos_site_id
 _symmetry_equiv_pos_as_xyz
  1  'x, y, z'
loop_
 _atom_site_type_symbol
 _atom_site_label
 _atom_site_symmetry_multiplicity
 _atom_site_fract_x
 _atom_site_fract_y
 _atom_site_fract_z
 _atom_site_occupancy
  Cu  Cu0  1  0.19447600  0.75000000  0.64084600  1
  Cu  Cu1  1  0.01534100  0.01248100  0.75933200  1
  Cu  Cu2  1  0.30552400  0.75000000  0.14084600  1
  Cu  Cu3  1  0.98465900  0.98751900  0.24066800  1
  Cu  Cu4  1  0.48465900  0.48751900  0.25933200  1
  Cu  Cu5  1  0.69447600  0.25000000  0.85915400  1
  Cu  Cu6  1  0.01534100  0.48751900  0.75933200  1
  Cu  Cu7  1  0.80552400  0.25000000  0.35915400  1
  Cu  Cu8  1  0.48465900  0.01248100  0.25933200  1
  Cu  Cu9  1  0.51534100  0.98751900  0.74066800  1
  Cu  Cu10  1  0.98465900  0.51248100  0.24066800  1
  Cu  Cu11  1  0.51534100  0.51248100  0.74066800  1
  Bi  Bi0  1  0.76517900  0.25000000  0.63525500  1
  Bi  Bi1  1  0.26517900  0.75000000  0.86474500  1
  Bi  Bi2  1  0.23482100  0.75000000  0.36474500  1
  Bi  Bi3  1  0.73482100  0.25000000  0.13525500  1
  Te  Te0  1  0.74188700  0.56323700  0.95685000  1
  Te  Te1  1  0.25811300  0.06323700  0.04315000  1
  Te  Te2  1  0.24188700  0.06323700  0.54315000  1
  Te  Te3  1  0.24188700  0.43676300  0.54315000  1
  Te  Te4  1  0.75811300  0.56323700  0.45685000  1
  Te  Te5  1  0.75811300  0.93676300  0.45685000  1
  Te  Te6  1  0.25811300  0.43676300  0.04315000  1
  Te  Te7  1  0.74188700  0.93676300  0.95685000  1
  Cl  Cl0  1  0.77992500  0.75000000  0.67752300  1
  Cl  Cl1  1  0.27992500  0.25000000  0.82247700  1
  Cl  Cl2  1  0.72007500  0.75000000  0.17752300  1
  Cl  Cl3  1  0.22007500  0.25000000  0.32247700  1
  O  O0  1  0.00735700  0.44162200  0.11427800  1
  O  O1  1  0.99264300  0.55837800  0.88572200  1
  O  O2  1  0.74994900  0.11359300  0.76209000  1
  O  O3  1  0.54954900  0.60241500  0.85959300  1
  O  O4  1  0.75005100  0.38640700  0.26209000  1
  O  O5  1  0.04954900  0.10241500  0.64040700  1
  O  O6  1  0.17838600  0.87926700  0.53659800  1
  O  O7  1  0.45045100  0.10241500  0.14040700  1
  O  O8  1  0.99264300  0.94162200  0.88572200  1
  O  O9  1  0.49264300  0.44162200  0.61427800  1
  O  O10  1  0.00735700  0.05837800  0.11427800  1
  O  O11  1  0.25005100  0.61359300  0.23791000  1
  O  O12  1  0.32161400  0.87926700  0.03659800  1
  O  O13  1  0.24994900  0.61359300  0.73791000  1
  O  O14  1  0.25005100  0.88640700  0.23791000  1
  O  O15  1  0.32161400  0.62073300  0.03659800  1
  O  O16  1  0.82161400  0.12073300  0.46340200  1
  O  O17  1  0.24994900  0.88640700  0.73791000  1
  O  O18  1  0.17838600  0.62073300  0.53659800  1
  O  O19  1  0.50735700  0.55837800  0.38572200  1
  O  O20  1  0.50735700  0.94162200  0.38572200  1
  O  O21  1  0.82161400  0.37926700  0.46340200  1
  O  O22  1  0.04954900  0.39758500  0.64040700  1
  O  O23  1  0.67838600  0.12073300  0.96340200  1
  O  O24  1  0.95045100  0.60241500  0.35959300  1
  O  O25  1  0.67838600  0.37926700  0.96340200  1
  O  O26  1  0.45045100  0.39758500  0.14040700  1
  O  O27  1  0.74994900  0.38640700  0.76209000  1
  O  O28  1  0.75005100  0.11359300  0.26209000  1
  O  O29  1  0.49264300  0.05837800  0.61427800  1
  O  O30  1  0.54954900  0.89758500  0.85959300  1
  O  O31  1  0.95045100  0.89758500  0.35959300  1
loop_
_geom_bond_atom_site_label_1
_geom_bond_atom_site_label_2
_geom_bond_distance
_geom_bond_site_symmetry_2
Cu0 O6 1.996260 1_555
Cu0 O18 1.996260 1_555
Cu0 O17 1.996854 1_555
Cu0 O13 1.996854 1_555
Cu1 O5 1.961734 1_555
Cu1 O8 1.974774 1_445
Cu1 O2 1.989467 1_455
Cu1 O17 1.995751 1_545
Cu2 O12 1.996260 1_555
Cu2 O15 1.996260 1_555
Cu2 O14 1.996854 1_555
Cu2 O11 1.996854 1_555
Cu3 O31 1.961734 1_555
Cu3 O10 1.974774 1_665
Cu3 O14 1.989467 1_655
Cu3 O28 1.995751 1_565
Cu4 O26 1.961734 1_555
Cu4 O19 1.974774 1_555
Cu4 O4 1.989467 1_555
Cu4 O11 1.995751 1_555
Cu5 O25 1.996260 1_555
Cu5 O23 1.996260 1_555
Cu5 O2 1.996854 1_555
Cu5 O27 1.996854 1_555
Cu6 O22 1.961734 1_555
Cu6 O1 1.974774 1_455
Cu6 O27 1.989467 1_455
Cu6 O13 1.995751 1_555
Cu7 O21 1.996260 1_555
Cu7 O16 1.996260 1_555
Cu7 O4 1.996854 1_555
Cu7 O28 1.996854 1_555
Cu8 O7 1.961734 1_555
Cu8 O20 1.974774 1_545
Cu8 O28 1.989467 1_555
Cu8 O14 1.995751 1_545
Cu9 O30 1.961734 1_555
Cu9 O29 1.974774 1_565
Cu9 O17 1.989467 1_555
Cu9 O2 1.995751 1_565
Cu10 O24 1.961734 1_555
Cu10 O0 1.974774 1_655
Cu10 O11 1.989467 1_655
Cu10 O4 1.995751 1_555
Cu11 O3 1.961734 1_555
Cu11 O9 1.974774 1_555
Cu11 O13 1.989467 1_555
Cu11 O27 1.995751 1_555
Bi0 O2 2.297148 1_555
Bi0 O27 2.297148 1_555
Bi0 O22 2.357374 1_655
Bi0 O5 2.357374 1_655
Bi0 O9 2.621342 1_555
Bi0 O29 2.621342 1_555
Bi0 O21 2.837066 1_555
Bi0 O16 2.837066 1_555
Bi1 O17 2.297148 1_555
Bi1 O13 2.297148 1_555
Bi1 O30 2.357374 1_555
Bi1 O3 2.357374 1_555
Bi1 O8 2.621342 1_455
Bi1 O1 2.621342 1_455
Bi1 O12 2.837066 1_556
Bi1 O15 2.837066 1_556
Bi2 O14 2.297148 1_555
Bi2 O11 2.297148 1_555
Bi2 O31 2.357374 1_455
Bi2 O24 2.357374 1_455
Bi2 O20 2.621342 1_555
Bi2 O19 2.621342 1_555
Bi2 O6 2.837066 1_555
Bi2 O18 2.837066 1_555
Bi3 O28 2.297148 1_555
Bi3 O4 2.297148 1_555
Bi3 O26 2.357374 1_555
Bi3 O7 2.357374 1_555
Bi3 O0 2.621342 1_655
Bi3 O10 2.621342 1_655
Bi3 O25 2.837066 1_554
Bi3 O23 2.837066 1_554
Cl0 Cu0 2.725968 1_655
Cl1 Cu5 2.725968 1_555
Cl2 Cu2 2.725968 1_555
Cl3 Cu7 2.725968 1_455
O0 Te6 1.919841 1_555
O1 Te0 1.919841 1_555
O3 Te0 1.921043 1_555
O5 Te2 1.921043 1_555
O6 Te2 1.891447 1_565
O7 Te1 1.921043 1_555
O8 Te7 1.919841 1_555
O9 Te3 1.919841 1_555
O10 Te1 1.919841 1_555
O12 Te1 1.891447 1_565
O15 Te6 1.891447 1_555
O16 Te5 1.891447 1_545
O18 Te3 1.891447 1_555
O19 Te4 1.919841 1_555
O20 Te5 1.919841 1_555
O21 Te4 1.891447 1_555
O22 Te3 1.921043 1_555
O23 Te7 1.891447 1_545
O24 Te4 1.921043 1_555
O25 Te0 1.891447 1_555
O26 Te6 1.921043 1_555
O29 Te2 1.919841 1_555
O30 Te7 1.921043 1_555
O31 Te5 1.921043 1_555
