# generated using pymatgen
data_Zr(PO3)4
_symmetry_space_group_name_H-M   'P 1'
_cell_length_a   16.17687058
_cell_length_b   16.17687058
_cell_length_c   8.81719659
_cell_angle_alpha   89.98544969
_cell_angle_beta   89.98544969
_cell_angle_gamma   129.92682331
_symmetry_Int_Tables_number   1
_chemical_formula_structural   Zr(PO3)4
_chemical_formula_sum   'Zr8 P32 O96'
_cell_volume   1769.44983426
_cell_formula_units_Z   8
loop_
 _symmetry_equiv_pos_site_id
 _symmetry_equiv_pos_as_xyz
  1  'x, y, z'
loop_
 _atom_site_type_symbol
 _atom_site_label
 _atom_site_symmetry_multiplicity
 _atom_site_fract_x
 _atom_site_fract_y
 _atom_site_fract_z
 _atom_site_occupancy
  Zr  Zr0  1  0.91489100  0.55117200  0.75061600  1
  Zr  Zr1  1  0.44882800  0.08510900  0.74938400  1
  Zr  Zr2  1  0.93222500  0.06777500  0.75000000  1
  Zr  Zr3  1  0.43076800  0.56923200  0.75000000  1
  Zr  Zr4  1  0.06777500  0.93222500  0.25000000  1
  Zr  Zr5  1  0.55117200  0.91489100  0.25061600  1
  Zr  Zr6  1  0.56923200  0.43076800  0.25000000  1
  Zr  Zr7  1  0.08510900  0.44882800  0.24938400  1
  P  P0  1  0.86814000  0.34666500  0.50418600  1
  P  P1  1  0.18325700  0.98205300  0.63411900  1
  P  P2  1  0.15151800  0.12762500  0.52510400  1
  P  P3  1  0.36726700  0.85305700  0.52706700  1
  P  P4  1  0.32548200  0.02078300  0.12824400  1
  P  P5  1  0.34962400  0.36341100  0.48920400  1
  P  P6  1  0.85305700  0.36726700  0.02706700  1
  P  P7  1  0.67451800  0.97921700  0.87175600  1
  P  P8  1  0.17642800  0.48543200  0.86379200  1
  P  P9  1  0.97921700  0.67451800  0.37175600  1
  P  P10  1  0.02078300  0.32548200  0.62824400  1
  P  P11  1  0.65333500  0.13186000  0.99581400  1
  P  P12  1  0.98205300  0.18325700  0.13411900  1
  P  P13  1  0.01794700  0.81674300  0.86588100  1
  P  P14  1  0.13186000  0.65333500  0.49581400  1
  P  P15  1  0.87237500  0.84848200  0.97489600  1
  P  P16  1  0.81674300  0.01794700  0.36588100  1
  P  P17  1  0.65037600  0.63658900  0.51079600  1
  P  P18  1  0.14694300  0.63273300  0.97293300  1
  P  P19  1  0.33227500  0.51764600  0.36860100  1
  P  P20  1  0.51456800  0.82357200  0.63620800  1
  P  P21  1  0.63658900  0.65037600  0.01079600  1
  P  P22  1  0.34666500  0.86814000  0.00418600  1
  P  P23  1  0.12762500  0.15151800  0.02510400  1
  P  P24  1  0.63273300  0.14694300  0.47293300  1
  P  P25  1  0.36341100  0.34962400  0.98920400  1
  P  P26  1  0.51764600  0.33227500  0.86860100  1
  P  P27  1  0.66772500  0.48235400  0.63139900  1
  P  P28  1  0.84848200  0.87237500  0.47489600  1
  P  P29  1  0.82357200  0.51456800  0.13620800  1
  P  P30  1  0.48235400  0.66772500  0.13139900  1
  P  P31  1  0.48543200  0.17642800  0.36379200  1
  O  O0  1  0.08569000  0.91431000  0.75000000  1
  O  O1  1  0.84805900  0.90609900  0.63156600  1
  O  O2  1  0.58512100  0.65650500  0.59322300  1
  O  O3  1  0.29968400  0.40108600  0.37869500  1
  O  O4  1  0.58663800  0.92915300  0.73716700  1
  O  O5  1  0.08248500  0.37569800  0.48436400  1
  O  O6  1  0.24041500  0.76643800  0.55299800  1
  O  O7  1  0.39949800  0.85010600  0.36791700  1
  O  O8  1  0.79615600  0.90646500  0.35914700  1
  O  O9  1  0.50459800  0.24220100  0.79247300  1
  O  O10  1  0.41487900  0.34349500  0.40677700  1
  O  O11  1  0.14807500  0.93362300  0.47908700  1
  O  O12  1  0.28012400  0.00514700  0.70784900  1
  O  O13  1  0.95188300  0.90537300  0.41273800  1
  O  O14  1  0.95851300  0.40257700  0.08067000  1
  O  O15  1  0.90537300  0.95188300  0.91273800  1
  O  O16  1  0.93362300  0.14807500  0.97908700  1
  O  O17  1  0.06637700  0.85192500  0.02091300  1
  O  O18  1  0.29858300  0.90625800  0.11837300  1
  O  O19  1  0.90609900  0.84805900  0.13156600  1
  O  O20  1  0.90625800  0.29858300  0.61837300  1
  O  O21  1  0.25393500  0.23961500  0.04860300  1
  O  O22  1  0.39787100  0.94411500  0.87042500  1
  O  O23  1  0.40257700  0.95851300  0.58067000  1
  O  O24  1  0.94411500  0.39787100  0.37042500  1
  O  O25  1  0.59742300  0.04148700  0.41933000  1
  O  O26  1  0.59807800  0.56032700  0.37557900  1
  O  O27  1  0.09374200  0.70141700  0.38162700  1
  O  O28  1  0.70141700  0.09374200  0.88162700  1
  O  O29  1  0.62430200  0.91751500  0.01563600  1
  O  O30  1  0.24220100  0.50459800  0.29247300  1
  O  O31  1  0.09390100  0.15194100  0.86843400  1
  O  O32  1  0.04811700  0.09462700  0.58726200  1
  O  O33  1  0.07084700  0.41336200  0.76283300  1
  O  O34  1  0.15194100  0.09390100  0.36843400  1
  O  O35  1  0.60050200  0.14989400  0.63208300  1
  O  O36  1  0.40275900  0.80288700  0.64098100  1
  O  O37  1  0.60212900  0.05588500  0.12957500  1
  O  O38  1  0.56032700  0.59807800  0.87557900  1
  O  O39  1  0.84781700  0.41373800  0.58268000  1
  O  O40  1  0.19711300  0.59724100  0.85901900  1
  O  O41  1  0.55710400  0.84888900  0.47690800  1
  O  O42  1  0.76988400  0.99647700  0.80997500  1
  O  O43  1  0.34349500  0.41487900  0.90677700  1
  O  O44  1  0.85010600  0.39949800  0.86791700  1
  O  O45  1  0.71987600  0.99485300  0.29215100  1
  O  O46  1  0.49540200  0.75779900  0.20752700  1
  O  O47  1  0.09353500  0.20384400  0.14085300  1
  O  O48  1  0.76038500  0.74606500  0.45139700  1
  O  O49  1  0.23961500  0.25393500  0.54860300  1
  O  O50  1  0.20384400  0.09353500  0.64085300  1
  O  O51  1  0.37386800  0.57514500  0.51720400  1
  O  O52  1  0.50415200  0.26738800  0.27558900  1
  O  O53  1  0.57122600  0.42877400  0.75000000  1
  O  O54  1  0.99485300  0.71987600  0.79215100  1
  O  O55  1  0.00514700  0.28012400  0.20784900  1
  O  O56  1  0.23011600  0.00352300  0.19002500  1
  O  O57  1  0.92915300  0.58663800  0.23716700  1
  O  O58  1  0.00352300  0.23011600  0.69002500  1
  O  O59  1  0.37569800  0.08248500  0.98436400  1
  O  O60  1  0.04148700  0.59742300  0.91933000  1
  O  O61  1  0.80288700  0.40275900  0.14098100  1
  O  O62  1  0.23356200  0.75958500  0.94700200  1
  O  O63  1  0.44289600  0.15111100  0.52309200  1
  O  O64  1  0.57514500  0.37386800  0.01720400  1
  O  O65  1  0.15218300  0.58626200  0.41732000  1
  O  O66  1  0.59891400  0.70031600  0.12130500  1
  O  O67  1  0.75958500  0.23356200  0.44700200  1
  O  O68  1  0.99647700  0.76988400  0.30997500  1
  O  O69  1  0.42877400  0.57122600  0.25000000  1
  O  O70  1  0.05588500  0.60212900  0.62957500  1
  O  O71  1  0.85192500  0.06637700  0.52091300  1
  O  O72  1  0.76643800  0.24041500  0.05299800  1
  O  O73  1  0.73261200  0.49584800  0.22441100  1
  O  O74  1  0.65650500  0.58512100  0.09322300  1
  O  O75  1  0.62613200  0.42485500  0.48279600  1
  O  O76  1  0.42485500  0.62613200  0.98279600  1
  O  O77  1  0.49584800  0.73261200  0.72441100  1
  O  O78  1  0.41373800  0.84781700  0.08268000  1
  O  O79  1  0.15111100  0.44289600  0.02309200  1
  O  O80  1  0.74606500  0.76038500  0.95139700  1
  O  O81  1  0.58626200  0.15218300  0.91732000  1
  O  O82  1  0.41336200  0.07084700  0.26283300  1
  O  O83  1  0.70031600  0.59891400  0.62130500  1
  O  O84  1  0.26738800  0.50415200  0.77558900  1
  O  O85  1  0.14989400  0.60050200  0.13208300  1
  O  O86  1  0.40192200  0.43967300  0.62442100  1
  O  O87  1  0.59724100  0.19711300  0.35901900  1
  O  O88  1  0.09462700  0.04811700  0.08726200  1
  O  O89  1  0.90646500  0.79615600  0.85914700  1
  O  O90  1  0.75779900  0.49540200  0.70752700  1
  O  O91  1  0.40108600  0.29968400  0.87869500  1
  O  O92  1  0.91431000  0.08569000  0.25000000  1
  O  O93  1  0.43967300  0.40192200  0.12442100  1
  O  O94  1  0.84888900  0.55710400  0.97690800  1
  O  O95  1  0.91751500  0.62430200  0.51563600  1
loop_
_geom_bond_atom_site_label_1
_geom_bond_atom_site_label_2
_geom_bond_distance
_geom_bond_site_symmetry_2
O0 P1 1.585695 1_555
O0 P13 1.585695 1_555
O1 P28 1.486970 1_555
O1 Zr2 2.283813 1_565
O2 P17 1.477371 1_555
O2 Zr3 2.368762 1_555
O3 P19 1.601596 1_555
O3 P5 1.614197 1_555
O4 P20 1.585590 1_555
O4 P7 1.615125 1_555
O5 P10 1.491179 1_555
O5 Zr7 2.372383 1_555
O6 P3 1.592283 1_555
O6 P14 1.600719 1_555
O7 P3 1.508269 1_555
O7 Zr5 2.210358 1_555
O8 P16 1.611185 1_565
O8 P28 1.631431 1_555
O9 P26 1.491332 1_555
O9 Zr1 2.115184 1_555
O10 P5 1.477371 1_555
O10 Zr6 2.368762 1_555
O11 P1 1.494938 1_555
O11 Zr4 2.394072 1_555
O12 P1 1.505617 1_545
O12 Zr1 2.173635 1_555
O13 P28 1.495495 1_555
O13 Zr4 2.171486 1_655
O14 P6 1.486486 1_555
O14 Zr7 2.236515 1_655
O15 P15 1.495495 1_555
O15 Zr2 2.171486 1_565
O16 P12 1.494938 1_556
O16 Zr2 2.394072 1_555
O17 P13 1.494938 1_554
O17 Zr4 2.394072 1_555
O18 P4 1.610760 1_565
O18 P22 1.616932 1_555
O19 P15 1.486970 1_554
O19 Zr4 2.283813 1_655
O20 P10 1.610760 1_655
O20 P0 1.616932 1_555
O21 P23 1.584776 1_555
O21 P25 1.590976 1_554
O22 P22 1.509843 1_556
O22 Zr1 2.146083 1_565
O23 P3 1.486486 1_555
O23 Zr1 2.236515 1_565
O24 P0 1.509843 1_555
O24 Zr7 2.146083 1_655
O25 P24 1.486486 1_555
O25 Zr5 2.236515 1_545
O26 P17 1.523373 1_555
O26 Zr6 2.140664 1_555
O27 P9 1.610760 1_455
O27 P14 1.616932 1_555
O28 P7 1.610760 1_545
O28 P11 1.616932 1_555
O29 P7 1.491179 1_554
O29 Zr5 2.372383 1_555
O30 P19 1.491332 1_555
O30 Zr7 2.115184 1_555
O31 P23 1.486970 1_556
O31 Zr2 2.283813 1_455
O32 P2 1.495495 1_555
O32 Zr2 2.171486 1_455
O33 P8 1.585590 1_555
O33 P10 1.615125 1_555
O34 P2 1.486970 1_555
O34 Zr4 2.283813 1_545
O35 P24 1.508269 1_555
O35 Zr1 2.210358 1_555
O36 P3 1.610953 1_555
O36 P20 1.615016 1_555
O37 P11 1.509843 1_554
O37 Zr5 2.146083 1_545
O38 P21 1.523373 1_556
O38 Zr3 2.140664 1_555
O39 P0 1.490815 1_555
O39 Zr0 2.284447 1_555
O40 P18 1.610953 1_555
O40 P8 1.615016 1_555
O41 P20 1.500511 1_555
O41 Zr5 2.293644 1_555
O42 P7 1.483668 1_555
O42 Zr2 2.148869 1_565
O43 P25 1.477371 1_555
O43 Zr3 2.368762 1_555
O44 P6 1.508269 1_556
O44 Zr0 2.210358 1_555
O45 P16 1.505617 1_565
O45 Zr5 2.173635 1_555
O46 P30 1.491332 1_555
O46 Zr5 2.115184 1_555
O47 P12 1.611185 1_455
O47 P23 1.631431 1_555
O48 P28 1.584776 1_555
O48 P17 1.590976 1_555
O49 P2 1.584776 1_555
O49 P5 1.590976 1_555
O50 P1 1.611185 1_545
O50 P2 1.631431 1_555
O51 P19 1.494125 1_555
O51 Zr3 2.276726 1_555
O52 P31 1.512947 1_555
O52 Zr6 2.138343 1_555
O53 P26 1.594869 1_555
O53 P27 1.594869 1_555
O54 P13 1.505617 1_655
O54 Zr0 2.173635 1_555
O55 P12 1.505617 1_455
O55 Zr7 2.173635 1_555
O56 P4 1.483668 1_555
O56 Zr4 2.148869 1_545
O57 P29 1.585590 1_555
O57 P9 1.615125 1_555
O58 P10 1.483668 1_555
O58 Zr2 2.148869 1_455
O59 P4 1.491179 1_556
O59 Zr1 2.372383 1_555
O60 P18 1.486486 1_555
O60 Zr0 2.236515 1_455
O61 P6 1.610953 1_555
O61 P29 1.615016 1_555
O62 P18 1.592283 1_555
O62 P22 1.600719 1_556
O63 P31 1.500511 1_555
O63 Zr1 2.293644 1_555
O64 P26 1.494125 1_554
O64 Zr6 2.276726 1_555
O65 P14 1.490815 1_555
O65 Zr7 2.284447 1_555
O66 P30 1.601596 1_555
O66 P21 1.614197 1_555
O67 P24 1.592283 1_555
O67 P0 1.600719 1_555
O68 P9 1.483668 1_555
O68 Zr4 2.148869 1_655
O69 P19 1.594869 1_555
O69 P30 1.594869 1_555
O70 P14 1.509843 1_555
O70 Zr0 2.146083 1_455
O71 P16 1.494938 1_555
O71 Zr2 2.394072 1_555
O72 P6 1.592283 1_555
O72 P11 1.600719 1_554
O73 P29 1.512947 1_555
O73 Zr6 2.138343 1_555
O74 P21 1.477371 1_555
O74 Zr6 2.368762 1_555
O75 P27 1.494125 1_555
O75 Zr6 2.276726 1_555
O76 P30 1.494125 1_556
O76 Zr3 2.276726 1_555
O77 P20 1.512947 1_555
O77 Zr3 2.138343 1_555
O78 P22 1.490815 1_555
O78 Zr5 2.284447 1_555
O79 P8 1.500511 1_554
O79 Zr7 2.293644 1_555
O80 P15 1.584776 1_555
O80 P21 1.590976 1_556
O81 P11 1.490815 1_555
O81 Zr1 2.284447 1_555
O82 P31 1.585590 1_555
O82 P4 1.615125 1_555
O83 P27 1.601596 1_555
O83 P17 1.614197 1_555
O84 P8 1.512947 1_555
O84 Zr3 2.138343 1_555
O85 P18 1.508269 1_554
O85 Zr7 2.210358 1_555
O86 P5 1.523373 1_555
O86 Zr3 2.140664 1_555
O87 P24 1.610953 1_555
O87 P31 1.615016 1_555
O88 P23 1.495495 1_555
O88 Zr4 2.171486 1_545
O89 P13 1.611185 1_655
O89 P15 1.631431 1_555
O90 P27 1.491332 1_555
O90 Zr0 2.115184 1_555
O91 P26 1.601596 1_555
O91 P25 1.614197 1_555
O92 P16 1.585695 1_555
O92 P12 1.585695 1_555
O93 P25 1.523373 1_554
O93 Zr6 2.140664 1_555
O94 P29 1.500511 1_556
O94 Zr0 2.293644 1_555
O95 P9 1.491179 1_555
O95 Zr0 2.372383 1_555
