# generated using pymatgen
data_LaCo5
_symmetry_space_group_name_H-M   'P 1'
_cell_length_a   5.03909562
_cell_length_b   5.03909631
_cell_length_c   7.90058600
_cell_angle_alpha   90.00000000
_cell_angle_beta   90.00000000
_cell_angle_gamma   119.58073442
_symmetry_Int_Tables_number   1
_chemical_formula_structural   LaCo5
_chemical_formula_sum   'La2 Co10'
_cell_volume   174.46750143
_cell_formula_units_Z   2
loop_
 _symmetry_equiv_pos_site_id
 _symmetry_equiv_pos_as_xyz
  1  'x, y, z'
loop_
 _atom_site_type_symbol
 _atom_site_label
 _atom_site_symmetry_multiplicity
 _atom_site_fract_x
 _atom_site_fract_y
 _atom_site_fract_z
 _atom_site_occupancy
  La  La0  1  0.00000000  0.00000000  0.50000000  1
  La  La1  1  0.00000000  0.00000000  0.00000000  1
  Co  Co0  1  0.62916400  0.30550400  0.00000000  1
  Co  Co1  1  0.00000000  0.50000000  0.76032800  1
  Co  Co2  1  0.30550400  0.62916400  0.50000000  1
  Co  Co3  1  0.69449600  0.37083600  0.50000000  1
  Co  Co4  1  0.37083600  0.69449600  0.00000000  1
  Co  Co5  1  0.50000000  0.00000000  0.26032800  1
  Co  Co6  1  0.50000000  0.00000000  0.73967200  1
  Co  Co7  1  0.00000000  0.50000000  0.23967200  1
  Co  Co8  1  0.50000000  0.50000000  0.75000000  1
  Co  Co9  1  0.50000000  0.50000000  0.25000000  1
loop_
_geom_bond_atom_site_label_1
_geom_bond_atom_site_label_2
_geom_bond_distance
_geom_bond_site_symmetry_2
Co0 Co9 2.432119 1_555
Co0 Co8 2.432119 1_554
Co0 Co6 2.456524 1_554
Co0 Co5 2.456524 1_555
Co0 Co7 2.495967 1_655
Co0 Co1 2.495967 1_654
Co0 Co4 2.686497 1_545
Co0 La1 2.757307 1_555
Co0 Co4 2.838310 1_555
Co0 La1 2.949938 1_655
Co0 La1 3.046762 1_665
Co1 Co2 2.456524 1_555
Co1 Co3 2.456524 1_455
Co1 Co4 2.495967 1_556
Co1 Co8 2.520869 1_455
Co1 Co8 2.520869 1_555
Co1 Co6 2.540744 1_455
Co1 Co6 2.540744 1_565
Co1 La1 3.151770 1_556
Co1 La1 3.151770 1_566
Co1 La0 3.252433 1_555
Co1 La0 3.252433 1_565
Co2 Co8 2.432119 1_555
Co2 Co9 2.432119 1_555
Co2 Co7 2.456524 1_555
Co2 Co6 2.495967 1_565
Co2 Co5 2.495967 1_565
Co2 Co3 2.686497 1_455
Co2 La0 2.757308 1_555
Co2 Co3 2.838310 1_555
Co2 La0 2.949938 1_565
Co2 La0 3.046762 1_665
Co3 Co8 2.432119 1_555
Co3 Co9 2.432119 1_555
Co3 Co7 2.456524 1_655
Co3 Co6 2.495967 1_555
Co3 Co5 2.495967 1_555
Co3 La0 2.757308 1_665
Co3 La0 2.949938 1_655
Co3 La0 3.046762 1_555
Co4 Co9 2.432119 1_555
Co4 Co8 2.432119 1_554
Co4 Co6 2.456524 1_564
Co4 Co5 2.456524 1_565
Co4 Co7 2.495967 1_555
Co4 La1 2.757307 1_665
Co4 La1 2.949938 1_565
Co4 La1 3.046762 1_555
Co5 Co9 2.520869 1_545
Co5 Co9 2.520869 1_555
Co5 Co7 2.540744 1_655
Co5 Co7 2.540744 1_545
Co5 La0 3.151769 1_555
Co5 La0 3.151769 1_655
Co5 La1 3.252432 1_555
Co5 La1 3.252432 1_655
Co6 Co8 2.520869 1_555
Co6 Co8 2.520869 1_545
Co6 La0 3.151769 1_555
Co6 La0 3.151769 1_655
Co6 La1 3.252432 1_556
Co6 La1 3.252432 1_656
Co7 Co9 2.520869 1_455
Co7 Co9 2.520869 1_555
Co7 La1 3.151770 1_555
Co7 La1 3.151770 1_565
Co7 La0 3.252433 1_555
Co7 La0 3.252433 1_565
Co8 La0 3.214025 1_665
Co8 La0 3.214025 1_555
Co8 La1 3.214025 1_666
Co8 La1 3.214025 1_556
Co9 La0 3.214025 1_665
Co9 La1 3.214025 1_665
Co9 La0 3.214025 1_555
Co9 La1 3.214025 1_555
