# generated using pymatgen
data_Na9Sn4
_symmetry_space_group_name_H-M   'P 1'
_cell_length_a   5.38014202
_cell_length_b   5.38014313
_cell_length_c   28.82429352
_cell_angle_alpha   89.99946165
_cell_angle_beta   90.00073718
_cell_angle_gamma   120.00830319
_symmetry_Int_Tables_number   1
_chemical_formula_structural   Na9Sn4
_chemical_formula_sum   'Na18 Sn8'
_cell_volume   722.50445635
_cell_formula_units_Z   2
loop_
 _symmetry_equiv_pos_site_id
 _symmetry_equiv_pos_as_xyz
  1  'x, y, z'
loop_
 _atom_site_type_symbol
 _atom_site_label
 _atom_site_symmetry_multiplicity
 _atom_site_fract_x
 _atom_site_fract_y
 _atom_site_fract_z
 _atom_site_occupancy
  Na  Na0  1  0.33336182  0.66664364  0.75027617  1
  Na  Na1  1  0.66662812  0.33336813  0.24976934  1
  Na  Na2  1  0.66667301  0.33332768  0.59278312  1
  Na  Na3  1  0.33333177  0.66666683  0.40724684  1
  Na  Na4  1  0.33333066  0.66666569  0.09262165  1
  Na  Na5  1  0.66666919  0.33332864  0.90723093  1
  Na  Na6  1  0.00003972  -0.00003723  0.82050494  1
  Na  Na7  1  -0.00002967  0.00002726  0.17947601  1
  Na  Na8  1  -0.00006735  0.00006215  0.32047466  1
  Na  Na9  1  0.00006476  -0.00003915  0.67961144  1
  Na  Na10  1  0.66666136  0.33333628  0.36665961  1
  Na  Na11  1  0.33334063  0.66666218  0.63338884  1
  Na  Na12  1  0.33333719  0.66666299  0.86692779  1
  Na  Na13  1  0.66666519  0.33333146  0.13323883  1
  Na  Na14  1  0.66666424  0.33333359  0.48237815  1
  Na  Na15  1  0.33334348  0.66665760  0.51769535  1
  Na  Na16  1  0.33333661  0.66665452  0.98236079  1
  Na  Na17  1  0.66666124  0.33333082  0.01760001  1
  Sn  Sn0  1  0.66671558  0.33328464  0.79875500  1
  Sn  Sn1  1  0.33330113  0.66669752  0.20115640  1
  Sn  Sn2  1  0.33325723  0.66673968  0.29846141  1
  Sn  Sn3  1  0.66669715  0.33331067  0.70147414  1
  Sn  Sn4  1  -0.00000336  -0.00000710  0.94848877  1
  Sn  Sn5  1  0.00000948  0.00000437  0.05117788  1
  Sn  Sn6  1  0.00000235  -0.00000386  0.44874679  1
  Sn  Sn7  1  0.00000745  -0.00000799  0.55149414  1
loop_
_geom_bond_atom_site_label_1
_geom_bond_atom_site_label_2
_geom_bond_distance
_geom_bond_site_symmetry_2
Na0 Na12 3.362401 1_555
Na0 Na11 3.369195 1_555
Na0 Sn0 3.405724 1_565
Na0 Sn0 3.405753 1_455
Na0 Sn0 3.406363 1_555
Na0 Sn3 3.409640 1_455
Na0 Sn3 3.409659 1_565
Na0 Sn3 3.410040 1_555
Na1 Na13 3.358910 1_555
Na1 Na10 3.369279 1_555
Na1 Sn1 3.407438 1_545
Na1 Sn1 3.407455 1_655
Na1 Sn1 3.407712 1_555
Na1 Sn2 3.408183 1_655
Na1 Sn2 3.408189 1_545
Na1 Sn2 3.409048 1_555
Na2 Sn3 3.132942 1_555
Na2 Sn7 3.326158 1_555
Na2 Sn7 3.326160 1_665
Na2 Sn7 3.326567 1_655
Na3 Sn2 3.135663 1_555
Na3 Sn6 3.328360 1_665
Na3 Sn6 3.328368 1_555
Na3 Sn6 3.328698 1_565
Na4 Sn1 3.128438 1_555
Na4 Sn5 3.327753 1_555
Na4 Sn5 3.327835 1_665
Na4 Sn5 3.328092 1_565
Na5 Sn0 3.126742 1_555
Na5 Sn4 3.325846 1_665
Na5 Sn4 3.325888 1_555
Na5 Sn4 3.326187 1_655
Na6 Sn0 3.168654 1_555
Na6 Sn0 3.168661 1_445
Na6 Sn0 3.168886 1_455
Na7 Sn1 3.168228 1_445
Na7 Sn1 3.168229 1_555
Na7 Sn1 3.168557 1_545
Na8 Sn2 3.170151 1_445
Na8 Sn2 3.170165 1_555
Na8 Sn2 3.170417 1_545
Na9 Sn3 3.169089 1_555
Na9 Sn3 3.169174 1_445
Na9 Sn3 3.169873 1_455
Na10 Na3 3.318995 1_655
Na10 Na3 3.318998 1_545
Na10 Na3 3.319340 1_555
Na10 Na14 3.335505 1_555
Na10 Na8 3.379093 1_655
Na10 Na8 3.379488 1_665
Na10 Na8 3.379492 1_555
Na10 Sn2 3.675497 1_545
Na10 Sn2 3.675504 1_655
Na10 Sn2 3.676630 1_555
Na11 Na2 3.319169 1_565
Na11 Na2 3.319171 1_455
Na11 Na2 3.319557 1_555
Na11 Na15 3.334783 1_555
Na11 Na9 3.379646 1_565
Na11 Na9 3.379811 1_555
Na11 Na9 3.379900 1_665
Na11 Sn3 3.673952 1_455
Na11 Sn3 3.673962 1_565
Na11 Sn3 3.674499 1_555
Na12 Na5 3.316112 1_565
Na12 Na5 3.316128 1_455
Na12 Na5 3.316462 1_555
Na12 Na16 3.327275 1_555
Na12 Na6 3.381991 1_565
Na12 Na6 3.382094 1_555
Na12 Na6 3.382111 1_665
Na12 Sn0 3.675182 1_455
Na12 Sn0 3.675193 1_565
Na12 Sn0 3.676081 1_555
Na13 Na4 3.319294 1_545
Na13 Na4 3.319299 1_655
Na13 Na4 3.319654 1_555
Na13 Na17 3.333207 1_555
Na13 Na7 3.379929 1_655
Na13 Na7 3.379961 1_665
Na13 Na7 3.379964 1_555
Na13 Sn1 3.671310 1_655
Na13 Sn1 3.671313 1_545
Na13 Sn1 3.672049 1_555
Na14 Sn6 3.253701 1_555
Na14 Sn6 3.253710 1_665
Na14 Sn6 3.254155 1_655
Na15 Sn7 3.255151 1_665
Na15 Sn7 3.255165 1_555
Na15 Sn7 3.255573 1_565
Na16 Sn4 3.255784 1_665
Na16 Sn4 3.255786 1_555
Na16 Sn4 3.256217 1_565
Na17 Sn5 3.253214 1_555
Na17 Sn5 3.253306 1_665
Na17 Sn5 3.253668 1_655
Sn0 Sn3 2.804052 1_555
Sn1 Sn2 2.804748 1_555
