# generated using pymatgen
data_K6U5V2O23
_symmetry_space_group_name_H-M   'P 1'
_cell_length_a   24.86541935
_cell_length_b   6.95932068
_cell_length_c   7.15211724
_cell_angle_alpha   80.95928096
_cell_angle_beta   90.00000000
_cell_angle_gamma   90.00000000
_symmetry_Int_Tables_number   1
_chemical_formula_structural   K6U5V2O23
_chemical_formula_sum   'K12 U10 V4 O46'
_cell_volume   1222.27292556
_cell_formula_units_Z   2
loop_
 _symmetry_equiv_pos_site_id
 _symmetry_equiv_pos_as_xyz
  1  'x, y, z'
loop_
 _atom_site_type_symbol
 _atom_site_label
 _atom_site_symmetry_multiplicity
 _atom_site_fract_x
 _atom_site_fract_y
 _atom_site_fract_z
 _atom_site_occupancy
  K  K0  1  0.03834086  0.95278039  0.76559991  1
  K  K1  1  0.38707744  0.86925409  0.76961899  1
  K  K2  1  0.46165914  0.95278039  0.26559991  1
  K  K3  1  0.70169949  0.20560223  0.73241790  1
  K  K4  1  0.79830051  0.20560223  0.23241790  1
  K  K5  1  0.88707744  0.13074591  0.73038101  1
  K  K6  1  0.96165914  0.04721961  0.23440009  1
  K  K7  1  0.20169949  0.79439777  0.76758210  1
  K  K8  1  0.53834086  0.04721961  0.73440009  1
  K  K9  1  0.11292256  0.86925409  0.26961899  1
  K  K10  1  0.29830051  0.79439777  0.26758210  1
  K  K11  1  0.61292256  0.13074591  0.23038101  1
  U  U0  1  0.35759367  0.34636757  0.02834979  1
  U  U1  1  0.41843371  0.40929469  0.51417809  1
  U  U2  1  0.08156629  0.40929469  0.01417809  1
  U  U3  1  0.58156629  0.59070531  0.48582191  1
  U  U4  1  0.50000000  0.50000000  0.00000000  1
  U  U5  1  0.64240633  0.65363243  0.97165021  1
  U  U6  1  0.14240633  0.34636757  0.52834979  1
  U  U7  1  0.85759367  0.65363243  0.47165021  1
  U  U8  1  0.91843371  0.59070531  0.98582191  1
  U  U9  1  -0.00000000  0.50000000  0.50000000  1
  V  V0  1  0.79686731  0.78491535  0.95368590  1
  V  V1  1  0.29686731  0.21508465  0.54631410  1
  V  V2  1  0.70313269  0.78491535  0.45368590  1
  V  V3  1  0.20313269  0.21508465  0.04631410  1
  O  O0  1  0.97869497  0.23980146  0.52804930  1
  O  O1  1  0.26649897  0.30753148  0.03855523  1
  O  O2  1  0.39287147  0.66371046  0.46535777  1
  O  O3  1  0.60712853  0.33628954  0.53464223  1
  O  O4  1  0.05916962  0.15029063  0.05946834  1
  O  O5  1  0.42906556  0.43808238  0.82631840  1
  O  O6  1  0.87205416  0.91805827  0.43015192  1
  O  O7  1  0.92906556  0.56191762  0.67368160  1
  O  O8  1  0.07093444  0.43808238  0.32631840  1
  O  O9  1  0.37205416  0.08194173  0.06984808  1
  O  O10  1  0.06804819  0.40674415  0.69916654  1
  O  O11  1  0.44083038  0.15029063  0.55946834  1
  O  O12  1  0.33792701  0.29291654  0.71814029  1
  O  O13  1  0.02130503  0.76019854  0.47195070  1
  O  O14  1  0.16207299  0.29291654  0.21814029  1
  O  O15  1  0.43195181  0.40674415  0.19916654  1
  O  O16  1  0.66373810  0.68767883  0.64927265  1
  O  O17  1  0.93195181  0.59325585  0.30083346  1
  O  O18  1  0.29362069  0.97245675  0.57529442  1
  O  O19  1  0.76649897  0.69246852  0.46144477  1
  O  O20  1  0.66115234  0.39480658  0.00081885  1
  O  O21  1  0.10712853  0.66371046  0.96535777  1
  O  O22  1  0.56804819  0.59325585  0.80083346  1
  O  O23  1  0.83626190  0.68767883  0.14927265  1
  O  O24  1  0.79362069  0.02754325  0.92470558  1
  O  O25  1  0.70637931  0.02754325  0.42470558  1
  O  O26  1  0.52130503  0.23980146  0.02804930  1
  O  O27  1  0.66207299  0.70708346  0.28185971  1
  O  O28  1  0.47869497  0.76019854  0.97195070  1
  O  O29  1  0.55916962  0.84970937  0.44053166  1
  O  O30  1  0.12794584  0.08194173  0.56984808  1
  O  O31  1  0.94083038  0.84970937  0.94053166  1
  O  O32  1  0.83884766  0.39480658  0.50081885  1
  O  O33  1  0.33884766  0.60519342  0.99918115  1
  O  O34  1  0.62794584  0.91805827  0.93015192  1
  O  O35  1  0.16373810  0.31232117  0.85072735  1
  O  O36  1  0.16115234  0.60519342  0.49918115  1
  O  O37  1  0.33626190  0.31232117  0.35072735  1
  O  O38  1  0.20637931  0.97245675  0.07529442  1
  O  O39  1  0.57093444  0.56191762  0.17368160  1
  O  O40  1  0.73350103  0.69246852  0.96144477  1
  O  O41  1  0.89287147  0.33628954  0.03464223  1
  O  O42  1  0.83792701  0.70708346  0.78185971  1
  O  O43  1  -0.00000000  0.50000000  0.00000000  1
  O  O44  1  0.50000000  0.50000000  0.50000000  1
  O  O45  1  0.23350103  0.30753148  0.53855523  1
loop_
_geom_bond_atom_site_label_1
_geom_bond_atom_site_label_2
_geom_bond_distance
_geom_bond_site_symmetry_2
K0 O13 2.696514 1_555
K0 O30 2.708665 1_565
K0 O4 2.735507 1_566
K0 O31 2.770684 1_455
K0 O0 2.830117 1_465
K0 O21 2.847901 1_555
K1 O33 2.561787 1_555
K1 O11 2.635705 1_565
K1 O28 2.741300 1_555
K1 O18 2.744814 1_555
K1 O2 2.789383 1_555
K1 O9 2.817812 1_566
K2 O28 2.696514 1_554
K2 O9 2.708665 1_565
K2 O11 2.735507 1_565
K2 O29 2.770684 1_555
K2 O26 2.830117 1_565
K2 O2 2.847901 1_555
K3 O20 2.688804 1_556
K3 O25 2.692517 1_555
K3 O3 2.820194 1_555
K3 O24 2.848781 1_555
K3 O34 2.911753 1_545
K4 O32 2.688804 1_555
K4 O24 2.692517 1_554
K4 O41 2.820194 1_555
K4 O25 2.848781 1_555
K4 O6 2.911753 1_545
K5 O32 2.561787 1_555
K5 O31 2.635705 1_545
K5 O0 2.741300 1_555
K5 O24 2.744814 1_555
K5 O41 2.789383 1_556
K5 O6 2.817812 1_545
K6 O0 2.696514 1_555
K6 O6 2.708665 1_545
K6 O31 2.735507 1_544
K6 O4 2.770684 1_655
K6 O13 2.830117 1_645
K6 O41 2.847901 1_555
K7 O36 2.688804 1_555
K7 O38 2.692517 1_556
K7 O21 2.820194 1_555
K7 O18 2.848781 1_555
K7 O30 2.911753 1_565
K8 O26 2.696514 1_556
K8 O34 2.708665 1_545
K8 O29 2.735507 1_545
K8 O11 2.770684 1_555
K8 O28 2.830117 1_545
K8 O3 2.847901 1_555
K9 O36 2.561787 1_555
K9 O4 2.635705 1_565
K9 O13 2.741300 1_555
K9 O38 2.744814 1_555
K9 O21 2.789383 1_554
K9 O30 2.817812 1_565
K10 O33 2.688804 1_554
K10 O18 2.692517 1_555
K10 O2 2.820194 1_555
K10 O38 2.848781 1_555
K10 O9 2.911753 1_565
K11 O20 2.561787 1_555
K11 O29 2.635705 1_545
K11 O26 2.741300 1_555
K11 O25 2.744814 1_555
K11 O3 2.789383 1_555
K11 O34 2.817812 1_544
O0 U9 1.867013 1_655
O1 V3 1.699526 1_555
O1 U0 2.280984 1_555
O2 U1 1.861860 1_555
O3 U3 1.861860 1_555
O4 U2 1.865623 1_555
O5 U4 2.237851 1_556
O5 U1 2.287899 1_555
O5 U0 2.315987 1_556
O6 U7 1.852607 1_555
O7 U9 2.237851 1_655
O7 U8 2.287899 1_555
O7 U7 2.315987 1_555
O8 U9 2.237851 1_555
O8 U2 2.287899 1_555
O8 U6 2.315987 1_555
O9 U0 1.852607 1_555
O10 U9 2.241155 1_555
O10 U2 2.280762 1_556
O10 U6 2.291077 1_555
O11 U1 1.865623 1_555
O12 V1 1.747916 1_555
O12 U0 2.357819 1_556
O12 U1 2.533767 1_555
O13 U9 1.867013 1_555
O14 V3 1.747916 1_555
O14 U6 2.357819 1_555
O14 U2 2.533767 1_555
O15 U4 2.241155 1_555
O15 U1 2.280762 1_555
O15 U0 2.291077 1_555
O16 V2 1.754076 1_555
O16 U5 2.341361 1_555
O16 U3 2.498962 1_555
O17 U9 2.241155 1_655
O17 U8 2.280762 1_554
O17 U7 2.291077 1_555
O18 V1 1.670511 1_565
O19 V2 1.699526 1_555
O19 U7 2.280984 1_555
O20 U5 1.840437 1_554
O21 U2 1.861860 1_556
O22 U4 2.241155 1_556
O22 U3 2.280762 1_555
O22 U5 2.291077 1_555
O23 V0 1.754076 1_554
O23 U7 2.341361 1_555
O23 U8 2.498962 1_554
O24 V0 1.670511 1_545
O25 V2 1.670511 1_545
O26 U4 1.867013 1_555
O27 V2 1.747916 1_555
O27 U5 2.357819 1_554
O27 U3 2.533767 1_555
O28 U4 1.867013 1_556
O29 U3 1.865623 1_555
O30 U6 1.852607 1_555
O31 U8 1.865623 1_555
O32 U7 1.840437 1_555
O33 U0 1.840437 1_556
O34 U5 1.852607 1_555
O35 V3 1.754076 1_556
O35 U6 2.341361 1_555
O35 U2 2.498962 1_556
O36 U6 1.840437 1_555
O37 V1 1.754076 1_555
O37 U0 2.341361 1_555
O37 U1 2.498962 1_555
O38 V3 1.670511 1_565
O39 U4 2.237851 1_555
O39 U3 2.287899 1_555
O39 U5 2.315987 1_554
O40 V0 1.699526 1_555
O40 U5 2.280984 1_555
O41 U8 1.861860 1_554
O42 V0 1.747916 1_555
O42 U7 2.357819 1_555
O42 U8 2.533767 1_555
O43 U2 2.121828 1_555
O43 U8 2.121828 1_454
O44 U1 2.121828 1_555
O44 U3 2.121828 1_555
O45 V1 1.699526 1_555
O45 U6 2.280984 1_555
