# generated using pymatgen
data_TaSiAs
_symmetry_space_group_name_H-M   'P 1'
_cell_length_a   3.50537634
_cell_length_b   3.50537634
_cell_length_c   7.86649220
_cell_angle_alpha   90.00000000
_cell_angle_beta   90.00000000
_cell_angle_gamma   90.00000000
_symmetry_Int_Tables_number   1
_chemical_formula_structural   TaSiAs
_chemical_formula_sum   'Ta2 Si2 As2'
_cell_volume   96.66080739
_cell_formula_units_Z   2
loop_
 _symmetry_equiv_pos_site_id
 _symmetry_equiv_pos_as_xyz
  1  'x, y, z'
loop_
 _atom_site_type_symbol
 _atom_site_label
 _atom_site_symmetry_multiplicity
 _atom_site_fract_x
 _atom_site_fract_y
 _atom_site_fract_z
 _atom_site_occupancy
  Ta  Ta0  1  0.25000000  0.25000000  0.25497237  1
  Ta  Ta1  1  0.75000000  0.75000000  0.74502763  1
  Si  Si0  1  0.75000000  0.25000000  0.00000000  1
  Si  Si1  1  0.25000000  0.75000000  0.00000000  1
  As  As0  1  0.25000000  0.25000000  0.61184963  1
  As  As1  1  0.75000000  0.75000000  0.38815037  1
loop_
_geom_bond_atom_site_label_1
_geom_bond_atom_site_label_2
_geom_bond_distance
_geom_bond_site_symmetry_2
Si0 Si1 2.478675 1_645
Si0 Si1 2.478675 1_555
Si0 Si1 2.478675 1_545
Si0 Si1 2.478675 1_655
Si0 Ta1 2.663626 1_544
Si0 Ta0 2.663626 1_655
Si0 Ta0 2.663626 1_555
Si0 Ta1 2.663626 1_554
Si1 Ta1 2.663626 1_454
Si1 Ta0 2.663626 1_565
Si1 Ta0 2.663626 1_555
Si1 Ta1 2.663626 1_554
As0 Ta1 2.690983 1_545
As0 Ta1 2.690983 1_445
As0 Ta1 2.690983 1_555
As0 Ta1 2.690983 1_455
As0 Ta0 2.807372 1_555
As1 Ta0 2.690983 1_665
As1 Ta0 2.690983 1_655
As1 Ta0 2.690983 1_565
As1 Ta0 2.690983 1_555
As1 Ta1 2.807372 1_555
