# generated using pymatgen
data_Zn2P2O7
_symmetry_space_group_name_H-M   'P 1'
_cell_length_a   8.23893728
_cell_length_b   9.09138764
_cell_length_c   10.62686578
_cell_angle_alpha   99.09595809
_cell_angle_beta   112.80814418
_cell_angle_gamma   90.00000462
_symmetry_Int_Tables_number   1
_chemical_formula_structural   Zn2P2O7
_chemical_formula_sum   'Zn12 P12 O42'
_cell_volume   722.87733537
_cell_formula_units_Z   6
loop_
 _symmetry_equiv_pos_site_id
 _symmetry_equiv_pos_as_xyz
  1  'x, y, z'
loop_
 _atom_site_type_symbol
 _atom_site_label
 _atom_site_symmetry_multiplicity
 _atom_site_fract_x
 _atom_site_fract_y
 _atom_site_fract_z
 _atom_site_occupancy
  Zn  Zn0  1  0.70158271  0.03893537  0.02842871  1
  Zn  Zn1  1  0.67315400  0.46106463  0.97157129  1
  Zn  Zn2  1  0.29841729  0.96106463  0.97157129  1
  Zn  Zn3  1  0.32684600  0.53893537  0.02842871  1
  Zn  Zn4  1  0.98185496  0.16252371  0.32681925  1
  Zn  Zn5  1  0.65503570  0.33747629  0.67318075  1
  Zn  Zn6  1  0.01814504  0.83747729  0.67318075  1
  Zn  Zn7  1  0.34496430  0.66252271  0.32681925  1
  Zn  Zn8  1  0.37214582  0.20998591  0.36757589  1
  Zn  Zn9  1  0.00457193  0.29001409  0.63242411  1
  Zn  Zn10  1  0.62785418  0.79001409  0.63242411  1
  Zn  Zn11  1  0.99542807  0.70998591  0.36757589  1
  P  P0  1  0.04598042  0.86176541  0.13180502  1
  P  P1  1  0.91417640  0.63823459  0.86819498  1
  P  P2  1  0.95401958  0.13823459  0.86819498  1
  P  P3  1  0.08582360  0.36176541  0.13180502  1
  P  P4  1  0.59499669  0.81889458  0.20498824  1
  P  P5  1  0.39000846  0.68110542  0.79501176  1
  P  P6  1  0.40500331  0.18110542  0.79501176  1
  P  P7  1  0.60999154  0.31889458  0.20498824  1
  P  P8  1  0.71960836  0.03722665  0.47730800  1
  P  P9  1  0.24230235  0.46277335  0.52269200  1
  P  P10  1  0.28039064  0.96277335  0.52269200  1
  P  P11  1  0.75769765  0.53722665  0.47730800  1
  O  O0  1  0.91237903  0.75000000  0.00000000  1
  O  O1  1  0.08762097  0.25000000  -0.00000000  1
  O  O2  1  0.87005366  0.73191212  0.75335255  1
  O  O3  1  0.11670011  0.76808788  0.24664745  1
  O  O4  1  0.12994634  0.26808788  0.24664745  1
  O  O5  1  0.88329989  0.23191212  0.75335255  1
  O  O6  1  0.76122623  0.52419526  0.83435550  1
  O  O7  1  0.92687073  0.97580474  0.16564450  1
  O  O8  1  0.23877377  0.47580474  0.16564450  1
  O  O9  1  0.07312927  0.02419526  0.83435550  1
  O  O10  1  0.18887974  0.92788200  0.09987457  1
  O  O11  1  0.08900516  0.57211800  0.90012543  1
  O  O12  1  0.81112026  0.07211800  0.90012543  1
  O  O13  1  0.91099484  0.42788200  0.09987457  1
  O  O14  1  0.60525084  0.94734093  0.32909960  1
  O  O15  1  0.27615224  0.55265907  0.67090040  1
  O  O16  1  0.39474916  0.05265907  0.67090040  1
  O  O17  1  0.72384776  0.44734093  0.32909960  1
  O  O18  1  0.54683565  0.89993617  0.08117625  1
  O  O19  1  0.46565939  0.60006383  0.91882375  1
  O  O20  1  0.45316435  0.10006383  0.91882375  1
  O  O21  1  0.53434061  0.39993617  0.08117625  1
  O  O22  1  0.77890471  0.92765811  0.57815513  1
  O  O23  1  0.20074957  0.57234189  0.42184487  1
  O  O24  1  0.22109529  0.07234189  0.42184487  1
  O  O25  1  0.79925043  0.42765811  0.57815513  1
  O  O26  1  0.44244537  0.71258087  0.18862512  1
  O  O27  1  0.25381925  0.78741913  0.81137488  1
  O  O28  1  0.55755463  0.28741913  0.81137488  1
  O  O29  1  0.74618075  0.21258087  0.18862512  1
  O  O30  1  0.59402848  0.14486614  0.50832112  1
  O  O31  1  0.08570736  0.35513386  0.49167888  1
  O  O32  1  0.40597152  0.85513386  0.49167888  1
  O  O33  1  0.91429264  0.64486614  0.50832112  1
  O  O34  1  0.76399632  0.74461358  0.23757144  1
  O  O35  1  0.52642489  0.75538642  0.76242856  1
  O  O36  1  0.23600368  0.25538642  0.76242856  1
  O  O37  1  0.47357511  0.24461358  0.23757144  1
  O  O38  1  0.87708148  0.11701868  0.46913342  1
  O  O39  1  0.40794806  0.38298132  0.53086658  1
  O  O40  1  0.12291852  0.88298132  0.53086658  1
  O  O41  1  0.59205194  0.61701868  0.46913342  1
loop_
_geom_bond_atom_site_label_1
_geom_bond_atom_site_label_2
_geom_bond_distance
_geom_bond_site_symmetry_2
O0 P0 1.600204 1_655
O0 P1 1.600207 1_554
O1 P2 1.600204 1_454
O1 P3 1.600207 1_555
O2 P1 1.526942 1_555
O2 Zn10 2.034421 1_555
O2 Zn6 2.049411 1_655
O3 P0 1.526942 1_555
O3 Zn11 2.034427 1_455
O3 Zn7 2.049417 1_555
O4 P3 1.526942 1_555
O4 Zn8 2.034421 1_555
O4 Zn4 2.049406 1_455
O5 P2 1.526942 1_555
O5 Zn9 2.034427 1_655
O5 Zn5 2.049412 1_555
O6 P1 1.524132 1_555
O6 Zn1 2.016717 1_555
O6 Zn5 2.121231 1_555
O7 P0 1.524127 1_655
O7 Zn0 2.016717 1_565
O7 Zn4 2.121231 1_565
O8 P3 1.524132 1_555
O8 Zn3 2.016717 1_555
O8 Zn7 2.121225 1_555
O9 P2 1.524127 1_455
O9 Zn2 2.016717 1_545
O9 Zn6 2.121225 1_545
O10 P0 1.495590 1_555
O10 Zn2 1.961768 1_554
O11 P1 1.495583 1_455
O11 Zn3 1.961768 1_556
O12 P2 1.495590 1_555
O12 Zn0 1.961768 1_556
O13 P3 1.495583 1_655
O13 Zn1 1.961768 1_554
O14 P8 1.574382 1_565
O14 P4 1.592788 1_555
O15 P9 1.574384 1_555
O15 P5 1.592785 1_555
O16 P10 1.574384 1_545
O16 P6 1.592788 1_555
O17 P11 1.574384 1_555
O17 P7 1.592785 1_555
O18 P4 1.527478 1_555
O18 Zn2 2.052056 1_554
O18 Zn0 2.077179 1_565
O19 P5 1.527478 1_555
O19 Zn3 2.052056 1_556
O19 Zn1 2.077179 1_555
O20 P6 1.527478 1_555
O20 Zn0 2.052056 1_556
O20 Zn2 2.077179 1_545
O21 P7 1.527478 1_555
O21 Zn1 2.052056 1_554
O21 Zn3 2.077179 1_555
O22 P8 1.520224 1_565
O22 Zn10 2.057163 1_555
O22 Zn6 2.072607 1_655
O23 P9 1.520223 1_555
O23 Zn11 2.057175 1_455
O23 Zn7 2.072607 1_555
O24 P10 1.520223 1_545
O24 Zn8 2.057163 1_555
O24 Zn4 2.072611 1_455
O25 P11 1.520223 1_555
O25 Zn9 2.057175 1_655
O25 Zn5 2.072611 1_555
O26 P4 1.523664 1_555
O26 Zn7 2.033371 1_555
O26 Zn3 2.047111 1_555
O27 P5 1.523670 1_555
O27 Zn6 2.033365 1_555
O27 Zn2 2.047110 1_555
O28 P6 1.523664 1_555
O28 Zn5 2.033368 1_555
O28 Zn1 2.047111 1_555
O29 P7 1.523670 1_555
O29 Zn4 2.033362 1_555
O29 Zn0 2.047110 1_555
O30 P8 1.516293 1_555
O30 Zn8 2.022270 1_555
O30 Zn5 2.176140 1_555
O31 P9 1.516306 1_555
O31 Zn9 2.022259 1_555
O31 Zn4 2.176140 1_455
O32 P10 1.516300 1_555
O32 Zn10 2.022270 1_555
O32 Zn7 2.176146 1_555
O33 P11 1.516306 1_555
O33 Zn11 2.022259 1_555
O33 Zn6 2.176146 1_655
O34 P4 1.488224 1_555
O34 Zn11 1.933561 1_555
O35 P5 1.488224 1_555
O35 Zn10 1.933572 1_555
O36 P6 1.488224 1_555
O36 Zn9 1.933561 1_555
O37 P7 1.488224 1_555
O37 Zn8 1.933572 1_555
O38 P8 1.524586 1_555
O38 Zn9 2.076544 1_655
O38 Zn4 2.100829 1_555
O39 P9 1.524572 1_555
O39 Zn8 2.076541 1_555
O39 Zn5 2.100829 1_555
O40 P10 1.524579 1_555
O40 Zn11 2.076544 1_455
O40 Zn6 2.100826 1_555
O41 P11 1.524572 1_555
O41 Zn10 2.076541 1_555
O41 Zn7 2.100826 1_555
