# generated using pymatgen
data_Rb2CrCl4
_symmetry_space_group_name_H-M   'P 1'
_cell_length_a   5.02985381
_cell_length_b   5.02993614
_cell_length_c   8.70642810
_cell_angle_alpha   106.39765166
_cell_angle_beta   106.39573479
_cell_angle_gamma   89.96047483
_symmetry_Int_Tables_number   1
_chemical_formula_structural   Rb2CrCl4
_chemical_formula_sum   'Rb2 Cr1 Cl4'
_cell_volume   201.97068729
_cell_formula_units_Z   1
loop_
 _symmetry_equiv_pos_site_id
 _symmetry_equiv_pos_as_xyz
  1  'x, y, z'
loop_
 _atom_site_type_symbol
 _atom_site_label
 _atom_site_symmetry_multiplicity
 _atom_site_fract_x
 _atom_site_fract_y
 _atom_site_fract_z
 _atom_site_occupancy
  Rb  Rb0  1  0.63611992  0.63612405  0.28062592  1
  Rb  Rb1  1  0.36388008  0.36387595  0.71937408  1
  Cr  Cr0  1  -0.00000000  0.00000000  -0.00000000  1
  Cl  Cl0  1  0.50000000  0.00000000  -0.00000000  1
  Cl  Cl1  1  0.85055312  0.85053847  0.69352352  1
  Cl  Cl2  1  -0.00000000  0.50000000  -0.00000000  1
  Cl  Cl3  1  0.14944688  0.14946153  0.30647648  1
loop_
_geom_bond_atom_site_label_1
_geom_bond_atom_site_label_2
_geom_bond_distance
_geom_bond_site_symmetry_2
Cl0 Cr0 2.514927 1_655
Cl0 Cr0 2.514927 1_555
Cl0 Rb1 3.364654 1_544
Cl0 Rb0 3.364654 1_555
Cl0 Rb1 3.371475 1_554
Cl0 Rb0 3.371475 1_545
Cl1 Cr0 2.446627 1_666
Cl1 Rb0 3.297456 1_555
Cl1 Rb1 3.558837 1_555
Cl1 Rb1 3.561400 1_655
Cl1 Rb1 3.561466 1_565
Cl1 Rb1 3.568922 1_665
Cl2 Cr0 2.514968 1_555
Cl2 Cr0 2.514968 1_565
Cl2 Rb1 3.364658 1_454
Cl2 Rb0 3.364658 1_555
Cl2 Rb0 3.371409 1_455
Cl2 Rb1 3.371409 1_554
Cl3 Cr0 2.446627 1_555
Cl3 Rb1 3.297456 1_555
Cl3 Rb0 3.558837 1_555
Cl3 Rb0 3.561400 1_455
Cl3 Rb0 3.561466 1_545
Cl3 Rb0 3.568922 1_445
