# generated using pymatgen
data_Sr8Co8O23
_symmetry_space_group_name_H-M   'P 1'
_cell_length_a   8.68824547
_cell_length_b   8.68824547
_cell_length_c   8.68824547
_cell_angle_alpha   101.46203452
_cell_angle_beta   101.46203452
_cell_angle_gamma   127.05367026
_symmetry_Int_Tables_number   1
_chemical_formula_structural   Sr8Co8O23
_chemical_formula_sum   'Sr8 Co8 O23'
_cell_volume   468.52260313
_cell_formula_units_Z   1
loop_
 _symmetry_equiv_pos_site_id
 _symmetry_equiv_pos_as_xyz
  1  'x, y, z'
loop_
 _atom_site_type_symbol
 _atom_site_label
 _atom_site_symmetry_multiplicity
 _atom_site_fract_x
 _atom_site_fract_y
 _atom_site_fract_z
 _atom_site_occupancy
  Sr  Sr0  1  0.25877200  0.00000000  0.25877200  1
  Sr  Sr1  1  0.74500300  0.50000000  0.24500300  1
  Sr  Sr2  1  0.00000000  0.74122800  0.74122800  1
  Sr  Sr3  1  0.25499700  0.50000000  0.75499700  1
  Sr  Sr4  1  0.50000000  0.25499700  0.75499700  1
  Sr  Sr5  1  0.74122800  0.00000000  0.74122800  1
  Sr  Sr6  1  0.00000000  0.25877200  0.25877200  1
  Sr  Sr7  1  0.50000000  0.74500300  0.24500300  1
  Co  Co0  1  0.50000000  0.00000000  0.00000000  1
  Co  Co1  1  0.00000000  0.50000000  0.00000000  1
  Co  Co2  1  0.25000000  0.75000000  0.50000000  1
  Co  Co3  1  0.75940800  0.75940800  0.00000000  1
  Co  Co4  1  0.50000000  0.50000000  0.50000000  1
  Co  Co5  1  0.24059200  0.24059200  0.00000000  1
  Co  Co6  1  0.00000000  0.00000000  0.50000000  1
  Co  Co7  1  0.75000000  0.25000000  0.50000000  1
  O  O0  1  0.88020000  0.38020000  0.76039900  1
  O  O1  1  0.10146900  0.10146900  0.76685400  1
  O  O2  1  0.88020000  0.11980000  0.50000000  1
  O  O3  1  0.38020000  0.61980000  0.50000000  1
  O  O4  1  0.66538500  0.66538500  0.76685400  1
  O  O5  1  0.26632800  0.26632800  0.53265600  1
  O  O6  1  0.26632800  0.73367200  0.00000000  1
  O  O7  1  0.00000000  0.50000000  0.50000000  1
  O  O8  1  0.66538500  0.89853100  0.00000000  1
  O  O9  1  0.61980000  0.38020000  0.50000000  1
  O  O10  1  0.38020000  0.88020000  0.76039900  1
  O  O11  1  0.61980000  0.11980000  0.23960100  1
  O  O12  1  0.89853100  0.89853100  0.23314600  1
  O  O13  1  0.50000000  0.00000000  0.50000000  1
  O  O14  1  0.11980000  0.88020000  0.50000000  1
  O  O15  1  0.33461500  0.33461500  0.23314600  1
  O  O16  1  0.33461500  0.10146900  0.00000000  1
  O  O17  1  0.89853100  0.66538500  0.00000000  1
  O  O18  1  0.11980000  0.61980000  0.23960100  1
  O  O19  1  0.73367200  0.26632800  0.00000000  1
  O  O20  1  0.73367200  0.73367200  0.46734400  1
  O  O21  1  0.50000000  0.50000000  0.00000000  1
  O  O22  1  0.10146900  0.33461500  0.00000000  1
loop_
_geom_bond_atom_site_label_1
_geom_bond_atom_site_label_2
_geom_bond_distance
_geom_bond_site_symmetry_2
Co0 O10 1.863431 1_544
Co0 O11 1.863431 1_555
Co0 O19 1.953100 1_555
Co0 O6 1.953100 1_545
Co0 O16 2.090095 1_555
Co0 O8 2.090095 1_545
Co1 O0 1.863431 1_454
Co1 O18 1.863431 1_555
Co1 O6 1.953100 1_555
Co1 O19 1.953100 1_455
Co1 O22 2.090095 1_555
Co1 O17 2.090095 1_455
Co2 O13 1.936517 1_565
Co2 O7 1.936517 1_555
Co2 O18 2.025181 1_555
Co2 O10 2.025181 1_555
Co2 O14 2.025189 1_555
Co2 O3 2.025189 1_555
Co3 O17 1.821623 1_555
Co3 O4 1.821623 1_554
Co3 O8 1.821623 1_555
Co3 O12 1.821623 1_555
Co3 O21 2.009392 1_555
Co4 O9 1.863423 1_555
Co4 O3 1.863423 1_555
Co4 O5 1.953100 1_555
Co4 O20 1.953100 1_555
Co4 O4 2.090095 1_555
Co4 O15 2.090095 1_555
Co5 O22 1.821623 1_555
Co5 O16 1.821623 1_555
Co5 O1 1.821623 1_554
Co5 O15 1.821623 1_555
Co5 O21 2.009392 1_555
Co6 O2 1.863423 1_455
Co6 O14 1.863423 1_545
Co6 O5 1.953100 1_555
Co6 O20 1.953100 1_445
Co6 O12 2.090095 1_445
Co6 O1 2.090095 1_555
Co7 O7 1.936517 1_655
Co7 O13 1.936517 1_555
Co7 O11 2.025181 1_555
Co7 O0 2.025181 1_555
Co7 O9 2.025189 1_555
Co7 O2 2.025189 1_555
O0 Sr2 2.700371 1_655
O0 Sr5 2.700377 1_555
O0 Sr3 2.772148 1_655
O0 Sr4 2.772154 1_555
O1 Sr5 2.634882 1_455
O1 Sr2 2.634882 1_545
O1 Sr3 2.899890 1_555
O1 Sr4 2.899890 1_555
O2 Sr6 2.700375 1_655
O2 Sr5 2.700375 1_555
O2 Sr3 2.772151 1_655
O2 Sr7 2.772151 1_545
O3 Sr5 2.700375 1_565
O3 Sr6 2.700375 1_555
O3 Sr7 2.772151 1_555
O3 Sr3 2.772151 1_555
O4 Sr2 2.634882 1_655
O4 Sr5 2.634882 1_565
O4 Sr3 2.899890 1_555
O4 Sr4 2.899890 1_555
O5 Sr3 2.573098 1_555
O5 Sr4 2.573098 1_555
O5 Sr6 2.930429 1_555
O5 Sr0 2.930429 1_555
O6 Sr3 2.573098 1_554
O6 Sr7 2.573098 1_555
O6 Sr0 2.930429 1_565
O6 Sr2 2.930429 1_554
O7 Sr2 2.653184 1_555
O7 Sr6 2.653184 1_555
O7 Sr3 2.804624 1_555
O7 Sr1 2.804624 1_455
O8 Sr5 2.634882 1_564
O8 Sr6 2.634882 1_665
O8 Sr7 2.899890 1_555
O8 Sr3 2.899890 1_554
O9 Sr2 2.700375 1_655
O9 Sr0 2.700375 1_555
O9 Sr1 2.772151 1_555
O9 Sr4 2.772151 1_555
O10 Sr5 2.700371 1_565
O10 Sr2 2.700377 1_555
O10 Sr4 2.772148 1_565
O10 Sr3 2.772154 1_555
O11 Sr0 2.700371 1_555
O11 Sr6 2.700377 1_655
O11 Sr7 2.772148 1_545
O11 Sr1 2.772154 1_555
O12 Sr0 2.634882 1_665
O12 Sr6 2.634882 1_665
O12 Sr7 2.899890 1_555
O12 Sr1 2.899890 1_555
O13 Sr5 2.653184 1_555
O13 Sr0 2.653184 1_555
O13 Sr4 2.804624 1_555
O13 Sr7 2.804624 1_545
O14 Sr0 2.700375 1_565
O14 Sr2 2.700375 1_555
O14 Sr1 2.772151 1_455
O14 Sr4 2.772151 1_565
O15 Sr0 2.634882 1_555
O15 Sr6 2.634882 1_555
O15 Sr7 2.899890 1_555
O15 Sr1 2.899890 1_555
O16 Sr0 2.634882 1_555
O16 Sr2 2.634882 1_544
O16 Sr4 2.899890 1_554
O16 Sr1 2.899890 1_555
O17 Sr0 2.634882 1_665
O17 Sr2 2.634882 1_654
O17 Sr4 2.899890 1_554
O17 Sr1 2.899890 1_555
O18 Sr6 2.700371 1_555
O18 Sr0 2.700377 1_565
O18 Sr1 2.772148 1_455
O18 Sr7 2.772154 1_555
O19 Sr4 2.573098 1_554
O19 Sr1 2.573098 1_555
O19 Sr6 2.930429 1_655
O19 Sr5 2.930429 1_554
O20 Sr1 2.573098 1_555
O20 Sr7 2.573098 1_555
O20 Sr2 2.930429 1_655
O20 Sr5 2.930429 1_565
O21 Sr1 2.694704 1_555
O21 Sr7 2.694704 1_555
O21 Sr3 2.694704 1_554
O21 Sr4 2.694704 1_554
O22 Sr5 2.634882 1_454
O22 Sr6 2.634882 1_555
O22 Sr3 2.899890 1_554
O22 Sr7 2.899890 1_555
