# generated using pymatgen
data_Na4CaSn6
_symmetry_space_group_name_H-M   'P 1'
_cell_length_a   10.14501550
_cell_length_b   10.14501550
_cell_length_c   7.23202400
_cell_angle_alpha   90.00000000
_cell_angle_beta   90.00000000
_cell_angle_gamma   119.99999674
_symmetry_Int_Tables_number   1
_chemical_formula_structural   Na4CaSn6
_chemical_formula_sum   'Na8 Ca2 Sn12'
_cell_volume   644.60836123
_cell_formula_units_Z   2
loop_
 _symmetry_equiv_pos_site_id
 _symmetry_equiv_pos_as_xyz
  1  'x, y, z'
loop_
 _atom_site_type_symbol
 _atom_site_label
 _atom_site_symmetry_multiplicity
 _atom_site_fract_x
 _atom_site_fract_y
 _atom_site_fract_z
 _atom_site_occupancy
  Na  Na0  1  0.54064600  0.45935400  0.75000000  1
  Na  Na1  1  0.54064600  0.08129200  0.75000000  1
  Na  Na2  1  0.45935400  0.54064600  0.25000000  1
  Na  Na3  1  0.08129200  0.54064600  0.25000000  1
  Na  Na4  1  0.66666700  0.33333300  0.25000000  1
  Na  Na5  1  0.91870800  0.45935400  0.75000000  1
  Na  Na6  1  0.33333300  0.66666700  0.75000000  1
  Na  Na7  1  0.45935400  0.91870800  0.25000000  1
  Ca  Ca0  1  0.00000000  0.00000000  0.75000000  1
  Ca  Ca1  1  0.00000000  0.00000000  0.25000000  1
  Sn  Sn0  1  0.83117800  0.16882200  0.46120900  1
  Sn  Sn1  1  0.83117800  0.16882200  0.03879100  1
  Sn  Sn2  1  0.83117800  0.66235600  0.46120900  1
  Sn  Sn3  1  0.66235600  0.83117800  0.96120900  1
  Sn  Sn4  1  0.16882200  0.83117800  0.53879100  1
  Sn  Sn5  1  0.16882200  0.33764400  0.53879100  1
  Sn  Sn6  1  0.16882200  0.33764400  0.96120900  1
  Sn  Sn7  1  0.83117800  0.66235600  0.03879100  1
  Sn  Sn8  1  0.16882200  0.83117800  0.96120900  1
  Sn  Sn9  1  0.33764400  0.16882200  0.03879100  1
  Sn  Sn10  1  0.66235600  0.83117800  0.53879100  1
  Sn  Sn11  1  0.33764400  0.16882200  0.46120900  1
loop_
_geom_bond_atom_site_label_1
_geom_bond_atom_site_label_2
_geom_bond_distance
_geom_bond_site_symmetry_2
Na0 Sn7 3.349731 1_556
Na0 Sn9 3.349731 1_556
Na0 Sn2 3.349731 1_555
Na0 Sn11 3.349731 1_555
Na0 Sn5 3.664599 1_555
Na0 Sn6 3.664599 1_555
Na0 Sn3 3.664599 1_555
Na0 Sn10 3.664599 1_555
Na1 Sn11 3.349731 1_555
Na1 Sn9 3.349731 1_556
Na1 Sn1 3.349731 1_556
Na1 Sn0 3.349731 1_555
Na1 Sn10 3.664599 1_545
Na1 Sn3 3.664599 1_545
Na1 Sn4 3.664599 1_545
Na1 Sn8 3.664599 1_545
Na2 Sn6 3.349731 1_554
Na2 Sn10 3.349731 1_555
Na2 Sn3 3.349731 1_554
Na2 Sn5 3.349731 1_555
Na2 Sn11 3.664599 1_555
Na2 Sn9 3.664599 1_555
Na2 Sn7 3.664599 1_555
Na2 Sn2 3.664599 1_555
Na3 Sn6 3.349731 1_554
Na3 Sn5 3.349731 1_555
Na3 Sn8 3.349731 1_554
Na3 Sn4 3.349731 1_555
Na3 Sn2 3.664599 1_455
Na3 Sn7 3.664599 1_455
Na3 Sn1 3.664599 1_455
Na3 Sn0 3.664599 1_455
Na4 Sn0 3.269481 1_555
Na4 Sn1 3.269481 1_555
Na4 Sn9 3.269489 1_555
Na4 Sn7 3.269489 1_555
Na4 Sn11 3.269489 1_555
Na4 Sn2 3.269489 1_555
Na5 Sn2 3.349731 1_555
Na5 Sn7 3.349731 1_556
Na5 Sn1 3.349731 1_556
Na5 Sn0 3.349731 1_555
Na5 Sn6 3.664599 1_655
Na5 Sn5 3.664599 1_655
Na5 Sn8 3.664599 1_655
Na5 Sn4 3.664599 1_655
Na6 Sn4 3.269481 1_555
Na6 Sn8 3.269481 1_555
Na6 Sn6 3.269489 1_555
Na6 Sn3 3.269489 1_555
Na6 Sn5 3.269489 1_555
Na6 Sn10 3.269489 1_555
Na7 Sn3 3.349731 1_554
Na7 Sn10 3.349731 1_555
Na7 Sn8 3.349731 1_554
Na7 Sn4 3.349731 1_555
Na7 Sn9 3.664599 1_565
Na7 Sn11 3.664599 1_565
Na7 Sn0 3.664599 1_565
Na7 Sn1 3.664599 1_565
Ca0 Sn4 3.336645 1_545
Ca0 Sn8 3.336645 1_545
Ca0 Sn6 3.336646 1_555
Ca0 Sn5 3.336646 1_555
Ca0 Sn3 3.336646 1_445
Ca0 Sn10 3.336646 1_445
Ca0 Sn1 3.627955 1_456
Ca0 Sn0 3.627955 1_455
Ca0 Sn9 3.627955 1_556
Ca0 Sn11 3.627955 1_555
Ca0 Sn7 3.627955 1_446
Ca0 Sn2 3.627955 1_445
Ca1 Sn1 3.336645 1_455
Ca1 Sn0 3.336645 1_455
Ca1 Sn7 3.336646 1_445
Ca1 Sn11 3.336646 1_555
Ca1 Sn9 3.336646 1_555
Ca1 Sn2 3.336646 1_445
Ca1 Sn4 3.627955 1_545
Ca1 Sn8 3.627955 1_544
Ca1 Sn6 3.627955 1_554
Ca1 Sn5 3.627955 1_555
Ca1 Sn10 3.627955 1_445
Ca1 Sn3 3.627955 1_444
Sn0 Sn10 3.019081 1_545
Sn0 Sn5 3.019081 1_655
Sn0 Sn1 3.054937 1_555
Sn1 Sn3 3.019081 1_544
Sn1 Sn6 3.019081 1_654
Sn2 Sn4 3.019081 1_655
Sn2 Sn7 3.054937 1_555
Sn3 Sn7 3.019081 1_556
Sn4 Sn8 3.054937 1_555
Sn5 Sn6 3.054937 1_555
Sn6 Sn9 3.019081 1_556
Sn7 Sn8 3.019081 1_654
Sn8 Sn9 3.019081 1_566
Sn10 Sn2 3.019081 1_555
Sn10 Sn3 3.054937 1_555
Sn11 Sn5 3.019081 1_555
Sn11 Sn4 3.019081 1_545
Sn11 Sn9 3.054937 1_555
