# generated using pymatgen
data_Er5NiPb3
_symmetry_space_group_name_H-M   'P 1'
_cell_length_a   9.01366012
_cell_length_b   9.01365480
_cell_length_c   6.63547649
_cell_angle_alpha   90.00000000
_cell_angle_beta   90.00000000
_cell_angle_gamma   119.99998149
_symmetry_Int_Tables_number   1
_chemical_formula_structural   Er5NiPb3
_chemical_formula_sum   'Er10 Ni2 Pb6'
_cell_volume   466.87963129
_cell_formula_units_Z   2
loop_
 _symmetry_equiv_pos_site_id
 _symmetry_equiv_pos_as_xyz
  1  'x, y, z'
loop_
 _atom_site_type_symbol
 _atom_site_label
 _atom_site_symmetry_multiplicity
 _atom_site_fract_x
 _atom_site_fract_y
 _atom_site_fract_z
 _atom_site_occupancy
  Er  Er0  1  0.00000000  0.76374056  0.75000000  1
  Er  Er1  1  0.23625844  0.00000000  0.25000000  1
  Er  Er2  1  0.76374156  -0.00000000  0.75000000  1
  Er  Er3  1  0.33333300  0.66666700  0.50000000  1
  Er  Er4  1  -0.00000000  0.23625944  0.25000000  1
  Er  Er5  1  0.66666700  0.33333300  0.50000000  1
  Er  Er6  1  0.76374156  0.76374156  0.25000000  1
  Er  Er7  1  0.23625844  0.23625844  0.75000000  1
  Er  Er8  1  0.33333300  0.66666700  0.00000000  1
  Er  Er9  1  0.66666700  0.33333300  0.00000000  1
  Ni  Ni0  1  0.00000000  0.00000000  0.00000000  1
  Ni  Ni1  1  0.00000000  0.00000000  0.50000000  1
  Pb  Pb0  1  0.40009130  0.40009130  0.25000000  1
  Pb  Pb1  1  0.00000000  0.40009230  0.75000000  1
  Pb  Pb2  1  -0.00000000  0.59990770  0.25000000  1
  Pb  Pb3  1  0.59990870  0.00000000  0.25000000  1
  Pb  Pb4  1  0.40009130  -0.00000000  0.75000000  1
  Pb  Pb5  1  0.59990870  0.59990870  0.75000000  1
loop_
_geom_bond_atom_site_label_1
_geom_bond_atom_site_label_2
_geom_bond_distance
_geom_bond_site_symmetry_2
Er0 Ni0 2.699422 1_566
Er0 Ni1 2.699422 1_565
Er0 Pb4 3.140148 1_565
Er0 Pb5 3.140148 1_455
Er0 Pb1 3.277800 1_555
Er0 Pb2 3.631546 1_555
Er0 Pb2 3.631546 1_556
Er1 Ni0 2.699415 1_555
Er1 Ni1 2.699415 1_555
Er1 Pb0 3.140145 1_555
Er1 Pb2 3.140153 1_545
Er1 Pb3 3.277820 1_555
Er1 Pb4 3.631546 1_554
Er1 Pb4 3.631546 1_555
Er2 Ni0 2.699415 1_656
Er2 Ni1 2.699415 1_655
Er2 Pb5 3.140145 1_545
Er2 Pb1 3.140153 1_655
Er2 Pb4 3.277820 1_555
Er2 Pb3 3.631546 1_555
Er2 Pb3 3.631546 1_556
Er3 Pb2 3.214544 1_555
Er3 Pb4 3.214545 1_565
Er3 Pb1 3.214547 1_555
Er3 Pb3 3.214549 1_565
Er3 Pb0 3.214553 1_555
Er3 Pb5 3.214554 1_555
Er3 Er8 3.317738 1_555
Er3 Er8 3.317738 1_556
Er4 Ni0 2.699422 1_555
Er4 Ni1 2.699422 1_555
Er4 Pb3 3.140148 1_455
Er4 Pb0 3.140148 1_555
Er4 Pb2 3.277800 1_555
Er4 Pb1 3.631546 1_555
Er4 Pb1 3.631546 1_554
Er5 Pb1 3.214544 1_655
Er5 Pb3 3.214545 1_555
Er5 Pb2 3.214547 1_655
Er5 Pb4 3.214549 1_555
Er5 Pb5 3.214553 1_555
Er5 Pb0 3.214554 1_555
Er5 Er9 3.317738 1_556
Er5 Er9 3.317738 1_555
Er6 Ni0 2.699415 1_665
Er6 Ni1 2.699415 1_665
Er6 Pb3 3.140146 1_565
Er6 Pb2 3.140153 1_655
Er6 Pb0 3.277820 1_555
Er6 Pb5 3.631546 1_555
Er6 Pb5 3.631546 1_554
Er7 Ni0 2.699415 1_556
Er7 Ni1 2.699415 1_555
Er7 Pb4 3.140146 1_555
Er7 Pb1 3.140153 1_555
Er7 Pb5 3.277820 1_555
Er7 Pb0 3.631546 1_555
Er7 Pb0 3.631546 1_556
Er8 Pb2 3.214544 1_555
Er8 Pb4 3.214545 1_564
Er8 Pb1 3.214547 1_554
Er8 Pb3 3.214549 1_565
Er8 Pb0 3.214553 1_555
Er8 Pb5 3.214554 1_554
Er9 Pb1 3.214544 1_654
Er9 Pb3 3.214545 1_555
Er9 Pb2 3.214547 1_655
Er9 Pb4 3.214549 1_554
Er9 Pb5 3.214553 1_554
Er9 Pb0 3.214554 1_555
