# generated using pymatgen
data_PrB2ClO4
_symmetry_space_group_name_H-M   'P 1'
_cell_length_a   4.21796945
_cell_length_b   6.56562422
_cell_length_c   8.09624898
_cell_angle_alpha   97.78700008
_cell_angle_beta   88.97928959
_cell_angle_gamma   107.89470469
_symmetry_Int_Tables_number   1
_chemical_formula_structural   PrB2ClO4
_chemical_formula_sum   'Pr2 B4 Cl2 O8'
_cell_volume   211.33243128
_cell_formula_units_Z   2
loop_
 _symmetry_equiv_pos_site_id
 _symmetry_equiv_pos_as_xyz
  1  'x, y, z'
loop_
 _atom_site_type_symbol
 _atom_site_label
 _atom_site_symmetry_multiplicity
 _atom_site_fract_x
 _atom_site_fract_y
 _atom_site_fract_z
 _atom_site_occupancy
  Pr  Pr0  1  0.78975981  0.03221640  0.77832536  1
  Pr  Pr1  1  0.21024019  0.96778360  0.22167464  1
  B  B0  1  0.16976784  0.65167833  0.85313206  1
  B  B1  1  0.56661917  0.43752167  0.80580468  1
  B  B2  1  0.43338083  0.56247833  0.19419532  1
  B  B3  1  0.83023216  0.34832167  0.14686794  1
  Cl  Cl0  1  0.14572932  0.79700557  0.54221045  1
  Cl  Cl1  1  0.85427068  0.20299443  0.45778955  1
  O  O0  1  0.63158292  0.76429124  0.20951801  1
  O  O1  1  0.09480933  0.53589948  0.17597593  1
  O  O2  1  0.83655865  0.15181444  0.07913118  1
  O  O3  1  0.36841708  0.23570876  0.79048199  1
  O  O4  1  0.90519067  0.46410052  0.82402407  1
  O  O5  1  0.16344135  0.84818556  0.92086882  1
  O  O6  1  0.48331632  0.62795629  0.81701670  1
  O  O7  1  0.51668368  0.37204371  0.18298330  1
loop_
_geom_bond_atom_site_label_1
_geom_bond_atom_site_label_2
_geom_bond_distance
_geom_bond_site_symmetry_2
B0 O5 1.339764 1_555
B0 O4 1.379783 1_455
B0 O6 1.399760 1_555
B1 O3 1.322274 1_555
B1 O6 1.390358 1_555
B1 O4 1.392486 1_555
B2 O0 1.322274 1_555
B2 O7 1.390358 1_555
B2 O1 1.392486 1_555
B3 O2 1.339764 1_555
B3 O1 1.379783 1_655
B3 O7 1.399760 1_555
Cl0 Pr1 2.939706 1_555
Cl0 Pr0 2.969238 1_465
Cl0 Pr0 3.197753 1_565
Cl1 Pr0 2.939706 1_555
Cl1 Pr1 2.969238 1_645
Cl1 Pr1 3.197753 1_545
O0 Pr1 2.391853 1_655
O0 Pr1 2.523991 1_555
O1 Pr1 2.699667 1_555
O2 Pr0 2.447526 1_554
O2 Pr1 2.624724 1_645
O2 Pr1 2.842270 1_545
O3 Pr0 2.391853 1_455
O3 Pr0 2.523991 1_555
O4 Pr0 2.699667 1_555
O5 Pr1 2.447526 1_556
O5 Pr0 2.624724 1_465
O5 Pr0 2.842270 1_565
O6 Pr0 2.629885 1_565
O7 Pr1 2.629885 1_545
