# generated using pymatgen
data_Ho3Ge5
_symmetry_space_group_name_H-M   'P 1'
_cell_length_a   5.71661827
_cell_length_b   7.40370637
_cell_length_c   9.05135161
_cell_angle_alpha   83.08257267
_cell_angle_beta   71.83667527
_cell_angle_gamma   67.27614601
_symmetry_Int_Tables_number   1
_chemical_formula_structural   Ho3Ge5
_chemical_formula_sum   'Ho6 Ge10'
_cell_volume   335.74733351
_cell_formula_units_Z   2
loop_
 _symmetry_equiv_pos_site_id
 _symmetry_equiv_pos_as_xyz
  1  'x, y, z'
loop_
 _atom_site_type_symbol
 _atom_site_label
 _atom_site_symmetry_multiplicity
 _atom_site_fract_x
 _atom_site_fract_y
 _atom_site_fract_z
 _atom_site_occupancy
  Ho  Ho0  1  0.00197702  0.99591710  0.00003001  1
  Ho  Ho1  1  0.25213884  0.49578435  0.50004275  1
  Ho  Ho2  1  0.57916409  0.48127405  0.83515056  1
  Ho  Ho3  1  0.93937210  0.48110873  0.16490871  1
  Ho  Ho4  1  0.35442407  0.98133418  0.33527385  1
  Ho  Ho5  1  0.66408693  0.98134716  0.66478416  1
  Ge  Ge0  1  0.44846741  0.10276988  1.00007017  1
  Ge  Ge1  1  0.69757140  0.60463422  0.49998471  1
  Ge  Ge2  1  0.91173032  0.68678792  0.87048853  1
  Ge  Ge3  1  0.40177077  0.68730951  0.12920775  1
  Ge  Ge4  1  0.78081086  0.18601071  0.37014290  1
  Ge  Ge5  1  0.03291844  0.18595388  0.63000831  1
  Ge  Ge6  1  0.17717387  0.32321001  0.82585251  1
  Ge  Ge7  1  0.49961215  0.32341541  0.17394695  1
  Ge  Ge8  1  0.92506561  0.82217480  0.32580134  1
  Ge  Ge9  1  0.25311510  0.82216710  0.67430279  1
loop_
_geom_bond_atom_site_label_1
_geom_bond_atom_site_label_2
_geom_bond_distance
_geom_bond_site_symmetry_2
Ge0 Ge6 2.550450 1_555
Ge0 Ge7 2.550725 1_556
Ge0 Ho0 2.949803 1_546
Ge0 Ho0 2.950160 1_646
Ge0 Ho4 3.000369 1_546
Ge0 Ho5 3.001060 1_545
Ge0 Ho3 3.247088 1_456
Ge0 Ho2 3.248724 1_555
Ge1 Ge9 2.547600 1_555
Ge1 Ge8 2.549369 1_555
Ge1 Ho1 2.952614 1_555
Ge1 Ho1 2.954156 1_655
Ge1 Ho3 3.003877 1_555
Ge1 Ho2 3.004273 1_555
Ge1 Ho4 3.231727 1_555
Ge1 Ho5 3.232996 1_555
Ge2 Ge6 2.536882 1_655
Ge2 Ge9 2.624582 1_655
Ge2 Ho5 2.916656 1_555
Ge2 Ho3 2.923129 1_556
Ge2 Ho2 2.960248 1_555
Ge2 Ho0 2.968990 1_656
Ge2 Ho2 3.441861 1_655
Ge3 Ge7 2.539598 1_555
Ge3 Ge8 2.625316 1_455
Ge3 Ho4 2.915304 1_555
Ge3 Ho2 2.922258 1_554
Ge3 Ho3 2.958978 1_555
Ge3 Ho0 2.966331 1_555
Ge3 Ho3 3.448010 1_455
Ge4 Ge8 2.536771 1_545
Ge4 Ge7 2.617969 1_555
Ge4 Ho3 2.923782 1_555
Ge4 Ho5 2.924369 1_545
Ge4 Ho4 2.963036 1_645
Ge4 Ho1 2.975795 1_555
Ge4 Ho4 3.433045 1_545
Ge5 Ge9 2.536675 1_545
Ge5 Ge6 2.616822 1_555
Ge5 Ho2 2.924084 1_455
Ge5 Ho4 2.924960 1_545
Ge5 Ho5 2.962851 1_445
Ge5 Ho1 2.977940 1_555
Ge5 Ho5 3.432643 1_545
Ge6 Ho2 2.979849 1_555
Ge6 Ho5 3.032391 1_545
Ge6 Ho1 3.039795 1_555
Ge6 Ho0 3.054621 1_546
Ge6 Ho3 3.109389 1_456
Ge6 Ho2 3.133194 1_455
Ge7 Ho3 2.979675 1_455
Ge7 Ho4 3.035315 1_545
Ge7 Ho1 3.041573 1_555
Ge7 Ho0 3.053819 1_645
Ge7 Ho2 3.107162 1_554
Ge7 Ho3 3.131457 1_555
Ge8 Ho4 2.986239 1_555
Ge8 Ho3 3.025867 1_555
Ge8 Ho1 3.041789 1_655
Ge8 Ho0 3.042640 1_655
Ge8 Ho5 3.112476 1_555
Ge8 Ho4 3.132160 1_655
Ge9 Ho5 2.984012 1_555
Ge9 Ho2 3.022578 1_555
Ge9 Ho0 3.042380 1_556
Ge9 Ho1 3.043199 1_555
Ge9 Ho4 3.112722 1_555
Ge9 Ho5 3.134522 1_455
