# generated using pymatgen
data_Na3Y(BO3)2
_symmetry_space_group_name_H-M   'P 1'
_cell_length_a   8.59783800
_cell_length_b   6.61607800
_cell_length_c   12.15341062
_cell_angle_alpha   61.11995625
_cell_angle_beta   90.00000000
_cell_angle_gamma   90.00000000
_symmetry_Int_Tables_number   1
_chemical_formula_structural   Na3Y(BO3)2
_chemical_formula_sum   'Na12 Y4 B8 O24'
_cell_volume   605.35490881
_cell_formula_units_Z   4
loop_
 _symmetry_equiv_pos_site_id
 _symmetry_equiv_pos_as_xyz
  1  'x, y, z'
loop_
 _atom_site_type_symbol
 _atom_site_label
 _atom_site_symmetry_multiplicity
 _atom_site_fract_x
 _atom_site_fract_y
 _atom_site_fract_z
 _atom_site_occupancy
  Na  Na0  1  0.70243100  0.39928000  0.11731800  1
  Na  Na1  1  0.05534700  0.67206400  0.11580400  1
  Na  Na2  1  0.20243100  0.60072000  0.38268200  1
  Na  Na3  1  0.29577300  0.05944100  0.92794700  1
  Na  Na4  1  0.29756900  0.60072000  0.88268200  1
  Na  Na5  1  0.55534700  0.32793600  0.38419600  1
  Na  Na6  1  0.20422700  0.05944100  0.42794700  1
  Na  Na7  1  0.79577300  0.94055900  0.57205300  1
  Na  Na8  1  0.44465300  0.67206400  0.61580400  1
  Na  Na9  1  0.70422700  0.94055900  0.07205300  1
  Na  Na10  1  0.79756900  0.39928000  0.61731800  1
  Na  Na11  1  0.94465300  0.32793600  0.88419600  1
  Y  Y0  1  0.62662800  0.90605500  0.82930600  1
  Y  Y1  1  0.12662800  0.09394500  0.67069400  1
  Y  Y2  1  0.87337200  0.90605500  0.32930600  1
  Y  Y3  1  0.37337200  0.09394500  0.17069400  1
  B  B0  1  0.55853000  0.83432500  0.38027100  1
  B  B1  1  0.94147000  0.83432500  0.88027100  1
  B  B2  1  0.44147000  0.16567500  0.61972900  1
  B  B3  1  0.08858100  0.63470900  0.62488500  1
  B  B4  1  0.41141900  0.63470900  0.12488500  1
  B  B5  1  0.58858100  0.36529100  0.87511500  1
  B  B6  1  0.05853000  0.16567500  0.11972900  1
  B  B7  1  0.91141900  0.36529100  0.37511500  1
  O  O0  1  0.49402700  0.74653300  0.01250100  1
  O  O1  1  0.99402700  0.25346700  0.48749900  1
  O  O2  1  0.16405500  0.26254000  0.02229600  1
  O  O3  1  0.68805100  0.23983200  0.83997400  1
  O  O4  1  0.88249000  0.93088000  0.75656800  1
  O  O5  1  0.00597300  0.74653300  0.51250100  1
  O  O6  1  0.90107100  0.14561900  0.10609300  1
  O  O7  1  0.66405500  0.73746000  0.47770400  1
  O  O8  1  0.57021400  0.60254800  0.79896100  1
  O  O9  1  0.31194900  0.76016800  0.16002600  1
  O  O10  1  0.09892900  0.85438100  0.89390700  1
  O  O11  1  0.11751000  0.06912000  0.24343200  1
  O  O12  1  0.81194900  0.23983200  0.33997400  1
  O  O13  1  0.42978600  0.39745200  0.20103900  1
  O  O14  1  0.40107100  0.85438100  0.39390700  1
  O  O15  1  0.38249000  0.06912000  0.74343200  1
  O  O16  1  0.07021400  0.39745200  0.70103900  1
  O  O17  1  0.50597300  0.25346700  0.98749900  1
  O  O18  1  0.59892900  0.14561900  0.60609300  1
  O  O19  1  0.33594500  0.26254000  0.52229600  1
  O  O20  1  0.18805100  0.76016800  0.66002600  1
  O  O21  1  0.61751000  0.93088000  0.25656800  1
  O  O22  1  0.83594500  0.73746000  0.97770400  1
  O  O23  1  0.92978600  0.60254800  0.29896100  1
loop_
_geom_bond_atom_site_label_1
_geom_bond_atom_site_label_2
_geom_bond_distance
_geom_bond_site_symmetry_2
Na0 O22 2.352811 1_554
Na0 O6 2.443991 1_555
Na0 O13 2.553161 1_555
Na0 O12 2.562155 1_555
Na0 O0 2.699010 1_555
Na0 O17 2.782677 1_554
Na0 O21 2.816875 1_545
Na1 O23 2.311501 1_455
Na1 O10 2.392894 1_554
Na1 O9 2.408040 1_555
Na1 O22 2.420984 1_454
Na2 O19 2.352811 1_555
Na2 O14 2.443991 1_555
Na2 O23 2.553161 1_455
Na2 O9 2.562155 1_555
Na2 O1 2.699010 1_455
Na2 O5 2.782677 1_555
Na2 O11 2.816875 1_565
Na3 O10 2.327714 1_545
Na3 O15 2.334528 1_555
Na3 O2 2.427197 1_556
Na3 O0 2.488446 1_546
Na3 O17 2.517013 1_555
Na3 O9 2.549649 1_546
Na4 O2 2.352811 1_556
Na4 O10 2.443991 1_555
Na4 O8 2.553161 1_555
Na4 O20 2.562155 1_555
Na4 O17 2.699010 1_555
Na4 O0 2.782677 1_556
Na4 O15 2.816875 1_565
Na5 O13 2.311501 1_555
Na5 O18 2.392894 1_555
Na5 O12 2.408040 1_555
Na5 O19 2.420984 1_555
Na6 O14 2.327714 1_545
Na6 O11 2.334528 1_555
Na6 O19 2.427197 1_555
Na6 O5 2.488446 1_545
Na6 O1 2.517013 1_455
Na6 O20 2.549649 1_545
Na7 O18 2.327714 1_565
Na7 O4 2.334528 1_555
Na7 O7 2.427197 1_555
Na7 O1 2.488446 1_565
Na7 O5 2.517013 1_655
Na7 O12 2.549649 1_565
Na8 O8 2.311501 1_555
Na8 O14 2.392894 1_555
Na8 O20 2.408040 1_555
Na8 O7 2.420984 1_555
Na9 O6 2.327714 1_565
Na9 O21 2.334528 1_555
Na9 O22 2.427197 1_554
Na9 O17 2.488446 1_564
Na9 O0 2.517013 1_555
Na9 O3 2.549649 1_564
Na10 O7 2.352811 1_555
Na10 O18 2.443991 1_555
Na10 O16 2.553161 1_655
Na10 O3 2.562155 1_555
Na10 O5 2.699010 1_655
Na10 O1 2.782677 1_555
Na10 O4 2.816875 1_545
Na11 O16 2.311501 1_655
Na11 O6 2.392894 1_556
Na11 O3 2.408040 1_555
Na11 O2 2.420984 1_656
B0 O14 1.378081 1_555
B0 O7 1.379505 1_555
B0 O21 1.413429 1_555
B1 O10 1.378081 1_655
B1 O22 1.379505 1_555
B1 O4 1.413429 1_555
B2 O18 1.378081 1_555
B2 O19 1.379505 1_555
B2 O15 1.413429 1_555
B3 O5 1.393289 1_555
B3 O16 1.393622 1_555
B3 O20 1.394711 1_555
B4 O0 1.393289 1_555
B4 O13 1.393622 1_555
B4 O9 1.394711 1_555
B5 O17 1.393289 1_555
B5 O8 1.393622 1_555
B5 O3 1.394711 1_555
B6 O6 1.378081 1_455
B6 O2 1.379505 1_555
B6 O11 1.413429 1_555
B7 O1 1.393289 1_555
B7 O23 1.393622 1_555
B7 O12 1.394711 1_555
O0 Y0 2.258521 1_554
O1 Y1 2.258521 1_655
O2 Y3 2.406770 1_555
O3 Y0 2.334274 1_545
O4 Y0 2.346826 1_555
O4 Y1 2.360419 1_665
O5 Y2 2.258521 1_455
O6 Y2 2.403083 1_545
O7 Y2 2.406770 1_555
O8 Y0 2.262472 1_555
O9 Y3 2.334274 1_565
O10 Y1 2.403083 1_565
O11 Y3 2.346826 1_555
O11 Y2 2.360419 1_445
O12 Y2 2.334274 1_545
O13 Y3 2.262472 1_555
O14 Y3 2.403083 1_565
O15 Y1 2.346826 1_555
O15 Y0 2.360419 1_545
O16 Y1 2.262472 1_555
O17 Y3 2.258521 1_556
O18 Y0 2.403083 1_545
O19 Y1 2.406770 1_555
O20 Y1 2.334274 1_565
O21 Y2 2.346826 1_555
O21 Y3 2.360419 1_565
O22 Y0 2.406770 1_555
O23 Y2 2.262472 1_555
