# generated using pymatgen
data_K4MoS3O14
_symmetry_space_group_name_H-M   'P 1'
_cell_length_a   7.85017900
_cell_length_b   10.77358300
_cell_length_c   17.37504700
_cell_angle_alpha   90.00000000
_cell_angle_beta   90.00000000
_cell_angle_gamma   90.00000000
_symmetry_Int_Tables_number   1
_chemical_formula_structural   K4MoS3O14
_chemical_formula_sum   'K16 Mo4 S12 O56'
_cell_volume   1469.48686850
_cell_formula_units_Z   4
loop_
 _symmetry_equiv_pos_site_id
 _symmetry_equiv_pos_as_xyz
  1  'x, y, z'
loop_
 _atom_site_type_symbol
 _atom_site_label
 _atom_site_symmetry_multiplicity
 _atom_site_fract_x
 _atom_site_fract_y
 _atom_site_fract_z
 _atom_site_occupancy
  K  K0  1  0.06140700  0.25689600  0.09005800  1
  K  K1  1  0.23931500  0.89016200  0.11095900  1
  K  K2  1  0.26068500  0.39016200  0.88904100  1
  K  K3  1  0.73931500  0.60983800  0.11095900  1
  K  K4  1  0.43859300  0.75689600  0.59005800  1
  K  K5  1  0.56140700  0.24310400  0.09005800  1
  K  K6  1  0.06140700  0.25689600  0.40994200  1
  K  K7  1  0.93859300  0.74310400  0.90994200  1
  K  K8  1  0.56140700  0.24310400  0.40994200  1
  K  K9  1  0.26068500  0.39016200  0.61095900  1
  K  K10  1  0.73931500  0.60983800  0.38904100  1
  K  K11  1  0.23931500  0.89016200  0.38904100  1
  K  K12  1  0.76068500  0.10983800  0.88904100  1
  K  K13  1  0.93859300  0.74310400  0.59005800  1
  K  K14  1  0.43859300  0.75689600  0.90994200  1
  K  K15  1  0.76068500  0.10983800  0.61095900  1
  Mo  Mo0  1  0.67516900  0.93349100  0.25000000  1
  Mo  Mo1  1  0.82483100  0.43349100  0.75000000  1
  Mo  Mo2  1  0.32483100  0.06650900  0.75000000  1
  Mo  Mo3  1  0.17516900  0.56650900  0.25000000  1
  S  S0  1  0.26500100  0.56029600  0.06544400  1
  S  S1  1  0.73499900  0.43970400  0.56544400  1
  S  S2  1  0.38011300  0.09774200  0.25000000  1
  S  S3  1  0.88011300  0.40225800  0.25000000  1
  S  S4  1  0.26500100  0.56029600  0.43455600  1
  S  S5  1  0.76500100  0.93970400  0.43455600  1
  S  S6  1  0.23499900  0.06029600  0.56544400  1
  S  S7  1  0.73499900  0.43970400  0.93455600  1
  S  S8  1  0.61988700  0.90225800  0.75000000  1
  S  S9  1  0.23499900  0.06029600  0.93455600  1
  S  S10  1  0.76500100  0.93970400  0.06544400  1
  S  S11  1  0.11988700  0.59774200  0.75000000  1
  O  O0  1  0.93401100  0.63607500  0.75000000  1
  O  O1  1  0.66647900  0.89918800  0.99793700  1
  O  O2  1  0.79458500  0.36340200  0.32079600  1
  O  O3  1  0.13196400  0.55254500  0.36645100  1
  O  O4  1  0.29458500  0.13659800  0.17920400  1
  O  O5  1  0.36803600  0.05254500  0.63354900  1
  O  O6  1  0.10437200  0.15206400  0.58696400  1
  O  O7  1  0.56598900  0.13607500  0.25000000  1
  O  O8  1  0.16647900  0.60081200  0.99793700  1
  O  O9  1  0.89562800  0.84793600  0.08696400  1
  O  O10  1  0.89562800  0.84793600  0.41303600  1
  O  O11  1  0.86803600  0.44745500  0.86645100  1
  O  O12  1  0.36803600  0.05254500  0.86645100  1
  O  O13  1  0.70541500  0.86340200  0.82079600  1
  O  O14  1  0.29458500  0.13659800  0.32079600  1
  O  O15  1  0.69192200  0.77332500  0.25000000  1
  O  O16  1  0.63196400  0.94745500  0.13354900  1
  O  O17  1  0.79458500  0.36340200  0.17920400  1
  O  O18  1  0.60437200  0.34793600  0.91303600  1
  O  O19  1  0.70541500  0.86340200  0.67920400  1
  O  O20  1  0.13196400  0.55254500  0.13354900  1
  O  O21  1  0.39604600  0.95446000  0.25000000  1
  O  O22  1  0.83352100  0.39918800  0.00206300  1
  O  O23  1  0.63196400  0.94745500  0.36645100  1
  O  O24  1  0.33285800  0.43348100  0.05563600  1
  O  O25  1  0.60437200  0.34793600  0.58696400  1
  O  O26  1  0.16714200  0.93348100  0.94436400  1
  O  O27  1  0.83285800  0.06651900  0.05563600  1
  O  O28  1  0.38077700  0.51050300  0.25000000  1
  O  O29  1  0.66647900  0.89918800  0.50206300  1
  O  O30  1  0.39562800  0.65206400  0.08696400  1
  O  O31  1  0.16647900  0.60081200  0.50206300  1
  O  O32  1  0.20541500  0.63659800  0.67920400  1
  O  O33  1  0.61922300  0.48949700  0.75000000  1
  O  O34  1  0.33352100  0.10081200  0.00206300  1
  O  O35  1  0.11922300  0.01050300  0.75000000  1
  O  O36  1  0.30807800  0.22667500  0.75000000  1
  O  O37  1  0.80807800  0.27332500  0.75000000  1
  O  O38  1  0.20541500  0.63659800  0.82079600  1
  O  O39  1  0.33352100  0.10081200  0.49793700  1
  O  O40  1  0.89604600  0.54554000  0.25000000  1
  O  O41  1  0.16714200  0.93348100  0.55563600  1
  O  O42  1  0.66714200  0.56651900  0.94436400  1
  O  O43  1  0.19192200  0.72667500  0.25000000  1
  O  O44  1  0.66714200  0.56651900  0.55563600  1
  O  O45  1  0.10395400  0.45446000  0.75000000  1
  O  O46  1  0.06598900  0.36392500  0.25000000  1
  O  O47  1  0.39562800  0.65206400  0.41303600  1
  O  O48  1  0.86803600  0.44745500  0.63354900  1
  O  O49  1  0.10437200  0.15206400  0.91303600  1
  O  O50  1  0.43401100  0.86392500  0.75000000  1
  O  O51  1  0.88077700  0.98949700  0.25000000  1
  O  O52  1  0.60395400  0.04554000  0.75000000  1
  O  O53  1  0.83285800  0.06651900  0.44436400  1
  O  O54  1  0.33285800  0.43348100  0.44436400  1
  O  O55  1  0.83352100  0.39918800  0.49793700  1
loop_
_geom_bond_atom_site_label_1
_geom_bond_atom_site_label_2
_geom_bond_distance
_geom_bond_site_symmetry_2
K0 O4 2.725720 1_555
K0 O27 2.789884 1_455
K0 O22 2.808556 1_455
K0 O17 2.846601 1_455
K0 O24 2.918550 1_555
K0 O46 3.008943 1_555
K0 O34 3.119042 1_555
K0 O49 3.293884 1_554
K0 O20 3.320136 1_555
K1 O9 2.767671 1_455
K1 O21 2.798207 1_555
K1 O30 2.873960 1_555
K1 O4 2.939948 1_565
K1 O26 2.986218 1_554
K1 O43 3.012813 1_555
K1 O34 3.045862 1_565
K1 O16 3.167969 1_555
K2 O18 2.767671 1_555
K2 O45 2.798207 1_555
K2 O49 2.873960 1_555
K2 O38 2.939948 1_555
K2 O24 2.986218 1_556
K2 O36 3.012813 1_555
K2 O8 3.045862 1_555
K2 O11 3.167969 1_455
K3 O30 2.767671 1_555
K3 O40 2.798207 1_555
K3 O9 2.873960 1_555
K3 O17 2.939948 1_555
K3 O42 2.986218 1_554
K3 O15 3.012813 1_555
K3 O22 3.045862 1_555
K3 O20 3.167969 1_655
K4 O32 2.725720 1_555
K4 O44 2.789884 1_555
K4 O29 2.808556 1_555
K4 O19 2.846601 1_555
K4 O41 2.918550 1_555
K4 O50 3.008943 1_555
K4 O31 3.119042 1_555
K4 O47 3.293884 1_555
K4 O5 3.320136 1_565
K5 O17 2.725720 1_555
K5 O24 2.789884 1_555
K5 O34 2.808556 1_555
K5 O4 2.846601 1_555
K5 O27 2.918550 1_555
K5 O7 3.008943 1_555
K5 O22 3.119042 1_555
K5 O18 3.293884 1_554
K5 O16 3.320136 1_545
K6 O14 2.725720 1_555
K6 O53 2.789884 1_455
K6 O55 2.808556 1_455
K6 O2 2.846601 1_455
K6 O54 2.918550 1_555
K6 O46 3.008943 1_555
K6 O39 3.119042 1_555
K6 O6 3.293884 1_555
K6 O3 3.320136 1_555
K7 O13 2.725720 1_555
K7 O26 2.789884 1_655
K7 O8 2.808556 1_655
K7 O38 2.846601 1_655
K7 O42 2.918550 1_555
K7 O0 3.008943 1_555
K7 O1 3.119042 1_555
K7 O9 3.293884 1_556
K7 O11 3.320136 1_555
K8 O2 2.725720 1_555
K8 O54 2.789884 1_555
K8 O39 2.808556 1_555
K8 O14 2.846601 1_555
K8 O53 2.918550 1_555
K8 O7 3.008943 1_555
K8 O55 3.119042 1_555
K8 O25 3.293884 1_555
K8 O23 3.320136 1_545
K9 O25 2.767671 1_555
K9 O45 2.798207 1_555
K9 O6 2.873960 1_555
K9 O32 2.939948 1_555
K9 O54 2.986218 1_555
K9 O36 3.012813 1_555
K9 O31 3.045862 1_555
K9 O48 3.167969 1_455
K10 O47 2.767671 1_555
K10 O40 2.798207 1_555
K10 O10 2.873960 1_555
K10 O2 2.939948 1_555
K10 O44 2.986218 1_555
K10 O15 3.012813 1_555
K10 O55 3.045862 1_555
K10 O3 3.167969 1_655
K11 O10 2.767671 1_455
K11 O21 2.798207 1_555
K11 O47 2.873960 1_555
K11 O14 2.939948 1_565
K11 O41 2.986218 1_555
K11 O43 3.012813 1_555
K11 O39 3.045862 1_565
K11 O23 3.167969 1_555
K12 O49 2.767671 1_655
K12 O52 2.798207 1_555
K12 O18 2.873960 1_555
K12 O13 2.939948 1_545
K12 O27 2.986218 1_556
K12 O37 3.012813 1_555
K12 O1 3.045862 1_545
K12 O12 3.167969 1_555
K13 O19 2.725720 1_555
K13 O41 2.789884 1_655
K13 O31 2.808556 1_655
K13 O32 2.846601 1_655
K13 O44 2.918550 1_555
K13 O0 3.008943 1_555
K13 O29 3.119042 1_555
K13 O10 3.293884 1_555
K13 O48 3.320136 1_555
K14 O38 2.725720 1_555
K14 O42 2.789884 1_555
K14 O1 2.808556 1_555
K14 O13 2.846601 1_555
K14 O26 2.918550 1_555
K14 O50 3.008943 1_555
K14 O8 3.119042 1_555
K14 O30 3.293884 1_556
K14 O12 3.320136 1_565
K15 O6 2.767671 1_655
K15 O52 2.798207 1_555
K15 O25 2.873960 1_555
K15 O19 2.939948 1_545
K15 O53 2.986218 1_555
K15 O37 3.012813 1_555
K15 O29 3.045862 1_545
K15 O5 3.167969 1_555
Mo0 O51 1.723155 1_555
Mo0 O15 1.730566 1_555
Mo0 O23 2.057080 1_555
Mo0 O16 2.057080 1_555
Mo0 O21 2.202781 1_555
Mo0 O7 2.344811 1_565
Mo1 O33 1.723155 1_555
Mo1 O37 1.730566 1_555
Mo1 O11 2.057080 1_555
Mo1 O48 2.057080 1_555
Mo1 O45 2.202781 1_655
Mo1 O0 2.344811 1_555
Mo2 O35 1.723155 1_555
Mo2 O36 1.730566 1_555
Mo2 O12 2.057080 1_555
Mo2 O5 2.057080 1_555
Mo2 O52 2.202781 1_555
Mo2 O50 2.344811 1_545
Mo3 O28 1.723155 1_555
Mo3 O43 1.730566 1_555
Mo3 O3 2.057080 1_555
Mo3 O20 2.057080 1_555
Mo3 O40 2.202781 1_455
Mo3 O46 2.344811 1_555
O0 S11 1.516477 1_655
O1 S10 1.471220 1_556
O2 S3 1.462580 1_555
O3 S4 1.580485 1_555
O4 S2 1.462580 1_555
O5 S6 1.580485 1_555
O6 S6 1.472690 1_555
O7 S2 1.516477 1_555
O8 S0 1.471220 1_556
O9 S10 1.472690 1_555
O10 S5 1.472690 1_555
O11 S7 1.580485 1_555
O12 S9 1.580485 1_555
O13 S8 1.462580 1_555
O14 S2 1.462580 1_555
O16 S10 1.580485 1_555
O17 S3 1.462580 1_555
O18 S7 1.472690 1_555
O19 S8 1.462580 1_555
O20 S0 1.580485 1_555
O21 S2 1.548719 1_565
O22 S7 1.471220 1_554
O23 S5 1.580485 1_555
O24 S0 1.476294 1_555
O25 S1 1.472690 1_555
O26 S9 1.476294 1_565
O27 S10 1.476294 1_545
O29 S5 1.471220 1_555
O30 S0 1.472690 1_555
O31 S4 1.471220 1_555
O32 S11 1.462580 1_555
O34 S9 1.471220 1_554
O38 S11 1.462580 1_555
O39 S6 1.471220 1_555
O40 S3 1.548719 1_555
O41 S6 1.476294 1_565
O42 S7 1.476294 1_555
O44 S1 1.476294 1_555
O45 S11 1.548719 1_555
O46 S3 1.516477 1_455
O47 S4 1.472690 1_555
O48 S1 1.580485 1_555
O49 S9 1.472690 1_555
O50 S8 1.516477 1_555
O52 S8 1.548719 1_545
O53 S5 1.476294 1_545
O54 S4 1.476294 1_555
O55 S1 1.471220 1_555
