# generated using pymatgen
data_PrB2Ru3
_symmetry_space_group_name_H-M   'P 1'
_cell_length_a   6.10486400
_cell_length_b   11.17232365
_cell_length_c   11.17232365
_cell_angle_alpha   119.99999793
_cell_angle_beta   90.00000000
_cell_angle_gamma   90.00000000
_symmetry_Int_Tables_number   1
_chemical_formula_structural   PrB2Ru3
_chemical_formula_sum   'Pr8 B16 Ru24'
_cell_volume   659.92358635
_cell_formula_units_Z   8
loop_
 _symmetry_equiv_pos_site_id
 _symmetry_equiv_pos_as_xyz
  1  'x, y, z'
loop_
 _atom_site_type_symbol
 _atom_site_label
 _atom_site_symmetry_multiplicity
 _atom_site_fract_x
 _atom_site_fract_y
 _atom_site_fract_z
 _atom_site_occupancy
  Pr  Pr0_0  1  0.00000000  0.00000000  0.00000000  1
  Pr  Pr0_1  1  0.00000000  0.00000000  0.50000000  1
  Pr  Pr0_2  1  0.00000000  0.50000000  0.00000000  1
  Pr  Pr0_3  1  0.00000000  0.50000000  0.50000000  1
  Pr  Pr0_4  1  0.50000000  0.00000000  0.00000000  1
  Pr  Pr0_5  1  0.50000000  0.00000000  0.50000000  1
  Pr  Pr0_6  1  0.50000000  0.50000000  0.00000000  1
  Pr  Pr0_7  1  0.50000000  0.50000000  0.50000000  1
  B  B0_0  1  0.00000000  0.16666650  0.33333350  1
  B  B0_1  1  0.00000000  0.16666650  0.83333350  1
  B  B0_2  1  0.00000000  0.66666650  0.33333350  1
  B  B0_3  1  0.00000000  0.66666650  0.83333350  1
  B  B0_4  1  0.50000000  0.16666650  0.33333350  1
  B  B0_5  1  0.50000000  0.16666650  0.83333350  1
  B  B0_6  1  0.50000000  0.66666650  0.33333350  1
  B  B0_7  1  0.50000000  0.66666650  0.83333350  1
  B  B1_0  1  0.00000000  0.33333350  0.16666650  1
  B  B1_1  1  0.00000000  0.33333350  0.66666650  1
  B  B1_2  1  0.00000000  0.83333350  0.16666650  1
  B  B1_3  1  0.00000000  0.83333350  0.66666650  1
  B  B1_4  1  0.50000000  0.33333350  0.16666650  1
  B  B1_5  1  0.50000000  0.33333350  0.66666650  1
  B  B1_6  1  0.50000000  0.83333350  0.16666650  1
  B  B1_7  1  0.50000000  0.83333350  0.66666650  1
  Ru  Ru0_0  1  0.25000000  0.00000000  0.25000000  1
  Ru  Ru0_1  1  0.25000000  0.00000000  0.75000000  1
  Ru  Ru0_2  1  0.25000000  0.50000000  0.25000000  1
  Ru  Ru0_3  1  0.25000000  0.50000000  0.75000000  1
  Ru  Ru0_4  1  0.75000000  0.00000000  0.25000000  1
  Ru  Ru0_5  1  0.75000000  0.00000000  0.75000000  1
  Ru  Ru0_6  1  0.75000000  0.50000000  0.25000000  1
  Ru  Ru0_7  1  0.75000000  0.50000000  0.75000000  1
  Ru  Ru1_0  1  0.25000000  0.25000000  0.25000000  1
  Ru  Ru1_1  1  0.25000000  0.25000000  0.75000000  1
  Ru  Ru1_2  1  0.25000000  0.75000000  0.25000000  1
  Ru  Ru1_3  1  0.25000000  0.75000000  0.75000000  1
  Ru  Ru1_4  1  0.75000000  0.25000000  0.25000000  1
  Ru  Ru1_5  1  0.75000000  0.25000000  0.75000000  1
  Ru  Ru1_6  1  0.75000000  0.75000000  0.25000000  1
  Ru  Ru1_7  1  0.75000000  0.75000000  0.75000000  1
  Ru  Ru2_0  1  0.25000000  0.25000000  0.00000000  1
  Ru  Ru2_1  1  0.25000000  0.25000000  0.50000000  1
  Ru  Ru2_2  1  0.25000000  0.75000000  0.00000000  1
  Ru  Ru2_3  1  0.25000000  0.75000000  0.50000000  1
  Ru  Ru2_4  1  0.75000000  0.25000000  0.00000000  1
  Ru  Ru2_5  1  0.75000000  0.25000000  0.50000000  1
  Ru  Ru2_6  1  0.75000000  0.75000000  0.00000000  1
  Ru  Ru2_7  1  0.75000000  0.75000000  0.50000000  1
loop_
_geom_bond_atom_site_label_1
_geom_bond_atom_site_label_2
_geom_bond_distance
_geom_bond_site_symmetry_2
Pr0_0 Pr0_4 3.052432 1_455
Pr0_0 Pr0_4 3.052432 1_555
Pr0_0 Ru2_0 3.182866 1_555
Pr0_0 Ru2_4 3.182866 1_455
Pr0_0 Ru0_4 3.182866 1_455
Pr0_0 Ru0_0 3.182866 1_555
Pr0_0 Ru2_2 3.182866 1_545
Pr0_0 Ru2_6 3.182866 1_445
Pr0_0 Ru0_5 3.182866 1_454
Pr0_0 Ru0_1 3.182866 1_554
Pr0_0 Ru1_0 3.182866 1_555
Pr0_0 Ru1_4 3.182866 1_455
Pr0_0 Ru1_7 3.182866 1_444
Pr0_0 Ru1_3 3.182866 1_544
Pr0_1 Pr0_5 3.052432 1_555
Pr0_1 Pr0_5 3.052432 1_455
Pr0_1 Ru0_1 3.182866 1_555
Pr0_1 Ru0_5 3.182866 1_455
Pr0_1 Ru2_3 3.182866 1_545
Pr0_1 Ru2_1 3.182866 1_555
Pr0_1 Ru0_4 3.182866 1_455
Pr0_1 Ru0_0 3.182866 1_555
Pr0_1 Ru2_7 3.182866 1_445
Pr0_1 Ru2_5 3.182866 1_455
Pr0_1 Ru1_2 3.182866 1_545
Pr0_1 Ru1_5 3.182866 1_455
Pr0_1 Ru1_1 3.182866 1_555
Pr0_1 Ru1_6 3.182866 1_445
Pr0_2 Pr0_6 3.052432 1_555
Pr0_2 Pr0_6 3.052432 1_455
Pr0_2 Ru2_6 3.182866 1_455
Pr0_2 Ru2_2 3.182866 1_555
Pr0_2 Ru0_6 3.182866 1_455
Pr0_2 Ru2_0 3.182866 1_555
Pr0_2 Ru2_4 3.182866 1_455
Pr0_2 Ru0_2 3.182866 1_555
Pr0_2 Ru0_3 3.182866 1_554
Pr0_2 Ru0_7 3.182866 1_454
Pr0_2 Ru1_2 3.182866 1_555
Pr0_2 Ru1_5 3.182866 1_454
Pr0_2 Ru1_1 3.182866 1_554
Pr0_2 Ru1_6 3.182866 1_455
Pr0_3 Pr0_7 3.052432 1_455
Pr0_3 Pr0_7 3.052432 1_555
Pr0_3 Ru2_7 3.182866 1_455
Pr0_3 Ru0_7 3.182866 1_455
Pr0_3 Ru2_3 3.182866 1_555
Pr0_3 Ru0_3 3.182866 1_555
Pr0_3 Ru2_5 3.182866 1_455
Pr0_3 Ru0_6 3.182866 1_455
Pr0_3 Ru2_1 3.182866 1_555
Pr0_3 Ru0_2 3.182866 1_555
Pr0_3 Ru1_7 3.182866 1_455
Pr0_3 Ru1_3 3.182866 1_555
Pr0_3 Ru1_0 3.182866 1_555
Pr0_3 Ru1_4 3.182866 1_455
Pr0_4 Ru2_4 3.182866 1_555
Pr0_4 Ru0_4 3.182866 1_555
Pr0_4 Ru2_0 3.182866 1_555
Pr0_4 Ru0_0 3.182866 1_555
Pr0_4 Ru2_2 3.182866 1_545
Pr0_4 Ru0_5 3.182866 1_554
Pr0_4 Ru2_6 3.182866 1_545
Pr0_4 Ru0_1 3.182866 1_554
Pr0_4 Ru1_4 3.182866 1_555
Pr0_4 Ru1_0 3.182866 1_555
Pr0_4 Ru1_7 3.182866 1_544
Pr0_4 Ru1_3 3.182866 1_544
Pr0_5 Ru0_5 3.182866 1_555
Pr0_5 Ru0_1 3.182866 1_555
Pr0_5 Ru2_5 3.182866 1_555
Pr0_5 Ru2_3 3.182866 1_545
Pr0_5 Ru0_4 3.182866 1_555
Pr0_5 Ru2_1 3.182866 1_555
Pr0_5 Ru2_7 3.182866 1_545
Pr0_5 Ru0_0 3.182866 1_555
Pr0_5 Ru1_2 3.182866 1_545
Pr0_5 Ru1_1 3.182866 1_555
Pr0_5 Ru1_6 3.182866 1_545
Pr0_5 Ru1_5 3.182866 1_555
Pr0_6 Ru2_2 3.182866 1_555
Pr0_6 Ru2_6 3.182866 1_555
Pr0_6 Ru0_7 3.182866 1_554
Pr0_6 Ru2_4 3.182866 1_555
Pr0_6 Ru2_0 3.182866 1_555
Pr0_6 Ru0_2 3.182866 1_555
Pr0_6 Ru0_3 3.182866 1_554
Pr0_6 Ru0_6 3.182866 1_555
Pr0_6 Ru1_2 3.182866 1_555
Pr0_6 Ru1_5 3.182866 1_554
Pr0_6 Ru1_1 3.182866 1_554
Pr0_6 Ru1_6 3.182866 1_555
Pr0_7 Ru2_7 3.182866 1_555
Pr0_7 Ru0_7 3.182866 1_555
Pr0_7 Ru2_3 3.182866 1_555
Pr0_7 Ru0_3 3.182866 1_555
Pr0_7 Ru0_6 3.182866 1_555
Pr0_7 Ru2_5 3.182866 1_555
Pr0_7 Ru2_1 3.182866 1_555
Pr0_7 Ru0_2 3.182866 1_555
Pr0_7 Ru1_7 3.182866 1_555
Pr0_7 Ru1_3 3.182866 1_555
Pr0_7 Ru1_4 3.182866 1_555
Pr0_7 Ru1_0 3.182866 1_555
B0_0 Ru2_5 2.220307 1_455
B0_0 Ru2_1 2.220307 1_555
B0_0 Ru0_0 2.220307 1_555
B0_0 Ru0_4 2.220307 1_455
B0_0 Ru1_4 2.220311 1_455
B0_0 Ru1_0 2.220311 1_555
B0_0 Pr0_1 3.225169 1_555
B0_0 Pr0_3 3.225174 1_555
B0_0 Pr0_0 3.225174 1_555
B0_1 Ru2_4 2.220307 1_456
B0_1 Ru2_0 2.220307 1_556
B0_1 Ru0_5 2.220307 1_455
B0_1 Ru0_1 2.220307 1_555
B0_1 Ru1_1 2.220311 1_555
B0_1 Ru1_5 2.220311 1_455
B0_1 Pr0_0 3.225169 1_556
B0_1 Pr0_2 3.225174 1_556
B0_1 Pr0_1 3.225174 1_555
B0_2 Ru2_7 2.220307 1_455
B0_2 Ru2_3 2.220307 1_555
B0_2 Ru0_2 2.220307 1_555
B0_2 Ru0_6 2.220307 1_455
B0_2 Ru1_2 2.220311 1_555
B0_2 Ru1_6 2.220311 1_455
B0_2 Pr0_3 3.225169 1_555
B0_2 Pr0_1 3.225174 1_565
B0_2 Pr0_2 3.225174 1_555
B0_3 Ru0_3 2.220307 1_555
B0_3 Ru0_7 2.220307 1_455
B0_3 Ru2_6 2.220307 1_456
B0_3 Ru2_2 2.220307 1_556
B0_3 Ru1_7 2.220311 1_455
B0_3 Ru1_3 2.220311 1_555
B0_3 Pr0_2 3.225169 1_556
B0_3 Pr0_3 3.225174 1_555
B0_3 Pr0_0 3.225174 1_566
B0_4 Ru2_1 2.220307 1_555
B0_4 Ru2_5 2.220307 1_555
B0_4 Ru0_0 2.220307 1_555
B0_4 Ru0_4 2.220307 1_555
B0_4 Ru1_0 2.220311 1_555
B0_4 Ru1_4 2.220311 1_555
B0_4 Pr0_5 3.225169 1_555
B0_4 Pr0_4 3.225174 1_555
B0_4 Pr0_7 3.225174 1_555
B0_5 Ru2_4 2.220307 1_556
B0_5 Ru2_0 2.220307 1_556
B0_5 Ru0_1 2.220307 1_555
B0_5 Ru0_5 2.220307 1_555
B0_5 Ru1_5 2.220311 1_555
B0_5 Ru1_1 2.220311 1_555
B0_5 Pr0_4 3.225169 1_556
B0_5 Pr0_6 3.225174 1_556
B0_5 Pr0_5 3.225174 1_555
B0_6 Ru2_3 2.220307 1_555
B0_6 Ru2_7 2.220307 1_555
B0_6 Ru0_2 2.220307 1_555
B0_6 Ru0_6 2.220307 1_555
B0_6 Ru1_2 2.220311 1_555
B0_6 Ru1_6 2.220311 1_555
B0_6 Pr0_7 3.225169 1_555
B0_6 Pr0_5 3.225174 1_565
B0_6 Pr0_6 3.225174 1_555
B0_7 Ru0_3 2.220307 1_555
B0_7 Ru0_7 2.220307 1_555
B0_7 Ru2_6 2.220307 1_556
B0_7 Ru2_2 2.220307 1_556
B0_7 Ru1_7 2.220311 1_555
B0_7 Ru1_3 2.220311 1_555
B0_7 Pr0_6 3.225169 1_556
B0_7 Pr0_7 3.225174 1_555
B0_7 Pr0_4 3.225174 1_566
B1_0 Ru0_6 2.220307 1_455
B1_0 Ru0_2 2.220307 1_555
B1_0 Ru2_4 2.220307 1_455
B1_0 Ru2_0 2.220307 1_555
B1_0 Ru1_4 2.220311 1_455
B1_0 Ru1_0 2.220311 1_555
B1_0 Pr0_2 3.225169 1_555
B1_0 Pr0_3 3.225174 1_555
B1_0 Pr0_0 3.225174 1_555
B1_1 Ru0_3 2.220307 1_555
B1_1 Ru0_7 2.220307 1_455
B1_1 Ru2_5 2.220307 1_455
B1_1 Ru2_1 2.220307 1_555
B1_1 Ru1_1 2.220311 1_555
B1_1 Ru1_5 2.220311 1_455
B1_1 Pr0_3 3.225169 1_555
B1_1 Pr0_2 3.225174 1_556
B1_1 Pr0_1 3.225174 1_555
B1_2 Ru0_4 2.220307 1_465
B1_2 Ru0_0 2.220307 1_565
B1_2 Ru2_2 2.220307 1_555
B1_2 Ru2_6 2.220307 1_455
B1_2 Ru1_6 2.220311 1_455
B1_2 Ru1_2 2.220311 1_555
B1_2 Pr0_0 3.225169 1_565
B1_2 Pr0_1 3.225174 1_565
B1_2 Pr0_2 3.225174 1_555
B1_3 Ru2_3 2.220307 1_555
B1_3 Ru2_7 2.220307 1_455
B1_3 Ru0_5 2.220307 1_465
B1_3 Ru0_1 2.220307 1_565
B1_3 Ru1_7 2.220311 1_455
B1_3 Ru1_3 2.220311 1_555
B1_3 Pr0_1 3.225169 1_565
B1_3 Pr0_3 3.225174 1_555
B1_3 Pr0_0 3.225174 1_566
B1_4 Ru0_2 2.220307 1_555
B1_4 Ru0_6 2.220307 1_555
B1_4 Ru2_4 2.220307 1_555
B1_4 Ru2_0 2.220307 1_555
B1_4 Ru1_0 2.220311 1_555
B1_4 Ru1_4 2.220311 1_555
B1_4 Pr0_6 3.225169 1_555
B1_4 Pr0_4 3.225174 1_555
B1_4 Pr0_7 3.225174 1_555
B1_5 Ru0_3 2.220307 1_555
B1_5 Ru0_7 2.220307 1_555
B1_5 Ru2_1 2.220307 1_555
B1_5 Ru2_5 2.220307 1_555
B1_5 Ru1_1 2.220311 1_555
B1_5 Ru1_5 2.220311 1_555
B1_5 Pr0_7 3.225169 1_555
B1_5 Pr0_6 3.225174 1_556
B1_5 Pr0_5 3.225174 1_555
B1_6 Ru0_0 2.220307 1_565
B1_6 Ru0_4 2.220307 1_565
B1_6 Ru2_2 2.220307 1_555
B1_6 Ru2_6 2.220307 1_555
B1_6 Ru1_6 2.220311 1_555
B1_6 Ru1_2 2.220311 1_555
B1_6 Pr0_4 3.225169 1_565
B1_6 Pr0_5 3.225174 1_565
B1_6 Pr0_6 3.225174 1_555
B1_7 Ru2_3 2.220307 1_555
B1_7 Ru2_7 2.220307 1_555
B1_7 Ru0_1 2.220307 1_565
B1_7 Ru0_5 2.220307 1_565
B1_7 Ru1_7 2.220311 1_555
B1_7 Ru1_3 2.220311 1_555
B1_7 Pr0_5 3.225169 1_565
B1_7 Pr0_7 3.225174 1_555
B1_7 Pr0_4 3.225174 1_566
