# generated using pymatgen
data_SrZnO2
_symmetry_space_group_name_H-M   'P 1'
_cell_length_a   3.34284254
_cell_length_b   5.82466437
_cell_length_c   11.33983816
_cell_angle_alpha   90.00000000
_cell_angle_beta   90.00000000
_cell_angle_gamma   90.00000000
_symmetry_Int_Tables_number   1
_chemical_formula_structural   SrZnO2
_chemical_formula_sum   'Sr4 Zn4 O8'
_cell_volume   220.79726122
_cell_formula_units_Z   4
loop_
 _symmetry_equiv_pos_site_id
 _symmetry_equiv_pos_as_xyz
  1  'x, y, z'
loop_
 _atom_site_type_symbol
 _atom_site_label
 _atom_site_symmetry_multiplicity
 _atom_site_fract_x
 _atom_site_fract_y
 _atom_site_fract_z
 _atom_site_occupancy
  Sr  Sr0  1  0.25000000  0.31248339  0.36861624  1
  Sr  Sr1  1  0.75000000  0.68751661  0.63138376  1
  Sr  Sr2  1  0.25000000  0.81248339  0.13138376  1
  Sr  Sr3  1  0.75000000  0.18751661  0.86861624  1
  Zn  Zn0  1  0.75000000  0.79841316  0.36956398  1
  Zn  Zn1  1  0.75000000  0.29841316  0.13043602  1
  Zn  Zn2  1  0.25000000  0.20158684  0.63043602  1
  Zn  Zn3  1  0.25000000  0.70158684  0.86956398  1
  O  O0  1  0.25000000  0.23906703  0.04108607  1
  O  O1  1  0.75000000  0.76093297  0.95891393  1
  O  O2  1  0.25000000  0.73906703  0.45891393  1
  O  O3  1  0.75000000  0.26093297  0.54108607  1
  O  O4  1  0.25000000  0.44619327  0.75842043  1
  O  O5  1  0.75000000  0.05380673  0.25842043  1
  O  O6  1  0.25000000  0.94619327  0.74157957  1
  O  O7  1  0.75000000  0.55380673  0.24157957  1
loop_
_geom_bond_atom_site_label_1
_geom_bond_atom_site_label_2
_geom_bond_distance
_geom_bond_site_symmetry_2
O0 Zn1 1.984878 1_555
O0 Zn1 1.984878 1_455
O0 Sr3 2.590151 1_554
O0 Sr3 2.590151 1_454
O0 Sr2 2.687427 1_545
O1 Zn3 1.984878 1_555
O1 Zn3 1.984878 1_655
O1 Sr2 2.590151 1_656
O1 Sr2 2.590151 1_556
O1 Sr3 2.687427 1_565
O2 Zn0 1.984878 1_455
O2 Zn0 1.984878 1_555
O2 Sr1 2.590151 1_455
O2 Sr1 2.590151 1_555
O2 Sr0 2.687427 1_555
O3 Zn2 1.984878 1_555
O3 Zn2 1.984878 1_655
O3 Sr0 2.590151 1_655
O3 Sr0 2.590151 1_555
O3 Sr1 2.687427 1_555
O4 Zn3 1.949713 1_555
O4 Zn2 2.033777 1_555
O4 Sr3 2.573969 1_455
O4 Sr3 2.573969 1_555
O4 Sr1 2.616237 1_455
O4 Sr1 2.616237 1_555
O5 Zn0 1.949713 1_545
O5 Zn1 2.033777 1_555
O5 Sr0 2.573969 1_655
O5 Sr0 2.573969 1_555
O5 Sr2 2.616237 1_645
O5 Sr2 2.616237 1_545
O6 Zn2 1.949713 1_565
O6 Zn3 2.033777 1_555
O6 Sr1 2.573969 1_455
O6 Sr1 2.573969 1_555
O6 Sr3 2.616237 1_565
O6 Sr3 2.616237 1_465
O7 Zn1 1.949713 1_555
O7 Zn0 2.033777 1_555
O7 Sr2 2.573969 1_555
O7 Sr2 2.573969 1_655
O7 Sr0 2.616237 1_555
O7 Sr0 2.616237 1_655
