# generated using pymatgen
data_Pr3CuGeSe7
_symmetry_space_group_name_H-M   'P 1'
_cell_length_a   10.70549780
_cell_length_b   10.70549780
_cell_length_c   6.18185500
_cell_angle_alpha   90.00000000
_cell_angle_beta   90.00000000
_cell_angle_gamma   119.99999878
_symmetry_Int_Tables_number   1
_chemical_formula_structural   Pr3CuGeSe7
_chemical_formula_sum   'Pr6 Cu2 Ge2 Se14'
_cell_volume   613.56868260
_cell_formula_units_Z   2
loop_
 _symmetry_equiv_pos_site_id
 _symmetry_equiv_pos_as_xyz
  1  'x, y, z'
loop_
 _atom_site_type_symbol
 _atom_site_label
 _atom_site_symmetry_multiplicity
 _atom_site_fract_x
 _atom_site_fract_y
 _atom_site_fract_z
 _atom_site_occupancy
  Pr  Pr0  1  0.13037900  0.35544900  0.74848400  1
  Pr  Pr1  1  0.22507000  0.86962100  0.74848400  1
  Pr  Pr2  1  0.64455100  0.77493000  0.74848400  1
  Pr  Pr3  1  0.35544900  0.22507000  0.24848400  1
  Pr  Pr4  1  0.77493000  0.13037900  0.24848400  1
  Pr  Pr5  1  0.86962100  0.64455100  0.24848400  1
  Cu  Cu0  1  0.00000000  0.00000000  0.21702500  1
  Cu  Cu1  1  0.00000000  0.00000000  0.71702500  1
  Ge  Ge0  1  0.66666700  0.33333300  0.83213100  1
  Ge  Ge1  1  0.33333300  0.66666700  0.33213100  1
  Se  Se0  1  0.16155000  0.90585000  0.23014400  1
  Se  Se1  1  0.25570000  0.16155000  0.73014400  1
  Se  Se2  1  0.51922800  0.09887000  0.98943800  1
  Se  Se3  1  0.33333300  0.66666700  0.95044500  1
  Se  Se4  1  0.90585000  0.74430000  0.73014400  1
  Se  Se5  1  0.66666700  0.33333300  0.45044500  1
  Se  Se6  1  0.57964200  0.48077200  0.98943800  1
  Se  Se7  1  0.09887000  0.57964200  0.48943800  1
  Se  Se8  1  0.42035800  0.51922800  0.48943800  1
  Se  Se9  1  0.74430000  0.83845000  0.23014400  1
  Se  Se10  1  0.90113000  0.42035800  0.98943800  1
  Se  Se11  1  0.83845000  0.09415000  0.73014400  1
  Se  Se12  1  0.09415000  0.25570000  0.23014400  1
  Se  Se13  1  0.48077200  0.90113000  0.48943800  1
loop_
_geom_bond_atom_site_label_1
_geom_bond_atom_site_label_2
_geom_bond_distance
_geom_bond_site_symmetry_2
Pr0 Se11 2.977035 1_455
Pr0 Se1 2.984395 1_555
Pr0 Se7 3.041100 1_555
Pr0 Se12 3.121283 1_556
Pr0 Se8 3.135718 1_555
Pr0 Se3 3.184497 1_555
Pr0 Se10 3.229585 1_455
Pr0 Se12 3.338285 1_555
Pr1 Se1 2.977035 1_565
Pr1 Se4 2.984395 1_455
Pr1 Se13 3.041100 1_555
Pr1 Se0 3.121283 1_556
Pr1 Se7 3.135718 1_555
Pr1 Se3 3.184490 1_555
Pr1 Se2 3.229585 1_565
Pr1 Se0 3.338285 1_555
Pr2 Se4 2.977035 1_555
Pr2 Se11 2.984395 1_565
Pr2 Se8 3.041100 1_555
Pr2 Se9 3.121283 1_556
Pr2 Se13 3.135718 1_555
Pr2 Se3 3.184499 1_555
Pr2 Se6 3.229585 1_555
Pr2 Se9 3.338285 1_555
Pr3 Se12 2.977035 1_555
Pr3 Se0 2.984395 1_545
Pr3 Se6 3.041100 1_554
Pr3 Se1 3.121283 1_555
Pr3 Se2 3.135718 1_554
Pr3 Se5 3.184499 1_555
Pr3 Se8 3.229585 1_555
Pr3 Se1 3.338285 1_554
Pr4 Se9 2.977035 1_545
Pr4 Se12 2.984395 1_655
Pr4 Se2 3.041100 1_554
Pr4 Se11 3.121283 1_555
Pr4 Se10 3.135718 1_554
Pr4 Se5 3.184490 1_555
Pr4 Se13 3.229585 1_545
Pr4 Se11 3.338285 1_554
Pr5 Se0 2.977035 1_655
Pr5 Se9 2.984395 1_555
Pr5 Se10 3.041100 1_554
Pr5 Se4 3.121283 1_555
Pr5 Se6 3.135718 1_554
Pr5 Se5 3.184497 1_555
Pr5 Se7 3.229585 1_655
Pr5 Se4 3.338285 1_554
Cu0 Se0 2.399320 1_545
Cu0 Se12 2.399320 1_555
Cu0 Se9 2.399320 1_445
Cu1 Se11 2.399320 1_455
Cu1 Se4 2.399320 1_445
Cu1 Se1 2.399320 1_555
Ge0 Se5 2.359528 1_555
Ge0 Se10 2.403220 1_555
Ge0 Se2 2.403221 1_555
Ge0 Se6 2.403229 1_555
Ge1 Se3 2.359528 1_554
Ge1 Se7 2.403220 1_555
Ge1 Se13 2.403221 1_555
Ge1 Se8 2.403229 1_555
