# generated using pymatgen
data_CsTeF5
_symmetry_space_group_name_H-M   'P 1'
_cell_length_a   6.62500673
_cell_length_b   8.21265692
_cell_length_c   10.09524274
_cell_angle_alpha   90.00000000
_cell_angle_beta   90.00000000
_cell_angle_gamma   90.00000000
_symmetry_Int_Tables_number   1
_chemical_formula_structural   CsTeF5
_chemical_formula_sum   'Cs4 Te4 F20'
_cell_volume   549.27112708
_cell_formula_units_Z   4
loop_
 _symmetry_equiv_pos_site_id
 _symmetry_equiv_pos_as_xyz
  1  'x, y, z'
loop_
 _atom_site_type_symbol
 _atom_site_label
 _atom_site_symmetry_multiplicity
 _atom_site_fract_x
 _atom_site_fract_y
 _atom_site_fract_z
 _atom_site_occupancy
  Cs  Cs0  1  0.25000000  0.63413477  0.17030195  1
  Cs  Cs1  1  0.75000000  0.36586523  0.82969805  1
  Cs  Cs2  1  0.75000000  0.13413477  0.32969805  1
  Cs  Cs3  1  0.25000000  0.86586523  0.67030195  1
  Te  Te0  1  0.25000000  0.13829431  0.06734837  1
  Te  Te1  1  0.75000000  0.86170569  0.93265163  1
  Te  Te2  1  0.75000000  0.63829431  0.43265163  1
  Te  Te3  1  0.25000000  0.36170569  0.56734837  1
  F  F0  1  0.04688333  0.97923757  0.13514836  1
  F  F1  1  0.54688333  0.02076243  0.86485164  1
  F  F2  1  0.95311667  0.47923757  0.36485164  1
  F  F3  1  0.45311667  0.52076243  0.63514836  1
  F  F4  1  0.95311667  0.02076243  0.86485164  1
  F  F5  1  0.45311667  0.97923757  0.13514836  1
  F  F6  1  0.04688333  0.52076243  0.63514836  1
  F  F7  1  0.54688333  0.47923757  0.36485164  1
  F  F8  1  0.03647678  0.30785028  0.06943419  1
  F  F9  1  0.53647678  0.69214972  0.93056581  1
  F  F10  1  0.96352322  0.80785028  0.43056581  1
  F  F11  1  0.46352322  0.19214972  0.56943419  1
  F  F12  1  0.96352322  0.69214972  0.93056581  1
  F  F13  1  0.46352322  0.30785028  0.06943419  1
  F  F14  1  0.03647678  0.19214972  0.56943419  1
  F  F15  1  0.53647678  0.80785028  0.43056581  1
  F  F16  1  0.25000000  0.19417994  0.24967167  1
  F  F17  1  0.75000000  0.80582006  0.75032833  1
  F  F18  1  0.75000000  0.69417994  0.25032833  1
  F  F19  1  0.25000000  0.30582006  0.74967167  1
loop_
_geom_bond_atom_site_label_1
_geom_bond_atom_site_label_2
_geom_bond_distance
_geom_bond_site_symmetry_2
Cs0 F2 3.056828 1_455
Cs0 F7 3.056828 1_555
Cs0 F12 3.112301 1_454
Cs0 F9 3.112301 1_554
Cs0 F5 3.157446 1_555
Cs0 F0 3.157446 1_555
Cs0 F8 3.196649 1_555
Cs0 F13 3.196649 1_555
Cs0 F18 3.445074 1_455
Cs0 F18 3.445074 1_555
Cs0 F15 3.541301 1_555
Cs0 F10 3.541301 1_455
Cs1 F6 3.056828 1_655
Cs1 F3 3.056828 1_555
Cs1 F13 3.112301 1_556
Cs1 F8 3.112301 1_656
Cs1 F4 3.157446 1_555
Cs1 F1 3.157446 1_555
Cs1 F12 3.196649 1_555
Cs1 F9 3.196649 1_555
Cs1 F19 3.445074 1_655
Cs1 F19 3.445074 1_555
Cs1 F11 3.541301 1_555
Cs1 F14 3.541301 1_655
Cs2 F5 3.056828 1_545
Cs2 F0 3.056828 1_645
Cs2 F11 3.112301 1_555
Cs2 F14 3.112301 1_655
Cs2 F2 3.157446 1_555
Cs2 F7 3.157446 1_555
Cs2 F10 3.196649 1_545
Cs2 F15 3.196649 1_545
Cs2 F16 3.445074 1_555
Cs2 F16 3.445074 1_655
Cs2 F13 3.541301 1_555
Cs2 F8 3.541301 1_655
Cs3 F4 3.056828 1_465
Cs3 F1 3.056828 1_565
Cs3 F15 3.112301 1_555
Cs3 F10 3.112301 1_455
Cs3 F6 3.157446 1_555
Cs3 F3 3.157446 1_555
Cs3 F14 3.196649 1_565
Cs3 F11 3.196649 1_565
Cs3 F17 3.445074 1_555
Cs3 F17 3.445074 1_455
Cs3 F12 3.541301 1_455
Cs3 F9 3.541301 1_555
F0 Te0 1.996401 1_565
F1 Te1 1.996401 1_545
F2 Te2 1.996401 1_555
F3 Te3 1.996401 1_555
F4 Te1 1.996401 1_545
F5 Te0 1.996401 1_565
F6 Te3 1.996401 1_555
F7 Te2 1.996401 1_555
F8 Te0 1.985091 1_555
F9 Te1 1.985091 1_555
F10 Te2 1.985091 1_555
F11 Te3 1.985091 1_555
F12 Te1 1.985091 1_555
F13 Te0 1.985091 1_555
F14 Te3 1.985091 1_555
F15 Te2 1.985091 1_555
F16 Te0 1.896959 1_555
F17 Te1 1.896959 1_555
F18 Te2 1.896959 1_555
F19 Te3 1.896959 1_555
