# generated using pymatgen
data_TbMg2Cu9
_symmetry_space_group_name_H-M   'P 1'
_cell_length_a   4.95594542
_cell_length_b   4.95594445
_cell_length_c   16.05414407
_cell_angle_alpha   89.99999600
_cell_angle_beta   89.99998731
_cell_angle_gamma   119.99197823
_symmetry_Int_Tables_number   1
_chemical_formula_structural   TbMg2Cu9
_chemical_formula_sum   'Tb2 Mg4 Cu18'
_cell_volume   341.51189309
_cell_formula_units_Z   2
loop_
 _symmetry_equiv_pos_site_id
 _symmetry_equiv_pos_as_xyz
  1  'x, y, z'
loop_
 _atom_site_type_symbol
 _atom_site_label
 _atom_site_symmetry_multiplicity
 _atom_site_fract_x
 _atom_site_fract_y
 _atom_site_fract_z
 _atom_site_occupancy
  Tb  Tb0  1  0.33333196  0.66666700  0.74995376  1
  Tb  Tb1  1  0.66666740  0.33333172  0.25005025  1
  Mg  Mg0  1  0.33333316  0.66666658  0.53214207  1
  Mg  Mg1  1  0.66666728  0.33333293  0.03215024  1
  Mg  Mg2  1  0.66666772  0.33333379  0.46786998  1
  Mg  Mg3  1  0.33333386  0.66666798  0.96784411  1
  Cu  Cu0  1  0.00000361  0.00000392  0.99991743  1
  Cu  Cu1  1  0.00000201  0.00000348  0.50008477  1
  Cu  Cu2  1  0.00000459  0.99999555  0.25013449  1
  Cu  Cu3  1  0.99999607  0.00000292  0.74986947  1
  Cu  Cu4  1  0.33332807  0.66666964  0.25013397  1
  Cu  Cu5  1  0.66666967  0.33332655  0.74986683  1
  Cu  Cu6  1  0.16777600  0.33553597  0.12342457  1
  Cu  Cu7  1  0.83220461  0.16779490  0.62329590  1
  Cu  Cu8  1  0.33559869  0.16780752  0.62329727  1
  Cu  Cu9  1  0.66446442  0.83222405  0.12342449  1
  Cu  Cu10  1  0.16776356  0.83223707  0.12342365  1
  Cu  Cu11  1  0.83218734  0.66438951  0.87655834  1
  Cu  Cu12  1  0.83219793  0.16780050  0.87655958  1
  Cu  Cu13  1  0.83219171  0.66440063  0.62329693  1
  Cu  Cu14  1  0.33561059  0.16781193  0.87655894  1
  Cu  Cu15  1  0.66443920  0.83221161  0.37671426  1
  Cu  Cu16  1  0.16778778  0.33556011  0.37671462  1
  Cu  Cu17  1  0.16777579  0.83222314  0.37671508  1
loop_
_geom_bond_atom_site_label_1
_geom_bond_atom_site_label_2
_geom_bond_distance
_geom_bond_site_symmetry_2
Cu0 Cu12 2.448791 1_455
Cu0 Cu14 2.448913 1_555
Cu0 Cu11 2.448940 1_445
Cu0 Cu10 2.450527 1_546
Cu0 Cu6 2.450655 1_556
Cu0 Cu9 2.450672 1_446
Cu0 Mg3 2.907162 1_545
Cu0 Mg3 2.907494 1_555
Cu0 Mg3 2.907519 1_445
Cu0 Mg1 2.907613 1_456
Cu0 Mg1 2.907947 1_556
Cu0 Mg1 2.907977 1_446
Cu1 Cu7 2.446852 1_455
Cu1 Cu8 2.446993 1_555
Cu1 Cu13 2.447004 1_445
Cu1 Cu17 2.448823 1_545
Cu1 Cu16 2.448938 1_555
Cu1 Cu15 2.448959 1_445
Cu1 Mg0 2.907124 1_545
Cu1 Mg0 2.907444 1_555
Cu1 Mg0 2.907469 1_445
Cu1 Mg2 2.907558 1_455
Cu1 Mg2 2.907904 1_555
Cu1 Mg2 2.907921 1_445
Cu2 Cu6 2.492460 1_565
Cu2 Cu9 2.492462 1_455
Cu2 Cu4 2.861126 1_555
Cu2 Tb1 2.861230 1_465
Cu2 Tb1 2.861531 1_565
Cu2 Tb1 2.861535 1_455
Cu2 Cu4 2.861579 1_565
Cu2 Cu4 2.861590 1_455
Cu3 Cu7 2.490680 1_555
Cu3 Cu8 2.490811 1_655
Cu3 Cu5 2.861129 1_555
Cu3 Tb0 2.861223 1_645
Cu3 Tb0 2.861536 1_655
Cu3 Tb0 2.861537 1_545
Cu3 Cu5 2.861577 1_655
Cu3 Cu5 2.861589 1_545
Cu4 Cu6 2.481572 1_555
Cu4 Cu9 2.481579 1_555
Cu4 Tb1 2.861246 1_555
Cu4 Tb1 2.861522 1_455
Cu4 Tb1 2.861528 1_565
Cu5 Cu7 2.479486 1_555
Cu5 Cu8 2.479578 1_555
Cu5 Tb0 2.861250 1_555
Cu5 Tb0 2.861517 1_545
Cu5 Tb0 2.861529 1_655
Cu6 Cu9 2.461858 1_555
Cu6 Cu9 2.494688 1_445
Cu6 Mg3 2.873799 1_554
Cu6 Mg1 2.878793 1_555
Cu6 Mg1 2.878857 1_455
Cu6 Tb1 3.205124 1_555
Cu6 Tb1 3.205175 1_455
Cu7 Cu8 2.461183 1_555
Cu7 Cu8 2.494762 1_655
Cu7 Mg2 2.871439 1_555
Cu7 Mg0 2.878100 1_545
Cu7 Mg0 2.878100 1_655
Cu7 Tb0 3.205710 1_655
Cu7 Tb0 3.205711 1_545
Cu8 Mg2 2.871529 1_555
Cu8 Mg0 2.877816 1_555
Cu8 Mg0 2.877889 1_545
Cu8 Tb0 3.205436 1_555
Cu8 Tb0 3.205492 1_545
Cu9 Mg3 2.873796 1_554
Cu9 Mg1 2.878791 1_555
Cu9 Mg1 2.878857 1_565
Cu9 Tb1 3.205126 1_555
Cu9 Tb1 3.205175 1_565
Cu10 Cu6 2.461654 1_555
Cu10 Cu9 2.461655 1_555
Cu10 Cu4 2.481481 1_555
Cu10 Cu2 2.492315 1_555
Cu10 Cu6 2.494291 1_565
Cu10 Cu9 2.494291 1_455
Cu10 Mg3 2.873717 1_554
Cu10 Mg1 2.879075 1_565
Cu10 Mg1 2.879077 1_455
Cu10 Tb1 3.205389 1_565
Cu10 Tb1 3.205394 1_455
Cu11 Cu12 2.461094 1_555
Cu11 Cu14 2.461307 1_555
Cu11 Cu5 2.481163 1_555
Cu11 Cu3 2.492366 1_565
Cu11 Cu12 2.494851 1_565
Cu11 Cu14 2.495238 1_665
Cu11 Mg1 2.873799 1_556
Cu11 Mg3 2.878887 1_555
Cu11 Mg3 2.878952 1_655
Cu11 Tb0 3.204913 1_555
Cu11 Tb0 3.204959 1_655
Cu12 Cu14 2.461088 1_555
Cu12 Cu5 2.481059 1_555
Cu12 Cu3 2.492237 1_555
Cu12 Cu14 2.494857 1_655
Cu12 Mg1 2.873711 1_556
Cu12 Mg3 2.879160 1_545
Cu12 Mg3 2.879175 1_655
Cu12 Tb0 3.205180 1_545
Cu12 Tb0 3.205181 1_655
Cu13 Cu7 2.461182 1_555
Cu13 Cu8 2.461386 1_555
Cu13 Cu5 2.479589 1_555
Cu13 Cu3 2.490815 1_565
Cu13 Cu7 2.494762 1_565
Cu13 Cu8 2.495160 1_665
Cu13 Mg2 2.871520 1_555
Cu13 Mg0 2.877813 1_555
Cu13 Mg0 2.877887 1_655
Cu13 Tb0 3.205439 1_555
Cu13 Tb0 3.205496 1_655
Cu14 Cu5 2.481161 1_555
Cu14 Cu3 2.492377 1_455
Cu14 Mg1 2.873792 1_556
Cu14 Mg3 2.878889 1_555
Cu14 Mg3 2.878939 1_545
Cu14 Tb0 3.204919 1_555
Cu14 Tb0 3.204964 1_545
Cu15 Cu17 2.461465 1_555
Cu15 Cu16 2.461676 1_555
Cu15 Cu4 2.479818 1_555
Cu15 Cu2 2.490817 1_655
Cu15 Cu17 2.494480 1_655
Cu15 Cu16 2.494870 1_665
Cu15 Mg0 2.871615 1_555
Cu15 Mg2 2.877821 1_555
Cu15 Mg2 2.877891 1_565
Cu15 Tb1 3.205516 1_555
Cu15 Tb1 3.205564 1_565
Cu16 Cu17 2.461464 1_555
Cu16 Cu4 2.479818 1_555
Cu16 Cu2 2.490820 1_545
Cu16 Cu17 2.494480 1_545
Cu16 Mg0 2.871611 1_555
Cu16 Mg2 2.877823 1_555
Cu16 Mg2 2.877884 1_455
Cu16 Tb1 3.205519 1_555
Cu16 Tb1 3.205569 1_455
Cu17 Cu4 2.479716 1_555
Cu17 Cu2 2.490673 1_555
Cu17 Mg0 2.871535 1_555
Cu17 Mg2 2.878102 1_455
Cu17 Mg2 2.878114 1_565
Cu17 Tb1 3.205781 1_565
Cu17 Tb1 3.205781 1_455
