# generated using pymatgen
data_Pr8Sb2S15
_symmetry_space_group_name_H-M   'P 1'
_cell_length_a   15.01010113
_cell_length_b   15.01010113
_cell_length_c   15.01010113
_cell_angle_alpha   116.37616551
_cell_angle_beta   116.37616551
_cell_angle_gamma   96.40034600
_symmetry_Int_Tables_number   1
_chemical_formula_structural   Pr8Sb2S15
_chemical_formula_sum   'Pr32 Sb8 S60'
_cell_volume   2505.36134284
_cell_formula_units_Z   4
loop_
 _symmetry_equiv_pos_site_id
 _symmetry_equiv_pos_as_xyz
  1  'x, y, z'
loop_
 _atom_site_type_symbol
 _atom_site_label
 _atom_site_symmetry_multiplicity
 _atom_site_fract_x
 _atom_site_fract_y
 _atom_site_fract_z
 _atom_site_occupancy
  Pr  Pr0  1  0.39921000  0.89233300  0.79291500  1
  Pr  Pr1  1  0.35629500  0.64921000  0.00687700  1
  Pr  Pr2  1  0.89921000  0.10629500  0.50687700  1
  Pr  Pr3  1  0.21768500  0.58379300  0.67315100  1
  Pr  Pr4  1  0.14233300  0.14921000  0.29291500  1
  Pr  Pr5  1  0.59941800  0.39233300  0.49312300  1
  Pr  Pr6  1  0.33379300  0.16064100  0.86610800  1
  Pr  Pr7  1  0.31691200  0.47203600  0.42975300  1
  Pr  Pr8  1  0.95080400  0.28069600  0.36977700  1
  Pr  Pr9  1  0.71768500  0.04453400  0.63389200  1
  Pr  Pr10  1  0.41064100  0.08379300  0.36610800  1
  Pr  Pr11  1  0.13715800  0.79228200  0.07024700  1
  Pr  Pr12  1  0.29453400  0.46768500  0.13389200  1
  Pr  Pr13  1  0.81691200  0.38715800  0.84487600  1
  Pr  Pr14  1  0.04228200  0.88715800  0.57024700  1
  Pr  Pr15  1  0.22203600  0.29228200  0.65512400  1
  Pr  Pr16  1  0.91064100  0.54453400  0.32684900  1
  Pr  Pr17  1  0.41091900  0.78069600  0.32989200  1
  Pr  Pr18  1  0.85629500  0.84941800  0.70708500  1
  Pr  Pr19  1  0.53069600  0.70080400  0.86977700  1
  Pr  Pr20  1  0.83379300  0.96768500  0.17315100  1
  Pr  Pr21  1  0.63715800  0.56691200  0.34487600  1
  Pr  Pr22  1  0.09941800  0.60629500  0.20708500  1
  Pr  Pr23  1  0.33102700  0.20080400  0.17010800  1
  Pr  Pr24  1  0.64233300  0.34941800  0.99312300  1
  Pr  Pr25  1  0.72203600  0.06691200  0.92975300  1
  Pr  Pr26  1  0.91091900  0.58102700  0.63022300  1
  Pr  Pr27  1  0.03069600  0.16091900  0.82989200  1
  Pr  Pr28  1  0.79453400  0.66064100  0.82684900  1
  Pr  Pr29  1  0.54228200  0.97203600  0.15512400  1
  Pr  Pr30  1  0.45080400  0.08102700  0.67010800  1
  Pr  Pr31  1  0.83102700  0.66091900  0.13022300  1
  Sb  Sb0  1  0.99396300  0.31405800  0.11312600  1
  Sb  Sb1  1  0.63083700  0.24396300  0.17990600  1
  Sb  Sb2  1  0.13083700  0.95093100  0.38687400  1
  Sb  Sb3  1  0.56405800  0.74396300  0.61312600  1
  Sb  Sb4  1  0.49396300  0.38083700  0.67990600  1
  Sb  Sb5  1  0.20093100  0.88083700  0.88687400  1
  Sb  Sb6  1  0.06405800  0.45093100  0.82009400  1
  Sb  Sb7  1  0.70093100  0.81405800  0.32009400  1
  S  S0  1  0.37298400  0.67216400  0.64687700  1
  S  S1  1  0.05118200  0.38316300  0.01262600  1
  S  S2  1  0.87062900  0.06659400  0.85048200  1
  S  S3  1  0.87038300  0.46294700  0.08723100  1
  S  S4  1  0.42216400  0.27528700  0.79918000  1
  S  S5  1  0.47610700  0.62298400  0.20082000  1
  S  S6  1  0.73272100  0.84175300  0.81618900  1
  S  S7  1  0.66091300  0.46897400  0.88657400  1
  S  S8  1  0.87571600  0.96294700  0.59256400  1
  S  S9  1  0.52528700  0.17216400  0.29918000  1
  S  S10  1  0.44889600  0.43898900  0.32294200  1
  S  S11  1  0.71611200  0.56659400  0.19596500  1
  S  S12  1  0.16653200  0.77556400  0.68381100  1
  S  S13  1  0.23272100  0.41653200  0.89096800  1
  S  S14  1  0.68898900  0.19889600  0.82294200  1
  S  S15  1  0.13316300  0.62053700  0.83198100  1
  S  S16  1  0.02528700  0.72610700  0.35312300  1
  S  S17  1  0.52556400  0.34175300  0.10903200  1
  S  S18  1  0.63316300  0.80118200  0.51262600  1
  S  S19  1  0.28855600  0.12053700  0.48737400  1
  S  S20  1  0.18898900  0.36604700  0.49009300  1
  S  S21  1  0.92216400  0.12298400  0.14687700  1
  S  S22  1  0.66653200  0.98272100  0.39096800  1
  S  S23  1  0.08240000  0.96897400  0.80806100  1
  S  S24  1  0.74946400  0.74946400  0.00000000  1
  S  S25  1  0.16091300  0.27433900  0.19193900  1
  S  S26  1  0.55118200  0.53855600  0.66801900  1
  S  S27  1  0.78855600  0.30118200  0.16801900  1
  S  S28  1  0.77014700  0.12062900  0.30403500  1
  S  S29  1  0.87595400  0.69889600  0.50990700  1
  S  S30  1  0.71897400  0.41091300  0.38657400  1
  S  S31  1  0.02433900  0.33240000  0.61342600  1
  S  S32  1  0.09175300  0.48272100  0.31618900  1
  S  S33  1  0.27014700  0.96611200  0.64951800  1
  S  S34  1  0.21294700  0.62571600  0.09256400  1
  S  S35  1  0.31659400  0.62062900  0.35048200  1
  S  S36  1  0.87298400  0.22610700  0.70082000  1
  S  S37  1  0.21897400  0.83240000  0.30806100  1
  S  S38  1  0.37038300  0.28315200  0.40743600  1
  S  S39  1  0.49946400  0.99946400  0.50000000  1
  S  S40  1  0.94889600  0.62595400  0.00990700  1
  S  S41  1  0.99946400  0.49946400  0.50000000  1
  S  S42  1  0.58240000  0.77433900  0.11342600  1
  S  S43  1  0.59175300  0.27556400  0.60903200  1
  S  S44  1  0.81659400  0.46611200  0.69596500  1
  S  S45  1  0.03315200  0.12571600  0.41276900  1
  S  S46  1  0.37571600  0.78315200  0.91276900  1
  S  S47  1  0.53315200  0.12038300  0.90743600  1
  S  S48  1  0.02556400  0.91653200  0.18381100  1
  S  S49  1  0.71294700  0.62038300  0.58723100  1
  S  S50  1  0.97610700  0.77528700  0.85312300  1
  S  S51  1  0.21611200  0.02014700  0.14951800  1
  S  S52  1  0.37595400  0.86604700  0.17705800  1
  S  S53  1  0.37053700  0.03855600  0.98737400  1
  S  S54  1  0.61604700  0.93898900  0.99009300  1
  S  S55  1  0.37062900  0.52014700  0.80403500  1
  S  S56  1  0.24946400  0.24946400  0.00000000  1
  S  S57  1  0.87053700  0.88316300  0.33198100  1
  S  S58  1  0.11604700  0.12595400  0.67705800  1
  S  S59  1  0.52433900  0.91091300  0.69193900  1
loop_
_geom_bond_atom_site_label_1
_geom_bond_atom_site_label_2
_geom_bond_distance
_geom_bond_site_symmetry_2
Pr0 S0 2.896215 1_555
Pr0 S33 2.916074 1_555
Pr0 S59 2.948017 1_555
Pr0 S47 2.980093 1_565
Pr0 S54 2.989060 1_555
Pr0 S12 2.992410 1_555
Pr0 S46 3.016789 1_555
Pr0 S53 3.026011 1_565
Pr1 S5 2.896215 1_555
Pr1 S55 2.916074 1_554
Pr1 S42 2.948017 1_555
Pr1 S46 2.980093 1_554
Pr1 S52 2.989060 1_555
Pr1 S13 2.992410 1_554
Pr1 S34 3.016789 1_555
Pr1 S15 3.026011 1_554
Pr2 S36 2.896215 1_555
Pr2 S28 2.916074 1_555
Pr2 S31 2.948017 1_655
Pr2 S45 2.980093 1_655
Pr2 S58 2.989060 1_655
Pr2 S22 2.992410 1_545
Pr2 S8 3.016789 1_545
Pr2 S57 3.026011 1_545
Pr3 S41 2.770298 1_455
Pr3 S0 2.817996 1_555
Pr3 S55 2.862122 1_555
Pr3 S46 2.965013 1_555
Pr3 S20 3.012125 1_555
Pr3 S12 3.015557 1_555
Pr3 S15 3.045095 1_555
Pr4 S21 2.896215 1_455
Pr4 S51 2.916074 1_555
Pr4 S25 2.948017 1_555
Pr4 S38 2.980093 1_555
Pr4 S20 2.989060 1_555
Pr4 S48 2.992410 1_545
Pr4 S45 3.016789 1_555
Pr4 S19 3.026011 1_555
Pr5 S9 2.896215 1_555
Pr5 S44 2.916074 1_555
Pr5 S30 2.948017 1_555
Pr5 S49 2.980093 1_555
Pr5 S10 2.989060 1_555
Pr5 S43 2.992410 1_555
Pr5 S38 3.016789 1_555
Pr5 S26 3.026011 1_555
Pr6 S56 2.770302 1_556
Pr6 S4 2.818006 1_555
Pr6 S33 2.862115 1_545
Pr6 S47 2.965007 1_555
Pr6 S58 3.012131 1_555
Pr6 S17 3.015561 1_556
Pr6 S53 3.045081 1_555
Pr7 S25 2.939916 1_555
Pr7 S0 2.941755 1_555
Pr7 S38 2.949054 1_555
Pr7 S35 2.957335 1_555
Pr7 S10 3.012600 1_555
Pr7 S20 3.030290 1_555
Pr7 S32 3.098142 1_555
Pr7 S26 3.320078 1_555
Pr8 S41 2.762380 1_555
Pr8 S28 2.857068 1_555
Pr8 S21 2.905270 1_555
Pr8 S45 2.936313 1_655
Pr8 S20 2.978406 1_655
Pr8 S31 2.982636 1_655
Pr8 S27 3.104522 1_555
Pr9 S39 2.770298 1_545
Pr9 S36 2.817996 1_555
Pr9 S2 2.862122 1_555
Pr9 S8 2.965013 1_545
Pr9 S14 3.012125 1_555
Pr9 S22 3.015557 1_545
Pr9 S18 3.045095 1_545
Pr10 S39 2.770302 1_545
Pr10 S9 2.818006 1_555
Pr10 S51 2.862115 1_555
Pr10 S38 2.965007 1_555
Pr10 S52 3.012131 1_545
Pr10 S43 3.015561 1_555
Pr10 S19 3.045081 1_555
Pr11 S37 2.939908 1_555
Pr11 S50 2.941758 1_454
Pr11 S34 2.949047 1_555
Pr11 S51 2.957350 1_565
Pr11 S52 3.012614 1_555
Pr11 S40 3.030270 1_455
Pr11 S48 3.098135 1_555
Pr11 S15 3.320081 1_554
Pr12 S56 2.770298 1_555
Pr12 S5 2.817996 1_555
Pr12 S35 2.862122 1_555
Pr12 S34 2.965013 1_555
Pr12 S10 3.012125 1_555
Pr12 S13 3.015557 1_554
Pr12 S1 3.045095 1_555
Pr13 S7 2.939922 1_555
Pr13 S36 2.941747 1_555
Pr13 S3 2.949052 1_556
Pr13 S44 2.957346 1_555
Pr13 S40 3.012612 1_556
Pr13 S14 3.030277 1_555
Pr13 S43 3.098143 1_555
Pr13 S1 3.320070 1_656
Pr14 S23 2.939908 1_555
Pr14 S16 2.941758 1_555
Pr14 S8 2.949047 1_455
Pr14 S33 2.957350 1_555
Pr14 S58 3.012614 1_565
Pr14 S29 3.030270 1_455
Pr14 S12 3.098135 1_555
Pr14 S57 3.320081 1_455
Pr15 S31 2.939922 1_555
Pr15 S4 2.941747 1_555
Pr15 S45 2.949052 1_555
Pr15 S55 2.957346 1_555
Pr15 S20 3.012612 1_555
Pr15 S58 3.030277 1_555
Pr15 S13 3.098143 1_555
Pr15 S19 3.320070 1_555
Pr16 S41 2.770300 1_555
Pr16 S16 2.818002 1_655
Pr16 S11 2.862111 1_555
Pr16 S3 2.965019 1_555
Pr16 S29 3.012115 1_555
Pr16 S32 3.015572 1_655
Pr16 S27 3.045093 1_555
Pr17 S39 2.762380 1_555
Pr17 S35 2.857068 1_555
Pr17 S5 2.905270 1_555
Pr17 S34 2.936313 1_555
Pr17 S52 2.978406 1_555
Pr17 S37 2.982636 1_555
Pr17 S18 3.104522 1_555
Pr18 S50 2.896215 1_555
Pr18 S2 2.916074 1_565
Pr18 S23 2.948017 1_655
Pr18 S8 2.980093 1_555
Pr18 S29 2.989060 1_555
Pr18 S6 2.992410 1_555
Pr18 S49 3.016789 1_555
Pr18 S18 3.026011 1_555
Pr19 S24 2.762380 1_556
Pr19 S55 2.857068 1_555
Pr19 S0 2.905270 1_555
Pr19 S46 2.936313 1_555
Pr19 S54 2.978406 1_555
Pr19 S42 2.982636 1_556
Pr19 S26 3.104522 1_555
Pr20 S24 2.770298 1_555
Pr20 S21 2.817996 1_565
Pr20 S28 2.862122 1_565
Pr20 S45 2.965013 1_665
Pr20 S54 3.012125 1_554
Pr20 S48 3.015557 1_655
Pr20 S57 3.045095 1_555
Pr21 S30 2.939922 1_555
Pr21 S5 2.941747 1_555
Pr21 S49 2.949052 1_555
Pr21 S11 2.957346 1_555
Pr21 S29 3.012612 1_555
Pr21 S10 3.030277 1_555
Pr21 S17 3.098143 1_555
Pr21 S18 3.320070 1_555
Pr22 S16 2.896215 1_555
Pr22 S35 2.916074 1_555
Pr22 S37 2.948017 1_555
Pr22 S34 2.980093 1_555
Pr22 S40 2.989060 1_455
Pr22 S32 2.992410 1_555
Pr22 S3 3.016789 1_455
Pr22 S1 3.026011 1_555
Pr23 S56 2.762380 1_555
Pr23 S51 2.857068 1_555
Pr23 S9 2.905270 1_555
Pr23 S38 2.936313 1_555
Pr23 S10 2.978406 1_555
Pr23 S25 2.982636 1_555
Pr23 S53 3.104522 1_554
Pr24 S4 2.896215 1_555
Pr24 S11 2.916074 1_556
Pr24 S7 2.948017 1_555
Pr24 S3 2.980093 1_556
Pr24 S14 2.989060 1_555
Pr24 S17 2.992410 1_556
Pr24 S47 3.016789 1_555
Pr24 S27 3.026011 1_556
Pr25 S59 2.939916 1_545
Pr25 S21 2.941755 1_556
Pr25 S47 2.949054 1_555
Pr25 S2 2.957335 1_555
Pr25 S14 3.012600 1_555
Pr25 S54 3.030290 1_545
Pr25 S6 3.098142 1_545
Pr25 S27 3.320078 1_556
Pr26 S41 2.762380 1_555
Pr26 S44 2.857068 1_555
Pr26 S50 2.905270 1_555
Pr26 S49 2.936313 1_555
Pr26 S29 2.978406 1_555
Pr26 S30 2.982636 1_555
Pr26 S15 3.104522 1_655
Pr27 S56 2.762380 1_556
Pr27 S2 2.857068 1_455
Pr27 S36 2.905270 1_455
Pr27 S8 2.936313 1_445
Pr27 S58 2.978406 1_555
Pr27 S23 2.982636 1_545
Pr27 S1 3.104522 1_556
Pr28 S24 2.770300 1_556
Pr28 S50 2.818002 1_555
Pr28 S44 2.862111 1_555
Pr28 S49 2.965019 1_555
Pr28 S40 3.012115 1_556
Pr28 S6 3.015572 1_555
Pr28 S26 3.045093 1_555
Pr29 S42 2.939922 1_555
Pr29 S9 2.941747 1_565
Pr29 S46 2.949052 1_554
Pr29 S28 2.957346 1_565
Pr29 S54 3.012612 1_554
Pr29 S52 3.030277 1_555
Pr29 S22 3.098143 1_555
Pr29 S53 3.320070 1_564
Pr30 S39 2.762380 1_545
Pr30 S33 2.857068 1_545
Pr30 S4 2.905270 1_555
Pr30 S47 2.936313 1_555
Pr30 S14 2.978406 1_555
Pr30 S59 2.982636 1_545
Pr30 S19 3.104522 1_555
Pr31 S24 2.762380 1_555
Pr31 S11 2.857068 1_555
Pr31 S16 2.905270 1_655
Pr31 S3 2.936313 1_555
Pr31 S40 2.978406 1_555
Pr31 S7 2.982636 1_554
Pr31 S57 3.104522 1_555
S1 Sb0 2.536153 1_455
S3 Sb0 3.105134 1_555
S6 Sb3 2.488792 1_555
S7 Sb4 2.521963 1_555
S8 Sb7 3.105146 1_555
S12 Sb5 2.488798 1_555
S13 Sb6 2.488786 1_555
S15 Sb6 2.536158 1_555
S17 Sb1 2.488798 1_555
S18 Sb3 2.536153 1_555
S19 Sb2 2.536162 1_545
S22 Sb7 2.488786 1_555
S23 Sb5 2.521963 1_555
S25 Sb0 2.521971 1_455
S26 Sb4 2.536162 1_555
S27 Sb1 2.536162 1_555
S30 Sb1 2.521963 1_555
S31 Sb6 2.521957 1_555
S32 Sb0 2.488792 1_455
S34 Sb6 3.105146 1_554
S37 Sb2 2.521963 1_555
S38 Sb4 3.105146 1_555
S42 Sb7 2.521957 1_555
S43 Sb4 2.488798 1_555
S45 Sb2 3.105146 1_545
S46 Sb5 3.105146 1_555
S47 Sb1 3.105146 1_556
S48 Sb2 2.488798 1_555
S49 Sb3 3.105134 1_555
S53 Sb5 2.536162 1_545
S57 Sb7 2.536158 1_555
S59 Sb3 2.521971 1_555
