# generated using pymatgen
data_Hg3(NO4)2
_symmetry_space_group_name_H-M   'P 1'
_cell_length_a   7.14804400
_cell_length_b   13.91189600
_cell_length_c   16.02579600
_cell_angle_alpha   90.00000000
_cell_angle_beta   90.00000000
_cell_angle_gamma   90.00000000
_symmetry_Int_Tables_number   1
_chemical_formula_structural   Hg3(NO4)2
_chemical_formula_sum   'Hg24 N16 O64'
_cell_volume   1593.65074333
_cell_formula_units_Z   8
loop_
 _symmetry_equiv_pos_site_id
 _symmetry_equiv_pos_as_xyz
  1  'x, y, z'
loop_
 _atom_site_type_symbol
 _atom_site_label
 _atom_site_symmetry_multiplicity
 _atom_site_fract_x
 _atom_site_fract_y
 _atom_site_fract_z
 _atom_site_occupancy
  Hg  Hg0  1  0.60681300  0.93445900  0.10488300  1
  Hg  Hg1  1  0.84348300  0.74960200  0.99513500  1
  Hg  Hg2  1  0.84348300  0.75039800  0.49513500  1
  Hg  Hg3  1  0.86429800  0.43028200  0.74814900  1
  Hg  Hg4  1  0.65651700  0.24960200  0.99513500  1
  Hg  Hg5  1  0.89318700  0.06554100  0.60488300  1
  Hg  Hg6  1  0.89318700  0.43445900  0.10488300  1
  Hg  Hg7  1  0.15651700  0.24960200  0.50486500  1
  Hg  Hg8  1  0.10681300  0.93445900  0.39511700  1
  Hg  Hg9  1  0.36429800  0.43028200  0.75185100  1
  Hg  Hg10  1  0.39318700  0.06554100  0.89511700  1
  Hg  Hg11  1  0.13570200  0.56971800  0.25185100  1
  Hg  Hg12  1  0.36429800  0.06971800  0.25185100  1
  Hg  Hg13  1  0.13570200  0.93028200  0.75185100  1
  Hg  Hg14  1  0.63570200  0.56971800  0.24814900  1
  Hg  Hg15  1  0.34348300  0.74960200  0.50486500  1
  Hg  Hg16  1  0.39318700  0.43445900  0.39511700  1
  Hg  Hg17  1  0.63570200  0.93028200  0.74814900  1
  Hg  Hg18  1  0.15651700  0.25039800  0.00486500  1
  Hg  Hg19  1  0.10681300  0.56554100  0.89511700  1
  Hg  Hg20  1  0.86429800  0.06971800  0.24814900  1
  Hg  Hg21  1  0.65651700  0.25039800  0.49513500  1
  Hg  Hg22  1  0.60681300  0.56554100  0.60488300  1
  Hg  Hg23  1  0.34348300  0.75039800  0.00486500  1
  N  N0  1  0.76605600  0.70838000  0.77070700  1
  N  N1  1  0.39138900  0.03976800  0.57654500  1
  N  N2  1  0.39138900  0.46023200  0.07654500  1
  N  N3  1  0.89138900  0.03976800  0.92345500  1
  N  N4  1  0.26605600  0.79162000  0.22929300  1
  N  N5  1  0.73394400  0.29162000  0.27070700  1
  N  N6  1  0.60861100  0.53976800  0.92345500  1
  N  N7  1  0.26605600  0.70838000  0.72929300  1
  N  N8  1  0.10861100  0.96023200  0.07654500  1
  N  N9  1  0.73394400  0.20838000  0.77070700  1
  N  N10  1  0.76605600  0.79162000  0.27070700  1
  N  N11  1  0.23394400  0.20838000  0.72929300  1
  N  N12  1  0.10861100  0.53976800  0.57654500  1
  N  N13  1  0.60861100  0.96023200  0.42345500  1
  N  N14  1  0.23394400  0.29162000  0.22929300  1
  N  N15  1  0.89138900  0.46023200  0.42345500  1
  O  O0  1  0.29702500  0.22844200  0.80099900  1
  O  O1  1  0.79702500  0.27155800  0.19900100  1
  O  O2  1  0.39422600  0.95784500  0.61077500  1
  O  O3  1  0.09546500  0.82590100  0.48746600  1
  O  O4  1  0.10577400  0.45784500  0.61077500  1
  O  O5  1  0.01660000  0.39843400  0.40704500  1
  O  O6  1  0.89422600  0.54215500  0.38922500  1
  O  O7  1  0.20297500  0.72844200  0.80099900  1
  O  O8  1  0.60577400  0.45784500  0.88922500  1
  O  O9  1  0.26054300  0.06065600  0.52543900  1
  O  O10  1  0.81713400  0.62388200  0.78866700  1
  O  O11  1  0.31713400  0.87611800  0.21133300  1
  O  O12  1  0.20297500  0.77155800  0.30099900  1
  O  O13  1  0.18286600  0.12388200  0.71133300  1
  O  O14  1  0.59546500  0.67409900  0.51253400  1
  O  O15  1  0.22286200  0.22515600  0.17453300  1
  O  O16  1  0.88887300  0.56002200  0.17865200  1
  O  O17  1  0.39422600  0.54215500  0.11077500  1
  O  O18  1  0.51660000  0.10156600  0.59295500  1
  O  O19  1  0.38887300  0.93997800  0.82134800  1
  O  O20  1  0.01660000  0.10156600  0.90704500  1
  O  O21  1  0.72286200  0.27484400  0.82546700  1
  O  O22  1  0.61112700  0.43997800  0.67865200  1
  O  O23  1  0.88887300  0.93997800  0.67865200  1
  O  O24  1  0.48340000  0.89843400  0.40704500  1
  O  O25  1  0.29702500  0.27155800  0.30099900  1
  O  O26  1  0.48340000  0.60156600  0.90704500  1
  O  O27  1  0.09546500  0.67409900  0.98746600  1
  O  O28  1  0.70297500  0.72844200  0.69900100  1
  O  O29  1  0.23945700  0.56065600  0.52543900  1
  O  O30  1  0.10577400  0.04215500  0.11077500  1
  O  O31  1  0.27713800  0.72515600  0.17453300  1
  O  O32  1  0.60577400  0.04215500  0.38922500  1
  O  O33  1  0.38887300  0.56002200  0.32134800  1
  O  O34  1  0.51660000  0.39843400  0.09295500  1
  O  O35  1  0.11112700  0.43997800  0.82134800  1
  O  O36  1  0.79702500  0.22844200  0.69900100  1
  O  O37  1  0.90453500  0.32590100  0.01253400  1
  O  O38  1  0.90453500  0.17409900  0.51253400  1
  O  O39  1  0.81713400  0.87611800  0.28866700  1
  O  O40  1  0.27713800  0.77484400  0.67453300  1
  O  O41  1  0.40453500  0.17409900  0.98746600  1
  O  O42  1  0.68286600  0.37611800  0.28866700  1
  O  O43  1  0.70297500  0.77155800  0.19900100  1
  O  O44  1  0.89422600  0.95784500  0.88922500  1
  O  O45  1  0.98340000  0.60156600  0.59295500  1
  O  O46  1  0.73945700  0.93934400  0.47456100  1
  O  O47  1  0.59546500  0.82590100  0.01253400  1
  O  O48  1  0.40453500  0.32590100  0.48746600  1
  O  O49  1  0.76054300  0.43934400  0.47456100  1
  O  O50  1  0.23945700  0.93934400  0.02543900  1
  O  O51  1  0.31713400  0.62388200  0.71133300  1
  O  O52  1  0.22286200  0.27484400  0.67453300  1
  O  O53  1  0.72286200  0.22515600  0.32546700  1
  O  O54  1  0.26054300  0.43934400  0.02543900  1
  O  O55  1  0.76054300  0.06065600  0.97456100  1
  O  O56  1  0.11112700  0.06002200  0.32134800  1
  O  O57  1  0.77713800  0.77484400  0.82546700  1
  O  O58  1  0.73945700  0.56065600  0.97456100  1
  O  O59  1  0.68286600  0.12388200  0.78866700  1
  O  O60  1  0.98340000  0.89843400  0.09295500  1
  O  O61  1  0.77713800  0.72515600  0.32546700  1
  O  O62  1  0.18286600  0.37611800  0.21133300  1
  O  O63  1  0.61112700  0.06002200  0.17865200  1
loop_
_geom_bond_atom_site_label_1
_geom_bond_atom_site_label_2
_geom_bond_distance
_geom_bond_site_symmetry_2
Hg0 O63 2.109489 1_565
Hg0 O47 2.116064 1_555
Hg1 O47 2.085049 1_556
Hg1 O27 2.088700 1_655
Hg2 O14 2.085049 1_555
Hg2 O3 2.088700 1_655
Hg3 O35 2.123018 1_655
Hg3 O22 2.129215 1_555
Hg4 O37 2.085049 1_556
Hg4 O41 2.088700 1_555
Hg5 O23 2.109489 1_545
Hg5 O38 2.116064 1_555
Hg6 O16 2.109489 1_555
Hg6 O37 2.116064 1_555
Hg7 O48 2.085049 1_555
Hg7 O38 2.088700 1_455
Hg8 O56 2.109489 1_565
Hg8 O3 2.116064 1_555
Hg9 O22 2.123018 1_555
Hg9 O35 2.129215 1_555
Hg10 O19 2.109489 1_545
Hg10 O41 2.116064 1_555
Hg11 O16 2.123018 1_455
Hg11 O33 2.129215 1_555
Hg12 O63 2.123018 1_555
Hg12 O56 2.129215 1_555
Hg13 O23 2.123018 1_455
Hg13 O19 2.129215 1_555
Hg14 O33 2.123018 1_555
Hg14 O16 2.129215 1_555
Hg15 O3 2.085049 1_555
Hg15 O14 2.088700 1_555
Hg16 O33 2.109489 1_555
Hg16 O48 2.116064 1_555
Hg17 O19 2.123018 1_555
Hg17 O23 2.129215 1_555
Hg18 O41 2.085049 1_554
Hg18 O37 2.088700 1_455
Hg19 O35 2.109489 1_555
Hg19 O27 2.116064 1_555
Hg20 O56 2.123018 1_655
Hg20 O63 2.129215 1_555
Hg21 O38 2.085049 1_555
Hg21 O48 2.088700 1_555
Hg22 O22 2.109489 1_555
Hg22 O14 2.116064 1_555
Hg23 O27 2.085049 1_554
Hg23 O47 2.088700 1_555
N0 O10 1.264124 1_555
N0 O28 1.265602 1_555
N0 O57 1.277250 1_555
N1 O2 1.265013 1_545
N1 O18 1.268598 1_555
N1 O9 1.276715 1_555
N2 O17 1.265013 1_555
N2 O34 1.268598 1_555
N2 O54 1.276715 1_555
N3 O44 1.265013 1_545
N3 O20 1.268598 1_655
N3 O55 1.276715 1_555
N4 O11 1.264124 1_555
N4 O12 1.265602 1_555
N4 O31 1.277250 1_555
N5 O42 1.264124 1_555
N5 O1 1.265602 1_555
N5 O53 1.277250 1_555
N6 O8 1.265013 1_555
N6 O26 1.268598 1_555
N6 O58 1.276715 1_555
N7 O51 1.264124 1_555
N7 O7 1.265602 1_555
N7 O40 1.277250 1_555
N8 O30 1.265013 1_565
N8 O60 1.268598 1_455
N8 O50 1.276715 1_555
N9 O59 1.264124 1_555
N9 O36 1.265602 1_555
N9 O21 1.277250 1_555
N10 O39 1.264124 1_555
N10 O43 1.265602 1_555
N10 O61 1.277250 1_555
N11 O13 1.264124 1_555
N11 O0 1.265602 1_555
N11 O52 1.277250 1_555
N12 O4 1.265013 1_555
N12 O45 1.268598 1_455
N12 O29 1.276715 1_555
N13 O32 1.265013 1_565
N13 O24 1.268598 1_555
N13 O46 1.276715 1_555
N14 O62 1.264124 1_555
N14 O25 1.265602 1_555
N14 O15 1.277250 1_555
N15 O6 1.265013 1_555
N15 O5 1.268598 1_655
N15 O49 1.276715 1_555
