# generated using pymatgen
data_Ag2Hg7(P4Br3)2
_symmetry_space_group_name_H-M   'P 1'
_cell_length_a   8.59608148
_cell_length_b   8.59608148
_cell_length_c   8.27716752
_cell_angle_alpha   81.26864552
_cell_angle_beta   81.26864552
_cell_angle_gamma   80.52406387
_symmetry_Int_Tables_number   1
_chemical_formula_structural   Ag2Hg7(P4Br3)2
_chemical_formula_sum   'Ag2 Hg7 P8 Br6'
_cell_volume   591.21881366
_cell_formula_units_Z   1
loop_
 _symmetry_equiv_pos_site_id
 _symmetry_equiv_pos_as_xyz
  1  'x, y, z'
loop_
 _atom_site_type_symbol
 _atom_site_label
 _atom_site_symmetry_multiplicity
 _atom_site_fract_x
 _atom_site_fract_y
 _atom_site_fract_z
 _atom_site_occupancy
  Ag  Ag0  1  0.50000000  0.00000000  0.50000000  1
  Ag  Ag1  1  0.00000000  0.50000000  0.50000000  1
  Hg  Hg0  1  0.36702100  0.73282800  0.23534800  1
  Hg  Hg1  1  0.27359800  0.27359800  0.13329300  1
  Hg  Hg2  1  0.73282800  0.36702100  0.23534800  1
  Hg  Hg3  1  0.63297900  0.26717200  0.76465200  1
  Hg  Hg4  1  0.00000000  0.00000000  0.00000000  1
  Hg  Hg5  1  0.72640200  0.72640200  0.86670700  1
  Hg  Hg6  1  0.26717200  0.63297900  0.76465200  1
  P  P0  1  0.07571400  0.76260200  0.57521600  1
  P  P1  1  0.91343900  0.91343900  0.74409600  1
  P  P2  1  0.56261800  0.56261800  0.06779200  1
  P  P3  1  0.92428600  0.23739800  0.42478400  1
  P  P4  1  0.08656100  0.08656100  0.25590400  1
  P  P5  1  0.76260200  0.07571400  0.57521600  1
  P  P6  1  0.23739800  0.92428600  0.42478400  1
  P  P7  1  0.43738200  0.43738200  0.93220800  1
  Br  Br0  1  0.04986000  0.63815400  0.14682000  1
  Br  Br1  1  0.35471600  0.35471600  0.45695200  1
  Br  Br2  1  0.64528400  0.64528400  0.54304800  1
  Br  Br3  1  0.63815400  0.04986000  0.14682000  1
  Br  Br4  1  0.36184600  0.95014000  0.85318000  1
  Br  Br5  1  0.95014000  0.36184600  0.85318000  1
loop_
_geom_bond_atom_site_label_1
_geom_bond_atom_site_label_2
_geom_bond_distance
_geom_bond_site_symmetry_2
Ag0 P6 2.634438 1_545
Ag0 P5 2.634438 1_555
Ag0 Br3 2.978773 1_555
Ag0 Br4 2.978773 1_545
Ag0 Br1 3.087954 1_555
Ag0 Br2 3.087954 1_545
Ag1 P0 2.634438 1_555
Ag1 P3 2.634438 1_455
Ag1 Br0 2.978773 1_555
Ag1 Br5 2.978773 1_455
Ag1 Br1 3.087954 1_555
Ag1 Br2 3.087954 1_455
Hg0 P2 2.447310 1_555
Hg0 P6 2.461300 1_555
Hg1 P7 2.442217 1_554
Hg1 P4 2.461764 1_555
Hg2 P2 2.447310 1_555
Hg2 P3 2.461300 1_555
Hg3 P7 2.447310 1_555
Hg3 P5 2.461300 1_555
Hg4 P4 2.594850 1_555
Hg4 P1 2.594850 1_444
Hg5 P2 2.442217 1_556
Hg5 P1 2.461764 1_555
Hg6 P7 2.447310 1_555
Hg6 P0 2.461300 1_555
P0 P1 2.223451 1_455
P0 P6 2.235841 1_555
P1 P5 2.223451 1_565
P2 P7 2.166221 1_554
P3 P4 2.223451 1_655
P3 P5 2.235841 1_555
P4 P6 2.223451 1_545
Br0 Hg4 3.147545 1_565
Br0 Hg0 3.185959 1_555
Br1 Hg1 3.073071 1_555
Br2 Hg5 3.073071 1_555
Br3 Hg4 3.147545 1_655
Br3 Hg2 3.185959 1_555
Br4 Hg4 3.147545 1_566
Br4 Hg6 3.185959 1_555
Br5 Hg4 3.147545 1_656
Br5 Hg3 3.185959 1_555
