# generated using pymatgen
data_Ba(NiAs)2
_symmetry_space_group_name_H-M   'P 1'
_cell_length_a   4.10403787
_cell_length_b   4.10403634
_cell_length_c   6.65101035
_cell_angle_alpha   107.97051146
_cell_angle_beta   107.97050051
_cell_angle_gamma   90.00001075
_symmetry_Int_Tables_number   1
_chemical_formula_structural   Ba(NiAs)2
_chemical_formula_sum   'Ba1 Ni2 As2'
_cell_volume   100.79784453
_cell_formula_units_Z   1
loop_
 _symmetry_equiv_pos_site_id
 _symmetry_equiv_pos_as_xyz
  1  'x, y, z'
loop_
 _atom_site_type_symbol
 _atom_site_label
 _atom_site_symmetry_multiplicity
 _atom_site_fract_x
 _atom_site_fract_y
 _atom_site_fract_z
 _atom_site_occupancy
  Ba  Ba0  1  -0.00000000  0.00000000  -0.00000000  1
  Ni  Ni0  1  0.25000000  0.75000000  0.50000000  1
  Ni  Ni1  1  0.75000000  0.25000000  0.50000000  1
  As  As0  1  0.34375673  0.34375673  0.68751346  1
  As  As1  1  0.65624327  0.65624327  0.31248654  1
loop_
_geom_bond_atom_site_label_1
_geom_bond_atom_site_label_2
_geom_bond_distance
_geom_bond_site_symmetry_2
Ba0 Ni0 3.628274 1_555
Ba0 Ni1 3.628274 1_444
Ba0 Ni1 3.628274 1_455
Ba0 Ni0 3.628274 1_544
Ba0 Ni1 3.628274 1_454
Ba0 Ni0 3.628274 1_545
Ba0 Ni1 3.628275 1_555
Ba0 Ni0 3.628275 1_444
As0 Ni0 2.338815 1_545
As0 Ni0 2.338816 1_555
As0 Ni1 2.338816 1_555
As0 Ni1 2.338816 1_455
As0 Ba0 3.452355 1_666
As0 Ba0 3.452355 1_566
As0 Ba0 3.452355 1_556
As0 Ba0 3.452356 1_656
As1 Ni1 2.338815 1_565
As1 Ni1 2.338816 1_555
As1 Ni0 2.338816 1_555
As1 Ni0 2.338816 1_655
As1 Ba0 3.452355 1_555
As1 Ba0 3.452355 1_655
As1 Ba0 3.452355 1_665
As1 Ba0 3.452356 1_565
