# generated using pymatgen
data_MoSeS2Cl5
_symmetry_space_group_name_H-M   'P 1'
_cell_length_a   10.15007988
_cell_length_b   10.15007988
_cell_length_c   14.22456086
_cell_angle_alpha   66.68835748
_cell_angle_beta   66.68835748
_cell_angle_gamma   57.67814830
_symmetry_Int_Tables_number   1
_chemical_formula_structural   MoSeS2Cl5
_chemical_formula_sum   'Mo4 Se4 S8 Cl20'
_cell_volume   1104.83385455
_cell_formula_units_Z   4
loop_
 _symmetry_equiv_pos_site_id
 _symmetry_equiv_pos_as_xyz
  1  'x, y, z'
loop_
 _atom_site_type_symbol
 _atom_site_label
 _atom_site_symmetry_multiplicity
 _atom_site_fract_x
 _atom_site_fract_y
 _atom_site_fract_z
 _atom_site_occupancy
  Mo  Mo0  1  0.61189500  0.23964800  0.23765600  1
  Mo  Mo1  1  0.38810500  0.76035200  0.76234400  1
  Mo  Mo2  1  0.23964800  0.61189500  0.73765600  1
  Mo  Mo3  1  0.76035200  0.38810500  0.26234400  1
  Se  Se0  1  0.22805800  0.07504700  0.76243300  1
  Se  Se1  1  0.77194200  0.92495300  0.23756700  1
  Se  Se2  1  0.07504700  0.22805800  0.26243300  1
  Se  Se3  1  0.92495300  0.77194200  0.73756700  1
  S  S0  1  0.86095800  0.25121200  0.12294300  1
  S  S1  1  0.25121200  0.86095800  0.62294300  1
  S  S2  1  0.13904200  0.74878800  0.87705700  1
  S  S3  1  0.33859500  0.53879600  0.89100300  1
  S  S4  1  0.46120400  0.66140500  0.60899700  1
  S  S5  1  0.74878800  0.13904200  0.37705700  1
  S  S6  1  0.66140500  0.46120400  0.10899700  1
  S  S7  1  0.53879600  0.33859500  0.39100300  1
  Cl  Cl0  1  0.43812800  0.34233000  0.72517300  1
  Cl  Cl1  1  0.22829500  0.14437300  0.11332800  1
  Cl  Cl2  1  0.97907700  0.13208300  0.86519100  1
  Cl  Cl3  1  0.06523300  0.47912700  0.84947600  1
  Cl  Cl4  1  0.16021400  0.62036400  0.59069400  1
  Cl  Cl5  1  0.47912700  0.06523300  0.34947600  1
  Cl  Cl6  1  0.02092300  0.86791700  0.13480900  1
  Cl  Cl7  1  0.56187200  0.65767000  0.27482700  1
  Cl  Cl8  1  0.34233000  0.43812800  0.22517300  1
  Cl  Cl9  1  0.85562700  0.77170500  0.38667200  1
  Cl  Cl10  1  0.14437300  0.22829500  0.61332800  1
  Cl  Cl11  1  0.52087300  0.93476700  0.65052400  1
  Cl  Cl12  1  0.77170500  0.85562700  0.88667200  1
  Cl  Cl13  1  0.37963600  0.83978600  0.90930600  1
  Cl  Cl14  1  0.83978600  0.37963600  0.40930600  1
  Cl  Cl15  1  0.93476700  0.52087300  0.15052400  1
  Cl  Cl16  1  0.62036400  0.16021400  0.09069400  1
  Cl  Cl17  1  0.86791700  0.02092300  0.63480900  1
  Cl  Cl18  1  0.13208300  0.97907700  0.36519100  1
  Cl  Cl19  1  0.65767000  0.56187200  0.77482700  1
loop_
_geom_bond_atom_site_label_1
_geom_bond_atom_site_label_2
_geom_bond_distance
_geom_bond_site_symmetry_2
Mo0 S6 2.425334 1_555
Mo0 S5 2.442567 1_555
Mo0 S0 2.442964 1_555
Mo0 S7 2.444035 1_555
Mo0 Se1 2.700845 1_545
Mo1 S3 2.425334 1_555
Mo1 S1 2.442567 1_555
Mo1 S2 2.442964 1_555
Mo1 S4 2.444035 1_555
Mo1 Se0 2.700845 1_565
Mo2 S4 2.425334 1_555
Mo2 S2 2.442567 1_555
Mo2 S1 2.442964 1_555
Mo2 S3 2.444035 1_555
Mo2 Se3 2.700845 1_455
Mo3 S7 2.425334 1_555
Mo3 S0 2.442567 1_555
Mo3 S5 2.442964 1_555
Mo3 S6 2.444035 1_555
Mo3 Se2 2.700845 1_655
S0 S6 2.012890 1_555
S1 S4 2.012890 1_555
S2 S3 2.012890 1_555
S5 S7 2.012890 1_555
Cl0 Mo2 2.404866 1_555
Cl1 Se2 2.245293 1_555
Cl2 Se0 2.244977 1_655
Cl3 Mo2 2.471047 1_555
Cl3 Se3 2.630359 1_455
Cl4 Mo2 2.478943 1_555
Cl4 Se3 2.664741 1_455
Cl5 Mo0 2.471047 1_555
Cl5 Se1 2.630359 1_545
Cl6 Se1 2.244977 1_455
Cl7 Mo3 2.404866 1_555
Cl8 Mo0 2.404866 1_555
Cl9 Se1 2.245293 1_555
Cl10 Se0 2.245293 1_555
Cl11 Mo1 2.471047 1_555
Cl11 Se0 2.630359 1_565
Cl12 Se3 2.245293 1_555
Cl13 Mo1 2.478943 1_555
Cl13 Se0 2.664741 1_565
Cl14 Mo3 2.478943 1_555
Cl14 Se2 2.664741 1_655
Cl15 Mo3 2.471047 1_555
Cl15 Se2 2.630359 1_655
Cl16 Mo0 2.478943 1_555
Cl16 Se1 2.664741 1_545
Cl17 Se3 2.244977 1_545
Cl18 Se2 2.244977 1_565
Cl19 Mo1 2.404866 1_555
