# generated using pymatgen
data_Na2LiAlP2H2O9
_symmetry_space_group_name_H-M   'P 1'
_cell_length_a   7.03186700
_cell_length_b   14.20860900
_cell_length_c   14.24731400
_cell_angle_alpha   90.00000000
_cell_angle_beta   90.00000000
_cell_angle_gamma   90.00000000
_symmetry_Int_Tables_number   1
_chemical_formula_structural   Na2LiAlP2H2O9
_chemical_formula_sum   'Na16 Li8 Al8 P16 H16 O72'
_cell_volume   1423.49257814
_cell_formula_units_Z   8
loop_
 _symmetry_equiv_pos_site_id
 _symmetry_equiv_pos_as_xyz
  1  'x, y, z'
loop_
 _atom_site_type_symbol
 _atom_site_label
 _atom_site_symmetry_multiplicity
 _atom_site_fract_x
 _atom_site_fract_y
 _atom_site_fract_z
 _atom_site_occupancy
  Na  Na0  1  0.95873300  0.00000000  0.75000000  1
  Na  Na1  1  0.50000000  0.50000000  0.00000000  1
  Na  Na2  1  0.00000000  0.25000000  0.24640700  1
  Na  Na3  1  0.50000000  0.00000000  0.50000000  1
  Na  Na4  1  0.04126700  0.50000000  0.75000000  1
  Na  Na5  1  0.00000000  0.75000000  0.75359300  1
  Na  Na6  1  0.04126700  0.00000000  0.25000000  1
  Na  Na7  1  0.50000000  0.00000000  0.00000000  1
  Na  Na8  1  0.50000000  0.25000000  0.52071300  1
  Na  Na9  1  0.50000000  0.75000000  0.97928700  1
  Na  Na10  1  0.50000000  0.75000000  0.47928700  1
  Na  Na11  1  0.00000000  0.75000000  0.25359300  1
  Na  Na12  1  0.00000000  0.25000000  0.74640700  1
  Na  Na13  1  0.50000000  0.50000000  0.50000000  1
  Na  Na14  1  0.95873300  0.50000000  0.25000000  1
  Na  Na15  1  0.50000000  0.25000000  0.02071300  1
  Li  Li0  1  0.26003700  0.12578800  0.87417600  1
  Li  Li1  1  0.26003700  0.87421200  0.62582400  1
  Li  Li2  1  0.26003700  0.37421200  0.37417600  1
  Li  Li3  1  0.73996300  0.87421200  0.12582400  1
  Li  Li4  1  0.73996300  0.12578800  0.37417600  1
  Li  Li5  1  0.26003700  0.62578800  0.12582400  1
  Li  Li6  1  0.73996300  0.62578800  0.62582400  1
  Li  Li7  1  0.73996300  0.37421200  0.87417600  1
  Al  Al0  1  0.00000000  0.00000000  0.00000000  1
  Al  Al1  1  0.00000000  0.50000000  0.50000000  1
  Al  Al2  1  0.00000000  0.25000000  0.50109800  1
  Al  Al3  1  0.00000000  0.75000000  0.49890200  1
  Al  Al4  1  0.00000000  0.50000000  0.00000000  1
  Al  Al5  1  0.00000000  0.25000000  0.00109800  1
  Al  Al6  1  0.00000000  0.75000000  0.99890200  1
  Al  Al7  1  0.00000000  0.00000000  0.50000000  1
  P  P0  1  0.27811000  0.87031600  0.13190800  1
  P  P1  1  0.26111100  0.37905600  0.14351200  1
  P  P2  1  0.72189000  0.37031600  0.36809200  1
  P  P3  1  0.72189000  0.87031600  0.63190800  1
  P  P4  1  0.26111100  0.87905600  0.85648800  1
  P  P5  1  0.73888900  0.87905600  0.35648800  1
  P  P6  1  0.26111100  0.12094400  0.64351200  1
  P  P7  1  0.72189000  0.62968400  0.13190800  1
  P  P8  1  0.27811000  0.37031600  0.86809200  1
  P  P9  1  0.72189000  0.12968400  0.86809200  1
  P  P10  1  0.73888900  0.12094400  0.14351200  1
  P  P11  1  0.27811000  0.62968400  0.63190800  1
  P  P12  1  0.27811000  0.12968400  0.36809200  1
  P  P13  1  0.73888900  0.37905600  0.64351200  1
  P  P14  1  0.26111100  0.62094400  0.35648800  1
  P  P15  1  0.73888900  0.62094400  0.85648800  1
  H  H0  1  0.58944400  0.12643200  0.70321600  1
  H  H1  1  0.41055600  0.12643200  0.20321600  1
  H  H2  1  0.19933100  0.12539300  0.05972100  1
  H  H3  1  0.80066900  0.12539300  0.55972100  1
  H  H4  1  0.80066900  0.62539300  0.44027900  1
  H  H5  1  0.80066900  0.87460700  0.94027900  1
  H  H6  1  0.41055600  0.37356800  0.70321600  1
  H  H7  1  0.41055600  0.62643200  0.79678400  1
  H  H8  1  0.19933100  0.37460700  0.55972100  1
  H  H9  1  0.58944400  0.62643200  0.29678400  1
  H  H10  1  0.41055600  0.87356800  0.29678400  1
  H  H11  1  0.58944400  0.37356800  0.20321600  1
  H  H12  1  0.19933100  0.87460700  0.44027900  1
  H  H13  1  0.58944400  0.87356800  0.79678400  1
  H  H14  1  0.80066900  0.37460700  0.05972100  1
  H  H15  1  0.19933100  0.62539300  0.94027900  1
  O  O0  1  0.19470400  0.46907100  0.08964600  1
  O  O1  1  0.83785800  0.45849200  0.40059200  1
  O  O2  1  0.47917900  0.62858900  0.59168800  1
  O  O3  1  0.88658400  0.12473400  0.50580400  1
  O  O4  1  0.17158900  0.27970700  0.90132500  1
  O  O5  1  0.82841100  0.22029300  0.90132500  1
  O  O6  1  0.51591400  0.87670900  0.36299900  1
  O  O7  1  0.18505400  0.21113400  0.59280600  1
  O  O8  1  0.80529600  0.03092900  0.08964600  1
  O  O9  1  0.48408600  0.62329100  0.36299900  1
  O  O10  1  0.27512800  0.62952800  0.74132500  1
  O  O11  1  0.16214200  0.45849200  0.90059200  1
  O  O12  1  0.48408600  0.87670900  0.86299900  1
  O  O13  1  0.51591400  0.62329100  0.86299900  1
  O  O14  1  0.81494600  0.71113400  0.90719400  1
  O  O15  1  0.16214200  0.95849200  0.09940800  1
  O  O16  1  0.80884500  0.11896400  0.24466200  1
  O  O17  1  0.18505400  0.71113400  0.40719400  1
  O  O18  1  0.88658400  0.87526600  0.99419600  1
  O  O19  1  0.48408600  0.37670900  0.13700100  1
  O  O20  1  0.47917900  0.87141100  0.09168800  1
  O  O21  1  0.19115500  0.38103600  0.24466200  1
  O  O22  1  0.17158900  0.72029300  0.59867500  1
  O  O23  1  0.52082100  0.87141100  0.59168800  1
  O  O24  1  0.88658400  0.62473400  0.49419600  1
  O  O25  1  0.80884500  0.38103600  0.74466200  1
  O  O26  1  0.52082100  0.12858900  0.90831200  1
  O  O27  1  0.11341600  0.37526600  0.50580400  1
  O  O28  1  0.27512800  0.87047200  0.24132500  1
  O  O29  1  0.19470400  0.53092900  0.41035400  1
  O  O30  1  0.80529600  0.96907100  0.41035400  1
  O  O31  1  0.82841100  0.27970700  0.40132500  1
  O  O32  1  0.11341600  0.12473400  0.00580400  1
  O  O33  1  0.52082100  0.62858900  0.09168800  1
  O  O34  1  0.82841100  0.72029300  0.09867500  1
  O  O35  1  0.83785800  0.95849200  0.59940800  1
  O  O36  1  0.72487200  0.62952800  0.24132500  1
  O  O37  1  0.72487200  0.12952800  0.75867500  1
  O  O38  1  0.47917900  0.12858900  0.40831200  1
  O  O39  1  0.47917900  0.37141100  0.90831200  1
  O  O40  1  0.83785800  0.04150800  0.90059200  1
  O  O41  1  0.51591400  0.12329100  0.13700100  1
  O  O42  1  0.19470400  0.03092900  0.58964600  1
  O  O43  1  0.27512800  0.12952800  0.25867500  1
  O  O44  1  0.27512800  0.37047200  0.75867500  1
  O  O45  1  0.48408600  0.12329100  0.63700100  1
  O  O46  1  0.11341600  0.62473400  0.99419600  1
  O  O47  1  0.16214200  0.04150800  0.40059200  1
  O  O48  1  0.83785800  0.54150800  0.09940800  1
  O  O49  1  0.80884500  0.88103600  0.25533800  1
  O  O50  1  0.88658400  0.37526600  0.00580400  1
  O  O51  1  0.51591400  0.37670900  0.63700100  1
  O  O52  1  0.19470400  0.96907100  0.91035400  1
  O  O53  1  0.18505400  0.78886600  0.90719400  1
  O  O54  1  0.72487200  0.87047200  0.74132500  1
  O  O55  1  0.82841100  0.77970700  0.59867500  1
  O  O56  1  0.18505400  0.28886600  0.09280600  1
  O  O57  1  0.72487200  0.37047200  0.25867500  1
  O  O58  1  0.11341600  0.87526600  0.49419600  1
  O  O59  1  0.81494600  0.78886600  0.40719400  1
  O  O60  1  0.80529600  0.46907100  0.58964600  1
  O  O61  1  0.17158900  0.77970700  0.09867500  1
  O  O62  1  0.81494600  0.21113400  0.09280600  1
  O  O63  1  0.19115500  0.61896400  0.25533800  1
  O  O64  1  0.19115500  0.88103600  0.75533800  1
  O  O65  1  0.80529600  0.53092900  0.91035400  1
  O  O66  1  0.81494600  0.28886600  0.59280600  1
  O  O67  1  0.17158900  0.22029300  0.40132500  1
  O  O68  1  0.16214200  0.54150800  0.59940800  1
  O  O69  1  0.19115500  0.11896400  0.74466200  1
  O  O70  1  0.52082100  0.37141100  0.40831200  1
  O  O71  1  0.80884500  0.61896400  0.75533800  1
loop_
_geom_bond_atom_site_label_1
_geom_bond_atom_site_label_2
_geom_bond_distance
_geom_bond_site_symmetry_2
Na0 O64 2.352462 1_645
Na0 O69 2.352462 1_655
Na0 O35 2.381931 1_545
Na0 O40 2.381931 1_555
Na0 O54 2.471175 1_545
Na0 O37 2.471175 1_555
Na0 O42 2.857607 1_655
Na0 O52 2.857607 1_645
Na1 O33 2.250792 1_555
Na1 O39 2.250792 1_554
Na1 O0 2.536366 1_555
Na1 O65 2.536366 1_554
Na1 O19 2.625110 1_555
Na1 O13 2.625110 1_554
Na1 O48 2.828077 1_555
Na1 O11 2.828077 1_554
Na2 O21 2.296492 1_555
Na2 O16 2.296492 1_455
Na2 O67 2.550609 1_555
Na2 O31 2.550609 1_455
Na2 O43 2.589117 1_555
Na2 O57 2.589117 1_455
Na2 O56 2.605260 1_555
Na2 O62 2.605260 1_455
Na3 O23 2.250792 1_545
Na3 O38 2.250792 1_555
Na3 O30 2.536366 1_545
Na3 O42 2.536366 1_555
Na3 O45 2.625110 1_555
Na3 O6 2.625110 1_545
Na3 O47 2.828077 1_555
Na3 O35 2.828077 1_545
Na4 O71 2.352462 1_455
Na4 O25 2.352462 1_455
Na4 O68 2.381931 1_555
Na4 O11 2.381931 1_555
Na4 O10 2.471175 1_555
Na4 O44 2.471175 1_555
Na4 O65 2.857607 1_455
Na4 O60 2.857607 1_455
Na5 O71 2.296492 1_455
Na5 O64 2.296492 1_555
Na5 O22 2.550609 1_555
Na5 O55 2.550609 1_455
Na5 O10 2.589117 1_555
Na5 O54 2.589117 1_455
Na5 O14 2.605260 1_455
Na5 O53 2.605260 1_555
Na6 O49 2.352462 1_445
Na6 O16 2.352462 1_455
Na6 O15 2.381931 1_545
Na6 O47 2.381931 1_555
Na6 O28 2.471175 1_545
Na6 O43 2.471175 1_555
Na6 O8 2.857607 1_455
Na6 O30 2.857607 1_445
Na7 O20 2.250792 1_545
Na7 O26 2.250792 1_554
Na7 O8 2.536366 1_555
Na7 O52 2.536366 1_544
Na7 O41 2.625110 1_555
Na7 O12 2.625110 1_544
Na7 O15 2.828077 1_545
Na7 O40 2.828077 1_554
Na8 O38 2.358360 1_555
Na8 O70 2.358360 1_555
Na8 O51 2.449239 1_555
Na8 O45 2.449239 1_555
Na8 O66 2.502932 1_555
Na8 O7 2.502932 1_555
Na9 O20 2.358360 1_556
Na9 O33 2.358360 1_556
Na9 O13 2.449239 1_555
Na9 O12 2.449239 1_555
Na9 O14 2.502932 1_555
Na9 O53 2.502932 1_555
Na10 O2 2.358360 1_555
Na10 O23 2.358360 1_555
Na10 O6 2.449239 1_555
Na10 O9 2.449239 1_555
Na10 O59 2.502932 1_555
Na10 O17 2.502932 1_555
Na11 O63 2.296492 1_555
Na11 O49 2.296492 1_455
Na11 O34 2.550609 1_455
Na11 O61 2.550609 1_555
Na11 O36 2.589117 1_455
Na11 O28 2.589117 1_555
Na11 O17 2.605260 1_555
Na11 O59 2.605260 1_455
Na12 O25 2.296492 1_455
Na12 O69 2.296492 1_555
Na12 O4 2.550609 1_555
Na12 O5 2.550609 1_455
Na12 O37 2.589117 1_455
Na12 O44 2.589117 1_555
Na12 O7 2.605260 1_555
Na12 O66 2.605260 1_455
Na13 O2 2.250792 1_555
Na13 O70 2.250792 1_555
Na13 O29 2.536366 1_555
Na13 O60 2.536366 1_555
Na13 O51 2.625110 1_555
Na13 O9 2.625110 1_555
Na13 O1 2.828077 1_555
Na13 O68 2.828077 1_555
Na14 O63 2.352462 1_655
Na14 O21 2.352462 1_655
Na14 O48 2.381931 1_555
Na14 O1 2.381931 1_555
Na14 O57 2.471175 1_555
Na14 O36 2.471175 1_555
Na14 O0 2.857607 1_655
Na14 O29 2.857607 1_655
Na15 O26 2.358360 1_554
Na15 O39 2.358360 1_554
Na15 O41 2.449239 1_555
Na15 O19 2.449239 1_555
Na15 O62 2.502932 1_555
Na15 O56 2.502932 1_555
Li0 O26 1.897613 1_555
Li0 O69 1.910203 1_555
Li0 O32 2.140128 1_556
Li0 O4 2.306361 1_555
Li0 O52 2.331323 1_545
Li1 O23 1.897613 1_555
Li1 O64 1.910203 1_555
Li1 O58 2.140128 1_555
Li1 O22 2.306361 1_555
Li1 O42 2.331323 1_565
Li2 O70 1.897613 1_555
Li2 O21 1.910203 1_555
Li2 O27 2.140128 1_555
Li2 O67 2.306361 1_555
Li2 O29 2.331323 1_555
Li3 O20 1.897613 1_555
Li3 O49 1.910203 1_555
Li3 O18 2.140128 1_554
Li3 O34 2.306361 1_555
Li3 O8 2.331323 1_565
Li4 O38 1.897613 1_555
Li4 O16 1.910203 1_555
Li4 O3 2.140128 1_555
Li4 O31 2.306361 1_555
Li4 O30 2.331323 1_545
Li5 O33 1.897613 1_555
Li5 O63 1.910203 1_555
Li5 O46 2.140128 1_554
Li5 O61 2.306361 1_555
Li5 O0 2.331323 1_555
Li6 O2 1.897613 1_555
Li6 O71 1.910203 1_555
Li6 O24 2.140128 1_555
Li6 O55 2.306361 1_555
Li6 O60 2.331323 1_555
Li7 O39 1.897613 1_555
Li7 O25 1.910203 1_555
Li7 O50 2.140128 1_556
Li7 O5 2.306361 1_555
Li7 O65 2.331323 1_555
Al0 O15 1.911464 1_545
Al0 O40 1.911464 1_454
Al0 O8 1.923259 1_455
Al0 O52 1.923259 1_544
Al0 O32 1.945230 1_555
Al0 O18 1.945230 1_444
Al1 O1 1.911464 1_455
Al1 O68 1.911464 1_555
Al1 O29 1.923259 1_555
Al1 O60 1.923259 1_455
Al1 O24 1.945230 1_455
Al1 O27 1.945230 1_555
Al2 O67 1.911722 1_555
Al2 O31 1.911722 1_455
Al2 O7 1.924957 1_555
Al2 O66 1.924957 1_455
Al2 O3 1.951520 1_455
Al2 O27 1.951520 1_555
Al3 O55 1.911722 1_455
Al3 O22 1.911722 1_555
Al3 O17 1.924957 1_555
Al3 O59 1.924957 1_455
Al3 O24 1.951520 1_455
Al3 O58 1.951520 1_555
Al4 O48 1.911464 1_455
Al4 O11 1.911464 1_554
Al4 O0 1.923259 1_555
Al4 O65 1.923259 1_454
Al4 O50 1.945230 1_455
Al4 O46 1.945230 1_554
Al5 O4 1.911722 1_554
Al5 O5 1.911722 1_454
Al5 O56 1.924957 1_555
Al5 O62 1.924957 1_455
Al5 O50 1.951520 1_455
Al5 O32 1.951520 1_555
Al6 O34 1.911722 1_456
Al6 O61 1.911722 1_556
Al6 O53 1.924957 1_555
Al6 O14 1.924957 1_455
Al6 O18 1.951520 1_455
Al6 O46 1.951520 1_555
Al7 O47 1.911464 1_555
Al7 O35 1.911464 1_445
Al7 O42 1.923259 1_555
Al7 O30 1.923259 1_445
Al7 O3 1.945230 1_455
Al7 O58 1.945230 1_545
H0 O45 1.200353 1_555
H0 O37 1.238207 1_555
H1 O41 1.200353 1_555
H1 O43 1.238207 1_555
H2 O32 0.977326 1_555
H3 O3 0.977326 1_555
H4 O24 0.977326 1_555
H5 O18 0.977326 1_555
H6 O51 1.200353 1_555
H6 O44 1.238207 1_555
H7 O13 1.200353 1_555
H7 O10 1.238207 1_555
H8 O27 0.977326 1_555
H9 O9 1.200353 1_555
H9 O36 1.238207 1_555
H10 O6 1.200353 1_555
H10 O28 1.238207 1_555
H11 O19 1.200353 1_555
H11 O57 1.238207 1_555
H12 O58 0.977326 1_555
H13 O12 1.200353 1_555
H13 O54 1.238207 1_555
H14 O50 0.977326 1_555
H15 O46 0.977326 1_555
O0 P1 1.562959 1_555
O1 P2 1.564945 1_555
O2 P11 1.525676 1_555
O4 P8 1.562920 1_555
O5 P9 1.562920 1_555
O6 P5 1.571026 1_555
O7 P6 1.565282 1_555
O8 P10 1.562959 1_555
O9 P14 1.571026 1_555
O10 P11 1.559041 1_555
O11 P8 1.564945 1_555
O12 P4 1.571026 1_555
O13 P15 1.571026 1_555
O14 P15 1.565282 1_555
O15 P0 1.564945 1_555
O16 P10 1.523021 1_555
O17 P14 1.565282 1_555
O19 P1 1.571026 1_555
O20 P0 1.525676 1_555
O21 P1 1.523021 1_555
O22 P11 1.562920 1_555
O23 P3 1.525676 1_555
O25 P13 1.523021 1_555
O26 P9 1.525676 1_555
O28 P0 1.559041 1_555
O29 P14 1.562959 1_555
O30 P5 1.562959 1_555
O31 P2 1.562920 1_555
O33 P7 1.525676 1_555
O34 P7 1.562920 1_555
O35 P3 1.564945 1_555
O36 P7 1.559041 1_555
O37 P9 1.559041 1_555
O38 P12 1.525676 1_555
O39 P8 1.525676 1_555
O40 P9 1.564945 1_555
O41 P10 1.571026 1_555
O42 P6 1.562959 1_555
O43 P12 1.559041 1_555
O44 P8 1.559041 1_555
O45 P6 1.571026 1_555
O47 P12 1.564945 1_555
O48 P7 1.564945 1_555
O49 P5 1.523021 1_555
O51 P13 1.571026 1_555
O52 P4 1.562959 1_555
O53 P4 1.565282 1_555
O54 P3 1.559041 1_555
O55 P3 1.562920 1_555
O56 P1 1.565282 1_555
O57 P2 1.559041 1_555
O59 P5 1.565282 1_555
O60 P13 1.562959 1_555
O61 P0 1.562920 1_555
O62 P10 1.565282 1_555
O63 P14 1.523021 1_555
O64 P4 1.523021 1_555
O65 P15 1.562959 1_555
O66 P13 1.565282 1_555
O67 P12 1.562920 1_555
O68 P11 1.564945 1_555
O69 P6 1.523021 1_555
O70 P2 1.525676 1_555
O71 P15 1.523021 1_555
