# generated using pymatgen
data_Hf2Al3C4
_symmetry_space_group_name_H-M   'P 1'
_cell_length_a   3.31791363
_cell_length_b   3.31791255
_cell_length_c   22.03092136
_cell_angle_alpha   90.00000000
_cell_angle_beta   90.00000000
_cell_angle_gamma   119.99999068
_symmetry_Int_Tables_number   1
_chemical_formula_structural   Hf2Al3C4
_chemical_formula_sum   'Hf4 Al6 C8'
_cell_volume   210.03580958
_cell_formula_units_Z   2
loop_
 _symmetry_equiv_pos_site_id
 _symmetry_equiv_pos_as_xyz
  1  'x, y, z'
loop_
 _atom_site_type_symbol
 _atom_site_label
 _atom_site_symmetry_multiplicity
 _atom_site_fract_x
 _atom_site_fract_y
 _atom_site_fract_z
 _atom_site_occupancy
  Hf  Hf0  1  0.66666700  0.33333300  0.05774920  1
  Hf  Hf1  1  0.33333300  0.66666700  0.94225080  1
  Hf  Hf2  1  0.33333300  0.66666700  0.55774920  1
  Hf  Hf3  1  0.66666700  0.33333300  0.44225080  1
  Al  Al0  1  -0.00000000  0.00000000  0.15875433  1
  Al  Al1  1  -0.00000000  -0.00000000  0.34124467  1
  Al  Al2  1  -0.00000000  -0.00000000  0.84124467  1
  Al  Al3  1  -0.00000000  -0.00000000  0.65875533  1
  Al  Al4  1  0.66666700  0.33333300  0.75000000  1
  Al  Al5  1  0.33333300  0.66666700  0.25000000  1
  C  C0  1  0.66666700  0.33333300  0.62706719  1
  C  C1  1  0.33333300  0.66666700  0.37293281  1
  C  C2  1  -0.00000000  0.00000000  0.25000000  1
  C  C3  1  0.33333300  0.66666700  0.12706719  1
  C  C4  1  -0.00000000  -0.00000000  0.00000000  1
  C  C5  1  0.66666700  0.33333300  0.87293281  1
  C  C6  1  -0.00000000  -0.00000000  0.50000000  1
  C  C7  1  -0.00000000  -0.00000000  0.75000000  1
loop_
_geom_bond_atom_site_label_1
_geom_bond_atom_site_label_2
_geom_bond_distance
_geom_bond_site_symmetry_2
Al0 C2 2.010226 1_555
Al0 C3 2.038835 1_545
Al0 C3 2.038837 1_555
Al0 C3 2.038838 1_445
Al1 C2 2.010204 1_555
Al1 C1 2.038842 1_545
Al1 C1 2.038845 1_555
Al1 C1 2.038846 1_445
Al2 C7 2.010204 1_555
Al2 C5 2.038842 1_455
Al2 C5 2.038845 1_445
Al2 C5 2.038846 1_555
Al3 C7 2.010204 1_555
Al3 C0 2.038842 1_455
Al3 C0 2.038845 1_445
Al3 C0 2.038846 1_555
Al4 C7 1.915596 1_655
Al4 C7 1.915599 1_665
Al4 C7 1.915599 1_555
Al5 C2 1.915596 1_565
Al5 C2 1.915599 1_555
Al5 C2 1.915599 1_665
C0 Hf2 2.449829 1_545
C0 Hf2 2.449829 1_655
C0 Hf2 2.449834 1_555
C1 Hf3 2.449829 1_565
C1 Hf3 2.449829 1_455
C1 Hf3 2.449834 1_555
C3 Hf0 2.449829 1_565
C3 Hf0 2.449829 1_455
C3 Hf0 2.449834 1_555
C4 Hf1 2.299603 1_544
C4 Hf0 2.299603 1_455
C4 Hf1 2.299605 1_554
C4 Hf0 2.299605 1_445
C4 Hf1 2.299606 1_444
C4 Hf0 2.299606 1_555
C5 Hf1 2.449829 1_545
C5 Hf1 2.449829 1_655
C5 Hf1 2.449834 1_555
C6 Hf2 2.299603 1_545
C6 Hf3 2.299603 1_455
C6 Hf2 2.299605 1_555
C6 Hf3 2.299605 1_445
C6 Hf2 2.299606 1_445
C6 Hf3 2.299606 1_555
