# generated using pymatgen
data_Mn3B7BrO13
_symmetry_space_group_name_H-M   'P 1'
_cell_length_a   8.78522600
_cell_length_b   8.80523700
_cell_length_c   12.45452000
_cell_angle_alpha   90.00000000
_cell_angle_beta   90.00000000
_cell_angle_gamma   90.00000000
_symmetry_Int_Tables_number   1
_chemical_formula_structural   Mn3B7BrO13
_chemical_formula_sum   'Mn12 B28 Br4 O52'
_cell_volume   963.43181211
_cell_formula_units_Z   4
loop_
 _symmetry_equiv_pos_site_id
 _symmetry_equiv_pos_as_xyz
  1  'x, y, z'
loop_
 _atom_site_type_symbol
 _atom_site_label
 _atom_site_symmetry_multiplicity
 _atom_site_fract_x
 _atom_site_fract_y
 _atom_site_fract_z
 _atom_site_occupancy
  Mn  Mn0  1  0.74784200  0.24023100  0.23132900  1
  Mn  Mn1  1  0.02984600  0.98879400  0.00939200  1
  Mn  Mn2  1  0.52944900  0.01221600  0.50537800  1
  Mn  Mn3  1  0.52944900  0.48778400  0.00537800  1
  Mn  Mn4  1  0.97015400  0.01120600  0.50939200  1
  Mn  Mn5  1  0.74784200  0.25976900  0.73132900  1
  Mn  Mn6  1  0.25215800  0.74023100  0.23132900  1
  Mn  Mn7  1  0.97015400  0.48879400  0.00939200  1
  Mn  Mn8  1  0.02984600  0.51120600  0.50939200  1
  Mn  Mn9  1  0.25215800  0.75976900  0.73132900  1
  Mn  Mn10  1  0.47055100  0.51221600  0.50537800  1
  Mn  Mn11  1  0.47055100  0.98778400  0.00537800  1
  B  B0  1  0.90241300  0.74442400  0.67563600  1
  B  B1  1  0.49586300  0.50105000  0.75446500  1
  B  B2  1  0.24933700  0.04496700  0.35605900  1
  B  B3  1  0.99688000  0.00036600  0.75619100  1
  B  B4  1  0.99688000  0.49963400  0.25619100  1
  B  B5  1  0.24683200  0.24253700  0.50219100  1
  B  B6  1  0.75316800  0.74253700  0.50219100  1
  B  B7  1  0.24933700  0.45503300  0.85605900  1
  B  B8  1  0.40084900  0.25513600  0.17495600  1
  B  B9  1  0.75000700  0.59443200  0.82627400  1
  B  B10  1  0.24999300  0.09443200  0.82627400  1
  B  B11  1  0.75000700  0.90556800  0.32627400  1
  B  B12  1  0.09758700  0.24442400  0.67563600  1
  B  B13  1  0.50413700  0.00105000  0.75446500  1
  B  B14  1  0.00312000  0.50036700  0.75619100  1
  B  B15  1  0.90241300  0.75557600  0.17563600  1
  B  B16  1  0.09758700  0.25557600  0.17563600  1
  B  B17  1  0.75316800  0.75746300  0.00219100  1
  B  B18  1  0.24683200  0.25746300  0.00219100  1
  B  B19  1  0.59915100  0.74486400  0.67495600  1
  B  B20  1  0.75066300  0.95503300  0.85605900  1
  B  B21  1  0.49586300  0.99895000  0.25446500  1
  B  B22  1  0.75066300  0.54496700  0.35605900  1
  B  B23  1  0.00312000  0.99963300  0.25619100  1
  B  B24  1  0.50413700  0.49895000  0.25446500  1
  B  B25  1  0.24999300  0.40556800  0.32627400  1
  B  B26  1  0.40084900  0.24486400  0.67495600  1
  B  B27  1  0.59915100  0.75513600  0.17495600  1
  Br  Br0  1  0.74940300  0.23902100  0.51040300  1
  Br  Br1  1  0.25059700  0.76097900  0.01040300  1
  Br  Br2  1  0.74940300  0.26097900  0.01040300  1
  Br  Br3  1  0.25059700  0.73902100  0.51040300  1
  O  O0  1  0.15838700  0.53013500  0.28043000  1
  O  O1  1  0.05617800  0.09447600  0.16551600  1
  O  O2  1  0.97619400  0.16184200  0.72991000  1
  O  O3  1  0.53621400  0.59137100  0.65923300  1
  O  O4  1  0.48762300  0.66210700  0.23237300  1
  O  O5  1  0.87513100  0.82131500  0.06889200  1
  O  O6  1  0.40625100  0.45494900  0.34483900  1
  O  O7  1  0.97619400  0.33815800  0.22991000  1
  O  O8  1  0.33283700  0.53834300  0.78264600  1
  O  O9  1  0.67693400  0.88270000  0.93970000  1
  O  O10  1  0.46378600  0.40862900  0.15923300  1
  O  O11  1  0.02380600  0.66184200  0.72991000  1
  O  O12  1  0.12486900  0.17868500  0.56889200  1
  O  O13  1  0.09259500  0.03480500  0.35636400  1
  O  O14  1  0.90740500  0.53480500  0.35636400  1
  O  O15  1  0.36266900  0.31401800  0.57158500  1
  O  O16  1  0.59374900  0.95494900  0.34483900  1
  O  O17  1  0.15838700  0.96986500  0.78043000  1
  O  O18  1  0.51237700  0.16210700  0.23237300  1
  O  O19  1  0.18257000  0.35744100  0.42861800  1
  O  O20  1  0.66716300  0.46165700  0.28264600  1
  O  O21  1  0.51237700  0.33789300  0.73237300  1
  O  O22  1  0.40625100  0.04505100  0.84483900  1
  O  O23  1  0.02380600  0.83815800  0.22991000  1
  O  O24  1  0.84161300  0.46986500  0.78043000  1
  O  O25  1  0.46378600  0.09137100  0.65923300  1
  O  O26  1  0.53621400  0.90862900  0.15923300  1
  O  O27  1  0.90740500  0.96519500  0.85636400  1
  O  O28  1  0.33283700  0.96165700  0.28264600  1
  O  O29  1  0.09259500  0.46519500  0.85636400  1
  O  O30  1  0.87513100  0.67868500  0.56889200  1
  O  O31  1  0.75017800  0.77332700  0.24200100  1
  O  O32  1  0.81743000  0.85744100  0.42861800  1
  O  O33  1  0.81743000  0.64255900  0.92861800  1
  O  O34  1  0.18257000  0.14255900  0.92861800  1
  O  O35  1  0.63733100  0.81401800  0.57158500  1
  O  O36  1  0.66716300  0.03834300  0.78264600  1
  O  O37  1  0.05617800  0.40552400  0.66551600  1
  O  O38  1  0.94382200  0.59447600  0.16551600  1
  O  O39  1  0.12486900  0.32131500  0.06889200  1
  O  O40  1  0.75017800  0.72667300  0.74200100  1
  O  O41  1  0.67693400  0.61730000  0.43970000  1
  O  O42  1  0.24982200  0.22667300  0.74200100  1
  O  O43  1  0.32306600  0.11730000  0.43970000  1
  O  O44  1  0.59374900  0.54505100  0.84483900  1
  O  O45  1  0.24982200  0.27332700  0.24200100  1
  O  O46  1  0.32306600  0.38270000  0.93970000  1
  O  O47  1  0.36266900  0.18598200  0.07158500  1
  O  O48  1  0.84161300  0.03013500  0.28043000  1
  O  O49  1  0.63733100  0.68598200  0.07158500  1
  O  O50  1  0.94382200  0.90552400  0.66551600  1
  O  O51  1  0.48762300  0.83789300  0.73237300  1
loop_
_geom_bond_atom_site_label_1
_geom_bond_atom_site_label_2
_geom_bond_distance
_geom_bond_site_symmetry_2
Mn0 O48 2.115398 1_555
Mn0 O20 2.170765 1_555
Mn0 O18 2.180031 1_555
Mn0 O7 2.183657 1_555
Mn1 O5 2.138061 1_455
Mn1 O34 2.155315 1_564
Mn1 O1 2.168025 1_565
Mn1 O27 2.198333 1_454
Mn2 O25 2.119041 1_555
Mn2 O16 2.138016 1_545
Mn2 O35 2.150313 1_545
Mn2 O43 2.193781 1_555
Mn3 O10 2.119041 1_555
Mn3 O44 2.138016 1_554
Mn3 O49 2.150313 1_555
Mn3 O46 2.193781 1_554
Mn4 O12 2.138061 1_655
Mn4 O32 2.155315 1_545
Mn4 O50 2.168025 1_545
Mn4 O13 2.198333 1_655
Mn5 O24 2.115398 1_555
Mn5 O36 2.170765 1_555
Mn5 O21 2.180031 1_555
Mn5 O2 2.183657 1_555
Mn6 O0 2.115398 1_555
Mn6 O28 2.170765 1_555
Mn6 O4 2.180031 1_555
Mn6 O23 2.183657 1_555
Mn7 O39 2.138061 1_655
Mn7 O33 2.155315 1_554
Mn7 O38 2.168025 1_555
Mn7 O29 2.198333 1_654
Mn8 O30 2.138061 1_455
Mn8 O19 2.155315 1_555
Mn8 O37 2.168025 1_555
Mn8 O14 2.198333 1_455
Mn9 O17 2.115398 1_555
Mn9 O8 2.170765 1_555
Mn9 O51 2.180031 1_555
Mn9 O11 2.183657 1_555
Mn10 O3 2.119041 1_555
Mn10 O6 2.138016 1_555
Mn10 O15 2.150313 1_555
Mn10 O41 2.193781 1_555
Mn11 O26 2.119041 1_555
Mn11 O22 2.138016 1_564
Mn11 O47 2.150313 1_565
Mn11 O9 2.193781 1_554
B0 O11 1.457058 1_655
B0 O30 1.469672 1_555
B0 O50 1.469842 1_555
B0 O40 1.579967 1_555
B1 O44 1.468510 1_555
B1 O21 1.469924 1_555
B1 O3 1.471368 1_555
B1 O8 1.510719 1_555
B2 O13 1.379923 1_555
B2 O43 1.382157 1_555
B2 O28 1.382832 1_545
B3 O2 1.470298 1_555
B3 O17 1.475287 1_645
B3 O50 1.479874 1_545
B3 O27 1.506757 1_545
B4 O7 1.470298 1_555
B4 O0 1.475287 1_655
B4 O38 1.479874 1_555
B4 O14 1.506757 1_555
B5 O12 1.467743 1_555
B5 O15 1.476054 1_555
B5 O19 1.477163 1_555
B5 O43 1.506760 1_555
B6 O30 1.467743 1_555
B6 O35 1.476054 1_555
B6 O32 1.477163 1_555
B6 O41 1.506760 1_555
B7 O29 1.379923 1_555
B7 O46 1.382157 1_555
B7 O8 1.382832 1_555
B8 O47 1.463140 1_555
B8 O18 1.463684 1_555
B8 O10 1.473339 1_555
B8 O45 1.575855 1_555
B9 O44 1.458423 1_555
B9 O33 1.468044 1_555
B9 O24 1.475376 1_555
B9 O40 1.567635 1_555
B10 O22 1.458423 1_555
B10 O34 1.468044 1_555
B10 O17 1.475376 1_545
B10 O42 1.567635 1_555
B11 O16 1.458423 1_555
B11 O32 1.468044 1_555
B11 O48 1.475376 1_565
B11 O31 1.567635 1_555
B12 O2 1.457058 1_455
B12 O12 1.469672 1_555
B12 O37 1.469842 1_555
B12 O42 1.579967 1_555
B13 O22 1.468510 1_555
B13 O51 1.469924 1_545
B13 O25 1.471368 1_555
B13 O36 1.510719 1_555
B14 O11 1.470289 1_555
B14 O24 1.475288 1_455
B14 O37 1.479878 1_555
B14 O29 1.506759 1_555
B15 O23 1.457058 1_655
B15 O5 1.469672 1_555
B15 O38 1.469842 1_555
B15 O31 1.579967 1_555
B16 O7 1.457058 1_455
B16 O39 1.469672 1_555
B16 O1 1.469842 1_555
B16 O45 1.579967 1_555
B17 O5 1.467743 1_555
B17 O49 1.476054 1_555
B17 O33 1.477163 1_554
B17 O9 1.506760 1_554
B18 O39 1.467743 1_555
B18 O47 1.476054 1_555
B18 O34 1.477163 1_554
B18 O46 1.506760 1_554
B19 O35 1.463140 1_555
B19 O51 1.463684 1_555
B19 O3 1.473339 1_555
B19 O40 1.575855 1_555
B20 O27 1.379923 1_555
B20 O9 1.382157 1_555
B20 O36 1.382832 1_565
B21 O16 1.468510 1_555
B21 O18 1.469924 1_565
B21 O26 1.471368 1_555
B21 O28 1.510719 1_555
B22 O14 1.379923 1_555
B22 O41 1.382157 1_555
B22 O20 1.382832 1_555
B23 O23 1.470289 1_555
B23 O48 1.475288 1_465
B23 O1 1.479878 1_565
B23 O13 1.506759 1_565
B24 O6 1.468510 1_555
B24 O4 1.469924 1_555
B24 O10 1.471368 1_555
B24 O20 1.510719 1_555
B25 O6 1.458423 1_555
B25 O19 1.468044 1_555
B25 O0 1.475376 1_555
B25 O45 1.567635 1_555
B26 O15 1.463140 1_555
B26 O21 1.463684 1_555
B26 O25 1.473339 1_555
B26 O42 1.575855 1_555
B27 O49 1.463140 1_555
B27 O4 1.463684 1_555
B27 O26 1.473339 1_555
B27 O31 1.575855 1_555
Br0 Mn5 2.757620 1_555
Br0 Mn2 2.779599 1_555
Br0 Mn4 2.790183 1_555
Br1 Mn6 2.757620 1_555
Br1 Mn11 2.779599 1_555
Br1 Mn1 2.790183 1_555
Br2 Mn0 2.757620 1_555
Br2 Mn3 2.779599 1_555
Br2 Mn7 2.790183 1_555
Br3 Mn9 2.757620 1_555
Br3 Mn10 2.779599 1_555
Br3 Mn8 2.790183 1_555
