# generated using pymatgen
data_CsTb2Ag3Se5
_symmetry_space_group_name_H-M   'P 1'
_cell_length_a   8.12359691
_cell_length_b   8.12359691
_cell_length_c   17.63785300
_cell_angle_alpha   90.00000000
_cell_angle_beta   90.00000000
_cell_angle_gamma   149.08999951
_symmetry_Int_Tables_number   1
_chemical_formula_structural   CsTb2Ag3Se5
_chemical_formula_sum   'Cs2 Tb4 Ag6 Se10'
_cell_volume   597.92184067
_cell_formula_units_Z   2
loop_
 _symmetry_equiv_pos_site_id
 _symmetry_equiv_pos_as_xyz
  1  'x, y, z'
loop_
 _atom_site_type_symbol
 _atom_site_label
 _atom_site_symmetry_multiplicity
 _atom_site_fract_x
 _atom_site_fract_y
 _atom_site_fract_z
 _atom_site_occupancy
  Cs  Cs0  1  0.56167800  0.43832200  0.75000000  1
  Cs  Cs1  1  0.43832200  0.56167800  0.25000000  1
  Tb  Tb0  1  0.69277700  0.30722300  0.40492500  1
  Tb  Tb1  1  0.30722300  0.69277700  0.59507500  1
  Tb  Tb2  1  0.30722300  0.69277700  0.90492500  1
  Tb  Tb3  1  0.69277700  0.30722300  0.09507500  1
  Ag  Ag0  1  0.84357000  0.15643000  0.75000000  1
  Ag  Ag1  1  0.15643000  0.84357000  0.25000000  1
  Ag  Ag2  1  0.91710400  0.08289600  0.45828300  1
  Ag  Ag3  1  0.08289600  0.91710400  0.54171700  1
  Ag  Ag4  1  0.08289600  0.91710400  0.95828300  1
  Ag  Ag5  1  0.91710400  0.08289600  0.04171700  1
  Se  Se0  1  0.93070000  0.06930000  0.88418400  1
  Se  Se1  1  0.06930000  0.93070000  0.11581600  1
  Se  Se2  1  0.06930000  0.93070000  0.38418400  1
  Se  Se3  1  0.93070000  0.06930000  0.61581600  1
  Se  Se4  1  0.24743000  0.75256900  0.75000000  1
  Se  Se5  1  0.75257000  0.24743000  0.25000000  1
  Se  Se6  1  0.68160100  0.31839900  0.93041500  1
  Se  Se7  1  0.31839900  0.68160100  0.06958500  1
  Se  Se8  1  0.31839900  0.68160100  0.43041500  1
  Se  Se9  1  0.68160100  0.31839900  0.56958500  1
loop_
_geom_bond_atom_site_label_1
_geom_bond_atom_site_label_2
_geom_bond_distance
_geom_bond_site_symmetry_2
Cs0 Se4 3.625959 1_655
Cs0 Se4 3.625961 1_545
Cs0 Se9 3.694956 1_555
Cs0 Se6 3.694956 1_555
Cs0 Se0 3.807174 1_565
Cs0 Se0 3.807174 1_455
Cs0 Se3 3.807174 1_565
Cs0 Se3 3.807174 1_455
Cs1 Se5 3.625954 1_455
Cs1 Se5 3.625954 1_565
Cs1 Se7 3.694956 1_555
Cs1 Se8 3.694956 1_555
Cs1 Se2 3.807174 1_545
Cs1 Se2 3.807174 1_655
Cs1 Se1 3.807174 1_545
Cs1 Se1 3.807174 1_655
Ag0 Se4 2.636830 1_655
Ag0 Se4 2.636834 1_545
Ag0 Se0 2.731853 1_555
Ag0 Se3 2.731853 1_555
Ag1 Se5 2.636837 1_455
Ag1 Se5 2.636837 1_565
Ag1 Se2 2.731853 1_555
Ag1 Se1 2.731853 1_555
Ag2 Se8 2.705008 1_545
Ag2 Se8 2.705008 1_655
Ag2 Se2 2.718168 1_645
Ag2 Se3 2.786689 1_555
Ag3 Se9 2.705008 1_455
Ag3 Se9 2.705008 1_565
Ag3 Se3 2.718168 1_465
Ag3 Se2 2.786689 1_555
Ag4 Se6 2.705008 1_455
Ag4 Se6 2.705008 1_565
Ag4 Se0 2.718168 1_465
Ag4 Se1 2.786689 1_556
Ag5 Se7 2.705008 1_545
Ag5 Se7 2.705008 1_655
Ag5 Se1 2.718168 1_645
Ag5 Se0 2.786689 1_554
Se0 Tb2 2.925576 1_655
Se0 Tb2 2.925576 1_545
Se1 Tb3 2.925576 1_565
Se1 Tb3 2.925576 1_455
Se2 Tb0 2.925576 1_565
Se2 Tb0 2.925576 1_455
Se3 Tb1 2.925576 1_655
Se3 Tb1 2.925576 1_545
Se4 Tb1 2.888515 1_555
Se4 Tb2 2.888515 1_555
Se5 Tb0 2.888517 1_555
Se5 Tb3 2.888517 1_555
Se6 Tb3 2.909517 1_556
Se6 Tb2 2.959446 1_655
Se6 Tb2 2.959446 1_545
Se7 Tb2 2.909517 1_554
Se7 Tb3 2.959446 1_565
Se7 Tb3 2.959446 1_455
Se8 Tb1 2.909517 1_555
Se8 Tb0 2.959446 1_565
Se8 Tb0 2.959446 1_455
Se9 Tb0 2.909517 1_555
Se9 Tb1 2.959446 1_655
Se9 Tb1 2.959446 1_545
