# generated using pymatgen
data_SiO2
_symmetry_space_group_name_H-M   'P 1'
_cell_length_a   11.77223700
_cell_length_b   11.77223700
_cell_length_c   4.37524400
_cell_angle_alpha   90.00000000
_cell_angle_beta   90.00000000
_cell_angle_gamma   90.00000000
_symmetry_Int_Tables_number   1
_chemical_formula_structural   SiO2
_chemical_formula_sum   'Si16 O32'
_cell_volume   606.34565731
_cell_formula_units_Z   16
loop_
 _symmetry_equiv_pos_site_id
 _symmetry_equiv_pos_as_xyz
  1  'x, y, z'
loop_
 _atom_site_type_symbol
 _atom_site_label
 _atom_site_symmetry_multiplicity
 _atom_site_fract_x
 _atom_site_fract_y
 _atom_site_fract_z
 _atom_site_occupancy
  Si  Si0  1  0.73702600  0.07921000  0.28796300  1
  Si  Si1  1  0.76193300  0.58422300  0.26631900  1
  Si  Si2  1  0.57921000  0.76297400  0.28796300  1
  Si  Si3  1  0.08422300  0.73806700  0.26631900  1
  Si  Si4  1  0.58422300  0.23806700  0.73368100  1
  Si  Si5  1  0.26297400  0.92079000  0.28796300  1
  Si  Si6  1  0.41577700  0.76193300  0.73368100  1
  Si  Si7  1  0.23806700  0.41577700  0.26631900  1
  Si  Si8  1  0.76297400  0.42079000  0.71203700  1
  Si  Si9  1  0.07921000  0.26297400  0.71203700  1
  Si  Si10  1  0.91577700  0.26193300  0.26631900  1
  Si  Si11  1  0.26193300  0.08422300  0.73368100  1
  Si  Si12  1  0.92079000  0.73702600  0.71203700  1
  Si  Si13  1  0.42079000  0.23702600  0.28796300  1
  Si  Si14  1  0.73806700  0.91577700  0.73368100  1
  Si  Si15  1  0.23702600  0.57921000  0.71203700  1
  O  O0  1  0.82519700  0.81955100  0.86421100  1
  O  O1  1  0.86090100  0.64151500  0.48575300  1
  O  O2  1  0.18829200  0.49490600  0.98498100  1
  O  O3  1  0.50109000  0.31222200  0.51307100  1
  O  O4  1  0.00109000  0.81222200  0.48692900  1
  O  O5  1  0.64151500  0.13909900  0.51424700  1
  O  O6  1  0.81955100  0.17480300  0.13578900  1
  O  O7  1  0.68044900  0.32519700  0.86421100  1
  O  O8  1  0.17480300  0.18044900  0.86421100  1
  O  O9  1  0.35848500  0.86090100  0.51424700  1
  O  O10  1  0.99891000  0.18777800  0.48692900  1
  O  O11  1  0.49891000  0.68777800  0.51307100  1
  O  O12  1  0.67480300  0.68044900  0.13578900  1
  O  O13  1  0.18044900  0.82519700  0.13578900  1
  O  O14  1  0.81170800  0.50509400  0.98498100  1
  O  O15  1  0.18777800  0.00109000  0.51307100  1
  O  O16  1  0.99490600  0.31170800  0.98498100  1
  O  O17  1  0.81222200  0.99891000  0.51307100  1
  O  O18  1  0.32519700  0.31955100  0.13578900  1
  O  O19  1  0.49490600  0.81170800  0.01501900  1
  O  O20  1  0.31955100  0.67480300  0.86421100  1
  O  O21  1  0.68777800  0.50109000  0.48692900  1
  O  O22  1  0.50509400  0.18829200  0.01501900  1
  O  O23  1  0.85848500  0.36090100  0.48575300  1
  O  O24  1  0.63909900  0.85848500  0.51424700  1
  O  O25  1  0.68829200  0.99490600  0.01501900  1
  O  O26  1  0.00509400  0.68829200  0.98498100  1
  O  O27  1  0.14151500  0.63909900  0.48575300  1
  O  O28  1  0.31170800  0.00509400  0.01501900  1
  O  O29  1  0.36090100  0.14151500  0.51424700  1
  O  O30  1  0.31222200  0.49891000  0.48692900  1
  O  O31  1  0.13909900  0.35848500  0.48575300  1
loop_
_geom_bond_atom_site_label_1
_geom_bond_atom_site_label_2
_geom_bond_distance
_geom_bond_site_symmetry_2
O0 Si12 1.628958 1_555
O0 Si14 1.631402 1_555
O1 Si1 1.653492 1_555
O1 Si12 1.655743 1_555
O2 Si7 1.651140 1_556
O2 Si15 1.655354 1_555
O3 Si13 1.627043 1_555
O3 Si4 1.628346 1_555
O4 Si12 1.627043 1_455
O4 Si3 1.628346 1_555
O5 Si4 1.653492 1_555
O5 Si0 1.655743 1_555
O6 Si0 1.628958 1_555
O6 Si10 1.631402 1_555
O7 Si8 1.628958 1_555
O7 Si4 1.631402 1_555
O8 Si9 1.628958 1_555
O8 Si11 1.631402 1_555
O9 Si6 1.653492 1_555
O9 Si5 1.655743 1_555
O10 Si9 1.627043 1_655
O10 Si10 1.628346 1_555
O11 Si2 1.627043 1_555
O11 Si6 1.628346 1_555
O12 Si2 1.628958 1_555
O12 Si1 1.631402 1_555
O13 Si5 1.628958 1_555
O13 Si3 1.631402 1_555
O14 Si1 1.651140 1_556
O14 Si8 1.655354 1_555
O15 Si5 1.627043 1_545
O15 Si11 1.628346 1_555
O16 Si10 1.651140 1_556
O16 Si9 1.655354 1_655
O17 Si0 1.627043 1_565
O17 Si14 1.628346 1_555
O18 Si13 1.628958 1_555
O18 Si7 1.631402 1_555
O19 Si6 1.651140 1_554
O19 Si2 1.655354 1_555
O20 Si15 1.628958 1_555
O20 Si6 1.631402 1_555
O21 Si8 1.627043 1_555
O21 Si1 1.628346 1_555
O22 Si4 1.651140 1_554
O22 Si13 1.655354 1_555
O23 Si10 1.653492 1_555
O23 Si8 1.655743 1_555
O24 Si14 1.653492 1_555
O24 Si2 1.655743 1_555
O25 Si14 1.651140 1_554
O25 Si0 1.655354 1_565
O26 Si3 1.651140 1_556
O26 Si12 1.655354 1_455
O27 Si3 1.653492 1_555
O27 Si15 1.655743 1_555
O28 Si11 1.651140 1_554
O28 Si5 1.655354 1_545
O29 Si11 1.653492 1_555
O29 Si13 1.655743 1_555
O30 Si15 1.627043 1_555
O30 Si7 1.628346 1_555
O31 Si7 1.653492 1_555
O31 Si9 1.655743 1_555
