# generated using pymatgen
data_Sn2PClO4
_symmetry_space_group_name_H-M   'P 1'
_cell_length_a   5.05598675
_cell_length_b   5.05598675
_cell_length_c   13.29213443
_cell_angle_alpha   90.00000000
_cell_angle_beta   90.00000000
_cell_angle_gamma   123.38418412
_symmetry_Int_Tables_number   1
_chemical_formula_structural   Sn2PClO4
_chemical_formula_sum   'Sn4 P2 Cl2 O8'
_cell_volume   283.72195468
_cell_formula_units_Z   2
loop_
 _symmetry_equiv_pos_site_id
 _symmetry_equiv_pos_as_xyz
  1  'x, y, z'
loop_
 _atom_site_type_symbol
 _atom_site_label
 _atom_site_symmetry_multiplicity
 _atom_site_fract_x
 _atom_site_fract_y
 _atom_site_fract_z
 _atom_site_occupancy
  Sn  Sn0  1  0.83863285  0.23234310  0.88985077  1
  Sn  Sn1  1  0.23234310  0.83863285  0.38985077  1
  Sn  Sn2  1  0.23234310  0.83863285  0.11014923  1
  Sn  Sn3  1  0.83863285  0.23234310  0.61014923  1
  P  P0  1  0.18712462  0.91978891  0.75000000  1
  P  P1  1  0.91978891  0.18712462  0.25000000  1
  Cl  Cl0  1  0.44895854  0.44895854  -0.00000000  1
  Cl  Cl1  1  0.44895854  0.44895854  0.50000000  1
  O  O0  1  0.10862676  0.72281970  0.84553887  1
  O  O1  1  0.17973256  0.54809305  0.25000000  1
  O  O2  1  0.01560044  0.09689949  0.75000000  1
  O  O3  1  0.72281970  0.10862676  0.15446113  1
  O  O4  1  0.10862676  0.72281970  0.65446113  1
  O  O5  1  0.72281970  0.10862676  0.34553887  1
  O  O6  1  0.54809305  0.17973256  0.75000000  1
  O  O7  1  0.09689949  0.01560044  0.25000000  1
loop_
_geom_bond_atom_site_label_1
_geom_bond_atom_site_label_2
_geom_bond_distance
_geom_bond_site_symmetry_2
Cl0 Sn0 3.024242 1_454
Cl0 Sn2 3.024242 1_545
Cl0 Sn2 3.098285 1_555
Cl0 Sn0 3.098285 1_554
Cl1 Sn1 3.024242 1_545
Cl1 Sn3 3.024242 1_455
Cl1 Sn3 3.098285 1_555
Cl1 Sn1 3.098285 1_555
O0 P0 1.525450 1_555
O0 Sn0 2.152810 1_455
O1 P1 1.555136 1_455
O1 Sn2 2.292197 1_555
O1 Sn1 2.292197 1_555
O2 P0 1.551953 1_545
O2 Sn3 2.323659 1_455
O2 Sn0 2.323659 1_455
O3 P1 1.525450 1_555
O3 Sn2 2.152810 1_545
O4 P0 1.525450 1_555
O4 Sn3 2.152810 1_455
O5 P1 1.525450 1_555
O5 Sn1 2.152810 1_545
O6 P0 1.555136 1_545
O6 Sn3 2.292197 1_555
O6 Sn0 2.292197 1_555
O7 P1 1.551953 1_455
O7 Sn1 2.323659 1_545
O7 Sn2 2.323659 1_545
