# generated using pymatgen
data_Ba7Ca2Mn3Cr2O20
_symmetry_space_group_name_H-M   'P 1'
_cell_length_a   17.69235391
_cell_length_b   17.69235400
_cell_length_c   17.69235444
_cell_angle_alpha   19.18979886
_cell_angle_beta   19.18979991
_cell_angle_gamma   19.18979895
_symmetry_Int_Tables_number   1
_chemical_formula_structural   Ba7Ca2Mn3Cr2O20
_chemical_formula_sum   'Ba7 Ca2 Mn3 Cr2 O20'
_cell_volume   523.02555791
_cell_formula_units_Z   1
loop_
 _symmetry_equiv_pos_site_id
 _symmetry_equiv_pos_as_xyz
  1  'x, y, z'
loop_
 _atom_site_type_symbol
 _atom_site_label
 _atom_site_symmetry_multiplicity
 _atom_site_fract_x
 _atom_site_fract_y
 _atom_site_fract_z
 _atom_site_occupancy
  Ba  Ba0  1  0.61186700  0.61186700  0.61186700  1
  Ba  Ba1  1  0.14593900  0.14593900  0.14593900  1
  Ba  Ba2  1  0.38813300  0.38813300  0.38813300  1
  Ba  Ba3  1  0.22634900  0.22634900  0.22634900  1
  Ba  Ba4  1  0.77365100  0.77365100  0.77365100  1
  Ba  Ba5  1  0.85406100  0.85406100  0.85406100  1
  Ba  Ba6  1  0.00000000  0.00000000  0.00000000  1
  Ca  Ca0  1  0.92535200  0.92535200  0.92535200  1
  Ca  Ca1  1  0.07464800  0.07464800  0.07464800  1
  Mn  Mn0  1  0.54945100  0.54945100  0.54945100  1
  Mn  Mn1  1  0.45054900  0.45054900  0.45054900  1
  Mn  Mn2  1  0.50000000  0.50000000  0.50000000  1
  Cr  Cr0  1  0.69730700  0.69730700  0.69730700  1
  Cr  Cr1  1  0.30269300  0.30269300  0.30269300  1
  O  O0  1  0.27813900  0.27813900  0.73637700  1
  O  O1  1  0.81541500  0.37727900  0.37727900  1
  O  O2  1  0.86758200  0.39184900  0.86758200  1
  O  O3  1  0.66496200  0.66496200  0.66496200  1
  O  O4  1  0.33503800  0.33503800  0.33503800  1
  O  O5  1  0.37727900  0.81541500  0.37727900  1
  O  O6  1  0.13241800  0.13241800  0.60815100  1
  O  O7  1  0.86758200  0.86758200  0.39184900  1
  O  O8  1  0.72186100  0.26362300  0.72186100  1
  O  O9  1  0.26362300  0.72186100  0.72186100  1
  O  O10  1  0.27813900  0.73637700  0.27813900  1
  O  O11  1  0.39184900  0.86758200  0.86758200  1
  O  O12  1  0.72186100  0.72186100  0.26362300  1
  O  O13  1  0.62272100  0.18458500  0.62272100  1
  O  O14  1  0.18458500  0.62272100  0.62272100  1
  O  O15  1  0.13241800  0.60815100  0.13241800  1
  O  O16  1  0.60815100  0.13241800  0.13241800  1
  O  O17  1  0.62272100  0.62272100  0.18458500  1
  O  O18  1  0.37727900  0.37727900  0.81541500  1
  O  O19  1  0.73637700  0.27813900  0.27813900  1
loop_
_geom_bond_atom_site_label_1
_geom_bond_atom_site_label_2
_geom_bond_distance
_geom_bond_site_symmetry_2
Ba0 O8 2.719028 1_555
Ba0 O9 2.719028 1_555
Ba0 O12 2.719028 1_555
Ba0 O3 2.765438 1_555
Ba0 O16 3.020697 1_565
Ba0 O6 3.020697 1_655
Ba0 O6 3.020697 1_565
Ba0 O16 3.020697 1_556
Ba0 O15 3.020697 1_655
Ba0 O15 3.020697 1_556
Ba1 O17 2.959585 1_545
Ba1 O14 2.959585 1_545
Ba1 O17 2.959585 1_455
Ba1 O14 2.959585 1_554
Ba1 O13 2.959585 1_455
Ba1 O13 2.959585 1_554
Ba1 O18 2.987469 1_554
Ba1 O5 2.987469 1_545
Ba1 O1 2.987469 1_455
Ba1 O10 3.123284 1_545
Ba1 O19 3.123284 1_455
Ba1 O0 3.123284 1_554
Ba2 O10 2.719028 1_555
Ba2 O19 2.719028 1_555
Ba2 O0 2.719028 1_555
Ba2 O4 2.765438 1_555
Ba2 O11 3.020697 1_545
Ba2 O7 3.020697 1_455
Ba2 O7 3.020697 1_545
Ba2 O11 3.020697 1_554
Ba2 O2 3.020697 1_455
Ba2 O2 3.020697 1_554
Ba3 O5 2.691954 1_545
Ba3 O1 2.691954 1_455
Ba3 O18 2.691954 1_554
Ba3 O12 2.993004 1_545
Ba3 O9 2.993004 1_554
Ba3 O12 2.993004 1_455
Ba3 O9 2.993004 1_545
Ba3 O8 2.993004 1_554
Ba3 O8 2.993004 1_455
Ba4 O13 2.691954 1_565
Ba4 O14 2.691954 1_655
Ba4 O17 2.691954 1_556
Ba4 O0 2.993004 1_565
Ba4 O19 2.993004 1_556
Ba4 O0 2.993004 1_655
Ba4 O19 2.993004 1_565
Ba4 O10 2.993004 1_556
Ba4 O10 2.993004 1_655
Ba5 O18 2.959585 1_565
Ba5 O1 2.959585 1_565
Ba5 O18 2.959585 1_655
Ba5 O1 2.959585 1_556
Ba5 O5 2.959585 1_655
Ba5 O5 2.959585 1_556
Ba5 O17 2.987469 1_556
Ba5 O13 2.987469 1_565
Ba5 O14 2.987469 1_655
Ba5 O8 3.123284 1_565
Ba5 O9 3.123284 1_655
Ba5 O12 3.123284 1_556
Ba6 O2 2.837199 1_454
Ba6 O15 2.837199 1_545
Ba6 O11 2.837199 1_544
Ba6 O16 2.837199 1_455
Ba6 O7 2.837200 1_445
Ba6 O6 2.837200 1_554
Ca0 O12 2.196901 1_556
Ca0 O8 2.196901 1_565
Ca0 O9 2.196901 1_655
Ca0 O6 2.453386 1_665
Ca0 O15 2.453386 1_656
Ca0 O16 2.453386 1_566
Ca1 O0 2.196901 1_554
Ca1 O10 2.196901 1_545
Ca1 O19 2.196901 1_455
Ca1 O7 2.453386 1_445
Ca1 O2 2.453386 1_454
Ca1 O11 2.453386 1_544
Mn0 O12 1.866488 1_555
Mn0 O8 1.866488 1_555
Mn0 O9 1.866488 1_555
Mn0 O18 2.019318 1_555
Mn0 O5 2.019318 1_555
Mn0 O1 2.019318 1_555
Mn1 O0 1.866488 1_555
Mn1 O10 1.866488 1_555
Mn1 O19 1.866488 1_555
Mn1 O17 2.019318 1_555
Mn1 O13 2.019318 1_555
Mn1 O14 2.019318 1_555
Mn2 O5 1.923983 1_555
Mn2 O13 1.923983 1_555
Mn2 O1 1.923983 1_555
Mn2 O14 1.923983 1_555
Mn2 O18 1.923983 1_555
Mn2 O17 1.923983 1_555
Cr0 O3 1.684680 1_555
Cr0 O2 1.730739 1_555
Cr0 O7 1.730739 1_555
Cr0 O11 1.730739 1_555
Cr1 O4 1.684680 1_555
Cr1 O15 1.730739 1_555
Cr1 O6 1.730739 1_555
Cr1 O16 1.730739 1_555
