# generated using pymatgen
data_Eu2Sn2O7
_symmetry_space_group_name_H-M   'P 1'
_cell_length_a   7.44639482
_cell_length_b   7.44639482
_cell_length_c   7.44639482
_cell_angle_alpha   60.00000000
_cell_angle_beta   60.00000000
_cell_angle_gamma   60.00000000
_symmetry_Int_Tables_number   1
_chemical_formula_structural   Eu2Sn2O7
_chemical_formula_sum   'Eu4 Sn4 O14'
_cell_volume   291.95988237
_cell_formula_units_Z   2
loop_
 _symmetry_equiv_pos_site_id
 _symmetry_equiv_pos_as_xyz
  1  'x, y, z'
loop_
 _atom_site_type_symbol
 _atom_site_label
 _atom_site_symmetry_multiplicity
 _atom_site_fract_x
 _atom_site_fract_y
 _atom_site_fract_z
 _atom_site_occupancy
  Eu  Eu0  1  0.12500000  0.12500000  0.12500000  1
  Eu  Eu1  1  0.62500000  0.12500000  0.12500000  1
  Eu  Eu2  1  0.12500000  0.62500000  0.12500000  1
  Eu  Eu3  1  0.12500000  0.12500000  0.62500000  1
  Sn  Sn0  1  0.62500000  0.62500000  0.62500000  1
  Sn  Sn1  1  0.12500000  0.62500000  0.62500000  1
  Sn  Sn2  1  0.62500000  0.12500000  0.62500000  1
  Sn  Sn3  1  0.62500000  0.62500000  0.12500000  1
  O  O0  1  0.95931500  0.54068500  0.95931500  1
  O  O1  1  0.70931500  0.29068500  0.29068500  1
  O  O2  1  0.29068500  0.70931500  0.70931500  1
  O  O3  1  0.70931500  0.29068500  0.70931500  1
  O  O4  1  0.29068500  0.29068500  0.70931500  1
  O  O5  1  0.70931500  0.70931500  0.29068500  1
  O  O6  1  0.95931500  0.95931500  0.54068500  1
  O  O7  1  0.54068500  0.95931500  0.95931500  1
  O  O8  1  0.95931500  0.54068500  0.54068500  1
  O  O9  1  0.54068500  0.54068500  0.95931500  1
  O  O10  1  0.29068500  0.70931500  0.29068500  1
  O  O11  1  0.54068500  0.95931500  0.54068500  1
  O  O12  1  -0.00000000  -0.00000000  -0.00000000  1
  O  O13  1  0.25000000  0.25000000  0.25000000  1
loop_
_geom_bond_atom_site_label_1
_geom_bond_atom_site_label_2
_geom_bond_distance
_geom_bond_site_symmetry_2
Eu0 O12 2.279983 1_555
Eu0 O13 2.279983 1_555
Eu0 O10 2.551442 1_545
Eu0 O1 2.551442 1_455
Eu0 O6 2.551442 1_445
Eu0 O4 2.551442 1_554
Eu0 O7 2.551442 1_544
Eu0 O0 2.551442 1_454
Eu1 O12 2.279983 1_655
Eu1 O13 2.279983 1_555
Eu1 O11 2.551442 1_545
Eu1 O3 2.551442 1_554
Eu1 O5 2.551442 1_545
Eu1 O7 2.551442 1_544
Eu1 O1 2.551442 1_555
Eu1 O9 2.551442 1_554
Eu2 O12 2.279983 1_565
Eu2 O13 2.279983 1_555
Eu2 O0 2.551442 1_454
Eu2 O5 2.551442 1_455
Eu2 O8 2.551442 1_455
Eu2 O2 2.551442 1_554
Eu2 O9 2.551442 1_554
Eu2 O10 2.551442 1_555
Eu3 O12 2.279983 1_556
Eu3 O13 2.279983 1_555
Eu3 O2 2.551442 1_545
Eu3 O6 2.551442 1_445
Eu3 O8 2.551442 1_455
Eu3 O3 2.551442 1_455
Eu3 O11 2.551442 1_545
Eu3 O4 2.551442 1_555
O0 Sn1 2.062504 1_655
O0 Sn3 2.062504 1_556
O1 Sn2 2.062504 1_555
O1 Sn3 2.062504 1_555
O2 Sn0 2.062504 1_555
O2 Sn1 2.062504 1_555
O3 Sn0 2.062504 1_555
O3 Sn2 2.062504 1_555
O4 Sn1 2.062504 1_555
O4 Sn2 2.062504 1_555
O5 Sn0 2.062504 1_555
O5 Sn3 2.062504 1_555
O6 Sn1 2.062504 1_655
O6 Sn2 2.062504 1_565
O7 Sn3 2.062504 1_556
O7 Sn2 2.062504 1_565
O8 Sn0 2.062504 1_555
O8 Sn1 2.062504 1_655
O9 Sn3 2.062504 1_556
O9 Sn0 2.062504 1_555
O10 Sn1 2.062504 1_555
O10 Sn3 2.062504 1_555
O11 Sn0 2.062504 1_555
O11 Sn2 2.062504 1_565
