# generated using pymatgen
data_RbVH6SO9
_symmetry_space_group_name_H-M   'P 1'
_cell_length_a   10.12859200
_cell_length_b   6.30048500
_cell_length_c   6.77649260
_cell_angle_alpha   71.94941087
_cell_angle_beta   90.00000000
_cell_angle_gamma   90.00000000
_symmetry_Int_Tables_number   1
_chemical_formula_structural   RbVH6SO9
_chemical_formula_sum   'Rb2 V2 H12 S2 O18'
_cell_volume   411.15878383
_cell_formula_units_Z   2
loop_
 _symmetry_equiv_pos_site_id
 _symmetry_equiv_pos_as_xyz
  1  'x, y, z'
loop_
 _atom_site_type_symbol
 _atom_site_label
 _atom_site_symmetry_multiplicity
 _atom_site_fract_x
 _atom_site_fract_y
 _atom_site_fract_z
 _atom_site_occupancy
  Rb  Rb0  1  0.65149500  0.69646200  0.81463500  1
  Rb  Rb1  1  0.15149500  0.30353800  0.18536500  1
  V  V0  1  0.49870900  0.38330400  0.38311800  1
  V  V1  1  0.99870900  0.61669600  0.61688200  1
  H  H0  1  0.57839900  0.19022200  0.82053100  1
  H  H1  1  0.20938400  0.77216000  0.30846000  1
  H  H2  1  0.85381900  0.97023700  0.30439700  1
  H  H3  1  0.70938400  0.22784000  0.69154000  1
  H  H4  1  0.35381900  0.02976300  0.69560300  1
  H  H5  1  0.07839900  0.80977800  0.17946900  1
  H  H6  1  0.35058500  0.87919300  0.92715500  1
  H  H7  1  0.76129500  0.31067300  0.26291600  1
  H  H8  1  0.26126800  0.47128700  0.65701600  1
  H  H9  1  0.85058500  0.12080700  0.07284500  1
  H  H10  1  0.76126800  0.52871300  0.34298400  1
  H  H11  1  0.26129500  0.68932700  0.73708400  1
  S  S0  1  0.99782300  0.07776900  0.73275500  1
  S  S1  1  0.49782300  0.92223100  0.26724500  1
  O  O0  1  0.04096000  0.93433200  0.60088100  1
  O  O1  1  0.53136700  0.68948500  0.40853600  1
  O  O2  1  0.93946300  0.53856000  0.85473600  1
  O  O3  1  0.43946300  0.46144000  0.14526400  1
  O  O4  1  0.57524400  0.97671700  0.07591800  1
  O  O5  1  0.54096000  0.06566800  0.39911900  1
  O  O6  1  0.86390200  0.67745300  0.46328200  1
  O  O7  1  0.85467100  0.05870700  0.77314100  1
  O  O8  1  0.61829000  0.28490600  0.68976000  1
  O  O9  1  0.35467100  0.94129300  0.22685900  1
  O  O10  1  0.36390200  0.32254700  0.53671800  1
  O  O11  1  0.36048500  0.87270200  0.78540400  1
  O  O12  1  0.03136700  0.31051500  0.59146400  1
  O  O13  1  0.70514100  0.43662900  0.28040000  1
  O  O14  1  0.07524400  0.02328300  0.92408200  1
  O  O15  1  0.11829000  0.71509400  0.31024000  1
  O  O16  1  0.86048500  0.12729800  0.21459600  1
  O  O17  1  0.20514100  0.56337100  0.71960000  1
loop_
_geom_bond_atom_site_label_1
_geom_bond_atom_site_label_2
_geom_bond_distance
_geom_bond_site_symmetry_2
H0 O8 0.988337 1_555
H1 O15 0.988949 1_555
H2 O16 0.990416 1_565
H3 O8 0.988949 1_555
H4 O11 0.990416 1_545
H5 O15 0.988337 1_555
H6 O11 0.979171 1_555
H7 O13 1.012704 1_555
H7 O16 1.638850 1_555
H8 O17 0.996053 1_555
H9 O16 0.979171 1_555
H10 O13 0.996053 1_555
H11 O17 1.012704 1_555
H11 O11 1.638850 1_555
O0 S0 1.518780 1_465
O0 V1 2.016299 1_455
O0 Rb1 3.245590 1_565
O1 S1 1.520667 1_555
O1 V0 2.016527 1_555
O1 Rb0 3.021660 1_555
O2 V1 1.645802 1_555
O2 Rb0 3.066472 1_555
O2 Rb1 3.125481 1_656
O3 V0 1.645802 1_555
O3 Rb1 3.066472 1_555
O3 Rb0 3.125481 1_554
O4 S1 1.462162 1_555
O4 Rb0 2.964245 1_554
O5 S1 1.518780 1_545
O5 V0 2.016299 1_555
O5 Rb0 3.245590 1_545
O6 V1 1.687410 1_555
O6 Rb0 3.238579 1_555
O7 S0 1.473515 1_555
O7 Rb0 3.020801 1_545
O8 V0 2.317517 1_555
O8 Rb0 2.985406 1_555
O9 S1 1.473515 1_555
O9 Rb1 3.020801 1_565
O10 V0 1.687410 1_555
O10 Rb1 3.238579 1_555
O11 Rb0 3.134294 1_555
O12 S0 1.520667 1_455
O12 V1 2.016527 1_455
O12 Rb1 3.021660 1_555
O13 V0 2.196402 1_555
O13 Rb0 3.120114 1_554
O14 S0 1.462162 1_455
O14 Rb1 2.964245 1_556
O15 V1 2.317517 1_455
O15 Rb1 2.985406 1_555
O16 Rb1 3.134294 1_655
O17 V1 2.196402 1_455
O17 Rb1 3.120114 1_556
