# generated using pymatgen
data_Hf3P
_symmetry_space_group_name_H-M   'P 1'
_cell_length_a   5.28788370
_cell_length_b   10.65926963
_cell_length_c   10.65926963
_cell_angle_alpha   90.00000000
_cell_angle_beta   90.00000000
_cell_angle_gamma   90.00000000
_symmetry_Int_Tables_number   1
_chemical_formula_structural   Hf3P
_chemical_formula_sum   'Hf24 P8'
_cell_volume   600.80949960
_cell_formula_units_Z   8
loop_
 _symmetry_equiv_pos_site_id
 _symmetry_equiv_pos_as_xyz
  1  'x, y, z'
loop_
 _atom_site_type_symbol
 _atom_site_label
 _atom_site_symmetry_multiplicity
 _atom_site_fract_x
 _atom_site_fract_y
 _atom_site_fract_z
 _atom_site_occupancy
  Hf  Hf0  1  0.71800056  0.16534410  0.64279726  1
  Hf  Hf1  1  0.21800056  0.35720274  0.66534410  1
  Hf  Hf2  1  0.21800056  0.14279726  0.83465590  1
  Hf  Hf3  1  0.71800056  0.33465590  0.85720274  1
  Hf  Hf4  1  0.28199944  0.83465590  0.35720274  1
  Hf  Hf5  1  0.78199944  0.64279726  0.33465590  1
  Hf  Hf6  1  0.78199944  0.85720274  0.16534410  1
  Hf  Hf7  1  0.28199944  0.66534410  0.14279726  1
  Hf  Hf8  1  0.52943933  0.11190949  0.27749813  1
  Hf  Hf9  1  0.02943933  0.72250187  0.61190949  1
  Hf  Hf10  1  0.02943933  0.77749813  0.88809051  1
  Hf  Hf11  1  0.52943933  0.38809051  0.22250187  1
  Hf  Hf12  1  0.47056067  0.88809051  0.72250187  1
  Hf  Hf13  1  0.97056067  0.27749813  0.38809051  1
  Hf  Hf14  1  0.97056067  0.22250187  0.11190949  1
  Hf  Hf15  1  0.47056067  0.61190949  0.77749813  1
  Hf  Hf16  1  0.23855933  0.06876307  0.53425069  1
  Hf  Hf17  1  0.73855933  0.46574931  0.56876307  1
  Hf  Hf18  1  0.73855933  0.03425069  0.93123693  1
  Hf  Hf19  1  0.23855933  0.43123693  0.96574931  1
  Hf  Hf20  1  0.76144067  0.93123693  0.46574931  1
  Hf  Hf21  1  0.26144067  0.53425069  0.43123693  1
  Hf  Hf22  1  0.26144067  0.96574931  0.06876307  1
  Hf  Hf23  1  0.76144067  0.56876307  0.03425069  1
  P  P0  1  0.03640571  0.04446962  0.29054248  1
  P  P1  1  0.53640571  0.70945752  0.54446962  1
  P  P2  1  0.53640571  0.79054248  0.95553038  1
  P  P3  1  0.03640571  0.45553038  0.20945752  1
  P  P4  1  0.96359429  0.95553038  0.70945752  1
  P  P5  1  0.46359429  0.29054248  0.45553038  1
  P  P6  1  0.46359429  0.20945752  0.04446962  1
  P  P7  1  0.96359429  0.54446962  0.79054248  1
loop_
_geom_bond_atom_site_label_1
_geom_bond_atom_site_label_2
_geom_bond_distance
_geom_bond_site_symmetry_2
Hf0 P4 2.682011 1_545
Hf0 P5 2.752314 1_555
Hf1 P5 2.682011 1_555
Hf1 P7 2.752314 1_455
Hf2 P6 2.682011 1_556
Hf2 P4 2.752314 1_445
Hf3 P7 2.682011 1_555
Hf3 P6 2.752314 1_556
Hf4 P0 2.682011 1_565
Hf4 P1 2.752314 1_555
Hf5 P1 2.682011 1_555
Hf5 P3 2.752314 1_655
Hf6 P2 2.682011 1_554
Hf6 P0 2.752314 1_665
Hf7 P3 2.682011 1_555
Hf7 P2 2.752314 1_554
Hf8 P0 2.707967 1_555
Hf8 P5 2.710730 1_555
Hf8 P6 2.715184 1_555
Hf8 P0 2.778969 1_655
Hf9 P1 2.707967 1_455
Hf9 P7 2.710730 1_455
Hf9 P4 2.715184 1_455
Hf9 P1 2.778969 1_555
Hf10 P2 2.707967 1_455
Hf10 P4 2.710730 1_455
Hf10 P7 2.715184 1_455
Hf10 P2 2.778969 1_555
Hf11 P3 2.707967 1_555
Hf11 P6 2.710730 1_555
Hf11 P5 2.715184 1_555
Hf11 P3 2.778969 1_655
Hf12 P4 2.707967 1_555
Hf12 P1 2.710730 1_555
Hf12 P2 2.715184 1_555
Hf12 P4 2.778969 1_455
Hf13 P5 2.707967 1_655
Hf13 P3 2.710730 1_655
Hf13 P0 2.715184 1_655
Hf13 P5 2.778969 1_555
Hf14 P6 2.707967 1_655
Hf14 P0 2.710730 1_655
Hf14 P3 2.715184 1_655
Hf14 P6 2.778969 1_555
Hf15 P7 2.707967 1_555
Hf15 P2 2.710730 1_555
Hf15 P1 2.715184 1_555
Hf15 P7 2.778969 1_455
Hf16 P4 2.656822 1_445
Hf16 P5 2.776440 1_555
Hf16 P0 2.821002 1_555
Hf17 P5 2.656822 1_555
Hf17 P7 2.776440 1_555
Hf17 P1 2.821002 1_555
Hf18 P6 2.656822 1_556
Hf18 P4 2.776440 1_545
Hf18 P2 2.821002 1_545
Hf19 P7 2.656822 1_455
Hf19 P6 2.776440 1_556
Hf19 P3 2.821002 1_556
Hf20 P0 2.656822 1_665
Hf20 P1 2.776440 1_555
Hf20 P4 2.821002 1_555
Hf21 P1 2.656822 1_555
Hf21 P3 2.776440 1_555
Hf21 P5 2.821002 1_555
Hf22 P2 2.656822 1_554
Hf22 P0 2.776440 1_565
Hf22 P6 2.821002 1_565
Hf23 P3 2.656822 1_655
Hf23 P2 2.776440 1_554
Hf23 P7 2.821002 1_554
