# generated using pymatgen
data_CaTe
_symmetry_space_group_name_H-M   'P 1'
_cell_length_a   4.46057762
_cell_length_b   7.65440963
_cell_length_c   7.72208280
_cell_angle_alpha   90.00000000
_cell_angle_beta   90.00000000
_cell_angle_gamma   90.00000000
_symmetry_Int_Tables_number   1
_chemical_formula_structural   CaTe
_chemical_formula_sum   'Ca4 Te4'
_cell_volume   263.65575482
_cell_formula_units_Z   4
loop_
 _symmetry_equiv_pos_site_id
 _symmetry_equiv_pos_as_xyz
  1  'x, y, z'
loop_
 _atom_site_type_symbol
 _atom_site_label
 _atom_site_symmetry_multiplicity
 _atom_site_fract_x
 _atom_site_fract_y
 _atom_site_fract_z
 _atom_site_occupancy
  Ca  Ca0  1  0.25000000  0.50011403  0.75011550  1
  Ca  Ca1  1  0.75000000  0.49988597  0.24988450  1
  Ca  Ca2  1  0.25000000  0.00011403  0.74988450  1
  Ca  Ca3  1  0.75000000  0.99988597  0.25011550  1
  Te  Te0  1  0.25000000  0.75031000  0.08340497  1
  Te  Te1  1  0.75000000  0.24969000  0.91659503  1
  Te  Te2  1  0.25000000  0.25031000  0.41659503  1
  Te  Te3  1  0.75000000  0.74969000  0.58340497  1
loop_
_geom_bond_atom_site_label_1
_geom_bond_atom_site_label_2
_geom_bond_distance
_geom_bond_site_symmetry_2
Ca0 Te3 3.206389 1_555
Ca0 Te3 3.206389 1_455
Ca0 Te2 3.207678 1_555
Ca0 Te0 3.208036 1_556
Ca0 Te1 3.209545 1_455
Ca0 Te1 3.209545 1_555
Ca1 Te2 3.206389 1_555
Ca1 Te2 3.206389 1_655
Ca1 Te3 3.207678 1_555
Ca1 Te1 3.208036 1_554
Ca1 Te0 3.209545 1_655
Ca1 Te0 3.209545 1_555
Ca2 Te1 3.206389 1_555
Ca2 Te1 3.206389 1_455
Ca2 Te0 3.207678 1_546
Ca2 Te2 3.208036 1_555
Ca2 Te3 3.209545 1_545
Ca2 Te3 3.209545 1_445
Ca3 Te0 3.206389 1_555
Ca3 Te0 3.206389 1_655
Ca3 Te1 3.207678 1_564
Ca3 Te3 3.208036 1_555
Ca3 Te2 3.209545 1_665
Ca3 Te2 3.209545 1_565
