# generated using pymatgen
data_Sc11Nb3O24
_symmetry_space_group_name_H-M   'P 1'
_cell_length_a   6.13825400
_cell_length_b   6.16848239
_cell_length_c   23.82119485
_cell_angle_alpha   92.98267829
_cell_angle_beta   92.89380511
_cell_angle_gamma   99.26060915
_symmetry_Int_Tables_number   1
_chemical_formula_structural   Sc11Nb3O24
_chemical_formula_sum   'Sc22 Nb6 O48'
_cell_volume   887.41076637
_cell_formula_units_Z   2
loop_
 _symmetry_equiv_pos_site_id
 _symmetry_equiv_pos_as_xyz
  1  'x, y, z'
loop_
 _atom_site_type_symbol
 _atom_site_label
 _atom_site_symmetry_multiplicity
 _atom_site_fract_x
 _atom_site_fract_y
 _atom_site_fract_z
 _atom_site_occupancy
  Sc  Sc0  1  0.76118400  0.57838200  0.90273300  1
  Sc  Sc1  1  0.50247600  0.32621600  0.65242300  1
  Sc  Sc2  1  0.46386600  0.17602200  0.78437100  1
  Sc  Sc3  1  0.28780000  0.80812400  0.67419700  1
  Sc  Sc4  1  0.25644800  0.06495200  0.40149300  1
  Sc  Sc5  1  0.20993200  0.91735600  0.53515000  1
  Sc  Sc6  1  0.02551200  0.56117500  0.41678000  1
  Sc  Sc7  1  0.00839500  0.82759800  0.15127900  1
  Sc  Sc8  1  0.99259900  0.99276100  0.00246900  1
  Sc  Sc9  1  0.26271000  0.58151300  0.96537900  1
  Sc  Sc10  1  0.96068100  0.67707200  0.28380000  1
  Sc  Sc11  1  0.22351100  0.68374200  0.83070400  1
  Sc  Sc12  1  0.78862700  0.31156100  0.17361300  1
  Sc  Sc13  1  0.03794000  0.32172200  0.71508800  1
  Sc  Sc14  1  0.71750300  0.42882800  0.03354900  1
  Sc  Sc15  1  0.98958800  0.17067200  0.84775800  1
  Sc  Sc16  1  0.96996700  0.43950900  0.58010300  1
  Sc  Sc17  1  0.79637300  0.07727100  0.46269300  1
  Sc  Sc18  1  0.72381600  0.18982900  0.33045100  1
  Sc  Sc19  1  0.53864100  0.82286700  0.21414500  1
  Sc  Sc20  1  0.49549000  0.67829200  0.34670400  1
  Sc  Sc21  1  0.47428600  0.94349400  0.07939900  1
  Nb  Nb0  1  0.75570800  0.75046500  0.75215200  1
  Nb  Nb1  1  0.53318300  0.06097400  0.92315200  1
  Nb  Nb2  1  0.49479200  0.48581900  0.49922100  1
  Nb  Nb3  1  0.25695800  0.25083800  0.25246300  1
  Nb  Nb4  1  0.73743600  0.91547200  0.59674400  1
  Nb  Nb5  1  0.24161600  0.41132500  0.09688300  1
  O  O0  1  0.84310800  0.01636700  0.92009300  1
  O  O1  1  0.89923700  0.65566100  0.98460200  1
  O  O2  1  0.63585800  0.78316600  0.67010400  1
  O  O3  1  0.67143100  0.26741600  0.85602200  1
  O  O4  1  0.63923800  0.42665200  0.73562600  1
  O  O5  1  0.38414800  0.53626100  0.42419600  1
  O  O6  1  0.45447100  0.82125500  0.77088400  1
  O  O7  1  0.42867000  0.01186800  0.60465700  1
  O  O8  1  0.51858900  0.36468000  0.95251900  1
  O  O9  1  0.38331800  0.17490300  0.49015800  1
  O  O10  1  0.13489500  0.28376300  0.16953900  1
  O  O11  1  0.47770800  0.72247400  0.89607900  1
  O  O12  1  0.21565900  0.57575300  0.52783300  1
  O  O13  1  0.17687400  0.76983500  0.35366300  1
  O  O14  1  0.28560200  0.12316200  0.70442700  1
  O  O15  1  0.14349500  0.92647900  0.23437500  1
  O  O16  1  0.28216000  0.03465500  0.85855800  1
  O  O17  1  0.22357500  0.46803500  0.64595200  1
  O  O18  1  0.95617200  0.32147200  0.26957500  1
  O  O19  1  0.21376400  0.37239700  0.79405300  1
  O  O20  1  0.93036200  0.51653000  0.10402900  1
  O  O21  1  0.03785200  0.87112000  0.45572500  1
  O  O22  1  0.29241700  0.92870800  0.97216600  1
  O  O23  1  0.01239900  0.78912900  0.60669300  1
  O  O24  1  0.98244200  0.21955900  0.39567700  1
  O  O25  1  0.68561400  0.08521900  0.01777100  1
  O  O26  1  0.95763800  0.11879800  0.54687100  1
  O  O27  1  0.07377600  0.47293600  0.89365200  1
  O  O28  1  0.78652600  0.62675500  0.20397500  1
  O  O29  1  0.03763000  0.67501800  0.72609900  1
  O  O30  1  0.77337400  0.53100800  0.35297800  1
  O  O31  1  0.72772700  0.97113900  0.14370900  1
  O  O32  1  0.85591100  0.07658700  0.76267100  1
  O  O33  1  0.71256600  0.87794100  0.29394600  1
  O  O34  1  0.81885400  0.20727600  0.64277900  1
  O  O35  1  0.79226400  0.42665800  0.47810800  1
  O  O36  1  0.52029600  0.29584400  0.10671000  1
  O  O37  1  0.87970600  0.73404500  0.82913700  1
  O  O38  1  0.61514600  0.83588900  0.51784400  1
  O  O39  1  0.46081100  0.62424500  0.04435500  1
  O  O40  1  0.57577400  0.98266400  0.39614100  1
  O  O41  1  0.53930900  0.17611200  0.22552900  1
  O  O42  1  0.63452300  0.49817200  0.58092300  1
  O  O43  1  0.36179000  0.57508700  0.26139200  1
  O  O44  1  0.32450600  0.70421300  0.14235300  1
  O  O45  1  0.37314000  0.23129300  0.32922000  1
  O  O46  1  0.11570800  0.33640500  0.01942300  1
  O  O47  1  0.14693000  0.00154500  0.08231200  1
loop_
_geom_bond_atom_site_label_1
_geom_bond_atom_site_label_2
_geom_bond_distance
_geom_bond_site_symmetry_2
Nb0 O37 1.963640 1_555
Nb0 O29 1.983432 1_655
Nb0 O32 2.005416 1_565
Nb0 O4 2.021381 1_555
Nb0 O6 2.032670 1_555
Nb0 O2 2.084588 1_555
Nb1 O0 1.969905 1_555
Nb1 O8 1.982677 1_555
Nb1 O22 2.024427 1_545
Nb1 O16 2.102920 1_555
Nb1 O11 2.121459 1_545
Nb1 O3 2.213610 1_555
Nb1 O25 2.384325 1_556
Nb2 O9 1.926837 1_555
Nb2 O5 1.937894 1_555
Nb2 O35 2.002083 1_555
Nb2 O12 2.022989 1_555
Nb2 O42 2.079493 1_555
Nb2 O38 2.181595 1_555
Nb3 O45 1.945580 1_555
Nb3 O41 1.991614 1_555
Nb3 O43 1.996868 1_555
Nb3 O18 2.020209 1_455
Nb3 O15 2.026183 1_545
Nb3 O10 2.108535 1_555
Nb4 O23 1.978478 1_655
Nb4 O38 1.994963 1_555
Nb4 O34 2.035188 1_565
Nb4 O2 2.050202 1_555
Nb4 O7 2.090054 1_565
Nb4 O26 2.140802 1_565
Nb4 O42 2.553188 1_555
Nb5 O36 1.964057 1_555
Nb5 O46 1.966702 1_555
Nb5 O10 2.033247 1_555
Nb5 O44 2.034947 1_555
Nb5 O20 2.126203 1_455
Nb5 O39 2.207548 1_555
Nb5 O47 2.502626 1_555
O0 Sc8 2.145868 1_546
O0 Sc15 2.176046 1_555
O0 Sc0 2.673678 1_545
O1 Sc8 2.081631 1_556
O1 Sc0 2.086877 1_555
O1 Sc14 2.088170 1_556
O1 Sc9 2.409655 1_655
O2 Sc3 2.173255 1_555
O3 Sc2 2.074474 1_555
O3 Sc0 2.144050 1_555
O3 Sc15 2.147207 1_555
O4 Sc1 2.133935 1_555
O4 Sc2 2.162090 1_555
O4 Sc13 2.691749 1_655
O5 Sc20 2.178345 1_555
O5 Sc6 2.230118 1_555
O6 Sc11 2.168566 1_555
O6 Sc2 2.186291 1_565
O6 Sc3 2.464540 1_555
O7 Sc5 2.075394 1_545
O7 Sc1 2.166900 1_555
O7 Sc3 2.254511 1_545
O8 Sc14 2.213645 1_556
O8 Sc9 2.243180 1_555
O8 Sc0 2.251861 1_555
O9 Sc5 2.133881 1_545
O9 Sc4 2.245508 1_555
O10 Sc12 2.166307 1_455
O11 Sc0 2.080263 1_555
O11 Sc11 2.124350 1_555
O11 Sc9 2.285365 1_555
O12 Sc16 2.102774 1_455
O12 Sc5 2.111404 1_555
O13 Sc10 2.071621 1_455
O13 Sc4 2.071824 1_565
O13 Sc20 2.133008 1_555
O13 Sc6 2.176700 1_555
O14 Sc3 2.039356 1_545
O14 Sc13 2.116979 1_555
O14 Sc2 2.130820 1_555
O14 Sc1 2.160315 1_555
O15 Sc7 2.126912 1_555
O15 Sc10 2.185989 1_455
O15 Sc19 2.666215 1_555
O16 Sc15 2.110947 1_455
O16 Sc11 2.197944 1_545
O16 Sc2 2.274616 1_555
O17 Sc1 2.046773 1_555
O17 Sc16 2.133397 1_455
O17 Sc3 2.137561 1_555
O17 Sc13 2.199641 1_555
O18 Sc18 2.180630 1_555
O18 Sc10 2.197555 1_555
O18 Sc12 2.452496 1_555
O19 Sc11 2.058519 1_555
O19 Sc13 2.103820 1_555
O19 Sc2 2.117200 1_555
O19 Sc15 2.207002 1_455
O20 Sc14 2.067626 1_555
O20 Sc7 2.145496 1_655
O20 Sc12 2.261131 1_555
O21 Sc6 2.069645 1_555
O21 Sc5 2.102810 1_555
O21 Sc17 2.109797 1_465
O21 Sc4 2.172176 1_565
O22 Sc8 2.098235 1_456
O22 Sc9 2.116937 1_555
O22 Sc21 2.726661 1_556
O23 Sc16 2.186428 1_455
O23 Sc5 2.245104 1_555
O23 Sc3 2.258180 1_555
O24 Sc4 2.064958 1_655
O24 Sc6 2.111906 1_655
O24 Sc18 2.143733 1_555
O24 Sc17 2.151886 1_555
O25 Sc8 2.098221 1_545
O25 Sc14 2.109073 1_555
O25 Sc21 2.136117 1_545
O26 Sc16 2.080591 1_555
O26 Sc5 2.155735 1_645
O26 Sc17 2.175067 1_555
O27 Sc9 2.035625 1_555
O27 Sc15 2.087908 1_455
O27 Sc0 2.140209 1_455
O27 Sc11 2.177518 1_555
O28 Sc12 2.041108 1_555
O28 Sc19 2.106288 1_555
O28 Sc10 2.116946 1_555
O28 Sc7 2.180998 1_655
O29 Sc3 2.110066 1_555
O29 Sc13 2.181754 1_555
O29 Sc11 2.681996 1_555
O30 Sc20 2.060191 1_555
O30 Sc6 2.092904 1_655
O30 Sc18 2.114142 1_555
O30 Sc10 2.204922 1_555
O31 Sc7 2.064169 1_655
O31 Sc21 2.107813 1_555
O31 Sc12 2.149768 1_565
O31 Sc19 2.239099 1_555
O32 Sc13 2.140603 1_655
O32 Sc15 2.162109 1_555
O32 Sc2 2.646167 1_555
O33 Sc18 2.058963 1_565
O33 Sc19 2.116590 1_555
O33 Sc10 2.127567 1_555
O33 Sc20 2.161848 1_555
O34 Sc13 2.146590 1_655
O34 Sc1 2.201940 1_555
O34 Sc16 2.253078 1_555
O35 Sc17 2.171723 1_555
O35 Sc6 2.197182 1_655
O35 Sc16 2.604572 1_555
O36 Sc21 2.205379 1_545
O36 Sc12 2.220287 1_555
O36 Sc14 2.284233 1_555
O37 Sc0 2.145676 1_555
O37 Sc11 2.180668 1_655
O37 Sc15 2.677028 1_565
O38 Sc17 2.235730 1_565
O38 Sc5 2.663352 1_555
O39 Sc21 2.085979 1_555
O39 Sc14 2.149864 1_555
O39 Sc9 2.168333 1_554
O40 Sc17 2.029802 1_565
O40 Sc4 2.110599 1_565
O40 Sc20 2.137353 1_555
O40 Sc18 2.210284 1_565
O41 Sc12 2.111081 1_555
O41 Sc19 2.181067 1_545
O41 Sc18 2.682910 1_555
O42 Sc16 2.148047 1_555
O42 Sc1 2.175709 1_555
O43 Sc19 2.132978 1_555
O43 Sc20 2.176600 1_555
O43 Sc10 2.709046 1_455
O44 Sc19 2.126314 1_555
O44 Sc7 2.211254 1_555
O44 Sc21 2.281573 1_555
O45 Sc4 2.145157 1_555
O45 Sc18 2.207103 1_555
O46 Sc8 2.142913 1_445
O46 Sc9 2.153678 1_554
O46 Sc14 2.631418 1_455
O47 Sc8 2.075722 1_445
O47 Sc21 2.100900 1_545
O47 Sc7 2.145765 1_545
