# generated using pymatgen
data_Dy5C2I9
_symmetry_space_group_name_H-M   'P 1'
_cell_length_a   17.45651600
_cell_length_b   10.92481400
_cell_length_c   14.28130085
_cell_angle_alpha   58.34175398
_cell_angle_beta   90.00000000
_cell_angle_gamma   90.00000000
_symmetry_Int_Tables_number   1
_chemical_formula_structural   Dy5C2I9
_chemical_formula_sum   'Dy20 C8 I36'
_cell_volume   2318.29047828
_cell_formula_units_Z   4
loop_
 _symmetry_equiv_pos_site_id
 _symmetry_equiv_pos_as_xyz
  1  'x, y, z'
loop_
 _atom_site_type_symbol
 _atom_site_label
 _atom_site_symmetry_multiplicity
 _atom_site_fract_x
 _atom_site_fract_y
 _atom_site_fract_z
 _atom_site_occupancy
  Dy  Dy0  1  0.44658400  0.51287700  0.74749000  1
  Dy  Dy1  1  0.17903100  0.30177700  0.55385700  1
  Dy  Dy2  1  0.65494800  0.51689400  0.78379500  1
  Dy  Dy3  1  0.53939100  0.34974400  0.03374200  1
  Dy  Dy4  1  0.94658400  0.48712300  0.75251000  1
  Dy  Dy5  1  0.82096900  0.69822300  0.44614300  1
  Dy  Dy6  1  0.03939100  0.65025600  0.46625800  1
  Dy  Dy7  1  0.46060900  0.65025600  0.96625800  1
  Dy  Dy8  1  0.05765900  0.16254200  0.80054900  1
  Dy  Dy9  1  0.67903100  0.69822300  0.94614300  1
  Dy  Dy10  1  0.44234100  0.16254200  0.30054900  1
  Dy  Dy11  1  0.84505200  0.51689400  0.28379500  1
  Dy  Dy12  1  0.15494800  0.48310600  0.71620500  1
  Dy  Dy13  1  0.55765900  0.83745800  0.69945100  1
  Dy  Dy14  1  0.94234100  0.83745800  0.19945100  1
  Dy  Dy15  1  0.55341600  0.48712300  0.25251000  1
  Dy  Dy16  1  0.32096900  0.30177700  0.05385700  1
  Dy  Dy17  1  0.34505200  0.48310600  0.21620500  1
  Dy  Dy18  1  0.96060900  0.34974400  0.53374200  1
  Dy  Dy19  1  0.05341600  0.51287700  0.24749000  1
  C  C0  1  0.46956600  0.43041500  0.16259900  1
  C  C1  1  0.08428800  0.37733100  0.61664800  1
  C  C2  1  0.53043400  0.56958500  0.83740100  1
  C  C3  1  0.58428800  0.62266900  0.88335200  1
  C  C4  1  0.03043400  0.43041500  0.66259900  1
  C  C5  1  0.41571200  0.37733100  0.11664800  1
  C  C6  1  0.96956600  0.56958500  0.33740100  1
  C  C7  1  0.91571200  0.62266900  0.38335200  1
  I  I0  1  0.43479600  0.58899900  0.34517800  1
  I  I1  1  0.18077500  0.00454900  0.74969600  1
  I  I2  1  0.05845900  0.81582100  0.04312700  1
  I  I3  1  0.80712900  0.59401500  0.85792400  1
  I  I4  1  0.30305800  0.59495400  0.83265400  1
  I  I5  1  0.69287100  0.59401500  0.35792400  1
  I  I6  1  0.68295500  0.79946400  0.56052300  1
  I  I7  1  0.43379100  0.20149000  0.94375600  1
  I  I8  1  0.31704500  0.20053600  0.43947700  1
  I  I9  1  0.19287100  0.40598500  0.14207600  1
  I  I10  1  0.44154100  0.81582100  0.54312700  1
  I  I11  1  0.19694200  0.59495400  0.33265400  1
  I  I12  1  0.82661700  0.21908100  0.46647900  1
  I  I13  1  0.80305800  0.40504600  0.66734600  1
  I  I14  1  0.67338300  0.21908100  0.96647900  1
  I  I15  1  0.94154100  0.18417900  0.95687300  1
  I  I16  1  0.93736300  0.03625800  0.73429000  1
  I  I17  1  0.93479600  0.41100100  0.15482200  1
  I  I18  1  0.06263700  0.96374200  0.26571000  1
  I  I19  1  0.17338300  0.78091900  0.53352100  1
  I  I20  1  0.56263700  0.03625800  0.23429000  1
  I  I21  1  0.81704500  0.79946400  0.06052300  1
  I  I22  1  0.32661700  0.78091900  0.03352100  1
  I  I23  1  0.30712900  0.40598500  0.64207600  1
  I  I24  1  0.18295500  0.20053600  0.93947700  1
  I  I25  1  0.56520400  0.41100100  0.65482200  1
  I  I26  1  0.31922500  0.00454900  0.24969600  1
  I  I27  1  0.55845900  0.18417900  0.45687300  1
  I  I28  1  0.56620900  0.79851000  0.05624400  1
  I  I29  1  0.93379100  0.79851000  0.55624400  1
  I  I30  1  0.68077500  0.99545100  0.75030400  1
  I  I31  1  0.06620900  0.20149000  0.44375600  1
  I  I32  1  0.06520400  0.58899900  0.84517800  1
  I  I33  1  0.81922500  0.99545100  0.25030400  1
  I  I34  1  0.43736300  0.96374200  0.76571000  1
  I  I35  1  0.69694200  0.40504600  0.16734600  1
loop_
_geom_bond_atom_site_label_1
_geom_bond_atom_site_label_2
_geom_bond_distance
_geom_bond_site_symmetry_2
Dy0 I25 2.970533 1_555
Dy0 I10 3.056122 1_555
Dy0 I7 3.077302 1_555
Dy0 I4 3.115355 1_555
Dy0 I23 3.376652 1_555
Dy1 I1 2.972222 1_555
Dy1 I31 3.059408 1_555
Dy1 I23 3.064201 1_555
Dy1 I11 3.116884 1_555
Dy1 I8 3.404790 1_555
Dy2 I14 2.930112 1_555
Dy2 I25 3.069521 1_555
Dy2 I6 3.098941 1_555
Dy2 I3 3.134352 1_555
Dy2 I13 3.616163 1_555
Dy3 I20 3.130554 1_555
Dy3 I7 3.139718 1_554
Dy3 I14 3.141797 1_554
Dy3 I35 3.574884 1_555
Dy4 I32 2.970533 1_655
Dy4 I15 3.056122 1_555
Dy4 I29 3.077302 1_555
Dy4 I13 3.115355 1_555
Dy4 I3 3.376652 1_555
Dy5 I33 2.972222 1_555
Dy5 I29 3.059408 1_555
Dy5 I5 3.064201 1_555
Dy5 I13 3.116884 1_555
Dy5 I6 3.404790 1_555
Dy6 I18 3.130554 1_555
Dy6 I29 3.139718 1_455
Dy6 I19 3.141797 1_555
Dy6 I11 3.574884 1_555
Dy7 I34 3.130554 1_555
Dy7 I28 3.139718 1_556
Dy7 I22 3.141797 1_556
Dy7 I4 3.574884 1_555
Dy8 I16 2.928986 1_455
Dy8 I1 3.072696 1_555
Dy8 I15 3.114919 1_455
Dy8 I24 3.123666 1_555
Dy8 I2 3.546132 1_546
Dy9 I30 2.972222 1_555
Dy9 I28 3.059408 1_556
Dy9 I3 3.064201 1_555
Dy9 I35 3.116884 1_556
Dy9 I21 3.404790 1_556
Dy10 I20 2.928986 1_555
Dy10 I26 3.072696 1_555
Dy10 I27 3.114919 1_555
Dy10 I8 3.123666 1_555
Dy10 I10 3.546132 1_545
Dy11 I12 2.930112 1_555
Dy11 I17 3.069521 1_555
Dy11 I21 3.098941 1_555
Dy11 I5 3.134352 1_555
Dy11 I35 3.616163 1_555
Dy12 I19 2.930112 1_555
Dy12 I32 3.069521 1_555
Dy12 I24 3.098941 1_555
Dy12 I23 3.134352 1_555
Dy12 I4 3.616163 1_555
Dy13 I34 2.928986 1_555
Dy13 I30 3.072696 1_555
Dy13 I10 3.114919 1_555
Dy13 I6 3.123666 1_555
Dy13 I27 3.546132 1_565
Dy14 I18 2.928986 1_655
Dy14 I33 3.072696 1_555
Dy14 I2 3.114919 1_655
Dy14 I21 3.123666 1_555
Dy14 I15 3.546132 1_564
Dy15 I0 2.970533 1_555
Dy15 I27 3.056122 1_555
Dy15 I28 3.077302 1_555
Dy15 I35 3.115355 1_555
Dy15 I5 3.376652 1_555
Dy16 I26 2.972222 1_555
Dy16 I7 3.059408 1_554
Dy16 I9 3.064201 1_555
Dy16 I4 3.116884 1_554
Dy16 I24 3.404790 1_554
Dy17 I22 2.930112 1_555
Dy17 I0 3.069521 1_555
Dy17 I8 3.098941 1_555
Dy17 I9 3.134352 1_555
Dy17 I11 3.616163 1_555
Dy18 I16 3.130554 1_555
Dy18 I31 3.139718 1_655
Dy18 I12 3.141797 1_555
Dy18 I13 3.574884 1_555
Dy19 I17 2.970533 1_455
Dy19 I2 3.056122 1_555
Dy19 I31 3.077302 1_555
Dy19 I11 3.115355 1_555
Dy19 I9 3.376652 1_555
C0 C5 1.431872 1_555
C0 Dy15 2.238330 1_555
C0 Dy17 2.470727 1_555
C0 Dy7 2.566320 1_554
C0 Dy10 2.572813 1_555
C0 Dy3 2.711344 1_555
C1 C4 1.431872 1_555
C1 Dy1 2.235563 1_555
C1 Dy8 2.480095 1_555
C1 Dy18 2.555108 1_455
C1 Dy12 2.569630 1_555
C1 Dy6 2.719417 1_555
C2 C3 1.431872 1_555
C2 Dy0 2.238330 1_555
C2 Dy2 2.470727 1_555
C2 Dy3 2.566320 1_556
C2 Dy13 2.572813 1_555
C2 Dy7 2.711344 1_555
C3 Dy9 2.235563 1_555
C3 Dy13 2.480095 1_555
C3 Dy7 2.555108 1_555
C3 Dy2 2.569630 1_555
C3 Dy3 2.719417 1_556
C4 Dy4 2.238330 1_455
C4 Dy12 2.470727 1_555
C4 Dy6 2.566320 1_555
C4 Dy8 2.572813 1_555
C4 Dy18 2.711344 1_455
C5 Dy16 2.235563 1_555
C5 Dy10 2.480095 1_555
C5 Dy3 2.555108 1_555
C5 Dy17 2.569630 1_555
C5 Dy7 2.719417 1_554
C6 C7 1.431872 1_555
C6 Dy19 2.238330 1_655
C6 Dy11 2.470727 1_555
C6 Dy18 2.566320 1_555
C6 Dy14 2.572813 1_555
C6 Dy6 2.711344 1_655
C7 Dy5 2.235563 1_555
C7 Dy14 2.480095 1_555
C7 Dy6 2.555108 1_655
C7 Dy11 2.569630 1_555
C7 Dy18 2.719417 1_555
