# generated using pymatgen
data_NbNiAs2
_symmetry_space_group_name_H-M   'P 1'
_cell_length_a   3.50599139
_cell_length_b   5.61380762
_cell_length_c   12.61710585
_cell_angle_alpha   90.00000000
_cell_angle_beta   90.00000000
_cell_angle_gamma   90.00000000
_symmetry_Int_Tables_number   1
_chemical_formula_structural   NbNiAs2
_chemical_formula_sum   'Nb4 Ni4 As8'
_cell_volume   248.32938755
_cell_formula_units_Z   4
loop_
 _symmetry_equiv_pos_site_id
 _symmetry_equiv_pos_as_xyz
  1  'x, y, z'
loop_
 _atom_site_type_symbol
 _atom_site_label
 _atom_site_symmetry_multiplicity
 _atom_site_fract_x
 _atom_site_fract_y
 _atom_site_fract_z
 _atom_site_occupancy
  Nb  Nb0  1  0.75000000  0.99106878  0.82902601  1
  Nb  Nb1  1  0.25000000  0.00893122  0.17097399  1
  Nb  Nb2  1  0.75000000  0.49106878  0.67097399  1
  Nb  Nb3  1  0.25000000  0.50893122  0.32902601  1
  Ni  Ni0  1  0.75000000  0.97968506  0.58816997  1
  Ni  Ni1  1  0.25000000  0.02031494  0.41183003  1
  Ni  Ni2  1  0.75000000  0.47968506  0.91183003  1
  Ni  Ni3  1  0.25000000  0.52031494  0.08816997  1
  As  As0  1  0.75000000  0.85466927  0.30961797  1
  As  As1  1  0.25000000  0.14533073  0.69038203  1
  As  As2  1  0.75000000  0.35466927  0.19038203  1
  As  As3  1  0.25000000  0.64533073  0.80961797  1
  As  As4  1  0.75000000  0.80019800  0.03717359  1
  As  As5  1  0.25000000  0.19980200  0.96282641  1
  As  As6  1  0.75000000  0.30019800  0.46282641  1
  As  As7  1  0.25000000  0.69980200  0.53717359  1
loop_
_geom_bond_atom_site_label_1
_geom_bond_atom_site_label_2
_geom_bond_distance
_geom_bond_site_symmetry_2
As0 Ni1 2.366608 1_665
As0 Ni1 2.366608 1_565
As0 Nb1 2.623537 1_565
As0 Nb1 2.623537 1_665
As0 Nb3 2.626800 1_655
As0 Nb3 2.626800 1_555
As1 Ni0 2.366608 1_545
As1 Ni0 2.366608 1_445
As1 Nb0 2.623537 1_445
As1 Nb0 2.623537 1_545
As1 Nb2 2.626800 1_555
As1 Nb2 2.626800 1_455
As2 Ni3 2.366608 1_555
As2 Ni3 2.366608 1_655
As2 Nb3 2.623537 1_655
As2 Nb3 2.623537 1_555
As2 Nb1 2.626800 1_555
As2 Nb1 2.626800 1_655
As3 Ni2 2.366608 1_455
As3 Ni2 2.366608 1_555
As3 Nb2 2.623537 1_455
As3 Nb2 2.623537 1_555
As3 Nb0 2.626800 1_555
As3 Nb0 2.626800 1_455
As4 Ni2 2.395523 1_554
As4 Ni3 2.440429 1_655
As4 Ni3 2.440429 1_555
As4 Nb1 2.701113 1_565
As4 Nb1 2.701113 1_665
As4 Nb0 2.836401 1_554
As5 Ni3 2.395523 1_556
As5 Ni2 2.440429 1_455
As5 Ni2 2.440429 1_555
As5 Nb0 2.701113 1_445
As5 Nb0 2.701113 1_545
As5 Nb1 2.836401 1_556
As6 Ni0 2.395523 1_545
As6 Ni1 2.440429 1_555
As6 Ni1 2.440429 1_655
As6 Nb3 2.701113 1_555
As6 Nb3 2.701113 1_655
As6 Nb2 2.836401 1_555
As7 Ni1 2.395523 1_565
As7 Ni0 2.440429 1_455
As7 Ni0 2.440429 1_555
As7 Nb2 2.701113 1_555
As7 Nb2 2.701113 1_455
As7 Nb3 2.836401 1_555
