# generated using pymatgen
data_Ca2Al2SiO7
_symmetry_space_group_name_H-M   'P 1'
_cell_length_a   7.67636200
_cell_length_b   7.67636200
_cell_length_c   5.19082800
_cell_angle_alpha   90.00000000
_cell_angle_beta   90.00000000
_cell_angle_gamma   90.00000000
_symmetry_Int_Tables_number   1
_chemical_formula_structural   Ca2Al2SiO7
_chemical_formula_sum   'Ca4 Al4 Si2 O14'
_cell_volume   305.87750032
_cell_formula_units_Z   2
loop_
 _symmetry_equiv_pos_site_id
 _symmetry_equiv_pos_as_xyz
  1  'x, y, z'
loop_
 _atom_site_type_symbol
 _atom_site_label
 _atom_site_symmetry_multiplicity
 _atom_site_fract_x
 _atom_site_fract_y
 _atom_site_fract_z
 _atom_site_occupancy
  Ca  Ca0  1  0.84440200  0.34440200  0.48386300  1
  Ca  Ca1  1  0.15559800  0.65559800  0.48386300  1
  Ca  Ca2  1  0.65559800  0.84440200  0.51613700  1
  Ca  Ca3  1  0.34440200  0.15559800  0.51613700  1
  Al  Al0  1  0.64394000  0.14394000  0.02542700  1
  Al  Al1  1  0.35606000  0.85606000  0.02542700  1
  Al  Al2  1  0.85606000  0.64394000  0.97457300  1
  Al  Al3  1  0.14394000  0.35606000  0.97457300  1
  Si  Si0  1  0.00000000  0.00000000  0.00000000  1
  Si  Si1  1  0.50000000  0.50000000  0.00000000  1
  O  O0  1  0.64449800  0.14449800  0.69192900  1
  O  O1  1  0.40685200  0.65136200  0.17793300  1
  O  O2  1  0.35550200  0.85550200  0.69192900  1
  O  O3  1  0.34863800  0.40685200  0.82206700  1
  O  O4  1  0.14449800  0.35550200  0.30807100  1
  O  O5  1  0.65136200  0.59314800  0.82206700  1
  O  O6  1  0.84863800  0.09314800  0.17793300  1
  O  O7  1  0.50000000  0.00000000  0.17949500  1
  O  O8  1  0.00000000  0.50000000  0.82050500  1
  O  O9  1  0.15136200  0.90685200  0.17793300  1
  O  O10  1  0.09314800  0.15136200  0.82206700  1
  O  O11  1  0.85550200  0.64449800  0.30807100  1
  O  O12  1  0.90685200  0.84863800  0.82206700  1
  O  O13  1  0.59314800  0.34863800  0.17793300  1
loop_
_geom_bond_atom_site_label_1
_geom_bond_atom_site_label_2
_geom_bond_distance
_geom_bond_site_symmetry_2
Ca0 O0 2.424061 1_555
Ca0 O8 2.430410 1_655
Ca0 O11 2.479256 1_555
Ca0 O4 2.479256 1_655
Ca0 O6 2.498569 1_555
Ca0 O13 2.498569 1_555
Ca0 O10 2.987291 1_655
Ca0 O5 2.987291 1_555
Ca1 O2 2.424061 1_555
Ca1 O8 2.430410 1_555
Ca1 O4 2.479256 1_555
Ca1 O11 2.479256 1_455
Ca1 O9 2.498569 1_555
Ca1 O1 2.498569 1_555
Ca1 O3 2.987291 1_555
Ca1 O12 2.987291 1_455
Ca2 O11 2.424061 1_555
Ca2 O7 2.430410 1_565
Ca2 O0 2.479256 1_565
Ca2 O2 2.479256 1_555
Ca2 O5 2.498569 1_555
Ca2 O12 2.498569 1_555
Ca2 O6 2.987291 1_565
Ca2 O1 2.987291 1_555
Ca3 O4 2.424061 1_555
Ca3 O7 2.430410 1_555
Ca3 O0 2.479256 1_555
Ca3 O2 2.479256 1_545
Ca3 O3 2.498569 1_555
Ca3 O10 2.498569 1_555
Ca3 O9 2.987291 1_545
Ca3 O13 2.987291 1_555
Al0 O0 1.731141 1_554
Al0 O7 1.755377 1_555
Al0 O6 1.802165 1_555
Al0 O13 1.802165 1_555
Al1 O2 1.731141 1_554
Al1 O7 1.755377 1_565
Al1 O9 1.802165 1_555
Al1 O1 1.802165 1_555
Al2 O11 1.731141 1_556
Al2 O8 1.755377 1_655
Al2 O12 1.802165 1_555
Al2 O5 1.802165 1_555
Al3 O4 1.731141 1_556
Al3 O8 1.755377 1_555
Al3 O3 1.802165 1_555
Al3 O10 1.802165 1_555
O1 Si1 1.647539 1_555
O3 Si1 1.647539 1_556
O5 Si1 1.647539 1_556
O6 Si0 1.647539 1_655
O9 Si0 1.647539 1_565
O10 Si0 1.647539 1_556
O12 Si0 1.647539 1_666
O13 Si1 1.647539 1_555
