# generated using pymatgen
data_Na3FeSe3
_symmetry_space_group_name_H-M   'P 1'
_cell_length_a   7.13673184
_cell_length_b   7.36276854
_cell_length_c   14.75644424
_cell_angle_alpha   61.11689827
_cell_angle_beta   90.00000000
_cell_angle_gamma   90.00000000
_symmetry_Int_Tables_number   1
_chemical_formula_structural   Na3FeSe3
_chemical_formula_sum   'Na12 Fe4 Se12'
_cell_volume   678.94013792
_cell_formula_units_Z   4
loop_
 _symmetry_equiv_pos_site_id
 _symmetry_equiv_pos_as_xyz
  1  'x, y, z'
loop_
 _atom_site_type_symbol
 _atom_site_label
 _atom_site_symmetry_multiplicity
 _atom_site_fract_x
 _atom_site_fract_y
 _atom_site_fract_z
 _atom_site_occupancy
  Na  Na0  1  0.01862250  0.12604210  0.59267494  1
  Na  Na1  1  0.51862250  0.87395790  0.90732506  1
  Na  Na2  1  0.48137750  0.12604210  0.09267494  1
  Na  Na3  1  0.98137750  0.87395790  0.40732506  1
  Na  Na4  1  0.00241578  0.49538084  0.27700055  1
  Na  Na5  1  0.50241578  0.50461916  0.22299945  1
  Na  Na6  1  0.99758422  0.50461916  0.72299945  1
  Na  Na7  1  0.51845035  0.04907669  0.61432397  1
  Na  Na8  1  0.98154965  0.04907669  0.11432397  1
  Na  Na9  1  0.48154965  0.95092331  0.38567603  1
  Na  Na10  1  0.01845035  0.95092331  0.88567603  1
  Na  Na11  1  0.49758422  0.49538084  0.77700055  1
  Fe  Fe0  1  0.62135184  0.49912244  0.42493251  1
  Fe  Fe1  1  0.37864816  0.50087756  0.57506749  1
  Fe  Fe2  1  0.12135184  0.50087756  0.07506749  1
  Fe  Fe3  1  0.87864816  0.49912244  0.92493251  1
  Se  Se0  1  0.21741160  0.20011120  0.22726148  1
  Se  Se1  1  0.28511594  0.48940786  0.42363518  1
  Se  Se2  1  0.21488406  0.48940786  0.92363518  1
  Se  Se3  1  0.71488406  0.51059214  0.57636482  1
  Se  Se4  1  0.78511594  0.51059214  0.07636482  1
  Se  Se5  1  0.71741160  0.79988880  0.27273852  1
  Se  Se6  1  0.78258840  0.79988880  0.77273852  1
  Se  Se7  1  0.28258840  0.20011120  0.72726148  1
  Se  Se8  1  0.74360935  0.19963677  0.42675582  1
  Se  Se9  1  0.24360935  0.80036323  0.07324418  1
  Se  Se10  1  0.25639065  0.80036323  0.57324418  1
  Se  Se11  1  0.75639065  0.19963677  0.92675582  1
loop_
_geom_bond_atom_site_label_1
_geom_bond_atom_site_label_2
_geom_bond_distance
_geom_bond_site_symmetry_2
Na0 Se7 2.972692 1_555
Na0 Se8 2.976356 1_455
Na0 Se10 3.061986 1_545
Na0 Se6 3.082261 1_445
Na0 Se1 3.248084 1_555
Na0 Se3 3.480675 1_455
Na1 Se6 2.972692 1_555
Na1 Se9 2.976356 1_556
Na1 Se11 3.061986 1_565
Na1 Se7 3.082261 1_565
Na1 Se4 3.248084 1_556
Na1 Se2 3.480675 1_555
Na2 Se0 2.972692 1_555
Na2 Se11 2.976356 1_554
Na2 Se9 3.061986 1_545
Na2 Se5 3.082261 1_545
Na2 Se2 3.248084 1_554
Na2 Se4 3.480675 1_555
Na3 Se5 2.972692 1_555
Na3 Se10 2.976356 1_655
Na3 Se8 3.061986 1_565
Na3 Se0 3.082261 1_665
Na3 Se3 3.248084 1_555
Na3 Se1 3.480675 1_655
Na4 Se8 2.896187 1_455
Na4 Se1 2.943228 1_555
Na4 Se5 3.005253 1_455
Na4 Se0 3.026675 1_555
Na4 Se9 3.243961 1_555
Na4 Se4 3.295875 1_455
Na5 Se9 2.896187 1_555
Na5 Se4 2.943228 1_555
Na5 Se0 3.005253 1_555
Na5 Se5 3.026675 1_555
Na5 Se8 3.243961 1_555
Na5 Se1 3.295875 1_555
Na6 Se10 2.896187 1_655
Na6 Se3 2.943228 1_555
Na6 Se7 3.005253 1_655
Na6 Se6 3.026675 1_555
Na6 Se11 3.243961 1_555
Na6 Se2 3.295875 1_655
Na7 Se6 2.870709 1_545
Na7 Se10 2.879418 1_545
Na7 Se8 2.916819 1_555
Na7 Se7 2.939015 1_555
Na7 Se3 3.462214 1_555
Na7 Se1 3.519785 1_555
Na8 Se5 2.870709 1_545
Na8 Se9 2.879418 1_645
Na8 Se11 2.916819 1_554
Na8 Se0 2.939015 1_655
Na8 Se4 3.462214 1_555
Na8 Se2 3.519785 1_654
Na9 Se0 2.870709 1_565
Na9 Se8 2.879418 1_565
Na9 Se10 2.916819 1_555
Na9 Se5 2.939015 1_555
Na9 Se1 3.462214 1_555
Na9 Se3 3.519785 1_555
Na10 Se7 2.870709 1_565
Na10 Se11 2.879418 1_465
Na10 Se9 2.916819 1_556
Na10 Se6 2.939015 1_455
Na10 Se2 3.462214 1_555
Na10 Se4 3.519785 1_456
Na11 Se11 2.896187 1_555
Na11 Se2 2.943228 1_555
Na11 Se6 3.005253 1_555
Na11 Se7 3.026675 1_555
Na11 Se10 3.243961 1_555
Na11 Se3 3.295875 1_555
Fe0 Se8 2.359432 1_555
Fe0 Se5 2.369215 1_555
Fe0 Se3 2.372437 1_555
Fe0 Se1 2.401043 1_555
Fe0 Na5 3.079759 1_555
Fe1 Se10 2.359432 1_555
Fe1 Se7 2.369215 1_555
Fe1 Se1 2.372437 1_555
Fe1 Se3 2.401043 1_555
Fe1 Na11 3.079759 1_555
Fe2 Se9 2.359432 1_555
Fe2 Se0 2.369215 1_555
Fe2 Se2 2.372437 1_554
Fe2 Se4 2.401043 1_455
Fe2 Na4 3.079759 1_555
Fe3 Se11 2.359432 1_555
Fe3 Se6 2.369215 1_555
Fe3 Se4 2.372437 1_556
Fe3 Se2 2.401043 1_655
Fe3 Na6 3.079759 1_555
