# generated using pymatgen
data_PrCo3
_symmetry_space_group_name_H-M   'P 1'
_cell_length_a   8.86520540
_cell_length_b   8.86520499
_cell_length_c   8.86520618
_cell_angle_alpha   33.40112975
_cell_angle_beta   33.40113261
_cell_angle_gamma   33.40112869
_symmetry_Int_Tables_number   1
_chemical_formula_structural   PrCo3
_chemical_formula_sum   'Pr3 Co9'
_cell_volume   188.02183884
_cell_formula_units_Z   3
loop_
 _symmetry_equiv_pos_site_id
 _symmetry_equiv_pos_as_xyz
  1  'x, y, z'
loop_
 _atom_site_type_symbol
 _atom_site_label
 _atom_site_symmetry_multiplicity
 _atom_site_fract_x
 _atom_site_fract_y
 _atom_site_fract_z
 _atom_site_occupancy
  Pr  Pr0  1  0.86035700  0.86035700  0.86035700  1
  Pr  Pr1  1  0.13964300  0.13964300  0.13964300  1
  Pr  Pr2  1  0.00000000  0.00000000  0.00000000  1
  Co  Co0  1  0.91790900  0.42244000  0.42244000  1
  Co  Co1  1  0.33375800  0.33375800  0.33375800  1
  Co  Co2  1  0.57756000  0.57756000  0.08209100  1
  Co  Co3  1  0.42244000  0.42244000  0.91790900  1
  Co  Co4  1  0.66624200  0.66624200  0.66624200  1
  Co  Co5  1  0.42244000  0.91790900  0.42244000  1
  Co  Co6  1  0.57756000  0.08209100  0.57756000  1
  Co  Co7  1  0.50000000  0.50000000  0.50000000  1
  Co  Co8  1  0.08209100  0.57756000  0.57756000  1
loop_
_geom_bond_atom_site_label_1
_geom_bond_atom_site_label_2
_geom_bond_distance
_geom_bond_site_symmetry_2
Co0 Co4 2.453076 1_555
Co0 Co1 2.486070 1_655
Co0 Co5 2.524507 1_555
Co0 Co3 2.524508 1_555
Co0 Co5 2.570680 1_645
Co0 Co3 2.570680 1_654
Co0 Co7 2.637077 1_555
Co0 Pr0 2.966458 1_545
Co0 Pr0 2.966458 1_554
Co0 Pr2 3.228896 1_665
Co0 Pr2 3.228896 1_656
Co0 Pr1 3.236089 1_655
Co1 Co2 2.453075 1_555
Co1 Co8 2.453076 1_555
Co1 Co6 2.453076 1_555
Co1 Co5 2.486069 1_545
Co1 Co3 2.486070 1_554
Co1 Pr2 2.941727 1_565
Co1 Pr2 2.941727 1_655
Co1 Pr2 2.941728 1_556
Co2 Co4 2.486070 1_554
Co2 Co6 2.524508 1_555
Co2 Co8 2.524508 1_555
Co2 Co6 2.570680 1_564
Co2 Co8 2.570680 1_654
Co2 Co7 2.637078 1_555
Co2 Pr1 2.966458 1_565
Co2 Pr1 2.966458 1_655
Co2 Pr2 3.228896 1_655
Co2 Pr2 3.228896 1_565
Co2 Pr0 3.236089 1_554
Co3 Co4 2.453075 1_555
Co3 Co5 2.524508 1_555
Co3 Co5 2.570680 1_546
Co3 Co7 2.637078 1_555
Co3 Pr0 2.966458 1_545
Co3 Pr0 2.966458 1_455
Co3 Pr2 3.228896 1_566
Co3 Pr2 3.228896 1_656
Co3 Pr1 3.236089 1_556
Co4 Co5 2.453076 1_555
Co4 Co6 2.486069 1_565
Co4 Co8 2.486070 1_655
Co4 Pr2 2.941727 1_656
Co4 Pr2 2.941727 1_566
Co4 Pr2 2.941728 1_665
Co5 Co7 2.637077 1_555
Co5 Pr0 2.966458 1_455
Co5 Pr0 2.966458 1_554
Co5 Pr2 3.228896 1_665
Co5 Pr2 3.228897 1_566
Co5 Pr1 3.236089 1_565
Co6 Co8 2.524507 1_555
Co6 Co8 2.570680 1_645
Co6 Co7 2.637077 1_555
Co6 Pr1 2.966458 1_655
Co6 Pr1 2.966458 1_556
Co6 Pr2 3.228896 1_556
Co6 Pr2 3.228897 1_655
Co6 Pr0 3.236089 1_545
Co7 Co8 2.637077 1_555
Co7 Pr0 3.018827 1_545
Co7 Pr1 3.018827 1_565
Co7 Pr0 3.018827 1_455
Co7 Pr1 3.018827 1_655
Co7 Pr0 3.018827 1_554
Co7 Pr1 3.018827 1_556
Co8 Pr1 2.966458 1_565
Co8 Pr1 2.966458 1_556
Co8 Pr2 3.228896 1_556
Co8 Pr2 3.228896 1_565
Co8 Pr0 3.236089 1_455
