# generated using pymatgen
data_Sr2MnClO3
_symmetry_space_group_name_H-M   'P 1'
_cell_length_a   3.92126101
_cell_length_b   3.92114101
_cell_length_c   14.87809600
_cell_angle_alpha   90.00003002
_cell_angle_beta   89.99996998
_cell_angle_gamma   90.00917621
_symmetry_Int_Tables_number   1
_chemical_formula_structural   Sr2MnClO3
_chemical_formula_sum   'Sr4 Mn2 Cl2 O6'
_cell_volume   228.76288409
_cell_formula_units_Z   2
loop_
 _symmetry_equiv_pos_site_id
 _symmetry_equiv_pos_as_xyz
  1  'x, y, z'
loop_
 _atom_site_type_symbol
 _atom_site_label
 _atom_site_symmetry_multiplicity
 _atom_site_fract_x
 _atom_site_fract_y
 _atom_site_fract_z
 _atom_site_occupancy
  Sr  Sr0  1  0.25000100  0.25000200  0.09063200  1
  Sr  Sr1  1  0.75000000  0.75000100  0.90937200  1
  Sr  Sr2  1  0.25000100  0.25000100  0.34175600  1
  Sr  Sr3  1  0.75000100  0.75000100  0.65824800  1
  Mn  Mn0  1  0.74999900  0.75000000  0.21041700  1
  Mn  Mn1  1  0.24999100  0.24999200  0.78956400  1
  Cl  Cl0  1  0.75000100  0.75000100  0.42260200  1
  Cl  Cl1  1  0.25000200  0.25000000  0.57740200  1
  O  O0  1  0.75000100  0.25000000  0.23096300  1
  O  O1  1  0.25000100  0.75000100  0.23096400  1
  O  O2  1  0.25000100  0.74999800  0.76904000  1
  O  O3  1  0.74999900  0.25000100  0.76903900  1
  O  O4  1  0.75000200  0.75000100  0.07406400  1
  O  O5  1  0.25000000  0.25000100  0.92593800  1
loop_
_geom_bond_atom_site_label_1
_geom_bond_atom_site_label_2
_geom_bond_distance
_geom_bond_site_symmetry_2
Mn0 O0 1.984258 1_565
Mn0 O0 1.984258 1_555
Mn0 O1 1.984312 1_555
Mn0 O1 1.984328 1_655
Mn0 O4 2.028673 1_555
Mn1 O2 1.984184 1_545
Mn1 O2 1.984231 1_555
Mn1 O3 1.984238 1_455
Mn1 O3 1.984300 1_555
Mn1 O5 2.028985 1_555
Cl0 Sr2 3.022166 1_665
Cl0 Sr2 3.022166 1_555
Cl0 Sr2 3.022573 1_655
Cl0 Sr2 3.022574 1_565
Cl0 Mn0 3.156909 1_555
Cl0 Sr3 3.505964 1_555
Cl1 Sr3 3.022166 1_555
Cl1 Sr3 3.022166 1_445
Cl1 Sr3 3.022569 1_545
Cl1 Sr3 3.022578 1_455
Cl1 Mn1 3.156567 1_555
Cl1 Sr2 3.505964 1_555
O0 Sr2 2.561495 1_555
O0 Sr2 2.561496 1_655
O0 Sr0 2.864126 1_655
O0 Sr0 2.864128 1_555
O1 Sr2 2.561439 1_565
O1 Sr2 2.561440 1_555
O1 Sr0 2.864093 1_555
O1 Sr0 2.864100 1_565
O2 Sr3 2.561485 1_555
O2 Sr3 2.561486 1_455
O2 Sr1 2.864136 1_555
O2 Sr1 2.864140 1_455
O3 Sr3 2.561430 1_545
O3 Sr3 2.561431 1_555
O3 Sr1 2.864107 1_555
O3 Sr1 2.864108 1_545
O4 Sr1 2.450303 1_554
O4 Sr0 2.783422 1_665
O4 Sr0 2.783422 1_555
O4 Sr0 2.783859 1_655
O4 Sr0 2.783870 1_565
O5 Sr0 2.450333 1_556
O5 Sr1 2.783420 1_555
O5 Sr1 2.783420 1_445
O5 Sr1 2.783862 1_545
O5 Sr1 2.783862 1_455
