# generated using pymatgen
data_Pb2CCl2O3
_symmetry_space_group_name_H-M   'P 1'
_cell_length_a   8.26758100
_cell_length_b   8.26758100
_cell_length_c   9.02824200
_cell_angle_alpha   90.00000000
_cell_angle_beta   90.00000000
_cell_angle_gamma   90.00000000
_symmetry_Int_Tables_number   1
_chemical_formula_structural   Pb2CCl2O3
_chemical_formula_sum   'Pb8 C4 Cl8 O12'
_cell_volume   617.10648280
_cell_formula_units_Z   4
loop_
 _symmetry_equiv_pos_site_id
 _symmetry_equiv_pos_as_xyz
  1  'x, y, z'
loop_
 _atom_site_type_symbol
 _atom_site_label
 _atom_site_symmetry_multiplicity
 _atom_site_fract_x
 _atom_site_fract_y
 _atom_site_fract_z
 _atom_site_occupancy
  Pb  Pb0  1  0.16726300  0.66726300  0.25888500  1
  Pb  Pb1  1  0.33273700  0.16726300  0.25888500  1
  Pb  Pb2  1  0.66726300  0.83273700  0.25888500  1
  Pb  Pb3  1  0.66726300  0.83273700  0.74111500  1
  Pb  Pb4  1  0.33273700  0.16726300  0.74111500  1
  Pb  Pb5  1  0.83273700  0.33273700  0.25888500  1
  Pb  Pb6  1  0.16726300  0.66726300  0.74111500  1
  Pb  Pb7  1  0.83273700  0.33273700  0.74111500  1
  C  C0  1  0.32323900  0.82323900  0.00000000  1
  C  C1  1  0.17676100  0.32323900  0.00000000  1
  C  C2  1  0.82323900  0.67676100  0.00000000  1
  C  C3  1  0.67676100  0.17676100  0.00000000  1
  Cl  Cl0  1  0.00000000  0.00000000  0.24489400  1
  Cl  Cl1  1  0.50000000  0.50000000  0.75510600  1
  Cl  Cl2  1  0.00000000  0.00000000  0.75510600  1
  Cl  Cl3  1  0.50000000  0.50000000  0.24489400  1
  Cl  Cl4  1  0.35231500  0.85231500  0.50000000  1
  Cl  Cl5  1  0.14768500  0.35231500  0.50000000  1
  Cl  Cl6  1  0.85231500  0.64768500  0.50000000  1
  Cl  Cl7  1  0.64768500  0.14768500  0.50000000  1
  O  O0  1  0.21072100  0.71072100  0.00000000  1
  O  O1  1  0.28927900  0.21072100  0.00000000  1
  O  O2  1  0.71072100  0.78927900  0.00000000  1
  O  O3  1  0.78927900  0.28927900  0.00000000  1
  O  O4  1  0.37297700  0.87297700  0.12781300  1
  O  O5  1  0.12702300  0.37297700  0.12781300  1
  O  O6  1  0.87297700  0.62702300  0.12781300  1
  O  O7  1  0.87297700  0.62702300  0.87218700  1
  O  O8  1  0.12702300  0.37297700  0.87218700  1
  O  O9  1  0.62702300  0.12702300  0.12781300  1
  O  O10  1  0.37297700  0.87297700  0.87218700  1
  O  O11  1  0.62702300  0.12702300  0.87218700  1
loop_
_geom_bond_atom_site_label_1
_geom_bond_atom_site_label_2
_geom_bond_distance
_geom_bond_site_symmetry_2
C0 O10 1.292184 1_554
C0 O4 1.292184 1_555
C0 O0 1.315575 1_555
C1 O8 1.292184 1_554
C1 O5 1.292184 1_555
C1 O1 1.315575 1_555
C2 O7 1.292184 1_554
C2 O6 1.292184 1_555
C2 O2 1.315575 1_555
C3 O11 1.292184 1_554
C3 O9 1.292184 1_555
C3 O3 1.315575 1_555
Cl0 Pb0 3.081538 1_545
Cl0 Pb2 3.081538 1_445
Cl0 Pb5 3.081538 1_455
Cl0 Pb1 3.081538 1_555
Cl1 Pb7 3.081538 1_555
Cl1 Pb3 3.081538 1_555
Cl1 Pb4 3.081538 1_555
Cl1 Pb6 3.081538 1_555
Cl2 Pb6 3.081538 1_545
Cl2 Pb3 3.081538 1_445
Cl2 Pb4 3.081538 1_555
Cl2 Pb7 3.081538 1_455
Cl3 Pb5 3.081538 1_555
Cl3 Pb1 3.081538 1_555
Cl3 Pb2 3.081538 1_555
Cl3 Pb0 3.081538 1_555
Cl4 Pb6 3.069208 1_555
Cl4 Pb0 3.069208 1_555
Cl5 Pb4 3.069208 1_555
Cl5 Pb1 3.069208 1_555
Cl6 Pb3 3.069208 1_555
Cl6 Pb2 3.069208 1_555
Cl7 Pb7 3.069208 1_555
Cl7 Pb5 3.069208 1_555
O0 Pb0 2.391870 1_555
O0 Pb6 2.391870 1_554
O1 Pb1 2.391870 1_555
O1 Pb4 2.391870 1_554
O2 Pb2 2.391870 1_555
O2 Pb3 2.391870 1_554
O3 Pb5 2.391870 1_555
O3 Pb7 2.391870 1_554
O4 Pb0 2.680572 1_555
O4 Pb1 2.725922 1_565
O4 Pb2 2.725922 1_555
O5 Pb1 2.680572 1_555
O5 Pb5 2.725922 1_455
O5 Pb0 2.725922 1_555
O6 Pb2 2.680572 1_555
O6 Pb0 2.725922 1_655
O6 Pb5 2.725922 1_555
O7 Pb3 2.680572 1_555
O7 Pb6 2.725922 1_655
O7 Pb7 2.725922 1_555
O8 Pb4 2.680572 1_555
O8 Pb7 2.725922 1_455
O8 Pb6 2.725922 1_555
O9 Pb5 2.680572 1_555
O9 Pb1 2.725922 1_555
O9 Pb2 2.725922 1_545
O10 Pb6 2.680572 1_555
O10 Pb4 2.725922 1_565
O10 Pb3 2.725922 1_555
O11 Pb7 2.680572 1_555
O11 Pb4 2.725922 1_555
O11 Pb3 2.725922 1_545
