# generated using pymatgen
data_Na3Fe2(AsO4)3
_symmetry_space_group_name_H-M   'P 1'
_cell_length_a   10.76138928
_cell_length_b   10.76138928
_cell_length_c   10.76138928
_cell_angle_alpha   109.47122063
_cell_angle_beta   109.47122063
_cell_angle_gamma   109.47122063
_symmetry_Int_Tables_number   1
_chemical_formula_structural   Na3Fe2(AsO4)3
_chemical_formula_sum   'Na12 Fe8 As12 O48'
_cell_volume   959.36337570
_cell_formula_units_Z   4
loop_
 _symmetry_equiv_pos_site_id
 _symmetry_equiv_pos_as_xyz
  1  'x, y, z'
loop_
 _atom_site_type_symbol
 _atom_site_label
 _atom_site_symmetry_multiplicity
 _atom_site_fract_x
 _atom_site_fract_y
 _atom_site_fract_z
 _atom_site_occupancy
  Na  Na0  1  0.25000000  0.37500000  0.12500000  1
  Na  Na1  1  0.37500000  0.75000000  0.12500000  1
  Na  Na2  1  0.87500000  0.62500000  0.25000000  1
  Na  Na3  1  0.12500000  0.37500000  0.75000000  1
  Na  Na4  1  0.37500000  0.12500000  0.25000000  1
  Na  Na5  1  0.62500000  0.25000000  0.87500000  1
  Na  Na6  1  0.87500000  0.75000000  0.62500000  1
  Na  Na7  1  0.12500000  0.25000000  0.37500000  1
  Na  Na8  1  0.25000000  0.87500000  0.62500000  1
  Na  Na9  1  0.62500000  0.87500000  0.75000000  1
  Na  Na10  1  0.75000000  0.12500000  0.37500000  1
  Na  Na11  1  0.75000000  0.62500000  0.87500000  1
  Fe  Fe0  1  0.50000000  0.00000000  0.50000000  1
  Fe  Fe1  1  0.50000000  0.50000000  0.50000000  1
  Fe  Fe2  1  0.00000000  0.00000000  0.00000000  1
  Fe  Fe3  1  0.00000000  0.50000000  0.00000000  1
  Fe  Fe4  1  0.50000000  0.00000000  0.00000000  1
  Fe  Fe5  1  0.00000000  0.50000000  0.50000000  1
  Fe  Fe6  1  0.50000000  0.50000000  0.00000000  1
  Fe  Fe7  1  0.00000000  0.00000000  0.50000000  1
  As  As0  1  0.12500000  0.75000000  0.87500000  1
  As  As1  1  0.37500000  0.62500000  0.75000000  1
  As  As2  1  0.25000000  0.62500000  0.37500000  1
  As  As3  1  0.87500000  0.12500000  0.75000000  1
  As  As4  1  0.62500000  0.75000000  0.37500000  1
  As  As5  1  0.37500000  0.25000000  0.62500000  1
  As  As6  1  0.87500000  0.25000000  0.12500000  1
  As  As7  1  0.75000000  0.87500000  0.12500000  1
  As  As8  1  0.25000000  0.12500000  0.87500000  1
  As  As9  1  0.75000000  0.37500000  0.62500000  1
  As  As10  1  0.62500000  0.37500000  0.25000000  1
  As  As11  1  0.12500000  0.87500000  0.25000000  1
  O  O0  1  0.38564600  0.29934600  0.48996500  1
  O  O1  1  0.11435400  0.01003500  0.20065400  1
  O  O2  1  0.88564600  0.98996500  0.79934600  1
  O  O3  1  0.69061900  0.10431900  0.98996500  1
  O  O4  1  0.39568100  0.80938100  0.51003500  1
  O  O5  1  0.89568100  0.01003500  0.30938100  1
  O  O6  1  0.10431900  0.98996500  0.69061900  1
  O  O7  1  0.70065400  0.69061900  0.08630000  1
  O  O8  1  0.79934600  0.41370000  0.80938100  1
  O  O9  1  0.29934600  0.48996500  0.38564600  1
  O  O10  1  0.80938100  0.51003500  0.39568100  1
  O  O11  1  0.10431900  0.61435400  0.41370000  1
  O  O12  1  0.51003500  0.39568100  0.80938100  1
  O  O13  1  0.70065400  0.51003500  0.61435400  1
  O  O14  1  0.01003500  0.20065400  0.11435400  1
  O  O15  1  0.20065400  0.58630000  0.19061900  1
  O  O16  1  0.41370000  0.10431900  0.61435400  1
  O  O17  1  0.08630000  0.70065400  0.69061900  1
  O  O18  1  0.80938100  0.79934600  0.41370000  1
  O  O19  1  0.60431900  0.19061900  0.48996500  1
  O  O20  1  0.41370000  0.80938100  0.79934600  1
  O  O21  1  0.01003500  0.30938100  0.89568100  1
  O  O22  1  0.51003500  0.61435400  0.70065400  1
  O  O23  1  0.58630000  0.19061900  0.20065400  1
  O  O24  1  0.11435400  0.60431900  0.91370000  1
  O  O25  1  0.30938100  0.91370000  0.29934600  1
  O  O26  1  0.19061900  0.20065400  0.58630000  1
  O  O27  1  0.88564600  0.39568100  0.08630000  1
  O  O28  1  0.79934600  0.88564600  0.98996500  1
  O  O29  1  0.61435400  0.70065400  0.51003500  1
  O  O30  1  0.29934600  0.30938100  0.91370000  1
  O  O31  1  0.69061900  0.08630000  0.70065400  1
  O  O32  1  0.98996500  0.69061900  0.10431900  1
  O  O33  1  0.19061900  0.48996500  0.60431900  1
  O  O34  1  0.61435400  0.41370000  0.10431900  1
  O  O35  1  0.60431900  0.91370000  0.11435400  1
  O  O36  1  0.38564600  0.58630000  0.89568100  1
  O  O37  1  0.91370000  0.29934600  0.30938100  1
  O  O38  1  0.58630000  0.89568100  0.38564600  1
  O  O39  1  0.89568100  0.38564600  0.58630000  1
  O  O40  1  0.30938100  0.89568100  0.01003500  1
  O  O41  1  0.48996500  0.38564600  0.29934600  1
  O  O42  1  0.98996500  0.79934600  0.88564600  1
  O  O43  1  0.48996500  0.60431900  0.19061900  1
  O  O44  1  0.08630000  0.88564600  0.39568100  1
  O  O45  1  0.39568100  0.08630000  0.88564600  1
  O  O46  1  0.20065400  0.11435400  0.01003500  1
  O  O47  1  0.91370000  0.11435400  0.60431900  1
loop_
_geom_bond_atom_site_label_1
_geom_bond_atom_site_label_2
_geom_bond_distance
_geom_bond_site_symmetry_2
Na0 O9 2.436330 1_555
Na0 O46 2.436330 1_555
Na0 O30 2.436330 1_554
Na0 O15 2.436330 1_555
Na0 O41 2.575128 1_555
Na0 O14 2.575128 1_555
Na0 O43 2.575128 1_555
Na0 O21 2.575128 1_554
Na1 O43 2.436330 1_555
Na1 O40 2.436330 1_555
Na1 O24 2.436330 1_554
Na1 O38 2.436330 1_555
Na1 O25 2.575128 1_555
Na1 O15 2.575128 1_555
Na1 O35 2.575128 1_555
Na1 O36 2.575128 1_554
Na2 O32 2.436330 1_555
Na2 O10 2.436330 1_555
Na2 O44 2.436330 1_655
Na2 O34 2.436330 1_555
Na2 O18 2.575128 1_555
Na2 O7 2.575128 1_555
Na2 O11 2.575128 1_655
Na2 O27 2.575128 1_555
Na3 O21 2.436330 1_555
Na3 O33 2.436330 1_555
Na3 O36 2.436330 1_555
Na3 O47 2.436330 1_455
Na3 O30 2.575128 1_555
Na3 O26 2.575128 1_555
Na3 O39 2.575128 1_455
Na3 O24 2.575128 1_555
Na4 O41 2.436330 1_555
Na4 O1 2.436330 1_555
Na4 O25 2.436330 1_545
Na4 O23 2.436330 1_555
Na4 O46 2.575128 1_555
Na4 O0 2.575128 1_555
Na4 O19 2.575128 1_555
Na4 O40 2.575128 1_545
Na5 O12 2.436330 1_555
Na5 O3 2.436330 1_555
Na5 O27 2.436330 1_556
Na5 O16 2.436330 1_555
Na5 O8 2.575128 1_555
Na5 O31 2.575128 1_555
Na5 O34 2.575128 1_556
Na5 O45 2.575128 1_555
Na6 O18 2.436330 1_555
Na6 O42 2.436330 1_555
Na6 O17 2.436330 1_655
Na6 O29 2.436330 1_555
Na6 O2 2.575128 1_555
Na6 O13 2.575128 1_555
Na6 O10 2.575128 1_555
Na6 O6 2.575128 1_655
Na7 O14 2.436330 1_555
Na7 O0 2.436330 1_555
Na7 O26 2.436330 1_555
Na7 O37 2.436330 1_455
Na7 O1 2.575128 1_555
Na7 O33 2.575128 1_555
Na7 O9 2.575128 1_555
Na7 O5 2.575128 1_455
Na8 O6 2.436330 1_555
Na8 O11 2.436330 1_555
Na8 O4 2.436330 1_555
Na8 O45 2.436330 1_565
Na8 O17 2.575128 1_555
Na8 O44 2.575128 1_555
Na8 O20 2.575128 1_555
Na8 O16 2.575128 1_565
Na9 O20 2.436330 1_555
Na9 O22 2.436330 1_555
Na9 O31 2.436330 1_565
Na9 O2 2.436330 1_555
Na9 O29 2.575128 1_555
Na9 O28 2.575128 1_555
Na9 O4 2.575128 1_555
Na9 O3 2.575128 1_565
Na10 O19 2.436330 1_555
Na10 O5 2.436330 1_555
Na10 O39 2.436330 1_555
Na10 O35 2.436330 1_545
Na10 O37 2.575128 1_555
Na10 O23 2.575128 1_555
Na10 O38 2.575128 1_545
Na10 O47 2.575128 1_555
Na11 O8 2.436330 1_555
Na11 O7 2.436330 1_556
Na11 O13 2.436330 1_555
Na11 O28 2.436330 1_555
Na11 O42 2.575128 1_555
Na11 O22 2.575128 1_555
Na11 O32 2.575128 1_556
Na11 O12 2.575128 1_555
Fe0 O16 2.042825 1_555
Fe0 O25 2.042825 1_545
Fe0 O31 2.042825 1_555
Fe0 O4 2.042825 1_545
Fe0 O19 2.042825 1_555
Fe0 O38 2.042825 1_545
Fe1 O22 2.042825 1_555
Fe1 O29 2.042825 1_555
Fe1 O9 2.042825 1_555
Fe1 O0 2.042825 1_555
Fe1 O13 2.042825 1_555
Fe1 O41 2.042825 1_555
Fe2 O28 2.042825 1_444
Fe2 O42 2.042825 1_444
Fe2 O14 2.042825 1_555
Fe2 O46 2.042825 1_555
Fe2 O2 2.042825 1_444
Fe2 O1 2.042825 1_555
Fe3 O27 2.042825 1_455
Fe3 O21 2.042825 1_554
Fe3 O8 2.042825 1_454
Fe3 O15 2.042825 1_555
Fe3 O32 2.042825 1_455
Fe3 O24 2.042825 1_554
Fe4 O45 2.042825 1_554
Fe4 O3 2.042825 1_554
Fe4 O23 2.042825 1_555
Fe4 O40 2.042825 1_545
Fe4 O20 2.042825 1_544
Fe4 O35 2.042825 1_545
Fe5 O11 2.042825 1_555
Fe5 O37 2.042825 1_455
Fe5 O17 2.042825 1_555
Fe5 O10 2.042825 1_455
Fe5 O33 2.042825 1_555
Fe5 O39 2.042825 1_455
Fe6 O34 2.042825 1_555
Fe6 O30 2.042825 1_554
Fe6 O7 2.042825 1_555
Fe6 O12 2.042825 1_554
Fe6 O43 2.042825 1_555
Fe6 O36 2.042825 1_554
Fe7 O6 2.042825 1_545
Fe7 O44 2.042825 1_545
Fe7 O26 2.042825 1_555
Fe7 O18 2.042825 1_445
Fe7 O5 2.042825 1_455
Fe7 O47 2.042825 1_455
As0 O24 1.729649 1_555
As0 O40 1.729649 1_556
As0 O17 1.729649 1_555
As0 O42 1.729649 1_455
As1 O36 1.729649 1_555
As1 O33 1.729649 1_555
As1 O20 1.729649 1_555
As1 O22 1.729649 1_555
As2 O11 1.729649 1_555
As2 O9 1.729649 1_555
As2 O15 1.729649 1_555
As2 O4 1.729649 1_555
As3 O47 1.729649 1_555
As3 O21 1.729649 1_655
As3 O31 1.729649 1_555
As3 O2 1.729649 1_545
As4 O38 1.729649 1_555
As4 O43 1.729649 1_555
As4 O18 1.729649 1_555
As4 O29 1.729649 1_555
As5 O26 1.729649 1_555
As5 O16 1.729649 1_555
As5 O0 1.729649 1_555
As5 O12 1.729649 1_555
As6 O27 1.729649 1_555
As6 O3 1.729649 1_554
As6 O14 1.729649 1_655
As6 O37 1.729649 1_555
As7 O35 1.729649 1_555
As7 O7 1.729649 1_555
As7 O5 1.729649 1_565
As7 O28 1.729649 1_554
As8 O45 1.729649 1_555
As8 O6 1.729649 1_545
As8 O46 1.729649 1_556
As8 O30 1.729649 1_555
As9 O39 1.729649 1_555
As9 O19 1.729649 1_555
As9 O8 1.729649 1_555
As9 O13 1.729649 1_555
As10 O41 1.729649 1_555
As10 O34 1.729649 1_555
As10 O23 1.729649 1_555
As10 O10 1.729649 1_555
As11 O32 1.729649 1_455
As11 O44 1.729649 1_555
As11 O25 1.729649 1_555
As11 O1 1.729649 1_565
