# generated using pymatgen
data_CaTeO3
_symmetry_space_group_name_H-M   'P 1'
_cell_length_a   12.27266100
_cell_length_b   12.27266100
_cell_length_c   11.19773000
_cell_angle_alpha   90.00000000
_cell_angle_beta   90.00000000
_cell_angle_gamma   90.00000000
_symmetry_Int_Tables_number   1
_chemical_formula_structural   CaTeO3
_chemical_formula_sum   'Ca20 Te20 O60'
_cell_volume   1686.58202650
_cell_formula_units_Z   20
loop_
 _symmetry_equiv_pos_site_id
 _symmetry_equiv_pos_as_xyz
  1  'x, y, z'
loop_
 _atom_site_type_symbol
 _atom_site_label
 _atom_site_symmetry_multiplicity
 _atom_site_fract_x
 _atom_site_fract_y
 _atom_site_fract_z
 _atom_site_occupancy
  Ca  Ca0  1  0.24244100  0.22746200  0.27368500  1
  Ca  Ca1  1  0.34543900  0.03816700  0.01448400  1
  Ca  Ca2  1  0.26593900  0.74136800  0.03638600  1
  Ca  Ca3  1  0.22746200  0.75755900  0.52368500  1
  Ca  Ca4  1  0.16235700  0.43465100  0.51792700  1
  Ca  Ca5  1  0.96183300  0.34543900  0.76448400  1
  Ca  Ca6  1  0.56534900  0.16235700  0.26792700  1
  Ca  Ca7  1  0.46240300  0.86328600  0.26804100  1
  Ca  Ca8  1  0.65456100  0.96183300  0.51448400  1
  Ca  Ca9  1  0.13671400  0.46240300  0.01804100  1
  Ca  Ca10  1  0.03816700  0.65456100  0.26448400  1
  Ca  Ca11  1  0.75755900  0.77253800  0.77368500  1
  Ca  Ca12  1  0.53759700  0.13671400  0.76804100  1
  Ca  Ca13  1  0.25863200  0.26593900  0.78638600  1
  Ca  Ca14  1  0.43465100  0.83764300  0.76792700  1
  Ca  Ca15  1  0.73406100  0.25863200  0.53638600  1
  Ca  Ca16  1  0.77253800  0.24244100  0.02368500  1
  Ca  Ca17  1  0.74136800  0.73406100  0.28638600  1
  Ca  Ca18  1  0.83764300  0.56534900  0.01792700  1
  Ca  Ca19  1  0.86328600  0.53759700  0.51804100  1
  Te  Te0  1  0.38407900  0.00668000  0.50928700  1
  Te  Te1  1  0.31135100  0.55549800  0.26815800  1
  Te  Te2  1  0.00668000  0.61592100  0.75928700  1
  Te  Te3  1  0.05794500  0.15819700  0.99545900  1
  Te  Te4  1  0.34092100  0.55937600  0.79232500  1
  Te  Te5  1  0.16911200  0.93747200  0.79057200  1
  Te  Te6  1  0.84180300  0.05794500  0.74545900  1
  Te  Te7  1  0.68864900  0.44450200  0.76815800  1
  Te  Te8  1  0.55549800  0.68864900  0.51815800  1
  Te  Te9  1  0.61592100  0.99332000  0.00928700  1
  Te  Te10  1  0.06252800  0.16911200  0.54057200  1
  Te  Te11  1  0.83088800  0.06252800  0.29057200  1
  Te  Te12  1  0.65907900  0.44062400  0.29232500  1
  Te  Te13  1  0.44062400  0.34092100  0.54232500  1
  Te  Te14  1  0.94205500  0.84180300  0.49545900  1
  Te  Te15  1  0.93747200  0.83088800  0.04057200  1
  Te  Te16  1  0.44450200  0.31135100  0.01815800  1
  Te  Te17  1  0.15819700  0.94205500  0.24545900  1
  Te  Te18  1  0.99332000  0.38407900  0.25928700  1
  Te  Te19  1  0.55937600  0.65907900  0.04232500  1
  O  O0  1  0.40881800  0.24125100  0.16421100  1
  O  O1  1  0.02760200  0.50401000  0.64068100  1
  O  O2  1  0.49599000  0.02760200  0.39068100  1
  O  O3  1  0.98421200  0.50897900  0.88315900  1
  O  O4  1  0.13338700  0.81724900  0.34489100  1
  O  O5  1  0.27385000  0.44702400  0.69974200  1
  O  O6  1  0.75874900  0.40881800  0.91421100  1
  O  O7  1  0.60042800  0.80122000  0.41184300  1
  O  O8  1  0.71023300  0.09854800  0.66506400  1
  O  O9  1  0.50897900  0.01578800  0.13315900  1
  O  O10  1  0.39957200  0.19878000  0.91184300  1
  O  O11  1  0.24125100  0.59118200  0.41421100  1
  O  O12  1  0.27503400  0.88388100  0.89847800  1
  O  O13  1  0.18275100  0.13338700  0.09489100  1
  O  O14  1  0.28976700  0.90145200  0.16506400  1
  O  O15  1  0.04436700  0.77794600  0.60133000  1
  O  O16  1  0.49102100  0.98421200  0.63315900  1
  O  O17  1  0.62826600  0.14182900  0.95967500  1
  O  O18  1  0.32058900  0.33434600  0.43530900  1
  O  O19  1  0.08984000  0.25503600  0.40534900  1
  O  O20  1  0.67841000  0.60124200  0.48605500  1
  O  O21  1  0.74496400  0.08984000  0.15534900  1
  O  O22  1  0.32159000  0.39875800  0.98605500  1
  O  O23  1  0.25503600  0.91016000  0.65534900  1
  O  O24  1  0.37173400  0.85817100  0.45967500  1
  O  O25  1  0.39997300  0.22327000  0.64249600  1
  O  O26  1  0.33434600  0.67941100  0.68530900  1
  O  O27  1  0.60002700  0.77673000  0.14249600  1
  O  O28  1  0.01578800  0.49102100  0.38315900  1
  O  O29  1  0.80122000  0.39957200  0.66184300  1
  O  O30  1  0.19878000  0.60042800  0.16184300  1
  O  O31  1  0.55297600  0.27385000  0.44974200  1
  O  O32  1  0.97239800  0.49599000  0.14068100  1
  O  O33  1  0.86661300  0.18275100  0.84489100  1
  O  O34  1  0.59118200  0.75874900  0.66421100  1
  O  O35  1  0.79617300  0.91575100  0.31981300  1
  O  O36  1  0.50401000  0.97239800  0.89068100  1
  O  O37  1  0.91575100  0.20382700  0.56981300  1
  O  O38  1  0.81724900  0.86661300  0.59489100  1
  O  O39  1  0.22327000  0.60002700  0.89249600  1
  O  O40  1  0.90145200  0.71023300  0.41506400  1
  O  O41  1  0.11611900  0.27503400  0.64847800  1
  O  O42  1  0.67941100  0.66565400  0.93530900  1
  O  O43  1  0.08424900  0.79617300  0.06981300  1
  O  O44  1  0.09854800  0.28976700  0.91506400  1
  O  O45  1  0.72615000  0.55297600  0.19974200  1
  O  O46  1  0.95563300  0.22205400  0.10133000  1
  O  O47  1  0.91016000  0.74496400  0.90534900  1
  O  O48  1  0.22205400  0.04436700  0.35133000  1
  O  O49  1  0.77794600  0.95563300  0.85133000  1
  O  O50  1  0.60124200  0.32159000  0.73605500  1
  O  O51  1  0.72496600  0.11611900  0.39847800  1
  O  O52  1  0.66565400  0.32058900  0.18530900  1
  O  O53  1  0.77673000  0.39997300  0.39249600  1
  O  O54  1  0.39875800  0.67841000  0.23605500  1
  O  O55  1  0.20382700  0.08424900  0.81981300  1
  O  O56  1  0.85817100  0.62826600  0.70967500  1
  O  O57  1  0.88388100  0.72496600  0.14847800  1
  O  O58  1  0.44702400  0.72615000  0.94974200  1
  O  O59  1  0.14182900  0.37173400  0.20967500  1
loop_
_geom_bond_atom_site_label_1
_geom_bond_atom_site_label_2
_geom_bond_distance
_geom_bond_site_symmetry_2
Ca0 O59 2.274524 1_555
Ca0 O0 2.387610 1_555
Ca0 O19 2.407415 1_555
Ca0 O48 2.422361 1_555
Ca0 O13 2.424454 1_555
Ca0 O18 2.432280 1_555
Ca1 O10 2.376509 1_554
Ca1 O9 2.422750 1_555
Ca1 O12 2.453436 1_544
Ca1 O14 2.474902 1_545
Ca1 O13 2.482495 1_555
Ca1 O36 2.522029 1_544
Ca1 O55 2.844676 1_554
Ca2 O12 2.335859 1_554
Ca2 O43 2.358940 1_555
Ca2 O30 2.375876 1_555
Ca2 O39 2.424719 1_554
Ca2 O58 2.432127 1_554
Ca2 O14 2.453893 1_555
Ca2 O54 2.872808 1_555
Ca3 O24 2.274524 1_555
Ca3 O11 2.387610 1_555
Ca3 O23 2.407415 1_555
Ca3 O15 2.422361 1_555
Ca3 O4 2.424454 1_555
Ca3 O26 2.432280 1_555
Ca4 O1 2.312805 1_555
Ca4 O11 2.444737 1_555
Ca4 O28 2.447779 1_555
Ca4 O5 2.457702 1_555
Ca4 O18 2.478374 1_555
Ca4 O41 2.509279 1_555
Ca4 O19 2.690798 1_555
Ca5 O29 2.376509 1_555
Ca5 O3 2.422750 1_555
Ca5 O41 2.453436 1_655
Ca5 O44 2.474902 1_655
Ca5 O33 2.482495 1_555
Ca5 O1 2.522029 1_655
Ca5 O37 2.844676 1_555
Ca6 O2 2.312805 1_555
Ca6 O0 2.444737 1_555
Ca6 O9 2.447779 1_555
Ca6 O31 2.457702 1_555
Ca6 O52 2.478374 1_555
Ca6 O51 2.509279 1_555
Ca6 O21 2.690798 1_555
Ca7 O24 2.418035 1_555
Ca7 O54 2.426189 1_555
Ca7 O27 2.440802 1_555
Ca7 O14 2.457226 1_555
Ca7 O7 2.458159 1_555
Ca7 O9 2.472017 1_565
Ca7 O2 2.474366 1_565
Ca8 O7 2.376509 1_555
Ca8 O16 2.422750 1_555
Ca8 O51 2.453436 1_565
Ca8 O8 2.474902 1_565
Ca8 O38 2.482495 1_555
Ca8 O2 2.522029 1_565
Ca8 O35 2.844676 1_555
Ca9 O59 2.418035 1_555
Ca9 O22 2.426189 1_554
Ca9 O39 2.440802 1_554
Ca9 O44 2.457226 1_554
Ca9 O30 2.458159 1_555
Ca9 O3 2.472017 1_454
Ca9 O32 2.474366 1_455
Ca10 O30 2.376509 1_555
Ca10 O28 2.422750 1_555
Ca10 O57 2.453436 1_455
Ca10 O40 2.474902 1_455
Ca10 O4 2.482495 1_555
Ca10 O32 2.522029 1_455
Ca10 O43 2.844676 1_555
Ca11 O56 2.274524 1_555
Ca11 O34 2.387610 1_555
Ca11 O47 2.407415 1_555
Ca11 O49 2.422361 1_555
Ca11 O38 2.424454 1_555
Ca11 O42 2.432280 1_555
Ca12 O17 2.418035 1_555
Ca12 O50 2.426189 1_555
Ca12 O25 2.440802 1_555
Ca12 O8 2.457226 1_555
Ca12 O10 2.458159 1_555
Ca12 O16 2.472017 1_545
Ca12 O36 2.474366 1_545
Ca13 O41 2.335859 1_555
Ca13 O55 2.358940 1_555
Ca13 O10 2.375876 1_555
Ca13 O25 2.424719 1_555
Ca13 O5 2.432127 1_555
Ca13 O44 2.453893 1_555
Ca13 O22 2.872808 1_555
Ca14 O36 2.312805 1_555
Ca14 O34 2.444737 1_555
Ca14 O16 2.447779 1_555
Ca14 O58 2.457702 1_555
Ca14 O26 2.478374 1_555
Ca14 O12 2.509279 1_555
Ca14 O23 2.690798 1_555
Ca15 O51 2.335859 1_555
Ca15 O37 2.358940 1_555
Ca15 O29 2.375876 1_555
Ca15 O53 2.424719 1_555
Ca15 O31 2.432127 1_555
Ca15 O8 2.453893 1_555
Ca15 O50 2.872808 1_555
Ca16 O17 2.274524 1_554
Ca16 O6 2.387610 1_554
Ca16 O21 2.407415 1_555
Ca16 O46 2.422361 1_555
Ca16 O33 2.424454 1_554
Ca16 O52 2.432280 1_555
Ca17 O57 2.335859 1_555
Ca17 O35 2.358940 1_555
Ca17 O7 2.375876 1_555
Ca17 O27 2.424719 1_555
Ca17 O45 2.432127 1_555
Ca17 O40 2.453893 1_555
Ca17 O20 2.872808 1_555
Ca18 O32 2.312805 1_555
Ca18 O6 2.444737 1_554
Ca18 O3 2.447779 1_554
Ca18 O45 2.457702 1_555
Ca18 O42 2.478374 1_554
Ca18 O57 2.509279 1_555
Ca18 O47 2.690798 1_554
Ca19 O56 2.418035 1_555
Ca19 O20 2.426189 1_555
Ca19 O53 2.440802 1_555
Ca19 O40 2.457226 1_555
Ca19 O29 2.458159 1_555
Ca19 O28 2.472017 1_655
Ca19 O1 2.474366 1_655
O0 Te16 1.899122 1_555
O1 Te2 1.927740 1_555
O2 Te0 1.927740 1_555
O3 Te2 1.929404 1_655
O4 Te17 1.917944 1_555
O5 Te4 1.911438 1_555
O6 Te7 1.899122 1_555
O7 Te8 1.905251 1_555
O8 Te6 1.914692 1_555
O9 Te9 1.929404 1_545
O10 Te16 1.905251 1_556
O11 Te1 1.899122 1_555
O12 Te5 1.892730 1_555
O13 Te3 1.917944 1_554
O14 Te17 1.914692 1_555
O15 Te14 1.896380 1_455
O15 Te2 2.701200 1_555
O16 Te0 1.929404 1_565
O17 Te9 1.911401 1_546
O18 Te13 1.900707 1_555
O19 Te10 1.875401 1_555
O19 Te18 2.566389 1_455
O20 Te8 1.885574 1_555
O21 Te11 1.875401 1_555
O21 Te9 2.566389 1_545
O22 Te16 1.885574 1_556
O23 Te5 1.875401 1_555
O23 Te0 2.566389 1_565
O24 Te0 1.911401 1_565
O25 Te13 1.895231 1_555
O26 Te4 1.900707 1_555
O27 Te19 1.895231 1_555
O28 Te18 1.929404 1_455
O29 Te7 1.905251 1_555
O30 Te1 1.905251 1_555
O31 Te13 1.911438 1_555
O32 Te18 1.927740 1_555
O33 Te6 1.917944 1_555
O34 Te8 1.899122 1_555
O35 Te11 1.879779 1_565
O36 Te9 1.927740 1_556
O37 Te10 1.879779 1_655
O38 Te14 1.917944 1_555
O39 Te4 1.895231 1_555
O40 Te14 1.914692 1_555
O41 Te10 1.892730 1_555
O42 Te19 1.900707 1_556
O43 Te15 1.879779 1_455
O44 Te3 1.914692 1_555
O45 Te12 1.911438 1_555
O46 Te3 1.896380 1_654
O46 Te18 2.701200 1_555
O47 Te15 1.875401 1_556
O47 Te2 2.566389 1_655
O48 Te17 1.896380 1_545
O48 Te0 2.701200 1_555
O49 Te6 1.896380 1_565
O49 Te9 2.701200 1_556
O50 Te7 1.885574 1_555
O51 Te11 1.892730 1_555
O52 Te12 1.900707 1_555
O53 Te12 1.895231 1_555
O54 Te1 1.885574 1_555
O55 Te5 1.879779 1_545
O56 Te2 1.911401 1_655
O57 Te15 1.892730 1_555
O58 Te19 1.911438 1_556
O59 Te18 1.911401 1_455
