# generated using pymatgen
data_SnCSNF
_symmetry_space_group_name_H-M   'P 1'
_cell_length_a   4.39913600
_cell_length_b   7.81253700
_cell_length_c   12.44219700
_cell_angle_alpha   90.00000000
_cell_angle_beta   90.00000000
_cell_angle_gamma   90.00000000
_symmetry_Int_Tables_number   1
_chemical_formula_structural   SnCSNF
_chemical_formula_sum   'Sn4 C4 S4 N4 F4'
_cell_volume   427.61856224
_cell_formula_units_Z   4
loop_
 _symmetry_equiv_pos_site_id
 _symmetry_equiv_pos_as_xyz
  1  'x, y, z'
loop_
 _atom_site_type_symbol
 _atom_site_label
 _atom_site_symmetry_multiplicity
 _atom_site_fract_x
 _atom_site_fract_y
 _atom_site_fract_z
 _atom_site_occupancy
  Sn  Sn0  1  0.25000000  0.64001000  0.59430100  1
  Sn  Sn1  1  0.75000000  0.35999000  0.40569900  1
  Sn  Sn2  1  0.75000000  0.85999000  0.09430100  1
  Sn  Sn3  1  0.25000000  0.14001000  0.90569900  1
  C  C0  1  0.75000000  0.56906900  0.89164600  1
  C  C1  1  0.75000000  0.06906900  0.60835400  1
  C  C2  1  0.25000000  0.93093100  0.39164600  1
  C  C3  1  0.25000000  0.43093100  0.10835400  1
  S  S0  1  0.75000000  0.91948300  0.69818700  1
  S  S1  1  0.25000000  0.08051700  0.30181300  1
  S  S2  1  0.25000000  0.58051700  0.19818700  1
  S  S3  1  0.75000000  0.41948300  0.80181300  1
  N  N0  1  0.75000000  0.18257700  0.54497900  1
  N  N1  1  0.25000000  0.81742300  0.45502100  1
  N  N2  1  0.25000000  0.31742300  0.04497900  1
  N  N3  1  0.75000000  0.68257700  0.95502100  1
  F  F0  1  0.25000000  0.92169100  0.02722500  1
  F  F1  1  0.75000000  0.57830900  0.52722500  1
  F  F2  1  0.25000000  0.42169100  0.47277500  1
  F  F3  1  0.75000000  0.07830900  0.97277500  1
loop_
_geom_bond_atom_site_label_1
_geom_bond_atom_site_label_2
_geom_bond_distance
_geom_bond_site_symmetry_2
C0 N3 1.186659 1_555
C0 S3 1.617106 1_555
C1 N0 1.186659 1_555
C1 S0 1.617106 1_545
C2 N1 1.186659 1_555
C2 S1 1.617106 1_565
C3 N2 1.186659 1_555
C3 S2 1.617106 1_555
N0 Sn1 2.219062 1_555
N1 Sn0 2.219062 1_555
N2 Sn3 2.219062 1_554
N3 Sn2 2.219062 1_556
F0 Sn3 2.279354 1_564
F0 Sn2 2.401453 1_555
F0 Sn2 2.401453 1_455
F1 Sn1 2.279354 1_555
F1 Sn0 2.401453 1_555
F1 Sn0 2.401453 1_655
F2 Sn0 2.279354 1_555
F2 Sn1 2.401453 1_555
F2 Sn1 2.401453 1_455
F3 Sn2 2.279354 1_546
F3 Sn3 2.401453 1_555
F3 Sn3 2.401453 1_655
