# generated using pymatgen
data_Nd(BC)2
_symmetry_space_group_name_H-M   'P 1'
_cell_length_a   3.83326553
_cell_length_b   5.37861252
_cell_length_c   5.37861252
_cell_angle_alpha   90.00000000
_cell_angle_beta   90.00000000
_cell_angle_gamma   90.00000000
_symmetry_Int_Tables_number   1
_chemical_formula_structural   Nd(BC)2
_chemical_formula_sum   'Nd2 B4 C4'
_cell_volume   110.89435027
_cell_formula_units_Z   2
loop_
 _symmetry_equiv_pos_site_id
 _symmetry_equiv_pos_as_xyz
  1  'x, y, z'
loop_
 _atom_site_type_symbol
 _atom_site_label
 _atom_site_symmetry_multiplicity
 _atom_site_fract_x
 _atom_site_fract_y
 _atom_site_fract_z
 _atom_site_occupancy
  Nd  Nd0  1  -0.00000000  0.50000000  0.50000000  1
  Nd  Nd1  1  -0.00000000  0.00000000  0.00000000  1
  B  B0  1  0.50000000  0.63759091  0.13759091  1
  B  B1  1  0.50000000  0.86240909  0.63759091  1
  B  B2  1  0.50000000  0.36241009  0.86240909  1
  B  B3  1  0.50000000  0.13759091  0.36241009  1
  C  C0  1  0.50000000  0.66107612  0.83892388  1
  C  C1  1  0.50000000  0.83892388  0.33892488  1
  C  C2  1  0.50000000  0.16107612  0.66107612  1
  C  C3  1  0.50000000  0.33892488  0.16107612  1
loop_
_geom_bond_atom_site_label_1
_geom_bond_atom_site_label_2
_geom_bond_distance
_geom_bond_site_symmetry_2
B0 C1 1.531444 1_555
B0 C3 1.611368 1_555
B0 C0 1.611373 1_554
B0 Nd0 2.832095 1_655
B0 Nd1 2.832095 1_665
B0 Nd1 2.832095 1_565
B0 Nd0 2.832095 1_555
B1 C0 1.531441 1_555
B1 C1 1.611368 1_555
B1 C2 1.611373 1_565
B1 Nd0 2.832095 1_655
B1 Nd1 2.832095 1_566
B1 Nd0 2.832095 1_555
B1 Nd1 2.832095 1_666
B2 C2 1.531444 1_555
B2 C0 1.611368 1_555
B2 C3 1.611373 1_556
B2 Nd0 2.832093 1_655
B2 Nd0 2.832093 1_555
B2 Nd1 2.832098 1_556
B2 Nd1 2.832098 1_656
B3 C3 1.531448 1_555
B3 C2 1.611368 1_555
B3 C1 1.611373 1_545
B3 Nd0 2.832093 1_655
B3 Nd0 2.832093 1_555
B3 Nd1 2.832098 1_655
B3 Nd1 2.832098 1_555
C0 Nd1 2.783376 1_566
C0 Nd0 2.783376 1_555
C0 Nd1 2.783376 1_666
C0 Nd0 2.783376 1_655
C1 Nd0 2.783374 1_655
C1 Nd0 2.783374 1_555
C1 Nd1 2.783380 1_565
C1 Nd1 2.783380 1_665
C2 Nd1 2.783376 1_656
C2 Nd1 2.783376 1_556
C2 Nd0 2.783376 1_655
C2 Nd0 2.783376 1_555
C3 Nd0 2.783374 1_655
C3 Nd0 2.783374 1_555
C3 Nd1 2.783380 1_655
C3 Nd1 2.783380 1_555
