# generated using pymatgen
data_Ba7Sc6Al2O19
_symmetry_space_group_name_H-M   'P 1'
_cell_length_a   5.85715523
_cell_length_b   5.85715523
_cell_length_c   35.67451700
_cell_angle_alpha   90.00000000
_cell_angle_beta   90.00000000
_cell_angle_gamma   119.99999129
_symmetry_Int_Tables_number   1
_chemical_formula_structural   Ba7Sc6Al2O19
_chemical_formula_sum   'Ba14 Sc12 Al4 O38'
_cell_volume   1059.89352697
_cell_formula_units_Z   2
loop_
 _symmetry_equiv_pos_site_id
 _symmetry_equiv_pos_as_xyz
  1  'x, y, z'
loop_
 _atom_site_type_symbol
 _atom_site_label
 _atom_site_symmetry_multiplicity
 _atom_site_fract_x
 _atom_site_fract_y
 _atom_site_fract_z
 _atom_site_occupancy
  Ba  Ba0  1  0.00000000  0.00000000  0.05361800  1
  Ba  Ba1  1  0.33333300  0.66666700  0.89255300  1
  Ba  Ba2  1  0.33333300  0.66666700  0.32765000  1
  Ba  Ba3  1  0.00000000  0.00000000  0.94638200  1
  Ba  Ba4  1  0.00000000  0.00000000  0.44638200  1
  Ba  Ba5  1  0.66666700  0.33333300  0.39255300  1
  Ba  Ba6  1  0.33333300  0.66666700  0.17235000  1
  Ba  Ba7  1  0.00000000  0.00000000  0.75000000  1
  Ba  Ba8  1  0.33333300  0.66666700  0.60744700  1
  Ba  Ba9  1  0.66666700  0.33333300  0.10744700  1
  Ba  Ba10  1  0.00000000  0.00000000  0.55361800  1
  Ba  Ba11  1  0.66666700  0.33333300  0.82765000  1
  Ba  Ba12  1  0.00000000  0.00000000  0.25000000  1
  Ba  Ba13  1  0.66666700  0.33333300  0.67235000  1
  Sc  Sc0  1  0.00000000  0.00000000  0.85164300  1
  Sc  Sc1  1  0.33333300  0.66666700  0.50552000  1
  Sc  Sc2  1  0.66666700  0.33333300  0.49448000  1
  Sc  Sc3  1  0.66666700  0.33333300  0.92126800  1
  Sc  Sc4  1  0.33333300  0.66666700  0.99448000  1
  Sc  Sc5  1  0.33333300  0.66666700  0.42126800  1
  Sc  Sc6  1  0.66666700  0.33333300  0.00552000  1
  Sc  Sc7  1  0.66666700  0.33333300  0.57873200  1
  Sc  Sc8  1  0.00000000  0.00000000  0.35164300  1
  Sc  Sc9  1  0.00000000  0.00000000  0.14835700  1
  Sc  Sc10  1  0.33333300  0.66666700  0.07873200  1
  Sc  Sc11  1  0.00000000  0.00000000  0.64835700  1
  Al  Al0  1  0.33333300  0.66666700  0.79879400  1
  Al  Al1  1  0.66666700  0.33333300  0.29879400  1
  Al  Al2  1  0.33333300  0.66666700  0.70120600  1
  Al  Al3  1  0.66666700  0.33333300  0.20120600  1
  O  O0  1  0.33221300  0.16610700  0.88758200  1
  O  O1  1  0.16834100  0.33668300  0.68494900  1
  O  O2  1  0.33668300  0.16834100  0.18494900  1
  O  O3  1  0.16610700  0.33221300  0.11241800  1
  O  O4  1  0.33333300  0.66666700  0.75000000  1
  O  O5  1  0.99028100  0.49514000  0.53806200  1
  O  O6  1  0.66778700  0.83389300  0.38758200  1
  O  O7  1  0.66331700  0.83165900  0.81505100  1
  O  O8  1  0.00971900  0.50486000  0.03806200  1
  O  O9  1  0.16834100  0.33668300  0.81505100  1
  O  O10  1  0.16834100  0.83165900  0.81505100  1
  O  O11  1  0.50486000  0.00971900  0.96193800  1
  O  O12  1  0.83165900  0.16834100  0.31505100  1
  O  O13  1  0.16610700  0.83389300  0.38758200  1
  O  O14  1  0.00971900  0.50486000  0.46193800  1
  O  O15  1  0.66666700  0.33333300  0.25000000  1
  O  O16  1  0.83389300  0.66778700  0.88758200  1
  O  O17  1  0.16834100  0.83165900  0.68494900  1
  O  O18  1  0.50486000  0.49514000  0.96193800  1
  O  O19  1  0.83389300  0.16610700  0.88758200  1
  O  O20  1  0.16610700  0.33221300  0.38758200  1
  O  O21  1  0.50486000  0.49514000  0.53806200  1
  O  O22  1  0.66331700  0.83165900  0.68494900  1
  O  O23  1  0.33668300  0.16834100  0.31505100  1
  O  O24  1  0.83165900  0.16834100  0.18494900  1
  O  O25  1  0.66778700  0.83389300  0.11241800  1
  O  O26  1  0.99028100  0.49514000  0.96193800  1
  O  O27  1  0.83389300  0.66778700  0.61241800  1
  O  O28  1  0.83165900  0.66331700  0.31505100  1
  O  O29  1  0.50486000  0.00971900  0.53806200  1
  O  O30  1  0.83389300  0.16610700  0.61241800  1
  O  O31  1  0.49514000  0.50486000  0.46193800  1
  O  O32  1  0.16610700  0.83389300  0.11241800  1
  O  O33  1  0.49514000  0.99028100  0.46193800  1
  O  O34  1  0.49514000  0.50486000  0.03806200  1
  O  O35  1  0.49514000  0.99028100  0.03806200  1
  O  O36  1  0.83165900  0.66331700  0.18494900  1
  O  O37  1  0.33221300  0.16610700  0.61241800  1
loop_
_geom_bond_atom_site_label_1
_geom_bond_atom_site_label_2
_geom_bond_distance
_geom_bond_site_symmetry_2
Ba0 O25 2.690698 1_445
Ba0 O3 2.690698 1_555
Ba0 O32 2.690701 1_545
Ba0 O8 2.981099 1_545
Ba0 O35 2.981099 1_545
Ba0 O34 2.981103 1_445
Ba0 O34 2.981103 1_555
Ba0 O35 2.981105 1_445
Ba0 O8 2.981105 1_555
Ba1 O0 2.933947 1_565
Ba1 O16 2.933947 1_455
Ba1 O0 2.933947 1_555
Ba1 O16 2.933947 1_555
Ba1 O19 2.933948 1_455
Ba1 O19 2.933948 1_565
Ba1 O11 3.025721 1_565
Ba1 O26 3.025721 1_455
Ba1 O18 3.025726 1_555
Ba1 O10 3.232038 1_555
Ba1 O7 3.232038 1_555
Ba1 O9 3.232038 1_555
Ba2 O13 2.729343 1_555
Ba2 O20 2.729349 1_555
Ba2 O6 2.729349 1_555
Ba2 O23 2.962910 1_565
Ba2 O28 2.962910 1_455
Ba2 O12 2.962917 1_565
Ba2 O12 2.962917 1_455
Ba2 O28 2.962922 1_555
Ba2 O23 2.962922 1_555
Ba3 O0 2.690698 1_555
Ba3 O16 2.690698 1_445
Ba3 O19 2.690701 1_455
Ba3 O11 2.981099 1_455
Ba3 O26 2.981099 1_455
Ba3 O18 2.981103 1_445
Ba3 O18 2.981103 1_555
Ba3 O26 2.981105 1_445
Ba3 O11 2.981105 1_555
Ba4 O6 2.690698 1_445
Ba4 O20 2.690698 1_555
Ba4 O13 2.690701 1_545
Ba4 O14 2.981099 1_545
Ba4 O33 2.981099 1_545
Ba4 O31 2.981103 1_445
Ba4 O31 2.981103 1_555
Ba4 O33 2.981105 1_445
Ba4 O14 2.981105 1_555
Ba5 O6 2.933947 1_545
Ba5 O20 2.933947 1_655
Ba5 O20 2.933947 1_555
Ba5 O6 2.933947 1_555
Ba5 O13 2.933948 1_655
Ba5 O13 2.933948 1_545
Ba5 O14 3.025721 1_655
Ba5 O33 3.025721 1_545
Ba5 O31 3.025726 1_555
Ba5 O12 3.232038 1_555
Ba5 O28 3.232038 1_555
Ba5 O23 3.232038 1_555
Ba6 O32 2.729343 1_555
Ba6 O25 2.729349 1_555
Ba6 O3 2.729349 1_555
Ba6 O2 2.962910 1_565
Ba6 O36 2.962910 1_455
Ba6 O24 2.962917 1_565
Ba6 O24 2.962917 1_455
Ba6 O36 2.962922 1_555
Ba6 O2 2.962922 1_555
Ba7 O10 2.881330 1_545
Ba7 O17 2.881330 1_545
Ba7 O9 2.881333 1_555
Ba7 O7 2.881333 1_445
Ba7 O1 2.881333 1_555
Ba7 O22 2.881333 1_445
Ba7 O4 3.381627 1_545
Ba7 O4 3.381632 1_555
Ba7 O4 3.381632 1_445
Ba8 O37 2.933947 1_565
Ba8 O27 2.933947 1_455
Ba8 O27 2.933947 1_555
Ba8 O37 2.933947 1_555
Ba8 O30 2.933948 1_565
Ba8 O30 2.933948 1_455
Ba8 O5 3.025721 1_455
Ba8 O29 3.025721 1_565
Ba8 O21 3.025726 1_555
Ba8 O17 3.232038 1_555
Ba8 O22 3.232038 1_555
Ba8 O1 3.232038 1_555
Ba9 O3 2.933947 1_655
Ba9 O25 2.933947 1_545
Ba9 O25 2.933947 1_555
Ba9 O3 2.933947 1_555
Ba9 O32 2.933948 1_545
Ba9 O32 2.933948 1_655
Ba9 O35 3.025721 1_545
Ba9 O8 3.025721 1_655
Ba9 O34 3.025726 1_555
Ba9 O24 3.232038 1_555
Ba9 O36 3.232038 1_555
Ba9 O2 3.232038 1_555
Ba10 O27 2.690698 1_445
Ba10 O37 2.690698 1_555
Ba10 O30 2.690701 1_455
Ba10 O29 2.981099 1_455
Ba10 O5 2.981099 1_455
Ba10 O21 2.981103 1_445
Ba10 O21 2.981103 1_555
Ba10 O5 2.981105 1_445
Ba10 O29 2.981105 1_555
Ba11 O19 2.729343 1_555
Ba11 O16 2.729349 1_555
Ba11 O0 2.729349 1_555
Ba11 O9 2.962910 1_655
Ba11 O7 2.962910 1_545
Ba11 O10 2.962917 1_655
Ba11 O10 2.962917 1_545
Ba11 O7 2.962922 1_555
Ba11 O9 2.962922 1_555
Ba12 O12 2.881330 1_455
Ba12 O24 2.881330 1_455
Ba12 O23 2.881333 1_555
Ba12 O28 2.881333 1_445
Ba12 O2 2.881333 1_555
Ba12 O36 2.881333 1_445
Ba12 O15 3.381627 1_455
Ba12 O15 3.381632 1_555
Ba12 O15 3.381632 1_445
Ba13 O30 2.729343 1_555
Ba13 O27 2.729349 1_555
Ba13 O37 2.729349 1_555
Ba13 O1 2.962910 1_655
Ba13 O22 2.962910 1_545
Ba13 O17 2.962917 1_655
Ba13 O17 2.962917 1_545
Ba13 O22 2.962922 1_555
Ba13 O1 2.962922 1_555
Al0 O4 1.740702 1_555
Al0 O10 1.771453 1_555
Al0 O7 1.771454 1_555
Al0 O9 1.771454 1_555
Al1 O15 1.740702 1_555
Al1 O12 1.771453 1_555
Al1 O28 1.771454 1_555
Al1 O23 1.771454 1_555
Al2 O4 1.740702 1_555
Al2 O17 1.771453 1_555
Al2 O22 1.771454 1_555
Al2 O1 1.771454 1_555
Al3 O15 1.740702 1_555
Al3 O24 1.771453 1_555
Al3 O36 1.771454 1_555
Al3 O2 1.771454 1_555
O0 Sc3 2.079007 1_555
O0 Sc0 2.117420 1_555
O1 Sc11 2.149576 1_555
O2 Sc9 2.149576 1_555
O3 Sc10 2.079007 1_555
O3 Sc9 2.117420 1_555
O5 Sc1 2.091824 1_655
O5 Sc7 2.190806 1_555
O5 Sc2 2.260944 1_555
O6 Sc5 2.079007 1_555
O6 Sc8 2.117420 1_665
O7 Sc0 2.149576 1_665
O8 Sc6 2.091824 1_455
O8 Sc10 2.190806 1_555
O8 Sc4 2.260944 1_554
O9 Sc0 2.149576 1_555
O10 Sc0 2.149572 1_565
O11 Sc4 2.091824 1_545
O11 Sc3 2.190806 1_555
O11 Sc6 2.260944 1_556
O12 Sc8 2.149572 1_655
O13 Sc5 2.078999 1_555
O13 Sc8 2.117424 1_565
O14 Sc2 2.091824 1_455
O14 Sc5 2.190806 1_555
O14 Sc1 2.260944 1_555
O16 Sc3 2.079007 1_555
O16 Sc0 2.117420 1_665
O17 Sc11 2.149572 1_565
O18 Sc4 2.091832 1_555
O18 Sc3 2.190806 1_555
O18 Sc6 2.260944 1_556
O19 Sc3 2.078999 1_555
O19 Sc0 2.117424 1_655
O20 Sc5 2.079007 1_555
O20 Sc8 2.117420 1_555
O21 Sc1 2.091832 1_555
O21 Sc7 2.190806 1_555
O21 Sc2 2.260944 1_555
O22 Sc11 2.149576 1_665
O23 Sc8 2.149576 1_555
O24 Sc9 2.149572 1_655
O25 Sc10 2.079007 1_555
O25 Sc9 2.117420 1_665
O26 Sc4 2.091824 1_655
O26 Sc3 2.190806 1_555
O26 Sc6 2.260944 1_556
O27 Sc7 2.079007 1_555
O27 Sc11 2.117420 1_665
O28 Sc8 2.149576 1_665
O29 Sc1 2.091824 1_545
O29 Sc7 2.190806 1_555
O29 Sc2 2.260944 1_555
O30 Sc7 2.078999 1_555
O30 Sc11 2.117424 1_655
O31 Sc2 2.091832 1_555
O31 Sc5 2.190806 1_555
O31 Sc1 2.260944 1_555
O32 Sc10 2.078999 1_555
O32 Sc9 2.117424 1_565
O33 Sc2 2.091824 1_565
O33 Sc5 2.190806 1_555
O33 Sc1 2.260944 1_555
O34 Sc6 2.091832 1_555
O34 Sc10 2.190806 1_555
O34 Sc4 2.260944 1_554
O35 Sc6 2.091824 1_565
O35 Sc10 2.190806 1_555
O35 Sc4 2.260944 1_554
O36 Sc9 2.149576 1_665
O37 Sc7 2.079007 1_555
O37 Sc11 2.117420 1_555
