# generated using pymatgen
data_Cs4CdNi3F12
_symmetry_space_group_name_H-M   'P 1'
_cell_length_a   10.78215611
_cell_length_b   10.78215611
_cell_length_c   10.78215674
_cell_angle_alpha   33.97782139
_cell_angle_beta   33.97782139
_cell_angle_gamma   33.97782520
_symmetry_Int_Tables_number   1
_chemical_formula_structural   Cs4CdNi3F12
_chemical_formula_sum   'Cs4 Cd1 Ni3 F12'
_cell_volume   348.96872051
_cell_formula_units_Z   1
loop_
 _symmetry_equiv_pos_site_id
 _symmetry_equiv_pos_as_xyz
  1  'x, y, z'
loop_
 _atom_site_type_symbol
 _atom_site_label
 _atom_site_symmetry_multiplicity
 _atom_site_fract_x
 _atom_site_fract_y
 _atom_site_fract_z
 _atom_site_occupancy
  Cs  Cs0  1  0.71492400  0.71492400  0.71492400  1
  Cs  Cs1  1  0.86981700  0.86981700  0.86981700  1
  Cs  Cs2  1  0.28507600  0.28507600  0.28507600  1
  Cs  Cs3  1  0.13018300  0.13018300  0.13018300  1
  Cd  Cd0  1  0.00000000  0.00000000  0.00000000  1
  Ni  Ni0  1  0.41020700  0.41020700  0.41020700  1
  Ni  Ni1  1  0.58979300  0.58979300  0.58979300  1
  Ni  Ni2  1  0.50000000  0.50000000  0.50000000  1
  F  F0  1  0.17455300  0.59713300  0.59713300  1
  F  F1  1  0.59713300  0.59713300  0.17455300  1
  F  F2  1  0.69271000  0.21629500  0.21629500  1
  F  F3  1  0.30729000  0.78370500  0.78370500  1
  F  F4  1  0.21629500  0.21629500  0.69271000  1
  F  F5  1  0.82544700  0.40286700  0.40286700  1
  F  F6  1  0.78370500  0.78370500  0.30729000  1
  F  F7  1  0.40286700  0.40286700  0.82544700  1
  F  F8  1  0.40286700  0.82544700  0.40286700  1
  F  F9  1  0.21629500  0.69271000  0.21629500  1
  F  F10  1  0.78370500  0.30729000  0.78370500  1
  F  F11  1  0.59713300  0.17455300  0.59713300  1
loop_
_geom_bond_atom_site_label_1
_geom_bond_atom_site_label_2
_geom_bond_distance
_geom_bond_site_symmetry_2
Cs0 F11 3.095734 1_565
Cs0 F0 3.095734 1_655
Cs0 F1 3.095734 1_556
Cs0 F2 3.157761 1_556
Cs0 F9 3.157761 1_556
Cs0 F9 3.157761 1_655
Cs0 F2 3.157761 1_565
Cs0 F4 3.157761 1_655
Cs0 F4 3.157761 1_565
Cs0 F3 3.243127 1_555
Cs0 F10 3.243127 1_555
Cs0 F6 3.243127 1_555
Cs1 F8 3.170646 1_655
Cs1 F5 3.170646 1_565
Cs1 F8 3.170646 1_556
Cs1 F5 3.170646 1_556
Cs1 F7 3.170646 1_565
Cs1 F7 3.170646 1_655
Cs1 F1 3.221416 1_556
Cs1 F0 3.221417 1_655
Cs1 F11 3.221417 1_565
Cs1 F3 3.297894 1_655
Cs1 F10 3.297894 1_565
Cs1 F6 3.297894 1_556
Cs2 F8 3.095734 1_545
Cs2 F5 3.095734 1_455
Cs2 F7 3.095734 1_554
Cs2 F10 3.157761 1_554
Cs2 F3 3.157761 1_554
Cs2 F3 3.157761 1_545
Cs2 F10 3.157761 1_455
Cs2 F6 3.157761 1_545
Cs2 F6 3.157761 1_455
Cs2 F9 3.243127 1_555
Cs2 F2 3.243127 1_555
Cs2 F4 3.243127 1_555
Cs3 F0 3.170646 1_545
Cs3 F11 3.170646 1_455
Cs3 F11 3.170646 1_554
Cs3 F0 3.170646 1_554
Cs3 F1 3.170646 1_545
Cs3 F1 3.170646 1_455
Cs3 F7 3.221416 1_554
Cs3 F8 3.221417 1_545
Cs3 F5 3.221417 1_455
Cs3 F2 3.297894 1_455
Cs3 F9 3.297894 1_545
Cs3 F4 3.297894 1_554
Cd0 F4 2.290253 1_554
Cd0 F6 2.290253 1_445
Cd0 F9 2.290254 1_545
Cd0 F2 2.290254 1_455
Cd0 F10 2.290254 1_454
Cd0 F3 2.290254 1_544
F0 Ni2 2.033710 1_555
F0 Ni0 2.081036 1_555
F1 Ni2 2.033710 1_555
F1 Ni0 2.081036 1_555
F2 Ni0 2.036262 1_555
F3 Ni1 2.036262 1_555
F4 Ni0 2.036262 1_555
F5 Ni2 2.033710 1_555
F5 Ni1 2.081036 1_555
F6 Ni1 2.036262 1_555
F7 Ni2 2.033710 1_555
F7 Ni1 2.081036 1_555
F8 Ni2 2.033710 1_555
F8 Ni1 2.081036 1_555
F9 Ni0 2.036262 1_555
F10 Ni1 2.036262 1_555
F11 Ni2 2.033710 1_555
F11 Ni0 2.081036 1_555
