# generated using pymatgen
data_BaBi4(BrO3)2
_symmetry_space_group_name_H-M   'P 1'
_cell_length_a   17.10973905
_cell_length_b   17.10973905
_cell_length_c   17.10973905
_cell_angle_alpha   166.48078694
_cell_angle_beta   166.48078694
_cell_angle_gamma   19.16393863
_symmetry_Int_Tables_number   1
_chemical_formula_structural   BaBi4(BrO3)2
_chemical_formula_sum   'Ba1 Bi4 Br2 O6'
_cell_volume   273.69704733
_cell_formula_units_Z   1
loop_
 _symmetry_equiv_pos_site_id
 _symmetry_equiv_pos_as_xyz
  1  'x, y, z'
loop_
 _atom_site_type_symbol
 _atom_site_label
 _atom_site_symmetry_multiplicity
 _atom_site_fract_x
 _atom_site_fract_y
 _atom_site_fract_z
 _atom_site_occupancy
  Ba  Ba0  1  0.50000000  0.50000000  0.00000000  1
  Bi  Bi0  1  0.08369300  0.08369300  0.00000000  1
  Bi  Bi1  1  0.91630700  0.91630700  0.00000000  1
  Bi  Bi2  1  0.78625000  0.78625000  0.00000000  1
  Bi  Bi3  1  0.21375000  0.21375000  0.00000000  1
  Br  Br0  1  0.33314100  0.33314100  0.00000000  1
  Br  Br1  1  0.66685900  0.66685900  0.00000000  1
  O  O0  1  0.44432400  0.94432400  0.50000000  1
  O  O1  1  0.55567600  0.05567600  0.50000000  1
  O  O2  1  0.05567600  0.55567600  0.50000000  1
  O  O3  1  0.94432400  0.44432400  0.50000000  1
  O  O4  1  0.75000000  0.25000000  0.50000000  1
  O  O5  1  0.25000000  0.75000000  0.50000000  1
loop_
_geom_bond_atom_site_label_1
_geom_bond_atom_site_label_2
_geom_bond_distance
_geom_bond_site_symmetry_2
Ba0 O2 2.754079 1_655
Ba0 O1 2.754079 1_565
Ba0 O1 2.754079 1_554
Ba0 O2 2.754079 1_554
Ba0 O0 2.754079 1_555
Ba0 O3 2.754079 1_555
Ba0 O3 2.754079 1_454
Ba0 O0 2.754079 1_544
Bi0 O1 2.224728 1_454
Bi0 O2 2.224728 1_544
Bi0 O1 2.224728 1_555
Bi0 O2 2.224728 1_555
Bi1 O3 2.224728 1_554
Bi1 O0 2.224728 1_554
Bi1 O0 2.224728 1_655
Bi1 O3 2.224728 1_565
Bi2 O4 2.356230 1_554
Bi2 O5 2.356230 1_554
Bi2 O5 2.356230 1_655
Bi2 O4 2.356230 1_565
Bi2 Br0 3.258037 1_666
Bi2 Br0 3.258037 1_655
Bi2 Br0 3.258037 1_565
Bi2 Br0 3.258037 1_554
Bi3 O4 2.356230 1_555
Bi3 O4 2.356230 1_454
Bi3 O5 2.356230 1_555
Bi3 O5 2.356230 1_544
Bi3 Br1 3.258037 1_545
Bi3 Br1 3.258037 1_455
Bi3 Br1 3.258037 1_556
Bi3 Br1 3.258037 1_444
