# generated using pymatgen
data_NbP2Se2Cl5
_symmetry_space_group_name_H-M   'P 1'
_cell_length_a   14.00933100
_cell_length_b   6.87766400
_cell_length_c   27.95096581
_cell_angle_alpha   79.71893292
_cell_angle_beta   90.00000000
_cell_angle_gamma   90.00000000
_symmetry_Int_Tables_number   1
_chemical_formula_structural   NbP2Se2Cl5
_chemical_formula_sum   'Nb8 P16 Se16 Cl40'
_cell_volume   2649.87618644
_cell_formula_units_Z   8
loop_
 _symmetry_equiv_pos_site_id
 _symmetry_equiv_pos_as_xyz
  1  'x, y, z'
loop_
 _atom_site_type_symbol
 _atom_site_label
 _atom_site_symmetry_multiplicity
 _atom_site_fract_x
 _atom_site_fract_y
 _atom_site_fract_z
 _atom_site_occupancy
  Nb  Nb0  1  0.60960300  0.02898100  0.29990800  1
  Nb  Nb1  1  0.70877300  0.25495400  0.52784000  1
  Nb  Nb2  1  0.10960300  0.97101900  0.20009200  1
  Nb  Nb3  1  0.39039700  0.97101900  0.70009200  1
  Nb  Nb4  1  0.29122700  0.74504600  0.47216000  1
  Nb  Nb5  1  0.89039700  0.02898100  0.79990800  1
  Nb  Nb6  1  0.20877300  0.74504600  0.97216000  1
  Nb  Nb7  1  0.79122700  0.25495400  0.02784000  1
  P  P0  1  0.83890800  0.33301000  0.59935600  1
  P  P1  1  0.91010000  0.24714300  0.70540200  1
  P  P2  1  0.92264800  0.52921300  0.38206000  1
  P  P3  1  0.33890800  0.66699000  0.90064400  1
  P  P4  1  0.42264800  0.47078700  0.11794000  1
  P  P5  1  0.08990000  0.75285700  0.29459800  1
  P  P6  1  0.42219400  0.91943800  0.85706800  1
  P  P7  1  0.16109200  0.66699000  0.40064400  1
  P  P8  1  0.07780600  0.91943800  0.35706800  1
  P  P9  1  0.66109200  0.33301000  0.09935600  1
  P  P10  1  0.07735200  0.47078700  0.61794000  1
  P  P11  1  0.41010000  0.75285700  0.79459800  1
  P  P12  1  0.57735200  0.52921300  0.88206000  1
  P  P13  1  0.57780600  0.08056200  0.14293200  1
  P  P14  1  0.92219400  0.08056200  0.64293200  1
  P  P15  1  0.58990000  0.24714300  0.20540200  1
  Se  Se0  1  0.55249000  0.57061700  0.07015500  1
  Se  Se1  1  0.07163000  0.13586700  0.61712700  1
  Se  Se2  1  0.05249000  0.42938300  0.42984500  1
  Se  Se3  1  0.53203000  0.53217500  0.80318000  1
  Se  Se4  1  0.92837000  0.86413300  0.38287300  1
  Se  Se5  1  0.44751000  0.42938300  0.92984500  1
  Se  Se6  1  0.57163000  0.86413300  0.88287300  1
  Se  Se7  1  0.72784800  0.38660400  0.17076900  1
  Se  Se8  1  0.27215200  0.61339600  0.82923100  1
  Se  Se9  1  0.42837000  0.13586700  0.11712700  1
  Se  Se10  1  0.46797000  0.46782500  0.19682000  1
  Se  Se11  1  0.77215200  0.38660400  0.67076900  1
  Se  Se12  1  0.94751000  0.57061700  0.57015500  1
  Se  Se13  1  0.22784800  0.61339600  0.32923100  1
  Se  Se14  1  0.03203000  0.46782500  0.69682000  1
  Se  Se15  1  0.96797000  0.53217500  0.30318000  1
  Cl  Cl0  1  0.39554400  0.58513600  0.42620100  1
  Cl  Cl1  1  0.39302700  0.81546100  0.53077800  1
  Cl  Cl2  1  0.01597500  0.71872900  0.17765400  1
  Cl  Cl3  1  0.69030100  0.96429500  0.58526600  1
  Cl  Cl4  1  0.03019400  0.89180500  0.77385700  1
  Cl  Cl5  1  0.14725000  0.87629700  0.49732300  1
  Cl  Cl6  1  0.63151200  0.83382000  0.37467200  1
  Cl  Cl7  1  0.51597500  0.28127100  0.32234600  1
  Cl  Cl8  1  0.48402500  0.71872900  0.67765400  1
  Cl  Cl9  1  0.60697300  0.18453900  0.46922200  1
  Cl  Cl10  1  0.53019400  0.10819500  0.72614300  1
  Cl  Cl11  1  0.20024200  0.16260100  0.24533800  1
  Cl  Cl12  1  0.29975800  0.16260100  0.74533800  1
  Cl  Cl13  1  0.64725000  0.12370300  0.00267700  1
  Cl  Cl14  1  0.25757300  0.75726500  0.70190200  1
  Cl  Cl15  1  0.13151200  0.16618000  0.12532800  1
  Cl  Cl16  1  0.24242700  0.75726500  0.20190200  1
  Cl  Cl17  1  0.35275000  0.87629700  0.99732300  1
  Cl  Cl18  1  0.74242700  0.24273500  0.29809800  1
  Cl  Cl19  1  0.76028400  0.56945500  0.48809200  1
  Cl  Cl20  1  0.36848800  0.16618000  0.62532800  1
  Cl  Cl21  1  0.86848800  0.83382000  0.87467200  1
  Cl  Cl22  1  0.75757300  0.24273500  0.79809800  1
  Cl  Cl23  1  0.85275000  0.12370300  0.50267700  1
  Cl  Cl24  1  0.73971600  0.56945500  0.98809200  1
  Cl  Cl25  1  0.70024200  0.83739900  0.25466200  1
  Cl  Cl26  1  0.89554400  0.41486400  0.07379900  1
  Cl  Cl27  1  0.19030100  0.03570500  0.91473400  1
  Cl  Cl28  1  0.96980600  0.10819500  0.22614300  1
  Cl  Cl29  1  0.98402500  0.28127100  0.82234600  1
  Cl  Cl30  1  0.26028400  0.43054500  0.01190800  1
  Cl  Cl31  1  0.80969900  0.96429500  0.08526600  1
  Cl  Cl32  1  0.10697300  0.81546100  0.03077800  1
  Cl  Cl33  1  0.46980600  0.89180500  0.27385700  1
  Cl  Cl34  1  0.23971600  0.43054500  0.51190800  1
  Cl  Cl35  1  0.30969900  0.03570500  0.41473400  1
  Cl  Cl36  1  0.89302700  0.18453900  0.96922200  1
  Cl  Cl37  1  0.79975800  0.83739900  0.75466200  1
  Cl  Cl38  1  0.10445600  0.58513600  0.92620100  1
  Cl  Cl39  1  0.60445600  0.41486400  0.57379900  1
loop_
_geom_bond_atom_site_label_1
_geom_bond_atom_site_label_2
_geom_bond_distance
_geom_bond_site_symmetry_2
Nb0 P15 2.808994 1_555
Nb1 P0 2.826788 1_555
Nb2 P5 2.808994 1_555
Nb3 P11 2.808994 1_555
Nb4 P7 2.826788 1_555
Nb5 P1 2.808994 1_555
Nb6 P3 2.826788 1_555
Nb7 P9 2.826788 1_555
P0 P14 2.259334 1_555
P0 Se12 2.274950 1_555
P0 Se11 2.292896 1_555
P1 P14 2.259257 1_555
P1 Se14 2.269147 1_655
P1 Se11 2.293562 1_555
P2 Se2 2.288396 1_655
P2 Se15 2.290969 1_555
P2 Se4 2.309023 1_555
P3 P6 2.259334 1_555
P3 Se5 2.274950 1_555
P3 Se8 2.292896 1_555
P4 Se0 2.288396 1_555
P4 Se10 2.290969 1_555
P4 Se9 2.309023 1_555
P5 P8 2.259257 1_555
P5 Se15 2.269147 1_455
P5 Se13 2.293562 1_555
P6 Se6 2.224797 1_555
P7 P8 2.259334 1_555
P7 Se2 2.274950 1_555
P7 Se13 2.292896 1_555
P8 Se4 2.224797 1_455
P9 Se0 2.274950 1_555
P9 Se7 2.292896 1_555
P10 Se12 2.288396 1_455
P10 Se14 2.290969 1_555
P10 Se1 2.309023 1_555
P11 P6 2.259257 1_555
P11 Se3 2.269147 1_555
P11 Se8 2.293562 1_555
P12 Se5 2.288396 1_555
P12 Se3 2.290969 1_555
P12 Se6 2.309023 1_555
P13 Se9 2.224797 1_555
P13 P15 2.259257 1_555
P13 P9 2.259334 1_555
P14 Se1 2.224797 1_655
P15 Se10 2.269147 1_555
P15 Se7 2.293562 1_555
Cl0 Nb4 2.345165 1_555
Cl1 Nb4 2.288259 1_555
Cl2 Nb2 2.347989 1_555
Cl3 Nb1 2.343973 1_565
Cl4 Nb5 2.345441 1_465
Cl5 Nb4 2.367392 1_555
Cl6 Nb0 2.293810 1_565
Cl7 Nb0 2.347989 1_555
Cl8 Nb3 2.347989 1_555
Cl9 Nb1 2.288259 1_555
Cl10 Nb3 2.345441 1_545
Cl11 Nb2 2.354304 1_545
Cl12 Nb3 2.354304 1_545
Cl13 Nb7 2.367392 1_555
Cl14 Nb3 2.366384 1_555
Cl15 Nb2 2.293810 1_545
Cl16 Nb2 2.366384 1_555
Cl17 Nb6 2.367392 1_555
Cl18 Nb0 2.366384 1_555
Cl19 Nb1 2.361350 1_555
Cl20 Nb3 2.293810 1_545
Cl21 Nb5 2.293810 1_565
Cl22 Nb5 2.366384 1_555
Cl23 Nb1 2.367392 1_555
Cl24 Nb7 2.361350 1_556
Cl25 Nb0 2.354304 1_565
Cl26 Nb7 2.345165 1_555
Cl27 Nb6 2.343973 1_545
Cl28 Nb2 2.345441 1_645
Cl29 Nb5 2.347989 1_555
Cl30 Nb6 2.361350 1_554
Cl31 Nb7 2.343973 1_565
Cl32 Nb6 2.288259 1_554
Cl33 Nb0 2.345441 1_565
Cl34 Nb4 2.361350 1_555
Cl35 Nb4 2.343973 1_545
Cl36 Nb7 2.288259 1_556
Cl37 Nb5 2.354304 1_565
Cl38 Nb6 2.345165 1_555
Cl39 Nb1 2.345165 1_555
