# generated using pymatgen
data_KC2N3
_symmetry_space_group_name_H-M   'P 1'
_cell_length_a   11.90809308
_cell_length_b   3.72338592
_cell_length_c   24.54987804
_cell_angle_alpha   85.25382101
_cell_angle_beta   90.00000000
_cell_angle_gamma   90.00000000
_symmetry_Int_Tables_number   1
_chemical_formula_structural   KC2N3
_chemical_formula_sum   'K12 C24 N36'
_cell_volume   1084.77050056
_cell_formula_units_Z   12
loop_
 _symmetry_equiv_pos_site_id
 _symmetry_equiv_pos_as_xyz
  1  'x, y, z'
loop_
 _atom_site_type_symbol
 _atom_site_label
 _atom_site_symmetry_multiplicity
 _atom_site_fract_x
 _atom_site_fract_y
 _atom_site_fract_z
 _atom_site_occupancy
  K  K0  1  0.65006262  0.57595841  0.48544830  1
  K  K1  1  0.99553529  0.89362308  0.75543605  1
  K  K2  1  0.40993963  0.63264364  0.90037427  1
  K  K3  1  0.59006037  0.36735636  0.09962573  1
  K  K4  1  0.50446471  0.89362308  0.25543605  1
  K  K5  1  0.09006037  0.63264364  0.40037427  1
  K  K6  1  0.84993738  0.57595841  0.98544830  1
  K  K7  1  0.15006262  0.42404159  0.01455170  1
  K  K8  1  0.34993738  0.42404159  0.51455170  1
  K  K9  1  0.49553529  0.10637692  0.74456395  1
  K  K10  1  0.90993963  0.36735636  0.59962573  1
  K  K11  1  0.00446471  0.10637692  0.24456395  1
  C  C0  1  0.49012413  0.07136984  0.40259741  1
  C  C1  1  0.24746227  0.28016290  0.29218282  1
  C  C2  1  0.32438730  0.76542029  0.12027786  1
  C  C3  1  0.50987587  0.92863016  0.59740259  1
  C  C4  1  0.14209163  0.73273660  0.14916329  1
  C  C5  1  0.62770556  0.03285673  0.96720796  1
  C  C6  1  0.37229444  0.96714327  0.03279204  1
  C  C7  1  0.21635342  0.53583394  0.70659939  1
  C  C8  1  0.99012413  0.92863016  0.09740259  1
  C  C9  1  0.78364658  0.46416606  0.29340061  1
  C  C10  1  0.28364658  0.53583394  0.20659939  1
  C  C11  1  0.17561270  0.76542029  0.62027786  1
  C  C12  1  0.87229444  0.03285673  0.46720796  1
  C  C13  1  0.67561270  0.23457971  0.87972214  1
  C  C14  1  0.75253773  0.71983710  0.70781718  1
  C  C15  1  0.85790837  0.26726340  0.85083671  1
  C  C16  1  0.74746227  0.71983710  0.20781718  1
  C  C17  1  0.64209163  0.26726340  0.35083671  1
  C  C18  1  0.82438730  0.23457971  0.37972214  1
  C  C19  1  0.00987587  0.07136984  0.90259741  1
  C  C20  1  0.25253773  0.28016290  0.79218282  1
  C  C21  1  0.71635342  0.46416606  0.79340061  1
  C  C22  1  0.12770556  0.96714327  0.53279204  1
  C  C23  1  0.35790837  0.73273660  0.64916329  1
  N  N0  1  0.47005283  0.78591973  0.64292172  1
  N  N1  1  0.14882545  0.07392533  0.48725502  1
  N  N2  1  0.64882545  0.92607467  0.01274498  1
  N  N3  1  0.52994717  0.21408027  0.35707828  1
  N  N4  1  0.86360636  0.37528267  0.33113032  1
  N  N5  1  0.35117455  0.07392533  0.98725502  1
  N  N6  1  0.85117455  0.92607467  0.51274498  1
  N  N7  1  0.17260645  0.58866278  0.19907496  1
  N  N8  1  0.81468753  0.82940327  0.67294431  1
  N  N9  1  0.18531247  0.17059673  0.32705569  1
  N  N10  1  0.31468753  0.17059673  0.82705569  1
  N  N11  1  0.32151584  0.38445060  0.25556521  1
  N  N12  1  0.32739355  0.58866278  0.69907496  1
  N  N13  1  0.68531247  0.82940327  0.17294431  1
  N  N14  1  0.78535297  0.17714576  0.89216102  1
  N  N15  1  0.59584162  0.14943376  0.91865275  1
  N  N16  1  0.09584162  0.85056624  0.58134725  1
  N  N17  1  0.90415838  0.14943376  0.41865275  1
  N  N18  1  0.40415838  0.85056624  0.08134725  1
  N  N19  1  0.82739355  0.41133722  0.80092504  1
  N  N20  1  0.67260645  0.41133722  0.30092504  1
  N  N21  1  0.67848416  0.61554940  0.74443479  1
  N  N22  1  0.36360636  0.62471733  0.16886968  1
  N  N23  1  0.28535297  0.82285424  0.60783898  1
  N  N24  1  0.44549470  0.94236984  0.44246757  1
  N  N25  1  0.82151584  0.61554940  0.24443479  1
  N  N26  1  0.71464703  0.17714576  0.39216102  1
  N  N27  1  0.63639364  0.37528267  0.83113032  1
  N  N28  1  0.02994717  0.78591973  0.14292172  1
  N  N29  1  0.05450530  0.94236984  0.94246757  1
  N  N30  1  0.17848416  0.38445060  0.75556521  1
  N  N31  1  0.55450530  0.05763016  0.55753243  1
  N  N32  1  0.21464703  0.82285424  0.10783898  1
  N  N33  1  0.97005283  0.21408027  0.85707828  1
  N  N34  1  0.94549470  0.05763016  0.05753243  1
  N  N35  1  0.13639364  0.62471733  0.66886968  1
loop_
_geom_bond_atom_site_label_1
_geom_bond_atom_site_label_2
_geom_bond_distance
_geom_bond_site_symmetry_2
K0 N31 2.754267 1_555
K0 N6 2.833445 1_555
K0 N31 2.858004 1_565
K0 N26 2.933301 1_555
K0 N24 2.944591 1_555
K0 N26 3.162084 1_565
K1 N30 2.843774 1_665
K1 N19 2.854634 1_555
K1 N33 2.869673 1_565
K1 N30 2.887806 1_655
K1 N35 2.946959 1_655
K1 N8 2.979325 1_555
K1 N19 3.054209 1_565
K2 N10 2.818128 1_565
K2 N10 2.828176 1_555
K2 N15 2.864513 1_555
K2 N5 2.884198 1_565
K2 N5 2.938108 1_555
K2 N15 2.991232 1_565
K3 N13 2.818128 1_545
K3 N13 2.828176 1_555
K3 N18 2.864513 1_555
K3 N2 2.884198 1_545
K3 N2 2.938108 1_555
K3 N18 2.991232 1_545
K4 N11 2.843774 1_565
K4 N20 2.854634 1_555
K4 N3 2.869673 1_565
K4 N11 2.887806 1_555
K4 N22 2.946959 1_555
K4 N13 2.979325 1_555
K4 N20 3.054209 1_565
K5 N9 2.818128 1_565
K5 N9 2.828176 1_555
K5 N17 2.864513 1_455
K5 N1 2.884198 1_565
K5 N1 2.938108 1_555
K5 N17 2.991232 1_465
K6 N34 2.754267 1_556
K6 N2 2.833445 1_556
K6 N34 2.858004 1_566
K6 N14 2.933301 1_555
K6 N29 2.944591 1_655
K6 N14 3.162084 1_565
K7 N29 2.754267 1_554
K7 N5 2.833445 1_554
K7 N29 2.858004 1_544
K7 N32 2.933301 1_555
K7 N34 2.944591 1_455
K7 N32 3.162084 1_545
K8 N24 2.754267 1_555
K8 N1 2.833445 1_555
K8 N24 2.858004 1_545
K8 N23 2.933301 1_555
K8 N31 2.944591 1_555
K8 N23 3.162084 1_545
K9 N21 2.843774 1_545
K9 N12 2.854634 1_555
K9 N0 2.869673 1_545
K9 N21 2.887806 1_555
K9 N27 2.946959 1_555
K9 N10 2.979325 1_555
K9 N12 3.054209 1_545
K10 N8 2.818128 1_545
K10 N8 2.828176 1_555
K10 N16 2.864513 1_655
K10 N6 2.884198 1_545
K10 N6 2.938108 1_555
K10 N16 2.991232 1_645
K11 N25 2.843774 1_445
K11 N7 2.854634 1_555
K11 N28 2.869673 1_545
K11 N25 2.887806 1_455
K11 N4 2.946959 1_455
K11 N9 2.979325 1_555
K11 N7 3.054209 1_545
C0 N24 1.180427 1_545
C0 N3 1.287536 1_555
C1 N9 1.178689 1_555
C1 N11 1.295676 1_555
C2 N22 1.346187 1_555
C2 N32 1.354953 1_555
C2 N18 1.366075 1_555
C3 N31 1.180427 1_565
C3 N0 1.287536 1_555
C4 N7 1.346276 1_555
C4 N32 1.353503 1_555
C4 N28 1.356847 1_555
C5 N2 1.182176 1_546
C5 N15 1.291388 1_555
C6 N5 1.182176 1_564
C6 N18 1.291388 1_555
C7 N12 1.347300 1_555
C7 N35 1.350326 1_555
C7 N30 1.361615 1_555
C8 N34 1.180427 1_565
C8 N28 1.287536 1_655
C9 N20 1.347300 1_555
C9 N4 1.350326 1_555
C9 N25 1.361615 1_555
C10 N7 1.347300 1_555
C10 N22 1.350326 1_555
C10 N11 1.361615 1_555
C11 N35 1.346187 1_555
C11 N23 1.354953 1_555
C11 N16 1.366075 1_555
C12 N6 1.182176 1_545
C12 N17 1.291388 1_555
C13 N27 1.346187 1_555
C13 N14 1.354953 1_555
C13 N15 1.366075 1_555
C14 N8 1.178689 1_555
C14 N21 1.295676 1_555
C15 N19 1.346276 1_555
C15 N14 1.353503 1_555
C15 N33 1.356847 1_555
C16 N13 1.178689 1_555
C16 N25 1.295676 1_555
C17 N20 1.346276 1_555
C17 N26 1.353503 1_555
C17 N3 1.356847 1_555
C18 N4 1.346187 1_555
C18 N26 1.354953 1_555
C18 N17 1.366075 1_555
C19 N29 1.180427 1_545
C19 N33 1.287536 1_455
C20 N10 1.178689 1_555
C20 N30 1.295676 1_555
C21 N19 1.347300 1_555
C21 N27 1.350326 1_555
C21 N21 1.361615 1_555
C22 N1 1.182176 1_565
C22 N16 1.291388 1_555
C23 N12 1.346276 1_555
C23 N23 1.353503 1_555
C23 N0 1.356847 1_555
