# generated using pymatgen
data_BeCl2
_symmetry_space_group_name_H-M   'P 1'
_cell_length_a   17.13752903
_cell_length_b   17.13752903
_cell_length_c   17.13752903
_cell_angle_alpha   109.47122063
_cell_angle_beta   109.47122063
_cell_angle_gamma   109.47122063
_symmetry_Int_Tables_number   1
_chemical_formula_structural   BeCl2
_chemical_formula_sum   'Be24 Cl48'
_cell_volume   3874.56293712
_cell_formula_units_Z   24
loop_
 _symmetry_equiv_pos_site_id
 _symmetry_equiv_pos_as_xyz
  1  'x, y, z'
loop_
 _atom_site_type_symbol
 _atom_site_label
 _atom_site_symmetry_multiplicity
 _atom_site_fract_x
 _atom_site_fract_y
 _atom_site_fract_z
 _atom_site_occupancy
  Be  Be0  1  0.64397000  0.12402800  0.38480700  1
  Be  Be1  1  0.35603000  0.48005800  0.74083600  1
  Be  Be2  1  0.12402800  0.64397000  0.38480700  1
  Be  Be3  1  0.48005800  0.74083600  0.35603000  1
  Be  Be4  1  0.73922100  0.25916400  0.61519300  1
  Be  Be5  1  0.64397000  0.38480700  0.12402800  1
  Be  Be6  1  0.26077900  0.51994200  0.87597200  1
  Be  Be7  1  0.12402800  0.38480700  0.64397000  1
  Be  Be8  1  0.51994200  0.87597200  0.26077900  1
  Be  Be9  1  0.51994200  0.26077900  0.87597200  1
  Be  Be10  1  0.25916400  0.73922100  0.61519300  1
  Be  Be11  1  0.74083600  0.35603000  0.48005800  1
  Be  Be12  1  0.25916400  0.61519300  0.73922100  1
  Be  Be13  1  0.38480700  0.64397000  0.12402800  1
  Be  Be14  1  0.26077900  0.87597200  0.51994200  1
  Be  Be15  1  0.87597200  0.51994200  0.26077900  1
  Be  Be16  1  0.35603000  0.74083600  0.48005800  1
  Be  Be17  1  0.73922100  0.61519300  0.25916400  1
  Be  Be18  1  0.38480700  0.12402800  0.64397000  1
  Be  Be19  1  0.87597200  0.26077900  0.51994200  1
  Be  Be20  1  0.61519300  0.73922100  0.25916400  1
  Be  Be21  1  0.48005800  0.35603000  0.74083600  1
  Be  Be22  1  0.61519300  0.25916400  0.73922100  1
  Be  Be23  1  0.74083600  0.48005800  0.35603000  1
  Cl  Cl0  1  0.13045400  0.50000000  0.63045400  1
  Cl  Cl1  1  0.13201700  0.40176000  0.77024000  1
  Cl  Cl2  1  0.22976000  0.36177700  0.63152000  1
  Cl  Cl3  1  0.36848000  0.73025700  0.59824000  1
  Cl  Cl4  1  0.86954600  0.36954600  0.50000000  1
  Cl  Cl5  1  0.00000000  0.26390100  0.53293600  1
  Cl  Cl6  1  0.73096400  0.46706400  0.46706400  1
  Cl  Cl7  1  0.53293600  0.00000000  0.26390100  1
  Cl  Cl8  1  0.22976000  0.63152000  0.36177700  1
  Cl  Cl9  1  0.63152000  0.22976000  0.36177700  1
  Cl  Cl10  1  0.26390100  0.53293600  0.00000000  1
  Cl  Cl11  1  0.13201700  0.77024000  0.40176000  1
  Cl  Cl12  1  0.46706400  0.73096400  0.46706400  1
  Cl  Cl13  1  0.36177700  0.63152000  0.22976000  1
  Cl  Cl14  1  0.26974300  0.86798300  0.63822300  1
  Cl  Cl15  1  0.26903600  0.73609900  0.73609900  1
  Cl  Cl16  1  0.40176000  0.13201700  0.77024000  1
  Cl  Cl17  1  0.50000000  0.63045400  0.13045400  1
  Cl  Cl18  1  0.53293600  0.26390100  0.00000000  1
  Cl  Cl19  1  0.26974300  0.63822300  0.86798300  1
  Cl  Cl20  1  0.77024000  0.13201700  0.40176000  1
  Cl  Cl21  1  0.86954600  0.50000000  0.36954600  1
  Cl  Cl22  1  0.63045400  0.13045400  0.50000000  1
  Cl  Cl23  1  0.63152000  0.36177700  0.22976000  1
  Cl  Cl24  1  0.26390100  0.00000000  0.53293600  1
  Cl  Cl25  1  0.59824000  0.36848000  0.73025700  1
  Cl  Cl26  1  0.50000000  0.36954600  0.86954600  1
  Cl  Cl27  1  0.36848000  0.59824000  0.73025700  1
  Cl  Cl28  1  0.50000000  0.86954600  0.36954600  1
  Cl  Cl29  1  0.36177700  0.22976000  0.63152000  1
  Cl  Cl30  1  0.73025700  0.36848000  0.59824000  1
  Cl  Cl31  1  0.36954600  0.50000000  0.86954600  1
  Cl  Cl32  1  0.86798300  0.63822300  0.26974300  1
  Cl  Cl33  1  0.63045400  0.50000000  0.13045400  1
  Cl  Cl34  1  0.00000000  0.53293600  0.26390100  1
  Cl  Cl35  1  0.73609900  0.26903600  0.73609900  1
  Cl  Cl36  1  0.77024000  0.40176000  0.13201700  1
  Cl  Cl37  1  0.63822300  0.86798300  0.26974300  1
  Cl  Cl38  1  0.50000000  0.13045400  0.63045400  1
  Cl  Cl39  1  0.40176000  0.77024000  0.13201700  1
  Cl  Cl40  1  0.86798300  0.26974300  0.63822300  1
  Cl  Cl41  1  0.13045400  0.63045400  0.50000000  1
  Cl  Cl42  1  0.46706400  0.46706400  0.73096400  1
  Cl  Cl43  1  0.59824000  0.73025700  0.36848000  1
  Cl  Cl44  1  0.73609900  0.73609900  0.26903600  1
  Cl  Cl45  1  0.63822300  0.26974300  0.86798300  1
  Cl  Cl46  1  0.73025700  0.59824000  0.36848000  1
  Cl  Cl47  1  0.36954600  0.86954600  0.50000000  1
loop_
_geom_bond_atom_site_label_1
_geom_bond_atom_site_label_2
_geom_bond_distance
_geom_bond_site_symmetry_2
Be0 Cl22 2.034665 1_555
Be0 Cl20 2.035361 1_555
Be0 Cl9 2.040331 1_555
Be0 Cl7 2.042311 1_555
Be1 Cl31 2.034682 1_555
Be1 Cl2 2.035357 1_555
Be1 Cl27 2.040323 1_555
Be1 Cl42 2.042311 1_555
Be2 Cl41 2.034665 1_555
Be2 Cl11 2.035361 1_555
Be2 Cl8 2.040331 1_555
Be2 Cl34 2.042311 1_555
Be3 Cl28 2.034682 1_555
Be3 Cl13 2.035357 1_555
Be3 Cl43 2.040323 1_555
Be3 Cl12 2.042311 1_555
Be4 Cl22 2.034672 1_555
Be4 Cl30 2.035344 1_555
Be4 Cl40 2.040337 1_555
Be4 Cl35 2.042311 1_555
Be5 Cl33 2.034665 1_555
Be5 Cl36 2.035361 1_555
Be5 Cl23 2.040331 1_555
Be5 Cl18 2.042311 1_555
Be6 Cl31 2.034665 1_555
Be6 Cl19 2.035361 1_555
Be6 Cl1 2.040331 1_555
Be6 Cl10 2.042311 1_556
Be7 Cl0 2.034665 1_555
Be7 Cl1 2.035361 1_555
Be7 Cl2 2.040331 1_555
Be7 Cl5 2.042311 1_555
Be8 Cl28 2.034665 1_555
Be8 Cl37 2.035361 1_555
Be8 Cl39 2.040331 1_555
Be8 Cl7 2.042311 1_565
Be9 Cl26 2.034665 1_555
Be9 Cl45 2.035361 1_555
Be9 Cl16 2.040331 1_555
Be9 Cl18 2.042311 1_556
Be10 Cl41 2.034672 1_555
Be10 Cl3 2.035344 1_555
Be10 Cl14 2.040337 1_555
Be10 Cl15 2.042311 1_555
Be11 Cl4 2.034682 1_555
Be11 Cl9 2.035357 1_555
Be11 Cl30 2.040323 1_555
Be11 Cl6 2.042311 1_555
Be12 Cl0 2.034672 1_555
Be12 Cl27 2.035344 1_555
Be12 Cl19 2.040337 1_555
Be12 Cl15 2.042311 1_555
Be13 Cl17 2.034665 1_555
Be13 Cl39 2.035361 1_555
Be13 Cl13 2.040331 1_555
Be13 Cl10 2.042311 1_555
Be14 Cl47 2.034665 1_555
Be14 Cl14 2.035361 1_555
Be14 Cl11 2.040331 1_555
Be14 Cl24 2.042311 1_565
Be15 Cl21 2.034665 1_555
Be15 Cl32 2.035361 1_555
Be15 Cl36 2.040331 1_555
Be15 Cl34 2.042311 1_655
Be16 Cl47 2.034682 1_555
Be16 Cl8 2.035357 1_555
Be16 Cl3 2.040323 1_555
Be16 Cl12 2.042311 1_555
Be17 Cl33 2.034672 1_555
Be17 Cl46 2.035344 1_555
Be17 Cl32 2.040337 1_555
Be17 Cl44 2.042311 1_555
Be18 Cl38 2.034665 1_555
Be18 Cl16 2.035361 1_555
Be18 Cl29 2.040331 1_555
Be18 Cl24 2.042311 1_555
Be19 Cl4 2.034665 1_555
Be19 Cl40 2.035361 1_555
Be19 Cl20 2.040331 1_555
Be19 Cl5 2.042311 1_655
Be20 Cl17 2.034672 1_555
Be20 Cl43 2.035344 1_555
Be20 Cl37 2.040337 1_555
Be20 Cl44 2.042311 1_555
Be21 Cl26 2.034682 1_555
Be21 Cl29 2.035357 1_555
Be21 Cl25 2.040323 1_555
Be21 Cl42 2.042311 1_555
Be22 Cl38 2.034672 1_555
Be22 Cl25 2.035344 1_555
Be22 Cl45 2.040337 1_555
Be22 Cl35 2.042311 1_555
Be23 Cl21 2.034682 1_555
Be23 Cl23 2.035357 1_555
Be23 Cl46 2.040323 1_555
Be23 Cl6 2.042311 1_555
