# generated using pymatgen
data_Rb2TbGa(SiO3)4
_symmetry_space_group_name_H-M   'P 1'
_cell_length_a   14.11601602
_cell_length_b   14.11601602
_cell_length_c   15.05803171
_cell_angle_alpha   58.08300867
_cell_angle_beta   58.08300867
_cell_angle_gamma   30.28579857
_symmetry_Int_Tables_number   1
_chemical_formula_structural   Rb2TbGa(SiO3)4
_chemical_formula_sum   'Rb8 Tb4 Ga4 Si16 O48'
_cell_volume   1266.03920450
_cell_formula_units_Z   4
loop_
 _symmetry_equiv_pos_site_id
 _symmetry_equiv_pos_as_xyz
  1  'x, y, z'
loop_
 _atom_site_type_symbol
 _atom_site_label
 _atom_site_symmetry_multiplicity
 _atom_site_fract_x
 _atom_site_fract_y
 _atom_site_fract_z
 _atom_site_occupancy
  Rb  Rb0  1  0.22844300  0.70235800  0.95216800  1
  Rb  Rb1  1  0.69556900  0.68766100  0.53377300  1
  Rb  Rb2  1  0.70235800  0.22844300  0.45216800  1
  Rb  Rb3  1  0.29764200  0.77155700  0.54783200  1
  Rb  Rb4  1  0.68766100  0.69556900  0.03377300  1
  Rb  Rb5  1  0.30443100  0.31233900  0.46622700  1
  Rb  Rb6  1  0.31233900  0.30443100  0.96622700  1
  Rb  Rb7  1  0.77155700  0.29764200  0.04783200  1
  Tb  Tb0  1  0.48607200  0.05138000  0.74994700  1
  Tb  Tb1  1  0.51392800  0.94862000  0.25005300  1
  Tb  Tb2  1  0.05138000  0.48607200  0.24994700  1
  Tb  Tb3  1  0.94862000  0.51392800  0.75005300  1
  Ga  Ga0  1  0.77002300  0.36962700  0.77408000  1
  Ga  Ga1  1  0.22997700  0.63037300  0.22592000  1
  Ga  Ga2  1  0.63037300  0.22997700  0.72592000  1
  Ga  Ga3  1  0.36962700  0.77002300  0.27408000  1
  Si  Si0  1  0.85940800  0.80396000  0.01008200  1
  Si  Si1  1  0.14059200  0.19604000  0.98991800  1
  Si  Si2  1  0.24008100  0.52037700  0.66115800  1
  Si  Si3  1  0.47962300  0.75991900  0.83884200  1
  Si  Si4  1  0.75991900  0.47962300  0.33884200  1
  Si  Si5  1  0.16624300  0.70900300  0.42273300  1
  Si  Si6  1  0.86052800  0.81382100  0.79606800  1
  Si  Si7  1  0.81382100  0.86052800  0.29606800  1
  Si  Si8  1  0.29099700  0.83375700  0.07726700  1
  Si  Si9  1  0.83375700  0.29099700  0.57726700  1
  Si  Si10  1  0.80396000  0.85940800  0.51008200  1
  Si  Si11  1  0.52037700  0.24008100  0.16115800  1
  Si  Si12  1  0.70900300  0.16624300  0.92273300  1
  Si  Si13  1  0.18617900  0.13947200  0.70393200  1
  Si  Si14  1  0.13947200  0.18617900  0.20393200  1
  Si  Si15  1  0.19604000  0.14059200  0.48991800  1
  O  O0  1  0.86441500  0.93976400  0.94400500  1
  O  O1  1  0.29335700  0.57064900  0.34225600  1
  O  O2  1  0.04389400  0.72937400  0.70217200  1
  O  O3  1  0.17852700  0.83232700  0.37898100  1
  O  O4  1  0.26956300  0.08397800  0.58821300  1
  O  O5  1  0.95192900  0.33028900  0.72948500  1
  O  O6  1  0.37999900  0.96776600  0.42277900  1
  O  O7  1  0.34978100  0.07559700  0.92378300  1
  O  O8  1  0.95610600  0.27062600  0.29782800  1
  O  O9  1  0.16767300  0.82147300  0.12101900  1
  O  O10  1  0.07559700  0.34978100  0.42378300  1
  O  O11  1  0.70664300  0.42935100  0.65774400  1
  O  O12  1  0.06023600  0.13558500  0.55599500  1
  O  O13  1  0.04807100  0.66971100  0.27051500  1
  O  O14  1  0.57064900  0.29335700  0.84225600  1
  O  O15  1  0.08397800  0.26956300  0.08821300  1
  O  O16  1  0.03223400  0.62000100  0.07722100  1
  O  O17  1  0.92440300  0.65021900  0.57621700  1
  O  O18  1  0.58405100  0.56166600  0.33387400  1
  O  O19  1  0.91602200  0.73043700  0.91178700  1
  O  O20  1  0.33028900  0.95192900  0.22948500  1
  O  O21  1  0.23758200  0.38726600  0.72553200  1
  O  O22  1  0.75815700  0.79643400  0.29715600  1
  O  O23  1  0.56166600  0.58405100  0.83387400  1
  O  O24  1  0.62000100  0.03223400  0.57722100  1
  O  O25  1  0.43772700  0.74532800  0.96750100  1
  O  O26  1  0.61273400  0.76241800  0.77446800  1
  O  O27  1  0.83232700  0.17852700  0.87898100  1
  O  O28  1  0.72937400  0.04389400  0.20217200  1
  O  O29  1  0.20356600  0.24184300  0.20284400  1
  O  O30  1  0.76241800  0.61273400  0.27446800  1
  O  O31  1  0.13558500  0.06023600  0.05599500  1
  O  O32  1  0.25467200  0.56227300  0.53249900  1
  O  O33  1  0.93976400  0.86441500  0.44400500  1
  O  O34  1  0.79643400  0.75815700  0.79715600  1
  O  O35  1  0.65021900  0.92440300  0.07621700  1
  O  O36  1  0.73043700  0.91602200  0.41178700  1
  O  O37  1  0.82147300  0.16767300  0.62101900  1
  O  O38  1  0.56227300  0.25467200  0.03249900  1
  O  O39  1  0.41594900  0.43833400  0.66612600  1
  O  O40  1  0.43833400  0.41594900  0.16612600  1
  O  O41  1  0.38726600  0.23758200  0.22553200  1
  O  O42  1  0.27062600  0.95610600  0.79782800  1
  O  O43  1  0.96776600  0.37999900  0.92277900  1
  O  O44  1  0.66971100  0.04807100  0.77051500  1
  O  O45  1  0.74532800  0.43772700  0.46750200  1
  O  O46  1  0.24184300  0.20356600  0.70284400  1
  O  O47  1  0.42935100  0.70664300  0.15774400  1
loop_
_geom_bond_atom_site_label_1
_geom_bond_atom_site_label_2
_geom_bond_distance
_geom_bond_site_symmetry_2
Ga0 O23 1.824701 1_555
Ga0 O11 1.836549 1_555
Ga0 O27 1.847032 1_555
Ga0 O5 1.860458 1_555
Ga1 O40 1.824701 1_555
Ga1 O1 1.836549 1_555
Ga1 O9 1.847032 1_555
Ga1 O13 1.860458 1_555
Ga2 O39 1.824701 1_555
Ga2 O14 1.836549 1_555
Ga2 O37 1.847032 1_555
Ga2 O44 1.860458 1_555
Ga3 O18 1.824701 1_555
Ga3 O47 1.836549 1_555
Ga3 O3 1.847032 1_555
Ga3 O20 1.860458 1_555
O0 Si12 1.638173 1_565
O0 Si0 1.677116 1_556
O0 Rb0 2.853551 1_655
O1 Si5 1.628971 1_555
O1 Rb5 2.988577 1_555
O1 Rb2 3.590391 1_555
O2 Si6 1.644237 1_455
O2 Si2 1.662028 1_555
O2 Rb3 3.464670 1_555
O3 Si5 1.637826 1_555
O3 Rb3 3.122638 1_555
O3 Rb2 3.381372 1_465
O4 Si13 1.648516 1_555
O4 Si15 1.687516 1_555
O4 Rb5 3.087198 1_555
O4 Rb1 3.109224 1_545
O5 Si13 1.644898 1_655
O5 Tb3 2.728073 1_555
O5 Rb1 3.355285 1_555
O6 Si15 1.614933 1_565
O6 Tb1 2.252444 1_555
O6 Rb1 2.955753 1_555
O6 Rb3 3.209364 1_555
O7 Si1 1.616274 1_555
O7 Tb0 2.270579 1_555
O7 Rb4 3.006505 1_546
O7 Rb6 3.162188 1_555
O8 Si14 1.644237 1_655
O8 Si4 1.662028 1_555
O8 Rb2 3.464670 1_555
O9 Si8 1.637826 1_555
O9 Rb0 3.122638 1_554
O9 Rb7 3.381372 1_465
O10 Si15 1.616274 1_555
O10 Tb2 2.270579 1_555
O10 Rb1 3.006505 1_455
O10 Rb5 3.162188 1_555
O11 Si9 1.628971 1_555
O11 Rb1 2.988577 1_555
O11 Rb3 3.590391 1_555
O12 Si9 1.638173 1_455
O12 Si15 1.677116 1_555
O12 Rb3 2.853551 1_545
O13 Si7 1.644898 1_455
O13 Tb2 2.728073 1_555
O13 Rb5 3.355285 1_555
O14 Si12 1.628971 1_555
O14 Rb6 2.988577 1_555
O14 Rb0 3.590391 1_555
O15 Si14 1.648516 1_555
O15 Si1 1.687516 1_554
O15 Rb6 3.087198 1_554
O15 Rb4 3.109224 1_455
O16 Si0 1.614933 1_455
O16 Tb2 2.252444 1_555
O16 Rb6 2.955753 1_554
O16 Rb0 3.209364 1_554
O17 Si10 1.616274 1_555
O17 Tb3 2.270579 1_555
O17 Rb5 3.006505 1_655
O17 Rb1 3.162188 1_555
O18 Si4 1.627659 1_555
O18 Rb2 2.967625 1_555
O18 Rb3 3.337157 1_555
O19 Si6 1.648516 1_555
O19 Si0 1.687516 1_556
O19 Rb4 3.087198 1_556
O19 Rb6 3.109224 1_655
O20 Si14 1.644898 1_565
O20 Tb1 2.728073 1_555
O20 Rb4 3.355285 1_555
O21 Si2 1.619850 1_555
O21 Tb0 2.391068 1_555
O21 Tb3 2.545857 1_455
O22 Si7 1.623189 1_555
O22 Tb1 2.277549 1_555
O22 Tb2 2.386532 1_655
O22 Rb1 3.010426 1_555
O23 Si3 1.627659 1_555
O23 Rb0 2.967625 1_555
O23 Rb7 3.337157 1_556
O24 Si10 1.614933 1_545
O24 Tb0 2.252444 1_555
O24 Rb5 2.955753 1_555
O24 Rb2 3.209364 1_555
O25 Si8 1.636045 1_556
O25 Si3 1.649986 1_555
O25 Rb7 3.181084 1_556
O26 Si3 1.619850 1_555
O26 Tb3 2.391068 1_555
O26 Tb0 2.545857 1_565
O27 Si12 1.637826 1_555
O27 Rb7 3.122638 1_556
O27 Rb0 3.381372 1_645
O28 Si7 1.644237 1_545
O28 Si11 1.662028 1_555
O28 Rb7 3.464670 1_555
O29 Si14 1.623189 1_555
O29 Tb2 2.277549 1_555
O29 Tb1 2.386532 1_545
O29 Rb6 3.010426 1_554
O30 Si4 1.619850 1_555
O30 Tb1 2.391068 1_555
O30 Tb2 2.545857 1_655
O31 Si8 1.638173 1_545
O31 Si1 1.677116 1_554
O31 Rb7 2.853551 1_455
O32 Si5 1.636045 1_555
O32 Si2 1.649986 1_555
O32 Rb2 3.181084 1_555
O33 Si5 1.638173 1_655
O33 Si10 1.677116 1_555
O33 Rb2 2.853551 1_565
O34 Si6 1.623189 1_555
O34 Tb3 2.277549 1_555
O34 Tb0 2.386532 1_565
O34 Rb4 3.010426 1_556
O35 Si0 1.616274 1_555
O35 Tb1 2.270579 1_555
O35 Rb6 3.006505 1_564
O35 Rb4 3.162188 1_555
O36 Si7 1.648516 1_555
O36 Si10 1.687516 1_555
O36 Rb1 3.087198 1_555
O36 Rb5 3.109224 1_565
O37 Si9 1.637826 1_555
O37 Rb2 3.122638 1_555
O37 Rb3 3.381372 1_645
O38 Si12 1.636045 1_554
O38 Si11 1.649986 1_555
O38 Rb0 3.181084 1_554
O39 Si2 1.627659 1_555
O39 Rb3 2.967625 1_555
O39 Rb2 3.337157 1_555
O40 Si11 1.627659 1_555
O40 Rb7 2.967625 1_555
O40 Rb0 3.337157 1_554
O41 Si11 1.619850 1_555
O41 Tb2 2.391068 1_555
O41 Tb1 2.545857 1_545
O42 Si13 1.644237 1_565
O42 Si3 1.662028 1_555
O42 Rb0 3.464670 1_555
O43 Si1 1.614933 1_655
O43 Tb3 2.252444 1_555
O43 Rb4 2.955753 1_556
O43 Rb7 3.209364 1_556
O44 Si6 1.644898 1_545
O44 Tb0 2.728073 1_555
O44 Rb6 3.355285 1_555
O45 Si9 1.636034 1_555
O45 Si4 1.650000 1_555
O45 Rb3 3.181082 1_555
O46 Si13 1.623189 1_555
O46 Tb0 2.277549 1_555
O46 Tb3 2.386532 1_455
O46 Rb5 3.010426 1_555
O47 Si8 1.628971 1_555
O47 Rb4 2.988577 1_555
O47 Rb7 3.590391 1_555
