# generated using pymatgen
data_K2Na4Ge2O7
_symmetry_space_group_name_H-M   'P 1'
_cell_length_a   29.60626300
_cell_length_b   6.06764400
_cell_length_c   6.09489502
_cell_angle_alpha   60.28907505
_cell_angle_beta   90.00000000
_cell_angle_gamma   90.00000000
_symmetry_Int_Tables_number   1
_chemical_formula_structural   K2Na4Ge2O7
_chemical_formula_sum   'K8 Na16 Ge8 O28'
_cell_volume   950.95124669
_cell_formula_units_Z   4
loop_
 _symmetry_equiv_pos_site_id
 _symmetry_equiv_pos_as_xyz
  1  'x, y, z'
loop_
 _atom_site_type_symbol
 _atom_site_label
 _atom_site_symmetry_multiplicity
 _atom_site_fract_x
 _atom_site_fract_y
 _atom_site_fract_z
 _atom_site_occupancy
  K  K0  1  0.24660300  0.02035800  0.69990100  1
  K  K1  1  0.74660300  0.97964200  0.30009900  1
  K  K2  1  0.55217000  0.44789700  0.96342700  1
  K  K3  1  0.05217000  0.55210300  0.03657300  1
  K  K4  1  0.05209000  0.88542800  0.35250700  1
  K  K5  1  0.55209000  0.11457200  0.64749300  1
  K  K6  1  0.85291000  0.19286600  0.43852000  1
  K  K7  1  0.35291000  0.80713400  0.56148000  1
  Na  Na0  1  0.34564200  0.18287900  0.89023400  1
  Na  Na1  1  0.44345400  0.79159600  0.90773000  1
  Na  Na2  1  0.66619600  0.35800700  0.29293900  1
  Na  Na3  1  0.84564200  0.81712100  0.10976600  1
  Na  Na4  1  0.26589600  0.66158400  0.33041300  1
  Na  Na5  1  0.94345400  0.20840400  0.09227000  1
  Na  Na6  1  0.44134700  0.39856900  0.70363700  1
  Na  Na7  1  0.94760100  0.77752200  0.70782900  1
  Na  Na8  1  0.94134700  0.60143100  0.29636300  1
  Na  Na9  1  0.16619600  0.64199300  0.70706100  1
  Na  Na10  1  0.16804100  0.83889800  0.11414700  1
  Na  Na11  1  0.76589600  0.33841600  0.66958700  1
  Na  Na12  1  0.44760100  0.22247800  0.29217100  1
  Na  Na13  1  0.16174700  0.26144700  0.26328800  1
  Na  Na14  1  0.66804100  0.16110200  0.88585300  1
  Na  Na15  1  0.66174700  0.73855300  0.73671200  1
  Ge  Ge0  1  0.85633900  0.54881200  0.76856000  1
  Ge  Ge1  1  0.11228300  0.23785900  0.68800400  1
  Ge  Ge2  1  0.75529100  0.67946600  0.93636800  1
  Ge  Ge3  1  0.50081400  0.81050100  0.29959200  1
  Ge  Ge4  1  0.35633900  0.45118800  0.23144000  1
  Ge  Ge5  1  0.61228300  0.76214100  0.31199600  1
  Ge  Ge6  1  0.00081400  0.18949900  0.70040800  1
  Ge  Ge7  1  0.25529100  0.32053400  0.06363200  1
  O  O0  1  0.05844000  0.11391200  0.64745900  1
  O  O1  1  0.77618400  0.58719900  0.23991600  1
  O  O2  1  0.62196100  0.45867200  0.57978100  1
  O  O3  1  0.11450400  0.25309400  0.97009800  1
  O  O4  1  0.27618400  0.41280100  0.76008400  1
  O  O5  1  0.83839500  0.24203700  0.85011200  1
  O  O6  1  0.30471800  0.25811900  0.27529300  1
  O  O7  1  0.48377600  0.07430500  0.00772600  1
  O  O8  1  0.22561300  0.02814100  0.22075500  1
  O  O9  1  0.80471800  0.74188100  0.72470700  1
  O  O10  1  0.22028300  0.55597700  0.06871700  1
  O  O11  1  0.15095900  0.01305300  0.69164600  1
  O  O12  1  0.65095900  0.98694700  0.30835400  1
  O  O13  1  0.98377600  0.92569500  0.99227400  1
  O  O14  1  0.49631100  0.52400100  0.29218700  1
  O  O15  1  0.38479600  0.27186700  0.52431800  1
  O  O16  1  0.39080300  0.44922700  0.99265900  1
  O  O17  1  0.89080300  0.55077300  0.00734100  1
  O  O18  1  0.88479600  0.72813300  0.47568200  1
  O  O19  1  0.12196100  0.54132800  0.42021900  1
  O  O20  1  0.33839500  0.75796300  0.14988800  1
  O  O21  1  0.47133400  0.80259500  0.55697700  1
  O  O22  1  0.97133400  0.19740500  0.44302300  1
  O  O23  1  0.61450400  0.74690600  0.02990200  1
  O  O24  1  0.55844000  0.88608800  0.35254100  1
  O  O25  1  0.72028300  0.44402300  0.93128300  1
  O  O26  1  0.72561300  0.97185900  0.77924500  1
  O  O27  1  0.99631100  0.47599900  0.70781300  1
loop_
_geom_bond_atom_site_label_1
_geom_bond_atom_site_label_2
_geom_bond_distance
_geom_bond_site_symmetry_2
K0 O10 2.705773 1_546
K0 O4 2.727175 1_555
K0 O11 2.832845 1_555
K0 O6 2.835174 1_555
K0 O8 2.963127 1_555
K1 O25 2.705773 1_564
K1 O1 2.727175 1_555
K1 O12 2.832845 1_555
K1 O9 2.835174 1_555
K1 O26 2.963127 1_555
K2 O23 2.755030 1_556
K2 O14 2.807211 1_556
K2 O7 2.950405 1_556
K2 O24 3.043940 1_546
K2 O2 3.096723 1_555
K3 O3 2.755030 1_554
K3 O27 2.807211 1_454
K3 O13 2.950405 1_454
K3 O0 3.043940 1_564
K3 O19 3.096723 1_555
K4 O0 2.767583 1_565
K4 O19 2.820392 1_555
K4 O27 2.873260 1_455
K4 O13 2.905018 1_454
K4 O3 2.944416 1_564
K5 O24 2.767583 1_545
K5 O2 2.820392 1_555
K5 O14 2.873260 1_555
K5 O7 2.905018 1_556
K5 O23 2.944416 1_546
K6 O17 2.687725 1_555
K6 O5 2.703463 1_555
K6 O9 2.799089 1_545
K6 O18 2.874170 1_545
K6 O1 3.078837 1_555
K7 O16 2.687725 1_555
K7 O20 2.703463 1_555
K7 O6 2.799089 1_565
K7 O15 2.874170 1_565
K7 O4 3.078837 1_555
Na0 O20 2.270097 1_546
Na0 O15 2.327125 1_555
Na0 O4 2.388993 1_555
Na0 O16 2.406089 1_555
Na0 O6 2.871650 1_556
Na1 O21 2.261538 1_555
Na1 O7 2.403206 1_566
Na1 O16 2.438723 1_555
Na1 O14 2.608560 1_556
Na2 O12 2.252048 1_545
Na2 O2 2.490616 1_555
Na2 O25 2.560269 1_554
Na2 O23 2.594341 1_555
Na3 O5 2.270097 1_564
Na3 O18 2.327125 1_555
Na3 O1 2.388993 1_555
Na3 O17 2.406089 1_555
Na3 O9 2.871650 1_554
Na4 O4 2.304562 1_555
Na4 O8 2.311352 1_565
Na4 O20 2.349879 1_555
Na4 O10 2.406541 1_555
Na4 O6 2.870935 1_555
Na5 O22 2.261538 1_555
Na5 O13 2.403206 1_544
Na5 O17 2.438723 1_555
Na5 O27 2.608560 1_554
Na6 O7 2.295532 1_556
Na6 O15 2.328423 1_555
Na6 O21 2.329129 1_555
Na6 O16 2.444086 1_555
Na6 O14 2.761191 1_555
Na7 O27 2.329611 1_555
Na7 O22 2.348075 1_565
Na7 O17 2.358696 1_556
Na7 O18 2.443262 1_555
Na7 O13 2.550682 1_555
Na8 O13 2.295532 1_554
Na8 O18 2.328423 1_555
Na8 O22 2.329129 1_555
Na8 O17 2.444086 1_555
Na8 O27 2.761191 1_555
Na9 O11 2.252048 1_565
Na9 O19 2.490616 1_555
Na9 O10 2.560269 1_556
Na9 O3 2.594341 1_555
Na10 O19 2.294008 1_555
Na10 O11 2.303523 1_564
Na10 O8 2.320680 1_565
Na10 O10 2.426319 1_555
Na10 O3 2.722518 1_564
Na11 O1 2.304562 1_555
Na11 O26 2.311352 1_545
Na11 O5 2.349879 1_555
Na11 O25 2.406541 1_555
Na11 O9 2.870935 1_555
Na12 O14 2.329611 1_555
Na12 O21 2.348075 1_545
Na12 O16 2.358696 1_554
Na12 O15 2.443262 1_555
Na12 O7 2.550682 1_555
Na13 O3 2.289522 1_554
Na13 O11 2.299859 1_555
Na13 O10 2.345786 1_555
Na13 O8 2.451569 1_555
Na13 O19 2.606985 1_555
Na14 O2 2.294008 1_555
Na14 O12 2.303523 1_546
Na14 O26 2.320680 1_545
Na14 O25 2.426319 1_555
Na14 O23 2.722518 1_546
Na15 O23 2.289522 1_556
Na15 O12 2.299859 1_555
Na15 O25 2.345786 1_555
Na15 O26 2.451569 1_555
Na15 O2 2.606985 1_555
Ge0 O5 1.754136 1_555
Ge0 O18 1.776197 1_555
Ge0 O17 1.782260 1_556
Ge0 O9 1.862561 1_555
Ge1 O3 1.768197 1_555
Ge1 O11 1.772635 1_555
Ge1 O19 1.776926 1_555
Ge1 O0 1.830851 1_555
Ge2 O1 1.758463 1_556
Ge2 O26 1.775544 1_555
Ge2 O25 1.777623 1_555
Ge2 O9 1.861387 1_555
Ge3 O14 1.766224 1_555
Ge3 O21 1.774937 1_555
Ge3 O7 1.777231 1_565
Ge3 O24 1.836288 1_555
Ge4 O20 1.754136 1_555
Ge4 O15 1.776197 1_555
Ge4 O16 1.782260 1_554
Ge4 O6 1.862561 1_555
Ge5 O23 1.768197 1_555
Ge5 O12 1.772635 1_555
Ge5 O2 1.776926 1_555
Ge5 O24 1.830851 1_555
Ge6 O27 1.766224 1_455
Ge6 O22 1.774937 1_455
Ge6 O13 1.777231 1_445
Ge6 O0 1.836288 1_555
Ge7 O4 1.758463 1_554
Ge7 O8 1.775544 1_555
Ge7 O10 1.777623 1_555
Ge7 O6 1.861387 1_555
