# generated using pymatgen
data_LaTaN2O
_symmetry_space_group_name_H-M   'P 1'
_cell_length_a   5.67030219
_cell_length_b   5.67030219
_cell_length_c   5.73464904
_cell_angle_alpha   60.99891914
_cell_angle_beta   60.99891914
_cell_angle_gamma   90.74234074
_symmetry_Int_Tables_number   1
_chemical_formula_structural   LaTaN2O
_chemical_formula_sum   'La2 Ta2 N4 O2'
_cell_volume   133.42307959
_cell_formula_units_Z   2
loop_
 _symmetry_equiv_pos_site_id
 _symmetry_equiv_pos_as_xyz
  1  'x, y, z'
loop_
 _atom_site_type_symbol
 _atom_site_label
 _atom_site_symmetry_multiplicity
 _atom_site_fract_x
 _atom_site_fract_y
 _atom_site_fract_z
 _atom_site_occupancy
  La  La0  1  0.24956600  0.24956600  0.49309400  1
  La  La1  1  0.75043400  0.75043400  0.50690600  1
  Ta  Ta0  1  0.50000000  0.00000000  0.00000000  1
  Ta  Ta1  1  0.00000000  0.50000000  0.00000000  1
  N  N0  1  0.76880000  0.23120000  0.50000000  1
  N  N1  1  0.32554900  0.32554900  0.96852100  1
  N  N2  1  0.23120000  0.76880000  0.50000000  1
  N  N3  1  0.67445100  0.67445100  0.03147900  1
  O  O0  1  0.18910600  0.81089400  0.00000000  1
  O  O1  1  0.81089400  0.18910600  0.00000000  1
loop_
_geom_bond_atom_site_label_1
_geom_bond_atom_site_label_2
_geom_bond_distance
_geom_bond_site_symmetry_2
La0 N3 2.469352 1_555
La0 O0 2.599085 1_546
La0 O1 2.599085 1_456
La0 N1 2.627252 1_554
La0 N0 2.707015 1_455
La0 N2 2.707015 1_545
La0 N2 2.966111 1_555
La0 N0 2.966111 1_555
La1 N1 2.469352 1_555
La1 O0 2.599085 1_655
La1 O1 2.599085 1_565
La1 N3 2.627252 1_556
La1 N2 2.707015 1_655
La1 N0 2.707015 1_565
La1 N0 2.966111 1_555
La1 N2 2.966111 1_555
N0 Ta1 2.080613 1_655
N0 Ta0 2.080613 1_556
N1 Ta1 2.077499 1_556
N1 Ta0 2.077499 1_556
N2 Ta0 2.080613 1_565
N2 Ta1 2.080613 1_556
N3 Ta0 2.077499 1_565
N3 Ta1 2.077499 1_655
O0 Ta0 2.051464 1_565
O0 Ta1 2.051464 1_555
O1 Ta1 2.051464 1_655
O1 Ta0 2.051464 1_555
