# generated using pymatgen
data_Cu2S
_symmetry_space_group_name_H-M   'P 1'
_cell_length_a   4.24894225
_cell_length_b   4.24894225
_cell_length_c   5.36505900
_cell_angle_alpha   90.00000000
_cell_angle_beta   90.00000000
_cell_angle_gamma   120.00000389
_symmetry_Int_Tables_number   1
_chemical_formula_structural   Cu2S
_chemical_formula_sum   'Cu4 S2'
_cell_volume   83.88161311
_cell_formula_units_Z   2
loop_
 _symmetry_equiv_pos_site_id
 _symmetry_equiv_pos_as_xyz
  1  'x, y, z'
loop_
 _atom_site_type_symbol
 _atom_site_label
 _atom_site_symmetry_multiplicity
 _atom_site_fract_x
 _atom_site_fract_y
 _atom_site_fract_z
 _atom_site_occupancy
  Cu  Cu0  1  0.00000000  0.00000000  0.25000000  1
  Cu  Cu1  1  0.66666700  0.33333300  0.25000000  1
  Cu  Cu2  1  0.33333300  0.66666700  0.75000000  1
  Cu  Cu3  1  0.00000000  0.00000000  0.75000000  1
  S  S0  1  0.33333300  0.66666700  0.25000000  1
  S  S1  1  0.66666700  0.33333300  0.75000000  1
loop_
_geom_bond_atom_site_label_1
_geom_bond_atom_site_label_2
_geom_bond_distance
_geom_bond_site_symmetry_2
Cu0 Cu1 2.453126 1_455
Cu0 S0 2.453126 1_545
Cu0 S0 2.453129 1_555
Cu0 Cu1 2.453129 1_445
Cu0 S0 2.453129 1_445
Cu0 Cu1 2.453129 1_555
Cu0 Cu3 2.682529 1_554
Cu0 Cu3 2.682529 1_555
Cu1 S0 2.453125 1_545
Cu1 S0 2.453125 1_655
Cu1 S0 2.453133 1_555
Cu1 S1 2.682529 1_554
Cu1 S1 2.682529 1_555
Cu2 S1 2.453125 1_455
Cu2 S1 2.453125 1_565
Cu2 Cu3 2.453126 1_565
Cu2 Cu3 2.453129 1_555
Cu2 Cu3 2.453129 1_665
Cu2 S1 2.453133 1_555
Cu2 S0 2.682529 1_555
Cu2 S0 2.682529 1_556
Cu3 S1 2.453126 1_455
Cu3 S1 2.453129 1_445
Cu3 S1 2.453129 1_555
