# generated using pymatgen
data_Pr5(CBr4)2
_symmetry_space_group_name_H-M   'P 1'
_cell_length_a   9.21650704
_cell_length_b   12.36780592
_cell_length_c   16.95869882
_cell_angle_alpha   100.38241352
_cell_angle_beta   90.11060486
_cell_angle_gamma   95.66401374
_symmetry_Int_Tables_number   1
_chemical_formula_structural   Pr5(CBr4)2
_chemical_formula_sum   'Pr20 C8 Br32'
_cell_volume   1891.76969149
_cell_formula_units_Z   4
loop_
 _symmetry_equiv_pos_site_id
 _symmetry_equiv_pos_as_xyz
  1  'x, y, z'
loop_
 _atom_site_type_symbol
 _atom_site_label
 _atom_site_symmetry_multiplicity
 _atom_site_fract_x
 _atom_site_fract_y
 _atom_site_fract_z
 _atom_site_occupancy
  Pr  Pr0  1  0.26028418  0.00465582  0.30196281  1
  Pr  Pr1  1  0.12889424  0.36970114  0.22631095  1
  Pr  Pr2  1  0.83413861  0.93500123  0.90824349  1
  Pr  Pr3  1  0.16584504  0.06499908  0.09175808  1
  Pr  Pr4  1  0.41429837  0.56744738  0.38325840  1
  Pr  Pr5  1  0.55232314  0.74005949  0.75408729  1
  Pr  Pr6  1  0.73971920  0.99534419  0.69803745  1
  Pr  Pr7  1  0.66097618  0.51361165  0.19989082  1
  Pr  Pr8  1  0.33902652  0.48638493  0.80010953  1
  Pr  Pr9  1  0.58568978  0.43254898  0.61674167  1
  Pr  Pr10  1  0.31650317  0.62841291  0.17658194  1
  Pr  Pr11  1  0.38061667  0.35124871  0.03516517  1
  Pr  Pr12  1  0.68349347  0.37158507  0.82341473  1
  Pr  Pr13  1  0.91405937  0.11505554  0.27503632  1
  Pr  Pr14  1  0.44767990  0.25994091  0.24591128  1
  Pr  Pr15  1  0.17773804  0.26954900  0.44263826  1
  Pr  Pr16  1  0.61938144  0.64875077  0.96483242  1
  Pr  Pr17  1  0.87110785  0.63029770  0.77368987  1
  Pr  Pr18  1  0.08594293  0.88494263  0.72497024  1
  Pr  Pr19  1  0.82228952  0.73045514  0.55736419  1
  C  C0  1  0.60094346  0.52267009  0.74873389  1
  C  C1  1  0.81755320  0.79625678  0.69448469  1
  C  C2  1  0.39905581  0.47732814  0.25126536  1
  C  C3  1  0.82174788  0.84597689  0.77613788  1
  C  C4  1  0.18245277  0.20374395  0.30551650  1
  C  C5  1  0.17825158  0.15402345  0.22386341  1
  C  C6  1  0.39229338  0.42786857  0.16987013  1
  C  C7  1  0.60770812  0.57213033  0.83012769  1
  Br  Br0  1  0.93200735  0.72519630  0.95543651  1
  Br  Br1  1  0.86753923  0.20791116  0.44604318  1
  Br  Br2  1  0.29932130  0.56620959  0.98707146  1
  Br  Br3  1  0.51904990  0.85614493  0.93066702  1
  Br  Br4  1  0.78634959  0.31291598  0.23089704  1
  Br  Br5  1  0.00087002  0.57278415  0.18092983  1
  Br  Br6  1  0.10262455  0.49010850  0.40340324  1
  Br  Br7  1  0.21368844  0.68706816  0.76908153  1
  Br  Br8  1  0.70917561  0.92710742  0.52245552  1
  Br  Br9  1  0.42530103  0.94674757  0.71836368  1
  Br  Br10  1  0.13249482  0.79209406  0.55397706  1
  Br  Br11  1  0.49471321  0.64394300  0.57065340  1
  Br  Br12  1  -0.00088879  0.42722373  0.81906924  1
  Br  Br13  1  0.03828176  0.09649631  0.68671992  1
  Br  Br14  1  0.74803168  0.14249973  0.86637441  1
  Br  Br15  1  0.25197261  0.85750195  0.13362554  1
  Br  Br16  1  0.89735799  0.50988141  0.59659767  1
  Br  Br17  1  0.66440718  0.22778567  0.66148344  1
  Br  Br18  1  0.62009854  0.72735262  0.15387198  1
  Br  Br19  1  0.06797261  0.27480823  0.04456041  1
  Br  Br20  1  0.57470485  0.05327136  0.28163886  1
  Br  Br21  1  0.33562859  0.77223720  0.33850493  1
  Br  Br22  1  0.15125949  0.99795491  0.90023832  1
  Br  Br23  1  0.96172643  0.90350294  0.31329018  1
  Br  Br24  1  0.84871058  0.00202530  0.09976368  1
  Br  Br25  1  0.70067567  0.43379376  0.01292423  1
  Br  Br26  1  0.37989298  0.27263837  0.84612500  1
  Br  Br27  1  0.73267032  0.62538751  0.36946997  1
  Br  Br28  1  0.26730783  0.37462183  0.63052742  1
  Br  Br29  1  0.48092759  0.14384403  0.06933917  1
  Br  Br30  1  0.50530021  0.35606706  0.42934877  1
  Br  Br31  1  0.29081300  0.07288576  0.47754595  1
loop_
_geom_bond_atom_site_label_1
_geom_bond_atom_site_label_2
_geom_bond_distance
_geom_bond_site_symmetry_2
C0 C7 1.403994 1_555
C0 Pr9 2.311103 1_555
C0 Pr8 2.592857 1_555
C0 Pr12 2.608518 1_555
C0 Pr17 2.699924 1_555
C0 Pr5 2.754590 1_555
C1 C3 1.409007 1_555
C1 Pr19 2.323129 1_555
C1 Pr18 2.616153 1_655
C1 Pr6 2.622285 1_555
C1 Pr5 2.721709 1_555
C1 Pr17 2.729828 1_555
C2 C6 1.404014 1_555
C2 Pr4 2.311107 1_555
C2 Pr7 2.592876 1_555
C2 Pr10 2.608551 1_555
C2 Pr1 2.699897 1_555
C2 Pr14 2.754571 1_555
C3 Pr2 2.308582 1_555
C3 Pr18 2.615622 1_655
C3 Pr6 2.625303 1_555
C3 Pr5 2.683222 1_555
C3 Pr17 2.742957 1_555
C4 C5 1.409006 1_555
C4 Pr15 2.323145 1_555
C4 Pr13 2.616182 1_455
C4 Pr0 2.622282 1_555
C4 Pr14 2.721703 1_555
C4 Pr1 2.729821 1_555
C5 Pr3 2.308578 1_555
C5 Pr13 2.615635 1_455
C5 Pr0 2.625308 1_555
C5 Pr14 2.683249 1_555
C5 Pr1 2.742934 1_555
C6 Pr11 2.307988 1_555
C6 Pr7 2.607315 1_555
C6 Pr10 2.625505 1_555
C6 Pr1 2.690627 1_555
C6 Pr14 2.721969 1_555
C7 Pr16 2.307986 1_555
C7 Pr8 2.607308 1_555
C7 Pr12 2.625498 1_555
C7 Pr17 2.690611 1_555
C7 Pr5 2.721974 1_555
Br0 Pr16 2.956288 1_555
Br0 Pr2 3.065128 1_555
Br0 Pr17 3.122797 1_555
Br1 Pr15 2.888662 1_655
Br1 Pr13 2.968936 1_555
Br2 Pr16 3.071575 1_555
Br2 Pr11 3.076868 1_556
Br2 Pr10 3.166795 1_556
Br2 Pr8 3.179472 1_555
Br3 Pr16 2.961731 1_555
Br3 Pr2 3.017943 1_555
Br3 Pr5 3.108627 1_555
Br4 Pr7 2.967669 1_555
Br4 Pr13 3.026452 1_555
Br4 Pr14 3.145864 1_555
Br4 Pr1 3.170067 1_655
Br5 Pr10 2.926658 1_555
Br5 Pr1 3.093758 1_555
Br5 Pr7 3.176248 1_455
Br6 Pr4 2.976970 1_555
Br6 Pr15 3.064026 1_555
Br6 Pr1 3.123745 1_555
Br7 Pr8 2.967497 1_555
Br7 Pr18 3.026574 1_555
Br7 Pr5 3.145535 1_555
Br7 Pr17 3.170391 1_455
Br8 Pr19 2.893057 1_555
Br8 Pr6 2.949905 1_555
Br9 Pr6 2.934666 1_555
Br9 Pr5 3.068923 1_555
Br9 Pr18 3.152719 1_555
Br10 Pr19 2.888701 1_455
Br10 Pr18 2.968760 1_555
Br11 Pr9 3.052243 1_555
Br11 Pr19 3.124507 1_555
Br11 Pr5 3.147743 1_555
Br11 Pr4 3.211340 1_555
Br12 Pr12 2.926534 1_455
Br12 Pr17 3.093558 1_455
Br12 Pr8 3.176415 1_555
Br13 Pr18 2.880465 1_545
Br13 Pr6 2.929653 1_445
Br14 Pr2 2.962514 1_545
Br14 Pr6 3.093043 1_545
Br14 Pr12 3.160229 1_555
Br15 Pr3 2.962554 1_565
Br15 Pr0 3.093039 1_565
Br15 Pr10 3.160232 1_555
Br16 Pr9 2.976900 1_555
Br16 Pr19 3.064054 1_555
Br16 Pr17 3.123755 1_555
Br17 Pr9 2.927220 1_555
Br17 Pr12 2.985177 1_555
Br17 Pr6 3.188268 1_545
Br18 Pr7 2.945873 1_555
Br18 Pr10 2.995524 1_555
Br18 Pr16 3.177735 1_554
Br19 Pr11 2.956430 1_555
Br19 Pr3 3.065222 1_555
Br19 Pr1 3.122873 1_555
Br20 Pr0 2.934712 1_555
Br20 Pr14 3.068751 1_555
Br20 Pr13 3.152643 1_555
Br21 Pr4 2.927464 1_555
Br21 Pr10 2.985193 1_555
Br21 Pr0 3.188017 1_565
Br22 Pr2 2.959313 1_455
Br22 Pr18 3.079005 1_555
Br22 Pr3 3.203164 1_566
Br23 Pr13 2.880489 1_565
Br23 Pr0 2.929640 1_665
Br24 Pr3 2.959478 1_655
Br24 Pr13 3.079176 1_555
Br24 Pr2 3.203151 1_544
Br25 Pr11 3.071584 1_555
Br25 Pr16 3.076807 1_554
Br25 Pr12 3.166782 1_554
Br25 Pr7 3.179527 1_555
Br26 Pr8 2.945893 1_555
Br26 Pr12 2.995597 1_555
Br26 Pr11 3.177756 1_556
Br27 Pr4 2.970886 1_555
Br27 Pr7 2.999596 1_555
Br27 Pr19 3.287823 1_555
Br28 Pr9 2.970944 1_555
Br28 Pr8 2.999637 1_555
Br28 Pr15 3.287663 1_555
Br29 Pr11 2.961828 1_555
Br29 Pr3 3.017841 1_555
Br29 Pr14 3.108521 1_555
Br30 Pr4 3.052183 1_555
Br30 Pr15 3.124405 1_555
Br30 Pr14 3.147833 1_555
Br30 Pr9 3.211244 1_555
Br31 Pr15 2.893016 1_555
Br31 Pr0 2.949908 1_555
