# generated using pymatgen
data_K2P2O5F2
_symmetry_space_group_name_H-M   'P 1'
_cell_length_a   7.51925240
_cell_length_b   7.51925240
_cell_length_c   7.35508668
_cell_angle_alpha   89.39845441
_cell_angle_beta   89.39845441
_cell_angle_gamma   61.99240344
_symmetry_Int_Tables_number   1
_chemical_formula_structural   K2P2O5F2
_chemical_formula_sum   'K4 P4 O10 F4'
_cell_volume   367.12068158
_cell_formula_units_Z   2
loop_
 _symmetry_equiv_pos_site_id
 _symmetry_equiv_pos_as_xyz
  1  'x, y, z'
loop_
 _atom_site_type_symbol
 _atom_site_label
 _atom_site_symmetry_multiplicity
 _atom_site_fract_x
 _atom_site_fract_y
 _atom_site_fract_z
 _atom_site_occupancy
  K  K0  1  0.21957600  0.50011400  0.36182800  1
  K  K1  1  0.78042400  0.49988600  0.63817200  1
  K  K2  1  0.50011400  0.21957600  0.86182800  1
  K  K3  1  0.49988600  0.78042400  0.13817200  1
  P  P0  1  0.70184100  0.10451700  0.35588700  1
  P  P1  1  0.10451700  0.70184100  0.85588700  1
  P  P2  1  0.29815900  0.89548300  0.64411300  1
  P  P3  1  0.89548300  0.29815900  0.14411300  1
  O  O0  1  0.63922900  0.23896400  0.51816200  1
  O  O1  1  0.36077100  0.76103600  0.48183800  1
  O  O2  1  0.10992200  0.89007800  0.75000000  1
  O  O3  1  0.76103600  0.36077100  0.98183800  1
  O  O4  1  0.23896400  0.63922900  0.01816200  1
  O  O5  1  0.88293900  0.45461700  0.27533600  1
  O  O6  1  0.11706100  0.54538300  0.72466400  1
  O  O7  1  0.54538300  0.11706100  0.22466400  1
  O  O8  1  0.45461700  0.88293900  0.77533600  1
  O  O9  1  0.89007800  0.10992200  0.25000000  1
  F  F0  1  0.82296200  0.87558900  0.42383600  1
  F  F1  1  0.17703800  0.12441100  0.57616400  1
  F  F2  1  0.87558900  0.82296200  0.92383600  1
  F  F3  1  0.12441100  0.17703800  0.07616400  1
loop_
_geom_bond_atom_site_label_1
_geom_bond_atom_site_label_2
_geom_bond_distance
_geom_bond_site_symmetry_2
K0 O6 2.749803 1_555
K0 O4 2.754024 1_555
K0 O1 2.787078 1_555
K0 O5 2.789384 1_455
K0 O7 2.949157 1_555
K0 O0 3.056879 1_555
K1 O5 2.749803 1_555
K1 O3 2.754024 1_555
K1 O0 2.787078 1_555
K1 O6 2.789384 1_655
K1 O8 2.949157 1_555
K1 O1 3.056879 1_555
K2 O7 2.749803 1_556
K2 O0 2.754024 1_555
K2 O3 2.787078 1_555
K2 O8 2.789384 1_545
K2 O6 2.949157 1_555
K2 O4 3.056879 1_556
K3 O8 2.749803 1_554
K3 O1 2.754024 1_555
K3 O4 2.787078 1_555
K3 O7 2.789384 1_565
K3 O5 2.949157 1_555
K3 O3 3.056879 1_554
O0 P0 1.494906 1_555
O1 P2 1.494906 1_555
O2 P1 1.625352 1_555
O2 P2 1.625352 1_555
O3 P3 1.494906 1_556
O4 P1 1.494906 1_554
O5 P3 1.497387 1_555
O6 P1 1.497387 1_555
O7 P0 1.497387 1_555
O8 P2 1.497387 1_555
O9 P0 1.625352 1_555
O9 P3 1.625352 1_555
F0 P0 1.600454 1_565
F0 K0 3.027143 1_655
F1 P2 1.600454 1_545
F1 K1 3.027143 1_455
F2 P1 1.600454 1_655
F2 K2 3.027143 1_565
F3 P3 1.600454 1_455
F3 K3 3.027143 1_545
