# generated using pymatgen
data_K2ZrSi2O7
_symmetry_space_group_name_H-M   'P 1'
_cell_length_a   5.64516300
_cell_length_b   9.70797800
_cell_length_c   14.35567599
_cell_angle_alpha   63.13346705
_cell_angle_beta   90.00000000
_cell_angle_gamma   90.00000000
_symmetry_Int_Tables_number   1
_chemical_formula_structural   K2ZrSi2O7
_chemical_formula_sum   'K8 Zr4 Si8 O28'
_cell_volume   701.81684266
_cell_formula_units_Z   4
loop_
 _symmetry_equiv_pos_site_id
 _symmetry_equiv_pos_as_xyz
  1  'x, y, z'
loop_
 _atom_site_type_symbol
 _atom_site_label
 _atom_site_symmetry_multiplicity
 _atom_site_fract_x
 _atom_site_fract_y
 _atom_site_fract_z
 _atom_site_occupancy
  K  K0  1  0.75363300  0.03697400  0.57138000  1
  K  K1  1  0.24313500  0.51665800  0.59847000  1
  K  K2  1  0.25363300  0.96302600  0.92862000  1
  K  K3  1  0.74636700  0.03697400  0.07138000  1
  K  K4  1  0.24636700  0.96302600  0.42862000  1
  K  K5  1  0.75686500  0.48334200  0.40153000  1
  K  K6  1  0.74313500  0.48334200  0.90153000  1
  K  K7  1  0.25686500  0.51665800  0.09847000  1
  Zr  Zr0  1  0.24342500  0.76515600  0.22963300  1
  Zr  Zr1  1  0.74342500  0.23484400  0.27036700  1
  Zr  Zr2  1  0.75657500  0.23484400  0.77036700  1
  Zr  Zr3  1  0.25657500  0.76515600  0.72963300  1
  Si  Si0  1  0.73643500  0.82538600  0.37066700  1
  Si  Si1  1  0.76356500  0.82538600  0.87066700  1
  Si  Si2  1  0.23643500  0.17461400  0.12933300  1
  Si  Si3  1  0.26356500  0.17461400  0.62933300  1
  Si  Si4  1  0.74836500  0.66440300  0.61373000  1
  Si  Si5  1  0.75163500  0.66440300  0.11373000  1
  Si  Si6  1  0.25163500  0.33559700  0.38627000  1
  Si  Si7  1  0.24836500  0.33559700  0.88627000  1
  O  O0  1  0.78248000  0.68557900  0.49215700  1
  O  O1  1  0.00356900  0.74265600  0.11971700  1
  O  O2  1  0.47478600  0.25174100  0.86247900  1
  O  O3  1  0.25068000  0.00801200  0.12773200  1
  O  O4  1  0.52521400  0.74825900  0.13752100  1
  O  O5  1  0.49643100  0.74265600  0.61971700  1
  O  O6  1  0.02521400  0.25174100  0.36247900  1
  O  O7  1  0.24932000  0.00801200  0.62773200  1
  O  O8  1  0.74576100  0.47697500  0.18505300  1
  O  O9  1  0.28248000  0.31442100  0.00784300  1
  O  O10  1  0.50356900  0.25734400  0.38028300  1
  O  O11  1  0.97478600  0.74825900  0.63752100  1
  O  O12  1  0.94808000  0.79774800  0.30373300  1
  O  O13  1  0.25423900  0.52302500  0.81494700  1
  O  O14  1  0.21752000  0.31442100  0.50784300  1
  O  O15  1  0.75423900  0.47697500  0.68505300  1
  O  O16  1  0.97609500  0.20902700  0.16453200  1
  O  O17  1  0.05192000  0.20225200  0.69626700  1
  O  O18  1  0.47609500  0.79097300  0.33546800  1
  O  O19  1  0.74932000  0.99198800  0.87226800  1
  O  O20  1  0.24576100  0.52302500  0.31494700  1
  O  O21  1  0.75068000  0.99198800  0.37226800  1
  O  O22  1  0.71752000  0.68557900  0.99215700  1
  O  O23  1  0.02390500  0.79097300  0.83546800  1
  O  O24  1  0.52390500  0.20902700  0.66453200  1
  O  O25  1  0.55192000  0.79774800  0.80373300  1
  O  O26  1  0.99643100  0.25734400  0.88028300  1
  O  O27  1  0.44808000  0.20225200  0.19626700  1
loop_
_geom_bond_atom_site_label_1
_geom_bond_atom_site_label_2
_geom_bond_distance
_geom_bond_site_symmetry_2
K0 O11 2.812600 1_545
K0 O24 2.877280 1_555
K0 O7 2.891024 1_655
K0 O7 2.938182 1_555
K0 O10 2.964947 1_555
K0 O5 2.993569 1_545
K0 O21 3.080528 1_545
K0 O6 3.168550 1_655
K0 O25 3.288580 1_545
K0 O17 3.350248 1_655
K1 O5 2.748826 1_555
K1 O14 2.806560 1_555
K1 O17 2.929060 1_555
K1 O11 2.967077 1_455
K1 O15 2.979530 1_455
K1 O0 3.085265 1_455
K1 O15 3.096017 1_555
K1 O24 3.125820 1_555
K1 O13 3.136718 1_555
K2 O2 2.812600 1_565
K2 O23 2.877280 1_555
K2 O19 2.891024 1_555
K2 O19 2.938182 1_455
K2 O1 2.964947 1_556
K2 O26 2.993569 1_465
K2 O3 3.080528 1_566
K2 O4 3.168550 1_556
K2 O17 3.288580 1_565
K2 O25 3.350248 1_555
K3 O4 2.812600 1_545
K3 O16 2.877280 1_555
K3 O3 2.891024 1_555
K3 O3 2.938182 1_655
K3 O26 2.964947 1_554
K3 O1 2.993569 1_645
K3 O19 3.080528 1_544
K3 O2 3.168550 1_554
K3 O12 3.288580 1_545
K3 O27 3.350248 1_555
K4 O6 2.812600 1_565
K4 O18 2.877280 1_555
K4 O21 2.891024 1_455
K4 O21 2.938182 1_555
K4 O5 2.964947 1_555
K4 O10 2.993569 1_565
K4 O7 3.080528 1_565
K4 O11 3.168550 1_455
K4 O27 3.288580 1_565
K4 O12 3.350248 1_455
K5 O10 2.748826 1_555
K5 O0 2.806560 1_555
K5 O12 2.929060 1_555
K5 O6 2.967077 1_655
K5 O20 2.979530 1_655
K5 O14 3.085265 1_655
K5 O20 3.096017 1_555
K5 O18 3.125820 1_555
K5 O8 3.136718 1_555
K6 O26 2.748826 1_555
K6 O22 2.806560 1_555
K6 O25 2.929060 1_555
K6 O2 2.967077 1_555
K6 O13 2.979530 1_555
K6 O9 3.085265 1_556
K6 O13 3.096017 1_655
K6 O23 3.125820 1_655
K6 O15 3.136718 1_555
K7 O1 2.748826 1_555
K7 O9 2.806560 1_555
K7 O27 2.929060 1_555
K7 O4 2.967077 1_555
K7 O8 2.979530 1_555
K7 O22 3.085265 1_554
K7 O8 3.096017 1_455
K7 O16 3.125820 1_455
K7 O20 3.136718 1_555
O0 Si4 1.673623 1_555
O0 Si0 1.676896 1_555
O1 Si5 1.632847 1_455
O1 Zr0 2.163895 1_555
O2 Si7 1.632302 1_555
O2 Zr2 2.121787 1_555
O3 Si2 1.629869 1_555
O3 Zr0 2.140770 1_545
O4 Si5 1.632302 1_555
O4 Zr0 2.121787 1_555
O5 Si4 1.632847 1_555
O5 Zr3 2.163895 1_555
O6 Si6 1.632302 1_555
O6 Zr1 2.121787 1_455
O7 Si3 1.629869 1_555
O7 Zr3 2.140770 1_545
O8 Si5 1.635957 1_555
O8 Zr1 2.103208 1_555
O9 Si7 1.673623 1_554
O9 Si2 1.676896 1_555
O10 Si6 1.632847 1_555
O10 Zr1 2.163895 1_555
O11 Si4 1.632302 1_555
O11 Zr3 2.121787 1_655
O12 Si0 1.629657 1_555
O12 Zr0 2.077422 1_655
O13 Si7 1.635957 1_555
O13 Zr3 2.103208 1_555
O14 Si6 1.673623 1_555
O14 Si3 1.676896 1_555
O15 Si4 1.635957 1_555
O15 Zr2 2.103208 1_555
O16 Si2 1.636895 1_655
O16 Zr1 2.107258 1_555
O17 Si3 1.629657 1_555
O17 Zr2 2.077422 1_455
O18 Si0 1.636895 1_555
O18 Zr0 2.107258 1_555
O19 Si1 1.629869 1_555
O19 Zr2 2.140770 1_565
O20 Si6 1.635957 1_555
O20 Zr0 2.103208 1_555
O21 Si0 1.629869 1_555
O21 Zr1 2.140770 1_565
O22 Si5 1.673623 1_556
O22 Si1 1.676896 1_555
O23 Si1 1.636895 1_455
O23 Zr3 2.107258 1_555
O24 Si3 1.636895 1_555
O24 Zr2 2.107258 1_555
O25 Si1 1.629657 1_555
O25 Zr3 2.077422 1_555
O26 Si7 1.632847 1_655
O26 Zr2 2.163895 1_555
O27 Si2 1.629657 1_555
O27 Zr1 2.077422 1_555
