# generated using pymatgen
data_FeHgC4(SN)4
_symmetry_space_group_name_H-M   'P 1'
_cell_length_a   8.33407187
_cell_length_b   8.33407187
_cell_length_c   8.33407187
_cell_angle_alpha   94.75665611
_cell_angle_beta   94.75665611
_cell_angle_gamma   146.52764598
_symmetry_Int_Tables_number   1
_chemical_formula_structural   FeHgC4(SN)4
_chemical_formula_sum   'Fe1 Hg1 C4 S4 N4'
_cell_volume   305.73638357
_cell_formula_units_Z   1
loop_
 _symmetry_equiv_pos_site_id
 _symmetry_equiv_pos_as_xyz
  1  'x, y, z'
loop_
 _atom_site_type_symbol
 _atom_site_label
 _atom_site_symmetry_multiplicity
 _atom_site_fract_x
 _atom_site_fract_y
 _atom_site_fract_z
 _atom_site_occupancy
  Fe  Fe0  1  0.75000000  0.25000000  0.50000000  1
  Hg  Hg0  1  0.00000000  0.00000000  0.00000000  1
  C  C0  1  0.17668500  0.97304200  0.35468900  1
  C  C1  1  0.02695800  0.38164700  0.20364300  1
  C  C2  1  0.17800400  0.82331500  0.79635700  1
  C  C3  1  0.61835300  0.82199600  0.64531100  1
  S  S0  1  0.88201000  0.83519800  0.28020300  1
  S  S1  1  0.16480200  0.44500500  0.04681200  1
  S  S2  1  0.39819300  0.11799000  0.95318800  1
  S  S3  1  0.55499500  0.60180700  0.71979700  1
  N  N0  1  0.38884100  0.07195000  0.41235000  1
  N  N1  1  0.92805000  0.34039900  0.31689000  1
  N  N2  1  0.02350900  0.61115900  0.68311000  1
  N  N3  1  0.65960100  0.97649100  0.58765000  1
loop_
_geom_bond_atom_site_label_1
_geom_bond_atom_site_label_2
_geom_bond_distance
_geom_bond_site_symmetry_2
Fe0 N0 1.949223 1_555
Fe0 N3 1.949228 1_545
Fe0 N2 1.949228 1_655
Fe0 N1 1.949232 1_555
Hg0 S2 2.639370 1_554
Hg0 S1 2.639370 1_555
Hg0 S3 2.639370 1_444
Hg0 S0 2.639370 1_445
C0 N0 1.182601 1_565
C0 S0 1.630462 1_455
C1 N1 1.182592 1_455
C1 S1 1.630462 1_555
C2 N2 1.182596 1_555
C2 S2 1.630462 1_565
C3 N3 1.182596 1_555
C3 S3 1.630462 1_555
