# generated using pymatgen
data_Na3B5Pt9
_symmetry_space_group_name_H-M   'P 1'
_cell_length_a   6.36336056
_cell_length_b   6.36336056
_cell_length_c   15.17349689
_cell_angle_alpha   90.00000000
_cell_angle_beta   90.00000000
_cell_angle_gamma   128.14761879
_symmetry_Int_Tables_number   1
_chemical_formula_structural   Na3B5Pt9
_chemical_formula_sum   'Na6 B10 Pt18'
_cell_volume   483.18601852
_cell_formula_units_Z   2
loop_
 _symmetry_equiv_pos_site_id
 _symmetry_equiv_pos_as_xyz
  1  'x, y, z'
loop_
 _atom_site_type_symbol
 _atom_site_label
 _atom_site_symmetry_multiplicity
 _atom_site_fract_x
 _atom_site_fract_y
 _atom_site_fract_z
 _atom_site_occupancy
  Na  Na0  1  0.31369000  0.68631000  0.75000000  1
  Na  Na1  1  0.68631000  0.31369000  0.25000000  1
  Na  Na2  1  0.55941038  0.44058962  0.08584400  1
  Na  Na3  1  0.44058962  0.55941038  0.91415600  1
  Na  Na4  1  0.44058962  0.55941038  0.58584400  1
  Na  Na5  1  0.55941038  0.44058962  0.41415600  1
  B  B0  1  0.94453668  0.05546332  0.14671331  1
  B  B1  1  0.05546332  0.94453668  0.85328669  1
  B  B2  1  0.05546332  0.94453668  0.64671331  1
  B  B3  1  0.94453668  0.05546332  0.35328669  1
  B  B4  1  0.18937501  0.81062499  0.02785787  1
  B  B5  1  0.81062499  0.18937501  0.97214213  1
  B  B6  1  0.81062499  0.18937501  0.52785787  1
  B  B7  1  0.18937501  0.81062499  0.47214213  1
  B  B8  1  0.72817457  0.27182543  0.75000000  1
  B  B9  1  0.27182543  0.72817457  0.25000000  1
  Pt  Pt0  1  -0.00000000  0.00000000  -0.00000000  1
  Pt  Pt1  1  -0.00000000  0.00000000  0.50000000  1
  Pt  Pt2  1  0.65841927  0.83364066  0.25000000  1
  Pt  Pt3  1  0.83364066  0.65841927  0.75000000  1
  Pt  Pt4  1  0.34158073  0.16635934  0.75000000  1
  Pt  Pt5  1  0.16635934  0.34158073  0.25000000  1
  Pt  Pt6  1  0.12771869  0.87228131  0.15695821  1
  Pt  Pt7  1  0.87228131  0.12771869  0.84304179  1
  Pt  Pt8  1  0.87228131  0.12771869  0.65695821  1
  Pt  Pt9  1  0.12771869  0.87228131  0.34304179  1
  Pt  Pt10  1  0.56852195  0.93603438  0.07885565  1
  Pt  Pt11  1  0.93603438  0.56852195  0.92114435  1
  Pt  Pt12  1  0.43147805  0.06396562  0.57885565  1
  Pt  Pt13  1  0.06396562  0.43147805  0.42114435  1
  Pt  Pt14  1  0.43147805  0.06396562  0.92114435  1
  Pt  Pt15  1  0.06396562  0.43147805  0.07885565  1
  Pt  Pt16  1  0.56852195  0.93603438  0.42114435  1
  Pt  Pt17  1  0.93603438  0.56852195  0.57885565  1
loop_
_geom_bond_atom_site_label_1
_geom_bond_atom_site_label_2
_geom_bond_distance
_geom_bond_site_symmetry_2
Na0 Na3 2.883380 1_555
Na0 Na4 2.883380 1_555
Na0 Pt3 2.948406 1_455
Na0 Pt4 2.948406 1_565
Na0 Pt7 3.191106 1_565
Na0 Pt8 3.191106 1_565
Na0 Pt7 3.191106 1_455
Na0 Pt8 3.191106 1_455
Na0 Pt17 3.294758 1_455
Na0 Pt12 3.294758 1_565
Na0 Pt11 3.294758 1_455
Na0 Pt14 3.294758 1_565
Na0 Pt4 3.421109 1_555
Na0 Pt3 3.421109 1_555
Na1 Na5 2.883380 1_555
Na1 Na2 2.883380 1_555
Na1 Pt2 2.948406 1_545
Na1 Pt5 2.948406 1_655
Na1 Pt6 3.191106 1_655
Na1 Pt9 3.191106 1_655
Na1 Pt9 3.191106 1_545
Na1 Pt6 3.191106 1_545
Na1 Pt15 3.294758 1_655
Na1 Pt16 3.294758 1_545
Na1 Pt10 3.294758 1_545
Na1 Pt13 3.294758 1_655
Na1 Pt5 3.421109 1_555
Na1 Pt2 3.421109 1_555
Na2 Na3 2.938742 1_554
Na2 Pt6 3.084795 1_545
Na2 Pt6 3.084795 1_655
Na2 Pt15 3.119016 1_555
Na2 Pt10 3.119016 1_555
Na2 Pt0 3.146327 1_665
Na2 Pt0 3.146327 1_555
Na2 Pt11 3.200233 1_554
Na2 Pt14 3.200233 1_554
Na2 Pt10 3.248532 1_545
Na2 Pt15 3.248532 1_655
Na2 Pt5 3.303039 1_555
Na2 Pt2 3.303039 1_555
Na3 Pt7 3.084795 1_565
Na3 Pt7 3.084795 1_455
Na3 Pt11 3.119016 1_555
Na3 Pt14 3.119016 1_555
Na3 Pt0 3.146327 1_666
Na3 Pt0 3.146327 1_556
Na3 Pt15 3.200233 1_556
Na3 Pt10 3.200233 1_556
Na3 Pt11 3.248532 1_455
Na3 Pt14 3.248532 1_565
Na3 Pt3 3.303039 1_555
Na3 Pt4 3.303039 1_555
Na4 Na5 2.938742 1_555
Na4 Pt8 3.084795 1_455
Na4 Pt8 3.084795 1_565
Na4 Pt17 3.119016 1_555
Na4 Pt12 3.119016 1_555
Na4 Pt1 3.146327 1_665
Na4 Pt1 3.146327 1_555
Na4 Pt16 3.200233 1_555
Na4 Pt13 3.200233 1_555
Na4 Pt17 3.248532 1_455
Na4 Pt12 3.248532 1_565
Na4 Pt4 3.303039 1_555
Na4 Pt3 3.303039 1_555
Na5 Pt9 3.084795 1_545
Na5 Pt9 3.084795 1_655
Na5 Pt13 3.119016 1_555
Na5 Pt16 3.119016 1_555
Na5 Pt1 3.146327 1_665
Na5 Pt1 3.146327 1_555
Na5 Pt12 3.200233 1_555
Na5 Pt17 3.200233 1_555
Na5 Pt16 3.248532 1_545
Na5 Pt13 3.248532 1_655
Na5 Pt5 3.303039 1_555
Na5 Pt2 3.303039 1_555
B0 Pt6 2.102434 1_645
B0 Pt2 2.142101 1_545
B0 Pt5 2.142101 1_655
B0 Pt15 2.261946 1_655
B0 Pt10 2.261946 1_545
B0 Pt0 2.314901 1_655
B1 Pt7 2.102434 1_465
B1 Pt3 2.142101 1_455
B1 Pt4 2.142101 1_565
B1 Pt11 2.261946 1_455
B1 Pt14 2.261946 1_565
B1 Pt0 2.314901 1_566
B2 Pt8 2.102434 1_465
B2 Pt3 2.142101 1_455
B2 Pt4 2.142101 1_565
B2 Pt12 2.261946 1_565
B2 Pt17 2.261946 1_455
B2 Pt1 2.314901 1_565
B3 Pt9 2.102434 1_645
B3 Pt5 2.142101 1_655
B3 Pt2 2.142101 1_545
B3 Pt13 2.261946 1_655
B3 Pt16 2.261946 1_545
B3 Pt1 2.314901 1_655
B4 Pt6 2.082146 1_555
B4 Pt14 2.127434 1_564
B4 Pt11 2.127434 1_454
B4 Pt15 2.162860 1_555
B4 Pt10 2.162860 1_555
B4 Pt0 2.208395 1_565
B5 Pt7 2.082146 1_555
B5 Pt10 2.127434 1_546
B5 Pt15 2.127434 1_656
B5 Pt14 2.162860 1_555
B5 Pt11 2.162860 1_555
B5 Pt0 2.208395 1_656
B6 Pt8 2.082146 1_555
B6 Pt16 2.127434 1_545
B6 Pt13 2.127434 1_655
B6 Pt12 2.162860 1_555
B6 Pt17 2.162860 1_555
B6 Pt1 2.208395 1_655
B7 Pt9 2.082146 1_555
B7 Pt17 2.127434 1_455
B7 Pt12 2.127434 1_565
B7 Pt13 2.162860 1_555
B7 Pt16 2.162860 1_555
B7 Pt1 2.208395 1_565
B8 Pt3 2.112486 1_555
B8 Pt4 2.112486 1_555
B8 Pt7 2.171107 1_555
B8 Pt8 2.171107 1_555
B8 Na0 2.949300 1_545
B8 Na0 2.949300 1_655
B9 Pt5 2.112486 1_555
B9 Pt2 2.112486 1_555
B9 Pt6 2.171107 1_555
B9 Pt9 2.171107 1_555
B9 Na1 2.949300 1_455
B9 Na1 2.949300 1_565
