# generated using pymatgen
data_CdI2
_symmetry_space_group_name_H-M   'P 1'
_cell_length_a   4.28341915
_cell_length_b   4.28341892
_cell_length_c   50.23668203
_cell_angle_alpha   90.00000000
_cell_angle_beta   90.00000000
_cell_angle_gamma   119.99999369
_symmetry_Int_Tables_number   1
_chemical_formula_structural   CdI2
_chemical_formula_sum   'Cd7 I14'
_cell_volume   798.23861262
_cell_formula_units_Z   7
loop_
 _symmetry_equiv_pos_site_id
 _symmetry_equiv_pos_as_xyz
  1  'x, y, z'
loop_
 _atom_site_type_symbol
 _atom_site_label
 _atom_site_symmetry_multiplicity
 _atom_site_fract_x
 _atom_site_fract_y
 _atom_site_fract_z
 _atom_site_occupancy
  Cd  Cd0  1  -0.00000000  -0.00000000  0.17909878  1
  Cd  Cd1  1  0.00000000  0.00000000  0.60718474  1
  Cd  Cd2  1  0.00000000  0.00000000  0.74999143  1
  Cd  Cd3  1  -0.00000000  -0.00000000  0.89234819  1
  Cd  Cd4  1  0.66666700  0.33333300  0.32142469  1
  Cd  Cd5  1  0.00000000  0.00000000  0.46428105  1
  Cd  Cd6  1  0.66666700  0.33333300  0.03570883  1
  I  I0  1  0.66666700  0.33333300  0.42995741  1
  I  I1  1  0.66666700  0.33333300  0.57282201  1
  I  I2  1  0.66666700  0.33333300  0.14484967  1
  I  I3  1  0.33333300  0.66666700  0.07004200  1
  I  I4  1  0.33333300  0.66666700  0.21329110  1
  I  I5  1  0.33333300  0.66666700  0.35575602  1
  I  I6  1  0.33333300  0.66666700  0.64147168  1
  I  I7  1  -0.00000000  -0.00000000  0.00138484  1
  I  I8  1  0.33333300  0.66666700  0.78433013  1
  I  I9  1  0.33333300  0.66666700  0.92652994  1
  I  I10  1  0.66666700  0.33333300  0.85813978  1
  I  I11  1  0.33333300  0.66666700  0.49861304  1
  I  I12  1  0.66666700  0.33333300  0.71567234  1
  I  I13  1  -0.00000000  -0.00000000  0.28710133  1
loop_
_geom_bond_atom_site_label_1
_geom_bond_atom_site_label_2
_geom_bond_distance
_geom_bond_site_symmetry_2
Cd0 I4 3.011047 1_545
Cd0 I4 3.011050 1_555
Cd0 I4 3.011050 1_445
Cd0 I2 3.012675 1_455
Cd0 I2 3.012679 1_445
Cd0 I2 3.012679 1_555
Cd1 I6 3.013761 1_545
Cd1 I6 3.013764 1_555
Cd1 I6 3.013764 1_445
Cd1 I1 3.015939 1_455
Cd1 I1 3.015942 1_445
Cd1 I1 3.015942 1_555
Cd2 I12 3.014684 1_455
Cd2 I12 3.014688 1_445
Cd2 I12 3.014688 1_555
Cd2 I8 3.015248 1_545
Cd2 I8 3.015251 1_555
Cd2 I8 3.015251 1_445
Cd3 I9 3.010744 1_545
Cd3 I9 3.010747 1_555
Cd3 I9 3.010747 1_445
Cd3 I10 3.011508 1_455
Cd3 I10 3.011511 1_445
Cd3 I10 3.011511 1_555
Cd4 I13 3.014807 1_655
Cd4 I13 3.014810 1_665
Cd4 I13 3.014810 1_555
Cd4 I5 3.015036 1_545
Cd4 I5 3.015036 1_655
Cd4 I5 3.015042 1_555
Cd5 I0 3.014815 1_455
Cd5 I0 3.014818 1_445
Cd5 I0 3.014818 1_555
Cd5 I11 3.015055 1_545
Cd5 I11 3.015058 1_555
Cd5 I11 3.015058 1_445
Cd6 I7 3.014825 1_655
Cd6 I7 3.014828 1_665
Cd6 I7 3.014829 1_555
Cd6 I3 3.015089 1_545
Cd6 I3 3.015089 1_655
Cd6 I3 3.015095 1_555
