# generated using pymatgen
data_Ba6Nb14Si4O47
_symmetry_space_group_name_H-M   'P 1'
_cell_length_a   9.18155176
_cell_length_b   9.18155176
_cell_length_c   28.28056300
_cell_angle_alpha   90.00000000
_cell_angle_beta   90.00000000
_cell_angle_gamma   119.99999826
_symmetry_Int_Tables_number   1
_chemical_formula_structural   Ba6Nb14Si4O47
_chemical_formula_sum   'Ba12 Nb28 Si8 O94'
_cell_volume   2064.67102903
_cell_formula_units_Z   2
loop_
 _symmetry_equiv_pos_site_id
 _symmetry_equiv_pos_as_xyz
  1  'x, y, z'
loop_
 _atom_site_type_symbol
 _atom_site_label
 _atom_site_symmetry_multiplicity
 _atom_site_fract_x
 _atom_site_fract_y
 _atom_site_fract_z
 _atom_site_occupancy
  Ba  Ba0  1  0.00000000  0.58327700  0.01457300  1
  Ba  Ba1  1  0.60010200  0.00000000  0.29739800  1
  Ba  Ba2  1  0.58327700  0.58327700  0.51457300  1
  Ba  Ba3  1  0.41672300  0.41672300  0.01457300  1
  Ba  Ba4  1  0.60010200  0.60010200  0.79739800  1
  Ba  Ba5  1  0.41672300  0.00000000  0.51457300  1
  Ba  Ba6  1  0.39989800  0.00000000  0.79739800  1
  Ba  Ba7  1  0.39989800  0.39989800  0.29739800  1
  Ba  Ba8  1  0.00000000  0.39989800  0.79739800  1
  Ba  Ba9  1  0.00000000  0.41672300  0.51457300  1
  Ba  Ba10  1  0.58327700  0.00000000  0.01457300  1
  Ba  Ba11  1  0.00000000  0.60010200  0.29739800  1
  Nb  Nb0  1  0.21652100  0.00000000  0.94928500  1
  Nb  Nb1  1  0.66666700  0.33333300  0.41209400  1
  Nb  Nb2  1  0.00000000  0.76326300  0.58959300  1
  Nb  Nb3  1  0.00000000  0.78347900  0.44928500  1
  Nb  Nb4  1  0.00000000  0.25478300  0.36178500  1
  Nb  Nb5  1  0.74521700  0.74521700  0.36178500  1
  Nb  Nb6  1  0.76326300  0.76326300  0.08959300  1
  Nb  Nb7  1  0.78347900  0.78347900  0.94928500  1
  Nb  Nb8  1  0.25478300  0.25478300  0.86178500  1
  Nb  Nb9  1  0.74521700  0.00000000  0.86178500  1
  Nb  Nb10  1  0.00000000  0.23673700  0.08959300  1
  Nb  Nb11  1  0.78347900  0.00000000  0.44928500  1
  Nb  Nb12  1  0.33333300  0.66666700  0.91209400  1
  Nb  Nb13  1  0.23673700  0.00000000  0.08959300  1
  Nb  Nb14  1  0.23807800  0.00000000  0.22234300  1
  Nb  Nb15  1  0.76192200  0.76192200  0.22234300  1
  Nb  Nb16  1  0.21652100  0.21652100  0.44928500  1
  Nb  Nb17  1  0.25478300  0.00000000  0.36178500  1
  Nb  Nb18  1  0.00000000  0.74521700  0.86178500  1
  Nb  Nb19  1  0.00000000  0.23807800  0.22234300  1
  Nb  Nb20  1  0.66666700  0.33333300  0.91209400  1
  Nb  Nb21  1  0.00000000  0.21652100  0.94928500  1
  Nb  Nb22  1  0.76192200  0.00000000  0.72234300  1
  Nb  Nb23  1  0.00000000  0.76192200  0.72234300  1
  Nb  Nb24  1  0.23807800  0.23807800  0.72234300  1
  Nb  Nb25  1  0.76326300  0.00000000  0.58959300  1
  Nb  Nb26  1  0.23673700  0.23673700  0.58959300  1
  Nb  Nb27  1  0.33333300  0.66666700  0.41209400  1
  Si  Si0  1  0.66666700  0.33333300  0.21448200  1
  Si  Si1  1  0.66666700  0.33333300  0.59891700  1
  Si  Si2  1  0.66666700  0.33333300  0.71448200  1
  Si  Si3  1  0.33333300  0.66666700  0.09891700  1
  Si  Si4  1  0.66666700  0.33333300  0.09891700  1
  Si  Si5  1  0.33333300  0.66666700  0.59891700  1
  Si  Si6  1  0.33333300  0.66666700  0.71448200  1
  Si  Si7  1  0.33333300  0.66666700  0.21448200  1
  O  O0  1  0.00000000  0.28184700  0.15637900  1
  O  O1  1  0.81168400  0.81168400  0.87515400  1
  O  O2  1  0.69347900  0.51075600  0.23684500  1
  O  O3  1  0.82298400  0.82298400  0.72058300  1
  O  O4  1  0.00000000  0.18831600  0.87515400  1
  O  O5  1  0.00000000  0.17628200  0.59210600  1
  O  O6  1  0.00000000  0.82371800  0.09210600  1
  O  O7  1  0.52188500  0.83325000  0.44813500  1
  O  O8  1  0.00000000  0.81168400  0.37515400  1
  O  O9  1  0.17628200  0.00000000  0.59210600  1
  O  O10  1  0.18831600  0.18831600  0.37515400  1
  O  O11  1  0.82473900  0.31003700  0.36145000  1
  O  O12  1  0.51075600  0.81727700  0.73684500  1
  O  O13  1  0.81601500  0.51103100  0.57633000  1
  O  O14  1  0.69501700  0.18398500  0.57633000  1
  O  O15  1  0.31136500  0.47811500  0.44813500  1
  O  O16  1  0.00000000  0.23187200  0.43994800  1
  O  O17  1  0.17701600  0.17701600  0.22058300  1
  O  O18  1  0.51103100  0.81601500  0.57633000  1
  O  O19  1  0.81727700  0.30652100  0.23684500  1
  O  O20  1  0.82298400  0.00000000  0.22058300  1
  O  O21  1  0.47811500  0.31136500  0.44813500  1
  O  O22  1  0.66666700  0.33333300  0.65668400  1
  O  O23  1  0.21690400  0.00000000  0.01607000  1
  O  O24  1  0.30498300  0.48896900  0.57633000  1
  O  O25  1  0.81168400  0.00000000  0.37515400  1
  O  O26  1  0.68996300  0.17526100  0.86145000  1
  O  O27  1  0.66666700  0.33333300  0.15668400  1
  O  O28  1  0.68996300  0.51470200  0.36145000  1
  O  O29  1  0.00000000  0.76812800  0.93994800  1
  O  O30  1  0.69501700  0.51103100  0.07633000  1
  O  O31  1  0.51470200  0.82473900  0.86145000  1
  O  O32  1  0.28184700  0.00000000  0.15637900  1
  O  O33  1  0.31003700  0.82473900  0.36145000  1
  O  O34  1  0.30498300  0.81601500  0.07633000  1
  O  O35  1  0.48924400  0.18272300  0.23684500  1
  O  O36  1  0.51470200  0.68996300  0.36145000  1
  O  O37  1  0.51075600  0.69347900  0.23684500  1
  O  O38  1  0.30652100  0.48924400  0.73684500  1
  O  O39  1  0.16675000  0.47811500  0.94813500  1
  O  O40  1  0.30652100  0.81727700  0.23684500  1
  O  O41  1  0.18398500  0.48896900  0.07633000  1
  O  O42  1  0.83325000  0.31136500  0.94813500  1
  O  O43  1  0.47811500  0.16675000  0.94813500  1
  O  O44  1  0.00000000  0.21690400  0.01607000  1
  O  O45  1  0.76812800  0.00000000  0.93994800  1
  O  O46  1  0.00000000  0.71815300  0.65637900  1
  O  O47  1  0.78222600  0.00000000  0.79640600  1
  O  O48  1  0.17701600  0.00000000  0.72058300  1
  O  O49  1  0.23187200  0.00000000  0.43994800  1
  O  O50  1  0.82371800  0.00000000  0.09210600  1
  O  O51  1  0.17628200  0.17628200  0.09210600  1
  O  O52  1  0.33333300  0.66666700  0.65668400  1
  O  O53  1  0.51103100  0.69501700  0.07633000  1
  O  O54  1  0.33333300  0.66666700  0.15668400  1
  O  O55  1  0.16675000  0.68863500  0.44813500  1
  O  O56  1  0.71815300  0.00000000  0.65637900  1
  O  O57  1  0.00000000  0.78309600  0.51607000  1
  O  O58  1  0.68863500  0.52188500  0.94813500  1
  O  O59  1  0.31003700  0.48529800  0.86145000  1
  O  O60  1  0.17526100  0.68996300  0.86145000  1
  O  O61  1  0.28184700  0.28184700  0.65637900  1
  O  O62  1  0.00000000  0.21777400  0.29640600  1
  O  O63  1  0.18272300  0.48924400  0.23684500  1
  O  O64  1  0.21690400  0.21690400  0.51607000  1
  O  O65  1  0.00000000  0.82298400  0.22058300  1
  O  O66  1  0.81601500  0.30498300  0.07633000  1
  O  O67  1  0.71815300  0.71815300  0.15637900  1
  O  O68  1  0.78309600  0.00000000  0.51607000  1
  O  O69  1  0.82371800  0.82371800  0.59210600  1
  O  O70  1  0.78309600  0.78309600  0.01607000  1
  O  O71  1  0.48896900  0.30498300  0.57633000  1
  O  O72  1  0.21777400  0.21777400  0.79640600  1
  O  O73  1  0.31136500  0.83325000  0.94813500  1
  O  O74  1  0.82473900  0.51470200  0.86145000  1
  O  O75  1  0.18398500  0.69501700  0.57633000  1
  O  O76  1  0.48529800  0.17526100  0.36145000  1
  O  O77  1  0.83325000  0.52188500  0.44813500  1
  O  O78  1  0.81727700  0.51075600  0.73684500  1
  O  O79  1  0.00000000  0.78222600  0.79640600  1
  O  O80  1  0.48529800  0.31003700  0.86145000  1
  O  O81  1  0.18272300  0.69347900  0.73684500  1
  O  O82  1  0.17526100  0.48529800  0.36145000  1
  O  O83  1  0.18831600  0.00000000  0.87515400  1
  O  O84  1  0.52188500  0.68863500  0.94813500  1
  O  O85  1  0.00000000  0.17701600  0.72058300  1
  O  O86  1  0.76812800  0.76812800  0.43994800  1
  O  O87  1  0.23187200  0.23187200  0.93994800  1
  O  O88  1  0.69347900  0.18272300  0.73684500  1
  O  O89  1  0.68863500  0.16675000  0.44813500  1
  O  O90  1  0.48924400  0.30652100  0.73684500  1
  O  O91  1  0.48896900  0.18398500  0.07633000  1
  O  O92  1  0.21777400  0.00000000  0.29640600  1
  O  O93  1  0.78222600  0.78222600  0.29640600  1
loop_
_geom_bond_atom_site_label_1
_geom_bond_atom_site_label_2
_geom_bond_distance
_geom_bond_site_symmetry_2
Ba0 O29 2.708228 1_554
Ba0 O41 2.848941 1_555
Ba0 O66 2.848947 1_455
Ba0 O39 2.878347 1_554
Ba0 O42 2.878347 1_454
Ba0 O30 3.078002 1_455
Ba0 O34 3.078004 1_555
Ba0 O6 3.111499 1_555
Ba0 O58 3.226358 1_454
Ba0 O73 3.226358 1_554
Ba0 O70 3.314754 1_455
Ba0 O23 3.314754 1_565
Ba0 O44 3.364139 1_555
Ba1 O35 2.913901 1_555
Ba1 O40 2.913901 1_545
Ba1 O25 2.934182 1_555
Ba1 O76 2.945838 1_555
Ba1 O33 2.945838 1_545
Ba1 O20 2.984453 1_555
Ba1 O37 3.036003 1_545
Ba1 O19 3.036003 1_555
Ba1 O36 3.125266 1_545
Ba1 O11 3.125266 1_555
Ba1 O93 3.184104 1_545
Ba1 O62 3.184104 1_655
Ba2 O86 2.708228 1_555
Ba2 O71 2.848948 1_555
Ba2 O24 2.848948 1_555
Ba2 O15 2.878347 1_555
Ba2 O21 2.878347 1_555
Ba2 O13 3.078009 1_555
Ba2 O18 3.078009 1_555
Ba2 O69 3.111499 1_555
Ba2 O7 3.226358 1_555
Ba2 O77 3.226358 1_555
Ba2 O68 3.314754 1_565
Ba2 O57 3.314754 1_655
Ba2 O64 3.364139 1_555
Ba3 O87 2.708228 1_554
Ba3 O53 2.848948 1_555
Ba3 O30 2.848948 1_555
Ba3 O84 2.878347 1_554
Ba3 O58 2.878347 1_554
Ba3 O91 3.078009 1_555
Ba3 O41 3.078009 1_555
Ba3 O51 3.111499 1_555
Ba3 O43 3.226358 1_554
Ba3 O39 3.226358 1_554
Ba3 O44 3.314754 1_555
Ba3 O23 3.314754 1_555
Ba3 O70 3.364139 1_555
Ba4 O38 2.913901 1_555
Ba4 O90 2.913901 1_555
Ba4 O1 2.934182 1_555
Ba4 O59 2.945838 1_555
Ba4 O80 2.945838 1_555
Ba4 O3 2.984453 1_555
Ba4 O78 3.036003 1_555
Ba4 O12 3.036003 1_555
Ba4 O31 3.125266 1_555
Ba4 O74 3.125266 1_555
Ba4 O79 3.184104 1_655
Ba4 O47 3.184104 1_565
Ba5 O49 2.708228 1_555
Ba5 O18 2.848941 1_545
Ba5 O14 2.848947 1_555
Ba5 O7 2.878347 1_545
Ba5 O89 2.878347 1_555
Ba5 O71 3.078002 1_555
Ba5 O75 3.078004 1_545
Ba5 O9 3.111499 1_555
Ba5 O21 3.226358 1_555
Ba5 O55 3.226358 1_545
Ba5 O64 3.314754 1_555
Ba5 O57 3.314754 1_545
Ba5 O68 3.364139 1_555
Ba6 O12 2.913901 1_545
Ba6 O88 2.913901 1_555
Ba6 O83 2.934182 1_555
Ba6 O31 2.945838 1_545
Ba6 O26 2.945838 1_555
Ba6 O48 2.984453 1_555
Ba6 O90 3.036003 1_555
Ba6 O81 3.036003 1_545
Ba6 O80 3.125266 1_555
Ba6 O60 3.125266 1_545
Ba6 O72 3.184104 1_555
Ba6 O79 3.184104 1_545
Ba7 O37 2.913901 1_555
Ba7 O2 2.913901 1_555
Ba7 O10 2.934182 1_555
Ba7 O36 2.945838 1_555
Ba7 O28 2.945838 1_555
Ba7 O17 2.984453 1_555
Ba7 O35 3.036003 1_555
Ba7 O63 3.036003 1_555
Ba7 O76 3.125266 1_555
Ba7 O82 3.125266 1_555
Ba7 O92 3.184104 1_555
Ba7 O62 3.184104 1_555
Ba8 O78 2.913901 1_455
Ba8 O81 2.913901 1_555
Ba8 O4 2.934182 1_555
Ba8 O74 2.945838 1_455
Ba8 O60 2.945838 1_555
Ba8 O85 2.984453 1_555
Ba8 O38 3.036003 1_555
Ba8 O88 3.036003 1_455
Ba8 O59 3.125266 1_555
Ba8 O26 3.125266 1_455
Ba8 O72 3.184104 1_555
Ba8 O47 3.184104 1_455
Ba9 O16 2.708228 1_555
Ba9 O13 2.848941 1_455
Ba9 O75 2.848947 1_555
Ba9 O77 2.878347 1_455
Ba9 O55 2.878347 1_555
Ba9 O24 3.078002 1_555
Ba9 O14 3.078004 1_455
Ba9 O5 3.111499 1_555
Ba9 O15 3.226358 1_555
Ba9 O89 3.226358 1_455
Ba9 O64 3.314754 1_555
Ba9 O68 3.314754 1_455
Ba9 O57 3.364139 1_555
Ba10 O45 2.708228 1_554
Ba10 O91 2.848941 1_555
Ba10 O34 2.848947 1_545
Ba10 O43 2.878347 1_554
Ba10 O73 2.878347 1_544
Ba10 O53 3.078002 1_545
Ba10 O66 3.078004 1_555
Ba10 O50 3.111499 1_555
Ba10 O84 3.226358 1_544
Ba10 O42 3.226358 1_554
Ba10 O70 3.314754 1_545
Ba10 O44 3.314754 1_655
Ba10 O23 3.364139 1_555
Ba11 O63 2.913901 1_555
Ba11 O19 2.913901 1_455
Ba11 O8 2.934182 1_555
Ba11 O82 2.945838 1_555
Ba11 O11 2.945838 1_455
Ba11 O65 2.984453 1_555
Ba11 O2 3.036003 1_455
Ba11 O40 3.036003 1_555
Ba11 O28 3.125266 1_455
Ba11 O33 3.125266 1_555
Ba11 O93 3.184104 1_455
Ba11 O92 3.184104 1_565
Nb0 O23 1.888721 1_556
Nb0 O87 2.078925 1_555
Nb0 O29 2.078925 1_545
Nb0 O73 2.106335 1_545
Nb0 O43 2.106335 1_555
Nb0 O83 2.112400 1_555
Nb1 O89 1.930651 1_555
Nb1 O77 1.930656 1_555
Nb1 O21 1.930659 1_555
Nb1 O11 2.124595 1_555
Nb1 O76 2.124599 1_555
Nb1 O28 2.124602 1_555
Nb2 O46 1.933625 1_555
Nb2 O69 1.957355 1_455
Nb2 O9 1.957355 1_565
Nb2 O57 2.087230 1_555
Nb2 O75 2.108423 1_555
Nb2 O13 2.108430 1_455
Nb3 O57 1.888721 1_555
Nb3 O86 2.078925 1_455
Nb3 O49 2.078925 1_565
Nb3 O55 2.106335 1_555
Nb3 O77 2.106335 1_455
Nb3 O8 2.112400 1_555
Nb4 O62 1.879920 1_555
Nb4 O11 1.913960 1_455
Nb4 O82 1.913960 1_555
Nb4 O10 2.135441 1_555
Nb4 O25 2.135441 1_455
Nb4 O16 2.220480 1_555
Nb5 O93 1.879920 1_555
Nb5 O36 1.913960 1_555
Nb5 O28 1.913960 1_555
Nb5 O25 2.135441 1_565
Nb5 O8 2.135441 1_655
Nb5 O86 2.220480 1_555
Nb6 O67 1.933625 1_555
Nb6 O6 1.957355 1_655
Nb6 O50 1.957355 1_565
Nb6 O70 2.087230 1_555
Nb6 O53 2.108432 1_555
Nb6 O30 2.108432 1_555
Nb7 O70 1.888721 1_556
Nb7 O29 2.078925 1_655
Nb7 O45 2.078925 1_565
Nb7 O84 2.106335 1_555
Nb7 O58 2.106335 1_555
Nb7 O1 2.112400 1_555
Nb8 O72 1.879920 1_555
Nb8 O59 1.913960 1_555
Nb8 O80 1.913960 1_555
Nb8 O83 2.135441 1_555
Nb8 O4 2.135441 1_555
Nb8 O87 2.220480 1_555
Nb9 O47 1.879920 1_555
Nb9 O26 1.913960 1_555
Nb9 O31 1.913960 1_545
Nb9 O1 2.135441 1_545
Nb9 O4 2.135441 1_655
Nb9 O45 2.220480 1_555
Nb10 O0 1.933625 1_555
Nb10 O51 1.957355 1_555
Nb10 O50 1.957355 1_455
Nb10 O44 2.087230 1_555
Nb10 O66 2.108423 1_455
Nb10 O41 2.108430 1_555
Nb11 O68 1.888721 1_555
Nb11 O86 2.078925 1_545
Nb11 O16 2.078925 1_655
Nb11 O89 2.106335 1_555
Nb11 O7 2.106335 1_545
Nb11 O25 2.112400 1_555
Nb12 O73 1.930651 1_555
Nb12 O39 1.930656 1_555
Nb12 O84 1.930659 1_555
Nb12 O60 2.124595 1_555
Nb12 O31 2.124599 1_555
Nb12 O59 2.124602 1_555
Nb13 O32 1.933625 1_555
Nb13 O51 1.957355 1_555
Nb13 O6 1.957355 1_545
Nb13 O23 2.087230 1_555
Nb13 O34 2.108423 1_545
Nb13 O91 2.108430 1_555
Nb14 O32 1.908294 1_555
Nb14 O17 1.967115 1_555
Nb14 O65 1.967116 1_545
Nb14 O92 2.102823 1_555
Nb14 O40 2.105230 1_545
Nb14 O35 2.105230 1_555
Nb15 O67 1.908294 1_555
Nb15 O20 1.967116 1_565
Nb15 O65 1.967116 1_655
Nb15 O93 2.102823 1_555
Nb15 O37 2.105230 1_555
Nb15 O2 2.105230 1_555
Nb16 O64 1.888721 1_555
Nb16 O16 2.078925 1_555
Nb16 O49 2.078925 1_555
Nb16 O15 2.106335 1_555
Nb16 O21 2.106335 1_555
Nb16 O10 2.112400 1_555
Nb17 O92 1.879920 1_555
Nb17 O33 1.913960 1_545
Nb17 O76 1.913960 1_555
Nb17 O10 2.135441 1_555
Nb17 O8 2.135441 1_545
Nb17 O49 2.220480 1_555
Nb18 O79 1.879920 1_555
Nb18 O60 1.913960 1_555
Nb18 O74 1.913960 1_455
Nb18 O1 2.135441 1_455
Nb18 O83 2.135441 1_565
Nb18 O29 2.220480 1_555
Nb19 O0 1.908294 1_555
Nb19 O17 1.967115 1_555
Nb19 O20 1.967116 1_455
Nb19 O62 2.102823 1_555
Nb19 O19 2.105230 1_455
Nb19 O63 2.105230 1_555
Nb20 O42 1.930651 1_555
Nb20 O43 1.930656 1_555
Nb20 O58 1.930659 1_555
Nb20 O26 2.124595 1_555
Nb20 O74 2.124599 1_555
Nb20 O80 2.124602 1_555
Nb21 O44 1.888721 1_556
Nb21 O87 2.078925 1_555
Nb21 O45 2.078925 1_455
Nb21 O42 2.106335 1_455
Nb21 O39 2.106335 1_555
Nb21 O4 2.112400 1_555
Nb22 O56 1.908294 1_555
Nb22 O3 1.967115 1_545
Nb22 O85 1.967116 1_655
Nb22 O47 2.102823 1_555
Nb22 O88 2.105230 1_555
Nb22 O12 2.105230 1_545
Nb23 O46 1.908294 1_555
Nb23 O3 1.967115 1_455
Nb23 O48 1.967116 1_565
Nb23 O79 2.102823 1_555
Nb23 O81 2.105230 1_555
Nb23 O78 2.105230 1_455
Nb24 O61 1.908294 1_555
Nb24 O85 1.967116 1_555
Nb24 O48 1.967116 1_555
Nb24 O72 2.102823 1_555
Nb24 O38 2.105230 1_555
Nb24 O90 2.105230 1_555
Nb25 O56 1.933625 1_555
Nb25 O69 1.957355 1_545
Nb25 O5 1.957355 1_655
Nb25 O68 2.087230 1_555
Nb25 O14 2.108423 1_555
Nb25 O18 2.108430 1_545
Nb26 O61 1.933625 1_555
Nb26 O9 1.957355 1_555
Nb26 O5 1.957355 1_555
Nb26 O64 2.087230 1_555
Nb26 O71 2.108432 1_555
Nb26 O24 2.108432 1_555
Nb27 O55 1.930651 1_555
Nb27 O7 1.930656 1_555
Nb27 O15 1.930659 1_555
Nb27 O33 2.124595 1_555
Nb27 O82 2.124599 1_555
Nb27 O36 2.124602 1_555
O2 Si0 1.647197 1_555
O12 Si6 1.647194 1_555
O13 Si1 1.647129 1_555
O14 Si1 1.647129 1_555
O18 Si5 1.647129 1_555
O19 Si0 1.647188 1_555
O22 Si1 1.633683 1_555
O22 Si2 1.634560 1_555
O24 Si5 1.647129 1_555
O27 Si4 1.633683 1_555
O27 Si0 1.634560 1_555
O30 Si4 1.647129 1_555
O34 Si3 1.647129 1_555
O35 Si0 1.647194 1_555
O37 Si7 1.647197 1_555
O38 Si6 1.647197 1_555
O40 Si7 1.647188 1_555
O41 Si3 1.647129 1_555
O52 Si5 1.633683 1_555
O52 Si6 1.634560 1_555
O53 Si3 1.647129 1_555
O54 Si3 1.633683 1_555
O54 Si7 1.634560 1_555
O63 Si7 1.647194 1_555
O66 Si4 1.647129 1_555
O71 Si1 1.647129 1_555
O75 Si5 1.647129 1_555
O78 Si2 1.647194 1_555
O81 Si6 1.647188 1_555
O88 Si2 1.647188 1_555
O90 Si2 1.647197 1_555
O91 Si4 1.647129 1_555
