# generated using pymatgen
data_Ti7Br16
_symmetry_space_group_name_H-M   'P 1'
_cell_length_a   7.20271148
_cell_length_b   10.70196597
_cell_length_c   15.44646665
_cell_angle_alpha   90.00000000
_cell_angle_beta   90.00000000
_cell_angle_gamma   90.00000000
_symmetry_Int_Tables_number   1
_chemical_formula_structural   Ti7Br16
_chemical_formula_sum   'Ti14 Br32'
_cell_volume   1190.66266335
_cell_formula_units_Z   2
loop_
 _symmetry_equiv_pos_site_id
 _symmetry_equiv_pos_as_xyz
  1  'x, y, z'
loop_
 _atom_site_type_symbol
 _atom_site_label
 _atom_site_symmetry_multiplicity
 _atom_site_fract_x
 _atom_site_fract_y
 _atom_site_fract_z
 _atom_site_occupancy
  Ti  Ti0  1  -0.00000000  0.00000000  0.00000000  1
  Ti  Ti1  1  0.50000000  0.50000000  0.50000000  1
  Ti  Ti2  1  0.50000000  0.53468431  0.76112976  1
  Ti  Ti3  1  0.50000000  0.46531569  0.23887024  1
  Ti  Ti4  1  -0.00000000  0.03468431  0.73887024  1
  Ti  Ti5  1  -0.00000000  0.96531569  0.26112976  1
  Ti  Ti6  1  0.69533127  0.74628695  0.86139348  1
  Ti  Ti7  1  0.69533127  0.25371305  0.13860652  1
  Ti  Ti8  1  0.80466873  0.24628695  0.63860652  1
  Ti  Ti9  1  0.80466873  0.75371305  0.36139348  1
  Ti  Ti10  1  0.30466873  0.25371305  0.13860652  1
  Ti  Ti11  1  0.30466873  0.74628695  0.86139348  1
  Ti  Ti12  1  0.19533127  0.75371305  0.36139348  1
  Ti  Ti13  1  0.19533127  0.24628695  0.63860652  1
  Br  Br0  1  -0.00000000  0.75532419  0.98028604  1
  Br  Br1  1  -0.00000000  0.24467581  0.01971396  1
  Br  Br2  1  0.50000000  0.25532419  0.51971396  1
  Br  Br3  1  0.50000000  0.74467581  0.48028604  1
  Br  Br4  1  0.50000000  0.75892980  0.99437327  1
  Br  Br5  1  0.50000000  0.24107020  0.00562673  1
  Br  Br6  1  -0.00000000  0.25892980  0.50562673  1
  Br  Br7  1  -0.00000000  0.74107020  0.49437327  1
  Br  Br8  1  -0.00000000  0.77237328  0.75110451  1
  Br  Br9  1  -0.00000000  0.22762672  0.24889549  1
  Br  Br10  1  0.50000000  0.27237328  0.74889549  1
  Br  Br11  1  0.50000000  0.72762672  0.25110451  1
  Br  Br12  1  0.50000000  0.76834998  0.72474062  1
  Br  Br13  1  0.50000000  0.23165002  0.27525938  1
  Br  Br14  1  -0.00000000  0.26834998  0.77525938  1
  Br  Br15  1  -0.00000000  0.73165002  0.22474062  1
  Br  Br16  1  0.74837091  0.00138705  0.86793538  1
  Br  Br17  1  0.74837091  0.99861295  0.13206462  1
  Br  Br18  1  0.75162909  0.50138705  0.63206462  1
  Br  Br19  1  0.75162909  0.49861295  0.36793538  1
  Br  Br20  1  0.25162909  0.99861295  0.13206462  1
  Br  Br21  1  0.25162909  0.00138705  0.86793538  1
  Br  Br22  1  0.24837091  0.49861295  0.36793538  1
  Br  Br23  1  0.24837091  0.50138705  0.63206462  1
  Br  Br24  1  0.75078737  0.51547663  0.87404695  1
  Br  Br25  1  0.75078737  0.48452337  0.12595305  1
  Br  Br26  1  0.74921263  0.01547663  0.62595305  1
  Br  Br27  1  0.74921263  0.98452337  0.37404695  1
  Br  Br28  1  0.24921263  0.48452337  0.12595305  1
  Br  Br29  1  0.24921263  0.51547663  0.87404695  1
  Br  Br30  1  0.25078737  0.98452337  0.37404695  1
  Br  Br31  1  0.25078737  0.01547663  0.62595305  1
loop_
_geom_bond_atom_site_label_1
_geom_bond_atom_site_label_2
_geom_bond_distance
_geom_bond_site_symmetry_2
Br0 Ti0 2.636159 1_566
Br0 Ti6 2.863136 1_455
Br0 Ti11 2.863136 1_555
Br1 Ti0 2.636159 1_555
Br1 Ti7 2.863136 1_455
Br1 Ti10 2.863136 1_555
Br2 Ti1 2.636159 1_555
Br2 Ti8 2.863136 1_555
Br2 Ti13 2.863136 1_555
Br3 Ti1 2.636159 1_555
Br3 Ti12 2.863136 1_555
Br3 Ti9 2.863136 1_555
Br4 Ti11 2.493373 1_555
Br4 Ti6 2.493373 1_555
Br5 Ti10 2.493373 1_555
Br5 Ti7 2.493373 1_555
Br6 Ti8 2.493373 1_455
Br6 Ti13 2.493373 1_555
Br7 Ti9 2.493373 1_455
Br7 Ti12 2.493373 1_555
Br8 Ti6 2.792074 1_455
Br8 Ti11 2.792074 1_555
Br8 Ti4 2.813597 1_565
Br9 Ti7 2.792074 1_455
Br9 Ti10 2.792074 1_555
Br9 Ti5 2.813597 1_545
Br10 Ti13 2.792074 1_555
Br10 Ti8 2.792074 1_555
Br10 Ti2 2.813597 1_555
Br11 Ti12 2.792074 1_555
Br11 Ti9 2.792074 1_555
Br11 Ti3 2.813597 1_555
Br12 Ti11 2.547676 1_555
Br12 Ti6 2.547676 1_555
Br12 Ti2 2.563074 1_555
Br13 Ti10 2.547676 1_555
Br13 Ti7 2.547676 1_555
Br13 Ti3 2.563074 1_555
Br14 Ti13 2.547676 1_555
Br14 Ti8 2.547676 1_455
Br14 Ti4 2.563074 1_555
Br15 Ti12 2.547676 1_555
Br15 Ti9 2.547676 1_455
Br15 Ti5 2.563074 1_555
Br16 Ti4 2.717768 1_655
Br16 Ti0 2.728805 1_656
Br16 Ti6 2.758524 1_545
Br17 Ti5 2.717768 1_655
Br17 Ti0 2.728805 1_665
Br17 Ti7 2.758524 1_565
Br18 Ti2 2.717768 1_555
Br18 Ti1 2.728805 1_555
Br18 Ti8 2.758524 1_555
Br19 Ti3 2.717768 1_555
Br19 Ti1 2.728805 1_555
Br19 Ti9 2.758524 1_555
Br20 Ti5 2.717768 1_555
Br20 Ti0 2.728805 1_565
Br20 Ti10 2.758524 1_565
Br21 Ti4 2.717768 1_555
Br21 Ti0 2.728805 1_556
Br21 Ti11 2.758524 1_545
Br22 Ti3 2.717768 1_555
Br22 Ti1 2.728805 1_555
Br22 Ti12 2.758524 1_555
Br23 Ti2 2.717768 1_555
Br23 Ti1 2.728805 1_555
Br23 Ti13 2.758524 1_555
Br24 Ti6 2.509833 1_555
Br24 Ti2 2.519382 1_555
Br25 Ti7 2.509833 1_555
Br25 Ti3 2.519382 1_555
Br26 Ti8 2.509833 1_555
Br26 Ti4 2.519382 1_655
Br27 Ti9 2.509833 1_555
Br27 Ti5 2.519382 1_655
Br28 Ti10 2.509833 1_555
Br28 Ti3 2.519382 1_555
Br29 Ti11 2.509833 1_555
Br29 Ti2 2.519382 1_555
Br30 Ti12 2.509833 1_555
Br30 Ti5 2.519382 1_555
Br31 Ti13 2.509833 1_555
Br31 Ti4 2.519382 1_555
