# generated using pymatgen
data_Sm2C3
_symmetry_space_group_name_H-M   'P 1'
_cell_length_a   7.32897455
_cell_length_b   7.32897412
_cell_length_c   7.32897553
_cell_angle_alpha   109.47122748
_cell_angle_beta   109.47122623
_cell_angle_gamma   109.47121619
_symmetry_Int_Tables_number   1
_chemical_formula_structural   Sm2C3
_chemical_formula_sum   'Sm8 C12'
_cell_volume   303.04543025
_cell_formula_units_Z   4
loop_
 _symmetry_equiv_pos_site_id
 _symmetry_equiv_pos_as_xyz
  1  'x, y, z'
loop_
 _atom_site_type_symbol
 _atom_site_label
 _atom_site_symmetry_multiplicity
 _atom_site_fract_x
 _atom_site_fract_y
 _atom_site_fract_z
 _atom_site_occupancy
  Sm  Sm0  1  0.39804567  0.50000000  -0.00000000  1
  Sm  Sm1  1  -0.00000000  0.39804567  0.50000000  1
  Sm  Sm2  1  0.50000000  -0.00000000  0.39804567  1
  Sm  Sm3  1  0.89804567  0.50000000  -0.00000000  1
  Sm  Sm4  1  0.10195433  0.10195433  0.10195433  1
  Sm  Sm5  1  -0.00000000  0.89804567  0.50000000  1
  Sm  Sm6  1  0.60195433  0.60195433  0.60195433  1
  Sm  Sm7  1  0.50000000  -0.00000000  0.89804567  1
  C  C0  1  0.70336440  0.45336440  0.25000000  1
  C  C1  1  0.75000000  0.79663560  0.04663560  1
  C  C2  1  0.54663560  0.29663560  0.25000000  1
  C  C3  1  0.25000000  0.54663560  0.29663560  1
  C  C4  1  0.95336440  0.20336440  0.75000000  1
  C  C5  1  0.75000000  0.95336440  0.20336440  1
  C  C6  1  0.79663560  0.04663560  0.75000000  1
  C  C7  1  0.20336440  0.75000000  0.95336440  1
  C  C8  1  0.04663560  0.75000000  0.79663560  1
  C  C9  1  0.45336440  0.25000000  0.70336440  1
  C  C10  1  0.25000000  0.70336440  0.45336440  1
  C  C11  1  0.29663560  0.25000000  0.54663560  1
loop_
_geom_bond_atom_site_label_1
_geom_bond_atom_site_label_2
_geom_bond_distance
_geom_bond_site_symmetry_2
C0 C2 1.326360 1_555
C0 Sm0 2.583638 1_555
C0 Sm1 2.583638 1_655
C0 Sm5 2.710159 1_655
C0 Sm3 2.710160 1_555
C1 C5 1.326360 1_555
C1 Sm4 2.583638 1_665
C1 Sm0 2.583638 1_555
C1 Sm3 2.710159 1_555
C1 Sm6 2.710160 1_554
C2 Sm6 2.583638 1_555
C2 Sm7 2.583638 1_554
C2 Sm4 2.710160 1_555
C2 Sm2 2.710160 1_555
C3 Sm3 2.583638 1_455
C3 Sm6 2.583638 1_555
C3 Sm4 2.710159 1_555
C3 Sm0 2.710160 1_555
C4 C6 1.326360 1_555
C4 Sm5 2.583638 1_645
C4 Sm3 2.583638 1_556
C4 Sm0 2.710159 1_656
C4 Sm1 2.710160 1_655
C5 Sm5 2.583638 1_655
C5 Sm7 2.583638 1_564
C5 Sm1 2.710159 1_665
C5 Sm2 2.710160 1_565
C6 Sm4 2.583638 1_656
C6 Sm2 2.583638 1_555
C6 Sm6 2.710159 1_545
C6 Sm7 2.710160 1_555
C7 C8 1.326360 1_555
C7 Sm3 2.583638 1_456
C7 Sm7 2.583638 1_565
C7 Sm0 2.710159 1_556
C7 Sm2 2.710160 1_566
C8 Sm1 2.583638 1_555
C8 Sm4 2.583638 1_566
C8 Sm6 2.710159 1_455
C8 Sm5 2.710160 1_555
C9 Sm0 2.583638 1_556
C9 Sm2 2.583638 1_555
C9 Sm3 2.710159 1_556
C9 Sm7 2.710160 1_555
C10 C3 1.326360 1_555
C10 Sm1 2.583638 1_555
C10 Sm2 2.583638 1_565
C10 Sm5 2.710159 1_555
C10 Sm7 2.710160 1_565
C11 C9 1.326360 1_555
C11 Sm6 2.583638 1_555
C11 Sm5 2.583638 1_545
C11 Sm1 2.710159 1_555
C11 Sm4 2.710160 1_555
