# generated using pymatgen
data_CuAsSe
_symmetry_space_group_name_H-M   'P 1'
_cell_length_a   6.87068200
_cell_length_b   11.84695700
_cell_length_c   19.52236300
_cell_angle_alpha   90.00000000
_cell_angle_beta   90.00000000
_cell_angle_gamma   90.00000000
_symmetry_Int_Tables_number   1
_chemical_formula_structural   CuAsSe
_chemical_formula_sum   'Cu24 As24 Se24'
_cell_volume   1589.05542101
_cell_formula_units_Z   24
loop_
 _symmetry_equiv_pos_site_id
 _symmetry_equiv_pos_as_xyz
  1  'x, y, z'
loop_
 _atom_site_type_symbol
 _atom_site_label
 _atom_site_symmetry_multiplicity
 _atom_site_fract_x
 _atom_site_fract_y
 _atom_site_fract_z
 _atom_site_occupancy
  Cu  Cu0  1  0.53173000  0.16856400  0.69527700  1
  Cu  Cu1  1  0.81567600  0.16736000  0.86077600  1
  Cu  Cu2  1  0.03173000  0.66856400  0.80472300  1
  Cu  Cu3  1  0.96827000  0.66856400  0.30472300  1
  Cu  Cu4  1  0.81567600  0.83264000  0.63922400  1
  Cu  Cu5  1  0.46827000  0.83143600  0.30472300  1
  Cu  Cu6  1  0.35998400  0.32911100  0.52932200  1
  Cu  Cu7  1  0.31567600  0.33264000  0.86077600  1
  Cu  Cu8  1  0.14001600  0.82911100  0.47067800  1
  Cu  Cu9  1  0.64001600  0.32911100  0.02932200  1
  Cu  Cu10  1  0.68432400  0.66736000  0.13922400  1
  Cu  Cu11  1  0.31567600  0.66736000  0.63922400  1
  Cu  Cu12  1  0.35998400  0.67088900  0.97067800  1
  Cu  Cu13  1  0.18432400  0.16736000  0.36077600  1
  Cu  Cu14  1  0.46827000  0.16856400  0.19527700  1
  Cu  Cu15  1  0.85998400  0.17088900  0.52932200  1
  Cu  Cu16  1  0.64001600  0.67088900  0.47067800  1
  Cu  Cu17  1  0.18432400  0.83264000  0.13922400  1
  Cu  Cu18  1  0.96827000  0.33143600  0.19527700  1
  Cu  Cu19  1  0.03173000  0.33143600  0.69527700  1
  Cu  Cu20  1  0.53173000  0.83143600  0.80472300  1
  Cu  Cu21  1  0.85998400  0.82911100  0.97067800  1
  Cu  Cu22  1  0.68432400  0.33264000  0.36077600  1
  Cu  Cu23  1  0.14001600  0.17088900  0.02932200  1
  As  As0  1  0.99428600  0.98476600  0.18412700  1
  As  As1  1  0.00571400  0.01523400  0.81587300  1
  As  As2  1  0.00571400  0.98476600  0.68412700  1
  As  As3  1  0.35411400  0.98348900  0.85383700  1
  As  As4  1  0.82288300  0.48271000  0.98303000  1
  As  As5  1  0.17711700  0.48271000  0.48303000  1
  As  As6  1  0.67711700  0.01729000  0.48303000  1
  As  As7  1  0.64588600  0.01651100  0.14616300  1
  As  As8  1  0.32288300  0.98271000  0.51697000  1
  As  As9  1  0.99428600  0.01523400  0.31587300  1
  As  As10  1  0.49428600  0.51523400  0.18412700  1
  As  As11  1  0.14588600  0.48348900  0.14616300  1
  As  As12  1  0.67711700  0.98271000  0.01697000  1
  As  As13  1  0.50571400  0.48476600  0.81587300  1
  As  As14  1  0.64588600  0.98348900  0.35383700  1
  As  As15  1  0.32288300  0.01729000  0.98303000  1
  As  As16  1  0.82288300  0.51729000  0.51697000  1
  As  As17  1  0.85411400  0.51651100  0.85383700  1
  As  As18  1  0.17711700  0.51729000  0.01697000  1
  As  As19  1  0.50571400  0.51523400  0.68412700  1
  As  As20  1  0.85411400  0.48348900  0.64616300  1
  As  As21  1  0.35411400  0.01651100  0.64616300  1
  As  As22  1  0.49428600  0.48476600  0.31587300  1
  As  As23  1  0.14588600  0.51651100  0.35383700  1
  Se  Se0  1  0.01526200  0.33306400  0.31857500  1
  Se  Se1  1  0.31322800  0.33315000  0.98450500  1
  Se  Se2  1  0.68677200  0.33315000  0.48450500  1
  Se  Se3  1  0.13962300  0.83328900  0.34718500  1
  Se  Se4  1  0.51526200  0.16693600  0.31857500  1
  Se  Se5  1  0.51526200  0.83306400  0.18142500  1
  Se  Se6  1  0.48473800  0.16693600  0.81857500  1
  Se  Se7  1  0.81322800  0.83315000  0.51549500  1
  Se  Se8  1  0.36037700  0.33328900  0.65281500  1
  Se  Se9  1  0.31322800  0.66685000  0.51549500  1
  Se  Se10  1  0.86037700  0.16671100  0.65281500  1
  Se  Se11  1  0.68677200  0.66685000  0.01549500  1
  Se  Se12  1  0.63962300  0.33328900  0.15281500  1
  Se  Se13  1  0.01526200  0.66693600  0.18142500  1
  Se  Se14  1  0.18677200  0.16685000  0.48450500  1
  Se  Se15  1  0.98473800  0.66693600  0.68142500  1
  Se  Se16  1  0.98473800  0.33306400  0.81857500  1
  Se  Se17  1  0.86037700  0.83328900  0.84718500  1
  Se  Se18  1  0.48473800  0.83306400  0.68142500  1
  Se  Se19  1  0.13962300  0.16671100  0.15281500  1
  Se  Se20  1  0.18677200  0.83315000  0.01549500  1
  Se  Se21  1  0.81322800  0.16685000  0.98450500  1
  Se  Se22  1  0.63962300  0.66671100  0.34718500  1
  Se  Se23  1  0.36037700  0.66671100  0.84718500  1
loop_
_geom_bond_atom_site_label_1
_geom_bond_atom_site_label_2
_geom_bond_distance
_geom_bond_site_symmetry_2
Cu0 Se10 2.405483 1_555
Cu0 Se8 2.425191 1_555
Cu0 Se6 2.428702 1_555
Cu1 Se21 2.415549 1_555
Cu1 Se6 2.418430 1_555
Cu1 Se16 2.425224 1_555
Cu2 Se23 2.405483 1_555
Cu2 Se17 2.425191 1_455
Cu2 Se15 2.428702 1_455
Cu3 Se22 2.405483 1_555
Cu3 Se3 2.425191 1_655
Cu3 Se13 2.428702 1_655
Cu4 Se7 2.415549 1_555
Cu4 Se18 2.418430 1_555
Cu4 Se15 2.425224 1_555
Cu5 Se3 2.405483 1_555
Cu5 Se22 2.425191 1_555
Cu5 Se5 2.428702 1_555
Cu6 Se2 2.410182 1_555
Cu6 Se8 2.411385 1_555
Cu6 Se14 2.424262 1_555
Cu7 Se1 2.415549 1_555
Cu7 Se16 2.418430 1_455
Cu7 Se6 2.425224 1_555
Cu8 Se7 2.410182 1_455
Cu8 Se3 2.411385 1_555
Cu8 Se9 2.424262 1_555
Cu9 Se1 2.410182 1_554
Cu9 Se12 2.411385 1_555
Cu9 Se21 2.424262 1_554
Cu10 Se11 2.415549 1_555
Cu10 Se13 2.418430 1_655
Cu10 Se5 2.425224 1_555
Cu11 Se9 2.415549 1_555
Cu11 Se15 2.418430 1_455
Cu11 Se18 2.425224 1_555
Cu12 Se11 2.410182 1_556
Cu12 Se23 2.411385 1_555
Cu12 Se20 2.424262 1_556
Cu13 Se14 2.415549 1_555
Cu13 Se4 2.418430 1_555
Cu13 Se0 2.425224 1_555
Cu14 Se19 2.405483 1_555
Cu14 Se12 2.425191 1_555
Cu14 Se4 2.428702 1_555
Cu15 Se14 2.410182 1_655
Cu15 Se10 2.411385 1_555
Cu15 Se2 2.424262 1_555
Cu16 Se9 2.410182 1_555
Cu16 Se22 2.411385 1_555
Cu16 Se7 2.424262 1_555
Cu17 Se20 2.415549 1_555
Cu17 Se5 2.418430 1_555
Cu17 Se13 2.425224 1_555
Cu18 Se12 2.405483 1_555
Cu18 Se19 2.425191 1_655
Cu18 Se0 2.428702 1_655
Cu19 Se8 2.405483 1_555
Cu19 Se10 2.425191 1_455
Cu19 Se16 2.428702 1_455
Cu20 Se17 2.405483 1_555
Cu20 Se23 2.425191 1_555
Cu20 Se18 2.428702 1_555
Cu21 Se20 2.410182 1_656
Cu21 Se17 2.411385 1_555
Cu21 Se11 2.424262 1_556
Cu22 Se2 2.415549 1_555
Cu22 Se0 2.418430 1_655
Cu22 Se4 2.425224 1_555
Cu23 Se21 2.410182 1_454
Cu23 Se19 2.411385 1_555
Cu23 Se1 2.424262 1_554
As0 Cu17 2.391926 1_655
As0 Se19 2.452948 1_665
As0 As7 2.533921 1_565
As0 As9 2.597198 1_565
As1 Cu1 2.391926 1_455
As1 Se17 2.452948 1_445
As1 As3 2.533921 1_545
As1 As2 2.597198 1_545
As2 Cu4 2.391926 1_455
As2 Se10 2.452948 1_465
As2 As21 2.533921 1_565
As3 Cu20 2.377707 1_555
As3 Se6 2.450008 1_565
As4 Cu9 2.388840 1_556
As4 Se11 2.456661 1_556
As5 Cu6 2.388840 1_555
As5 Se9 2.456661 1_555
As6 Cu15 2.388840 1_555
As6 Se7 2.456661 1_545
As6 As8 2.555460 1_545
As7 Cu14 2.377707 1_555
As7 Se5 2.450008 1_545
As8 Cu8 2.388840 1_555
As8 Se14 2.456661 1_565
As9 Cu13 2.391926 1_655
As9 Se3 2.452948 1_645
As10 Cu10 2.391926 1_555
As10 Se12 2.452948 1_555
As10 As11 2.533921 1_555
As10 As22 2.597198 1_555
As11 Cu18 2.377707 1_455
As11 Se13 2.450008 1_555
As11 As18 2.562743 1_555
As12 Cu21 2.388840 1_554
As12 Se21 2.456661 1_564
As12 As15 2.555460 1_564
As12 As7 2.562743 1_565
As13 Cu7 2.391926 1_555
As13 Se23 2.452948 1_555
As13 As17 2.533921 1_555
As13 As19 2.597198 1_555
As14 Cu5 2.377707 1_555
As14 Se4 2.450008 1_565
As14 As9 2.533921 1_565
As14 As6 2.562743 1_565
As15 Cu23 2.388840 1_556
As15 Se20 2.456661 1_546
As15 As3 2.562743 1_545
As16 Cu16 2.388840 1_555
As16 Se2 2.456661 1_555
As16 As5 2.555460 1_655
As16 As20 2.562743 1_555
As17 Cu2 2.377707 1_655
As17 Se16 2.450008 1_555
As17 As4 2.562743 1_555
As18 Cu12 2.388840 1_554
As18 Se1 2.456661 1_554
As18 As4 2.555460 1_454
As19 Cu11 2.391926 1_555
As19 Se8 2.452948 1_555
As19 As20 2.533921 1_555
As20 Cu19 2.377707 1_655
As20 Se15 2.450008 1_555
As21 Cu0 2.377707 1_555
As21 Se18 2.450008 1_545
As21 As8 2.562743 1_545
As22 Cu22 2.391926 1_555
As22 Se22 2.452948 1_555
As22 As23 2.533921 1_555
As23 Cu3 2.377707 1_455
As23 Se0 2.450008 1_555
As23 As5 2.562743 1_555
