# generated using pymatgen
data_Ni3B7BrO13
_symmetry_space_group_name_H-M   'P 1'
_cell_length_a   8.59568900
_cell_length_b   8.61207900
_cell_length_c   12.17464700
_cell_angle_alpha   90.00000000
_cell_angle_beta   90.00000000
_cell_angle_gamma   90.00000000
_symmetry_Int_Tables_number   1
_chemical_formula_structural   Ni3B7BrO13
_chemical_formula_sum   'Ni12 B28 Br4 O52'
_cell_volume   901.24958301
_cell_formula_units_Z   4
loop_
 _symmetry_equiv_pos_site_id
 _symmetry_equiv_pos_as_xyz
  1  'x, y, z'
loop_
 _atom_site_type_symbol
 _atom_site_label
 _atom_site_symmetry_multiplicity
 _atom_site_fract_x
 _atom_site_fract_y
 _atom_site_fract_z
 _atom_site_occupancy
  Ni  Ni0  1  0.97229900  0.01313200  0.50654500  1
  Ni  Ni1  1  0.25048700  0.74228100  0.23179500  1
  Ni  Ni2  1  0.52726300  0.01298400  0.50462600  1
  Ni  Ni3  1  0.02770100  0.98686800  0.00654500  1
  Ni  Ni4  1  0.02770100  0.51313200  0.50654500  1
  Ni  Ni5  1  0.74951300  0.25771900  0.73179500  1
  Ni  Ni6  1  0.74951300  0.24228100  0.23179500  1
  Ni  Ni7  1  0.47273700  0.98701600  0.00462600  1
  Ni  Ni8  1  0.47273700  0.51298400  0.50462600  1
  Ni  Ni9  1  0.52726300  0.48701600  0.00462600  1
  Ni  Ni10  1  0.97229900  0.48686800  0.00654500  1
  Ni  Ni11  1  0.25048700  0.75771900  0.73179500  1
  B  B0  1  0.75010300  0.95393200  0.85389600  1
  B  B1  1  0.50173400  0.49907400  0.25324100  1
  B  B2  1  0.50173400  0.00092600  0.75324100  1
  B  B3  1  0.59681100  0.75347800  0.17302300  1
  B  B4  1  0.99680900  0.00290400  0.75360400  1
  B  B5  1  0.09601600  0.24804100  0.67395000  1
  B  B6  1  0.24989700  0.04606800  0.35389600  1
  B  B7  1  0.99680900  0.49709600  0.25360400  1
  B  B8  1  0.49826600  0.50092600  0.75324100  1
  B  B9  1  0.75403600  0.74417700  0.50115700  1
  B  B10  1  0.24925700  0.40583200  0.32654200  1
  B  B11  1  0.40318900  0.24652200  0.67302300  1
  B  B12  1  0.24989700  0.45393200  0.85389600  1
  B  B13  1  0.40318900  0.25347800  0.17302300  1
  B  B14  1  0.90398400  0.74804100  0.67395000  1
  B  B15  1  0.90398400  0.75195900  0.17395000  1
  B  B16  1  0.24925700  0.09416800  0.82654200  1
  B  B17  1  0.09601600  0.25195900  0.17395000  1
  B  B18  1  0.75403600  0.75582300  0.00115700  1
  B  B19  1  0.00319100  0.99709600  0.25360400  1
  B  B20  1  0.75074300  0.90583200  0.32654200  1
  B  B21  1  0.75074300  0.59416800  0.82654200  1
  B  B22  1  0.59681100  0.74652200  0.67302300  1
  B  B23  1  0.00319100  0.50290400  0.75360400  1
  B  B24  1  0.24596400  0.25582300  0.00115700  1
  B  B25  1  0.24596400  0.24417700  0.50115700  1
  B  B26  1  0.75010300  0.54606800  0.35389600  1
  B  B27  1  0.49826600  0.99907400  0.25324100  1
  Br  Br0  1  0.25086100  0.77950100  0.01714100  1
  Br  Br1  1  0.74913900  0.27950100  0.01714100  1
  Br  Br2  1  0.74913900  0.22049900  0.51714100  1
  Br  Br3  1  0.25086100  0.72049900  0.51714100  1
  O  O0  1  0.02730500  0.66941400  0.73334200  1
  O  O1  1  0.82731100  0.85850700  0.42811300  1
  O  O2  1  0.82731100  0.64149300  0.92811300  1
  O  O3  1  0.91051100  0.96290600  0.85745200  1
  O  O4  1  0.17268900  0.35850700  0.42811300  1
  O  O5  1  0.08948900  0.46290600  0.85745200  1
  O  O6  1  0.66894400  0.45894100  0.27766700  1
  O  O7  1  0.94076300  0.58754300  0.15890000  1
  O  O8  1  0.32922700  0.11831700  0.43842700  1
  O  O9  1  0.66894400  0.04105900  0.77766700  1
  O  O10  1  0.67077300  0.61831700  0.43842700  1
  O  O11  1  0.74973300  0.73269800  0.74309600  1
  O  O12  1  0.59113800  0.54929300  0.84854400  1
  O  O13  1  0.83795400  0.03215000  0.27391900  1
  O  O14  1  0.36312300  0.17730600  0.06987500  1
  O  O15  1  0.02730500  0.83058600  0.23334200  1
  O  O16  1  0.63687700  0.67730600  0.06987500  1
  O  O17  1  0.54290300  0.58745700  0.65444300  1
  O  O18  1  0.47989800  0.83429800  0.73363200  1
  O  O19  1  0.52010200  0.16570200  0.23363200  1
  O  O20  1  0.33105600  0.54105900  0.77766700  1
  O  O21  1  0.16204600  0.96785000  0.77391900  1
  O  O22  1  0.97269500  0.16941400  0.73334200  1
  O  O23  1  0.40886200  0.04929300  0.84854400  1
  O  O24  1  0.45709700  0.08745700  0.65444300  1
  O  O25  1  0.25026700  0.26730200  0.24309600  1
  O  O26  1  0.67077300  0.88168300  0.93842700  1
  O  O27  1  0.59113800  0.95070700  0.34854400  1
  O  O28  1  0.47989800  0.66570200  0.23363200  1
  O  O29  1  0.36312300  0.32269400  0.56987500  1
  O  O30  1  0.05923700  0.08754300  0.15890000  1
  O  O31  1  0.05923700  0.41245700  0.65890000  1
  O  O32  1  0.83795400  0.46785000  0.77391900  1
  O  O33  1  0.08948900  0.03709400  0.35745200  1
  O  O34  1  0.87516500  0.82811200  0.06883000  1
  O  O35  1  0.63687700  0.82269400  0.56987500  1
  O  O36  1  0.40886200  0.45070700  0.34854400  1
  O  O37  1  0.97269500  0.33058600  0.23334200  1
  O  O38  1  0.54290300  0.91254300  0.15444300  1
  O  O39  1  0.45709700  0.41254300  0.15444300  1
  O  O40  1  0.12483500  0.17188800  0.56883000  1
  O  O41  1  0.87516500  0.67188800  0.56883000  1
  O  O42  1  0.17268900  0.14149300  0.92811300  1
  O  O43  1  0.94076300  0.91245700  0.65890000  1
  O  O44  1  0.33105600  0.95894100  0.27766700  1
  O  O45  1  0.12483500  0.32811200  0.06883000  1
  O  O46  1  0.91051100  0.53709400  0.35745200  1
  O  O47  1  0.25026700  0.23269800  0.74309600  1
  O  O48  1  0.74973300  0.76730200  0.24309600  1
  O  O49  1  0.32922700  0.38168300  0.93842700  1
  O  O50  1  0.52010200  0.33429800  0.73363200  1
  O  O51  1  0.16204600  0.53215000  0.27391900  1
loop_
_geom_bond_atom_site_label_1
_geom_bond_atom_site_label_2
_geom_bond_distance
_geom_bond_site_symmetry_2
Ni0 O40 2.040447 1_655
Ni0 O1 2.058705 1_545
Ni0 O43 2.065368 1_545
Ni0 O33 2.086165 1_655
Ni1 O51 2.028748 1_555
Ni1 O15 2.063727 1_555
Ni1 O44 2.067141 1_555
Ni1 O28 2.079427 1_555
Ni2 O24 2.025333 1_555
Ni2 O27 2.049399 1_545
Ni2 O35 2.050474 1_545
Ni2 O8 2.090485 1_555
Ni3 O34 2.040447 1_455
Ni3 O42 2.058705 1_564
Ni3 O30 2.065368 1_565
Ni3 O3 2.086165 1_454
Ni4 O41 2.040447 1_455
Ni4 O4 2.058705 1_555
Ni4 O31 2.065368 1_555
Ni4 O46 2.086165 1_455
Ni5 O32 2.028748 1_555
Ni5 O22 2.063727 1_555
Ni5 O9 2.067141 1_555
Ni5 O50 2.079427 1_555
Ni6 O13 2.028748 1_555
Ni6 O37 2.063727 1_555
Ni6 O6 2.067141 1_555
Ni6 O19 2.079427 1_555
Ni7 O38 2.025333 1_555
Ni7 O23 2.049399 1_564
Ni7 O14 2.050474 1_565
Ni7 O26 2.090485 1_554
Ni8 O17 2.025333 1_555
Ni8 O36 2.049399 1_555
Ni8 O29 2.050474 1_555
Ni8 O10 2.090485 1_555
Ni9 O39 2.025333 1_555
Ni9 O12 2.049399 1_554
Ni9 O16 2.050474 1_555
Ni9 O49 2.090485 1_554
Ni10 O45 2.040447 1_655
Ni10 O2 2.058705 1_554
Ni10 O7 2.065368 1_555
Ni10 O5 2.086165 1_654
Ni11 O21 2.028748 1_555
Ni11 O0 2.063727 1_555
Ni11 O20 2.067141 1_555
Ni11 O18 2.079427 1_555
B0 O3 1.381660 1_555
B0 O9 1.382384 1_565
B0 O26 1.382480 1_555
B1 O39 1.466069 1_555
B1 O28 1.466795 1_555
B1 O36 1.468686 1_555
B1 O6 1.507873 1_555
B2 O24 1.466069 1_555
B2 O18 1.466795 1_545
B2 O23 1.468686 1_555
B2 O9 1.507873 1_555
B3 O28 1.458027 1_555
B3 O16 1.458065 1_555
B3 O38 1.463714 1_555
B3 O48 1.571562 1_555
B4 O22 1.469750 1_555
B4 O43 1.472484 1_545
B4 O21 1.472967 1_645
B4 O3 1.505788 1_545
B5 O22 1.450870 1_455
B5 O40 1.459236 1_555
B5 O31 1.462351 1_555
B5 O47 1.576112 1_555
B6 O33 1.381660 1_555
B6 O44 1.382384 1_545
B6 O8 1.382480 1_555
B7 O37 1.469750 1_555
B7 O7 1.472484 1_555
B7 O51 1.472967 1_655
B7 O46 1.505788 1_555
B8 O17 1.466069 1_555
B8 O50 1.466795 1_555
B8 O12 1.468686 1_555
B8 O20 1.507873 1_555
B9 O41 1.466442 1_555
B9 O1 1.468677 1_555
B9 O35 1.473548 1_555
B9 O10 1.506774 1_555
B10 O36 1.450262 1_555
B10 O4 1.458916 1_555
B10 O51 1.468282 1_555
B10 O25 1.567005 1_555
B11 O50 1.458027 1_555
B11 O29 1.458065 1_555
B11 O24 1.463714 1_555
B11 O47 1.571562 1_555
B12 O5 1.381660 1_555
B12 O20 1.382384 1_555
B12 O49 1.382480 1_555
B13 O19 1.458027 1_555
B13 O14 1.458065 1_555
B13 O39 1.463714 1_555
B13 O25 1.571562 1_555
B14 O0 1.450870 1_655
B14 O41 1.459236 1_555
B14 O43 1.462351 1_555
B14 O11 1.576112 1_555
B15 O15 1.450870 1_655
B15 O34 1.459236 1_555
B15 O7 1.462351 1_555
B15 O48 1.576112 1_555
B16 O23 1.450262 1_555
B16 O42 1.458916 1_555
B16 O21 1.468282 1_545
B16 O47 1.567005 1_555
B17 O37 1.450870 1_455
B17 O45 1.459236 1_555
B17 O30 1.462351 1_555
B17 O25 1.576112 1_555
B18 O34 1.466442 1_555
B18 O2 1.468677 1_554
B18 O16 1.473548 1_555
B18 O26 1.506774 1_554
B19 O15 1.469750 1_555
B19 O30 1.472484 1_565
B19 O13 1.472967 1_465
B19 O33 1.505788 1_565
B20 O27 1.450262 1_555
B20 O1 1.458916 1_555
B20 O13 1.468282 1_565
B20 O48 1.567005 1_555
B21 O12 1.450262 1_555
B21 O2 1.458916 1_555
B21 O32 1.468282 1_555
B21 O11 1.567005 1_555
B22 O18 1.458027 1_555
B22 O35 1.458065 1_555
B22 O17 1.463714 1_555
B22 O11 1.571562 1_555
B23 O0 1.469750 1_555
B23 O31 1.472484 1_555
B23 O32 1.472967 1_455
B23 O5 1.505788 1_555
B24 O45 1.466442 1_555
B24 O42 1.468677 1_554
B24 O14 1.473548 1_555
B24 O49 1.506774 1_554
B25 O40 1.466442 1_555
B25 O4 1.468677 1_555
B25 O29 1.473548 1_555
B25 O8 1.506774 1_555
B26 O46 1.381660 1_555
B26 O6 1.382384 1_555
B26 O10 1.382480 1_555
B27 O38 1.466069 1_555
B27 O19 1.466795 1_565
B27 O27 1.468686 1_555
B27 O44 1.507873 1_555
Br0 Ni7 2.618090 1_555
Br0 Ni3 2.624021 1_555
Br0 Ni1 2.632923 1_555
Br1 Ni9 2.618090 1_555
Br1 Ni10 2.624021 1_555
Br1 Ni6 2.632923 1_555
Br2 Ni2 2.618090 1_555
Br2 Ni0 2.624021 1_555
Br2 Ni5 2.632923 1_555
Br3 Ni8 2.618090 1_555
Br3 Ni4 2.624021 1_555
Br3 Ni11 2.632923 1_555
