# generated using pymatgen
data_Fe3(P2O7)2
_symmetry_space_group_name_H-M   'P 1'
_cell_length_a   8.98779732
_cell_length_b   10.17781339
_cell_length_c   12.15140324
_cell_angle_alpha   90.00000000
_cell_angle_beta   90.00000000
_cell_angle_gamma   90.00000000
_symmetry_Int_Tables_number   1
_chemical_formula_structural   Fe3(P2O7)2
_chemical_formula_sum   'Fe12 P16 O56'
_cell_volume   1111.56326846
_cell_formula_units_Z   4
loop_
 _symmetry_equiv_pos_site_id
 _symmetry_equiv_pos_as_xyz
  1  'x, y, z'
loop_
 _atom_site_type_symbol
 _atom_site_label
 _atom_site_symmetry_multiplicity
 _atom_site_fract_x
 _atom_site_fract_y
 _atom_site_fract_z
 _atom_site_occupancy
  Fe  Fe0  1  0.74973299  0.38001660  0.51461043  1
  Fe  Fe1  1  0.24694653  0.61809354  0.25000000  1
  Fe  Fe2  1  0.25026701  0.61998340  0.01461043  1
  Fe  Fe3  1  0.74694653  0.88190646  0.25000000  1
  Fe  Fe4  1  0.75026701  0.88001660  0.01461043  1
  Fe  Fe5  1  0.75026701  0.88001660  0.48538957  1
  Fe  Fe6  1  0.75305347  0.38190646  0.75000000  1
  Fe  Fe7  1  0.74973299  0.38001660  0.98538957  1
  Fe  Fe8  1  0.25026701  0.61998340  0.48538957  1
  Fe  Fe9  1  0.25305347  0.11809354  0.75000000  1
  Fe  Fe10  1  0.24973299  0.11998340  0.51461043  1
  Fe  Fe11  1  0.24973299  0.11998340  0.98538957  1
  P  P0  1  0.42829255  0.86383874  0.62694425  1
  P  P1  1  0.08732526  0.88227415  0.13378547  1
  P  P2  1  0.57170745  0.13616126  0.12694425  1
  P  P3  1  0.58732526  0.61772585  0.36621453  1
  P  P4  1  0.92829255  0.63616126  0.62694425  1
  P  P5  1  0.07170745  0.36383874  0.37305575  1
  P  P6  1  0.42829255  0.86383874  0.87305575  1
  P  P7  1  0.41267474  0.38227415  0.86621453  1
  P  P8  1  0.91267474  0.11772585  0.86621453  1
  P  P9  1  0.07170745  0.36383874  0.12694425  1
  P  P10  1  0.58732526  0.61772585  0.13378547  1
  P  P11  1  0.57170745  0.13616126  0.37305575  1
  P  P12  1  0.91267474  0.11772585  0.63378547  1
  P  P13  1  0.08732526  0.88227415  0.36621453  1
  P  P14  1  0.41267474  0.38227415  0.63378547  1
  P  P15  1  0.92829255  0.63616126  0.87305575  1
  O  O0  1  0.34267432  0.24540211  0.63171971  1
  O  O1  1  0.08203754  0.12724768  0.63573609  1
  O  O2  1  0.36715017  0.44380803  0.75000000  1
  O  O3  1  0.92176343  0.39293898  0.07816530  1
  O  O4  1  0.34734862  0.75484368  0.56971547  1
  O  O5  1  0.42176343  0.10706102  0.07816530  1
  O  O6  1  0.42176343  0.10706102  0.42183470  1
  O  O7  1  0.57823657  0.89293898  0.57816530  1
  O  O8  1  0.33452841  0.98914721  0.63572514  1
  O  O9  1  0.84734862  0.74515632  0.56971547  1
  O  O10  1  0.65265138  0.24515632  0.06971547  1
  O  O11  1  0.91796246  0.87275232  0.36426391  1
  O  O12  1  0.64659622  0.53045437  0.04673678  1
  O  O13  1  0.34267432  0.24540211  0.86828029  1
  O  O14  1  0.08203754  0.12724768  0.86426391  1
  O  O15  1  0.35340378  0.46954563  0.95326322  1
  O  O16  1  0.15732568  0.74540211  0.36828029  1
  O  O17  1  0.64659622  0.53045437  0.45326322  1
  O  O18  1  0.04446317  0.31537807  0.25000000  1
  O  O19  1  0.15732568  0.74540211  0.13171971  1
  O  O20  1  0.07823657  0.60706102  0.57816530  1
  O  O21  1  0.54446317  0.18462193  0.25000000  1
  O  O22  1  0.65732568  0.75459789  0.36828029  1
  O  O23  1  0.95553683  0.68462193  0.75000000  1
  O  O24  1  0.84267432  0.25459789  0.86828029  1
  O  O25  1  0.83452841  0.51085279  0.86427486  1
  O  O26  1  0.86715017  0.05619197  0.75000000  1
  O  O27  1  0.16547159  0.48914721  0.13572514  1
  O  O28  1  0.65732568  0.75459789  0.13171971  1
  O  O29  1  0.66547159  0.01085279  0.36427486  1
  O  O30  1  0.14659622  0.96954563  0.45326322  1
  O  O31  1  0.58203754  0.37275232  0.86426391  1
  O  O32  1  0.84734862  0.74515632  0.93028453  1
  O  O33  1  0.15265138  0.25484368  0.43028453  1
  O  O34  1  0.41796246  0.62724768  0.13573609  1
  O  O35  1  0.45553683  0.81537807  0.75000000  1
  O  O36  1  0.63284983  0.55619197  0.25000000  1
  O  O37  1  0.57823657  0.89293898  0.92183470  1
  O  O38  1  0.33452841  0.98914721  0.86427486  1
  O  O39  1  0.66547159  0.01085279  0.13572514  1
  O  O40  1  0.84267432  0.25459789  0.63171971  1
  O  O41  1  0.58203754  0.37275232  0.63573609  1
  O  O42  1  0.91796246  0.87275232  0.13573609  1
  O  O43  1  0.14659622  0.96954563  0.04673678  1
  O  O44  1  0.65265138  0.24515632  0.43028453  1
  O  O45  1  0.15265138  0.25484368  0.06971547  1
  O  O46  1  0.13284983  0.94380803  0.25000000  1
  O  O47  1  0.85340378  0.03045437  0.95326322  1
  O  O48  1  0.85340378  0.03045437  0.54673678  1
  O  O49  1  0.16547159  0.48914721  0.36427486  1
  O  O50  1  0.92176343  0.39293898  0.42183470  1
  O  O51  1  0.34734862  0.75484368  0.93028453  1
  O  O52  1  0.83452841  0.51085279  0.63572514  1
  O  O53  1  0.35340378  0.46954563  0.54673678  1
  O  O54  1  0.41796246  0.62724768  0.36426391  1
  O  O55  1  0.07823657  0.60706102  0.92183470  1
loop_
_geom_bond_atom_site_label_1
_geom_bond_atom_site_label_2
_geom_bond_distance
_geom_bond_site_symmetry_2
Fe0 O50 1.918042 1_555
Fe0 O44 1.922314 1_555
Fe0 O17 1.938900 1_555
Fe0 O40 2.086207 1_555
Fe0 O41 2.107959 1_555
Fe0 O52 2.126030 1_555
Fe1 O49 2.046171 1_555
Fe1 O27 2.046171 1_555
Fe1 O34 2.073418 1_555
Fe1 O54 2.073418 1_555
Fe1 O19 2.096060 1_555
Fe1 O16 2.096060 1_555
Fe2 O55 1.918042 1_554
Fe2 O51 1.922314 1_554
Fe2 O15 1.938900 1_554
Fe2 O19 2.086207 1_555
Fe2 O34 2.107959 1_555
Fe2 O27 2.126030 1_555
Fe3 O29 2.046171 1_565
Fe3 O39 2.046171 1_565
Fe3 O11 2.073418 1_555
Fe3 O42 2.073418 1_555
Fe3 O22 2.096060 1_555
Fe3 O28 2.096060 1_555
Fe4 O37 1.918042 1_554
Fe4 O32 1.922314 1_554
Fe4 O47 1.938900 1_564
Fe4 O28 2.086207 1_555
Fe4 O42 2.107959 1_555
Fe4 O39 2.126030 1_565
Fe5 O7 1.918042 1_555
Fe5 O9 1.922314 1_555
Fe5 O48 1.938900 1_565
Fe5 O22 2.086207 1_555
Fe5 O11 2.107959 1_555
Fe5 O29 2.126030 1_565
Fe6 O52 2.046171 1_555
Fe6 O25 2.046171 1_555
Fe6 O31 2.073418 1_555
Fe6 O41 2.073418 1_555
Fe6 O40 2.096060 1_555
Fe6 O24 2.096060 1_555
Fe7 O3 1.918042 1_556
Fe7 O10 1.922314 1_556
Fe7 O12 1.938900 1_556
Fe7 O24 2.086207 1_555
Fe7 O31 2.107959 1_555
Fe7 O25 2.126030 1_555
Fe8 O20 1.918042 1_555
Fe8 O4 1.922314 1_555
Fe8 O53 1.938900 1_555
Fe8 O16 2.086207 1_555
Fe8 O54 2.107959 1_555
Fe8 O49 2.126030 1_555
Fe9 O8 2.046171 1_545
Fe9 O38 2.046171 1_545
Fe9 O1 2.073418 1_555
Fe9 O14 2.073418 1_555
Fe9 O0 2.096060 1_555
Fe9 O13 2.096060 1_555
Fe10 O6 1.918042 1_555
Fe10 O33 1.922314 1_555
Fe10 O30 1.938900 1_545
Fe10 O0 2.086207 1_555
Fe10 O1 2.107959 1_555
Fe10 O8 2.126030 1_545
Fe11 O5 1.918042 1_556
Fe11 O45 1.922314 1_556
Fe11 O43 1.938900 1_546
Fe11 O13 2.086207 1_555
Fe11 O14 2.107959 1_555
Fe11 O38 2.126030 1_545
O0 P14 1.528748 1_555
O1 P12 1.525465 1_455
O2 P7 1.598082 1_555
O2 P14 1.598082 1_555
O3 P9 1.501752 1_655
O4 P0 1.497825 1_555
O5 P2 1.501752 1_555
O6 P11 1.501752 1_555
O7 P0 1.501752 1_555
O8 P0 1.532365 1_555
O9 P4 1.497825 1_555
O10 P2 1.497825 1_555
O11 P13 1.525465 1_655
O12 P10 1.480408 1_555
O13 P7 1.528748 1_555
O14 P8 1.525465 1_455
O15 P7 1.480408 1_555
O16 P13 1.528748 1_555
O17 P3 1.480408 1_555
O18 P9 1.593471 1_555
O18 P5 1.593471 1_555
O19 P1 1.528748 1_555
O20 P4 1.501752 1_455
O21 P2 1.593471 1_555
O21 P11 1.593471 1_555
O22 P3 1.528748 1_555
O23 P15 1.593471 1_555
O23 P4 1.593471 1_555
O24 P8 1.528748 1_555
O25 P15 1.532365 1_555
O26 P12 1.598082 1_555
O26 P8 1.598082 1_555
O27 P9 1.532365 1_555
O28 P10 1.528748 1_555
O29 P11 1.532365 1_555
O30 P13 1.480408 1_555
O31 P7 1.525465 1_555
O32 P15 1.497825 1_555
O33 P5 1.497825 1_555
O34 P10 1.525465 1_555
O35 P0 1.593471 1_555
O35 P6 1.593471 1_555
O36 P3 1.598082 1_555
O36 P10 1.598082 1_555
O37 P6 1.501752 1_555
O38 P6 1.532365 1_555
O39 P2 1.532365 1_555
O40 P12 1.528748 1_555
O41 P14 1.525465 1_555
O42 P1 1.525465 1_655
O43 P1 1.480408 1_555
O44 P11 1.497825 1_555
O45 P9 1.497825 1_555
O46 P13 1.598082 1_555
O46 P1 1.598082 1_555
O47 P8 1.480408 1_555
O48 P12 1.480408 1_555
O49 P5 1.532365 1_555
O50 P5 1.501752 1_655
O51 P6 1.497825 1_555
O52 P4 1.532365 1_555
O53 P14 1.480408 1_555
O54 P3 1.525465 1_555
O55 P15 1.501752 1_455
