# generated using pymatgen
data_KCu4(PO4)3
_symmetry_space_group_name_H-M   'P 1'
_cell_length_a   7.53348600
_cell_length_b   7.92450209
_cell_length_c   9.61166253
_cell_angle_alpha   108.12777238
_cell_angle_beta   112.77590186
_cell_angle_gamma   92.32652412
_symmetry_Int_Tables_number   1
_chemical_formula_structural   KCu4(PO4)3
_chemical_formula_sum   'K2 Cu8 P6 O24'
_cell_volume   494.24101194
_cell_formula_units_Z   2
loop_
 _symmetry_equiv_pos_site_id
 _symmetry_equiv_pos_as_xyz
  1  'x, y, z'
loop_
 _atom_site_type_symbol
 _atom_site_label
 _atom_site_symmetry_multiplicity
 _atom_site_fract_x
 _atom_site_fract_y
 _atom_site_fract_z
 _atom_site_occupancy
  K  K0  1  0.69394000  0.86421800  0.67244500  1
  K  K1  1  0.30606000  0.13578200  0.32755500  1
  Cu  Cu0  1  0.73542400  0.10004600  0.09971500  1
  Cu  Cu1  1  0.69351200  0.38205700  0.71423600  1
  Cu  Cu2  1  0.26457600  0.89995400  0.90028500  1
  Cu  Cu3  1  0.30648800  0.61794300  0.28576400  1
  Cu  Cu4  1  0.73601400  0.46818900  0.07688300  1
  Cu  Cu5  1  0.26398600  0.53181100  0.92311700  1
  Cu  Cu6  1  0.02336000  0.79067000  0.45385800  1
  Cu  Cu7  1  0.97664000  0.20933000  0.54614200  1
  P  P0  1  0.29859700  0.55152900  0.61413200  1
  P  P1  1  0.38335800  0.14752100  0.74864200  1
  P  P2  1  0.70140300  0.44847100  0.38586800  1
  P  P3  1  0.97864400  0.74861800  0.05590400  1
  P  P4  1  0.02135600  0.25138200  0.94409600  1
  P  P5  1  0.61664200  0.85247900  0.25135800  1
  O  O0  1  0.81757700  0.57551500  0.94821200  1
  O  O1  1  0.55103600  0.98323500  0.15473200  1
  O  O2  1  0.25049900  0.67632000  0.51045400  1
  O  O3  1  0.89536600  0.92028300  0.06329000  1
  O  O4  1  0.18242300  0.42448500  0.05178800  1
  O  O5  1  0.13326700  0.74461400  0.98286900  1
  O  O6  1  0.44896400  0.01676500  0.84526800  1
  O  O7  1  0.51495700  0.53896500  0.65643400  1
  O  O8  1  0.08294600  0.74086100  0.22970700  1
  O  O9  1  0.40485800  0.33937700  0.86554800  1
  O  O10  1  0.26917300  0.64838200  0.77175600  1
  O  O11  1  0.86673300  0.25538600  0.01713100  1
  O  O12  1  0.51283900  0.15156700  0.65824500  1
  O  O13  1  0.83801100  0.63371000  0.48048300  1
  O  O14  1  0.73082700  0.35161800  0.22824400  1
  O  O15  1  0.83418700  0.93655300  0.37707400  1
  O  O16  1  0.10463400  0.07971700  0.93671000  1
  O  O17  1  0.91705400  0.25913900  0.77029300  1
  O  O18  1  0.16198900  0.36629000  0.51951700  1
  O  O19  1  0.59514200  0.66062300  0.13445200  1
  O  O20  1  0.74950100  0.32368000  0.48954600  1
  O  O21  1  0.48716100  0.84843300  0.34175500  1
  O  O22  1  0.48504300  0.46103500  0.34356600  1
  O  O23  1  0.16581300  0.06344700  0.62292600  1
loop_
_geom_bond_atom_site_label_1
_geom_bond_atom_site_label_2
_geom_bond_distance
_geom_bond_site_symmetry_2
K0 O12 2.714153 1_565
K0 O13 2.744664 1_555
K0 O7 2.792036 1_555
K0 O21 2.906578 1_555
K0 O6 2.988604 1_565
K0 O16 3.118937 1_665
K0 O2 3.150813 1_555
K0 O17 3.165635 1_565
K0 O3 3.332505 1_556
K1 O21 2.714153 1_545
K1 O18 2.744664 1_555
K1 O22 2.792036 1_555
K1 O12 2.906578 1_555
K1 O1 2.988604 1_545
K1 O3 3.118937 1_445
K1 O20 3.150813 1_555
K1 O8 3.165635 1_545
K1 O16 3.332505 1_554
Cu0 O3 1.938898 1_545
Cu0 O1 1.958314 1_545
Cu0 O14 2.001975 1_555
Cu0 O11 2.059389 1_555
Cu0 O6 2.422301 1_554
Cu1 O7 1.910812 1_555
Cu1 O17 1.957643 1_555
Cu1 O12 2.024283 1_555
Cu1 O0 2.095759 1_555
Cu1 O20 2.270553 1_555
Cu2 O16 1.938898 1_565
Cu2 O6 1.958314 1_565
Cu2 O10 2.001975 1_555
Cu2 O5 2.059389 1_555
Cu2 O1 2.422301 1_556
Cu3 O22 1.910812 1_555
Cu3 O8 1.957643 1_555
Cu3 O21 2.024283 1_555
Cu3 O4 2.095759 1_555
Cu3 O2 2.270553 1_555
Cu4 O19 1.954195 1_555
Cu4 O0 1.957276 1_554
Cu4 O14 1.961831 1_555
Cu4 O11 2.028167 1_555
Cu4 O9 2.443623 1_554
Cu5 O9 1.954195 1_555
Cu5 O4 1.957276 1_556
Cu5 O10 1.961831 1_555
Cu5 O5 2.028167 1_555
Cu5 O19 2.443623 1_556
Cu6 O2 1.938302 1_555
Cu6 O15 1.939707 1_455
Cu6 O13 1.973844 1_455
Cu6 O23 2.177284 1_565
Cu6 O8 2.287579 1_555
Cu7 O20 1.938302 1_555
Cu7 O23 1.939707 1_655
Cu7 O18 1.973844 1_655
Cu7 O15 2.177284 1_545
Cu7 O17 2.287579 1_555
O0 P3 1.560228 1_556
O1 P5 1.570192 1_555
O2 P0 1.570041 1_555
O3 P3 1.514231 1_555
O4 P4 1.560228 1_554
O5 P3 1.572554 1_456
O6 P1 1.570192 1_555
O7 P0 1.535318 1_555
O8 P3 1.569519 1_455
O9 P1 1.541548 1_555
O10 P0 1.575998 1_555
O11 P4 1.572554 1_654
O12 P1 1.542221 1_555
O13 P2 1.537195 1_555
O14 P2 1.575998 1_555
O15 P5 1.570665 1_555
O16 P4 1.514231 1_555
O17 P4 1.569519 1_655
O18 P0 1.537195 1_555
O19 P5 1.541548 1_555
O20 P2 1.570041 1_555
O21 P5 1.542221 1_555
O22 P2 1.535318 1_555
O23 P1 1.570665 1_555
