# generated using pymatgen
data_LiH3CO3
_symmetry_space_group_name_H-M   'P 1'
_cell_length_a   4.85877200
_cell_length_b   6.61532700
_cell_length_c   10.05621600
_cell_angle_alpha   90.00000000
_cell_angle_beta   90.00000000
_cell_angle_gamma   90.00000000
_symmetry_Int_Tables_number   1
_chemical_formula_structural   LiH3CO3
_chemical_formula_sum   'Li4 H12 C4 O12'
_cell_volume   323.23057121
_cell_formula_units_Z   4
loop_
 _symmetry_equiv_pos_site_id
 _symmetry_equiv_pos_as_xyz
  1  'x, y, z'
loop_
 _atom_site_type_symbol
 _atom_site_label
 _atom_site_symmetry_multiplicity
 _atom_site_fract_x
 _atom_site_fract_y
 _atom_site_fract_z
 _atom_site_occupancy
  Li  Li0  1  0.72982900  0.38087100  0.45147400  1
  Li  Li1  1  0.22982900  0.88087100  0.04852600  1
  Li  Li2  1  0.22982900  0.61912900  0.54852600  1
  Li  Li3  1  0.72982900  0.11912900  0.95147400  1
  H  H0  1  0.34251000  0.52385300  0.97736700  1
  H  H1  1  0.84251000  0.02385300  0.52263300  1
  H  H2  1  0.12394300  0.89437700  0.36970900  1
  H  H3  1  0.34251000  0.97614700  0.47736700  1
  H  H4  1  0.12463800  0.33858600  0.21482000  1
  H  H5  1  0.62394300  0.10562300  0.63029100  1
  H  H6  1  0.62463800  0.83858600  0.28518000  1
  H  H7  1  0.12394300  0.60562300  0.86970900  1
  H  H8  1  0.84251000  0.47614700  0.02263300  1
  H  H9  1  0.62463800  0.66141400  0.78518000  1
  H  H10  1  0.62394300  0.39437700  0.13029100  1
  H  H11  1  0.12463800  0.16141400  0.71482000  1
  C  C0  1  0.74688800  0.61314600  0.69750200  1
  C  C1  1  0.24688800  0.38685400  0.30249800  1
  C  C2  1  0.74688800  0.88685400  0.19750200  1
  C  C3  1  0.24688800  0.11314600  0.80249800  1
  O  O0  1  0.61793200  0.57756500  0.59043900  1
  O  O1  1  0.61793200  0.92243500  0.09043900  1
  O  O2  1  0.00593500  0.59927800  0.71201900  1
  O  O3  1  0.17352500  0.60630200  0.96687200  1
  O  O4  1  0.67352500  0.10630200  0.53312800  1
  O  O5  1  0.11793200  0.42243500  0.40956100  1
  O  O6  1  0.67352500  0.39369800  0.03312800  1
  O  O7  1  0.17352500  0.89369800  0.46687200  1
  O  O8  1  0.50593500  0.09927800  0.78798100  1
  O  O9  1  0.00593500  0.90072200  0.21201900  1
  O  O10  1  0.50593500  0.40072200  0.28798100  1
  O  O11  1  0.11793200  0.07756500  0.90956100  1
loop_
_geom_bond_atom_site_label_1
_geom_bond_atom_site_label_2
_geom_bond_distance
_geom_bond_site_symmetry_2
Li0 O5 1.951700 1_655
Li0 O10 1.975803 1_555
Li0 O0 1.985346 1_555
Li0 O4 2.012032 1_555
Li1 O1 1.951700 1_555
Li1 O9 1.975803 1_555
Li1 O11 1.985346 1_564
Li1 O3 2.012032 1_554
Li2 O0 1.951700 1_555
Li2 O2 1.975803 1_555
Li2 O5 1.985346 1_555
Li2 O7 2.012032 1_555
Li3 O11 1.951700 1_655
Li3 O8 1.975803 1_555
Li3 O1 1.985346 1_546
Li3 O6 2.012032 1_556
H0 O3 0.991347 1_555
H1 O4 0.991347 1_555
H2 O7 1.006363 1_555
H2 O9 1.686763 1_555
H3 O7 0.991347 1_555
H5 O4 1.006363 1_555
H5 O8 1.686763 1_555
H7 O3 1.006363 1_555
H7 O2 1.686763 1_555
H8 O6 0.991347 1_555
H10 O6 1.006363 1_555
H10 O10 1.686763 1_555
C0 H9 1.110039 1_555
C0 O0 1.267739 1_555
C0 O2 1.270405 1_655
C1 H4 1.110039 1_555
C1 O5 1.267739 1_555
C1 O10 1.270405 1_555
C2 H6 1.110039 1_555
C2 O1 1.267739 1_555
C2 O9 1.270405 1_655
C3 H11 1.110039 1_555
C3 O11 1.267739 1_555
C3 O8 1.270405 1_555
