# generated using pymatgen
data_Ba4NdMn3O12
_symmetry_space_group_name_H-M   'P 1'
_cell_length_a   10.49148575
_cell_length_b   10.49148575
_cell_length_c   10.49148594
_cell_angle_alpha   32.74319583
_cell_angle_beta   32.74319583
_cell_angle_gamma   32.74319730
_symmetry_Int_Tables_number   1
_chemical_formula_structural   Ba4NdMn3O12
_chemical_formula_sum   'Ba4 Nd1 Mn3 O12'
_cell_volume   300.51913027
_cell_formula_units_Z   1
loop_
 _symmetry_equiv_pos_site_id
 _symmetry_equiv_pos_as_xyz
  1  'x, y, z'
loop_
 _atom_site_type_symbol
 _atom_site_label
 _atom_site_symmetry_multiplicity
 _atom_site_fract_x
 _atom_site_fract_y
 _atom_site_fract_z
 _atom_site_occupancy
  Ba  Ba0  1  0.13070800  0.13070800  0.13070800  1
  Ba  Ba1  1  0.86929200  0.86929200  0.86929200  1
  Ba  Ba2  1  0.27950500  0.27950500  0.27950500  1
  Ba  Ba3  1  0.72049500  0.72049500  0.72049500  1
  Nd  Nd0  1  0.00000000  0.00000000  0.00000000  1
  Mn  Mn0  1  0.58643700  0.58643700  0.58643700  1
  Mn  Mn1  1  0.50000000  0.50000000  0.50000000  1
  Mn  Mn2  1  0.41356300  0.41356300  0.41356300  1
  O  O0  1  0.22585100  0.68933600  0.22585100  1
  O  O1  1  0.16591600  0.60548700  0.60548700  1
  O  O2  1  0.83408400  0.39451300  0.39451300  1
  O  O3  1  0.31066400  0.77414900  0.77414900  1
  O  O4  1  0.77414900  0.77414900  0.31066400  1
  O  O5  1  0.60548700  0.60548700  0.16591600  1
  O  O6  1  0.68933600  0.22585100  0.22585100  1
  O  O7  1  0.60548700  0.16591600  0.60548700  1
  O  O8  1  0.77414900  0.31066400  0.77414900  1
  O  O9  1  0.39451300  0.83408400  0.39451300  1
  O  O10  1  0.39451300  0.39451300  0.83408400  1
  O  O11  1  0.22585100  0.22585100  0.68933600  1
loop_
_geom_bond_atom_site_label_1
_geom_bond_atom_site_label_2
_geom_bond_distance
_geom_bond_site_symmetry_2
Ba0 O7 2.968232 1_554
Ba0 O1 2.968232 1_554
Ba0 O1 2.968232 1_545
Ba0 O7 2.968232 1_455
Ba0 O5 2.968232 1_545
Ba0 O5 2.968232 1_455
Ba0 O10 2.985442 1_554
Ba0 O2 2.985442 1_455
Ba0 O9 2.985442 1_545
Ba0 O0 3.092016 1_545
Ba0 O6 3.092016 1_455
Ba0 O11 3.092016 1_554
Ba1 O2 2.968232 1_556
Ba1 O9 2.968232 1_556
Ba1 O9 2.968232 1_655
Ba1 O2 2.968232 1_565
Ba1 O10 2.968232 1_655
Ba1 O10 2.968232 1_565
Ba1 O5 2.985442 1_556
Ba1 O7 2.985442 1_565
Ba1 O1 2.985442 1_655
Ba1 O3 3.092016 1_655
Ba1 O8 3.092016 1_565
Ba1 O4 3.092016 1_556
Ba2 O2 2.868517 1_455
Ba2 O9 2.868517 1_545
Ba2 O10 2.868517 1_554
Ba2 O8 2.966762 1_554
Ba2 O3 2.966762 1_554
Ba2 O8 2.966762 1_455
Ba2 O3 2.966762 1_545
Ba2 O4 2.966762 1_455
Ba2 O4 2.966762 1_545
Ba2 O6 3.392845 1_555
Ba2 O0 3.392845 1_555
Ba2 O11 3.392845 1_555
Ba3 O7 2.868517 1_565
Ba3 O1 2.868517 1_655
Ba3 O5 2.868517 1_556
Ba3 O6 2.966762 1_556
Ba3 O0 2.966762 1_556
Ba3 O0 2.966762 1_655
Ba3 O6 2.966762 1_565
Ba3 O11 2.966762 1_655
Ba3 O11 2.966762 1_565
Ba3 O8 3.392845 1_555
Ba3 O3 3.392845 1_555
Ba3 O4 3.392845 1_555
Nd0 O11 2.305184 1_554
Nd0 O4 2.305184 1_445
Nd0 O6 2.305184 1_455
Nd0 O0 2.305184 1_545
Nd0 O8 2.305184 1_454
Nd0 O3 2.305184 1_544
Mn0 O4 1.866021 1_555
Mn0 O8 1.866021 1_555
Mn0 O3 1.866021 1_555
Mn0 O10 2.019547 1_555
Mn0 O2 2.019547 1_555
Mn0 O9 2.019547 1_555
Mn1 O2 1.935071 1_555
Mn1 O9 1.935071 1_555
Mn1 O1 1.935071 1_555
Mn1 O7 1.935071 1_555
Mn1 O10 1.935071 1_555
Mn1 O5 1.935071 1_555
Mn2 O11 1.866021 1_555
Mn2 O6 1.866021 1_555
Mn2 O0 1.866021 1_555
Mn2 O5 2.019547 1_555
Mn2 O7 2.019547 1_555
Mn2 O1 2.019547 1_555
