# generated using pymatgen
data_Ba2Ni7F18
_symmetry_space_group_name_H-M   'P 1'
_cell_length_a   7.00401900
_cell_length_b   7.31191720
_cell_length_c   7.55517260
_cell_angle_alpha   94.43936122
_cell_angle_beta   93.10269033
_cell_angle_gamma   115.76651566
_symmetry_Int_Tables_number   1
_chemical_formula_structural   Ba2Ni7F18
_chemical_formula_sum   'Ba2 Ni7 F18'
_cell_volume   345.74173343
_cell_formula_units_Z   1
loop_
 _symmetry_equiv_pos_site_id
 _symmetry_equiv_pos_as_xyz
  1  'x, y, z'
loop_
 _atom_site_type_symbol
 _atom_site_label
 _atom_site_symmetry_multiplicity
 _atom_site_fract_x
 _atom_site_fract_y
 _atom_site_fract_z
 _atom_site_occupancy
  Ba  Ba0  1  0.68613300  0.30641800  0.36646200  1
  Ba  Ba1  1  0.31386700  0.69358200  0.63353800  1
  Ni  Ni0  1  0.39438000  0.27803500  0.88203500  1
  Ni  Ni1  1  0.60562000  0.72196500  0.11796500  1
  Ni  Ni2  1  0.18110400  0.38414300  0.19520000  1
  Ni  Ni3  1  0.81889600  0.61585700  0.80480000  1
  Ni  Ni4  1  0.81045900  0.12468900  0.81812000  1
  Ni  Ni5  1  0.18954100  0.87531100  0.18188000  1
  Ni  Ni6  1  0.00000000  0.00000000  0.50000000  1
  F  F0  1  0.31901500  0.51234400  0.97373700  1
  F  F1  1  0.68098500  0.48765600  0.02626300  1
  F  F2  1  0.50443000  0.07803100  0.81746400  1
  F  F3  1  0.49557000  0.92196900  0.18253600  1
  F  F4  1  0.90027900  0.39493600  0.71938400  1
  F  F5  1  0.09972100  0.60506400  0.28061600  1
  F  F6  1  0.29391700  0.17414400  0.11937400  1
  F  F7  1  0.70608300  0.82585600  0.88062600  1
  F  F8  1  0.09755600  0.12785000  0.75800200  1
  F  F9  1  0.47925600  0.55913200  0.32137400  1
  F  F10  1  0.52074400  0.44086800  0.67862600  1
  F  F11  1  0.10760900  0.77012900  0.92730500  1
  F  F12  1  0.89239100  0.22987100  0.07269500  1
  F  F13  1  0.71832900  0.99265900  0.55855300  1
  F  F14  1  0.28167100  0.00734100  0.44144700  1
  F  F15  1  0.92230300  0.71938400  0.57452400  1
  F  F16  1  0.07769700  0.28061600  0.42547600  1
  F  F17  1  0.90244400  0.87215000  0.24199800  1
loop_
_geom_bond_atom_site_label_1
_geom_bond_atom_site_label_2
_geom_bond_distance
_geom_bond_site_symmetry_2
Ba0 F3 2.747181 1_545
Ba0 F9 2.828748 1_555
Ba0 F16 2.843643 1_655
Ba0 F14 2.847421 1_555
Ba0 F12 2.860769 1_555
Ba0 F4 2.869510 1_555
Ba0 F13 2.889656 1_545
Ba0 F5 2.916075 1_655
Ba0 F10 2.966060 1_555
Ba0 F6 2.970225 1_555
Ba0 F1 2.987055 1_555
Ba0 F15 2.994361 1_555
Ba1 F2 2.747181 1_565
Ba1 F10 2.828748 1_555
Ba1 F15 2.843643 1_455
Ba1 F13 2.847421 1_555
Ba1 F11 2.860769 1_555
Ba1 F5 2.869510 1_555
Ba1 F14 2.889656 1_565
Ba1 F4 2.916075 1_455
Ba1 F9 2.966060 1_555
Ba1 F7 2.970225 1_555
Ba1 F0 2.987055 1_555
Ba1 F16 2.994361 1_555
F0 Ni2 2.059575 1_556
F0 Ni0 2.082293 1_555
F0 Ni1 2.096643 1_556
F1 Ni3 2.059575 1_554
F1 Ni1 2.082293 1_555
F1 Ni0 2.096643 1_554
F2 Ni0 1.970035 1_555
F2 Ni4 2.018304 1_555
F3 Ni1 1.970035 1_555
F3 Ni5 2.018304 1_555
F4 Ni3 2.007412 1_555
F4 Ni4 2.013733 1_555
F5 Ni2 2.007412 1_555
F5 Ni5 2.013733 1_555
F6 Ni0 2.042120 1_554
F6 Ni2 2.068311 1_555
F6 Ni5 2.083314 1_545
F7 Ni1 2.042120 1_556
F7 Ni3 2.068311 1_555
F7 Ni4 2.083314 1_565
F8 Ni0 2.012729 1_555
F8 Ni6 2.039300 1_555
F8 Ni4 2.076143 1_455
F9 Ni1 2.019150 1_555
F9 Ni2 2.044349 1_555
F10 Ni0 2.019150 1_555
F10 Ni3 2.044349 1_555
F11 Ni3 1.967432 1_455
F11 Ni5 1.971781 1_556
F12 Ni2 1.967432 1_655
F12 Ni4 1.971781 1_554
F13 Ni6 2.024035 1_665
F13 Ni4 2.054875 1_565
F14 Ni6 2.024035 1_555
F14 Ni5 2.054875 1_545
F15 Ni3 1.997003 1_555
F15 Ni6 2.016047 1_665
F16 Ni2 1.997003 1_555
F16 Ni6 2.016047 1_555
F17 Ni1 2.012729 1_555
F17 Ni6 2.039300 1_665
F17 Ni5 2.076143 1_655
