# generated using pymatgen
data_Nd3Si2S8I
_symmetry_space_group_name_H-M   'P 1'
_cell_length_a   8.92661730
_cell_length_b   8.92661730
_cell_length_c   10.88263261
_cell_angle_alpha   82.68647564
_cell_angle_beta   82.68647564
_cell_angle_gamma   52.30606805
_symmetry_Int_Tables_number   1
_chemical_formula_structural   Nd3Si2S8I
_chemical_formula_sum   'Nd6 Si4 S16 I2'
_cell_volume   679.25161505
_cell_formula_units_Z   2
loop_
 _symmetry_equiv_pos_site_id
 _symmetry_equiv_pos_as_xyz
  1  'x, y, z'
loop_
 _atom_site_type_symbol
 _atom_site_label
 _atom_site_symmetry_multiplicity
 _atom_site_fract_x
 _atom_site_fract_y
 _atom_site_fract_z
 _atom_site_occupancy
  Nd  Nd0  1  0.40045200  0.59954800  0.75000000  1
  Nd  Nd1  1  0.67736400  0.92389000  0.68144700  1
  Nd  Nd2  1  0.92389000  0.67736400  0.18144700  1
  Nd  Nd3  1  0.07611000  0.32263600  0.81855300  1
  Nd  Nd4  1  0.32263600  0.07611000  0.31855300  1
  Nd  Nd5  1  0.59954800  0.40045200  0.25000000  1
  Si  Si0  1  0.69667800  0.62242200  0.47109100  1
  Si  Si1  1  0.37757800  0.30332200  0.02890900  1
  Si  Si2  1  0.62242200  0.69667800  0.97109100  1
  Si  Si3  1  0.30332200  0.37757800  0.52890900  1
  S  S0  1  0.55059100  0.74793100  0.16282700  1
  S  S1  1  0.71267400  0.85077600  0.41401500  1
  S  S2  1  0.74793100  0.55059100  0.66282700  1
  S  S3  1  0.89045000  0.39909600  0.35251500  1
  S  S4  1  0.25206900  0.44940900  0.33717300  1
  S  S5  1  0.41334200  0.72328100  0.45808200  1
  S  S6  1  0.10955000  0.60090400  0.64748500  1
  S  S7  1  0.85077600  0.71267500  0.91401500  1
  S  S8  1  0.44940900  0.25206900  0.83717300  1
  S  S9  1  0.14922400  0.28732600  0.08598500  1
  S  S10  1  0.58665800  0.27671900  0.54191800  1
  S  S11  1  0.72328100  0.41334200  0.95808200  1
  S  S12  1  0.60090400  0.10955000  0.14748500  1
  S  S13  1  0.39909600  0.89045000  0.85251500  1
  S  S14  1  0.28732600  0.14922400  0.58598500  1
  S  S15  1  0.27671900  0.58665800  0.04191800  1
  I  I0  1  0.98636600  0.01363400  0.75000000  1
  I  I1  1  0.01363400  0.98636600  0.25000000  1
loop_
_geom_bond_atom_site_label_1
_geom_bond_atom_site_label_2
_geom_bond_distance
_geom_bond_site_symmetry_2
Nd0 S2 2.900153 1_555
Nd0 S8 2.900153 1_555
Nd0 S13 2.946813 1_555
Nd0 S6 2.946813 1_555
Nd0 S15 3.239520 1_556
Nd0 S5 3.239520 1_555
Nd0 S11 3.322768 1_555
Nd0 S10 3.322768 1_555
Nd1 S7 2.927498 1_555
Nd1 S8 2.948051 1_565
Nd1 S10 2.976220 1_565
Nd1 S1 2.999003 1_555
Nd1 S14 3.012008 1_565
Nd1 S2 3.019028 1_555
Nd1 S13 3.051730 1_555
Nd1 S6 3.104681 1_655
Nd2 S1 2.927500 1_555
Nd2 S4 2.948051 1_655
Nd2 S15 2.976220 1_655
Nd2 S7 2.999001 1_554
Nd2 S9 3.012008 1_655
Nd2 S0 3.019028 1_555
Nd2 S3 3.051730 1_555
Nd2 S12 3.104681 1_565
Nd3 S14 2.927500 1_555
Nd3 S2 2.948051 1_455
Nd3 S11 2.976220 1_455
Nd3 S9 2.999003 1_556
Nd3 S7 3.012015 1_455
Nd3 S8 3.019028 1_555
Nd3 S6 3.051730 1_555
Nd3 S13 3.104681 1_545
Nd4 S9 2.927500 1_555
Nd4 S0 2.948051 1_545
Nd4 S5 2.976220 1_545
Nd4 S14 2.999003 1_555
Nd4 S1 3.012008 1_545
Nd4 S4 3.019028 1_555
Nd4 S12 3.051730 1_555
Nd4 S3 3.104681 1_455
Nd5 S0 2.900153 1_555
Nd5 S4 2.900153 1_555
Nd5 S3 2.946813 1_555
Nd5 S12 2.946813 1_555
Nd5 S10 3.239520 1_555
Nd5 S11 3.239520 1_554
Nd5 S5 3.322768 1_555
Nd5 S15 3.322768 1_555
S0 Si2 2.125559 1_554
S1 Si0 2.138316 1_555
S2 Si0 2.125559 1_555
S3 Si0 2.121596 1_555
S4 Si3 2.125559 1_555
S5 Si0 2.121715 1_555
S6 Si3 2.121596 1_555
S7 Si2 2.138322 1_555
S8 Si1 2.125559 1_556
S9 Si1 2.138316 1_555
S10 Si3 2.121715 1_555
S11 Si2 2.121715 1_555
S12 Si1 2.121596 1_555
S13 Si2 2.121596 1_555
S14 Si3 2.138316 1_555
S15 Si1 2.121715 1_555
I0 Nd0 3.258515 1_645
I0 Nd1 3.490722 1_545
I0 Nd3 3.490722 1_655
I1 Nd5 3.258515 1_465
I1 Nd2 3.490722 1_455
I1 Nd4 3.490722 1_565
