# generated using pymatgen
data_Ba(BSe3)2
_symmetry_space_group_name_H-M   'P 1'
_cell_length_a   6.88322729
_cell_length_b   6.88322896
_cell_length_c   10.49573739
_cell_angle_alpha   90.00000000
_cell_angle_beta   90.00000000
_cell_angle_gamma   111.42947520
_symmetry_Int_Tables_number   1
_chemical_formula_structural   Ba(BSe3)2
_chemical_formula_sum   'Ba2 B4 Se12'
_cell_volume   462.89807702
_cell_formula_units_Z   2
loop_
 _symmetry_equiv_pos_site_id
 _symmetry_equiv_pos_as_xyz
  1  'x, y, z'
loop_
 _atom_site_type_symbol
 _atom_site_label
 _atom_site_symmetry_multiplicity
 _atom_site_fract_x
 _atom_site_fract_y
 _atom_site_fract_z
 _atom_site_occupancy
  Ba  Ba0  1  0.50000000  0.50000000  0.50000000  1
  Ba  Ba1  1  -0.00000000  -0.00000000  -0.00000000  1
  B  B0  1  0.61353438  0.38646562  -0.00000000  1
  B  B1  1  0.38646562  0.61353438  -0.00000000  1
  B  B2  1  0.88646562  0.11353438  0.50000000  1
  B  B3  1  0.11353438  0.88646562  0.50000000  1
  Se  Se0  1  0.89313211  0.47615693  0.09227499  1
  Se  Se1  1  0.40119910  0.40119910  0.13700145  1
  Se  Se2  1  0.52384307  0.10686789  0.90772501  1
  Se  Se3  1  0.97615693  0.39313211  0.40772501  1
  Se  Se4  1  0.02384307  0.60686789  0.59227499  1
  Se  Se5  1  0.47615693  0.89313211  0.09227499  1
  Se  Se6  1  0.60686789  0.02384307  0.59227499  1
  Se  Se7  1  0.10686789  0.52384307  0.90772501  1
  Se  Se8  1  0.09880090  0.09880090  0.63700145  1
  Se  Se9  1  0.59880090  0.59880090  0.86299855  1
  Se  Se10  1  0.90119910  0.90119910  0.36299855  1
  Se  Se11  1  0.39313211  0.97615693  0.40772501  1
loop_
_geom_bond_atom_site_label_1
_geom_bond_atom_site_label_2
_geom_bond_distance
_geom_bond_site_symmetry_2
Ba0 Se10 3.427449 1_555
Ba0 Se8 3.427449 1_555
Ba0 Se3 3.541506 1_455
Ba0 Se4 3.541506 1_655
Ba0 Se11 3.541507 1_545
Ba0 Se6 3.541507 1_565
Ba0 Se3 3.739351 1_555
Ba0 Se4 3.739351 1_555
Ba0 Se6 3.739352 1_555
Ba0 Se11 3.739352 1_555
Ba0 Se1 3.886214 1_555
Ba0 Se9 3.886214 1_555
Ba1 Se9 3.427449 1_444
Ba1 Se1 3.427449 1_555
Ba1 Se5 3.541506 1_445
Ba1 Se2 3.541506 1_554
Ba1 Se7 3.541507 1_554
Ba1 Se0 3.541507 1_445
Ba1 Se5 3.739351 1_545
Ba1 Se2 3.739351 1_454
Ba1 Se0 3.739352 1_455
Ba1 Se7 3.739352 1_544
Ba1 Se8 3.886214 1_554
Ba1 Se10 3.886214 1_445
B0 Se0 2.038324 1_555
B0 Se2 2.038325 1_554
B0 Se1 2.079032 1_555
B0 Se9 2.079032 1_554
B1 Se7 2.038324 1_554
B1 Se5 2.038325 1_555
B1 Se9 2.079032 1_554
B1 Se1 2.079032 1_555
B2 Se6 2.038324 1_555
B2 Se3 2.038325 1_555
B2 Se8 2.079032 1_655
B2 Se10 2.079032 1_545
B3 Se11 2.038324 1_555
B3 Se4 2.038325 1_555
B3 Se10 2.079032 1_455
B3 Se8 2.079032 1_565
