# generated using pymatgen
data_Pr13Zn58
_symmetry_space_group_name_H-M   'P 1'
_cell_length_a   14.24685949
_cell_length_b   14.62908902
_cell_length_c   14.62908902
_cell_angle_alpha   120.00021128
_cell_angle_beta   90.00000000
_cell_angle_gamma   90.00000000
_symmetry_Int_Tables_number   1
_chemical_formula_structural   Pr13Zn58
_chemical_formula_sum   'Pr26 Zn116'
_cell_volume   2640.48322865
_cell_formula_units_Z   2
loop_
 _symmetry_equiv_pos_site_id
 _symmetry_equiv_pos_as_xyz
  1  'x, y, z'
loop_
 _atom_site_type_symbol
 _atom_site_label
 _atom_site_symmetry_multiplicity
 _atom_site_fract_x
 _atom_site_fract_y
 _atom_site_fract_z
 _atom_site_occupancy
  Pr  Pr0  1  0.50000000  0.00000000  0.00000000  1
  Pr  Pr1  1  0.00000000  0.00000000  0.00000000  1
  Pr  Pr2  1  0.75000000  0.45697711  0.91396647  1
  Pr  Pr3  1  0.75000000  0.45698536  0.54301464  1
  Pr  Pr4  1  0.75000000  0.08603353  0.54302289  1
  Pr  Pr5  1  0.25000000  0.54302289  0.08603353  1
  Pr  Pr6  1  0.25000000  0.54301464  0.45698536  1
  Pr  Pr7  1  0.25000000  0.91396647  0.45697711  1
  Pr  Pr8  1  0.75000000  0.12822987  0.25646686  1
  Pr  Pr9  1  0.75000000  0.12823233  0.87176767  1
  Pr  Pr10  1  0.75000000  0.74353314  0.87177013  1
  Pr  Pr11  1  0.25000000  0.87177013  0.74353314  1
  Pr  Pr12  1  0.25000000  0.87176767  0.12823233  1
  Pr  Pr13  1  0.25000000  0.25646686  0.12822987  1
  Pr  Pr14  1  0.55239478  0.79500535  0.59001266  1
  Pr  Pr15  1  0.55239896  0.79500998  0.20499002  1
  Pr  Pr16  1  0.55239478  0.40998734  0.20499465  1
  Pr  Pr17  1  0.44760522  0.20499465  0.40998734  1
  Pr  Pr18  1  0.44760104  0.20499002  0.79500998  1
  Pr  Pr19  1  0.44760522  0.59001266  0.79500535  1
  Pr  Pr20  1  0.05239478  0.20499465  0.40998734  1
  Pr  Pr21  1  0.05239896  0.20499002  0.79500998  1
  Pr  Pr22  1  0.05239478  0.59001266  0.79500535  1
  Pr  Pr23  1  0.94760522  0.79500535  0.59001266  1
  Pr  Pr24  1  0.94760104  0.79500998  0.20499002  1
  Pr  Pr25  1  0.94760522  0.40998734  0.20499465  1
  Zn  Zn0  1  0.75000000  0.00000007  0.99999993  1
  Zn  Zn1  1  0.25000000  0.99999993  0.00000007  1
  Zn  Zn2  1  0.25000000  0.66667813  0.33332187  1
  Zn  Zn3  1  0.75000000  0.33332187  0.66667813  1
  Zn  Zn4  1  0.59656679  0.66667939  0.33332061  1
  Zn  Zn5  1  0.40343321  0.33332061  0.66667939  1
  Zn  Zn6  1  0.09656679  0.33332061  0.66667939  1
  Zn  Zn7  1  0.90343321  0.66667939  0.33332061  1
  Zn  Zn8  1  0.50000000  0.50000000  0.00000000  1
  Zn  Zn9  1  0.50000000  0.50000000  0.50000000  1
  Zn  Zn10  1  0.50000000  0.00000000  0.50000000  1
  Zn  Zn11  1  0.00000000  0.50000000  0.00000000  1
  Zn  Zn12  1  0.00000000  0.50000000  0.50000000  1
  Zn  Zn13  1  0.00000000  0.00000000  0.50000000  1
  Zn  Zn14  1  0.75000000  0.72974189  0.45948595  1
  Zn  Zn15  1  0.75000000  0.72974761  0.27025239  1
  Zn  Zn16  1  0.75000000  0.54051405  0.27025811  1
  Zn  Zn17  1  0.25000000  0.27025811  0.54051405  1
  Zn  Zn18  1  0.25000000  0.27025239  0.72974761  1
  Zn  Zn19  1  0.25000000  0.45948595  0.72974189  1
  Zn  Zn20  1  0.49999956  0.79798979  -0.00000014  1
  Zn  Zn21  1  0.50000000  0.20201011  0.20201011  1
  Zn  Zn22  1  0.50000044  -0.00000014  0.79798979  1
  Zn  Zn23  1  0.50000044  0.20201021  0.00000014  1
  Zn  Zn24  1  0.49999956  0.00000014  0.20201021  1
  Zn  Zn25  1  0.50000000  0.79798989  0.79798989  1
  Zn  Zn26  1  0.99999956  0.20201021  0.00000014  1
  Zn  Zn27  1  0.00000000  0.79798989  0.79798989  1
  Zn  Zn28  1  0.00000044  0.00000014  0.20201021  1
  Zn  Zn29  1  0.00000044  0.79798979  -0.00000014  1
  Zn  Zn30  1  0.99999956  -0.00000014  0.79798979  1
  Zn  Zn31  1  0.00000000  0.20201011  0.20201011  1
  Zn  Zn32  1  0.75000000  0.91554615  0.63379981  1
  Zn  Zn33  1  0.75000000  0.71825430  0.08445243  1
  Zn  Zn34  1  0.75000000  0.36619901  0.28174652  1
  Zn  Zn35  1  0.75000000  0.71825348  0.63380099  1
  Zn  Zn36  1  0.75000000  0.36620019  0.08445385  1
  Zn  Zn37  1  0.75000000  0.91554757  0.28174570  1
  Zn  Zn38  1  0.25000000  0.08445385  0.36620019  1
  Zn  Zn39  1  0.25000000  0.28174570  0.91554757  1
  Zn  Zn40  1  0.25000000  0.63380099  0.71825348  1
  Zn  Zn41  1  0.25000000  0.28174652  0.36619901  1
  Zn  Zn42  1  0.25000000  0.63379981  0.91554615  1
  Zn  Zn43  1  0.25000000  0.08445243  0.71825430  1
  Zn  Zn44  1  0.65685505  0.90505149  0.81010345  1
  Zn  Zn45  1  0.65685556  0.90505213  0.09494787  1
  Zn  Zn46  1  0.65685505  0.18989655  0.09494851  1
  Zn  Zn47  1  0.34314495  0.09494851  0.18989655  1
  Zn  Zn48  1  0.34314444  0.09494787  0.90505213  1
  Zn  Zn49  1  0.34314495  0.81010345  0.90505149  1
  Zn  Zn50  1  0.15685505  0.09494851  0.18989655  1
  Zn  Zn51  1  0.15685556  0.09494787  0.90505213  1
  Zn  Zn52  1  0.15685505  0.81010345  0.90505149  1
  Zn  Zn53  1  0.84314495  0.90505149  0.81010345  1
  Zn  Zn54  1  0.84314444  0.90505213  0.09494787  1
  Zn  Zn55  1  0.84314495  0.18989655  0.09494851  1
  Zn  Zn56  1  0.14119069  0.43517808  0.87035572  1
  Zn  Zn57  1  0.14118724  0.43517049  0.56482951  1
  Zn  Zn58  1  0.14119069  0.12964428  0.56482192  1
  Zn  Zn59  1  0.85880931  0.56482192  0.12964428  1
  Zn  Zn60  1  0.85881276  0.56482951  0.43517049  1
  Zn  Zn61  1  0.85880931  0.87035572  0.43517808  1
  Zn  Zn62  1  0.64119069  0.56482192  0.12964428  1
  Zn  Zn63  1  0.64118724  0.56482951  0.43517049  1
  Zn  Zn64  1  0.64119069  0.87035572  0.43517808  1
  Zn  Zn65  1  0.35880931  0.43517808  0.87035572  1
  Zn  Zn66  1  0.35881276  0.43517049  0.56482951  1
  Zn  Zn67  1  0.35880931  0.12964428  0.56482192  1
  Zn  Zn68  1  0.55097590  0.39794049  0.79588129  1
  Zn  Zn69  1  0.55096637  0.39793808  0.60206192  1
  Zn  Zn70  1  0.55097590  0.20411871  0.60205951  1
  Zn  Zn71  1  0.44902410  0.60205951  0.20411871  1
  Zn  Zn72  1  0.44903363  0.60206192  0.39793808  1
  Zn  Zn73  1  0.44902410  0.79588129  0.39794049  1
  Zn  Zn74  1  0.05097590  0.60205951  0.20411871  1
  Zn  Zn75  1  0.05096637  0.60206192  0.39793808  1
  Zn  Zn76  1  0.05097590  0.79588129  0.39794049  1
  Zn  Zn77  1  0.94902410  0.39794049  0.79588129  1
  Zn  Zn78  1  0.94903363  0.39793808  0.60206192  1
  Zn  Zn79  1  0.94902410  0.20411871  0.60205951  1
  Zn  Zn80  1  0.15713151  0.76261467  0.52522740  1
  Zn  Zn81  1  0.15712755  0.76261824  0.23738176  1
  Zn  Zn82  1  0.15713151  0.47477260  0.23738533  1
  Zn  Zn83  1  0.84286849  0.23738533  0.47477260  1
  Zn  Zn84  1  0.84287245  0.23738176  0.76261824  1
  Zn  Zn85  1  0.84286849  0.52522740  0.76261467  1
  Zn  Zn86  1  0.65713151  0.23738533  0.47477260  1
  Zn  Zn87  1  0.65712755  0.23738176  0.76261824  1
  Zn  Zn88  1  0.65713151  0.52522740  0.76261467  1
  Zn  Zn89  1  0.34286849  0.76261467  0.52522740  1
  Zn  Zn90  1  0.34287245  0.76261824  0.23738176  1
  Zn  Zn91  1  0.34286849  0.47477260  0.23738533  1
  Zn  Zn92  1  0.60252941  0.63453635  0.96417051  1
  Zn  Zn93  1  0.60253044  0.32963405  0.36546378  1
  Zn  Zn94  1  0.60253005  0.03582988  0.67036607  1
  Zn  Zn95  1  0.60253005  0.32963393  0.96417012  1
  Zn  Zn96  1  0.60252941  0.03582949  0.36546365  1
  Zn  Zn97  1  0.60253044  0.63453622  0.67036595  1
  Zn  Zn98  1  0.39747059  0.36546365  0.03582949  1
  Zn  Zn99  1  0.39746956  0.67036595  0.63453622  1
  Zn  Zn100  1  0.39746995  0.96417012  0.32963393  1
  Zn  Zn101  1  0.39746995  0.67036607  0.03582988  1
  Zn  Zn102  1  0.39747059  0.96417051  0.63453635  1
  Zn  Zn103  1  0.39746956  0.36546378  0.32963405  1
  Zn  Zn104  1  0.10252941  0.36546365  0.03582949  1
  Zn  Zn105  1  0.10253044  0.67036595  0.63453622  1
  Zn  Zn106  1  0.10253005  0.96417012  0.32963393  1
  Zn  Zn107  1  0.10253005  0.67036607  0.03582988  1
  Zn  Zn108  1  0.10252941  0.96417051  0.63453635  1
  Zn  Zn109  1  0.10253044  0.36546378  0.32963405  1
  Zn  Zn110  1  0.89747059  0.63453635  0.96417051  1
  Zn  Zn111  1  0.89746956  0.32963405  0.36546378  1
  Zn  Zn112  1  0.89746995  0.03582988  0.67036607  1
  Zn  Zn113  1  0.89746995  0.32963393  0.96417012  1
  Zn  Zn114  1  0.89747059  0.03582949  0.36546365  1
  Zn  Zn115  1  0.89746956  0.63453622  0.67036595  1
loop_
_geom_bond_atom_site_label_1
_geom_bond_atom_site_label_2
_geom_bond_distance
_geom_bond_site_symmetry_2
Pr0 Zn21 2.955214 1_555
Pr0 Zn25 2.955214 1_544
Pr0 Zn20 2.955224 1_545
Pr0 Zn22 2.955224 1_554
Pr0 Zn23 2.955224 1_555
Pr0 Zn24 2.955224 1_555
Pr0 Zn47 3.283572 1_555
Pr0 Zn46 3.283572 1_555
Pr0 Zn44 3.283572 1_544
Pr0 Zn49 3.283572 1_544
Pr0 Zn48 3.283575 1_554
Pr0 Zn45 3.283575 1_545
Pr0 Zn1 3.561715 1_545
Pr0 Zn0 3.561715 1_554
Pr1 Zn27 2.955214 1_544
Pr1 Zn31 2.955214 1_555
Pr1 Zn29 2.955224 1_545
Pr1 Zn30 2.955224 1_454
Pr1 Zn26 2.955224 1_455
Pr1 Zn28 2.955224 1_555
Pr1 Zn55 3.283572 1_455
Pr1 Zn50 3.283572 1_555
Pr1 Zn53 3.283572 1_444
Pr1 Zn52 3.283572 1_544
Pr1 Zn51 3.283575 1_554
Pr1 Zn54 3.283575 1_445
Pr1 Zn1 3.561715 1_545
Pr1 Zn0 3.561715 1_454
Pr2 Zn113 3.129245 1_555
Pr2 Zn95 3.129245 1_555
Pr2 Zn110 3.129376 1_555
Pr2 Zn92 3.129376 1_555
Pr2 Zn3 3.132930 1_555
Pr2 Zn87 3.140088 1_555
Pr2 Zn84 3.140088 1_555
Pr2 Zn85 3.140150 1_555
Pr2 Zn88 3.140150 1_555
Pr2 Zn62 3.141557 1_556
Pr2 Zn59 3.141557 1_556
Pr2 Zn68 3.205933 1_555
Pr2 Zn77 3.205933 1_555
Pr2 Zn36 3.360962 1_556
Pr2 Zn33 3.361090 1_556
Pr3 Zn115 3.129287 1_555
Pr3 Zn93 3.129287 1_555
Pr3 Zn97 3.129287 1_555
Pr3 Zn111 3.129287 1_555
Pr3 Zn3 3.133429 1_555
Pr3 Zn86 3.140142 1_555
Pr3 Zn83 3.140142 1_555
Pr3 Zn88 3.140142 1_555
Pr3 Zn85 3.140142 1_555
Pr3 Zn60 3.141705 1_555
Pr3 Zn63 3.141705 1_555
Pr3 Zn69 3.206111 1_555
Pr3 Zn78 3.206111 1_555
Pr3 Zn35 3.360982 1_555
Pr3 Zn34 3.360982 1_555
Pr4 Zn112 3.129245 1_555
Pr4 Zn94 3.129245 1_555
Pr4 Zn114 3.129376 1_555
Pr4 Zn96 3.129376 1_555
Pr4 Zn3 3.132930 1_555
Pr4 Zn87 3.140088 1_555
Pr4 Zn84 3.140088 1_555
Pr4 Zn83 3.140150 1_555
Pr4 Zn86 3.140150 1_555
Pr4 Zn61 3.141557 1_545
Pr4 Zn64 3.141557 1_545
Pr4 Zn79 3.205933 1_555
Pr4 Zn70 3.205933 1_555
Pr4 Zn32 3.360962 1_545
Pr4 Zn37 3.361090 1_545
Pr5 Zn107 3.129245 1_555
Pr5 Zn101 3.129245 1_555
Pr5 Zn104 3.129376 1_555
Pr5 Zn98 3.129376 1_555
Pr5 Zn2 3.132930 1_555
Pr5 Zn81 3.140088 1_555
Pr5 Zn90 3.140088 1_555
Pr5 Zn82 3.140150 1_555
Pr5 Zn91 3.140150 1_555
Pr5 Zn65 3.141557 1_554
Pr5 Zn56 3.141557 1_554
Pr5 Zn74 3.205933 1_555
Pr5 Zn71 3.205933 1_555
Pr5 Zn42 3.360962 1_554
Pr5 Zn39 3.361090 1_554
Pr6 Zn103 3.129287 1_555
Pr6 Zn99 3.129287 1_555
Pr6 Zn105 3.129287 1_555
Pr6 Zn109 3.129287 1_555
Pr6 Zn2 3.133429 1_555
Pr6 Zn82 3.140142 1_555
Pr6 Zn80 3.140142 1_555
Pr6 Zn91 3.140142 1_555
Pr6 Zn89 3.140142 1_555
Pr6 Zn57 3.141705 1_555
Pr6 Zn66 3.141705 1_555
Pr6 Zn75 3.206111 1_555
Pr6 Zn72 3.206111 1_555
Pr6 Zn41 3.360982 1_555
Pr6 Zn40 3.360982 1_555
Pr7 Zn100 3.129245 1_555
Pr7 Zn106 3.129245 1_555
Pr7 Zn108 3.129376 1_555
Pr7 Zn102 3.129376 1_555
Pr7 Zn2 3.132930 1_555
Pr7 Zn81 3.140088 1_555
Pr7 Zn90 3.140088 1_555
Pr7 Zn80 3.140150 1_555
Pr7 Zn89 3.140150 1_555
Pr7 Zn58 3.141557 1_565
Pr7 Zn67 3.141557 1_565
Pr7 Zn73 3.205933 1_555
Pr7 Zn76 3.205933 1_555
Pr7 Zn38 3.360962 1_565
Pr7 Zn43 3.361090 1_565
Pr8 Zn86 3.065925 1_555
Pr8 Zn83 3.065925 1_555
Pr8 Zn54 3.207658 1_545
Pr8 Zn45 3.207658 1_545
Pr8 Zn55 3.207738 1_555
Pr8 Zn46 3.207738 1_555
Pr8 Zn0 3.249214 1_554
Pr8 Zn96 3.307453 1_555
Pr8 Zn114 3.307453 1_555
Pr8 Zn93 3.307504 1_555
Pr8 Zn111 3.307504 1_555
Pr8 Zn37 3.311774 1_545
Pr8 Zn34 3.311883 1_555
Pr9 Zn84 3.065879 1_555
Pr9 Zn87 3.065879 1_555
Pr9 Zn53 3.207687 1_545
Pr9 Zn44 3.207687 1_545
Pr9 Zn55 3.207687 1_556
Pr9 Zn46 3.207687 1_556
Pr9 Zn0 3.249194 1_555
Pr9 Zn112 3.307485 1_555
Pr9 Zn94 3.307485 1_555
Pr9 Zn113 3.307485 1_555
Pr9 Zn95 3.307485 1_555
Pr9 Zn36 3.311843 1_556
Pr9 Zn32 3.311843 1_545
Pr10 Zn88 3.065925 1_555
Pr10 Zn85 3.065925 1_555
Pr10 Zn54 3.207658 1_556
Pr10 Zn45 3.207658 1_556
Pr10 Zn53 3.207738 1_555
Pr10 Zn44 3.207738 1_555
Pr10 Zn0 3.249214 1_565
Pr10 Zn92 3.307453 1_555
Pr10 Zn110 3.307453 1_555
Pr10 Zn115 3.307504 1_555
Pr10 Zn97 3.307504 1_555
Pr10 Zn33 3.311774 1_556
Pr10 Zn35 3.311883 1_555
Pr11 Zn80 3.065925 1_555
Pr11 Zn89 3.065925 1_555
Pr11 Zn51 3.207658 1_565
Pr11 Zn48 3.207658 1_565
Pr11 Zn49 3.207738 1_555
Pr11 Zn52 3.207738 1_555
Pr11 Zn1 3.249214 1_556
Pr11 Zn102 3.307453 1_555
Pr11 Zn108 3.307453 1_555
Pr11 Zn105 3.307504 1_555
Pr11 Zn99 3.307504 1_555
Pr11 Zn43 3.311774 1_565
Pr11 Zn40 3.311883 1_555
Pr12 Zn81 3.065879 1_555
Pr12 Zn90 3.065879 1_555
Pr12 Zn50 3.207687 1_565
Pr12 Zn47 3.207687 1_565
Pr12 Zn52 3.207687 1_554
Pr12 Zn49 3.207687 1_554
Pr12 Zn1 3.249194 1_555
Pr12 Zn101 3.307485 1_555
Pr12 Zn107 3.307485 1_555
Pr12 Zn106 3.307485 1_555
Pr12 Zn100 3.307485 1_555
Pr12 Zn38 3.311843 1_565
Pr12 Zn42 3.311843 1_554
Pr13 Zn82 3.065925 1_555
Pr13 Zn91 3.065925 1_555
Pr13 Zn51 3.207658 1_554
Pr13 Zn48 3.207658 1_554
Pr13 Zn50 3.207738 1_555
Pr13 Zn47 3.207738 1_555
Pr13 Zn1 3.249214 1_545
Pr13 Zn104 3.307453 1_555
Pr13 Zn98 3.307453 1_555
Pr13 Zn109 3.307504 1_555
Pr13 Zn103 3.307504 1_555
Pr13 Zn39 3.311774 1_554
Pr13 Zn41 3.311883 1_555
Pr14 Zn89 3.095875 1_555
Pr14 Zn25 3.111781 1_555
Pr14 Zn22 3.111782 1_565
Pr14 Zn99 3.131812 1_555
Pr14 Zn102 3.131820 1_555
Pr14 Zn44 3.160662 1_555
Pr14 Zn72 3.178002 1_555
Pr14 Zn73 3.178088 1_555
Pr14 Zn97 3.187841 1_555
Pr14 Zn94 3.187861 1_565
Pr14 Zn35 3.211847 1_555
Pr14 Zn32 3.211850 1_555
Pr14 Zn63 3.231451 1_555
Pr14 Zn64 3.231553 1_555
Pr14 Zn14 3.265003 1_555
Pr14 Zn4 3.312396 1_555
Pr15 Zn90 3.095873 1_555
Pr15 Zn20 3.111727 1_555
Pr15 Zn24 3.111727 1_565
Pr15 Zn101 3.131836 1_555
Pr15 Zn100 3.131836 1_555
Pr15 Zn45 3.160572 1_555
Pr15 Zn71 3.178176 1_555
Pr15 Zn73 3.178176 1_555
Pr15 Zn96 3.187794 1_565
Pr15 Zn92 3.187794 1_554
Pr15 Zn37 3.211782 1_555
Pr15 Zn33 3.211782 1_555
Pr15 Zn62 3.231575 1_555
Pr15 Zn64 3.231575 1_555
Pr15 Zn15 3.264942 1_555
Pr15 Zn4 3.312011 1_555
Pr16 Zn91 3.095875 1_555
Pr16 Zn21 3.111781 1_555
Pr16 Zn23 3.111782 1_555
Pr16 Zn103 3.131812 1_555
Pr16 Zn98 3.131820 1_555
Pr16 Zn46 3.160662 1_555
Pr16 Zn72 3.178002 1_555
Pr16 Zn71 3.178088 1_555
Pr16 Zn93 3.187841 1_555
Pr16 Zn95 3.187861 1_554
Pr16 Zn34 3.211847 1_555
Pr16 Zn36 3.211850 1_555
Pr16 Zn63 3.231451 1_555
Pr16 Zn62 3.231553 1_555
Pr16 Zn16 3.265003 1_555
Pr16 Zn4 3.312396 1_555
Pr17 Zn86 3.095875 1_555
Pr17 Zn21 3.111781 1_555
Pr17 Zn24 3.111782 1_555
Pr17 Zn93 3.131812 1_555
Pr17 Zn96 3.131820 1_555
Pr17 Zn47 3.160662 1_555
Pr17 Zn69 3.178002 1_555
Pr17 Zn70 3.178088 1_555
Pr17 Zn103 3.187841 1_555
Pr17 Zn100 3.187861 1_545
Pr17 Zn41 3.211847 1_555
Pr17 Zn38 3.211850 1_555
Pr17 Zn66 3.231451 1_555
Pr17 Zn67 3.231553 1_555
Pr17 Zn17 3.265003 1_555
Pr17 Zn5 3.312396 1_555
Pr18 Zn87 3.095873 1_555
Pr18 Zn22 3.111727 1_555
Pr18 Zn23 3.111727 1_556
Pr18 Zn94 3.131836 1_555
Pr18 Zn95 3.131836 1_555
Pr18 Zn48 3.160572 1_555
Pr18 Zn68 3.178176 1_555
Pr18 Zn70 3.178176 1_555
Pr18 Zn102 3.187794 1_545
Pr18 Zn98 3.187794 1_556
Pr18 Zn39 3.211782 1_555
Pr18 Zn43 3.211782 1_555
Pr18 Zn65 3.231575 1_555
Pr18 Zn67 3.231575 1_555
Pr18 Zn18 3.264942 1_555
Pr18 Zn5 3.312011 1_555
Pr19 Zn88 3.095875 1_555
Pr19 Zn25 3.111781 1_555
Pr19 Zn20 3.111782 1_556
Pr19 Zn97 3.131812 1_555
Pr19 Zn92 3.131820 1_555
Pr19 Zn49 3.160662 1_555
Pr19 Zn69 3.178002 1_555
Pr19 Zn68 3.178088 1_555
Pr19 Zn99 3.187841 1_555
Pr19 Zn101 3.187861 1_556
Pr19 Zn40 3.211847 1_555
Pr19 Zn42 3.211850 1_555
Pr19 Zn66 3.231451 1_555
Pr19 Zn65 3.231553 1_555
Pr19 Zn19 3.265003 1_555
Pr19 Zn5 3.312396 1_555
Pr20 Zn83 3.095875 1_455
Pr20 Zn31 3.111781 1_555
Pr20 Zn28 3.111782 1_555
Pr20 Zn111 3.131812 1_455
Pr20 Zn114 3.131820 1_455
Pr20 Zn50 3.160662 1_555
Pr20 Zn78 3.178002 1_455
Pr20 Zn79 3.178088 1_455
Pr20 Zn109 3.187841 1_555
Pr20 Zn106 3.187861 1_545
Pr20 Zn41 3.211847 1_555
Pr20 Zn38 3.211850 1_555
Pr20 Zn57 3.231451 1_555
Pr20 Zn58 3.231553 1_555
Pr20 Zn17 3.265003 1_555
Pr20 Zn6 3.312396 1_555
Pr21 Zn84 3.095873 1_455
Pr21 Zn30 3.111727 1_455
Pr21 Zn26 3.111727 1_456
Pr21 Zn112 3.131836 1_455
Pr21 Zn113 3.131836 1_455
Pr21 Zn51 3.160572 1_555
Pr21 Zn77 3.178176 1_455
Pr21 Zn79 3.178176 1_455
Pr21 Zn108 3.187794 1_545
Pr21 Zn104 3.187794 1_556
Pr21 Zn39 3.211782 1_555
Pr21 Zn43 3.211782 1_555
Pr21 Zn56 3.231575 1_555
Pr21 Zn58 3.231575 1_555
Pr21 Zn18 3.264942 1_555
Pr21 Zn6 3.312011 1_555
Pr22 Zn85 3.095875 1_455
Pr22 Zn27 3.111781 1_555
Pr22 Zn29 3.111782 1_556
Pr22 Zn115 3.131812 1_455
Pr22 Zn110 3.131820 1_455
Pr22 Zn52 3.160662 1_555
Pr22 Zn78 3.178002 1_455
Pr22 Zn77 3.178088 1_455
Pr22 Zn105 3.187841 1_555
Pr22 Zn107 3.187861 1_556
Pr22 Zn40 3.211847 1_555
Pr22 Zn42 3.211850 1_555
Pr22 Zn57 3.231451 1_555
Pr22 Zn56 3.231553 1_555
Pr22 Zn19 3.265003 1_555
Pr22 Zn6 3.312396 1_555
Pr23 Zn80 3.095875 1_655
Pr23 Zn27 3.111781 1_655
Pr23 Zn30 3.111782 1_565
Pr23 Zn105 3.131812 1_655
Pr23 Zn108 3.131820 1_655
Pr23 Zn53 3.160662 1_555
Pr23 Zn75 3.178002 1_655
Pr23 Zn76 3.178088 1_655
Pr23 Zn115 3.187841 1_555
Pr23 Zn112 3.187861 1_565
Pr23 Zn35 3.211847 1_555
Pr23 Zn32 3.211850 1_555
Pr23 Zn60 3.231451 1_555
Pr23 Zn61 3.231553 1_555
Pr23 Zn14 3.265003 1_555
Pr23 Zn7 3.312396 1_555
Pr24 Zn81 3.095873 1_655
Pr24 Zn29 3.111727 1_655
Pr24 Zn28 3.111727 1_665
Pr24 Zn107 3.131836 1_655
Pr24 Zn106 3.131836 1_655
Pr24 Zn54 3.160572 1_555
Pr24 Zn76 3.178176 1_655
Pr24 Zn74 3.178176 1_655
Pr24 Zn114 3.187794 1_565
Pr24 Zn110 3.187794 1_554
Pr24 Zn37 3.211782 1_555
Pr24 Zn33 3.211782 1_555
Pr24 Zn59 3.231575 1_555
Pr24 Zn61 3.231575 1_555
Pr24 Zn15 3.264942 1_555
Pr24 Zn7 3.312011 1_555
Pr25 Zn82 3.095875 1_655
Pr25 Zn31 3.111781 1_655
Pr25 Zn26 3.111782 1_555
Pr25 Zn109 3.131812 1_655
Pr25 Zn104 3.131820 1_655
Pr25 Zn55 3.160662 1_555
Pr25 Zn75 3.178002 1_655
Pr25 Zn74 3.178088 1_655
Pr25 Zn111 3.187841 1_555
Pr25 Zn113 3.187861 1_554
Pr25 Zn34 3.211847 1_555
Pr25 Zn36 3.211850 1_555
Pr25 Zn60 3.231451 1_555
Pr25 Zn59 3.231553 1_555
Pr25 Zn16 3.265003 1_555
Pr25 Zn7 3.312396 1_555
Zn0 Zn54 2.747537 1_546
Zn0 Zn45 2.747537 1_546
Zn0 Zn46 2.747541 1_556
Zn0 Zn55 2.747541 1_556
Zn0 Zn53 2.747541 1_545
Zn0 Zn44 2.747541 1_545
Zn1 Zn48 2.747537 1_564
Zn1 Zn51 2.747537 1_564
Zn1 Zn50 2.747541 1_565
Zn1 Zn47 2.747541 1_565
Zn1 Zn52 2.747541 1_554
Zn1 Zn49 2.747541 1_554
Zn2 Zn81 2.767723 1_555
Zn2 Zn90 2.767723 1_555
Zn2 Zn89 2.767971 1_555
Zn2 Zn82 2.767971 1_555
Zn2 Zn80 2.767971 1_555
Zn2 Zn91 2.767971 1_555
Zn3 Zn84 2.767723 1_555
Zn3 Zn87 2.767723 1_555
Zn3 Zn85 2.767971 1_555
Zn3 Zn88 2.767971 1_555
Zn3 Zn86 2.767971 1_555
Zn3 Zn83 2.767971 1_555
Zn4 Zn62 2.657566 1_555
Zn4 Zn64 2.657566 1_555
Zn4 Zn63 2.657851 1_555
Zn4 Zn73 2.664180 1_555
Zn4 Zn71 2.664180 1_555
Zn4 Zn72 2.664333 1_555
Zn5 Zn67 2.657566 1_555
Zn5 Zn65 2.657566 1_555
Zn5 Zn66 2.657851 1_555
Zn5 Zn68 2.664180 1_555
Zn5 Zn70 2.664180 1_555
Zn5 Zn69 2.664333 1_555
Zn6 Zn77 2.664180 1_455
Zn6 Zn79 2.664180 1_455
Zn6 Zn78 2.664333 1_455
Zn7 Zn76 2.664180 1_655
Zn7 Zn74 2.664180 1_655
Zn7 Zn75 2.664333 1_655
Zn8 Zn92 2.704376 1_554
Zn8 Zn98 2.704376 1_555
Zn8 Zn95 2.704380 1_554
Zn9 Zn93 2.704378 1_555
Zn9 Zn97 2.704378 1_555
Zn9 Zn99 2.704378 1_555
Zn10 Zn64 2.596916 1_545
Zn10 Zn67 2.596916 1_555
Zn10 Zn70 2.686051 1_555
Zn10 Zn73 2.686051 1_545
Zn10 Zn102 2.704376 1_545
Zn10 Zn96 2.704376 1_555
Zn10 Zn100 2.704380 1_545
Zn10 Zn94 2.704380 1_555
Zn11 Zn59 2.596916 1_455
Zn11 Zn56 2.596916 1_554
Zn11 Zn74 2.686051 1_555
Zn11 Zn77 2.686051 1_454
Zn11 Zn110 2.704376 1_454
Zn11 Zn113 2.704380 1_454
Zn12 Zn57 2.596999 1_555
Zn12 Zn60 2.596999 1_455
Zn12 Zn75 2.686085 1_555
Zn12 Zn78 2.686085 1_455
Zn13 Zn61 2.596916 1_445
Zn13 Zn58 2.596916 1_555
Zn13 Zn79 2.686051 1_455
Zn13 Zn76 2.686051 1_545
Zn14 Zn32 2.638111 1_555
Zn14 Zn35 2.638121 1_555
Zn14 Zn4 2.707996 1_555
Zn14 Zn7 2.707996 1_555
Zn14 Zn63 2.737124 1_555
Zn14 Zn60 2.737124 1_555
Zn14 Zn61 2.737244 1_555
Zn14 Zn64 2.737244 1_555
Zn14 Zn16 2.768222 1_555
Zn14 Zn15 2.768356 1_555
Zn15 Zn37 2.638037 1_555
Zn15 Zn33 2.638037 1_555
Zn15 Zn7 2.707783 1_555
Zn15 Zn4 2.707783 1_555
Zn15 Zn62 2.737241 1_555
Zn15 Zn59 2.737241 1_555
Zn15 Zn61 2.737241 1_555
Zn15 Zn64 2.737241 1_555
Zn15 Zn16 2.768356 1_555
Zn16 Zn36 2.638111 1_555
Zn16 Zn34 2.638121 1_555
Zn16 Zn7 2.707996 1_555
Zn16 Zn4 2.707996 1_555
Zn16 Zn60 2.737124 1_555
Zn16 Zn63 2.737124 1_555
Zn16 Zn62 2.737244 1_555
Zn16 Zn59 2.737244 1_555
Zn17 Zn38 2.638111 1_555
Zn17 Zn41 2.638121 1_555
Zn17 Zn5 2.707996 1_555
Zn17 Zn6 2.707996 1_555
Zn17 Zn57 2.737124 1_555
Zn17 Zn66 2.737124 1_555
Zn17 Zn67 2.737244 1_555
Zn17 Zn58 2.737244 1_555
Zn17 Zn19 2.768222 1_555
Zn17 Zn18 2.768356 1_555
Zn18 Zn39 2.638037 1_555
Zn18 Zn43 2.638037 1_555
Zn18 Zn6 2.707783 1_555
Zn18 Zn5 2.707783 1_555
Zn18 Zn58 2.737241 1_555
Zn18 Zn67 2.737241 1_555
Zn18 Zn65 2.737241 1_555
Zn18 Zn56 2.737241 1_555
Zn18 Zn19 2.768356 1_555
Zn19 Zn42 2.638111 1_555
Zn19 Zn40 2.638121 1_555
Zn19 Zn6 2.707996 1_555
Zn19 Zn5 2.707996 1_555
Zn19 Zn66 2.737124 1_555
Zn19 Zn57 2.737124 1_555
Zn19 Zn56 2.737244 1_555
Zn19 Zn65 2.737244 1_555
Zn20 Zn92 2.621609 1_554
Zn20 Zn49 2.683415 1_554
Zn20 Zn45 2.683429 1_555
Zn20 Zn24 2.955218 1_565
Zn20 Zn25 2.955223 1_554
Zn21 Zn93 2.621611 1_555
Zn21 Zn47 2.683417 1_555
Zn21 Zn46 2.683417 1_555
Zn21 Zn23 2.955223 1_555
Zn21 Zn24 2.955223 1_555
Zn22 Zn94 2.621611 1_555
Zn22 Zn44 2.683415 1_545
Zn22 Zn48 2.683429 1_555
Zn22 Zn23 2.955218 1_556
Zn22 Zn25 2.955223 1_545
Zn23 Zn98 2.621609 1_555
Zn23 Zn95 2.621611 1_554
Zn23 Zn46 2.683415 1_555
Zn23 Zn48 2.683429 1_554
Zn24 Zn96 2.621609 1_555
Zn24 Zn47 2.683415 1_555
Zn24 Zn45 2.683429 1_545
Zn25 Zn97 2.621611 1_555
Zn25 Zn99 2.621611 1_555
Zn25 Zn44 2.683417 1_555
Zn25 Zn49 2.683417 1_555
Zn26 Zn55 2.683415 1_555
Zn26 Zn51 2.683429 1_654
Zn26 Zn30 2.955218 1_554
Zn26 Zn31 2.955223 1_655
Zn27 Zn53 2.683417 1_455
Zn27 Zn52 2.683417 1_555
Zn27 Zn30 2.955223 1_465
Zn27 Zn29 2.955223 1_556
Zn28 Zn50 2.683415 1_555
Zn28 Zn54 2.683429 1_445
Zn28 Zn29 2.955218 1_545
Zn28 Zn31 2.955223 1_555
Zn29 Zn52 2.683415 1_554
Zn29 Zn54 2.683429 1_455
Zn30 Zn53 2.683415 1_545
Zn30 Zn51 2.683429 1_655
Zn31 Zn50 2.683417 1_555
Zn31 Zn55 2.683417 1_455
Zn32 Zn94 2.618268 1_565
Zn32 Zn35 2.886221 1_555
Zn32 Zn53 2.971971 1_555
Zn32 Zn44 2.971971 1_555
Zn32 Zn64 3.059746 1_555
Zn32 Zn61 3.059746 1_555
Zn33 Zn92 2.618263 1_554
Zn33 Zn37 2.886212 1_555
Zn33 Zn45 2.971956 1_555
Zn33 Zn54 2.971956 1_555
Zn33 Zn59 3.059775 1_555
Zn33 Zn62 3.059775 1_555
Zn34 Zn93 2.618256 1_555
Zn34 Zn36 2.886221 1_555
Zn34 Zn46 2.971954 1_555
Zn34 Zn55 2.971954 1_555
Zn34 Zn63 3.059813 1_555
Zn34 Zn60 3.059813 1_555
Zn35 Zn97 2.618256 1_555
Zn35 Zn53 2.971954 1_555
Zn35 Zn44 2.971954 1_555
Zn35 Zn63 3.059813 1_555
Zn35 Zn60 3.059813 1_555
Zn36 Zn95 2.618268 1_554
Zn36 Zn46 2.971971 1_555
Zn36 Zn55 2.971971 1_555
Zn36 Zn62 3.059746 1_555
Zn36 Zn59 3.059746 1_555
Zn37 Zn96 2.618263 1_565
Zn37 Zn45 2.971956 1_555
Zn37 Zn54 2.971956 1_555
Zn37 Zn64 3.059775 1_555
Zn37 Zn61 3.059775 1_555
Zn38 Zn41 2.886221 1_555
Zn38 Zn50 2.971971 1_555
Zn38 Zn47 2.971971 1_555
Zn38 Zn58 3.059746 1_555
Zn38 Zn67 3.059746 1_555
Zn39 Zn98 2.618263 1_556
Zn39 Zn43 2.886212 1_555
Zn39 Zn51 2.971956 1_555
Zn39 Zn48 2.971956 1_555
Zn39 Zn65 3.059775 1_555
Zn39 Zn56 3.059775 1_555
Zn40 Zn99 2.618256 1_555
Zn40 Zn42 2.886221 1_555
Zn40 Zn52 2.971954 1_555
Zn40 Zn49 2.971954 1_555
Zn40 Zn66 3.059813 1_555
Zn40 Zn57 3.059813 1_555
Zn41 Zn50 2.971954 1_555
Zn41 Zn47 2.971954 1_555
Zn41 Zn66 3.059813 1_555
Zn41 Zn57 3.059813 1_555
Zn42 Zn52 2.971971 1_555
Zn42 Zn49 2.971971 1_555
Zn42 Zn65 3.059746 1_555
Zn42 Zn56 3.059746 1_555
Zn43 Zn51 2.971956 1_555
Zn43 Zn48 2.971956 1_555
Zn43 Zn58 3.059775 1_555
Zn43 Zn67 3.059775 1_555
Zn44 Zn53 2.654046 1_555
Zn45 Zn54 2.654031 1_555
Zn46 Zn55 2.654046 1_555
Zn47 Zn50 2.654046 1_555
Zn48 Zn51 2.654031 1_555
Zn49 Zn52 2.654046 1_555
Zn56 Zn6 2.657566 1_555
Zn56 Zn77 2.895795 1_455
Zn56 Zn65 3.100382 1_555
Zn57 Zn6 2.657851 1_555
Zn57 Zn78 2.895582 1_455
Zn57 Zn66 3.100480 1_555
Zn58 Zn6 2.657566 1_555
Zn58 Zn79 2.895795 1_455
Zn58 Zn67 3.100382 1_555
Zn59 Zn7 2.657566 1_555
Zn59 Zn74 2.895795 1_655
Zn59 Zn62 3.100382 1_555
Zn60 Zn7 2.657851 1_555
Zn60 Zn75 2.895582 1_655
Zn60 Zn63 3.100480 1_555
Zn61 Zn7 2.657566 1_555
Zn61 Zn76 2.895795 1_655
Zn61 Zn64 3.100382 1_555
Zn62 Zn8 2.596916 1_555
Zn62 Zn71 2.895795 1_555
Zn62 Zn95 3.110010 1_554
Zn62 Zn92 3.110024 1_554
Zn63 Zn9 2.596999 1_555
Zn63 Zn72 2.895582 1_555
Zn63 Zn97 3.110132 1_555
Zn63 Zn93 3.110132 1_555
Zn64 Zn73 2.895795 1_555
Zn64 Zn94 3.110010 1_565
Zn64 Zn96 3.110024 1_565
Zn65 Zn8 2.596916 1_556
Zn65 Zn68 2.895795 1_555
Zn65 Zn98 3.110024 1_556
Zn66 Zn9 2.596999 1_555
Zn66 Zn69 2.895582 1_555
Zn66 Zn99 3.110132 1_555
Zn67 Zn70 2.895795 1_555
Zn68 Zn88 2.626355 1_555
Zn68 Zn87 2.626395 1_555
Zn68 Zn8 2.686051 1_556
Zn68 Zn69 2.835383 1_555
Zn68 Zn70 2.835427 1_555
Zn69 Zn86 2.626430 1_555
Zn69 Zn88 2.626430 1_555
Zn69 Zn9 2.686085 1_555
Zn69 Zn70 2.835383 1_555
Zn70 Zn86 2.626355 1_555
Zn70 Zn87 2.626395 1_555
Zn71 Zn91 2.626355 1_555
Zn71 Zn90 2.626395 1_555
Zn71 Zn8 2.686051 1_555
Zn71 Zn72 2.835383 1_555
Zn71 Zn73 2.835427 1_555
Zn72 Zn91 2.626430 1_555
Zn72 Zn89 2.626430 1_555
Zn72 Zn9 2.686085 1_555
Zn72 Zn73 2.835383 1_555
Zn73 Zn89 2.626355 1_555
Zn73 Zn90 2.626395 1_555
Zn74 Zn82 2.626355 1_555
Zn74 Zn81 2.626395 1_555
Zn74 Zn75 2.835383 1_555
Zn74 Zn76 2.835427 1_555
Zn75 Zn80 2.626430 1_555
Zn75 Zn82 2.626430 1_555
Zn75 Zn76 2.835383 1_555
Zn76 Zn80 2.626355 1_555
Zn76 Zn81 2.626395 1_555
Zn77 Zn85 2.626355 1_555
Zn77 Zn84 2.626395 1_555
Zn77 Zn78 2.835383 1_555
Zn77 Zn79 2.835427 1_555
Zn78 Zn85 2.626430 1_555
Zn78 Zn83 2.626430 1_555
Zn78 Zn79 2.835383 1_555
Zn79 Zn83 2.626355 1_555
Zn79 Zn84 2.626395 1_555
Zn80 Zn89 2.646169 1_555
Zn81 Zn90 2.646281 1_555
Zn82 Zn91 2.646169 1_555
Zn83 Zn86 2.646169 1_555
Zn84 Zn87 2.646281 1_555
Zn85 Zn88 2.646169 1_555
Zn86 Zn96 2.672316 1_555
Zn86 Zn93 2.672340 1_555
Zn87 Zn94 2.672245 1_555
Zn87 Zn95 2.672245 1_555
Zn88 Zn92 2.672316 1_555
Zn88 Zn97 2.672340 1_555
Zn89 Zn99 2.672340 1_555
Zn91 Zn98 2.672316 1_555
Zn100 Zn38 2.618268 1_565
Zn100 Zn24 2.621611 1_565
Zn100 Zn90 2.672245 1_555
Zn100 Zn67 3.110010 1_565
Zn101 Zn42 2.618268 1_554
Zn101 Zn20 2.621611 1_555
Zn101 Zn90 2.672245 1_555
Zn101 Zn8 2.704380 1_555
Zn101 Zn65 3.110010 1_554
Zn102 Zn43 2.618263 1_565
Zn102 Zn22 2.621609 1_565
Zn102 Zn89 2.672316 1_555
Zn102 Zn67 3.110024 1_565
Zn103 Zn41 2.618256 1_555
Zn103 Zn21 2.621611 1_555
Zn103 Zn91 2.672340 1_555
Zn103 Zn9 2.704378 1_555
Zn103 Zn66 3.110132 1_555
Zn104 Zn39 2.618263 1_554
Zn104 Zn26 2.621609 1_455
Zn104 Zn82 2.672316 1_555
Zn104 Zn11 2.704376 1_555
Zn104 Zn56 3.110024 1_554
Zn105 Zn40 2.618256 1_555
Zn105 Zn27 2.621611 1_555
Zn105 Zn80 2.672340 1_555
Zn105 Zn12 2.704378 1_555
Zn105 Zn57 3.110132 1_555
Zn106 Zn38 2.618268 1_565
Zn106 Zn28 2.621611 1_565
Zn106 Zn81 2.672245 1_555
Zn106 Zn13 2.704380 1_565
Zn106 Zn58 3.110010 1_565
Zn107 Zn42 2.618268 1_554
Zn107 Zn29 2.621611 1_555
Zn107 Zn81 2.672245 1_555
Zn107 Zn11 2.704380 1_555
Zn107 Zn56 3.110010 1_554
Zn108 Zn43 2.618263 1_565
Zn108 Zn30 2.621609 1_465
Zn108 Zn80 2.672316 1_555
Zn108 Zn13 2.704376 1_565
Zn108 Zn58 3.110024 1_565
Zn109 Zn41 2.618256 1_555
Zn109 Zn31 2.621611 1_555
Zn109 Zn82 2.672340 1_555
Zn109 Zn12 2.704378 1_555
Zn109 Zn57 3.110132 1_555
Zn110 Zn33 2.618263 1_556
Zn110 Zn29 2.621609 1_656
Zn110 Zn85 2.672316 1_555
Zn110 Zn59 3.110024 1_556
Zn111 Zn34 2.618256 1_555
Zn111 Zn31 2.621611 1_655
Zn111 Zn83 2.672340 1_555
Zn111 Zn12 2.704378 1_655
Zn111 Zn60 3.110132 1_555
Zn112 Zn32 2.618268 1_545
Zn112 Zn30 2.621611 1_555
Zn112 Zn84 2.672245 1_555
Zn112 Zn13 2.704380 1_655
Zn112 Zn61 3.110010 1_545
Zn113 Zn36 2.618268 1_556
Zn113 Zn26 2.621611 1_556
Zn113 Zn84 2.672245 1_555
Zn113 Zn59 3.110010 1_556
Zn114 Zn37 2.618263 1_545
Zn114 Zn28 2.621609 1_655
Zn114 Zn83 2.672316 1_555
Zn114 Zn13 2.704376 1_655
Zn114 Zn61 3.110024 1_545
Zn115 Zn35 2.618256 1_555
Zn115 Zn27 2.621611 1_655
Zn115 Zn85 2.672340 1_555
Zn115 Zn12 2.704378 1_655
Zn115 Zn60 3.110132 1_555
