# generated using pymatgen
data_K9Bi(PS4)4
_symmetry_space_group_name_H-M   'P 1'
_cell_length_a   9.09294000
_cell_length_b   9.79623500
_cell_length_c   18.60766700
_cell_angle_alpha   90.00000000
_cell_angle_beta   90.00000000
_cell_angle_gamma   90.00000000
_symmetry_Int_Tables_number   1
_chemical_formula_structural   K9Bi(PS4)4
_chemical_formula_sum   'K18 Bi2 P8 S32'
_cell_volume   1657.50728382
_cell_formula_units_Z   2
loop_
 _symmetry_equiv_pos_site_id
 _symmetry_equiv_pos_as_xyz
  1  'x, y, z'
loop_
 _atom_site_type_symbol
 _atom_site_label
 _atom_site_symmetry_multiplicity
 _atom_site_fract_x
 _atom_site_fract_y
 _atom_site_fract_z
 _atom_site_occupancy
  K  K0  1  0.14291900  0.99753700  0.57622400  1
  K  K1  1  0.12885100  0.48303300  0.41458500  1
  K  K2  1  0.47973500  0.23808000  0.73237000  1
  K  K3  1  0.50297300  0.75358100  0.25074700  1
  K  K4  1  0.50000000  0.23180000  0.50000000  1
  K  K5  1  0.62885100  0.51696700  0.08541500  1
  K  K6  1  0.35708100  0.00246300  0.07622400  1
  K  K7  1  0.85708100  0.99753700  0.42377600  1
  K  K8  1  0.00297300  0.24641900  0.24925300  1
  K  K9  1  0.99702700  0.24641900  0.75074700  1
  K  K10  1  0.49702700  0.75358100  0.74925300  1
  K  K11  1  0.37114900  0.51696700  0.91458500  1
  K  K12  1  0.00000000  0.76820000  0.00000000  1
  K  K13  1  0.64291900  0.00246300  0.92377600  1
  K  K14  1  0.02026500  0.76192000  0.23237000  1
  K  K15  1  0.97973500  0.76192000  0.76763000  1
  K  K16  1  0.52026500  0.23808000  0.26763000  1
  K  K17  1  0.87114900  0.48303300  0.58541500  1
  Bi  Bi0  1  0.50000000  0.72263200  0.50000000  1
  Bi  Bi1  1  0.00000000  0.27736800  0.00000000  1
  P  P0  1  0.79128400  0.49063700  0.87784100  1
  P  P1  1  0.72901900  0.97801600  0.63539500  1
  P  P2  1  0.70871600  0.50936300  0.37784100  1
  P  P3  1  0.29128400  0.50936300  0.62215900  1
  P  P4  1  0.22901900  0.02198400  0.86460500  1
  P  P5  1  0.27098100  0.97801600  0.36460500  1
  P  P6  1  0.77098100  0.02198400  0.13539500  1
  P  P7  1  0.20871600  0.49063700  0.12215900  1
  S  S0  1  0.76770600  0.99832300  0.24478400  1
  S  S1  1  0.30659000  0.84943300  0.91379500  1
  S  S2  1  0.78609600  0.66755400  0.44242200  1
  S  S3  1  0.64727700  0.18398600  0.10313800  1
  S  S4  1  0.85272300  0.81601400  0.60313800  1
  S  S5  1  0.51931400  0.51716600  0.60908200  1
  S  S6  1  0.71390400  0.33244600  0.94242200  1
  S  S7  1  0.98068600  0.48283400  0.10908200  1
  S  S8  1  0.70387600  0.66617700  0.91788100  1
  S  S9  1  0.69341000  0.84943300  0.08620500  1
  S  S10  1  0.76228700  0.52729400  0.27231500  1
  S  S11  1  0.14727700  0.81601400  0.39686200  1
  S  S12  1  0.01931400  0.48283400  0.89091800  1
  S  S13  1  0.26228700  0.47270600  0.22768500  1
  S  S14  1  0.48068600  0.51716600  0.39091800  1
  S  S15  1  0.00952800  0.05569600  0.89600000  1
  S  S16  1  0.26770600  0.00167700  0.25521600  1
  S  S17  1  0.73229400  0.00167700  0.74478400  1
  S  S18  1  0.99047200  0.05569600  0.10400000  1
  S  S19  1  0.79612400  0.33382300  0.41788100  1
  S  S20  1  0.23771300  0.52729400  0.72768500  1
  S  S21  1  0.21390400  0.66755400  0.55757800  1
  S  S22  1  0.35272300  0.18398600  0.89686200  1
  S  S23  1  0.28609600  0.33244600  0.05757800  1
  S  S24  1  0.19341000  0.15056700  0.41379500  1
  S  S25  1  0.29612400  0.66617700  0.08211900  1
  S  S26  1  0.20387600  0.33382300  0.58211900  1
  S  S27  1  0.23229400  0.99832300  0.75521600  1
  S  S28  1  0.73771300  0.47270600  0.77231500  1
  S  S29  1  0.50952800  0.94430400  0.60400000  1
  S  S30  1  0.80659000  0.15056700  0.58620500  1
  S  S31  1  0.49047200  0.94430400  0.39600000  1
loop_
_geom_bond_atom_site_label_1
_geom_bond_atom_site_label_2
_geom_bond_distance
_geom_bond_site_symmetry_2
K0 S4 3.221160 1_455
K0 S21 3.314611 1_555
K0 S26 3.342441 1_565
K0 S24 3.404877 1_565
K0 S30 3.410946 1_465
K0 S29 3.413452 1_555
K0 S27 3.428347 1_555
K1 S14 3.246648 1_555
K1 S11 3.282867 1_555
K1 S21 3.308361 1_555
K1 S24 3.309429 1_555
K1 S19 3.360620 1_455
K1 S26 3.510020 1_555
K1 S2 3.639955 1_455
K1 S13 3.684739 1_555
K2 S17 3.269632 1_555
K2 S27 3.280173 1_545
K2 S22 3.314092 1_555
K2 S28 3.367198 1_555
K2 S5 3.587079 1_555
K2 S20 3.588553 1_555
K3 S16 3.238867 1_565
K3 S10 3.261121 1_555
K3 S31 3.287697 1_555
K3 S0 3.399291 1_555
K3 S14 3.493968 1_555
K3 S13 3.541853 1_555
K3 S9 3.640676 1_555
K3 S25 3.757181 1_555
K4 S19 3.253321 1_555
K4 S26 3.253321 1_555
K4 S24 3.313332 1_555
K4 S30 3.313332 1_555
K4 S31 3.418257 1_545
K4 S29 3.418257 1_545
K4 S5 3.459142 1_555
K4 S14 3.459142 1_555
K5 S7 3.246648 1_555
K5 S3 3.282867 1_555
K5 S6 3.308361 1_554
K5 S9 3.309429 1_555
K5 S25 3.360620 1_555
K5 S8 3.510020 1_554
K5 S23 3.639955 1_555
K5 S10 3.684739 1_555
K6 S3 3.221160 1_555
K6 S23 3.314611 1_555
K6 S25 3.342441 1_545
K6 S1 3.404877 1_544
K6 S9 3.410946 1_545
K6 S18 3.413452 1_455
K6 S16 3.428347 1_555
K7 S11 3.221160 1_655
K7 S2 3.314611 1_555
K7 S19 3.342441 1_565
K7 S30 3.404877 1_565
K7 S24 3.410946 1_665
K7 S31 3.413452 1_555
K7 S0 3.428347 1_555
K8 S0 3.238867 1_445
K8 S13 3.261121 1_555
K8 S18 3.287697 1_455
K8 S16 3.399291 1_555
K8 S7 3.493968 1_455
K8 S10 3.541853 1_455
K8 S24 3.640676 1_555
K8 S19 3.757181 1_455
K9 S27 3.238867 1_645
K9 S28 3.261121 1_555
K9 S15 3.287697 1_655
K9 S17 3.399291 1_555
K9 S12 3.493968 1_655
K9 S20 3.541853 1_655
K9 S30 3.640676 1_555
K9 S26 3.757181 1_655
K10 S17 3.238867 1_565
K10 S20 3.261121 1_555
K10 S29 3.287697 1_555
K10 S27 3.399291 1_555
K10 S5 3.493968 1_555
K10 S28 3.541853 1_555
K10 S1 3.640676 1_555
K10 S8 3.757181 1_555
K11 S12 3.246648 1_555
K11 S22 3.282867 1_555
K11 S23 3.308361 1_556
K11 S1 3.309429 1_555
K11 S8 3.360620 1_555
K11 S25 3.510020 1_556
K11 S6 3.639955 1_555
K11 S20 3.684739 1_555
K12 S25 3.253321 1_555
K12 S8 3.253321 1_454
K12 S1 3.313332 1_554
K12 S9 3.313332 1_455
K12 S18 3.418257 1_465
K12 S15 3.418257 1_564
K12 S12 3.459142 1_554
K12 S7 3.459142 1_455
K13 S22 3.221160 1_555
K13 S6 3.314611 1_555
K13 S8 3.342441 1_545
K13 S9 3.404877 1_546
K13 S1 3.410946 1_545
K13 S15 3.413452 1_655
K13 S17 3.428347 1_555
K14 S0 3.269632 1_455
K14 S16 3.280173 1_565
K14 S11 3.314092 1_555
K14 S10 3.367198 1_455
K14 S7 3.587079 1_455
K14 S13 3.588553 1_555
K15 S27 3.269632 1_655
K15 S17 3.280173 1_565
K15 S4 3.314092 1_555
K15 S20 3.367198 1_655
K15 S12 3.587079 1_655
K15 S28 3.588553 1_555
K16 S16 3.269632 1_555
K16 S0 3.280173 1_545
K16 S3 3.314092 1_555
K16 S13 3.367198 1_555
K16 S14 3.587079 1_555
K16 S10 3.588553 1_555
K17 S5 3.246648 1_555
K17 S4 3.282867 1_555
K17 S2 3.308361 1_555
K17 S30 3.309429 1_555
K17 S26 3.360620 1_655
K17 S19 3.510020 1_555
K17 S21 3.639955 1_655
K17 S28 3.684739 1_555
Bi0 S5 2.863933 1_555
Bi0 S14 2.863933 1_555
Bi0 S2 2.864710 1_555
Bi0 S21 2.864710 1_555
Bi0 S29 2.910005 1_555
Bi0 S31 2.910005 1_555
Bi1 S12 2.863933 1_554
Bi1 S7 2.863933 1_455
Bi1 S6 2.864710 1_454
Bi1 S23 2.864710 1_555
Bi1 S15 2.910005 1_554
Bi1 S18 2.910005 1_455
P0 S28 2.030723 1_555
P0 S8 2.035665 1_555
P0 S6 2.083423 1_555
P0 S12 2.089091 1_655
P1 S4 2.035712 1_555
P1 S30 2.047583 1_565
P1 S17 2.048845 1_565
P1 S29 2.105619 1_555
P2 S10 2.030723 1_555
P2 S19 2.035665 1_555
P2 S2 2.083423 1_555
P2 S14 2.089091 1_555
P3 S20 2.030723 1_555
P3 S26 2.035665 1_555
P3 S21 2.083423 1_555
P3 S5 2.089091 1_555
P4 S22 2.035712 1_555
P4 S1 2.047583 1_545
P4 S27 2.048845 1_545
P4 S15 2.105619 1_555
P5 S11 2.035712 1_555
P5 S24 2.047583 1_565
P5 S16 2.048845 1_565
P5 S31 2.105619 1_555
P6 S3 2.035712 1_555
P6 S9 2.047583 1_545
P6 S0 2.048845 1_545
P6 S18 2.105619 1_555
P7 S13 2.030723 1_555
P7 S25 2.035665 1_555
P7 S23 2.083423 1_555
P7 S7 2.089091 1_455
