# generated using pymatgen
data_Ba(SbAu)2
_symmetry_space_group_name_H-M   'P 1'
_cell_length_a   4.85123329
_cell_length_b   5.00721039
_cell_length_c   11.05244336
_cell_angle_alpha   91.03311398
_cell_angle_beta   90.00000000
_cell_angle_gamma   90.00000000
_symmetry_Int_Tables_number   1
_chemical_formula_structural   Ba(SbAu)2
_chemical_formula_sum   'Ba2 Sb4 Au4'
_cell_volume   268.43286916
_cell_formula_units_Z   2
loop_
 _symmetry_equiv_pos_site_id
 _symmetry_equiv_pos_as_xyz
  1  'x, y, z'
loop_
 _atom_site_type_symbol
 _atom_site_label
 _atom_site_symmetry_multiplicity
 _atom_site_fract_x
 _atom_site_fract_y
 _atom_site_fract_z
 _atom_site_occupancy
  Ba  Ba0  1  0.25000000  0.25964800  0.75547311  1
  Ba  Ba1  1  0.75000000  0.74035200  0.24452689  1
  Sb  Sb0  1  0.75000000  0.24769376  0.50303887  1
  Sb  Sb1  1  0.25000000  0.75230624  0.49696113  1
  Sb  Sb2  1  0.25000000  0.20018271  0.12326417  1
  Sb  Sb3  1  0.75000000  0.79981729  0.87673583  1
  Au  Au0  1  0.75000000  0.30564260  0.00103881  1
  Au  Au1  1  0.75000000  0.74797748  0.63002088  1
  Au  Au2  1  0.25000000  0.25202252  0.36997912  1
  Au  Au3  1  0.25000000  0.69435740  0.99896119  1
loop_
_geom_bond_atom_site_label_1
_geom_bond_atom_site_label_2
_geom_bond_distance
_geom_bond_site_symmetry_2
Ba0 Sb3 3.618360 1_545
Ba0 Sb3 3.618360 1_445
Ba0 Sb0 3.696669 1_455
Ba0 Sb0 3.696669 1_555
Ba0 Sb1 3.788833 1_545
Ba0 Sb1 3.808282 1_555
Ba0 Sb3 3.855488 1_455
Ba0 Sb3 3.855488 1_555
Ba1 Sb2 3.618360 1_565
Ba1 Sb2 3.618360 1_665
Ba1 Sb1 3.696669 1_655
Ba1 Sb1 3.696669 1_555
Ba1 Sb0 3.788833 1_565
Ba1 Sb0 3.808282 1_555
Ba1 Sb2 3.855488 1_655
Ba1 Sb2 3.855488 1_555
Au0 Sb2 2.830740 1_555
Au0 Sb2 2.830740 1_655
Au0 Sb3 2.851823 1_554
Au0 Sb3 2.859534 1_544
Au0 Au3 3.110328 1_554
Au0 Au3 3.110328 1_654
Au0 Ba1 3.430588 1_555
Au0 Ba0 3.644237 1_554
Au0 Ba0 3.644237 1_654
Au0 Ba1 3.940660 1_545
Au1 Sb3 2.734467 1_555
Au1 Sb1 2.836900 1_655
Au1 Sb1 2.836900 1_555
Au1 Sb0 2.849225 1_555
Au1 Sb0 2.890894 1_565
Au1 Ba0 3.729243 1_555
Au1 Ba0 3.729243 1_655
Au1 Ba0 3.773871 1_565
Au1 Ba0 3.773871 1_665
Au2 Sb2 2.734467 1_555
Au2 Sb0 2.836900 1_455
Au2 Sb0 2.836900 1_555
Au2 Sb1 2.849225 1_555
Au2 Sb1 2.890894 1_545
Au2 Ba1 3.729243 1_455
Au2 Ba1 3.729243 1_555
Au2 Ba1 3.773871 1_545
Au2 Ba1 3.773871 1_445
Au3 Sb3 2.830740 1_455
Au3 Sb3 2.830740 1_555
Au3 Sb2 2.851823 1_556
Au3 Sb2 2.859534 1_566
Au3 Ba0 3.430588 1_555
Au3 Ba1 3.644237 1_556
Au3 Ba1 3.644237 1_456
Au3 Ba0 3.940660 1_565
