# generated using pymatgen
data_Ba6Ge25
_symmetry_space_group_name_H-M   'P 1'
_cell_length_a   14.82730201
_cell_length_b   14.82730201
_cell_length_c   14.82730201
_cell_angle_alpha   90.00000000
_cell_angle_beta   90.00000000
_cell_angle_gamma   90.00000000
_symmetry_Int_Tables_number   1
_chemical_formula_structural   Ba6Ge25
_chemical_formula_sum   'Ba24 Ge100'
_cell_volume   3259.76581291
_cell_formula_units_Z   4
loop_
 _symmetry_equiv_pos_site_id
 _symmetry_equiv_pos_as_xyz
  1  'x, y, z'
loop_
 _atom_site_type_symbol
 _atom_site_label
 _atom_site_symmetry_multiplicity
 _atom_site_fract_x
 _atom_site_fract_y
 _atom_site_fract_z
 _atom_site_occupancy
  Ba  Ba0  1  0.55935360  0.55935360  0.55935360  1
  Ba  Ba1  1  0.81005065  0.06005065  0.12500000  1
  Ba  Ba2  1  0.93994935  0.62500000  0.68994935  1
  Ba  Ba3  1  0.05935360  0.94064640  0.44064640  1
  Ba  Ba4  1  0.06005065  0.12500000  0.81005065  1
  Ba  Ba5  1  0.62500000  0.12500000  0.37500000  1
  Ba  Ba6  1  0.37500000  0.18994935  0.56005065  1
  Ba  Ba7  1  0.18994935  0.56005065  0.37500000  1
  Ba  Ba8  1  0.30935360  0.80935360  0.69064640  1
  Ba  Ba9  1  0.87500000  0.31005065  0.43994935  1
  Ba  Ba10  1  0.87500000  0.87500000  0.87500000  1
  Ba  Ba11  1  0.31005065  0.43994935  0.87500000  1
  Ba  Ba12  1  0.68994935  0.93994935  0.62500000  1
  Ba  Ba13  1  0.43994935  0.87500000  0.31005065  1
  Ba  Ba14  1  0.12500000  0.37500000  0.62500000  1
  Ba  Ba15  1  0.19064640  0.19064640  0.19064640  1
  Ba  Ba16  1  0.62500000  0.68994935  0.93994935  1
  Ba  Ba17  1  0.12500000  0.81005065  0.06005065  1
  Ba  Ba18  1  0.44064640  0.05935360  0.94064640  1
  Ba  Ba19  1  0.56005065  0.37500000  0.18994935  1
  Ba  Ba20  1  0.37500000  0.62500000  0.12500000  1
  Ba  Ba21  1  0.69064640  0.30935360  0.80935360  1
  Ba  Ba22  1  0.94064640  0.44064640  0.05935360  1
  Ba  Ba23  1  0.80935360  0.69064640  0.30935360  1
  Ge  Ge0  1  0.39799694  0.16635296  0.33343599  1
  Ge  Ge1  1  0.67458653  0.82541347  0.17458653  1
  Ge  Ge2  1  0.93412550  0.87361137  0.23890954  1
  Ge  Ge3  1  0.32541347  0.32541347  0.32541347  1
  Ge  Ge4  1  0.54229747  0.50005576  0.79717788  1
  Ge  Ge5  1  0.04717788  0.74994424  0.29229747  1
  Ge  Ge6  1  0.70770253  0.54717788  0.75005576  1
  Ge  Ge7  1  0.29229747  0.04717788  0.74994424  1
  Ge  Ge8  1  0.58343599  0.08364704  0.14799694  1
  Ge  Ge9  1  0.58052587  0.62500000  0.33052587  1
  Ge  Ge10  1  0.16656401  0.60200306  0.66635296  1
  Ge  Ge11  1  0.24994424  0.20770253  0.95282212  1
  Ge  Ge12  1  0.37361137  0.26109046  0.06587450  1
  Ge  Ge13  1  0.18412550  0.01109046  0.62361137  1
  Ge  Ge14  1  0.45770253  0.00005576  0.70282212  1
  Ge  Ge15  1  0.16947413  0.41947413  0.12500000  1
  Ge  Ge16  1  0.04229747  0.99994424  0.20282212  1
  Ge  Ge17  1  0.12361137  0.31587450  0.98890954  1
  Ge  Ge18  1  0.82541347  0.17458653  0.67458653  1
  Ge  Ge19  1  0.01109046  0.62361137  0.18412550  1
  Ge  Ge20  1  0.26109046  0.06587450  0.37361137  1
  Ge  Ge21  1  0.37500000  0.83052587  0.91947413  1
  Ge  Ge22  1  0.31587450  0.98890954  0.12361137  1
  Ge  Ge23  1  0.99994424  0.20282212  0.04229747  1
  Ge  Ge24  1  0.08343599  0.41635296  0.85200306  1
  Ge  Ge25  1  0.70282212  0.45770253  0.00005576  1
  Ge  Ge26  1  0.21949334  0.78050666  0.28050666  1
  Ge  Ge27  1  0.95770253  0.49994424  0.29717788  1
  Ge  Ge28  1  0.66635296  0.16656401  0.60200306  1
  Ge  Ge29  1  0.28050666  0.21949334  0.78050666  1
  Ge  Ge30  1  0.91947413  0.37500000  0.83052587  1
  Ge  Ge31  1  0.37638863  0.68412550  0.48890954  1
  Ge  Ge32  1  0.74994424  0.29229747  0.04717788  1
  Ge  Ge33  1  0.41656401  0.58364704  0.35200306  1
  Ge  Ge34  1  0.95282212  0.24994424  0.20770253  1
  Ge  Ge35  1  0.45282212  0.25005576  0.79229747  1
  Ge  Ge36  1  0.03050666  0.03050666  0.03050666  1
  Ge  Ge37  1  0.33343599  0.39799694  0.16635296  1
  Ge  Ge38  1  0.73890954  0.56587450  0.12638863  1
  Ge  Ge39  1  0.12638863  0.73890954  0.56587450  1
  Ge  Ge40  1  0.79717788  0.54229747  0.50005576  1
  Ge  Ge41  1  0.41635296  0.85200306  0.08343599  1
  Ge  Ge42  1  0.35200306  0.41656401  0.58364704  1
  Ge  Ge43  1  0.62500000  0.33052587  0.58052587  1
  Ge  Ge44  1  0.98890954  0.12361137  0.31587450  1
  Ge  Ge45  1  0.81587450  0.51109046  0.87638863  1
  Ge  Ge46  1  0.79229747  0.45282212  0.25005576  1
  Ge  Ge47  1  0.56587450  0.12638863  0.73890954  1
  Ge  Ge48  1  0.87361137  0.23890954  0.93412550  1
  Ge  Ge49  1  0.66656401  0.89799694  0.33364704  1
  Ge  Ge50  1  0.64799694  0.91656401  0.91635296  1
  Ge  Ge51  1  0.10200306  0.83364704  0.83343599  1
  Ge  Ge52  1  0.29717788  0.95770253  0.49994424  1
  Ge  Ge53  1  0.57541347  0.92458653  0.07541347  1
  Ge  Ge54  1  0.92458653  0.07541347  0.57541347  1
  Ge  Ge55  1  0.96949334  0.53050666  0.46949334  1
  Ge  Ge56  1  0.16635296  0.33343599  0.39799694  1
  Ge  Ge57  1  0.17458653  0.67458653  0.82541347  1
  Ge  Ge58  1  0.78050666  0.28050666  0.21949334  1
  Ge  Ge59  1  0.54717788  0.75005576  0.70770253  1
  Ge  Ge60  1  0.51109046  0.87638863  0.81587450  1
  Ge  Ge61  1  0.76109046  0.43412550  0.62638863  1
  Ge  Ge62  1  0.62361137  0.18412550  0.01109046  1
  Ge  Ge63  1  0.62638863  0.76109046  0.43412550  1
  Ge  Ge64  1  0.50005576  0.79717788  0.54229747  1
  Ge  Ge65  1  0.08364704  0.14799694  0.58343599  1
  Ge  Ge66  1  0.58364704  0.35200306  0.41656401  1
  Ge  Ge67  1  0.89799694  0.33364704  0.66656401  1
  Ge  Ge68  1  0.83052587  0.91947413  0.37500000  1
  Ge  Ge69  1  0.07541347  0.57541347  0.92458653  1
  Ge  Ge70  1  0.43412550  0.62638863  0.76109046  1
  Ge  Ge71  1  0.06587450  0.37361137  0.26109046  1
  Ge  Ge72  1  0.33364704  0.66656401  0.89799694  1
  Ge  Ge73  1  0.87500000  0.66947413  0.08052587  1
  Ge  Ge74  1  0.75005576  0.70770253  0.54717788  1
  Ge  Ge75  1  0.46949334  0.96949334  0.53050666  1
  Ge  Ge76  1  0.20282212  0.04229747  0.99994424  1
  Ge  Ge77  1  0.20770253  0.95282212  0.24994424  1
  Ge  Ge78  1  0.83343599  0.10200306  0.83364704  1
  Ge  Ge79  1  0.87638863  0.81587450  0.51109046  1
  Ge  Ge80  1  0.12500000  0.16947413  0.41947413  1
  Ge  Ge81  1  0.23890954  0.93412550  0.87361137  1
  Ge  Ge82  1  0.91635296  0.64799694  0.91656401  1
  Ge  Ge83  1  0.49994424  0.29717788  0.95770253  1
  Ge  Ge84  1  0.91656401  0.91635296  0.64799694  1
  Ge  Ge85  1  0.25005576  0.79229747  0.45282212  1
  Ge  Ge86  1  0.48890954  0.37638863  0.68412550  1
  Ge  Ge87  1  0.14799694  0.58343599  0.08364704  1
  Ge  Ge88  1  0.66947413  0.08052587  0.87500000  1
  Ge  Ge89  1  0.83364704  0.83343599  0.10200306  1
  Ge  Ge90  1  0.68412550  0.48890954  0.37638863  1
  Ge  Ge91  1  0.85200306  0.08343599  0.41635296  1
  Ge  Ge92  1  0.33052587  0.58052587  0.62500000  1
  Ge  Ge93  1  0.08052587  0.87500000  0.66947413  1
  Ge  Ge94  1  0.53050666  0.46949334  0.96949334  1
  Ge  Ge95  1  0.71949334  0.71949334  0.71949334  1
  Ge  Ge96  1  0.00005576  0.70282212  0.45770253  1
  Ge  Ge97  1  0.60200306  0.66635296  0.16656401  1
  Ge  Ge98  1  0.42458653  0.42458653  0.42458653  1
  Ge  Ge99  1  0.41947413  0.12500000  0.16947413  1
loop_
_geom_bond_atom_site_label_1
_geom_bond_atom_site_label_2
_geom_bond_distance
_geom_bond_site_symmetry_2
Ba0 Ge31 3.445763 1_555
Ba0 Ge86 3.445763 1_555
Ba0 Ge90 3.445763 1_555
Ba0 Ge98 3.461039 1_555
Ba0 Ge9 3.543689 1_555
Ba0 Ge92 3.543689 1_555
Ba0 Ge43 3.543689 1_555
Ba0 Ge59 3.586950 1_555
Ba0 Ge74 3.586950 1_555
Ba0 Ge6 3.586950 1_555
Ba0 Ge4 3.643039 1_555
Ba0 Ge64 3.643039 1_555
Ba0 Ge40 3.643039 1_555
Ba0 Ge70 3.658275 1_555
Ba0 Ge63 3.658275 1_555
Ba0 Ge61 3.658275 1_555
Ba0 Ge33 3.750261 1_555
Ba0 Ge42 3.750261 1_555
Ba0 Ge66 3.750261 1_555
Ba1 Ge8 3.395415 1_555
Ba1 Ge89 3.395415 1_545
Ba1 Ge36 3.583262 1_655
Ba1 Ge58 3.583262 1_555
Ba1 Ge2 3.725448 1_545
Ba1 Ge62 3.725448 1_555
Ba1 Ge23 3.729972 1_555
Ba1 Ge34 3.729972 1_555
Ba1 Ge32 3.739528 1_555
Ba1 Ge16 3.739528 1_645
Ba1 Ge44 3.991369 1_555
Ba1 Ge48 3.991369 1_554
Ba2 Ge82 3.395415 1_555
Ba2 Ge10 3.395415 1_655
Ba2 Ge55 3.583262 1_555
Ba2 Ge95 3.583262 1_555
Ba2 Ge45 3.725448 1_555
Ba2 Ge39 3.725448 1_655
Ba2 Ge40 3.729972 1_555
Ba2 Ge74 3.729972 1_555
Ba2 Ge6 3.739528 1_555
Ba2 Ge96 3.739528 1_655
Ba2 Ge79 3.991369 1_555
Ba2 Ge61 3.991369 1_555
Ba3 Ge44 3.445763 1_465
Ba3 Ge13 3.445763 1_565
Ba3 Ge79 3.445763 1_455
Ba3 Ge54 3.461039 1_465
Ba3 Ge68 3.543689 1_455
Ba3 Ge80 3.543689 1_565
Ba3 Ge93 3.543689 1_555
Ba3 Ge5 3.586950 1_555
Ba3 Ge85 3.586950 1_555
Ba3 Ge77 3.586950 1_555
Ba3 Ge96 3.643039 1_555
Ba3 Ge16 3.643039 1_555
Ba3 Ge52 3.643039 1_555
Ba3 Ge39 3.658275 1_555
Ba3 Ge20 3.658275 1_565
Ba3 Ge2 3.658275 1_455
Ba3 Ge91 3.750261 1_465
Ba3 Ge84 3.750261 1_455
Ba3 Ge65 3.750261 1_565
Ba4 Ge65 3.395415 1_555
Ba4 Ge78 3.395415 1_455
Ba4 Ge36 3.583262 1_556
Ba4 Ge29 3.583262 1_555
Ba4 Ge48 3.725448 1_455
Ba4 Ge13 3.725448 1_555
Ba4 Ge76 3.729972 1_555
Ba4 Ge11 3.729972 1_555
Ba4 Ge7 3.739528 1_555
Ba4 Ge23 3.739528 1_456
Ba4 Ge17 3.991369 1_555
Ba4 Ge81 3.991369 1_545
Ba5 Ge0 3.476300 1_555
Ba5 Ge8 3.476300 1_555
Ba5 Ge66 3.476300 1_555
Ba5 Ge49 3.476300 1_545
Ba5 Ge28 3.476300 1_555
Ba5 Ge91 3.476300 1_555
Ba5 Ge58 3.993666 1_555
Ba5 Ge75 3.993666 1_545
Ba6 Ge42 3.395415 1_555
Ba6 Ge0 3.395415 1_555
Ba6 Ge29 3.583262 1_555
Ba6 Ge75 3.583262 1_545
Ba6 Ge86 3.725448 1_555
Ba6 Ge20 3.725448 1_555
Ba6 Ge14 3.729972 1_555
Ba6 Ge7 3.729972 1_555
Ba6 Ge52 3.739528 1_545
Ba6 Ge35 3.739528 1_555
Ba6 Ge47 3.991369 1_555
Ba6 Ge13 3.991369 1_555
Ba7 Ge33 3.395415 1_555
Ba7 Ge56 3.395415 1_555
Ba7 Ge26 3.583262 1_555
Ba7 Ge55 3.583262 1_455
Ba7 Ge31 3.725448 1_555
Ba7 Ge71 3.725448 1_555
Ba7 Ge5 3.729972 1_555
Ba7 Ge96 3.729972 1_555
Ba7 Ge27 3.739528 1_455
Ba7 Ge85 3.739528 1_555
Ba7 Ge39 3.991369 1_555
Ba7 Ge19 3.991369 1_555
Ba8 Ge81 3.445763 1_555
Ba8 Ge70 3.445763 1_555
Ba8 Ge39 3.445763 1_555
Ba8 Ge57 3.461039 1_555
Ba8 Ge21 3.543689 1_555
Ba8 Ge92 3.543689 1_555
Ba8 Ge93 3.543689 1_555
Ba8 Ge64 3.586950 1_555
Ba8 Ge14 3.586950 1_565
Ba8 Ge52 3.586950 1_555
Ba8 Ge85 3.643039 1_555
Ba8 Ge7 3.643039 1_565
Ba8 Ge59 3.643039 1_555
Ba8 Ge13 3.658275 1_565
Ba8 Ge60 3.658275 1_555
Ba8 Ge31 3.658275 1_555
Ba8 Ge10 3.750261 1_555
Ba8 Ge72 3.750261 1_555
Ba8 Ge51 3.750261 1_555
Ba9 Ge67 3.395415 1_555
Ba9 Ge91 3.395415 1_555
Ba9 Ge58 3.583262 1_555
Ba9 Ge55 3.583262 1_555
Ba9 Ge44 3.725448 1_555
Ba9 Ge61 3.725448 1_555
Ba9 Ge46 3.729972 1_555
Ba9 Ge27 3.729972 1_555
Ba9 Ge34 3.739528 1_555
Ba9 Ge40 3.739528 1_555
Ba9 Ge71 3.991369 1_655
Ba9 Ge90 3.991369 1_555
Ba10 Ge51 3.476300 1_655
Ba10 Ge89 3.476300 1_556
Ba10 Ge78 3.476300 1_565
Ba10 Ge82 3.476300 1_555
Ba10 Ge50 3.476300 1_555
Ba10 Ge84 3.476300 1_555
Ba10 Ge36 3.993666 1_666
Ba10 Ge95 3.993666 1_555
Ba11 Ge24 3.395415 1_555
Ba11 Ge72 3.395415 1_555
Ba11 Ge29 3.583262 1_555
Ba11 Ge94 3.583262 1_555
Ba11 Ge70 3.725448 1_555
Ba11 Ge17 3.725448 1_555
Ba11 Ge35 3.729972 1_555
Ba11 Ge83 3.729972 1_555
Ba11 Ge11 3.739528 1_555
Ba11 Ge4 3.739528 1_555
Ba11 Ge12 3.991369 1_556
Ba11 Ge86 3.991369 1_555
Ba12 Ge84 3.395415 1_555
Ba12 Ge28 3.395415 1_565
Ba12 Ge75 3.583262 1_555
Ba12 Ge95 3.583262 1_555
Ba12 Ge79 3.725448 1_555
Ba12 Ge47 3.725448 1_565
Ba12 Ge64 3.729972 1_555
Ba12 Ge59 3.729972 1_555
Ba12 Ge74 3.739528 1_555
Ba12 Ge14 3.739528 1_565
Ba12 Ge60 3.991369 1_555
Ba12 Ge63 3.991369 1_555
Ba13 Ge41 3.395415 1_555
Ba13 Ge49 3.395415 1_555
Ba13 Ge26 3.583262 1_555
Ba13 Ge75 3.583262 1_555
Ba13 Ge22 3.725448 1_555
Ba13 Ge63 3.725448 1_555
Ba13 Ge85 3.729972 1_555
Ba13 Ge52 3.729972 1_555
Ba13 Ge77 3.739528 1_555
Ba13 Ge64 3.739528 1_555
Ba13 Ge20 3.991369 1_565
Ba13 Ge31 3.991369 1_555
Ba14 Ge56 3.476300 1_555
Ba14 Ge65 3.476300 1_555
Ba14 Ge67 3.476300 1_455
Ba14 Ge42 3.476300 1_555
Ba14 Ge24 3.476300 1_555
Ba14 Ge10 3.476300 1_555
Ba14 Ge55 3.993666 1_455
Ba14 Ge29 3.993666 1_555
Ba15 Ge20 3.445763 1_555
Ba15 Ge12 3.445763 1_555
Ba15 Ge71 3.445763 1_555
Ba15 Ge3 3.461039 1_555
Ba15 Ge80 3.543689 1_555
Ba15 Ge99 3.543689 1_555
Ba15 Ge15 3.543689 1_555
Ba15 Ge23 3.586950 1_455
Ba15 Ge76 3.586950 1_554
Ba15 Ge16 3.586950 1_545
Ba15 Ge77 3.643039 1_545
Ba15 Ge34 3.643039 1_455
Ba15 Ge11 3.643039 1_554
Ba15 Ge17 3.658275 1_554
Ba15 Ge22 3.658275 1_545
Ba15 Ge44 3.658275 1_455
Ba15 Ge56 3.750261 1_555
Ba15 Ge37 3.750261 1_555
Ba15 Ge0 3.750261 1_555
Ba16 Ge50 3.395415 1_555
Ba16 Ge97 3.395415 1_556
Ba16 Ge94 3.583262 1_555
Ba16 Ge95 3.583262 1_555
Ba16 Ge60 3.725448 1_555
Ba16 Ge38 3.725448 1_556
Ba16 Ge4 3.729972 1_555
Ba16 Ge6 3.729972 1_555
Ba16 Ge59 3.739528 1_555
Ba16 Ge25 3.739528 1_556
Ba16 Ge45 3.991369 1_555
Ba16 Ge70 3.991369 1_555
Ba17 Ge87 3.395415 1_555
Ba17 Ge51 3.395415 1_554
Ba17 Ge36 3.583262 1_565
Ba17 Ge26 3.583262 1_555
Ba17 Ge81 3.725448 1_554
Ba17 Ge19 3.725448 1_555
Ba17 Ge16 3.729972 1_555
Ba17 Ge77 3.729972 1_555
Ba17 Ge5 3.739528 1_555
Ba17 Ge76 3.739528 1_564
Ba17 Ge22 3.991369 1_555
Ba17 Ge2 3.991369 1_455
Ba18 Ge22 3.445763 1_546
Ba18 Ge62 3.445763 1_556
Ba18 Ge60 3.445763 1_545
Ba18 Ge53 3.461039 1_546
Ba18 Ge99 3.543689 1_556
Ba18 Ge88 3.543689 1_555
Ba18 Ge21 3.543689 1_545
Ba18 Ge11 3.586950 1_555
Ba18 Ge7 3.586950 1_555
Ba18 Ge35 3.586950 1_555
Ba18 Ge83 3.643039 1_555
Ba18 Ge14 3.643039 1_555
Ba18 Ge76 3.643039 1_555
Ba18 Ge47 3.658275 1_555
Ba18 Ge12 3.658275 1_556
Ba18 Ge81 3.658275 1_545
Ba18 Ge41 3.750261 1_546
Ba18 Ge50 3.750261 1_545
Ba18 Ge8 3.750261 1_556
Ba19 Ge37 3.395415 1_555
Ba19 Ge66 3.395415 1_555
Ba19 Ge58 3.583262 1_555
Ba19 Ge94 3.583262 1_554
Ba19 Ge90 3.725448 1_555
Ba19 Ge12 3.725448 1_555
Ba19 Ge25 3.729972 1_555
Ba19 Ge32 3.729972 1_555
Ba19 Ge83 3.739528 1_554
Ba19 Ge46 3.739528 1_555
Ba19 Ge38 3.991369 1_555
Ba19 Ge62 3.991369 1_555
Ba20 Ge37 3.476300 1_555
Ba20 Ge87 3.476300 1_555
Ba20 Ge41 3.476300 1_555
Ba20 Ge33 3.476300 1_555
Ba20 Ge97 3.476300 1_555
Ba20 Ge72 3.476300 1_554
Ba20 Ge94 3.993666 1_554
Ba20 Ge26 3.993666 1_555
Ba21 Ge48 3.445763 1_555
Ba21 Ge61 3.445763 1_555
Ba21 Ge47 3.445763 1_555
Ba21 Ge18 3.461039 1_555
Ba21 Ge43 3.543689 1_555
Ba21 Ge88 3.543689 1_555
Ba21 Ge30 3.543689 1_555
Ba21 Ge4 3.586950 1_555
Ba21 Ge25 3.586950 1_556
Ba21 Ge83 3.586950 1_555
Ba21 Ge35 3.643039 1_555
Ba21 Ge32 3.643039 1_556
Ba21 Ge6 3.643039 1_555
Ba21 Ge62 3.658275 1_556
Ba21 Ge45 3.658275 1_555
Ba21 Ge86 3.658275 1_555
Ba21 Ge28 3.750261 1_555
Ba21 Ge78 3.750261 1_555
Ba21 Ge67 3.750261 1_555
Ba22 Ge17 3.445763 1_654
Ba22 Ge19 3.445763 1_655
Ba22 Ge45 3.445763 1_554
Ba22 Ge69 3.461039 1_654
Ba22 Ge30 3.543689 1_554
Ba22 Ge73 3.543689 1_555
Ba22 Ge15 3.543689 1_655
Ba22 Ge32 3.586950 1_555
Ba22 Ge34 3.586950 1_555
Ba22 Ge46 3.586950 1_555
Ba22 Ge25 3.643039 1_555
Ba22 Ge27 3.643039 1_555
Ba22 Ge23 3.643039 1_555
Ba22 Ge38 3.658275 1_555
Ba22 Ge71 3.658275 1_655
Ba22 Ge48 3.658275 1_554
Ba22 Ge24 3.750261 1_654
Ba22 Ge82 3.750261 1_554
Ba22 Ge87 3.750261 1_655
Ba23 Ge2 3.445763 1_555
Ba23 Ge63 3.445763 1_555
Ba23 Ge38 3.445763 1_555
Ba23 Ge1 3.461039 1_555
Ba23 Ge73 3.543689 1_555
Ba23 Ge9 3.543689 1_555
Ba23 Ge68 3.543689 1_555
Ba23 Ge40 3.586950 1_555
Ba23 Ge96 3.586950 1_655
Ba23 Ge27 3.586950 1_555
Ba23 Ge46 3.643039 1_555
Ba23 Ge5 3.643039 1_655
Ba23 Ge74 3.643039 1_555
Ba23 Ge19 3.658275 1_655
Ba23 Ge79 3.658275 1_555
Ba23 Ge90 3.658275 1_555
Ba23 Ge97 3.750261 1_555
Ba23 Ge89 3.750261 1_555
Ba23 Ge49 3.750261 1_555
Ge0 Ge99 2.527384 1_555
Ge0 Ge20 2.587497 1_555
Ge0 Ge3 2.595115 1_555
Ge1 Ge53 2.546927 1_555
Ge1 Ge89 2.595115 1_555
Ge1 Ge49 2.595115 1_555
Ge1 Ge97 2.595115 1_555
Ge2 Ge89 2.587497 1_555
Ge2 Ge5 2.607442 1_655
Ge2 Ge68 2.625600 1_555
Ge3 Ge98 2.546927 1_555
Ge3 Ge37 2.595115 1_555
Ge3 Ge56 2.595115 1_555
Ge4 Ge70 2.523408 1_555
Ge4 Ge94 2.600732 1_555
Ge4 Ge86 2.607442 1_555
Ge4 Ge6 2.644079 1_555
Ge5 Ge96 2.644079 1_555
Ge6 Ge95 2.600732 1_555
Ge6 Ge61 2.607442 1_555
Ge7 Ge81 2.607442 1_545
Ge8 Ge99 2.527384 1_555
Ge9 Ge97 2.527384 1_555
Ge9 Ge90 2.625600 1_555
Ge10 Ge92 2.527384 1_555
Ge10 Ge39 2.587497 1_555
Ge10 Ge57 2.595115 1_555
Ge11 Ge17 2.523408 1_555
Ge11 Ge29 2.600732 1_555
Ge11 Ge12 2.607442 1_556
Ge11 Ge76 2.644079 1_555
Ge12 Ge83 2.523408 1_554
Ge12 Ge37 2.587497 1_555
Ge12 Ge99 2.625600 1_555
Ge13 Ge7 2.523408 1_555
Ge13 Ge65 2.587497 1_555
Ge13 Ge52 2.607442 1_545
Ge13 Ge93 2.625600 1_545
Ge14 Ge47 2.523408 1_555
Ge14 Ge75 2.600732 1_545
Ge14 Ge60 2.607442 1_545
Ge14 Ge7 2.644079 1_555
Ge15 Ge87 2.527384 1_555
Ge15 Ge37 2.527384 1_555
Ge15 Ge17 2.625600 1_554
Ge15 Ge71 2.625600 1_555
Ge16 Ge2 2.523408 1_455
Ge16 Ge36 2.600732 1_565
Ge16 Ge44 2.607442 1_465
Ge16 Ge77 2.644079 1_555
Ge17 Ge24 2.587497 1_555
Ge17 Ge23 2.607442 1_456
Ge18 Ge54 2.546927 1_555
Ge18 Ge28 2.595115 1_555
Ge18 Ge78 2.595115 1_555
Ge18 Ge67 2.595115 1_555
Ge19 Ge5 2.523408 1_555
Ge19 Ge87 2.587497 1_555
Ge19 Ge27 2.607442 1_455
Ge19 Ge73 2.625600 1_455
Ge20 Ge52 2.523408 1_545
Ge20 Ge77 2.607442 1_545
Ge20 Ge80 2.625600 1_555
Ge21 Ge41 2.527384 1_556
Ge21 Ge72 2.527384 1_555
Ge21 Ge81 2.625600 1_555
Ge21 Ge60 2.625600 1_555
Ge22 Ge77 2.523408 1_555
Ge22 Ge41 2.587497 1_555
Ge22 Ge76 2.607442 1_564
Ge22 Ge99 2.625600 1_565
Ge23 Ge48 2.523408 1_554
Ge23 Ge36 2.600732 1_655
Ge23 Ge34 2.644079 1_555
Ge24 Ge30 2.527384 1_455
Ge24 Ge69 2.595115 1_555
Ge25 Ge38 2.523408 1_555
Ge25 Ge94 2.600732 1_554
Ge25 Ge45 2.607442 1_554
Ge25 Ge32 2.644079 1_555
Ge26 Ge77 2.600732 1_555
Ge26 Ge5 2.600732 1_555
Ge26 Ge85 2.600732 1_555
Ge27 Ge71 2.523408 1_655
Ge27 Ge55 2.600732 1_555
Ge27 Ge46 2.644079 1_555
Ge28 Ge43 2.527384 1_555
Ge28 Ge47 2.587497 1_555
Ge29 Ge35 2.600732 1_555
Ge29 Ge7 2.600732 1_555
Ge30 Ge67 2.527384 1_555
Ge30 Ge48 2.625600 1_555
Ge30 Ge45 2.625600 1_555
Ge31 Ge85 2.523408 1_555
Ge31 Ge33 2.587497 1_555
Ge31 Ge64 2.607442 1_555
Ge31 Ge92 2.625600 1_555
Ge32 Ge62 2.523408 1_555
Ge32 Ge58 2.600732 1_555
Ge32 Ge48 2.607442 1_554
Ge33 Ge9 2.527384 1_555
Ge33 Ge98 2.595115 1_555
Ge34 Ge44 2.523408 1_555
Ge34 Ge58 2.600732 1_555
Ge34 Ge71 2.607442 1_655
Ge35 Ge86 2.523408 1_555
Ge35 Ge47 2.607442 1_555
Ge35 Ge83 2.644079 1_555
Ge36 Ge76 2.600732 1_554
Ge38 Ge97 2.587497 1_555
Ge38 Ge46 2.607442 1_555
Ge38 Ge73 2.625600 1_555
Ge39 Ge96 2.523408 1_555
Ge39 Ge85 2.607442 1_555
Ge39 Ge93 2.625600 1_555
Ge40 Ge61 2.523408 1_555
Ge40 Ge55 2.600732 1_555
Ge40 Ge90 2.607442 1_555
Ge40 Ge74 2.644079 1_555
Ge41 Ge53 2.595115 1_555
Ge42 Ge92 2.527384 1_555
Ge42 Ge86 2.587497 1_555
Ge42 Ge98 2.595115 1_555
Ge43 Ge66 2.527384 1_555
Ge43 Ge86 2.625600 1_555
Ge43 Ge61 2.625600 1_555
Ge44 Ge91 2.587497 1_555
Ge44 Ge80 2.625600 1_655
Ge45 Ge6 2.523408 1_555
Ge45 Ge82 2.587497 1_555
Ge46 Ge90 2.523408 1_555
Ge46 Ge58 2.600732 1_555
Ge47 Ge88 2.625600 1_555
Ge48 Ge78 2.587497 1_555
Ge49 Ge68 2.527384 1_555
Ge49 Ge63 2.587497 1_555
Ge50 Ge88 2.527384 1_565
Ge50 Ge60 2.587497 1_555
Ge50 Ge53 2.595115 1_556
Ge51 Ge93 2.527384 1_555
Ge51 Ge81 2.587497 1_555
Ge51 Ge57 2.595115 1_555
Ge52 Ge75 2.600732 1_555
Ge52 Ge85 2.644079 1_555
Ge53 Ge8 2.595115 1_565
Ge54 Ge84 2.595115 1_545
Ge54 Ge91 2.595115 1_555
Ge54 Ge65 2.595115 1_655
Ge55 Ge96 2.600732 1_655
Ge56 Ge80 2.527384 1_555
Ge56 Ge71 2.587497 1_555
Ge57 Ge69 2.546927 1_555
Ge57 Ge72 2.595115 1_555
Ge59 Ge60 2.523408 1_555
Ge59 Ge95 2.600732 1_555
Ge59 Ge70 2.607442 1_555
Ge59 Ge64 2.644079 1_555
Ge61 Ge67 2.587497 1_555
Ge62 Ge8 2.587497 1_555
Ge62 Ge83 2.607442 1_554
Ge62 Ge88 2.625600 1_554
Ge63 Ge64 2.523408 1_555
Ge63 Ge74 2.607442 1_555
Ge63 Ge9 2.625600 1_555
Ge64 Ge75 2.600732 1_555
Ge65 Ge80 2.527384 1_555
Ge66 Ge90 2.587497 1_555
Ge66 Ge98 2.595115 1_555
Ge68 Ge91 2.527384 1_565
Ge68 Ge79 2.625600 1_555
Ge69 Ge82 2.595115 1_455
Ge69 Ge87 2.595115 1_556
Ge70 Ge72 2.587497 1_555
Ge70 Ge92 2.625600 1_555
Ge73 Ge89 2.527384 1_555
Ge73 Ge82 2.527384 1_554
Ge74 Ge79 2.523408 1_555
Ge74 Ge95 2.600732 1_555
Ge76 Ge81 2.523408 1_545
Ge78 Ge88 2.527384 1_555
Ge79 Ge84 2.587497 1_555
Ge79 Ge96 2.607442 1_655
Ge83 Ge94 2.600732 1_555
Ge84 Ge93 2.527384 1_655
