# generated using pymatgen
data_KU2H5C4O15
_symmetry_space_group_name_H-M   'P 1'
_cell_length_a   13.98351900
_cell_length_b   5.81569400
_cell_length_c   9.35420621
_cell_angle_alpha   81.99530460
_cell_angle_beta   90.00000000
_cell_angle_gamma   90.00000000
_symmetry_Int_Tables_number   1
_chemical_formula_structural   KU2H5C4O15
_chemical_formula_sum   'K2 U4 H10 C8 O30'
_cell_volume   753.30827114
_cell_formula_units_Z   2
loop_
 _symmetry_equiv_pos_site_id
 _symmetry_equiv_pos_as_xyz
  1  'x, y, z'
loop_
 _atom_site_type_symbol
 _atom_site_label
 _atom_site_symmetry_multiplicity
 _atom_site_fract_x
 _atom_site_fract_y
 _atom_site_fract_z
 _atom_site_occupancy
  K  K0  1  0.25000000  0.19281200  0.40553000  1
  K  K1  1  0.75000000  0.80718800  0.59447000  1
  U  U0  1  0.40684500  0.71305800  0.76447000  1
  U  U1  1  0.90684500  0.28694200  0.23553000  1
  U  U2  1  0.59315500  0.28694200  0.23553000  1
  U  U3  1  0.09315500  0.71305800  0.76447000  1
  H  H0  1  0.19468800  0.20140200  0.06972600  1
  H  H1  1  0.19558700  0.75037600  0.19990500  1
  H  H2  1  0.30531200  0.20140200  0.06972600  1
  H  H3  1  0.75000000  0.51058100  0.09097100  1
  H  H4  1  0.69558700  0.24962400  0.80009500  1
  H  H5  1  0.30441300  0.75037600  0.19990500  1
  H  H6  1  0.80531200  0.79859800  0.93027400  1
  H  H7  1  0.25000000  0.48941900  0.90902900  1
  H  H8  1  0.80441300  0.24962400  0.80009500  1
  H  H9  1  0.69468800  0.79859800  0.93027400  1
  C  C0  1  0.95338900  0.01225300  0.95743300  1
  C  C1  1  0.45052300  0.45552100  0.48236900  1
  C  C2  1  0.04947700  0.45552100  0.48236900  1
  C  C3  1  0.45338900  0.98774700  0.04256700  1
  C  C4  1  0.04661100  0.98774700  0.04256700  1
  C  C5  1  0.54947700  0.54447900  0.51763100  1
  C  C6  1  0.54661100  0.01225300  0.95743300  1
  C  C7  1  0.95052300  0.54447900  0.51763100  1
  O  O0  1  0.61500100  0.11654800  0.01082200  1
  O  O1  1  0.05421400  0.33648300  0.37934200  1
  O  O2  1  0.05874100  0.44381700  0.87186600  1
  O  O3  1  0.11500100  0.88345200  0.98917800  1
  O  O4  1  0.63043500  0.02456600  0.34857900  1
  O  O5  1  0.55421400  0.66351700  0.62065800  1
  O  O6  1  0.44578600  0.33648300  0.37934200  1
  O  O7  1  0.55874100  0.55618300  0.12813400  1
  O  O8  1  0.36956500  0.97543400  0.65142100  1
  O  O9  1  0.13043500  0.97543400  0.65142100  1
  O  O10  1  0.88499900  0.11654800  0.01082200  1
  O  O11  1  0.44125900  0.44381700  0.87186600  1
  O  O12  1  0.75000000  0.38479800  0.17683600  1
  O  O13  1  0.04950500  0.07551400  0.15877500  1
  O  O14  1  0.95049500  0.92448600  0.84122500  1
  O  O15  1  0.11843600  0.50892300  0.55940600  1
  O  O16  1  0.25000000  0.61520200  0.82316400  1
  O  O17  1  0.54950500  0.92448600  0.84122500  1
  O  O18  1  0.75000000  0.24941400  0.73456000  1
  O  O19  1  0.38499900  0.88345200  0.98917800  1
  O  O20  1  0.75000000  0.69571600  0.93062100  1
  O  O21  1  0.25000000  0.75058600  0.26544000  1
  O  O22  1  0.86956500  0.02456600  0.34857900  1
  O  O23  1  0.45049500  0.07551400  0.15877500  1
  O  O24  1  0.61843600  0.49107700  0.44059400  1
  O  O25  1  0.94125900  0.55618300  0.12813400  1
  O  O26  1  0.88156400  0.49107700  0.44059400  1
  O  O27  1  0.94578600  0.66351700  0.62065800  1
  O  O28  1  0.38156400  0.50892300  0.55940600  1
  O  O29  1  0.25000000  0.30428400  0.06937900  1
loop_
_geom_bond_atom_site_label_1
_geom_bond_atom_site_label_2
_geom_bond_distance
_geom_bond_site_symmetry_2
K0 O6 2.862965 1_555
K0 O1 2.862965 1_555
K0 O9 2.978972 1_545
K0 O8 2.978972 1_545
K0 O21 3.044714 1_545
K0 O15 3.094051 1_555
K0 O28 3.094051 1_555
K0 O29 3.120890 1_555
K0 O21 3.325034 1_555
K1 O5 2.862965 1_555
K1 O27 2.862965 1_555
K1 O22 2.978972 1_565
K1 O4 2.978972 1_565
K1 O18 3.044714 1_565
K1 O26 3.094051 1_555
K1 O24 3.094051 1_555
K1 O20 3.120890 1_555
K1 O18 3.325034 1_555
H0 O29 0.977601 1_555
H1 O21 0.977220 1_555
H2 O29 0.977601 1_555
H3 O12 1.008268 1_555
H4 O18 0.977220 1_555
H5 O21 0.977220 1_555
H6 O20 0.977601 1_555
H7 O16 1.008268 1_555
H8 O18 0.977220 1_555
H9 O20 0.977601 1_555
C0 O14 1.264257 1_545
C0 O10 1.271318 1_556
C1 O6 1.264221 1_555
C1 O28 1.268043 1_555
C2 O1 1.264221 1_555
C2 O15 1.268043 1_555
C3 O23 1.264257 1_565
C3 O19 1.271318 1_554
C4 O13 1.264257 1_565
C4 O3 1.271318 1_554
C5 O5 1.264221 1_555
C5 O24 1.268043 1_555
C6 O17 1.264257 1_545
C6 O0 1.271318 1_556
C7 O27 1.264221 1_555
C7 O26 1.268043 1_555
O0 U2 2.464488 1_555
O1 U1 2.499457 1_455
O2 U3 1.804026 1_555
O3 U3 2.464488 1_555
O4 U2 1.808036 1_555
O5 U0 2.499457 1_555
O6 U2 2.499457 1_555
O7 U2 1.804026 1_555
O8 U0 1.808036 1_555
O9 U3 1.808036 1_555
O10 U1 2.464488 1_555
O11 U0 1.804026 1_555
O12 U2 2.312708 1_555
O12 U1 2.312708 1_555
O13 U1 2.500575 1_455
O14 U3 2.500575 1_655
O15 U3 2.418297 1_555
O16 U0 2.312708 1_555
O16 U3 2.312708 1_555
O17 U0 2.500575 1_555
O19 U0 2.464488 1_555
O22 U1 1.808036 1_555
O23 U2 2.500575 1_555
O24 U2 2.418297 1_555
O25 U1 1.804026 1_555
O26 U1 2.418297 1_555
O27 U3 2.499457 1_655
O28 U0 2.418297 1_555
