# generated using pymatgen
data_K9U6BiO24
_symmetry_space_group_name_H-M   'P 1'
_cell_length_a   8.76710000
_cell_length_b   8.76710000
_cell_length_c   8.76710000
_cell_angle_alpha   90.00000000
_cell_angle_beta   90.00000000
_cell_angle_gamma   90.00000000
_symmetry_Int_Tables_number   1
_chemical_formula_structural   K9U6BiO24
_chemical_formula_sum   'K9 U6 Bi1 O24'
_cell_volume   673.85721201
_cell_formula_units_Z   1
loop_
 _symmetry_equiv_pos_site_id
 _symmetry_equiv_pos_as_xyz
  1  'x, y, z'
loop_
 _atom_site_type_symbol
 _atom_site_label
 _atom_site_symmetry_multiplicity
 _atom_site_fract_x
 _atom_site_fract_y
 _atom_site_fract_z
 _atom_site_occupancy
  K  K0  1  0.00000000  0.00000000  0.00000000  1
  K  K1  1  0.75234700  0.75234700  0.75234700  1
  K  K2  1  0.24765300  0.24765300  0.75234700  1
  K  K3  1  0.75234700  0.24765300  0.24765300  1
  K  K4  1  0.24765300  0.24765300  0.24765300  1
  K  K5  1  0.24765300  0.75234700  0.24765300  1
  K  K6  1  0.75234700  0.24765300  0.75234700  1
  K  K7  1  0.24765300  0.75234700  0.75234700  1
  K  K8  1  0.75234700  0.75234700  0.24765300  1
  U  U0  1  0.00000000  0.00000000  0.50000000  1
  U  U1  1  0.00000000  0.50000000  0.00000000  1
  U  U2  1  0.50000000  0.00000000  0.00000000  1
  U  U3  1  0.50000000  0.50000000  0.00000000  1
  U  U4  1  0.00000000  0.50000000  0.50000000  1
  U  U5  1  0.50000000  0.00000000  0.50000000  1
  Bi  Bi0  1  0.50000000  0.50000000  0.50000000  1
  O  O0  1  0.28497800  0.00000000  0.00000000  1
  O  O1  1  0.50000000  0.25495500  0.00000000  1
  O  O2  1  0.00000000  0.71502200  0.00000000  1
  O  O3  1  0.50000000  0.00000000  0.25495500  1
  O  O4  1  0.50000000  0.50000000  0.23065200  1
  O  O5  1  0.00000000  0.50000000  0.25495500  1
  O  O6  1  0.00000000  0.28497800  0.00000000  1
  O  O7  1  0.25495500  0.00000000  0.50000000  1
  O  O8  1  0.50000000  0.50000000  0.76934800  1
  O  O9  1  0.74504500  0.00000000  0.50000000  1
  O  O10  1  0.00000000  0.50000000  0.74504500  1
  O  O11  1  0.50000000  0.00000000  0.74504500  1
  O  O12  1  0.71502200  0.00000000  0.00000000  1
  O  O13  1  0.00000000  0.74504500  0.50000000  1
  O  O14  1  0.50000000  0.76934800  0.50000000  1
  O  O15  1  0.50000000  0.23065200  0.50000000  1
  O  O16  1  0.00000000  0.25495500  0.50000000  1
  O  O17  1  0.76934800  0.50000000  0.50000000  1
  O  O18  1  0.25495500  0.50000000  0.00000000  1
  O  O19  1  0.74504500  0.50000000  0.00000000  1
  O  O20  1  0.00000000  0.00000000  0.28497800  1
  O  O21  1  0.50000000  0.74504500  0.00000000  1
  O  O22  1  0.23065200  0.50000000  0.50000000  1
  O  O23  1  0.00000000  0.00000000  0.71502200  1
loop_
_geom_bond_atom_site_label_1
_geom_bond_atom_site_label_2
_geom_bond_distance
_geom_bond_site_symmetry_2
K0 O6 2.498431 1_555
K0 O0 2.498431 1_555
K0 O20 2.498431 1_555
K0 O2 2.498431 1_545
K0 O23 2.498431 1_554
K0 O12 2.498431 1_455
K1 O12 3.087926 1_566
K1 O2 3.087926 1_656
K1 O23 3.087926 1_665
K1 O10 3.100436 1_655
K1 O13 3.100436 1_655
K1 O21 3.100436 1_556
K1 O9 3.100436 1_565
K1 O11 3.100436 1_565
K1 O19 3.100436 1_556
K1 O8 3.132286 1_555
K1 O17 3.132286 1_555
K1 O14 3.132286 1_555
K2 O23 3.087926 1_555
K2 O6 3.087926 1_556
K2 O0 3.087926 1_556
K2 O7 3.100436 1_555
K2 O16 3.100436 1_555
K2 O11 3.100436 1_555
K2 O10 3.100436 1_555
K2 O1 3.100436 1_556
K2 O18 3.100436 1_556
K2 O15 3.132286 1_555
K2 O22 3.132286 1_555
K2 O8 3.132286 1_555
K3 O12 3.087926 1_555
K3 O20 3.087926 1_655
K3 O6 3.087926 1_655
K3 O3 3.100436 1_555
K3 O1 3.100436 1_555
K3 O19 3.100436 1_555
K3 O9 3.100436 1_555
K3 O5 3.100436 1_655
K3 O16 3.100436 1_655
K3 O4 3.132286 1_555
K3 O15 3.132286 1_555
K3 O17 3.132286 1_555
K4 O6 3.087926 1_555
K4 O0 3.087926 1_555
K4 O20 3.087926 1_555
K4 O7 3.100436 1_555
K4 O16 3.100436 1_555
K4 O3 3.100436 1_555
K4 O1 3.100436 1_555
K4 O5 3.100436 1_555
K4 O18 3.100436 1_555
K4 O4 3.132286 1_555
K4 O15 3.132286 1_555
K4 O22 3.132286 1_555
K5 O2 3.087926 1_555
K5 O20 3.087926 1_565
K5 O0 3.087926 1_565
K5 O18 3.100436 1_555
K5 O5 3.100436 1_555
K5 O21 3.100436 1_555
K5 O13 3.100436 1_555
K5 O3 3.100436 1_565
K5 O7 3.100436 1_565
K5 O4 3.132286 1_555
K5 O22 3.132286 1_555
K5 O14 3.132286 1_555
K6 O23 3.087926 1_655
K6 O12 3.087926 1_556
K6 O6 3.087926 1_656
K6 O11 3.100436 1_555
K6 O9 3.100436 1_555
K6 O1 3.100436 1_556
K6 O16 3.100436 1_655
K6 O19 3.100436 1_556
K6 O10 3.100436 1_655
K6 O15 3.132286 1_555
K6 O8 3.132286 1_555
K6 O17 3.132286 1_555
K7 O2 3.087926 1_556
K7 O23 3.087926 1_565
K7 O0 3.087926 1_566
K7 O13 3.100436 1_555
K7 O10 3.100436 1_555
K7 O18 3.100436 1_556
K7 O7 3.100436 1_565
K7 O21 3.100436 1_556
K7 O11 3.100436 1_565
K7 O22 3.132286 1_555
K7 O8 3.132286 1_555
K7 O14 3.132286 1_555
K8 O12 3.087926 1_565
K8 O2 3.087926 1_655
K8 O20 3.087926 1_665
K8 O21 3.100436 1_555
K8 O19 3.100436 1_555
K8 O5 3.100436 1_655
K8 O3 3.100436 1_565
K8 O9 3.100436 1_565
K8 O13 3.100436 1_655
K8 O4 3.132286 1_555
K8 O14 3.132286 1_555
K8 O17 3.132286 1_555
Bi0 O14 2.361401 1_555
Bi0 O8 2.361401 1_555
Bi0 O17 2.361401 1_555
Bi0 O4 2.361401 1_555
Bi0 O15 2.361401 1_555
Bi0 O22 2.361401 1_555
O0 U2 1.885119 1_555
O1 U3 2.148334 1_555
O1 U2 2.235216 1_555
O2 U1 1.885119 1_555
O3 U5 2.148334 1_555
O3 U2 2.235216 1_555
O4 U3 2.022149 1_555
O5 U4 2.148334 1_555
O5 U1 2.235216 1_555
O6 U1 1.885119 1_555
O7 U5 2.148334 1_555
O7 U0 2.235216 1_555
O8 U3 2.022149 1_556
O9 U5 2.148334 1_555
O9 U0 2.235216 1_655
O10 U4 2.148334 1_555
O10 U1 2.235216 1_556
O11 U5 2.148334 1_555
O11 U2 2.235216 1_556
O12 U2 1.885119 1_555
O13 U4 2.148334 1_555
O13 U0 2.235216 1_565
O14 U5 2.022149 1_565
O15 U5 2.022149 1_555
O16 U4 2.148334 1_555
O16 U0 2.235216 1_555
O17 U4 2.022149 1_655
O18 U3 2.148334 1_555
O18 U1 2.235216 1_555
O19 U3 2.148334 1_555
O19 U1 2.235216 1_655
O20 U0 1.885119 1_555
O21 U3 2.148334 1_555
O21 U2 2.235216 1_565
O22 U4 2.022149 1_555
O23 U0 1.885119 1_555
