# generated using pymatgen
data_Ni5Se4(BrO6)2
_symmetry_space_group_name_H-M   'P 1'
_cell_length_a   7.82346507
_cell_length_b   10.23122132
_cell_length_c   9.35911773
_cell_angle_alpha   84.74263274
_cell_angle_beta   83.20463193
_cell_angle_gamma   107.72816369
_symmetry_Int_Tables_number   1
_chemical_formula_structural   Ni5Se4(BrO6)2
_chemical_formula_sum   'Ni10 Se8 Br4 O24'
_cell_volume   702.06602344
_cell_formula_units_Z   2
loop_
 _symmetry_equiv_pos_site_id
 _symmetry_equiv_pos_as_xyz
  1  'x, y, z'
loop_
 _atom_site_type_symbol
 _atom_site_label
 _atom_site_symmetry_multiplicity
 _atom_site_fract_x
 _atom_site_fract_y
 _atom_site_fract_z
 _atom_site_occupancy
  Ni  Ni0  1  0.24999700  0.25000000  0.75000200  1
  Ni  Ni1  1  0.41742300  0.83963200  0.46944800  1
  Ni  Ni2  1  0.08257900  0.66036900  0.03055100  1
  Ni  Ni3  1  0.99838700  0.34914100  0.52574600  1
  Ni  Ni4  1  0.50161300  0.15086000  0.97425400  1
  Ni  Ni5  1  0.75000100  0.75000200  0.24999900  1
  Ni  Ni6  1  0.91741100  0.33965800  0.96937300  1
  Ni  Ni7  1  0.58258900  0.16034100  0.53062700  1
  Ni  Ni8  1  0.49840400  0.84908800  0.02570900  1
  Ni  Ni9  1  0.00159700  0.65091300  0.47429100  1
  Se  Se0  1  0.26284100  0.57394800  0.73245100  1
  Se  Se1  1  0.76284000  0.07395200  0.23245200  1
  Se  Se2  1  0.73716000  0.42604800  0.26754800  1
  Se  Se3  1  0.23715900  0.92605200  0.76754900  1
  Se  Se4  1  0.33565900  0.56571200  0.27193800  1
  Se  Se5  1  0.83566000  0.06573200  0.77193700  1
  Se  Se6  1  0.66434000  0.43426800  0.72806200  1
  Se  Se7  1  0.16434100  0.93428800  0.22806200  1
  Br  Br0  1  0.70138500  0.68447800  0.98110300  1
  Br  Br1  1  0.20134600  0.18447000  0.48112300  1
  Br  Br2  1  0.29865200  0.31552900  0.01887700  1
  Br  Br3  1  0.79861500  0.81552300  0.51889800  1
  O  O0  1  0.70968600  0.18961800  0.11125500  1
  O  O1  1  0.20966400  0.68961600  0.61125000  1
  O  O2  1  0.29033600  0.81038400  0.88875000  1
  O  O3  1  0.79031400  0.31038100  0.38874500  1
  O  O4  1  0.87033800  0.47613400  0.61729500  1
  O  O5  1  0.37033800  0.97611900  0.11730800  1
  O  O6  1  0.12966200  0.52388100  0.38269200  1
  O  O7  1  0.62966100  0.02386600  0.88270600  1
  O  O8  1  0.98208500  0.19280500  0.85192600  1
  O  O9  1  0.48209100  0.69279900  0.35191900  1
  O  O10  1  0.01790900  0.80720100  0.14808100  1
  O  O11  1  0.51791400  0.30719400  0.64807500  1
  O  O12  1  0.69729600  0.32911800  0.87158100  1
  O  O13  1  0.19729200  0.82912800  0.37158600  1
  O  O14  1  0.30270800  0.67087200  0.12841400  1
  O  O15  1  0.80270400  0.17088200  0.62841900  1
  O  O16  1  0.08035000  0.53262100  0.87297500  1
  O  O17  1  0.58037200  0.03261300  0.37299000  1
  O  O18  1  0.91962800  0.46738700  0.12701000  1
  O  O19  1  0.41965000  0.96737800  0.62702500  1
  O  O20  1  0.20816500  0.42243900  0.65433000  1
  O  O21  1  0.70815100  0.92242700  0.15433900  1
  O  O22  1  0.79184900  0.57757300  0.34566000  1
  O  O23  1  0.29183500  0.07756100  0.84567000  1
loop_
_geom_bond_atom_site_label_1
_geom_bond_atom_site_label_2
_geom_bond_distance
_geom_bond_site_symmetry_2
Ni0 O20 2.037880 1_555
Ni0 O23 2.037889 1_555
Ni0 O8 2.079230 1_455
Ni0 O11 2.079273 1_555
Ni1 O13 2.023599 1_555
Ni1 O17 2.051011 1_565
Ni1 O19 2.056448 1_555
Ni1 O1 2.087079 1_555
Ni1 O9 2.087281 1_555
Ni2 O14 2.023593 1_555
Ni2 O18 2.051026 1_455
Ni2 O16 2.056454 1_554
Ni2 O2 2.087063 1_554
Ni2 O10 2.087284 1_555
Ni3 O6 2.039929 1_655
Ni3 O4 2.054131 1_555
Ni3 O15 2.055157 1_555
Ni3 O20 2.141819 1_655
Ni3 O3 2.155274 1_555
Ni4 O5 2.039936 1_546
Ni4 O7 2.054130 1_555
Ni4 O12 2.055150 1_555
Ni4 O23 2.141820 1_555
Ni4 O0 2.155274 1_556
Ni5 O21 2.037780 1_555
Ni5 O22 2.037812 1_555
Ni5 O10 2.079182 1_655
Ni5 O9 2.079199 1_555
Ni6 O12 2.023062 1_555
Ni6 O16 2.050698 1_655
Ni6 O18 2.056770 1_556
Ni6 O8 2.087039 1_555
Ni6 O0 2.087417 1_556
Ni7 O15 2.023060 1_555
Ni7 O19 2.050698 1_545
Ni7 O17 2.056763 1_555
Ni7 O11 2.087048 1_555
Ni7 O3 2.087417 1_555
Ni8 O7 2.039918 1_564
Ni8 O5 2.054729 1_555
Ni8 O14 2.055017 1_555
Ni8 O21 2.142008 1_555
Ni8 O2 2.154964 1_554
Ni9 O4 2.039933 1_455
Ni9 O6 2.054732 1_555
Ni9 O13 2.055007 1_555
Ni9 O22 2.142022 1_455
Ni9 O1 2.154958 1_555
Br0 Ni8 2.670805 1_556
Br0 Ni5 2.703317 1_556
Br1 Ni3 2.671211 1_455
Br1 Ni0 2.703229 1_555
Br2 Ni4 2.671206 1_554
Br2 Ni0 2.703195 1_554
Br3 Ni9 2.670812 1_655
Br3 Ni5 2.703333 1_555
O0 Se1 1.739350 1_555
O1 Se0 1.739481 1_555
O2 Se3 1.739481 1_555
O3 Se2 1.739357 1_555
O4 Se6 1.719982 1_555
O5 Se7 1.719951 1_555
O6 Se4 1.719951 1_555
O7 Se5 1.719997 1_555
O8 Se5 1.742790 1_555
O9 Se4 1.742857 1_555
O10 Se7 1.742857 1_555
O11 Se6 1.742789 1_555
O12 Se6 1.736124 1_555
O13 Se7 1.736203 1_555
O14 Se4 1.736203 1_555
O15 Se5 1.736117 1_555
O16 Se0 1.741535 1_555
O17 Se1 1.741491 1_555
O18 Se2 1.741491 1_555
O19 Se3 1.741535 1_555
O20 Se0 1.731566 1_555
O21 Se1 1.731669 1_565
O22 Se2 1.731664 1_555
O23 Se3 1.731566 1_545
