# generated using pymatgen
data_Yb3S4
_symmetry_space_group_name_H-M   'P 1'
_cell_length_a   4.10296300
_cell_length_b   11.62338600
_cell_length_c   14.03697300
_cell_angle_alpha   90.00000000
_cell_angle_beta   90.00000000
_cell_angle_gamma   90.00000000
_symmetry_Int_Tables_number   1
_chemical_formula_structural   Yb3S4
_chemical_formula_sum   'Yb12 S16'
_cell_volume   669.42777200
_cell_formula_units_Z   4
loop_
 _symmetry_equiv_pos_site_id
 _symmetry_equiv_pos_as_xyz
  1  'x, y, z'
loop_
 _atom_site_type_symbol
 _atom_site_label
 _atom_site_symmetry_multiplicity
 _atom_site_fract_x
 _atom_site_fract_y
 _atom_site_fract_z
 _atom_site_occupancy
  Yb  Yb0  1  0.25000000  0.11247800  0.09363400  1
  Yb  Yb1  1  0.75000000  0.88752200  0.90636600  1
  Yb  Yb2  1  0.25000000  0.38752200  0.59363400  1
  Yb  Yb3  1  0.75000000  0.61247800  0.40636600  1
  Yb  Yb4  1  0.75000000  0.45363600  0.10534400  1
  Yb  Yb5  1  0.25000000  0.54636400  0.89465600  1
  Yb  Yb6  1  0.75000000  0.04636400  0.60534400  1
  Yb  Yb7  1  0.25000000  0.95363600  0.39465600  1
  Yb  Yb8  1  0.25000000  0.29161200  0.36158400  1
  Yb  Yb9  1  0.75000000  0.70838800  0.63841600  1
  Yb  Yb10  1  0.25000000  0.20838800  0.86158400  1
  Yb  Yb11  1  0.75000000  0.79161200  0.13841600  1
  S  S0  1  0.75000000  0.20356700  0.22669600  1
  S  S1  1  0.25000000  0.79643300  0.77330400  1
  S  S2  1  0.75000000  0.29643300  0.72669600  1
  S  S3  1  0.25000000  0.70356700  0.27330400  1
  S  S4  1  0.25000000  0.52327200  0.24619700  1
  S  S5  1  0.75000000  0.47672800  0.75380300  1
  S  S6  1  0.25000000  0.97672800  0.74619700  1
  S  S7  1  0.75000000  0.02327200  0.25380300  1
  S  S8  1  0.75000000  0.38668400  0.45780100  1
  S  S9  1  0.25000000  0.61331600  0.54219900  1
  S  S10  1  0.75000000  0.11331600  0.95780100  1
  S  S11  1  0.25000000  0.88668400  0.04219900  1
  S  S12  1  0.25000000  0.14105900  0.50938600  1
  S  S13  1  0.75000000  0.85894100  0.49061400  1
  S  S14  1  0.25000000  0.35894100  0.00938600  1
  S  S15  1  0.75000000  0.64105900  0.99061400  1
loop_
_geom_bond_atom_site_label_1
_geom_bond_atom_site_label_2
_geom_bond_distance
_geom_bond_site_symmetry_2
S0 S7 2.129902 1_555
S0 Yb0 2.969543 1_655
S0 Yb0 2.969543 1_555
S0 Yb8 2.973369 1_555
S0 Yb8 2.973369 1_655
S0 Yb4 3.369010 1_555
S1 S6 2.129902 1_555
S1 Yb1 2.969543 1_455
S1 Yb1 2.969543 1_555
S1 Yb9 2.973369 1_455
S1 Yb9 2.973369 1_555
S1 Yb5 3.369010 1_555
S2 S5 2.129902 1_555
S2 Yb2 2.969543 1_555
S2 Yb2 2.969543 1_655
S2 Yb10 2.973369 1_655
S2 Yb10 2.973369 1_555
S2 Yb6 3.369010 1_555
S3 S4 2.129902 1_555
S3 Yb3 2.969543 1_555
S3 Yb3 2.969543 1_455
S3 Yb11 2.973369 1_455
S3 Yb11 2.973369 1_555
S3 Yb7 3.369010 1_555
S4 Yb4 2.961897 1_455
S4 Yb4 2.961897 1_555
S4 Yb8 3.142271 1_555
S4 Yb3 3.215352 1_455
S4 Yb3 3.215352 1_555
S5 Yb5 2.961897 1_555
S5 Yb5 2.961897 1_655
S5 Yb9 3.142271 1_555
S5 Yb2 3.215352 1_555
S5 Yb2 3.215352 1_655
S6 Yb6 2.961897 1_565
S6 Yb6 2.961897 1_465
S6 Yb10 3.142271 1_565
S6 Yb1 3.215352 1_555
S6 Yb1 3.215352 1_455
S7 Yb7 2.961897 1_545
S7 Yb7 2.961897 1_645
S7 Yb11 3.142271 1_545
S7 Yb0 3.215352 1_555
S7 Yb0 3.215352 1_655
S8 Yb8 2.693295 1_555
S8 Yb8 2.693295 1_655
S8 Yb3 2.721989 1_555
S8 Yb2 2.800735 1_555
S8 Yb2 2.800735 1_655
S9 Yb9 2.693295 1_455
S9 Yb9 2.693295 1_555
S9 Yb2 2.721989 1_555
S9 Yb3 2.800735 1_455
S9 Yb3 2.800735 1_555
S10 Yb10 2.693295 1_655
S10 Yb10 2.693295 1_555
S10 Yb1 2.721989 1_545
S10 Yb0 2.800735 1_656
S10 Yb0 2.800735 1_556
S11 Yb11 2.693295 1_455
S11 Yb11 2.693295 1_555
S11 Yb0 2.721989 1_565
S11 Yb1 2.800735 1_454
S11 Yb1 2.800735 1_554
S12 Yb6 2.689678 1_455
S12 Yb6 2.689678 1_555
S12 Yb7 2.709134 1_545
S12 Yb8 2.714153 1_555
S12 Yb2 3.099228 1_555
S13 Yb7 2.689678 1_555
S13 Yb7 2.689678 1_655
S13 Yb6 2.709134 1_565
S13 Yb9 2.714153 1_555
S13 Yb3 3.099228 1_555
S14 Yb4 2.689678 1_455
S14 Yb4 2.689678 1_555
S14 Yb5 2.709134 1_554
S14 Yb10 2.714153 1_554
S14 Yb0 3.099228 1_555
S15 Yb5 2.689678 1_655
S15 Yb5 2.689678 1_555
S15 Yb4 2.709134 1_556
S15 Yb11 2.714153 1_556
S15 Yb1 3.099228 1_555
