# generated using pymatgen
data_Co2PHO5
_symmetry_space_group_name_H-M   'P 1'
_cell_length_a   6.03704900
_cell_length_b   8.16475800
_cell_length_c   8.40594400
_cell_angle_alpha   90.00000000
_cell_angle_beta   90.00000000
_cell_angle_gamma   90.00000000
_symmetry_Int_Tables_number   1
_chemical_formula_structural   Co2PHO5
_chemical_formula_sum   'Co8 P4 H4 O20'
_cell_volume   414.33775657
_cell_formula_units_Z   4
loop_
 _symmetry_equiv_pos_site_id
 _symmetry_equiv_pos_as_xyz
  1  'x, y, z'
loop_
 _atom_site_type_symbol
 _atom_site_label
 _atom_site_symmetry_multiplicity
 _atom_site_fract_x
 _atom_site_fract_y
 _atom_site_fract_z
 _atom_site_occupancy
  Co  Co0  1  0.50000000  0.36116700  0.36961900  1
  Co  Co1  1  0.50000000  0.63883300  0.63038100  1
  Co  Co2  1  0.00000000  0.86116700  0.13038100  1
  Co  Co3  1  0.00000000  0.13883300  0.86961900  1
  Co  Co4  1  0.25487000  0.50000000  0.00000000  1
  Co  Co5  1  0.24513000  0.00000000  0.50000000  1
  Co  Co6  1  0.74513000  0.50000000  0.00000000  1
  Co  Co7  1  0.75487000  0.00000000  0.50000000  1
  P  P0  1  0.00000000  0.24850000  0.24076600  1
  P  P1  1  0.00000000  0.75150000  0.75923400  1
  P  P2  1  0.50000000  0.74850000  0.25923400  1
  P  P3  1  0.50000000  0.25150000  0.74076600  1
  H  H0  1  0.50000000  0.27354900  0.08168400  1
  H  H1  1  0.50000000  0.72645100  0.91831600  1
  H  H2  1  0.00000000  0.77354900  0.41831600  1
  H  H3  1  0.00000000  0.22645100  0.58168400  1
  O  O0  1  0.00000000  0.10950900  0.11299100  1
  O  O1  1  0.00000000  0.89049100  0.88700900  1
  O  O2  1  0.50000000  0.60950900  0.38700900  1
  O  O3  1  0.50000000  0.39049100  0.61299100  1
  O  O4  1  0.00000000  0.41353500  0.14680200  1
  O  O5  1  0.00000000  0.58646500  0.85319800  1
  O  O6  1  0.50000000  0.91353500  0.35319800  1
  O  O7  1  0.50000000  0.08646500  0.64680200  1
  O  O8  1  0.20874100  0.23336800  0.34846600  1
  O  O9  1  0.20874100  0.76663200  0.65153400  1
  O  O10  1  0.29125900  0.73336800  0.15153400  1
  O  O11  1  0.29125900  0.26663200  0.84846600  1
  O  O12  1  0.79125900  0.76663200  0.65153400  1
  O  O13  1  0.79125900  0.23336800  0.34846600  1
  O  O14  1  0.70874100  0.26663200  0.84846600  1
  O  O15  1  0.70874100  0.73336800  0.15153400  1
  O  O16  1  0.50000000  0.38469000  0.12443900  1
  O  O17  1  0.50000000  0.61531000  0.87556100  1
  O  O18  1  0.00000000  0.88469000  0.37556100  1
  O  O19  1  0.00000000  0.11531000  0.62443900  1
loop_
_geom_bond_atom_site_label_1
_geom_bond_atom_site_label_2
_geom_bond_distance
_geom_bond_site_symmetry_2
Co0 O2 2.032915 1_555
Co0 O8 2.052359 1_555
Co0 O13 2.052359 1_555
Co0 O3 2.059734 1_555
Co0 O16 2.069899 1_555
Co1 O3 2.032915 1_555
Co1 O12 2.052359 1_555
Co1 O9 2.052359 1_555
Co1 O2 2.059734 1_555
Co1 O17 2.069899 1_555
Co2 O0 2.032915 1_565
Co2 O15 2.052359 1_455
Co2 O10 2.052359 1_555
Co2 O1 2.059734 1_554
Co2 O18 2.069899 1_555
Co3 O1 2.032915 1_545
Co3 O11 2.052359 1_555
Co3 O14 2.052359 1_455
Co3 O0 2.059734 1_556
Co3 O19 2.069899 1_555
Co4 O17 2.042191 1_554
Co4 O16 2.042191 1_555
Co4 O4 2.094910 1_555
Co4 O5 2.094910 1_554
Co4 O11 2.302459 1_554
Co4 O10 2.302459 1_555
Co5 O19 2.042191 1_555
Co5 O18 2.042191 1_545
Co5 O7 2.094910 1_555
Co5 O6 2.094910 1_545
Co5 O9 2.302459 1_545
Co5 O8 2.302459 1_555
Co6 O17 2.042191 1_554
Co6 O16 2.042191 1_555
Co6 O4 2.094910 1_655
Co6 O5 2.094910 1_654
Co6 O14 2.302459 1_554
Co6 O15 2.302459 1_555
Co7 O19 2.042191 1_655
Co7 O18 2.042191 1_645
Co7 O7 2.094910 1_555
Co7 O6 2.094910 1_545
Co7 O12 2.302459 1_545
Co7 O13 2.302459 1_555
H0 O16 0.976018 1_555
H1 O17 0.976018 1_555
H2 O18 0.976018 1_555
H3 O19 0.976018 1_555
O0 P0 1.562517 1_555
O1 P1 1.562517 1_555
O2 P2 1.562517 1_555
O3 P3 1.562517 1_555
O4 P0 1.561906 1_555
O5 P1 1.561906 1_555
O6 P2 1.561906 1_555
O7 P3 1.561906 1_555
O8 P0 1.556574 1_555
O9 P1 1.556574 1_555
O10 P2 1.556574 1_555
O11 P3 1.556574 1_555
O12 P1 1.556574 1_655
O13 P0 1.556574 1_655
O14 P3 1.556574 1_555
O15 P2 1.556574 1_555
