# generated using pymatgen
data_NpBr3
_symmetry_space_group_name_H-M   'P 1'
_cell_length_a   4.14037094
_cell_length_b   6.94995333
_cell_length_c   9.20378864
_cell_angle_alpha   89.70020978
_cell_angle_beta   90.07332297
_cell_angle_gamma   107.55895547
_symmetry_Int_Tables_number   1
_chemical_formula_structural   NpBr3
_chemical_formula_sum   'Np2 Br6'
_cell_volume   252.49928937
_cell_formula_units_Z   2
loop_
 _symmetry_equiv_pos_site_id
 _symmetry_equiv_pos_as_xyz
  1  'x, y, z'
loop_
 _atom_site_type_symbol
 _atom_site_label
 _atom_site_symmetry_multiplicity
 _atom_site_fract_x
 _atom_site_fract_y
 _atom_site_fract_z
 _atom_site_occupancy
  Np  Np0  1  0.26119732  0.52020518  0.74930984  1
  Np  Np1  1  0.73880268  0.47979482  0.25069016  1
  Br  Br0  1  0.64946328  0.29995998  0.56451307  1
  Br  Br1  1  0.91650800  0.82902849  0.74943121  1
  Br  Br2  1  0.35053672  0.70004002  0.43548693  1
  Br  Br3  1  0.65008773  0.29989512  0.93180966  1
  Br  Br4  1  0.34991227  0.70010488  0.06819034  1
  Br  Br5  1  0.08349200  0.17097151  0.25056879  1
loop_
_geom_bond_atom_site_label_1
_geom_bond_atom_site_label_2
_geom_bond_distance
_geom_bond_site_symmetry_2
Br0 Np0 3.054164 1_655
Br0 Np0 3.055989 1_555
Br0 Np1 3.118904 1_555
Br1 Np0 2.907674 1_555
Br1 Np0 2.914033 1_655
Br2 Np1 3.054164 1_455
Br2 Np1 3.055989 1_555
Br2 Np0 3.118904 1_555
Br3 Np0 3.035136 1_555
Br3 Np0 3.035488 1_655
Br3 Np1 3.173387 1_556
Br4 Np1 3.035136 1_555
Br4 Np1 3.035488 1_455
Br4 Np0 3.173387 1_554
Br5 Np1 2.907674 1_555
Br5 Np1 2.914033 1_455
