# generated using pymatgen
data_Ba2CaUO6
_symmetry_space_group_name_H-M   'P 1'
_cell_length_a   6.19140100
_cell_length_b   6.22773100
_cell_length_c   10.72007410
_cell_angle_alpha   54.65312031
_cell_angle_beta   90.00000000
_cell_angle_gamma   90.00000000
_symmetry_Int_Tables_number   1
_chemical_formula_structural   Ba2CaUO6
_chemical_formula_sum   'Ba4 Ca2 U2 O12'
_cell_volume   337.15385727
_cell_formula_units_Z   2
loop_
 _symmetry_equiv_pos_site_id
 _symmetry_equiv_pos_as_xyz
  1  'x, y, z'
loop_
 _atom_site_type_symbol
 _atom_site_label
 _atom_site_symmetry_multiplicity
 _atom_site_fract_x
 _atom_site_fract_y
 _atom_site_fract_z
 _atom_site_occupancy
  Ba  Ba0  1  0.01534900  0.24490700  0.74989900  1
  Ba  Ba1  1  0.51534900  0.75509300  0.75010100  1
  Ba  Ba2  1  0.98465100  0.75509300  0.25010100  1
  Ba  Ba3  1  0.48465100  0.24490700  0.24989900  1
  Ca  Ca0  1  0.00000000  0.50000000  0.00000000  1
  Ca  Ca1  1  0.50000000  0.50000000  0.50000000  1
  U  U0  1  0.00000000  0.00000000  0.50000000  1
  U  U1  1  0.50000000  0.00000000  0.00000000  1
  O  O0  1  0.78367400  0.21896900  0.53571200  1
  O  O1  1  0.51206900  0.69572000  0.23485300  1
  O  O2  1  0.25683100  0.17516600  0.53913800  1
  O  O3  1  0.21632600  0.78103100  0.46428800  1
  O  O4  1  0.98793100  0.69572000  0.73485300  1
  O  O5  1  0.75683100  0.82483400  0.96086200  1
  O  O6  1  0.71632600  0.21896900  0.03571200  1
  O  O7  1  0.28367400  0.78103100  0.96428800  1
  O  O8  1  0.01206900  0.30428000  0.26514700  1
  O  O9  1  0.48793100  0.30428000  0.76514700  1
  O  O10  1  0.24316900  0.17516600  0.03913800  1
  O  O11  1  0.74316900  0.82483400  0.46086200  1
loop_
_geom_bond_atom_site_label_1
_geom_bond_atom_site_label_2
_geom_bond_distance
_geom_bond_site_symmetry_2
Ba0 O4 2.722713 1_455
Ba0 O5 2.770350 1_445
Ba0 O0 2.790126 1_455
Ba0 O2 2.943500 1_555
Ba0 O7 2.950510 1_545
Ba0 O9 2.965557 1_555
Ba0 O10 3.199083 1_556
Ba0 O3 3.200373 1_555
Ba0 O9 3.300997 1_455
Ba1 O9 2.722713 1_555
Ba1 O2 2.770350 1_565
Ba1 O7 2.790126 1_555
Ba1 O5 2.943500 1_555
Ba1 O0 2.950510 1_565
Ba1 O4 2.965557 1_555
Ba1 O11 3.199083 1_555
Ba1 O6 3.200373 1_556
Ba1 O4 3.300997 1_455
Ba2 O8 2.722713 1_655
Ba2 O10 2.770350 1_665
Ba2 O3 2.790126 1_655
Ba2 O11 2.943500 1_555
Ba2 O6 2.950510 1_565
Ba2 O1 2.965557 1_555
Ba2 O5 3.199083 1_554
Ba2 O0 3.200373 1_555
Ba2 O1 3.300997 1_655
Ba3 O1 2.722713 1_555
Ba3 O11 2.770350 1_545
Ba3 O6 2.790126 1_555
Ba3 O10 2.943500 1_555
Ba3 O3 2.950510 1_545
Ba3 O8 2.965557 1_555
Ba3 O2 3.199083 1_555
Ba3 O7 3.200373 1_554
Ba3 O8 3.300997 1_655
Ca0 O7 2.349293 1_554
Ca0 O6 2.349293 1_455
Ca0 O10 2.356504 1_555
Ca0 O5 2.356504 1_454
Ca0 O8 2.358349 1_555
Ca0 O4 2.358349 1_454
Ca1 O3 2.349293 1_555
Ca1 O0 2.349293 1_555
Ca1 O11 2.356504 1_555
Ca1 O2 2.356504 1_555
Ca1 O9 2.358349 1_555
Ca1 O1 2.358349 1_555
O0 U0 2.098602 1_655
O1 U1 2.101166 1_565
O2 U0 2.103378 1_555
O3 U0 2.098602 1_565
O4 U0 2.101166 1_665
O5 U1 2.103378 1_566
O6 U1 2.098602 1_555
O7 U1 2.098602 1_566
O8 U0 2.101166 1_555
O9 U1 2.101166 1_556
O10 U1 2.103378 1_555
O11 U0 2.103378 1_665
