# generated using pymatgen
data_NdTl(PO3)4
_symmetry_space_group_name_H-M   'P 1'
_cell_length_a   9.13905700
_cell_length_b   10.61618500
_cell_length_c   13.10514701
_cell_angle_alpha   54.90312264
_cell_angle_beta   90.00000000
_cell_angle_gamma   90.00000000
_symmetry_Int_Tables_number   1
_chemical_formula_structural   NdTl(PO3)4
_chemical_formula_sum   'Nd4 Tl4 P16 O48'
_cell_volume   1040.30618389
_cell_formula_units_Z   4
loop_
 _symmetry_equiv_pos_site_id
 _symmetry_equiv_pos_as_xyz
  1  'x, y, z'
loop_
 _atom_site_type_symbol
 _atom_site_label
 _atom_site_symmetry_multiplicity
 _atom_site_fract_x
 _atom_site_fract_y
 _atom_site_fract_z
 _atom_site_occupancy
  Nd  Nd0  1  0.72789200  0.68370600  0.81668700  1
  Nd  Nd1  1  0.22789200  0.31629400  0.68331300  1
  Nd  Nd2  1  0.27210800  0.31629400  0.18331300  1
  Nd  Nd3  1  0.77210800  0.68370600  0.31668700  1
  Tl  Tl0  1  0.06276900  0.75211900  0.03918600  1
  Tl  Tl1  1  0.56276900  0.24788100  0.46081400  1
  Tl  Tl2  1  0.93723100  0.24788100  0.96081400  1
  Tl  Tl3  1  0.43723100  0.75211900  0.53918600  1
  P  P0  1  0.97628100  0.02609800  0.72364400  1
  P  P1  1  0.47628100  0.97390200  0.77635600  1
  P  P2  1  0.02371900  0.97390200  0.27635600  1
  P  P3  1  0.52371900  0.02609800  0.22364400  1
  P  P4  1  0.17402000  0.68134300  0.35890400  1
  P  P5  1  0.67402000  0.31865700  0.14109600  1
  P  P6  1  0.82598000  0.31865700  0.64109600  1
  P  P7  1  0.32598000  0.68134300  0.85890400  1
  P  P8  1  0.40304600  0.61448600  0.23889000  1
  P  P9  1  0.90304600  0.38551400  0.26111000  1
  P  P10  1  0.59695400  0.38551400  0.76111000  1
  P  P11  1  0.09695400  0.61448600  0.73889000  1
  P  P12  1  0.60485500  0.80017800  0.02263600  1
  P  P13  1  0.10485500  0.19982200  0.47736400  1
  P  P14  1  0.39514500  0.19982200  0.97736400  1
  P  P15  1  0.89514500  0.80017800  0.52263600  1
  O  O0  1  0.29200300  0.72553800  0.25030500  1
  O  O1  1  0.79200300  0.27446200  0.24969500  1
  O  O2  1  0.70799700  0.27446200  0.74969500  1
  O  O3  1  0.20799700  0.72553800  0.75030500  1
  O  O4  1  0.91181400  0.92996100  0.21781400  1
  O  O5  1  0.41181400  0.07003900  0.28218600  1
  O  O6  1  0.08818600  0.07003900  0.78218600  1
  O  O7  1  0.58818600  0.92996100  0.71781400  1
  O  O8  1  0.31690500  0.48665500  0.25084400  1
  O  O9  1  0.81690500  0.51334500  0.24915600  1
  O  O10  1  0.68309500  0.51334500  0.74915600  1
  O  O11  1  0.18309500  0.48665500  0.75084400  1
  O  O12  1  0.03435900  0.63347100  0.33022000  1
  O  O13  1  0.53435900  0.36652900  0.16978000  1
  O  O14  1  0.96564100  0.36652900  0.66978000  1
  O  O15  1  0.46564100  0.63347100  0.83022000  1
  O  O16  1  0.03197600  0.42777600  0.17555500  1
  O  O17  1  0.53197600  0.57222400  0.32444500  1
  O  O18  1  0.96802400  0.57222400  0.82444500  1
  O  O19  1  0.46802400  0.42777600  0.67555500  1
  O  O20  1  0.91169500  0.86749300  0.80445300  1
  O  O21  1  0.41169500  0.13250700  0.69554700  1
  O  O22  1  0.08830500  0.13250700  0.19554700  1
  O  O23  1  0.58830500  0.86749300  0.30445300  1
  O  O24  1  0.66079400  0.69912100  0.98566100  1
  O  O25  1  0.16079400  0.30087900  0.51433900  1
  O  O26  1  0.33920600  0.30087900  0.01433900  1
  O  O27  1  0.83920600  0.69912100  0.48566100  1
  O  O28  1  0.34321500  0.84952400  0.83324600  1
  O  O29  1  0.84321500  0.15047600  0.66675400  1
  O  O30  1  0.65678500  0.15047600  0.16675400  1
  O  O31  1  0.15678500  0.84952400  0.33324600  1
  O  O32  1  0.45004200  0.73434100  0.09590500  1
  O  O33  1  0.95004200  0.26565900  0.40409500  1
  O  O34  1  0.54995800  0.26565900  0.90409500  1
  O  O35  1  0.04995800  0.73434100  0.59590500  1
  O  O36  1  0.74596600  0.41982200  0.01551600  1
  O  O37  1  0.24596600  0.58017800  0.48448400  1
  O  O38  1  0.25403400  0.58017800  0.98448400  1
  O  O39  1  0.75403400  0.41982200  0.51551600  1
  O  O40  1  0.79507300  0.83727700  0.59270900  1
  O  O41  1  0.29507300  0.16272300  0.90729100  1
  O  O42  1  0.20492700  0.16272300  0.40729100  1
  O  O43  1  0.70492700  0.83727700  0.09270900  1
  O  O44  1  0.04238600  0.04276400  0.60133900  1
  O  O45  1  0.54238600  0.95723600  0.89866100  1
  O  O46  1  0.95761400  0.95723600  0.39866100  1
  O  O47  1  0.45761400  0.04276400  0.10133900  1
loop_
_geom_bond_atom_site_label_1
_geom_bond_atom_site_label_2
_geom_bond_distance
_geom_bond_site_symmetry_2
Nd0 O24 2.392326 1_555
Nd0 O15 2.439550 1_555
Nd0 O10 2.462191 1_555
Nd0 O18 2.467561 1_555
Nd0 O40 2.479480 1_555
Nd0 O7 2.499665 1_555
Nd0 O36 2.504176 1_556
Nd0 O20 2.508889 1_555
Nd1 O25 2.392326 1_555
Nd1 O14 2.439550 1_455
Nd1 O11 2.462191 1_555
Nd1 O19 2.467561 1_555
Nd1 O41 2.479480 1_555
Nd1 O6 2.499665 1_555
Nd1 O37 2.504176 1_555
Nd1 O21 2.508889 1_555
Nd2 O26 2.392326 1_555
Nd2 O13 2.439550 1_555
Nd2 O8 2.462191 1_555
Nd2 O16 2.467561 1_555
Nd2 O42 2.479480 1_555
Nd2 O5 2.499665 1_555
Nd2 O38 2.504176 1_554
Nd2 O22 2.508889 1_555
Nd3 O27 2.392326 1_555
Nd3 O12 2.439550 1_655
Nd3 O9 2.462191 1_555
Nd3 O17 2.467561 1_555
Nd3 O43 2.479480 1_555
Nd3 O4 2.499665 1_555
Nd3 O39 2.504176 1_555
Nd3 O23 2.508889 1_555
O0 P4 1.624939 1_555
O0 P8 1.626340 1_555
O1 P5 1.624939 1_555
O1 P9 1.626340 1_555
O2 P6 1.624939 1_555
O2 P10 1.626340 1_555
O3 P7 1.624939 1_555
O3 P11 1.626340 1_555
O4 P2 1.504553 1_655
O5 P3 1.504553 1_555
O6 P0 1.504553 1_455
O7 P1 1.504553 1_555
O8 P8 1.497160 1_555
O9 P9 1.497160 1_555
O10 P10 1.497160 1_555
O11 P11 1.497160 1_555
O12 P4 1.499466 1_555
O13 P5 1.499466 1_555
O14 P6 1.499466 1_555
O15 P7 1.499466 1_555
O16 P9 1.506100 1_455
O16 Tl0 2.837796 1_555
O17 P8 1.506100 1_555
O17 Tl1 2.837796 1_555
O18 P11 1.506100 1_655
O18 Tl2 2.837796 1_555
O19 P10 1.506100 1_555
O19 Tl3 2.837796 1_555
O20 P0 1.501515 1_565
O20 Tl0 2.921784 1_656
O21 P1 1.501515 1_545
O21 Tl1 2.921784 1_555
O22 P2 1.501515 1_545
O22 Tl2 2.921784 1_454
O23 P3 1.501515 1_565
O23 Tl3 2.921784 1_555
O24 P12 1.498312 1_556
O25 P13 1.498312 1_555
O26 P14 1.498312 1_554
O27 P15 1.498312 1_555
O28 P7 1.623364 1_555
O28 P1 1.626721 1_555
O29 P6 1.623364 1_555
O29 P0 1.626721 1_555
O30 P5 1.623364 1_555
O30 P3 1.626721 1_555
O31 P4 1.623364 1_555
O31 P2 1.626721 1_555
O32 P8 1.604064 1_555
O32 P12 1.624977 1_555
O33 P9 1.604064 1_555
O33 P13 1.624977 1_655
O34 P10 1.604064 1_555
O34 P14 1.624977 1_555
O35 P11 1.604064 1_555
O35 P15 1.624977 1_455
O36 P5 1.503914 1_555
O36 Tl2 2.899314 1_554
O37 P4 1.503914 1_555
O37 Tl3 2.899314 1_555
O38 P7 1.503914 1_555
O38 Tl0 2.899314 1_556
O39 P6 1.503914 1_555
O39 Tl1 2.899314 1_555
O40 P15 1.500251 1_555
O41 P14 1.500251 1_555
O42 P13 1.500251 1_555
O43 P12 1.500251 1_555
O44 P13 1.621911 1_555
O44 P0 1.624571 1_455
O45 P12 1.621911 1_556
O45 P1 1.624571 1_555
O46 P15 1.621911 1_555
O46 P2 1.624571 1_655
O47 P14 1.621911 1_554
O47 P3 1.624571 1_555
