# generated using pymatgen
data_TiMnH12(OF)6
_symmetry_space_group_name_H-M   'P 1'
_cell_length_a   9.87749135
_cell_length_b   14.66670941
_cell_length_c   9.86648968
_cell_angle_alpha   70.31510394
_cell_angle_beta   60.02361223
_cell_angle_gamma   89.86304838
_symmetry_Int_Tables_number   1
_chemical_formula_structural   TiMnH12(OF)6
_chemical_formula_sum   'Ti4 Mn4 H48 O24 F24'
_cell_volume   1141.42327370
_cell_formula_units_Z   4
loop_
 _symmetry_equiv_pos_site_id
 _symmetry_equiv_pos_as_xyz
  1  'x, y, z'
loop_
 _atom_site_type_symbol
 _atom_site_label
 _atom_site_symmetry_multiplicity
 _atom_site_fract_x
 _atom_site_fract_y
 _atom_site_fract_z
 _atom_site_occupancy
  Ti  Ti0  1  0.12494900  0.37493500  0.74999400  1
  Ti  Ti1  1  0.87499900  0.62503000  0.24999600  1
  Ti  Ti2  1  0.62504000  0.87510000  0.74999400  1
  Ti  Ti3  1  0.37498300  0.12497800  0.25002500  1
  Mn  Mn0  1  0.49998600  0.49998800  0.00000200  1
  Mn  Mn1  1  0.24998600  0.74997700  0.49999600  1
  Mn  Mn2  1  0.00002200  0.00000300  0.00000500  1
  Mn  Mn3  1  0.75008600  0.24999100  0.49997800  1
  H  H0  1  0.85702800  0.32825800  0.14925000  1
  H  H1  1  0.60698600  0.57824200  0.64929200  1
  H  H2  1  0.35701000  0.82826300  0.14924000  1
  H  H3  1  0.10700500  0.07824600  0.64929100  1
  H  H4  1  0.47754600  0.32851700  0.66562500  1
  H  H5  1  0.22782000  0.57854500  0.16567600  1
  H  H6  1  0.97781500  0.82850800  0.66565000  1
  H  H7  1  0.72768100  0.07852900  0.16569000  1
  H  H8  1  0.99361900  0.32833100  0.52813300  1
  H  H9  1  0.74356800  0.57833400  0.02811100  1
  H  H10  1  0.49356400  0.82835100  0.52809400  1
  H  H11  1  0.24357200  0.07833800  0.02810100  1
  H  H12  1  0.39300900  0.42174700  0.35074300  1
  H  H13  1  0.14299400  0.67175800  0.85073300  1
  H  H14  1  0.89297400  0.92174000  0.35076600  1
  H  H15  1  0.64298300  0.17176800  0.85072600  1
  H  H16  1  0.77219800  0.42148300  0.83430900  1
  H  H17  1  0.52235600  0.67147300  0.33427200  1
  H  H18  1  0.27247900  0.92147400  0.83434800  1
  H  H19  1  0.02233400  0.17143100  0.33428400  1
  H  H20  1  0.25635100  0.42164400  0.97190500  1
  H  H21  1  0.00641000  0.67167600  0.47188600  1
  H  H22  1  0.75638600  0.92168100  0.97187700  1
  H  H23  1  0.50643400  0.17165800  0.47190300  1
  H  H24  1  0.04553000  0.16409200  0.71480900  1
  H  H25  1  0.79554200  0.41410000  0.21476700  1
  H  H26  1  0.54551100  0.66410500  0.71478400  1
  H  H27  1  0.29553200  0.91411100  0.21475200  1
  H  H28  1  0.87877900  0.16426000  0.07583700  1
  H  H29  1  0.62863500  0.41428400  0.57582700  1
  H  H30  1  0.37885500  0.66431100  0.07579800  1
  H  H31  1  0.12882300  0.91425300  0.57580400  1
  H  H32  1  0.23967600  0.16432300  0.88091100  1
  H  H33  1  0.98970400  0.41433600  0.38091200  1
  H  H34  1  0.73967300  0.66431700  0.88091500  1
  H  H35  1  0.48967200  0.91431700  0.38089400  1
  H  H36  1  0.20445600  0.58588900  0.78527600  1
  H  H37  1  0.95444900  0.83587200  0.28527200  1
  H  H38  1  0.70443400  0.08590200  0.78524400  1
  H  H39  1  0.45447100  0.33588800  0.28524100  1
  H  H40  1  0.37123400  0.58570900  0.42415700  1
  H  H41  1  0.12138100  0.83571300  0.92416600  1
  H  H42  1  0.87126600  0.08568400  0.42415400  1
  H  H43  1  0.62117700  0.33569900  0.92421400  1
  H  H44  1  0.01028700  0.58567100  0.61907900  1
  H  H45  1  0.76029600  0.83567400  0.11906600  1
  H  H46  1  0.51031000  0.08568700  0.61908500  1
  H  H47  1  0.26026800  0.33566800  0.11909400  1
  O  O0  1  0.79012500  0.34237500  0.25119900  1
  O  O1  1  0.54012400  0.59239000  0.75121900  1
  O  O2  1  0.29012400  0.84239300  0.25119300  1
  O  O3  1  0.04012800  0.09237100  0.75123600  1
  O  O4  1  0.59354200  0.34270100  0.61557400  1
  O  O5  1  0.34379500  0.59270600  0.11559700  1
  O  O6  1  0.09376100  0.84266700  0.61563900  1
  O  O7  1  0.84366500  0.09269100  0.11560200  1
  O  O8  1  0.95800700  0.34267700  0.44754100  1
  O  O9  1  0.70795400  0.59266900  0.94755400  1
  O  O10  1  0.45788300  0.84267200  0.44757900  1
  O  O11  1  0.20795300  0.09268000  0.94753800  1
  O  O12  1  0.45987500  0.40760800  0.24879800  1
  O  O13  1  0.20987500  0.65761300  0.74880800  1
  O  O14  1  0.95992300  0.90760300  0.24885700  1
  O  O15  1  0.70986700  0.15762700  0.74878400  1
  O  O16  1  0.65623200  0.40728900  0.88440700  1
  O  O17  1  0.40636100  0.65729200  0.38442500  1
  O  O18  1  0.15649100  0.90729600  0.88441900  1
  O  O19  1  0.90635900  0.15726800  0.38441400  1
  O  O20  1  0.29190800  0.40732700  0.05251700  1
  O  O21  1  0.04203500  0.65732300  0.55244400  1
  O  O22  1  0.79209300  0.90731800  0.05237300  1
  O  O23  1  0.54205700  0.15732800  0.55245600  1
  F  F0  1  0.96017000  0.29408700  0.97456200  1
  F  F1  1  0.71015100  0.54405200  0.47462300  1
  F  F2  1  0.46011900  0.79401300  0.97468600  1
  F  F3  1  0.21015700  0.04403000  0.47463000  1
  F  F4  1  0.26887200  0.29393900  0.77190100  1
  F  F5  1  0.01894600  0.54392900  0.27191000  1
  F  F6  1  0.76894600  0.79390900  0.77192900  1
  F  F7  1  0.51895400  0.04391200  0.27189400  1
  F  F8  1  0.06593000  0.29355400  0.66609800  1
  F  F9  1  0.81605700  0.54375000  0.16608800  1
  F  F10  1  0.56586300  0.79388600  0.66605900  1
  F  F11  1  0.31573900  0.04385600  0.16612500  1
  F  F12  1  0.28985300  0.45596000  0.52534400  1
  F  F13  1  0.03978500  0.70599300  0.02538600  1
  F  F14  1  0.78983900  0.95595500  0.52541300  1
  F  F15  1  0.53986100  0.20597900  0.02534100  1
  F  F16  1  0.98101500  0.45609000  0.72807900  1
  F  F17  1  0.73100000  0.70605700  0.22811700  1
  F  F18  1  0.48106700  0.95609400  0.72810600  1
  F  F19  1  0.23104600  0.20609000  0.22809500  1
  F  F20  1  0.18399500  0.45615600  0.83392000  1
  F  F21  1  0.93403100  0.70638600  0.33391300  1
  F  F22  1  0.68406400  0.95643800  0.83384500  1
  F  F23  1  0.43427100  0.20614400  0.33380800  1
loop_
_geom_bond_atom_site_label_1
_geom_bond_atom_site_label_2
_geom_bond_distance
_geom_bond_site_symmetry_2
Mn0 O5 2.192421 1_555
Mn0 O16 2.192440 1_554
Mn0 O1 2.192711 1_554
Mn0 O12 2.192839 1_555
Mn0 O9 2.193743 1_554
Mn0 O20 2.194184 1_555
Mn1 O6 2.192422 1_555
Mn1 O17 2.192752 1_555
Mn1 O13 2.192912 1_555
Mn1 O2 2.192922 1_555
Mn1 O21 2.193391 1_555
Mn1 O10 2.193414 1_555
Mn2 O3 2.192596 1_554
Mn2 O7 2.192805 1_455
Mn2 O11 2.193329 1_554
Mn2 O14 2.193408 1_445
Mn2 O18 2.193475 1_544
Mn2 O22 2.193807 1_445
Mn3 O15 2.192461 1_555
Mn3 O19 2.192722 1_555
Mn3 O0 2.192983 1_555
Mn3 O8 2.193450 1_555
Mn3 O4 2.193876 1_555
Mn3 O23 2.193964 1_555
H0 O0 0.983246 1_555
H1 O1 0.983269 1_555
H2 O2 0.983355 1_555
H3 O3 0.983240 1_555
H4 O4 0.983064 1_555
H5 O5 0.982818 1_555
H6 O6 0.982656 1_655
H7 O7 0.982886 1_555
H8 O8 0.983219 1_555
H9 O9 0.982928 1_554
H10 O10 0.983064 1_555
H11 O11 0.983013 1_554
H12 O12 0.983336 1_555
H13 O13 0.983259 1_555
H14 O14 0.983183 1_555
H15 O15 0.983359 1_555
H16 O16 0.982730 1_555
H17 O17 0.982902 1_555
H18 O18 0.982958 1_555
H19 O19 0.982743 1_455
H20 O20 0.983011 1_556
H21 O21 0.983004 1_555
H22 O22 0.983052 1_556
H23 O23 0.982963 1_555
H24 O3 0.982315 1_555
H25 O0 0.982351 1_555
H26 O1 0.982248 1_555
H27 O2 0.982263 1_555
H28 O7 0.982023 1_555
H29 O4 0.982207 1_555
H30 O5 0.982388 1_555
H31 O6 0.982082 1_555
H32 O11 0.982253 1_555
H33 O8 0.982458 1_555
H34 O9 0.982333 1_555
H35 O10 0.982355 1_555
H36 O13 0.982327 1_555
H37 O14 0.982367 1_555
H38 O15 0.982325 1_555
H39 O12 0.982295 1_555
H40 O17 0.982280 1_555
H41 O18 0.982233 1_555
H42 O19 0.982230 1_555
H43 O16 0.982164 1_555
H44 O21 0.982373 1_555
H45 O22 0.982354 1_555
H46 O23 0.982228 1_555
H47 O20 0.982389 1_555
F0 Ti0 1.897363 1_655
F1 Ti1 1.898305 1_555
F2 Ti2 1.899217 1_555
F3 Ti3 1.898027 1_555
F4 Ti0 1.898649 1_555
F5 Ti1 1.899761 1_455
F6 Ti2 1.900267 1_555
F7 Ti3 1.899528 1_555
F8 Ti0 1.897586 1_555
F9 Ti1 1.896130 1_555
F10 Ti2 1.896816 1_555
F11 Ti3 1.895842 1_555
F12 Ti0 1.898739 1_555
F13 Ti1 1.897995 1_455
F14 Ti2 1.897509 1_555
F15 Ti3 1.898762 1_555
F16 Ti0 1.900125 1_655
F17 Ti1 1.899442 1_555
F18 Ti2 1.898977 1_555
F19 Ti3 1.899820 1_555
F20 Ti0 1.896142 1_555
F21 Ti1 1.897535 1_555
F22 Ti2 1.896767 1_555
F23 Ti3 1.895646 1_555
