# generated using pymatgen
data_Sc(AlC)3
_symmetry_space_group_name_H-M   'P 1'
_cell_length_a   3.36426032
_cell_length_b   3.36426032
_cell_length_c   16.78558900
_cell_angle_alpha   90.00000000
_cell_angle_beta   90.00000000
_cell_angle_gamma   120.00000639
_symmetry_Int_Tables_number   1
_chemical_formula_structural   Sc(AlC)3
_chemical_formula_sum   'Sc2 Al6 C6'
_cell_volume   164.53048453
_cell_formula_units_Z   2
loop_
 _symmetry_equiv_pos_site_id
 _symmetry_equiv_pos_as_xyz
  1  'x, y, z'
loop_
 _atom_site_type_symbol
 _atom_site_label
 _atom_site_symmetry_multiplicity
 _atom_site_fract_x
 _atom_site_fract_y
 _atom_site_fract_z
 _atom_site_occupancy
  Sc  Sc0  1  0.00000000  0.00000000  0.00113900  1
  Sc  Sc1  1  0.00000000  0.00000000  0.50113900  1
  Al  Al0  1  0.33333300  0.66666700  0.37178600  1
  Al  Al1  1  0.66666700  0.33333300  0.62997900  1
  Al  Al2  1  0.66666700  0.33333300  0.87178600  1
  Al  Al3  1  0.33333300  0.66666700  0.75668100  1
  Al  Al4  1  0.33333300  0.66666700  0.12997900  1
  Al  Al5  1  0.66666700  0.33333300  0.25668100  1
  C  C0  1  0.33333300  0.66666700  0.25010900  1
  C  C1  1  0.66666700  0.33333300  0.75010900  1
  C  C2  1  0.66666700  0.33333300  0.41044000  1
  C  C3  1  0.33333300  0.66666700  0.91044000  1
  C  C4  1  0.66666700  0.33333300  0.08386600  1
  C  C5  1  0.33333300  0.66666700  0.58386600  1
loop_
_geom_bond_atom_site_label_1
_geom_bond_atom_site_label_2
_geom_bond_distance
_geom_bond_site_symmetry_2
Al0 C0 2.042420 1_555
Al0 C2 2.047858 1_455
Al0 C2 2.047858 1_565
Al0 C2 2.047864 1_555
Al1 C1 2.016453 1_555
Al1 C5 2.090902 1_545
Al1 C5 2.090902 1_655
Al1 C5 2.090907 1_555
Al2 C1 2.042420 1_555
Al2 C3 2.047858 1_545
Al2 C3 2.047858 1_655
Al2 C3 2.047864 1_555
Al3 C1 1.945485 1_455
Al3 C1 1.945485 1_565
Al3 C1 1.945491 1_555
Al3 C3 2.580935 1_555
Al4 C0 2.016453 1_555
Al4 C4 2.090902 1_455
Al4 C4 2.090902 1_565
Al4 C4 2.090907 1_555
Al5 C0 1.945485 1_545
Al5 C0 1.945485 1_655
Al5 C0 1.945491 1_555
Al5 C2 2.580935 1_555
C2 Sc1 2.467905 1_655
C2 Sc1 2.467907 1_555
C2 Sc1 2.467907 1_665
C3 Sc0 2.467905 1_566
C3 Sc0 2.467907 1_666
C3 Sc0 2.467907 1_556
C4 Sc0 2.387679 1_655
C4 Sc0 2.387681 1_555
C4 Sc0 2.387681 1_665
C5 Sc1 2.387679 1_565
C5 Sc1 2.387681 1_665
C5 Sc1 2.387681 1_555
