# generated using pymatgen
data_K3Fe2(PO4)3
_symmetry_space_group_name_H-M   'P 1'
_cell_length_a   9.56759564
_cell_length_b   9.56759564
_cell_length_c   16.98186191
_cell_angle_alpha   65.64571136
_cell_angle_beta   65.64571136
_cell_angle_gamma   60.32502284
_symmetry_Int_Tables_number   1
_chemical_formula_structural   K3Fe2(PO4)3
_chemical_formula_sum   'K12 Fe8 P12 O48'
_cell_volume   1187.10079422
_cell_formula_units_Z   4
loop_
 _symmetry_equiv_pos_site_id
 _symmetry_equiv_pos_as_xyz
  1  'x, y, z'
loop_
 _atom_site_type_symbol
 _atom_site_label
 _atom_site_symmetry_multiplicity
 _atom_site_fract_x
 _atom_site_fract_y
 _atom_site_fract_z
 _atom_site_occupancy
  K  K0  1  0.31077800  0.52942300  0.67959000  1
  K  K1  1  0.07346600  0.33661600  0.41917200  1
  K  K2  1  0.72481800  0.27518200  0.75000000  1
  K  K3  1  0.52942300  0.31077800  0.17959000  1
  K  K4  1  0.33661600  0.07346600  0.91917200  1
  K  K5  1  0.00000000  0.50000000  0.00000000  1
  K  K6  1  0.27518200  0.72481800  0.25000000  1
  K  K7  1  0.92653400  0.66338400  0.58082800  1
  K  K8  1  0.68922200  0.47057700  0.32041000  1
  K  K9  1  0.47057700  0.68922200  0.82041000  1
  K  K10  1  0.50000000  0.00000000  0.50000000  1
  K  K11  1  0.66338400  0.92653400  0.08082800  1
  Fe  Fe0  1  0.83276300  0.80945300  0.82382900  1
  Fe  Fe1  1  0.80945300  0.83276300  0.32382900  1
  Fe  Fe2  1  0.16723700  0.19054700  0.17617100  1
  Fe  Fe3  1  0.78844500  0.27700700  0.96590300  1
  Fe  Fe4  1  0.72299300  0.21155500  0.53409700  1
  Fe  Fe5  1  0.27700700  0.78844500  0.46590300  1
  Fe  Fe6  1  0.19054700  0.16723700  0.67617100  1
  Fe  Fe7  1  0.21155500  0.72299300  0.03409700  1
  P  P0  1  0.04001500  0.98882600  0.62196100  1
  P  P1  1  0.34873800  0.39946700  0.48145000  1
  P  P2  1  0.98882600  0.04001600  0.12196100  1
  P  P3  1  0.96346500  0.42340700  0.80991500  1
  P  P4  1  0.65126200  0.60053300  0.51855000  1
  P  P5  1  0.39946700  0.34873800  0.98145000  1
  P  P6  1  0.60053300  0.65126200  0.01855000  1
  P  P7  1  0.01117400  0.95998500  0.87803900  1
  P  P8  1  0.95998500  0.01117400  0.37803900  1
  P  P9  1  0.03653500  0.57659300  0.19008500  1
  P  P10  1  0.42340700  0.96346500  0.30991500  1
  P  P11  1  0.57659300  0.03653500  0.69008500  1
  O  O0  1  0.91910600  0.62404500  0.27950500  1
  O  O1  1  0.62404500  0.91910600  0.77950500  1
  O  O2  1  0.77015200  0.69184300  0.44806600  1
  O  O3  1  0.83844700  0.12094800  0.08224200  1
  O  O4  1  0.53049500  0.27960000  0.48710900  1
  O  O5  1  0.96386600  0.59489400  0.79756400  1
  O  O6  1  0.87905200  0.16155300  0.41775800  1
  O  O7  1  0.43660800  0.78389100  0.33019400  1
  O  O8  1  0.84767500  0.07189100  0.93175500  1
  O  O9  1  0.29564200  0.55636300  0.51122200  1
  O  O10  1  0.59489400  0.96386600  0.29756400  1
  O  O11  1  0.66569900  0.55971500  0.61257900  1
  O  O12  1  0.27960000  0.53049500  0.98710900  1
  O  O13  1  0.08089400  0.37595500  0.72049500  1
  O  O14  1  0.69184300  0.77015200  0.94806600  1
  O  O15  1  0.29518400  0.02329100  0.39425700  1
  O  O16  1  0.94748200  0.92512200  0.21603000  1
  O  O17  1  0.12094800  0.83844700  0.58224200  1
  O  O18  1  0.70481600  0.97670900  0.60574300  1
  O  O19  1  0.55636300  0.29564200  0.01122200  1
  O  O20  1  0.07189100  0.84767500  0.43175500  1
  O  O21  1  0.05251800  0.07487800  0.78397000  1
  O  O22  1  0.55971500  0.66569900  0.11257900  1
  O  O23  1  0.07487800  0.05251800  0.28397000  1
  O  O24  1  0.92810900  0.15232500  0.56824500  1
  O  O25  1  0.70435800  0.44363700  0.48877800  1
  O  O26  1  0.02329100  0.29518400  0.89425700  1
  O  O27  1  0.81682500  0.97908500  0.37674200  1
  O  O28  1  0.72040000  0.46950500  0.01289100  1
  O  O29  1  0.30815700  0.22984800  0.05193400  1
  O  O30  1  0.97670900  0.70481600  0.10574300  1
  O  O31  1  0.56339200  0.21610900  0.66980600  1
  O  O32  1  0.40510600  0.03613400  0.70243600  1
  O  O33  1  0.33430100  0.44028500  0.38742100  1
  O  O34  1  0.21610900  0.56339200  0.16980600  1
  O  O35  1  0.03613400  0.40510600  0.20243600  1
  O  O36  1  0.44363700  0.70435800  0.98877800  1
  O  O37  1  0.18317500  0.02091500  0.62325800  1
  O  O38  1  0.16155300  0.87905200  0.91775800  1
  O  O39  1  0.02091500  0.18317500  0.12325800  1
  O  O40  1  0.22984800  0.30815700  0.55193400  1
  O  O41  1  0.15232500  0.92810900  0.06824500  1
  O  O42  1  0.92512200  0.94748200  0.71603000  1
  O  O43  1  0.78389100  0.43660800  0.83019400  1
  O  O44  1  0.37595500  0.08089400  0.22049500  1
  O  O45  1  0.97908500  0.81682500  0.87674200  1
  O  O46  1  0.44028500  0.33430100  0.88742100  1
  O  O47  1  0.46950500  0.72040000  0.51289100  1
loop_
_geom_bond_atom_site_label_1
_geom_bond_atom_site_label_2
_geom_bond_distance
_geom_bond_site_symmetry_2
K0 O31 2.785828 1_555
K0 O17 2.810916 1_555
K0 O9 2.821199 1_555
K0 O13 2.927868 1_555
K0 O47 2.931629 1_555
K0 O5 2.985748 1_455
K0 O11 3.228843 1_555
K1 O24 2.700857 1_455
K1 O15 2.770345 1_555
K1 O33 2.898688 1_555
K1 O0 2.976107 1_455
K1 O25 2.981943 1_455
K1 O40 3.044365 1_555
K1 O6 3.069315 1_455
K1 O2 3.263190 1_455
K2 O46 2.738836 1_555
K2 O11 2.738836 1_555
K2 O31 2.791639 1_555
K2 O43 2.791639 1_555
K2 O21 2.909650 1_655
K2 O42 2.909650 1_545
K2 O24 3.235532 1_555
K2 O8 3.235532 1_555
K3 O34 2.785828 1_555
K3 O3 2.810916 1_555
K3 O19 2.821199 1_555
K3 O44 2.927868 1_555
K3 O28 2.931629 1_555
K3 O10 2.985748 1_545
K3 O22 3.228843 1_555
K4 O41 2.700857 1_546
K4 O26 2.770345 1_555
K4 O46 2.898688 1_555
K4 O1 2.976107 1_545
K4 O36 2.981943 1_545
K4 O29 3.044365 1_556
K4 O38 3.069315 1_545
K4 O14 3.263190 1_545
K5 O12 2.743421 1_554
K5 O28 2.743421 1_455
K5 O39 2.849860 1_555
K5 O45 2.849860 1_454
K5 O29 2.978264 1_555
K5 O14 2.978264 1_454
K5 O30 3.042049 1_455
K5 O26 3.042049 1_554
K5 O35 3.295012 1_555
K5 O5 3.295012 1_454
K6 O33 2.738836 1_555
K6 O22 2.738836 1_555
K6 O7 2.791639 1_555
K6 O34 2.791639 1_555
K6 O23 2.909650 1_565
K6 O16 2.909650 1_455
K6 O41 3.235532 1_555
K6 O20 3.235532 1_555
K7 O20 2.700857 1_655
K7 O18 2.770345 1_555
K7 O11 2.898688 1_555
K7 O13 2.976107 1_655
K7 O9 2.981943 1_655
K7 O2 3.044365 1_555
K7 O17 3.069315 1_655
K7 O40 3.263190 1_655
K8 O7 2.785828 1_555
K8 O6 2.810916 1_555
K8 O25 2.821199 1_555
K8 O0 2.927868 1_555
K8 O4 2.931629 1_555
K8 O35 2.985748 1_655
K8 O33 3.228843 1_555
K9 O43 2.785828 1_555
K9 O38 2.810916 1_555
K9 O36 2.821199 1_555
K9 O1 2.927868 1_555
K9 O12 2.931629 1_555
K9 O32 2.985748 1_565
K9 O46 3.228843 1_555
K10 O4 2.743421 1_555
K10 O47 2.743421 1_545
K10 O27 2.849860 1_545
K10 O37 2.849860 1_555
K10 O40 2.978264 1_555
K10 O2 2.978264 1_545
K10 O18 3.042049 1_545
K10 O15 3.042049 1_555
K10 O32 3.295012 1_555
K10 O10 3.295012 1_545
K11 O8 2.700857 1_564
K11 O30 2.770345 1_555
K11 O22 2.898688 1_555
K11 O44 2.976107 1_565
K11 O19 2.981943 1_565
K11 O14 3.044365 1_554
K11 O3 3.069315 1_565
K11 O29 3.263190 1_565
Fe0 O42 1.924442 1_555
Fe0 O5 1.931450 1_555
Fe0 O14 1.977879 1_555
Fe0 O45 1.989920 1_555
Fe0 O1 2.041799 1_555
Fe1 O16 1.924442 1_555
Fe1 O10 1.931450 1_555
Fe1 O2 1.977879 1_555
Fe1 O27 1.989920 1_555
Fe1 O0 2.041799 1_555
Fe2 O23 1.924442 1_555
Fe2 O35 1.931450 1_555
Fe2 O29 1.977879 1_555
Fe2 O39 1.989920 1_555
Fe2 O44 2.041799 1_555
Fe3 O19 1.966295 1_556
Fe3 O3 2.000193 1_556
Fe3 O28 2.012204 1_556
Fe3 O8 2.018686 1_555
Fe3 O26 2.125294 1_655
Fe3 O43 2.181582 1_555
Fe4 O25 1.966295 1_555
Fe4 O6 2.000193 1_555
Fe4 O4 2.012204 1_555
Fe4 O24 2.018686 1_555
Fe4 O18 2.125294 1_545
Fe4 O31 2.181582 1_555
Fe5 O9 1.966295 1_555
Fe5 O17 2.000193 1_555
Fe5 O47 2.012204 1_555
Fe5 O20 2.018686 1_555
Fe5 O15 2.125294 1_565
Fe5 O7 2.181582 1_555
Fe6 O21 1.924442 1_555
Fe6 O32 1.931450 1_555
Fe6 O40 1.977879 1_555
Fe6 O37 1.989920 1_555
Fe6 O13 2.041799 1_555
Fe7 O36 1.966295 1_554
Fe7 O38 2.000193 1_554
Fe7 O12 2.012204 1_554
Fe7 O41 2.018686 1_555
Fe7 O30 2.125294 1_455
Fe7 O34 2.181582 1_555
O0 P9 1.559083 1_655
O1 P11 1.559083 1_565
O2 P4 1.577462 1_555
O3 P2 1.546318 1_555
O4 P1 1.555876 1_555
O5 P3 1.567709 1_555
O6 P8 1.546317 1_555
O7 P10 1.555446 1_555
O8 P7 1.547812 1_645
O9 P1 1.557589 1_555
O10 P10 1.567709 1_555
O11 P4 1.528237 1_555
O12 P5 1.555876 1_555
O13 P3 1.559083 1_455
O14 P6 1.577462 1_556
O15 P10 1.554270 1_545
O16 P2 1.542022 1_565
O17 P0 1.546317 1_555
O18 P11 1.554270 1_565
O19 P5 1.557589 1_554
O20 P8 1.547812 1_465
O21 P7 1.542018 1_545
O22 P6 1.528237 1_555
O23 P8 1.542018 1_455
O24 P0 1.547812 1_645
O25 P4 1.557589 1_555
O26 P3 1.554270 1_455
O27 P8 1.554879 1_565
O28 P6 1.555876 1_555
O29 P5 1.577462 1_554
O30 P9 1.554270 1_655
O31 P11 1.555446 1_555
O32 P11 1.567709 1_555
O33 P1 1.528237 1_555
O34 P9 1.555446 1_555
O35 P9 1.567709 1_555
O36 P6 1.557589 1_556
O37 P0 1.554879 1_545
O38 P7 1.546317 1_555
O39 P2 1.554870 1_455
O40 P1 1.577462 1_555
O41 P2 1.547816 1_465
O42 P0 1.542018 1_655
O43 P3 1.555446 1_555
O44 P10 1.559083 1_545
O45 P7 1.554879 1_655
O46 P5 1.528237 1_555
O47 P4 1.555876 1_555
