# generated using pymatgen
data_Te6As4C3(NF8)3
_symmetry_space_group_name_H-M   'P 1'
_cell_length_a   8.98842702
_cell_length_b   8.98842702
_cell_length_c   19.82872249
_cell_angle_alpha   75.98587298
_cell_angle_beta   75.98587298
_cell_angle_gamma   68.66131283
_symmetry_Int_Tables_number   1
_chemical_formula_structural   Te6As4C3(NF8)3
_chemical_formula_sum   'Te12 As8 C6 N6 F48'
_cell_volume   1426.57455377
_cell_formula_units_Z   2
loop_
 _symmetry_equiv_pos_site_id
 _symmetry_equiv_pos_as_xyz
  1  'x, y, z'
loop_
 _atom_site_type_symbol
 _atom_site_label
 _atom_site_symmetry_multiplicity
 _atom_site_fract_x
 _atom_site_fract_y
 _atom_site_fract_z
 _atom_site_occupancy
  Te  Te0  1  0.00629100  0.69034000  0.67111700  1
  Te  Te1  1  0.17078000  0.48062100  0.35048300  1
  Te  Te2  1  0.53213100  0.84707100  0.78458800  1
  Te  Te3  1  0.84707100  0.53213100  0.78458800  1
  Te  Te4  1  0.48062100  0.17078000  0.35048300  1
  Te  Te5  1  0.46786900  0.15292900  0.21541200  1
  Te  Te6  1  0.15292900  0.46786900  0.21541200  1
  Te  Te7  1  0.30966000  0.99370900  0.32888300  1
  Te  Te8  1  0.99370900  0.30966000  0.32888300  1
  Te  Te9  1  0.51937900  0.82922000  0.64951700  1
  Te  Te10  1  0.69034000  0.00629100  0.67111700  1
  Te  Te11  1  0.82922000  0.51937900  0.64951700  1
  As  As0  1  0.13684500  0.13684500  0.54401400  1
  As  As1  1  0.00102300  0.00102300  0.80097800  1
  As  As2  1  0.99897700  0.99897700  0.19902200  1
  As  As3  1  0.59053800  0.59053800  0.24313300  1
  As  As4  1  0.86315500  0.86315500  0.45598600  1
  As  As5  1  0.40946200  0.40946200  0.75686700  1
  As  As6  1  0.50000000  0.50000000  0.50000000  1
  As  As7  1  0.50000000  0.50000000  0.00000000  1
  C  C0  1  0.95163400  0.95163400  0.01063000  1
  C  C1  1  0.51802100  0.97379300  0.96832300  1
  C  C2  1  0.02620700  0.48197900  0.03167700  1
  C  C3  1  0.48197900  0.02620700  0.03167700  1
  C  C4  1  0.04836600  0.04836600  0.98937000  1
  C  C5  1  0.97379300  0.51802100  0.96832300  1
  N  N0  1  0.13064300  0.13064300  0.97149000  1
  N  N1  1  0.54854900  0.92897000  0.91464600  1
  N  N2  1  0.07103000  0.45145100  0.08535400  1
  N  N3  1  0.45145100  0.07103000  0.08535400  1
  N  N4  1  0.86935700  0.86935700  0.02851000  1
  N  N5  1  0.92897000  0.54854900  0.91464600  1
  F  F0  1  0.90431700  0.65573000  0.49559000  1
  F  F1  1  0.07176700  0.82259000  0.41857700  1
  F  F2  1  0.77763000  0.52634000  0.18755300  1
  F  F3  1  0.32694500  0.32694500  0.70875600  1
  F  F4  1  0.42471500  0.42471500  0.44378700  1
  F  F5  1  0.67425200  0.32574800  0.00000000  1
  F  F6  1  0.59728700  0.59728700  0.03390300  1
  F  F7  1  0.64631700  0.39992200  0.30264800  1
  F  F8  1  0.44716300  0.69498800  0.44718100  1
  F  F9  1  0.09568300  0.34427000  0.50441000  1
  F  F10  1  0.12371500  0.12371500  0.18419600  1
  F  F11  1  0.55283700  0.30501200  0.55281900  1
  F  F12  1  0.34427000  0.09568300  0.50441000  1
  F  F13  1  0.57528500  0.57528500  0.55621300  1
  F  F14  1  0.87512300  0.87512300  0.21790400  1
  F  F15  1  0.49911800  0.49911800  0.79978300  1
  F  F16  1  0.88353100  0.13400600  0.13561400  1
  F  F17  1  0.82274200  0.82274200  0.38108200  1
  F  F18  1  0.67305500  0.67305500  0.29124400  1
  F  F19  1  0.65573000  0.90431700  0.49559000  1
  F  F20  1  0.50088200  0.50088200  0.20021700  1
  F  F21  1  0.13400600  0.88353100  0.13561400  1
  F  F22  1  0.17725800  0.17725800  0.61891800  1
  F  F23  1  0.52634000  0.77763000  0.18755300  1
  F  F24  1  0.86599400  0.11646900  0.86438600  1
  F  F25  1  0.92823300  0.17741000  0.58142300  1
  F  F26  1  0.87628500  0.87628500  0.81580400  1
  F  F27  1  0.42056900  0.42056900  0.08880700  1
  F  F28  1  0.13231800  0.88560600  0.73480500  1
  F  F29  1  0.11439400  0.86768200  0.26519500  1
  F  F30  1  0.35368300  0.60007800  0.69735200  1
  F  F31  1  0.09956800  0.09956800  0.46592300  1
  F  F32  1  0.30501200  0.55283700  0.55281900  1
  F  F33  1  0.39992200  0.64631700  0.30264800  1
  F  F34  1  0.90043200  0.90043200  0.53407700  1
  F  F35  1  0.47366000  0.22237000  0.81244700  1
  F  F36  1  0.12487700  0.12487700  0.78209600  1
  F  F37  1  0.82259000  0.07176700  0.41857700  1
  F  F38  1  0.86768200  0.11439400  0.26519500  1
  F  F39  1  0.57943100  0.57943100  0.91119300  1
  F  F40  1  0.32574800  0.67425200  0.00000000  1
  F  F41  1  0.22237000  0.47366000  0.81244700  1
  F  F42  1  0.88560600  0.13231800  0.73480500  1
  F  F43  1  0.11646900  0.86599400  0.86438600  1
  F  F44  1  0.69498800  0.44716300  0.44718100  1
  F  F45  1  0.40271300  0.40271300  0.96609700  1
  F  F46  1  0.17741000  0.92823300  0.58142300  1
  F  F47  1  0.60007800  0.35368300  0.69735200  1
loop_
_geom_bond_atom_site_label_1
_geom_bond_atom_site_label_2
_geom_bond_distance
_geom_bond_site_symmetry_2
As0 F22 1.757412 1_555
As0 F25 1.777340 1_455
As0 F46 1.777340 1_545
As0 F9 1.777429 1_555
As0 F12 1.777429 1_555
As0 F31 1.790663 1_555
As1 F43 1.762638 1_545
As1 F24 1.762638 1_455
As1 F36 1.765514 1_555
As1 F26 1.787786 1_445
As1 F28 1.791352 1_545
As1 F42 1.791352 1_455
As2 F21 1.762638 1_655
As2 F16 1.762638 1_565
As2 F14 1.765514 1_555
As2 F10 1.787786 1_665
As2 F38 1.791352 1_565
As2 F29 1.791352 1_655
As3 F23 1.754916 1_555
As3 F2 1.754916 1_555
As3 F18 1.759557 1_555
As3 F20 1.777605 1_555
As3 F7 1.806014 1_555
As3 F33 1.806014 1_555
As4 F17 1.757412 1_555
As4 F1 1.777340 1_655
As4 F37 1.777340 1_565
As4 F0 1.777429 1_555
As4 F19 1.777429 1_555
As4 F34 1.790663 1_555
As5 F35 1.754916 1_555
As5 F41 1.754916 1_555
As5 F3 1.759557 1_555
As5 F15 1.777605 1_555
As5 F30 1.806014 1_555
As5 F47 1.806014 1_555
As6 F8 1.772092 1_555
As6 F44 1.772092 1_555
As6 F32 1.772092 1_555
As6 F11 1.772092 1_555
As6 F13 1.795021 1_555
As6 F4 1.795021 1_555
As7 F6 1.762725 1_555
As7 F45 1.762725 1_554
As7 F5 1.766631 1_555
As7 F40 1.766631 1_555
As7 F27 1.809283 1_555
As7 F39 1.809283 1_554
C0 N4 1.167729 1_555
C0 C4 1.372878 1_664
C1 N1 1.164571 1_555
C2 N2 1.164571 1_555
C3 N3 1.164571 1_555
C4 N0 1.167729 1_555
C5 N5 1.164571 1_555
