# generated using pymatgen
data_Nd5As2ClO10
_symmetry_space_group_name_H-M   'P 1'
_cell_length_a   6.89356461
_cell_length_b   6.89356461
_cell_length_c   9.11672837
_cell_angle_alpha   66.28627088
_cell_angle_beta   66.28627088
_cell_angle_gamma   49.22626330
_symmetry_Int_Tables_number   1
_chemical_formula_structural   Nd5As2ClO10
_chemical_formula_sum   'Nd5 As2 Cl1 O10'
_cell_volume   294.24248925
_cell_formula_units_Z   1
loop_
 _symmetry_equiv_pos_site_id
 _symmetry_equiv_pos_as_xyz
  1  'x, y, z'
loop_
 _atom_site_type_symbol
 _atom_site_label
 _atom_site_symmetry_multiplicity
 _atom_site_fract_x
 _atom_site_fract_y
 _atom_site_fract_z
 _atom_site_occupancy
  Nd  Nd0  1  0.49966200  0.49966200  0.70802200  1
  Nd  Nd1  1  0.74641400  0.74641400  0.87241200  1
  Nd  Nd2  1  0.00000000  0.00000000  0.00000000  1
  Nd  Nd3  1  0.25358600  0.25358600  0.12758900  1
  Nd  Nd4  1  0.50033800  0.50033800  0.29197800  1
  As  As0  1  0.78505300  0.78505300  0.39260400  1
  As  As1  1  0.21494700  0.21494700  0.60739600  1
  Cl  Cl0  1  0.00000000  0.00000000  0.50000000  1
  O  O0  1  0.62598300  0.13309600  0.91584300  1
  O  O1  1  0.62314900  0.09433300  0.24672000  1
  O  O2  1  0.63980600  0.63980600  0.39927900  1
  O  O3  1  0.36019400  0.36019400  0.60072100  1
  O  O4  1  0.13309600  0.62598300  0.91584300  1
  O  O5  1  0.86690400  0.37401700  0.08415700  1
  O  O6  1  0.09433300  0.62314900  0.24672000  1
  O  O7  1  0.37401700  0.86690400  0.08415700  1
  O  O8  1  0.90566700  0.37685100  0.75328000  1
  O  O9  1  0.37685100  0.90566700  0.75328000  1
loop_
_geom_bond_atom_site_label_1
_geom_bond_atom_site_label_2
_geom_bond_distance
_geom_bond_site_symmetry_2
Nd0 O4 2.309861 1_555
Nd0 O0 2.309861 1_555
Nd0 O3 2.350732 1_555
Nd0 O8 2.504668 1_555
Nd0 O9 2.504668 1_555
Nd0 O2 2.575654 1_555
Nd1 O5 2.350585 1_556
Nd1 O7 2.350585 1_556
Nd1 O0 2.376039 1_565
Nd1 O4 2.376039 1_655
Nd1 O8 2.547266 1_555
Nd1 O9 2.547266 1_555
Nd2 O7 2.452187 1_545
Nd2 O5 2.452187 1_455
Nd2 O0 2.452187 1_454
Nd2 O4 2.452187 1_544
Nd2 O8 2.549692 1_454
Nd2 O9 2.549692 1_544
Nd2 O1 2.549692 1_455
Nd2 O6 2.549692 1_545
Nd3 O0 2.350590 1_554
Nd3 O4 2.350590 1_554
Nd3 O7 2.376044 1_545
Nd3 O5 2.376044 1_455
Nd3 O6 2.547260 1_555
Nd3 O1 2.547260 1_555
Nd4 O7 2.309861 1_555
Nd4 O5 2.309861 1_555
Nd4 O2 2.350732 1_555
Nd4 O1 2.504668 1_555
Nd4 O6 2.504668 1_555
Nd4 O3 2.575654 1_555
As0 O2 1.794500 1_555
As0 O1 1.834465 1_565
As0 O6 1.834465 1_655
As1 O3 1.794500 1_555
As1 O9 1.834465 1_545
As1 O8 1.834465 1_455
Cl0 Nd0 3.439874 1_455
Cl0 Nd0 3.439874 1_545
Cl0 Nd4 3.439874 1_545
Cl0 Nd4 3.439874 1_455
Cl0 Nd3 3.476024 1_555
Cl0 Nd1 3.476030 1_445
