# generated using pymatgen
data_Hg6Cl3O2
_symmetry_space_group_name_H-M   'P 1'
_cell_length_a   14.16764560
_cell_length_b   14.16764560
_cell_length_c   14.16764560
_cell_angle_alpha   109.47122063
_cell_angle_beta   109.47122063
_cell_angle_gamma   109.47122063
_symmetry_Int_Tables_number   1
_chemical_formula_structural   Hg6Cl3O2
_chemical_formula_sum   'Hg48 Cl24 O16'
_cell_volume   2189.12803486
_cell_formula_units_Z   8
loop_
 _symmetry_equiv_pos_site_id
 _symmetry_equiv_pos_as_xyz
  1  'x, y, z'
loop_
 _atom_site_type_symbol
 _atom_site_label
 _atom_site_symmetry_multiplicity
 _atom_site_fract_x
 _atom_site_fract_y
 _atom_site_fract_z
 _atom_site_occupancy
  Hg  Hg0  1  0.15806100  0.47807000  0.66028500  1
  Hg  Hg1  1  0.31778500  0.32000900  0.47807000  1
  Hg  Hg2  1  0.00222400  0.18221500  0.66028500  1
  Hg  Hg3  1  0.67999100  0.65806100  0.99777600  1
  Hg  Hg4  1  0.66028500  0.15806100  0.47807000  1
  Hg  Hg5  1  0.33971500  0.84193900  0.52193000  1
  Hg  Hg6  1  0.18221500  0.66028500  0.00222400  1
  Hg  Hg7  1  0.50222400  0.16028500  0.68221500  1
  Hg  Hg8  1  0.16028500  0.68221500  0.50222400  1
  Hg  Hg9  1  0.32000900  0.47807000  0.31778500  1
  Hg  Hg10  1  0.65806100  0.16028500  0.97807000  1
  Hg  Hg11  1  0.02193000  0.17999100  0.18221500  1
  Hg  Hg12  1  0.34193900  0.00222400  0.32000900  1
  Hg  Hg13  1  0.18221500  0.02193000  0.17999100  1
  Hg  Hg14  1  0.81778500  0.33971500  0.99777600  1
  Hg  Hg15  1  0.68221500  0.50222400  0.16028500  1
  Hg  Hg16  1  0.47807000  0.66028500  0.15806100  1
  Hg  Hg17  1  0.99777600  0.67999100  0.65806100  1
  Hg  Hg18  1  0.49777600  0.83971500  0.31778500  1
  Hg  Hg19  1  0.99777600  0.81778500  0.33971500  1
  Hg  Hg20  1  0.65806100  0.99777600  0.67999100  1
  Hg  Hg21  1  0.52193000  0.33971500  0.84193900  1
  Hg  Hg22  1  0.33971500  0.99777600  0.81778500  1
  Hg  Hg23  1  0.17999100  0.18221500  0.02193000  1
  Hg  Hg24  1  0.52193000  0.68221500  0.67999100  1
  Hg  Hg25  1  0.67999100  0.52193000  0.68221500  1
  Hg  Hg26  1  0.83971500  0.31778500  0.49777600  1
  Hg  Hg27  1  0.31778500  0.49777600  0.83971500  1
  Hg  Hg28  1  0.00222400  0.32000900  0.34193900  1
  Hg  Hg29  1  0.97807000  0.82000900  0.81778500  1
  Hg  Hg30  1  0.32000900  0.34193900  0.00222400  1
  Hg  Hg31  1  0.15806100  0.17999100  0.49777600  1
  Hg  Hg32  1  0.81778500  0.97807000  0.82000900  1
  Hg  Hg33  1  0.34193900  0.83971500  0.02193000  1
  Hg  Hg34  1  0.82000900  0.50222400  0.84193900  1
  Hg  Hg35  1  0.82000900  0.81778500  0.97807000  1
  Hg  Hg36  1  0.84193900  0.82000900  0.50222400  1
  Hg  Hg37  1  0.97807000  0.65806100  0.16028500  1
  Hg  Hg38  1  0.49777600  0.15806100  0.17999100  1
  Hg  Hg39  1  0.02193000  0.34193900  0.83971500  1
  Hg  Hg40  1  0.16028500  0.97807000  0.65806100  1
  Hg  Hg41  1  0.66028500  0.00222400  0.18221500  1
  Hg  Hg42  1  0.50222400  0.84193900  0.82000900  1
  Hg  Hg43  1  0.83971500  0.02193000  0.34193900  1
  Hg  Hg44  1  0.47807000  0.31778500  0.32000900  1
  Hg  Hg45  1  0.84193900  0.52193000  0.33971500  1
  Hg  Hg46  1  0.17999100  0.49777600  0.15806100  1
  Hg  Hg47  1  0.68221500  0.67999100  0.52193000  1
  Cl  Cl0  1  0.98685100  0.51314900  0.75000000  1
  Cl  Cl1  1  0.47370100  0.48685100  0.73685100  1
  Cl  Cl2  1  0.23685100  0.75000000  0.26314900  1
  Cl  Cl3  1  0.25000000  0.01314900  0.48685100  1
  Cl  Cl4  1  0.26314900  0.23685100  0.75000000  1
  Cl  Cl5  1  0.97370100  0.23685100  0.98685100  1
  Cl  Cl6  1  0.76314900  0.25000000  0.73685100  1
  Cl  Cl7  1  0.23685100  0.98685100  0.97370100  1
  Cl  Cl8  1  0.51314900  0.75000000  0.98685100  1
  Cl  Cl9  1  0.25000000  0.73685100  0.76314900  1
  Cl  Cl10  1  0.98685100  0.97370100  0.23685100  1
  Cl  Cl11  1  0.73685100  0.76314900  0.25000000  1
  Cl  Cl12  1  0.26314900  0.52629900  0.51314900  1
  Cl  Cl13  1  0.76314900  0.01314900  0.02629900  1
  Cl  Cl14  1  0.01314900  0.02629900  0.76314900  1
  Cl  Cl15  1  0.48685100  0.25000000  0.01314900  1
  Cl  Cl16  1  0.75000000  0.98685100  0.51314900  1
  Cl  Cl17  1  0.01314900  0.48685100  0.25000000  1
  Cl  Cl18  1  0.73685100  0.47370100  0.48685100  1
  Cl  Cl19  1  0.52629900  0.51314900  0.26314900  1
  Cl  Cl20  1  0.75000000  0.26314900  0.23685100  1
  Cl  Cl21  1  0.48685100  0.73685100  0.47370100  1
  Cl  Cl22  1  0.02629900  0.76314900  0.01314900  1
  Cl  Cl23  1  0.51314900  0.26314900  0.52629900  1
  O  O0  1  0.00000000  0.90309300  0.50000000  1
  O  O1  1  0.00000000  0.09690700  0.50000000  1
  O  O2  1  0.59690700  0.50000000  0.00000000  1
  O  O3  1  0.40309300  0.50000000  0.00000000  1
  O  O4  1  0.40309300  0.40309300  0.40309300  1
  O  O5  1  0.50000000  0.00000000  0.09690700  1
  O  O6  1  0.59690700  0.59690700  0.59690700  1
  O  O7  1  0.00000000  0.59690700  0.50000000  1
  O  O8  1  0.09690700  0.09690700  0.09690700  1
  O  O9  1  0.50000000  0.00000000  0.40309300  1
  O  O10  1  0.00000000  0.40309300  0.50000000  1
  O  O11  1  0.50000000  0.00000000  0.90309300  1
  O  O12  1  0.90309300  0.50000000  0.00000000  1
  O  O13  1  0.50000000  0.00000000  0.59690700  1
  O  O14  1  0.09690700  0.50000000  0.00000000  1
  O  O15  1  0.90309300  0.90309300  0.90309300  1
loop_
_geom_bond_atom_site_label_1
_geom_bond_atom_site_label_2
_geom_bond_distance
_geom_bond_site_symmetry_2
Hg0 O10 2.171573 1_555
Hg1 O4 2.171573 1_555
Hg2 O1 2.171573 1_555
Hg3 O2 2.171573 1_556
Hg4 O9 2.171573 1_555
Hg5 O13 2.171573 1_565
Hg6 O14 2.171573 1_555
Hg7 O13 2.171573 1_555
Hg8 O7 2.171573 1_555
Hg9 O4 2.171573 1_555
Hg10 O11 2.171573 1_555
Hg11 O8 2.171573 1_555
Hg12 O9 2.171573 1_555
Hg13 O8 2.171573 1_555
Hg14 O12 2.171573 1_556
Hg15 O2 2.171573 1_555
Hg16 O3 2.171573 1_555
Hg17 O7 2.171573 1_655
Hg18 O9 2.171573 1_565
Hg19 O0 2.171573 1_655
Hg20 O13 2.171573 1_565
Hg21 O2 2.171573 1_556
Hg22 O11 2.171573 1_565
Hg23 O8 2.171573 1_555
Hg24 O6 2.171573 1_555
Hg25 O6 2.171573 1_555
Hg26 O10 2.171573 1_655
Hg27 O3 2.171573 1_556
Hg28 O10 2.171573 1_555
Hg29 O15 2.171573 1_555
Hg30 O3 2.171573 1_555
Hg31 O1 2.171573 1_555
Hg32 O15 2.171573 1_555
Hg33 O5 2.171573 1_565
Hg34 O12 2.171573 1_556
Hg35 O15 2.171573 1_555
Hg36 O0 2.171573 1_655
Hg37 O12 2.171573 1_555
Hg38 O5 2.171573 1_555
Hg39 O14 2.171573 1_556
Hg40 O0 2.171573 1_555
Hg41 O5 2.171573 1_555
Hg42 O11 2.171573 1_565
Hg43 O1 2.171573 1_655
Hg44 O4 2.171573 1_555
Hg45 O7 2.171573 1_655
Hg46 O14 2.171573 1_555
Hg47 O6 2.171573 1_555
Cl0 Hg34 3.041561 1_555
Cl0 Hg17 3.041561 1_555
Cl0 Hg26 3.060950 1_555
Cl0 Hg6 3.060950 1_656
Cl1 Hg27 3.041548 1_555
Cl1 Hg1 3.041560 1_555
Cl1 Hg24 3.060950 1_555
Cl1 Hg21 3.060954 1_555
Cl2 Hg5 3.041561 1_555
Cl2 Hg37 3.041561 1_455
Cl2 Hg46 3.060950 1_555
Cl2 Hg12 3.060950 1_565
Cl3 Hg12 3.041561 1_555
Cl3 Hg31 3.041561 1_555
Cl3 Hg7 3.060950 1_555
Cl3 Hg19 3.060950 1_445
Cl4 Hg21 3.041561 1_555
Cl4 Hg40 3.041561 1_545
Cl4 Hg30 3.060950 1_556
Cl4 Hg31 3.060950 1_555
Cl5 Hg14 3.041548 1_555
Cl5 Hg32 3.041560 1_545
Cl5 Hg11 3.060950 1_656
Cl5 Hg39 3.060954 1_655
Cl6 Hg39 3.041561 1_655
Cl6 Hg4 3.041561 1_555
Cl6 Hg34 3.060950 1_555
Cl6 Hg20 3.060950 1_545
Cl7 Hg22 3.041548 1_555
Cl7 Hg29 3.041560 1_455
Cl7 Hg23 3.060950 1_566
Cl7 Hg33 3.060954 1_556
Cl8 Hg3 3.041561 1_555
Cl8 Hg42 3.041561 1_555
Cl8 Hg41 3.060950 1_566
Cl8 Hg27 3.060950 1_555
Cl9 Hg0 3.041561 1_555
Cl9 Hg33 3.041561 1_556
Cl9 Hg17 3.060950 1_455
Cl9 Hg42 3.060950 1_555
Cl10 Hg19 3.041548 1_555
Cl10 Hg35 3.041560 1_554
Cl10 Hg13 3.060950 1_665
Cl10 Hg43 3.060954 1_565
Cl11 Hg43 3.041561 1_565
Cl11 Hg16 3.041561 1_555
Cl11 Hg3 3.060950 1_554
Cl11 Hg36 3.060950 1_555
Cl12 Hg8 3.041548 1_555
Cl12 Hg24 3.041560 1_555
Cl12 Hg9 3.060950 1_555
Cl12 Hg0 3.060954 1_555
Cl13 Hg41 3.041548 1_555
Cl13 Hg11 3.041560 1_655
Cl13 Hg35 3.060950 1_544
Cl13 Hg10 3.060954 1_554
Cl14 Hg2 3.041548 1_555
Cl14 Hg23 3.041560 1_556
Cl14 Hg32 3.060950 1_445
Cl14 Hg40 3.060954 1_545
Cl15 Hg30 3.041561 1_555
Cl15 Hg38 3.041561 1_555
Cl15 Hg15 3.060950 1_555
Cl15 Hg22 3.060950 1_544
Cl16 Hg36 3.041561 1_555
Cl16 Hg20 3.041561 1_555
Cl16 Hg18 3.060950 1_555
Cl16 Hg2 3.060950 1_665
Cl17 Hg28 3.041561 1_555
Cl17 Hg46 3.041561 1_555
Cl17 Hg14 3.060950 1_454
Cl17 Hg8 3.060950 1_555
Cl18 Hg26 3.041548 1_555
Cl18 Hg44 3.041560 1_555
Cl18 Hg25 3.060950 1_555
Cl18 Hg45 3.060954 1_555
Cl19 Hg15 3.041548 1_555
Cl19 Hg47 3.041560 1_555
Cl19 Hg44 3.060950 1_555
Cl19 Hg16 3.060954 1_555
Cl20 Hg45 3.041561 1_555
Cl20 Hg10 3.041561 1_554
Cl20 Hg38 3.060950 1_555
Cl20 Hg28 3.060950 1_655
Cl21 Hg18 3.041548 1_555
Cl21 Hg9 3.041560 1_555
Cl21 Hg47 3.060950 1_555
Cl21 Hg5 3.060954 1_555
Cl22 Hg6 3.041548 1_555
Cl22 Hg13 3.041560 1_565
Cl22 Hg29 3.060950 1_454
Cl22 Hg37 3.060954 1_455
Cl23 Hg7 3.041548 1_555
Cl23 Hg25 3.041560 1_555
Cl23 Hg1 3.060950 1_555
Cl23 Hg4 3.060954 1_555
