# generated using pymatgen
data_K6Ge2O7
_symmetry_space_group_name_H-M   'P 1'
_cell_length_a   9.20850100
_cell_length_b   6.62786000
_cell_length_c   11.34519855
_cell_angle_alpha   55.94800702
_cell_angle_beta   90.00000000
_cell_angle_gamma   90.00000000
_symmetry_Int_Tables_number   1
_chemical_formula_structural   K6Ge2O7
_chemical_formula_sum   'K12 Ge4 O14'
_cell_volume   573.69689073
_cell_formula_units_Z   2
loop_
 _symmetry_equiv_pos_site_id
 _symmetry_equiv_pos_as_xyz
  1  'x, y, z'
loop_
 _atom_site_type_symbol
 _atom_site_label
 _atom_site_symmetry_multiplicity
 _atom_site_fract_x
 _atom_site_fract_y
 _atom_site_fract_z
 _atom_site_occupancy
  K  K0  1  0.54079600  0.40371400  0.21862500  1
  K  K1  1  0.03961800  0.59919800  0.27440000  1
  K  K2  1  0.89785900  0.95317200  0.92081500  1
  K  K3  1  0.10214100  0.95317200  0.42081500  1
  K  K4  1  0.72240700  0.79117600  0.45595200  1
  K  K5  1  0.27759300  0.79117600  0.95595200  1
  K  K6  1  0.77836700  0.21021200  0.53692500  1
  K  K7  1  0.22163300  0.21021200  0.03692500  1
  K  K8  1  0.59988900  0.05077700  0.07092100  1
  K  K9  1  0.40011100  0.05077700  0.57092100  1
  K  K10  1  0.96038200  0.59919800  0.77440000  1
  K  K11  1  0.45920400  0.40371400  0.71862500  1
  Ge  Ge0  1  0.39395100  0.68857400  0.36608500  1
  Ge  Ge1  1  0.89245800  0.31577500  0.12651200  1
  Ge  Ge2  1  0.10754200  0.31577500  0.62651200  1
  Ge  Ge3  1  0.60604900  0.68857400  0.86608500  1
  O  O0  1  0.66504800  0.75441700  0.69973100  1
  O  O1  1  0.54660200  0.49199200  0.43073600  1
  O  O2  1  0.74757200  0.50880400  0.00054300  1
  O  O3  1  0.25242800  0.50880400  0.50054300  1
  O  O4  1  0.04615800  0.50995800  0.06010700  1
  O  O5  1  0.95384200  0.50995800  0.56010700  1
  O  O6  1  0.90981400  0.05713100  0.11857600  1
  O  O7  1  0.09018600  0.05713100  0.61857600  1
  O  O8  1  0.84082200  0.24212400  0.29632400  1
  O  O9  1  0.15917800  0.24212400  0.79632400  1
  O  O10  1  0.45339800  0.49199200  0.93073600  1
  O  O11  1  0.41813800  0.95277700  0.36734700  1
  O  O12  1  0.33495200  0.75441700  0.19973100  1
  O  O13  1  0.58186200  0.95277700  0.86734700  1
loop_
_geom_bond_atom_site_label_1
_geom_bond_atom_site_label_2
_geom_bond_distance
_geom_bond_site_symmetry_2
K0 O11 2.721736 1_545
K0 O1 2.777220 1_555
K0 O2 2.881385 1_555
K0 O12 2.912700 1_555
K0 O8 2.915445 1_555
K0 O10 3.085079 1_554
K1 O6 2.785148 1_465
K1 O4 2.806165 1_555
K1 O12 2.862891 1_555
K1 O8 2.890458 1_455
K1 O3 3.010034 1_555
K1 O5 3.055057 1_455
K2 O6 2.692963 1_566
K2 O4 2.791545 1_656
K2 O9 2.902398 1_665
K2 O2 2.902454 1_556
K2 O13 2.972715 1_555
K3 O7 2.692963 1_565
K3 O5 2.791545 1_455
K3 O8 2.902398 1_465
K3 O3 2.902454 1_555
K3 O11 2.972715 1_555
K4 O5 2.635471 1_555
K4 O0 2.689414 1_555
K4 O1 2.696306 1_555
K4 O8 2.709263 1_565
K4 O11 2.966877 1_555
K5 O4 2.635471 1_556
K5 O12 2.689414 1_556
K5 O10 2.696306 1_555
K5 O9 2.709263 1_565
K5 O13 2.966877 1_555
K6 O1 2.640918 1_555
K6 O8 2.679554 1_555
K6 O5 2.685555 1_555
K6 O0 2.716210 1_545
K6 O7 3.013276 1_655
K7 O10 2.640918 1_554
K7 O9 2.679554 1_554
K7 O4 2.685555 1_555
K7 O12 2.716210 1_545
K7 O6 3.013276 1_455
K8 O13 2.731966 1_544
K8 O10 2.773491 1_554
K8 O6 2.909395 1_555
K8 O12 2.954862 1_545
K8 O2 2.998029 1_555
K9 O11 2.731966 1_545
K9 O1 2.773491 1_555
K9 O7 2.909395 1_555
K9 O0 2.954862 1_545
K9 O3 2.998029 1_555
K10 O7 2.785148 1_665
K10 O5 2.806165 1_555
K10 O0 2.862891 1_555
K10 O9 2.890458 1_655
K10 O2 3.010034 1_556
K10 O4 3.055057 1_656
K11 O13 2.721736 1_545
K11 O10 2.777220 1_555
K11 O3 2.881385 1_555
K11 O0 2.912700 1_555
K11 O9 2.915445 1_555
K11 O1 3.085079 1_555
Ge0 O12 1.767828 1_555
Ge0 O1 1.772373 1_555
Ge0 O11 1.773201 1_555
Ge0 O3 1.846498 1_555
Ge1 O8 1.767140 1_555
Ge1 O4 1.772383 1_655
Ge1 O6 1.773463 1_555
Ge1 O2 1.847071 1_555
Ge2 O9 1.767140 1_555
Ge2 O5 1.772383 1_455
Ge2 O7 1.773463 1_555
Ge2 O3 1.847071 1_555
Ge3 O0 1.767828 1_555
Ge3 O10 1.772373 1_555
Ge3 O13 1.773201 1_555
Ge3 O2 1.846498 1_556
