# generated using pymatgen
data_RbV(PO4)2
_symmetry_space_group_name_H-M   'P 1'
_cell_length_a   9.16337000
_cell_length_b   4.76137700
_cell_length_c   16.79611905
_cell_angle_alpha   86.97258322
_cell_angle_beta   90.00000000
_cell_angle_gamma   90.00000000
_symmetry_Int_Tables_number   1
_chemical_formula_structural   RbV(PO4)2
_chemical_formula_sum   'Rb4 V4 P8 O32'
_cell_volume   731.79628796
_cell_formula_units_Z   4
loop_
 _symmetry_equiv_pos_site_id
 _symmetry_equiv_pos_as_xyz
  1  'x, y, z'
loop_
 _atom_site_type_symbol
 _atom_site_label
 _atom_site_symmetry_multiplicity
 _atom_site_fract_x
 _atom_site_fract_y
 _atom_site_fract_z
 _atom_site_occupancy
  Rb  Rb0  1  0.35302800  0.60871600  0.08564600  1
  Rb  Rb1  1  0.85302800  0.39128400  0.41435400  1
  Rb  Rb2  1  0.64697200  0.39128400  0.91435400  1
  Rb  Rb3  1  0.14697200  0.60871600  0.58564600  1
  V  V0  1  0.43199000  0.59436300  0.33665700  1
  V  V1  1  0.06801000  0.59436300  0.83665700  1
  V  V2  1  0.93199000  0.40563700  0.16334300  1
  V  V3  1  0.56801000  0.40563700  0.66334300  1
  P  P0  1  0.78046900  0.92159100  0.59864500  1
  P  P1  1  0.10850300  0.85820500  0.25642300  1
  P  P2  1  0.60850300  0.14179500  0.24357700  1
  P  P3  1  0.28046900  0.07840900  0.90135500  1
  P  P4  1  0.89149700  0.14179500  0.74357700  1
  P  P5  1  0.71953100  0.92159100  0.09864500  1
  P  P6  1  0.39149700  0.85820500  0.75642300  1
  P  P7  1  0.21953100  0.07840900  0.40135500  1
  O  O0  1  0.44042700  0.10229300  0.69908700  1
  O  O1  1  0.66399800  0.15665300  0.59219200  1
  O  O2  1  0.49900500  0.39037500  0.24542200  1
  O  O3  1  0.76717000  0.21476000  0.25590200  1
  O  O4  1  0.96047000  0.44871900  0.90285200  1
  O  O5  1  0.72599400  0.66396300  0.65037900  1
  O  O6  1  0.58670100  0.04362500  0.15292200  1
  O  O7  1  0.34660700  0.14631200  0.97918200  1
  O  O8  1  0.03953000  0.55128100  0.09714800  1
  O  O9  1  0.33600200  0.84334700  0.40780800  1
  O  O10  1  0.84660700  0.85368800  0.52081800  1
  O  O11  1  0.16399800  0.84334700  0.90780800  1
  O  O12  1  0.46047000  0.55128100  0.59714800  1
  O  O13  1  0.53953000  0.44871900  0.40285200  1
  O  O14  1  0.05957300  0.10229300  0.19908700  1
  O  O15  1  0.91329900  0.04362500  0.65292200  1
  O  O16  1  0.77400600  0.66396300  0.15037900  1
  O  O17  1  0.00099500  0.39037500  0.74542200  1
  O  O18  1  0.23283000  0.78524000  0.74409800  1
  O  O19  1  0.15339300  0.14631200  0.47918200  1
  O  O20  1  0.27400600  0.33603700  0.34962100  1
  O  O21  1  0.26717000  0.78524000  0.24409800  1
  O  O22  1  0.94042700  0.89770700  0.80091300  1
  O  O23  1  0.22599400  0.33603700  0.84962100  1
  O  O24  1  0.08670100  0.95637500  0.34707800  1
  O  O25  1  0.99900500  0.60962500  0.25457800  1
  O  O26  1  0.65339300  0.85368800  0.02081800  1
  O  O27  1  0.83600200  0.15665300  0.09219200  1
  O  O28  1  0.41329900  0.95637500  0.84707800  1
  O  O29  1  0.55957300  0.89770700  0.30091300  1
  O  O30  1  0.73283000  0.21476000  0.75590200  1
  O  O31  1  0.50099500  0.60962500  0.75457800  1
loop_
_geom_bond_atom_site_label_1
_geom_bond_atom_site_label_2
_geom_bond_distance
_geom_bond_site_symmetry_2
O0 P6 1.536528 1_545
O0 V3 1.929175 1_555
O1 P0 1.546171 1_545
O1 V3 1.938271 1_555
O2 P2 1.553208 1_555
O2 V0 1.955989 1_555
O2 Rb0 3.126846 1_555
O3 P2 1.511636 1_555
O3 V2 2.318329 1_555
O3 Rb1 2.940174 1_555
O4 V1 1.614518 1_655
O4 Rb2 2.891180 1_555
O5 P0 1.548009 1_555
O5 V3 1.904660 1_555
O6 P2 1.628510 1_555
O6 P5 1.645043 1_545
O6 Rb0 3.224430 1_545
O7 P3 1.491715 1_555
O7 Rb0 2.909348 1_556
O7 Rb0 3.044606 1_546
O7 Rb2 3.160288 1_555
O8 V2 1.614518 1_455
O8 Rb0 2.891180 1_555
O9 P7 1.546171 1_565
O9 V0 1.938271 1_555
O10 P0 1.491715 1_555
O10 Rb1 2.909348 1_555
O10 Rb1 3.044606 1_565
O10 Rb3 3.160288 1_655
O11 P3 1.546171 1_565
O11 V1 1.938271 1_555
O12 V3 1.614518 1_555
O12 Rb3 2.891180 1_555
O13 V0 1.614518 1_555
O13 Rb1 2.891180 1_555
O14 P1 1.536528 1_545
O14 V2 1.929175 1_455
O15 P4 1.628510 1_555
O15 P0 1.645043 1_545
O15 Rb3 3.224430 1_645
O16 P5 1.548009 1_555
O16 V2 1.904660 1_555
O17 P4 1.553208 1_455
O17 V1 1.955989 1_555
O17 Rb3 3.126846 1_555
O18 P6 1.511636 1_555
O18 V1 2.318329 1_555
O18 Rb3 2.940174 1_555
O19 P7 1.491715 1_555
O19 Rb3 2.909348 1_555
O19 Rb3 3.044606 1_545
O19 Rb1 3.160288 1_455
O20 P7 1.548009 1_555
O20 V0 1.904660 1_555
O21 P1 1.511636 1_555
O21 V0 2.318329 1_555
O21 Rb0 2.940174 1_555
O22 P4 1.536528 1_565
O22 V1 1.929175 1_655
O23 P3 1.548009 1_555
O23 V1 1.904660 1_555
O24 P1 1.628510 1_555
O24 P7 1.645043 1_565
O24 Rb1 3.224430 1_465
O25 P1 1.553208 1_655
O25 V2 1.955989 1_555
O25 Rb1 3.126846 1_555
O26 P5 1.491715 1_555
O26 Rb2 2.909348 1_554
O26 Rb2 3.044606 1_564
O26 Rb0 3.160288 1_555
O27 P5 1.546171 1_545
O27 V2 1.938271 1_555
O28 P6 1.628510 1_555
O28 P3 1.645043 1_565
O28 Rb2 3.224430 1_565
O29 P2 1.536528 1_565
O29 V0 1.929175 1_555
O30 P4 1.511636 1_555
O30 V3 2.318329 1_555
O30 Rb2 2.940174 1_555
O31 P6 1.553208 1_555
O31 V3 1.955989 1_555
O31 Rb2 3.126846 1_555
