# generated using pymatgen
data_YMoO4F
_symmetry_space_group_name_H-M   'P 1'
_cell_length_a   12.46077200
_cell_length_b   5.27935300
_cell_length_c   6.74759890
_cell_angle_alpha   66.91570637
_cell_angle_beta   90.00000000
_cell_angle_gamma   90.00000000
_symmetry_Int_Tables_number   1
_chemical_formula_structural   YMoO4F
_chemical_formula_sum   'Y4 Mo4 O16 F4'
_cell_volume   408.34686561
_cell_formula_units_Z   4
loop_
 _symmetry_equiv_pos_site_id
 _symmetry_equiv_pos_as_xyz
  1  'x, y, z'
loop_
 _atom_site_type_symbol
 _atom_site_label
 _atom_site_symmetry_multiplicity
 _atom_site_fract_x
 _atom_site_fract_y
 _atom_site_fract_z
 _atom_site_occupancy
  Y  Y0  1  0.05146800  0.36099800  0.79998800  1
  Y  Y1  1  0.94853200  0.63900200  0.20001200  1
  Y  Y2  1  0.44853200  0.36099800  0.29998800  1
  Y  Y3  1  0.55146800  0.63900200  0.70001200  1
  Mo  Mo0  1  0.35663100  0.07833300  0.86994600  1
  Mo  Mo1  1  0.85663100  0.92166700  0.63005400  1
  Mo  Mo2  1  0.14336900  0.07833300  0.36994600  1
  Mo  Mo3  1  0.64336900  0.92166700  0.13005400  1
  O  O0  1  0.77716800  0.80760300  0.20512600  1
  O  O1  1  0.56901700  0.99656100  0.33692700  1
  O  O2  1  0.72283200  0.80760300  0.70512600  1
  O  O3  1  0.43462700  0.30795800  0.96199400  1
  O  O4  1  0.22283200  0.19239700  0.79487400  1
  O  O5  1  0.84691000  0.23791800  0.40751300  1
  O  O6  1  0.34691000  0.76208200  0.09248700  1
  O  O7  1  0.65309000  0.23791800  0.90751300  1
  O  O8  1  0.27716800  0.19239700  0.29487400  1
  O  O9  1  0.93098300  0.99656100  0.83692700  1
  O  O10  1  0.93462700  0.69204200  0.53800600  1
  O  O11  1  0.56537300  0.69204200  0.03800600  1
  O  O12  1  0.15309000  0.76208200  0.59248700  1
  O  O13  1  0.43098300  0.00343900  0.66307300  1
  O  O14  1  0.06901700  0.00343900  0.16307300  1
  O  O15  1  0.06537300  0.30795800  0.46199400  1
  F  F0  1  0.90212800  0.45527100  0.96346200  1
  F  F1  1  0.40212800  0.54472900  0.53653800  1
  F  F2  1  0.09787200  0.54472900  0.03653800  1
  F  F3  1  0.59787200  0.45527100  0.46346200  1
loop_
_geom_bond_atom_site_label_1
_geom_bond_atom_site_label_2
_geom_bond_distance
_geom_bond_site_symmetry_2
Mo0 O6 1.758153 1_546
Mo0 O4 1.777556 1_555
Mo0 O3 1.841298 1_555
Mo0 O13 1.842834 1_555
Mo1 O5 1.758153 1_565
Mo1 O2 1.777556 1_555
Mo1 O10 1.841298 1_555
Mo1 O9 1.842834 1_555
Mo2 O12 1.758153 1_545
Mo2 O8 1.777556 1_555
Mo2 O15 1.841298 1_555
Mo2 O14 1.842834 1_555
Mo3 O7 1.758153 1_564
Mo3 O0 1.777556 1_555
Mo3 O11 1.841298 1_555
Mo3 O1 1.842834 1_555
O0 Y1 2.318876 1_555
O1 Y2 2.375253 1_565
O1 Y3 2.446804 1_555
O2 Y3 2.318876 1_555
O3 Y2 2.410513 1_556
O3 Y3 2.424135 1_555
O4 Y0 2.318876 1_555
O5 Y1 2.392208 1_555
O6 Y2 2.392208 1_555
O7 Y3 2.392208 1_555
O8 Y2 2.318876 1_555
O9 Y0 2.375253 1_665
O9 Y1 2.446804 1_556
O10 Y1 2.410513 1_555
O10 Y0 2.424135 1_655
O11 Y3 2.410513 1_554
O11 Y2 2.424135 1_555
O12 Y0 2.392208 1_555
O13 Y3 2.375253 1_545
O13 Y2 2.446804 1_555
O14 Y1 2.375253 1_445
O14 Y0 2.446804 1_554
O15 Y0 2.410513 1_555
O15 Y1 2.424135 1_455
F0 Y1 2.244318 1_556
F0 Y0 2.314705 1_655
F1 Y2 2.244318 1_555
F1 Y3 2.314705 1_555
F2 Y0 2.244318 1_554
F2 Y1 2.314705 1_455
F3 Y3 2.244318 1_555
F3 Y2 2.314705 1_555
