# generated using pymatgen
data_Sn4P2O9
_symmetry_space_group_name_H-M   'P 1'
_cell_length_a   9.70138100
_cell_length_b   7.52412300
_cell_length_c   14.92559846
_cell_angle_alpha   69.34321205
_cell_angle_beta   90.00000000
_cell_angle_gamma   90.00000000
_symmetry_Int_Tables_number   1
_chemical_formula_structural   Sn4P2O9
_chemical_formula_sum   'Sn16 P8 O36'
_cell_volume   1019.44226653
_cell_formula_units_Z   4
loop_
 _symmetry_equiv_pos_site_id
 _symmetry_equiv_pos_as_xyz
  1  'x, y, z'
loop_
 _atom_site_type_symbol
 _atom_site_label
 _atom_site_symmetry_multiplicity
 _atom_site_fract_x
 _atom_site_fract_y
 _atom_site_fract_z
 _atom_site_occupancy
  Sn  Sn0  1  0.97999500  0.34699200  0.38253000  1
  Sn  Sn1  1  0.83785900  0.64359100  0.90589100  1
  Sn  Sn2  1  0.12065600  0.83229600  0.17181300  1
  Sn  Sn3  1  0.16214100  0.35640900  0.09410900  1
  Sn  Sn4  1  0.52000500  0.34699200  0.88253000  1
  Sn  Sn5  1  0.47999500  0.65300800  0.11747000  1
  Sn  Sn6  1  0.33785900  0.35640900  0.59410900  1
  Sn  Sn7  1  0.17923200  0.90067300  0.89645200  1
  Sn  Sn8  1  0.87934400  0.16770400  0.82818700  1
  Sn  Sn9  1  0.82076800  0.09932700  0.10354800  1
  Sn  Sn10  1  0.37934400  0.83229600  0.67181300  1
  Sn  Sn11  1  0.62065600  0.16770400  0.32818700  1
  Sn  Sn12  1  0.66214100  0.64359100  0.40589100  1
  Sn  Sn13  1  0.67923200  0.09932700  0.60354800  1
  Sn  Sn14  1  0.02000500  0.65300800  0.61747000  1
  Sn  Sn15  1  0.32076800  0.90067300  0.39645200  1
  P  P0  1  0.57337800  0.92632000  0.84024200  1
  P  P1  1  0.07337800  0.07368000  0.65975800  1
  P  P2  1  0.92662200  0.92632000  0.34024200  1
  P  P3  1  0.33856900  0.40825600  0.35269300  1
  P  P4  1  0.42662200  0.07368000  0.15975800  1
  P  P5  1  0.16143100  0.40825600  0.85269300  1
  P  P6  1  0.66143100  0.59174400  0.64730700  1
  P  P7  1  0.83856900  0.59174400  0.14730700  1
  O  O0  1  0.47660900  0.79506300  0.80822000  1
  O  O1  1  0.02339100  0.79506300  0.30822000  1
  O  O2  1  0.97660900  0.20493700  0.69178000  1
  O  O3  1  0.18381700  0.42539900  0.32863800  1
  O  O4  1  0.68381700  0.57460100  0.17136200  1
  O  O5  1  0.68692800  0.01838900  0.76067500  1
  O  O6  1  0.11140000  0.19777800  0.87612800  1
  O  O7  1  0.88860000  0.80222200  0.12387200  1
  O  O8  1  0.81618300  0.57460100  0.67136200  1
  O  O9  1  0.01457600  0.07924500  0.36029600  1
  O  O10  1  0.37238800  0.47138700  0.43925700  1
  O  O11  1  0.62761200  0.52861300  0.56074300  1
  O  O12  1  0.87238800  0.52861300  0.06074300  1
  O  O13  1  0.51457600  0.92075500  0.13970400  1
  O  O14  1  0.98542400  0.92075500  0.63970400  1
  O  O15  1  0.65580500  0.80728800  0.93096200  1
  O  O16  1  0.42405700  0.53740200  0.26789400  1
  O  O17  1  0.07594300  0.53740200  0.76789400  1
  O  O18  1  0.12761200  0.47138700  0.93925700  1
  O  O19  1  0.31307200  0.98161100  0.23932500  1
  O  O20  1  0.81307200  0.01838900  0.26067500  1
  O  O21  1  0.18692800  0.98161100  0.73932500  1
  O  O22  1  0.31618300  0.42539900  0.82863800  1
  O  O23  1  0.34419500  0.19271200  0.06903800  1
  O  O24  1  0.15580500  0.19271200  0.56903800  1
  O  O25  1  0.53898700  0.88604200  0.38597800  1
  O  O26  1  0.52339100  0.20493700  0.19178000  1
  O  O27  1  0.84419500  0.80728800  0.43096200  1
  O  O28  1  0.57594300  0.46259800  0.73210600  1
  O  O29  1  0.96101300  0.88604200  0.88597800  1
  O  O30  1  0.92405700  0.46259800  0.23210600  1
  O  O31  1  0.38860000  0.19777800  0.37612800  1
  O  O32  1  0.48542400  0.07924500  0.86029600  1
  O  O33  1  0.61140000  0.80222200  0.62387200  1
  O  O34  1  0.03898700  0.11395800  0.11402200  1
  O  O35  1  0.46101300  0.11395800  0.61402200  1
loop_
_geom_bond_atom_site_label_1
_geom_bond_atom_site_label_2
_geom_bond_distance
_geom_bond_site_symmetry_2
O0 P0 1.555035 1_555
O0 Sn10 2.170616 1_555
O1 P2 1.555035 1_455
O1 Sn2 2.170616 1_555
O2 P1 1.555035 1_655
O2 Sn8 2.170616 1_555
O3 P3 1.538439 1_555
O3 Sn0 2.137797 1_455
O4 P7 1.538439 1_555
O4 Sn5 2.137797 1_555
O5 P0 1.588494 1_545
O5 Sn13 2.206540 1_555
O5 Sn8 2.561412 1_555
O6 P5 1.573243 1_555
O6 Sn7 2.245860 1_545
O6 Sn8 2.397006 1_455
O7 P7 1.573243 1_555
O7 Sn9 2.245860 1_565
O7 Sn2 2.397006 1_655
O8 P6 1.538439 1_555
O8 Sn14 2.137797 1_655
O9 P2 1.544215 1_445
O9 Sn0 2.180096 1_455
O10 P3 1.560637 1_555
O10 Sn6 2.189024 1_555
O11 P6 1.560637 1_555
O11 Sn12 2.189024 1_555
O12 P7 1.560637 1_555
O12 Sn1 2.189024 1_554
O13 P4 1.544215 1_565
O13 Sn5 2.180096 1_555
O14 P1 1.544215 1_665
O14 Sn14 2.180096 1_655
O15 P0 1.555446 1_555
O15 Sn1 2.258673 1_555
O16 P3 1.538265 1_555
O16 Sn5 2.171181 1_555
O17 P5 1.538265 1_555
O17 Sn14 2.171181 1_555
O18 P5 1.560637 1_555
O18 Sn3 2.189024 1_556
O19 P4 1.588494 1_565
O19 Sn15 2.206540 1_555
O19 Sn2 2.561412 1_555
O20 P2 1.588494 1_545
O20 Sn9 2.206540 1_555
O20 Sn11 2.561412 1_555
O21 P1 1.588494 1_565
O21 Sn7 2.206540 1_555
O21 Sn10 2.561412 1_555
O22 P5 1.538439 1_555
O22 Sn4 2.137797 1_555
O23 P4 1.555446 1_555
O23 Sn3 2.258673 1_555
O24 P1 1.555446 1_555
O24 Sn6 2.258673 1_555
O25 Sn12 2.112128 1_555
O25 Sn15 2.128497 1_555
O25 Sn11 2.138527 1_565
O26 P4 1.555035 1_555
O26 Sn11 2.170616 1_555
O27 P2 1.555446 1_555
O27 Sn12 2.258673 1_555
O28 P6 1.538265 1_555
O28 Sn4 2.171181 1_555
O29 Sn1 2.112128 1_555
O29 Sn7 2.128497 1_655
O29 Sn8 2.138527 1_565
O30 P7 1.538265 1_555
O30 Sn0 2.171181 1_555
O31 P3 1.573243 1_555
O31 Sn15 2.245860 1_545
O31 Sn11 2.397006 1_555
O32 P0 1.544215 1_545
O32 Sn4 2.180096 1_555
O33 P6 1.573243 1_555
O33 Sn13 2.245860 1_565
O33 Sn10 2.397006 1_555
O34 Sn3 2.112128 1_555
O34 Sn9 2.128497 1_455
O34 Sn2 2.138527 1_545
O35 Sn6 2.112128 1_555
O35 Sn13 2.128497 1_555
O35 Sn10 2.138527 1_545
