# generated using pymatgen
data_Ba3CaSb2O9
_symmetry_space_group_name_H-M   'P 1'
_cell_length_a   6.08641256
_cell_length_b   6.08641256
_cell_length_c   15.07466047
_cell_angle_alpha   88.96710058
_cell_angle_beta   88.96710058
_cell_angle_gamma   119.80366142
_symmetry_Int_Tables_number   1
_chemical_formula_structural   Ba3CaSb2O9
_chemical_formula_sum   'Ba6 Ca2 Sb4 O18'
_cell_volume   484.25711162
_cell_formula_units_Z   2
loop_
 _symmetry_equiv_pos_site_id
 _symmetry_equiv_pos_as_xyz
  1  'x, y, z'
loop_
 _atom_site_type_symbol
 _atom_site_label
 _atom_site_symmetry_multiplicity
 _atom_site_fract_x
 _atom_site_fract_y
 _atom_site_fract_z
 _atom_site_occupancy
  Ba  Ba0  1  0.00999300  0.99000700  0.25000000  1
  Ba  Ba1  1  0.33942400  0.67699000  0.91012400  1
  Ba  Ba2  1  0.32301000  0.66057600  0.58987600  1
  Ba  Ba3  1  0.67699000  0.33942400  0.41012400  1
  Ba  Ba4  1  0.66057600  0.32301000  0.08987600  1
  Ba  Ba5  1  0.99000700  0.00999300  0.75000000  1
  Ca  Ca0  1  0.00000000  0.00000000  0.00000000  1
  Ca  Ca1  1  0.00000000  0.00000000  0.50000000  1
  Sb  Sb0  1  0.31655300  0.64246400  0.15457500  1
  Sb  Sb1  1  0.64246400  0.31655300  0.65457500  1
  Sb  Sb2  1  0.35753600  0.68344700  0.34542500  1
  Sb  Sb3  1  0.68344700  0.35753600  0.84542500  1
  O  O0  1  0.95145600  0.47917400  0.73642200  1
  O  O1  1  0.13697300  0.78080700  0.08771400  1
  O  O2  1  0.78080700  0.13697300  0.58771400  1
  O  O3  1  0.86857300  0.69499600  0.89505600  1
  O  O4  1  0.04854400  0.52082600  0.26357800  1
  O  O5  1  0.13142700  0.30500400  0.10494400  1
  O  O6  1  0.47917400  0.95145600  0.23642200  1
  O  O7  1  0.22677200  0.39049500  0.42780100  1
  O  O8  1  0.51707200  0.48292800  0.75000000  1
  O  O9  1  0.60950500  0.77322800  0.07219900  1
  O  O10  1  0.69499600  0.86857300  0.39505600  1
  O  O11  1  0.86302700  0.21919300  0.91228600  1
  O  O12  1  0.52082600  0.04854400  0.76357800  1
  O  O13  1  0.39049500  0.22677200  0.92780100  1
  O  O14  1  0.77322800  0.60950500  0.57219900  1
  O  O15  1  0.30500400  0.13142700  0.60494400  1
  O  O16  1  0.21919300  0.86302700  0.41228600  1
  O  O17  1  0.48292800  0.51707200  0.25000000  1
loop_
_geom_bond_atom_site_label_1
_geom_bond_atom_site_label_2
_geom_bond_distance
_geom_bond_site_symmetry_2
Ba0 O10 2.717620 1_455
Ba0 O5 2.717620 1_565
Ba0 O4 2.982999 1_555
Ba0 O6 2.982999 1_555
Ba0 O16 3.037398 1_555
Ba0 O1 3.037398 1_555
Ba0 O17 3.065513 1_565
Ba0 O17 3.065513 1_455
Ba0 O6 3.131601 1_455
Ba0 O4 3.131601 1_565
Ba1 O11 2.852075 1_455
Ba1 O9 2.872953 1_556
Ba1 O12 2.909176 1_565
Ba1 O13 2.915435 1_555
Ba1 O3 2.934476 1_455
Ba1 O8 3.109482 1_555
Ba1 O1 3.130578 1_556
Ba1 O3 3.171414 1_555
Ba1 O13 3.219607 1_565
Ba1 O11 3.255896 1_565
Ba1 O0 3.375274 1_455
Ba1 O5 3.482921 1_556
Ba2 O2 2.852075 1_565
Ba2 O7 2.872953 1_555
Ba2 O0 2.909176 1_455
Ba2 O14 2.915435 1_555
Ba2 O15 2.934476 1_565
Ba2 O8 3.109482 1_555
Ba2 O16 3.130578 1_555
Ba2 O15 3.171414 1_555
Ba2 O14 3.219607 1_455
Ba2 O2 3.255896 1_455
Ba2 O12 3.375274 1_565
Ba2 O10 3.482921 1_555
Ba3 O16 2.852075 1_545
Ba3 O14 2.872953 1_555
Ba3 O4 2.909176 1_655
Ba3 O7 2.915435 1_555
Ba3 O10 2.934476 1_545
Ba3 O17 3.109482 1_555
Ba3 O2 3.130578 1_555
Ba3 O10 3.171414 1_555
Ba3 O7 3.219607 1_655
Ba3 O16 3.255896 1_655
Ba3 O6 3.375274 1_545
Ba3 O15 3.482921 1_555
Ba4 O1 2.852075 1_655
Ba4 O13 2.872953 1_554
Ba4 O6 2.909176 1_545
Ba4 O9 2.915435 1_555
Ba4 O5 2.934476 1_655
Ba4 O17 3.109482 1_555
Ba4 O11 3.130578 1_554
Ba4 O5 3.171414 1_555
Ba4 O9 3.219607 1_545
Ba4 O1 3.255896 1_545
Ba4 O4 3.375274 1_655
Ba4 O3 3.482921 1_554
Ba5 O3 2.717620 1_545
Ba5 O15 2.717620 1_655
Ba5 O12 2.982999 1_555
Ba5 O0 2.982999 1_555
Ba5 O11 3.037398 1_555
Ba5 O2 3.037398 1_555
Ba5 O8 3.065513 1_655
Ba5 O8 3.065513 1_545
Ba5 O12 3.131601 1_655
Ba5 O0 3.131601 1_545
Ca0 O5 2.294362 1_555
Ca0 O3 2.294362 1_444
Ca0 O1 2.303246 1_545
Ca0 O11 2.303246 1_454
Ca0 O13 2.308684 1_554
Ca0 O9 2.308684 1_445
Ca1 O15 2.294362 1_555
Ca1 O10 2.294362 1_445
Ca1 O2 2.303246 1_455
Ca1 O16 2.303246 1_545
Ca1 O7 2.308684 1_555
Ca1 O14 2.308684 1_445
O0 Sb1 2.077530 1_555
O0 Sb3 2.137297 1_555
O1 Sb0 1.960479 1_555
O2 Sb1 1.960479 1_555
O3 Sb3 1.957857 1_555
O4 Sb2 2.077530 1_555
O4 Sb0 2.137297 1_555
O5 Sb0 1.957857 1_555
O6 Sb0 2.077530 1_555
O6 Sb2 2.137297 1_555
O7 Sb2 1.956668 1_555
O8 Sb1 2.111473 1_555
O8 Sb3 2.111473 1_555
O9 Sb0 1.956668 1_555
O10 Sb2 1.957857 1_555
O11 Sb3 1.960479 1_555
O12 Sb3 2.077530 1_555
O12 Sb1 2.137297 1_555
O13 Sb3 1.956668 1_555
O14 Sb1 1.956668 1_555
O15 Sb1 1.957857 1_555
O16 Sb2 1.960479 1_555
O17 Sb0 2.111473 1_555
O17 Sb2 2.111473 1_555
