# generated using pymatgen
data_Y2Te5O13
_symmetry_space_group_name_H-M   'P 1'
_cell_length_a   6.96811409
_cell_length_b   8.65744284
_cell_length_c   10.57526952
_cell_angle_alpha   88.93393249
_cell_angle_beta   93.10387853
_cell_angle_gamma   104.99895067
_symmetry_Int_Tables_number   1
_chemical_formula_structural   Y2Te5O13
_chemical_formula_sum   'Y4 Te10 O26'
_cell_volume   615.31817347
_cell_formula_units_Z   2
loop_
 _symmetry_equiv_pos_site_id
 _symmetry_equiv_pos_as_xyz
  1  'x, y, z'
loop_
 _atom_site_type_symbol
 _atom_site_label
 _atom_site_symmetry_multiplicity
 _atom_site_fract_x
 _atom_site_fract_y
 _atom_site_fract_z
 _atom_site_occupancy
  Y  Y0  1  0.99825753  0.26156642  0.76187350  1
  Y  Y1  1  0.00174247  0.73843358  0.23812650  1
  Y  Y2  1  0.55286331  0.47284384  0.82115432  1
  Y  Y3  1  0.44713669  0.52715616  0.17884568  1
  Te  Te0  1  0.27361102  0.60535683  0.51532763  1
  Te  Te1  1  0.29246016  0.12131217  0.02637456  1
  Te  Te2  1  0.84601443  0.80381179  0.63896569  1
  Te  Te3  1  0.43617462  0.09836170  0.69730548  1
  Te  Te4  1  0.15398557  0.19618821  0.36103431  1
  Te  Te5  1  0.12209465  0.65058864  0.89262910  1
  Te  Te6  1  0.56382538  0.90163830  0.30269452  1
  Te  Te7  1  0.87790535  0.34941136  0.10737090  1
  Te  Te8  1  0.70753984  0.87868783  0.97362544  1
  Te  Te9  1  0.72638898  0.39464317  0.48467237  1
  O  O0  1  0.45848050  0.80464046  0.47945311  1
  O  O1  1  0.31408866  0.26562843  0.71071756  1
  O  O2  1  0.04678449  0.64993898  0.43589030  1
  O  O3  1  0.95321551  0.35006102  0.56410970  1
  O  O4  1  0.32670941  0.25840141  0.22864168  1
  O  O5  1  0.12270998  0.50891996  0.10516447  1
  O  O6  1  0.76578084  0.49559964  0.18449200  1
  O  O7  1  0.06229835  0.73046920  0.72170994  1
  O  O8  1  0.65487250  0.97974416  0.12553349  1
  O  O9  1  0.23421916  0.50440036  0.81550800  1
  O  O10  1  0.33077600  0.77632417  0.22283579  1
  O  O11  1  0.67329059  0.74159859  0.77135832  1
  O  O12  1  0.46537111  0.32715518  0.00246107  1
  O  O13  1  0.53462889  0.67284482  0.99753893  1
  O  O14  1  0.68591134  0.73437157  0.28928244  1
  O  O15  1  0.66583803  0.51365705  0.61651734  1
  O  O16  1  0.93770165  0.26953080  0.27829006  1
  O  O17  1  0.87729002  0.49108004  0.89483553  1
  O  O18  1  0.05974528  0.98526724  0.30781790  1
  O  O19  1  0.33416197  0.48634295  0.38348266  1
  O  O20  1  0.06311382  0.18104458  0.96510547  1
  O  O21  1  0.93688618  0.81895542  0.03489453  1
  O  O22  1  0.66922400  0.22367583  0.77716421  1
  O  O23  1  0.54151950  0.19535954  0.52054689  1
  O  O24  1  0.94025472  0.01473276  0.69218210  1
  O  O25  1  0.34512750  0.02025584  0.87446651  1
loop_
_geom_bond_atom_site_label_1
_geom_bond_atom_site_label_2
_geom_bond_distance
_geom_bond_site_symmetry_2
O0 Te0 1.912637 1_555
O0 Te6 2.123514 1_555
O1 Te3 1.870608 1_555
O1 Y0 2.285904 1_455
O1 Y2 2.381830 1_555
O2 Te0 1.874232 1_555
O2 Y1 2.247933 1_555
O3 Te9 1.874232 1_555
O3 Y0 2.247933 1_555
O4 Te4 1.875577 1_555
O4 Y3 2.320950 1_555
O4 Te1 2.435893 1_555
O5 Te7 1.897683 1_455
O5 Y3 2.317685 1_555
O5 Te5 2.540705 1_554
O5 Y1 2.781197 1_555
O6 Te7 1.869921 1_555
O6 Y3 2.303728 1_555
O6 Y1 2.366240 1_655
O7 Te2 1.942170 1_455
O7 Te5 1.984958 1_555
O8 Te8 1.939894 1_554
O8 Te6 2.056542 1_555
O9 Te5 1.869921 1_555
O9 Y2 2.303728 1_555
O9 Y0 2.366240 1_455
O10 Te6 1.871097 1_555
O10 Y1 2.244841 1_555
O10 Y3 2.551602 1_555
O11 Te2 1.875577 1_555
O11 Y2 2.320950 1_555
O11 Te8 2.435893 1_555
O12 Te1 1.896389 1_555
O12 Y2 2.297264 1_554
O12 Y3 2.598720 1_555
O13 Te8 1.896389 1_555
O13 Y3 2.297264 1_556
O13 Y2 2.598720 1_555
O14 Te6 1.870608 1_555
O14 Y1 2.285904 1_655
O14 Y3 2.381830 1_555
O15 Te9 1.877738 1_555
O15 Y2 2.332363 1_555
O15 Te2 2.510030 1_555
O16 Te4 1.942170 1_655
O16 Te7 1.984958 1_555
O17 Te5 1.897683 1_655
O17 Y2 2.317685 1_555
O17 Te7 2.540705 1_556
O17 Y0 2.781197 1_555
O18 Te4 1.860082 1_565
O18 Y1 2.202811 1_555
O19 Te0 1.877738 1_555
O19 Y3 2.332363 1_555
O19 Te4 2.510030 1_555
O20 Te1 1.882649 1_556
O20 Y0 2.304677 1_455
O20 Te7 2.705413 1_456
O21 Te8 1.882649 1_554
O21 Y1 2.304677 1_655
O21 Te5 2.705413 1_654
O22 Te3 1.871097 1_555
O22 Y0 2.244841 1_555
O22 Y2 2.551602 1_555
O23 Te9 1.912637 1_555
O23 Te3 2.123514 1_555
O24 Te2 1.860082 1_545
O24 Y0 2.202811 1_555
O25 Te1 1.939894 1_556
O25 Te3 2.056542 1_555
