# generated using pymatgen
data_Ba4Ho(RuO4)3
_symmetry_space_group_name_H-M   'P 1'
_cell_length_a   10.39434138
_cell_length_b   10.39434167
_cell_length_c   10.39434200
_cell_angle_alpha   33.21631083
_cell_angle_beta   33.21630789
_cell_angle_gamma   33.21630783
_symmetry_Int_Tables_number   1
_chemical_formula_structural   Ba4Ho(RuO4)3
_chemical_formula_sum   'Ba4 Ho1 Ru3 O12'
_cell_volume   300.01138418
_cell_formula_units_Z   1
loop_
 _symmetry_equiv_pos_site_id
 _symmetry_equiv_pos_as_xyz
  1  'x, y, z'
loop_
 _atom_site_type_symbol
 _atom_site_label
 _atom_site_symmetry_multiplicity
 _atom_site_fract_x
 _atom_site_fract_y
 _atom_site_fract_z
 _atom_site_occupancy
  Ba  Ba0  1  0.71449900  0.71449900  0.71449900  1
  Ba  Ba1  1  0.28550100  0.28550100  0.28550100  1
  Ba  Ba2  1  0.12915300  0.12915300  0.12915300  1
  Ba  Ba3  1  0.87084700  0.87084700  0.87084700  1
  Ho  Ho0  1  0.00000000  0.00000000  0.00000000  1
  Ru  Ru0  1  0.41312500  0.41312500  0.41312500  1
  Ru  Ru1  1  0.50000000  0.50000000  0.50000000  1
  Ru  Ru2  1  0.58687500  0.58687500  0.58687500  1
  O  O0  1  0.21853000  0.21853000  0.69247400  1
  O  O1  1  0.61249500  0.14742400  0.61249500  1
  O  O2  1  0.85257600  0.38750500  0.38750500  1
  O  O3  1  0.61249500  0.61249500  0.14742400  1
  O  O4  1  0.38750500  0.38750500  0.85257600  1
  O  O5  1  0.78147000  0.78147000  0.30752600  1
  O  O6  1  0.69247400  0.21853000  0.21853000  1
  O  O7  1  0.21853000  0.69247400  0.21853000  1
  O  O8  1  0.78147000  0.30752600  0.78147000  1
  O  O9  1  0.38750500  0.85257600  0.38750500  1
  O  O10  1  0.14742400  0.61249500  0.61249500  1
  O  O11  1  0.30752600  0.78147000  0.78147000  1
loop_
_geom_bond_atom_site_label_1
_geom_bond_atom_site_label_2
_geom_bond_distance
_geom_bond_site_symmetry_2
Ba0 O10 2.900457 1_655
Ba0 O1 2.900458 1_565
Ba0 O3 2.900458 1_556
Ba0 O0 2.975460 1_655
Ba0 O0 2.975460 1_565
Ba0 O7 2.975460 1_655
Ba0 O7 2.975460 1_556
Ba0 O6 2.975461 1_556
Ba0 O6 2.975461 1_565
Ba0 O11 3.133743 1_555
Ba0 O8 3.133743 1_555
Ba0 O5 3.133743 1_555
Ba1 O2 2.900457 1_455
Ba1 O9 2.900458 1_545
Ba1 O4 2.900458 1_554
Ba1 O5 2.975460 1_455
Ba1 O5 2.975460 1_545
Ba1 O8 2.975460 1_455
Ba1 O8 2.975460 1_554
Ba1 O11 2.975461 1_554
Ba1 O11 2.975461 1_545
Ba1 O6 3.133743 1_555
Ba1 O7 3.133743 1_555
Ba1 O0 3.133743 1_555
Ba2 O3 2.977038 1_455
Ba2 O3 2.977038 1_545
Ba2 O1 2.977038 1_455
Ba2 O1 2.977038 1_554
Ba2 O10 2.977038 1_545
Ba2 O10 2.977038 1_554
Ba2 O4 2.986446 1_554
Ba2 O2 2.986446 1_455
Ba2 O9 2.986446 1_545
Ba2 O6 3.108290 1_455
Ba2 O7 3.108290 1_545
Ba2 O0 3.108290 1_554
Ba3 O4 2.977038 1_655
Ba3 O4 2.977038 1_565
Ba3 O9 2.977038 1_655
Ba3 O9 2.977038 1_556
Ba3 O2 2.977038 1_565
Ba3 O2 2.977038 1_556
Ba3 O3 2.986446 1_556
Ba3 O10 2.986446 1_655
Ba3 O1 2.986446 1_565
Ba3 O11 3.108290 1_655
Ba3 O8 3.108290 1_565
Ba3 O5 3.108290 1_556
Ho0 O6 2.207310 1_455
Ho0 O11 2.207310 1_544
Ho0 O0 2.207310 1_554
Ho0 O5 2.207310 1_445
Ho0 O7 2.207310 1_545
Ho0 O8 2.207310 1_454
O0 Ru0 1.950663 1_555
O1 Ru1 2.027966 1_555
O1 Ru0 2.061424 1_555
O2 Ru1 2.027966 1_555
O2 Ru2 2.061424 1_555
O3 Ru1 2.027966 1_555
O3 Ru0 2.061424 1_555
O4 Ru1 2.027966 1_555
O4 Ru2 2.061424 1_555
O5 Ru2 1.950663 1_555
O6 Ru0 1.950663 1_555
O7 Ru0 1.950664 1_555
O8 Ru2 1.950664 1_555
O9 Ru1 2.027966 1_555
O9 Ru2 2.061424 1_555
O10 Ru1 2.027966 1_555
O10 Ru0 2.061424 1_555
O11 Ru2 1.950663 1_555
