# generated using pymatgen
data_Er4Si3O11F2
_symmetry_space_group_name_H-M   'P 1'
_cell_length_a   6.49085700
_cell_length_b   6.62078056
_cell_length_c   13.28613717
_cell_angle_alpha   87.65828269
_cell_angle_beta   85.89311198
_cell_angle_gamma   60.85987891
_symmetry_Int_Tables_number   1
_chemical_formula_structural   Er4Si3O11F2
_chemical_formula_sum   'Er8 Si6 O22 F4'
_cell_volume   497.40703245
_cell_formula_units_Z   2
loop_
 _symmetry_equiv_pos_site_id
 _symmetry_equiv_pos_as_xyz
  1  'x, y, z'
loop_
 _atom_site_type_symbol
 _atom_site_label
 _atom_site_symmetry_multiplicity
 _atom_site_fract_x
 _atom_site_fract_y
 _atom_site_fract_z
 _atom_site_occupancy
  Er  Er0  1  0.78098000  0.78693400  0.47135200  1
  Er  Er1  1  0.82177300  0.30764500  0.32897200  1
  Er  Er2  1  0.93912300  0.27449800  0.02632500  1
  Er  Er3  1  0.06087700  0.72550200  0.97367500  1
  Er  Er4  1  0.67504600  0.62090300  0.79669500  1
  Er  Er5  1  0.17822700  0.69235500  0.67102800  1
  Er  Er6  1  0.21902000  0.21306600  0.52864800  1
  Er  Er7  1  0.32495400  0.37909700  0.20330500  1
  Si  Si0  1  0.49244000  0.25153400  0.93506100  1
  Si  Si1  1  0.23184400  0.15319300  0.78306800  1
  Si  Si2  1  0.50756000  0.74846600  0.06493900  1
  Si  Si3  1  0.76815600  0.84680700  0.21693200  1
  Si  Si4  1  0.73272200  0.26924600  0.57913600  1
  Si  Si5  1  0.26727800  0.73075400  0.42086400  1
  O  O0  1  0.79662600  0.67618100  0.31380800  1
  O  O1  1  0.73539900  0.66259600  0.97940400  1
  O  O2  1  0.01230500  0.93995700  0.38784700  1
  O  O3  1  0.98924200  0.28595600  0.85514600  1
  O  O4  1  0.40737000  0.84124700  0.47904200  1
  O  O5  1  0.20337400  0.32381900  0.68619200  1
  O  O6  1  0.53314700  0.90376000  0.15249300  1
  O  O7  1  0.98769500  0.06004300  0.61215300  1
  O  O8  1  0.46685300  0.09624000  0.84750700  1
  O  O9  1  0.42277900  0.54578000  0.33163800  1
  O  O10  1  0.01075800  0.71404400  0.14485400  1
  O  O11  1  0.68782800  0.11351000  0.24651600  1
  O  O12  1  0.26460100  0.33740400  0.02059600  1
  O  O13  1  0.82700800  0.40636200  0.49205500  1
  O  O14  1  0.17299200  0.59363800  0.50794500  1
  O  O15  1  0.31217200  0.88649000  0.75348400  1
  O  O16  1  0.59263000  0.15875300  0.52095800  1
  O  O17  1  0.24890100  0.90593100  0.01887700  1
  O  O18  1  0.55591400  0.49778900  0.11263300  1
  O  O19  1  0.57722100  0.45422000  0.66836200  1
  O  O20  1  0.44408600  0.50221100  0.88736700  1
  O  O21  1  0.75109900  0.09406900  0.98112300  1
  F  F0  1  0.03554100  0.26931200  0.18509300  1
  F  F1  1  0.79494100  0.74113900  0.64562500  1
  F  F2  1  0.96445900  0.73068800  0.81490700  1
  F  F3  1  0.20505900  0.25886100  0.35437500  1
loop_
_geom_bond_atom_site_label_1
_geom_bond_atom_site_label_2
_geom_bond_distance
_geom_bond_site_symmetry_2
Er0 O0 2.225250 1_555
Er0 O16 2.252838 1_565
Er0 O4 2.266904 1_555
Er0 O14 2.302959 1_655
Er0 F1 2.325342 1_555
Er0 O2 2.379679 1_655
Er0 O13 2.394938 1_555
Er1 O11 2.224393 1_555
Er1 F0 2.227250 1_655
Er1 O2 2.262401 1_645
Er1 O9 2.282323 1_555
Er1 O13 2.295866 1_555
Er1 O0 2.365899 1_555
Er1 F3 2.395088 1_655
Er2 O21 2.204682 1_554
Er2 F0 2.237123 1_655
Er2 O3 2.277723 1_554
Er2 O17 2.284762 1_645
Er2 O1 2.327597 1_554
Er2 O12 2.339606 1_655
Er2 O18 2.415820 1_555
Er3 O17 2.204682 1_556
Er3 F2 2.237123 1_455
Er3 O10 2.277723 1_556
Er3 O21 2.284762 1_465
Er3 O12 2.327597 1_556
Er3 O1 2.339606 1_455
Er3 O20 2.415820 1_555
Er4 O15 2.246539 1_555
Er4 O20 2.264387 1_555
Er4 O3 2.315519 1_555
Er4 F1 2.348822 1_555
Er4 O19 2.349368 1_555
Er4 F2 2.350544 1_555
Er4 O1 2.533512 1_555
Er4 O8 2.843815 1_565
Er5 O15 2.224393 1_555
Er5 F2 2.227250 1_455
Er5 O7 2.262401 1_465
Er5 O19 2.282323 1_555
Er5 O14 2.295866 1_555
Er5 O5 2.365899 1_555
Er5 F1 2.395088 1_455
Er6 O5 2.225250 1_555
Er6 O4 2.252838 1_545
Er6 O16 2.266904 1_555
Er6 O13 2.302959 1_455
Er6 F3 2.325342 1_555
Er6 O7 2.379679 1_455
Er6 O14 2.394938 1_555
Er7 O11 2.246539 1_555
Er7 O18 2.264387 1_555
Er7 O10 2.315519 1_555
Er7 F3 2.348822 1_555
Er7 O9 2.349368 1_555
Er7 F0 2.350544 1_555
Er7 O12 2.533512 1_555
Er7 O6 2.843815 1_545
O0 Si3 1.636736 1_555
O1 Si2 1.671825 1_556
O2 Si5 1.634554 1_555
O3 Si1 1.635281 1_655
O4 Si5 1.659584 1_555
O5 Si1 1.636736 1_555
O6 Si2 1.652145 1_555
O6 Si3 1.674081 1_555
O7 Si4 1.634554 1_555
O8 Si0 1.652145 1_555
O8 Si1 1.674081 1_555
O9 Si5 1.633198 1_555
O10 Si3 1.635281 1_455
O11 Si3 1.635561 1_545
O12 Si0 1.671825 1_554
O13 Si4 1.700316 1_555
O14 Si5 1.700316 1_555
O15 Si1 1.635561 1_565
O16 Si4 1.659584 1_555
O17 Si2 1.634188 1_555
O18 Si2 1.640065 1_555
O19 Si4 1.633198 1_555
O20 Si0 1.640065 1_555
O21 Si0 1.634188 1_555
