# generated using pymatgen
data_Mn2P2C12S(O2F3)4
_symmetry_space_group_name_H-M   'P 1'
_cell_length_a   8.81232300
_cell_length_b   12.61787100
_cell_length_c   21.55044800
_cell_angle_alpha   90.00000000
_cell_angle_beta   90.00000000
_cell_angle_gamma   90.00000000
_symmetry_Int_Tables_number   1
_chemical_formula_structural   Mn2P2C12S(O2F3)4
_chemical_formula_sum   'Mn8 P8 C48 S4 O32 F48'
_cell_volume   2396.25368082
_cell_formula_units_Z   4
loop_
 _symmetry_equiv_pos_site_id
 _symmetry_equiv_pos_as_xyz
  1  'x, y, z'
loop_
 _atom_site_type_symbol
 _atom_site_label
 _atom_site_symmetry_multiplicity
 _atom_site_fract_x
 _atom_site_fract_y
 _atom_site_fract_z
 _atom_site_occupancy
  Mn  Mn0  1  0.72472400  0.02716200  0.40672900  1
  Mn  Mn1  1  0.24121600  0.84253600  0.65850000  1
  Mn  Mn2  1  0.27527600  0.52716200  0.59327100  1
  Mn  Mn3  1  0.77527600  0.02716200  0.90672900  1
  Mn  Mn4  1  0.74121600  0.34253600  0.84150000  1
  Mn  Mn5  1  0.75878400  0.34253600  0.34150000  1
  Mn  Mn6  1  0.22472400  0.52716200  0.09327100  1
  Mn  Mn7  1  0.25878400  0.84253600  0.15850000  1
  P  P0  1  0.74439000  0.16710700  0.97711800  1
  P  P1  1  0.76266900  0.15486900  0.32399900  1
  P  P2  1  0.73733100  0.15486900  0.82399900  1
  P  P3  1  0.75561000  0.16710700  0.47711800  1
  P  P4  1  0.23733100  0.65486900  0.67600100  1
  P  P5  1  0.24439000  0.66710700  0.52288200  1
  P  P6  1  0.26266900  0.65486900  0.17600100  1
  P  P7  1  0.25561000  0.66710700  0.02288200  1
  C  C0  1  0.55702500  0.11773800  0.77933900  1
  C  C1  1  0.95296500  0.33956400  0.83498300  1
  C  C2  1  0.45296500  0.83956400  0.66501700  1
  C  C3  1  0.80429900  0.93176600  0.97027400  1
  C  C4  1  0.69570100  0.93176600  0.47027400  1
  C  C5  1  0.30039300  0.41739500  0.64917700  1
  C  C6  1  0.75056800  0.48636600  0.35502900  1
  C  C7  1  0.44297500  0.61773800  0.22066100  1
  C  C8  1  0.94297500  0.11773800  0.27933900  1
  C  C9  1  0.37476900  0.62272100  0.74280000  1
  C  C10  1  0.62523100  0.12272100  0.25720000  1
  C  C11  1  0.21000800  0.87147700  0.74087800  1
  C  C12  1  0.96626900  0.34732200  0.36039100  1
  C  C13  1  0.86994600  0.15632300  0.05019900  1
  C  C14  1  0.19960700  0.41739500  0.14917700  1
  C  C15  1  0.51608500  0.05680000  0.40576400  1
  C  C16  1  0.54703500  0.33956400  0.33498300  1
  C  C17  1  0.12523100  0.62272100  0.24280000  1
  C  C18  1  0.36994600  0.65632300  0.44980100  1
  C  C19  1  0.69960700  0.91739500  0.35082300  1
  C  C20  1  0.55185700  0.16175300  0.01969500  1
  C  C21  1  0.13005400  0.65632300  0.94980100  1
  C  C22  1  0.24943200  0.98636600  0.64497100  1
  C  C23  1  0.05185700  0.66175300  0.48030500  1
  C  C24  1  0.19570100  0.43176600  0.02972600  1
  C  C25  1  0.03373100  0.84732200  0.63960900  1
  C  C26  1  0.43180000  0.49509000  0.09197100  1
  C  C27  1  0.56820000  0.99509000  0.90802900  1
  C  C28  1  0.05702500  0.61773800  0.72066100  1
  C  C29  1  0.71000800  0.37147700  0.75912200  1
  C  C30  1  0.80039300  0.91739500  0.85082300  1
  C  C31  1  0.44814300  0.66175300  0.98030500  1
  C  C32  1  0.01608500  0.55680000  0.09423600  1
  C  C33  1  0.25056800  0.98636600  0.14497100  1
  C  C34  1  0.63005400  0.15632300  0.55019900  1
  C  C35  1  0.98391500  0.05680000  0.90576400  1
  C  C36  1  0.30429900  0.43176600  0.52972600  1
  C  C37  1  0.74943200  0.48636600  0.85502900  1
  C  C38  1  0.46626900  0.84732200  0.13960900  1
  C  C39  1  0.04703500  0.83956400  0.16501700  1
  C  C40  1  0.94814300  0.16175300  0.51969500  1
  C  C41  1  0.87476900  0.12272100  0.75720000  1
  C  C42  1  0.53373100  0.34732200  0.86039100  1
  C  C43  1  0.78999200  0.37147700  0.25912200  1
  C  C44  1  0.48391500  0.55680000  0.59423600  1
  C  C45  1  0.28999200  0.87147700  0.24087800  1
  C  C46  1  0.06820000  0.49509000  0.59197100  1
  C  C47  1  0.93180000  0.99509000  0.40802900  1
  S  S0  1  0.72250700  0.32040600  0.45253400  1
  S  S1  1  0.77749300  0.32040600  0.95253400  1
  S  S2  1  0.22250700  0.82040600  0.04746600  1
  S  S3  1  0.27749300  0.82040600  0.54746600  1
  O  O0  1  0.41631900  0.34163400  0.33265500  1
  O  O1  1  0.58368100  0.84163400  0.66734500  1
  O  O2  1  0.31182400  0.89604800  0.29187500  1
  O  O3  1  0.61310600  0.57084200  0.59346800  1
  O  O4  1  0.55673500  0.46807000  0.09083400  1
  O  O5  1  0.90855500  0.85769900  0.62532900  1
  O  O6  1  0.91631900  0.84163400  0.16734500  1
  O  O7  1  0.18817600  0.89604800  0.79187500  1
  O  O8  1  0.81182400  0.39604800  0.20812500  1
  O  O9  1  0.09144500  0.35769900  0.37467100  1
  O  O10  1  0.44326500  0.96807000  0.90916600  1
  O  O11  1  0.18634600  0.34427400  0.18091900  1
  O  O12  1  0.75342900  0.57751100  0.86074400  1
  O  O13  1  0.24657100  0.07751100  0.13925600  1
  O  O14  1  0.82240800  0.86774100  0.00787800  1
  O  O15  1  0.08368100  0.34163400  0.83265500  1
  O  O16  1  0.11310600  0.07084200  0.90653200  1
  O  O17  1  0.17759200  0.36774100  0.99212200  1
  O  O18  1  0.81365400  0.84427400  0.81908100  1
  O  O19  1  0.88689400  0.57084200  0.09346800  1
  O  O20  1  0.05673500  0.96807000  0.40916600  1
  O  O21  1  0.31365400  0.34427400  0.68091900  1
  O  O22  1  0.94326500  0.46807000  0.59083400  1
  O  O23  1  0.32240800  0.36774100  0.49212200  1
  O  O24  1  0.38689400  0.07084200  0.40653200  1
  O  O25  1  0.67759200  0.86774100  0.50787800  1
  O  O26  1  0.68817600  0.39604800  0.70812500  1
  O  O27  1  0.74657100  0.57751100  0.36074400  1
  O  O28  1  0.40855500  0.35769900  0.87467100  1
  O  O29  1  0.68634600  0.84427400  0.31908100  1
  O  O30  1  0.59144500  0.85769900  0.12532900  1
  O  O31  1  0.25342900  0.07751100  0.63925600  1
  F  F0  1  0.48341800  0.13942800  0.53281600  1
  F  F1  1  0.98341800  0.63942800  0.96718400  1
  F  F2  1  0.02042200  0.12336400  0.77909500  1
  F  F3  1  0.47957800  0.12336400  0.27909500  1
  F  F4  1  0.45811300  0.72991100  0.93177400  1
  F  F5  1  0.04427500  0.51128600  0.73183600  1
  F  F6  1  0.36710800  0.74521700  0.41450400  1
  F  F7  1  0.43274900  0.14607500  0.81331900  1
  F  F8  1  0.44009100  0.18723100  0.97866600  1
  F  F9  1  0.05990900  0.18723100  0.47866600  1
  F  F10  1  0.36927900  0.69448100  0.78993300  1
  F  F11  1  0.04623000  0.66718500  0.77660000  1
  F  F12  1  0.17286900  0.57341900  0.91320400  1
  F  F13  1  0.04188700  0.72991100  0.43177400  1
  F  F14  1  0.63072100  0.19448100  0.21006700  1
  F  F15  1  0.85082500  0.02549400  0.73121400  1
  F  F16  1  0.32713100  0.57341900  0.41320400  1
  F  F17  1  0.14917500  0.52549400  0.26878600  1
  F  F18  1  0.95377000  0.16718500  0.22340000  1
  F  F19  1  0.52042200  0.62336400  0.72090500  1
  F  F20  1  0.94009100  0.68723100  0.52133400  1
  F  F21  1  0.63289200  0.24521700  0.58549600  1
  F  F22  1  0.02182300  0.56238600  0.45837600  1
  F  F23  1  0.55990900  0.68723100  0.02133400  1
  F  F24  1  0.95572500  0.01128600  0.26816400  1
  F  F25  1  0.52182300  0.06238600  0.04162400  1
  F  F26  1  0.86710800  0.24521700  0.08549600  1
  F  F27  1  0.51658200  0.63942800  0.46718400  1
  F  F28  1  0.47817700  0.56238600  0.95837600  1
  F  F29  1  0.64917500  0.02549400  0.23121400  1
  F  F30  1  0.97817700  0.06238600  0.54162400  1
  F  F31  1  0.86927900  0.19448100  0.71006700  1
  F  F32  1  0.45377000  0.66718500  0.27660000  1
  F  F33  1  0.82713100  0.07341900  0.08679600  1
  F  F34  1  0.67286900  0.07341900  0.58679600  1
  F  F35  1  0.54188700  0.22991100  0.06822600  1
  F  F36  1  0.97957800  0.62336400  0.22090500  1
  F  F37  1  0.13072100  0.69448100  0.28993300  1
  F  F38  1  0.35082500  0.52549400  0.76878600  1
  F  F39  1  0.93274900  0.64607500  0.68668100  1
  F  F40  1  0.54427500  0.01128600  0.76816400  1
  F  F41  1  0.54623000  0.16718500  0.72340000  1
  F  F42  1  0.06725100  0.14607500  0.31331900  1
  F  F43  1  0.01658200  0.13942800  0.03281600  1
  F  F44  1  0.13289200  0.74521700  0.91450400  1
  F  F45  1  0.95811300  0.22991100  0.56822600  1
  F  F46  1  0.56725100  0.64607500  0.18668100  1
  F  F47  1  0.45572500  0.51128600  0.23183600  1
loop_
_geom_bond_atom_site_label_1
_geom_bond_atom_site_label_2
_geom_bond_distance
_geom_bond_site_symmetry_2
Mn0 P3 2.343755 1_555
Mn0 P1 2.426317 1_555
Mn1 P4 2.398050 1_555
Mn1 S3 2.430189 1_555
Mn2 P5 2.343755 1_555
Mn2 P4 2.426317 1_555
Mn3 P0 2.343755 1_555
Mn3 P2 2.426317 1_555
Mn4 P2 2.398050 1_555
Mn4 S1 2.430189 1_555
Mn5 P1 2.398050 1_555
Mn5 S0 2.430189 1_555
Mn6 P7 2.343755 1_555
Mn6 P6 2.426317 1_555
Mn7 P6 2.398050 1_555
Mn7 S2 2.430189 1_555
P0 S1 2.026654 1_555
P3 S0 2.026654 1_555
P5 S3 2.026654 1_555
P7 S2 2.026654 1_555
C0 F41 1.360726 1_555
C0 F7 1.365086 1_555
C0 F40 1.369234 1_555
C0 P2 1.915842 1_555
C1 O15 1.153299 1_655
C1 Mn4 1.871654 1_555
C2 O1 1.153299 1_555
C2 Mn1 1.871654 1_555
C3 O14 1.155346 1_556
C3 Mn3 1.841090 1_565
C4 O25 1.155346 1_555
C4 Mn0 1.841090 1_565
C5 O21 1.154485 1_555
C5 Mn2 1.849008 1_555
C6 O27 1.157168 1_555
C6 Mn5 1.839524 1_555
C7 F32 1.360726 1_555
C7 F46 1.365086 1_555
C7 F47 1.369234 1_555
C7 P6 1.915842 1_555
C8 F18 1.360726 1_555
C8 F42 1.365086 1_655
C8 F24 1.369234 1_555
C8 P1 1.915842 1_555
C9 F10 1.361586 1_555
C9 F38 1.364978 1_555
C9 F19 1.367547 1_555
C9 P4 1.924506 1_555
C10 F14 1.361586 1_555
C10 F29 1.364978 1_555
C10 F3 1.367547 1_555
C10 P1 1.924506 1_555
C11 O7 1.157996 1_555
C11 Mn1 1.833198 1_555
C12 O9 1.152675 1_655
C12 Mn5 1.874172 1_555
C13 F26 1.355487 1_555
C13 F43 1.362193 1_655
C13 F33 1.363320 1_555
C13 P0 1.929540 1_554
C14 O11 1.154485 1_555
C14 Mn6 1.849008 1_555
C15 O24 1.152296 1_555
C15 Mn0 1.876357 1_555
C16 O0 1.153299 1_555
C16 Mn5 1.871654 1_555
C17 F37 1.361586 1_555
C17 F17 1.364978 1_555
C17 F36 1.367547 1_455
C17 P6 1.924506 1_555
C18 F6 1.355487 1_555
C18 F27 1.362193 1_555
C18 F16 1.363320 1_555
C18 P5 1.929540 1_555
C19 O29 1.154485 1_555
C19 Mn0 1.849008 1_565
C20 F35 1.356896 1_555
C20 F8 1.362061 1_554
C20 F25 1.365795 1_555
C20 P0 1.930060 1_554
C21 F44 1.355487 1_555
C21 F1 1.362193 1_455
C21 F12 1.363320 1_555
C21 P7 1.929540 1_556
C22 O31 1.157168 1_565
C22 Mn1 1.839524 1_555
C23 F13 1.356896 1_555
C23 F20 1.362061 1_455
C23 F22 1.365795 1_555
C23 P5 1.930060 1_555
C24 O17 1.155346 1_554
C24 Mn6 1.841090 1_555
C25 O5 1.152675 1_455
C25 Mn1 1.874172 1_555
C26 O4 1.152808 1_555
C26 Mn6 1.869364 1_555
C27 O10 1.152808 1_555
C27 Mn3 1.869364 1_565
C28 F11 1.360726 1_555
C28 F39 1.365086 1_455
C28 F5 1.369234 1_555
C28 P4 1.915842 1_555
C29 O26 1.157996 1_555
C29 Mn4 1.833198 1_555
C30 O18 1.154485 1_555
C30 Mn3 1.849008 1_565
C31 F4 1.356896 1_555
C31 F23 1.362061 1_556
C31 F28 1.365795 1_555
C31 P7 1.930060 1_556
C32 O19 1.152296 1_455
C32 Mn6 1.876357 1_555
C33 O13 1.157168 1_565
C33 Mn7 1.839524 1_555
C34 F21 1.355487 1_555
C34 F0 1.362193 1_555
C34 F34 1.363320 1_555
C34 P3 1.929540 1_555
C35 O16 1.152296 1_655
C35 Mn3 1.876357 1_555
C36 O23 1.155346 1_555
C36 Mn2 1.841090 1_555
C37 O12 1.157168 1_555
C37 Mn4 1.839524 1_555
C38 O30 1.152675 1_555
C38 Mn7 1.874172 1_555
C39 O6 1.153299 1_455
C39 Mn7 1.871654 1_555
C40 F45 1.356896 1_555
C40 F9 1.362061 1_655
C40 F30 1.365795 1_555
C40 P3 1.930060 1_555
C41 F31 1.361586 1_555
C41 F15 1.364978 1_555
C41 F2 1.367547 1_655
C41 P2 1.924506 1_555
C42 O28 1.152675 1_555
C42 Mn4 1.874172 1_555
C43 O8 1.157996 1_555
C43 Mn5 1.833198 1_555
C44 O3 1.152296 1_555
C44 Mn2 1.876357 1_555
C45 O2 1.157996 1_555
C45 Mn7 1.833198 1_555
C46 O22 1.152808 1_455
C46 Mn2 1.869364 1_555
C47 O20 1.152808 1_655
C47 Mn0 1.869364 1_565
