# generated using pymatgen
data_Gd2WO6
_symmetry_space_group_name_H-M   'P 1'
_cell_length_a   9.97538992
_cell_length_b   9.97538992
_cell_length_c   5.48369695
_cell_angle_alpha   76.11028642
_cell_angle_beta   76.11028642
_cell_angle_gamma   68.90056060
_symmetry_Int_Tables_number   1
_chemical_formula_structural   Gd2WO6
_chemical_formula_sum   'Gd8 W4 O24'
_cell_volume   487.04154662
_cell_formula_units_Z   4
loop_
 _symmetry_equiv_pos_site_id
 _symmetry_equiv_pos_as_xyz
  1  'x, y, z'
loop_
 _atom_site_type_symbol
 _atom_site_label
 _atom_site_symmetry_multiplicity
 _atom_site_fract_x
 _atom_site_fract_y
 _atom_site_fract_z
 _atom_site_occupancy
  Gd  Gd0  1  0.39303500  0.60696500  0.75000000  1
  Gd  Gd1  1  0.60696500  0.39303500  0.25000000  1
  Gd  Gd2  1  0.86888600  0.13111400  0.75000000  1
  Gd  Gd3  1  0.13111400  0.86888600  0.25000000  1
  Gd  Gd4  1  0.55894500  0.78682200  0.11493300  1
  Gd  Gd5  1  0.21317800  0.44105500  0.38506700  1
  Gd  Gd6  1  0.44105500  0.21317800  0.88506700  1
  Gd  Gd7  1  0.78682200  0.55894500  0.61493300  1
  W  W0  1  0.69562500  0.99666200  0.43289100  1
  W  W1  1  0.00333800  0.30437500  0.06710900  1
  W  W2  1  0.30437500  0.00333800  0.56710900  1
  W  W3  1  0.99666200  0.69562500  0.93289100  1
  O  O0  1  0.71599700  0.81683600  0.35809800  1
  O  O1  1  0.18316400  0.28400300  0.14190200  1
  O  O2  1  0.28400300  0.18316400  0.64190200  1
  O  O3  1  0.81683600  0.71599700  0.85809800  1
  O  O4  1  0.88374200  0.95649500  0.48133500  1
  O  O5  1  0.04350500  0.11625800  0.01866500  1
  O  O6  1  0.11625800  0.04350500  0.51866500  1
  O  O7  1  0.95649500  0.88374200  0.98133500  1
  O  O8  1  0.55653900  0.97294500  0.73149500  1
  O  O9  1  0.02705500  0.44346100  0.76850500  1
  O  O10  1  0.44346100  0.02705500  0.26850500  1
  O  O11  1  0.97294500  0.55653900  0.23149500  1
  O  O12  1  0.67935700  0.11780700  0.11473700  1
  O  O13  1  0.88219300  0.32064300  0.38526300  1
  O  O14  1  0.32064300  0.88219300  0.88526300  1
  O  O15  1  0.11780700  0.67935700  0.61473700  1
  O  O16  1  0.65810100  0.18466400  0.57814500  1
  O  O17  1  0.81533600  0.34189900  0.92185500  1
  O  O18  1  0.34189900  0.81533600  0.42185500  1
  O  O19  1  0.18466400  0.65810100  0.07814500  1
  O  O20  1  0.39333200  0.42359500  0.57755700  1
  O  O21  1  0.57640500  0.60666800  0.92244300  1
  O  O22  1  0.60666800  0.57640500  0.42244300  1
  O  O23  1  0.42359500  0.39333200  0.07755700  1
loop_
_geom_bond_atom_site_label_1
_geom_bond_atom_site_label_2
_geom_bond_distance
_geom_bond_site_symmetry_2
Gd0 O21 2.250633 1_555
Gd0 O20 2.250633 1_555
Gd0 O19 2.387527 1_556
Gd0 O18 2.387527 1_555
Gd0 O22 2.412092 1_555
Gd0 O23 2.412092 1_556
Gd0 O15 2.811152 1_555
Gd0 O14 2.811152 1_555
Gd1 O22 2.250633 1_555
Gd1 O23 2.250633 1_555
Gd1 O17 2.387527 1_554
Gd1 O16 2.387527 1_555
Gd1 O20 2.412092 1_555
Gd1 O21 2.412092 1_554
Gd1 O13 2.811152 1_555
Gd1 O12 2.811152 1_555
Gd2 O16 2.344279 1_555
Gd2 O17 2.344279 1_555
Gd2 O13 2.414587 1_555
Gd2 O12 2.414587 1_556
Gd2 O7 2.436994 1_545
Gd2 O6 2.436994 1_655
Gd2 O5 2.483569 1_656
Gd2 O4 2.483569 1_545
Gd3 O18 2.344279 1_555
Gd3 O19 2.344279 1_555
Gd3 O14 2.414587 1_554
Gd3 O15 2.414587 1_555
Gd3 O5 2.436994 1_565
Gd3 O4 2.436994 1_455
Gd3 O6 2.483569 1_565
Gd3 O7 2.483569 1_454
Gd4 O21 2.229629 1_554
Gd4 O22 2.332942 1_555
Gd4 O18 2.374506 1_555
Gd4 O0 2.419602 1_555
Gd4 O8 2.446783 1_554
Gd4 O10 2.508914 1_565
Gd4 O3 2.555476 1_554
Gd4 O14 2.715884 1_554
Gd5 O20 2.229629 1_555
Gd5 O23 2.332942 1_555
Gd5 O19 2.374506 1_555
Gd5 O1 2.419602 1_555
Gd5 O9 2.446783 1_555
Gd5 O11 2.508914 1_455
Gd5 O2 2.555476 1_555
Gd5 O15 2.715884 1_555
Gd6 O23 2.229629 1_556
Gd6 O20 2.332942 1_555
Gd6 O16 2.374506 1_555
Gd6 O2 2.419602 1_555
Gd6 O10 2.446783 1_556
Gd6 O8 2.508914 1_545
Gd6 O1 2.555476 1_556
Gd6 O12 2.715884 1_556
Gd7 O22 2.229629 1_555
Gd7 O21 2.332942 1_555
Gd7 O17 2.374506 1_555
Gd7 O3 2.419602 1_555
Gd7 O11 2.446783 1_555
Gd7 O9 2.508914 1_655
Gd7 O0 2.555476 1_555
Gd7 O13 2.715884 1_555
O0 W0 1.864969 1_555
O1 W1 1.864969 1_555
O2 W2 1.864969 1_555
O3 W3 1.864969 1_555
O4 W0 1.843748 1_555
O5 W1 1.843748 1_555
O6 W2 1.843748 1_555
O7 W3 1.843748 1_555
O8 W0 1.903105 1_555
O9 W1 1.903105 1_556
O10 W2 1.903105 1_555
O11 W3 1.903105 1_554
O12 W0 1.874316 1_545
O13 W1 1.874316 1_655
O14 W2 1.874316 1_565
O15 W3 1.874316 1_455
O16 W0 2.088132 1_545
O17 W1 2.088132 1_656
O18 W2 2.088132 1_565
O19 W3 2.088132 1_454
