# generated using pymatgen
data_MgP2H20C4(N2O3)4
_symmetry_space_group_name_H-M   'P 1'
_cell_length_a   21.79658400
_cell_length_b   5.42271200
_cell_length_c   9.07555441
_cell_angle_alpha   54.57503232
_cell_angle_beta   90.00000000
_cell_angle_gamma   90.00000000
_symmetry_Int_Tables_number   1
_chemical_formula_structural   MgP2H20C4(N2O3)4
_chemical_formula_sum   'Mg2 P4 H40 C8 N16 O24'
_cell_volume   874.11643685
_cell_formula_units_Z   2
loop_
 _symmetry_equiv_pos_site_id
 _symmetry_equiv_pos_as_xyz
  1  'x, y, z'
loop_
 _atom_site_type_symbol
 _atom_site_label
 _atom_site_symmetry_multiplicity
 _atom_site_fract_x
 _atom_site_fract_y
 _atom_site_fract_z
 _atom_site_occupancy
  Mg  Mg0  1  0.00000000  0.00000000  0.00000000  1
  Mg  Mg1  1  0.50000000  0.00000000  0.50000000  1
  P  P0  1  0.91594000  0.59502100  0.89584300  1
  P  P1  1  0.41594000  0.40497900  0.60415700  1
  P  P2  1  0.08406000  0.40497900  0.10415700  1
  P  P3  1  0.58406000  0.59502100  0.39584300  1
  H  H0  1  0.82710300  0.63956900  0.76442300  1
  H  H1  1  0.32710300  0.36043100  0.73557700  1
  H  H2  1  0.17289700  0.36043100  0.23557700  1
  H  H3  1  0.67289700  0.63956900  0.26442300  1
  H  H4  1  0.90558300  0.52901600  0.15497900  1
  H  H5  1  0.40558300  0.47098400  0.34502100  1
  H  H6  1  0.09441700  0.47098400  0.84502100  1
  H  H7  1  0.59441700  0.52901600  0.65497900  1
  H  H8  1  0.98871800  0.95212200  0.34596200  1
  H  H9  1  0.48871800  0.04787800  0.15403800  1
  H  H10  1  0.01128200  0.04787800  0.65403800  1
  H  H11  1  0.51128200  0.95212200  0.84596200  1
  H  H12  1  0.95595000  0.70906700  0.56710800  1
  H  H13  1  0.45595000  0.29093300  0.93289200  1
  H  H14  1  0.04405000  0.29093300  0.43289200  1
  H  H15  1  0.54405000  0.70906700  0.06710800  1
  H  H16  1  0.88640900  0.35392400  0.62314400  1
  H  H17  1  0.38640900  0.64607600  0.87685600  1
  H  H18  1  0.11359100  0.64607600  0.37685600  1
  H  H19  1  0.61359100  0.35392400  0.12314400  1
  H  H20  1  0.86845600  0.29342200  0.46265300  1
  H  H21  1  0.36845600  0.70657800  0.03734700  1
  H  H22  1  0.13154400  0.70657800  0.53734700  1
  H  H23  1  0.63154400  0.29342200  0.96265300  1
  H  H24  1  0.84393000  0.07064100  0.00083100  1
  H  H25  1  0.34393000  0.92935900  0.49916900  1
  H  H26  1  0.15607000  0.92935900  0.99916900  1
  H  H27  1  0.65607000  0.07064100  0.50083100  1
  H  H28  1  0.78753500  0.78525800  0.10220700  1
  H  H29  1  0.28753500  0.21474200  0.39779300  1
  H  H30  1  0.21246500  0.21474200  0.89779300  1
  H  H31  1  0.71246500  0.78525800  0.60220700  1
  H  H32  1  0.70220800  0.83003000  0.95137800  1
  H  H33  1  0.20220800  0.16997000  0.54862200  1
  H  H34  1  0.29779200  0.16997000  0.04862200  1
  H  H35  1  0.79779200  0.83003000  0.45137800  1
  H  H36  1  0.68131000  0.17622000  0.75217000  1
  H  H37  1  0.18131000  0.82378000  0.74783000  1
  H  H38  1  0.31869000  0.82378000  0.24783000  1
  H  H39  1  0.81869000  0.17622000  0.25217000  1
  C  C0  1  0.92572400  0.65377800  0.37578200  1
  C  C1  1  0.42572400  0.34622200  0.12421800  1
  C  C2  1  0.07427600  0.34622200  0.62421800  1
  C  C3  1  0.57427600  0.65377800  0.87578200  1
  C  C4  1  0.76200600  0.18306800  0.86597600  1
  C  C5  1  0.26200600  0.81693200  0.63402400  1
  C  C6  1  0.23799400  0.81693200  0.13402400  1
  C  C7  1  0.73799400  0.18306800  0.36597600  1
  N  N0  1  0.95628000  0.79831100  0.43278500  1
  N  N1  1  0.45628000  0.20168900  0.06721500  1
  N  N2  1  0.04372000  0.20168900  0.56721500  1
  N  N3  1  0.54372000  0.79831100  0.93278500  1
  N  N4  1  0.88450300  0.43943400  0.48946900  1
  N  N5  1  0.38450300  0.56056600  0.01053100  1
  N  N6  1  0.11549700  0.56056600  0.51053100  1
  N  N7  1  0.61549700  0.43943400  0.98946900  1
  N  N8  1  0.79954600  0.00632000  0.00867900  1
  N  N9  1  0.29954600  0.99368000  0.49132100  1
  N  N10  1  0.20045400  0.99368000  0.99132100  1
  N  N11  1  0.70045400  0.00632000  0.50867900  1
  N  N12  1  0.70840300  0.05768700  0.86447600  1
  N  N13  1  0.20840300  0.94231300  0.63552400  1
  N  N14  1  0.29159700  0.94231300  0.13552400  1
  N  N15  1  0.79159700  0.05768700  0.36447600  1
  O  O0  1  0.96282200  0.82943600  0.86260700  1
  O  O1  1  0.46282200  0.17056400  0.63739300  1
  O  O2  1  0.03717800  0.17056400  0.13739300  1
  O  O3  1  0.53717800  0.82943600  0.36260700  1
  O  O4  1  0.93610200  0.35829800  0.86557500  1
  O  O5  1  0.43610200  0.64170200  0.63442500  1
  O  O6  1  0.06389800  0.64170200  0.13442500  1
  O  O7  1  0.56389800  0.35829800  0.36557500  1
  O  O8  1  0.85930800  0.77481800  0.76555100  1
  O  O9  1  0.35930800  0.22518200  0.73444900  1
  O  O10  1  0.14069200  0.22518200  0.23444900  1
  O  O11  1  0.64069200  0.77481800  0.26555100  1
  O  O12  1  0.89042700  0.42316200  0.09843100  1
  O  O13  1  0.39042700  0.57683800  0.40156900  1
  O  O14  1  0.10957300  0.57683800  0.90156900  1
  O  O15  1  0.60957300  0.42316200  0.59843100  1
  O  O16  1  0.93333000  0.72557800  0.21507000  1
  O  O17  1  0.43333000  0.27442200  0.28493000  1
  O  O18  1  0.06667000  0.27442200  0.78493000  1
  O  O19  1  0.56667000  0.72557800  0.71507000  1
  O  O20  1  0.77459400  0.45775100  0.74157000  1
  O  O21  1  0.27459400  0.54224900  0.75843000  1
  O  O22  1  0.22540600  0.54224900  0.25843000  1
  O  O23  1  0.72540600  0.45775100  0.24157000  1
loop_
_geom_bond_atom_site_label_1
_geom_bond_atom_site_label_2
_geom_bond_distance
_geom_bond_site_symmetry_2
Mg0 O2 2.098557 1_555
Mg0 O0 2.098557 1_444
Mg0 O6 2.110753 1_545
Mg0 O4 2.110753 1_454
Mg0 O16 2.183757 1_445
Mg0 O18 2.183757 1_554
Mg1 O3 2.098557 1_545
Mg1 O1 2.098557 1_555
Mg1 O7 2.110753 1_555
Mg1 O5 2.110753 1_545
Mg1 O17 2.183757 1_555
Mg1 O19 2.183757 1_545
H0 O8 1.019537 1_555
H0 O20 1.600651 1_555
H1 O9 1.019537 1_555
H1 O21 1.600651 1_555
H2 O10 1.019537 1_555
H2 O22 1.600651 1_555
H3 O11 1.019537 1_555
H3 O23 1.600651 1_555
H4 O12 1.021524 1_555
H4 O16 1.572645 1_555
H5 O13 1.021524 1_555
H5 O17 1.572645 1_555
H6 O14 1.021524 1_555
H6 O18 1.572645 1_555
H7 O15 1.021524 1_555
H7 O19 1.572645 1_555
H8 N0 1.026924 1_555
H9 N1 1.026924 1_555
H10 N2 1.026924 1_555
H11 N3 1.026924 1_555
H12 N0 1.018053 1_555
H13 N1 1.018053 1_556
H14 N2 1.018053 1_555
H15 N3 1.018053 1_554
H16 N4 1.018033 1_555
H17 N5 1.018033 1_556
H18 N6 1.018033 1_555
H19 N7 1.018033 1_554
H20 N4 1.015811 1_555
H21 N5 1.015811 1_555
H22 N6 1.015811 1_555
H23 N7 1.015811 1_555
H24 N8 1.016775 1_555
H25 N9 1.016775 1_555
H26 N10 1.016775 1_555
H27 N11 1.016775 1_555
H28 N8 1.022965 1_565
H29 N9 1.022965 1_545
H30 N10 1.022965 1_545
H31 N11 1.022965 1_565
H32 N12 1.017630 1_565
H33 N13 1.017630 1_545
H34 N14 1.017630 1_545
H35 N15 1.017630 1_565
H36 N12 1.020417 1_555
H37 N13 1.020417 1_555
H38 N14 1.020417 1_555
H39 N15 1.020417 1_555
C0 O16 1.283788 1_555
C0 N0 1.339977 1_555
C0 N4 1.353718 1_555
C1 O17 1.283788 1_555
C1 N1 1.339977 1_555
C1 N5 1.353718 1_555
C2 O18 1.283788 1_555
C2 N2 1.339977 1_555
C2 N6 1.353718 1_555
C3 O19 1.283788 1_555
C3 N3 1.339977 1_555
C3 N7 1.353718 1_555
C4 O20 1.272447 1_555
C4 N8 1.351464 1_556
C4 N12 1.355823 1_555
C5 O21 1.272447 1_555
C5 N9 1.351464 1_555
C5 N13 1.355823 1_555
C6 O22 1.272447 1_555
C6 N10 1.351464 1_554
C6 N14 1.355823 1_555
C7 O23 1.272447 1_555
C7 N11 1.351464 1_555
C7 N15 1.355823 1_555
O0 P0 1.518736 1_555
O1 P1 1.518736 1_555
O2 P2 1.518736 1_555
O3 P3 1.518736 1_555
O4 P0 1.524865 1_555
O5 P1 1.524865 1_555
O6 P2 1.524865 1_555
O7 P3 1.524865 1_555
O8 P0 1.592490 1_555
O9 P1 1.592490 1_555
O10 P2 1.592490 1_555
O11 P3 1.592490 1_555
O12 P0 1.603692 1_554
O13 P1 1.603692 1_555
O14 P2 1.603692 1_556
O15 P3 1.603692 1_555
