# generated using pymatgen
data_Li9S3N
_symmetry_space_group_name_H-M   'P 1'
_cell_length_a   5.45577585
_cell_length_b   5.45577585
_cell_length_c   5.45577585
_cell_angle_alpha   90.00000000
_cell_angle_beta   90.00000000
_cell_angle_gamma   90.00000000
_symmetry_Int_Tables_number   1
_chemical_formula_structural   Li9S3N
_chemical_formula_sum   'Li9 S3 N1'
_cell_volume   162.39384219
_cell_formula_units_Z   1
loop_
 _symmetry_equiv_pos_site_id
 _symmetry_equiv_pos_as_xyz
  1  'x, y, z'
loop_
 _atom_site_type_symbol
 _atom_site_label
 _atom_site_symmetry_multiplicity
 _atom_site_fract_x
 _atom_site_fract_y
 _atom_site_fract_z
 _atom_site_occupancy
  Li  Li0  1  0.78313972  0.21686028  0.78313972  1
  Li  Li1  1  0.21686028  0.21686028  0.21686028  1
  Li  Li2  1  0.78313972  0.78313972  0.78313972  1
  Li  Li3  1  0.21686028  0.78313972  0.21686028  1
  Li  Li4  1  0.78313972  0.21686028  0.21686028  1
  Li  Li5  1  0.78313972  0.78313972  0.21686028  1
  Li  Li6  1  0.50000000  0.50000000  0.50000000  1
  Li  Li7  1  0.21686028  0.78313972  0.78313972  1
  Li  Li8  1  0.21686028  0.21686028  0.78313972  1
  S  S0  1  0.50000000  0.50000000  -0.00000000  1
  S  S1  1  0.00000000  0.50000000  0.50000000  1
  S  S2  1  0.50000000  0.00000000  0.50000000  1
  N  N0  1  0.00000000  0.00000000  -0.00000000  1
loop_
_geom_bond_atom_site_label_1
_geom_bond_atom_site_label_2
_geom_bond_distance
_geom_bond_site_symmetry_2
Li0 N0 2.049260 1_656
Li0 S0 2.484413 1_556
Li0 S2 2.484413 1_555
Li0 S1 2.484413 1_655
Li1 N0 2.049260 1_555
Li1 S2 2.484413 1_555
Li1 S1 2.484413 1_555
Li1 S0 2.484413 1_555
Li2 N0 2.049260 1_666
Li2 S1 2.484413 1_655
Li2 S0 2.484413 1_556
Li2 S2 2.484413 1_565
Li3 N0 2.049260 1_565
Li3 S2 2.484413 1_565
Li3 S1 2.484413 1_555
Li3 S0 2.484413 1_555
Li4 N0 2.049260 1_655
Li4 S2 2.484413 1_555
Li4 S1 2.484413 1_655
Li4 S0 2.484413 1_555
Li5 N0 2.049260 1_665
Li5 S1 2.484413 1_655
Li5 S2 2.484413 1_565
Li5 S0 2.484413 1_555
Li6 S2 2.727888 1_565
Li6 S1 2.727888 1_655
Li6 S0 2.727888 1_556
Li6 S0 2.727888 1_555
Li6 S1 2.727888 1_555
Li6 S2 2.727888 1_555
Li7 N0 2.049260 1_566
Li7 S1 2.484413 1_555
Li7 S0 2.484413 1_556
Li7 S2 2.484413 1_565
Li8 N0 2.049260 1_556
Li8 S2 2.484413 1_555
Li8 S1 2.484413 1_555
Li8 S0 2.484413 1_556
