# generated using pymatgen
data_NbTe4
_symmetry_space_group_name_H-M   'P 1'
_cell_length_a   13.25104300
_cell_length_b   13.25104300
_cell_length_c   20.98175000
_cell_angle_alpha   90.00000000
_cell_angle_beta   90.00000000
_cell_angle_gamma   90.00000000
_symmetry_Int_Tables_number   1
_chemical_formula_structural   NbTe4
_chemical_formula_sum   'Nb24 Te96'
_cell_volume   3684.18843228
_cell_formula_units_Z   24
loop_
 _symmetry_equiv_pos_site_id
 _symmetry_equiv_pos_as_xyz
  1  'x, y, z'
loop_
 _atom_site_type_symbol
 _atom_site_label
 _atom_site_symmetry_multiplicity
 _atom_site_fract_x
 _atom_site_fract_y
 _atom_site_fract_z
 _atom_site_occupancy
  Nb  Nb0  1  0.00000000  0.50000000  0.92989800  1
  Nb  Nb1  1  0.00000000  0.00000000  0.25000000  1
  Nb  Nb2  1  0.50000000  0.50000000  0.40293200  1
  Nb  Nb3  1  0.00000000  0.50000000  0.23605900  1
  Nb  Nb4  1  0.50000000  0.00000000  0.41828000  1
  Nb  Nb5  1  0.50000000  0.00000000  0.26394100  1
  Nb  Nb6  1  0.50000000  0.50000000  0.90293200  1
  Nb  Nb7  1  0.00000000  0.50000000  0.58172000  1
  Nb  Nb8  1  0.00000000  0.00000000  0.40293200  1
  Nb  Nb9  1  0.00000000  0.00000000  0.90293200  1
  Nb  Nb10  1  0.50000000  0.00000000  0.07010200  1
  Nb  Nb11  1  0.50000000  0.00000000  0.57010200  1
  Nb  Nb12  1  0.50000000  0.50000000  0.59706800  1
  Nb  Nb13  1  0.00000000  0.50000000  0.42989800  1
  Nb  Nb14  1  0.50000000  0.00000000  0.76394100  1
  Nb  Nb15  1  0.50000000  0.50000000  0.25000000  1
  Nb  Nb16  1  0.50000000  0.50000000  0.75000000  1
  Nb  Nb17  1  0.00000000  0.00000000  0.59706800  1
  Nb  Nb18  1  0.00000000  0.50000000  0.08172000  1
  Nb  Nb19  1  0.50000000  0.00000000  0.91828000  1
  Nb  Nb20  1  0.00000000  0.00000000  0.75000000  1
  Nb  Nb21  1  0.50000000  0.50000000  0.09706800  1
  Nb  Nb22  1  0.00000000  0.00000000  0.09706800  1
  Nb  Nb23  1  0.00000000  0.50000000  0.73605900  1
  Te  Te0  1  0.43781500  0.15299400  0.16766900  1
  Te  Te1  1  0.05932000  0.84468100  0.50046800  1
  Te  Te2  1  0.34468100  0.44068000  0.50046800  1
  Te  Te3  1  0.84468100  0.05932000  0.99953200  1
  Te  Te4  1  0.57627500  0.33637900  0.83014000  1
  Te  Te5  1  0.15299400  0.56218500  0.83233100  1
  Te  Te6  1  0.92372500  0.83637900  0.66986000  1
  Te  Te7  1  0.07818300  0.33721800  0.50288400  1
  Te  Te8  1  0.42372500  0.33637900  0.33014000  1
  Te  Te9  1  0.57341700  0.33616400  0.16919500  1
  Te  Te10  1  0.65531900  0.55932000  0.50046800  1
  Te  Te11  1  0.65299400  0.06218500  0.16766900  1
  Te  Te12  1  0.42372500  0.66362100  0.83014000  1
  Te  Te13  1  0.43781500  0.84700600  0.66766900  1
  Te  Te14  1  0.07818300  0.66278200  0.00288400  1
  Te  Te15  1  0.33616400  0.57341700  0.33080500  1
  Te  Te16  1  0.83616400  0.07341700  0.66919500  1
  Te  Te17  1  0.05932000  0.15531900  0.00046800  1
  Te  Te18  1  0.06786800  0.66685400  0.66351500  1
  Te  Te19  1  0.33314600  0.93213200  0.83648500  1
  Te  Te20  1  0.15299400  0.43781500  0.33233100  1
  Te  Te21  1  0.66362100  0.57627500  0.16986000  1
  Te  Te22  1  0.34700600  0.06218500  0.66766900  1
  Te  Te23  1  0.83721800  0.57818300  0.00288400  1
  Te  Te24  1  0.56218500  0.15299400  0.66766900  1
  Te  Te25  1  0.07341700  0.83616400  0.83080500  1
  Te  Te26  1  0.06218500  0.34700600  0.83233100  1
  Te  Te27  1  0.34700600  0.93781500  0.16766900  1
  Te  Te28  1  0.33637900  0.42372500  0.16986000  1
  Te  Te29  1  0.83637900  0.07627500  0.33014000  1
  Te  Te30  1  0.42181700  0.83721800  0.99711600  1
  Te  Te31  1  0.93781500  0.65299400  0.83233100  1
  Te  Te32  1  0.66383600  0.42658300  0.33080500  1
  Te  Te33  1  0.44068000  0.65531900  0.49953200  1
  Te  Te34  1  0.92658300  0.16383600  0.83080500  1
  Te  Te35  1  0.43213200  0.16685400  0.83648500  1
  Te  Te36  1  0.16685400  0.43213200  0.66351500  1
  Te  Te37  1  0.16383600  0.92658300  0.66919500  1
  Te  Te38  1  0.16362100  0.07627500  0.83014000  1
  Te  Te39  1  0.06218500  0.65299400  0.33233100  1
  Te  Te40  1  0.84468100  0.94068000  0.49953200  1
  Te  Te41  1  0.93781500  0.34700600  0.33233100  1
  Te  Te42  1  0.92372500  0.16362100  0.16986000  1
  Te  Te43  1  0.84700600  0.43781500  0.83233100  1
  Te  Te44  1  0.33616400  0.42658300  0.83080500  1
  Te  Te45  1  0.94068000  0.15531900  0.50046800  1
  Te  Te46  1  0.06786800  0.33314600  0.16351500  1
  Te  Te47  1  0.83637900  0.92372500  0.83014000  1
  Te  Te48  1  0.15531900  0.94068000  0.99953200  1
  Te  Te49  1  0.16362100  0.92372500  0.33014000  1
  Te  Te50  1  0.42658300  0.33616400  0.66919500  1
  Te  Te51  1  0.43213200  0.83314600  0.33648500  1
  Te  Te52  1  0.33637900  0.57627500  0.66986000  1
  Te  Te53  1  0.44068000  0.34468100  0.99953200  1
  Te  Te54  1  0.65299400  0.93781500  0.66766900  1
  Te  Te55  1  0.33314600  0.06786800  0.33648500  1
  Te  Te56  1  0.83314600  0.56786800  0.66351500  1
  Te  Te57  1  0.66278200  0.07818300  0.49711600  1
  Te  Te58  1  0.33721800  0.92181700  0.49711600  1
  Te  Te59  1  0.56786800  0.83314600  0.83648500  1
  Te  Te60  1  0.66278200  0.92181700  0.99711600  1
  Te  Te61  1  0.66383600  0.57341700  0.83080500  1
  Te  Te62  1  0.16278200  0.57818300  0.50288400  1
  Te  Te63  1  0.16685400  0.56786800  0.16351500  1
  Te  Te64  1  0.66685400  0.93213200  0.33648500  1
  Te  Te65  1  0.84700600  0.56218500  0.33233100  1
  Te  Te66  1  0.66362100  0.42372500  0.66986000  1
  Te  Te67  1  0.92181700  0.66278200  0.50288400  1
  Te  Te68  1  0.56786800  0.16685400  0.33648500  1
  Te  Te69  1  0.57627500  0.66362100  0.33014000  1
  Te  Te70  1  0.57818300  0.83721800  0.49711600  1
  Te  Te71  1  0.93213200  0.33314600  0.66351500  1
  Te  Te72  1  0.55932000  0.34468100  0.49953200  1
  Te  Te73  1  0.55932000  0.65531900  0.99953200  1
  Te  Te74  1  0.83314600  0.43213200  0.16351500  1
  Te  Te75  1  0.83616400  0.92658300  0.16919500  1
  Te  Te76  1  0.42181700  0.16278200  0.49711600  1
  Te  Te77  1  0.57341700  0.66383600  0.66919500  1
  Te  Te78  1  0.66685400  0.06786800  0.83648500  1
  Te  Te79  1  0.07627500  0.16362100  0.66986000  1
  Te  Te80  1  0.15531900  0.05932000  0.49953200  1
  Te  Te81  1  0.42658300  0.66383600  0.16919500  1
  Te  Te82  1  0.56218500  0.84700600  0.16766900  1
  Te  Te83  1  0.92658300  0.83616400  0.33080500  1
  Te  Te84  1  0.93213200  0.66685400  0.16351500  1
  Te  Te85  1  0.65531900  0.44068000  0.00046800  1
  Te  Te86  1  0.16278200  0.42181700  0.00288400  1
  Te  Te87  1  0.07341700  0.16383600  0.33080500  1
  Te  Te88  1  0.83721800  0.42181700  0.50288400  1
  Te  Te89  1  0.57818300  0.16278200  0.99711600  1
  Te  Te90  1  0.33721800  0.07818300  0.99711600  1
  Te  Te91  1  0.94068000  0.84468100  0.00046800  1
  Te  Te92  1  0.07627500  0.83637900  0.16986000  1
  Te  Te93  1  0.16383600  0.07341700  0.16919500  1
  Te  Te94  1  0.34468100  0.55932000  0.00046800  1
  Te  Te95  1  0.92181700  0.33721800  0.00288400  1
loop_
_geom_bond_atom_site_label_1
_geom_bond_atom_site_label_2
_geom_bond_distance
_geom_bond_site_symmetry_2
Nb0 Te95 2.840986 1_456
Nb0 Te23 2.840986 1_456
Nb0 Te86 2.840986 1_556
Nb0 Te14 2.840986 1_556
Nb0 Te26 2.996631 1_555
Nb0 Te43 2.996631 1_455
Nb0 Te31 2.996631 1_455
Nb0 Te5 2.996631 1_555
Nb1 Te75 2.921328 1_445
Nb1 Te83 2.921328 1_445
Nb1 Te93 2.921328 1_555
Nb1 Te87 2.921328 1_555
Nb1 Te42 2.924004 1_455
Nb1 Te49 2.924004 1_545
Nb1 Te29 2.924004 1_455
Nb1 Te92 2.924004 1_545
Nb2 Te32 2.819557 1_555
Nb2 Te15 2.819557 1_555
Nb2 Te69 2.838149 1_555
Nb2 Te8 2.838149 1_555
Nb2 Te72 2.993640 1_555
Nb2 Te33 2.993640 1_555
Nb2 Te10 3.006971 1_555
Nb2 Te2 3.006971 1_555
Nb3 Te74 2.830909 1_455
Nb3 Te84 2.830909 1_455
Nb3 Te46 2.830909 1_555
Nb3 Te63 2.830909 1_555
Nb3 Te20 2.978135 1_555
Nb3 Te39 2.978135 1_555
Nb3 Te41 2.978135 1_455
Nb3 Te65 2.978135 1_455
Nb4 Te57 2.908986 1_555
Nb4 Te70 2.908986 1_545
Nb4 Te58 2.908986 1_545
Nb4 Te76 2.908986 1_555
Nb4 Te64 2.939831 1_545
Nb4 Te51 2.939831 1_545
Nb4 Te55 2.939831 1_555
Nb4 Te68 2.939831 1_555
Nb5 Te64 2.830909 1_545
Nb5 Te51 2.830909 1_545
Nb5 Te55 2.830909 1_555
Nb5 Te68 2.830909 1_555
Nb5 Te82 2.978135 1_545
Nb5 Te11 2.978135 1_555
Nb5 Te0 2.978135 1_555
Nb5 Te27 2.978135 1_545
Nb6 Te61 2.819557 1_555
Nb6 Te44 2.819557 1_555
Nb6 Te4 2.838149 1_555
Nb6 Te12 2.838149 1_555
Nb6 Te53 2.993640 1_555
Nb6 Te73 2.993640 1_555
Nb6 Te85 3.006971 1_556
Nb6 Te94 3.006971 1_556
Nb7 Te7 2.908986 1_555
Nb7 Te88 2.908986 1_455
Nb7 Te67 2.908986 1_455
Nb7 Te62 2.908986 1_555
Nb7 Te18 2.939831 1_555
Nb7 Te56 2.939831 1_455
Nb7 Te36 2.939831 1_555
Nb7 Te71 2.939831 1_455
Nb8 Te83 2.819557 1_445
Nb8 Te87 2.819557 1_555
Nb8 Te49 2.838149 1_545
Nb8 Te29 2.838149 1_455
Nb8 Te40 2.993640 1_445
Nb8 Te80 2.993640 1_555
Nb8 Te1 3.006971 1_545
Nb8 Te45 3.006971 1_455
Nb9 Te34 2.819557 1_455
Nb9 Te25 2.819557 1_545
Nb9 Te38 2.838149 1_555
Nb9 Te47 2.838149 1_445
Nb9 Te48 2.993640 1_545
Nb9 Te3 2.993640 1_455
Nb9 Te17 3.006971 1_556
Nb9 Te91 3.006971 1_446
Nb10 Te90 2.840986 1_554
Nb10 Te60 2.840986 1_544
Nb10 Te30 2.840986 1_544
Nb10 Te89 2.840986 1_554
Nb10 Te0 2.996631 1_555
Nb10 Te82 2.996631 1_545
Nb10 Te11 2.996631 1_555
Nb10 Te27 2.996631 1_545
Nb11 Te70 2.840986 1_545
Nb11 Te57 2.840986 1_555
Nb11 Te58 2.840986 1_545
Nb11 Te76 2.840986 1_555
Nb11 Te22 2.996631 1_555
Nb11 Te54 2.996631 1_545
Nb11 Te13 2.996631 1_545
Nb11 Te24 2.996631 1_555
Nb12 Te77 2.819557 1_555
Nb12 Te50 2.819557 1_555
Nb12 Te52 2.838149 1_555
Nb12 Te66 2.838149 1_555
Nb12 Te10 2.993640 1_555
Nb12 Te2 2.993640 1_555
Nb12 Te72 3.006971 1_555
Nb12 Te33 3.006971 1_555
Nb13 Te7 2.840986 1_555
Nb13 Te67 2.840986 1_455
Nb13 Te88 2.840986 1_455
Nb13 Te62 2.840986 1_555
Nb13 Te20 2.996631 1_555
Nb13 Te65 2.996631 1_455
Nb13 Te39 2.996631 1_555
Nb13 Te41 2.996631 1_455
Nb14 Te59 2.830909 1_545
Nb14 Te78 2.830909 1_555
Nb14 Te35 2.830909 1_555
Nb14 Te19 2.830909 1_545
Nb14 Te24 2.978135 1_555
Nb14 Te22 2.978135 1_555
Nb14 Te54 2.978135 1_545
Nb14 Te13 2.978135 1_545
Nb15 Te9 2.921328 1_555
Nb15 Te81 2.921328 1_555
Nb15 Te32 2.921328 1_555
Nb15 Te15 2.921328 1_555
Nb15 Te8 2.924004 1_555
Nb15 Te69 2.924004 1_555
Nb15 Te28 2.924004 1_555
Nb15 Te21 2.924004 1_555
Nb16 Te44 2.921328 1_555
Nb16 Te61 2.921328 1_555
Nb16 Te50 2.921328 1_555
Nb16 Te77 2.921328 1_555
Nb16 Te66 2.924004 1_555
Nb16 Te12 2.924004 1_555
Nb16 Te4 2.924004 1_555
Nb16 Te52 2.924004 1_555
Nb17 Te37 2.819557 1_545
Nb17 Te16 2.819557 1_455
Nb17 Te79 2.838149 1_555
Nb17 Te6 2.838149 1_445
Nb17 Te1 2.993640 1_545
Nb17 Te45 2.993640 1_455
Nb17 Te40 3.006971 1_445
Nb17 Te80 3.006971 1_555
Nb18 Te23 2.908986 1_455
Nb18 Te95 2.908986 1_455
Nb18 Te14 2.908986 1_555
Nb18 Te86 2.908986 1_555
Nb18 Te74 2.939831 1_455
Nb18 Te84 2.939831 1_455
Nb18 Te46 2.939831 1_555
Nb18 Te63 2.939831 1_555
Nb19 Te90 2.908986 1_555
Nb19 Te30 2.908986 1_545
Nb19 Te60 2.908986 1_545
Nb19 Te89 2.908986 1_555
Nb19 Te78 2.939831 1_555
Nb19 Te59 2.939831 1_545
Nb19 Te35 2.939831 1_555
Nb19 Te19 2.939831 1_545
Nb20 Te16 2.921328 1_455
Nb20 Te25 2.921328 1_545
Nb20 Te37 2.921328 1_545
Nb20 Te34 2.921328 1_455
Nb20 Te79 2.924004 1_555
Nb20 Te38 2.924004 1_555
Nb20 Te47 2.924004 1_445
Nb20 Te6 2.924004 1_445
Nb21 Te9 2.819557 1_555
Nb21 Te81 2.819557 1_555
Nb21 Te28 2.838149 1_555
Nb21 Te21 2.838149 1_555
Nb21 Te85 2.993640 1_555
Nb21 Te94 2.993640 1_555
Nb21 Te53 3.006971 1_554
Nb21 Te73 3.006971 1_554
Nb22 Te75 2.819557 1_445
Nb22 Te93 2.819557 1_555
Nb22 Te42 2.838149 1_455
Nb22 Te92 2.838149 1_545
Nb22 Te17 2.993640 1_555
Nb22 Te91 2.993640 1_445
Nb22 Te3 3.006971 1_454
Nb22 Te48 3.006971 1_544
Nb23 Te18 2.830909 1_555
Nb23 Te56 2.830909 1_455
Nb23 Te36 2.830909 1_555
Nb23 Te71 2.830909 1_455
Nb23 Te5 2.978135 1_555
Nb23 Te43 2.978135 1_455
Nb23 Te26 2.978135 1_555
Nb23 Te31 2.978135 1_455
Te0 Te9 3.020104 1_555
Te0 Te11 3.094857 1_555
Te0 Te27 3.094857 1_545
Te1 Te67 3.021963 1_455
Te1 Te40 3.115768 1_455
Te1 Te80 3.115768 1_565
Te2 Te62 3.021963 1_555
Te2 Te33 3.115768 1_555
Te2 Te72 3.115768 1_555
Te3 Te60 3.021963 1_545
Te3 Te91 3.115768 1_546
Te10 Te88 3.021963 1_555
Te10 Te33 3.115768 1_555
Te10 Te72 3.115768 1_555
Te11 Te75 3.020104 1_545
Te11 Te82 3.094857 1_545
Te13 Te77 3.020104 1_555
Te13 Te54 3.094857 1_555
Te13 Te22 3.094857 1_565
Te14 Te91 3.021963 1_455
Te15 Te20 3.020104 1_555
Te16 Te54 3.020104 1_545
Te17 Te95 3.021963 1_455
Te17 Te3 3.115768 1_454
Te17 Te48 3.115768 1_544
Te20 Te39 3.094857 1_555
Te20 Te41 3.094857 1_455
Te22 Te37 3.020104 1_545
Te22 Te24 3.094857 1_555
Te23 Te85 3.021963 1_555
Te24 Te50 3.020104 1_555
Te24 Te54 3.094857 1_545
Te25 Te31 3.020104 1_455
Te26 Te34 3.020104 1_455
Te26 Te43 3.094857 1_455
Te26 Te5 3.094857 1_555
Te27 Te93 3.020104 1_565
Te27 Te82 3.094857 1_555
Te30 Te73 3.021963 1_555
Te31 Te43 3.094857 1_555
Te31 Te5 3.094857 1_655
Te32 Te65 3.020104 1_555
Te33 Te70 3.021963 1_555
Te39 Te83 3.020104 1_455
Te39 Te65 3.094857 1_455
Te40 Te57 3.021963 1_565
Te40 Te45 3.115768 1_565
Te41 Te87 3.020104 1_655
Te41 Te65 3.094857 1_555
Te43 Te61 3.020104 1_555
Te44 Te5 3.020104 1_555
Te45 Te7 3.021963 1_655
Te45 Te80 3.115768 1_655
Te48 Te90 3.021963 1_565
Te48 Te91 3.115768 1_456
Te53 Te89 3.021963 1_555
Te53 Te85 3.115768 1_556
Te53 Te94 3.115768 1_556
Te58 Te80 3.021963 1_565
Te72 Te76 3.021963 1_555
Te73 Te85 3.115768 1_556
Te73 Te94 3.115768 1_556
Te81 Te82 3.020104 1_555
Te86 Te94 3.021963 1_555
