# generated using pymatgen
data_Li2ZnSi
_symmetry_space_group_name_H-M   'P 1'
_cell_length_a   4.23328941
_cell_length_b   4.23328941
_cell_length_c   16.27783600
_cell_angle_alpha   90.00000000
_cell_angle_beta   90.00000000
_cell_angle_gamma   119.99999078
_symmetry_Int_Tables_number   1
_chemical_formula_structural   Li2ZnSi
_chemical_formula_sum   'Li8 Zn4 Si4'
_cell_volume   252.62903372
_cell_formula_units_Z   4
loop_
 _symmetry_equiv_pos_site_id
 _symmetry_equiv_pos_as_xyz
  1  'x, y, z'
loop_
 _atom_site_type_symbol
 _atom_site_label
 _atom_site_symmetry_multiplicity
 _atom_site_fract_x
 _atom_site_fract_y
 _atom_site_fract_z
 _atom_site_occupancy
  Li  Li0  1  0.66666700  0.33333300  0.79107200  1
  Li  Li1  1  0.33333300  0.66666700  0.20892800  1
  Li  Li2  1  0.66666700  0.33333300  0.45924700  1
  Li  Li3  1  0.66666700  0.33333300  0.29221200  1
  Li  Li4  1  0.33333300  0.66666700  0.04235900  1
  Li  Li5  1  0.66666700  0.33333300  0.95764100  1
  Li  Li6  1  0.33333300  0.66666700  0.70778800  1
  Li  Li7  1  0.33333300  0.66666700  0.54075300  1
  Zn  Zn0  1  0.00000000  0.00000000  0.87276600  1
  Zn  Zn1  1  0.00000000  0.00000000  0.37745200  1
  Zn  Zn2  1  0.00000000  0.00000000  0.62254800  1
  Zn  Zn3  1  0.00000000  0.00000000  0.12723400  1
  Si  Si0  1  0.33333300  0.66666700  0.87466600  1
  Si  Si1  1  0.66666700  0.33333300  0.62459700  1
  Si  Si2  1  0.33333300  0.66666700  0.37540300  1
  Si  Si3  1  0.66666700  0.33333300  0.12533400  1
loop_
_geom_bond_atom_site_label_1
_geom_bond_atom_site_label_2
_geom_bond_distance
_geom_bond_site_symmetry_2
Li0 Si1 2.709853 1_555
Li0 Li5 2.711383 1_555
Li0 Zn0 2.782434 1_655
Li0 Zn0 2.782438 1_555
Li0 Zn0 2.782438 1_665
Li0 Li6 2.794896 1_545
Li0 Li6 2.794896 1_655
Li0 Li6 2.794903 1_555
Li0 Si0 2.797348 1_545
Li0 Si0 2.797348 1_655
Li0 Si0 2.797354 1_555
Li1 Si2 2.709853 1_555
Li1 Li4 2.711383 1_555
Li1 Zn3 2.782434 1_565
Li1 Zn3 2.782438 1_555
Li1 Zn3 2.782438 1_665
Li1 Li3 2.794896 1_455
Li1 Li3 2.794896 1_565
Li1 Li3 2.794903 1_555
Li1 Si3 2.797348 1_455
Li1 Si3 2.797348 1_565
Li1 Si3 2.797354 1_555
Li2 Si1 2.691540 1_555
Li2 Li3 2.718968 1_555
Li2 Li7 2.780973 1_545
Li2 Li7 2.780973 1_655
Li2 Li7 2.780979 1_555
Li2 Zn1 2.783220 1_655
Li2 Zn1 2.783224 1_665
Li2 Zn1 2.783224 1_555
Li2 Si2 2.799329 1_545
Li2 Si2 2.799329 1_655
Li2 Si2 2.799335 1_555
Li3 Si3 2.716413 1_555
Li3 Si2 2.794162 1_545
Li3 Si2 2.794162 1_655
Li3 Si2 2.794169 1_555
Li3 Zn1 2.810478 1_655
Li3 Zn1 2.810481 1_555
Li3 Zn1 2.810481 1_665
Li4 Si0 2.729679 1_554
Li4 Si3 2.792460 1_455
Li4 Si3 2.792460 1_565
Li4 Si3 2.792466 1_555
Li4 Li5 2.806293 1_454
Li4 Li5 2.806293 1_564
Li4 Li5 2.806299 1_554
Li4 Zn3 2.807550 1_565
Li4 Zn3 2.807553 1_555
Li4 Zn3 2.807553 1_665
Li5 Si3 2.729679 1_556
Li5 Si0 2.792460 1_545
Li5 Si0 2.792460 1_655
Li5 Si0 2.792466 1_555
Li5 Zn0 2.807550 1_655
Li5 Zn0 2.807553 1_665
Li5 Zn0 2.807553 1_555
Li6 Si0 2.716413 1_555
Li6 Li7 2.718968 1_555
Li6 Si1 2.794162 1_455
Li6 Si1 2.794162 1_565
Li6 Si1 2.794169 1_555
Li6 Zn2 2.810478 1_565
Li6 Zn2 2.810481 1_555
Li6 Zn2 2.810481 1_665
Li7 Si2 2.691540 1_555
Li7 Zn2 2.783220 1_565
Li7 Zn2 2.783224 1_665
Li7 Zn2 2.783224 1_555
Li7 Si1 2.799329 1_455
Li7 Si1 2.799329 1_565
Li7 Si1 2.799335 1_555
Si0 Zn0 2.444284 1_565
Si0 Zn0 2.444288 1_555
Si0 Zn0 2.444288 1_665
Si1 Zn2 2.444316 1_655
Si1 Zn2 2.444320 1_665
Si1 Zn2 2.444320 1_555
Si2 Zn1 2.444316 1_565
Si2 Zn1 2.444320 1_555
Si2 Zn1 2.444320 1_665
Si3 Zn3 2.444284 1_655
Si3 Zn3 2.444288 1_555
Si3 Zn3 2.444288 1_665
