# generated using pymatgen
data_Bi24Cl10O31
_symmetry_space_group_name_H-M   'P 1'
_cell_length_a   7.98054110
_cell_length_b   10.07477227
_cell_length_c   29.67265661
_cell_angle_alpha   88.86530684
_cell_angle_beta   90.00000000
_cell_angle_gamma   90.00000000
_symmetry_Int_Tables_number   1
_chemical_formula_structural   Bi24Cl10O31
_chemical_formula_sum   'Bi48 Cl20 O62'
_cell_volume   2385.27708568
_cell_formula_units_Z   2
loop_
 _symmetry_equiv_pos_site_id
 _symmetry_equiv_pos_as_xyz
  1  'x, y, z'
loop_
 _atom_site_type_symbol
 _atom_site_label
 _atom_site_symmetry_multiplicity
 _atom_site_fract_x
 _atom_site_fract_y
 _atom_site_fract_z
 _atom_site_occupancy
  Bi  Bi0  1  0.85090707  0.91872912  0.68674919  1
  Bi  Bi1  1  0.37581499  0.09983419  0.09859887  1
  Bi  Bi2  1  0.62418501  0.90016581  0.90140113  1
  Bi  Bi3  1  0.34376145  0.07652082  0.80440444  1
  Bi  Bi4  1  0.12277051  0.40263091  0.83403661  1
  Bi  Bi5  1  0.14909293  0.91872912  0.18674919  1
  Bi  Bi6  1  0.87722949  0.59736909  0.16596339  1
  Bi  Bi7  1  0.10882096  0.79361324  0.78134780  1
  Bi  Bi8  1  0.62423653  0.44212405  0.54707475  1
  Bi  Bi9  1  0.89117904  0.79361324  0.28134780  1
  Bi  Bi10  1  0.62423653  0.55787595  0.95292525  1
  Bi  Bi11  1  0.11767907  0.24664830  0.42656474  1
  Bi  Bi12  1  0.37576347  0.44212405  0.04707475  1
  Bi  Bi13  1  0.15754494  0.06627854  0.59160308  1
  Bi  Bi14  1  0.37576347  0.55787595  0.45292525  1
  Bi  Bi15  1  0.37581499  0.90016581  0.40140113  1
  Bi  Bi16  1  0.34826819  0.74612971  0.57333261  1
  Bi  Bi17  1  0.65173181  0.74612971  0.07333261  1
  Bi  Bi18  1  0.37460059  0.75423040  0.28305752  1
  Bi  Bi19  1  0.12417123  0.42954424  0.54531996  1
  Bi  Bi20  1  0.62007630  0.39553097  0.83683518  1
  Bi  Bi21  1  0.12277051  0.59736909  0.66596339  1
  Bi  Bi22  1  0.10882096  0.20638676  0.71865220  1
  Bi  Bi23  1  0.34376145  0.92347918  0.69559556  1
  Bi  Bi24  1  0.12417123  0.57045576  0.95468004  1
  Bi  Bi25  1  0.84245506  0.93372146  0.40839692  1
  Bi  Bi26  1  0.37992370  0.39553097  0.33683518  1
  Bi  Bi27  1  0.88232093  0.75335170  0.57343526  1
  Bi  Bi28  1  0.87582877  0.42954424  0.04531996  1
  Bi  Bi29  1  0.87722949  0.40263091  0.33403661  1
  Bi  Bi30  1  0.84245506  0.06627854  0.09160308  1
  Bi  Bi31  1  0.87582877  0.57045576  0.45468004  1
  Bi  Bi32  1  0.65623855  0.07652082  0.30440444  1
  Bi  Bi33  1  0.37992370  0.60446903  0.16316482  1
  Bi  Bi34  1  0.88232093  0.24664830  0.92656474  1
  Bi  Bi35  1  0.62007630  0.60446903  0.66316482  1
  Bi  Bi36  1  0.11767907  0.75335170  0.07343526  1
  Bi  Bi37  1  0.15754494  0.93372146  0.90839692  1
  Bi  Bi38  1  0.14909293  0.08127088  0.31325081  1
  Bi  Bi39  1  0.34826819  0.25387029  0.92666739  1
  Bi  Bi40  1  0.89117904  0.20638676  0.21865220  1
  Bi  Bi41  1  0.85090707  0.08127088  0.81325081  1
  Bi  Bi42  1  0.37460059  0.24576960  0.21694248  1
  Bi  Bi43  1  0.62539941  0.75423040  0.78305752  1
  Bi  Bi44  1  0.65623855  0.92347918  0.19559556  1
  Bi  Bi45  1  0.62539941  0.24576960  0.71694248  1
  Bi  Bi46  1  0.62418501  0.09983419  0.59859887  1
  Bi  Bi47  1  0.65173181  0.25387029  0.42666739  1
  Cl  Cl0  1  0.62209912  0.80016015  0.48918880  1
  Cl  Cl1  1  0.87154386  0.19516877  0.51409180  1
  Cl  Cl2  1  0.11471579  0.50000000  0.25000000  1
  Cl  Cl3  1  0.87154386  0.80483123  0.98590820  1
  Cl  Cl4  1  0.37790088  0.80016015  0.98918880  1
  Cl  Cl5  1  0.62503513  0.66298558  0.36980638  1
  Cl  Cl6  1  0.37496487  0.33701442  0.63019362  1
  Cl  Cl7  1  0.87520130  0.65358338  0.86837669  1
  Cl  Cl8  1  0.87520130  0.34641662  0.63162331  1
  Cl  Cl9  1  0.37790088  0.19983985  0.51081120  1
  Cl  Cl10  1  0.12845614  0.19516877  0.01409180  1
  Cl  Cl11  1  0.12479870  0.65358338  0.36837669  1
  Cl  Cl12  1  0.37496487  0.66298558  0.86980638  1
  Cl  Cl13  1  0.37058682  0.50000000  0.75000000  1
  Cl  Cl14  1  0.62209912  0.19983985  0.01081120  1
  Cl  Cl15  1  0.88528421  0.50000000  0.75000000  1
  Cl  Cl16  1  0.62503513  0.33701442  0.13019362  1
  Cl  Cl17  1  0.12479870  0.34641662  0.13162331  1
  Cl  Cl18  1  0.62941318  0.50000000  0.25000000  1
  Cl  Cl19  1  0.12845614  0.80483123  0.48590820  1
  O  O0  1  0.87175449  0.39272090  0.41246982  1
  O  O1  1  0.63092953  0.69507143  0.14581796  1
  O  O2  1  0.87175449  0.60727910  0.08753018  1
  O  O3  1  0.63178597  0.07777014  0.67027032  1
  O  O4  1  0.39526968  0.14191219  0.73151097  1
  O  O5  1  0.37281249  0.21551331  0.29616591  1
  O  O6  1  0.22076834  0.93361889  0.10547042  1
  O  O7  1  0.12419777  0.52555732  0.02805218  1
  O  O8  1  0.36907047  0.69507143  0.64581796  1
  O  O9  1  0.11513579  0.86127495  0.59418140  1
  O  O10  1  0.40303886  0.01779553  0.90035862  1
  O  O11  1  0.87729698  0.30776786  0.85414349  1
  O  O12  1  0.12270302  0.30776786  0.35414349  1
  O  O13  1  0.85129563  0.13280404  0.73385572  1
  O  O14  1  0.87729698  0.69223214  0.64585651  1
  O  O15  1  0.12450013  0.77591245  0.70483480  1
  O  O16  1  0.87718890  0.05998383  0.16214910  1
  O  O17  1  0.37281249  0.78448669  0.20383409  1
  O  O18  1  0.87580223  0.47444268  0.97194782  1
  O  O19  1  0.22076834  0.06638111  0.39452958  1
  O  O20  1  0.77923166  0.06638111  0.89452958  1
  O  O21  1  0.59696114  0.98220447  0.09964138  1
  O  O22  1  0.62672517  0.53063535  0.02781240  1
  O  O23  1  0.62176478  0.62595913  0.58869302  1
  O  O24  1  0.12281110  0.05998383  0.66214910  1
  O  O25  1  0.62718751  0.21551331  0.79616591  1
  O  O26  1  0.87580223  0.52555732  0.52805218  1
  O  O27  1  0.12824551  0.60727910  0.58753018  1
  O  O28  1  0.87718890  0.94001617  0.33785090  1
  O  O29  1  0.36821403  0.07777014  0.17027032  1
  O  O30  1  0.62718751  0.78448669  0.70383409  1
  O  O31  1  0.59696114  0.01779553  0.40035862  1
  O  O32  1  0.77923166  0.93361889  0.60547042  1
  O  O33  1  0.12824551  0.39272090  0.91246982  1
  O  O34  1  0.62672517  0.46936465  0.47218760  1
  O  O35  1  0.11513579  0.13872505  0.90581860  1
  O  O36  1  0.14870437  0.13280404  0.23385572  1
  O  O37  1  0.63178597  0.92222986  0.82972968  1
  O  O38  1  0.39526968  0.85808781  0.76848903  1
  O  O39  1  0.12450013  0.22408755  0.79516520  1
  O  O40  1  0.37327483  0.53063535  0.52781240  1
  O  O41  1  0.85146304  -0.00000000  0.25000000  1
  O  O42  1  0.62176478  0.37404087  0.91130698  1
  O  O43  1  0.36821403  0.92222986  0.32972968  1
  O  O44  1  0.37823522  0.37404087  0.41130698  1
  O  O45  1  0.88486421  0.86127495  0.09418140  1
  O  O46  1  0.12281110  0.94001617  0.83785090  1
  O  O47  1  0.37823522  0.62595913  0.08869302  1
  O  O48  1  0.87549987  0.77591245  0.20483480  1
  O  O49  1  0.12419777  0.47444268  0.47194782  1
  O  O50  1  0.60473032  0.85808781  0.26848903  1
  O  O51  1  0.12270302  0.69223214  0.14585651  1
  O  O52  1  0.88486421  0.13872505  0.40581860  1
  O  O53  1  0.87549987  0.22408755  0.29516520  1
  O  O54  1  0.40303886  0.98220447  0.59964138  1
  O  O55  1  0.63092953  0.30492857  0.35418204  1
  O  O56  1  0.14853696  -0.00000000  0.75000000  1
  O  O57  1  0.85129563  0.86719596  0.76614428  1
  O  O58  1  0.60473032  0.14191219  0.23151097  1
  O  O59  1  0.37327483  0.46936465  0.97218760  1
  O  O60  1  0.36907047  0.30492857  0.85418204  1
  O  O61  1  0.14870437  0.86719596  0.26614428  1
loop_
_geom_bond_atom_site_label_1
_geom_bond_atom_site_label_2
_geom_bond_distance
_geom_bond_site_symmetry_2
Bi0 O30 2.290560 1_555
Bi0 O57 2.402335 1_555
Bi0 O3 2.415244 1_565
Bi0 O32 2.480310 1_555
Bi0 O13 2.593218 1_565
Bi0 O14 2.614084 1_555
Bi0 O15 2.663646 1_655
Bi0 O24 2.688042 1_665
Bi1 O6 2.088857 1_545
Bi1 O21 2.125724 1_545
Bi1 O29 2.134748 1_555
Bi2 O20 2.088857 1_565
Bi2 O10 2.125724 1_565
Bi2 O37 2.134748 1_555
Bi3 O4 2.285800 1_555
Bi3 O39 2.308935 1_555
Bi3 O56 2.382650 1_555
Bi3 O46 2.435457 1_545
Bi3 O38 2.498100 1_545
Bi3 O25 2.668942 1_555
Bi3 O60 2.766290 1_555
Bi4 O39 2.156005 1_555
Bi4 O11 2.254886 1_455
Bi4 O60 2.273002 1_555
Bi4 O33 2.327896 1_555
Bi4 Cl15 3.267332 1_455
Bi5 O17 2.290560 1_555
Bi5 O61 2.402335 1_555
Bi5 O29 2.415244 1_565
Bi5 O6 2.480310 1_555
Bi5 O36 2.593218 1_565
Bi5 O51 2.614084 1_555
Bi5 O48 2.663646 1_455
Bi5 O16 2.688042 1_465
Bi6 O48 2.156005 1_555
Bi6 O51 2.254886 1_655
Bi6 O1 2.273002 1_555
Bi6 O2 2.327896 1_555
Bi6 Cl2 3.267332 1_655
Bi7 O57 2.227926 1_455
Bi7 O46 2.257640 1_555
Bi7 O56 2.283105 1_565
Bi7 O15 2.284285 1_555
Bi7 O38 2.404906 1_555
Bi8 O34 2.233672 1_555
Bi8 O26 2.244316 1_555
Bi8 O23 2.246392 1_555
Bi8 O40 2.261180 1_555
Bi9 O61 2.227926 1_655
Bi9 O28 2.257640 1_555
Bi9 O41 2.283105 1_565
Bi9 O48 2.284285 1_555
Bi9 O50 2.404906 1_555
Bi10 O22 2.233672 1_556
Bi10 O18 2.244316 1_555
Bi10 O42 2.246392 1_555
Bi10 O59 2.261180 1_555
Bi11 O12 2.224021 1_555
Bi11 O19 2.224232 1_555
Bi11 O52 2.244953 1_455
Bi11 O44 2.480529 1_555
Bi11 O0 2.483573 1_455
Bi11 O49 2.684298 1_555
Bi12 O59 2.233672 1_554
Bi12 O7 2.244316 1_555
Bi12 O47 2.246392 1_555
Bi12 O22 2.261180 1_555
Bi13 O9 2.092814 1_545
Bi13 O24 2.111269 1_555
Bi13 O54 2.145858 1_545
Bi14 O40 2.233672 1_555
Bi14 O49 2.244316 1_555
Bi14 O44 2.246392 1_555
Bi14 O34 2.261180 1_555
Bi15 O19 2.088857 1_565
Bi15 O31 2.125724 1_565
Bi15 O43 2.134748 1_555
Bi16 O8 2.207811 1_555
Bi16 O27 2.279081 1_555
Bi16 O9 2.284388 1_555
Bi16 O23 2.532908 1_555
Bi16 O54 2.555541 1_555
Bi16 O40 2.587250 1_555
Bi16 Cl19 3.177375 1_555
Bi17 O1 2.207811 1_555
Bi17 O2 2.279081 1_555
Bi17 O45 2.284388 1_555
Bi17 O47 2.532908 1_555
Bi17 O21 2.555541 1_555
Bi17 O22 2.587250 1_555
Bi17 Cl3 3.177375 1_554
Bi18 O50 2.153308 1_555
Bi18 O61 2.185066 1_555
Bi18 O43 2.208640 1_555
Bi18 O17 2.364500 1_555
Bi19 O27 2.205674 1_555
Bi19 O49 2.214853 1_555
Bi19 O26 2.259953 1_455
Bi19 O40 2.288727 1_555
Bi20 O25 2.198969 1_555
Bi20 O42 2.216127 1_555
Bi20 O60 2.256590 1_555
Bi20 O11 2.289412 1_555
Bi21 O15 2.156005 1_555
Bi21 O14 2.254886 1_455
Bi21 O8 2.273002 1_555
Bi21 O27 2.327896 1_555
Bi21 Cl15 3.267332 1_455
Bi22 O13 2.227926 1_455
Bi22 O24 2.257640 1_555
Bi22 O56 2.283105 1_555
Bi22 O39 2.284285 1_555
Bi22 O4 2.404906 1_555
Bi23 O38 2.285800 1_555
Bi23 O15 2.308935 1_555
Bi23 O56 2.382650 1_565
Bi23 O24 2.435457 1_565
Bi23 O4 2.498100 1_565
Bi23 O30 2.668942 1_555
Bi23 O8 2.766290 1_555
Bi24 O33 2.205674 1_555
Bi24 O7 2.214853 1_556
Bi24 O18 2.259953 1_455
Bi24 O59 2.288727 1_555
Bi25 O52 2.092814 1_565
Bi25 O28 2.111269 1_555
Bi25 O31 2.145858 1_565
Bi26 O5 2.198969 1_555
Bi26 O44 2.216127 1_555
Bi26 O55 2.256590 1_555
Bi26 O12 2.289412 1_555
Bi27 O14 2.224021 1_555
Bi27 O32 2.224232 1_555
Bi27 O9 2.244953 1_655
Bi27 O23 2.480529 1_555
Bi27 O27 2.483573 1_655
Bi27 O26 2.684298 1_555
Bi28 O2 2.205674 1_555
Bi28 O18 2.214853 1_554
Bi28 O7 2.259953 1_655
Bi28 O22 2.288727 1_555
Bi29 O53 2.156005 1_555
Bi29 O12 2.254886 1_655
Bi29 O55 2.273002 1_555
Bi29 O0 2.327896 1_555
Bi29 Cl2 3.267332 1_655
Bi30 O45 2.092814 1_545
Bi30 O16 2.111269 1_555
Bi30 O21 2.145858 1_545
Bi31 O0 2.205674 1_555
Bi31 O26 2.214853 1_555
Bi31 O49 2.259953 1_655
Bi31 O34 2.288727 1_555
Bi32 O58 2.285800 1_555
Bi32 O53 2.308935 1_555
Bi32 O41 2.382650 1_555
Bi32 O28 2.435457 1_545
Bi32 O50 2.498100 1_545
Bi32 O5 2.668942 1_555
Bi32 O55 2.766290 1_555
Bi33 O17 2.198969 1_555
Bi33 O47 2.216127 1_555
Bi33 O1 2.256590 1_555
Bi33 O51 2.289412 1_555
Bi34 O11 2.224021 1_555
Bi34 O20 2.224232 1_555
Bi34 O35 2.244953 1_655
Bi34 O42 2.480529 1_555
Bi34 O33 2.483573 1_655
Bi34 O18 2.684298 1_555
Bi35 O30 2.198969 1_555
Bi35 O23 2.216127 1_555
Bi35 O8 2.256590 1_555
Bi35 O14 2.289412 1_555
Bi36 O51 2.224021 1_555
Bi36 O6 2.224232 1_555
Bi36 O45 2.244953 1_455
Bi36 O47 2.480529 1_555
Bi36 O2 2.483573 1_455
Bi36 O7 2.684298 1_555
Bi37 O35 2.092814 1_565
Bi37 O46 2.111269 1_555
Bi37 O10 2.145858 1_565
Bi38 O5 2.290560 1_555
Bi38 O36 2.402335 1_555
Bi38 O43 2.415244 1_545
Bi38 O19 2.480310 1_555
Bi38 O61 2.593218 1_545
Bi38 O12 2.614084 1_555
Bi38 O53 2.663646 1_455
Bi38 O28 2.688042 1_445
Bi39 O60 2.207811 1_555
Bi39 O33 2.279081 1_555
Bi39 O35 2.284388 1_555
Bi39 O42 2.532908 1_555
Bi39 O10 2.555541 1_555
Bi39 O59 2.587250 1_555
Bi39 Cl10 3.177375 1_556
Bi40 O36 2.227926 1_655
Bi40 O16 2.257640 1_555
Bi40 O41 2.283105 1_555
Bi40 O53 2.284285 1_555
Bi40 O58 2.404906 1_555
Bi41 O25 2.290560 1_555
Bi41 O13 2.402335 1_555
Bi41 O37 2.415244 1_545
Bi41 O20 2.480310 1_555
Bi41 O57 2.593218 1_545
Bi41 O11 2.614084 1_555
Bi41 O39 2.663646 1_655
Bi41 O46 2.688042 1_645
Bi42 O58 2.153308 1_555
Bi42 O36 2.185066 1_555
Bi42 O29 2.208640 1_555
Bi42 O5 2.364500 1_555
Bi43 O38 2.153308 1_555
Bi43 O57 2.185066 1_555
Bi43 O37 2.208640 1_555
Bi43 O30 2.364500 1_555
Bi44 O50 2.285800 1_555
Bi44 O48 2.308935 1_555
Bi44 O41 2.382650 1_565
Bi44 O16 2.435457 1_565
Bi44 O58 2.498100 1_565
Bi44 O17 2.668942 1_555
Bi44 O1 2.766290 1_555
Bi45 O4 2.153308 1_555
Bi45 O13 2.185066 1_555
Bi45 O3 2.208640 1_555
Bi45 O25 2.364500 1_555
Bi46 O32 2.088857 1_545
Bi46 O54 2.125724 1_545
Bi46 O3 2.134748 1_555
Bi47 O55 2.207811 1_555
Bi47 O0 2.279081 1_555
Bi47 O52 2.284388 1_555
Bi47 O44 2.532908 1_555
Bi47 O31 2.555541 1_555
Bi47 O34 2.587250 1_555
Bi47 Cl1 3.177375 1_555
