# generated using pymatgen
data_CrHg3(SO2)2
_symmetry_space_group_name_H-M   'P 1'
_cell_length_a   15.33175100
_cell_length_b   7.71704000
_cell_length_c   7.72470242
_cell_angle_alpha   60.53722996
_cell_angle_beta   90.00000000
_cell_angle_gamma   90.00000000
_symmetry_Int_Tables_number   1
_chemical_formula_structural   CrHg3(SO2)2
_chemical_formula_sum   'Cr4 Hg12 S8 O16'
_cell_volume   795.75720869
_cell_formula_units_Z   4
loop_
 _symmetry_equiv_pos_site_id
 _symmetry_equiv_pos_as_xyz
  1  'x, y, z'
loop_
 _atom_site_type_symbol
 _atom_site_label
 _atom_site_symmetry_multiplicity
 _atom_site_fract_x
 _atom_site_fract_y
 _atom_site_fract_z
 _atom_site_occupancy
  Cr  Cr0  1  0.40246400  0.37911000  0.39497500  1
  Cr  Cr1  1  0.90246400  0.62089000  0.10502500  1
  Cr  Cr2  1  0.59753600  0.62089000  0.60502500  1
  Cr  Cr3  1  0.09753600  0.37911000  0.89497500  1
  Hg  Hg0  1  0.36288800  0.88937400  0.42080800  1
  Hg  Hg1  1  0.86288800  0.11062600  0.07919200  1
  Hg  Hg2  1  0.54415100  0.17183900  0.12962400  1
  Hg  Hg3  1  0.83619200  0.59926700  0.60870700  1
  Hg  Hg4  1  0.04415100  0.82816100  0.37037600  1
  Hg  Hg5  1  0.66380800  0.59926700  0.10870700  1
  Hg  Hg6  1  0.63711200  0.11062600  0.57919200  1
  Hg  Hg7  1  0.95584900  0.17183900  0.62962400  1
  Hg  Hg8  1  0.33619200  0.40073300  0.89129300  1
  Hg  Hg9  1  0.13711200  0.88937400  0.92080800  1
  Hg  Hg10  1  0.16380800  0.40073300  0.39129300  1
  Hg  Hg11  1  0.45584900  0.82816100  0.87037600  1
  S  S0  1  0.60004700  0.93174600  0.92924500  1
  S  S1  1  0.10004700  0.06825400  0.57075500  1
  S  S2  1  0.81668400  0.24241500  0.73757000  1
  S  S3  1  0.68331600  0.24241500  0.23757000  1
  S  S4  1  0.31668400  0.75758500  0.76243000  1
  S  S5  1  0.18331600  0.75758500  0.26243000  1
  S  S6  1  0.39995300  0.06825400  0.07075500  1
  S  S7  1  0.89995300  0.93174600  0.42924500  1
  O  O0  1  0.53976600  0.82505600  0.45701200  1
  O  O1  1  0.81066000  0.68984400  0.17539000  1
  O  O2  1  0.12475400  0.50551200  0.01059700  1
  O  O3  1  0.37524600  0.50551200  0.51059700  1
  O  O4  1  0.87524600  0.49448800  0.98940300  1
  O  O5  1  0.62475400  0.49448800  0.48940300  1
  O  O6  1  0.96282100  0.48299800  0.30629700  1
  O  O7  1  0.53717900  0.48299800  0.80629700  1
  O  O8  1  0.46282100  0.51700200  0.19370300  1
  O  O9  1  0.03717900  0.51700200  0.69370300  1
  O  O10  1  0.68934000  0.68984400  0.67539000  1
  O  O11  1  0.18934000  0.31015600  0.82461000  1
  O  O12  1  0.31066000  0.31015600  0.32461000  1
  O  O13  1  0.96023400  0.82505600  0.95701200  1
  O  O14  1  0.46023400  0.17494400  0.54298800  1
  O  O15  1  0.03976600  0.17494400  0.04298800  1
loop_
_geom_bond_atom_site_label_1
_geom_bond_atom_site_label_2
_geom_bond_distance
_geom_bond_site_symmetry_2
Cr0 O8 1.666871 1_555
Cr0 O3 1.667447 1_555
Cr0 O14 1.673932 1_555
Cr0 O12 1.686482 1_555
Cr1 O6 1.666871 1_555
Cr1 O4 1.667447 1_554
Cr1 O13 1.673932 1_554
Cr1 O1 1.686482 1_555
Cr2 O7 1.666871 1_555
Cr2 O5 1.667447 1_555
Cr2 O0 1.673932 1_555
Cr2 O10 1.686482 1_555
Cr3 O9 1.666871 1_555
Cr3 O2 1.667447 1_556
Cr3 O15 1.673932 1_556
Cr3 O11 1.686482 1_555
Hg0 S4 2.420733 1_555
Hg0 S6 2.422490 1_565
Hg0 O3 2.696462 1_555
Hg0 O0 2.746297 1_555
Hg1 S2 2.420733 1_554
Hg1 S7 2.422490 1_545
Hg1 O4 2.696462 1_554
Hg1 O15 2.746297 1_655
Hg2 S3 2.447677 1_555
Hg2 S6 2.468005 1_555
Hg2 O7 2.472992 1_554
Hg2 O0 2.627598 1_545
Hg3 S7 2.441633 1_555
Hg3 S2 2.442818 1_555
Hg3 O10 2.485428 1_555
Hg3 O4 2.705787 1_555
Hg4 S5 2.447677 1_555
Hg4 S7 2.468005 1_455
Hg4 O9 2.472992 1_555
Hg4 O15 2.627598 1_565
Hg5 S0 2.441633 1_554
Hg5 S3 2.442818 1_555
Hg5 O1 2.485428 1_555
Hg5 O5 2.705787 1_555
Hg6 S3 2.420733 1_555
Hg6 S0 2.422490 1_545
Hg6 O5 2.696462 1_555
Hg6 O14 2.746297 1_555
Hg7 S2 2.447677 1_555
Hg7 S1 2.468005 1_655
Hg7 O6 2.472992 1_555
Hg7 O13 2.627598 1_545
Hg8 S6 2.441633 1_556
Hg8 S4 2.442818 1_555
Hg8 O11 2.485428 1_555
Hg8 O3 2.705787 1_555
Hg9 S5 2.420733 1_556
Hg9 S1 2.422490 1_565
Hg9 O2 2.696462 1_556
Hg9 O13 2.746297 1_455
Hg10 S1 2.441633 1_555
Hg10 S5 2.442818 1_555
Hg10 O12 2.485428 1_555
Hg10 O2 2.705787 1_555
Hg11 S4 2.447677 1_555
Hg11 S0 2.468005 1_555
Hg11 O8 2.472992 1_556
Hg11 O14 2.627598 1_565
