# generated using pymatgen
data_K6NbTlAs4
_symmetry_space_group_name_H-M   'P 1'
_cell_length_a   7.87855700
_cell_length_b   10.55825800
_cell_length_c   19.01032100
_cell_angle_alpha   90.00000000
_cell_angle_beta   90.00000000
_cell_angle_gamma   90.00000000
_symmetry_Int_Tables_number   1
_chemical_formula_structural   K6NbTlAs4
_chemical_formula_sum   'K24 Nb4 Tl4 As16'
_cell_volume   1581.35145239
_cell_formula_units_Z   4
loop_
 _symmetry_equiv_pos_site_id
 _symmetry_equiv_pos_as_xyz
  1  'x, y, z'
loop_
 _atom_site_type_symbol
 _atom_site_label
 _atom_site_symmetry_multiplicity
 _atom_site_fract_x
 _atom_site_fract_y
 _atom_site_fract_z
 _atom_site_occupancy
  K  K0  1  0.67891900  0.75000000  0.15237200  1
  K  K1  1  0.49372200  0.95409400  0.75684600  1
  K  K2  1  0.17891900  0.25000000  0.34762800  1
  K  K3  1  0.55584200  0.75000000  0.50282100  1
  K  K4  1  0.82108100  0.75000000  0.65237200  1
  K  K5  1  0.99372200  0.45409400  0.74315400  1
  K  K6  1  0.71948400  0.01892800  0.92129900  1
  K  K7  1  0.99372200  0.04590600  0.74315400  1
  K  K8  1  0.32108100  0.25000000  0.84762800  1
  K  K9  1  0.50627800  0.04590600  0.24315400  1
  K  K10  1  0.00627800  0.95409400  0.25684600  1
  K  K11  1  0.00627800  0.54590600  0.25684600  1
  K  K12  1  0.28051600  0.98107200  0.07870100  1
  K  K13  1  0.50627800  0.45409400  0.24315400  1
  K  K14  1  0.05584200  0.25000000  0.99717900  1
  K  K15  1  0.78051600  0.48107200  0.42129900  1
  K  K16  1  0.78051600  0.01892800  0.42129900  1
  K  K17  1  0.44415800  0.25000000  0.49717900  1
  K  K18  1  0.28051600  0.51892800  0.07870100  1
  K  K19  1  0.21948400  0.98107200  0.57870100  1
  K  K20  1  0.21948400  0.51892800  0.57870100  1
  K  K21  1  0.94415800  0.75000000  0.00282100  1
  K  K22  1  0.71948400  0.48107200  0.92129900  1
  K  K23  1  0.49372200  0.54590600  0.75684600  1
  Nb  Nb0  1  0.10502800  0.75000000  0.83036100  1
  Nb  Nb1  1  0.39497200  0.75000000  0.33036100  1
  Nb  Nb2  1  0.60502800  0.25000000  0.66963900  1
  Nb  Nb3  1  0.89497200  0.25000000  0.16963900  1
  Tl  Tl0  1  0.05981200  0.75000000  0.44889700  1
  Tl  Tl1  1  0.94018800  0.25000000  0.55110300  1
  Tl  Tl2  1  0.55981200  0.25000000  0.05110300  1
  Tl  Tl3  1  0.44018800  0.75000000  0.94889700  1
  As  As0  1  0.71243200  0.44418100  0.60217900  1
  As  As1  1  0.78756800  0.44418100  0.10217900  1
  As  As2  1  0.71243200  0.05581900  0.60217900  1
  As  As3  1  0.78932900  0.75000000  0.83027800  1
  As  As4  1  0.29467100  0.75000000  0.20509900  1
  As  As5  1  0.70532900  0.25000000  0.79490100  1
  As  As6  1  0.21243200  0.94418100  0.89782100  1
  As  As7  1  0.21243200  0.55581900  0.89782100  1
  As  As8  1  0.28756800  0.94418100  0.39782100  1
  As  As9  1  0.71067100  0.75000000  0.33027800  1
  As  As10  1  0.79467100  0.25000000  0.29490100  1
  As  As11  1  0.28756800  0.55581900  0.39782100  1
  As  As12  1  0.28932900  0.25000000  0.66972200  1
  As  As13  1  0.20532900  0.75000000  0.70509900  1
  As  As14  1  0.21067100  0.25000000  0.16972200  1
  As  As15  1  0.78756800  0.05581900  0.10217900  1
loop_
_geom_bond_atom_site_label_1
_geom_bond_atom_site_label_2
_geom_bond_distance
_geom_bond_site_symmetry_2
K0 K21 3.528395 1_555
K3 Nb1 3.514976 1_555
K3 K4 3.528395 1_555
K3 Tl0 4.040213 1_555
K3 Tl0 4.100753 1_655
K6 Tl3 3.630356 1_545
K6 Tl2 3.691054 1_556
K12 Tl2 3.630356 1_565
K12 K14 3.687450 1_564
K12 Tl3 3.691054 1_554
K12 K21 3.880157 1_455
K14 Nb3 3.514976 1_456
K14 K8 3.528395 1_555
K14 K18 3.687450 1_556
K14 K22 3.880157 1_455
K14 K6 3.880157 1_455
K14 Tl2 4.040213 1_456
K14 Tl2 4.100753 1_556
K15 Tl0 3.630356 1_655
K15 K3 3.687450 1_555
K15 Tl1 3.691054 1_555
K15 K17 3.880157 1_555
K16 Tl0 3.630356 1_645
K16 K3 3.687450 1_545
K16 Tl1 3.691054 1_555
K16 K17 3.880157 1_555
K17 Nb2 3.514976 1_555
K17 K2 3.528395 1_555
K17 K20 3.687450 1_555
K17 K19 3.687450 1_545
K17 Tl1 4.040213 1_555
K17 Tl1 4.100753 1_455
K18 Tl2 3.630356 1_555
K18 Tl3 3.691054 1_554
K18 K21 3.880157 1_455
K19 Tl1 3.630356 1_465
K19 Tl0 3.691054 1_555
K19 K3 3.880157 1_555
K20 Tl1 3.630356 1_455
K20 Tl0 3.691054 1_555
K20 K3 3.880157 1_555
K21 Nb0 3.514976 1_654
K21 K22 3.687450 1_554
K21 K6 3.687450 1_564
K21 Tl3 4.040213 1_654
K21 Tl3 4.100753 1_554
K22 Tl3 3.630356 1_555
K22 Tl2 3.691054 1_556
As0 Nb2 2.562041 1_555
As0 Tl1 2.892402 1_555
As0 K4 3.474061 1_555
As0 K5 3.479168 1_555
As0 K15 3.501903 1_555
As0 K17 3.557398 1_555
As0 K23 3.573217 1_555
As0 K3 3.938983 1_555
As1 Nb3 2.562041 1_555
As1 Tl2 2.892402 1_555
As1 K0 3.474061 1_555
As1 K13 3.479168 1_555
As1 K22 3.501903 1_554
As1 K14 3.557398 1_654
As1 K11 3.573217 1_655
As1 K21 3.938983 1_555
As2 Nb2 2.562041 1_555
As2 Tl1 2.892402 1_555
As2 K4 3.474061 1_545
As2 K7 3.479168 1_555
As2 K16 3.501903 1_555
As2 K17 3.557398 1_555
As2 K1 3.573217 1_545
As2 K3 3.938983 1_545
As3 Nb0 2.487253 1_655
As3 K22 3.370331 1_555
As3 K6 3.370331 1_565
As3 K4 3.391289 1_555
As3 K1 3.466447 1_555
As3 K23 3.466447 1_555
As3 K21 3.499575 1_556
As4 Nb1 2.508966 1_555
As4 K0 3.188947 1_555
As4 K10 3.282339 1_555
As4 K11 3.282339 1_555
As4 K12 3.426139 1_555
As4 K18 3.426139 1_555
As4 K9 3.614378 1_565
As4 K13 3.614378 1_555
As5 Nb2 2.508966 1_555
As5 K8 3.188947 1_555
As5 K5 3.282339 1_555
As5 K7 3.282339 1_555
As5 K22 3.426139 1_555
As5 K6 3.426139 1_555
As5 K23 3.614378 1_555
As5 K1 3.614378 1_545
As6 Nb0 2.562041 1_555
As6 Tl3 2.892402 1_555
As6 K8 3.474061 1_565
As6 K1 3.479168 1_555
As6 K12 3.501903 1_556
As6 K21 3.557398 1_456
As6 K7 3.573217 1_465
As6 K14 3.938983 1_565
As7 Nb0 2.562041 1_555
As7 Tl3 2.892402 1_555
As7 K8 3.474061 1_555
As7 K23 3.479168 1_555
As7 K18 3.501903 1_556
As7 K21 3.557398 1_456
As7 K5 3.573217 1_455
As7 K14 3.938983 1_555
As8 Nb1 2.562041 1_555
As8 Tl0 2.892402 1_555
As8 K2 3.474061 1_565
As8 K10 3.479168 1_555
As8 K19 3.501903 1_555
As8 K3 3.557398 1_555
As8 K9 3.573217 1_565
As8 K17 3.938983 1_565
As9 Nb1 2.487253 1_555
As9 K15 3.370331 1_555
As9 K16 3.370331 1_565
As9 K0 3.391289 1_555
As9 K11 3.466447 1_655
As9 K10 3.466447 1_655
As9 K3 3.499575 1_555
As10 Nb3 2.508966 1_555
As10 K2 3.188947 1_655
As10 K13 3.282339 1_555
As10 K9 3.282339 1_555
As10 K15 3.426139 1_555
As10 K16 3.426139 1_555
As10 K11 3.614378 1_655
As10 K10 3.614378 1_645
As11 Nb1 2.562041 1_555
As11 Tl0 2.892402 1_555
As11 K2 3.474061 1_555
As11 K11 3.479168 1_555
As11 K20 3.501903 1_555
As11 K3 3.557398 1_555
As11 K13 3.573217 1_555
As11 K17 3.938983 1_555
As12 Nb2 2.487253 1_555
As12 K20 3.370331 1_555
As12 K19 3.370331 1_545
As12 K8 3.391289 1_555
As12 K5 3.466447 1_455
As12 K7 3.466447 1_455
As12 K17 3.499575 1_555
As13 Nb0 2.508966 1_555
As13 K4 3.188947 1_455
As13 K1 3.282339 1_555
As13 K23 3.282339 1_555
As13 K19 3.426139 1_555
As13 K20 3.426139 1_555
As13 K7 3.614378 1_465
As13 K5 3.614378 1_455
As14 Nb3 2.487253 1_455
As14 K18 3.370331 1_555
As14 K12 3.370331 1_545
As14 K2 3.391289 1_555
As14 K13 3.466447 1_555
As14 K9 3.466447 1_555
As14 K14 3.499575 1_554
As15 Nb3 2.562041 1_555
As15 Tl2 2.892402 1_555
As15 K0 3.474061 1_545
As15 K9 3.479168 1_555
As15 K6 3.501903 1_554
As15 K14 3.557398 1_654
As15 K10 3.573217 1_645
As15 K21 3.938983 1_545
