# generated using pymatgen
data_CuH3C2NO4
_symmetry_space_group_name_H-M   'P 1'
_cell_length_a   8.66412100
_cell_length_b   9.67038600
_cell_length_c   11.25667900
_cell_angle_alpha   90.00000000
_cell_angle_beta   90.00000000
_cell_angle_gamma   90.00000000
_symmetry_Int_Tables_number   1
_chemical_formula_structural   CuH3C2NO4
_chemical_formula_sum   'Cu8 H24 C16 N8 O32'
_cell_volume   943.14528988
_cell_formula_units_Z   8
loop_
 _symmetry_equiv_pos_site_id
 _symmetry_equiv_pos_as_xyz
  1  'x, y, z'
loop_
 _atom_site_type_symbol
 _atom_site_label
 _atom_site_symmetry_multiplicity
 _atom_site_fract_x
 _atom_site_fract_y
 _atom_site_fract_z
 _atom_site_occupancy
  Cu  Cu0  1  0.88679800  0.76033000  0.07358000  1
  Cu  Cu1  1  0.11320200  0.73967000  0.57358000  1
  Cu  Cu2  1  0.38679800  0.73967000  0.07358000  1
  Cu  Cu3  1  0.61320200  0.76033000  0.57358000  1
  Cu  Cu4  1  0.38679800  0.23967000  0.42642000  1
  Cu  Cu5  1  0.88679800  0.26033000  0.42642000  1
  Cu  Cu6  1  0.61320200  0.26033000  0.92642000  1
  Cu  Cu7  1  0.11320200  0.23967000  0.92642000  1
  H  H0  1  0.75089600  0.10915700  0.27282500  1
  H  H1  1  0.22472700  0.72697500  0.25985700  1
  H  H2  1  0.24910400  0.89084300  0.72717500  1
  H  H3  1  0.10965200  0.30366100  0.70569900  1
  H  H4  1  0.89034800  0.19633900  0.20569900  1
  H  H5  1  0.60965200  0.19633900  0.70569900  1
  H  H6  1  0.39034800  0.80366100  0.29430100  1
  H  H7  1  0.39034800  0.30366100  0.20569900  1
  H  H8  1  0.77527300  0.27302500  0.74014300  1
  H  H9  1  0.27527300  0.72697500  0.75985700  1
  H  H10  1  0.25089600  0.39084300  0.27282500  1
  H  H11  1  0.22472700  0.22697500  0.24014300  1
  H  H12  1  0.89034800  0.69633900  0.29430100  1
  H  H13  1  0.10965200  0.80366100  0.79430100  1
  H  H14  1  0.72472700  0.77302500  0.25985700  1
  H  H15  1  0.27527300  0.22697500  0.74014300  1
  H  H16  1  0.77527300  0.77302500  0.75985700  1
  H  H17  1  0.24910400  0.39084300  0.77282500  1
  H  H18  1  0.25089600  0.89084300  0.22717500  1
  H  H19  1  0.72472700  0.27302500  0.24014300  1
  H  H20  1  0.60965200  0.69633900  0.79430100  1
  H  H21  1  0.75089600  0.60915700  0.22717500  1
  H  H22  1  0.74910400  0.10915700  0.77282500  1
  H  H23  1  0.74910400  0.60915700  0.72717500  1
  C  C0  1  0.51183200  0.47768600  0.06467700  1
  C  C1  1  0.98816800  0.97768600  0.93532300  1
  C  C2  1  0.51183200  0.97768600  0.43532300  1
  C  C3  1  0.98816800  0.47768600  0.56467700  1
  C  C4  1  0.08488100  0.51330800  0.01963600  1
  C  C5  1  0.08488100  0.01330800  0.48036400  1
  C  C6  1  0.01183200  0.02231400  0.06467700  1
  C  C7  1  0.91511900  0.48669200  0.98036400  1
  C  C8  1  0.58488100  0.98669200  0.01963600  1
  C  C9  1  0.48816800  0.02231400  0.56467700  1
  C  C10  1  0.41511900  0.01330800  0.98036400  1
  C  C11  1  0.91511900  0.98669200  0.51963600  1
  C  C12  1  0.41511900  0.51330800  0.51963600  1
  C  C13  1  0.48816800  0.52231400  0.93532300  1
  C  C14  1  0.01183200  0.52231400  0.43532300  1
  C  C15  1  0.58488100  0.48669200  0.48036400  1
  N  N0  1  0.30514900  0.79715600  0.23125300  1
  N  N1  1  0.19485100  0.79715600  0.73125300  1
  N  N2  1  0.80514900  0.70284400  0.23125300  1
  N  N3  1  0.80514900  0.20284400  0.26874700  1
  N  N4  1  0.19485100  0.29715600  0.76874700  1
  N  N5  1  0.69485100  0.20284400  0.76874700  1
  N  N6  1  0.30514900  0.29715600  0.26874700  1
  N  N7  1  0.69485100  0.70284400  0.73125300  1
  O  O0  1  0.52180200  0.93598100  0.64525800  1
  O  O1  1  0.97819800  0.43598100  0.35474200  1
  O  O2  1  0.02180200  0.56401900  0.64525800  1
  O  O3  1  0.06266800  0.64407600  0.41708200  1
  O  O4  1  0.81775000  0.58464500  0.99586400  1
  O  O5  1  0.02180200  0.06401900  0.85474200  1
  O  O6  1  0.52180200  0.43598100  0.85474200  1
  O  O7  1  0.56266800  0.35592400  0.08291800  1
  O  O8  1  0.43733200  0.64407600  0.91708200  1
  O  O9  1  0.11642300  0.62914900  0.06400500  1
  O  O10  1  0.88357700  0.37085100  0.93599500  1
  O  O11  1  0.93733200  0.35592400  0.58291800  1
  O  O12  1  0.11642300  0.12914900  0.43599500  1
  O  O13  1  0.38357700  0.12914900  0.93599500  1
  O  O14  1  0.06266800  0.14407600  0.08291800  1
  O  O15  1  0.81775000  0.08464500  0.50413600  1
  O  O16  1  0.61642300  0.87085100  0.06400500  1
  O  O17  1  0.47819800  0.06401900  0.35474200  1
  O  O18  1  0.18225000  0.41535500  0.00413600  1
  O  O19  1  0.18225000  0.91535500  0.49586400  1
  O  O20  1  0.31775000  0.41535500  0.50413600  1
  O  O21  1  0.88357700  0.87085100  0.56400500  1
  O  O22  1  0.68225000  0.08464500  0.00413600  1
  O  O23  1  0.38357700  0.62914900  0.56400500  1
  O  O24  1  0.47819800  0.56401900  0.14525800  1
  O  O25  1  0.61642300  0.37085100  0.43599500  1
  O  O26  1  0.68225000  0.58464500  0.49586400  1
  O  O27  1  0.93733200  0.85592400  0.91708200  1
  O  O28  1  0.56266800  0.85592400  0.41708200  1
  O  O29  1  0.97819800  0.93598100  0.14525800  1
  O  O30  1  0.31775000  0.91535500  0.99586400  1
  O  O31  1  0.43733200  0.14407600  0.58291800  1
loop_
_geom_bond_atom_site_label_1
_geom_bond_atom_site_label_2
_geom_bond_distance
_geom_bond_site_symmetry_2
Cu0 N2 1.989888 1_555
Cu0 O4 2.002401 1_554
Cu0 O27 2.037075 1_554
Cu0 O29 2.040443 1_555
Cu0 O9 2.361990 1_655
Cu0 O16 2.577112 1_555
Cu1 N1 1.989888 1_555
Cu1 O19 2.002401 1_555
Cu1 O3 2.037075 1_555
Cu1 O2 2.040443 1_555
Cu1 O21 2.361990 1_455
Cu1 O23 2.577112 1_555
Cu2 N0 1.989888 1_555
Cu2 O30 2.002401 1_554
Cu2 O8 2.037075 1_554
Cu2 O24 2.040443 1_555
Cu2 O16 2.361990 1_555
Cu2 O9 2.577112 1_555
Cu3 N7 1.989888 1_555
Cu3 O26 2.002401 1_555
Cu3 O28 2.037075 1_555
Cu3 O0 2.040443 1_555
Cu3 O23 2.361990 1_555
Cu3 O21 2.577112 1_555
Cu4 N6 1.989888 1_555
Cu4 O20 2.002401 1_555
Cu4 O31 2.037075 1_555
Cu4 O17 2.040443 1_555
Cu4 O25 2.361990 1_555
Cu4 O12 2.577112 1_555
Cu5 N3 1.989888 1_555
Cu5 O15 2.002401 1_555
Cu5 O11 2.037075 1_555
Cu5 O1 2.040443 1_555
Cu5 O12 2.361990 1_655
Cu5 O25 2.577112 1_555
Cu6 N5 1.989888 1_555
Cu6 O22 2.002401 1_556
Cu6 O7 2.037075 1_556
Cu6 O6 2.040443 1_555
Cu6 O13 2.361990 1_555
Cu6 O10 2.577112 1_555
Cu7 N4 1.989888 1_555
Cu7 O18 2.002401 1_556
Cu7 O14 2.037075 1_556
Cu7 O5 2.040443 1_555
Cu7 O10 2.361990 1_455
Cu7 O13 2.577112 1_555
H0 N3 1.021702 1_555
H1 N0 1.024592 1_555
H2 N1 1.021702 1_555
H3 N4 1.025938 1_555
H4 N3 1.025938 1_555
H5 N5 1.025938 1_555
H6 N0 1.025938 1_555
H7 N6 1.025938 1_555
H8 N5 1.024592 1_555
H9 N1 1.024592 1_555
H10 N6 1.021702 1_555
H11 N6 1.024592 1_555
H12 N2 1.025938 1_555
H13 N1 1.025938 1_555
H14 N2 1.024592 1_555
H15 N4 1.024592 1_555
H16 N7 1.024592 1_555
H17 N4 1.021702 1_555
H18 N0 1.021702 1_555
H19 N3 1.024592 1_555
H20 N7 1.025938 1_555
H21 N2 1.021702 1_555
H22 N5 1.021702 1_555
H23 N7 1.021702 1_555
C0 O24 1.266774 1_555
C0 O7 1.273825 1_555
C1 O5 1.266774 1_665
C1 O27 1.273825 1_555
C2 O17 1.266774 1_565
C2 O28 1.273825 1_555
C3 O2 1.266774 1_655
C3 O11 1.273825 1_555
C4 O9 1.256599 1_555
C4 O18 1.280391 1_555
C5 O12 1.256599 1_555
C5 O19 1.280391 1_545
C6 O29 1.266774 1_445
C6 O14 1.273825 1_555
C7 O10 1.256599 1_555
C7 O4 1.280391 1_555
C8 O16 1.256599 1_555
C8 O22 1.280391 1_565
C9 O0 1.266774 1_545
C9 O31 1.273825 1_555
C10 O13 1.256599 1_555
C10 O30 1.280391 1_545
C11 O21 1.256599 1_555
C11 O15 1.280391 1_565
C12 O23 1.256599 1_555
C12 O20 1.280391 1_555
C13 O6 1.266774 1_555
C13 O8 1.273825 1_555
C14 O1 1.266774 1_455
C14 O3 1.273825 1_555
C15 O25 1.256599 1_555
C15 O26 1.280391 1_555
