# generated using pymatgen
data_SbSNCl5
_symmetry_space_group_name_H-M   'P 1'
_cell_length_a   13.73769578
_cell_length_b   13.73769578
_cell_length_c   13.73769578
_cell_angle_alpha   111.41202979
_cell_angle_beta   111.41202979
_cell_angle_gamma   105.65566722
_symmetry_Int_Tables_number   1
_chemical_formula_structural   SbSNCl5
_chemical_formula_sum   'Sb8 S8 N8 Cl40'
_cell_volume   1989.23182588
_cell_formula_units_Z   8
loop_
 _symmetry_equiv_pos_site_id
 _symmetry_equiv_pos_as_xyz
  1  'x, y, z'
loop_
 _atom_site_type_symbol
 _atom_site_label
 _atom_site_symmetry_multiplicity
 _atom_site_fract_x
 _atom_site_fract_y
 _atom_site_fract_z
 _atom_site_occupancy
  Sb  Sb0  1  0.91496900  0.62500000  0.78996900  1
  Sb  Sb1  1  0.39502600  0.12500000  0.77002600  1
  Sb  Sb2  1  0.37500000  0.60497400  0.72997400  1
  Sb  Sb3  1  0.87500000  0.64502600  0.27002600  1
  Sb  Sb4  1  0.83503100  0.12500000  0.21003100  1
  Sb  Sb5  1  0.35497400  0.62500000  0.22997400  1
  Sb  Sb6  1  0.37500000  0.16496900  0.28996900  1
  Sb  Sb7  1  0.87500000  0.08503100  0.71003100  1
  S  S0  1  0.93701700  0.84972700  0.56811900  1
  S  S1  1  0.15027300  0.71839200  0.08728900  1
  S  S2  1  0.11889700  0.53160800  0.93188100  1
  S  S3  1  0.81298300  0.88110300  0.41271100  1
  S  S4  1  0.63110300  0.06298300  0.91271100  1
  S  S5  1  0.28160800  0.36889700  0.43188100  1
  S  S6  1  0.46839200  0.40027300  0.58728900  1
  S  S7  1  0.59972700  0.18701700  0.06811900  1
  N  N0  1  0.68712600  0.12500000  0.06212600  1
  N  N1  1  0.06287400  0.62500000  0.93787400  1
  N  N2  1  0.87500000  0.79377200  0.41877200  1
  N  N3  1  0.37500000  0.31287400  0.43787400  1
  N  N4  1  0.54377200  0.12500000  0.91877200  1
  N  N5  1  0.37500000  0.45622800  0.58122800  1
  N  N6  1  0.20622800  0.62500000  0.08122800  1
  N  N7  1  0.87500000  0.93712600  0.56212600  1
  Cl  Cl0  1  0.97653800  0.63024000  0.44297400  1
  Cl  Cl1  1  0.24294700  0.12500000  0.61794700  1
  Cl  Cl2  1  0.18726700  0.53356500  0.55702600  1
  Cl  Cl3  1  0.26770700  0.94167500  0.73162900  1
  Cl  Cl4  1  0.96840500  0.28490000  0.21902900  1
  Cl  Cl5  1  0.28607800  0.46004600  0.76837100  1
  Cl  Cl6  1  0.46643500  0.02346200  0.65370200  1
  Cl  Cl7  1  0.25062400  0.03159500  0.31649400  1
  Cl  Cl8  1  0.78159500  0.50062400  0.81649400  1
  Cl  Cl9  1  0.00874600  0.04058300  0.83376500  1
  Cl  Cl10  1  0.76250400  0.62500000  0.63750400  1
  Cl  Cl11  1  0.69167500  0.51770700  0.23162900  1
  Cl  Cl12  1  0.21004600  0.53607800  0.26837100  1
  Cl  Cl13  1  0.37500000  0.75705300  0.88205300  1
  Cl  Cl14  1  0.87500000  0.23749600  0.86249600  1
  Cl  Cl15  1  0.82501900  0.99125400  0.03183700  1
  Cl  Cl16  1  0.50705300  0.62500000  0.38205300  1
  Cl  Cl17  1  0.68412900  0.96510000  0.18350600  1
  Cl  Cl18  1  0.74125400  0.07501900  0.53183700  1
  Cl  Cl19  1  0.79058300  0.25874600  0.33376500  1
  Cl  Cl20  1  0.36976000  0.81273300  0.34629800  1
  Cl  Cl21  1  0.48229300  0.71392200  0.17396800  1
  Cl  Cl22  1  0.05832500  0.78995400  0.32603200  1
  Cl  Cl23  1  0.77346200  0.71643500  0.15370200  1
  Cl  Cl24  1  0.46392200  0.73229300  0.67396800  1
  Cl  Cl25  1  0.49937600  0.31587100  0.28097100  1
  Cl  Cl26  1  0.92498100  0.45681800  0.66623500  1
  Cl  Cl27  1  0.03490000  0.21840500  0.71902900  1
  Cl  Cl28  1  0.71510000  0.93412900  0.68350600  1
  Cl  Cl29  1  0.37500000  0.01250400  0.13750400  1
  Cl  Cl30  1  0.53995400  0.30832500  0.82603200  1
  Cl  Cl31  1  0.06587100  0.74937600  0.78097100  1
  Cl  Cl32  1  0.38024000  0.22653800  0.94297400  1
  Cl  Cl33  1  0.54318200  0.20941700  0.46816300  1
  Cl  Cl34  1  0.87500000  0.49294700  0.11794700  1
  Cl  Cl35  1  0.20681800  0.17498100  0.16623500  1
  Cl  Cl36  1  0.98749600  0.12500000  0.36249600  1
  Cl  Cl37  1  0.95941700  0.79318200  0.96816300  1
  Cl  Cl38  1  0.28356500  0.43726700  0.05702600  1
  Cl  Cl39  1  0.56273300  0.61976000  0.84629800  1
loop_
_geom_bond_atom_site_label_1
_geom_bond_atom_site_label_2
_geom_bond_distance
_geom_bond_site_symmetry_2
N0 S4 1.657477 1_554
N0 S7 1.657488 1_555
N0 Sb4 2.289675 1_555
N1 S1 1.657478 1_556
N1 S2 1.657478 1_555
N1 Sb0 2.289675 1_455
N2 S0 1.656772 1_555
N2 S3 1.656783 1_555
N2 Sb3 2.302695 1_555
N3 S6 1.657478 1_555
N3 S5 1.657478 1_555
N3 Sb6 2.289675 1_555
N4 S7 1.656772 1_556
N4 S4 1.656783 1_555
N4 Sb1 2.302695 1_555
N5 S6 1.656773 1_555
N5 S5 1.656773 1_555
N5 Sb2 2.302695 1_555
N6 S1 1.656773 1_555
N6 S2 1.656773 1_554
N6 Sb5 2.302695 1_555
N7 S3 1.657477 1_555
N7 S0 1.657488 1_555
N7 Sb7 2.289675 1_565
Cl0 Sb3 2.391113 1_555
Cl1 Sb1 2.354292 1_555
Cl2 Sb2 2.391108 1_555
Cl3 Sb1 2.378893 1_565
Cl4 Sb4 2.379466 1_555
Cl5 Sb2 2.378893 1_555
Cl6 Sb1 2.391102 1_555
Cl7 Sb6 2.379456 1_555
Cl8 Sb0 2.379456 1_555
Cl9 Sb7 2.391884 1_455
Cl10 Sb0 2.360267 1_555
Cl11 Sb3 2.378893 1_555
Cl12 Sb5 2.378893 1_555
Cl13 Sb2 2.354292 1_555
Cl14 Sb7 2.360267 1_555
Cl15 Sb4 2.391884 1_565
Cl16 Sb5 2.354292 1_555
Cl17 Sb4 2.379473 1_565
Cl18 Sb7 2.391884 1_555
Cl19 Sb4 2.391884 1_555
Cl20 Sb5 2.391102 1_555
Cl21 Sb5 2.378893 1_555
Cl22 Sb3 2.378893 1_455
Cl23 Sb3 2.391102 1_555
Cl24 Sb2 2.378893 1_555
Cl25 Sb6 2.379466 1_555
Cl26 Sb0 2.391884 1_555
Cl27 Sb7 2.379466 1_455
Cl28 Sb7 2.379473 1_565
Cl29 Sb6 2.360267 1_555
Cl30 Sb1 2.378893 1_555
Cl31 Sb0 2.379466 1_455
Cl32 Sb1 2.391113 1_555
Cl33 Sb6 2.391884 1_555
Cl34 Sb3 2.354292 1_555
Cl35 Sb6 2.391884 1_555
Cl36 Sb4 2.360267 1_555
Cl37 Sb0 2.391884 1_555
Cl38 Sb5 2.391108 1_555
Cl39 Sb2 2.391102 1_555
