# generated using pymatgen
data_Mn4(PO4)3
_symmetry_space_group_name_H-M   'P 1'
_cell_length_a   6.39801900
_cell_length_b   9.98264500
_cell_length_c   16.40698900
_cell_angle_alpha   90.00000000
_cell_angle_beta   90.00000000
_cell_angle_gamma   90.00000000
_symmetry_Int_Tables_number   1
_chemical_formula_structural   Mn4(PO4)3
_chemical_formula_sum   'Mn16 P12 O48'
_cell_volume   1047.90048054
_cell_formula_units_Z   4
loop_
 _symmetry_equiv_pos_site_id
 _symmetry_equiv_pos_as_xyz
  1  'x, y, z'
loop_
 _atom_site_type_symbol
 _atom_site_label
 _atom_site_symmetry_multiplicity
 _atom_site_fract_x
 _atom_site_fract_y
 _atom_site_fract_z
 _atom_site_occupancy
  Mn  Mn0  1  0.00000000  0.54889200  0.09411900  1
  Mn  Mn1  1  0.00000000  0.98754200  0.13917400  1
  Mn  Mn2  1  0.00000000  0.01245800  0.86082600  1
  Mn  Mn3  1  0.00000000  0.45110800  0.90588100  1
  Mn  Mn4  1  0.75275600  0.75976500  0.29888500  1
  Mn  Mn5  1  0.75275600  0.24023500  0.70111500  1
  Mn  Mn6  1  0.74724400  0.25976500  0.20111500  1
  Mn  Mn7  1  0.74724400  0.74023500  0.79888500  1
  Mn  Mn8  1  0.50000000  0.48754200  0.36082600  1
  Mn  Mn9  1  0.50000000  0.04889200  0.40588100  1
  Mn  Mn10  1  0.50000000  0.95110800  0.59411900  1
  Mn  Mn11  1  0.50000000  0.51245800  0.63917400  1
  Mn  Mn12  1  0.25275600  0.25976500  0.20111500  1
  Mn  Mn13  1  0.25275600  0.74023500  0.79888500  1
  Mn  Mn14  1  0.24724400  0.75976500  0.29888500  1
  Mn  Mn15  1  0.24724400  0.24023500  0.70111500  1
  P  P0  1  0.00000000  0.21515400  0.03274300  1
  P  P1  1  0.00000000  0.46781400  0.27938900  1
  P  P2  1  0.00000000  0.05240400  0.33890000  1
  P  P3  1  0.00000000  0.94759600  0.66110000  1
  P  P4  1  0.00000000  0.53218600  0.72061100  1
  P  P5  1  0.00000000  0.78484600  0.96725700  1
  P  P6  1  0.50000000  0.55240400  0.16110000  1
  P  P7  1  0.50000000  0.96781400  0.22061100  1
  P  P8  1  0.50000000  0.71515400  0.46725700  1
  P  P9  1  0.50000000  0.28484600  0.53274300  1
  P  P10  1  0.50000000  0.03218600  0.77938900  1
  P  P11  1  0.50000000  0.44759600  0.83890000  1
  O  O0  1  0.00000000  0.37289000  0.01759100  1
  O  O1  1  0.00000000  0.84656100  0.05137100  1
  O  O2  1  0.00000000  0.41601400  0.18497000  1
  O  O3  1  0.00000000  0.12520800  0.25170200  1
  O  O4  1  0.00000000  0.62283700  0.27448600  1
  O  O5  1  0.00000000  0.89801800  0.32298900  1
  O  O6  1  0.00000000  0.10198200  0.67701100  1
  O  O7  1  0.00000000  0.37716300  0.72551400  1
  O  O8  1  0.00000000  0.87479200  0.74829800  1
  O  O9  1  0.00000000  0.58398600  0.81503000  1
  O  O10  1  0.00000000  0.15343900  0.94862900  1
  O  O11  1  0.00000000  0.62711000  0.98240900  1
  O  O12  1  0.80866500  0.17435400  0.08598300  1
  O  O13  1  0.80866500  0.82564600  0.91401700  1
  O  O14  1  0.79957200  0.09405500  0.38411400  1
  O  O15  1  0.79957200  0.90594500  0.61588600  1
  O  O16  1  0.79692900  0.40863900  0.31290200  1
  O  O17  1  0.79692900  0.59136100  0.68709800  1
  O  O18  1  0.70307100  0.90863900  0.18709800  1
  O  O19  1  0.70307100  0.09136100  0.81290200  1
  O  O20  1  0.70042800  0.59405500  0.11588600  1
  O  O21  1  0.70042800  0.40594500  0.88411400  1
  O  O22  1  0.69133500  0.67435400  0.41401700  1
  O  O23  1  0.69133500  0.32564600  0.58598300  1
  O  O24  1  0.50000000  0.39801800  0.17701100  1
  O  O25  1  0.50000000  0.12283700  0.22551400  1
  O  O26  1  0.50000000  0.62520800  0.24829800  1
  O  O27  1  0.50000000  0.91601400  0.31503000  1
  O  O28  1  0.50000000  0.34656100  0.44862900  1
  O  O29  1  0.50000000  0.87289000  0.48240900  1
  O  O30  1  0.50000000  0.12711000  0.51759100  1
  O  O31  1  0.50000000  0.65343900  0.55137100  1
  O  O32  1  0.50000000  0.08398600  0.68497000  1
  O  O33  1  0.50000000  0.37479200  0.75170200  1
  O  O34  1  0.50000000  0.87716300  0.77448600  1
  O  O35  1  0.50000000  0.60198200  0.82298900  1
  O  O36  1  0.30866500  0.67435400  0.41401700  1
  O  O37  1  0.30866500  0.32564600  0.58598300  1
  O  O38  1  0.29957200  0.59405500  0.11588600  1
  O  O39  1  0.29957200  0.40594500  0.88411400  1
  O  O40  1  0.29692900  0.90863900  0.18709800  1
  O  O41  1  0.29692900  0.09136100  0.81290200  1
  O  O42  1  0.20307100  0.40863900  0.31290200  1
  O  O43  1  0.20307100  0.59136100  0.68709800  1
  O  O44  1  0.20042800  0.09405500  0.38411400  1
  O  O45  1  0.20042800  0.90594500  0.61588600  1
  O  O46  1  0.19133500  0.17435400  0.08598300  1
  O  O47  1  0.19133500  0.82564600  0.91401700  1
loop_
_geom_bond_atom_site_label_1
_geom_bond_atom_site_label_2
_geom_bond_distance
_geom_bond_site_symmetry_2
Mn0 O11 1.992217 1_554
Mn0 O2 1.995343 1_555
Mn0 O20 2.001104 1_455
Mn0 O38 2.001104 1_555
Mn0 O0 2.159501 1_555
Mn1 O1 2.013939 1_555
Mn1 O18 2.201758 1_455
Mn1 O40 2.201758 1_555
Mn1 O3 2.301574 1_565
Mn1 O46 2.395404 1_565
Mn1 O12 2.395404 1_465
Mn2 O10 2.013939 1_555
Mn2 O41 2.201758 1_555
Mn2 O19 2.201758 1_455
Mn2 O8 2.301574 1_545
Mn2 O47 2.395404 1_545
Mn2 O13 2.395404 1_445
Mn3 O0 1.992217 1_556
Mn3 O9 1.995343 1_555
Mn3 O21 2.001104 1_455
Mn3 O39 2.001104 1_555
Mn3 O11 2.159501 1_555
Mn4 O22 2.109409 1_555
Mn4 O4 2.128613 1_655
Mn4 O5 2.136230 1_655
Mn4 O26 2.260151 1_555
Mn4 O27 2.262346 1_555
Mn4 O18 2.381930 1_555
Mn5 O23 2.109409 1_555
Mn5 O7 2.128613 1_655
Mn5 O6 2.136230 1_655
Mn5 O33 2.260151 1_555
Mn5 O32 2.262346 1_555
Mn5 O19 2.381930 1_555
Mn6 O12 2.109409 1_555
Mn6 O25 2.128613 1_555
Mn6 O24 2.136230 1_555
Mn6 O3 2.260151 1_655
Mn6 O2 2.262346 1_655
Mn6 O16 2.381930 1_555
Mn7 O13 2.109409 1_555
Mn7 O34 2.128613 1_555
Mn7 O35 2.136230 1_555
Mn7 O8 2.260151 1_655
Mn7 O9 2.262346 1_655
Mn7 O17 2.381930 1_555
Mn8 O28 2.013939 1_555
Mn8 O16 2.201758 1_555
Mn8 O42 2.201758 1_555
Mn8 O26 2.301574 1_555
Mn8 O36 2.395404 1_555
Mn8 O22 2.395404 1_555
Mn9 O30 1.992217 1_555
Mn9 O27 1.995343 1_545
Mn9 O44 2.001104 1_555
Mn9 O14 2.001104 1_555
Mn9 O29 2.159501 1_545
Mn10 O29 1.992217 1_555
Mn10 O32 1.995343 1_565
Mn10 O15 2.001104 1_555
Mn10 O45 2.001104 1_555
Mn10 O30 2.159501 1_565
Mn11 O31 2.013939 1_555
Mn11 O43 2.201758 1_555
Mn11 O17 2.201758 1_555
Mn11 O33 2.301574 1_555
Mn11 O37 2.395404 1_555
Mn11 O23 2.395404 1_555
Mn12 O46 2.109409 1_555
Mn12 O25 2.128613 1_555
Mn12 O24 2.136230 1_555
Mn12 O3 2.260151 1_555
Mn12 O2 2.262346 1_555
Mn12 O42 2.381930 1_555
Mn13 O47 2.109409 1_555
Mn13 O34 2.128613 1_555
Mn13 O35 2.136230 1_555
Mn13 O8 2.260151 1_555
Mn13 O9 2.262346 1_555
Mn13 O43 2.381930 1_555
Mn14 O36 2.109409 1_555
Mn14 O4 2.128613 1_555
Mn14 O5 2.136230 1_555
Mn14 O26 2.260151 1_555
Mn14 O27 2.262346 1_555
Mn14 O40 2.381930 1_555
Mn15 O37 2.109409 1_555
Mn15 O7 2.128613 1_555
Mn15 O6 2.136230 1_555
Mn15 O33 2.260151 1_555
Mn15 O32 2.262346 1_555
Mn15 O41 2.381930 1_555
O0 P0 1.594126 1_555
O1 P5 1.511328 1_554
O2 P1 1.633157 1_555
O3 P2 1.604675 1_555
O4 P1 1.549629 1_555
O5 P2 1.563133 1_565
O6 P3 1.563133 1_545
O7 P4 1.549629 1_555
O8 P3 1.604675 1_555
O9 P4 1.633157 1_555
O10 P0 1.511328 1_556
O11 P5 1.594126 1_555
O12 P0 1.558038 1_655
O13 P5 1.558038 1_655
O14 P2 1.538696 1_655
O15 P3 1.538696 1_655
O16 P1 1.529491 1_655
O17 P4 1.529491 1_655
O18 P7 1.529491 1_555
O19 P10 1.529491 1_555
O20 P6 1.538696 1_555
O21 P11 1.538696 1_555
O22 P8 1.558038 1_555
O23 P9 1.558038 1_555
O24 P6 1.563133 1_555
O25 P7 1.549629 1_545
O26 P6 1.604675 1_555
O27 P7 1.633157 1_555
O28 P9 1.511328 1_555
O29 P8 1.594126 1_555
O30 P9 1.594126 1_555
O31 P8 1.511328 1_555
O32 P10 1.633157 1_555
O33 P11 1.604675 1_555
O34 P10 1.549629 1_565
O35 P11 1.563133 1_555
O36 P8 1.558038 1_555
O37 P9 1.558038 1_555
O38 P6 1.538696 1_555
O39 P11 1.538696 1_555
O40 P7 1.529491 1_555
O41 P10 1.529491 1_555
O42 P1 1.529491 1_555
O43 P4 1.529491 1_555
O44 P2 1.538696 1_555
O45 P3 1.538696 1_555
O46 P0 1.558038 1_555
O47 P5 1.558038 1_555
