# generated using pymatgen
data_K2Ag4Se3
_symmetry_space_group_name_H-M   'P 1'
_cell_length_a   4.43537580
_cell_length_b   9.29536291
_cell_length_c   11.89529477
_cell_angle_alpha   107.81458867
_cell_angle_beta   90.00000000
_cell_angle_gamma   103.80274734
_symmetry_Int_Tables_number   1
_chemical_formula_structural   K2Ag4Se3
_chemical_formula_sum   'K4 Ag8 Se6'
_cell_volume   452.01098566
_cell_formula_units_Z   2
loop_
 _symmetry_equiv_pos_site_id
 _symmetry_equiv_pos_as_xyz
  1  'x, y, z'
loop_
 _atom_site_type_symbol
 _atom_site_label
 _atom_site_symmetry_multiplicity
 _atom_site_fract_x
 _atom_site_fract_y
 _atom_site_fract_z
 _atom_site_occupancy
  K  K0  1  0.81390245  0.62780490  0.65748125  1
  K  K1  1  0.18609755  0.37219510  0.34251875  1
  K  K2  1  0.33590256  0.67180311  0.16112376  1
  K  K3  1  0.66409744  0.32819689  0.83887624  1
  Ag  Ag0  1  0.58796061  0.17592022  0.51673107  1
  Ag  Ag1  1  0.00945740  0.01891580  0.87792044  1
  Ag  Ag2  1  0.01855738  0.03711376  0.62906011  1
  Ag  Ag3  1  0.58402565  0.16805130  0.08022098  1
  Ag  Ag4  1  0.41203939  0.82407978  0.48326893  1
  Ag  Ag5  1  0.41597435  0.83194870  0.91977902  1
  Ag  Ag6  1  0.98144262  0.96288624  0.37093989  1
  Ag  Ag7  1  0.99054260  0.98108420  0.12208056  1
  Se  Se0  1  0.85370243  0.70740586  0.95887691  1
  Se  Se1  1  0.16243850  0.32487600  0.61642016  1
  Se  Se2  1  0.46612431  0.93224763  0.72308736  1
  Se  Se3  1  0.83756150  0.67512400  0.38357984  1
  Se  Se4  1  0.53387569  0.06775237  0.27691264  1
  Se  Se5  1  0.14629757  0.29259414  0.04112309  1
loop_
_geom_bond_atom_site_label_1
_geom_bond_atom_site_label_2
_geom_bond_distance
_geom_bond_site_symmetry_2
K0 Se3 3.416839 1_555
K0 Se2 3.424672 1_555
K0 Se2 3.424675 1_655
K0 Se0 3.427354 1_555
K0 Se1 3.434059 1_555
K0 Se1 3.434062 1_655
K1 Se1 3.416839 1_555
K1 Se4 3.424672 1_555
K1 Se4 3.424675 1_455
K1 Se5 3.427354 1_555
K1 Se3 3.434059 1_555
K1 Se3 3.434062 1_455
K2 Se5 3.267489 1_555
K2 Se0 3.361006 1_554
K2 Se0 3.361015 1_454
K2 Se4 3.401510 1_565
K2 Se3 3.445475 1_555
K2 Se3 3.445484 1_455
K3 Se0 3.267489 1_555
K3 Se5 3.361006 1_556
K3 Se5 3.361015 1_656
K3 Se2 3.401510 1_545
K3 Se1 3.445475 1_555
K3 Se1 3.445484 1_655
Ag0 Se1 2.669773 1_655
Ag0 Se1 2.669773 1_555
Ag0 Se4 2.708566 1_555
Ag1 Se5 2.617294 1_556
Ag1 Se2 2.830986 1_445
Ag1 Se2 2.830993 1_545
Ag2 Se1 2.648826 1_555
Ag2 Se2 2.780708 1_545
Ag2 Se2 2.780708 1_445
Ag3 Se5 2.593798 1_555
Ag3 Se5 2.593802 1_655
Ag3 Se4 2.762004 1_555
Ag4 Se3 2.669773 1_455
Ag4 Se3 2.669773 1_555
Ag4 Se2 2.708566 1_555
Ag5 Se0 2.593798 1_555
Ag5 Se0 2.593802 1_455
Ag5 Se2 2.762004 1_555
Ag6 Se3 2.648826 1_555
Ag6 Se4 2.780708 1_565
Ag6 Se4 2.780708 1_665
Ag7 Se0 2.617300 1_554
Ag7 Se4 2.830979 1_665
Ag7 Se4 2.830986 1_565
