# generated using pymatgen
data_Na3NiF6
_symmetry_space_group_name_H-M   'P 1'
_cell_length_a   5.70200252
_cell_length_b   5.36002028
_cell_length_c   9.26377158
_cell_angle_alpha   55.84770944
_cell_angle_beta   90.00000000
_cell_angle_gamma   90.00000000
_symmetry_Int_Tables_number   1
_chemical_formula_structural   Na3NiF6
_chemical_formula_sum   'Na6 Ni2 F12'
_cell_volume   234.30148481
_cell_formula_units_Z   2
loop_
 _symmetry_equiv_pos_site_id
 _symmetry_equiv_pos_as_xyz
  1  'x, y, z'
loop_
 _atom_site_type_symbol
 _atom_site_label
 _atom_site_symmetry_multiplicity
 _atom_site_fract_x
 _atom_site_fract_y
 _atom_site_fract_z
 _atom_site_occupancy
  Na  Na0  1  0.56372337  0.72037341  0.25605651  1
  Na  Na1  1  0.06372337  0.27962659  0.24394349  1
  Na  Na2  1  0.43627663  0.27962659  0.74394349  1
  Na  Na3  1  0.93627663  0.72037341  0.75605651  1
  Na  Na4  1  0.50000000  0.50000000  0.00000000  1
  Na  Na5  1  -0.00000000  0.50000000  0.50000000  1
  Ni  Ni0  1  0.50000000  -0.00000000  0.50000000  1
  Ni  Ni1  1  -0.00000000  -0.00000000  0.00000000  1
  F  F0  1  0.21674754  0.74172528  0.57895837  1
  F  F1  1  0.71674754  0.25827472  0.92104163  1
  F  F2  1  0.78325246  0.25827472  0.42104163  1
  F  F3  1  0.28325246  0.74172528  0.07895837  1
  F  F4  1  0.32629508  0.32065033  0.45601281  1
  F  F5  1  0.82629508  0.67934967  0.04398719  1
  F  F6  1  0.67370492  0.67934967  0.54398719  1
  F  F7  1  0.17370492  0.32065033  0.95601281  1
  F  F8  1  0.05571521  0.10321766  0.77886385  1
  F  F9  1  0.55571521  0.89678234  0.72113615  1
  F  F10  1  0.94428479  0.89678234  0.22113615  1
  F  F11  1  0.44428479  0.10321766  0.27886385  1
loop_
_geom_bond_atom_site_label_1
_geom_bond_atom_site_label_2
_geom_bond_distance
_geom_bond_site_symmetry_2
F0 Ni0 1.980684 1_565
F0 Na5 2.192088 1_555
F0 Na3 2.247538 1_455
F0 Na2 2.405672 1_555
F1 Ni1 1.980684 1_656
F1 Na4 2.192088 1_556
F1 Na2 2.247538 1_555
F1 Na3 2.405672 1_555
F2 Ni0 1.980684 1_555
F2 Na5 2.192088 1_655
F2 Na1 2.247538 1_655
F2 Na0 2.405672 1_555
F3 Ni1 1.980684 1_565
F3 Na4 2.192088 1_555
F3 Na0 2.247538 1_555
F3 Na1 2.405672 1_555
F4 Ni0 1.820613 1_555
F4 Na5 2.234188 1_555
F4 Na0 2.323448 1_555
F4 Na1 2.575741 1_555
F4 Na2 2.626349 1_555
F5 Ni1 1.820613 1_665
F5 Na4 2.234188 1_555
F5 Na1 2.323448 1_655
F5 Na0 2.575741 1_555
F5 Na3 2.626349 1_554
F6 Ni0 1.820613 1_565
F6 Na5 2.234188 1_655
F6 Na2 2.323448 1_555
F6 Na3 2.575741 1_555
F6 Na0 2.626349 1_555
F7 Ni1 1.820613 1_556
F7 Na4 2.234188 1_556
F7 Na3 2.323448 1_455
F7 Na2 2.575741 1_555
F7 Na1 2.626349 1_556
F8 Ni1 1.825120 1_556
F8 Na5 2.264706 1_555
F8 Na3 2.281704 1_445
F8 Na2 2.316035 1_555
F9 Ni0 1.825120 1_565
F9 Na4 2.264706 1_556
F9 Na2 2.281704 1_565
F9 Na3 2.316035 1_555
F10 Ni1 1.825120 1_665
F10 Na5 2.264706 1_655
F10 Na1 2.281704 1_665
F10 Na0 2.316035 1_555
F11 Ni0 1.825120 1_555
F11 Na4 2.264706 1_555
F11 Na0 2.281704 1_545
F11 Na1 2.316035 1_555
