# generated using pymatgen
data_LiFe(PO3)3
_symmetry_space_group_name_H-M   'P 1'
_cell_length_a   6.58894900
_cell_length_b   6.82575154
_cell_length_c   7.38980469
_cell_angle_alpha   80.36579532
_cell_angle_beta   86.56884997
_cell_angle_gamma   87.89786522
_symmetry_Int_Tables_number   1
_chemical_formula_structural   LiFe(PO3)3
_chemical_formula_sum   'Li2 Fe2 P6 O18'
_cell_volume   326.95813648
_cell_formula_units_Z   2
loop_
 _symmetry_equiv_pos_site_id
 _symmetry_equiv_pos_as_xyz
  1  'x, y, z'
loop_
 _atom_site_type_symbol
 _atom_site_label
 _atom_site_symmetry_multiplicity
 _atom_site_fract_x
 _atom_site_fract_y
 _atom_site_fract_z
 _atom_site_occupancy
  Li  Li0  1  0.14235800  0.55167000  0.18479500  1
  Li  Li1  1  0.85764200  0.44833000  0.81520500  1
  Fe  Fe0  1  0.82588900  0.92582900  0.85932000  1
  Fe  Fe1  1  0.17411100  0.07417100  0.14068000  1
  P  P0  1  0.14660000  0.21256200  0.55270000  1
  P  P1  1  0.67956800  0.13084300  0.22393900  1
  P  P2  1  0.85340000  0.78743800  0.44730000  1
  P  P3  1  0.63523600  0.57677700  0.19886400  1
  P  P4  1  0.36476400  0.42322300  0.80113600  1
  P  P5  1  0.32043200  0.86915700  0.77606100  1
  O  O0  1  0.42009500  0.61718800  0.15773400  1
  O  O1  1  0.24935500  0.99148600  0.58259600  1
  O  O2  1  0.52452700  0.93596800  0.81348100  1
  O  O3  1  0.75064500  0.00851400  0.41740400  1
  O  O4  1  0.85106800  0.10894200  0.07923400  1
  O  O5  1  0.57990500  0.38281200  0.84226600  1
  O  O6  1  0.14893200  0.89105800  0.92076600  1
  O  O7  1  0.95798000  0.21791600  0.67787500  1
  O  O8  1  0.67629600  0.34413700  0.27963600  1
  O  O9  1  0.47547300  0.06403200  0.18651900  1
  O  O10  1  0.32318000  0.34105400  0.61282900  1
  O  O11  1  0.80393100  0.64040600  0.05372900  1
  O  O12  1  0.67682000  0.65894600  0.38717100  1
  O  O13  1  0.86848800  0.72929100  0.65220000  1
  O  O14  1  0.04202000  0.78208400  0.32212500  1
  O  O15  1  0.32370400  0.65586300  0.72036400  1
  O  O16  1  0.19606900  0.35959400  0.94627100  1
  O  O17  1  0.13151200  0.27070900  0.34780000  1
loop_
_geom_bond_atom_site_label_1
_geom_bond_atom_site_label_2
_geom_bond_distance
_geom_bond_site_symmetry_2
Li0 O0 1.890812 1_555
Li0 O14 2.078021 1_555
Li0 O17 2.088175 1_555
Li0 O16 2.369779 1_554
Li0 O11 2.498077 1_455
Li1 O5 1.890812 1_555
Li1 O7 2.078021 1_555
Li1 O13 2.088175 1_555
Li1 O11 2.369779 1_556
Li1 O16 2.498077 1_655
Fe0 O2 2.031000 1_555
Fe0 O13 2.197577 1_555
Fe0 O6 2.199009 1_655
Fe0 O11 2.222483 1_556
Fe0 O4 2.226682 1_566
Fe0 O7 2.371303 1_565
Fe1 O9 2.031000 1_555
Fe1 O17 2.197577 1_555
Fe1 O4 2.199009 1_455
Fe1 O16 2.222483 1_554
Fe1 O6 2.226682 1_544
Fe1 O14 2.371303 1_545
O0 P3 1.474025 1_555
O1 P5 1.616283 1_555
O1 P0 1.617306 1_565
O2 P5 1.491495 1_555
O3 P1 1.616283 1_555
O3 P2 1.617306 1_545
O4 P1 1.529453 1_555
O5 P4 1.474025 1_555
O6 P5 1.529453 1_555
O7 P0 1.507296 1_655
O8 P1 1.576927 1_555
O8 P3 1.619134 1_555
O9 P1 1.491495 1_555
O10 P0 1.608579 1_555
O10 P4 1.626102 1_555
O11 P3 1.520269 1_555
O12 P2 1.608579 1_555
O12 P3 1.626102 1_555
O13 P2 1.508010 1_555
O14 P2 1.507296 1_455
O15 P5 1.576927 1_555
O15 P4 1.619134 1_555
O16 P4 1.520269 1_555
O17 P0 1.508010 1_555
