# generated using pymatgen
data_Na3Eu(CO3)3
_symmetry_space_group_name_H-M   'P 1'
_cell_length_a   6.68036004
_cell_length_b   6.68036004
_cell_length_c   10.14457400
_cell_angle_alpha   90.00000000
_cell_angle_beta   90.00000000
_cell_angle_gamma   113.62829724
_symmetry_Int_Tables_number   1
_chemical_formula_structural   Na3Eu(CO3)3
_chemical_formula_sum   'Na6 Eu2 C6 O18'
_cell_volume   414.76986922
_cell_formula_units_Z   2
loop_
 _symmetry_equiv_pos_site_id
 _symmetry_equiv_pos_as_xyz
  1  'x, y, z'
loop_
 _atom_site_type_symbol
 _atom_site_label
 _atom_site_symmetry_multiplicity
 _atom_site_fract_x
 _atom_site_fract_y
 _atom_site_fract_z
 _atom_site_occupancy
  Na  Na0  1  0.37123600  0.40475100  0.25000000  1
  Na  Na1  1  0.06565100  0.06565100  0.50000000  1
  Na  Na2  1  0.79736300  0.20927700  0.75000000  1
  Na  Na3  1  0.40475100  0.37123600  0.75000000  1
  Na  Na4  1  0.06565100  0.06565100  0.00000000  1
  Na  Na5  1  0.20927700  0.79736300  0.25000000  1
  Eu  Eu0  1  0.77268200  0.22686100  0.25000000  1
  Eu  Eu1  1  0.22686100  0.77268200  0.75000000  1
  C  C0  1  0.78170200  0.75930800  0.75000000  1
  C  C1  1  0.75930800  0.78170200  0.25000000  1
  C  C2  1  0.52896300  0.12499900  0.49901900  1
  C  C3  1  0.12499900  0.52896300  0.50098100  1
  C  C4  1  0.12499900  0.52896300  0.99901900  1
  C  C5  1  0.52896300  0.12499900  0.00098100  1
  O  O0  1  0.43264000  0.10723300  0.61189300  1
  O  O1  1  0.15469300  0.43729000  0.89152000  1
  O  O2  1  0.71894100  0.11852000  0.49075000  1
  O  O3  1  0.43729000  0.15469300  0.10848000  1
  O  O4  1  0.80688900  0.57735400  0.75000000  1
  O  O5  1  0.57735400  0.80688900  0.25000000  1
  O  O6  1  0.11852000  0.71894100  0.99075000  1
  O  O7  1  0.10723300  0.43264000  0.38810700  1
  O  O8  1  0.95819400  0.94327700  0.75000000  1
  O  O9  1  0.94327700  0.95819400  0.25000000  1
  O  O10  1  0.43729000  0.15469300  0.39152000  1
  O  O11  1  0.10723300  0.43264000  0.11189300  1
  O  O12  1  0.59088200  0.76396400  0.75000000  1
  O  O13  1  0.11852000  0.71894100  0.50925000  1
  O  O14  1  0.76396400  0.59088200  0.25000000  1
  O  O15  1  0.43264000  0.10723300  0.88810700  1
  O  O16  1  0.71894100  0.11852000  0.00925000  1
  O  O17  1  0.15469300  0.43729000  0.60848000  1
loop_
_geom_bond_atom_site_label_1
_geom_bond_atom_site_label_2
_geom_bond_distance
_geom_bond_site_symmetry_2
Na0 O7 2.317631 1_555
Na0 O11 2.317631 1_555
Na0 O10 2.374281 1_555
Na0 O3 2.374281 1_555
Na0 O14 2.411265 1_555
Na0 O5 2.479452 1_555
Na1 O2 2.480689 1_455
Na1 O13 2.480689 1_545
Na1 O17 2.558282 1_555
Na1 O10 2.558282 1_555
Na1 O0 2.613457 1_555
Na1 O7 2.613457 1_555
Na1 O8 2.673056 1_445
Na1 O9 2.673056 1_445
Na2 O8 2.417109 1_545
Na2 O4 2.434079 1_555
Na2 O0 2.651913 1_555
Na2 O15 2.651913 1_555
Na2 O17 2.676721 1_655
Na2 O1 2.676721 1_655
Na2 O2 2.702634 1_555
Na2 O16 2.702634 1_556
Na2 O12 2.731865 1_545
Na3 O15 2.317631 1_555
Na3 O0 2.317631 1_555
Na3 O17 2.374281 1_555
Na3 O1 2.374281 1_555
Na3 O12 2.411265 1_555
Na3 O4 2.479452 1_555
Na4 O16 2.480689 1_455
Na4 O6 2.480689 1_544
Na4 O3 2.558282 1_555
Na4 O1 2.558282 1_554
Na4 O11 2.613457 1_555
Na4 O15 2.613457 1_554
Na4 O8 2.673056 1_444
Na4 O9 2.673056 1_445
Na5 O9 2.417109 1_455
Na5 O5 2.434079 1_555
Na5 O7 2.651913 1_555
Na5 O11 2.651913 1_555
Na5 O3 2.676721 1_565
Na5 O10 2.676721 1_565
Na5 O13 2.702634 1_555
Na5 O6 2.702634 1_554
Na5 O14 2.731865 1_455
Eu0 O14 2.455714 1_555
Eu0 O9 2.481866 1_545
Eu0 O11 2.526807 1_655
Eu0 O7 2.526807 1_655
Eu0 O16 2.531657 1_555
Eu0 O2 2.531657 1_555
Eu0 O10 2.539230 1_555
Eu0 O3 2.539230 1_555
Eu0 O5 2.576681 1_545
Eu1 O12 2.455714 1_555
Eu1 O8 2.481866 1_455
Eu1 O15 2.526807 1_565
Eu1 O0 2.526807 1_565
Eu1 O6 2.531657 1_555
Eu1 O13 2.531657 1_555
Eu1 O1 2.539230 1_555
Eu1 O17 2.539230 1_555
Eu1 O4 2.576681 1_455
C0 O12 1.287528 1_555
C0 O4 1.292184 1_555
C0 O8 1.318702 1_555
C1 O14 1.287528 1_555
C1 O5 1.292184 1_555
C1 O9 1.318702 1_555
C2 O2 1.289811 1_555
C2 O0 1.295409 1_555
C2 O10 1.304236 1_555
C3 O13 1.289811 1_555
C3 O7 1.295409 1_555
C3 O17 1.304236 1_555
C4 O6 1.289811 1_555
C4 O11 1.295409 1_556
C4 O1 1.304236 1_555
C5 O16 1.289811 1_555
C5 O15 1.295409 1_554
C5 O3 1.304236 1_555
