# generated using pymatgen
data_Ba3Ga2(Ge2O7)2
_symmetry_space_group_name_H-M   'P 1'
_cell_length_a   8.70978742
_cell_length_b   8.70978742
_cell_length_c   5.09435500
_cell_angle_alpha   90.00000000
_cell_angle_beta   90.00000000
_cell_angle_gamma   119.99999560
_symmetry_Int_Tables_number   1
_chemical_formula_structural   Ba3Ga2(Ge2O7)2
_chemical_formula_sum   'Ba3 Ga2 Ge4 O14'
_cell_volume   334.68401250
_cell_formula_units_Z   1
loop_
 _symmetry_equiv_pos_site_id
 _symmetry_equiv_pos_as_xyz
  1  'x, y, z'
loop_
 _atom_site_type_symbol
 _atom_site_label
 _atom_site_symmetry_multiplicity
 _atom_site_fract_x
 _atom_site_fract_y
 _atom_site_fract_z
 _atom_site_occupancy
  Ba  Ba0  1  0.57300300  0.00000000  0.00000000  1
  Ba  Ba1  1  0.42699700  0.42699700  0.00000000  1
  Ba  Ba2  1  0.00000000  0.57300300  0.00000000  1
  Ga  Ga0  1  0.66666700  0.33333300  0.50013100  1
  Ga  Ga1  1  0.33333300  0.66666700  0.49986900  1
  Ge  Ge0  1  0.00000000  0.24463300  0.50000000  1
  Ge  Ge1  1  0.24463300  0.00000000  0.50000000  1
  Ge  Ge2  1  0.75536700  0.75536700  0.50000000  1
  Ge  Ge3  1  0.00000000  0.00000000  0.00000000  1
  O  O0  1  0.28447800  0.83683800  0.65105400  1
  O  O1  1  0.83683800  0.28447800  0.34894600  1
  O  O2  1  0.33333300  0.66666700  0.15122600  1
  O  O3  1  0.09721200  0.89194500  0.23088100  1
  O  O4  1  0.79473300  0.90278800  0.23088100  1
  O  O5  1  0.20526700  0.10805500  0.76911900  1
  O  O6  1  0.55236000  0.71552200  0.65105400  1
  O  O7  1  0.16316200  0.44764000  0.65105400  1
  O  O8  1  0.66666700  0.33333300  0.84877400  1
  O  O9  1  0.71552200  0.55236000  0.34894600  1
  O  O10  1  0.89194500  0.09721200  0.76911900  1
  O  O11  1  0.44764000  0.16316200  0.34894600  1
  O  O12  1  0.90278800  0.79473300  0.76911900  1
  O  O13  1  0.10805500  0.20526700  0.23088100  1
loop_
_geom_bond_atom_site_label_1
_geom_bond_atom_site_label_2
_geom_bond_distance
_geom_bond_site_symmetry_2
Ba0 O8 2.705456 1_554
Ba0 O2 2.705458 1_545
Ba0 O4 2.732231 1_545
Ba0 O10 2.732231 1_554
Ba0 O11 2.814871 1_555
Ba0 O0 2.814871 1_544
Ba0 O6 2.980957 1_544
Ba0 O1 2.980957 1_555
Ba1 O8 2.705463 1_554
Ba1 O2 2.705463 1_555
Ba1 O5 2.732232 1_554
Ba1 O13 2.732232 1_555
Ba1 O6 2.814871 1_554
Ba1 O9 2.814871 1_555
Ba1 O7 2.980957 1_554
Ba1 O11 2.980957 1_555
Ba2 O2 2.705456 1_555
Ba2 O8 2.705458 1_454
Ba2 O12 2.732231 1_454
Ba2 O3 2.732231 1_555
Ba2 O7 2.814871 1_554
Ba2 O1 2.814871 1_455
Ba2 O9 2.980957 1_455
Ba2 O0 2.980957 1_554
Ga0 O8 1.776111 1_555
Ga0 O1 1.897819 1_555
Ga0 O11 1.897824 1_555
Ga0 O9 1.897827 1_555
Ga1 O2 1.776111 1_555
Ga1 O0 1.897819 1_555
Ga1 O7 1.897824 1_555
Ga1 O6 1.897827 1_555
Ge0 O13 1.790416 1_555
Ge0 O10 1.790416 1_455
Ge0 O1 1.795920 1_455
Ge0 O7 1.795920 1_555
Ge1 O5 1.790416 1_555
Ge1 O3 1.790416 1_545
Ge1 O0 1.795920 1_545
Ge1 O11 1.795920 1_555
Ge2 O4 1.790416 1_555
Ge2 O12 1.790416 1_555
Ge2 O9 1.795920 1_555
Ge2 O6 1.795920 1_555
Ge3 O10 1.944970 1_454
Ge3 O3 1.944970 1_545
Ge3 O12 1.944970 1_444
Ge3 O4 1.944970 1_445
Ge3 O13 1.944970 1_555
Ge3 O5 1.944970 1_554
