# generated using pymatgen
data_K4Ni(NO2)6
_symmetry_space_group_name_H-M   'P 1'
_cell_length_a   7.63635170
_cell_length_b   25.71925751
_cell_length_c   8.86383466
_cell_angle_alpha   84.89632233
_cell_angle_beta   64.48942177
_cell_angle_gamma   81.46389545
_symmetry_Int_Tables_number   1
_chemical_formula_structural   K4Ni(NO2)6
_chemical_formula_sum   'K16 Ni4 N24 O48'
_cell_volume   1553.12848447
_cell_formula_units_Z   4
loop_
 _symmetry_equiv_pos_site_id
 _symmetry_equiv_pos_as_xyz
  1  'x, y, z'
loop_
 _atom_site_type_symbol
 _atom_site_label
 _atom_site_symmetry_multiplicity
 _atom_site_fract_x
 _atom_site_fract_y
 _atom_site_fract_z
 _atom_site_occupancy
  K  K0  1  0.21371000  0.79780800  0.77490200  1
  K  K1  1  0.71362900  0.54770800  0.02495900  1
  K  K2  1  0.21372600  0.29775000  0.27490300  1
  K  K3  1  0.71361300  0.04773900  0.52495600  1
  K  K4  1  0.28636200  0.95230400  0.47505400  1
  K  K5  1  0.78627700  0.70223500  0.72508400  1
  K  K6  1  0.28639000  0.45224500  0.97505000  1
  K  K7  1  0.78629600  0.20220500  0.22509300  1
  K  K8  1  0.56608200  0.90569800  0.96203000  1
  K  K9  1  0.06600000  0.65561000  0.21221100  1
  K  K10  1  0.56613900  0.40556500  0.46205100  1
  K  K11  1  0.06600100  0.15559500  0.71221500  1
  K  K12  1  0.93395800  0.84446400  0.28778000  1
  K  K13  1  0.43389700  0.59436300  0.53794900  1
  K  K14  1  0.93401200  0.34433100  0.78781900  1
  K  K15  1  0.43389500  0.09437800  0.03795200  1
  Ni  Ni0  1  0.50008400  0.75004200  0.24980000  1
  Ni  Ni1  1  0.99992300  0.49995500  0.50017700  1
  Ni  Ni2  1  0.49987700  0.24995100  0.75027900  1
  Ni  Ni3  1  0.00011100  0.00004700  0.99974600  1
  N  N0  1  0.77944600  0.76761300  0.06626200  1
  N  N1  1  0.27945700  0.51768100  0.31627800  1
  N  N2  1  0.77949200  0.26769500  0.56625300  1
  N  N3  1  0.27950000  0.01764800  0.81622100  1
  N  N4  1  0.42078600  0.82862600  0.33728900  1
  N  N5  1  0.92069400  0.57870300  0.58731900  1
  N  N6  1  0.42057500  0.32877500  0.83737900  1
  N  N7  1  0.92069700  0.07869900  0.08733000  1
  N  N8  1  0.39030300  0.76949200  0.06445500  1
  N  N9  1  0.89029000  0.51952100  0.31444500  1
  N  N10  1  0.39030500  0.26951100  0.56437400  1
  N  N11  1  0.89029900  0.01950700  0.81440800  1
  N  N12  1  0.10969100  0.98048800  0.18562100  1
  N  N13  1  0.60971600  0.73048000  0.43555900  1
  N  N14  1  0.10969300  0.48050800  0.68553700  1
  N  N15  1  0.60970500  0.23049400  0.93559900  1
  N  N16  1  0.07942900  0.92123000  0.91261300  1
  N  N17  1  0.57930400  0.67129300  0.16268800  1
  N  N18  1  0.07922100  0.42138000  0.41270000  1
  N  N19  1  0.57929900  0.17129600  0.66268000  1
  N  N20  1  0.72049800  0.98230100  0.18374800  1
  N  N21  1  0.22055200  0.73232300  0.43372100  1
  N  N22  1  0.72054600  0.48238300  0.68373600  1
  N  N23  1  0.22051000  0.23235600  0.93378000  1
  O  O0  1  0.40544700  0.98324300  0.72168000  1
  O  O1  1  0.90545200  0.73322700  0.97163100  1
  O  O2  1  0.40557600  0.48326800  0.22160200  1
  O  O3  1  0.90554300  0.23327800  0.47161400  1
  O  O4  1  0.00507600  0.96399100  0.33103400  1
  O  O5  1  0.50501700  0.71400600  0.58103100  1
  O  O6  1  0.00493400  0.46408100  0.83109900  1
  O  O7  1  0.50498500  0.21402800  0.08105300  1
  O  O8  1  0.45790700  0.84292800  0.45209100  1
  O  O9  1  0.95782600  0.59299300  0.70211000  1
  O  O10  1  0.45784600  0.34307600  0.95205100  1
  O  O11  1  0.95786500  0.09297900  0.20210600  1
  O  O12  1  0.09443800  0.76673300  0.52841300  1
  O  O13  1  0.59453600  0.51677300  0.77835400  1
  O  O14  1  0.09456900  0.26675800  0.02833300  1
  O  O15  1  0.59444400  0.01672200  0.27837200  1
  O  O16  1  0.49506700  0.78593700  0.91892500  1
  O  O17  1  0.99498500  0.53597700  0.16894100  1
  O  O18  1  0.49492400  0.28602800  0.41899500  1
  O  O19  1  0.99501500  0.03595400  0.66892100  1
  O  O20  1  0.04217800  0.90694200  0.79791300  1
  O  O21  1  0.54215200  0.65698900  0.04792500  1
  O  O22  1  0.04211600  0.40709000  0.29787300  1
  O  O23  1  0.54211300  0.15700200  0.54792800  1
  O  O24  1  0.32348800  0.86203000  0.28056200  1
  O  O25  1  0.82352200  0.61210100  0.53057900  1
  O  O26  1  0.32351800  0.36216500  0.78057700  1
  O  O27  1  0.82348300  0.11210100  0.03061400  1
  O  O28  1  0.21820700  0.76189400  0.09539800  1
  O  O29  1  0.71811700  0.51194700  0.34542500  1
  O  O30  1  0.21814600  0.26195600  0.59534900  1
  O  O31  1  0.71820600  0.01190800  0.84543100  1
  O  O32  1  0.81939900  0.81447300  0.04287700  1
  O  O33  1  0.31939000  0.56450100  0.29284000  1
  O  O34  1  0.81940500  0.31450400  0.54283200  1
  O  O35  1  0.31942800  0.06448700  0.79279200  1
  O  O36  1  0.17647900  0.88783200  0.96939400  1
  O  O37  1  0.67648400  0.63790200  0.21944800  1
  O  O38  1  0.17650600  0.38796800  0.46941200  1
  O  O39  1  0.67652400  0.13790100  0.71941300  1
  O  O40  1  0.68058900  0.93549300  0.20720500  1
  O  O41  1  0.18061600  0.68550200  0.45712300  1
  O  O42  1  0.68059700  0.43552400  0.70716100  1
  O  O43  1  0.18057500  0.18551700  0.95717000  1
  O  O44  1  0.28187100  0.98804100  0.15458800  1
  O  O45  1  0.78186900  0.73805600  0.40463700  1
  O  O46  1  0.28180700  0.48810400  0.65454100  1
  O  O47  1  0.78177800  0.23809500  0.90463000  1
loop_
_geom_bond_atom_site_label_1
_geom_bond_atom_site_label_2
_geom_bond_distance
_geom_bond_site_symmetry_2
K0 O20 2.901040 1_555
K0 O16 2.904755 1_555
K0 O1 2.906968 1_455
K0 O8 2.909808 1_555
K0 O12 2.912503 1_555
K0 O5 2.913740 1_555
K0 O36 2.916544 1_555
K0 O32 2.920582 1_456
K0 O28 2.921028 1_556
K1 O2 2.903505 1_555
K1 O21 2.904367 1_555
K1 O17 2.904636 1_555
K1 O6 2.910648 1_654
K1 O13 2.911120 1_554
K1 O9 2.911761 1_554
K1 O29 2.919854 1_555
K1 O33 2.920120 1_555
K1 O37 2.920347 1_555
K2 O18 2.904274 1_555
K2 O3 2.904783 1_455
K2 O22 2.906024 1_555
K2 O14 2.911735 1_555
K2 O10 2.912047 1_554
K2 O7 2.912136 1_555
K2 O30 2.919679 1_555
K2 O34 2.920628 1_455
K2 O38 2.920813 1_555
K3 O23 2.903994 1_555
K3 O19 2.904782 1_555
K3 O0 2.905117 1_545
K3 O11 2.911412 1_555
K3 O15 2.912159 1_555
K3 O4 2.913421 1_645
K3 O39 2.919603 1_555
K3 O35 2.919619 1_555
K3 O31 2.920647 1_555
K4 O15 2.903355 1_565
K4 O4 2.904451 1_555
K4 O8 2.906728 1_555
K4 O19 2.911198 1_465
K4 O0 2.911288 1_555
K4 O20 2.912601 1_555
K4 O44 2.919723 1_555
K4 O40 2.919983 1_555
K4 O24 2.922116 1_555
K5 O9 2.903607 1_555
K5 O5 2.904391 1_555
K5 O12 2.905031 1_655
K5 O21 2.911153 1_556
K5 O16 2.911611 1_555
K5 O1 2.911643 1_555
K5 O25 2.918940 1_555
K5 O45 2.919810 1_555
K5 O41 2.920791 1_655
K6 O10 2.901699 1_555
K6 O6 2.905007 1_555
K6 O13 2.905495 1_555
K6 O22 2.910408 1_556
K6 O2 2.912048 1_556
K6 O17 2.912875 1_456
K6 O26 2.917854 1_555
K6 O42 2.919863 1_555
K6 O46 2.921067 1_555
K7 O11 2.903272 1_555
K7 O7 2.904601 1_555
K7 O14 2.906636 1_655
K7 O23 2.910789 1_555
K7 O3 2.912612 1_555
K7 O18 2.914395 1_555
K7 O27 2.918277 1_555
K7 O43 2.920284 1_654
K7 O47 2.920671 1_554
K8 O44 2.862949 1_556
K8 O40 2.864717 1_556
K8 O24 2.865853 1_556
K8 O31 3.047146 1_565
K8 O36 3.049610 1_555
K8 O32 3.050884 1_556
K8 O0 3.284785 1_555
K8 O20 3.287214 1_655
K8 O16 3.288039 1_555
K9 O25 2.862993 1_455
K9 O41 2.864096 1_555
K9 O45 2.864121 1_455
K9 O37 3.048227 1_455
K9 O33 3.048430 1_555
K9 O28 3.049317 1_555
K9 O17 3.285237 1_455
K9 O1 3.286866 1_454
K9 O21 3.288023 1_555
K10 O26 2.863123 1_555
K10 O42 2.865546 1_555
K10 O46 2.866540 1_555
K10 O34 3.047627 1_555
K10 O38 3.047824 1_555
K10 O29 3.050842 1_555
K10 O18 3.282866 1_555
K10 O2 3.287148 1_555
K10 O22 3.287342 1_655
K11 O27 2.863110 1_456
K11 O43 2.864523 1_555
K11 O47 2.865309 1_455
K11 O39 3.047970 1_455
K11 O35 3.048386 1_555
K11 O30 3.051015 1_555
K11 O19 3.285416 1_455
K11 O3 3.287460 1_455
K11 O23 3.287841 1_555
K12 O36 2.861747 1_654
K12 O32 2.864703 1_555
K12 O28 2.866515 1_655
K12 O40 3.046776 1_555
K12 O24 3.047336 1_655
K12 O45 3.051966 1_555
K12 O4 3.282829 1_655
K12 O8 3.287858 1_555
K12 O12 3.288379 1_655
K13 O29 2.864152 1_555
K13 O37 2.864327 1_555
K13 O33 2.864838 1_555
K13 O46 3.048208 1_555
K13 O25 3.048789 1_555
K13 O41 3.049185 1_555
K13 O5 3.285319 1_555
K13 O13 3.285742 1_555
K13 O9 3.287463 1_455
K14 O30 2.863017 1_655
K14 O34 2.864020 1_555
K14 O38 2.864575 1_655
K14 O47 3.048252 1_555
K14 O26 3.049082 1_655
K14 O42 3.050074 1_555
K14 O14 3.285904 1_656
K14 O10 3.287707 1_555
K14 O6 3.287933 1_655
K15 O39 2.864479 1_554
K15 O35 2.865330 1_554
K15 O31 2.865361 1_554
K15 O27 3.048514 1_555
K15 O43 3.049198 1_554
K15 O44 3.049911 1_545
K15 O7 3.285459 1_555
K15 O15 3.286296 1_555
K15 O11 3.287279 1_455
N0 O1 1.263224 1_554
N0 O32 1.264439 1_555
N0 Ni0 2.137256 1_555
N1 O33 1.263377 1_555
N1 O2 1.264152 1_555
N1 Ni1 2.140345 1_455
N2 O34 1.263057 1_555
N2 O3 1.263895 1_555
N2 Ni2 2.141267 1_555
N3 O0 1.263054 1_545
N3 O35 1.263843 1_555
N3 Ni3 2.137590 1_555
N4 O8 1.263784 1_555
N4 O24 1.264286 1_555
N4 Ni0 2.136363 1_555
N5 O9 1.263623 1_555
N5 O25 1.263635 1_555
N5 Ni1 2.139323 1_555
N6 O26 1.263267 1_555
N6 O10 1.263409 1_555
N6 Ni2 2.141026 1_555
N7 O11 1.263567 1_555
N7 O27 1.263777 1_555
N7 Ni3 2.138262 1_654
N8 O28 1.263617 1_555
N8 O16 1.263871 1_554
N8 Ni0 2.137204 1_555
N9 O17 1.263673 1_555
N9 O29 1.263928 1_555
N9 Ni1 2.139894 1_555
N10 O18 1.263268 1_555
N10 O30 1.263694 1_555
N10 Ni2 2.140963 1_555
N11 O31 1.263429 1_555
N11 O19 1.263526 1_555
N11 Ni3 2.137338 1_655
N12 O4 1.263303 1_555
N12 O44 1.263709 1_555
N12 Ni3 2.140759 1_564
N13 O5 1.263634 1_555
N13 O45 1.263920 1_555
N13 Ni0 2.140097 1_555
N14 O46 1.263620 1_555
N14 O6 1.263910 1_555
N14 Ni1 2.137260 1_455
N15 O47 1.263412 1_555
N15 O7 1.263489 1_556
N15 Ni2 2.137268 1_555
N16 O36 1.263237 1_555
N16 O20 1.263413 1_555
N16 Ni3 2.140951 1_565
N17 O21 1.263629 1_555
N17 O37 1.263679 1_555
N17 Ni0 2.139262 1_555
N18 O22 1.263793 1_555
N18 O38 1.264257 1_555
N18 Ni1 2.136111 1_455
N19 O23 1.263597 1_555
N19 O39 1.263821 1_555
N19 Ni2 2.138377 1_555
N20 O40 1.263015 1_555
N20 O15 1.263917 1_565
N20 Ni3 2.141204 1_664
N21 O41 1.263417 1_555
N21 O12 1.264144 1_555
N21 Ni0 2.140342 1_555
N22 O13 1.263256 1_555
N22 O42 1.264395 1_555
N22 Ni1 2.137402 1_555
N23 O14 1.263030 1_556
N23 O43 1.263868 1_555
N23 Ni2 2.137361 1_555
