# generated using pymatgen
data_SiC
_symmetry_space_group_name_H-M   'P 1'
_cell_length_a   3.07361211
_cell_length_b   3.07361225
_cell_length_c   98.10372014
_cell_angle_alpha   90.00000000
_cell_angle_beta   90.00000000
_cell_angle_gamma   119.99999842
_symmetry_Int_Tables_number   1
_chemical_formula_structural   SiC
_chemical_formula_sum   'Si39 C39'
_cell_volume   802.62789917
_cell_formula_units_Z   39
loop_
 _symmetry_equiv_pos_site_id
 _symmetry_equiv_pos_as_xyz
  1  'x, y, z'
loop_
 _atom_site_type_symbol
 _atom_site_label
 _atom_site_symmetry_multiplicity
 _atom_site_fract_x
 _atom_site_fract_y
 _atom_site_fract_z
 _atom_site_occupancy
  Si  Si0  1  0.33333300  0.66666700  0.17945686  1
  Si  Si1  1  0.00000000  -0.00000000  0.79485877  1
  Si  Si2  1  0.33333300  0.66666700  0.61536710  1
  Si  Si3  1  0.66666700  0.33333300  0.46155441  1
  Si  Si4  1  0.33333300  0.66666700  0.97435208  1
  Si  Si5  1  0.33333300  0.66666700  0.76927417  1
  Si  Si6  1  0.00000000  0.00000000  0.53841861  1
  Si  Si7  1  0.33333300  0.66666700  0.56406393  1
  Si  Si8  1  0.33333300  0.66666700  0.92303858  1
  Si  Si9  1  0.00000000  -0.00000000  0.15382955  1
  Si  Si10  1  0.66666700  0.33333300  0.05131512  1
  Si  Si11  1  0.00000000  -0.00000000  0.89738850  1
  Si  Si12  1  0.66666700  0.33333300  0.41029912  1
  Si  Si13  1  0.33333300  0.66666700  0.33335023  1
  Si  Si14  1  0.33333300  0.66666700  0.43593717  1
  Si  Si15  1  0.00000000  0.00000000  0.84608623  1
  Si  Si16  1  0.33333300  0.66666700  0.51274567  1
  Si  Si17  1  0.66666700  0.33333300  0.82047525  1
  Si  Si18  1  -0.00000000  0.00000000  0.48712587  1
  Si  Si19  1  0.66666700  0.33333300  0.58971380  1
  Si  Si20  1  -0.00000000  0.00000000  0.69235935  1
  Si  Si21  1  0.66666700  0.33333300  0.25636292  1
  Si  Si22  1  0.66666700  0.33333300  0.74363414  1
  Si  Si23  1  0.66666700  0.33333300  0.20505298  1
  Si  Si24  1  0.33333300  0.66666700  0.71797889  1
  Si  Si25  1  0.33333300  0.66666700  0.02569505  1
  Si  Si26  1  -0.00000000  0.00000000  0.23070061  1
  Si  Si27  1  -0.00000000  0.00000000  0.64099112  1
  Si  Si28  1  0.33333300  0.66666700  0.12820029  1
  Si  Si29  1  0.33333300  0.66666700  0.87171053  1
  Si  Si30  1  -0.00000000  0.00000000  0.07697120  1
  Si  Si31  1  0.66666700  0.33333300  0.35898030  1
  Si  Si32  1  -0.00000000  0.00000000  0.30766844  1
  Si  Si33  1  0.66666700  0.33333300  0.10260943  1
  Si  Si34  1  -0.00000000  0.00000000  0.00002666  1
  Si  Si35  1  0.66666700  0.33333300  0.66667851  1
  Si  Si36  1  0.66666700  0.33333300  0.94869205  1
  Si  Si37  1  -0.00000000  0.00000000  0.38464849  1
  Si  Si38  1  0.33333300  0.66666700  0.28198910  1
  C  C0  1  0.00000000  -0.00000000  0.40393843  1
  C  C1  1  0.00000000  0.00000000  0.66023553  1
  C  C2  1  -0.00000000  0.00000000  0.32697557  1
  C  C3  1  0.66666700  0.33333300  0.42951583  1
  C  C4  1  0.66666700  0.33333300  0.60900702  1
  C  C5  1  0.33333300  0.66666700  0.19867890  1
  C  C6  1  0.00000000  0.00000000  0.91667430  1
  C  C7  1  -0.00000000  0.00000000  0.86529261  1
  C  C8  1  -0.00000000  0.00000000  0.01932427  1
  C  C9  1  0.33333300  0.66666700  0.45521134  1
  C  C10  1  0.33333300  0.66666700  0.73720601  1
  C  C11  1  0.33333300  0.66666700  0.78849342  1
  C  C12  1  0.33333300  0.66666700  0.14741481  1
  C  C13  1  0.33333300  0.66666700  0.04492714  1
  C  C14  1  0.66666700  0.33333300  0.83974486  1
  C  C15  1  0.66666700  0.33333300  0.12182855  1
  C  C16  1  0.33333300  0.66666700  0.35259004  1
  C  C17  1  0.66666700  0.33333300  0.76291964  1
  C  C18  1  0.66666700  0.33333300  0.27560471  1
  C  C19  1  0.66666700  0.33333300  0.96798641  1
  C  C20  1  0.00000000  -0.00000000  0.81406706  1
  C  C21  1  -0.00000000  0.00000000  0.71159328  1
  C  C22  1  0.00000000  -0.00000000  0.55770138  1
  C  C23  1  0.33333300  0.66666700  0.94226354  1
  C  C24  1  0.66666700  0.33333300  0.37821460  1
  C  C25  1  -0.00000000  0.00000000  0.50633282  1
  C  C26  1  0.33333300  0.66666700  0.89098262  1
  C  C27  1  0.33333300  0.66666700  0.30123047  1
  C  C28  1  0.66666700  0.33333300  0.22427787  1
  C  C29  1  0.66666700  0.33333300  0.68598529  1
  C  C30  1  -0.00000000  0.00000000  0.17310557  1
  C  C31  1  0.33333300  0.66666700  0.99358431  1
  C  C32  1  0.66666700  0.33333300  0.48076467  1
  C  C33  1  0.33333300  0.66666700  0.53201410  1
  C  C34  1  0.33333300  0.66666700  0.58328755  1
  C  C35  1  0.66666700  0.33333300  0.07054389  1
  C  C36  1  -0.00000000  0.00000000  0.09625413  1
  C  C37  1  0.33333300  0.66666700  0.63460178  1
  C  C38  1  0.00000000  0.00000000  0.24999859  1
loop_
_geom_bond_atom_site_label_1
_geom_bond_atom_site_label_2
_geom_bond_distance
_geom_bond_site_symmetry_2
C0 Si12 1.881066 1_455
C0 Si12 1.881069 1_555
C0 Si12 1.881069 1_445
C0 Si37 1.892415 1_555
C1 Si35 1.883759 1_455
C1 Si35 1.883762 1_555
C1 Si35 1.883762 1_445
C1 Si27 1.887948 1_555
C2 Si13 1.881521 1_545
C2 Si13 1.881524 1_445
C2 Si13 1.881524 1_555
C2 Si32 1.894101 1_555
C3 Si14 1.883048 1_655
C3 Si14 1.883048 1_545
C3 Si14 1.883053 1_555
C3 Si12 1.885231 1_555
C4 Si2 1.881046 1_655
C4 Si2 1.881046 1_545
C4 Si2 1.881051 1_555
C4 Si19 1.892737 1_555
C5 Si23 1.881502 1_455
C5 Si23 1.881502 1_565
C5 Si23 1.881507 1_555
C5 Si0 1.885754 1_555
C6 Si8 1.881183 1_545
C6 Si8 1.881185 1_445
C6 Si8 1.881185 1_555
C6 Si11 1.892009 1_555
C7 Si29 1.882936 1_545
C7 Si29 1.882938 1_445
C7 Si29 1.882939 1_555
C7 Si15 1.884217 1_555
C8 Si25 1.881395 1_545
C8 Si25 1.881397 1_445
C8 Si25 1.881397 1_555
C8 Si34 1.893167 1_555
C9 Si3 1.880493 1_455
C9 Si3 1.880493 1_565
C9 Si3 1.880498 1_555
C9 Si14 1.890868 1_555
C10 Si22 1.883271 1_455
C10 Si22 1.883271 1_565
C10 Si22 1.883276 1_555
C10 Si24 1.886252 1_555
C11 Si1 1.881218 1_565
C11 Si1 1.881220 1_665
C11 Si1 1.881220 1_555
C11 Si5 1.885480 1_555
C12 Si9 1.882832 1_565
C12 Si9 1.882834 1_665
C12 Si9 1.882834 1_555
C12 Si28 1.885016 1_555
C13 Si10 1.881956 1_455
C13 Si10 1.881956 1_565
C13 Si10 1.881961 1_555
C13 Si25 1.886740 1_555
C14 Si15 1.880438 1_655
C14 Si15 1.880441 1_555
C14 Si15 1.880441 1_665
C14 Si17 1.890420 1_555
C15 Si28 1.881426 1_655
C15 Si28 1.881426 1_545
C15 Si28 1.881431 1_555
C15 Si33 1.885467 1_555
C16 Si31 1.882030 1_455
C16 Si31 1.882030 1_565
C16 Si31 1.882035 1_555
C16 Si13 1.887497 1_555
C17 Si5 1.880866 1_655
C17 Si5 1.880866 1_545
C17 Si5 1.880871 1_555
C17 Si22 1.891979 1_555
C18 Si38 1.881839 1_655
C18 Si38 1.881839 1_545
C18 Si38 1.881844 1_555
C18 Si21 1.887691 1_555
C19 Si4 1.881228 1_655
C19 Si4 1.881228 1_545
C19 Si4 1.881233 1_555
C19 Si36 1.892848 1_555
C20 Si17 1.882617 1_455
C20 Si17 1.882620 1_555
C20 Si17 1.882620 1_445
C20 Si1 1.884405 1_555
C21 Si24 1.881878 1_545
C21 Si24 1.881881 1_445
C21 Si24 1.881881 1_555
C21 Si20 1.886920 1_555
C22 Si7 1.881127 1_545
C22 Si7 1.881129 1_445
C22 Si7 1.881129 1_555
C22 Si6 1.891711 1_555
C23 Si36 1.883284 1_455
C23 Si36 1.883284 1_565
C23 Si36 1.883289 1_555
C23 Si8 1.886040 1_555
C24 Si37 1.883460 1_655
C24 Si37 1.883463 1_555
C24 Si37 1.883463 1_665
C24 Si31 1.886956 1_555
C25 Si16 1.882770 1_545
C25 Si16 1.882772 1_445
C25 Si16 1.882772 1_555
C25 Si18 1.884273 1_555
C26 Si11 1.882541 1_565
C26 Si11 1.882544 1_665
C26 Si11 1.882544 1_555
C26 Si29 1.890664 1_555
C27 Si32 1.883595 1_565
C27 Si32 1.883597 1_665
C27 Si32 1.883597 1_555
C27 Si38 1.887650 1_555
C28 Si26 1.883094 1_655
C28 Si26 1.883097 1_555
C28 Si26 1.883097 1_665
C28 Si23 1.886033 1_555
C29 Si20 1.881502 1_655
C29 Si20 1.881504 1_555
C29 Si20 1.881504 1_665
C29 Si35 1.894067 1_555
C30 Si0 1.880760 1_545
C30 Si0 1.880763 1_445
C30 Si0 1.880763 1_555
C30 Si9 1.891049 1_555
C31 Si34 1.883739 1_566
C31 Si34 1.883741 1_666
C31 Si34 1.883741 1_556
C31 Si4 1.886753 1_555
C32 Si18 1.881083 1_655
C32 Si18 1.881085 1_555
C32 Si18 1.881085 1_665
C32 Si3 1.884598 1_555
C33 Si6 1.882496 1_565
C33 Si6 1.882499 1_665
C33 Si6 1.882499 1_555
C33 Si16 1.890305 1_555
C34 Si19 1.883209 1_455
C34 Si19 1.883209 1_565
C34 Si19 1.883214 1_555
C34 Si7 1.885909 1_555
C35 Si30 1.883244 1_655
C35 Si30 1.883247 1_555
C35 Si30 1.883247 1_665
C35 Si10 1.886414 1_555
C36 Si33 1.880891 1_455
C36 Si33 1.880893 1_555
C36 Si33 1.880893 1_445
C36 Si30 1.891727 1_555
C37 Si27 1.882000 1_565
C37 Si27 1.882003 1_665
C37 Si27 1.882003 1_555
C37 Si2 1.886994 1_555
C38 Si21 1.881185 1_455
C38 Si21 1.881187 1_555
C38 Si21 1.881187 1_445
C38 Si26 1.893204 1_555
