# generated using pymatgen
data_Ge3Pb5O11
_symmetry_space_group_name_H-M   'P 1'
_cell_length_a   10.43567058
_cell_length_b   10.43567058
_cell_length_c   10.89919500
_cell_angle_alpha   90.00000000
_cell_angle_beta   90.00000000
_cell_angle_gamma   120.00000370
_symmetry_Int_Tables_number   1
_chemical_formula_structural   Ge3Pb5O11
_chemical_formula_sum   'Ge9 Pb15 O33'
_cell_volume   1027.93525512
_cell_formula_units_Z   3
loop_
 _symmetry_equiv_pos_site_id
 _symmetry_equiv_pos_as_xyz
  1  'x, y, z'
loop_
 _atom_site_type_symbol
 _atom_site_label
 _atom_site_symmetry_multiplicity
 _atom_site_fract_x
 _atom_site_fract_y
 _atom_site_fract_z
 _atom_site_occupancy
  Ge  Ge0  1  0.60539800  0.62605400  0.14749700  1
  Ge  Ge1  1  0.02065600  0.39460200  0.14749700  1
  Ge  Ge2  1  0.61676600  0.00767800  0.50470800  1
  Ge  Ge3  1  0.37394600  0.97934400  0.14749700  1
  Ge  Ge4  1  0.39091300  0.38323400  0.50470800  1
  Ge  Ge5  1  0.61166100  0.61986100  0.84500700  1
  Ge  Ge6  1  0.00820000  0.38833900  0.84500700  1
  Ge  Ge7  1  0.99232200  0.60908700  0.50470800  1
  Ge  Ge8  1  0.38013900  0.99180000  0.84500700  1
  Pb  Pb0  1  0.73769300  0.73971500  0.52166800  1
  Pb  Pb1  1  0.74033100  0.00338600  0.81639500  1
  Pb  Pb2  1  0.66666700  0.33333300  0.32090500  1
  Pb  Pb3  1  0.00278200  0.72863500  0.18499800  1
  Pb  Pb4  1  0.27136500  0.27414700  0.18499800  1
  Pb  Pb5  1  0.26305500  0.25966900  0.81639500  1
  Pb  Pb6  1  0.26028500  0.99797800  0.52166800  1
  Pb  Pb7  1  0.33333300  0.66666700  0.00166000  1
  Pb  Pb8  1  0.33333300  0.66666700  0.66344000  1
  Pb  Pb9  1  0.00202200  0.26230700  0.52166800  1
  Pb  Pb10  1  0.33333300  0.66666700  0.34050400  1
  Pb  Pb11  1  0.66666700  0.33333300  0.00031000  1
  Pb  Pb12  1  0.99661400  0.73694500  0.81639500  1
  Pb  Pb13  1  0.72585300  0.99721800  0.18499800  1
  Pb  Pb14  1  0.66666700  0.33333300  0.67458000  1
  O  O0  1  0.83010700  0.32500600  0.16151600  1
  O  O1  1  0.23405300  0.91593200  0.73622800  1
  O  O2  1  0.18927700  0.70468100  0.50335500  1
  O  O3  1  0.08406800  0.31812100  0.73622800  1
  O  O4  1  0.67880100  0.76974400  0.25639300  1
  O  O5  1  0.51540400  0.81072300  0.50335500  1
  O  O6  1  0.12390300  0.59362900  0.15349200  1
  O  O7  1  0.67499400  0.50510100  0.16151600  1
  O  O8  1  0.92819100  0.68956200  0.61676700  1
  O  O9  1  0.09094200  0.32119900  0.25639300  1
  O  O10  1  0.70917300  0.52309600  0.83668700  1
  O  O11  1  0.81392200  0.29082700  0.83668700  1
  O  O12  1  0.46972700  0.87609700  0.15349200  1
  O  O13  1  0.58282000  0.49472300  0.53748200  1
  O  O14  1  0.41609200  0.51079600  0.83049500  1
  O  O15  1  0.48920400  0.90529600  0.83049500  1
  O  O16  1  0.71411800  0.08794000  0.36704500  1
  O  O17  1  0.29531900  0.48459600  0.50335500  1
  O  O18  1  0.28725900  0.93122800  0.99446700  1
  O  O19  1  0.09470400  0.58390800  0.83049500  1
  O  O20  1  0.37382300  0.28588200  0.36704500  1
  O  O21  1  0.50527700  0.08809700  0.53748200  1
  O  O22  1  0.31043800  0.23862900  0.61676700  1
  O  O23  1  0.06877200  0.35603100  0.99446700  1
  O  O24  1  0.47690400  0.18607800  0.83668700  1
  O  O25  1  0.91190300  0.41718000  0.53748200  1
  O  O26  1  0.23025600  0.90905800  0.25639300  1
  O  O27  1  0.64396900  0.71274100  0.99446700  1
  O  O28  1  0.40637100  0.53027300  0.15349200  1
  O  O29  1  0.49489900  0.16989300  0.16151600  1
  O  O30  1  0.76137100  0.07180900  0.61676700  1
  O  O31  1  0.68187900  0.76594700  0.73622800  1
  O  O32  1  0.91206000  0.62617700  0.36704500  1
loop_
_geom_bond_atom_site_label_1
_geom_bond_atom_site_label_2
_geom_bond_distance
_geom_bond_site_symmetry_2
Ge0 O7 1.749507 1_555
Ge0 O4 1.759353 1_555
Ge0 O28 1.800325 1_555
Ge0 O27 1.843410 1_554
Ge1 O0 1.749507 1_455
Ge1 O9 1.759347 1_555
Ge1 O6 1.800326 1_555
Ge1 O23 1.843410 1_554
Ge2 O16 1.770307 1_555
Ge2 O21 1.778188 1_555
Ge2 O5 1.780307 1_545
Ge2 O30 1.790782 1_555
Ge3 O29 1.749507 1_565
Ge3 O26 1.759353 1_555
Ge3 O12 1.800335 1_555
Ge3 O18 1.843410 1_554
Ge4 O20 1.770307 1_555
Ge4 O13 1.778180 1_555
Ge4 O17 1.780316 1_555
Ge4 O22 1.790782 1_555
Ge5 O10 1.758134 1_555
Ge5 O31 1.774715 1_555
Ge5 O14 1.778429 1_555
Ge5 O27 1.838471 1_555
Ge6 O11 1.758143 1_455
Ge6 O3 1.774715 1_555
Ge6 O19 1.778429 1_555
Ge6 O23 1.838471 1_555
Ge7 O32 1.770307 1_555
Ge7 O25 1.778179 1_555
Ge7 O2 1.780307 1_655
Ge7 O8 1.790789 1_555
Ge8 O24 1.758143 1_565
Ge8 O1 1.774715 1_555
Ge8 O15 1.778429 1_555
Ge8 O18 1.838471 1_555
O0 Pb2 2.466325 1_555
O0 Pb11 2.480315 1_555
O1 Pb12 2.400782 1_455
O1 Pb6 2.458123 1_555
O2 Pb8 2.461308 1_555
O2 Pb10 2.482770 1_555
O2 Pb6 2.772918 1_555
O3 Pb5 2.400782 1_555
O3 Pb9 2.458123 1_555
O4 Pb13 2.305677 1_555
O5 Pb8 2.461312 1_555
O5 Pb10 2.482774 1_555
O5 Pb0 2.772918 1_555
O6 Pb3 2.341215 1_555
O6 Pb7 2.535792 1_555
O6 Pb10 2.801127 1_555
O7 Pb2 2.466333 1_555
O7 Pb11 2.480322 1_555
O8 Pb12 2.266125 1_555
O8 Pb0 2.518089 1_555
O9 Pb4 2.305686 1_555
O10 Pb14 2.522232 1_555
O10 Pb11 2.533834 1_556
O10 Pb12 2.707929 1_555
O11 Pb14 2.522218 1_555
O11 Pb11 2.533820 1_556
O11 Pb1 2.707932 1_555
O12 Pb13 2.341206 1_555
O12 Pb7 2.535795 1_555
O12 Pb10 2.801129 1_555
O13 Pb0 2.246382 1_555
O13 Pb14 2.703459 1_555
O14 Pb5 2.292768 1_555
O14 Pb8 2.848118 1_555
O15 Pb1 2.292768 1_565
O15 Pb8 2.848112 1_555
O16 Pb13 2.228043 1_545
O17 Pb8 2.461315 1_555
O17 Pb10 2.482777 1_555
O17 Pb9 2.772918 1_555
O19 Pb12 2.292768 1_455
O19 Pb8 2.848111 1_555
O20 Pb4 2.228048 1_555
O21 Pb6 2.246383 1_545
O21 Pb14 2.703452 1_555
O22 Pb5 2.266125 1_555
O22 Pb6 2.518089 1_545
O24 Pb14 2.522228 1_555
O24 Pb11 2.533830 1_556
O24 Pb5 2.707922 1_555
O25 Pb9 2.246383 1_655
O25 Pb14 2.703451 1_555
O26 Pb3 2.305680 1_555
O28 Pb4 2.341206 1_555
O28 Pb7 2.535807 1_555
O28 Pb10 2.801140 1_555
O29 Pb2 2.466329 1_555
O29 Pb11 2.480318 1_555
O30 Pb1 2.266125 1_555
O30 Pb9 2.518089 1_655
O31 Pb1 2.400782 1_565
O31 Pb0 2.458123 1_555
O32 Pb3 2.228046 1_655
