# generated using pymatgen
data_Ba2CuF6
_symmetry_space_group_name_H-M   'P 1'
_cell_length_a   8.31019750
_cell_length_b   8.31019750
_cell_length_c   8.31019750
_cell_angle_alpha   150.92282421
_cell_angle_beta   150.92282421
_cell_angle_gamma   41.58846165
_symmetry_Int_Tables_number   1
_chemical_formula_structural   Ba2CuF6
_chemical_formula_sum   'Ba2 Cu1 F6'
_cell_volume   135.23819784
_cell_formula_units_Z   1
loop_
 _symmetry_equiv_pos_site_id
 _symmetry_equiv_pos_as_xyz
  1  'x, y, z'
loop_
 _atom_site_type_symbol
 _atom_site_label
 _atom_site_symmetry_multiplicity
 _atom_site_fract_x
 _atom_site_fract_y
 _atom_site_fract_z
 _atom_site_occupancy
  Ba  Ba0  1  0.14743559  0.14743559  -0.00000000  1
  Ba  Ba1  1  0.85256441  0.85256441  0.00000000  1
  Cu  Cu0  1  0.50000000  0.50000000  0.00000000  1
  F  F0  1  0.38031972  0.38031972  0.00000000  1
  F  F1  1  -0.00000000  0.50000000  0.50000000  1
  F  F2  1  0.50000000  -0.00000000  0.50000000  1
  F  F3  1  0.61968028  0.61968028  -0.00000000  1
  F  F4  1  0.25000000  0.75000000  0.50000000  1
  F  F5  1  0.75000000  0.25000000  0.50000000  1
loop_
_geom_bond_atom_site_label_1
_geom_bond_atom_site_label_2
_geom_bond_distance
_geom_bond_site_symmetry_2
Ba0 F4 2.625176 1_544
Ba0 F5 2.625176 1_454
Ba0 F5 2.625176 1_555
Ba0 F4 2.625176 1_555
Ba0 F3 2.981580 1_545
Ba0 F3 2.981580 1_556
Ba0 F3 2.981580 1_444
Ba0 F3 2.981580 1_455
Ba0 F1 3.098350 1_544
Ba0 F2 3.098350 1_454
Ba0 F1 3.098350 1_555
Ba0 F2 3.098350 1_555
Ba1 F5 2.625176 1_554
Ba1 F4 2.625176 1_655
Ba1 F5 2.625176 1_565
Ba1 F4 2.625176 1_554
Ba1 F0 2.981580 1_655
Ba1 F0 2.981580 1_565
Ba1 F0 2.981580 1_666
Ba1 F0 2.981580 1_554
Ba1 F2 3.098350 1_564
Ba1 F1 3.098350 1_665
Ba1 F2 3.098350 1_665
Ba1 F1 3.098350 1_654
Cu0 F3 1.859564 1_555
Cu0 F0 1.859564 1_555
Cu0 F1 2.086125 1_554
Cu0 F2 2.086125 1_565
Cu0 F2 2.086125 1_554
Cu0 F1 2.086125 1_655
