# generated using pymatgen
data_SN
_symmetry_space_group_name_H-M   'P 1'
_cell_length_a   7.69121100
_cell_length_b   9.22858400
_cell_length_c   9.51327100
_cell_angle_alpha   90.00000000
_cell_angle_beta   90.00000000
_cell_angle_gamma   90.00000000
_symmetry_Int_Tables_number   1
_chemical_formula_structural   SN
_chemical_formula_sum   'S16 N16'
_cell_volume   675.24233650
_cell_formula_units_Z   16
loop_
 _symmetry_equiv_pos_site_id
 _symmetry_equiv_pos_as_xyz
  1  'x, y, z'
loop_
 _atom_site_type_symbol
 _atom_site_label
 _atom_site_symmetry_multiplicity
 _atom_site_fract_x
 _atom_site_fract_y
 _atom_site_fract_z
 _atom_site_occupancy
  S  S0  1  0.78436600  0.91723700  0.14108000  1
  S  S1  1  0.42537500  0.78902400  0.52332600  1
  S  S2  1  0.71563400  0.91723700  0.85892000  1
  S  S3  1  0.42537500  0.28902400  0.97667400  1
  S  S4  1  0.92537500  0.71097600  0.97667400  1
  S  S5  1  0.28436600  0.08276300  0.14108000  1
  S  S6  1  0.21563400  0.08276300  0.85892000  1
  S  S7  1  0.07462500  0.28902400  0.02332600  1
  S  S8  1  0.57462500  0.71097600  0.02332600  1
  S  S9  1  0.71563400  0.41723700  0.64108000  1
  S  S10  1  0.78436600  0.41723700  0.35892000  1
  S  S11  1  0.07462500  0.78902400  0.47667400  1
  S  S12  1  0.92537500  0.21097600  0.52332600  1
  S  S13  1  0.21563400  0.58276300  0.64108000  1
  S  S14  1  0.57462500  0.21097600  0.47667400  1
  S  S15  1  0.28436600  0.58276300  0.35892000  1
  N  N0  1  0.75000000  0.61494600  0.00000000  1
  N  N1  1  0.25000000  0.48671400  0.50000000  1
  N  N2  1  0.75000000  0.11494600  0.50000000  1
  N  N3  1  0.25000000  0.38505400  0.00000000  1
  N  N4  1  0.88573500  0.31398500  0.65906700  1
  N  N5  1  0.38573500  0.68601500  0.65906700  1
  N  N6  1  0.11426500  0.18601500  0.15906700  1
  N  N7  1  0.61426500  0.31398500  0.34093300  1
  N  N8  1  0.75000000  0.51328600  0.50000000  1
  N  N9  1  0.61426500  0.81398500  0.15906700  1
  N  N10  1  0.38573500  0.18601500  0.84093300  1
  N  N11  1  0.11426500  0.68601500  0.34093300  1
  N  N12  1  0.88573500  0.81398500  0.84093300  1
  N  N13  1  0.25000000  0.98671400  0.00000000  1
  N  N14  1  0.75000000  0.01328600  0.00000000  1
  N  N15  1  0.25000000  0.88505400  0.50000000  1
loop_
_geom_bond_atom_site_label_1
_geom_bond_atom_site_label_2
_geom_bond_distance
_geom_bond_site_symmetry_2
N0 S4 1.629115 1_554
N0 S8 1.629115 1_555
N1 S15 1.629994 1_555
N1 S13 1.629994 1_555
N2 S12 1.629115 1_555
N2 S14 1.629115 1_555
N3 S7 1.629115 1_555
N3 S3 1.629115 1_554
N4 S9 1.627527 1_555
N4 S12 1.632239 1_555
N5 S13 1.627527 1_555
N5 S1 1.632239 1_555
N6 S5 1.627527 1_555
N6 S7 1.632239 1_555
N7 S10 1.627527 1_555
N7 S14 1.632239 1_555
N8 S10 1.629994 1_555
N8 S9 1.629994 1_555
N9 S0 1.627527 1_555
N9 S8 1.632239 1_555
N10 S6 1.627527 1_555
N10 S3 1.632239 1_555
N11 S15 1.627527 1_555
N11 S11 1.632239 1_555
N12 S2 1.627527 1_555
N12 S4 1.632239 1_555
N13 S6 1.629994 1_564
N13 S5 1.629994 1_565
N14 S2 1.629994 1_544
N14 S0 1.629994 1_545
N15 S1 1.629115 1_555
N15 S11 1.629115 1_555
