# generated using pymatgen
data_NaSbMoO5
_symmetry_space_group_name_H-M   'P 1'
_cell_length_a   11.20099800
_cell_length_b   5.73584400
_cell_length_c   8.69752035
_cell_angle_alpha   77.30717703
_cell_angle_beta   90.00000000
_cell_angle_gamma   90.00000000
_symmetry_Int_Tables_number   1
_chemical_formula_structural   NaSbMoO5
_chemical_formula_sum   'Na4 Sb4 Mo4 O20'
_cell_volume   545.13543514
_cell_formula_units_Z   4
loop_
 _symmetry_equiv_pos_site_id
 _symmetry_equiv_pos_as_xyz
  1  'x, y, z'
loop_
 _atom_site_type_symbol
 _atom_site_label
 _atom_site_symmetry_multiplicity
 _atom_site_fract_x
 _atom_site_fract_y
 _atom_site_fract_z
 _atom_site_occupancy
  Na  Na0  1  0.35994600  0.46680600  0.58463700  1
  Na  Na1  1  0.14005400  0.96680600  0.58463700  1
  Na  Na2  1  0.85994600  0.03319400  0.41536300  1
  Na  Na3  1  0.64005400  0.53319400  0.41536300  1
  Sb  Sb0  1  0.16412700  0.18025400  0.94982900  1
  Sb  Sb1  1  0.83587300  0.81974600  0.05017100  1
  Sb  Sb2  1  0.66412700  0.31974600  0.05017100  1
  Sb  Sb3  1  0.33587300  0.68025400  0.94982900  1
  Mo  Mo0  1  0.40813700  0.05799600  0.29676700  1
  Mo  Mo1  1  0.09186300  0.55799600  0.29676700  1
  Mo  Mo2  1  0.59186300  0.94200400  0.70323300  1
  Mo  Mo3  1  0.90813700  0.44200400  0.70323300  1
  O  O0  1  0.95801000  0.74872400  0.25073900  1
  O  O1  1  0.81864500  0.34057700  0.56357100  1
  O  O2  1  0.54199000  0.24872400  0.25073900  1
  O  O3  1  0.95347600  0.74088600  0.62835700  1
  O  O4  1  0.17290900  0.57538200  0.11245400  1
  O  O5  1  0.32709100  0.07538200  0.11245400  1
  O  O6  1  0.45347600  0.75911400  0.37164300  1
  O  O7  1  0.54652400  0.24088600  0.62835700  1
  O  O8  1  0.73699000  0.54914200  0.16646500  1
  O  O9  1  0.45801000  0.75127600  0.74926100  1
  O  O10  1  0.31864500  0.15942300  0.43642900  1
  O  O11  1  0.23699000  0.95085800  0.83353500  1
  O  O12  1  0.68135500  0.84057700  0.56357100  1
  O  O13  1  0.67290900  0.92461800  0.88754600  1
  O  O14  1  0.26301000  0.45085800  0.83353500  1
  O  O15  1  0.04652400  0.25911400  0.37164300  1
  O  O16  1  0.82709100  0.42461800  0.88754600  1
  O  O17  1  0.04199000  0.25127600  0.74926100  1
  O  O18  1  0.76301000  0.04914200  0.16646500  1
  O  O19  1  0.18135500  0.65942300  0.43642900  1
loop_
_geom_bond_atom_site_label_1
_geom_bond_atom_site_label_2
_geom_bond_distance
_geom_bond_site_symmetry_2
Na0 O14 2.405536 1_555
Na0 O7 2.444335 1_555
Na0 O6 2.444490 1_555
Na0 O10 2.445997 1_555
Na0 O19 2.501600 1_555
Na0 O9 2.635462 1_555
Na1 O11 2.405536 1_555
Na1 O3 2.444335 1_455
Na1 O15 2.444490 1_565
Na1 O19 2.445997 1_555
Na1 O10 2.501600 1_565
Na1 O17 2.635462 1_565
Na2 O18 2.405536 1_555
Na2 O15 2.444335 1_655
Na2 O3 2.444490 1_545
Na2 O1 2.445997 1_555
Na2 O12 2.501600 1_545
Na2 O0 2.635462 1_545
Na3 O8 2.405536 1_555
Na3 O6 2.444335 1_555
Na3 O7 2.444490 1_555
Na3 O12 2.445997 1_555
Na3 O1 2.501600 1_555
Na3 O2 2.635462 1_555
Mo0 O10 1.768994 1_555
Mo0 O6 1.769282 1_545
Mo0 O5 1.825817 1_555
Mo0 O2 1.847288 1_555
Mo1 O19 1.768994 1_555
Mo1 O15 1.769282 1_555
Mo1 O4 1.825817 1_555
Mo1 O0 1.847288 1_455
Mo2 O12 1.768994 1_555
Mo2 O7 1.769282 1_565
Mo2 O13 1.825817 1_555
Mo2 O9 1.847288 1_555
Mo3 O1 1.768994 1_555
Mo3 O3 1.769282 1_555
Mo3 O16 1.825817 1_555
Mo3 O17 1.847288 1_655
O0 Sb1 2.183650 1_555
O2 Sb2 2.183650 1_555
O4 Sb3 2.306622 1_554
O5 Sb0 2.306622 1_554
O8 Sb1 1.992250 1_555
O8 Sb2 2.001319 1_555
O9 Sb3 2.183650 1_555
O11 Sb3 1.992250 1_555
O11 Sb0 2.001319 1_565
O13 Sb1 2.306622 1_556
O14 Sb0 1.992250 1_555
O14 Sb3 2.001319 1_555
O16 Sb2 2.306622 1_556
O17 Sb0 2.183650 1_555
O18 Sb2 1.992250 1_555
O18 Sb1 2.001319 1_545
