# generated using pymatgen
data_Ba2LaSbO6
_symmetry_space_group_name_H-M   'P 1'
_cell_length_a   6.09510488
_cell_length_b   6.09537917
_cell_length_c   6.09454752
_cell_angle_alpha   60.46431975
_cell_angle_beta   60.47108055
_cell_angle_gamma   60.46602125
_symmetry_Int_Tables_number   1
_chemical_formula_structural   Ba2LaSbO6
_chemical_formula_sum   'Ba2 La1 Sb1 O6'
_cell_volume   161.79693986
_cell_formula_units_Z   1
loop_
 _symmetry_equiv_pos_site_id
 _symmetry_equiv_pos_as_xyz
  1  'x, y, z'
loop_
 _atom_site_type_symbol
 _atom_site_label
 _atom_site_symmetry_multiplicity
 _atom_site_fract_x
 _atom_site_fract_y
 _atom_site_fract_z
 _atom_site_occupancy
  Ba  Ba0  1  0.74855985  0.74856093  0.74855978  1
  Ba  Ba1  1  0.25144155  0.25144084  0.25143987  1
  La  La0  1  -0.00000005  0.00000012  0.00000075  1
  Sb  Sb0  1  0.49999986  0.50000008  0.50000032  1
  O  O0  1  0.31292217  0.72631930  0.22896684  1
  O  O1  1  0.27367695  0.77103531  0.68707735  1
  O  O2  1  0.22896770  0.31292267  0.72632278  1
  O  O3  1  0.77103170  0.68707743  0.27367910  1
  O  O4  1  0.72632183  0.22896591  0.31292208  1
  O  O5  1  0.68707843  0.27367842  0.77103312  1
loop_
_geom_bond_atom_site_label_1
_geom_bond_atom_site_label_2
_geom_bond_distance
_geom_bond_site_symmetry_2
Ba0 O4 2.817870 1_565
Ba0 O0 2.818056 1_556
Ba0 O2 2.818068 1_655
Ba0 O3 3.027131 1_555
Ba0 O1 3.027317 1_555
Ba0 O5 3.027499 1_555
Ba0 O3 3.098470 1_556
Ba0 O1 3.098832 1_655
Ba0 O5 3.098930 1_565
Ba0 O4 3.332109 1_556
Ba0 O2 3.332349 1_565
Ba0 O0 3.332403 1_655
Ba1 O1 2.817871 1_545
Ba1 O5 2.818053 1_554
Ba1 O3 2.818070 1_455
Ba1 O2 3.027133 1_555
Ba1 O4 3.027299 1_555
Ba1 O0 3.027472 1_555
Ba1 O2 3.098467 1_554
Ba1 O4 3.098850 1_455
Ba1 O0 3.098955 1_545
Ba1 O1 3.332108 1_554
Ba1 O3 3.332349 1_545
Ba1 O5 3.332406 1_455
La0 O0 2.357861 1_545
La0 O5 2.357864 1_454
La0 O4 2.358090 1_455
La0 O1 2.358096 1_544
La0 O2 2.358165 1_554
La0 O3 2.358167 1_445
O0 Sb0 1.997737 1_555
O1 Sb0 1.998036 1_555
O2 Sb0 1.998047 1_555
O3 Sb0 1.998045 1_555
O4 Sb0 1.998035 1_555
O5 Sb0 1.997737 1_555
