# generated using pymatgen
data_Ce(CoP)2
_symmetry_space_group_name_H-M   'P 1'
_cell_length_a   3.91165082
_cell_length_b   3.91165033
_cell_length_c   5.45303840
_cell_angle_alpha   111.01836417
_cell_angle_beta   111.01835312
_cell_angle_gamma   90.00000349
_symmetry_Int_Tables_number   1
_chemical_formula_structural   Ce(CoP)2
_chemical_formula_sum   'Ce1 Co2 P2'
_cell_volume   71.90680753
_cell_formula_units_Z   1
loop_
 _symmetry_equiv_pos_site_id
 _symmetry_equiv_pos_as_xyz
  1  'x, y, z'
loop_
 _atom_site_type_symbol
 _atom_site_label
 _atom_site_symmetry_multiplicity
 _atom_site_fract_x
 _atom_site_fract_y
 _atom_site_fract_z
 _atom_site_occupancy
  Ce  Ce0  1  0.00000000  0.00000000  -0.00000000  1
  Co  Co0  1  0.25000000  0.75000000  0.50000000  1
  Co  Co1  1  0.75000000  0.25000000  0.50000000  1
  P  P0  1  0.63119938  0.63119938  0.26239876  1
  P  P1  1  0.36880062  0.36880062  0.73760124  1
loop_
_geom_bond_atom_site_label_1
_geom_bond_atom_site_label_2
_geom_bond_distance
_geom_bond_site_symmetry_2
Ce0 P1 3.028388 1_544
Ce0 P0 3.028388 1_455
Ce0 P1 3.028388 1_444
Ce0 P0 3.028388 1_555
Ce0 P1 3.028388 1_554
Ce0 P0 3.028388 1_445
Ce0 P0 3.028388 1_545
Ce0 P1 3.028388 1_454
Ce0 Co0 3.057210 1_555
Ce0 Co1 3.057210 1_444
Ce0 Co0 3.057210 1_544
Ce0 Co1 3.057210 1_455
Ce0 Co1 3.057210 1_454
Ce0 Co0 3.057210 1_545
Ce0 Co0 3.057210 1_444
Ce0 Co1 3.057210 1_555
Co0 P1 2.252122 1_565
Co0 P0 2.252122 1_555
Co0 P1 2.252122 1_555
Co0 P0 2.252122 1_455
Co1 P0 2.252122 1_545
Co1 P1 2.252122 1_555
Co1 P0 2.252122 1_555
Co1 P1 2.252122 1_655
P0 P1 2.466276 1_554
