# generated using pymatgen
data_Ba2Nd7Si11N23
_symmetry_space_group_name_H-M   'P 1'
_cell_length_a   12.85148237
_cell_length_b   12.85148237
_cell_length_c   9.76711800
_cell_angle_alpha   90.00000000
_cell_angle_beta   90.00000000
_cell_angle_gamma   129.20851144
_symmetry_Int_Tables_number   1
_chemical_formula_structural   Ba2Nd7Si11N23
_chemical_formula_sum   'Ba4 Nd14 Si22 N46'
_cell_volume   1249.94485240
_cell_formula_units_Z   2
loop_
 _symmetry_equiv_pos_site_id
 _symmetry_equiv_pos_as_xyz
  1  'x, y, z'
loop_
 _atom_site_type_symbol
 _atom_site_label
 _atom_site_symmetry_multiplicity
 _atom_site_fract_x
 _atom_site_fract_y
 _atom_site_fract_z
 _atom_site_occupancy
  Ba  Ba0  1  0.50000000  0.50000000  0.79118600  1
  Ba  Ba1  1  0.83397300  0.83397300  0.00000000  1
  Ba  Ba2  1  0.16602700  0.16602700  0.00000000  1
  Ba  Ba3  1  0.50000000  0.50000000  0.20881400  1
  Nd  Nd0  1  0.87900200  0.12099800  0.29492100  1
  Nd  Nd1  1  0.00000000  0.50000000  0.26580900  1
  Nd  Nd2  1  0.50000000  0.00000000  0.26580900  1
  Nd  Nd3  1  0.66379500  0.33620500  0.00000000  1
  Nd  Nd4  1  0.18038500  0.38594700  0.50000000  1
  Nd  Nd5  1  0.87900200  0.12099800  0.70507900  1
  Nd  Nd6  1  0.38594700  0.18038500  0.50000000  1
  Nd  Nd7  1  0.12099800  0.87900200  0.70507900  1
  Nd  Nd8  1  0.61405300  0.81961500  0.50000000  1
  Nd  Nd9  1  0.12099800  0.87900200  0.29492100  1
  Nd  Nd10  1  0.33620500  0.66379500  0.00000000  1
  Nd  Nd11  1  0.50000000  0.00000000  0.73419100  1
  Nd  Nd12  1  0.81961500  0.61405300  0.50000000  1
  Nd  Nd13  1  0.00000000  0.50000000  0.73419100  1
  Si  Si0  1  0.67345000  0.32655000  0.33888200  1
  Si  Si1  1  0.61611500  0.84690700  0.83877200  1
  Si  Si2  1  0.67345000  0.32655000  0.66111800  1
  Si  Si3  1  0.15197800  0.15197800  0.32851600  1
  Si  Si4  1  0.78516500  0.21483500  0.50000000  1
  Si  Si5  1  0.07031500  0.66685400  0.00000000  1
  Si  Si6  1  0.21483500  0.78516500  0.50000000  1
  Si  Si7  1  0.61611500  0.84690700  0.16122800  1
  Si  Si8  1  0.32655000  0.67345000  0.33888200  1
  Si  Si9  1  0.66685400  0.07031500  0.00000000  1
  Si  Si10  1  0.92968500  0.33314600  0.00000000  1
  Si  Si11  1  0.84802200  0.84802200  0.67148400  1
  Si  Si12  1  0.84690700  0.61611500  0.83877200  1
  Si  Si13  1  0.32655000  0.67345000  0.66111800  1
  Si  Si14  1  0.84802200  0.84802200  0.32851600  1
  Si  Si15  1  0.38388500  0.15309300  0.16122800  1
  Si  Si16  1  0.33314600  0.92968500  0.00000000  1
  Si  Si17  1  0.15197800  0.15197800  0.67148400  1
  Si  Si18  1  0.84690700  0.61611500  0.16122800  1
  Si  Si19  1  0.15309300  0.38388500  0.16122800  1
  Si  Si20  1  0.15309300  0.38388500  0.83877200  1
  Si  Si21  1  0.38388500  0.15309300  0.83877200  1
  N  N0  1  0.76075700  0.23924300  0.00000000  1
  N  N1  1  0.36242000  0.63758000  0.50000000  1
  N  N2  1  0.23440200  0.41516800  0.00000000  1
  N  N3  1  0.83618800  0.71618000  0.73421300  1
  N  N4  1  0.58483200  0.76559800  0.00000000  1
  N  N5  1  0.22144600  0.52915800  0.75366500  1
  N  N6  1  0.52915800  0.22144600  0.24633500  1
  N  N7  1  0.77855400  0.47084200  0.24633500  1
  N  N8  1  0.69290300  0.01476200  0.14588300  1
  N  N9  1  0.71618000  0.83618800  0.26578700  1
  N  N10  1  0.98523800  0.30709700  0.85411700  1
  N  N11  1  0.00000000  0.50000000  0.00000000  1
  N  N12  1  0.77855400  0.47084200  0.75366500  1
  N  N13  1  0.30709700  0.98523800  0.14588300  1
  N  N14  1  0.47084200  0.77855400  0.75366500  1
  N  N15  1  0.70895200  0.04085700  0.50000000  1
  N  N16  1  0.16381200  0.28382000  0.73421300  1
  N  N17  1  0.01476200  0.69290300  0.14588300  1
  N  N18  1  0.28382000  0.16381200  0.26578700  1
  N  N19  1  0.25300500  0.74699500  0.64914500  1
  N  N20  1  0.01476200  0.69290300  0.85411700  1
  N  N21  1  0.83618800  0.71618000  0.26578700  1
  N  N22  1  0.69290300  0.01476200  0.85411700  1
  N  N23  1  0.16381200  0.28382000  0.26578700  1
  N  N24  1  0.52915800  0.22144600  0.75366500  1
  N  N25  1  0.63758000  0.36242000  0.50000000  1
  N  N26  1  0.47084200  0.77855400  0.24633500  1
  N  N27  1  0.81770600  0.81770600  0.50000000  1
  N  N28  1  0.18229400  0.18229400  0.50000000  1
  N  N29  1  0.30709700  0.98523800  0.85411700  1
  N  N30  1  0.29104800  0.95914300  0.50000000  1
  N  N31  1  0.28382000  0.16381200  0.73421300  1
  N  N32  1  0.22144600  0.52915800  0.24633500  1
  N  N33  1  0.74699500  0.25300500  0.35085500  1
  N  N34  1  0.23924300  0.76075700  0.00000000  1
  N  N35  1  0.74699500  0.25300500  0.64914500  1
  N  N36  1  0.98523800  0.30709700  0.14588300  1
  N  N37  1  0.00000000  0.00000000  0.27485200  1
  N  N38  1  0.95914300  0.29104800  0.50000000  1
  N  N39  1  0.50000000  0.00000000  0.00000000  1
  N  N40  1  0.04085700  0.70895200  0.50000000  1
  N  N41  1  0.00000000  0.00000000  0.72514800  1
  N  N42  1  0.71618000  0.83618800  0.73421300  1
  N  N43  1  0.25300500  0.74699500  0.35085500  1
  N  N44  1  0.41516800  0.23440200  0.00000000  1
  N  N45  1  0.76559800  0.58483200  0.00000000  1
loop_
_geom_bond_atom_site_label_1
_geom_bond_atom_site_label_2
_geom_bond_distance
_geom_bond_site_symmetry_2
Ba0 N31 3.394011 1_555
Ba0 N16 3.394011 1_555
Ba0 N3 3.394011 1_555
Ba0 N42 3.394011 1_555
Ba0 N4 3.506313 1_556
Ba0 N44 3.506313 1_556
Ba0 N45 3.506313 1_556
Ba0 N2 3.506313 1_556
Ba1 N4 2.732541 1_555
Ba1 N45 2.732541 1_555
Ba1 N42 3.014300 1_554
Ba1 N9 3.014300 1_555
Ba1 N21 3.014300 1_555
Ba1 N3 3.014300 1_554
Ba1 N41 3.249006 1_664
Ba1 N37 3.249006 1_665
Ba2 N2 2.732541 1_555
Ba2 N44 2.732541 1_555
Ba2 N31 3.014300 1_554
Ba2 N18 3.014300 1_555
Ba2 N16 3.014300 1_554
Ba2 N23 3.014300 1_555
Ba2 N41 3.249006 1_554
Ba2 N37 3.249006 1_555
Ba3 N23 3.394011 1_555
Ba3 N18 3.394011 1_555
Ba3 N21 3.394011 1_555
Ba3 N9 3.394011 1_555
Ba3 N4 3.506313 1_555
Ba3 N44 3.506313 1_555
Ba3 N45 3.506313 1_555
Ba3 N2 3.506313 1_555
N0 Si10 1.690311 1_555
N0 Si9 1.690311 1_555
N0 Nd3 2.251381 1_555
N1 Si8 1.780472 1_555
N1 Si13 1.780472 1_555
N1 Nd8 2.523079 1_555
N1 Nd4 2.523079 1_555
N2 Si20 1.789466 1_554
N2 Si19 1.789466 1_555
N2 Nd10 2.576036 1_555
N3 Si12 1.714535 1_555
N3 Si11 1.715690 1_555
N3 Nd12 2.578295 1_555
N3 Nd7 2.858948 1_655
N4 Si7 1.789466 1_555
N4 Si1 1.789466 1_554
N4 Nd10 2.576036 1_555
N5 Si20 1.695512 1_555
N5 Si13 1.706895 1_555
N5 Nd13 2.632018 1_555
N5 Nd10 2.780549 1_556
N5 Nd4 2.928532 1_555
N6 Si15 1.695512 1_555
N6 Si0 1.706895 1_555
N6 Nd2 2.632018 1_555
N6 Nd3 2.780549 1_555
N6 Nd6 2.928532 1_555
N7 Si18 1.695512 1_555
N7 Si0 1.706895 1_555
N7 Nd1 2.632018 1_655
N7 Nd3 2.780549 1_555
N7 Nd12 2.928532 1_555
N8 Si9 1.718768 1_555
N8 Si7 1.719986 1_545
N8 Nd0 2.361081 1_555
N8 Nd2 2.638044 1_555
N9 Si7 1.714535 1_555
N9 Si14 1.715690 1_555
N9 Nd8 2.578295 1_555
N9 Nd0 2.858948 1_565
N10 Si10 1.718768 1_556
N10 Si20 1.719986 1_655
N10 Nd5 2.361081 1_555
N10 Nd13 2.638044 1_655
N11 Si5 1.721878 1_555
N11 Si10 1.721878 1_455
N11 Nd13 2.596188 1_554
N11 Nd1 2.596188 1_555
N12 Si12 1.695512 1_555
N12 Si2 1.706895 1_555
N12 Nd13 2.632018 1_655
N12 Nd3 2.780549 1_556
N12 Nd12 2.928532 1_555
N13 Si16 1.718768 1_555
N13 Si15 1.719986 1_565
N13 Nd9 2.361081 1_555
N13 Nd2 2.638044 1_565
N14 Si1 1.695512 1_555
N14 Si13 1.706895 1_555
N14 Nd11 2.632018 1_565
N14 Nd10 2.780549 1_556
N14 Nd8 2.928532 1_555
N15 Si4 1.785990 1_555
N15 Nd8 2.277625 1_545
N15 Nd0 2.646351 1_555
N15 Nd5 2.646351 1_555
N15 Nd2 3.306991 1_555
N15 Nd11 3.306991 1_555
N16 Si20 1.714535 1_555
N16 Si17 1.715690 1_555
N16 Nd4 2.578295 1_555
N16 Nd5 2.858948 1_455
N17 Si5 1.718768 1_555
N17 Si18 1.719986 1_455
N17 Nd9 2.361081 1_555
N17 Nd1 2.638044 1_555
N18 Si15 1.714535 1_555
N18 Si3 1.715690 1_555
N18 Nd6 2.578295 1_555
N18 Nd9 2.858948 1_545
N19 Si6 1.705143 1_555
N19 Si13 1.711657 1_555
N19 Nd13 2.879108 1_555
N19 Nd11 2.879108 1_565
N20 Si5 1.718768 1_556
N20 Si12 1.719986 1_455
N20 Nd7 2.361081 1_555
N20 Nd13 2.638044 1_555
N21 Si18 1.714535 1_555
N21 Si14 1.715690 1_555
N21 Nd12 2.578295 1_555
N21 Nd9 2.858948 1_655
N22 Si9 1.718768 1_556
N22 Si1 1.719986 1_545
N22 Nd5 2.361081 1_555
N22 Nd11 2.638044 1_555
N23 Si19 1.714535 1_555
N23 Si3 1.715690 1_555
N23 Nd4 2.578295 1_555
N23 Nd0 2.858948 1_455
N24 Si21 1.695512 1_555
N24 Si2 1.706895 1_555
N24 Nd11 2.632018 1_555
N24 Nd3 2.780549 1_556
N24 Nd6 2.928532 1_555
N25 Si2 1.780472 1_555
N25 Si0 1.780472 1_555
N25 Nd12 2.523079 1_555
N25 Nd6 2.523079 1_555
N26 Si7 1.695512 1_555
N26 Si8 1.706895 1_555
N26 Nd2 2.632018 1_565
N26 Nd10 2.780549 1_555
N26 Nd8 2.928532 1_555
N27 Si11 1.707917 1_555
N27 Si14 1.707917 1_555
N27 Nd8 2.632820 1_555
N27 Nd12 2.632820 1_555
N28 Si17 1.707917 1_555
N28 Si3 1.707917 1_555
N28 Nd4 2.632820 1_555
N28 Nd6 2.632820 1_555
N29 Si16 1.718768 1_556
N29 Si21 1.719986 1_565
N29 Nd7 2.361081 1_555
N29 Nd11 2.638044 1_565
N30 Si6 1.785990 1_555
N30 Nd6 2.277625 1_565
N30 Nd7 2.646351 1_555
N30 Nd9 2.646351 1_555
N30 Nd2 3.306991 1_565
N30 Nd11 3.306991 1_565
N31 Si21 1.714535 1_555
N31 Si17 1.715690 1_555
N31 Nd6 2.578295 1_555
N31 Nd7 2.858948 1_545
N32 Si19 1.695512 1_555
N32 Si8 1.706895 1_555
N32 Nd1 2.632018 1_555
N32 Nd10 2.780549 1_555
N32 Nd4 2.928532 1_555
N33 Si4 1.705143 1_555
N33 Si0 1.711657 1_555
N33 Nd2 2.879108 1_555
N33 Nd1 2.879108 1_655
N34 Si16 1.690311 1_555
N34 Si5 1.690311 1_555
N34 Nd10 2.251381 1_555
N35 Si4 1.705143 1_555
N35 Si2 1.711657 1_555
N35 Nd11 2.879108 1_555
N35 Nd13 2.879108 1_655
N36 Si10 1.718768 1_555
N36 Si19 1.719986 1_655
N36 Nd0 2.361081 1_555
N36 Nd1 2.638044 1_655
N37 Si14 1.755361 1_445
N37 Si3 1.755361 1_555
N37 Nd9 2.816308 1_545
N37 Nd0 2.816308 1_455
N38 Si4 1.785990 1_555
N38 Nd4 2.277625 1_655
N38 Nd5 2.646351 1_555
N38 Nd0 2.646351 1_555
N38 Nd1 3.306991 1_655
N38 Nd13 3.306991 1_655
N39 Si9 1.721878 1_555
N39 Si16 1.721878 1_545
N39 Nd11 2.596188 1_554
N39 Nd2 2.596188 1_555
N40 Si6 1.785990 1_555
N40 Nd12 2.277625 1_455
N40 Nd9 2.646351 1_555
N40 Nd7 2.646351 1_555
N40 Nd13 3.306991 1_555
N40 Nd1 3.306991 1_555
N41 Si11 1.755361 1_445
N41 Si17 1.755361 1_555
N41 Nd5 2.816308 1_455
N41 Nd7 2.816308 1_545
N42 Si1 1.714535 1_555
N42 Si11 1.715690 1_555
N42 Nd8 2.578295 1_555
N42 Nd5 2.858948 1_565
N43 Si6 1.705143 1_555
N43 Si8 1.711657 1_555
N43 Nd1 2.879108 1_555
N43 Nd2 2.879108 1_565
N44 Si15 1.789466 1_555
N44 Si21 1.789466 1_554
N44 Nd3 2.576036 1_555
N45 Si18 1.789466 1_555
N45 Si12 1.789466 1_554
N45 Nd3 2.576036 1_555
