# generated using pymatgen
data_Pa3P4
_symmetry_space_group_name_H-M   'P 1'
_cell_length_a   7.17979758
_cell_length_b   7.17982882
_cell_length_c   7.17979343
_cell_angle_alpha   109.47121949
_cell_angle_beta   109.47115559
_cell_angle_gamma   109.47136667
_symmetry_Int_Tables_number   1
_chemical_formula_structural   Pa3P4
_chemical_formula_sum   'Pa6 P8'
_cell_volume   284.91539815
_cell_formula_units_Z   2
loop_
 _symmetry_equiv_pos_site_id
 _symmetry_equiv_pos_as_xyz
  1  'x, y, z'
loop_
 _atom_site_type_symbol
 _atom_site_label
 _atom_site_symmetry_multiplicity
 _atom_site_fract_x
 _atom_site_fract_y
 _atom_site_fract_z
 _atom_site_occupancy
  Pa  Pa0  1  0.12499867  0.75000405  0.87499263  1
  Pa  Pa1  1  0.62498907  0.37499383  0.24999483  1
  Pa  Pa2  1  0.37501093  0.25000375  0.62500476  1
  Pa  Pa3  1  0.75000110  0.87499420  0.12500431  1
  Pa  Pa4  1  0.24999990  0.62499410  0.37500420  1
  Pa  Pa5  1  0.87500133  0.12500438  0.74999395  1
  P  P0  1  0.65746863  0.65745894  0.65746534  1
  P  P1  1  -0.00000095  0.84252789  0.49999975  1
  P  P2  1  0.84251091  0.49999081  -0.00000589  1
  P  P3  1  0.00000095  0.34252783  0.50000170  1
  P  P4  1  0.49999744  0.00001372  0.84253147  1
  P  P5  1  0.50000256  0.00001628  0.34253403  1
  P  P6  1  0.34253137  0.49999032  -0.00000329  1
  P  P7  1  0.15748909  0.15747990  0.15748321  1
loop_
_geom_bond_atom_site_label_1
_geom_bond_atom_site_label_2
_geom_bond_distance
_geom_bond_site_symmetry_2
P0 Pa2 2.828516 1_555
P0 Pa1 2.828547 1_555
P0 Pa4 2.828580 1_555
P0 Pa0 2.911147 1_655
P0 Pa3 2.911239 1_556
P0 Pa5 2.911299 1_565
P1 Pa3 2.828545 1_455
P1 Pa5 2.828590 1_465
P1 Pa2 2.828648 1_565
P1 Pa0 2.911113 1_555
P1 Pa4 2.911204 1_555
P1 Pa1 2.911229 1_455
P2 Pa5 2.828614 1_554
P2 Pa4 2.828700 1_655
P2 Pa0 2.828723 1_654
P2 Pa2 2.911026 1_554
P2 Pa3 2.911132 1_555
P2 Pa1 2.911144 1_555
P3 Pa4 2.828557 1_555
P3 Pa0 2.828595 1_555
P3 Pa1 2.828657 1_455
P3 Pa5 2.911106 1_455
P3 Pa3 2.911202 1_445
P3 Pa2 2.911229 1_555
P4 Pa1 2.828513 1_556
P4 Pa0 2.828566 1_545
P4 Pa3 2.828728 1_546
P4 Pa2 2.911082 1_555
P4 Pa4 2.911223 1_545
P4 Pa5 2.911237 1_555
P5 Pa2 2.828505 1_555
P5 Pa5 2.828569 1_555
P5 Pa4 2.828724 1_545
P5 Pa1 2.911084 1_555
P5 Pa3 2.911229 1_545
P5 Pa0 2.911238 1_544
P6 Pa1 2.828515 1_555
P6 Pa2 2.828555 1_554
P6 Pa3 2.828584 1_555
P6 Pa5 2.911149 1_454
P6 Pa4 2.911241 1_555
P6 Pa0 2.911306 1_554
P7 Pa0 2.828608 1_544
P7 Pa3 2.828694 1_445
P7 Pa5 2.828720 1_454
P7 Pa1 2.911025 1_555
P7 Pa4 2.911137 1_555
P7 Pa2 2.911140 1_555
