# generated using pymatgen
data_P10Au7I
_symmetry_space_group_name_H-M   'P 1'
_cell_length_a   6.22570615
_cell_length_b   6.22570553
_cell_length_c   11.13625738
_cell_angle_alpha   90.00000000
_cell_angle_beta   90.00000000
_cell_angle_gamma   119.99999792
_symmetry_Int_Tables_number   1
_chemical_formula_structural   P10Au7I
_chemical_formula_sum   'P10 Au7 I1'
_cell_volume   373.80671108
_cell_formula_units_Z   1
loop_
 _symmetry_equiv_pos_site_id
 _symmetry_equiv_pos_as_xyz
  1  'x, y, z'
loop_
 _atom_site_type_symbol
 _atom_site_label
 _atom_site_symmetry_multiplicity
 _atom_site_fract_x
 _atom_site_fract_y
 _atom_site_fract_z
 _atom_site_occupancy
  P  P0  1  -0.00000000  0.37520073  0.19912478  1
  P  P1  1  0.66666700  0.33333300  0.70811256  1
  P  P2  1  0.00000000  0.62479927  0.80087522  1
  P  P3  1  0.37520073  0.00000000  0.19912478  1
  P  P4  1  0.66666700  0.33333300  0.29188744  1
  P  P5  1  0.62479927  0.62479927  0.19912478  1
  P  P6  1  0.62479927  -0.00000000  0.80087522  1
  P  P7  1  0.33333300  0.66666700  0.70811256  1
  P  P8  1  0.33333300  0.66666700  0.29188744  1
  P  P9  1  0.37520073  0.37520073  0.80087522  1
  Au  Au0  1  -0.00000000  0.00000000  0.77818323  1
  Au  Au1  1  0.50000000  0.00000000  0.00000000  1
  Au  Au2  1  0.66666700  0.33333300  0.50000000  1
  Au  Au3  1  -0.00000000  0.00000000  0.22181677  1
  Au  Au4  1  -0.00000000  0.50000000  0.00000000  1
  Au  Au5  1  0.33333300  0.66666700  0.50000000  1
  Au  Au6  1  0.50000000  0.50000000  -0.00000000  1
  I  I0  1  -0.00000000  0.00000000  0.50000000  1
loop_
_geom_bond_atom_site_label_1
_geom_bond_atom_site_label_2
_geom_bond_distance
_geom_bond_site_symmetry_2
P0 P4 2.213766 1_455
P0 P8 2.213768 1_555
P1 P6 2.213766 1_555
P1 P2 2.213768 1_655
P1 P9 2.213772 1_555
P2 P7 2.213766 1_555
P3 P8 2.213766 1_545
P3 P4 2.213768 1_555
P4 P5 2.213772 1_555
P5 P8 2.213772 1_555
P6 P7 2.213768 1_545
P7 P9 2.213772 1_555
Au0 P2 2.349519 1_545
Au0 P9 2.349519 1_555
Au0 P6 2.349519 1_455
Au0 I0 3.097920 1_555
Au1 P3 2.349681 1_555
Au1 P6 2.349681 1_554
Au2 P4 2.317595 1_555
Au2 P1 2.317595 1_555
Au3 P0 2.349519 1_555
Au3 P5 2.349519 1_445
Au3 P3 2.349519 1_555
Au3 I0 3.097920 1_555
Au4 P2 2.349681 1_554
Au4 P0 2.349681 1_555
Au5 P7 2.317595 1_555
Au5 P8 2.317595 1_555
Au6 P9 2.349681 1_554
Au6 P5 2.349681 1_555
