# generated using pymatgen
data_Ti4S8Br6O
_symmetry_space_group_name_H-M   'P 1'
_cell_length_a   11.84081300
_cell_length_b   9.70664500
_cell_length_c   20.08474637
_cell_angle_alpha   88.34776321
_cell_angle_beta   90.00000000
_cell_angle_gamma   90.00000000
_symmetry_Int_Tables_number   1
_chemical_formula_structural   Ti4S8Br6O
_chemical_formula_sum   'Ti16 S32 Br24 O4'
_cell_volume   2307.47190733
_cell_formula_units_Z   4
loop_
 _symmetry_equiv_pos_site_id
 _symmetry_equiv_pos_as_xyz
  1  'x, y, z'
loop_
 _atom_site_type_symbol
 _atom_site_label
 _atom_site_symmetry_multiplicity
 _atom_site_fract_x
 _atom_site_fract_y
 _atom_site_fract_z
 _atom_site_occupancy
  Ti  Ti0  1  0.68678100  0.12440600  0.88089600  1
  Ti  Ti1  1  0.20174100  0.53209400  0.15895800  1
  Ti  Ti2  1  0.70174100  0.46790600  0.34104200  1
  Ti  Ti3  1  0.29825900  0.53209400  0.65895800  1
  Ti  Ti4  1  0.28579300  0.63687400  0.01733100  1
  Ti  Ti5  1  0.18678100  0.87559400  0.61910400  1
  Ti  Ti6  1  0.71420700  0.36312600  0.98266900  1
  Ti  Ti7  1  0.55690300  0.21042200  0.38737000  1
  Ti  Ti8  1  0.94309700  0.21042200  0.88737000  1
  Ti  Ti9  1  0.31321900  0.87559400  0.11910400  1
  Ti  Ti10  1  0.44309700  0.78957800  0.61263000  1
  Ti  Ti11  1  0.21420700  0.63687400  0.51733100  1
  Ti  Ti12  1  0.81321900  0.12440600  0.38089600  1
  Ti  Ti13  1  0.78579300  0.36312600  0.48266900  1
  Ti  Ti14  1  0.79825900  0.46790600  0.84104200  1
  Ti  Ti15  1  0.05690300  0.78957800  0.11263000  1
  S  S0  1  0.50103700  0.45684600  0.36177100  1
  S  S1  1  0.35222200  0.88259100  0.00087600  1
  S  S2  1  0.64391200  0.04189600  0.31760300  1
  S  S3  1  0.45270200  0.66080400  0.71687700  1
  S  S4  1  0.84618000  0.98526000  0.91655300  1
  S  S5  1  0.00103700  0.54315400  0.13822900  1
  S  S6  1  0.95270200  0.33919600  0.78312300  1
  S  S7  1  0.85222200  0.11740900  0.49912400  1
  S  S8  1  0.15382000  0.01474000  0.08344700  1
  S  S9  1  0.85608800  0.04189600  0.81760300  1
  S  S10  1  0.36103500  0.45085300  0.08582900  1
  S  S11  1  0.34618000  0.01474000  0.58344700  1
  S  S12  1  0.14391200  0.95810400  0.18239700  1
  S  S13  1  0.30110100  0.41134000  0.55536400  1
  S  S14  1  0.65382000  0.98526000  0.41655300  1
  S  S15  1  0.80110100  0.58866000  0.94463600  1
  S  S16  1  0.49896300  0.54315400  0.63822900  1
  S  S17  1  0.19889900  0.41134000  0.05536400  1
  S  S18  1  0.14777800  0.88259100  0.50087600  1
  S  S19  1  0.54220200  0.25179000  0.94880000  1
  S  S20  1  0.86103500  0.54914700  0.41417100  1
  S  S21  1  0.35608800  0.95810400  0.68239700  1
  S  S22  1  0.95779800  0.25179000  0.44880000  1
  S  S23  1  0.04220200  0.74821000  0.55120000  1
  S  S24  1  0.69889900  0.58866000  0.44463600  1
  S  S25  1  0.45779800  0.74821000  0.05120000  1
  S  S26  1  0.99896300  0.45684600  0.86177100  1
  S  S27  1  0.04729800  0.66080400  0.21687700  1
  S  S28  1  0.64777800  0.11740900  0.99912400  1
  S  S29  1  0.63896500  0.54914700  0.91417100  1
  S  S30  1  0.54729800  0.33919600  0.28312300  1
  S  S31  1  0.13896500  0.45085300  0.58582900  1
  Br  Br0  1  0.83001800  0.43324400  0.59316100  1
  Br  Br1  1  0.63208700  0.87552200  0.60084900  1
  Br  Br2  1  0.21371300  0.34621900  0.23894100  1
  Br  Br3  1  0.36791300  0.12447800  0.39915100  1
  Br  Br4  1  0.35197700  0.69431100  0.22091000  1
  Br  Br5  1  0.86791300  0.87552200  0.10084900  1
  Br  Br6  1  0.94227400  0.95454400  0.34219700  1
  Br  Br7  1  0.78628700  0.65378100  0.76105900  1
  Br  Br8  1  0.14802300  0.69431100  0.72091000  1
  Br  Br9  1  0.55772600  0.95454400  0.84219700  1
  Br  Br10  1  0.44227400  0.04545600  0.15780300  1
  Br  Br11  1  0.28628700  0.34621900  0.73894100  1
  Br  Br12  1  0.16998200  0.56675600  0.40683900  1
  Br  Br13  1  0.71371300  0.65378100  0.26105900  1
  Br  Br14  1  0.33001800  0.56675600  0.90683900  1
  Br  Br15  1  0.05772600  0.04545600  0.65780300  1
  Br  Br16  1  0.64802300  0.30568900  0.77909000  1
  Br  Br17  1  0.42412000  0.72430700  0.48244000  1
  Br  Br18  1  0.57588000  0.27569300  0.51756000  1
  Br  Br19  1  0.66998200  0.43324400  0.09316100  1
  Br  Br20  1  0.92412000  0.27569300  0.01756000  1
  Br  Br21  1  0.85197700  0.30568900  0.27909000  1
  Br  Br22  1  0.07588000  0.72430700  0.98244000  1
  Br  Br23  1  0.13208700  0.12447800  0.89915100  1
  O  O0  1  0.21421100  0.70901700  0.10137900  1
  O  O1  1  0.28578900  0.70901700  0.60137900  1
  O  O2  1  0.78578900  0.29098300  0.89862100  1
  O  O3  1  0.71421100  0.29098300  0.39862100  1
loop_
_geom_bond_atom_site_label_1
_geom_bond_atom_site_label_2
_geom_bond_distance
_geom_bond_site_symmetry_2
S0 S30 2.050225 1_555
S0 Ti2 2.414545 1_555
S0 Ti7 2.520404 1_555
S1 S25 2.051773 1_555
S1 Ti9 2.418103 1_555
S1 Ti4 2.524106 1_555
S2 Ti7 2.415168 1_555
S2 Ti12 2.516964 1_555
S3 Ti10 2.410045 1_555
S3 Ti3 2.518365 1_555
S4 S9 2.050044 1_565
S4 Ti0 2.417368 1_565
S4 Ti8 2.522562 1_565
S5 Ti1 2.414545 1_555
S5 Ti15 2.520404 1_555
S6 Ti8 2.410045 1_555
S6 Ti14 2.518365 1_555
S7 Ti12 2.418103 1_555
S7 Ti13 2.524106 1_555
S8 Ti9 2.417368 1_545
S8 Ti15 2.522562 1_545
S9 Ti8 2.415168 1_555
S9 Ti0 2.516964 1_555
S10 S17 2.054447 1_555
S10 Ti4 2.409059 1_555
S10 Ti1 2.530532 1_555
S11 S21 2.050044 1_545
S11 Ti5 2.417368 1_545
S11 Ti10 2.522562 1_545
S12 S8 2.050044 1_565
S12 Ti15 2.415168 1_555
S12 Ti9 2.516964 1_555
S13 S31 2.054447 1_555
S13 Ti3 2.417595 1_555
S13 Ti11 2.517581 1_555
S14 S2 2.050044 1_565
S14 Ti12 2.417368 1_565
S14 Ti7 2.522562 1_565
S15 S29 2.054447 1_555
S15 Ti14 2.417595 1_555
S15 Ti6 2.517581 1_555
S16 S3 2.050225 1_555
S16 Ti3 2.414545 1_555
S16 Ti10 2.520404 1_555
S17 Ti1 2.417595 1_555
S17 Ti4 2.517581 1_555
S18 S23 2.051773 1_555
S18 Ti5 2.418103 1_555
S18 Ti11 2.524106 1_555
S19 S28 2.051773 1_555
S19 Ti6 2.412697 1_555
S19 Ti0 2.533153 1_555
S20 S24 2.054447 1_555
S20 Ti13 2.409059 1_555
S20 Ti2 2.530532 1_555
S21 Ti10 2.415168 1_555
S21 Ti5 2.516964 1_555
S22 S7 2.051773 1_555
S22 Ti13 2.412697 1_555
S22 Ti12 2.533153 1_555
S23 Ti11 2.412697 1_555
S23 Ti5 2.533153 1_555
S24 Ti2 2.417595 1_555
S24 Ti13 2.517581 1_555
S25 Ti4 2.412697 1_555
S25 Ti9 2.533153 1_555
S26 S6 2.050225 1_555
S26 Ti14 2.414545 1_555
S26 Ti8 2.520404 1_555
S27 S5 2.050225 1_555
S27 Ti15 2.410045 1_555
S27 Ti1 2.518365 1_555
S28 Ti0 2.418103 1_555
S28 Ti6 2.524106 1_555
S29 Ti6 2.409059 1_555
S29 Ti14 2.530532 1_555
S30 Ti7 2.410045 1_555
S30 Ti2 2.518365 1_555
S31 Ti11 2.409059 1_555
S31 Ti3 2.530532 1_555
Br0 Ti13 2.397794 1_555
Br1 Ti10 2.397555 1_555
Br2 Ti1 2.385125 1_555
Br3 Ti7 2.397555 1_555
Br4 Ti9 2.698238 1_555
Br4 Ti1 2.702794 1_555
Br5 Ti15 2.397555 1_655
Br6 Ti12 2.394093 1_565
Br7 Ti14 2.385125 1_555
Br8 Ti5 2.698238 1_555
Br8 Ti3 2.702794 1_555
Br9 Ti0 2.394093 1_565
Br10 Ti9 2.394093 1_545
Br11 Ti3 2.385125 1_555
Br12 Ti11 2.397794 1_555
Br13 Ti2 2.385125 1_555
Br14 Ti4 2.397794 1_556
Br15 Ti5 2.394093 1_545
Br16 Ti0 2.698238 1_555
Br16 Ti14 2.702794 1_555
Br17 Ti11 2.712004 1_555
Br17 Ti10 2.717495 1_555
Br18 Ti13 2.712004 1_555
Br18 Ti7 2.717495 1_555
Br19 Ti6 2.397794 1_554
Br20 Ti6 2.712004 1_554
Br20 Ti8 2.717495 1_554
Br21 Ti12 2.698238 1_555
Br21 Ti2 2.702794 1_555
Br22 Ti4 2.712004 1_556
Br22 Ti15 2.717495 1_556
Br23 Ti8 2.397555 1_455
O0 Ti4 2.031396 1_555
O0 Ti15 2.035245 1_555
O0 Ti9 2.036831 1_555
O0 Ti1 2.047900 1_555
O1 Ti11 2.031396 1_555
O1 Ti10 2.035245 1_555
O1 Ti5 2.036831 1_555
O1 Ti3 2.047900 1_555
O2 Ti6 2.031396 1_555
O2 Ti8 2.035245 1_555
O2 Ti0 2.036831 1_555
O2 Ti14 2.047900 1_555
O3 Ti13 2.031396 1_555
O3 Ti7 2.035245 1_555
O3 Ti12 2.036831 1_555
O3 Ti2 2.047900 1_555
