# generated using pymatgen
data_Cs2U2O7
_symmetry_space_group_name_H-M   'P 1'
_cell_length_a   4.31973284
_cell_length_b   7.57269305
_cell_length_c   7.58796775
_cell_angle_alpha   112.41692694
_cell_angle_beta   106.53471003
_cell_angle_gamma   90.00480176
_symmetry_Int_Tables_number   1
_chemical_formula_structural   Cs2U2O7
_chemical_formula_sum   'Cs2 U2 O7'
_cell_volume   218.31362194
_cell_formula_units_Z   1
loop_
 _symmetry_equiv_pos_site_id
 _symmetry_equiv_pos_as_xyz
  1  'x, y, z'
loop_
 _atom_site_type_symbol
 _atom_site_label
 _atom_site_symmetry_multiplicity
 _atom_site_fract_x
 _atom_site_fract_y
 _atom_site_fract_z
 _atom_site_occupancy
  Cs  Cs0  1  0.60292915  0.41877260  0.20563842  1
  Cs  Cs1  1  0.39707029  0.58123491  0.79435576  1
  U  U0  1  0.85303809  0.00812906  0.70605482  1
  U  U1  1  0.14696592  0.99186784  0.29395367  1
  O  O0  1  0.19932038  0.25967131  0.39855204  1
  O  O1  1  0.69071210  0.99568249  0.38138585  1
  O  O2  1  0.91170685  0.27612165  0.82352191  1
  O  O3  1  0.99999670  0.99999756  0.00000117  1
  O  O4  1  0.30928717  0.00431588  0.61861243  1
  O  O5  1  0.08829087  0.72387678  0.17647797  1
  O  O6  1  0.80068248  0.74032992  0.60144696  1
loop_
_geom_bond_atom_site_label_1
_geom_bond_atom_site_label_2
_geom_bond_distance
_geom_bond_site_symmetry_2
Cs0 O6 2.939560 1_555
Cs0 O0 3.070921 1_655
Cs0 O0 3.071080 1_555
Cs0 O5 3.230513 1_655
Cs0 O5 3.231121 1_555
Cs0 O2 3.341524 1_554
Cs0 O2 3.342501 1_454
Cs1 O0 2.939558 1_555
Cs1 O6 3.070870 1_455
Cs1 O6 3.071034 1_555
Cs1 O2 3.230592 1_455
Cs1 O2 3.231173 1_555
Cs1 O5 3.341567 1_556
Cs1 O5 3.342518 1_656
O0 U1 1.861178 1_545
O1 U1 2.248343 1_655
O1 U1 2.248649 1_555
O1 U0 2.325815 1_565
O2 U0 1.862522 1_555
O3 U0 2.163455 1_564
O3 U1 2.163494 1_655
O4 U0 2.248366 1_455
O4 U0 2.248669 1_555
O4 U1 2.325736 1_545
O5 U1 1.862513 1_555
O6 U0 1.861146 1_565
