# generated using pymatgen
data_SrAl22O34
_symmetry_space_group_name_H-M   'P 1'
_cell_length_a   11.30281600
_cell_length_b   9.78526000
_cell_length_c   11.85683217
_cell_angle_alpha   74.12500795
_cell_angle_beta   90.00000000
_cell_angle_gamma   90.00000000
_symmetry_Int_Tables_number   1
_chemical_formula_structural   SrAl22O34
_chemical_formula_sum   'Sr2 Al44 O68'
_cell_volume   1261.36252132
_cell_formula_units_Z   2
loop_
 _symmetry_equiv_pos_site_id
 _symmetry_equiv_pos_as_xyz
  1  'x, y, z'
loop_
 _atom_site_type_symbol
 _atom_site_label
 _atom_site_symmetry_multiplicity
 _atom_site_fract_x
 _atom_site_fract_y
 _atom_site_fract_z
 _atom_site_occupancy
  Sr  Sr0  1  0.25000000  0.69504600  0.48043800  1
  Sr  Sr1  1  0.75000000  0.30495400  0.51956200  1
  Al  Al0  1  0.00000000  0.00000000  0.00000000  1
  Al  Al1  1  0.12446800  0.34312200  0.21625000  1
  Al  Al2  1  0.00034100  0.09572000  0.21623500  1
  Al  Al3  1  0.25000000  0.49983900  0.00161200  1
  Al  Al4  1  0.99998900  0.44971800  0.64997000  1
  Al  Al5  1  0.12471100  0.84729600  0.20777600  1
  Al  Al6  1  0.37528900  0.84729600  0.20777600  1
  Al  Al7  1  0.25000000  0.59689400  0.21070400  1
  Al  Al8  1  0.50000000  0.00000000  0.00000000  1
  Al  Al9  1  0.99904000  0.64978800  0.04962000  1
  Al  Al10  1  0.25000000  0.85108300  0.94732900  1
  Al  Al11  1  0.12332300  0.65457000  0.78916900  1
  Al  Al12  1  0.25000000  0.94808100  0.64757500  1
  Al  Al13  1  0.25000000  0.04802000  0.35278800  1
  Al  Al14  1  0.37553200  0.34312200  0.21625000  1
  Al  Al15  1  0.62332300  0.34543000  0.21083100  1
  Al  Al16  1  0.49965900  0.09572000  0.21623500  1
  Al  Al17  1  0.75000000  0.50016100  0.99838800  1
  Al  Al18  1  0.25000000  0.15075900  0.04935100  1
  Al  Al19  1  0.49904000  0.35021200  0.95038000  1
  Al  Al20  1  0.25000000  0.40177800  0.78838700  1
  Al  Al21  1  0.12650200  0.15483400  0.78309900  1
  Al  Al22  1  0.37349800  0.15483400  0.78309900  1
  Al  Al23  1  0.50001100  0.44971800  0.64997000  1
  Al  Al24  1  0.49998900  0.55028200  0.35003000  1
  Al  Al25  1  0.87349800  0.84516600  0.21690100  1
  Al  Al26  1  0.62650200  0.84516600  0.21690100  1
  Al  Al27  1  0.75000000  0.59822200  0.21161300  1
  Al  Al28  1  0.50096000  0.64978800  0.04962000  1
  Al  Al29  1  0.75000000  0.84924100  0.95064900  1
  Al  Al30  1  0.50034100  0.90428000  0.78376500  1
  Al  Al31  1  0.37667700  0.65457000  0.78916900  1
  Al  Al32  1  0.62446800  0.65687800  0.78375000  1
  Al  Al33  1  0.75000000  0.95198000  0.64721200  1
  Al  Al34  1  0.75000000  0.05191900  0.35242500  1
  Al  Al35  1  0.87667700  0.34543000  0.21083100  1
  Al  Al36  1  0.75000000  0.14891700  0.05267100  1
  Al  Al37  1  0.00096000  0.35021200  0.95038000  1
  Al  Al38  1  0.75000000  0.40310600  0.78929600  1
  Al  Al39  1  0.87528900  0.15270400  0.79222400  1
  Al  Al40  1  0.62471100  0.15270400  0.79222400  1
  Al  Al41  1  0.00001100  0.55028200  0.35003000  1
  Al  Al42  1  0.99965900  0.90428000  0.78376500  1
  Al  Al43  1  0.87553200  0.65687800  0.78375000  1
  O  O0  1  0.99838000  0.09508400  0.71739000  1
  O  O1  1  0.13330900  0.45588800  0.90076800  1
  O  O2  1  0.99818400  0.19079900  0.90077500  1
  O  O3  1  0.25000000  0.59577300  0.71258200  1
  O  O4  1  0.12552700  0.34640900  0.71224200  1
  O  O5  1  0.00000000  0.50000000  0.50000000  1
  O  O6  1  0.13007000  0.65592900  0.29588800  1
  O  O7  1  0.99915300  0.40359600  0.28823500  1
  O  O8  1  0.25000000  0.79586500  0.10936800  1
  O  O9  1  0.13226800  0.54768100  0.09995200  1
  O  O10  1  0.11746800  0.95557600  0.90005800  1
  O  O11  1  0.38253200  0.95557600  0.90005800  1
  O  O12  1  0.25000000  0.68865300  0.90039400  1
  O  O13  1  0.99860800  0.70326300  0.88956700  1
  O  O14  1  0.50162000  0.09508400  0.71739000  1
  O  O15  1  0.25000000  0.09754100  0.70653600  1
  O  O16  1  0.12449000  0.84403300  0.71239800  1
  O  O17  1  0.37551000  0.84403300  0.71239800  1
  O  O18  1  0.25000000  0.95423900  0.49982500  1
  O  O19  1  0.37469200  0.15296900  0.29074600  1
  O  O20  1  0.12530800  0.15296900  0.29074600  1
  O  O21  1  0.25000000  0.89786700  0.28974100  1
  O  O22  1  0.49860800  0.29673700  0.11043300  1
  O  O23  1  0.25000000  0.31052300  0.09916900  1
  O  O24  1  0.11853400  0.04481400  0.09883200  1
  O  O25  1  0.38146600  0.04481400  0.09883200  1
  O  O26  1  0.36669100  0.45588800  0.90076800  1
  O  O27  1  0.63226800  0.45231900  0.90004800  1
  O  O28  1  0.50181600  0.19079900  0.90077500  1
  O  O29  1  0.25000000  0.20313700  0.88875800  1
  O  O30  1  0.75000000  0.59250300  0.71745200  1
  O  O31  1  0.49915300  0.59640400  0.71176500  1
  O  O32  1  0.37447300  0.34640900  0.71224200  1
  O  O33  1  0.63007000  0.34407100  0.70411200  1
  O  O34  1  0.50000000  0.50000000  0.50000000  1
  O  O35  1  0.36993000  0.65592900  0.29588800  1
  O  O36  1  0.62552700  0.65359100  0.28775800  1
  O  O37  1  0.50084700  0.40359600  0.28823500  1
  O  O38  1  0.25000000  0.40749700  0.28254800  1
  O  O39  1  0.75000000  0.79686300  0.11124200  1
  O  O40  1  0.49818400  0.80920100  0.09922500  1
  O  O41  1  0.36773200  0.54768100  0.09995200  1
  O  O42  1  0.63330900  0.54411200  0.09923200  1
  O  O43  1  0.61853400  0.95518600  0.90116800  1
  O  O44  1  0.88146600  0.95518600  0.90116800  1
  O  O45  1  0.75000000  0.68947700  0.90083100  1
  O  O46  1  0.50139200  0.70326300  0.88956700  1
  O  O47  1  0.75000000  0.10213300  0.71025900  1
  O  O48  1  0.87469200  0.84703100  0.70925400  1
  O  O49  1  0.62530800  0.84703100  0.70925400  1
  O  O50  1  0.75000000  0.04576100  0.50017500  1
  O  O51  1  0.62449000  0.15596700  0.28760200  1
  O  O52  1  0.87551000  0.15596700  0.28760200  1
  O  O53  1  0.75000000  0.90245900  0.29346400  1
  O  O54  1  0.49838000  0.90491600  0.28261000  1
  O  O55  1  0.00139200  0.29673700  0.11043300  1
  O  O56  1  0.75000000  0.31134700  0.09960600  1
  O  O57  1  0.88253200  0.04442400  0.09994200  1
  O  O58  1  0.61746800  0.04442400  0.09994200  1
  O  O59  1  0.86773200  0.45231900  0.90004800  1
  O  O60  1  0.75000000  0.20413500  0.89063200  1
  O  O61  1  0.00084700  0.59640400  0.71176500  1
  O  O62  1  0.86993000  0.34407100  0.70411200  1
  O  O63  1  0.87447300  0.65359100  0.28775800  1
  O  O64  1  0.75000000  0.40422700  0.28741800  1
  O  O65  1  0.00181600  0.80920100  0.09922500  1
  O  O66  1  0.86669100  0.54411200  0.09923200  1
  O  O67  1  0.00162000  0.90491600  0.28261000  1
loop_
_geom_bond_atom_site_label_1
_geom_bond_atom_site_label_2
_geom_bond_distance
_geom_bond_site_symmetry_2
Al0 O57 1.907309 1_455
Al0 O10 1.907309 1_544
Al0 O24 1.908297 1_555
Al0 O44 1.908297 1_444
Al0 O2 1.915369 1_454
Al0 O65 1.915369 1_545
Al1 O38 1.816264 1_555
Al1 O20 1.828480 1_555
Al1 O7 1.833357 1_455
Al1 O55 2.006712 1_555
Al1 O23 2.069860 1_555
Al1 O9 2.099011 1_555
Al2 O67 1.817044 1_545
Al2 O52 1.824075 1_455
Al2 O20 1.833080 1_555
Al2 O55 2.023118 1_555
Al2 O57 2.074838 1_455
Al2 O24 2.085638 1_555
Al3 O23 1.896702 1_555
Al3 O26 1.906714 1_554
Al3 O1 1.906714 1_554
Al3 O12 1.908099 1_554
Al3 O41 1.910005 1_555
Al3 O9 1.910005 1_555
Al4 O5 1.710360 1_655
Al4 O4 1.781044 1_655
Al4 O61 1.781164 1_655
Al4 O62 1.810730 1_555
Al5 O67 1.820585 1_555
Al5 O21 1.859530 1_555
Al5 O6 1.879202 1_555
Al5 O8 1.985286 1_555
Al5 O65 1.996866 1_555
Al5 O24 2.010766 1_565
Al6 O54 1.820585 1_555
Al6 O21 1.859530 1_555
Al6 O35 1.879202 1_555
Al6 O8 1.985286 1_555
Al6 O40 1.996866 1_555
Al6 O25 2.010766 1_565
Al7 O38 1.815673 1_555
Al7 O6 1.873642 1_555
Al7 O35 1.873642 1_555
Al7 O8 1.988616 1_555
Al7 O41 2.018177 1_555
Al7 O9 2.018177 1_555
Al8 O58 1.907309 1_555
Al8 O11 1.907309 1_544
Al8 O43 1.908297 1_544
Al8 O25 1.908297 1_555
Al8 O28 1.915369 1_554
Al8 O40 1.915369 1_545
Al9 O65 1.811663 1_655
Al9 O9 1.815438 1_655
Al9 O66 1.822172 1_555
Al9 O13 1.825355 1_554
Al10 O11 1.813853 1_555
Al10 O10 1.813853 1_555
Al10 O12 1.822045 1_555
Al10 O8 1.848053 1_556
Al11 O16 1.828284 1_555
Al11 O61 1.835313 1_555
Al11 O3 1.868562 1_555
Al11 O13 1.985307 1_455
Al11 O1 2.033713 1_555
Al11 O12 2.034967 1_555
Al12 O18 1.736332 1_555
Al12 O15 1.785216 1_565
Al12 O16 1.792123 1_555
Al12 O17 1.792123 1_555
Al13 O18 1.733865 1_545
Al13 O19 1.780115 1_555
Al13 O20 1.780115 1_555
Al13 O21 1.821674 1_545
Al14 O38 1.816264 1_555
Al14 O19 1.828480 1_555
Al14 O37 1.833357 1_555
Al14 O22 2.006712 1_555
Al14 O23 2.069860 1_555
Al14 O41 2.099011 1_555
Al15 O51 1.828284 1_555
Al15 O37 1.835313 1_555
Al15 O64 1.868562 1_555
Al15 O22 1.985307 1_555
Al15 O42 2.033713 1_555
Al15 O56 2.034967 1_555
Al16 O54 1.817044 1_545
Al16 O51 1.824075 1_555
Al16 O19 1.833080 1_555
Al16 O22 2.023118 1_555
Al16 O58 2.074838 1_555
Al16 O25 2.085638 1_555
Al17 O45 1.896702 1_555
Al17 O66 1.906714 1_556
Al17 O42 1.906714 1_556
Al17 O56 1.908099 1_556
Al17 O59 1.910005 1_555
Al17 O27 1.910005 1_555
Al18 O25 1.814996 1_555
Al18 O24 1.814996 1_555
Al18 O23 1.816069 1_555
Al18 O29 1.831521 1_554
Al19 O28 1.811663 1_555
Al19 O27 1.815438 1_555
Al19 O26 1.822172 1_555
Al19 O22 1.825355 1_556
Al20 O32 1.831837 1_555
Al20 O4 1.831837 1_555
Al20 O3 1.864924 1_555
Al20 O29 1.982160 1_555
Al20 O26 2.044855 1_555
Al20 O1 2.044855 1_555
Al21 O0 1.815254 1_455
Al21 O4 1.832624 1_555
Al21 O15 1.834472 1_555
Al21 O29 2.016253 1_555
Al21 O10 2.063002 1_545
Al21 O2 2.107790 1_455
Al22 O14 1.815254 1_555
Al22 O32 1.832624 1_555
Al22 O15 1.834472 1_555
Al22 O29 2.016253 1_555
Al22 O11 2.063002 1_545
Al22 O28 2.107790 1_555
Al23 O34 1.710360 1_555
Al23 O32 1.781044 1_555
Al23 O31 1.781164 1_555
Al23 O33 1.810730 1_555
Al24 O34 1.710360 1_555
Al24 O36 1.781044 1_555
Al24 O37 1.781164 1_555
Al24 O35 1.810730 1_555
Al25 O67 1.815254 1_655
Al25 O63 1.832624 1_555
Al25 O53 1.834472 1_555
Al25 O39 2.016253 1_555
Al25 O57 2.063002 1_565
Al25 O65 2.107790 1_655
Al26 O54 1.815254 1_555
Al26 O36 1.832624 1_555
Al26 O53 1.834472 1_555
Al26 O39 2.016253 1_555
Al26 O58 2.063002 1_565
Al26 O40 2.107790 1_555
Al27 O63 1.831837 1_555
Al27 O36 1.831837 1_555
Al27 O64 1.864924 1_555
Al27 O39 1.982160 1_555
Al27 O66 2.044855 1_555
Al27 O42 2.044855 1_555
Al28 O40 1.811663 1_555
Al28 O41 1.815438 1_555
Al28 O42 1.822172 1_555
Al28 O46 1.825355 1_554
Al29 O44 1.814996 1_555
Al29 O43 1.814996 1_555
Al29 O45 1.816069 1_555
Al29 O39 1.831521 1_556
Al30 O14 1.817044 1_565
Al30 O17 1.824075 1_555
Al30 O49 1.833080 1_555
Al30 O46 2.023118 1_555
Al30 O11 2.074838 1_555
Al30 O43 2.085638 1_555
Al31 O17 1.828284 1_555
Al31 O31 1.835313 1_555
Al31 O3 1.868562 1_555
Al31 O46 1.985307 1_555
Al31 O26 2.033713 1_555
Al31 O12 2.034967 1_555
Al32 O30 1.816264 1_555
Al32 O49 1.828480 1_555
Al32 O31 1.833357 1_555
Al32 O46 2.006712 1_555
Al32 O45 2.069860 1_555
Al32 O27 2.099011 1_555
Al33 O50 1.733865 1_565
Al33 O48 1.780115 1_555
Al33 O49 1.780115 1_555
Al33 O47 1.821674 1_565
Al34 O50 1.736332 1_555
Al34 O53 1.785216 1_545
Al34 O51 1.792123 1_555
Al34 O52 1.792123 1_555
Al35 O52 1.828284 1_555
Al35 O7 1.835313 1_555
Al35 O64 1.868562 1_555
Al35 O55 1.985307 1_655
Al35 O66 2.033713 1_555
Al35 O56 2.034967 1_555
Al36 O57 1.813853 1_555
Al36 O58 1.813853 1_555
Al36 O56 1.822045 1_555
Al36 O60 1.848053 1_554
Al37 O2 1.811663 1_455
Al37 O59 1.815438 1_455
Al37 O1 1.822172 1_555
Al37 O55 1.825355 1_556
Al38 O30 1.815673 1_555
Al38 O33 1.873642 1_555
Al38 O62 1.873642 1_555
Al38 O60 1.988616 1_555
Al38 O59 2.018177 1_555
Al38 O27 2.018177 1_555
Al39 O0 1.820585 1_555
Al39 O47 1.859530 1_555
Al39 O62 1.879202 1_555
Al39 O60 1.985286 1_555
Al39 O2 1.996866 1_555
Al39 O44 2.010766 1_545
Al40 O14 1.820585 1_555
Al40 O47 1.859530 1_555
Al40 O33 1.879202 1_555
Al40 O60 1.985286 1_555
Al40 O28 1.996866 1_555
Al40 O43 2.010766 1_545
Al41 O5 1.710360 1_555
Al41 O63 1.781044 1_455
Al41 O7 1.781164 1_455
Al41 O6 1.810730 1_555
Al42 O0 1.817044 1_565
Al42 O16 1.824075 1_655
Al42 O48 1.833080 1_555
Al42 O13 2.023118 1_555
Al42 O10 2.074838 1_655
Al42 O44 2.085638 1_555
Al43 O30 1.816264 1_555
Al43 O48 1.828480 1_555
Al43 O61 1.833357 1_655
Al43 O13 2.006712 1_555
Al43 O45 2.069860 1_555
Al43 O59 2.099011 1_555
O3 Sr0 2.656515 1_555
O6 Sr0 2.688933 1_555
O18 Sr0 2.608536 1_555
O21 Sr0 2.568323 1_555
O33 Sr1 2.688933 1_555
O35 Sr0 2.688933 1_555
O47 Sr1 2.568323 1_555
O50 Sr1 2.608536 1_555
O62 Sr1 2.688933 1_555
O64 Sr1 2.656515 1_555
