# generated using pymatgen
data_AgNO2
_symmetry_space_group_name_H-M   'P 1'
_cell_length_a   4.51349884
_cell_length_b   4.51349884
_cell_length_c   4.51349884
_cell_angle_alpha   128.68850588
_cell_angle_beta   111.08632572
_cell_angle_gamma   90.86747867
_symmetry_Int_Tables_number   1
_chemical_formula_structural   AgNO2
_chemical_formula_sum   'Ag1 N1 O2'
_cell_volume   63.22294054
_cell_formula_units_Z   1
loop_
 _symmetry_equiv_pos_site_id
 _symmetry_equiv_pos_as_xyz
  1  'x, y, z'
loop_
 _atom_site_type_symbol
 _atom_site_label
 _atom_site_symmetry_multiplicity
 _atom_site_fract_x
 _atom_site_fract_y
 _atom_site_fract_z
 _atom_site_occupancy
  Ag  Ag0  1  0.04338100  0.00000000  0.04338100  1
  N  N0  1  0.60711800  0.00000000  0.60711800  1
  O  O0  1  0.64360800  0.16885800  0.47475100  1
  O  O1  1  0.30589300  0.83114200  0.47475100  1
loop_
_geom_bond_atom_site_label_1
_geom_bond_atom_site_label_2
_geom_bond_distance
_geom_bond_site_symmetry_2
Ag0 N0 2.228144 1_454
Ag0 O0 2.449081 1_555
Ag0 O1 2.449085 1_545
N0 O0 1.265369 1_555
N0 O1 1.265371 1_545
