# generated using pymatgen
data_Rb2CO3
_symmetry_space_group_name_H-M   'P 1'
_cell_length_a   5.96912097
_cell_length_b   7.39850153
_cell_length_c   9.98051416
_cell_angle_alpha   90.00000000
_cell_angle_beta   90.00000000
_cell_angle_gamma   90.00000000
_symmetry_Int_Tables_number   1
_chemical_formula_structural   Rb2CO3
_chemical_formula_sum   'Rb8 C4 O12'
_cell_volume   440.76496190
_cell_formula_units_Z   4
loop_
 _symmetry_equiv_pos_site_id
 _symmetry_equiv_pos_as_xyz
  1  'x, y, z'
loop_
 _atom_site_type_symbol
 _atom_site_label
 _atom_site_symmetry_multiplicity
 _atom_site_fract_x
 _atom_site_fract_y
 _atom_site_fract_z
 _atom_site_occupancy
  Rb  Rb0  1  0.75000000  0.30965013  0.41887043  1
  Rb  Rb1  1  0.25000000  0.19034987  0.91887043  1
  Rb  Rb2  1  0.25000000  0.03744219  0.27078698  1
  Rb  Rb3  1  0.75000000  0.80965013  0.08112957  1
  Rb  Rb4  1  0.75000000  0.46255781  0.77078698  1
  Rb  Rb5  1  0.25000000  0.53744219  0.22921302  1
  Rb  Rb6  1  0.25000000  0.69034987  0.58112957  1
  Rb  Rb7  1  0.75000000  0.96255781  0.72921302  1
  C  C0  1  0.75000000  0.24725491  0.08377120  1
  C  C1  1  0.25000000  0.75274509  0.91622880  1
  C  C2  1  0.25000000  0.25274509  0.58377120  1
  C  C3  1  0.75000000  0.74725491  0.41622880  1
  O  O0  1  0.56167839  0.78125632  0.35664389  1
  O  O1  1  0.43832161  0.71874368  0.85664389  1
  O  O2  1  0.43832161  0.21874368  0.64335611  1
  O  O3  1  0.93832161  0.28125632  0.14335611  1
  O  O4  1  0.75000000  0.67633234  0.53550125  1
  O  O5  1  0.25000000  0.32366766  0.46449875  1
  O  O6  1  0.56167839  0.28125632  0.14335611  1
  O  O7  1  0.75000000  0.17633234  0.96449875  1
  O  O8  1  0.93832161  0.78125632  0.35664389  1
  O  O9  1  0.25000000  0.82366766  0.03550125  1
  O  O10  1  0.06167839  0.21874368  0.64335611  1
  O  O11  1  0.06167839  0.71874368  0.85664389  1
loop_
_geom_bond_atom_site_label_1
_geom_bond_atom_site_label_2
_geom_bond_distance
_geom_bond_site_symmetry_2
C0 O6 1.296368 1_555
C0 O3 1.296368 1_555
C0 O7 1.300917 1_554
C1 O1 1.296368 1_555
C1 O11 1.296368 1_555
C1 O9 1.300917 1_556
C2 O2 1.296368 1_555
C2 O10 1.296368 1_555
C2 O5 1.300917 1_555
C3 O0 1.296368 1_555
C3 O8 1.296368 1_555
C3 O4 1.300917 1_555
O0 Rb2 2.790706 1_565
O0 Rb5 2.886643 1_555
O0 Rb3 2.978091 1_555
O0 Rb6 2.988875 1_555
O1 Rb4 2.790706 1_555
O1 Rb7 2.886643 1_555
O1 Rb6 2.978091 1_555
O1 Rb3 2.988875 1_556
O2 Rb7 2.790706 1_545
O2 Rb4 2.886643 1_555
O2 Rb1 2.978091 1_555
O2 Rb0 2.988875 1_555
O3 Rb5 2.790706 1_655
O3 Rb2 2.886643 1_655
O3 Rb0 2.978091 1_555
O3 Rb1 2.988875 1_654
O4 Rb4 2.831233 1_555
O4 Rb7 2.867440 1_555
O4 Rb0 2.952084 1_555
O4 Rb6 3.020884 1_555
O4 Rb6 3.020884 1_655
O5 Rb5 2.831233 1_555
O5 Rb2 2.867440 1_555
O5 Rb6 2.952084 1_555
O5 Rb0 3.020884 1_455
O5 Rb0 3.020884 1_555
O6 Rb5 2.790706 1_555
O6 Rb2 2.886643 1_555
O6 Rb0 2.978091 1_555
O6 Rb1 2.988875 1_554
O7 Rb7 2.831233 1_545
O7 Rb4 2.867440 1_555
O7 Rb3 2.952084 1_546
O7 Rb1 3.020884 1_555
O7 Rb1 3.020884 1_655
O8 Rb2 2.790706 1_665
O8 Rb5 2.886643 1_655
O8 Rb3 2.978091 1_555
O8 Rb6 2.988875 1_655
O9 Rb2 2.831233 1_565
O9 Rb5 2.867440 1_555
O9 Rb1 2.952084 1_564
O9 Rb3 3.020884 1_555
O9 Rb3 3.020884 1_455
O10 Rb7 2.790706 1_445
O10 Rb4 2.886643 1_455
O10 Rb1 2.978091 1_555
O10 Rb0 2.988875 1_455
O11 Rb4 2.790706 1_455
O11 Rb7 2.886643 1_455
O11 Rb6 2.978091 1_555
O11 Rb3 2.988875 1_456
