# generated using pymatgen
data_MgNi3B2
_symmetry_space_group_name_H-M   'P 1'
_cell_length_a   4.84395227
_cell_length_b   4.84395153
_cell_length_c   8.69414151
_cell_angle_alpha   90.00000000
_cell_angle_beta   90.00000000
_cell_angle_gamma   120.00000514
_symmetry_Int_Tables_number   1
_chemical_formula_structural   MgNi3B2
_chemical_formula_sum   'Mg3 Ni9 B6'
_cell_volume   176.66761967
_cell_formula_units_Z   3
loop_
 _symmetry_equiv_pos_site_id
 _symmetry_equiv_pos_as_xyz
  1  'x, y, z'
loop_
 _atom_site_type_symbol
 _atom_site_label
 _atom_site_symmetry_multiplicity
 _atom_site_fract_x
 _atom_site_fract_y
 _atom_site_fract_z
 _atom_site_occupancy
  Mg  Mg0  1  0.00000000  -0.00000000  0.66666700  1
  Mg  Mg1  1  0.00000000  -0.00000000  -0.00000000  1
  Mg  Mg2  1  0.00000000  -0.00000000  0.33333300  1
  Ni  Ni0  1  0.50000000  -0.00000000  0.79240370  1
  Ni  Ni1  1  0.50000000  0.50000000  0.87426330  1
  Ni  Ni2  1  0.50000000  0.50000000  0.45907070  1
  Ni  Ni3  1  0.00000000  0.50000000  0.83333300  1
  Ni  Ni4  1  0.00000000  0.50000000  0.12573670  1
  Ni  Ni5  1  0.50000000  0.50000000  0.16666700  1
  Ni  Ni6  1  0.50000000  -0.00000000  0.20759630  1
  Ni  Ni7  1  0.00000000  0.50000000  0.54092930  1
  Ni  Ni8  1  0.50000000  -0.00000000  0.50000000  1
  B  B0  1  0.61334247  0.22668194  -0.00000000  1
  B  B1  1  0.77331806  0.38665753  0.33333300  1
  B  B2  1  0.22668194  0.61334247  0.33333300  1
  B  B3  1  0.61334247  0.38665753  0.66666700  1
  B  B4  1  0.38665753  0.61334247  0.66666700  1
  B  B5  1  0.38665753  0.77331806  -0.00000000  1
loop_
_geom_bond_atom_site_label_1
_geom_bond_atom_site_label_2
_geom_bond_distance
_geom_bond_site_symmetry_2
Mg0 Ni0 2.657253 1_455
Mg0 Ni0 2.657253 1_555
Mg0 Ni7 2.657256 1_555
Mg0 Ni7 2.657256 1_545
Mg0 Ni3 2.822343 1_545
Mg0 Ni3 2.822343 1_555
Mg0 Ni8 2.822348 1_455
Mg0 Ni8 2.822348 1_555
Mg0 Mg1 2.898044 1_556
Mg0 Mg2 2.898053 1_555
Mg0 Ni1 3.020518 1_445
Mg0 Ni2 3.020518 1_445
Mg0 Ni2 3.020518 1_555
Mg0 Ni1 3.020518 1_555
Mg1 Ni1 2.657253 1_554
Mg1 Ni1 2.657253 1_444
Mg1 Ni4 2.657253 1_545
Mg1 Ni4 2.657253 1_555
Mg1 Ni5 2.822347 1_445
Mg1 Ni5 2.822347 1_555
Mg1 Ni3 2.822347 1_554
Mg1 Ni3 2.822347 1_544
Mg1 Mg2 2.898044 1_555
Mg1 Ni6 3.020518 1_455
Mg1 Ni6 3.020518 1_555
Mg1 Ni0 3.020518 1_554
Mg1 Ni0 3.020518 1_454
Mg2 Ni6 2.657253 1_455
Mg2 Ni6 2.657253 1_555
Mg2 Ni2 2.657256 1_445
Mg2 Ni2 2.657256 1_555
Mg2 Ni5 2.822343 1_445
Mg2 Ni5 2.822343 1_555
Mg2 Ni8 2.822348 1_455
Mg2 Ni8 2.822348 1_555
Mg2 Ni4 3.020518 1_555
Mg2 Ni7 3.020518 1_555
Mg2 Ni7 3.020518 1_545
Mg2 Ni4 3.020518 1_545
B0 B5 1.901855 1_545
B0 Ni4 1.994019 1_655
B0 Ni1 1.994028 1_554
B0 Ni6 2.040055 1_555
B0 Ni0 2.040055 1_554
B0 Ni3 2.209245 1_654
B0 Ni5 2.209253 1_555
B0 Mg1 2.601960 1_655
B0 Mg1 2.601974 1_555
B1 B2 1.901855 1_655
B1 Ni6 1.994019 1_555
B1 Ni2 1.994033 1_555
B1 Ni7 2.040055 1_655
B1 Ni4 2.040055 1_655
B1 Ni8 2.209245 1_555
B1 Ni5 2.209247 1_555
B1 Mg2 2.601960 1_655
B1 Mg2 2.601973 1_665
B2 Ni6 1.994019 1_565
B2 Ni2 1.994033 1_555
B2 Ni4 2.040055 1_555
B2 Ni7 2.040055 1_555
B2 Ni8 2.209245 1_565
B2 Ni5 2.209247 1_555
B2 Mg2 2.601960 1_565
B2 Mg2 2.601973 1_555
B3 B4 1.901880 1_555
B3 Ni0 1.994016 1_555
B3 Ni7 1.994021 1_655
B3 Ni1 2.040061 1_555
B3 Ni2 2.040061 1_555
B3 Ni3 2.209237 1_655
B3 Ni8 2.209242 1_555
B3 Mg0 2.601971 1_665
B3 Mg0 2.601971 1_555
B4 Ni0 1.994016 1_565
B4 Ni7 1.994021 1_555
B4 Ni1 2.040061 1_555
B4 Ni2 2.040061 1_555
B4 Ni3 2.209237 1_555
B4 Ni8 2.209242 1_565
B4 Mg0 2.601971 1_555
B4 Mg0 2.601971 1_665
B5 Ni4 1.994019 1_555
B5 Ni1 1.994028 1_554
B5 Ni6 2.040055 1_565
B5 Ni0 2.040055 1_564
B5 Ni3 2.209245 1_554
B5 Ni5 2.209253 1_555
B5 Mg1 2.601960 1_565
B5 Mg1 2.601974 1_665
