# generated using pymatgen
data_Sm3NbSe3O4
_symmetry_space_group_name_H-M   'P 1'
_cell_length_a   6.94977700
_cell_length_b   7.81040500
_cell_length_c   14.99014900
_cell_angle_alpha   90.00000000
_cell_angle_beta   90.00000000
_cell_angle_gamma   90.00000000
_symmetry_Int_Tables_number   1
_chemical_formula_structural   Sm3NbSe3O4
_chemical_formula_sum   'Sm12 Nb4 Se12 O16'
_cell_volume   813.67387752
_cell_formula_units_Z   4
loop_
 _symmetry_equiv_pos_site_id
 _symmetry_equiv_pos_as_xyz
  1  'x, y, z'
loop_
 _atom_site_type_symbol
 _atom_site_label
 _atom_site_symmetry_multiplicity
 _atom_site_fract_x
 _atom_site_fract_y
 _atom_site_fract_z
 _atom_site_occupancy
  Sm  Sm0  1  0.71347500  0.50665200  0.84660300  1
  Sm  Sm1  1  0.28330500  0.25000000  0.91765900  1
  Sm  Sm2  1  0.28652500  0.49334800  0.15339700  1
  Sm  Sm3  1  0.78652500  0.49334800  0.34660300  1
  Sm  Sm4  1  0.21347500  0.99334800  0.65339700  1
  Sm  Sm5  1  0.78652500  0.00665200  0.34660300  1
  Sm  Sm6  1  0.21347500  0.50665200  0.65339700  1
  Sm  Sm7  1  0.71347500  0.99334800  0.84660300  1
  Sm  Sm8  1  0.28652500  0.00665200  0.15339700  1
  Sm  Sm9  1  0.78330500  0.25000000  0.58234100  1
  Sm  Sm10  1  0.71669500  0.75000000  0.08234100  1
  Sm  Sm11  1  0.21669500  0.75000000  0.41765900  1
  Nb  Nb0  1  0.67502600  0.25000000  0.06775100  1
  Nb  Nb1  1  0.32497400  0.75000000  0.93224900  1
  Nb  Nb2  1  0.82497400  0.75000000  0.56775100  1
  Nb  Nb3  1  0.17502600  0.25000000  0.43224900  1
  Se  Se0  1  0.99700500  0.25000000  0.77164000  1
  Se  Se1  1  0.05074900  0.75000000  0.79750200  1
  Se  Se2  1  0.00299500  0.75000000  0.22836000  1
  Se  Se3  1  0.44925100  0.25000000  0.29750200  1
  Se  Se4  1  0.49700500  0.25000000  0.72836000  1
  Se  Se5  1  0.55074900  0.75000000  0.70249800  1
  Se  Se6  1  0.50000000  0.00000000  0.50000000  1
  Se  Se7  1  0.94925100  0.25000000  0.20249800  1
  Se  Se8  1  0.50299500  0.75000000  0.27164000  1
  Se  Se9  1  0.00000000  0.50000000  0.00000000  1
  Se  Se10  1  0.00000000  0.00000000  0.00000000  1
  Se  Se11  1  0.50000000  0.50000000  0.50000000  1
  O  O0  1  0.35765300  0.75000000  0.06205800  1
  O  O1  1  0.38637300  0.52659400  0.88611700  1
  O  O2  1  0.85765300  0.75000000  0.43794200  1
  O  O3  1  0.38637300  0.97340600  0.88611700  1
  O  O4  1  0.86778100  0.25000000  0.43183600  1
  O  O5  1  0.61362700  0.47340600  0.11388300  1
  O  O6  1  0.63221900  0.75000000  0.93183600  1
  O  O7  1  0.88637300  0.97340600  0.61388300  1
  O  O8  1  0.11362700  0.02659400  0.38611700  1
  O  O9  1  0.36778100  0.25000000  0.06816400  1
  O  O10  1  0.13221900  0.75000000  0.56816400  1
  O  O11  1  0.61362700  0.02659400  0.11388300  1
  O  O12  1  0.11362700  0.47340600  0.38611700  1
  O  O13  1  0.64234700  0.25000000  0.93794200  1
  O  O14  1  0.14234700  0.25000000  0.56205800  1
  O  O15  1  0.88637300  0.52659400  0.61388300  1
loop_
_geom_bond_atom_site_label_1
_geom_bond_atom_site_label_2
_geom_bond_distance
_geom_bond_site_symmetry_2
Nb0 O11 1.924821 1_555
Nb0 O5 1.924821 1_555
Nb0 O13 1.959065 1_554
Nb0 O9 2.135293 1_555
Nb0 Se7 2.777047 1_555
Nb0 Se9 3.153553 1_655
Nb0 Se10 3.153553 1_655
Nb1 O3 1.924821 1_555
Nb1 O1 1.924821 1_555
Nb1 O0 1.959065 1_556
Nb1 O6 2.135293 1_555
Nb1 Se1 2.777047 1_555
Nb1 Se10 3.153553 1_566
Nb1 Se9 3.153553 1_556
Nb2 O15 1.924821 1_555
Nb2 O7 1.924821 1_555
Nb2 O2 1.959065 1_555
Nb2 O10 2.135293 1_655
Nb2 Se5 2.777047 1_555
Nb2 Se11 3.153553 1_555
Nb2 Se6 3.153553 1_565
Nb3 O8 1.924821 1_555
Nb3 O12 1.924821 1_555
Nb3 O14 1.959065 1_555
Nb3 O4 2.135293 1_455
Nb3 Se3 2.777047 1_555
Nb3 Se11 3.153553 1_555
Nb3 Se6 3.153553 1_555
Se0 Sm1 2.958047 1_655
Se0 Sm0 3.027163 1_555
Se0 Sm7 3.027163 1_545
Se0 Sm4 3.069724 1_645
Se0 Sm6 3.069724 1_655
Se0 Sm9 3.202782 1_555
Se1 Sm4 3.091550 1_555
Se1 Sm6 3.091550 1_555
Se1 Sm7 3.106193 1_455
Se1 Sm0 3.106193 1_455
Se2 Sm10 2.958047 1_455
Se2 Sm2 3.027163 1_555
Se2 Sm8 3.027163 1_565
Se2 Sm3 3.069724 1_455
Se2 Sm5 3.069724 1_465
Se2 Sm11 3.202782 1_555
Se3 Sm8 3.091550 1_555
Se3 Sm2 3.091550 1_555
Se3 Sm5 3.106193 1_555
Se3 Sm3 3.106193 1_555
Se4 Sm9 2.958047 1_555
Se4 Sm4 3.027163 1_545
Se4 Sm6 3.027163 1_555
Se4 Sm7 3.069724 1_545
Se4 Sm0 3.069724 1_555
Se4 Sm1 3.202782 1_555
Se5 Sm7 3.091550 1_555
Se5 Sm0 3.091550 1_555
Se5 Sm4 3.106193 1_555
Se5 Sm6 3.106193 1_555
Se6 Sm11 3.035251 1_545
Se6 Sm9 3.035251 1_555
Se6 Sm4 3.042262 1_545
Se6 Sm5 3.042262 1_555
Se7 Sm5 3.091550 1_555
Se7 Sm3 3.091550 1_555
Se7 Sm2 3.106193 1_655
Se7 Sm8 3.106193 1_655
Se8 Sm11 2.958047 1_555
Se8 Sm3 3.027163 1_555
Se8 Sm5 3.027163 1_565
Se8 Sm2 3.069724 1_555
Se8 Sm8 3.069724 1_565
Se8 Sm10 3.202782 1_555
Se9 Sm1 3.035251 1_554
Se9 Sm10 3.035251 1_455
Se9 Sm2 3.042262 1_555
Se9 Sm0 3.042262 1_454
Se10 Sm1 3.035251 1_554
Se10 Sm10 3.035251 1_445
Se10 Sm8 3.042262 1_555
Se10 Sm7 3.042262 1_444
Se11 Sm11 3.035251 1_555
Se11 Sm9 3.035251 1_555
Se11 Sm6 3.042262 1_555
Se11 Sm3 3.042262 1_555
O0 Sm2 2.477351 1_555
O0 Sm8 2.477351 1_565
O0 Sm10 2.513717 1_555
O1 Sm1 2.324562 1_555
O1 Sm0 2.354343 1_555
O2 Sm3 2.477351 1_555
O2 Sm5 2.477351 1_565
O2 Sm11 2.513717 1_655
O3 Sm1 2.324562 1_565
O3 Sm7 2.354343 1_555
O4 Sm9 2.331229 1_555
O4 Sm3 2.358762 1_555
O4 Sm5 2.358762 1_555
O5 Sm10 2.324562 1_555
O5 Sm2 2.354343 1_555
O6 Sm10 2.331229 1_556
O6 Sm7 2.358762 1_555
O6 Sm0 2.358762 1_555
O7 Sm9 2.324562 1_565
O7 Sm4 2.354343 1_655
O8 Sm11 2.324562 1_545
O8 Sm5 2.354343 1_455
O9 Sm1 2.331229 1_554
O9 Sm8 2.358762 1_555
O9 Sm2 2.358762 1_555
O10 Sm11 2.331229 1_555
O10 Sm4 2.358762 1_555
O10 Sm6 2.358762 1_555
O11 Sm10 2.324562 1_545
O11 Sm8 2.354343 1_555
O12 Sm11 2.324562 1_555
O12 Sm3 2.354343 1_455
O13 Sm7 2.477351 1_545
O13 Sm0 2.477351 1_555
O13 Sm1 2.513717 1_555
O14 Sm4 2.477351 1_545
O14 Sm6 2.477351 1_555
O14 Sm9 2.513717 1_455
O15 Sm9 2.324562 1_555
O15 Sm6 2.354343 1_655
