# generated using pymatgen
data_Pr5C2Cl9
_symmetry_space_group_name_H-M   'P 1'
_cell_length_a   8.57072847
_cell_length_b   8.64975321
_cell_length_c   12.03369100
_cell_angle_alpha   84.46029212
_cell_angle_beta   85.12596925
_cell_angle_gamma   61.21972211
_symmetry_Int_Tables_number   1
_chemical_formula_structural   Pr5C2Cl9
_chemical_formula_sum   'Pr10 C4 Cl18'
_cell_volume   777.50357531
_cell_formula_units_Z   2
loop_
 _symmetry_equiv_pos_site_id
 _symmetry_equiv_pos_as_xyz
  1  'x, y, z'
loop_
 _atom_site_type_symbol
 _atom_site_label
 _atom_site_symmetry_multiplicity
 _atom_site_fract_x
 _atom_site_fract_y
 _atom_site_fract_z
 _atom_site_occupancy
  Pr  Pr0  1  0.13211345  0.26986523  0.26976755  1
  Pr  Pr1  1  0.77258128  0.07155314  0.25718606  1
  Pr  Pr2  1  0.79561389  0.31490470  0.50410797  1
  Pr  Pr3  1  0.20438611  0.68509530  0.49589203  1
  Pr  Pr4  1  0.60562086  0.59796094  0.21927330  1
  Pr  Pr5  1  0.39437914  0.40203906  0.78072670  1
  Pr  Pr6  1  0.22741872  0.92844686  0.74281394  1
  Pr  Pr7  1  0.89762049  0.29710888  0.99704662  1
  Pr  Pr8  1  0.10237951  0.70289112  0.00295338  1
  Pr  Pr9  1  0.86788655  0.73013477  0.73023245  1
  C  C0  1  0.85844973  0.30132270  0.19018981  1
  C  C1  1  0.82895179  0.31073757  0.30985613  1
  C  C2  1  0.17104821  0.68926243  0.69014387  1
  C  C3  1  0.14155027  0.69867730  0.80981019  1
  Cl  Cl0  1  0.16259559  0.86776317  0.25923173  1
  Cl  Cl1  1  0.39857579  0.40788136  0.27660782  1
  Cl  Cl2  1  0.78296265  0.66991500  0.96750419  1
  Cl  Cl3  1  0.91940416  0.65969224  0.22898553  1
  Cl  Cl4  1  0.60142421  0.59211864  0.72339218  1
  Cl  Cl5  1  0.21703735  0.33008500  0.03249581  1
  Cl  Cl6  1  0.21930422  0.96004712  0.97759295  1
  Cl  Cl7  1  0.51109728  0.01599856  0.76887062  1
  Cl  Cl8  1  0.48890272  0.98400144  0.23112938  1
  Cl  Cl9  1  0.83740441  0.13223683  0.74076827  1
  Cl  Cl10  1  0.17682852  0.05231667  0.50553617  1
  Cl  Cl11  1  0.78069578  0.03995288  0.02240705  1
  Cl  Cl12  1  0.54257235  0.67367125  0.44828626  1
  Cl  Cl13  1  0.08059584  0.34030776  0.77101447  1
  Cl  Cl14  1  0.50000000  0.50000000  -0.00000000  1
  Cl  Cl15  1  0.82317148  0.94768333  0.49446383  1
  Cl  Cl16  1  -0.00000000  0.50000000  0.50000000  1
  Cl  Cl17  1  0.45742765  0.32632875  0.55171374  1
loop_
_geom_bond_atom_site_label_1
_geom_bond_atom_site_label_2
_geom_bond_distance
_geom_bond_site_symmetry_2
C0 C1 1.444015 1_555
C0 Pr7 2.321215 1_554
C0 Pr4 2.468277 1_555
C0 Pr1 2.477861 1_555
C0 Pr0 2.491838 1_655
C1 Pr2 2.332383 1_555
C1 Pr0 2.458529 1_655
C1 Pr1 2.486587 1_555
C1 Pr4 2.505390 1_555
C2 C3 1.444015 1_555
C2 Pr3 2.332383 1_555
C2 Pr9 2.458529 1_455
C2 Pr6 2.486587 1_555
C2 Pr5 2.505390 1_555
C3 Pr8 2.321215 1_556
C3 Pr5 2.468277 1_555
C3 Pr6 2.477861 1_555
C3 Pr9 2.491838 1_455
Cl0 Pr1 2.934861 1_465
Cl0 Pr3 3.081385 1_555
Cl0 Pr0 3.374307 1_565
Cl0 Pr4 3.386579 1_555
Cl0 Pr8 3.693146 1_555
Cl1 Pr4 2.951347 1_555
Cl1 Pr0 3.053481 1_555
Cl1 Pr1 3.133311 1_555
Cl1 Pr3 3.480725 1_555
Cl2 Pr7 2.877037 1_555
Cl2 Pr9 2.945904 1_555
Cl2 Pr8 2.954966 1_656
Cl2 Pr4 3.411900 1_556
Cl3 Pr0 2.974482 1_655
Cl3 Pr4 2.996595 1_555
Cl3 Pr8 3.104922 1_655
Cl3 Pr1 3.199098 1_565
Cl4 Pr5 2.951347 1_555
Cl4 Pr9 3.053481 1_555
Cl4 Pr6 3.133311 1_555
Cl4 Pr2 3.480725 1_555
Cl5 Pr8 2.877037 1_555
Cl5 Pr0 2.945904 1_555
Cl5 Pr7 2.954966 1_454
Cl5 Pr5 3.411900 1_554
Cl6 Pr8 2.829916 1_556
Cl6 Pr6 2.856402 1_555
Cl6 Pr7 2.904894 1_465
Cl7 Pr9 2.894967 1_545
Cl7 Pr6 2.920880 1_545
Cl7 Pr5 3.003717 1_555
Cl8 Pr0 2.894967 1_565
Cl8 Pr1 2.920880 1_565
Cl8 Pr4 3.003717 1_555
Cl9 Pr6 2.934861 1_645
Cl9 Pr2 3.081385 1_555
Cl9 Pr9 3.374307 1_545
Cl9 Pr5 3.386579 1_555
Cl9 Pr7 3.693146 1_555
Cl10 Pr6 2.943003 1_545
Cl10 Pr2 2.947982 1_455
Cl10 Pr3 3.082650 1_545
Cl10 Pr0 3.193263 1_555
Cl11 Pr7 2.829916 1_554
Cl11 Pr1 2.856402 1_555
Cl11 Pr8 2.904894 1_645
Cl12 Pr4 2.840832 1_555
Cl12 Pr2 2.854719 1_555
Cl12 Pr3 2.862208 1_555
Cl13 Pr9 2.974482 1_455
Cl13 Pr5 2.996595 1_555
Cl13 Pr7 3.104922 1_455
Cl13 Pr6 3.199098 1_545
Cl14 Pr7 2.987894 1_554
Cl14 Pr8 2.987894 1_555
Cl14 Pr4 3.174303 1_555
Cl14 Pr5 3.174303 1_554
Cl15 Pr1 2.943003 1_565
Cl15 Pr3 2.947982 1_655
Cl15 Pr2 3.082650 1_565
Cl15 Pr9 3.193263 1_555
Cl16 Pr2 2.881817 1_455
Cl16 Pr3 2.881817 1_555
Cl16 Pr0 3.358856 1_555
Cl16 Pr9 3.358856 1_455
Cl17 Pr5 2.840832 1_555
Cl17 Pr3 2.854719 1_555
Cl17 Pr2 2.862208 1_555
