# generated using pymatgen
data_NaLi2BO3
_symmetry_space_group_name_H-M   'P 1'
_cell_length_a   12.18007600
_cell_length_b   4.97813500
_cell_length_c   9.69395096
_cell_angle_alpha   74.25139653
_cell_angle_beta   90.00000000
_cell_angle_gamma   90.00000000
_symmetry_Int_Tables_number   1
_chemical_formula_structural   NaLi2BO3
_chemical_formula_sum   'Na8 Li16 B8 O24'
_cell_volume   565.71932119
_cell_formula_units_Z   8
loop_
 _symmetry_equiv_pos_site_id
 _symmetry_equiv_pos_as_xyz
  1  'x, y, z'
loop_
 _atom_site_type_symbol
 _atom_site_label
 _atom_site_symmetry_multiplicity
 _atom_site_fract_x
 _atom_site_fract_y
 _atom_site_fract_z
 _atom_site_occupancy
  Na  Na0  1  0.88516700  0.65472300  0.60335200  1
  Na  Na1  1  0.19798700  0.97360100  0.82407800  1
  Na  Na2  1  0.69798700  0.02639900  0.67592200  1
  Na  Na3  1  0.61483300  0.65472300  0.10335200  1
  Na  Na4  1  0.80201300  0.02639900  0.17592200  1
  Na  Na5  1  0.38516700  0.34527700  0.89664800  1
  Na  Na6  1  0.11483300  0.34527700  0.39664800  1
  Na  Na7  1  0.30201300  0.97360100  0.32407800  1
  Li  Li0  1  0.00381100  0.24058800  0.02069900  1
  Li  Li1  1  0.34703900  0.77178000  0.64439900  1
  Li  Li2  1  0.64878200  0.18757300  0.94054400  1
  Li  Li3  1  0.14878200  0.81242700  0.55945600  1
  Li  Li4  1  0.10233500  0.47721100  0.79780100  1
  Li  Li5  1  0.60233500  0.52278900  0.70219900  1
  Li  Li6  1  0.49618900  0.24058800  0.52069900  1
  Li  Li7  1  0.99618900  0.75941200  0.97930100  1
  Li  Li8  1  0.84703900  0.22822000  0.85560100  1
  Li  Li9  1  0.89766500  0.52278900  0.20219900  1
  Li  Li10  1  0.15296100  0.77178000  0.14439900  1
  Li  Li11  1  0.85121800  0.18757300  0.44054400  1
  Li  Li12  1  0.39766500  0.47721100  0.29780100  1
  Li  Li13  1  0.65296100  0.22822000  0.35560100  1
  Li  Li14  1  0.50381100  0.75941200  0.47930100  1
  Li  Li15  1  0.35121800  0.81242700  0.05945600  1
  B  B0  1  0.78852100  0.64053500  0.92366700  1
  B  B1  1  0.28852100  0.35946500  0.57633300  1
  B  B2  1  0.71147900  0.64053500  0.42366700  1
  B  B3  1  0.52183500  0.04744100  0.21929500  1
  B  B4  1  0.97816500  0.04744100  0.71929500  1
  B  B5  1  0.02183500  0.95255900  0.28070500  1
  B  B6  1  0.21147900  0.35946500  0.07633300  1
  B  B7  1  0.47816500  0.95255900  0.78070500  1
  O  O0  1  0.49251200  0.13795400  0.34001200  1
  O  O1  1  0.38814200  0.82846400  0.86126200  1
  O  O2  1  0.76610400  0.53487300  0.32220100  1
  O  O3  1  0.24082100  0.10642300  0.05286300  1
  O  O4  1  0.12672500  0.52112400  0.99695700  1
  O  O5  1  0.99251200  0.86204600  0.15998800  1
  O  O6  1  0.53551000  0.17260700  0.80755800  1
  O  O7  1  0.50748800  0.86204600  0.65998800  1
  O  O8  1  0.73389600  0.53487300  0.82220100  1
  O  O9  1  0.96449000  0.17260700  0.30755800  1
  O  O10  1  0.26610400  0.46512700  0.17779900  1
  O  O11  1  0.87327500  0.47887600  0.00304300  1
  O  O12  1  0.37327500  0.52112400  0.49695700  1
  O  O13  1  0.74082100  0.89357700  0.44713700  1
  O  O14  1  0.23389600  0.46512700  0.67779900  1
  O  O15  1  0.11185800  0.82846400  0.36126200  1
  O  O16  1  0.00748800  0.13795400  0.84001200  1
  O  O17  1  0.25917900  0.10642300  0.55286300  1
  O  O18  1  0.62672500  0.47887600  0.50304300  1
  O  O19  1  0.88814200  0.17153600  0.63873800  1
  O  O20  1  0.03551000  0.82739300  0.69244200  1
  O  O21  1  0.61185800  0.17153600  0.13873800  1
  O  O22  1  0.75917900  0.89357700  0.94713700  1
  O  O23  1  0.46449000  0.82739300  0.19244200  1
loop_
_geom_bond_atom_site_label_1
_geom_bond_atom_site_label_2
_geom_bond_distance
_geom_bond_site_symmetry_2
Na0 O20 2.289315 1_655
Na0 O19 2.335998 1_555
Na0 O13 2.412612 1_555
Na0 O19 2.686480 1_565
Na0 O8 2.750356 1_555
Na1 O1 2.423821 1_555
Na1 O16 2.479036 1_565
Na1 O14 2.511141 1_565
Na1 O3 2.534599 1_566
Na1 O20 2.564890 1_555
Na1 O4 2.566424 1_555
Na1 O17 2.638454 1_565
Na2 O19 2.423821 1_555
Na2 O7 2.479036 1_545
Na2 O8 2.511141 1_545
Na2 O13 2.534599 1_545
Na2 O6 2.564890 1_555
Na2 O18 2.566424 1_555
Na2 O22 2.638454 1_545
Na3 O23 2.289315 1_555
Na3 O21 2.335998 1_555
Na3 O22 2.412612 1_554
Na3 O21 2.686480 1_565
Na3 O2 2.750356 1_555
Na4 O21 2.423821 1_555
Na4 O5 2.479036 1_545
Na4 O2 2.511141 1_545
Na4 O22 2.534599 1_544
Na4 O9 2.564890 1_555
Na4 O11 2.566424 1_555
Na4 O13 2.638454 1_545
Na5 O6 2.289315 1_555
Na5 O1 2.335998 1_555
Na5 O3 2.412612 1_556
Na5 O1 2.686480 1_545
Na5 O14 2.750356 1_555
Na6 O9 2.289315 1_455
Na6 O15 2.335998 1_555
Na6 O17 2.412612 1_555
Na6 O15 2.686480 1_545
Na6 O10 2.750356 1_555
Na7 O15 2.423821 1_555
Na7 O0 2.479036 1_565
Na7 O10 2.511141 1_565
Na7 O17 2.534599 1_565
Na7 O23 2.564890 1_555
Na7 O12 2.566424 1_555
Na7 O3 2.638454 1_565
Li0 O16 1.953675 1_554
Li0 O11 1.963193 1_455
Li0 O5 2.002999 1_445
Li0 O4 2.017461 1_554
Li1 O17 1.976201 1_565
Li1 O14 2.016444 1_555
Li1 O7 2.020107 1_555
Li1 O12 2.161050 1_555
Li1 O1 2.252060 1_555
Li2 O6 1.903441 1_555
Li2 O21 1.953638 1_556
Li2 O22 1.975692 1_545
Li2 O8 2.074435 1_555
Li3 O20 1.903441 1_555
Li3 O15 1.953638 1_555
Li3 O17 1.975692 1_565
Li3 O14 2.074435 1_555
Li4 O20 1.943726 1_555
Li4 O14 1.990632 1_555
Li4 O16 1.994784 1_555
Li4 O4 2.022965 1_555
Li5 O6 1.943726 1_555
Li5 O8 1.990632 1_555
Li5 O7 1.994784 1_555
Li5 O18 2.022965 1_555
Li6 O0 1.953675 1_555
Li6 O18 1.963193 1_555
Li6 O7 2.002999 1_545
Li6 O12 2.017461 1_555
Li7 O5 1.953675 1_556
Li7 O4 1.963193 1_655
Li7 O16 2.002999 1_665
Li7 O11 2.017461 1_556
Li8 O22 1.976201 1_545
Li8 O8 2.016444 1_555
Li8 O16 2.020107 1_655
Li8 O11 2.161050 1_556
Li8 O19 2.252060 1_555
Li9 O9 1.943726 1_555
Li9 O2 1.990632 1_555
Li9 O5 1.994784 1_555
Li9 O11 2.022965 1_555
Li10 O3 1.976201 1_565
Li10 O10 2.016444 1_555
Li10 O5 2.020107 1_455
Li10 O4 2.161050 1_554
Li10 O15 2.252060 1_555
Li11 O9 1.903441 1_555
Li11 O19 1.953638 1_555
Li11 O13 1.975692 1_545
Li11 O2 2.074435 1_555
Li12 O23 1.943726 1_555
Li12 O10 1.990632 1_555
Li12 O0 1.994784 1_555
Li12 O12 2.022965 1_555
Li13 O13 1.976201 1_545
Li13 O2 2.016444 1_555
Li13 O0 2.020107 1_555
Li13 O18 2.161050 1_555
Li13 O21 2.252060 1_555
Li14 O7 1.953675 1_555
Li14 O12 1.963193 1_555
Li14 O0 2.002999 1_565
Li14 O18 2.017461 1_555
Li15 O23 1.903441 1_555
Li15 O1 1.953638 1_554
Li15 O3 1.975692 1_565
Li15 O10 2.074435 1_555
B0 O22 1.386309 1_555
B0 O8 1.402740 1_555
B0 O11 1.403296 1_556
B1 O17 1.386309 1_555
B1 O14 1.402740 1_555
B1 O12 1.403296 1_555
B2 O13 1.386309 1_555
B2 O2 1.402740 1_555
B2 O18 1.403296 1_555
B3 O23 1.382162 1_545
B3 O21 1.389917 1_555
B3 O0 1.409341 1_555
B4 O20 1.382162 1_645
B4 O19 1.389917 1_555
B4 O16 1.409341 1_655
B5 O9 1.382162 1_465
B5 O15 1.389917 1_555
B5 O5 1.409341 1_455
B6 O3 1.386309 1_555
B6 O10 1.402740 1_555
B6 O4 1.403296 1_554
B7 O6 1.382162 1_565
B7 O1 1.389917 1_555
B7 O7 1.409341 1_555
