# generated using pymatgen
data_U7(Pd3S4)8
_symmetry_space_group_name_H-M   'P 1'
_cell_length_a   11.58880035
_cell_length_b   11.58880035
_cell_length_c   11.58880035
_cell_angle_alpha   109.47122063
_cell_angle_beta   109.47122063
_cell_angle_gamma   109.47122063
_symmetry_Int_Tables_number   1
_chemical_formula_structural   U7(Pd3S4)8
_chemical_formula_sum   'U7 Pd24 S32'
_cell_volume   1198.10133434
_cell_formula_units_Z   1
loop_
 _symmetry_equiv_pos_site_id
 _symmetry_equiv_pos_as_xyz
  1  'x, y, z'
loop_
 _atom_site_type_symbol
 _atom_site_label
 _atom_site_symmetry_multiplicity
 _atom_site_fract_x
 _atom_site_fract_y
 _atom_site_fract_z
 _atom_site_occupancy
  U  U0  1  0.00000000  0.50000000  0.50000000  1
  U  U1  1  0.50000000  0.00000000  0.50000000  1
  U  U2  1  0.00000000  0.00000000  0.50000000  1
  U  U3  1  0.50000000  0.50000000  0.50000000  1
  U  U4  1  0.50000000  0.50000000  0.00000000  1
  U  U5  1  0.50000000  0.00000000  0.00000000  1
  U  U6  1  0.00000000  0.50000000  0.00000000  1
  Pd  Pd0  1  0.62271800  0.75103400  0.87168400  1
  Pd  Pd1  1  0.12065000  0.24896600  0.87168400  1
  Pd  Pd2  1  0.24954100  0.62377000  0.87331200  1
  Pd  Pd3  1  0.75103400  0.12831600  0.87935000  1
  Pd  Pd4  1  0.37422900  0.75045900  0.62377000  1
  Pd  Pd5  1  0.87331200  0.24954100  0.62377000  1
  Pd  Pd6  1  0.12831600  0.87935000  0.75103400  1
  Pd  Pd7  1  0.37623000  0.12668800  0.75045900  1
  Pd  Pd8  1  0.87168400  0.62271800  0.75103400  1
  Pd  Pd9  1  0.62377000  0.37422900  0.75045900  1
  Pd  Pd10  1  0.12668800  0.75045900  0.37623000  1
  Pd  Pd11  1  0.62577100  0.24954100  0.37623000  1
  Pd  Pd12  1  0.24896600  0.12831600  0.37728200  1
  Pd  Pd13  1  0.75045900  0.62377000  0.37422900  1
  Pd  Pd14  1  0.75103400  0.87168400  0.62271800  1
  Pd  Pd15  1  0.24954100  0.37623000  0.62577100  1
  Pd  Pd16  1  0.87935000  0.75103400  0.12831600  1
  Pd  Pd17  1  0.37728200  0.24896600  0.12831600  1
  Pd  Pd18  1  0.62377000  0.87331200  0.24954100  1
  Pd  Pd19  1  0.37623000  0.62577100  0.24954100  1
  Pd  Pd20  1  0.12831600  0.37728200  0.24896600  1
  Pd  Pd21  1  0.87168400  0.12065000  0.24896600  1
  Pd  Pd22  1  0.24896600  0.87168400  0.12065000  1
  Pd  Pd23  1  0.75045900  0.37623000  0.12668800  1
  S  S0  1  0.49999000  0.74968500  0.99912500  1
  S  S1  1  0.00000000  0.26185000  0.00000000  1
  S  S2  1  0.50086500  0.00087500  0.75056000  1
  S  S3  1  0.99912500  0.49999000  0.74968500  1
  S  S4  1  0.26185000  0.00000000  0.00000000  1
  S  S5  1  0.75056000  0.50086500  0.00087500  1
  S  S6  1  0.00000000  0.73815000  0.00000000  1
  S  S7  1  0.24969500  0.75056000  0.74968500  1
  S  S8  1  0.74968500  0.24969500  0.75056000  1
  S  S9  1  0.50001000  0.25031500  0.00087500  1
  S  S10  1  0.00087500  0.75056000  0.50086500  1
  S  S11  1  0.73815000  0.73815000  0.73815000  1
  S  S12  1  0.25031500  0.00087500  0.50001000  1
  S  S13  1  0.00000000  0.00000000  0.73815000  1
  S  S14  1  0.75030500  0.49999000  0.50086500  1
  S  S15  1  0.49913500  0.24969500  0.50001000  1
  S  S16  1  0.49999000  0.50086500  0.75030500  1
  S  S17  1  0.24944000  0.25031500  0.75030500  1
  S  S18  1  0.00000000  0.00000000  0.26185000  1
  S  S19  1  0.74968500  0.99912500  0.49999000  1
  S  S20  1  0.50001000  0.49913500  0.24969500  1
  S  S21  1  0.24969500  0.50001000  0.49913500  1
  S  S22  1  0.75056000  0.74968500  0.24969500  1
  S  S23  1  0.50086500  0.75030500  0.49999000  1
  S  S24  1  0.26185000  0.26185000  0.26185000  1
  S  S25  1  0.99912500  0.24944000  0.49913500  1
  S  S26  1  0.25031500  0.75030500  0.24944000  1
  S  S27  1  0.75030500  0.24944000  0.25031500  1
  S  S28  1  0.73815000  0.00000000  0.00000000  1
  S  S29  1  0.49913500  0.99912500  0.24944000  1
  S  S30  1  0.24944000  0.49913500  0.99912500  1
  S  S31  1  0.00087500  0.50001000  0.25031500  1
loop_
_geom_bond_atom_site_label_1
_geom_bond_atom_site_label_2
_geom_bond_distance
_geom_bond_site_symmetry_2
Pd0 S28 2.359181 1_566
Pd0 S11 2.359181 1_555
Pd0 S16 2.367535 1_555
Pd0 S0 2.367535 1_555
Pd1 S1 2.359181 1_556
Pd1 S13 2.359181 1_555
Pd1 S30 2.367535 1_555
Pd1 S17 2.367535 1_555
Pd2 S3 2.369576 1_455
Pd2 S7 2.369586 1_555
Pd2 S30 2.369809 1_555
Pd2 S0 2.369818 1_555
Pd3 S1 2.359181 1_656
Pd3 S28 2.359181 1_556
Pd3 S2 2.367535 1_555
Pd3 S8 2.367535 1_555
Pd4 S2 2.369576 1_565
Pd4 S23 2.369576 1_555
Pd4 S7 2.369818 1_555
Pd4 S21 2.369818 1_555
Pd5 S19 2.369576 1_545
Pd5 S8 2.369586 1_555
Pd5 S25 2.369809 1_555
Pd5 S3 2.369818 1_555
Pd6 S13 2.359181 1_565
Pd6 S4 2.359181 1_566
Pd6 S7 2.367535 1_555
Pd6 S10 2.367535 1_555
Pd7 S9 2.369576 1_556
Pd7 S17 2.369586 1_555
Pd7 S2 2.369809 1_555
Pd7 S12 2.369818 1_555
Pd8 S6 2.359181 1_656
Pd8 S11 2.359181 1_555
Pd8 S14 2.367535 1_555
Pd8 S3 2.367535 1_555
Pd9 S5 2.369576 1_556
Pd9 S16 2.369576 1_555
Pd9 S8 2.369818 1_555
Pd9 S15 2.369818 1_555
Pd10 S12 2.369576 1_565
Pd10 S26 2.369586 1_555
Pd10 S10 2.369809 1_555
Pd10 S31 2.369818 1_555
Pd11 S15 2.369576 1_555
Pd11 S29 2.369576 1_545
Pd11 S14 2.369818 1_555
Pd11 S27 2.369818 1_555
Pd12 S24 2.359181 1_555
Pd12 S18 2.359181 1_555
Pd12 S15 2.367535 1_555
Pd12 S12 2.367535 1_555
Pd13 S10 2.369576 1_655
Pd13 S14 2.369576 1_555
Pd13 S20 2.369818 1_555
Pd13 S22 2.369818 1_555
Pd14 S13 2.359181 1_665
Pd14 S11 2.359181 1_555
Pd14 S23 2.367535 1_555
Pd14 S19 2.367535 1_555
Pd15 S21 2.369576 1_555
Pd15 S25 2.369576 1_455
Pd15 S16 2.369818 1_555
Pd15 S17 2.369818 1_555
Pd16 S6 2.359181 1_655
Pd16 S18 2.359181 1_665
Pd16 S5 2.367535 1_555
Pd16 S22 2.367535 1_555
Pd17 S24 2.359181 1_555
Pd17 S4 2.359181 1_555
Pd17 S9 2.367535 1_555
Pd17 S20 2.367535 1_555
Pd18 S0 2.369576 1_554
Pd18 S22 2.369586 1_555
Pd18 S29 2.369809 1_555
Pd18 S19 2.369818 1_555
Pd19 S20 2.369576 1_555
Pd19 S30 2.369576 1_554
Pd19 S23 2.369818 1_555
Pd19 S26 2.369818 1_555
Pd20 S24 2.359181 1_555
Pd20 S1 2.359181 1_555
Pd20 S31 2.367535 1_555
Pd20 S21 2.367535 1_555
Pd21 S18 2.359181 1_655
Pd21 S28 2.359181 1_555
Pd21 S25 2.367535 1_555
Pd21 S27 2.367535 1_555
Pd22 S4 2.359181 1_565
Pd22 S6 2.359181 1_555
Pd22 S29 2.367535 1_555
Pd22 S26 2.367535 1_555
Pd23 S31 2.369576 1_655
Pd23 S27 2.369586 1_555
Pd23 S5 2.369809 1_555
Pd23 S9 2.369818 1_555
S0 U4 2.896984 1_556
S0 U5 2.897447 1_566
S1 U6 2.759873 1_555
S2 U1 2.896984 1_555
S2 U5 2.897447 1_556
S3 U0 2.896984 1_655
S3 U6 2.897447 1_656
S4 U5 2.759873 1_555
S5 U4 2.896984 1_555
S5 U6 2.897447 1_655
S6 U6 2.759873 1_555
S7 U0 2.896984 1_555
S7 U5 2.897447 1_566
S8 U1 2.896984 1_555
S8 U6 2.897447 1_656
S9 U4 2.896984 1_555
S9 U5 2.897447 1_555
S10 U0 2.896984 1_555
S10 U2 2.897447 1_565
S11 U3 2.759873 1_555
S12 U1 2.896984 1_555
S12 U2 2.897447 1_555
S13 U2 2.759873 1_555
S14 U0 2.896984 1_655
S14 U3 2.897447 1_555
S15 U1 2.896984 1_555
S15 U3 2.897447 1_555
S16 U4 2.896984 1_556
S16 U3 2.897447 1_555
S17 U4 2.896984 1_556
S17 U2 2.897447 1_555
S18 U2 2.759873 1_555
S19 U1 2.896984 1_565
S19 U2 2.897447 1_665
S20 U4 2.896984 1_555
S20 U3 2.897447 1_555
S21 U0 2.896984 1_555
S21 U3 2.897447 1_555
S22 U4 2.896984 1_555
S22 U2 2.897447 1_665
S23 U1 2.896984 1_565
S23 U3 2.897447 1_555
S24 U3 2.759873 1_555
S25 U0 2.896984 1_655
S25 U2 2.897447 1_655
S26 U1 2.896984 1_565
S26 U6 2.897447 1_555
S27 U0 2.896984 1_655
S27 U5 2.897447 1_555
S28 U5 2.759873 1_555
S29 U1 2.896984 1_565
S29 U5 2.897447 1_565
S30 U4 2.896984 1_556
S30 U6 2.897447 1_556
S31 U0 2.896984 1_555
S31 U6 2.897447 1_555
