# generated using pymatgen
data_ZnS
_symmetry_space_group_name_H-M   'P 1'
_cell_length_a   3.80489759
_cell_length_b   3.80489759
_cell_length_c   80.90001676
_cell_angle_alpha   90.00000000
_cell_angle_beta   90.00000000
_cell_angle_gamma   120.00001172
_symmetry_Int_Tables_number   1
_chemical_formula_structural   ZnS
_chemical_formula_sum   'Zn26 S26'
_cell_volume   1014.29699102
_cell_formula_units_Z   26
loop_
 _symmetry_equiv_pos_site_id
 _symmetry_equiv_pos_as_xyz
  1  'x, y, z'
loop_
 _atom_site_type_symbol
 _atom_site_label
 _atom_site_symmetry_multiplicity
 _atom_site_fract_x
 _atom_site_fract_y
 _atom_site_fract_z
 _atom_site_occupancy
  Zn  Zn0  1  -0.00000000  0.00000000  0.69258375  1
  Zn  Zn1  1  0.33333300  0.66666700  0.11541277  1
  Zn  Zn2  1  0.33333300  0.66666700  0.30770608  1
  Zn  Zn3  1  0.33333300  0.66666700  0.92303267  1
  Zn  Zn4  1  -0.00000000  0.00000000  0.96149625  1
  Zn  Zn5  1  0.66666700  0.33333300  0.88453798  1
  Zn  Zn6  1  0.66666700  0.33333300  0.38465245  1
  Zn  Zn7  1  0.66666700  0.33333300  0.26920810  1
  Zn  Zn8  1  -0.00000000  0.00000000  0.46147897  1
  Zn  Zn9  1  0.33333300  0.66666700  0.80742438  1
  Zn  Zn10  1  0.33333300  0.66666700  0.73128839  1
  Zn  Zn11  1  -0.00000000  0.00000000  0.07696079  1
  Zn  Zn12  1  -0.00000000  -0.00000000  0.34618196  1
  Zn  Zn13  1  -0.00000000  0.00000000  0.84591888  1
  Zn  Zn14  1  0.33333300  0.66666700  0.65392658  1
  Zn  Zn15  1  0.33333300  0.66666700  -0.00002617  1
  Zn  Zn16  1  0.66666700  0.33333300  0.61545110  1
  Zn  Zn17  1  0.66666700  0.33333300  0.15385668  1
  Zn  Zn18  1  0.66666700  0.33333300  0.03844753  1
  Zn  Zn19  1  -0.00000000  -0.00000000  0.57695835  1
  Zn  Zn20  1  0.66666700  0.33333300  0.53840513  1
  Zn  Zn21  1  0.33333300  0.66666700  0.23068312  1
  Zn  Zn22  1  0.33333300  0.66666700  0.49996817  1
  Zn  Zn23  1  -0.00000000  0.00000000  0.19226672  1
  Zn  Zn24  1  0.33333300  0.66666700  0.42303875  1
  Zn  Zn25  1  -0.00000000  0.00000000  0.77007139  1
  S  S0  1  0.33333300  0.66666700  0.02883985  1
  S  S1  1  0.33333300  0.66666700  0.76026495  1
  S  S2  1  0.33333300  0.66666700  0.45185049  1
  S  S3  1  0.66666700  0.33333300  0.64430799  1
  S  S4  1  0.66666700  0.33333300  0.79653715  1
  S  S5  1  -0.00000000  -0.00000000  0.22112000  1
  S  S6  1  -0.00000000  0.00000000  0.72151474  1
  S  S7  1  0.66666700  0.33333300  0.06732554  1
  S  S8  1  -0.00000000  0.00000000  0.10580110  1
  S  S9  1  -0.00000000  0.00000000  0.37503054  1
  S  S10  1  0.33333300  0.66666700  0.68283427  1
  S  S11  1  -0.00000000  0.00000000  0.99039034  1
  S  S12  1  0.66666700  0.33333300  0.29811133  1
  S  S13  1  0.33333300  0.66666700  0.14425404  1
  S  S14  1  0.66666700  0.33333300  0.18269988  1
  S  S15  1  -0.00000000  0.00000000  0.87483766  1
  S  S16  1  0.33333300  0.66666700  0.33656088  1
  S  S17  1  0.33333300  0.66666700  0.83624553  1
  S  S18  1  0.66666700  0.33333300  0.41346763  1
  S  S19  1  0.33333300  0.66666700  0.52881373  1
  S  S20  1  0.33333300  0.66666700  0.95184918  1
  S  S21  1  0.66666700  0.33333300  0.56726496  1
  S  S22  1  0.66666700  0.33333300  0.91339826  1
  S  S23  1  -0.00000000  0.00000000  0.49036915  1
  S  S24  1  0.33333300  0.66666700  0.25955363  1
  S  S25  1  -0.00000000  0.00000000  0.60582842  1
loop_
_geom_bond_atom_site_label_1
_geom_bond_atom_site_label_2
_geom_bond_distance
_geom_bond_site_symmetry_2
S0 Zn18 2.330209 1_455
S0 Zn18 2.330209 1_565
S0 Zn18 2.330215 1_555
S0 Zn15 2.335262 1_555
S1 Zn25 2.335622 1_565
S1 Zn25 2.335625 1_665
S1 Zn25 2.335625 1_555
S1 Zn10 2.344204 1_555
S2 Zn8 2.330771 1_565
S2 Zn8 2.330774 1_665
S2 Zn8 2.330774 1_555
S2 Zn24 2.330870 1_555
S3 Zn14 2.330503 1_545
S3 Zn14 2.330503 1_655
S3 Zn14 2.330510 1_555
S3 Zn16 2.334523 1_555
S4 Zn9 2.366750 1_545
S4 Zn9 2.366750 1_655
S4 Zn9 2.366757 1_555
S5 Zn21 2.329009 1_545
S5 Zn21 2.329012 1_445
S5 Zn21 2.329012 1_555
S5 Zn23 2.334231 1_555
S6 Zn10 2.334722 1_545
S6 Zn10 2.334725 1_555
S6 Zn10 2.334725 1_445
S6 Zn0 2.340518 1_555
S7 Zn11 2.330954 1_655
S7 Zn11 2.330957 1_665
S7 Zn11 2.330957 1_555
S7 Zn18 2.336231 1_555
S8 Zn1 2.330317 1_545
S8 Zn1 2.330320 1_445
S8 Zn1 2.330320 1_555
S8 Zn11 2.333182 1_555
S9 Zn6 2.330593 1_455
S9 Zn6 2.330596 1_555
S9 Zn6 2.330596 1_445
S9 Zn12 2.333851 1_555
S10 Zn0 2.334061 1_565
S10 Zn0 2.334063 1_665
S10 Zn0 2.334063 1_555
S10 Zn14 2.338633 1_555
S11 Zn15 2.329557 1_546
S11 Zn15 2.329560 1_446
S11 Zn15 2.329560 1_556
S11 Zn4 2.337532 1_555
S12 Zn2 2.329860 1_545
S12 Zn2 2.329860 1_655
S12 Zn2 2.329867 1_555
S12 Zn7 2.338272 1_555
S13 Zn17 2.330073 1_455
S13 Zn17 2.330073 1_565
S13 Zn17 2.330079 1_555
S13 Zn1 2.333259 1_555
S14 Zn23 2.329109 1_655
S14 Zn23 2.329112 1_555
S14 Zn23 2.329112 1_665
S14 Zn17 2.333415 1_555
S15 Zn5 2.332720 1_455
S15 Zn5 2.332723 1_555
S15 Zn5 2.332723 1_445
S15 Zn13 2.339530 1_555
S16 Zn12 2.330571 1_565
S16 Zn12 2.330574 1_665
S16 Zn12 2.330574 1_555
S16 Zn2 2.334354 1_555
S17 Zn9 2.331632 1_555
S17 Zn13 2.331987 1_565
S17 Zn13 2.331989 1_665
S17 Zn13 2.331989 1_555
S18 Zn24 2.329224 1_545
S18 Zn24 2.329224 1_655
S18 Zn24 2.329231 1_555
S18 Zn6 2.331149 1_555
S19 Zn20 2.329770 1_455
S19 Zn20 2.329770 1_565
S19 Zn20 2.329776 1_555
S19 Zn22 2.333606 1_555
S20 Zn3 2.331256 1_555
S20 Zn4 2.331274 1_565
S20 Zn4 2.331277 1_665
S20 Zn4 2.331277 1_555
S21 Zn19 2.332531 1_655
S21 Zn19 2.332534 1_555
S21 Zn19 2.332534 1_665
S21 Zn20 2.334761 1_555
S22 Zn3 2.330931 1_545
S22 Zn3 2.330931 1_655
S22 Zn3 2.330938 1_555
S22 Zn5 2.334797 1_555
S23 Zn22 2.329976 1_545
S23 Zn22 2.329978 1_445
S23 Zn22 2.329978 1_555
S23 Zn8 2.337216 1_555
S24 Zn7 2.331474 1_455
S24 Zn7 2.331474 1_565
S24 Zn7 2.331481 1_555
S24 Zn21 2.335625 1_555
S25 Zn16 2.330614 1_455
S25 Zn16 2.330617 1_445
S25 Zn16 2.330617 1_555
S25 Zn19 2.335589 1_555
