# generated using pymatgen
data_RbTeF5
_symmetry_space_group_name_H-M   'P 1'
_cell_length_a   6.25169732
_cell_length_b   11.31806509
_cell_length_c   13.74546932
_cell_angle_alpha   90.00000000
_cell_angle_beta   90.00000000
_cell_angle_gamma   90.00000000
_symmetry_Int_Tables_number   1
_chemical_formula_structural   RbTeF5
_chemical_formula_sum   'Rb8 Te8 F40'
_cell_volume   972.58978352
_cell_formula_units_Z   8
loop_
 _symmetry_equiv_pos_site_id
 _symmetry_equiv_pos_as_xyz
  1  'x, y, z'
loop_
 _atom_site_type_symbol
 _atom_site_label
 _atom_site_symmetry_multiplicity
 _atom_site_fract_x
 _atom_site_fract_y
 _atom_site_fract_z
 _atom_site_occupancy
  Rb  Rb0  1  0.75000000  0.50971024  0.09619403  1
  Rb  Rb1  1  0.25000000  0.66098949  0.59700646  1
  Rb  Rb2  1  0.75000000  0.16098949  0.90299354  1
  Rb  Rb3  1  0.75000000  0.99028976  0.59619403  1
  Rb  Rb4  1  0.25000000  0.83901051  0.09700646  1
  Rb  Rb5  1  0.25000000  0.49028976  0.90380597  1
  Rb  Rb6  1  0.75000000  0.33901051  0.40299354  1
  Rb  Rb7  1  0.25000000  0.00971024  0.40380597  1
  Te  Te0  1  0.75000000  0.78358308  0.92044726  1
  Te  Te1  1  0.75000000  0.71641692  0.42044726  1
  Te  Te2  1  0.25000000  0.21641692  0.07955274  1
  Te  Te3  1  0.25000000  0.28358308  0.57955274  1
  Te  Te4  1  0.75000000  0.03664998  0.23948510  1
  Te  Te5  1  0.25000000  0.53664998  0.26051490  1
  Te  Te6  1  0.25000000  0.96335002  0.76051490  1
  Te  Te7  1  0.75000000  0.46335002  0.73948510  1
  F  F0  1  0.75000000  0.01594054  0.37794017  1
  F  F1  1  0.96513797  0.91176119  0.92066959  1
  F  F2  1  0.75000000  0.48405946  0.87794017  1
  F  F3  1  0.52259541  0.58514141  0.75561772  1
  F  F4  1  0.47740459  0.08514141  0.74438228  1
  F  F5  1  0.02083009  0.17883300  0.52625449  1
  F  F6  1  0.75000000  0.67411267  0.55414747  1
  F  F7  1  0.47916991  0.32116700  0.02625449  1
  F  F8  1  0.25000000  0.17411267  0.94585253  1
  F  F9  1  0.02083009  0.32116700  0.02625449  1
  F  F10  1  0.75000000  0.82588733  0.05414747  1
  F  F11  1  0.02259541  0.41485859  0.24438228  1
  F  F12  1  0.52259541  0.91485859  0.25561772  1
  F  F13  1  0.47740459  0.41485859  0.24438228  1
  F  F14  1  0.96513797  0.58823881  0.42066959  1
  F  F15  1  0.03486203  0.41176119  0.57933041  1
  F  F16  1  0.97916991  0.82116700  0.47374551  1
  F  F17  1  0.02259541  0.08514141  0.74438228  1
  F  F18  1  0.53486203  0.58823881  0.42066959  1
  F  F19  1  0.03247591  0.84528236  0.72041232  1
  F  F20  1  0.25000000  0.51594054  0.12205983  1
  F  F21  1  0.25000000  0.98405946  0.62205983  1
  F  F22  1  0.52083009  0.82116700  0.47374551  1
  F  F23  1  0.53486203  0.91176119  0.92066959  1
  F  F24  1  0.96752409  0.15471764  0.27958768  1
  F  F25  1  0.97916991  0.67883300  0.97374551  1
  F  F26  1  0.52083009  0.67883300  0.97374551  1
  F  F27  1  0.97740459  0.58514141  0.75561772  1
  F  F28  1  0.53247591  0.15471764  0.27958768  1
  F  F29  1  0.97740459  0.91485859  0.25561772  1
  F  F30  1  0.46752409  0.84528236  0.72041232  1
  F  F31  1  0.53247591  0.34528236  0.77958768  1
  F  F32  1  0.03247591  0.65471764  0.22041232  1
  F  F33  1  0.03486203  0.08823881  0.07933041  1
  F  F34  1  0.47916991  0.17883300  0.52625449  1
  F  F35  1  0.25000000  0.32588733  0.44585253  1
  F  F36  1  0.46513797  0.41176119  0.57933041  1
  F  F37  1  0.46513797  0.08823881  0.07933041  1
  F  F38  1  0.96752409  0.34528236  0.77958768  1
  F  F39  1  0.46752409  0.65471764  0.22041232  1
loop_
_geom_bond_atom_site_label_1
_geom_bond_atom_site_label_2
_geom_bond_distance
_geom_bond_site_symmetry_2
F0 Te4 1.917509 1_555
F0 Rb3 3.014016 1_545
F0 Rb7 3.146793 1_655
F0 Rb7 3.146793 1_555
F1 Te0 1.978279 1_555
F1 Rb4 3.118405 1_656
F1 Rb2 3.134455 1_565
F2 Te7 1.917509 1_555
F2 Rb0 3.014016 1_556
F2 Rb5 3.146793 1_555
F2 Rb5 3.146793 1_655
F3 Te7 1.992588 1_555
F3 Rb5 2.864569 1_555
F3 Rb1 2.897309 1_555
F4 Te6 1.992588 1_545
F4 Rb3 2.864569 1_545
F4 Rb2 2.897309 1_555
F5 Te3 1.998730 1_555
F5 Rb3 2.888714 1_445
F5 Rb7 2.923943 1_555
F5 Rb6 3.003987 1_455
F6 Te1 1.899120 1_555
F6 Rb1 3.184344 1_655
F6 Rb1 3.184344 1_555
F7 Te2 1.998730 1_555
F7 Rb0 2.888714 1_555
F7 Rb5 2.923943 1_554
F7 Rb2 3.003987 1_554
F8 Te2 1.899120 1_556
F8 Rb2 3.184344 1_555
F8 Rb2 3.184344 1_455
F9 Te2 1.998730 1_555
F9 Rb0 2.888714 1_455
F9 Rb5 2.923943 1_554
F9 Rb2 3.003987 1_454
F10 Te0 1.899120 1_554
F10 Rb4 3.184344 1_555
F10 Rb4 3.184344 1_655
F11 Te5 1.992588 1_555
F11 Rb0 2.864569 1_455
F11 Rb6 2.897309 1_455
F12 Te4 1.992588 1_565
F12 Rb7 2.864569 1_565
F12 Rb4 2.897309 1_555
F13 Te5 1.992588 1_555
F13 Rb0 2.864569 1_555
F13 Rb6 2.897309 1_555
F14 Te1 1.978279 1_555
F14 Rb1 3.118405 1_655
F14 Rb6 3.134455 1_555
F15 Te3 1.978279 1_555
F15 Rb6 3.118405 1_455
F15 Rb1 3.134455 1_555
F16 Te1 1.998730 1_555
F16 Rb7 2.888714 1_665
F16 Rb3 2.923943 1_555
F16 Rb1 3.003987 1_655
F17 Te6 1.992588 1_545
F17 Rb3 2.864569 1_445
F17 Rb2 2.897309 1_455
F18 Te1 1.978279 1_555
F18 Rb1 3.118405 1_555
F18 Rb6 3.134455 1_555
F19 Te6 1.984656 1_555
F19 Rb3 2.954232 1_455
F19 Rb1 3.012868 1_555
F20 Te5 1.917509 1_555
F20 Rb5 3.014016 1_554
F20 Rb0 3.146793 1_455
F20 Rb0 3.146793 1_555
F21 Te6 1.917509 1_555
F21 Rb7 3.014016 1_565
F21 Rb3 3.146793 1_555
F21 Rb3 3.146793 1_455
F22 Te1 1.998730 1_555
F22 Rb7 2.888714 1_565
F22 Rb3 2.923943 1_555
F22 Rb1 3.003987 1_555
F23 Te0 1.978279 1_555
F23 Rb4 3.118405 1_556
F23 Rb2 3.134455 1_565
F24 Te4 1.984656 1_555
F24 Rb7 2.954232 1_655
F24 Rb6 3.012868 1_555
F25 Te0 1.998730 1_555
F25 Rb5 2.888714 1_655
F25 Rb0 2.923943 1_556
F25 Rb4 3.003987 1_656
F26 Te0 1.998730 1_555
F26 Rb5 2.888714 1_555
F26 Rb0 2.923943 1_556
F26 Rb4 3.003987 1_556
F27 Te7 1.992588 1_555
F27 Rb5 2.864569 1_655
F27 Rb1 2.897309 1_655
F28 Te4 1.984656 1_555
F28 Rb7 2.954232 1_555
F28 Rb6 3.012868 1_555
F29 Te4 1.992588 1_565
F29 Rb7 2.864569 1_665
F29 Rb4 2.897309 1_655
F30 Te6 1.984656 1_555
F30 Rb3 2.954232 1_555
F30 Rb1 3.012868 1_555
F31 Te7 1.984656 1_555
F31 Rb5 2.954232 1_555
F31 Rb2 3.012868 1_555
F32 Te5 1.984656 1_555
F32 Rb0 2.954232 1_455
F32 Rb4 3.012868 1_555
F33 Te2 1.978279 1_555
F33 Rb2 3.118405 1_454
F33 Rb4 3.134455 1_545
F34 Te3 1.998730 1_555
F34 Rb3 2.888714 1_545
F34 Rb7 2.923943 1_555
F34 Rb6 3.003987 1_555
F35 Te3 1.899120 1_555
F35 Rb6 3.184344 1_555
F35 Rb6 3.184344 1_455
F36 Te3 1.978279 1_555
F36 Rb6 3.118405 1_555
F36 Rb1 3.134455 1_555
F37 Te2 1.978279 1_555
F37 Rb2 3.118405 1_554
F37 Rb4 3.134455 1_545
F38 Te7 1.984656 1_555
F38 Rb5 2.954232 1_655
F38 Rb2 3.012868 1_555
F39 Te5 1.984656 1_555
F39 Rb0 2.954232 1_555
F39 Rb4 3.012868 1_555
