# generated using pymatgen
data_CdI2
_symmetry_space_group_name_H-M   'P 1'
_cell_length_a   4.28790889
_cell_length_b   4.28791074
_cell_length_c   43.38731147
_cell_angle_alpha   90.00000000
_cell_angle_beta   90.00000000
_cell_angle_gamma   120.00000194
_symmetry_Int_Tables_number   1
_chemical_formula_structural   CdI2
_chemical_formula_sum   'Cd6 I12'
_cell_volume   690.85140970
_cell_formula_units_Z   6
loop_
 _symmetry_equiv_pos_site_id
 _symmetry_equiv_pos_as_xyz
  1  'x, y, z'
loop_
 _atom_site_type_symbol
 _atom_site_label
 _atom_site_symmetry_multiplicity
 _atom_site_fract_x
 _atom_site_fract_y
 _atom_site_fract_z
 _atom_site_occupancy
  Cd  Cd0  1  0.00000000  0.00000000  0.54264200  1
  Cd  Cd1  1  0.66666700  0.33333300  0.04184373  1
  Cd  Cd2  1  -0.00000000  -0.00000000  0.70848755  1
  Cd  Cd3  1  0.66666700  0.33333300  0.37564901  1
  Cd  Cd4  1  -0.00000000  -0.00000000  0.20852852  1
  Cd  Cd5  1  -0.00000000  0.00000000  0.87448770  1
  I  I0  1  0.33333300  0.66666700  0.08151387  1
  I  I1  1  0.33333300  0.66666700  0.41512613  1
  I  I2  1  0.66666700  0.33333300  0.66882327  1
  I  I3  1  0.33333300  0.66666700  0.74807736  1
  I  I4  1  0.33333300  0.66666700  0.91415681  1
  I  I5  1  -0.00000000  -0.00000000  0.33617637  1
  I  I6  1  -0.00000000  -0.00000000  0.00215175  1
  I  I7  1  0.66666700  0.33333300  0.83485788  1
  I  I8  1  0.66666700  0.33333300  0.50303644  1
  I  I9  1  0.33333300  0.66666700  0.58238165  1
  I  I10  1  0.33333300  0.66666700  0.24820140  1
  I  I11  1  0.66666700  0.33333300  0.16885656  1
loop_
_geom_bond_atom_site_label_1
_geom_bond_atom_site_label_2
_geom_bond_distance
_geom_bond_site_symmetry_2
Cd0 I8 3.013559 1_455
Cd0 I8 3.013561 1_555
Cd0 I8 3.013562 1_445
Cd0 I9 3.016880 1_545
Cd0 I9 3.016883 1_445
Cd0 I9 3.016883 1_555
Cd1 I0 3.015157 1_655
Cd1 I0 3.015158 1_545
Cd1 I0 3.015164 1_555
Cd1 I6 3.015698 1_655
Cd1 I6 3.015701 1_555
Cd1 I6 3.015702 1_665
Cd2 I3 3.013169 1_545
Cd2 I3 3.013172 1_445
Cd2 I3 3.013173 1_555
Cd2 I2 3.015012 1_455
Cd2 I2 3.015015 1_555
Cd2 I2 3.015016 1_445
Cd3 I5 3.010274 1_655
Cd3 I5 3.010277 1_555
Cd3 I5 3.010278 1_665
Cd3 I1 3.010384 1_655
Cd3 I1 3.010385 1_545
Cd3 I1 3.010391 1_555
Cd4 I11 3.015203 1_455
Cd4 I11 3.015205 1_555
Cd4 I11 3.015206 1_445
Cd4 I10 3.015225 1_545
Cd4 I10 3.015228 1_445
Cd4 I10 3.015229 1_555
Cd5 I7 3.014159 1_455
Cd5 I7 3.014162 1_555
Cd5 I7 3.014163 1_445
Cd5 I4 3.015132 1_545
Cd5 I4 3.015134 1_445
Cd5 I4 3.015135 1_555
