# generated using pymatgen
data_BaMo(PO4)2
_symmetry_space_group_name_H-M   'P 1'
_cell_length_a   4.97787392
_cell_length_b   4.97787392
_cell_length_c   7.98541635
_cell_angle_alpha   86.27425093
_cell_angle_beta   86.27425093
_cell_angle_gamma   65.14874420
_symmetry_Int_Tables_number   1
_chemical_formula_structural   BaMo(PO4)2
_chemical_formula_sum   'Ba1 Mo1 P2 O8'
_cell_volume   179.01523634
_cell_formula_units_Z   1
loop_
 _symmetry_equiv_pos_site_id
 _symmetry_equiv_pos_as_xyz
  1  'x, y, z'
loop_
 _atom_site_type_symbol
 _atom_site_label
 _atom_site_symmetry_multiplicity
 _atom_site_fract_x
 _atom_site_fract_y
 _atom_site_fract_z
 _atom_site_occupancy
  Ba  Ba0  1  0.00000000  0.00000000  0.00000000  1
  Mo  Mo0  1  0.00000000  0.00000000  0.50000000  1
  P  P0  1  0.36770700  0.36770700  0.28834100  1
  P  P1  1  0.63229300  0.63229300  0.71165900  1
  O  O0  1  0.29047900  0.76667300  0.68932500  1
  O  O1  1  0.68882400  0.68882400  0.88847500  1
  O  O2  1  0.70952100  0.23332700  0.31067500  1
  O  O3  1  0.23402800  0.23402800  0.43463500  1
  O  O4  1  0.76597200  0.76597200  0.56536500  1
  O  O5  1  0.23332700  0.70952100  0.31067500  1
  O  O6  1  0.31117600  0.31117600  0.11152500  1
  O  O7  1  0.76667300  0.29047900  0.68932500  1
loop_
_geom_bond_atom_site_label_1
_geom_bond_atom_site_label_2
_geom_bond_distance
_geom_bond_site_symmetry_2
Ba0 O6 2.822624 1_555
Ba0 O1 2.822624 1_444
Ba0 O5 2.844504 1_545
Ba0 O2 2.844504 1_455
Ba0 O0 2.844504 1_544
Ba0 O7 2.844504 1_454
Ba0 O6 3.204345 1_545
Ba0 O1 3.204345 1_454
Ba0 O1 3.204345 1_544
Ba0 O6 3.204345 1_455
Mo0 O3 1.992330 1_555
Mo0 O4 1.992330 1_445
Mo0 O5 2.090399 1_545
Mo0 O2 2.090399 1_455
Mo0 O7 2.090399 1_455
Mo0 O0 2.090399 1_545
O0 P1 1.562579 1_555
O1 P1 1.523749 1_555
O2 P0 1.562579 1_555
O3 P0 1.555790 1_555
O4 P1 1.555790 1_555
O5 P0 1.562579 1_555
O6 P0 1.523749 1_555
O7 P1 1.562579 1_555
