# generated using pymatgen
data_Li2MnP2O7
_symmetry_space_group_name_H-M   'P 1'
_cell_length_a   9.95108200
_cell_length_b   10.00670400
_cell_length_c   11.32788497
_cell_angle_alpha   77.47943188
_cell_angle_beta   90.00000000
_cell_angle_gamma   90.00000000
_symmetry_Int_Tables_number   1
_chemical_formula_structural   Li2MnP2O7
_chemical_formula_sum   'Li16 Mn8 P16 O56'
_cell_volume   1101.17694329
_cell_formula_units_Z   8
loop_
 _symmetry_equiv_pos_site_id
 _symmetry_equiv_pos_as_xyz
  1  'x, y, z'
loop_
 _atom_site_type_symbol
 _atom_site_label
 _atom_site_symmetry_multiplicity
 _atom_site_fract_x
 _atom_site_fract_y
 _atom_site_fract_z
 _atom_site_occupancy
  Li  Li0  1  0.60786700  0.58503500  0.97153700  1
  Li  Li1  1  0.21916500  0.61125500  0.55232600  1
  Li  Li2  1  0.89213300  0.08503500  0.97153700  1
  Li  Li3  1  0.78083500  0.38874500  0.44767400  1
  Li  Li4  1  0.71916500  0.88874500  0.44767400  1
  Li  Li5  1  0.58095000  0.17450000  0.44937400  1
  Li  Li6  1  0.28083500  0.11125500  0.55232600  1
  Li  Li7  1  0.41905000  0.82550000  0.55062600  1
  Li  Li8  1  0.39213300  0.41496500  0.02846300  1
  Li  Li9  1  0.40923500  0.84577000  0.04314200  1
  Li  Li10  1  0.59076500  0.15423000  0.95685800  1
  Li  Li11  1  0.10786700  0.91496500  0.02846300  1
  Li  Li12  1  0.08095000  0.32550000  0.55062600  1
  Li  Li13  1  0.91905000  0.67450000  0.44937400  1
  Li  Li14  1  0.90923500  0.65423000  0.95685800  1
  Li  Li15  1  0.09076500  0.34577000  0.04314200  1
  Mn  Mn0  1  0.08067700  0.20211400  0.32442900  1
  Mn  Mn1  1  0.71360500  0.75389000  0.17799500  1
  Mn  Mn2  1  0.58067700  0.29788600  0.67557100  1
  Mn  Mn3  1  0.78639500  0.25389000  0.17799500  1
  Mn  Mn4  1  0.28639500  0.24611000  0.82200500  1
  Mn  Mn5  1  0.41932300  0.70211400  0.32442900  1
  Mn  Mn6  1  0.91932300  0.79788600  0.67557100  1
  Mn  Mn7  1  0.21360500  0.74611000  0.82200500  1
  P  P0  1  0.45333900  0.97380700  0.76245500  1
  P  P1  1  0.70285500  0.88076300  0.89189700  1
  P  P2  1  0.85064800  0.12343000  0.57169900  1
  P  P3  1  0.95333900  0.52619300  0.23754500  1
  P  P4  1  0.79714500  0.38076300  0.89189700  1
  P  P5  1  0.56689800  0.44070800  0.24468300  1
  P  P6  1  0.35064800  0.37657000  0.42830100  1
  P  P7  1  0.20285500  0.61923700  0.10810300  1
  P  P8  1  0.29714500  0.11923700  0.10810300  1
  P  P9  1  0.93310200  0.94070800  0.24468300  1
  P  P10  1  0.43310200  0.55929200  0.75531700  1
  P  P11  1  0.04666100  0.47380700  0.76245500  1
  P  P12  1  0.06689800  0.05929200  0.75531700  1
  P  P13  1  0.14935200  0.87657000  0.42830100  1
  P  P14  1  0.64935200  0.62343000  0.57169900  1
  P  P15  1  0.54666100  0.02619300  0.23754500  1
  O  O0  1  0.91308800  0.52494300  0.36729700  1
  O  O1  1  0.17005300  0.16404700  0.68593700  1
  O  O2  1  0.91246600  0.08467700  0.26987900  1
  O  O3  1  0.77711600  0.51790800  0.92491900  1
  O  O4  1  0.46566400  0.12034200  0.78809300  1
  O  O5  1  0.66014700  0.47829800  0.55099700  1
  O  O6  1  0.82757300  0.81688800  0.84754600  1
  O  O7  1  0.16014700  0.02170200  0.44900300  1
  O  O8  1  0.82994700  0.83595300  0.31406300  1
  O  O9  1  0.60162500  0.90531000  0.77583700  1
  O  O10  1  0.96566400  0.37965800  0.21190700  1
  O  O11  1  0.72288400  0.01790800  0.92491900  1
  O  O12  1  0.06193500  0.77535900  0.51789600  1
  O  O13  1  0.08753400  0.91532300  0.73012100  1
  O  O14  1  0.22288400  0.48209200  0.07508100  1
  O  O15  1  0.17242700  0.18311200  0.15245400  1
  O  O16  1  0.41932000  0.38798600  0.29599200  1
  O  O17  1  0.39837500  0.09469000  0.22416300  1
  O  O18  1  0.43806500  0.27535900  0.51789600  1
  O  O19  1  0.67242700  0.31688800  0.84754600  1
  O  O20  1  0.53433600  0.87965800  0.21190700  1
  O  O21  1  0.67005300  0.33595300  0.31406300  1
  O  O22  1  0.10162500  0.59469000  0.22416300  1
  O  O23  1  0.08691200  0.47505700  0.63270300  1
  O  O24  1  0.71215900  0.18883200  0.57924300  1
  O  O25  1  0.41246600  0.41532300  0.73012100  1
  O  O26  1  0.58068000  0.61201400  0.70400800  1
  O  O27  1  0.21215900  0.31116800  0.42075700  1
  O  O28  1  0.41308800  0.97505700  0.63270300  1
  O  O29  1  0.32994700  0.66404700  0.68593700  1
  O  O30  1  0.56193500  0.72464100  0.48210400  1
  O  O31  1  0.86463100  0.61639100  0.14109700  1
  O  O32  1  0.13224400  0.72277200  0.00359900  1
  O  O33  1  0.93806500  0.22464100  0.48210400  1
  O  O34  1  0.78784100  0.68883200  0.57924300  1
  O  O35  1  0.83985300  0.97829800  0.55099700  1
  O  O36  1  0.63224400  0.77722800  0.99640100  1
  O  O37  1  0.56367000  0.43656800  0.11194700  1
  O  O38  1  0.36463100  0.88360900  0.85890300  1
  O  O39  1  0.58753400  0.58467700  0.26987900  1
  O  O40  1  0.27711600  0.98209200  0.07508100  1
  O  O41  1  0.03433600  0.62034200  0.78809300  1
  O  O42  1  0.06367000  0.06343200  0.88805300  1
  O  O43  1  0.28784100  0.81116800  0.42075700  1
  O  O44  1  0.63536900  0.11639100  0.14109700  1
  O  O45  1  0.86775600  0.27722800  0.99640100  1
  O  O46  1  0.89837500  0.40531000  0.77583700  1
  O  O47  1  0.33985300  0.52170200  0.44900300  1
  O  O48  1  0.58691200  0.02494300  0.36729700  1
  O  O49  1  0.43633000  0.56343200  0.88805300  1
  O  O50  1  0.93633000  0.93656800  0.11194700  1
  O  O51  1  0.32757300  0.68311200  0.15245400  1
  O  O52  1  0.08068000  0.88798600  0.29599200  1
  O  O53  1  0.91932000  0.11201400  0.70400800  1
  O  O54  1  0.13536900  0.38360900  0.85890300  1
  O  O55  1  0.36775600  0.22277200  0.00359900  1
loop_
_geom_bond_atom_site_label_1
_geom_bond_atom_site_label_2
_geom_bond_distance
_geom_bond_site_symmetry_2
Li0 O3 1.928846 1_555
Li0 O37 1.976339 1_556
Li0 O49 1.985822 1_555
Li0 O36 2.017872 1_555
Li1 O23 1.969891 1_555
Li1 O47 2.017441 1_555
Li1 O29 2.032685 1_555
Li1 O12 2.240323 1_555
Li1 O43 2.323249 1_555
Li2 O11 1.928846 1_555
Li2 O50 1.976339 1_546
Li2 O42 1.985822 1_655
Li2 O45 2.017872 1_555
Li3 O0 1.969891 1_555
Li3 O5 2.017441 1_555
Li3 O21 2.032685 1_555
Li3 O33 2.240323 1_555
Li3 O24 2.323249 1_555
Li4 O48 1.969891 1_565
Li4 O35 2.017441 1_555
Li4 O8 2.032685 1_555
Li4 O30 2.240323 1_555
Li4 O34 2.323249 1_555
Li5 O48 1.926397 1_555
Li5 O24 1.995265 1_555
Li5 O18 1.995614 1_555
Li5 O21 2.161507 1_555
Li6 O28 1.969891 1_545
Li6 O7 2.017441 1_555
Li6 O1 2.032685 1_555
Li6 O18 2.240323 1_555
Li6 O27 2.323249 1_555
Li7 O28 1.926397 1_555
Li7 O43 1.995265 1_555
Li7 O30 1.995614 1_555
Li7 O29 2.161507 1_555
Li8 O14 1.928846 1_555
Li8 O49 1.976339 1_554
Li8 O37 1.985822 1_555
Li8 O55 2.017872 1_555
Li9 O40 1.983497 1_555
Li9 O51 1.992263 1_555
Li9 O38 2.086498 1_554
Li9 O20 2.366563 1_555
Li9 O36 2.415160 1_554
Li10 O11 1.983497 1_555
Li10 O19 1.992263 1_555
Li10 O44 2.086498 1_556
Li10 O4 2.366563 1_555
Li10 O55 2.415160 1_556
Li11 O40 1.928846 1_555
Li11 O42 1.976339 1_564
Li11 O50 1.985822 1_455
Li11 O32 2.017872 1_555
Li12 O23 1.926397 1_555
Li12 O27 1.995265 1_555
Li12 O33 1.995614 1_455
Li12 O1 2.161507 1_555
Li13 O0 1.926397 1_555
Li13 O34 1.995265 1_555
Li13 O12 1.995614 1_655
Li13 O8 2.161507 1_555
Li14 O3 1.983497 1_555
Li14 O6 1.992263 1_555
Li14 O31 2.086498 1_556
Li14 O41 2.366563 1_655
Li14 O32 2.415160 1_656
Li15 O14 1.983497 1_555
Li15 O15 1.992263 1_555
Li15 O54 2.086498 1_554
Li15 O10 2.366563 1_455
Li15 O45 2.415160 1_454
Mn0 O27 2.147034 1_555
Mn0 O7 2.184349 1_555
Mn0 O15 2.196702 1_555
Mn0 O2 2.208975 1_455
Mn0 O10 2.260339 1_455
Mn0 O33 2.330149 1_455
Mn1 O31 2.139115 1_555
Mn1 O36 2.175617 1_554
Mn1 O39 2.181797 1_555
Mn1 O8 2.222447 1_555
Mn1 O20 2.263503 1_555
Mn2 O24 2.147034 1_555
Mn2 O5 2.184349 1_555
Mn2 O19 2.196702 1_555
Mn2 O25 2.208975 1_555
Mn2 O4 2.260339 1_555
Mn2 O18 2.330149 1_555
Mn3 O44 2.139115 1_555
Mn3 O45 2.175617 1_554
Mn3 O2 2.181797 1_555
Mn3 O21 2.222447 1_555
Mn3 O10 2.263503 1_555
Mn4 O54 2.139115 1_555
Mn4 O55 2.175617 1_556
Mn4 O25 2.181797 1_555
Mn4 O1 2.222447 1_555
Mn4 O4 2.263503 1_555
Mn5 O43 2.147034 1_555
Mn5 O47 2.184349 1_555
Mn5 O51 2.196702 1_555
Mn5 O39 2.208975 1_555
Mn5 O20 2.260339 1_555
Mn5 O30 2.330149 1_555
Mn6 O34 2.147034 1_555
Mn6 O35 2.184349 1_555
Mn6 O6 2.196702 1_555
Mn6 O13 2.208975 1_655
Mn6 O41 2.260339 1_655
Mn6 O12 2.330149 1_655
Mn7 O38 2.139115 1_555
Mn7 O32 2.175617 1_556
Mn7 O13 2.181797 1_555
Mn7 O29 2.222447 1_555
Mn7 O41 2.263503 1_555
O0 P3 1.520847 1_555
O1 P12 1.553390 1_555
O2 P9 1.541883 1_545
O3 P4 1.511831 1_555
O4 P0 1.560180 1_545
O5 P14 1.524256 1_555
O6 P1 1.529859 1_555
O7 P13 1.524256 1_545
O8 P9 1.553390 1_555
O9 P0 1.620233 1_555
O9 P1 1.632036 1_555
O10 P3 1.560180 1_555
O11 P1 1.511831 1_545
O12 P13 1.538455 1_555
O13 P12 1.541883 1_565
O14 P7 1.511831 1_555
O15 P8 1.529859 1_555
O16 P5 1.624768 1_555
O16 P6 1.628540 1_555
O17 P15 1.620233 1_555
O17 P8 1.632036 1_555
O18 P6 1.538455 1_555
O19 P4 1.529859 1_555
O20 P15 1.560180 1_565
O21 P5 1.553390 1_555
O22 P3 1.620233 1_455
O22 P7 1.632036 1_555
O23 P11 1.520847 1_555
O24 P2 1.535927 1_555
O25 P10 1.541883 1_555
O26 P10 1.624768 1_555
O26 P14 1.628540 1_555
O27 P6 1.535927 1_555
O28 P0 1.520847 1_555
O29 P10 1.553390 1_555
O30 P14 1.538455 1_555
O31 P3 1.536228 1_555
O32 P7 1.561006 1_555
O33 P2 1.538455 1_555
O34 P14 1.535927 1_555
O35 P2 1.524256 1_565
O36 P1 1.561006 1_555
O37 P5 1.513481 1_555
O38 P0 1.536228 1_555
O39 P5 1.541883 1_555
O40 P8 1.511831 1_565
O41 P11 1.560180 1_555
O42 P12 1.513481 1_555
O43 P13 1.535927 1_555
O44 P15 1.536228 1_555
O45 P4 1.561006 1_555
O46 P11 1.620233 1_655
O46 P4 1.632036 1_555
O47 P6 1.524256 1_555
O48 P15 1.520847 1_555
O49 P10 1.513481 1_555
O50 P9 1.513481 1_555
O51 P7 1.529859 1_555
O52 P9 1.624768 1_455
O52 P13 1.628540 1_555
O53 P12 1.624768 1_655
O53 P2 1.628540 1_555
O54 P11 1.536228 1_555
O55 P8 1.561006 1_555
