# generated using pymatgen
data_TlInSe2
_symmetry_space_group_name_H-M   'P 1'
_cell_length_a   6.76472210
_cell_length_b   6.76472210
_cell_length_c   6.76472210
_cell_angle_alpha   105.97067102
_cell_angle_beta   105.97067102
_cell_angle_gamma   116.72504574
_symmetry_Int_Tables_number   1
_chemical_formula_structural   TlInSe2
_chemical_formula_sum   'Tl2 In2 Se4'
_cell_volume   235.40293704
_cell_formula_units_Z   2
loop_
 _symmetry_equiv_pos_site_id
 _symmetry_equiv_pos_as_xyz
  1  'x, y, z'
loop_
 _atom_site_type_symbol
 _atom_site_label
 _atom_site_symmetry_multiplicity
 _atom_site_fract_x
 _atom_site_fract_y
 _atom_site_fract_z
 _atom_site_occupancy
  Tl  Tl0  1  0.75000000  0.25000000  0.50000000  1
  Tl  Tl1  1  0.25000000  0.75000000  0.50000000  1
  In  In0  1  0.25000000  0.25000000  0.00000000  1
  In  In1  1  0.75000000  0.75000000  0.00000000  1
  Se  Se0  1  0.68076600  0.18076600  0.86153200  1
  Se  Se1  1  0.18076600  0.31923400  0.50000000  1
  Se  Se2  1  0.81923400  0.68076600  0.50000000  1
  Se  Se3  1  0.31923400  0.81923400  0.13846800  1
loop_
_geom_bond_atom_site_label_1
_geom_bond_atom_site_label_2
_geom_bond_distance
_geom_bond_site_symmetry_2
Se0 Tl1 2.735565 1_545
Se0 Tl0 2.735565 1_555
Se1 Tl0 2.735565 1_455
Se1 Tl1 2.735565 1_555
Se2 Tl1 2.735565 1_655
Se2 Tl0 2.735565 1_555
Se3 Tl0 2.735565 1_565
Se3 Tl1 2.735565 1_555
