# generated using pymatgen
data_Ni(PO3)4
_symmetry_space_group_name_H-M   'P 1'
_cell_length_a   12.93440900
_cell_length_b   8.33177900
_cell_length_c   9.19919000
_cell_angle_alpha   90.00000000
_cell_angle_beta   90.00000000
_cell_angle_gamma   90.00000000
_symmetry_Int_Tables_number   1
_chemical_formula_structural   Ni(PO3)4
_chemical_formula_sum   'Ni4 P16 O48'
_cell_volume   991.36577203
_cell_formula_units_Z   4
loop_
 _symmetry_equiv_pos_site_id
 _symmetry_equiv_pos_as_xyz
  1  'x, y, z'
loop_
 _atom_site_type_symbol
 _atom_site_label
 _atom_site_symmetry_multiplicity
 _atom_site_fract_x
 _atom_site_fract_y
 _atom_site_fract_z
 _atom_site_occupancy
  Ni  Ni0  1  0.00000000  0.36437100  0.75000000  1
  Ni  Ni1  1  0.50000000  0.86437100  0.75000000  1
  Ni  Ni2  1  0.00000000  0.63562900  0.25000000  1
  Ni  Ni3  1  0.50000000  0.13562900  0.25000000  1
  P  P0  1  0.14282800  0.81545300  0.00661600  1
  P  P1  1  0.85142800  0.45897300  0.48994000  1
  P  P2  1  0.35142800  0.95897300  0.01006000  1
  P  P3  1  0.64857200  0.95897300  0.48994000  1
  P  P4  1  0.64282800  0.31545300  0.49338400  1
  P  P5  1  0.14857200  0.54102700  0.51006000  1
  P  P6  1  0.14857200  0.45897300  0.01006000  1
  P  P7  1  0.35142800  0.04102700  0.51006000  1
  P  P8  1  0.64282800  0.68454700  0.99338400  1
  P  P9  1  0.64857200  0.04102700  0.98994000  1
  P  P10  1  0.85717200  0.81545300  0.49338400  1
  P  P11  1  0.35717200  0.68454700  0.50661600  1
  P  P12  1  0.14282800  0.18454700  0.50661600  1
  P  P13  1  0.85717200  0.18454700  0.99338400  1
  P  P14  1  0.35717200  0.31545300  0.00661600  1
  P  P15  1  0.85142800  0.54102700  0.98994000  1
  O  O0  1  0.56797800  0.96233400  0.37255400  1
  O  O1  1  0.05883900  0.80913300  0.12061500  1
  O  O2  1  0.37109800  0.86173900  0.87438600  1
  O  O3  1  0.31838000  0.13897100  0.96268300  1
  O  O4  1  0.31838000  0.86102900  0.46268300  1
  O  O5  1  0.74488900  0.39229400  0.42049700  1
  O  O6  1  0.87109800  0.36173900  0.62561400  1
  O  O7  1  0.93202200  0.53766600  0.87255400  1
  O  O8  1  0.37109800  0.13826100  0.37438700  1
  O  O9  1  0.89141100  0.90823200  0.62598000  1
  O  O10  1  0.81838000  0.36102900  0.03731700  1
  O  O11  1  0.05883900  0.19086700  0.62061500  1
  O  O12  1  0.62890200  0.86173900  0.62561400  1
  O  O13  1  0.25511100  0.60770600  0.57950300  1
  O  O14  1  0.24488900  0.89229400  0.07950300  1
  O  O15  1  0.39141100  0.59176800  0.37402000  1
  O  O16  1  0.12890200  0.36173900  0.87438600  1
  O  O17  1  0.44116100  0.69086700  0.62061500  1
  O  O18  1  0.24488900  0.10770600  0.57950300  1
  O  O19  1  0.75511100  0.89229400  0.42049700  1
  O  O20  1  0.43202200  0.03766600  0.62744600  1
  O  O21  1  0.68162000  0.86102900  0.03731700  1
  O  O22  1  0.94116100  0.19086700  0.87938500  1
  O  O23  1  0.18162000  0.63897100  0.96268300  1
  O  O24  1  0.81838000  0.63897100  0.53731700  1
  O  O25  1  0.18162000  0.36102900  0.46268300  1
  O  O26  1  0.89141100  0.09176800  0.12598000  1
  O  O27  1  0.87109800  0.63826100  0.12561300  1
  O  O28  1  0.44116100  0.30913300  0.12061500  1
  O  O29  1  0.94116100  0.80913300  0.37938500  1
  O  O30  1  0.39141100  0.40823200  0.87402000  1
  O  O31  1  0.56797800  0.03766600  0.87255400  1
  O  O32  1  0.60858900  0.40823200  0.62598000  1
  O  O33  1  0.55883900  0.69086700  0.87938500  1
  O  O34  1  0.55883900  0.30913300  0.37938500  1
  O  O35  1  0.06797800  0.46233400  0.12744600  1
  O  O36  1  0.93202200  0.46233400  0.37255400  1
  O  O37  1  0.68162000  0.13897100  0.53731700  1
  O  O38  1  0.10858900  0.09176800  0.37402000  1
  O  O39  1  0.60858900  0.59176800  0.12598000  1
  O  O40  1  0.75511100  0.10770600  0.92049700  1
  O  O41  1  0.43202200  0.96233400  0.12744600  1
  O  O42  1  0.12890200  0.63826100  0.37438700  1
  O  O43  1  0.25511100  0.39229400  0.07950300  1
  O  O44  1  0.74488900  0.60770600  0.92049700  1
  O  O45  1  0.10858900  0.90823200  0.87402000  1
  O  O46  1  0.62890200  0.13826100  0.12561300  1
  O  O47  1  0.06797800  0.53766600  0.62744600  1
loop_
_geom_bond_atom_site_label_1
_geom_bond_atom_site_label_2
_geom_bond_distance
_geom_bond_site_symmetry_2
Ni0 O11 2.021289 1_555
Ni0 O22 2.021289 1_455
Ni0 O6 2.022272 1_455
Ni0 O16 2.022272 1_555
Ni0 O7 2.031953 1_455
Ni0 O47 2.031953 1_555
Ni1 O17 2.021289 1_555
Ni1 O33 2.021289 1_555
Ni1 O12 2.022272 1_555
Ni1 O2 2.022272 1_555
Ni1 O31 2.031953 1_565
Ni1 O20 2.031953 1_565
Ni2 O29 2.021289 1_455
Ni2 O1 2.021289 1_555
Ni2 O27 2.022277 1_455
Ni2 O42 2.022277 1_555
Ni2 O36 2.031953 1_455
Ni2 O35 2.031953 1_555
Ni3 O28 2.021289 1_555
Ni3 O34 2.021289 1_555
Ni3 O46 2.022277 1_555
Ni3 O8 2.022277 1_555
Ni3 O0 2.031953 1_545
Ni3 O41 2.031953 1_545
O0 P3 1.501181 1_555
O1 P0 1.510858 1_555
O2 P2 1.509561 1_556
O3 P14 1.605364 1_556
O3 P2 1.619190 1_546
O4 P11 1.605364 1_555
O4 P7 1.619190 1_565
O5 P4 1.613108 1_555
O5 P1 1.617303 1_555
O6 P1 1.509561 1_555
O7 P15 1.501181 1_555
O8 P7 1.509553 1_555
O9 P10 1.510473 1_555
O10 P13 1.605364 1_554
O10 P15 1.619190 1_554
O11 P12 1.510858 1_555
O12 P3 1.509561 1_555
O13 P11 1.613108 1_555
O13 P5 1.617303 1_555
O14 P0 1.613108 1_555
O14 P2 1.617303 1_555
O15 P11 1.510473 1_555
O16 P6 1.509561 1_556
O17 P11 1.510858 1_555
O18 P12 1.613108 1_555
O18 P7 1.617303 1_555
O19 P10 1.613108 1_555
O19 P3 1.617303 1_555
O20 P7 1.501181 1_555
O21 P8 1.605364 1_554
O21 P9 1.619190 1_564
O22 P13 1.510858 1_555
O23 P0 1.605364 1_556
O23 P6 1.619190 1_556
O24 P10 1.605364 1_555
O24 P1 1.619190 1_555
O25 P12 1.605364 1_555
O25 P5 1.619190 1_555
O26 P13 1.510473 1_554
O27 P15 1.509553 1_554
O28 P14 1.510858 1_555
O29 P10 1.510858 1_555
O30 P14 1.510473 1_556
O31 P9 1.501181 1_555
O32 P4 1.510473 1_555
O33 P8 1.510858 1_555
O34 P4 1.510858 1_555
O35 P6 1.501181 1_555
O36 P1 1.501181 1_555
O37 P4 1.605364 1_555
O37 P3 1.619190 1_545
O38 P12 1.510473 1_555
O39 P8 1.510473 1_554
O40 P13 1.613108 1_555
O40 P9 1.617303 1_555
O41 P2 1.501181 1_555
O42 P5 1.509553 1_555
O43 P14 1.613108 1_555
O43 P6 1.617303 1_555
O44 P8 1.613108 1_555
O44 P15 1.617303 1_555
O45 P0 1.510473 1_556
O46 P9 1.509553 1_554
O47 P5 1.501181 1_555
