# generated using pymatgen
data_Cs3Sm(PS4)2
_symmetry_space_group_name_H-M   'P 1'
_cell_length_a   7.02327500
_cell_length_b   15.65281200
_cell_length_c   15.82096829
_cell_angle_alpha   80.19510501
_cell_angle_beta   90.00000000
_cell_angle_gamma   90.00000000
_symmetry_Int_Tables_number   1
_chemical_formula_structural   Cs3Sm(PS4)2
_chemical_formula_sum   'Cs12 Sm4 P8 S32'
_cell_volume   1713.85758799
_cell_formula_units_Z   4
loop_
 _symmetry_equiv_pos_site_id
 _symmetry_equiv_pos_as_xyz
  1  'x, y, z'
loop_
 _atom_site_type_symbol
 _atom_site_label
 _atom_site_symmetry_multiplicity
 _atom_site_fract_x
 _atom_site_fract_y
 _atom_site_fract_z
 _atom_site_occupancy
  Cs  Cs0  1  0.74162500  0.27703600  0.87830600  1
  Cs  Cs1  1  0.74636900  0.45308100  0.61041700  1
  Cs  Cs2  1  0.24636900  0.04691900  0.88958300  1
  Cs  Cs3  1  0.24162500  0.22296400  0.62169400  1
  Cs  Cs4  1  0.24444000  0.39220500  0.02489100  1
  Cs  Cs5  1  0.25363100  0.54691900  0.38958300  1
  Cs  Cs6  1  0.75556000  0.60779500  0.97510900  1
  Cs  Cs7  1  0.75837500  0.77703600  0.37830600  1
  Cs  Cs8  1  0.74444000  0.10779500  0.47510900  1
  Cs  Cs9  1  0.25556000  0.89220500  0.52489100  1
  Cs  Cs10  1  0.75363100  0.95308100  0.11041700  1
  Cs  Cs11  1  0.25837500  0.72296400  0.12169400  1
  Sm  Sm0  1  0.76839400  0.87643400  0.77012000  1
  Sm  Sm1  1  0.26839400  0.62356600  0.72988000  1
  Sm  Sm2  1  0.73160600  0.37643400  0.27012000  1
  Sm  Sm3  1  0.23160600  0.12356600  0.22988000  1
  P  P0  1  0.74491600  0.08168500  0.72508600  1
  P  P1  1  0.27445900  0.28239200  0.36865900  1
  P  P2  1  0.75508400  0.58168500  0.22508600  1
  P  P3  1  0.72554100  0.71760800  0.63134100  1
  P  P4  1  0.24491600  0.41831500  0.77491400  1
  P  P5  1  0.77445900  0.21760800  0.13134100  1
  P  P6  1  0.25508400  0.91831500  0.27491400  1
  P  P7  1  0.22554100  0.78239200  0.86865900  1
  S  S0  1  0.98619600  0.51580900  0.18777000  1
  S  S1  1  0.24897600  0.15051500  0.40552900  1
  S  S2  1  0.50598000  0.33047300  0.42531600  1
  S  S3  1  0.33943500  0.30156200  0.23940800  1
  S  S4  1  0.48619600  0.98419100  0.31223000  1
  S  S5  1  0.26127400  0.79061700  0.32509700  1
  S  S6  1  0.49402000  0.66952700  0.57468400  1
  S  S7  1  0.01403000  0.97777400  0.31384100  1
  S  S8  1  0.25143000  0.95078000  0.14333200  1
  S  S9  1  0.46750600  0.84271400  0.90126800  1
  S  S10  1  0.00598000  0.16952700  0.07468400  1
  S  S11  1  0.48597000  0.47777400  0.81384100  1
  S  S12  1  0.51380400  0.01580900  0.68777000  1
  S  S13  1  0.53249400  0.15728600  0.09873200  1
  S  S14  1  0.73872600  0.20938300  0.67490300  1
  S  S15  1  0.66056500  0.69843800  0.76059200  1
  S  S16  1  0.98597000  0.02222600  0.68615900  1
  S  S17  1  0.51403000  0.52222600  0.18615900  1
  S  S18  1  0.83943500  0.19843800  0.26059200  1
  S  S19  1  0.03249400  0.34271400  0.40126800  1
  S  S20  1  0.96750600  0.65728600  0.59873200  1
  S  S21  1  0.16056500  0.80156200  0.73940800  1
  S  S22  1  0.74897600  0.34948500  0.09447100  1
  S  S23  1  0.76127400  0.70938300  0.17490300  1
  S  S24  1  0.25102400  0.65051500  0.90552900  1
  S  S25  1  0.24857000  0.45078000  0.64333200  1
  S  S26  1  0.01380400  0.48419100  0.81223000  1
  S  S27  1  0.75143000  0.54922000  0.35666800  1
  S  S28  1  0.99402000  0.83047300  0.92531600  1
  S  S29  1  0.23872600  0.29061700  0.82509700  1
  S  S30  1  0.74857000  0.04922000  0.85666800  1
  S  S31  1  0.75102400  0.84948500  0.59447100  1
loop_
_geom_bond_atom_site_label_1
_geom_bond_atom_site_label_2
_geom_bond_distance
_geom_bond_site_symmetry_2
Cs0 S14 3.555023 1_555
Cs0 S29 3.589138 1_655
Cs0 S11 3.611864 1_555
Cs0 S29 3.628761 1_555
Cs0 S30 3.640250 1_555
Cs0 S26 3.755887 1_655
Cs0 S10 3.761787 1_656
Cs0 S22 3.782272 1_556
Cs0 S13 3.950453 1_556
Cs1 S20 3.530144 1_555
Cs1 S25 3.534028 1_555
Cs1 S25 3.564617 1_655
Cs1 S14 3.777451 1_555
Cs1 S11 3.778312 1_555
Cs1 S6 3.779793 1_555
Cs1 S26 3.806446 1_655
Cs1 S27 4.040407 1_555
Cs1 S2 4.125984 1_555
Cs2 S9 3.530144 1_545
Cs2 S30 3.534028 1_455
Cs2 S30 3.564617 1_555
Cs2 S29 3.777451 1_555
Cs2 S16 3.778312 1_455
Cs2 S28 3.779793 1_445
Cs2 S12 3.806446 1_555
Cs2 S8 4.040407 1_546
Cs2 S10 4.125984 1_556
Cs3 S29 3.555023 1_555
Cs3 S14 3.589138 1_555
Cs3 S16 3.611864 1_455
Cs3 S14 3.628761 1_455
Cs3 S25 3.640250 1_555
Cs3 S12 3.755887 1_555
Cs3 S2 3.761787 1_555
Cs3 S1 3.782272 1_555
Cs3 S19 3.950453 1_555
Cs4 S3 3.512332 1_555
Cs4 S22 3.676563 1_455
Cs4 S22 3.736924 1_555
Cs4 S29 3.772739 1_554
Cs4 S11 3.781184 1_554
Cs4 S26 3.790371 1_554
Cs4 S10 3.826123 1_555
Cs4 S0 3.920627 1_455
Cs4 S17 4.000658 1_555
Cs5 S19 3.530144 1_555
Cs5 S27 3.534028 1_555
Cs5 S27 3.564617 1_455
Cs5 S5 3.777451 1_555
Cs5 S17 3.778312 1_555
Cs5 S2 3.779793 1_555
Cs5 S0 3.806446 1_455
Cs5 S25 4.040407 1_555
Cs5 S6 4.125984 1_555
Cs6 S15 3.512332 1_555
Cs6 S24 3.676563 1_655
Cs6 S24 3.736924 1_555
Cs6 S23 3.772739 1_556
Cs6 S17 3.781184 1_556
Cs6 S0 3.790371 1_556
Cs6 S28 3.826123 1_555
Cs6 S26 3.920627 1_655
Cs6 S11 4.000658 1_555
Cs7 S23 3.555023 1_555
Cs7 S5 3.589138 1_555
Cs7 S7 3.611864 1_655
Cs7 S5 3.628761 1_655
Cs7 S27 3.640250 1_555
Cs7 S4 3.755887 1_555
Cs7 S6 3.761787 1_555
Cs7 S31 3.782272 1_555
Cs7 S20 3.950453 1_555
Cs8 S18 3.512332 1_555
Cs8 S1 3.676563 1_555
Cs8 S1 3.736924 1_655
Cs8 S14 3.772739 1_555
Cs8 S16 3.781184 1_555
Cs8 S12 3.790371 1_555
Cs8 S2 3.826123 1_555
Cs8 S4 3.920627 1_545
Cs8 S7 4.000658 1_645
Cs9 S21 3.512332 1_555
Cs9 S31 3.676563 1_555
Cs9 S31 3.736924 1_455
Cs9 S5 3.772739 1_555
Cs9 S7 3.781184 1_555
Cs9 S4 3.790371 1_555
Cs9 S6 3.826123 1_555
Cs9 S12 3.920627 1_565
Cs9 S16 4.000658 1_465
Cs10 S13 3.530144 1_565
Cs10 S8 3.534028 1_655
Cs10 S8 3.564617 1_555
Cs10 S23 3.777451 1_555
Cs10 S7 3.778312 1_655
Cs10 S10 3.779793 1_665
Cs10 S4 3.806446 1_555
Cs10 S30 4.040407 1_564
Cs10 S28 4.125984 1_554
Cs11 S5 3.555023 1_555
Cs11 S23 3.589138 1_455
Cs11 S17 3.611864 1_555
Cs11 S23 3.628761 1_555
Cs11 S8 3.640250 1_555
Cs11 S0 3.755887 1_455
Cs11 S28 3.761787 1_454
Cs11 S24 3.782272 1_554
Cs11 S9 3.950453 1_554
P0 S14 2.021650 1_555
P0 S30 2.057254 1_555
P0 S12 2.062474 1_555
P0 S16 2.075312 1_555
P1 S19 2.052197 1_555
P1 S1 2.055066 1_555
P1 S2 2.060010 1_555
P1 S3 2.066597 1_555
P2 S23 2.021650 1_555
P2 S27 2.057254 1_555
P2 S0 2.062474 1_555
P2 S17 2.075312 1_555
P3 S20 2.052197 1_555
P3 S31 2.055066 1_555
P3 S6 2.060010 1_555
P3 S15 2.066597 1_555
P4 S29 2.021650 1_555
P4 S25 2.057254 1_555
P4 S26 2.062474 1_555
P4 S11 2.075312 1_555
P5 S13 2.052197 1_555
P5 S22 2.055066 1_555
P5 S10 2.060010 1_655
P5 S18 2.066597 1_555
P6 S5 2.021650 1_555
P6 S8 2.057254 1_555
P6 S4 2.062474 1_555
P6 S7 2.075312 1_555
P7 S9 2.052197 1_555
P7 S24 2.055066 1_555
P7 S28 2.060010 1_455
P7 S21 2.066597 1_555
S0 Sm2 2.947192 1_555
S1 Sm3 2.883498 1_555
S2 Sm2 2.907878 1_555
S3 Sm3 2.915794 1_555
S3 Sm2 3.064283 1_555
S4 Sm3 2.947192 1_565
S6 Sm1 2.907878 1_555
S7 Sm3 2.876614 1_565
S8 Sm3 3.235798 1_565
S9 Sm0 2.945581 1_555
S10 Sm3 2.907878 1_555
S11 Sm1 2.876614 1_555
S12 Sm0 2.947192 1_545
S13 Sm3 2.945581 1_555
S15 Sm0 2.915794 1_555
S15 Sm1 3.064283 1_555
S16 Sm0 2.876614 1_545
S17 Sm2 2.876614 1_555
S18 Sm2 2.915794 1_555
S18 Sm3 3.064283 1_655
S19 Sm2 2.945581 1_455
S20 Sm1 2.945581 1_655
S21 Sm1 2.915794 1_555
S21 Sm0 3.064283 1_455
S22 Sm2 2.883498 1_555
S24 Sm1 2.883498 1_555
S25 Sm1 3.235798 1_555
S26 Sm1 2.947192 1_555
S27 Sm2 3.235798 1_555
S28 Sm0 2.907878 1_555
S30 Sm0 3.235798 1_545
S31 Sm0 2.883498 1_555
