# generated using pymatgen
data_CuPH6NO5
_symmetry_space_group_name_H-M   'P 1'
_cell_length_a   4.84158900
_cell_length_b   5.76088000
_cell_length_c   8.78542700
_cell_angle_alpha   90.00000000
_cell_angle_beta   90.00000000
_cell_angle_gamma   90.00000000
_symmetry_Int_Tables_number   1
_chemical_formula_structural   CuPH6NO5
_chemical_formula_sum   'Cu2 P2 H12 N2 O10'
_cell_volume   245.04148910
_cell_formula_units_Z   2
loop_
 _symmetry_equiv_pos_site_id
 _symmetry_equiv_pos_as_xyz
  1  'x, y, z'
loop_
 _atom_site_type_symbol
 _atom_site_label
 _atom_site_symmetry_multiplicity
 _atom_site_fract_x
 _atom_site_fract_y
 _atom_site_fract_z
 _atom_site_occupancy
  Cu  Cu0  1  0.49214700  0.00000000  0.02227500  1
  Cu  Cu1  1  0.99214700  0.50000000  0.97772500  1
  P  P0  1  0.93556100  0.00000000  0.81172000  1
  P  P1  1  0.43556100  0.50000000  0.18828000  1
  H  H0  1  0.55032600  0.00000000  0.54548200  1
  H  H1  1  0.05032600  0.50000000  0.45451800  1
  H  H2  1  0.37732700  0.14720600  0.40836300  1
  H  H3  1  0.87732700  0.35279400  0.59163700  1
  H  H4  1  0.37732700  0.85279400  0.40836300  1
  H  H5  1  0.87732700  0.64720600  0.59163700  1
  H  H6  1  0.19332600  0.00000000  0.54331600  1
  H  H7  1  0.69332600  0.50000000  0.45668400  1
  H  H8  1  0.89584200  0.13720900  0.18612300  1
  H  H9  1  0.39584200  0.36279100  0.81387700  1
  H  H10  1  0.89584200  0.86279100  0.18612300  1
  H  H11  1  0.39584200  0.63720900  0.81387700  1
  N  N0  1  0.37413400  0.00000000  0.47583700  1
  N  N1  1  0.87413400  0.50000000  0.52416300  1
  O  O0  1  0.79132900  0.78531200  0.88827000  1
  O  O1  1  0.29132900  0.71468800  0.11173000  1
  O  O2  1  0.79132900  0.21468800  0.88827000  1
  O  O3  1  0.29132900  0.28531200  0.11173000  1
  O  O4  1  0.25114400  0.00000000  0.83602700  1
  O  O5  1  0.75114400  0.50000000  0.16397300  1
  O  O6  1  0.88247300  0.00000000  0.63682100  1
  O  O7  1  0.38247300  0.50000000  0.36317900  1
  O  O8  1  0.77889300  0.00000000  0.20424000  1
  O  O9  1  0.27889300  0.50000000  0.79576000  1
loop_
_geom_bond_atom_site_label_1
_geom_bond_atom_site_label_2
_geom_bond_distance
_geom_bond_site_symmetry_2
Cu0 O4 2.009697 1_554
Cu0 O1 2.065077 1_545
Cu0 O3 2.065077 1_555
Cu0 O8 2.117320 1_555
Cu0 O0 2.239167 1_544
Cu0 O2 2.239167 1_554
Cu1 O5 2.009697 1_556
Cu1 O0 2.065077 1_555
Cu1 O2 2.065077 1_555
Cu1 O9 2.117320 1_655
Cu1 O1 2.239167 1_656
Cu1 O3 2.239167 1_656
H0 N0 1.049794 1_555
H1 N1 1.049794 1_455
H2 N0 1.034795 1_555
H3 N1 1.034795 1_555
H4 N0 1.034795 1_565
H5 N1 1.034795 1_555
H6 N0 1.057247 1_555
H7 N1 1.057247 1_555
H8 O8 0.985262 1_555
H9 O9 0.985262 1_555
H10 O8 0.985262 1_565
H11 O9 0.985262 1_555
O0 P0 1.571491 1_565
O1 P1 1.571491 1_555
O2 P0 1.571491 1_555
O3 P1 1.571491 1_555
O4 P0 1.542774 1_455
O5 P1 1.542774 1_555
O6 P0 1.557912 1_555
O7 P1 1.557912 1_555
