# generated using pymatgen
data_SnO2
_symmetry_space_group_name_H-M   'P 1'
_cell_length_a   4.72669443
_cell_length_b   5.76327256
_cell_length_c   15.92617370
_cell_angle_alpha   90.00000000
_cell_angle_beta   90.00000000
_cell_angle_gamma   90.00000000
_symmetry_Int_Tables_number   1
_chemical_formula_structural   SnO2
_chemical_formula_sum   'Sn12 O24'
_cell_volume   433.84853383
_cell_formula_units_Z   12
loop_
 _symmetry_equiv_pos_site_id
 _symmetry_equiv_pos_as_xyz
  1  'x, y, z'
loop_
 _atom_site_type_symbol
 _atom_site_label
 _atom_site_symmetry_multiplicity
 _atom_site_fract_x
 _atom_site_fract_y
 _atom_site_fract_z
 _atom_site_occupancy
  Sn  Sn0  1  0.99737590  0.34652705  0.41607551  1
  Sn  Sn1  1  0.50262410  0.15347295  0.91607551  1
  Sn  Sn2  1  0.00262410  0.34652705  0.08392449  1
  Sn  Sn3  1  -0.00000000  0.02814368  0.25000000  1
  Sn  Sn4  1  0.99737590  0.65347295  0.91607551  1
  Sn  Sn5  1  0.49737590  0.84652705  0.08392449  1
  Sn  Sn6  1  0.49737590  0.15347295  0.58392449  1
  Sn  Sn7  1  0.50000000  0.47185632  0.75000000  1
  Sn  Sn8  1  0.50262410  0.84652705  0.41607551  1
  Sn  Sn9  1  0.50000000  0.52814368  0.25000000  1
  Sn  Sn10  1  0.00262410  0.65347295  0.58392449  1
  Sn  Sn11  1  -0.00000000  0.97185632  0.75000000  1
  O  O0  1  0.21293725  0.92969370  0.86219401  1
  O  O1  1  0.27294992  0.19801547  0.69486920  1
  O  O2  1  0.78706275  0.92969370  0.63780599  1
  O  O3  1  0.70859061  0.12486117  0.47054916  1
  O  O4  1  0.22705008  0.30198453  0.19486920  1
  O  O5  1  0.28706275  0.42969370  0.86219401  1
  O  O6  1  0.71293725  0.57030630  0.13780599  1
  O  O7  1  0.79140939  0.37513883  0.97054916  1
  O  O8  1  0.70859061  0.87513883  0.97054916  1
  O  O9  1  0.20859061  0.62486117  0.02945084  1
  O  O10  1  0.28706275  0.57030630  0.36219401  1
  O  O11  1  0.71293725  0.42969370  0.63780599  1
  O  O12  1  0.29140939  0.12486117  0.02945084  1
  O  O13  1  0.29140939  0.87513883  0.52945084  1
  O  O14  1  0.77294992  0.69801547  0.80513080  1
  O  O15  1  0.21293725  0.07030630  0.36219401  1
  O  O16  1  0.78706275  0.07030630  0.13780599  1
  O  O17  1  0.27294992  0.80198453  0.19486920  1
  O  O18  1  0.72705008  0.19801547  0.80513080  1
  O  O19  1  0.77294992  0.30198453  0.30513080  1
  O  O20  1  0.72705008  0.80198453  0.30513080  1
  O  O21  1  0.20859061  0.37513883  0.52945084  1
  O  O22  1  0.79140939  0.62486117  0.47054916  1
  O  O23  1  0.22705008  0.69801547  0.69486920  1
loop_
_geom_bond_atom_site_label_1
_geom_bond_atom_site_label_2
_geom_bond_distance
_geom_bond_site_symmetry_2
O0 Sn11 2.065139 1_555
O0 Sn1 2.067507 1_565
O0 Sn4 2.075760 1_455
O1 Sn11 2.033300 1_545
O1 Sn6 2.076826 1_555
O1 Sn7 2.100821 1_555
O2 Sn11 2.065139 1_655
O2 Sn6 2.067507 1_565
O2 Sn10 2.075760 1_655
O3 Sn0 2.061053 1_555
O3 Sn8 2.067274 1_545
O3 Sn6 2.069833 1_555
O4 Sn9 2.033300 1_555
O4 Sn2 2.076826 1_555
O4 Sn3 2.100821 1_555
O5 Sn7 2.065139 1_555
O5 Sn4 2.067507 1_455
O5 Sn1 2.075760 1_555
O6 Sn9 2.065139 1_555
O6 Sn2 2.067507 1_655
O6 Sn5 2.075760 1_555
O7 Sn1 2.061053 1_555
O7 Sn4 2.067274 1_555
O7 Sn2 2.069833 1_656
O8 Sn4 2.061053 1_555
O8 Sn1 2.067274 1_565
O8 Sn5 2.069833 1_556
O9 Sn5 2.061053 1_555
O9 Sn2 2.067274 1_555
O9 Sn4 2.069833 1_454
O10 Sn9 2.065139 1_555
O10 Sn0 2.067507 1_455
O10 Sn8 2.075760 1_555
O11 Sn7 2.065139 1_555
O11 Sn10 2.067507 1_655
O11 Sn6 2.075760 1_555
O12 Sn2 2.061053 1_555
O12 Sn5 2.067274 1_545
O12 Sn1 2.069833 1_554
O13 Sn10 2.061053 1_555
O13 Sn6 2.067274 1_565
O13 Sn8 2.069833 1_555
O14 Sn7 2.033300 1_555
O14 Sn4 2.076826 1_555
O14 Sn11 2.100821 1_655
O15 Sn3 2.065139 1_555
O15 Sn8 2.067507 1_545
O15 Sn0 2.075760 1_455
O16 Sn3 2.065139 1_655
O16 Sn5 2.067507 1_545
O16 Sn2 2.075760 1_655
O17 Sn3 2.033300 1_565
O17 Sn5 2.076826 1_555
O17 Sn9 2.100821 1_555
O18 Sn11 2.033300 1_645
O18 Sn1 2.076826 1_555
O18 Sn7 2.100821 1_555
O19 Sn9 2.033300 1_555
O19 Sn0 2.076826 1_555
O19 Sn3 2.100821 1_655
O20 Sn3 2.033300 1_665
O20 Sn8 2.076826 1_555
O20 Sn9 2.100821 1_555
O21 Sn6 2.061053 1_555
O21 Sn10 2.067274 1_555
O21 Sn0 2.069833 1_455
O22 Sn8 2.061053 1_555
O22 Sn0 2.067274 1_555
O22 Sn10 2.069833 1_655
O23 Sn7 2.033300 1_555
O23 Sn10 2.076826 1_555
O23 Sn11 2.100821 1_555
