# generated using pymatgen
data_La3CuSnS7
_symmetry_space_group_name_H-M   'P 1'
_cell_length_a   10.35529342
_cell_length_b   10.35529342
_cell_length_c   6.10528300
_cell_angle_alpha   90.00000000
_cell_angle_beta   90.00000000
_cell_angle_gamma   119.99999631
_symmetry_Int_Tables_number   1
_chemical_formula_structural   La3CuSnS7
_chemical_formula_sum   'La6 Cu2 Sn2 S14'
_cell_volume   566.97154898
_cell_formula_units_Z   2
loop_
 _symmetry_equiv_pos_site_id
 _symmetry_equiv_pos_as_xyz
  1  'x, y, z'
loop_
 _atom_site_type_symbol
 _atom_site_label
 _atom_site_symmetry_multiplicity
 _atom_site_fract_x
 _atom_site_fract_y
 _atom_site_fract_z
 _atom_site_occupancy
  La  La0  1  0.22285900  0.35614500  0.75669000  1
  La  La1  1  0.86671400  0.22285900  0.25669000  1
  La  La2  1  0.35614500  0.13328600  0.25669000  1
  La  La3  1  0.64385500  0.86671400  0.75669000  1
  La  La4  1  0.13328600  0.77714100  0.75669000  1
  La  La5  1  0.77714100  0.64385500  0.25669000  1
  Cu  Cu0  1  0.00000000  0.00000000  0.71871200  1
  Cu  Cu1  1  0.00000000  0.00000000  0.21871200  1
  Sn  Sn0  1  0.33333300  0.66666700  0.33185400  1
  Sn  Sn1  1  0.66666700  0.33333300  0.83185400  1
  S  S0  1  0.33333300  0.66666700  0.94257300  1
  S  S1  1  0.66666700  0.33333300  0.44257300  1
  S  S2  1  0.90496100  0.15486600  0.73143200  1
  S  S3  1  0.75009400  0.90496100  0.23143200  1
  S  S4  1  0.15486600  0.24990600  0.23143200  1
  S  S5  1  0.84513400  0.75009400  0.73143200  1
  S  S6  1  0.24990600  0.09503900  0.73143200  1
  S  S7  1  0.09503900  0.84513400  0.23143200  1
  S  S8  1  0.42512700  0.90943200  0.49916500  1
  S  S9  1  0.51569400  0.42512700  0.99916500  1
  S  S10  1  0.90943200  0.48430600  0.99916500  1
  S  S11  1  0.09056800  0.51569400  0.49916500  1
  S  S12  1  0.48430600  0.57487300  0.49916500  1
  S  S13  1  0.57487300  0.09056800  0.99916500  1
loop_
_geom_bond_atom_site_label_1
_geom_bond_atom_site_label_2
_geom_bond_distance
_geom_bond_site_symmetry_2
La0 S6 2.858357 1_555
La0 S2 2.888513 1_455
La0 S12 2.966454 1_555
La0 S0 3.042667 1_555
La0 S4 3.054892 1_556
La0 S11 3.056419 1_555
La0 S9 3.119465 1_555
La0 S4 3.348929 1_555
La1 S4 2.858347 1_655
La1 S3 2.888512 1_545
La1 S10 2.966458 1_554
La1 S1 3.042658 1_555
La1 S2 3.054895 1_555
La1 S13 3.056427 1_554
La1 S11 3.119468 1_655
La1 S2 3.348931 1_554
La2 S7 2.858351 1_545
La2 S4 2.888521 1_555
La2 S13 2.966449 1_554
La2 S1 3.042666 1_555
La2 S6 3.054892 1_555
La2 S9 3.056426 1_554
La2 S8 3.119474 1_545
La2 S6 3.348929 1_554
La3 S2 2.858351 1_565
La3 S5 2.888521 1_555
La3 S8 2.966449 1_555
La3 S0 3.042666 1_555
La3 S3 3.054892 1_556
La3 S12 3.056426 1_555
La3 S13 3.119474 1_565
La3 S3 3.348929 1_555
La4 S5 2.858347 1_455
La4 S6 2.888512 1_565
La4 S11 2.966458 1_555
La4 S0 3.042658 1_555
La4 S7 3.054895 1_556
La4 S8 3.056427 1_555
La4 S10 3.119468 1_455
La4 S7 3.348931 1_555
La5 S3 2.858357 1_555
La5 S7 2.888513 1_655
La5 S9 2.966454 1_554
La5 S1 3.042667 1_555
La5 S5 3.054892 1_555
La5 S10 3.056419 1_554
La5 S12 3.119465 1_555
La5 S5 3.348929 1_554
Cu0 S2 2.263773 1_455
Cu0 S5 2.263782 1_445
Cu0 S6 2.263783 1_555
Cu1 S7 2.263773 1_545
Cu1 S4 2.263782 1_555
Cu1 S3 2.263783 1_445
S0 Sn0 2.376671 1_556
S1 Sn1 2.376671 1_555
S8 Sn0 2.424270 1_555
S9 Sn1 2.424287 1_555
S10 Sn1 2.424272 1_555
S11 Sn0 2.424272 1_555
S12 Sn0 2.424287 1_555
S13 Sn1 2.424270 1_555
