# generated using pymatgen
data_Tl3B3Se10
_symmetry_space_group_name_H-M   'P 1'
_cell_length_a   7.31122300
_cell_length_b   8.31932290
_cell_length_c   14.86230384
_cell_angle_alpha   103.96418801
_cell_angle_beta   94.70290105
_cell_angle_gamma   93.47517080
_symmetry_Int_Tables_number   1
_chemical_formula_structural   Tl3B3Se10
_chemical_formula_sum   'Tl6 B6 Se20'
_cell_volume   871.29538269
_cell_formula_units_Z   2
loop_
 _symmetry_equiv_pos_site_id
 _symmetry_equiv_pos_as_xyz
  1  'x, y, z'
loop_
 _atom_site_type_symbol
 _atom_site_label
 _atom_site_symmetry_multiplicity
 _atom_site_fract_x
 _atom_site_fract_y
 _atom_site_fract_z
 _atom_site_occupancy
  Tl  Tl0  1  0.32458000  0.18253700  0.47900400  1
  Tl  Tl1  1  0.67542000  0.81746300  0.52099600  1
  Tl  Tl2  1  0.73359000  0.55149900  0.15414700  1
  Tl  Tl3  1  0.26641000  0.44850100  0.84585300  1
  Tl  Tl4  1  0.98590600  0.12115600  0.20464100  1
  Tl  Tl5  1  0.01409400  0.87884400  0.79535900  1
  B  B0  1  0.36291400  0.91405200  0.08960800  1
  B  B1  1  0.63708600  0.08594800  0.91039200  1
  B  B2  1  0.26121000  0.71309600  0.23948400  1
  B  B3  1  0.73879000  0.28690400  0.76051600  1
  B  B4  1  0.10604000  0.62089900  0.41525800  1
  B  B5  1  0.89396000  0.37910100  0.58474200  1
  Se  Se0  1  0.22386000  0.05909000  0.01641700  1
  Se  Se1  1  0.77614000  0.94091000  0.98358300  1
  Se  Se2  1  0.53149400  0.75735600  0.01391900  1
  Se  Se3  1  0.46850600  0.24264400  0.98608100  1
  Se  Se4  1  0.47754100  0.06322200  0.21500400  1
  Se  Se5  1  0.52245900  0.93677800  0.78499600  1
  Se  Se6  1  0.16432200  0.74000400  0.10959600  1
  Se  Se7  1  0.83567800  0.25999600  0.89040400  1
  Se  Se8  1  0.51987000  0.83691800  0.28452700  1
  Se  Se9  1  0.48013000  0.16308200  0.71547300  1
  Se  Se10  1  0.29914400  0.46455400  0.22483500  1
  Se  Se11  1  0.70085600  0.53544600  0.77516500  1
  Se  Se12  1  0.07005100  0.79040500  0.33471900  1
  Se  Se13  1  0.92994900  0.20959500  0.66528100  1
  Se  Se14  1  0.34127600  0.50126800  0.39033000  1
  Se  Se15  1  0.65872400  0.49873200  0.60967000  1
  Se  Se16  1  0.14057300  0.74856700  0.55265300  1
  Se  Se17  1  0.85942700  0.25143300  0.44734700  1
  Se  Se18  1  0.85959100  0.48117900  0.37193800  1
  Se  Se19  1  0.14040900  0.51882100  0.62806200  1
loop_
_geom_bond_atom_site_label_1
_geom_bond_atom_site_label_2
_geom_bond_distance
_geom_bond_site_symmetry_2
B0 Se2 2.048981 1_555
B0 Se4 2.053598 1_565
B0 Se0 2.067279 1_565
B0 Se6 2.077608 1_555
B1 Se3 2.048981 1_555
B1 Se5 2.053598 1_545
B1 Se1 2.067279 1_545
B1 Se7 2.077608 1_555
B2 Se10 2.064428 1_555
B2 Se6 2.069307 1_555
B2 Se8 2.075823 1_555
B2 Se12 2.089101 1_555
B3 Se11 2.064428 1_555
B3 Se7 2.069307 1_555
B3 Se9 2.075823 1_555
B3 Se13 2.089101 1_555
B4 Se16 2.048857 1_555
B4 Se18 2.051085 1_455
B4 Se14 2.054202 1_555
B4 Se12 2.073314 1_555
B5 Se17 2.048857 1_555
B5 Se19 2.051085 1_655
B5 Se15 2.054202 1_555
B5 Se13 2.073314 1_555
Se2 Tl2 3.314232 1_555
Se3 Tl3 3.314232 1_555
Se8 Tl2 3.249661 1_555
Se9 Tl3 3.249661 1_555
Se14 Tl0 3.233669 1_555
Se15 Tl1 3.233669 1_555
