# generated using pymatgen
data_Na2Fe3(PO4)3
_symmetry_space_group_name_H-M   'P 1'
_cell_length_a   8.69317522
_cell_length_b   8.69317522
_cell_length_c   6.61310802
_cell_angle_alpha   73.65423707
_cell_angle_beta   73.65423707
_cell_angle_gamma   93.42729455
_symmetry_Int_Tables_number   1
_chemical_formula_structural   Na2Fe3(PO4)3
_chemical_formula_sum   'Na4 Fe6 P6 O24'
_cell_volume   454.90530624
_cell_formula_units_Z   2
loop_
 _symmetry_equiv_pos_site_id
 _symmetry_equiv_pos_as_xyz
  1  'x, y, z'
loop_
 _atom_site_type_symbol
 _atom_site_label
 _atom_site_symmetry_multiplicity
 _atom_site_fract_x
 _atom_site_fract_y
 _atom_site_fract_z
 _atom_site_occupancy
  Na  Na0  1  0.98424300  0.01575700  0.75000000  1
  Na  Na1  1  0.01575700  0.98424300  0.25000000  1
  Na  Na2  1  0.50000000  0.50000000  0.50000000  1
  Na  Na3  1  0.50000000  0.50000000  0.00000000  1
  Fe  Fe0  1  0.94370300  0.61937200  0.62477500  1
  Fe  Fe1  1  0.61937200  0.94370300  0.12477500  1
  Fe  Fe2  1  0.05629700  0.38062800  0.37522500  1
  Fe  Fe3  1  0.73031100  0.26968900  0.25000000  1
  Fe  Fe4  1  0.26968900  0.73031100  0.75000000  1
  Fe  Fe5  1  0.38062800  0.05629700  0.87522500  1
  P  P0  1  0.12505200  0.34184900  0.88262600  1
  P  P1  1  0.65815100  0.87494800  0.61737400  1
  P  P2  1  0.29117700  0.70882300  0.25000000  1
  P  P3  1  0.34184900  0.12505200  0.38262600  1
  P  P4  1  0.70882300  0.29117700  0.75000000  1
  P  P5  1  0.87494800  0.65815100  0.11737400  1
  O  O0  1  0.60490200  0.95584300  0.80493300  1
  O  O1  1  0.26350000  0.53077200  0.25479800  1
  O  O2  1  0.52817700  0.72898500  0.66730200  1
  O  O3  1  0.95584300  0.60490200  0.30493300  1
  O  O4  1  0.27101500  0.47182300  0.83269800  1
  O  O5  1  0.32279400  0.99603500  0.61242300  1
  O  O6  1  0.53077200  0.26350000  0.75479800  1
  O  O7  1  0.82965000  0.82772600  0.60594600  1
  O  O8  1  0.67720600  0.00396500  0.38757700  1
  O  O9  1  0.26180500  0.82181700  0.03818700  1
  O  O10  1  0.99603500  0.32279400  0.11242300  1
  O  O11  1  0.82772600  0.82965000  0.10594600  1
  O  O12  1  0.47182300  0.27101500  0.33269800  1
  O  O13  1  0.04415700  0.39509800  0.69506700  1
  O  O14  1  0.73650000  0.46922800  0.74520200  1
  O  O15  1  0.00396500  0.67720600  0.88757700  1
  O  O16  1  0.46922800  0.73650000  0.24520200  1
  O  O17  1  0.39509800  0.04415700  0.19506700  1
  O  O18  1  0.17227400  0.17035000  0.89405400  1
  O  O19  1  0.73819500  0.17818300  0.96181300  1
  O  O20  1  0.17035000  0.17227400  0.39405400  1
  O  O21  1  0.17818300  0.73819500  0.46181300  1
  O  O22  1  0.82181700  0.26180500  0.53818700  1
  O  O23  1  0.72898500  0.52817700  0.16730200  1
loop_
_geom_bond_atom_site_label_1
_geom_bond_atom_site_label_2
_geom_bond_distance
_geom_bond_site_symmetry_2
Na0 O20 2.408354 1_655
Na0 O11 2.408354 1_546
Na0 O7 2.592284 1_545
Na0 O18 2.592284 1_655
Na0 O5 2.856546 1_645
Na0 O15 2.856546 1_645
Na0 O22 2.884239 1_555
Na0 O19 2.884239 1_555
Na1 O18 2.408354 1_564
Na1 O7 2.408354 1_455
Na1 O11 2.592284 1_455
Na1 O20 2.592284 1_565
Na1 O10 2.856546 1_465
Na1 O8 2.856546 1_465
Na1 O21 2.884239 1_555
Na1 O9 2.884239 1_555
Na2 O6 2.346749 1_555
Na2 O16 2.346749 1_555
Na2 O23 2.456917 1_555
Na2 O4 2.456917 1_555
Na2 O12 2.565247 1_555
Na2 O2 2.565247 1_555
Na3 O14 2.346749 1_554
Na3 O1 2.346749 1_555
Na3 O2 2.456917 1_554
Na3 O12 2.456917 1_555
Na3 O4 2.565247 1_554
Na3 O23 2.565247 1_555
Fe0 O14 1.977056 1_555
Fe0 O21 2.066053 1_655
Fe0 O7 2.106290 1_555
Fe0 O15 2.126128 1_655
Fe0 O3 2.127562 1_555
Fe0 O13 2.168352 1_655
Fe1 O16 1.977056 1_555
Fe1 O19 2.066053 1_564
Fe1 O11 2.106290 1_555
Fe1 O8 2.126128 1_565
Fe1 O0 2.127562 1_554
Fe1 O17 2.168352 1_565
Fe2 O1 1.977056 1_555
Fe2 O22 2.066053 1_455
Fe2 O20 2.106290 1_555
Fe2 O10 2.126128 1_455
Fe2 O13 2.127562 1_555
Fe2 O3 2.168352 1_455
Fe3 O23 2.159521 1_555
Fe3 O12 2.159521 1_555
Fe3 O10 2.197736 1_555
Fe3 O8 2.197736 1_555
Fe3 O22 2.248538 1_555
Fe3 O19 2.248538 1_554
Fe4 O2 2.159521 1_555
Fe4 O4 2.159521 1_555
Fe4 O5 2.197736 1_555
Fe4 O15 2.197736 1_555
Fe4 O9 2.248538 1_556
Fe4 O21 2.248538 1_555
Fe5 O6 1.977056 1_555
Fe5 O9 2.066053 1_546
Fe5 O18 2.106290 1_555
Fe5 O5 2.126128 1_545
Fe5 O17 2.127562 1_556
Fe5 O0 2.168352 1_545
O0 P1 1.566522 1_555
O1 P2 1.542142 1_555
O2 P1 1.542239 1_555
O3 P5 1.566522 1_555
O4 P0 1.542239 1_555
O5 P3 1.572099 1_565
O6 P4 1.542142 1_555
O7 P1 1.556966 1_555
O8 P1 1.572099 1_545
O9 P2 1.564924 1_555
O10 P0 1.572099 1_654
O11 P5 1.556966 1_555
O12 P3 1.542239 1_555
O13 P0 1.566522 1_555
O14 P4 1.542142 1_555
O15 P5 1.572099 1_456
O16 P2 1.542142 1_555
O17 P3 1.566522 1_555
O18 P0 1.556966 1_555
O19 P4 1.564924 1_555
O20 P3 1.556966 1_555
O21 P2 1.564924 1_555
O22 P4 1.564924 1_555
O23 P5 1.542239 1_555
