# generated using pymatgen
data_K4CO4
_symmetry_space_group_name_H-M   'P 1'
_cell_length_a   5.87925838
_cell_length_b   5.87925838
_cell_length_c   5.70421944
_cell_angle_alpha   81.10324829
_cell_angle_beta   81.10324829
_cell_angle_gamma   112.98826952
_symmetry_Int_Tables_number   1
_chemical_formula_structural   K4CO4
_chemical_formula_sum   'K4 C1 O4'
_cell_volume   174.24298230
_cell_formula_units_Z   1
loop_
 _symmetry_equiv_pos_site_id
 _symmetry_equiv_pos_as_xyz
  1  'x, y, z'
loop_
 _atom_site_type_symbol
 _atom_site_label
 _atom_site_symmetry_multiplicity
 _atom_site_fract_x
 _atom_site_fract_y
 _atom_site_fract_z
 _atom_site_occupancy
  K  K0  1  0.32998000  0.32998000  0.75033700  1
  K  K1  1  0.79882600  0.79882600  0.95815000  1
  K  K2  1  0.12617300  0.59420500  0.31576400  1
  K  K3  1  0.59420500  0.12617300  0.31576400  1
  C  C0  1  0.98857800  0.98857800  0.45472900  1
  O  O0  1  0.12950600  0.12950600  0.20791300  1
  O  O1  1  0.76745900  0.76745900  0.44587900  1
  O  O2  1  0.14799900  0.91012400  0.58119200  1
  O  O3  1  0.91012400  0.14799900  0.58119200  1
loop_
_geom_bond_atom_site_label_1
_geom_bond_atom_site_label_2
_geom_bond_distance
_geom_bond_site_symmetry_2
K0 O0 2.569610 1_556
K0 O2 2.676180 1_545
K0 O3 2.676180 1_455
K0 O1 2.883834 1_555
K1 O2 2.533037 1_655
K1 O3 2.533037 1_565
K1 O1 2.732072 1_556
K1 O0 2.889709 1_666
K1 O1 2.985552 1_555
K2 O3 2.522237 1_455
K2 O2 2.549985 1_555
K2 O1 2.731997 1_455
K2 O0 2.898470 1_555
K3 O2 2.522237 1_545
K3 O3 2.549985 1_555
K3 O1 2.731997 1_545
K3 O0 2.898470 1_555
C0 O3 1.433706 1_565
C0 O2 1.433706 1_655
C0 O0 1.448213 1_665
C0 O1 1.450228 1_555
