# generated using pymatgen
data_MgAs2S2(OF3)4
_symmetry_space_group_name_H-M   'P 1'
_cell_length_a   10.68822800
_cell_length_b   10.38397000
_cell_length_c   12.62628903
_cell_angle_alpha   88.79851148
_cell_angle_beta   90.00000000
_cell_angle_gamma   90.00000000
_symmetry_Int_Tables_number   1
_chemical_formula_structural   MgAs2S2(OF3)4
_chemical_formula_sum   'Mg4 As8 S8 O16 F48'
_cell_volume   1401.03622964
_cell_formula_units_Z   4
loop_
 _symmetry_equiv_pos_site_id
 _symmetry_equiv_pos_as_xyz
  1  'x, y, z'
loop_
 _atom_site_type_symbol
 _atom_site_label
 _atom_site_symmetry_multiplicity
 _atom_site_fract_x
 _atom_site_fract_y
 _atom_site_fract_z
 _atom_site_occupancy
  Mg  Mg0  1  0.76998800  0.24386200  0.25388600  1
  Mg  Mg1  1  0.26998800  0.25613800  0.24611400  1
  Mg  Mg2  1  0.23001200  0.75613800  0.74611400  1
  Mg  Mg3  1  0.73001200  0.74386200  0.75388600  1
  As  As0  1  0.48714300  0.99140000  0.69089200  1
  As  As1  1  0.51285700  0.00860000  0.30910800  1
  As  As2  1  0.47543300  0.48669800  0.74234700  1
  As  As3  1  0.97543300  0.01330200  0.75765300  1
  As  As4  1  0.01285700  0.49140000  0.19089200  1
  As  As5  1  0.98714300  0.50860000  0.80910800  1
  As  As6  1  0.52456700  0.51330200  0.25765300  1
  As  As7  1  0.02456700  0.98669800  0.24234700  1
  S  S0  1  0.22743900  0.69894300  0.47589600  1
  S  S1  1  0.19072800  0.26645400  0.50921000  1
  S  S2  1  0.30927200  0.76645400  0.00921000  1
  S  S3  1  0.80927200  0.73354600  0.49079000  1
  S  S4  1  0.27256100  0.19894300  0.97589600  1
  S  S5  1  0.77256100  0.30105700  0.52410400  1
  S  S6  1  0.72743900  0.80105700  0.02410400  1
  S  S7  1  0.69072800  0.23354600  0.99079000  1
  O  O0  1  0.77024600  0.23659700  0.42216900  1
  O  O1  1  0.27024600  0.26340300  0.07783100  1
  O  O2  1  0.44213200  0.77797600  0.99240000  1
  O  O3  1  0.23174700  0.75386200  0.91433200  1
  O  O4  1  0.22625200  0.56024300  0.47908100  1
  O  O5  1  0.22975400  0.76340300  0.57783100  1
  O  O6  1  0.72625200  0.93975700  0.02091900  1
  O  O7  1  0.77374800  0.43975700  0.52091900  1
  O  O8  1  0.73174700  0.74613800  0.58566800  1
  O  O9  1  0.27374800  0.06024300  0.97908100  1
  O  O10  1  0.94213200  0.72202400  0.50760000  1
  O  O11  1  0.26825300  0.25386200  0.41433200  1
  O  O12  1  0.55786800  0.22202400  0.00760000  1
  O  O13  1  0.05786800  0.27797600  0.49240000  1
  O  O14  1  0.72975400  0.73659700  0.92216900  1
  O  O15  1  0.76825300  0.24613800  0.08566800  1
  F  F0  1  0.51122300  0.48283300  0.39353800  1
  F  F1  1  0.48937600  0.08301900  0.80514400  1
  F  F2  1  0.37339000  0.08901500  0.63107900  1
  F  F3  1  0.86176200  0.60530600  0.74522600  1
  F  F4  1  0.01615900  0.38130400  0.08817000  1
  F  F5  1  0.01062400  0.58301900  0.30514400  1
  F  F6  1  0.40794500  0.63089800  0.25860500  1
  F  F7  1  0.40288500  0.11917800  0.23989800  1
  F  F8  1  0.86305500  0.87852700  0.75441000  1
  F  F9  1  0.61371200  0.07460000  0.63556300  1
  F  F10  1  0.63823800  0.10530600  0.24522600  1
  F  F11  1  0.98877700  0.98283300  0.89353800  1
  F  F12  1  0.48384100  0.88130400  0.58817000  1
  F  F13  1  0.88628800  0.57460000  0.13556300  1
  F  F14  1  0.35246900  0.37898400  0.72515400  1
  F  F15  1  0.59205500  0.36910200  0.74139500  1
  F  F16  1  0.46225700  0.47800800  0.88040300  1
  F  F17  1  0.09620100  0.88926800  0.73907200  1
  F  F18  1  0.98937600  0.41698100  0.69485600  1
  F  F19  1  0.51615900  0.11869600  0.41183000  1
  F  F20  1  0.87339000  0.41098500  0.86892100  1
  F  F21  1  0.13694500  0.12147300  0.24559000  1
  F  F22  1  0.09711500  0.61917800  0.73989800  1
  F  F23  1  0.59711500  0.88082200  0.76010200  1
  F  F24  1  0.90379900  0.11073200  0.26092800  1
  F  F25  1  0.36176200  0.89469400  0.75477400  1
  F  F26  1  0.64753100  0.62101600  0.27484600  1
  F  F27  1  0.53774300  0.52199200  0.11959700  1
  F  F28  1  0.85246900  0.12101600  0.77484600  1
  F  F29  1  0.90288500  0.38082200  0.26010200  1
  F  F30  1  0.03774300  0.97800800  0.38040300  1
  F  F31  1  0.59620100  0.61073200  0.76092800  1
  F  F32  1  0.98384100  0.61869600  0.91183000  1
  F  F33  1  0.12661000  0.58901500  0.13107900  1
  F  F34  1  0.14753100  0.87898400  0.22515400  1
  F  F35  1  0.63694500  0.37852700  0.25441000  1
  F  F36  1  0.01122300  0.01716700  0.10646200  1
  F  F37  1  0.40379900  0.38926800  0.23907200  1
  F  F38  1  0.48877700  0.51716700  0.60646200  1
  F  F39  1  0.90794500  0.86910200  0.24139500  1
  F  F40  1  0.38628800  0.92540000  0.36443700  1
  F  F41  1  0.11371200  0.42540000  0.86443700  1
  F  F42  1  0.51062400  0.91698100  0.19485600  1
  F  F43  1  0.13823800  0.39469400  0.25477400  1
  F  F44  1  0.36305500  0.62147300  0.74559000  1
  F  F45  1  0.09205500  0.13089800  0.75860500  1
  F  F46  1  0.96225700  0.02199200  0.61959700  1
  F  F47  1  0.62661000  0.91098500  0.36892100  1
loop_
_geom_bond_atom_site_label_1
_geom_bond_atom_site_label_2
_geom_bond_distance
_geom_bond_site_symmetry_2
Mg0 O15 2.123686 1_555
Mg0 O0 2.124549 1_555
Mg1 O11 2.123686 1_555
Mg1 O1 2.124549 1_555
Mg2 O3 2.123686 1_555
Mg2 O5 2.124549 1_555
Mg3 O8 2.123686 1_555
Mg3 O14 2.124549 1_555
As0 F9 1.743329 1_565
As0 F2 1.744681 1_565
As0 F1 1.744781 1_565
As0 F12 1.747173 1_555
As0 F25 1.849566 1_555
As0 F23 1.849755 1_555
As1 F40 1.743329 1_545
As1 F47 1.744681 1_545
As1 F42 1.744781 1_545
As1 F19 1.747173 1_555
As1 F10 1.849566 1_555
As1 F7 1.849755 1_555
As2 F14 1.742311 1_555
As2 F38 1.743957 1_555
As2 F15 1.745164 1_555
As2 F16 1.749256 1_555
As2 F31 1.841934 1_555
As2 F44 1.845365 1_555
As3 F28 1.742311 1_555
As3 F11 1.743957 1_545
As3 F45 1.745164 1_655
As3 F46 1.749256 1_555
As3 F17 1.841934 1_645
As3 F8 1.845365 1_545
As4 F13 1.743329 1_455
As4 F33 1.744681 1_555
As4 F5 1.744781 1_555
As4 F4 1.747173 1_555
As4 F43 1.849566 1_555
As4 F29 1.849755 1_455
As5 F41 1.743329 1_655
As5 F20 1.744681 1_555
As5 F18 1.744781 1_555
As5 F32 1.747173 1_555
As5 F3 1.849566 1_555
As5 F22 1.849755 1_655
As6 F26 1.742311 1_555
As6 F0 1.743957 1_555
As6 F6 1.745164 1_555
As6 F27 1.749256 1_555
As6 F37 1.841934 1_555
As6 F35 1.845365 1_555
As7 F34 1.742311 1_555
As7 F36 1.743957 1_565
As7 F39 1.745164 1_455
As7 F30 1.749256 1_555
As7 F24 1.841934 1_465
As7 F21 1.845365 1_565
O0 S5 1.463317 1_555
O1 S4 1.463317 1_554
O2 S2 1.440419 1_556
O3 S2 1.464702 1_556
O4 S0 1.440031 1_555
O5 S0 1.463317 1_555
O6 S6 1.440031 1_555
O7 S5 1.440031 1_555
O8 S3 1.464702 1_555
O9 S4 1.440031 1_555
O10 S3 1.440419 1_555
O11 S1 1.464702 1_555
O12 S7 1.440419 1_554
O13 S1 1.440419 1_555
O14 S6 1.463317 1_556
O15 S7 1.464702 1_554
F3 Mg3 2.017806 1_555
F7 Mg1 2.012733 1_555
F8 Mg3 1.994468 1_555
F10 Mg0 2.017806 1_555
F17 Mg2 1.989801 1_555
F21 Mg1 1.994468 1_555
F22 Mg2 2.012733 1_555
F23 Mg3 2.012733 1_555
F24 Mg0 1.989801 1_555
F25 Mg2 2.017806 1_555
F29 Mg0 2.012733 1_555
F31 Mg3 1.989801 1_555
F35 Mg0 1.994468 1_555
F37 Mg1 1.989801 1_555
F43 Mg1 2.017806 1_555
F44 Mg2 1.994468 1_555
