# generated using pymatgen
data_LiCu2Sn
_symmetry_space_group_name_H-M   'P 1'
_cell_length_a   4.25720604
_cell_length_b   4.25720464
_cell_length_c   7.61161454
_cell_angle_alpha   90.00000000
_cell_angle_beta   90.00000000
_cell_angle_gamma   119.99998713
_symmetry_Int_Tables_number   1
_chemical_formula_structural   LiCu2Sn
_chemical_formula_sum   'Li2 Cu4 Sn2'
_cell_volume   119.46939695
_cell_formula_units_Z   2
loop_
 _symmetry_equiv_pos_site_id
 _symmetry_equiv_pos_as_xyz
  1  'x, y, z'
loop_
 _atom_site_type_symbol
 _atom_site_label
 _atom_site_symmetry_multiplicity
 _atom_site_fract_x
 _atom_site_fract_y
 _atom_site_fract_z
 _atom_site_occupancy
  Li  Li0  1  -0.00000000  -0.00000000  0.50000000  1
  Li  Li1  1  -0.00000000  -0.00000000  -0.00000000  1
  Cu  Cu0  1  0.66666700  0.33333300  0.41060645  1
  Cu  Cu1  1  0.33333300  0.66666700  0.91060645  1
  Cu  Cu2  1  0.66666700  0.33333300  0.08939355  1
  Cu  Cu3  1  0.33333300  0.66666700  0.58939355  1
  Sn  Sn0  1  0.66666700  0.33333300  0.75000000  1
  Sn  Sn1  1  0.33333300  0.66666700  0.25000000  1
loop_
_geom_bond_atom_site_label_1
_geom_bond_atom_site_label_2
_geom_bond_distance
_geom_bond_site_symmetry_2
Li0 Sn1 3.108423 1_545
Li0 Sn0 3.108423 1_455
Li0 Sn1 3.108426 1_555
Li0 Sn0 3.108426 1_445
Li0 Sn0 3.108427 1_555
Li0 Sn1 3.108427 1_445
Li1 Sn0 3.108423 1_454
Li1 Sn1 3.108423 1_545
Li1 Sn1 3.108426 1_555
Li1 Sn0 3.108426 1_444
Li1 Sn1 3.108427 1_445
Li1 Sn0 3.108427 1_554
Cu0 Cu2 2.444949 1_555
Cu0 Li0 2.550341 1_655
Cu0 Li0 2.550344 1_665
Cu0 Li0 2.550345 1_555
Cu0 Sn0 2.583333 1_555
Cu0 Sn1 2.745122 1_545
Cu0 Sn1 2.745123 1_655
Cu0 Sn1 2.745129 1_555
Cu0 Cu3 2.809482 1_545
Cu0 Cu3 2.809483 1_655
Cu0 Cu3 2.809488 1_555
Cu1 Cu3 2.444949 1_555
Cu1 Li1 2.550341 1_566
Cu1 Li1 2.550344 1_556
Cu1 Li1 2.550345 1_666
Cu1 Sn1 2.583333 1_556
Cu1 Sn0 2.745122 1_565
Cu1 Sn0 2.745123 1_455
Cu1 Sn0 2.745129 1_555
Cu1 Cu2 2.809482 1_566
Cu1 Cu2 2.809483 1_456
Cu1 Cu2 2.809488 1_556
Cu2 Li1 2.550341 1_655
Cu2 Li1 2.550344 1_665
Cu2 Li1 2.550345 1_555
Cu2 Sn0 2.583333 1_554
Cu2 Sn1 2.745122 1_545
Cu2 Sn1 2.745123 1_655
Cu2 Sn1 2.745129 1_555
Cu3 Li0 2.550341 1_565
Cu3 Li0 2.550344 1_555
Cu3 Li0 2.550345 1_665
Cu3 Sn1 2.583333 1_555
Cu3 Sn0 2.745122 1_565
Cu3 Sn0 2.745123 1_455
Cu3 Sn0 2.745129 1_555
