# generated using pymatgen
data_Sr
_symmetry_space_group_name_H-M   'P 1'
_cell_length_a   7.15361214
_cell_length_b   6.88334472
_cell_length_c   6.88326127
_cell_angle_alpha   74.33452077
_cell_angle_beta   58.69201280
_cell_angle_gamma   58.69244694
_symmetry_Int_Tables_number   1
_chemical_formula_structural   Sr
_chemical_formula_sum   Sr4
_cell_volume   247.41716059
_cell_formula_units_Z   4
loop_
 _symmetry_equiv_pos_site_id
 _symmetry_equiv_pos_as_xyz
  1  'x, y, z'
loop_
 _atom_site_type_symbol
 _atom_site_label
 _atom_site_symmetry_multiplicity
 _atom_site_fract_x
 _atom_site_fract_y
 _atom_site_fract_z
 _atom_site_occupancy
  Sr  Sr0  1  0.33545222  0.82909556  0.50000000  1
  Sr  Sr1  1  0.66454778  0.17090444  0.50000000  1
  Sr  Sr2  1  0.16455125  0.50000000  0.17089949  1
  Sr  Sr3  1  0.83544875  0.50000000  0.82910051  1
loop_
_geom_bond_atom_site_label_1
_geom_bond_atom_site_label_2
_geom_bond_distance
_geom_bond_site_symmetry_2
Sr0 Sr1 3.870864 1_555
Sr0 Sr1 4.102979 1_565
Sr0 Sr1 4.102980 1_465
Sr0 Sr3 4.394673 1_554
Sr0 Sr2 4.394674 1_556
Sr0 Sr3 4.394757 1_465
Sr0 Sr2 4.394758 1_565
Sr0 Sr2 4.503917 1_555
Sr0 Sr3 4.503918 1_555
Sr0 Sr3 4.503928 1_455
Sr0 Sr2 4.503929 1_655
Sr1 Sr2 4.394673 1_556
Sr1 Sr3 4.394674 1_554
Sr1 Sr2 4.394757 1_645
Sr1 Sr3 4.394758 1_545
Sr1 Sr3 4.503917 1_555
Sr1 Sr2 4.503918 1_555
Sr1 Sr2 4.503928 1_655
Sr1 Sr3 4.503929 1_455
Sr2 Sr3 3.870857 1_455
Sr2 Sr3 4.102923 1_554
Sr2 Sr3 4.102947 1_454
