# generated using pymatgen
data_Rb2NaAl6F21
_symmetry_space_group_name_H-M   'P 1'
_cell_length_a   7.07552163
_cell_length_b   7.07552163
_cell_length_c   10.35445545
_cell_angle_alpha   70.06415239
_cell_angle_beta   70.06415239
_cell_angle_gamma   60.05991163
_symmetry_Int_Tables_number   1
_chemical_formula_structural   Rb2NaAl6F21
_chemical_formula_sum   'Rb2 Na1 Al6 F21'
_cell_volume   412.89334330
_cell_formula_units_Z   1
loop_
 _symmetry_equiv_pos_site_id
 _symmetry_equiv_pos_as_xyz
  1  'x, y, z'
loop_
 _atom_site_type_symbol
 _atom_site_label
 _atom_site_symmetry_multiplicity
 _atom_site_fract_x
 _atom_site_fract_y
 _atom_site_fract_z
 _atom_site_occupancy
  Rb  Rb0  1  0.13416300  0.13689800  0.59350800  1
  Rb  Rb1  1  0.86310200  0.86583700  0.40649200  1
  Na  Na0  1  0.51407700  0.48592300  0.50000000  1
  Al  Al0  1  0.45653900  0.91477000  0.19212400  1
  Al  Al1  1  0.08523000  0.54346100  0.80787600  1
  Al  Al2  1  0.95900000  0.41605100  0.18998600  1
  Al  Al3  1  0.46087900  0.41156300  0.19076600  1
  Al  Al4  1  0.58843700  0.53912100  0.80923400  1
  Al  Al5  1  0.58394900  0.04100000  0.81001400  1
  F  F0  1  0.67978200  0.56710000  0.62487700  1
  F  F1  1  0.43290000  0.32021800  0.37512300  1
  F  F2  1  0.16573600  0.49007100  0.20394200  1
  F  F3  1  0.50992900  0.83426400  0.79605800  1
  F  F4  1  0.86970400  0.45637300  0.82888500  1
  F  F5  1  0.51286500  0.95741300  0.00071400  1
  F  F6  1  0.75640700  0.34293300  0.16870000  1
  F  F7  1  0.13717300  0.59538400  0.62203600  1
  F  F8  1  0.87555400  0.83238300  0.81191700  1
  F  F9  1  0.75045600  0.70858800  0.18605100  1
  F  F10  1  0.65706700  0.24359300  0.83130000  1
  F  F11  1  0.49272100  0.50727900  0.00000000  1
  F  F12  1  0.87911200  0.35029500  0.37441300  1
  F  F13  1  0.30192400  0.62577000  0.79481300  1
  F  F14  1  0.40461600  0.86282700  0.37796400  1
  F  F15  1  0.29141200  0.24954400  0.81394900  1
  F  F16  1  0.54362700  0.13029600  0.17111500  1
  F  F17  1  0.37423000  0.69807600  0.20518700  1
  F  F18  1  0.16761700  0.12444600  0.18808300  1
  F  F19  1  0.04258700  0.48713500  0.99928600  1
  F  F20  1  0.64970500  0.12088800  0.62558700  1
loop_
_geom_bond_atom_site_label_1
_geom_bond_atom_site_label_2
_geom_bond_distance
_geom_bond_site_symmetry_2
Al0 F14 1.772929 1_555
Al0 F5 1.830729 1_555
Al0 F18 1.835880 1_565
Al0 F16 1.836532 1_565
Al0 F9 1.844458 1_555
Al0 F17 1.845100 1_555
Al1 F7 1.772929 1_555
Al1 F19 1.830729 1_555
Al1 F8 1.835880 1_455
Al1 F4 1.836532 1_455
Al1 F15 1.844458 1_555
Al1 F13 1.845100 1_555
Al2 F12 1.761599 1_555
Al2 F19 1.823474 1_654
Al2 F2 1.842640 1_655
Al2 F9 1.843381 1_555
Al2 F18 1.845021 1_655
Al2 F6 1.845120 1_555
Al3 F1 1.769051 1_555
Al3 F11 1.829675 1_555
Al3 F16 1.837544 1_555
Al3 F2 1.840547 1_555
Al3 F6 1.843004 1_555
Al3 F17 1.846947 1_555
Al4 F0 1.769051 1_555
Al4 F11 1.829675 1_556
Al4 F4 1.837544 1_555
Al4 F3 1.840547 1_555
Al4 F10 1.843004 1_555
Al4 F13 1.846947 1_555
Al5 F20 1.761599 1_555
Al5 F5 1.823474 1_546
Al5 F3 1.842640 1_545
Al5 F15 1.843381 1_555
Al5 F8 1.845021 1_545
Al5 F10 1.845120 1_555
F0 Na0 2.364097 1_555
F0 Rb1 2.956461 1_555
F0 Rb0 3.146538 1_655
F1 Na0 2.364097 1_555
F1 Rb0 2.956461 1_555
F1 Rb1 3.146538 1_545
F2 Rb1 3.333154 1_455
F3 Rb0 3.333154 1_565
F4 Rb0 3.312979 1_655
F6 Rb1 3.329189 1_545
F7 Na0 2.369826 1_555
F7 Rb1 2.956060 1_455
F7 Rb0 3.367217 1_555
F8 Rb0 3.300827 1_665
F9 Rb1 3.307694 1_555
F10 Rb0 3.329189 1_655
F12 Na0 2.317187 1_555
F12 Rb0 2.901573 1_655
F12 Rb1 3.385030 1_545
F13 Rb0 3.330825 1_565
F14 Na0 2.369826 1_555
F14 Rb0 2.956060 1_565
F14 Rb1 3.367217 1_555
F15 Rb0 3.307694 1_555
F16 Rb1 3.312979 1_545
F17 Rb1 3.330825 1_455
F18 Rb1 3.300827 1_445
F20 Na0 2.317187 1_555
F20 Rb1 2.901573 1_545
F20 Rb0 3.385030 1_655
