# generated using pymatgen
data_SrHg2(ClO)2
_symmetry_space_group_name_H-M   'P 1'
_cell_length_a   7.16406100
_cell_length_b   8.45403600
_cell_length_c   11.78532990
_cell_angle_alpha   57.90635609
_cell_angle_beta   90.00000000
_cell_angle_gamma   90.00000000
_symmetry_Int_Tables_number   1
_chemical_formula_structural   SrHg2(ClO)2
_chemical_formula_sum   'Sr4 Hg8 Cl8 O8'
_cell_volume   604.70178529
_cell_formula_units_Z   4
loop_
 _symmetry_equiv_pos_site_id
 _symmetry_equiv_pos_as_xyz
  1  'x, y, z'
loop_
 _atom_site_type_symbol
 _atom_site_label
 _atom_site_symmetry_multiplicity
 _atom_site_fract_x
 _atom_site_fract_y
 _atom_site_fract_z
 _atom_site_occupancy
  Sr  Sr0  1  0.37635200  0.65149800  0.62458600  1
  Sr  Sr1  1  0.62364800  0.34850200  0.37541400  1
  Sr  Sr2  1  0.12364800  0.65149800  0.12458600  1
  Sr  Sr3  1  0.87635200  0.34850200  0.87541400  1
  Hg  Hg0  1  0.66977900  0.89536600  0.13217800  1
  Hg  Hg1  1  0.93666000  0.73500100  0.39339200  1
  Hg  Hg2  1  0.43666000  0.26499900  0.10660800  1
  Hg  Hg3  1  0.83022100  0.89536600  0.63217800  1
  Hg  Hg4  1  0.33022100  0.10463400  0.86782200  1
  Hg  Hg5  1  0.16977900  0.10463400  0.36782200  1
  Hg  Hg6  1  0.06334000  0.26499900  0.60660800  1
  Hg  Hg7  1  0.56334000  0.73500100  0.89339200  1
  Cl  Cl0  1  0.60004000  0.95455000  0.38751700  1
  Cl  Cl1  1  0.18099200  0.58784300  0.87313200  1
  Cl  Cl2  1  0.39996000  0.04545000  0.61248300  1
  Cl  Cl3  1  0.10004000  0.04545000  0.11248300  1
  Cl  Cl4  1  0.89996000  0.95455000  0.88751700  1
  Cl  Cl5  1  0.68099200  0.41215700  0.62686800  1
  Cl  Cl6  1  0.81900800  0.41215700  0.12686800  1
  Cl  Cl7  1  0.31900800  0.58784300  0.37313200  1
  O  O0  1  0.31807000  0.34909700  0.22981600  1
  O  O1  1  0.07859900  0.82655200  0.50311200  1
  O  O2  1  0.18193000  0.34909700  0.72981600  1
  O  O3  1  0.92140100  0.17344800  0.49688800  1
  O  O4  1  0.81807000  0.65090300  0.27018400  1
  O  O5  1  0.42140100  0.82655200  0.00311200  1
  O  O6  1  0.68193000  0.65090300  0.77018400  1
  O  O7  1  0.57859900  0.17344800  0.99688800  1
loop_
_geom_bond_atom_site_label_1
_geom_bond_atom_site_label_2
_geom_bond_distance
_geom_bond_site_symmetry_2
Hg0 O4 2.115033 1_555
Hg0 O7 2.124302 1_564
Hg0 O5 2.599748 1_555
Hg1 O1 2.090118 1_655
Hg1 O4 2.105399 1_555
Hg2 O7 2.090118 1_554
Hg2 O0 2.105399 1_555
Hg3 O6 2.115033 1_555
Hg3 O3 2.124302 1_565
Hg3 O1 2.599748 1_655
Hg4 O2 2.115033 1_555
Hg4 O5 2.124302 1_546
Hg4 O7 2.599748 1_555
Hg5 O0 2.115033 1_555
Hg5 O1 2.124302 1_545
Hg5 O3 2.599748 1_455
Hg6 O3 2.090118 1_455
Hg6 O2 2.105399 1_555
Hg7 O5 2.090118 1_556
Hg7 O6 2.105399 1_555
Cl0 Hg1 3.021407 1_555
Cl0 Sr0 3.054796 1_555
Cl0 Sr1 3.261331 1_565
Cl1 Sr3 2.966507 1_455
Cl1 Sr0 3.025487 1_555
Cl1 Hg7 3.069758 1_555
Cl1 Sr2 3.306830 1_556
Cl2 Hg6 3.021407 1_555
Cl2 Sr1 3.054796 1_555
Cl2 Sr0 3.261331 1_545
Cl3 Hg2 3.021407 1_555
Cl3 Sr3 3.054796 1_454
Cl3 Sr2 3.261331 1_545
Cl4 Hg7 3.021407 1_555
Cl4 Sr2 3.054796 1_656
Cl4 Sr3 3.261331 1_565
Cl5 Sr0 2.966507 1_555
Cl5 Sr3 3.025487 1_555
Cl5 Hg6 3.069758 1_655
Cl5 Sr1 3.306830 1_555
Cl6 Sr2 2.966507 1_655
Cl6 Sr1 3.025487 1_555
Cl6 Hg2 3.069758 1_555
Cl6 Sr3 3.306830 1_554
Cl7 Sr1 2.966507 1_555
Cl7 Sr2 3.025487 1_555
Cl7 Hg1 3.069758 1_455
Cl7 Sr0 3.306830 1_555
O0 Sr2 2.577748 1_555
O0 Sr1 2.779882 1_555
O1 Sr0 2.557059 1_555
O2 Sr0 2.577748 1_555
O2 Sr3 2.779882 1_455
O3 Sr1 2.557059 1_555
O4 Sr1 2.577748 1_555
O4 Sr2 2.779882 1_655
O5 Sr2 2.557059 1_555
O6 Sr3 2.577748 1_555
O6 Sr0 2.779882 1_555
O7 Sr3 2.557059 1_555
