# generated using pymatgen
data_LaPb6ClO7
_symmetry_space_group_name_H-M   'P 1'
_cell_length_a   10.38557913
_cell_length_b   10.38557913
_cell_length_c   9.81468672
_cell_angle_alpha   64.05111533
_cell_angle_beta   64.05111533
_cell_angle_gamma   46.53626280
_symmetry_Int_Tables_number   1
_chemical_formula_structural   LaPb6ClO7
_chemical_formula_sum   'La2 Pb12 Cl2 O14'
_cell_volume   675.59575536
_cell_formula_units_Z   2
loop_
 _symmetry_equiv_pos_site_id
 _symmetry_equiv_pos_as_xyz
  1  'x, y, z'
loop_
 _atom_site_type_symbol
 _atom_site_label
 _atom_site_symmetry_multiplicity
 _atom_site_fract_x
 _atom_site_fract_y
 _atom_site_fract_z
 _atom_site_occupancy
  La  La0  1  0.50000000  0.00000000  0.00000000  1
  La  La1  1  0.00000000  0.50000000  0.00000000  1
  Pb  Pb0  1  0.20094700  0.20094700  0.72987400  1
  Pb  Pb1  1  0.63398200  0.10023700  0.55942800  1
  Pb  Pb2  1  0.05449800  0.05449800  0.17391300  1
  Pb  Pb3  1  0.43794900  0.43794900  0.76213200  1
  Pb  Pb4  1  0.89976300  0.36601800  0.44057200  1
  Pb  Pb5  1  0.34552800  0.34552800  0.20457400  1
  Pb  Pb6  1  0.65447200  0.65447200  0.79542600  1
  Pb  Pb7  1  0.56205100  0.56205100  0.23786800  1
  Pb  Pb8  1  0.79905300  0.79905300  0.27012600  1
  Pb  Pb9  1  0.10023700  0.63398200  0.55942800  1
  Pb  Pb10  1  0.36601800  0.89976300  0.44057200  1
  Pb  Pb11  1  0.94550200  0.94550200  0.82608700  1
  Cl  Cl0  1  0.73365500  0.26634500  0.00000000  1
  Cl  Cl1  1  0.26634500  0.73365500  0.00000000  1
  O  O0  1  0.04096900  0.47715500  0.25908800  1
  O  O1  1  0.33024300  0.33024300  0.98943300  1
  O  O2  1  0.65385100  0.65385100  0.37768200  1
  O  O3  1  0.11404800  0.66945500  0.75767800  1
  O  O4  1  0.66945500  0.11404800  0.75767800  1
  O  O5  1  0.88595200  0.33054500  0.24232200  1
  O  O6  1  0.66975700  0.66975700  0.01056700  1
  O  O7  1  0.33054500  0.88595200  0.24232200  1
  O  O8  1  0.47715500  0.04096900  0.25908800  1
  O  O9  1  0.81954200  0.81954200  0.02839400  1
  O  O10  1  0.52284500  0.95903100  0.74091200  1
  O  O11  1  0.34614900  0.34614900  0.62231800  1
  O  O12  1  0.18045800  0.18045800  0.97160600  1
  O  O13  1  0.95903100  0.52284500  0.74091200  1
loop_
_geom_bond_atom_site_label_1
_geom_bond_atom_site_label_2
_geom_bond_distance
_geom_bond_site_symmetry_2
La0 O9 2.529583 1_545
La0 O12 2.529583 1_554
La0 O1 2.532182 1_554
La0 O6 2.532182 1_545
La0 O7 2.626051 1_545
La0 O4 2.626051 1_554
La0 O8 2.642630 1_555
La0 O10 2.642630 1_544
La1 O9 2.529583 1_455
La1 O12 2.529583 1_554
La1 O1 2.532182 1_554
La1 O6 2.532182 1_455
La1 O5 2.626051 1_455
La1 O3 2.626051 1_554
La1 O0 2.642630 1_555
La1 O13 2.642630 1_454
O0 Pb4 2.213399 1_455
O0 Pb5 2.317319 1_555
O0 Pb8 2.454266 1_455
O1 Pb3 2.198424 1_555
O1 Pb5 2.265029 1_556
O2 Pb4 2.258518 1_555
O2 Pb10 2.258518 1_555
O2 Pb8 2.450496 1_555
O2 Pb7 2.690974 1_555
O3 Pb9 2.210556 1_555
O3 Pb11 2.342179 1_455
O3 Pb3 2.451112 1_555
O4 Pb1 2.210556 1_555
O4 Pb11 2.342179 1_545
O4 Pb3 2.451112 1_555
O5 Pb4 2.210556 1_555
O5 Pb2 2.342179 1_655
O5 Pb7 2.451112 1_555
O6 Pb7 2.198424 1_555
O6 Pb6 2.265029 1_554
O7 Pb10 2.210556 1_555
O7 Pb2 2.342179 1_565
O7 Pb7 2.451112 1_555
O8 Pb10 2.213399 1_545
O8 Pb5 2.317319 1_555
O8 Pb8 2.454266 1_545
O9 Pb8 2.213165 1_555
O9 Pb11 2.274474 1_554
O10 Pb1 2.213399 1_565
O10 Pb6 2.317319 1_555
O10 Pb0 2.454266 1_565
O11 Pb1 2.258518 1_555
O11 Pb9 2.258518 1_555
O11 Pb0 2.450496 1_555
O11 Pb3 2.690974 1_555
O12 Pb0 2.213165 1_555
O12 Pb2 2.274474 1_556
O13 Pb9 2.213399 1_655
O13 Pb6 2.317319 1_555
O13 Pb0 2.454266 1_655
