# generated using pymatgen
data_Li15Au4
_symmetry_space_group_name_H-M   'P 1'
_cell_length_a   9.26747131
_cell_length_b   9.26747167
_cell_length_c   9.26747222
_cell_angle_alpha   109.47122186
_cell_angle_beta   109.47122264
_cell_angle_gamma   109.47121470
_symmetry_Int_Tables_number   1
_chemical_formula_structural   Li15Au4
_chemical_formula_sum   'Li30 Au8'
_cell_volume   612.71982749
_cell_formula_units_Z   2
loop_
 _symmetry_equiv_pos_site_id
 _symmetry_equiv_pos_as_xyz
  1  'x, y, z'
loop_
 _atom_site_type_symbol
 _atom_site_label
 _atom_site_symmetry_multiplicity
 _atom_site_fract_x
 _atom_site_fract_y
 _atom_site_fract_z
 _atom_site_occupancy
  Li  Li0  1  0.96553394  0.38586032  0.65944681  1
  Li  Li1  1  0.69391288  0.03446606  0.92032538  1
  Li  Li2  1  0.92032538  0.69391288  0.03446606  1
  Li  Li3  1  0.12500000  0.75000000  0.87500000  1
  Li  Li4  1  0.88585932  0.46553394  0.15944681  1
  Li  Li5  1  0.27358649  0.11413968  0.07967462  1
  Li  Li6  1  0.19391288  0.42032538  0.53446606  1
  Li  Li7  1  0.77358649  0.57967462  0.61414068  1
  Li  Li8  1  0.61414068  0.77358649  0.57967462  1
  Li  Li9  1  0.42032538  0.53446606  0.19391288  1
  Li  Li10  1  0.80608712  0.72641351  0.34055319  1
  Li  Li11  1  0.46553394  0.15944681  0.88585932  1
  Li  Li12  1  0.30608712  0.84055319  0.22641351  1
  Li  Li13  1  0.11413968  0.07967462  0.27358649  1
  Li  Li14  1  0.53446606  0.19391288  0.42032538  1
  Li  Li15  1  0.62500000  0.37500000  0.25000000  1
  Li  Li16  1  0.65944681  0.96553394  0.38586032  1
  Li  Li17  1  0.87500000  0.12500000  0.75000000  1
  Li  Li18  1  0.57967462  0.61414068  0.77358649  1
  Li  Li19  1  0.38586032  0.65944681  0.96553394  1
  Li  Li20  1  0.72641351  0.34055319  0.80608712  1
  Li  Li21  1  0.07967462  0.27358649  0.11413968  1
  Li  Li22  1  0.34055319  0.80608712  0.72641351  1
  Li  Li23  1  0.84055319  0.22641351  0.30608712  1
  Li  Li24  1  0.03446606  0.92032538  0.69391288  1
  Li  Li25  1  0.15944681  0.88585932  0.46553394  1
  Li  Li26  1  0.75000000  0.87500000  0.12500000  1
  Li  Li27  1  0.22641351  0.30608712  0.84055319  1
  Li  Li28  1  0.37500000  0.25000000  0.62500000  1
  Li  Li29  1  0.25000000  0.62500000  0.37500000  1
  Au  Au0  1  0.50000000  -0.00000000  0.09014116  1
  Au  Au1  1  0.90985884  0.90985884  0.90985884  1
  Au  Au2  1  0.40985884  0.40985884  0.40985884  1
  Au  Au3  1  0.00000000  0.09014116  0.50000000  1
  Au  Au4  1  0.09014116  0.50000000  -0.00000000  1
  Au  Au5  1  0.59014116  0.50000000  -0.00000000  1
  Au  Au6  1  0.50000000  -0.00000000  0.59014116  1
  Au  Au7  1  0.00000000  0.59014116  0.50000000  1
loop_
_geom_bond_atom_site_label_1
_geom_bond_atom_site_label_2
_geom_bond_distance
_geom_bond_site_symmetry_2
Li0 Li6 2.711711 1_655
Li0 Li23 2.711712 1_555
Li0 Li17 2.778900 1_555
Li0 Li3 2.788494 1_655
Li0 Li27 2.919316 1_655
Li0 Li20 2.949879 1_555
Li0 Li7 2.949885 1_555
Li1 Li11 2.711711 1_555
Li1 Li22 2.711711 1_545
Li1 Li17 2.778892 1_555
Li1 Li26 2.788502 1_546
Li1 Li8 2.919306 1_545
Li1 Li21 2.949886 1_656
Li1 Li23 2.949887 1_556
Li2 Li4 2.711711 1_555
Li2 Li20 2.711712 1_554
Li2 Li26 2.778892 1_555
Li2 Li3 2.788502 1_654
Li3 Li7 2.778898 1_455
Li3 Li5 2.788495 1_566
Li7 Li8 2.711696 1_555
Li8 Li9 2.949885 1_555
Li10 Li25 2.711711 1_655
Li10 Li24 2.711712 1_655
Li10 Li15 2.778900 1_555
Li10 Li26 2.788494 1_555
Li10 Li4 2.919309 1_555
Li10 Li16 2.949879 1_555
Li10 Li9 2.949887 1_555
Li11 Li22 2.711711 1_545
Li11 Li28 2.778892 1_555
Li11 Li15 2.788502 1_556
Li11 Li20 2.919309 1_555
Li11 Li27 2.949878 1_555
Li11 Li5 2.949895 1_556
Li12 Li16 2.711711 1_555
Li12 Li14 2.711712 1_565
Li12 Li3 2.778900 1_554
Li12 Li29 2.788494 1_555
Li12 Li19 2.919316 1_554
Li12 Li25 2.949879 1_555
Li12 Li2 2.949887 1_455
Li13 Li21 2.711702 1_555
Li13 Li5 2.711702 1_555
Li13 Li28 2.778901 1_555
Li13 Li26 2.788495 1_445
Li13 Li6 2.919302 1_555
Li13 Li2 2.949886 1_445
Li13 Li25 2.949895 1_545
Li14 Li16 2.711711 1_545
Li14 Li15 2.778892 1_555
Li14 Li28 2.788502 1_555
Li14 Li5 2.919302 1_555
Li14 Li7 2.949885 1_555
Li14 Li20 2.949887 1_555
Li15 Li4 2.778892 1_555
Li15 Li5 2.778901 1_555
Li15 Li23 2.788494 1_555
Li15 Li9 2.788502 1_555
Li15 Li7 2.788503 1_555
Li16 Li26 2.778900 1_555
Li16 Li17 2.788494 1_565
Li16 Li23 2.919316 1_565
Li16 Li8 2.949886 1_555
Li17 Li8 2.778898 1_545
Li17 Li27 2.778900 1_655
Li17 Li20 2.788494 1_555
Li17 Li21 2.788496 1_656
Li17 Li24 2.788502 1_645
Li18 Li7 2.711696 1_555
Li18 Li8 2.711697 1_555
Li18 Li26 2.778898 1_556
Li18 Li28 2.788503 1_555
Li18 Li2 2.919306 1_556
Li18 Li6 2.949885 1_555
Li18 Li19 2.949886 1_555
Li19 Li9 2.711712 1_556
Li19 Li27 2.711712 1_555
Li19 Li3 2.778900 1_555
Li19 Li26 2.788494 1_556
Li19 Li22 2.949879 1_555
Li20 Li4 2.711712 1_556
Li20 Li28 2.778900 1_555
Li21 Li5 2.711702 1_555
Li21 Li29 2.778901 1_555
Li21 Li9 2.919302 1_555
Li21 Li4 2.949895 1_455
Li22 Li29 2.778900 1_555
Li22 Li3 2.788494 1_555
Li22 Li25 2.919309 1_555
Li22 Li6 2.949887 1_555
Li23 Li6 2.711711 1_655
Li23 Li26 2.778900 1_545
Li23 Li4 2.949879 1_555
Li24 Li25 2.711711 1_555
Li24 Li3 2.778892 1_555
Li24 Li7 2.919306 1_455
Li24 Li5 2.949886 1_566
Li24 Li27 2.949887 1_565
Li25 Li29 2.778892 1_555
Li25 Li28 2.788502 1_565
Li27 Li9 2.711712 1_556
Li27 Li28 2.788494 1_555
Li28 Li6 2.778892 1_555
Li29 Li9 2.778892 1_555
Li29 Li4 2.788502 1_455
Li29 Li6 2.788502 1_555
Li29 Li8 2.788503 1_555
Au0 Li23 2.635053 1_555
Au0 Li19 2.635053 1_544
Au0 Li5 2.635053 1_555
Au0 Li22 2.765161 1_544
Au0 Li11 2.765169 1_554
Au0 Li1 2.765169 1_554
Au0 Li14 2.827486 1_555
Au0 Li16 2.827494 1_545
Au0 Li12 2.827494 1_545
Au0 Li26 2.890330 1_545
Au0 Li3 2.890331 1_544
Au0 Li15 2.890331 1_555
Au1 Li1 2.635051 1_565
Au1 Li2 2.635051 1_556
Au1 Li24 2.635051 1_655
Au1 Li5 2.765161 1_666
Au1 Li21 2.765161 1_666
Au1 Li13 2.765161 1_666
Au1 Li8 2.827484 1_555
Au1 Li7 2.827484 1_555
Au1 Li18 2.827484 1_555
Au1 Li3 2.890330 1_655
Au1 Li17 2.890331 1_565
Au1 Li26 2.890331 1_556
Au2 Li14 2.635051 1_555
Au2 Li6 2.635051 1_555
Au2 Li9 2.635051 1_555
Au2 Li7 2.765161 1_555
Au2 Li8 2.765161 1_555
Au2 Li18 2.765162 1_555
Au2 Li21 2.827488 1_555
Au2 Li5 2.827488 1_555
Au2 Li13 2.827488 1_555
Au2 Li29 2.890331 1_555
Au2 Li15 2.890331 1_555
Au2 Li28 2.890331 1_555
Au3 Li16 2.635053 1_445
Au3 Li27 2.635053 1_555
Au3 Li13 2.635054 1_555
Au3 Li10 2.765161 1_445
Au3 Li25 2.765169 1_545
Au3 Li24 2.765169 1_545
Au3 Li6 2.827486 1_555
Au3 Li0 2.827494 1_455
Au3 Li23 2.827494 1_455
Au3 Li28 2.890331 1_555
Au3 Li17 2.890331 1_455
Au3 Li26 2.890331 1_445
Au4 Li12 2.635053 1_555
Au4 Li0 2.635053 1_454
Au4 Li21 2.635054 1_555
Au4 Li20 2.765161 1_454
Au4 Li2 2.765169 1_455
Au4 Li4 2.765169 1_455
Au4 Li9 2.827486 1_555
Au4 Li27 2.827494 1_554
Au4 Li19 2.827494 1_554
Au4 Li3 2.890331 1_554
Au4 Li17 2.890331 1_454
Au4 Li29 2.890331 1_555
Au5 Li11 2.635051 1_554
Au5 Li10 2.635053 1_555
Au5 Li18 2.635060 1_554
Au5 Li19 2.765161 1_554
Au5 Li27 2.765161 1_554
Au5 Li9 2.765169 1_555
Au5 Li4 2.827486 1_555
Au5 Li2 2.827486 1_555
Au5 Li20 2.827494 1_554
Au5 Li26 2.890331 1_555
Au5 Li15 2.890331 1_555
Au5 Li28 2.890331 1_554
Au6 Li25 2.635051 1_545
Au6 Li20 2.635053 1_555
Au6 Li8 2.635060 1_545
Au6 Li16 2.765161 1_545
Au6 Li12 2.765161 1_545
Au6 Li14 2.765169 1_555
Au6 Li11 2.827486 1_555
Au6 Li1 2.827486 1_555
Au6 Li22 2.827494 1_545
Au6 Li28 2.890331 1_555
Au6 Li17 2.890331 1_555
Au6 Li29 2.890331 1_545
Au7 Li4 2.635051 1_455
Au7 Li22 2.635053 1_555
Au7 Li7 2.635060 1_455
Au7 Li0 2.765161 1_455
Au7 Li23 2.765161 1_455
Au7 Li6 2.765169 1_555
Au7 Li24 2.827486 1_555
Au7 Li25 2.827486 1_555
Au7 Li10 2.827494 1_455
Au7 Li29 2.890331 1_555
Au7 Li15 2.890331 1_455
Au7 Li3 2.890331 1_555
