# generated using pymatgen
data_K3ZnNCl4O3
_symmetry_space_group_name_H-M   'P 1'
_cell_length_a   9.22607372
_cell_length_b   9.65866943
_cell_length_c   11.98452549
_cell_angle_alpha   90.00000000
_cell_angle_beta   90.00000000
_cell_angle_gamma   90.00000000
_symmetry_Int_Tables_number   1
_chemical_formula_structural   K3ZnNCl4O3
_chemical_formula_sum   'K12 Zn4 N4 Cl16 O12'
_cell_volume   1067.96019609
_cell_formula_units_Z   4
loop_
 _symmetry_equiv_pos_site_id
 _symmetry_equiv_pos_as_xyz
  1  'x, y, z'
loop_
 _atom_site_type_symbol
 _atom_site_label
 _atom_site_symmetry_multiplicity
 _atom_site_fract_x
 _atom_site_fract_y
 _atom_site_fract_z
 _atom_site_occupancy
  K  K0  1  0.87484026  0.99380920  0.68238335  1
  K  K1  1  0.87484026  0.50619080  0.68238335  1
  K  K2  1  0.12515974  0.49380920  0.31761665  1
  K  K3  1  0.12515974  0.00619080  0.31761665  1
  K  K4  1  0.57758884  0.75000000  0.46101605  1
  K  K5  1  0.62515974  0.49380920  0.18238335  1
  K  K6  1  0.37484026  0.50619080  0.81761665  1
  K  K7  1  0.92241116  0.25000000  0.96101605  1
  K  K8  1  0.42241116  0.25000000  0.53898395  1
  K  K9  1  0.62515974  0.00619080  0.18238335  1
  K  K10  1  0.07758884  0.75000000  0.03898395  1
  K  K11  1  0.37484026  0.99380920  0.81761665  1
  Zn  Zn0  1  0.17799549  0.75000000  0.59144921  1
  Zn  Zn1  1  0.32200451  0.25000000  0.09144921  1
  Zn  Zn2  1  0.67799549  0.75000000  0.90855079  1
  Zn  Zn3  1  0.82200451  0.25000000  0.40855079  1
  N  N0  1  0.34227069  0.75000000  0.27016731  1
  N  N1  1  0.84227069  0.75000000  0.22983269  1
  N  N2  1  0.65772931  0.25000000  0.72983269  1
  N  N3  1  0.15772931  0.25000000  0.77016731  1
  Cl  Cl0  1  0.12457304  0.75000000  0.77718714  1
  Cl  Cl1  1  0.30734268  0.55853952  0.55062758  1
  Cl  Cl2  1  0.53496465  0.25000000  -0.00245673  1
  Cl  Cl3  1  0.19265732  0.44146048  0.05062758  1
  Cl  Cl4  1  0.62457304  0.75000000  0.72281286  1
  Cl  Cl5  1  0.80734268  0.94146048  0.94937242  1
  Cl  Cl6  1  0.87542696  0.25000000  0.22281286  1
  Cl  Cl7  1  0.19265732  0.05853952  0.05062758  1
  Cl  Cl8  1  0.80734268  0.55853952  0.94937242  1
  Cl  Cl9  1  0.69265732  0.44146048  0.44937242  1
  Cl  Cl10  1  0.03496465  0.25000000  0.50245673  1
  Cl  Cl11  1  0.46503535  0.75000000  0.00245673  1
  Cl  Cl12  1  0.37542696  0.25000000  0.27718714  1
  Cl  Cl13  1  0.96503535  0.75000000  0.49754327  1
  Cl  Cl14  1  0.69265732  0.05853952  0.44937242  1
  Cl  Cl15  1  0.30734268  0.94146048  0.55062758  1
  O  O0  1  0.40595804  0.63664443  0.28672278  1
  O  O1  1  0.59404196  0.13664443  0.71327722  1
  O  O2  1  0.40595804  0.86335557  0.28672278  1
  O  O3  1  0.71092113  0.75000000  0.25962547  1
  O  O4  1  0.28907887  0.25000000  0.74037453  1
  O  O5  1  0.78907887  0.25000000  0.75962547  1
  O  O6  1  0.09404196  0.36335557  0.78672278  1
  O  O7  1  0.09404196  0.13664443  0.78672278  1
  O  O8  1  0.90595804  0.63664443  0.21327722  1
  O  O9  1  0.59404196  0.36335557  0.71327722  1
  O  O10  1  0.21092113  0.75000000  0.24037453  1
  O  O11  1  0.90595804  0.86335557  0.21327722  1
loop_
_geom_bond_atom_site_label_1
_geom_bond_atom_site_label_2
_geom_bond_distance
_geom_bond_site_symmetry_2
K0 O7 2.748986 1_665
K0 O5 2.757891 1_565
K0 O1 2.958365 1_565
K1 O6 2.748986 1_655
K1 O5 2.757891 1_555
K1 O9 2.958365 1_555
K2 O8 2.748986 1_455
K2 O10 2.757891 1_555
K2 O0 2.958365 1_555
K3 O11 2.748986 1_445
K3 O10 2.757891 1_545
K3 O2 2.958365 1_545
K4 O3 2.708976 1_555
K4 O0 2.840653 1_555
K4 O2 2.840653 1_555
K5 O0 2.748986 1_555
K5 O3 2.757891 1_555
K5 O8 2.958365 1_555
K6 O9 2.748986 1_555
K6 O4 2.757891 1_555
K6 O6 2.958365 1_555
K7 O5 2.708976 1_555
K7 O7 2.840653 1_655
K7 O6 2.840653 1_655
K8 O4 2.708976 1_555
K8 O9 2.840653 1_555
K8 O1 2.840653 1_555
K9 O2 2.748986 1_545
K9 O3 2.757891 1_545
K9 O11 2.958365 1_545
K10 O10 2.708976 1_555
K10 O8 2.840653 1_455
K10 O11 2.840653 1_455
K11 O1 2.748986 1_565
K11 O4 2.757891 1_565
K11 O7 2.958365 1_565
N0 O0 1.258312 1_555
N0 O2 1.258312 1_555
N0 O10 1.263346 1_555
N1 O8 1.258312 1_555
N1 O11 1.258312 1_555
N1 O3 1.263346 1_555
N2 O1 1.258312 1_555
N2 O9 1.258312 1_555
N2 O5 1.263346 1_555
N3 O7 1.258312 1_555
N3 O6 1.258312 1_555
N3 O4 1.263346 1_555
Cl0 Zn0 2.279895 1_555
Cl0 K10 3.167314 1_556
Cl0 K11 3.333406 1_555
Cl0 K6 3.333406 1_555
Cl0 K0 3.484966 1_455
Cl0 K1 3.484966 1_455
Cl1 Zn0 2.254597 1_555
Cl1 K8 3.166609 1_555
Cl1 K4 3.284769 1_555
Cl1 K6 3.298753 1_555
Cl1 K2 3.318778 1_555
Cl2 Zn1 2.264277 1_555
Cl2 K5 3.338427 1_555
Cl2 K9 3.338427 1_555
Cl2 K6 3.599336 1_554
Cl2 K11 3.599336 1_544
Cl2 K7 3.601315 1_554
Cl3 Zn1 2.254597 1_555
Cl3 K10 3.166609 1_555
Cl3 K7 3.284769 1_454
Cl3 K2 3.298753 1_555
Cl3 K6 3.318778 1_554
Cl4 Zn2 2.279895 1_555
Cl4 K4 3.167314 1_555
Cl4 K0 3.333406 1_555
Cl4 K1 3.333406 1_555
Cl4 K11 3.484966 1_555
Cl4 K6 3.484966 1_555
Cl5 Zn2 2.254597 1_555
Cl5 K7 3.166609 1_565
Cl5 K10 3.284769 1_656
Cl5 K0 3.298753 1_555
Cl5 K9 3.318778 1_566
Cl6 Zn3 2.279895 1_555
Cl6 K7 3.167314 1_554
Cl6 K9 3.333406 1_555
Cl6 K5 3.333406 1_555
Cl6 K2 3.484966 1_655
Cl6 K3 3.484966 1_655
Cl7 Zn1 2.254597 1_555
Cl7 K10 3.166609 1_545
Cl7 K7 3.284769 1_454
Cl7 K3 3.298753 1_555
Cl7 K11 3.318778 1_544
Cl8 Zn2 2.254597 1_555
Cl8 K7 3.166609 1_555
Cl8 K10 3.284769 1_656
Cl8 K1 3.298753 1_555
Cl8 K5 3.318778 1_556
Cl9 Zn3 2.254597 1_555
Cl9 K4 3.166609 1_555
Cl9 K8 3.284769 1_555
Cl9 K5 3.298753 1_555
Cl9 K1 3.318778 1_555
Cl10 Zn3 2.264277 1_455
Cl10 K3 3.338427 1_555
Cl10 K2 3.338427 1_555
Cl10 K1 3.599336 1_455
Cl10 K0 3.599336 1_445
Cl10 K8 3.601315 1_555
Cl11 Zn2 2.264277 1_554
Cl11 K11 3.338427 1_554
Cl11 K6 3.338427 1_554
Cl11 K9 3.599336 1_565
Cl11 K5 3.599336 1_555
Cl11 K10 3.601315 1_555
Cl12 Zn1 2.279895 1_555
Cl12 K8 3.167314 1_555
Cl12 K2 3.333406 1_555
Cl12 K3 3.333406 1_555
Cl12 K5 3.484966 1_555
Cl12 K9 3.484966 1_555
Cl13 Zn0 2.264277 1_655
Cl13 K0 3.338427 1_555
Cl13 K1 3.338427 1_555
Cl13 K3 3.599336 1_665
Cl13 K2 3.599336 1_655
Cl13 K4 3.601315 1_555
Cl14 Zn3 2.254597 1_555
Cl14 K4 3.166609 1_545
Cl14 K8 3.284769 1_555
Cl14 K9 3.298753 1_555
Cl14 K0 3.318778 1_545
Cl15 Zn0 2.254597 1_555
Cl15 K8 3.166609 1_565
Cl15 K4 3.284769 1_555
Cl15 K11 3.298753 1_555
Cl15 K3 3.318778 1_565
