# generated using pymatgen
data_CsYbCoSe3
_symmetry_space_group_name_H-M   'P 1'
_cell_length_a   8.42532799
_cell_length_b   8.42532799
_cell_length_c   11.26206100
_cell_angle_alpha   90.00000000
_cell_angle_beta   90.00000000
_cell_angle_gamma   151.95793687
_symmetry_Int_Tables_number   1
_chemical_formula_structural   CsYbCoSe3
_chemical_formula_sum   'Cs2 Yb2 Co2 Se6'
_cell_volume   375.83732318
_cell_formula_units_Z   2
loop_
 _symmetry_equiv_pos_site_id
 _symmetry_equiv_pos_as_xyz
  1  'x, y, z'
loop_
 _atom_site_type_symbol
 _atom_site_label
 _atom_site_symmetry_multiplicity
 _atom_site_fract_x
 _atom_site_fract_y
 _atom_site_fract_z
 _atom_site_occupancy
  Cs  Cs0  1  0.26294500  0.73705500  0.75000000  1
  Cs  Cs1  1  0.73705500  0.26294500  0.25000000  1
  Yb  Yb0  1  0.00000000  0.00000000  0.00000000  1
  Yb  Yb1  1  0.00000000  0.00000000  0.50000000  1
  Co  Co0  1  0.54024500  0.45975500  0.75000000  1
  Co  Co1  1  0.45975500  0.54024500  0.25000000  1
  Se  Se0  1  0.95447400  0.04552600  0.75000000  1
  Se  Se1  1  0.04552600  0.95447400  0.25000000  1
  Se  Se2  1  0.61739900  0.38260100  0.92300900  1
  Se  Se3  1  0.38260100  0.61739900  0.07699100  1
  Se  Se4  1  0.38260100  0.61739900  0.42300900  1
  Se  Se5  1  0.61739900  0.38260100  0.57699100  1
loop_
_geom_bond_atom_site_label_1
_geom_bond_atom_site_label_2
_geom_bond_distance
_geom_bond_site_symmetry_2
Cs0 Se5 3.691221 1_565
Cs0 Se2 3.691221 1_565
Cs0 Se5 3.691221 1_455
Cs0 Se2 3.691221 1_455
Cs0 Se0 3.737837 1_565
Cs0 Se0 3.737837 1_455
Cs0 Se4 4.169922 1_555
Cs0 Se3 4.169922 1_556
Cs1 Se3 3.691221 1_655
Cs1 Se3 3.691221 1_545
Cs1 Se4 3.691221 1_545
Cs1 Se4 3.691221 1_655
Cs1 Se1 3.737837 1_545
Cs1 Se1 3.737837 1_655
Cs1 Se5 4.169922 1_555
Cs1 Se2 4.169922 1_554
Co0 Se5 2.321087 1_555
Co0 Se2 2.321087 1_555
Co0 Se0 2.476502 1_565
Co0 Se0 2.476502 1_455
Co1 Se4 2.321087 1_555
Co1 Se3 2.321087 1_555
Co1 Se1 2.476502 1_655
Co1 Se1 2.476502 1_545
Se0 Yb0 2.912231 1_656
Se0 Yb1 2.912231 1_655
Se1 Yb1 2.912231 1_565
Se1 Yb0 2.912231 1_565
Se2 Yb0 2.932980 1_556
Se2 Yb0 2.932980 1_666
Se3 Yb0 2.932980 1_665
Se3 Yb0 2.932980 1_555
Se4 Yb1 2.932980 1_555
Se4 Yb1 2.932980 1_665
Se5 Yb1 2.932980 1_555
Se5 Yb1 2.932980 1_665
