# generated using pymatgen
data_LuU4S5O4
_symmetry_space_group_name_H-M   'P 1'
_cell_length_a   17.47756919
_cell_length_b   17.47756919
_cell_length_c   17.47756919
_cell_angle_alpha   167.54979195
_cell_angle_beta   167.54979195
_cell_angle_gamma   17.64224569
_symmetry_Int_Tables_number   1
_chemical_formula_structural   LuU4S5O4
_chemical_formula_sum   'Lu1 U4 S5 O4'
_cell_volume   248.12698500
_cell_formula_units_Z   1
loop_
 _symmetry_equiv_pos_site_id
 _symmetry_equiv_pos_as_xyz
  1  'x, y, z'
loop_
 _atom_site_type_symbol
 _atom_site_label
 _atom_site_symmetry_multiplicity
 _atom_site_fract_x
 _atom_site_fract_y
 _atom_site_fract_z
 _atom_site_occupancy
  Lu  Lu0  1  0.50000000  0.50000000  0.00000000  1
  U  U0  1  0.30764800  0.30764800  0.00000000  1
  U  U1  1  0.69235200  0.69235200  0.00000000  1
  U  U2  1  0.11417000  0.11417000  0.00000000  1
  U  U3  1  0.88583000  0.88583000  0.00000000  1
  S  S0  1  0.77698900  0.77698900  0.00000000  1
  S  S1  1  0.42294900  0.42294900  0.00000000  1
  S  S2  1  0.22301100  0.22301100  0.00000000  1
  S  S3  1  0.57705100  0.57705100  0.00000000  1
  S  S4  1  0.00000000  0.00000000  0.00000000  1
  O  O0  1  0.65103600  0.15103600  0.50000000  1
  O  O1  1  0.15103600  0.65103600  0.50000000  1
  O  O2  1  0.34896400  0.84896400  0.50000000  1
  O  O3  1  0.84896400  0.34896400  0.50000000  1
loop_
_geom_bond_atom_site_label_1
_geom_bond_atom_site_label_2
_geom_bond_distance
_geom_bond_site_symmetry_2
Lu0 S1 2.661471 1_555
Lu0 S3 2.661471 1_555
Lu0 S4 2.680188 1_554
Lu0 S4 2.680188 1_655
Lu0 S4 2.680188 1_565
Lu0 S4 2.680188 1_666
S0 U0 2.881825 1_655
S0 U0 2.881825 1_666
S0 U0 2.881825 1_565
S0 U0 2.881825 1_554
S0 U1 2.923505 1_555
S1 U3 2.971081 1_545
S1 U3 2.971081 1_556
S1 U3 2.971081 1_455
S1 U3 2.971081 1_444
S2 U1 2.881825 1_444
S2 U1 2.881825 1_556
S2 U1 2.881825 1_455
S2 U1 2.881825 1_545
S2 U0 2.923505 1_555
S3 U2 2.971081 1_554
S3 U2 2.971081 1_565
S3 U2 2.971081 1_655
S3 U2 2.971081 1_666
O0 U2 2.283262 1_656
O0 U2 2.283262 1_555
O0 U1 2.372422 1_556
O0 U1 2.372422 1_545
O1 U2 2.283262 1_566
O1 U2 2.283262 1_555
O1 U1 2.372422 1_556
O1 U1 2.372422 1_455
O2 U3 2.283262 1_455
O2 U3 2.283262 1_556
O2 U0 2.372422 1_566
O2 U0 2.372422 1_555
O3 U3 2.283262 1_545
O3 U3 2.283262 1_556
O3 U0 2.372422 1_656
O3 U0 2.372422 1_555
