# generated using pymatgen
data_Sr2VClO4
_symmetry_space_group_name_H-M   'P 1'
_cell_length_a   6.65209100
_cell_length_b   7.58982900
_cell_length_c   11.64674100
_cell_angle_alpha   90.00000000
_cell_angle_beta   90.00000000
_cell_angle_gamma   90.00000000
_symmetry_Int_Tables_number   1
_chemical_formula_structural   Sr2VClO4
_chemical_formula_sum   'Sr8 V4 Cl4 O16'
_cell_volume   588.02337542
_cell_formula_units_Z   4
loop_
 _symmetry_equiv_pos_site_id
 _symmetry_equiv_pos_as_xyz
  1  'x, y, z'
loop_
 _atom_site_type_symbol
 _atom_site_label
 _atom_site_symmetry_multiplicity
 _atom_site_fract_x
 _atom_site_fract_y
 _atom_site_fract_z
 _atom_site_occupancy
  Sr  Sr0  1  0.86230200  0.53336600  0.75000000  1
  Sr  Sr1  1  0.37566400  0.75000000  0.50000000  1
  Sr  Sr2  1  0.13769800  0.46663400  0.25000000  1
  Sr  Sr3  1  0.37566400  0.75000000  0.00000000  1
  Sr  Sr4  1  0.13769800  0.03336600  0.75000000  1
  Sr  Sr5  1  0.86230200  0.96663400  0.25000000  1
  Sr  Sr6  1  0.62433600  0.25000000  0.50000000  1
  Sr  Sr7  1  0.62433600  0.25000000  0.00000000  1
  V  V0  1  0.12793700  0.25000000  0.00000000  1
  V  V1  1  0.12793700  0.25000000  0.50000000  1
  V  V2  1  0.87206300  0.75000000  0.50000000  1
  V  V3  1  0.87206300  0.75000000  0.00000000  1
  Cl  Cl0  1  0.49289000  0.19176200  0.25000000  1
  Cl  Cl1  1  0.50711000  0.69176200  0.25000000  1
  Cl  Cl2  1  0.50711000  0.80823800  0.75000000  1
  Cl  Cl3  1  0.49289000  0.30823800  0.75000000  1
  O  O0  1  0.28523300  0.07268000  0.97040100  1
  O  O1  1  0.28523300  0.42732000  0.02959900  1
  O  O2  1  0.02827800  0.77414500  0.61974000  1
  O  O3  1  0.97172200  0.22585500  0.11974000  1
  O  O4  1  0.71476700  0.92732000  0.02959900  1
  O  O5  1  0.02827800  0.72585500  0.11974000  1
  O  O6  1  0.71476700  0.57268000  0.52959900  1
  O  O7  1  0.97172200  0.27414500  0.88026000  1
  O  O8  1  0.97172200  0.27414500  0.61974000  1
  O  O9  1  0.71476700  0.57268000  0.97040100  1
  O  O10  1  0.02827800  0.77414500  0.88026000  1
  O  O11  1  0.02827800  0.72585500  0.38026000  1
  O  O12  1  0.97172200  0.22585500  0.38026000  1
  O  O13  1  0.28523300  0.07268000  0.52959900  1
  O  O14  1  0.71476700  0.92732000  0.47040100  1
  O  O15  1  0.28523300  0.42732000  0.47040100  1
loop_
_geom_bond_atom_site_label_1
_geom_bond_atom_site_label_2
_geom_bond_distance
_geom_bond_site_symmetry_2
Cl0 Sr5 2.993030 1_545
Cl0 Sr7 3.072108 1_555
Cl0 Sr6 3.072108 1_555
Cl0 Sr2 3.151990 1_555
Cl1 Sr2 2.993030 1_555
Cl1 Sr3 3.072108 1_555
Cl1 Sr1 3.072108 1_555
Cl1 Sr5 3.151990 1_555
Cl2 Sr4 2.993030 1_565
Cl2 Sr3 3.072108 1_556
Cl2 Sr1 3.072108 1_555
Cl2 Sr0 3.151990 1_555
Cl3 Sr0 2.993030 1_555
Cl3 Sr7 3.072108 1_556
Cl3 Sr6 3.072108 1_555
Cl3 Sr4 3.151990 1_555
O0 V0 1.739235 1_556
O0 Sr3 2.545335 1_546
O0 Sr7 2.649241 1_556
O0 Sr4 2.764319 1_555
O1 V0 1.739235 1_555
O1 Sr3 2.545335 1_555
O1 Sr7 2.649241 1_555
O1 Sr2 2.764319 1_555
O2 V2 1.748795 1_455
O2 Sr4 2.588868 1_565
O2 Sr0 2.619211 1_455
O2 Sr1 2.705261 1_555
O3 V0 1.748795 1_655
O3 Sr5 2.588868 1_545
O3 Sr2 2.619211 1_655
O3 Sr7 2.705261 1_555
O4 V3 1.739235 1_555
O4 Sr7 2.545335 1_565
O4 Sr3 2.649241 1_555
O4 Sr5 2.764319 1_555
O5 V3 1.748795 1_455
O5 Sr2 2.588868 1_555
O5 Sr5 2.619211 1_455
O5 Sr3 2.705261 1_555
O6 V2 1.739235 1_555
O6 Sr6 2.545335 1_555
O6 Sr1 2.649241 1_555
O6 Sr0 2.764319 1_555
O7 V0 1.748795 1_656
O7 Sr0 2.588868 1_555
O7 Sr4 2.619211 1_655
O7 Sr7 2.705261 1_556
O8 V1 1.748795 1_655
O8 Sr0 2.588868 1_555
O8 Sr4 2.619211 1_655
O8 Sr6 2.705261 1_555
O9 V3 1.739235 1_556
O9 Sr7 2.545335 1_556
O9 Sr3 2.649241 1_556
O9 Sr0 2.764319 1_555
O10 V3 1.748795 1_456
O10 Sr4 2.588868 1_565
O10 Sr0 2.619211 1_455
O10 Sr3 2.705261 1_556
O11 V2 1.748795 1_455
O11 Sr2 2.588868 1_555
O11 Sr5 2.619211 1_455
O11 Sr1 2.705261 1_555
O12 V1 1.748795 1_655
O12 Sr5 2.588868 1_545
O12 Sr2 2.619211 1_655
O12 Sr6 2.705261 1_555
O13 V1 1.739235 1_555
O13 Sr1 2.545335 1_545
O13 Sr6 2.649241 1_555
O13 Sr4 2.764319 1_555
O14 V2 1.739235 1_555
O14 Sr6 2.545335 1_565
O14 Sr1 2.649241 1_555
O14 Sr5 2.764319 1_555
O15 V1 1.739235 1_555
O15 Sr1 2.545335 1_555
O15 Sr6 2.649241 1_555
O15 Sr2 2.764319 1_555
