# generated using pymatgen
data_SnHg6(P2Cl3)2
_symmetry_space_group_name_H-M   'P 1'
_cell_length_a   12.13392000
_cell_length_b   12.13392000
_cell_length_c   12.13392000
_cell_angle_alpha   90.00000000
_cell_angle_beta   90.00000000
_cell_angle_gamma   90.00000000
_symmetry_Int_Tables_number   1
_chemical_formula_structural   SnHg6(P2Cl3)2
_chemical_formula_sum   'Sn4 Hg24 P16 Cl24'
_cell_volume   1786.50148619
_cell_formula_units_Z   4
loop_
 _symmetry_equiv_pos_site_id
 _symmetry_equiv_pos_as_xyz
  1  'x, y, z'
loop_
 _atom_site_type_symbol
 _atom_site_label
 _atom_site_symmetry_multiplicity
 _atom_site_fract_x
 _atom_site_fract_y
 _atom_site_fract_z
 _atom_site_occupancy
  Sn  Sn0  1  0.72489400  0.72489400  0.72489400  1
  Sn  Sn1  1  0.77510600  0.27510600  0.22489400  1
  Sn  Sn2  1  0.22489400  0.77510600  0.27510600  1
  Sn  Sn3  1  0.27510600  0.22489400  0.77510600  1
  Hg  Hg0  1  0.97130200  0.01640300  0.76170100  1
  Hg  Hg1  1  0.97478600  0.76451400  0.46136600  1
  Hg  Hg2  1  0.52869800  0.98359700  0.26170100  1
  Hg  Hg3  1  0.48359700  0.23829900  0.47130200  1
  Hg  Hg4  1  0.73829900  0.02869800  0.51640300  1
  Hg  Hg5  1  0.26170100  0.52869800  0.98359700  1
  Hg  Hg6  1  0.98359700  0.26170100  0.52869800  1
  Hg  Hg7  1  0.02869800  0.51640300  0.73829900  1
  Hg  Hg8  1  0.02521400  0.26451400  0.03863400  1
  Hg  Hg9  1  0.52521400  0.23548600  0.96136600  1
  Hg  Hg10  1  0.51640300  0.73829900  0.02869800  1
  Hg  Hg11  1  0.23829900  0.47130200  0.48359700  1
  Hg  Hg12  1  0.26451400  0.03863400  0.02521400  1
  Hg  Hg13  1  0.01640300  0.76170100  0.97130200  1
  Hg  Hg14  1  0.53863400  0.47478600  0.73548600  1
  Hg  Hg15  1  0.47478600  0.73548600  0.53863400  1
  Hg  Hg16  1  0.03863400  0.02521400  0.26451400  1
  Hg  Hg17  1  0.76170100  0.97130200  0.01640300  1
  Hg  Hg18  1  0.73548600  0.53863400  0.47478600  1
  Hg  Hg19  1  0.46136600  0.97478600  0.76451400  1
  Hg  Hg20  1  0.23548600  0.96136600  0.52521400  1
  Hg  Hg21  1  0.47130200  0.48359700  0.23829900  1
  Hg  Hg22  1  0.76451400  0.46136600  0.97478600  1
  Hg  Hg23  1  0.96136600  0.52521400  0.23548600  1
  P  P0  1  0.43631900  0.93631900  0.56368100  1
  P  P1  1  0.56472000  0.93528000  0.06472000  1
  P  P2  1  0.95903300  0.95903300  0.95903300  1
  P  P3  1  0.54046200  0.54046200  0.54046200  1
  P  P4  1  0.93631900  0.56368100  0.43631900  1
  P  P5  1  0.43528000  0.43528000  0.43528000  1
  P  P6  1  0.45903300  0.54096700  0.04096700  1
  P  P7  1  0.04096700  0.45903300  0.54096700  1
  P  P8  1  0.56368100  0.43631900  0.93631900  1
  P  P9  1  0.93528000  0.06472000  0.56472000  1
  P  P10  1  0.06368100  0.06368100  0.06368100  1
  P  P11  1  0.45953800  0.04046200  0.95953800  1
  P  P12  1  0.06472000  0.56472000  0.93528000  1
  P  P13  1  0.95953800  0.45953800  0.04046200  1
  P  P14  1  0.04046200  0.95953800  0.45953800  1
  P  P15  1  0.54096700  0.04096700  0.45903300  1
  Cl  Cl0  1  0.02828400  0.26455000  0.29777600  1
  Cl  Cl1  1  0.52828400  0.23545000  0.70222400  1
  Cl  Cl2  1  0.74298700  0.29204600  0.43944400  1
  Cl  Cl3  1  0.06055600  0.25701300  0.79204600  1
  Cl  Cl4  1  0.70795400  0.93944400  0.75701300  1
  Cl  Cl5  1  0.29204600  0.43944400  0.74298700  1
  Cl  Cl6  1  0.25701300  0.79204600  0.06055600  1
  Cl  Cl7  1  0.73545000  0.79777600  0.47171600  1
  Cl  Cl8  1  0.70222400  0.52828400  0.23545000  1
  Cl  Cl9  1  0.79777600  0.47171600  0.73545000  1
  Cl  Cl10  1  0.75701300  0.70795400  0.93944400  1
  Cl  Cl11  1  0.24298700  0.20795400  0.56055600  1
  Cl  Cl12  1  0.43944400  0.74298700  0.29204600  1
  Cl  Cl13  1  0.97171600  0.76455000  0.20222400  1
  Cl  Cl14  1  0.23545000  0.70222400  0.52828400  1
  Cl  Cl15  1  0.76455000  0.20222400  0.97171600  1
  Cl  Cl16  1  0.47171600  0.73545000  0.79777600  1
  Cl  Cl17  1  0.79204600  0.06055600  0.25701300  1
  Cl  Cl18  1  0.29777600  0.02828400  0.26455000  1
  Cl  Cl19  1  0.56055600  0.24298700  0.20795400  1
  Cl  Cl20  1  0.93944400  0.75701300  0.70795400  1
  Cl  Cl21  1  0.26455000  0.29777600  0.02828400  1
  Cl  Cl22  1  0.20222400  0.97171600  0.76455000  1
  Cl  Cl23  1  0.20795400  0.56055600  0.24298700  1
loop_
_geom_bond_atom_site_label_1
_geom_bond_atom_site_label_2
_geom_bond_distance
_geom_bond_site_symmetry_2
Hg0 P2 2.497990 1_545
Hg0 P9 2.499518 1_555
Hg1 P14 2.497084 1_655
Hg1 P4 2.499733 1_555
Hg2 P15 2.497990 1_565
Hg2 P1 2.499518 1_555
Hg3 P15 2.497990 1_555
Hg3 P5 2.499518 1_555
Hg4 P15 2.497990 1_555
Hg4 P9 2.499518 1_555
Hg5 P6 2.497990 1_556
Hg5 P12 2.499518 1_555
Hg6 P7 2.497990 1_655
Hg6 P9 2.499518 1_555
Hg7 P7 2.497990 1_555
Hg7 P12 2.499518 1_555
Hg8 P13 2.497084 1_455
Hg8 P10 2.499733 1_555
Hg9 P11 2.497084 1_555
Hg9 P8 2.499733 1_555
Hg10 P6 2.497990 1_555
Hg10 P1 2.499518 1_555
Hg11 P7 2.497990 1_555
Hg11 P5 2.499518 1_555
Hg12 P11 2.497084 1_554
Hg12 P10 2.499733 1_555
Hg13 P2 2.497990 1_455
Hg13 P12 2.499518 1_555
Hg14 P3 2.497084 1_555
Hg14 P8 2.499733 1_555
Hg15 P3 2.497084 1_555
Hg15 P0 2.499733 1_555
Hg16 P14 2.497084 1_545
Hg16 P10 2.499733 1_555
Hg17 P2 2.497990 1_554
Hg17 P1 2.499518 1_555
Hg18 P3 2.497084 1_555
Hg18 P4 2.499733 1_555
Hg19 P11 2.497084 1_565
Hg19 P0 2.499733 1_555
Hg20 P14 2.497084 1_555
Hg20 P0 2.499733 1_555
Hg21 P6 2.497990 1_555
Hg21 P5 2.499518 1_555
Hg22 P13 2.497084 1_556
Hg22 P8 2.499733 1_555
Hg23 P13 2.497084 1_555
Hg23 P4 2.499733 1_555
P0 P15 2.199342 1_565
P1 P11 2.210564 1_564
P3 P5 2.210564 1_555
P4 P7 2.199342 1_655
P6 P8 2.199342 1_554
P10 P2 2.199342 1_444
P12 P13 2.210564 1_456
P14 P9 2.210564 1_465
Cl0 Hg6 2.854181 1_455
Cl0 Hg16 2.934683 1_555
Cl1 Hg3 2.854181 1_555
Cl1 Hg14 2.934683 1_555
Cl2 Sn1 2.640356 1_555
Cl2 Hg18 3.024024 1_555
Cl3 Sn3 2.640356 1_555
Cl3 Hg8 3.024024 1_556
Cl4 Sn0 2.640356 1_555
Cl4 Hg19 3.024024 1_555
Cl5 Sn3 2.640356 1_555
Cl5 Hg14 3.024024 1_555
Cl6 Sn2 2.640356 1_555
Cl6 Hg12 3.024024 1_565
Cl7 Hg4 2.854181 1_565
Cl7 Hg1 2.934683 1_555
Cl8 Hg21 2.854181 1_555
Cl8 Hg18 2.934683 1_555
Cl9 Hg7 2.854181 1_655
Cl9 Hg22 2.934683 1_555
Cl10 Sn0 2.640356 1_555
Cl10 Hg22 3.024024 1_555
Cl11 Sn3 2.640356 1_555
Cl11 Hg20 3.024024 1_545
Cl12 Sn2 2.640356 1_555
Cl12 Hg15 3.024024 1_555
Cl13 Hg13 2.854181 1_654
Cl13 Hg23 2.934683 1_555
Cl14 Hg11 2.854181 1_555
Cl14 Hg15 2.934683 1_555
Cl15 Hg17 2.854181 1_546
Cl15 Hg9 2.934683 1_555
Cl16 Hg10 2.854181 1_556
Cl16 Hg19 2.934683 1_555
Cl17 Sn1 2.640356 1_555
Cl17 Hg16 3.024024 1_655
Cl18 Hg2 2.854181 1_545
Cl18 Hg12 2.934683 1_555
Cl19 Sn1 2.640356 1_555
Cl19 Hg9 3.024024 1_554
Cl20 Sn0 2.640356 1_555
Cl20 Hg1 3.024024 1_555
Cl21 Hg5 2.854181 1_554
Cl21 Hg8 2.934683 1_555
Cl22 Hg0 2.854181 1_465
Cl22 Hg20 2.934683 1_555
Cl23 Sn2 2.640356 1_555
Cl23 Hg23 3.024024 1_455
