# generated using pymatgen
data_K3BSb4O13
_symmetry_space_group_name_H-M   'P 1'
_cell_length_a   7.14439106
_cell_length_b   7.24622653
_cell_length_c   13.28336710
_cell_angle_alpha   81.91158759
_cell_angle_beta   80.16360820
_cell_angle_gamma   62.91183538
_symmetry_Int_Tables_number   1
_chemical_formula_structural   K3BSb4O13
_chemical_formula_sum   'K6 B2 Sb8 O26'
_cell_volume   601.69121907
_cell_formula_units_Z   2
loop_
 _symmetry_equiv_pos_site_id
 _symmetry_equiv_pos_as_xyz
  1  'x, y, z'
loop_
 _atom_site_type_symbol
 _atom_site_label
 _atom_site_symmetry_multiplicity
 _atom_site_fract_x
 _atom_site_fract_y
 _atom_site_fract_z
 _atom_site_occupancy
  K  K0  1  0.70654323  0.21589832  0.69461976  1
  K  K1  1  0.09889466  0.60117026  0.55883959  1
  K  K2  1  0.30680035  0.78080638  0.03095342  1
  K  K3  1  0.29345677  0.78410168  0.30538024  1
  K  K4  1  0.69319965  0.21919362  0.96904658  1
  K  K5  1  0.90110534  0.39882974  0.44116041  1
  B  B0  1  0.84042735  0.73011037  0.97742558  1
  B  B1  1  0.15957265  0.26988963  0.02257442  1
  Sb  Sb0  1  0.68130166  0.69174803  0.78718114  1
  Sb  Sb1  1  0.16294976  0.20978800  0.79028854  1
  Sb  Sb2  1  0.83225467  0.29352377  0.20640334  1
  Sb  Sb3  1  0.83705024  0.79021200  0.20971146  1
  Sb  Sb4  1  0.16774533  0.70647623  0.79359666  1
  Sb  Sb5  1  0.31869834  0.30825197  0.21281886  1
  Sb  Sb6  1  0.58016868  0.06593563  0.39490874  1
  Sb  Sb7  1  0.41983132  0.93406437  0.60509126  1
  O  O0  1  0.53759865  0.01316138  0.25089092  1
  O  O1  1  0.83877039  0.80441223  0.36135014  1
  O  O2  1  0.74129724  0.22426368  0.34992096  1
  O  O3  1  0.13673092  0.60263445  0.19216963  1
  O  O4  1  0.55300067  0.38354539  0.15929685  1
  O  O5  1  0.67625617  0.75164066  0.92763993  1
  O  O6  1  0.25870276  0.77573632  0.65007904  1
  O  O7  1  0.05071081  0.65101751  0.93599293  1
  O  O8  1  0.16122961  0.19558777  0.63864986  1
  O  O9  1  0.44699933  0.61645461  0.84070315  1
  O  O10  1  0.86326908  0.39736555  0.80783037  1
  O  O11  1  0.26868501  0.41952228  0.75299828  1
  O  O12  1  0.67514970  0.67306668  0.63794728  1
  O  O13  1  0.73131499  0.58047772  0.24700172  1
  O  O14  1  0.59201225  0.08516130  0.53935344  1
  O  O15  1  0.89654171  0.78997173  0.74036345  1
  O  O16  1  0.94928919  0.34898249  0.06400707  1
  O  O17  1  0.77221867  0.81914012  0.06956880  1
  O  O18  1  0.32374383  0.24835934  0.07236007  1
  O  O19  1  0.06344742  0.99447044  0.83160997  1
  O  O20  1  0.10345829  0.21002827  0.25963655  1
  O  O21  1  0.93655258  0.00552956  0.16839003  1
  O  O22  1  0.40798775  0.91483870  0.46064656  1
  O  O23  1  0.22778133  0.18085988  0.93043120  1
  O  O24  1  0.46240135  0.98683862  0.74910908  1
  O  O25  1  0.32485030  0.32693332  0.36205272  1
loop_
_geom_bond_atom_site_label_1
_geom_bond_atom_site_label_2
_geom_bond_distance
_geom_bond_site_symmetry_2
K0 O14 2.766433 1_555
K0 O15 2.770568 1_545
K0 O10 2.777952 1_555
K0 O11 2.802462 1_555
K0 O24 2.861557 1_545
K0 O19 3.070055 1_645
K0 O8 3.145963 1_655
K0 O12 3.204769 1_555
K1 O6 2.567486 1_555
K1 O15 2.777016 1_455
K1 O8 2.837637 1_555
K1 O12 2.858584 1_455
K1 O11 2.918081 1_555
K1 O25 3.238252 1_555
K1 O1 3.254300 1_455
K2 O5 2.689068 1_554
K2 O3 2.736932 1_555
K2 O9 2.775577 1_554
K2 O23 2.860600 1_564
K2 O21 2.871471 1_465
K2 O7 2.917621 1_554
K2 O4 3.052732 1_555
K3 O22 2.766433 1_555
K3 O20 2.770568 1_565
K3 O3 2.777952 1_555
K3 O13 2.802462 1_555
K3 O0 2.861557 1_565
K3 O21 3.070055 1_465
K3 O1 3.145963 1_455
K3 O25 3.204769 1_555
K4 O18 2.689068 1_556
K4 O10 2.736932 1_555
K4 O4 2.775577 1_556
K4 O17 2.860600 1_546
K4 O19 2.871471 1_645
K4 O16 2.917621 1_556
K4 O9 3.052732 1_555
K5 O2 2.567486 1_555
K5 O20 2.777016 1_655
K5 O1 2.837637 1_555
K5 O25 2.858584 1_655
K5 O13 2.918081 1_555
K5 O12 3.238252 1_555
K5 O8 3.254300 1_655
B0 O17 1.372542 1_556
B0 O5 1.380842 1_555
B0 O7 1.382214 1_655
B1 O23 1.372542 1_554
B1 O18 1.380842 1_555
B1 O16 1.382214 1_455
O0 Sb3 2.046297 1_545
O0 Sb5 2.047987 1_555
O0 Sb6 2.099774 1_555
O1 Sb6 1.992760 1_565
O1 Sb3 2.033707 1_555
O2 Sb6 1.942518 1_555
O2 Sb2 1.978135 1_555
O3 Sb5 1.935794 1_555
O3 Sb3 1.937565 1_455
O4 Sb5 1.980204 1_555
O4 Sb2 1.980887 1_555
O5 Sb0 1.965036 1_555
O6 Sb7 1.942518 1_555
O6 Sb4 1.978135 1_555
O7 Sb4 1.997536 1_555
O8 Sb7 1.992760 1_545
O8 Sb1 2.033707 1_555
O9 Sb0 1.980204 1_555
O9 Sb4 1.980887 1_555
O10 Sb0 1.935794 1_555
O10 Sb1 1.937565 1_655
O11 Sb1 1.957454 1_555
O11 Sb4 1.987849 1_555
O12 Sb7 1.998131 1_555
O12 Sb0 2.015089 1_555
O13 Sb3 1.957454 1_555
O13 Sb2 1.987849 1_555
O14 Sb6 1.962001 1_555
O14 Sb7 2.016195 1_545
O15 Sb0 1.950263 1_555
O15 Sb4 1.974944 1_655
O16 Sb2 1.997536 1_555
O17 Sb3 1.954553 1_555
O18 Sb5 1.965036 1_555
O19 Sb1 1.968959 1_565
O19 Sb4 1.979147 1_555
O20 Sb5 1.950263 1_555
O20 Sb2 1.974944 1_455
O21 Sb3 1.968959 1_545
O21 Sb2 1.979147 1_555
O22 Sb7 1.962001 1_555
O22 Sb6 2.016195 1_565
O23 Sb1 1.954553 1_555
O24 Sb1 2.046297 1_565
O24 Sb0 2.047987 1_555
O24 Sb7 2.099774 1_555
O25 Sb6 1.998131 1_555
O25 Sb5 2.015089 1_555
