# generated using pymatgen
data_Li2CoP2O7
_symmetry_space_group_name_H-M   'P 1'
_cell_length_a   5.18977839
_cell_length_b   7.25917256
_cell_length_c   15.03033060
_cell_angle_alpha   92.05488889
_cell_angle_beta   90.54627896
_cell_angle_gamma   98.89745377
_symmetry_Int_Tables_number   1
_chemical_formula_structural   Li2CoP2O7
_chemical_formula_sum   'Li8 Co4 P8 O28'
_cell_volume   559.00637365
_cell_formula_units_Z   4
loop_
 _symmetry_equiv_pos_site_id
 _symmetry_equiv_pos_as_xyz
  1  'x, y, z'
loop_
 _atom_site_type_symbol
 _atom_site_label
 _atom_site_symmetry_multiplicity
 _atom_site_fract_x
 _atom_site_fract_y
 _atom_site_fract_z
 _atom_site_occupancy
  Li  Li0  1  0.70458100  0.40087000  0.22064100  1
  Li  Li1  1  0.70456600  0.90090700  0.72063700  1
  Li  Li2  1  0.29546400  0.09906800  0.27936100  1
  Li  Li3  1  0.29538000  0.59914600  0.77936000  1
  Li  Li4  1  0.29447600  0.36349900  0.49724300  1
  Li  Li5  1  0.29443900  0.86356200  0.99725500  1
  Li  Li6  1  0.70551100  0.13646600  0.00274600  1
  Li  Li7  1  0.70556900  0.63647400  0.50275400  1
  Co  Co0  1  0.18260700  0.13512300  0.86336900  1
  Co  Co1  1  0.81736100  0.86489200  0.13662700  1
  Co  Co2  1  0.18267400  0.63515700  0.36338500  1
  Co  Co3  1  0.81736500  0.36482100  0.63661800  1
  P  P0  1  0.73379900  0.89294000  0.34731400  1
  P  P1  1  0.73375800  0.39303600  0.84734000  1
  P  P2  1  0.26621500  0.60696500  0.15264800  1
  P  P3  1  0.26623300  0.10703900  0.65268900  1
  P  P4  1  0.76946400  0.27434600  0.41322100  1
  P  P5  1  0.76938100  0.77425900  0.91324300  1
  P  P6  1  0.23054200  0.22577900  0.08676200  1
  P  P7  1  0.23059700  0.72563400  0.58677600  1
  O  O0  1  0.17083800  0.77492000  0.11058000  1
  O  O1  1  0.17083400  0.27492400  0.61055000  1
  O  O2  1  0.82920300  0.72504900  0.38944800  1
  O  O3  1  0.82913400  0.22509700  0.88943100  1
  O  O4  1  0.89859100  0.96316500  0.26755300  1
  O  O5  1  0.89855200  0.46316500  0.76754000  1
  O  O6  1  0.10144100  0.53685400  0.23245100  1
  O  O7  1  0.10142800  0.03680900  0.73244800  1
  O  O8  1  0.94617500  0.13682700  0.10041800  1
  O  O9  1  0.94615200  0.63675700  0.60039900  1
  O  O10  1  0.05390400  0.36322000  0.39959600  1
  O  O11  1  0.05378700  0.86320400  0.89958700  1
  O  O12  1  0.43787300  0.86335200  0.32824200  1
  O  O13  1  0.43782100  0.36341600  0.82822700  1
  O  O14  1  0.56214100  0.63660100  0.17177200  1
  O  O15  1  0.56216100  0.13663800  0.67176100  1
  O  O16  1  0.58648800  0.29209200  0.33596800  1
  O  O17  1  0.58642500  0.79215200  0.83598400  1
  O  O18  1  0.41353200  0.20787100  0.16401500  1
  O  O19  1  0.41353900  0.70787800  0.66402100  1
  O  O20  1  0.21494600  0.44531900  0.07353200  1
  O  O21  1  0.21491600  0.94529600  0.57349900  1
  O  O22  1  0.78513500  0.05468000  0.42649500  1
  O  O23  1  0.78501400  0.55472700  0.92648400  1
  O  O24  1  0.33562400  0.65532800  0.49750300  1
  O  O25  1  0.33555700  0.15540700  0.99749800  1
  O  O26  1  0.66437100  0.84461100  0.00251100  1
  O  O27  1  0.66443800  0.34465600  0.50249800  1
loop_
_geom_bond_atom_site_label_1
_geom_bond_atom_site_label_2
_geom_bond_distance
_geom_bond_site_symmetry_2
Li0 O16 1.993125 1_555
Li0 O18 2.050398 1_555
Li0 O14 2.117855 1_555
Li0 O6 2.144646 1_655
Li1 O17 1.993391 1_555
Li1 O19 2.050390 1_555
Li1 O15 2.117809 1_565
Li1 O7 2.144473 1_665
Li2 O18 1.993414 1_555
Li2 O16 2.050308 1_555
Li2 O12 2.117752 1_545
Li2 O4 2.144523 1_445
Li3 O19 1.993245 1_555
Li3 O17 2.050402 1_555
Li3 O13 2.117840 1_555
Li3 O5 2.144501 1_455
Li4 O10 1.917525 1_555
Li4 O1 1.922827 1_555
Li4 O27 1.946934 1_555
Li4 O24 2.095912 1_555
Li5 O11 1.917959 1_555
Li5 O0 1.923162 1_556
Li5 O26 1.946955 1_556
Li5 O25 2.096045 1_565
Li6 O8 1.918042 1_555
Li6 O3 1.923034 1_554
Li6 O25 1.947049 1_554
Li6 O26 2.096115 1_545
Li7 O9 1.917536 1_555
Li7 O2 1.922801 1_555
Li7 O24 1.946862 1_555
Li7 O27 2.095839 1_555
Co0 O13 2.043723 1_555
Co0 O3 2.076345 1_455
Co0 O11 2.077351 1_545
Co0 O7 2.085542 1_555
Co0 O25 2.151296 1_555
Co1 O14 2.043742 1_555
Co1 O0 2.076316 1_655
Co1 O8 2.077411 1_565
Co1 O4 2.085566 1_555
Co1 O26 2.151187 1_555
Co2 O12 2.043175 1_555
Co2 O2 2.076073 1_455
Co2 O10 2.077393 1_555
Co2 O6 2.085740 1_555
Co2 O24 2.151160 1_555
Co3 O15 2.043126 1_555
Co3 O1 2.076094 1_655
Co3 O9 2.077438 1_555
Co3 O5 2.085622 1_555
Co3 O27 2.151148 1_555
O0 P2 1.538600 1_555
O1 P3 1.538681 1_555
O2 P0 1.538697 1_555
O3 P1 1.538649 1_555
O4 P0 1.535257 1_555
O5 P1 1.535540 1_555
O6 P2 1.535487 1_555
O7 P3 1.535278 1_555
O8 P6 1.535439 1_655
O9 P7 1.535574 1_655
O10 P4 1.535549 1_455
O11 P5 1.535607 1_455
O12 P0 1.540165 1_555
O13 P1 1.540322 1_555
O14 P2 1.540292 1_555
O15 P3 1.540174 1_555
O16 P4 1.514638 1_555
O17 P5 1.514865 1_555
O18 P6 1.514931 1_555
O19 P7 1.514450 1_555
O20 P6 1.627337 1_555
O20 P2 1.630667 1_555
O21 P7 1.628414 1_555
O21 P3 1.631930 1_565
O22 P4 1.628426 1_555
O22 P0 1.631825 1_545
O23 P5 1.627344 1_555
O23 P1 1.631178 1_555
O24 P7 1.552060 1_555
O25 P6 1.552087 1_556
O26 P5 1.552077 1_554
O27 P4 1.552120 1_555
