# generated using pymatgen
data_Mn2VO4
_symmetry_space_group_name_H-M   'P 1'
_cell_length_a   6.18591778
_cell_length_b   6.17307586
_cell_length_c   30.86800969
_cell_angle_alpha   60.05971029
_cell_angle_beta   59.91360641
_cell_angle_gamma   59.31812625
_symmetry_Int_Tables_number   1
_chemical_formula_structural   Mn2VO4
_chemical_formula_sum   'Mn20 V10 O40'
_cell_volume   828.94002575
_cell_formula_units_Z   10
loop_
 _symmetry_equiv_pos_site_id
 _symmetry_equiv_pos_as_xyz
  1  'x, y, z'
loop_
 _atom_site_type_symbol
 _atom_site_label
 _atom_site_symmetry_multiplicity
 _atom_site_fract_x
 _atom_site_fract_y
 _atom_site_fract_z
 _atom_site_occupancy
  Mn  Mn0  1  0.25854300  0.25406400  0.04776800  1
  Mn  Mn1  1  0.14011600  0.62275200  0.12401900  1
  Mn  Mn2  1  0.24771600  0.24713100  0.25136700  1
  Mn  Mn3  1  0.01121600  0.01117200  0.39794700  1
  Mn  Mn4  1  0.62769200  0.13030000  0.12516400  1
  Mn  Mn5  1  0.62590100  0.62139400  0.12455900  1
  Mn  Mn6  1  0.23943200  0.24006800  0.45235900  1
  Mn  Mn7  1  0.62270500  0.61885700  0.22635400  1
  Mn  Mn8  1  0.00696600  0.00689700  0.59822500  1
  Mn  Mn9  1  0.62579100  0.62566300  0.32458600  1
  Mn  Mn10  1  0.00805700  0.00055600  0.80067700  1
  Mn  Mn11  1  0.62420000  0.62427400  0.42473400  1
  Mn  Mn12  1  0.24354500  0.24065400  0.65180100  1
  Mn  Mn13  1  0.62581600  0.62601600  0.52442800  1
  Mn  Mn14  1  0.62433900  0.62475600  0.62483200  1
  Mn  Mn15  1  0.22826400  0.25666800  0.84973100  1
  Mn  Mn16  1  0.62583400  0.62279000  0.72499200  1
  Mn  Mn17  1  0.61784100  0.12660600  0.92615800  1
  Mn  Mn18  1  0.62221300  0.63118200  0.82483200  1
  Mn  Mn19  1  0.61513800  0.62209700  0.92651200  1
  V  V0  1  0.00187200  0.98980000  0.00287600  1
  V  V1  1  0.00557100  0.00204600  0.19994500  1
  V  V2  1  0.63583200  0.61509600  0.02654800  1
  V  V3  1  0.12921300  0.62660400  0.32554800  1
  V  V4  1  0.62705600  0.12844400  0.32555900  1
  V  V5  1  0.12537700  0.62304300  0.52498500  1
  V  V6  1  0.62283500  0.12547600  0.52502400  1
  V  V7  1  0.12291600  0.62533300  0.72520000  1
  V  V8  1  0.62769900  0.12428400  0.72440500  1
  V  V9  1  0.13092900  0.62195100  0.92303900  1
  O  O0  1  0.41437300  0.39850100  0.06915900  1
  O  O1  1  0.40994800  0.84411700  0.06940300  1
  O  O2  1  0.38621600  0.38380600  0.17063900  1
  O  O3  1  0.85106500  0.39484800  0.07125400  1
  O  O4  1  0.37691200  0.37464100  0.28294800  1
  O  O5  1  0.36463600  0.88133300  0.17555700  1
  O  O6  1  0.35796800  0.83335600  0.28151900  1
  O  O7  1  0.88173600  0.87132700  0.07480200  1
  O  O8  1  0.37349500  0.37452400  0.36868300  1
  O  O9  1  0.88612200  0.36100700  0.17538700  1
  O  O10  1  0.83426600  0.35692900  0.28157300  1
  O  O11  1  0.88299700  0.87810900  0.17790200  1
  O  O12  1  0.37381200  0.37298200  0.48141800  1
  O  O13  1  0.42594500  0.89385500  0.36682900  1
  O  O14  1  0.35546500  0.82954000  0.48117700  1
  O  O15  1  0.37277900  0.37411800  0.56869000  1
  O  O16  1  0.89254500  0.89114200  0.27180100  1
  O  O17  1  0.89441000  0.42593700  0.36658700  1
  O  O18  1  0.87721600  0.87807100  0.36790800  1
  O  O19  1  0.82914000  0.35603000  0.48096700  1
  O  O20  1  0.37518900  0.37125400  0.68202600  1
  O  O21  1  0.41902800  0.89615100  0.56812300  1
  O  O22  1  0.35610300  0.82935600  0.68115300  1
  O  O23  1  0.89544000  0.41939300  0.56811300  1
  O  O24  1  0.87908600  0.87785400  0.48082800  1
  O  O25  1  0.37481900  0.37325800  0.76732200  1
  O  O26  1  0.87650500  0.87857600  0.56721500  1
  O  O27  1  0.83227600  0.35357000  0.68089400  1
  O  O28  1  0.34104800  0.40424600  0.87996500  1
  O  O29  1  0.42156700  0.89274200  0.76900700  1
  O  O30  1  0.33690000  0.84503900  0.88119400  1
  O  O31  1  0.89676900  0.41593900  0.76879800  1
  O  O32  1  0.87741800  0.87438800  0.68103100  1
  O  O33  1  0.34218700  0.40850700  0.96731200  1
  O  O34  1  0.88058500  0.87893900  0.76739000  1
  O  O35  1  0.82754800  0.39026600  0.87760200  1
  O  O36  1  0.37017000  0.86339000  0.97977000  1
  O  O37  1  0.88153600  0.36457700  0.97846200  1
  O  O38  1  0.87547700  0.84347700  0.88628400  1
  O  O39  1  0.87867800  0.85892700  0.97913400  1
loop_
_geom_bond_atom_site_label_1
_geom_bond_atom_site_label_2
_geom_bond_distance
_geom_bond_site_symmetry_2
Mn0 O3 2.048312 1_455
Mn0 O33 2.048441 1_554
Mn0 O1 2.061210 1_545
Mn0 O0 2.064739 1_555
Mn1 O2 2.085713 1_555
Mn1 O1 2.168509 1_555
Mn1 O0 2.173707 1_555
Mn1 O7 2.195877 1_455
Mn1 O9 2.264769 1_455
Mn1 O11 2.277522 1_455
Mn2 O2 2.038141 1_555
Mn2 O10 2.083446 1_455
Mn2 O6 2.083562 1_545
Mn2 O4 2.097060 1_555
Mn3 O17 2.086603 1_455
Mn3 O13 2.087197 1_545
Mn3 O24 2.092575 1_445
Mn3 O18 2.109060 1_445
Mn4 O2 2.086989 1_555
Mn4 O3 2.151797 1_555
Mn4 O0 2.161380 1_555
Mn4 O7 2.215736 1_545
Mn4 O5 2.248933 1_545
Mn4 O11 2.259795 1_545
Mn5 O2 2.096419 1_555
Mn5 O3 2.148125 1_555
Mn5 O1 2.154736 1_555
Mn5 O7 2.221116 1_555
Mn5 O5 2.233596 1_555
Mn5 O9 2.238458 1_555
Mn6 O14 2.064540 1_545
Mn6 O19 2.064845 1_455
Mn6 O12 2.084965 1_555
Mn6 O8 2.112577 1_555
Mn7 O10 2.135029 1_555
Mn7 O6 2.139299 1_555
Mn7 O4 2.164176 1_555
Mn7 O9 2.224037 1_555
Mn7 O5 2.228529 1_555
Mn7 O11 2.284022 1_555
Mn8 O21 2.075836 1_545
Mn8 O23 2.076406 1_455
Mn8 O32 2.091161 1_445
Mn8 O26 2.092562 1_445
Mn9 O13 2.102253 1_555
Mn9 O17 2.106099 1_555
Mn9 O10 2.115783 1_555
Mn9 O6 2.120130 1_555
Mn9 O8 2.219201 1_555
Mn9 O16 2.337130 1_555
Mn10 O29 2.084851 1_545
Mn10 O31 2.091966 1_455
Mn10 O34 2.104201 1_445
Mn10 O38 2.162580 1_445
Mn11 O14 2.134186 1_555
Mn11 O19 2.134706 1_555
Mn11 O17 2.147469 1_555
Mn11 O13 2.148041 1_555
Mn11 O12 2.211884 1_555
Mn11 O18 2.233339 1_555
Mn12 O22 2.069831 1_545
Mn12 O27 2.071016 1_455
Mn12 O20 2.089534 1_555
Mn12 O15 2.098947 1_555
Mn13 O19 2.135472 1_555
Mn13 O21 2.138836 1_555
Mn13 O14 2.139550 1_555
Mn13 O23 2.143379 1_555
Mn13 O15 2.225722 1_555
Mn13 O24 2.228411 1_555
Mn14 O22 2.128778 1_555
Mn14 O23 2.141700 1_555
Mn14 O27 2.143394 1_555
Mn14 O21 2.148058 1_555
Mn14 O20 2.217350 1_555
Mn14 O26 2.232155 1_555
Mn15 O35 2.012102 1_455
Mn15 O30 2.073622 1_545
Mn15 O25 2.082546 1_555
Mn15 O28 2.082738 1_555
Mn16 O27 2.143609 1_555
Mn16 O29 2.146957 1_555
Mn16 O22 2.147379 1_555
Mn16 O31 2.152323 1_555
Mn16 O25 2.211069 1_555
Mn16 O32 2.218391 1_555
Mn17 O35 2.085331 1_555
Mn17 O38 2.108919 1_545
Mn17 O33 2.134531 1_555
Mn17 O28 2.217167 1_555
Mn17 O36 2.245096 1_545
Mn17 O39 2.288053 1_545
Mn18 O35 2.051078 1_555
Mn18 O29 2.106860 1_555
Mn18 O31 2.165053 1_555
Mn18 O30 2.172743 1_555
Mn18 O34 2.232469 1_555
Mn18 O28 2.241184 1_555
Mn19 O35 2.074287 1_555
Mn19 O38 2.133111 1_555
Mn19 O33 2.158208 1_555
Mn19 O36 2.204697 1_555
Mn19 O30 2.210916 1_555
Mn19 O37 2.290335 1_555
O0 V2 1.923982 1_555
O1 V2 1.923187 1_555
O3 V2 1.909829 1_555
O4 V4 2.019750 1_555
O4 V3 2.021251 1_555
O5 V1 1.802735 1_565
O6 V3 1.913609 1_555
O7 V0 1.815510 1_655
O8 V3 2.006768 1_555
O8 V4 2.008290 1_555
O9 V1 1.801305 1_655
O10 V4 1.914263 1_555
O11 V1 1.803371 1_665
O12 V5 2.032784 1_555
O12 V6 2.035494 1_555
O13 V4 1.917230 1_565
O14 V5 1.918479 1_555
O15 V6 2.029061 1_555
O15 V5 2.030807 1_555
O16 V1 1.815261 1_665
O16 V4 2.198987 1_565
O16 V3 2.203073 1_655
O17 V3 1.916745 1_655
O18 V3 2.015537 1_655
O18 V4 2.015653 1_565
O19 V6 1.919687 1_555
O20 V8 2.025598 1_555
O20 V7 2.043239 1_555
O21 V6 1.903479 1_565
O22 V7 1.921963 1_555
O23 V5 1.905680 1_655
O24 V5 2.037027 1_655
O24 V6 2.037413 1_565
O25 V8 2.016246 1_555
O25 V7 2.019233 1_555
O26 V6 2.026882 1_565
O26 V5 2.029715 1_655
O27 V8 1.906572 1_555
O28 V9 1.879268 1_555
O29 V8 1.923528 1_565
O30 V9 1.885034 1_555
O31 V7 1.913209 1_655
O32 V8 2.028454 1_565
O32 V7 2.032148 1_655
O33 V9 1.883469 1_555
O34 V7 2.019123 1_655
O34 V8 2.039296 1_565
O36 V0 1.849366 1_556
O36 V2 2.175832 1_556
O37 V0 1.881224 1_646
O37 V2 2.129676 1_556
O37 V9 2.230050 1_655
O38 V9 1.922967 1_655
O39 V0 1.884092 1_656
O39 V2 2.137420 1_556
O39 V9 2.250115 1_655
