# generated using pymatgen
data_ZnSi4As2(H3C)12
_symmetry_space_group_name_H-M   'P 1'
_cell_length_a   9.99702400
_cell_length_b   11.06230180
_cell_length_c   12.74837563
_cell_angle_alpha   92.72290966
_cell_angle_beta   104.95455337
_cell_angle_gamma   105.81684187
_symmetry_Int_Tables_number   1
_chemical_formula_structural   ZnSi4As2(H3C)12
_chemical_formula_sum   'Zn2 Si8 As4 H72 C24'
_cell_volume   1299.94858256
_cell_formula_units_Z   2
loop_
 _symmetry_equiv_pos_site_id
 _symmetry_equiv_pos_as_xyz
  1  'x, y, z'
loop_
 _atom_site_type_symbol
 _atom_site_label
 _atom_site_symmetry_multiplicity
 _atom_site_fract_x
 _atom_site_fract_y
 _atom_site_fract_z
 _atom_site_occupancy
  Zn  Zn0  1  0.98255400  0.11356600  0.40456100  1
  Zn  Zn1  1  0.01744600  0.88643400  0.59543900  1
  Si  Si0  1  0.13926400  0.82926500  0.34879200  1
  Si  Si1  1  0.86073600  0.17073500  0.65120800  1
  Si  Si2  1  0.73682800  0.17683700  0.16220400  1
  Si  Si3  1  0.73080200  0.69549500  0.30048300  1
  Si  Si4  1  0.85560800  0.69375600  0.78625800  1
  Si  Si5  1  0.26317200  0.82316300  0.83779600  1
  Si  Si6  1  0.26919800  0.30450500  0.69951700  1
  Si  Si7  1  0.14439200  0.30624400  0.21374200  1
  As  As0  1  0.95515000  0.28564100  0.29909400  1
  As  As1  1  0.04485000  0.71435900  0.70090600  1
  As  As2  1  0.93567100  0.87330800  0.38972300  1
  As  As3  1  0.06432900  0.12669200  0.61027700  1
  H  H0  1  0.33286600  0.44570400  0.37680600  1
  H  H1  1  0.84925800  0.52703700  0.35580300  1
  H  H2  1  0.57157800  0.75684100  0.40431100  1
  H  H3  1  0.67677200  0.37418900  0.10605800  1
  H  H4  1  0.15181100  0.52696400  0.17234300  1
  H  H5  1  0.03870200  0.71071000  0.15848900  1
  H  H6  1  0.09506400  0.59856100  0.37258100  1
  H  H7  1  0.67224600  0.71541600  0.61637000  1
  H  H8  1  0.44704800  0.18023900  0.72287100  1
  H  H9  1  0.23359500  0.45507900  0.08832300  1
  H  H10  1  0.58747600  0.62856200  0.70709700  1
  H  H11  1  0.18267300  0.69525600  0.49993500  1
  H  H12  1  0.42842200  0.24315900  0.59568900  1
  H  H13  1  0.20251100  0.36900300  0.86601400  1
  H  H14  1  0.22043300  0.03342800  0.86054500  1
  H  H15  1  0.60669100  0.59014000  0.11063500  1
  H  H16  1  0.29279100  0.25088800  0.89161800  1
  H  H17  1  0.08056800  0.87664100  0.15358500  1
  H  H18  1  0.71713600  0.31864600  0.59490300  1
  H  H19  1  0.04179100  0.41460900  0.05734600  1
  H  H20  1  0.53254100  0.34305200  0.71988900  1
  H  H21  1  0.79748900  0.63099700  0.13398600  1
  H  H22  1  0.19884300  0.95243700  0.97484300  1
  H  H23  1  0.76760500  0.56536700  0.45563700  1
  H  H24  1  0.55295200  0.81976100  0.27712900  1
  H  H25  1  0.39658700  0.96052300  0.39597500  1
  H  H26  1  0.80115700  0.04756300  0.02515700  1
  H  H27  1  0.46745900  0.65694800  0.28011100  1
  H  H28  1  0.15074200  0.47296300  0.64419700  1
  H  H29  1  0.48780300  0.08111100  0.18133700  1
  H  H30  1  0.71908900  0.94118700  0.62862200  1
  H  H31  1  0.94869300  0.86681000  0.94527000  1
  H  H32  1  0.42309800  0.75728500  0.99598400  1
  H  H33  1  0.31631500  0.99616900  0.49823900  1
  H  H34  1  0.90493600  0.40143900  0.62741900  1
  H  H35  1  0.58497500  0.21266200  0.28400700  1
  H  H36  1  0.23239500  0.43463300  0.54436300  1
  H  H37  1  0.68368500  0.00383100  0.50176100  1
  H  H38  1  0.77956700  0.96657200  0.13945500  1
  H  H39  1  0.37812900  0.93474200  0.70217200  1
  H  H40  1  0.62432000  0.97451100  0.03628600  1
  H  H41  1  0.23782500  0.68073800  0.98429400  1
  H  H42  1  0.32322800  0.62581100  0.89394200  1
  H  H43  1  0.84818900  0.47303600  0.82765700  1
  H  H44  1  0.65900700  0.46894800  0.33068600  1
  H  H45  1  0.62187100  0.06525800  0.29782800  1
  H  H46  1  0.57690200  0.24271500  0.00401600  1
  H  H47  1  0.86031600  0.91904500  0.82431500  1
  H  H48  1  0.51219700  0.91888900  0.81866300  1
  H  H49  1  0.81732700  0.30474400  0.50006500  1
  H  H50  1  0.22201800  0.80397600  0.18455800  1
  H  H51  1  0.95820900  0.58539100  0.94265400  1
  H  H52  1  0.76640500  0.54492100  0.91167700  1
  H  H53  1  0.77798200  0.19602400  0.81544200  1
  H  H54  1  0.28286400  0.68135400  0.40509700  1
  H  H55  1  0.05130700  0.13319000  0.05473000  1
  H  H56  1  0.13968400  0.08095500  0.17568500  1
  H  H57  1  0.34099300  0.53105200  0.66931400  1
  H  H58  1  0.66713400  0.55429600  0.62319400  1
  H  H59  1  0.91943200  0.12335900  0.84641500  1
  H  H60  1  0.28091100  0.05881300  0.37137800  1
  H  H61  1  0.39330900  0.40986000  0.88936500  1
  H  H62  1  0.37568000  0.02548900  0.96371400  1
  H  H63  1  0.41252400  0.37143800  0.29290300  1
  H  H64  1  0.76217500  0.31926200  0.01570600  1
  H  H65  1  0.75632300  0.81845100  0.89760600  1
  H  H66  1  0.60341300  0.03947700  0.60402500  1
  H  H67  1  0.96129800  0.28929000  0.84151100  1
  H  H68  1  0.41502500  0.78733800  0.71599300  1
  H  H69  1  0.32775400  0.28458400  0.38363000  1
  H  H70  1  0.70720900  0.74911200  0.10838200  1
  H  H71  1  0.24367700  0.18154900  0.10239400  1
  C  C0  1  0.85608300  0.83822100  0.87143300  1
  C  C1  1  0.11654200  0.80268000  0.19697900  1
  C  C2  1  0.32018700  0.35674300  0.32776800  1
  C  C3  1  0.59483300  0.13008900  0.23851800  1
  C  C4  1  0.29743400  0.97502700  0.40959800  1
  C  C5  1  0.40516700  0.86991100  0.76148200  1
  C  C6  1  0.14247700  0.43810100  0.12475100  1
  C  C7  1  0.70256600  0.02497300  0.59040200  1
  C  C8  1  0.14391700  0.16177900  0.12856700  1
  C  C9  1  0.75411000  0.55159600  0.36720300  1
  C  C10  1  0.17764400  0.68795000  0.41263100  1
  C  C11  1  0.29037000  0.33564900  0.85059900  1
  C  C12  1  0.26401200  0.97225200  0.91684400  1
  C  C13  1  0.67981300  0.64325700  0.67223200  1
  C  C14  1  0.43433400  0.26358600  0.68225700  1
  C  C15  1  0.70963000  0.66435100  0.14940100  1
  C  C16  1  0.31636100  0.71127500  0.93722600  1
  C  C17  1  0.85752300  0.56189900  0.87524900  1
  C  C18  1  0.56566600  0.73641400  0.31774300  1
  C  C19  1  0.24589000  0.44840400  0.63279700  1
  C  C20  1  0.82235600  0.31205000  0.58736900  1
  C  C21  1  0.68363900  0.28872500  0.06277400  1
  C  C22  1  0.73598800  0.02774800  0.08315600  1
  C  C23  1  0.88345800  0.19732000  0.80302100  1
loop_
_geom_bond_atom_site_label_1
_geom_bond_atom_site_label_2
_geom_bond_distance
_geom_bond_site_symmetry_2
As0 Si2 2.379159 1_555
As0 Si7 2.380327 1_655
As0 Zn0 2.417365 1_555
As1 Si5 2.379159 1_555
As1 Si4 2.380327 1_455
As1 Zn1 2.417365 1_555
As2 Si0 2.390972 1_655
As2 Si3 2.397253 1_555
As2 Zn1 2.521854 1_655
As2 Zn0 2.558673 1_565
As3 Si1 2.390972 1_455
As3 Si6 2.397253 1_555
As3 Zn0 2.521854 1_455
As3 Zn1 2.558673 1_545
C0 H47 1.097971 1_555
C0 H31 1.097974 1_555
C0 H65 1.101613 1_555
C0 Si4 1.887161 1_555
C1 H5 1.097880 1_555
C1 H17 1.097958 1_555
C1 H50 1.102399 1_555
C1 Si0 1.888479 1_555
C2 H0 1.099098 1_555
C2 H69 1.099636 1_555
C2 H63 1.101319 1_555
C2 Si7 1.892852 1_555
C3 H35 1.099379 1_555
C3 H45 1.100374 1_555
C3 H29 1.101683 1_555
C3 Si2 1.894564 1_555
C4 H33 1.099106 1_555
C4 H60 1.099364 1_565
C4 H25 1.100613 1_555
C4 Si0 1.886786 1_555
C5 H68 1.099379 1_555
C5 H39 1.100374 1_555
C5 H48 1.101683 1_555
C5 Si5 1.894564 1_555
C6 H4 1.098760 1_555
C6 H19 1.099495 1_555
C6 H9 1.101837 1_555
C6 Si7 1.891114 1_555
C7 H37 1.099106 1_555
C7 H30 1.099364 1_545
C7 H66 1.100613 1_555
C7 Si1 1.886786 1_555
C8 H56 1.097971 1_555
C8 H55 1.097974 1_555
C8 H71 1.101613 1_555
C8 Si7 1.887161 1_555
C9 H23 1.098361 1_555
C9 H1 1.099169 1_555
C9 H44 1.101737 1_555
C9 Si3 1.881574 1_555
C10 H11 1.099160 1_555
C10 H6 1.099782 1_555
C10 H54 1.101967 1_555
C10 Si0 1.881504 1_555
C11 H13 1.097760 1_555
C11 H16 1.098022 1_555
C11 H61 1.102560 1_555
C11 Si6 1.886788 1_555
C12 H22 1.097890 1_555
C12 H14 1.099273 1_565
C12 H62 1.101819 1_565
C12 Si5 1.888346 1_555
C13 H58 1.099098 1_555
C13 H7 1.099636 1_555
C13 H10 1.101319 1_555
C13 Si4 1.892852 1_555
C14 H12 1.099024 1_555
C14 H8 1.099823 1_555
C14 H20 1.101448 1_555
C14 Si6 1.887871 1_555
C15 H21 1.097760 1_555
C15 H70 1.098022 1_555
C15 H15 1.102560 1_555
C15 Si3 1.886788 1_555
C16 H42 1.099271 1_555
C16 H41 1.099276 1_555
C16 H32 1.101797 1_555
C16 Si5 1.892472 1_555
C17 H43 1.098760 1_555
C17 H51 1.099495 1_555
C17 H52 1.101837 1_555
C17 Si4 1.891114 1_555
C18 H2 1.099024 1_555
C18 H24 1.099823 1_555
C18 H27 1.101448 1_555
C18 Si3 1.887871 1_555
C19 H36 1.098361 1_555
C19 H28 1.099169 1_555
C19 H57 1.101737 1_555
C19 Si6 1.881574 1_555
C20 H49 1.099160 1_555
C20 H34 1.099782 1_555
C20 H18 1.101967 1_555
C20 Si1 1.881504 1_555
C21 H3 1.099271 1_555
C21 H64 1.099276 1_555
C21 H46 1.101797 1_555
C21 Si2 1.892472 1_555
C22 H26 1.097890 1_555
C22 H38 1.099273 1_545
C22 H40 1.101819 1_545
C22 Si2 1.888346 1_555
C23 H67 1.097880 1_555
C23 H59 1.097958 1_555
C23 H53 1.102399 1_555
C23 Si1 1.888479 1_555
