# generated using pymatgen
data_Ti4NiBi2
_symmetry_space_group_name_H-M   'P 1'
_cell_length_a   4.78205400
_cell_length_b   7.90814118
_cell_length_c   7.90813956
_cell_angle_alpha   84.75494480
_cell_angle_beta   72.40118155
_cell_angle_gamma   72.40118302
_symmetry_Int_Tables_number   1
_chemical_formula_structural   Ti4NiBi2
_chemical_formula_sum   'Ti8 Ni2 Bi4'
_cell_volume   271.72429084
_cell_formula_units_Z   2
loop_
 _symmetry_equiv_pos_site_id
 _symmetry_equiv_pos_as_xyz
  1  'x, y, z'
loop_
 _atom_site_type_symbol
 _atom_site_label
 _atom_site_symmetry_multiplicity
 _atom_site_fract_x
 _atom_site_fract_y
 _atom_site_fract_z
 _atom_site_occupancy
  Ti  Ti0  1  0.08034278  0.11576328  0.72355216  1
  Ti  Ti1  1  0.80389494  0.27644784  0.11576328  1
  Ti  Ti2  1  0.30389494  0.11576328  0.27644784  1
  Ti  Ti3  1  0.58034278  0.72355216  0.11576328  1
  Ti  Ti4  1  0.19610506  0.72355216  0.88423672  1
  Ti  Ti5  1  0.91965722  0.88423672  0.27644784  1
  Ti  Ti6  1  0.41965722  0.27644784  0.88423672  1
  Ti  Ti7  1  0.69610506  0.88423672  0.72355216  1
  Ni  Ni0  1  0.75000000  -0.00000000  0.00000000  1
  Ni  Ni1  1  0.25000000  -0.00000000  0.00000000  1
  Bi  Bi0  1  0.35794788  0.78410424  0.50000000  1
  Bi  Bi1  1  0.64205212  0.21589576  0.50000000  1
  Bi  Bi2  1  0.14205212  0.50000000  0.21589576  1
  Bi  Bi3  1  0.85794788  0.50000000  0.78410424  1
loop_
_geom_bond_atom_site_label_1
_geom_bond_atom_site_label_2
_geom_bond_distance
_geom_bond_site_symmetry_2
Ti0 Ti6 2.941293 1_555
Ti0 Ti6 2.941301 1_455
Ti0 Ti7 2.960217 1_545
Ti0 Ti7 2.960225 1_445
Ti0 Ti1 3.194990 1_456
Ti0 Ti4 3.194990 1_545
Ti0 Ti2 3.370279 1_555
Ti1 Ti2 2.941297 1_655
Ti1 Ti2 2.941297 1_555
Ti1 Ti6 2.960217 1_654
Ti1 Ti6 2.960225 1_554
Ti1 Ti5 3.194990 1_545
Ti1 Ti3 3.370279 1_555
Ti2 Ti5 2.960217 1_545
Ti2 Ti5 2.960225 1_445
Ti2 Ti6 3.194990 1_554
Ti2 Ti3 3.194990 1_545
Ti3 Ti5 2.941293 1_555
Ti3 Ti5 2.941301 1_455
Ti3 Ti4 2.960217 1_654
Ti3 Ti4 2.960225 1_554
Ti3 Ti7 3.194990 1_554
Ti4 Ti7 2.941297 1_455
Ti4 Ti7 2.941297 1_555
Ti4 Ti5 3.194990 1_456
Ti4 Ti6 3.370279 1_555
Ti5 Ti7 3.370279 1_555
Ti6 Ti7 3.194990 1_545
Ni0 Ni1 2.391027 1_555
Ni0 Ni1 2.391027 1_655
Ni0 Ti2 2.556018 1_555
Ni0 Ti5 2.556018 1_545
Ni0 Ti4 2.556018 1_644
Ni0 Ti3 2.556018 1_545
Ni0 Ti0 2.556020 1_654
Ni0 Ti6 2.556020 1_554
Ni0 Ti7 2.556020 1_544
Ni0 Ti1 2.556020 1_555
Ni1 Ti7 2.556018 1_544
Ni1 Ti0 2.556018 1_554
Ni1 Ti1 2.556018 1_455
Ni1 Ti6 2.556018 1_554
Ni1 Ti5 2.556020 1_445
Ni1 Ti3 2.556020 1_545
Ni1 Ti2 2.556020 1_555
Ni1 Ti4 2.556020 1_544
Bi0 Ti4 2.932127 1_555
Bi0 Ti3 2.932127 1_555
Bi0 Ti2 3.014954 1_565
Bi0 Ti0 3.014954 1_565
Bi0 Ti5 3.020996 1_555
Bi0 Ti7 3.020996 1_555
Bi0 Ti7 3.021000 1_455
Bi0 Ti5 3.021000 1_455
Bi1 Ti1 2.932127 1_555
Bi1 Ti6 2.932127 1_555
Bi1 Ti7 3.014954 1_545
Bi1 Ti5 3.014954 1_545
Bi1 Ti0 3.020996 1_555
Bi1 Ti2 3.020996 1_555
Bi1 Ti2 3.021000 1_655
Bi1 Ti0 3.021000 1_655
Bi2 Ti2 2.932127 1_555
Bi2 Ti5 2.932127 1_455
Bi2 Ti4 3.014954 1_554
Bi2 Ti6 3.014954 1_554
Bi2 Ti3 3.020996 1_455
Bi2 Ti1 3.020996 1_455
Bi2 Ti1 3.021000 1_555
Bi2 Ti3 3.021000 1_555
Bi3 Ti7 2.932127 1_555
Bi3 Ti0 2.932127 1_655
Bi3 Ti1 3.014954 1_556
Bi3 Ti3 3.014954 1_556
Bi3 Ti6 3.020996 1_655
Bi3 Ti4 3.020996 1_655
Bi3 Ti4 3.021000 1_555
Bi3 Ti6 3.021000 1_555
