# generated using pymatgen
data_HoCoSn2
_symmetry_space_group_name_H-M   'P 1'
_cell_length_a   11.11788034
_cell_length_b   11.11788034
_cell_length_c   4.47417400
_cell_angle_alpha   90.00000000
_cell_angle_beta   90.00000000
_cell_angle_gamma   158.48641299
_symmetry_Int_Tables_number   1
_chemical_formula_structural   HoCoSn2
_chemical_formula_sum   'Ho2 Co2 Sn4'
_cell_volume   202.81200195
_cell_formula_units_Z   2
loop_
 _symmetry_equiv_pos_site_id
 _symmetry_equiv_pos_as_xyz
  1  'x, y, z'
loop_
 _atom_site_type_symbol
 _atom_site_label
 _atom_site_symmetry_multiplicity
 _atom_site_fract_x
 _atom_site_fract_y
 _atom_site_fract_z
 _atom_site_occupancy
  Ho  Ho0  1  0.84236800  0.15763200  0.75000000  1
  Ho  Ho1  1  0.15763200  0.84236800  0.25000000  1
  Co  Co0  1  0.25024900  0.74975100  0.75000000  1
  Co  Co1  1  0.74975100  0.25024900  0.25000000  1
  Sn  Sn0  1  0.45746200  0.54253800  0.75000000  1
  Sn  Sn1  1  0.54253800  0.45746200  0.25000000  1
  Sn  Sn2  1  0.68363700  0.31636300  0.75000000  1
  Sn  Sn3  1  0.31636300  0.68363700  0.25000000  1
loop_
_geom_bond_atom_site_label_1
_geom_bond_atom_site_label_2
_geom_bond_distance
_geom_bond_site_symmetry_2
Ho0 Sn3 3.103723 1_656
Ho0 Sn3 3.103723 1_655
Ho0 Sn3 3.103723 1_545
Ho0 Sn3 3.103723 1_546
Ho0 Sn0 3.259937 1_655
Ho0 Sn0 3.259937 1_545
Ho1 Sn2 3.103723 1_564
Ho1 Sn2 3.103723 1_565
Ho1 Sn2 3.103723 1_455
Ho1 Sn2 3.103723 1_454
Ho1 Sn1 3.259937 1_455
Ho1 Sn1 3.259937 1_565
Co0 Sn2 2.534415 1_565
Co0 Sn2 2.534415 1_455
Co0 Sn3 2.662791 1_555
Co0 Sn3 2.662791 1_556
Co0 Ho0 2.890561 1_455
Co0 Ho0 2.890561 1_565
Co0 Ho1 3.016287 1_556
Co0 Ho1 3.016287 1_555
Co1 Sn3 2.534415 1_655
Co1 Sn3 2.534415 1_545
Co1 Sn2 2.662791 1_555
Co1 Sn2 2.662791 1_554
Co1 Ho1 2.890561 1_545
Co1 Ho1 2.890561 1_655
Co1 Ho0 3.016287 1_555
Co1 Ho0 3.016287 1_554
Sn0 Sn1 2.908357 1_556
Sn0 Sn1 2.908357 1_555
