# generated using pymatgen
data_Tl9SbSe6
_symmetry_space_group_name_H-M   'P 1'
_cell_length_a   11.86713300
_cell_length_b   11.86713300
_cell_length_c   14.44381200
_cell_angle_alpha   90.00000000
_cell_angle_beta   90.00000000
_cell_angle_gamma   90.00000000
_symmetry_Int_Tables_number   1
_chemical_formula_structural   Tl9SbSe6
_chemical_formula_sum   'Tl36 Sb4 Se24'
_cell_volume   2034.10537060
_cell_formula_units_Z   4
loop_
 _symmetry_equiv_pos_site_id
 _symmetry_equiv_pos_as_xyz
  1  'x, y, z'
loop_
 _atom_site_type_symbol
 _atom_site_label
 _atom_site_symmetry_multiplicity
 _atom_site_fract_x
 _atom_site_fract_y
 _atom_site_fract_z
 _atom_site_occupancy
  Tl  Tl0  1  0.90049900  0.74864200  0.60733700  1
  Tl  Tl1  1  0.11190300  0.71499900  0.11434700  1
  Tl  Tl2  1  0.22963800  0.59989500  0.59631200  1
  Tl  Tl3  1  0.38247300  0.72768700  0.39947900  1
  Tl  Tl4  1  0.25525800  0.59033000  0.89614200  1
  Tl  Tl5  1  0.23878200  0.40694200  0.10571500  1
  Tl  Tl6  1  0.27231300  0.38247300  0.39947900  1
  Tl  Tl7  1  0.59033000  0.74474200  0.89614200  1
  Tl  Tl8  1  0.50000000  0.50000000  0.68798400  1
  Tl  Tl9  1  0.40967000  0.25525800  0.89614200  1
  Tl  Tl10  1  0.72768700  0.61752700  0.39947900  1
  Tl  Tl11  1  0.40010500  0.22963800  0.59631200  1
  Tl  Tl12  1  0.76121800  0.59305800  0.10571500  1
  Tl  Tl13  1  0.74474200  0.40967000  0.89614200  1
  Tl  Tl14  1  0.61752700  0.27231300  0.39947900  1
  Tl  Tl15  1  0.77036200  0.40010500  0.59631200  1
  Tl  Tl16  1  0.59305800  0.23878200  0.10571500  1
  Tl  Tl17  1  0.00000000  0.50000000  0.33099000  1
  Tl  Tl18  1  0.88809700  0.28500100  0.11434700  1
  Tl  Tl19  1  0.74864200  0.09950100  0.60733700  1
  Tl  Tl20  1  0.90954100  0.21445000  0.37980400  1
  Tl  Tl21  1  0.74328700  0.11196800  0.90508900  1
  Tl  Tl22  1  0.71499900  0.88809700  0.11434700  1
  Tl  Tl23  1  0.09950100  0.25135800  0.60733700  1
  Tl  Tl24  1  0.78555000  0.90954100  0.37980400  1
  Tl  Tl25  1  0.11196800  0.25671300  0.90508900  1
  Tl  Tl26  1  0.00000000  0.00000000  0.16967000  1
  Tl  Tl27  1  0.88803200  0.74328700  0.90508900  1
  Tl  Tl28  1  0.21445000  0.09045900  0.37980400  1
  Tl  Tl29  1  0.28500100  0.11190300  0.11434700  1
  Tl  Tl30  1  0.25671300  0.88803200  0.90508900  1
  Tl  Tl31  1  0.09045900  0.78555000  0.37980400  1
  Tl  Tl32  1  0.25135800  0.90049900  0.60733700  1
  Tl  Tl33  1  0.50000000  0.00000000  0.33099000  1
  Tl  Tl34  1  0.40694200  0.76121800  0.10571500  1
  Tl  Tl35  1  0.59989500  0.77036200  0.59631200  1
  Sb  Sb0  1  0.00000000  0.50000000  0.75909200  1
  Sb  Sb1  1  0.50000000  0.50000000  0.23865900  1
  Sb  Sb2  1  0.50000000  0.00000000  0.75909200  1
  Sb  Sb3  1  0.00000000  0.00000000  0.76921900  1
  Se  Se0  1  0.07642900  0.75042300  0.76132200  1
  Se  Se1  1  0.00000000  0.50000000  0.95137300  1
  Se  Se2  1  0.26553200  0.57660300  0.25734600  1
  Se  Se3  1  0.23122800  0.41876400  0.74693800  1
  Se  Se4  1  0.57660300  0.73446800  0.25734600  1
  Se  Se5  1  0.50000000  0.50000000  0.47235400  1
  Se  Se6  1  0.50000000  0.50000000  0.05460600  1
  Se  Se7  1  0.42339700  0.26553200  0.25734600  1
  Se  Se8  1  0.76877200  0.58123600  0.74693800  1
  Se  Se9  1  0.73446800  0.42339700  0.25734600  1
  Se  Se10  1  0.58123600  0.23122800  0.74693800  1
  Se  Se11  1  0.50000000  0.00000000  0.95137300  1
  Se  Se12  1  0.00000000  0.50000000  0.55110600  1
  Se  Se13  1  0.92357100  0.24957700  0.76132200  1
  Se  Se14  1  0.75512300  0.09124100  0.23307700  1
  Se  Se15  1  0.75042300  0.92357100  0.76132200  1
  Se  Se16  1  0.09124100  0.24487700  0.23307700  1
  Se  Se17  1  0.00000000  0.00000000  0.46669400  1
  Se  Se18  1  0.00000000  0.00000000  0.94406100  1
  Se  Se19  1  0.90875900  0.75512300  0.23307700  1
  Se  Se20  1  0.24957700  0.07642900  0.76132200  1
  Se  Se21  1  0.24487700  0.90875900  0.23307700  1
  Se  Se22  1  0.50000000  0.00000000  0.55110600  1
  Se  Se23  1  0.41876400  0.76877200  0.74693800  1
loop_
_geom_bond_atom_site_label_1
_geom_bond_atom_site_label_2
_geom_bond_distance
_geom_bond_site_symmetry_2
Sb0 Se1 2.777271 1_555
Sb0 Se3 2.913726 1_555
Sb0 Se8 2.913726 1_455
Sb0 Se12 3.004111 1_555
Sb0 Se0 3.107296 1_555
Sb0 Se13 3.107296 1_455
Sb1 Se6 2.658427 1_555
Sb1 Se2 2.939615 1_555
Sb1 Se9 2.939615 1_555
Sb1 Se7 2.939615 1_555
Sb1 Se4 2.939615 1_555
Sb2 Se11 2.777271 1_555
Sb2 Se10 2.913726 1_555
Sb2 Se23 2.913726 1_545
Sb2 Se22 3.004111 1_555
Sb2 Se15 3.107296 1_545
Sb2 Se20 3.107296 1_555
Sb3 Se18 2.525385 1_555
Sb3 Se13 3.099627 1_455
Sb3 Se0 3.099627 1_545
Sb3 Se20 3.099627 1_555
Sb3 Se15 3.099627 1_445
Se0 Tl0 3.050582 1_455
Se0 Tl27 3.052491 1_455
Se0 Tl30 3.399421 1_555
Se1 Tl25 3.247756 1_555
Se1 Tl27 3.247756 1_455
Se1 Tl13 3.310805 1_455
Se1 Tl4 3.310805 1_555
Se2 Tl5 2.991852 1_555
Se2 Tl3 3.058602 1_555
Se2 Tl6 3.086809 1_555
Se2 Tl1 3.207377 1_555
Se3 Tl4 2.978414 1_555
Se3 Tl2 3.058435 1_555
Se3 Tl23 3.233591 1_555
Se3 Tl25 3.304434 1_555
Se4 Tl34 2.991852 1_555
Se4 Tl10 3.058602 1_555
Se4 Tl3 3.086809 1_555
Se4 Tl22 3.207377 1_555
Se5 Tl8 3.114519 1_555
Se5 Tl6 3.217751 1_555
Se5 Tl10 3.217751 1_555
Se5 Tl14 3.217751 1_555
Se5 Tl3 3.217751 1_555
Se7 Tl16 2.991852 1_555
Se7 Tl6 3.058602 1_555
Se7 Tl14 3.086809 1_555
Se7 Tl29 3.207377 1_555
Se8 Tl13 2.978414 1_555
Se8 Tl15 3.058435 1_555
Se8 Tl0 3.233591 1_555
Se8 Tl27 3.304434 1_555
Se9 Tl12 2.991852 1_555
Se9 Tl14 3.058602 1_555
Se9 Tl10 3.086809 1_555
Se9 Tl18 3.207377 1_555
Se10 Tl9 2.978414 1_555
Se10 Tl11 3.058435 1_555
Se10 Tl19 3.233591 1_555
Se10 Tl21 3.304434 1_555
Se11 Tl30 3.247756 1_545
Se11 Tl21 3.247756 1_555
Se11 Tl7 3.310805 1_545
Se11 Tl9 3.310805 1_555
Se12 Tl2 3.042710 1_555
Se12 Tl15 3.042710 1_455
Se12 Tl17 3.179314 1_555
Se12 Tl23 3.280299 1_555
Se12 Tl0 3.280299 1_455
Se13 Tl23 3.050582 1_655
Se13 Tl25 3.052491 1_655
Se13 Tl21 3.399421 1_555
Se14 Tl22 2.996549 1_545
Se14 Tl24 3.044873 1_545
Se14 Tl20 3.160272 1_555
Se14 Tl16 3.185685 1_555
Se14 Tl26 3.233561 1_655
Se14 Tl18 3.273867 1_555
Se15 Tl19 3.050582 1_565
Se15 Tl21 3.052491 1_565
Se15 Tl27 3.399421 1_555
Se16 Tl18 2.996549 1_455
Se16 Tl20 3.044873 1_455
Se16 Tl28 3.160272 1_555
Se16 Tl5 3.185685 1_555
Se16 Tl26 3.233561 1_555
Se16 Tl29 3.273867 1_555
Se17 Tl20 3.033811 1_455
Se17 Tl28 3.033811 1_555
Se17 Tl31 3.033811 1_545
Se17 Tl24 3.033811 1_445
Se18 Tl26 3.258654 1_556
Se18 Tl27 3.370942 1_445
Se18 Tl21 3.370942 1_455
Se18 Tl30 3.370942 1_545
Se18 Tl25 3.370942 1_555
Se19 Tl1 2.996549 1_655
Se19 Tl31 3.044873 1_655
Se19 Tl24 3.160272 1_555
Se19 Tl12 3.185685 1_555
Se19 Tl26 3.233561 1_665
Se19 Tl22 3.273867 1_555
Se20 Tl32 3.050582 1_545
Se20 Tl30 3.052491 1_545
Se20 Tl25 3.399421 1_555
Se21 Tl29 2.996549 1_565
Se21 Tl28 3.044873 1_565
Se21 Tl31 3.160272 1_555
Se21 Tl34 3.185685 1_555
Se21 Tl26 3.233561 1_565
Se21 Tl1 3.273867 1_555
Se22 Tl35 3.042710 1_545
Se22 Tl11 3.042710 1_555
Se22 Tl33 3.179314 1_555
Se22 Tl32 3.280299 1_545
Se22 Tl19 3.280299 1_555
Se23 Tl7 2.978414 1_555
Se23 Tl35 3.058435 1_555
Se23 Tl32 3.233591 1_555
Se23 Tl30 3.304434 1_555
