# generated using pymatgen
data_HoH16C2S2NO12
_symmetry_space_group_name_H-M   'P 1'
_cell_length_a   10.11361700
_cell_length_b   10.91699800
_cell_length_c   11.75842500
_cell_angle_alpha   90.00000000
_cell_angle_beta   90.00000000
_cell_angle_gamma   90.00000000
_symmetry_Int_Tables_number   1
_chemical_formula_structural   HoH16C2S2NO12
_chemical_formula_sum   'Ho4 H64 C8 S8 N4 O48'
_cell_volume   1298.25166169
_cell_formula_units_Z   4
loop_
 _symmetry_equiv_pos_site_id
 _symmetry_equiv_pos_as_xyz
  1  'x, y, z'
loop_
 _atom_site_type_symbol
 _atom_site_label
 _atom_site_symmetry_multiplicity
 _atom_site_fract_x
 _atom_site_fract_y
 _atom_site_fract_z
 _atom_site_occupancy
  Ho  Ho0  1  0.03338300  0.12369600  0.75000000  1
  Ho  Ho1  1  0.46661800  0.62369600  0.75000000  1
  Ho  Ho2  1  0.96661800  0.87630400  0.25000000  1
  Ho  Ho3  1  0.53338200  0.37630400  0.25000000  1
  H  H0  1  0.96809000  0.45227700  0.07305100  1
  H  H1  1  0.13100900  0.89866500  0.04115000  1
  H  H2  1  0.38648500  0.37308000  0.81758700  1
  H  H3  1  0.06783400  0.34776500  0.34858500  1
  H  H4  1  0.62161400  0.46277300  0.91240300  1
  H  H5  1  0.12161400  0.03722700  0.08759700  1
  H  H6  1  0.79264500  0.27897900  0.68232900  1
  H  H7  1  0.20735500  0.72102100  0.18232900  1
  H  H8  1  0.37838600  0.53722700  0.08759700  1
  H  H9  1  0.70735500  0.77897900  0.68232900  1
  H  H10  1  0.11351500  0.87308000  0.68241300  1
  H  H11  1  0.46809000  0.04772300  0.92694900  1
  H  H12  1  0.05113500  0.42798200  0.75000000  1
  H  H13  1  0.12205300  0.50319400  0.36655900  1
  H  H14  1  0.29264500  0.22102100  0.18232900  1
  H  H15  1  0.62771400  0.93824200  0.25000000  1
  H  H16  1  0.87794700  0.49680600  0.63344100  1
  H  H17  1  0.12771400  0.56175800  0.75000000  1
  H  H18  1  0.53191000  0.95227700  0.42694900  1
  H  H19  1  0.37794700  0.00319400  0.36655900  1
  H  H20  1  0.87794700  0.49680600  0.86655900  1
  H  H21  1  0.06783400  0.34776500  0.15141500  1
  H  H22  1  0.46809000  0.04772300  0.57305100  1
  H  H23  1  0.11351500  0.87308000  0.81758700  1
  H  H24  1  0.88648500  0.12692000  0.31758700  1
  H  H25  1  0.70735500  0.77897900  0.81767100  1
  H  H26  1  0.37838600  0.53722700  0.41240300  1
  H  H27  1  0.79264500  0.27897900  0.81767100  1
  H  H28  1  0.62161400  0.46277300  0.58759700  1
  H  H29  1  0.94886500  0.57201800  0.25000000  1
  H  H30  1  0.61351500  0.62692000  0.31758700  1
  H  H31  1  0.38648500  0.37308000  0.68241300  1
  H  H32  1  0.43216600  0.84776500  0.34858500  1
  H  H33  1  0.63100900  0.60133500  0.95885000  1
  H  H34  1  0.86899100  0.10133500  0.95885000  1
  H  H35  1  0.44886500  0.92798200  0.75000000  1
  H  H36  1  0.03191000  0.54772300  0.92694900  1
  H  H37  1  0.93216600  0.65223500  0.65141500  1
  H  H38  1  0.29264500  0.22102100  0.31767100  1
  H  H39  1  0.12161400  0.03722700  0.41240300  1
  H  H40  1  0.62205300  0.99680600  0.86655900  1
  H  H41  1  0.37794700  0.00319400  0.13344100  1
  H  H42  1  0.56783400  0.15223500  0.84858500  1
  H  H43  1  0.87838600  0.96277300  0.91240300  1
  H  H44  1  0.43216600  0.84776500  0.15141500  1
  H  H45  1  0.13100900  0.89866500  0.45885000  1
  H  H46  1  0.87838600  0.96277300  0.58759700  1
  H  H47  1  0.56783400  0.15223500  0.65141500  1
  H  H48  1  0.87228600  0.43824200  0.25000000  1
  H  H49  1  0.62205300  0.99680600  0.63344100  1
  H  H50  1  0.53191000  0.95227700  0.07305100  1
  H  H51  1  0.55113500  0.07201800  0.25000000  1
  H  H52  1  0.88648500  0.12692000  0.18241300  1
  H  H53  1  0.37228600  0.06175800  0.75000000  1
  H  H54  1  0.36899100  0.39866500  0.45885000  1
  H  H55  1  0.36899100  0.39866500  0.04115000  1
  H  H56  1  0.61351500  0.62692000  0.18241300  1
  H  H57  1  0.63100900  0.60133500  0.54115000  1
  H  H58  1  0.93216600  0.65223500  0.84858500  1
  H  H59  1  0.03191000  0.54772300  0.57305100  1
  H  H60  1  0.20735500  0.72102100  0.31767100  1
  H  H61  1  0.12205300  0.50319400  0.13344100  1
  H  H62  1  0.96809000  0.45227700  0.42694900  1
  H  H63  1  0.86899100  0.10133500  0.54115000  1
  C  C0  1  0.53632600  0.05673300  0.64432000  1
  C  C1  1  0.03632600  0.44326700  0.35568000  1
  C  C2  1  0.03632600  0.44326700  0.14432000  1
  C  C3  1  0.96367400  0.55673300  0.85568000  1
  C  C4  1  0.96367400  0.55673300  0.64432000  1
  C  C5  1  0.53632600  0.05673300  0.85568000  1
  C  C6  1  0.46367400  0.94326700  0.14432000  1
  C  C7  1  0.46367400  0.94326700  0.35568000  1
  S  S0  1  0.20411900  0.21888200  0.94133300  1
  S  S1  1  0.20411900  0.21888200  0.55866700  1
  S  S2  1  0.70411900  0.28111800  0.44133300  1
  S  S3  1  0.79588100  0.78111800  0.05866700  1
  S  S4  1  0.79588100  0.78111800  0.44133300  1
  S  S5  1  0.29588100  0.71888200  0.55866700  1
  S  S6  1  0.70411900  0.28111800  0.05866700  1
  S  S7  1  0.29588100  0.71888200  0.94133300  1
  N  N0  1  0.96513800  0.47862200  0.25000000  1
  N  N1  1  0.03486200  0.52137800  0.75000000  1
  N  N2  1  0.53486200  0.97862200  0.25000000  1
  N  N3  1  0.46513800  0.02137800  0.75000000  1
  O  O0  1  0.08337600  0.27694900  0.61132000  1
  O  O1  1  0.65029000  0.76770700  0.75000000  1
  O  O2  1  0.68140200  0.31450600  0.93762400  1
  O  O3  1  0.58337600  0.22305100  0.11132000  1
  O  O4  1  0.91662400  0.72305100  0.11132000  1
  O  O5  1  0.77535500  0.89506100  0.37141200  1
  O  O6  1  0.81954200  0.19785400  0.06623000  1
  O  O7  1  0.92705000  0.08677900  0.25000000  1
  O  O8  1  0.18045800  0.80214600  0.93377000  1
  O  O9  1  0.31859800  0.68549400  0.06237600  1
  O  O10  1  0.18045800  0.80214600  0.56623000  1
  O  O11  1  0.58337600  0.22305100  0.38868000  1
  O  O12  1  0.31859800  0.68549400  0.43762400  1
  O  O13  1  0.09762700  0.95073700  0.39548000  1
  O  O14  1  0.40237300  0.45073700  0.10452000  1
  O  O15  1  0.59762700  0.54926300  0.89548000  1
  O  O16  1  0.68140200  0.31450600  0.56237600  1
  O  O17  1  0.18140200  0.18549400  0.43762400  1
  O  O18  1  0.57295000  0.58677900  0.25000000  1
  O  O19  1  0.72464500  0.39506100  0.37141200  1
  O  O20  1  0.40237300  0.45073700  0.39548000  1
  O  O21  1  0.09762700  0.95073700  0.10452000  1
  O  O22  1  0.68045800  0.69785400  0.43377000  1
  O  O23  1  0.22464500  0.10493900  0.62858800  1
  O  O24  1  0.08337600  0.27694900  0.88868000  1
  O  O25  1  0.81954200  0.19785400  0.43377000  1
  O  O26  1  0.41662400  0.77694900  0.61132000  1
  O  O27  1  0.31954200  0.30214600  0.93377000  1
  O  O28  1  0.90237300  0.04926300  0.89548000  1
  O  O29  1  0.27535500  0.60493900  0.62858800  1
  O  O30  1  0.81859800  0.81450600  0.93762400  1
  O  O31  1  0.15029000  0.73229300  0.25000000  1
  O  O32  1  0.59762700  0.54926300  0.60452000  1
  O  O33  1  0.77535500  0.89506100  0.12858800  1
  O  O34  1  0.84971000  0.26770700  0.75000000  1
  O  O35  1  0.18140200  0.18549400  0.06237600  1
  O  O36  1  0.07295000  0.91322100  0.75000000  1
  O  O37  1  0.81859800  0.81450600  0.56237600  1
  O  O38  1  0.27535500  0.60493900  0.87141200  1
  O  O39  1  0.90237300  0.04926300  0.60452000  1
  O  O40  1  0.31954200  0.30214600  0.56623000  1
  O  O41  1  0.41662400  0.77694900  0.88868000  1
  O  O42  1  0.91662400  0.72305100  0.38868000  1
  O  O43  1  0.72464500  0.39506100  0.12858800  1
  O  O44  1  0.42705000  0.41322100  0.75000000  1
  O  O45  1  0.68045800  0.69785400  0.06623000  1
  O  O46  1  0.22464500  0.10493900  0.87141200  1
  O  O47  1  0.34971000  0.23229300  0.25000000  1
loop_
_geom_bond_atom_site_label_1
_geom_bond_atom_site_label_2
_geom_bond_distance
_geom_bond_site_symmetry_2
Ho0 O39 2.311295 1_455
Ho0 O28 2.311295 1_455
Ho0 O36 2.332340 1_545
Ho0 O0 2.390361 1_555
Ho0 O24 2.390361 1_555
Ho0 O46 2.412825 1_555
Ho0 O23 2.412825 1_555
Ho0 O34 2.433595 1_455
Ho1 O32 2.311289 1_555
Ho1 O15 2.311289 1_555
Ho1 O44 2.332342 1_555
Ho1 O26 2.390363 1_555
Ho1 O41 2.390363 1_555
Ho1 O38 2.412833 1_555
Ho1 O29 2.412833 1_555
Ho1 O1 2.433587 1_555
Ho2 O21 2.311289 1_655
Ho2 O13 2.311289 1_655
Ho2 O7 2.332342 1_565
Ho2 O4 2.390363 1_555
Ho2 O42 2.390363 1_555
Ho2 O5 2.412833 1_555
Ho2 O33 2.412833 1_555
Ho2 O31 2.433587 1_655
Ho3 O14 2.311289 1_555
Ho3 O20 2.311289 1_555
Ho3 O18 2.332342 1_555
Ho3 O3 2.390363 1_555
Ho3 O11 2.390363 1_555
Ho3 O19 2.412833 1_555
Ho3 O43 2.412833 1_555
Ho3 O47 2.433587 1_555
H1 O21 0.996173 1_555
H1 O8 1.718894 1_554
H2 O44 0.995953 1_555
H2 O27 1.710076 1_555
H4 O15 0.994979 1_555
H5 O21 0.994979 1_545
H6 O34 0.990642 1_555
H7 O31 0.990642 1_555
H8 O14 0.994979 1_555
H9 O1 0.990642 1_555
H10 O36 0.995953 1_555
H10 O10 1.710076 1_555
H12 N1 1.032801 1_555
H14 O47 0.990642 1_555
H15 N2 1.037392 1_555
H17 N1 1.037392 1_555
H23 O36 0.995953 1_555
H23 O8 1.710076 1_555
H24 O7 0.995953 1_555
H24 O25 1.710076 1_555
H25 O1 0.990642 1_555
H26 O20 0.994979 1_555
H27 O34 0.990642 1_555
H28 O32 0.994979 1_555
H29 N0 1.032801 1_555
H30 O18 0.995953 1_555
H30 O22 1.710076 1_555
H31 O44 0.995953 1_555
H31 O40 1.710076 1_555
H33 O15 0.996173 1_555
H33 O45 1.718894 1_556
H34 O28 0.996173 1_555
H34 O6 1.718894 1_556
H35 N3 1.032801 1_565
H38 O47 0.990642 1_555
H39 O13 0.994979 1_545
H43 O28 0.994979 1_565
H45 O13 0.996173 1_555
H45 O10 1.718894 1_555
H46 O39 0.994979 1_565
H48 N0 1.037392 1_555
H51 N2 1.032801 1_545
H52 O7 0.995953 1_555
H52 O6 1.710076 1_555
H53 N3 1.037392 1_555
H54 O20 0.996173 1_555
H54 O40 1.718894 1_555
H55 O14 0.996173 1_555
H55 O27 1.718894 1_554
H56 O18 0.995953 1_555
H56 O45 1.710076 1_555
H57 O32 0.996173 1_555
H57 O22 1.718894 1_555
H60 O31 0.990642 1_555
H63 O39 0.996173 1_555
H63 O25 1.718894 1_555
C0 H22 1.090043 1_555
C0 H47 1.093393 1_555
C0 H49 1.093653 1_545
C0 N3 1.487097 1_555
C1 H62 1.090043 1_455
C1 H3 1.093393 1_555
C1 H13 1.093653 1_555
C1 N0 1.487097 1_455
C2 H0 1.090043 1_455
C2 H21 1.093393 1_555
C2 H61 1.093653 1_555
C2 N0 1.487097 1_455
C3 H36 1.090043 1_655
C3 H58 1.093393 1_555
C3 H20 1.093653 1_555
C3 N1 1.487097 1_655
C4 H59 1.090043 1_655
C4 H37 1.093393 1_555
C4 H16 1.093653 1_555
C4 N1 1.487097 1_655
C5 H11 1.090043 1_555
C5 H42 1.093393 1_555
C5 H40 1.093653 1_545
C5 N3 1.487097 1_555
C6 H50 1.090043 1_555
C6 H44 1.093393 1_555
C6 H41 1.093653 1_565
C6 N2 1.487097 1_555
C7 H18 1.090043 1_555
C7 H32 1.093393 1_555
C7 H19 1.093653 1_565
C7 N2 1.487097 1_555
O0 S1 1.508761 1_555
O2 S6 1.487063 1_556
O3 S6 1.508761 1_555
O4 S3 1.508761 1_555
O5 S4 1.505446 1_555
O6 S6 1.482184 1_555
O8 S7 1.482184 1_555
O9 S7 1.487063 1_554
O10 S5 1.482184 1_555
O11 S2 1.508761 1_555
O12 S5 1.487063 1_555
O16 S2 1.487063 1_555
O17 S1 1.487063 1_555
O19 S2 1.505446 1_555
O22 S4 1.482184 1_555
O23 S1 1.505446 1_555
O24 S0 1.508761 1_555
O25 S2 1.482184 1_555
O26 S5 1.508761 1_555
O27 S0 1.482184 1_555
O29 S5 1.505446 1_555
O30 S3 1.487063 1_556
O33 S3 1.505446 1_555
O35 S0 1.487063 1_554
O37 S4 1.487063 1_555
O38 S7 1.505446 1_555
O40 S1 1.482184 1_555
O41 S7 1.508761 1_555
O42 S4 1.508761 1_555
O43 S6 1.505446 1_555
O45 S3 1.482184 1_555
O46 S0 1.505446 1_555
