# generated using pymatgen
data_Cs2U(Br2O)2
_symmetry_space_group_name_H-M   'P 1'
_cell_length_a   10.02538900
_cell_length_b   6.68767600
_cell_length_c   10.16058283
_cell_angle_alpha   74.88172742
_cell_angle_beta   90.00000000
_cell_angle_gamma   90.00000000
_symmetry_Int_Tables_number   1
_chemical_formula_structural   Cs2U(Br2O)2
_chemical_formula_sum   'Cs4 U2 Br8 O4'
_cell_volume   657.65427863
_cell_formula_units_Z   2
loop_
 _symmetry_equiv_pos_site_id
 _symmetry_equiv_pos_as_xyz
  1  'x, y, z'
loop_
 _atom_site_type_symbol
 _atom_site_label
 _atom_site_symmetry_multiplicity
 _atom_site_fract_x
 _atom_site_fract_y
 _atom_site_fract_z
 _atom_site_occupancy
  Cs  Cs0  1  0.88221100  0.32011700  0.33505800  1
  Cs  Cs1  1  0.11778900  0.67988300  0.66494200  1
  Cs  Cs2  1  0.38221100  0.67988300  0.16494200  1
  Cs  Cs3  1  0.61778900  0.32011700  0.83505800  1
  U  U0  1  0.00000000  0.00000000  0.00000000  1
  U  U1  1  0.50000000  0.00000000  0.50000000  1
  Br  Br0  1  0.72996100  0.74634500  0.52536800  1
  Br  Br1  1  0.27003900  0.25365500  0.47463200  1
  Br  Br2  1  0.44209200  0.83597200  0.78138500  1
  Br  Br3  1  0.77003900  0.74634500  0.02536800  1
  Br  Br4  1  0.05790800  0.83597200  0.28138500  1
  Br  Br5  1  0.55790800  0.16402800  0.21861500  1
  Br  Br6  1  0.22996100  0.25365500  0.97463200  1
  Br  Br7  1  0.94209200  0.16402800  0.71861500  1
  O  O0  1  0.60157800  0.20073200  0.53966100  1
  O  O1  1  0.39842200  0.79926800  0.46033900  1
  O  O2  1  0.89842200  0.20073200  0.03966100  1
  O  O3  1  0.10157800  0.79926800  0.96033900  1
loop_
_geom_bond_atom_site_label_1
_geom_bond_atom_site_label_2
_geom_bond_distance
_geom_bond_site_symmetry_2
Cs0 O2 3.304890 1_555
Cs0 O0 3.465394 1_555
Cs1 O3 3.304890 1_555
Cs1 O1 3.465394 1_555
Cs2 O1 3.304890 1_555
Cs2 O3 3.465394 1_554
Cs3 O0 3.304890 1_555
Cs3 O2 3.465394 1_556
Br0 U1 2.833919 1_565
Br0 Cs3 3.822628 1_555
Br0 Cs0 4.113706 1_565
Br0 Cs1 4.122796 1_655
Br0 Cs0 4.131484 1_555
Br1 U1 2.833919 1_555
Br1 Cs2 3.822628 1_555
Br1 Cs1 4.113706 1_545
Br1 Cs0 4.122796 1_455
Br1 Cs1 4.131484 1_555
Br2 U1 2.842271 1_565
Br2 Cs1 3.701946 1_555
Br2 Cs3 3.784214 1_555
Br2 Cs2 3.809974 1_556
Br2 Cs3 3.847658 1_565
Br3 U0 2.833919 1_665
Br3 Cs0 3.822628 1_555
Br3 Cs3 4.113706 1_564
Br3 Cs2 4.122796 1_555
Br3 Cs3 4.131484 1_554
Br4 U0 2.842271 1_565
Br4 Cs2 3.701946 1_555
Br4 Cs0 3.784214 1_455
Br4 Cs1 3.809974 1_555
Br4 Cs0 3.847658 1_465
Br5 U1 2.842271 1_555
Br5 Cs0 3.701946 1_555
Br5 Cs2 3.784214 1_555
Br5 Cs3 3.809974 1_554
Br5 Cs2 3.847658 1_545
Br6 U0 2.833919 1_556
Br6 Cs1 3.822628 1_555
Br6 Cs2 4.113706 1_546
Br6 Cs3 4.122796 1_555
Br6 Cs2 4.131484 1_556
Br7 U0 2.842271 1_656
Br7 Cs3 3.701946 1_555
Br7 Cs1 3.784214 1_655
Br7 Cs0 3.809974 1_555
Br7 Cs1 3.847658 1_645
O0 U1 1.812112 1_555
O1 U1 1.812112 1_565
O2 U0 1.812112 1_655
O3 U0 1.812112 1_566
