# generated using pymatgen
data_SrZnNi(PO4)2
_symmetry_space_group_name_H-M   'P 1'
_cell_length_a   6.95239271
_cell_length_b   9.36338922
_cell_length_c   10.96346283
_cell_angle_alpha   101.76320896
_cell_angle_beta   98.15171735
_cell_angle_gamma   110.67820170
_symmetry_Int_Tables_number   1
_chemical_formula_structural   SrZnNi(PO4)2
_chemical_formula_sum   'Sr4 Zn4 Ni4 P8 O32'
_cell_volume   635.64261292
_cell_formula_units_Z   4
loop_
 _symmetry_equiv_pos_site_id
 _symmetry_equiv_pos_as_xyz
  1  'x, y, z'
loop_
 _atom_site_type_symbol
 _atom_site_label
 _atom_site_symmetry_multiplicity
 _atom_site_fract_x
 _atom_site_fract_y
 _atom_site_fract_z
 _atom_site_occupancy
  Sr  Sr0  1  0.79898000  0.05116500  0.12432900  1
  Sr  Sr1  1  0.79898000  0.05116500  0.62432900  1
  Sr  Sr2  1  0.20102000  0.94883500  0.37567100  1
  Sr  Sr3  1  0.20102000  0.94883500  0.87567100  1
  Zn  Zn0  1  0.38414100  0.64723300  0.49491000  1
  Zn  Zn1  1  0.38414100  0.64723300  0.99491000  1
  Zn  Zn2  1  0.61585900  0.35276700  0.00509000  1
  Zn  Zn3  1  0.61585900  0.35276700  0.50509000  1
  Ni  Ni0  1  0.85270600  0.56059300  0.81921500  1
  Ni  Ni1  1  0.14729400  0.43940700  0.68078500  1
  Ni  Ni2  1  0.85270600  0.56059300  0.31921500  1
  Ni  Ni3  1  0.14729400  0.43940700  0.18078500  1
  P  P0  1  0.42439000  0.23657800  0.19788800  1
  P  P1  1  0.42439000  0.23657800  0.69788800  1
  P  P2  1  0.57561000  0.76342200  0.30211200  1
  P  P3  1  0.57561000  0.76342200  0.80211200  1
  P  P4  1  0.02402600  0.30239300  0.42144500  1
  P  P5  1  0.02402600  0.30239300  0.92144500  1
  P  P6  1  0.97597400  0.69760700  0.07855500  1
  P  P7  1  0.97597400  0.69760700  0.57855500  1
  O  O0  1  0.55433100  0.89219200  0.40612600  1
  O  O1  1  0.55433100  0.89219200  0.90612600  1
  O  O2  1  0.44566900  0.10780800  0.09387400  1
  O  O3  1  0.44566900  0.10780800  0.59387400  1
  O  O4  1  0.47470600  0.20922800  0.33244100  1
  O  O5  1  0.47470600  0.20922800  0.83244100  1
  O  O6  1  0.52529400  0.79077200  0.16755900  1
  O  O7  1  0.52529400  0.79077200  0.66755900  1
  O  O8  1  0.79834200  0.76186600  0.32945300  1
  O  O9  1  0.79834200  0.76186600  0.82945300  1
  O  O10  1  0.20165800  0.23813400  0.17054700  1
  O  O11  1  0.20165800  0.23813400  0.67054700  1
  O  O12  1  0.11539900  0.69559900  0.47630100  1
  O  O13  1  0.11539900  0.69559900  0.97630100  1
  O  O14  1  0.88460100  0.30440100  0.02369900  1
  O  O15  1  0.88460100  0.30440100  0.52369900  1
  O  O16  1  0.74820300  0.57815100  0.49793200  1
  O  O17  1  0.74820300  0.57815100  0.99793200  1
  O  O18  1  0.25179700  0.42184900  0.00206800  1
  O  O19  1  0.25179700  0.42184900  0.50206800  1
  O  O20  1  0.99677900  0.86712300  0.13102800  1
  O  O21  1  0.99677900  0.86712300  0.63102800  1
  O  O22  1  0.00322100  0.13287700  0.36897200  1
  O  O23  1  0.00322100  0.13287700  0.86897200  1
  O  O24  1  0.59157100  0.39830100  0.18868800  1
  O  O25  1  0.59157100  0.39830100  0.68868800  1
  O  O26  1  0.40842900  0.60169900  0.31131200  1
  O  O27  1  0.40842900  0.60169900  0.81131200  1
  O  O28  1  0.95381600  0.36892100  0.31062200  1
  O  O29  1  0.95381600  0.36892100  0.81062200  1
  O  O30  1  0.04618400  0.63107900  0.18937800  1
  O  O31  1  0.04618400  0.63107900  0.68937800  1
loop_
_geom_bond_atom_site_label_1
_geom_bond_atom_site_label_2
_geom_bond_distance
_geom_bond_site_symmetry_2
Ni0 O25 2.020216 1_555
Ni0 O9 2.033715 1_555
Ni0 O13 2.118812 1_655
Ni0 O29 2.136539 1_555
Ni0 O31 2.137826 1_655
Ni0 O17 2.179610 1_555
Ni1 O27 2.020216 1_555
Ni1 O11 2.033715 1_555
Ni1 O15 2.118812 1_455
Ni1 O31 2.136539 1_555
Ni1 O29 2.137826 1_455
Ni1 O19 2.179610 1_555
Ni2 O24 2.020216 1_555
Ni2 O8 2.033715 1_555
Ni2 O12 2.118812 1_655
Ni2 O28 2.136539 1_555
Ni2 O30 2.137826 1_655
Ni2 O16 2.179610 1_555
Ni3 O26 2.020216 1_555
Ni3 O10 2.033715 1_555
Ni3 O14 2.118812 1_455
Ni3 O30 2.136539 1_555
Ni3 O28 2.137826 1_455
Ni3 O18 2.179610 1_555
O0 P2 1.545724 1_555
O0 Sr1 2.537272 1_565
O0 Sr2 2.680700 1_555
O1 P3 1.545724 1_555
O1 Sr0 2.537272 1_566
O1 Sr3 2.680700 1_555
O2 P0 1.545724 1_555
O2 Sr3 2.537272 1_544
O2 Sr0 2.680700 1_555
O3 P1 1.545724 1_555
O3 Sr2 2.537272 1_545
O3 Sr1 2.680700 1_555
O4 P0 1.560457 1_555
O4 Zn3 1.963845 1_555
O4 Sr2 2.690778 1_545
O5 P1 1.560457 1_555
O5 Zn2 1.963845 1_556
O5 Sr3 2.690778 1_545
O6 P2 1.560457 1_555
O6 Zn1 1.963845 1_554
O6 Sr0 2.690778 1_565
O7 P3 1.560457 1_555
O7 Zn0 1.963845 1_555
O7 Sr1 2.690778 1_565
O8 P2 1.540798 1_555
O8 Sr2 2.633223 1_655
O9 P3 1.540798 1_555
O9 Sr3 2.633223 1_655
O10 P0 1.540798 1_555
O10 Sr0 2.633223 1_455
O11 P1 1.540798 1_555
O11 Sr1 2.633223 1_455
O12 P7 1.584042 1_455
O12 Zn0 2.065135 1_555
O12 Sr2 2.729448 1_555
O13 P6 1.584042 1_456
O13 Zn1 2.065135 1_555
O13 Sr3 2.729448 1_555
O14 P5 1.584042 1_654
O14 Zn2 2.065135 1_555
O14 Sr0 2.729448 1_555
O15 P4 1.584042 1_655
O15 Zn3 2.065135 1_555
O15 Sr1 2.729448 1_555
O16 P7 1.577670 1_555
O16 Zn3 2.005749 1_555
O17 P6 1.577670 1_556
O17 Zn2 2.005749 1_556
O18 P5 1.577670 1_554
O18 Zn1 2.005749 1_554
O19 P4 1.577670 1_555
O19 Zn0 2.005749 1_555
O20 P6 1.520911 1_555
O20 Sr0 2.561779 1_565
O20 Sr2 2.666736 1_655
O21 P7 1.520911 1_555
O21 Sr1 2.561779 1_565
O21 Sr3 2.666736 1_655
O22 P4 1.520911 1_555
O22 Sr2 2.561779 1_545
O22 Sr0 2.666736 1_455
O23 P5 1.520911 1_555
O23 Sr3 2.561779 1_545
O23 Sr1 2.666736 1_455
O24 P0 1.583246 1_555
O24 Zn2 2.014759 1_555
O25 P1 1.583246 1_555
O25 Zn3 2.014759 1_555
O26 P2 1.583246 1_555
O26 Zn0 2.014759 1_555
O27 P3 1.583246 1_555
O27 Zn1 2.014759 1_555
O28 P4 1.567703 1_655
O28 Sr0 2.969741 1_555
O29 P5 1.567703 1_655
O29 Sr1 2.969741 1_555
O30 P6 1.567703 1_455
O30 Sr2 2.969741 1_555
O31 P7 1.567703 1_455
O31 Sr3 2.969741 1_555
