# generated using pymatgen
data_K(NiSe)2
_symmetry_space_group_name_H-M   'P 1'
_cell_length_a   7.24602326
_cell_length_b   7.24602326
_cell_length_c   7.24602326
_cell_angle_alpha   148.74673702
_cell_angle_beta   148.74673702
_cell_angle_gamma   44.78423012
_symmetry_Int_Tables_number   1
_chemical_formula_structural   K(NiSe)2
_chemical_formula_sum   'K1 Ni2 Se2'
_cell_volume   102.09457069
_cell_formula_units_Z   1
loop_
 _symmetry_equiv_pos_site_id
 _symmetry_equiv_pos_as_xyz
  1  'x, y, z'
loop_
 _atom_site_type_symbol
 _atom_site_label
 _atom_site_symmetry_multiplicity
 _atom_site_fract_x
 _atom_site_fract_y
 _atom_site_fract_z
 _atom_site_occupancy
  K  K0  1  0.00000000  0.00000000  0.00000000  1
  Ni  Ni0  1  0.75000000  0.25000000  0.50000000  1
  Ni  Ni1  1  0.25000000  0.75000000  0.50000000  1
  Se  Se0  1  0.64761000  0.64761000  0.00000000  1
  Se  Se1  1  0.35239000  0.35239000  0.00000000  1
loop_
_geom_bond_atom_site_label_1
_geom_bond_atom_site_label_2
_geom_bond_distance
_geom_bond_site_symmetry_2
K0 Se0 3.395787 1_556
K0 Se0 3.395787 1_545
K0 Se1 3.395787 1_444
K0 Se1 3.395787 1_455
K0 Se1 3.395787 1_545
K0 Se1 3.395787 1_556
K0 Se0 3.395787 1_444
K0 Se0 3.395787 1_455
Ni0 Se1 2.385782 1_555
Ni0 Se1 2.385782 1_656
Ni0 Se0 2.385782 1_556
Ni0 Se0 2.385782 1_545
Ni1 Se1 2.385782 1_555
Ni1 Se0 2.385782 1_556
Ni1 Se0 2.385782 1_455
Ni1 Se1 2.385782 1_566
