# generated using pymatgen
data_SbPC3S3N3Cl3O
_symmetry_space_group_name_H-M   'P 1'
_cell_length_a   12.56884666
_cell_length_b   12.56884666
_cell_length_c   12.56884666
_cell_angle_alpha   109.47122063
_cell_angle_beta   109.47122063
_cell_angle_gamma   109.47122063
_symmetry_Int_Tables_number   1
_chemical_formula_structural   SbPC3S3N3Cl3O
_chemical_formula_sum   'Sb4 P4 C12 S12 N12 Cl12 O4'
_cell_volume   1528.49630220
_cell_formula_units_Z   4
loop_
 _symmetry_equiv_pos_site_id
 _symmetry_equiv_pos_as_xyz
  1  'x, y, z'
loop_
 _atom_site_type_symbol
 _atom_site_label
 _atom_site_symmetry_multiplicity
 _atom_site_fract_x
 _atom_site_fract_y
 _atom_site_fract_z
 _atom_site_occupancy
  Sb  Sb0  1  0.21417000  0.00000000  0.00000000  1
  Sb  Sb1  1  0.00000000  0.00000000  0.21417000  1
  Sb  Sb2  1  0.78583000  0.78583000  0.78583000  1
  Sb  Sb3  1  0.00000000  0.21417000  0.00000000  1
  P  P0  1  0.65356500  0.00000000  0.00000000  1
  P  P1  1  0.00000000  0.65356500  0.00000000  1
  P  P2  1  0.34643500  0.34643500  0.34643500  1
  P  P3  1  0.00000000  0.00000000  0.65356500  1
  C  C0  1  0.48999400  0.00000000  0.78154200  1
  C  C1  1  0.51000600  0.51000600  0.29154800  1
  C  C2  1  0.51000600  0.29154800  0.51000600  1
  C  C3  1  0.78154200  0.48999400  0.00000000  1
  C  C4  1  0.00000000  0.48999400  0.78154200  1
  C  C5  1  0.00000000  0.78154200  0.48999400  1
  C  C6  1  0.78154200  0.00000000  0.48999400  1
  C  C7  1  0.48999400  0.78154200  0.00000000  1
  C  C8  1  0.21845800  0.70845200  0.21845800  1
  C  C9  1  0.29154800  0.51000600  0.51000600  1
  C  C10  1  0.70845200  0.21845800  0.21845800  1
  C  C11  1  0.21845800  0.21845800  0.70845200  1
  S  S0  1  0.00000000  0.40081400  0.66110700  1
  S  S1  1  0.26029300  0.59918600  0.59918600  1
  S  S2  1  0.59918600  0.26029300  0.59918600  1
  S  S3  1  0.33889300  0.33889300  0.73970700  1
  S  S4  1  0.66110700  0.40081400  0.00000000  1
  S  S5  1  0.40081400  0.00000000  0.66110700  1
  S  S6  1  0.73970700  0.33889300  0.33889300  1
  S  S7  1  0.66110700  0.00000000  0.40081400  1
  S  S8  1  0.40081400  0.66110700  0.00000000  1
  S  S9  1  0.00000000  0.66110700  0.40081400  1
  S  S10  1  0.59918600  0.59918600  0.26029300  1
  S  S11  1  0.33889300  0.73970700  0.33889300  1
  N  N0  1  0.55982000  0.87498100  0.00000000  1
  N  N1  1  0.55982000  0.00000000  0.87498100  1
  N  N2  1  0.44018000  0.44018000  0.31516000  1
  N  N3  1  0.31516000  0.44018000  0.44018000  1
  N  N4  1  0.87498100  0.55982000  0.00000000  1
  N  N5  1  0.00000000  0.55982000  0.87498100  1
  N  N6  1  0.68484000  0.12501900  0.12501900  1
  N  N7  1  0.44018000  0.31516000  0.44018000  1
  N  N8  1  0.12501900  0.68484000  0.12501900  1
  N  N9  1  0.87498100  0.00000000  0.55982000  1
  N  N10  1  0.12501900  0.12501900  0.68484000  1
  N  N11  1  0.00000000  0.87498100  0.55982000  1
  Cl  Cl0  1  0.82791500  0.19860300  0.82791500  1
  Cl  Cl1  1  0.00000000  0.17208500  0.37068700  1
  Cl  Cl2  1  0.19860300  0.82791500  0.82791500  1
  Cl  Cl3  1  0.17208500  0.00000000  0.37068700  1
  Cl  Cl4  1  0.62931300  0.80139700  0.62931300  1
  Cl  Cl5  1  0.37068700  0.00000000  0.17208500  1
  Cl  Cl6  1  0.62931300  0.62931300  0.80139700  1
  Cl  Cl7  1  0.80139700  0.62931300  0.62931300  1
  Cl  Cl8  1  0.37068700  0.17208500  0.00000000  1
  Cl  Cl9  1  0.00000000  0.37068700  0.17208500  1
  Cl  Cl10  1  0.17208500  0.37068700  0.00000000  1
  Cl  Cl11  1  0.82791500  0.82791500  0.19860300  1
  O  O0  1  0.00000000  0.00000000  0.77197700  1
  O  O1  1  0.00000000  0.77197700  0.00000000  1
  O  O2  1  0.22802300  0.22802300  0.22802300  1
  O  O3  1  0.77197700  0.00000000  0.00000000  1
loop_
_geom_bond_atom_site_label_1
_geom_bond_atom_site_label_2
_geom_bond_distance
_geom_bond_site_symmetry_2
C0 N1 1.209282 1_555
C0 S5 1.554548 1_555
C1 N2 1.209273 1_555
C1 S10 1.554548 1_555
C2 N7 1.209273 1_555
C2 S2 1.554548 1_555
C3 N4 1.209282 1_555
C3 S4 1.554548 1_555
C4 N5 1.209282 1_555
C4 S0 1.554548 1_555
C5 N11 1.209282 1_555
C5 S9 1.554548 1_555
C6 N9 1.209282 1_555
C6 S7 1.554548 1_555
C7 N0 1.209282 1_555
C7 S8 1.554548 1_555
C8 N8 1.209287 1_555
C8 S11 1.554548 1_555
C9 N3 1.209273 1_555
C9 S1 1.554548 1_555
C10 N6 1.209287 1_555
C10 S6 1.554548 1_555
C11 N10 1.209287 1_555
C11 S3 1.554548 1_555
N0 P0 1.619607 1_565
N1 P0 1.619607 1_556
N2 P2 1.619616 1_555
N3 P2 1.619616 1_555
N4 P1 1.619607 1_655
N5 P1 1.619607 1_556
N6 P0 1.619602 1_555
N7 P2 1.619616 1_555
N8 P1 1.619602 1_555
N9 P3 1.619607 1_655
N10 P3 1.619602 1_555
N11 P3 1.619607 1_565
Cl0 Sb3 2.389895 1_656
Cl1 Sb1 2.389888 1_555
Cl2 Sb0 2.389895 1_566
Cl3 Sb1 2.389888 1_555
Cl4 Sb2 2.389880 1_555
Cl5 Sb0 2.389888 1_555
Cl6 Sb2 2.389880 1_555
Cl7 Sb2 2.389880 1_555
Cl8 Sb0 2.389888 1_555
Cl9 Sb3 2.389888 1_555
Cl10 Sb3 2.389888 1_555
Cl11 Sb1 2.389895 1_665
O0 P3 1.488302 1_555
O1 P1 1.488302 1_555
O2 P2 1.488302 1_555
O3 P0 1.488302 1_555
