# generated using pymatgen
data_Rb(WCl3)3
_symmetry_space_group_name_H-M   'P 1'
_cell_length_a   9.46956019
_cell_length_b   9.46962936
_cell_length_c   8.46759525
_cell_angle_alpha   89.99973453
_cell_angle_beta   90.00124202
_cell_angle_gamma   119.99890485
_symmetry_Int_Tables_number   1
_chemical_formula_structural   Rb(WCl3)3
_chemical_formula_sum   'Rb2 W6 Cl18'
_cell_volume   657.59470111
_cell_formula_units_Z   2
loop_
 _symmetry_equiv_pos_site_id
 _symmetry_equiv_pos_as_xyz
  1  'x, y, z'
loop_
 _atom_site_type_symbol
 _atom_site_label
 _atom_site_symmetry_multiplicity
 _atom_site_fract_x
 _atom_site_fract_y
 _atom_site_fract_z
 _atom_site_occupancy
  Rb  Rb0  1  0.66666774  0.33333041  0.44860186  1
  Rb  Rb1  1  0.33333433  0.66667033  0.55139550  1
  W  W0  1  0.82532680  0.80759693  0.87022198  1
  W  W1  1  0.80758961  0.98225793  0.12979060  1
  W  W2  1  0.01771680  0.82531002  0.12977984  1
  W  W3  1  0.98227840  0.17468990  0.87022153  1
  W  W4  1  0.17467467  0.19240122  0.12977746  1
  W  W5  1  0.19241023  0.01774390  0.87021083  1
  Cl  Cl0  1  0.03519000  0.62558500  0.30567995  1
  Cl  Cl1  1  0.75816174  0.17745061  0.99855971  1
  Cl  Cl2  1  0.82254968  0.58069646  0.99855699  1
  Cl  Cl3  1  0.19242967  0.21196679  0.68587714  1
  Cl  Cl4  1  0.21195729  0.01953341  0.31411549  1
  Cl  Cl5  1  0.98047363  0.19242895  0.31411725  1
  Cl  Cl6  1  0.96481277  0.37441381  0.69432196  1
  Cl  Cl7  1  0.01952485  0.80756827  0.68588243  1
  Cl  Cl8  1  0.80756607  0.78802922  0.31412591  1
  Cl  Cl9  1  0.58070983  0.75816190  0.00143308  1
  Cl  Cl10  1  0.62559501  0.59040537  0.69431333  1
  Cl  Cl11  1  0.41928881  0.24183896  0.99856208  1
  Cl  Cl12  1  0.78804824  0.98047064  0.68588899  1
  Cl  Cl13  1  0.17745468  0.41930751  0.00144484  1
  Cl  Cl14  1  0.59039704  0.96481254  0.30567781  1
  Cl  Cl15  1  0.40960179  0.03518755  0.69432006  1
  Cl  Cl16  1  0.37440643  0.40959540  0.30568340  1
  Cl  Cl17  1  0.24183389  0.82254697  0.00143999  1
loop_
_geom_bond_atom_site_label_1
_geom_bond_atom_site_label_2
_geom_bond_distance
_geom_bond_site_symmetry_2
Cl0 W2 2.477062 1_555
Cl0 Rb1 3.369376 1_555
Cl0 Rb0 3.412427 1_455
Cl1 W1 2.394901 1_546
Cl1 W3 2.396104 1_555
Cl2 W2 2.394790 1_656
Cl2 W0 2.396208 1_555
Cl3 W5 2.412189 1_555
Cl3 W3 2.412284 1_455
Cl4 W4 2.412193 1_555
Cl4 W2 2.412338 1_545
Cl5 W4 2.412256 1_655
Cl5 W1 2.412284 1_545
Cl6 W3 2.477019 1_555
Cl6 Rb0 3.369411 1_555
Cl6 Rb1 3.412442 1_655
Cl7 W0 2.412236 1_455
Cl7 W5 2.412318 1_565
Cl8 W1 2.412225 1_555
Cl8 W2 2.412280 1_655
Cl9 W0 2.394806 1_554
Cl9 W1 2.396104 1_555
Cl10 W0 2.477112 1_555
Cl10 Rb0 3.369470 1_555
Cl10 Rb1 3.412347 1_555
Cl11 W4 2.394792 1_556
Cl11 W5 2.396071 1_555
Cl12 W0 2.412189 1_555
Cl12 W3 2.412269 1_565
Cl13 W3 2.394839 1_454
Cl13 W4 2.396236 1_555
Cl14 W1 2.477073 1_555
Cl14 Rb1 3.369489 1_555
Cl14 Rb0 3.412347 1_565
Cl15 W5 2.477089 1_555
Cl15 Rb0 3.369504 1_555
Cl15 Rb1 3.412352 1_545
Cl16 W4 2.477110 1_555
Cl16 Rb1 3.369470 1_555
Cl16 Rb0 3.412355 1_555
Cl17 W5 2.394906 1_564
Cl17 W2 2.396124 1_555
