# generated using pymatgen
data_KCr2AgO7
_symmetry_space_group_name_H-M   'P 1'
_cell_length_a   5.92934800
_cell_length_b   7.80749400
_cell_length_c   15.48658700
_cell_angle_alpha   90.00000000
_cell_angle_beta   90.00000000
_cell_angle_gamma   90.00000000
_symmetry_Int_Tables_number   1
_chemical_formula_structural   KCr2AgO7
_chemical_formula_sum   'K4 Cr8 Ag4 O28'
_cell_volume   716.92597579
_cell_formula_units_Z   4
loop_
 _symmetry_equiv_pos_site_id
 _symmetry_equiv_pos_as_xyz
  1  'x, y, z'
loop_
 _atom_site_type_symbol
 _atom_site_label
 _atom_site_symmetry_multiplicity
 _atom_site_fract_x
 _atom_site_fract_y
 _atom_site_fract_z
 _atom_site_occupancy
  K  K0  1  0.75000000  0.64319000  0.78867000  1
  K  K1  1  0.75000000  0.85681000  0.28867000  1
  K  K2  1  0.25000000  0.35681000  0.21133000  1
  K  K3  1  0.25000000  0.14319000  0.71133000  1
  Cr  Cr0  1  0.25000000  0.80356100  0.94277400  1
  Cr  Cr1  1  0.75000000  0.17643900  0.85522900  1
  Cr  Cr2  1  0.75000000  0.32356100  0.35522900  1
  Cr  Cr3  1  0.25000000  0.69643900  0.44277400  1
  Cr  Cr4  1  0.25000000  0.82356100  0.14477100  1
  Cr  Cr5  1  0.75000000  0.30356100  0.55722600  1
  Cr  Cr6  1  0.25000000  0.67643900  0.64477100  1
  Cr  Cr7  1  0.75000000  0.19643900  0.05722600  1
  Ag  Ag0  1  0.25000000  0.15735600  0.45124800  1
  Ag  Ag1  1  0.75000000  0.65735600  0.04875200  1
  Ag  Ag2  1  0.25000000  0.34264400  0.95124800  1
  Ag  Ag3  1  0.75000000  0.84264400  0.54875200  1
  O  O0  1  0.02216200  0.70134700  0.15069800  1
  O  O1  1  0.75000000  0.43417000  0.63845500  1
  O  O2  1  0.52085300  0.31896200  0.05674500  1
  O  O3  1  0.47783800  0.70134700  0.15069800  1
  O  O4  1  0.25000000  0.96708200  0.22050400  1
  O  O5  1  0.97783800  0.20134700  0.34930200  1
  O  O6  1  0.97914700  0.18103800  0.55674500  1
  O  O7  1  0.47914700  0.68103800  0.94325500  1
  O  O8  1  0.25000000  0.57766700  0.54088900  1
  O  O9  1  0.25000000  0.93417000  0.86154500  1
  O  O10  1  0.52216200  0.20134700  0.34930200  1
  O  O11  1  0.47783800  0.79865300  0.65069800  1
  O  O12  1  0.75000000  0.03291800  0.77949600  1
  O  O13  1  0.97783800  0.29865300  0.84930200  1
  O  O14  1  0.52216200  0.29865300  0.84930200  1
  O  O15  1  0.47914700  0.81896200  0.44325500  1
  O  O16  1  0.25000000  0.53291800  0.72050400  1
  O  O17  1  0.75000000  0.42233300  0.45911100  1
  O  O18  1  0.75000000  0.07766700  0.95911100  1
  O  O19  1  0.02085300  0.81896200  0.44325500  1
  O  O20  1  0.75000000  0.06583000  0.13845500  1
  O  O21  1  0.75000000  0.46708200  0.27949600  1
  O  O22  1  0.25000000  0.92233300  0.04088900  1
  O  O23  1  0.02216200  0.79865300  0.65069800  1
  O  O24  1  0.97914700  0.31896200  0.05674500  1
  O  O25  1  0.02085300  0.68103800  0.94325500  1
  O  O26  1  0.52085300  0.18103800  0.55674500  1
  O  O27  1  0.25000000  0.56583000  0.36154500  1
loop_
_geom_bond_atom_site_label_1
_geom_bond_atom_site_label_2
_geom_bond_distance
_geom_bond_site_symmetry_2
K0 O1 2.841641 1_555
K0 O7 2.897879 1_555
K0 O25 2.897879 1_655
K0 O11 2.939893 1_555
K0 O23 2.939893 1_655
K0 O12 3.046114 1_565
K0 O13 3.153196 1_555
K0 O14 3.153196 1_555
K0 O16 3.262658 1_655
K0 O16 3.262658 1_555
K1 O20 2.841641 1_565
K1 O19 2.897879 1_655
K1 O15 2.897879 1_555
K1 O3 2.939893 1_555
K1 O0 2.939893 1_655
K1 O21 3.046114 1_555
K1 O10 3.153196 1_565
K1 O5 3.153196 1_565
K1 O4 3.262658 1_555
K1 O4 3.262658 1_655
K2 O27 2.841641 1_555
K2 O24 2.897879 1_455
K2 O2 2.897879 1_555
K2 O5 2.939893 1_455
K2 O10 2.939893 1_555
K2 O4 3.046114 1_545
K2 O0 3.153196 1_555
K2 O3 3.153196 1_555
K2 O21 3.262658 1_455
K2 O21 3.262658 1_555
K3 O9 2.841641 1_545
K3 O26 2.897879 1_555
K3 O6 2.897879 1_455
K3 O14 2.939893 1_555
K3 O13 2.939893 1_455
K3 O16 3.046114 1_555
K3 O11 3.153196 1_545
K3 O23 3.153196 1_545
K3 O12 3.262658 1_455
K3 O12 3.262658 1_555
Cr0 O9 1.619355 1_555
Cr0 O25 1.661680 1_555
Cr0 O7 1.661680 1_555
Cr0 O22 1.780080 1_556
Cr1 O12 1.622090 1_555
Cr1 O14 1.656475 1_555
Cr1 O13 1.656475 1_555
Cr1 O18 1.784056 1_555
Cr2 O21 1.622090 1_555
Cr2 O5 1.656475 1_555
Cr2 O10 1.656475 1_555
Cr2 O17 1.784056 1_555
Cr3 O27 1.619355 1_555
Cr3 O15 1.661680 1_555
Cr3 O19 1.661680 1_555
Cr3 O8 1.780080 1_555
Cr4 O4 1.622090 1_555
Cr4 O0 1.656475 1_555
Cr4 O3 1.656475 1_555
Cr4 O22 1.784056 1_555
Cr5 O1 1.619355 1_555
Cr5 O6 1.661680 1_555
Cr5 O26 1.661680 1_555
Cr5 O17 1.780080 1_555
Cr6 O16 1.622090 1_555
Cr6 O23 1.656475 1_555
Cr6 O11 1.656475 1_555
Cr6 O8 1.784056 1_555
Cr7 O20 1.619355 1_555
Cr7 O24 1.661680 1_555
Cr7 O2 1.661680 1_555
Cr7 O18 1.780080 1_554
Ag0 O10 2.283578 1_555
Ag0 O5 2.283578 1_455
Ag0 O6 2.298397 1_455
Ag0 O26 2.298397 1_555
Ag1 O3 2.283578 1_555
Ag1 O0 2.283578 1_655
Ag1 O25 2.298397 1_654
Ag1 O7 2.298397 1_554
Ag2 O14 2.283578 1_555
Ag2 O13 2.283578 1_455
Ag2 O2 2.298397 1_556
Ag2 O24 2.298397 1_456
Ag3 O11 2.283578 1_555
Ag3 O23 2.283578 1_655
Ag3 O19 2.298397 1_655
Ag3 O15 2.298397 1_555
