# generated using pymatgen
data_TeH20C6(NCl3)2
_symmetry_space_group_name_H-M   'P 1'
_cell_length_a   12.55800500
_cell_length_b   12.55800500
_cell_length_c   12.55800500
_cell_angle_alpha   90.00000000
_cell_angle_beta   90.00000000
_cell_angle_gamma   90.00000000
_symmetry_Int_Tables_number   1
_chemical_formula_structural   TeH20C6(NCl3)2
_chemical_formula_sum   'Te4 H80 C24 N8 Cl24'
_cell_volume   1980.44121066
_cell_formula_units_Z   4
loop_
 _symmetry_equiv_pos_site_id
 _symmetry_equiv_pos_as_xyz
  1  'x, y, z'
loop_
 _atom_site_type_symbol
 _atom_site_label
 _atom_site_symmetry_multiplicity
 _atom_site_fract_x
 _atom_site_fract_y
 _atom_site_fract_z
 _atom_site_occupancy
  Te  Te0  1  0.00000000  0.00000000  0.00000000  1
  Te  Te1  1  0.00000000  0.50000000  0.50000000  1
  Te  Te2  1  0.50000000  0.50000000  0.00000000  1
  Te  Te3  1  0.50000000  0.00000000  0.50000000  1
  H  H0  1  0.92732900  0.75814200  0.69695500  1
  H  H1  1  0.26424600  0.36076500  0.20082600  1
  H  H2  1  0.84626100  0.34845600  0.86981400  1
  H  H3  1  0.75814200  0.80304500  0.42732900  1
  H  H4  1  0.74185800  0.19695500  0.92732900  1
  H  H5  1  0.79917400  0.73575400  0.63923500  1
  H  H6  1  0.63018600  0.34626100  0.34845600  1
  H  H7  1  0.63923500  0.79917400  0.73575400  1
  H  H8  1  0.63018600  0.15373900  0.84845600  1
  H  H9  1  0.13018600  0.15373900  0.65154400  1
  H  H10  1  0.34845600  0.86981400  0.84626100  1
  H  H11  1  0.80304500  0.42732900  0.75814200  1
  H  H12  1  0.36981400  0.65373900  0.65154400  1
  H  H13  1  0.15154400  0.13018600  0.34626100  1
  H  H14  1  0.24185800  0.30304500  0.07267100  1
  H  H15  1  0.23575400  0.63923500  0.70082600  1
  H  H16  1  0.65628800  0.34371200  0.84371200  1
  H  H17  1  0.84371200  0.65628800  0.34371200  1
  H  H18  1  0.25814200  0.69695500  0.57267100  1
  H  H19  1  0.74185800  0.30304500  0.42732900  1
  H  H20  1  0.19695500  0.57267100  0.24185800  1
  H  H21  1  0.84626100  0.15154400  0.36981400  1
  H  H22  1  0.34626100  0.15154400  0.13018600  1
  H  H23  1  0.34371200  0.65628800  0.15628800  1
  H  H24  1  0.65154400  0.13018600  0.15373900  1
  H  H25  1  0.24185800  0.19695500  0.57267100  1
  H  H26  1  0.65373900  0.84845600  0.86981400  1
  H  H27  1  0.29917400  0.76424600  0.36076500  1
  H  H28  1  0.42732900  0.74185800  0.30304500  1
  H  H29  1  0.13923500  0.70082600  0.26424600  1
  H  H30  1  0.86981400  0.65373900  0.84845600  1
  H  H31  1  0.75814200  0.69695500  0.92732900  1
  H  H32  1  0.19695500  0.92732900  0.74185800  1
  H  H33  1  0.15628800  0.34371200  0.65628800  1
  H  H34  1  0.65628800  0.15628800  0.34371200  1
  H  H35  1  0.57267100  0.25814200  0.69695500  1
  H  H36  1  0.25814200  0.80304500  0.07267100  1
  H  H37  1  0.15154400  0.36981400  0.84626100  1
  H  H38  1  0.34626100  0.34845600  0.63018600  1
  H  H39  1  0.84845600  0.86981400  0.65373900  1
  H  H40  1  0.15373900  0.65154400  0.13018600  1
  H  H41  1  0.70082600  0.23575400  0.63923500  1
  H  H42  1  0.26424600  0.13923500  0.70082600  1
  H  H43  1  0.57267100  0.24185800  0.19695500  1
  H  H44  1  0.36076500  0.29917400  0.76424600  1
  H  H45  1  0.86981400  0.84626100  0.34845600  1
  H  H46  1  0.13018600  0.34626100  0.15154400  1
  H  H47  1  0.76424600  0.36076500  0.29917400  1
  H  H48  1  0.73575400  0.86076500  0.29917400  1
  H  H49  1  0.80304500  0.07267100  0.25814200  1
  H  H50  1  0.65154400  0.36981400  0.65373900  1
  H  H51  1  0.20082600  0.23575400  0.86076500  1
  H  H52  1  0.76424600  0.13923500  0.79917400  1
  H  H53  1  0.70082600  0.26424600  0.13923500  1
  H  H54  1  0.79917400  0.76424600  0.13923500  1
  H  H55  1  0.30304500  0.42732900  0.74185800  1
  H  H56  1  0.69695500  0.57267100  0.25814200  1
  H  H57  1  0.23575400  0.86076500  0.20082600  1
  H  H58  1  0.86076500  0.20082600  0.23575400  1
  H  H59  1  0.69695500  0.92732900  0.75814200  1
  H  H60  1  0.84845600  0.63018600  0.15373900  1
  H  H61  1  0.65373900  0.65154400  0.36981400  1
  H  H62  1  0.84371200  0.84371200  0.84371200  1
  H  H63  1  0.63923500  0.70082600  0.23575400  1
  H  H64  1  0.20082600  0.26424600  0.36076500  1
  H  H65  1  0.34371200  0.84371200  0.65628800  1
  H  H66  1  0.92732900  0.74185800  0.19695500  1
  H  H67  1  0.30304500  0.07267100  0.24185800  1
  H  H68  1  0.15373900  0.84845600  0.63018600  1
  H  H69  1  0.42732900  0.75814200  0.80304500  1
  H  H70  1  0.29917400  0.73575400  0.86076500  1
  H  H71  1  0.07267100  0.25814200  0.80304500  1
  H  H72  1  0.86076500  0.29917400  0.73575400  1
  H  H73  1  0.73575400  0.63923500  0.79917400  1
  H  H74  1  0.36981400  0.84626100  0.15154400  1
  H  H75  1  0.07267100  0.24185800  0.30304500  1
  H  H76  1  0.13923500  0.79917400  0.76424600  1
  H  H77  1  0.34845600  0.63018600  0.34626100  1
  H  H78  1  0.36076500  0.20082600  0.26424600  1
  H  H79  1  0.15628800  0.15628800  0.15628800  1
  C  C0  1  0.71008400  0.18845500  0.84666200  1
  C  C1  1  0.21008400  0.18845500  0.65333800  1
  C  C2  1  0.31154500  0.34666200  0.71008400  1
  C  C3  1  0.15333800  0.21008400  0.31154500  1
  C  C4  1  0.34666200  0.78991600  0.81154500  1
  C  C5  1  0.71008400  0.31154500  0.34666200  1
  C  C6  1  0.18845500  0.84666200  0.71008400  1
  C  C7  1  0.65333800  0.21008400  0.18845500  1
  C  C8  1  0.21008400  0.31154500  0.15333800  1
  C  C9  1  0.68845500  0.65333800  0.28991600  1
  C  C10  1  0.18845500  0.65333800  0.21008400  1
  C  C11  1  0.84666200  0.71008400  0.18845500  1
  C  C12  1  0.28991600  0.81154500  0.15333800  1
  C  C13  1  0.68845500  0.84666200  0.78991600  1
  C  C14  1  0.28991600  0.68845500  0.65333800  1
  C  C15  1  0.81154500  0.34666200  0.78991600  1
  C  C16  1  0.81154500  0.15333800  0.28991600  1
  C  C17  1  0.31154500  0.15333800  0.21008400  1
  C  C18  1  0.78991600  0.68845500  0.84666200  1
  C  C19  1  0.84666200  0.78991600  0.68845500  1
  C  C20  1  0.15333800  0.28991600  0.81154500  1
  C  C21  1  0.65333800  0.28991600  0.68845500  1
  C  C22  1  0.78991600  0.81154500  0.34666200  1
  C  C23  1  0.34666200  0.71008400  0.31154500  1
  N  N0  1  0.20395000  0.29605000  0.70395000  1
  N  N1  1  0.70395000  0.20395000  0.29605000  1
  N  N2  1  0.20395000  0.20395000  0.20395000  1
  N  N3  1  0.29605000  0.79605000  0.70395000  1
  N  N4  1  0.70395000  0.29605000  0.79605000  1
  N  N5  1  0.29605000  0.70395000  0.20395000  1
  N  N6  1  0.79605000  0.70395000  0.29605000  1
  N  N7  1  0.79605000  0.79605000  0.79605000  1
  Cl  Cl0  1  0.03485700  0.52569700  0.70048500  1
  Cl  Cl1  1  0.02569700  0.79951500  0.96514300  1
  Cl  Cl2  1  0.47430300  0.29951500  0.96514300  1
  Cl  Cl3  1  0.53485700  0.97430300  0.29951500  1
  Cl  Cl4  1  0.97430300  0.29951500  0.53485700  1
  Cl  Cl5  1  0.79951500  0.53485700  0.52569700  1
  Cl  Cl6  1  0.52569700  0.79951500  0.53485700  1
  Cl  Cl7  1  0.70048500  0.46514300  0.02569700  1
  Cl  Cl8  1  0.79951500  0.96514300  0.02569700  1
  Cl  Cl9  1  0.29951500  0.96514300  0.47430300  1
  Cl  Cl10  1  0.96514300  0.02569700  0.79951500  1
  Cl  Cl11  1  0.47430300  0.20048500  0.46514300  1
  Cl  Cl12  1  0.53485700  0.52569700  0.79951500  1
  Cl  Cl13  1  0.29951500  0.53485700  0.97430300  1
  Cl  Cl14  1  0.70048500  0.03485700  0.52569700  1
  Cl  Cl15  1  0.52569700  0.70048500  0.03485700  1
  Cl  Cl16  1  0.96514300  0.47430300  0.29951500  1
  Cl  Cl17  1  0.20048500  0.03485700  0.97430300  1
  Cl  Cl18  1  0.46514300  0.02569700  0.70048500  1
  Cl  Cl19  1  0.20048500  0.46514300  0.47430300  1
  Cl  Cl20  1  0.03485700  0.97430300  0.20048500  1
  Cl  Cl21  1  0.97430300  0.20048500  0.03485700  1
  Cl  Cl22  1  0.46514300  0.47430300  0.20048500  1
  Cl  Cl23  1  0.02569700  0.70048500  0.46514300  1
loop_
_geom_bond_atom_site_label_1
_geom_bond_atom_site_label_2
_geom_bond_distance
_geom_bond_site_symmetry_2
H16 N4 1.036701 1_555
H17 N6 1.036701 1_555
H23 N5 1.036701 1_555
H33 N0 1.036701 1_555
H34 N1 1.036701 1_555
H62 N7 1.036701 1_555
H65 N3 1.036701 1_555
H79 N2 1.036701 1_555
C0 H4 1.093989 1_555
C0 H8 1.094213 1_555
C0 H52 1.095591 1_555
C0 N4 1.495188 1_555
C1 H25 1.093989 1_555
C1 H9 1.094213 1_555
C1 H42 1.095591 1_555
C1 N0 1.495188 1_555
C2 H55 1.093989 1_555
C2 H38 1.094213 1_555
C2 H44 1.095591 1_555
C2 N0 1.495188 1_555
C3 H75 1.093989 1_555
C3 H13 1.094213 1_555
C3 H64 1.095591 1_555
C3 N2 1.495188 1_555
C4 H69 1.093989 1_555
C4 H10 1.094213 1_555
C4 H70 1.095591 1_555
C4 N3 1.495188 1_555
C5 H19 1.093989 1_555
C5 H6 1.094213 1_555
C5 H47 1.095591 1_555
C5 N1 1.495188 1_555
C6 H32 1.093989 1_555
C6 H68 1.094213 1_555
C6 H76 1.095591 1_555
C6 N3 1.495188 1_555
C7 H43 1.093989 1_555
C7 H24 1.094213 1_555
C7 H53 1.095591 1_555
C7 N1 1.495188 1_555
C8 H14 1.093989 1_555
C8 H46 1.094213 1_555
C8 H1 1.095591 1_555
C8 N2 1.495188 1_555
C9 H56 1.093989 1_555
C9 H61 1.094213 1_555
C9 H63 1.095591 1_555
C9 N6 1.495188 1_555
C10 H20 1.093989 1_555
C10 H40 1.094213 1_555
C10 H29 1.095591 1_555
C10 N5 1.495188 1_555
C11 H66 1.093989 1_555
C11 H60 1.094213 1_555
C11 H54 1.095591 1_555
C11 N6 1.495188 1_555
C12 H36 1.093989 1_555
C12 H74 1.094213 1_555
C12 H57 1.095591 1_555
C12 N5 1.495188 1_555
C13 H59 1.093989 1_555
C13 H26 1.094213 1_555
C13 H7 1.095591 1_555
C13 N7 1.495188 1_555
C14 H18 1.093989 1_555
C14 H12 1.094213 1_555
C14 H15 1.095591 1_555
C14 N3 1.495188 1_555
C15 H11 1.093989 1_555
C15 H2 1.094213 1_555
C15 H72 1.095591 1_555
C15 N4 1.495188 1_555
C16 H49 1.093989 1_555
C16 H21 1.094213 1_555
C16 H58 1.095591 1_555
C16 N1 1.495188 1_555
C17 H67 1.093989 1_555
C17 H22 1.094213 1_555
C17 H78 1.095591 1_555
C17 N2 1.495188 1_555
C18 H31 1.093989 1_555
C18 H30 1.094213 1_555
C18 H73 1.095591 1_555
C18 N7 1.495188 1_555
C19 H0 1.093989 1_555
C19 H39 1.094213 1_555
C19 H5 1.095591 1_555
C19 N7 1.495188 1_555
C20 H71 1.093989 1_555
C20 H37 1.094213 1_555
C20 H51 1.095591 1_555
C20 N0 1.495188 1_555
C21 H35 1.093989 1_555
C21 H50 1.094213 1_555
C21 H41 1.095591 1_555
C21 N4 1.495188 1_555
C22 H3 1.093989 1_555
C22 H45 1.094213 1_555
C22 H48 1.095591 1_555
C22 N6 1.495188 1_555
C23 H28 1.093989 1_555
C23 H77 1.094213 1_555
C23 H27 1.095591 1_555
C23 N5 1.495188 1_555
Cl0 Te1 2.575756 1_555
Cl1 Te0 2.575756 1_566
Cl2 Te2 2.575756 1_556
Cl3 Te3 2.575756 1_565
Cl4 Te1 2.575756 1_655
Cl5 Te1 2.575756 1_655
Cl6 Te3 2.575756 1_565
Cl7 Te2 2.575756 1_555
Cl8 Te0 2.575756 1_665
Cl9 Te3 2.575756 1_565
Cl10 Te0 2.575756 1_656
Cl11 Te3 2.575756 1_555
Cl12 Te2 2.575756 1_556
Cl13 Te2 2.575756 1_556
Cl14 Te3 2.575756 1_555
Cl15 Te2 2.575756 1_555
Cl16 Te1 2.575756 1_655
Cl17 Te0 2.575756 1_556
Cl18 Te3 2.575756 1_555
Cl19 Te1 2.575756 1_555
Cl20 Te0 2.575756 1_565
Cl21 Te0 2.575756 1_655
Cl22 Te2 2.575756 1_555
Cl23 Te1 2.575756 1_555
