# generated using pymatgen
data_SmMoO4F
_symmetry_space_group_name_H-M   'P 1'
_cell_length_a   12.64376600
_cell_length_b   5.35258900
_cell_length_c   6.86824596
_cell_angle_alpha   67.23990440
_cell_angle_beta   90.00000000
_cell_angle_gamma   90.00000000
_symmetry_Int_Tables_number   1
_chemical_formula_structural   SmMoO4F
_chemical_formula_sum   'Sm4 Mo4 O16 F4'
_cell_volume   428.62713828
_cell_formula_units_Z   4
loop_
 _symmetry_equiv_pos_site_id
 _symmetry_equiv_pos_as_xyz
  1  'x, y, z'
loop_
 _atom_site_type_symbol
 _atom_site_label
 _atom_site_symmetry_multiplicity
 _atom_site_fract_x
 _atom_site_fract_y
 _atom_site_fract_z
 _atom_site_occupancy
  Sm  Sm0  1  0.05269300  0.36173400  0.79960200  1
  Sm  Sm1  1  0.44730700  0.36173400  0.29960200  1
  Sm  Sm2  1  0.55269300  0.63826600  0.70039800  1
  Sm  Sm3  1  0.94730700  0.63826600  0.20039800  1
  Mo  Mo0  1  0.35728500  0.07750900  0.86998700  1
  Mo  Mo1  1  0.64271500  0.92249100  0.13001300  1
  Mo  Mo2  1  0.85728500  0.92249100  0.63001300  1
  Mo  Mo3  1  0.14271500  0.07750900  0.36998700  1
  O  O0  1  0.56619700  0.69503500  0.04008500  1
  O  O1  1  0.43380300  0.30496500  0.95991500  1
  O  O2  1  0.72598300  0.80745100  0.70585600  1
  O  O3  1  0.34727600  0.76605600  0.08727200  1
  O  O4  1  0.27401700  0.19254900  0.29414400  1
  O  O5  1  0.77401700  0.80745100  0.20585600  1
  O  O6  1  0.84727600  0.23394400  0.41272800  1
  O  O7  1  0.65272400  0.23394400  0.91272800  1
  O  O8  1  0.06930900  0.00788900  0.16513600  1
  O  O9  1  0.06619700  0.30496500  0.45991500  1
  O  O10  1  0.43069100  0.00788900  0.66513600  1
  O  O11  1  0.22598300  0.19254900  0.79414400  1
  O  O12  1  0.15272400  0.76605600  0.58727200  1
  O  O13  1  0.93069100  0.99211100  0.83486400  1
  O  O14  1  0.56930900  0.99211100  0.33486400  1
  O  O15  1  0.93380300  0.69503500  0.54008500  1
  F  F0  1  0.59764200  0.44833100  0.46532500  1
  F  F1  1  0.40235800  0.55166900  0.53467500  1
  F  F2  1  0.09764200  0.55166900  0.03467500  1
  F  F3  1  0.90235800  0.44833100  0.96532500  1
loop_
_geom_bond_atom_site_label_1
_geom_bond_atom_site_label_2
_geom_bond_distance
_geom_bond_site_symmetry_2
Mo0 O3 1.759923 1_546
Mo0 O11 1.777197 1_555
Mo0 O1 1.838910 1_555
Mo0 O10 1.839979 1_555
Mo1 O7 1.759923 1_564
Mo1 O5 1.777197 1_555
Mo1 O0 1.838910 1_555
Mo1 O14 1.839979 1_555
Mo2 O6 1.759923 1_565
Mo2 O2 1.777197 1_555
Mo2 O15 1.838910 1_555
Mo2 O13 1.839979 1_555
Mo3 O12 1.759923 1_545
Mo3 O4 1.777197 1_555
Mo3 O9 1.838910 1_555
Mo3 O8 1.839979 1_555
O0 Sm2 2.472479 1_554
O0 Sm1 2.481736 1_555
O1 Sm1 2.472479 1_556
O1 Sm2 2.481736 1_555
O2 Sm2 2.376634 1_555
O3 Sm1 2.442949 1_555
O4 Sm1 2.376634 1_555
O5 Sm3 2.376634 1_555
O6 Sm3 2.442949 1_555
O7 Sm2 2.442949 1_555
O8 Sm3 2.445739 1_445
O8 Sm0 2.501031 1_554
O9 Sm0 2.472479 1_555
O9 Sm3 2.481736 1_455
O10 Sm2 2.445739 1_545
O10 Sm1 2.501031 1_555
O11 Sm0 2.376634 1_555
O12 Sm0 2.442949 1_555
O13 Sm0 2.445739 1_665
O13 Sm3 2.501031 1_556
O14 Sm1 2.445739 1_565
O14 Sm2 2.501031 1_555
O15 Sm3 2.472479 1_555
O15 Sm0 2.481736 1_655
F0 Sm2 2.287648 1_555
F0 Sm1 2.351950 1_555
F1 Sm1 2.287648 1_555
F1 Sm2 2.351950 1_555
F2 Sm0 2.287648 1_554
F2 Sm3 2.351950 1_455
F3 Sm3 2.287648 1_556
F3 Sm0 2.351950 1_655
