# generated using pymatgen
data_CdI2
_symmetry_space_group_name_H-M   'P 1'
_cell_length_a   4.28354086
_cell_length_b   4.28354160
_cell_length_c   72.10884374
_cell_angle_alpha   90.00000000
_cell_angle_beta   90.00000000
_cell_angle_gamma   119.99999427
_symmetry_Int_Tables_number   1
_chemical_formula_structural   CdI2
_chemical_formula_sum   'Cd10 I20'
_cell_volume   1145.84293575
_cell_formula_units_Z   10
loop_
 _symmetry_equiv_pos_site_id
 _symmetry_equiv_pos_as_xyz
  1  'x, y, z'
loop_
 _atom_site_type_symbol
 _atom_site_label
 _atom_site_symmetry_multiplicity
 _atom_site_fract_x
 _atom_site_fract_y
 _atom_site_fract_z
 _atom_site_occupancy
  Cd  Cd0  1  0.66666700  0.33333300  0.52301926  1
  Cd  Cd1  1  0.66666700  0.33333300  0.32287556  1
  Cd  Cd2  1  0.66666700  0.33333300  0.02684431  1
  Cd  Cd3  1  0.66666700  0.33333300  0.22383915  1
  Cd  Cd4  1  0.66666700  0.33333300  0.62373471  1
  Cd  Cd5  1  0.66666700  0.33333300  0.42306138  1
  Cd  Cd6  1  -0.00000000  -0.00000000  0.72449741  1
  Cd  Cd7  1  -0.00000000  -0.00000000  0.82772180  1
  Cd  Cd8  1  0.66666700  0.33333300  0.12535744  1
  Cd  Cd9  1  0.66666700  0.33333300  0.92903751  1
  I  I0  1  0.00000000  0.00000000  0.10156188  1
  I  I1  1  0.33333300  0.66666700  0.44690862  1
  I  I2  1  0.33333300  0.66666700  0.34678139  1
  I  I3  1  0.00000000  0.00000000  0.29896574  1
  I  I4  1  0.33333300  0.66666700  0.95297382  1
  I  I5  1  0.00000000  0.00000000  0.59990466  1
  I  I6  1  0.66666700  0.33333300  0.70054050  1
  I  I7  1  0.00000000  0.00000000  0.39917391  1
  I  I8  1  0.00000000  0.00000000  0.20000499  1
  I  I9  1  0.66666700  0.33333300  0.80380515  1
  I  I10  1  0.00000000  0.00000000  0.90515692  1
  I  I11  1  0.33333300  0.66666700  0.05068897  1
  I  I12  1  0.00000000  0.00000000  0.00304055  1
  I  I13  1  0.33333300  0.66666700  0.54688151  1
  I  I14  1  0.33333300  0.66666700  0.85159602  1
  I  I15  1  0.33333300  0.66666700  0.24774234  1
  I  I16  1  0.00000000  0.00000000  0.49912365  1
  I  I17  1  0.33333300  0.66666700  0.14916359  1
  I  I18  1  0.33333300  0.66666700  0.64756377  1
  I  I19  1  0.33333300  0.66666700  0.74843249  1
loop_
_geom_bond_atom_site_label_1
_geom_bond_atom_site_label_2
_geom_bond_distance
_geom_bond_site_symmetry_2
Cd0 I13 3.012800 1_655
Cd0 I13 3.012801 1_545
Cd0 I13 3.012807 1_555
Cd0 I16 3.014175 1_655
Cd0 I16 3.014178 1_555
Cd0 I16 3.014178 1_665
Cd1 I2 3.014596 1_655
Cd1 I2 3.014597 1_545
Cd1 I2 3.014602 1_555
Cd1 I3 3.014761 1_655
Cd1 I3 3.014764 1_555
Cd1 I3 3.014764 1_665
Cd2 I12 3.010394 1_655
Cd2 I12 3.010397 1_555
Cd2 I12 3.010397 1_665
Cd2 I11 3.012076 1_655
Cd2 I11 3.012077 1_545
Cd2 I11 3.012082 1_555
Cd3 I8 3.011644 1_655
Cd3 I8 3.011647 1_555
Cd3 I8 3.011647 1_665
Cd3 I15 3.014487 1_655
Cd3 I15 3.014488 1_545
Cd3 I15 3.014494 1_555
Cd4 I18 3.011434 1_655
Cd4 I18 3.011435 1_545
Cd4 I18 3.011440 1_555
Cd4 I5 3.011475 1_655
Cd4 I5 3.011478 1_555
Cd4 I5 3.011478 1_665
Cd5 I1 3.012182 1_655
Cd5 I1 3.012183 1_545
Cd5 I1 3.012188 1_555
Cd5 I7 3.013839 1_655
Cd5 I7 3.013842 1_555
Cd5 I7 3.013843 1_665
Cd6 I19 3.015803 1_545
Cd6 I19 3.015806 1_445
Cd6 I19 3.015806 1_555
Cd6 I6 3.016704 1_455
Cd6 I6 3.016707 1_555
Cd6 I6 3.016707 1_445
Cd7 I14 3.013293 1_545
Cd7 I14 3.013297 1_445
Cd7 I14 3.013297 1_555
Cd7 I9 3.015042 1_455
Cd7 I9 3.015046 1_555
Cd7 I9 3.015046 1_445
Cd8 I0 3.010057 1_655
Cd8 I0 3.010060 1_555
Cd8 I0 3.010060 1_665
Cd8 I17 3.010492 1_655
Cd8 I17 3.010492 1_545
Cd8 I17 3.010498 1_555
Cd9 I10 3.013556 1_655
Cd9 I10 3.013559 1_555
Cd9 I10 3.013559 1_665
Cd9 I4 3.015854 1_655
Cd9 I4 3.015854 1_545
Cd9 I4 3.015860 1_555
