# generated using pymatgen
data_Na4MoS3O14
_symmetry_space_group_name_H-M   'P 1'
_cell_length_a   8.62643200
_cell_length_b   9.47054800
_cell_length_c   15.34929900
_cell_angle_alpha   90.00000000
_cell_angle_beta   90.00000000
_cell_angle_gamma   90.00000000
_symmetry_Int_Tables_number   1
_chemical_formula_structural   Na4MoS3O14
_chemical_formula_sum   'Na16 Mo4 S12 O56'
_cell_volume   1253.99226866
_cell_formula_units_Z   4
loop_
 _symmetry_equiv_pos_site_id
 _symmetry_equiv_pos_as_xyz
  1  'x, y, z'
loop_
 _atom_site_type_symbol
 _atom_site_label
 _atom_site_symmetry_multiplicity
 _atom_site_fract_x
 _atom_site_fract_y
 _atom_site_fract_z
 _atom_site_occupancy
  Na  Na0  1  0.80567200  0.75991700  0.31738000  1
  Na  Na1  1  0.19994100  0.58037900  0.33830000  1
  Na  Na2  1  0.43214700  0.96586200  0.28775600  1
  Na  Na3  1  0.82998900  0.48603100  0.96936400  1
  Na  Na4  1  0.32998900  0.01396900  0.03063600  1
  Na  Na5  1  0.19432800  0.25991700  0.18262000  1
  Na  Na6  1  0.80005900  0.08037900  0.16170000  1
  Na  Na7  1  0.06785300  0.03413800  0.78775600  1
  Na  Na8  1  0.30567200  0.74008300  0.68262000  1
  Na  Na9  1  0.69994100  0.91962100  0.66170000  1
  Na  Na10  1  0.56785300  0.46586200  0.21224400  1
  Na  Na11  1  0.93214700  0.53413800  0.71224400  1
  Na  Na12  1  0.17001100  0.98603100  0.53063600  1
  Na  Na13  1  0.30005900  0.41962100  0.83830000  1
  Na  Na14  1  0.67001100  0.51396900  0.46936400  1
  Na  Na15  1  0.69432800  0.24008300  0.81738000  1
  Mo  Mo0  1  0.72577300  0.89153900  0.92687200  1
  Mo  Mo1  1  0.77422700  0.10846100  0.42687200  1
  Mo  Mo2  1  0.22577300  0.60846100  0.07312800  1
  Mo  Mo3  1  0.27422700  0.39153900  0.57312800  1
  S  S0  1  0.42187200  0.29705900  0.38153900  1
  S  S1  1  0.57812800  0.79705900  0.11846100  1
  S  S2  1  0.37294500  0.12324000  0.70380800  1
  S  S3  1  0.47203900  0.35653100  0.01563900  1
  S  S4  1  0.97203900  0.14346900  0.98436100  1
  S  S5  1  0.12705500  0.87676000  0.20380800  1
  S  S6  1  0.62705500  0.62324000  0.79619200  1
  S  S7  1  0.02796100  0.64346900  0.51563900  1
  S  S8  1  0.92187200  0.20294100  0.61846100  1
  S  S9  1  0.87294500  0.37676000  0.29619200  1
  S  S10  1  0.52796100  0.85653100  0.48436100  1
  S  S11  1  0.07812800  0.70294100  0.88153900  1
  O  O0  1  0.49840400  0.79676700  0.57073100  1
  O  O1  1  0.70473300  0.77848000  0.05091100  1
  O  O2  1  0.39357500  0.25712400  0.07496000  1
  O  O3  1  0.42691900  0.75872100  0.07540200  1
  O  O4  1  0.70343400  0.03044900  0.33145700  1
  O  O5  1  0.05282200  0.52075900  0.05653800  1
  O  O6  1  0.88161200  0.27886000  0.37733200  1
  O  O7  1  0.64546200  0.98065500  0.50472000  1
  O  O8  1  0.14546200  0.51934500  0.49528000  1
  O  O9  1  0.56886700  0.94715100  0.14505000  1
  O  O10  1  0.43113300  0.44715100  0.35495000  1
  O  O11  1  0.50159600  0.29676700  0.92926900  1
  O  O12  1  0.46497600  0.59454100  0.77270500  1
  O  O13  1  0.92691900  0.74127900  0.92459800  1
  O  O14  1  0.07308100  0.24127900  0.57540200  1
  O  O15  1  0.10945800  0.07961600  0.94346500  1
  O  O16  1  0.78654600  0.30188700  0.22779900  1
  O  O17  1  0.94717800  0.02075900  0.44346200  1
  O  O18  1  0.20473300  0.72152000  0.94908900  1
  O  O19  1  0.61838800  0.72114000  0.87733200  1
  O  O20  1  0.89357500  0.24287600  0.92504000  1
  O  O21  1  0.10642500  0.74287600  0.57496000  1
  O  O22  1  0.96497600  0.90545900  0.22729500  1
  O  O23  1  0.35453800  0.48065500  0.99528000  1
  O  O24  1  0.89054200  0.57961600  0.55653500  1
  O  O25  1  0.29656600  0.53044900  0.16854300  1
  O  O26  1  0.60642500  0.75712400  0.42504000  1
  O  O27  1  0.60945800  0.42038400  0.05653500  1
  O  O28  1  0.20343400  0.46955100  0.66854300  1
  O  O29  1  0.28958500  0.99457400  0.67642700  1
  O  O30  1  0.11838800  0.77886000  0.12266800  1
  O  O31  1  0.93113300  0.05284900  0.64505000  1
  O  O32  1  0.11253500  0.79398500  0.80647300  1
  O  O33  1  0.79656600  0.96955100  0.83145700  1
  O  O34  1  0.44717800  0.47924100  0.55653800  1
  O  O35  1  0.99840400  0.70323300  0.42926900  1
  O  O36  1  0.71041500  0.49457400  0.82357300  1
  O  O37  1  0.06886700  0.55284900  0.85495000  1
  O  O38  1  0.85453800  0.01934500  0.00472000  1
  O  O39  1  0.39054200  0.92038400  0.44346500  1
  O  O40  1  0.38746500  0.20601500  0.30647300  1
  O  O41  1  0.03502400  0.40545900  0.27270500  1
  O  O42  1  0.88746500  0.29398500  0.69352700  1
  O  O43  1  0.53502400  0.09454100  0.72729500  1
  O  O44  1  0.38161200  0.22114000  0.62266800  1
  O  O45  1  0.29526700  0.27848000  0.44908900  1
  O  O46  1  0.00159600  0.20323300  0.07073100  1
  O  O47  1  0.28654600  0.19811300  0.77220100  1
  O  O48  1  0.61253500  0.70601500  0.19352700  1
  O  O49  1  0.55282200  0.97924100  0.94346200  1
  O  O50  1  0.78958500  0.50542600  0.32357300  1
  O  O51  1  0.21041500  0.00542600  0.17642700  1
  O  O52  1  0.79526700  0.22152000  0.55091100  1
  O  O53  1  0.21345400  0.80188700  0.27220100  1
  O  O54  1  0.57308100  0.25872100  0.42459800  1
  O  O55  1  0.71345400  0.69811300  0.72779900  1
loop_
_geom_bond_atom_site_label_1
_geom_bond_atom_site_label_2
_geom_bond_distance
_geom_bond_site_symmetry_2
Na0 O26 2.384474 1_555
Na0 O22 2.387541 1_555
Na0 O50 2.416032 1_555
Na0 O35 2.449880 1_555
Na0 O48 2.578845 1_555
Na0 O4 2.718236 1_565
Na1 O53 2.333178 1_555
Na1 O10 2.373771 1_555
Na1 O41 2.404563 1_555
Na1 O35 2.515143 1_455
Na1 O8 2.522067 1_555
Na1 O25 2.776290 1_555
Na2 O40 2.324632 1_565
Na2 O39 2.454899 1_555
Na2 O53 2.455125 1_555
Na2 O9 2.494076 1_555
Na2 O4 2.510141 1_565
Na2 O51 2.592123 1_565
Na3 O5 2.365086 1_656
Na3 O27 2.407471 1_556
Na3 O20 2.463063 1_555
Na3 O36 2.465408 1_555
Na3 O13 2.648553 1_555
Na3 O37 2.780455 1_655
Na4 O49 2.365086 1_544
Na4 O15 2.407471 1_554
Na4 O2 2.463063 1_555
Na4 O51 2.465408 1_555
Na4 O3 2.648553 1_545
Na4 O9 2.780455 1_545
Na5 O2 2.384474 1_555
Na5 O41 2.387541 1_555
Na5 O51 2.416032 1_555
Na5 O46 2.449880 1_555
Na5 O40 2.578845 1_555
Na5 O25 2.718236 1_555
Na6 O16 2.333178 1_555
Na6 O9 2.373771 1_545
Na6 O22 2.404563 1_545
Na6 O46 2.515143 1_655
Na6 O38 2.522067 1_555
Na6 O4 2.776290 1_555
Na7 O32 2.324632 1_545
Na7 O15 2.454899 1_555
Na7 O47 2.455125 1_555
Na7 O31 2.494076 1_455
Na7 O33 2.510141 1_445
Na7 O29 2.592123 1_545
Na8 O21 2.384474 1_555
Na8 O12 2.387541 1_555
Na8 O29 2.416032 1_555
Na8 O0 2.449880 1_555
Na8 O32 2.578845 1_555
Na8 O28 2.718236 1_555
Na9 O55 2.333178 1_555
Na9 O31 2.373771 1_565
Na9 O43 2.404563 1_565
Na9 O0 2.515143 1_555
Na9 O7 2.522067 1_555
Na9 O33 2.776290 1_555
Na10 O48 2.324632 1_555
Na10 O27 2.454899 1_555
Na10 O16 2.455125 1_555
Na10 O10 2.494076 1_555
Na10 O25 2.510141 1_555
Na10 O50 2.592123 1_555
Na11 O42 2.324632 1_555
Na11 O24 2.454899 1_555
Na11 O55 2.455125 1_555
Na11 O37 2.494076 1_655
Na11 O28 2.510141 1_655
Na11 O36 2.592123 1_555
Na12 O17 2.365086 1_465
Na12 O39 2.407471 1_555
Na12 O21 2.463063 1_555
Na12 O29 2.465408 1_555
Na12 O14 2.648553 1_565
Na12 O31 2.780455 1_465
Na13 O47 2.333178 1_555
Na13 O37 2.373771 1_555
Na13 O12 2.404563 1_555
Na13 O11 2.515143 1_555
Na13 O23 2.522067 1_555
Na13 O28 2.776290 1_555
Na14 O34 2.365086 1_555
Na14 O24 2.407471 1_555
Na14 O26 2.463063 1_555
Na14 O50 2.465408 1_555
Na14 O54 2.648553 1_555
Na14 O10 2.780455 1_555
Na15 O20 2.384474 1_555
Na15 O43 2.387541 1_555
Na15 O36 2.416032 1_555
Na15 O11 2.449880 1_555
Na15 O42 2.578845 1_555
Na15 O33 2.718236 1_545
Mo0 O49 1.726451 1_555
Mo0 O33 1.750346 1_555
Mo0 O19 2.010124 1_555
Mo0 O38 2.031429 1_566
Mo0 O1 2.191868 1_556
Mo0 O13 2.244348 1_555
Mo1 O17 1.726451 1_555
Mo1 O4 1.750346 1_555
Mo1 O6 2.010124 1_555
Mo1 O7 2.031429 1_545
Mo1 O52 2.191868 1_555
Mo1 O54 2.244348 1_555
Mo2 O5 1.726451 1_555
Mo2 O25 1.750346 1_555
Mo2 O30 2.010124 1_555
Mo2 O23 2.031429 1_554
Mo2 O18 2.191868 1_554
Mo2 O3 2.244348 1_555
Mo3 O34 1.726451 1_555
Mo3 O28 1.750346 1_555
Mo3 O44 2.010124 1_555
Mo3 O8 2.031429 1_555
Mo3 O45 2.191868 1_555
Mo3 O14 2.244348 1_555
O0 S10 1.463863 1_555
O1 S1 1.516179 1_555
O2 S3 1.474289 1_555
O3 S1 1.506683 1_555
O6 S9 1.554463 1_555
O7 S10 1.583326 1_555
O8 S7 1.583326 1_555
O9 S1 1.481039 1_555
O10 S0 1.481039 1_555
O11 S3 1.463863 1_556
O12 S6 1.469252 1_555
O13 S11 1.506683 1_655
O14 S8 1.506683 1_455
O15 S4 1.471389 1_455
O16 S9 1.469812 1_555
O18 S11 1.516179 1_555
O19 S6 1.554463 1_555
O20 S4 1.474289 1_555
O21 S7 1.474289 1_555
O22 S5 1.469252 1_655
O23 S3 1.583326 1_556
O24 S7 1.471389 1_655
O26 S10 1.474289 1_555
O27 S3 1.471389 1_555
O29 S2 1.475999 1_565
O30 S5 1.554463 1_555
O31 S8 1.481039 1_555
O32 S11 1.469400 1_555
O35 S7 1.463863 1_655
O36 S6 1.475999 1_555
O37 S11 1.481039 1_555
O38 S4 1.583326 1_554
O39 S10 1.471389 1_555
O40 S0 1.469400 1_555
O41 S9 1.469252 1_455
O42 S8 1.469400 1_555
O43 S2 1.469252 1_555
O44 S2 1.554463 1_555
O45 S0 1.516179 1_555
O46 S4 1.463863 1_454
O47 S2 1.469812 1_555
O48 S1 1.469400 1_555
O50 S9 1.475999 1_555
O51 S5 1.475999 1_545
O52 S8 1.516179 1_555
O53 S5 1.469812 1_555
O54 S0 1.506683 1_555
O55 S6 1.469812 1_555
