# generated using pymatgen
data_Ge23Mo13
_symmetry_space_group_name_H-M   'P 1'
_cell_length_a   6.03274300
_cell_length_b   6.03274300
_cell_length_c   64.13074300
_cell_angle_alpha   90.00000000
_cell_angle_beta   90.00000000
_cell_angle_gamma   90.00000000
_symmetry_Int_Tables_number   1
_chemical_formula_structural   Ge23Mo13
_chemical_formula_sum   'Ge92 Mo52'
_cell_volume   2333.97349785
_cell_formula_units_Z   4
loop_
 _symmetry_equiv_pos_site_id
 _symmetry_equiv_pos_as_xyz
  1  'x, y, z'
loop_
 _atom_site_type_symbol
 _atom_site_label
 _atom_site_symmetry_multiplicity
 _atom_site_fract_x
 _atom_site_fract_y
 _atom_site_fract_z
 _atom_site_occupancy
  Ge  Ge0  1  0.16408800  0.84336300  0.42359100  1
  Ge  Ge1  1  0.20606700  0.14977100  0.96612800  1
  Ge  Ge2  1  0.81089400  0.14936400  0.11825700  1
  Ge  Ge3  1  0.83097300  0.65378700  0.40282000  1
  Ge  Ge4  1  0.28400100  0.14993100  0.35972400  1
  Ge  Ge5  1  0.34932100  0.25420700  0.83704800  1
  Ge  Ge6  1  0.78400100  0.35006900  0.85972400  1
  Ge  Ge7  1  0.84950500  0.77510100  0.18563600  1
  Ge  Ge8  1  0.15067900  0.75420700  0.33704800  1
  Ge  Ge9  1  0.85071000  0.69700100  0.79207800  1
  Ge  Ge10  1  0.35006900  0.21599900  0.14027600  1
  Ge  Ge11  1  0.14936400  0.18910600  0.88174300  1
  Ge  Ge12  1  0.65378700  0.16902700  0.59718000  1
  Ge  Ge13  1  0.32542400  0.65156900  0.77078700  1
  Ge  Ge14  1  0.65067900  0.74579300  0.83704800  1
  Ge  Ge15  1  0.34950500  0.72489900  0.68563600  1
  Ge  Ge16  1  0.19700100  0.35071000  0.70792200  1
  Ge  Ge17  1  0.68143700  0.84986800  0.05552000  1
  Ge  Ge18  1  0.35022900  0.29393300  0.53387200  1
  Ge  Ge19  1  0.64929000  0.19700100  0.29207800  1
  Ge  Ge20  1  0.27510100  0.34950500  0.31436400  1
  Ge  Ge21  1  0.84336300  0.83591200  0.57640900  1
  Ge  Ge22  1  0.72489900  0.65049500  0.31436400  1
  Ge  Ge23  1  0.69700100  0.14929000  0.20792200  1
  Ge  Ge24  1  0.22489900  0.84950500  0.81436400  1
  Ge  Ge25  1  0.84932100  0.24579300  0.33704800  1
  Ge  Ge26  1  0.65036800  0.23486300  0.98859800  1
  Ge  Ge27  1  0.18143700  0.65013200  0.55552000  1
  Ge  Ge28  1  0.84963200  0.73486300  0.48859800  1
  Ge  Ge29  1  0.85006900  0.28400100  0.64027600  1
  Ge  Ge30  1  0.66408800  0.65663700  0.92359100  1
  Ge  Ge31  1  0.75420700  0.84932100  0.66295200  1
  Ge  Ge32  1  0.80299900  0.64929000  0.70792200  1
  Ge  Ge33  1  0.24579300  0.15067900  0.66295200  1
  Ge  Ge34  1  0.64977100  0.70606700  0.53387200  1
  Ge  Ge35  1  0.79393300  0.85022900  0.96612800  1
  Ge  Ge36  1  0.15049500  0.22489900  0.18563600  1
  Ge  Ge37  1  0.84843100  0.17457600  0.72921300  1
  Ge  Ge38  1  0.15987700  0.65987700  0.25000000  1
  Ge  Ge39  1  0.34843100  0.32542400  0.22921300  1
  Ge  Ge40  1  0.82542400  0.84843100  0.27078700  1
  Ge  Ge41  1  0.65013200  0.81856300  0.44448000  1
  Ge  Ge42  1  0.23486300  0.34963200  0.01140200  1
  Ge  Ge43  1  0.15663700  0.16408800  0.57640900  1
  Ge  Ge44  1  0.70606700  0.35022900  0.46612800  1
  Ge  Ge45  1  0.34963200  0.76513700  0.98859800  1
  Ge  Ge46  1  0.17457600  0.15156900  0.27078700  1
  Ge  Ge47  1  0.29393300  0.64977100  0.46612800  1
  Ge  Ge48  1  0.66902700  0.15378700  0.90282000  1
  Ge  Ge49  1  0.73486300  0.15036800  0.51140200  1
  Ge  Ge50  1  0.34621300  0.83097300  0.59718000  1
  Ge  Ge51  1  0.85063600  0.81089400  0.88174300  1
  Ge  Ge52  1  0.81856300  0.34986800  0.55552000  1
  Ge  Ge53  1  0.34336300  0.66408800  0.07640900  1
  Ge  Ge54  1  0.83591200  0.15663700  0.42359100  1
  Ge  Ge55  1  0.15036800  0.26513700  0.48859800  1
  Ge  Ge56  1  0.25420700  0.65067900  0.16295200  1
  Ge  Ge57  1  0.74579300  0.34932100  0.16295200  1
  Ge  Ge58  1  0.84986800  0.31856300  0.94448000  1
  Ge  Ge59  1  0.15156900  0.82542400  0.72921300  1
  Ge  Ge60  1  0.15378700  0.33097300  0.09718000  1
  Ge  Ge61  1  0.67457600  0.34843100  0.77078700  1
  Ge  Ge62  1  0.77510100  0.15049500  0.81436400  1
  Ge  Ge63  1  0.16902700  0.34621300  0.40282000  1
  Ge  Ge64  1  0.71599900  0.85006900  0.35972400  1
  Ge  Ge65  1  0.21599900  0.64993100  0.85972400  1
  Ge  Ge66  1  0.30299900  0.85071000  0.20792200  1
  Ge  Ge67  1  0.33591200  0.34336300  0.92359100  1
  Ge  Ge68  1  0.76513700  0.65036800  0.01140200  1
  Ge  Ge69  1  0.34012300  0.15987700  0.75000000  1
  Ge  Ge70  1  0.31089400  0.35063600  0.61825700  1
  Ge  Ge71  1  0.26513700  0.84963200  0.51140200  1
  Ge  Ge72  1  0.64936400  0.31089400  0.38174300  1
  Ge  Ge73  1  0.15013200  0.68143700  0.94448000  1
  Ge  Ge74  1  0.35063600  0.68910600  0.38174300  1
  Ge  Ge75  1  0.18910600  0.85063600  0.11825700  1
  Ge  Ge76  1  0.85022900  0.20606700  0.03387200  1
  Ge  Ge77  1  0.33097300  0.84621300  0.90282000  1
  Ge  Ge78  1  0.14929000  0.30299900  0.79207800  1
  Ge  Ge79  1  0.14993100  0.71599900  0.64027600  1
  Ge  Ge80  1  0.68910600  0.64936400  0.61825700  1
  Ge  Ge81  1  0.65049500  0.27510100  0.68563600  1
  Ge  Ge82  1  0.35071000  0.80299900  0.29207800  1
  Ge  Ge83  1  0.65987700  0.84012300  0.75000000  1
  Ge  Ge84  1  0.31856300  0.15013200  0.05552000  1
  Ge  Ge85  1  0.65663700  0.33591200  0.07640900  1
  Ge  Ge86  1  0.84012300  0.34012300  0.25000000  1
  Ge  Ge87  1  0.84621300  0.66902700  0.09718000  1
  Ge  Ge88  1  0.65156900  0.67457600  0.22921300  1
  Ge  Ge89  1  0.64993100  0.78400100  0.14027600  1
  Ge  Ge90  1  0.34986800  0.18143700  0.44448000  1
  Ge  Ge91  1  0.14977100  0.79393300  0.03387200  1
  Mo  Mo0  1  0.00000000  0.50000000  0.82662700  1
  Mo  Mo1  1  0.50000000  0.00000000  0.17337300  1
  Mo  Mo2  1  0.50000000  0.00000000  0.78690600  1
  Mo  Mo3  1  0.50000000  0.50000000  0.03988300  1
  Mo  Mo4  1  0.00000000  0.00000000  0.76776200  1
  Mo  Mo5  1  0.00000000  0.00000000  0.46011700  1
  Mo  Mo6  1  0.50000000  0.50000000  0.42247800  1
  Mo  Mo7  1  0.50000000  0.00000000  0.86660600  1
  Mo  Mo8  1  0.00000000  0.00000000  0.84668500  1
  Mo  Mo9  1  0.00000000  0.00000000  0.23223800  1
  Mo  Mo10  1  0.50000000  0.00000000  0.63339400  1
  Mo  Mo11  1  0.00000000  0.50000000  0.21309400  1
  Mo  Mo12  1  0.00000000  0.50000000  0.36660600  1
  Mo  Mo13  1  0.50000000  0.50000000  0.65331500  1
  Mo  Mo14  1  0.00000000  0.00000000  0.30666300  1
  Mo  Mo15  1  0.00000000  0.50000000  0.13339400  1
  Mo  Mo16  1  0.50000000  0.50000000  0.73223800  1
  Mo  Mo17  1  0.50000000  0.00000000  0.32662700  1
  Mo  Mo18  1  0.50000000  0.00000000  0.25000000  1
  Mo  Mo19  1  0.00000000  0.50000000  0.67337300  1
  Mo  Mo20  1  0.00000000  0.00000000  0.07752200  1
  Mo  Mo21  1  0.50000000  0.50000000  0.11374100  1
  Mo  Mo22  1  0.00000000  0.50000000  0.75000000  1
  Mo  Mo23  1  0.50000000  0.50000000  0.57752200  1
  Mo  Mo24  1  0.00000000  0.00000000  0.15331500  1
  Mo  Mo25  1  0.50000000  0.00000000  0.09503100  1
  Mo  Mo26  1  0.00000000  0.50000000  0.44071100  1
  Mo  Mo27  1  0.00000000  0.50000000  0.05928900  1
  Mo  Mo28  1  0.50000000  0.00000000  0.02000200  1
  Mo  Mo29  1  0.50000000  0.50000000  0.88625900  1
  Mo  Mo30  1  0.50000000  0.00000000  0.94071100  1
  Mo  Mo31  1  0.50000000  0.50000000  0.34668500  1
  Mo  Mo32  1  0.50000000  0.50000000  0.96011700  1
  Mo  Mo33  1  0.00000000  0.50000000  0.97999800  1
  Mo  Mo34  1  0.00000000  0.50000000  0.59503100  1
  Mo  Mo35  1  0.50000000  0.50000000  0.26776200  1
  Mo  Mo36  1  0.50000000  0.50000000  0.80666300  1
  Mo  Mo37  1  0.00000000  0.00000000  0.00000000  1
  Mo  Mo38  1  0.00000000  0.00000000  0.69333700  1
  Mo  Mo39  1  0.50000000  0.00000000  0.71309400  1
  Mo  Mo40  1  0.00000000  0.50000000  0.90496900  1
  Mo  Mo41  1  0.00000000  0.50000000  0.52000200  1
  Mo  Mo42  1  0.00000000  0.00000000  0.53988300  1
  Mo  Mo43  1  0.50000000  0.00000000  0.55928900  1
  Mo  Mo44  1  0.00000000  0.50000000  0.28690600  1
  Mo  Mo45  1  0.50000000  0.00000000  0.40496900  1
  Mo  Mo46  1  0.50000000  0.00000000  0.47999800  1
  Mo  Mo47  1  0.50000000  0.50000000  0.19333700  1
  Mo  Mo48  1  0.00000000  0.00000000  0.61374100  1
  Mo  Mo49  1  0.50000000  0.50000000  0.50000000  1
  Mo  Mo50  1  0.00000000  0.00000000  0.92247800  1
  Mo  Mo51  1  0.00000000  0.00000000  0.38625900  1
loop_
_geom_bond_atom_site_label_1
_geom_bond_atom_site_label_2
_geom_bond_distance
_geom_bond_site_symmetry_2
Ge0 Mo45 2.534903 1_565
Ge0 Mo26 2.544821 1_555
Ge0 Ge3 2.668488 1_455
Ge0 Ge90 2.685205 1_565
Ge0 Mo5 2.712906 1_565
Ge0 Ge54 2.737032 1_465
Ge0 Mo51 2.757660 1_565
Ge0 Mo6 2.898700 1_555
Ge1 Mo30 2.572473 1_555
Ge1 Mo33 2.607819 1_555
Ge1 Mo37 2.660902 1_556
Ge1 Ge58 2.753518 1_455
Ge1 Mo32 2.785143 1_555
Ge2 Mo25 2.558947 1_555
Ge2 Mo15 2.591972 1_655
Ge2 Mo24 2.677360 1_655
Ge2 Ge60 2.703042 1_655
Ge2 Ge89 2.791986 1_545
Ge2 Mo21 2.841834 1_555
Ge2 Ge75 2.907524 1_645
Ge2 Mo20 2.989629 1_655
Ge3 Mo6 2.537078 1_555
Ge3 Mo51 2.555402 1_665
Ge3 Mo12 2.700778 1_655
Ge3 Ge72 2.703042 1_555
Ge3 Ge63 2.757183 1_655
Ge3 Mo26 2.793798 1_655
Ge3 Mo45 2.892752 1_565
Ge4 Mo51 2.578631 1_555
Ge4 Mo31 2.618632 1_555
Ge4 Mo17 2.649764 1_555
Ge4 Mo12 2.755036 1_555
Ge4 Ge72 2.791986 1_555
Ge5 Mo7 2.602178 1_555
Ge5 Mo36 2.611915 1_555
Ge5 Mo0 2.662016 1_555
Ge5 Mo8 2.678575 1_555
Ge6 Mo29 2.578631 1_555
Ge6 Mo8 2.618632 1_655
Ge6 Mo0 2.649764 1_655
Ge6 Mo7 2.755036 1_555
Ge7 Mo11 2.584448 1_655
Ge7 Mo1 2.627724 1_565
Ge7 Mo24 2.638455 1_665
Ge7 Mo47 2.728349 1_555
Ge8 Mo12 2.602178 1_555
Ge8 Mo14 2.611915 1_565
Ge8 Mo17 2.662016 1_565
Ge8 Mo31 2.678575 1_555
Ge9 Mo4 2.565958 1_665
Ge9 Mo36 2.600706 1_555
Ge9 Mo0 2.670707 1_655
Ge9 Mo2 2.815610 1_565
Ge9 Mo22 3.083087 1_655
Ge10 Mo21 2.578631 1_555
Ge10 Mo24 2.618632 1_555
Ge10 Mo1 2.649764 1_555
Ge10 Mo15 2.755036 1_555
Ge10 Ge75 2.791986 1_545
Ge11 Mo40 2.558947 1_555
Ge11 Mo7 2.591972 1_555
Ge11 Mo8 2.677360 1_555
Ge11 Ge77 2.703042 1_545
Ge11 Ge6 2.791986 1_455
Ge11 Mo29 2.841834 1_555
Ge11 Ge51 2.907524 1_445
Ge11 Mo50 2.989629 1_555
Ge12 Mo23 2.537078 1_555
Ge12 Mo48 2.555402 1_655
Ge12 Ge21 2.668488 1_545
Ge12 Mo10 2.700778 1_555
Ge12 Ge70 2.703042 1_555
Ge12 Ge50 2.757183 1_545
Ge12 Mo43 2.793798 1_555
Ge12 Mo34 2.892752 1_655
Ge13 Mo22 2.543099 1_555
Ge13 Mo2 2.568295 1_565
Ge13 Ge83 2.672453 1_555
Ge13 Mo36 2.690488 1_555
Ge13 Ge78 2.723105 1_555
Ge13 Ge61 2.789449 1_555
Ge13 Mo16 2.838470 1_555
Ge13 Mo4 2.882736 1_565
Ge14 Mo7 2.602178 1_565
Ge14 Mo36 2.611915 1_555
Ge14 Mo0 2.662016 1_655
Ge14 Mo8 2.678575 1_665
Ge15 Mo39 2.584448 1_565
Ge15 Mo19 2.627724 1_555
Ge15 Mo13 2.638455 1_555
Ge15 Mo38 2.728349 1_565
Ge16 Mo16 2.565958 1_555
Ge16 Mo38 2.600706 1_555
Ge16 Mo19 2.670707 1_555
Ge16 Ge37 2.723105 1_455
Ge16 Mo39 2.815610 1_555
Ge16 Mo22 3.083087 1_555
Ge17 Mo20 2.550410 1_665
Ge17 Mo3 2.580427 1_555
Ge17 Mo28 2.684535 1_565
Ge17 Ge53 2.685205 1_555
Ge17 Ge76 2.753518 1_565
Ge17 Ge84 2.841390 1_565
Ge17 Mo27 2.864729 1_655
Ge17 Mo25 2.904973 1_565
Ge18 Mo43 2.572473 1_555
Ge18 Mo41 2.607819 1_555
Ge18 Mo49 2.660902 1_555
Ge18 Ge27 2.753518 1_555
Ge18 Mo42 2.785143 1_555
Ge19 Mo35 2.565958 1_555
Ge19 Mo14 2.600706 1_655
Ge19 Mo17 2.670707 1_555
Ge19 Ge40 2.723105 1_545
Ge19 Mo44 2.815610 1_655
Ge19 Mo18 3.083087 1_555
Ge20 Mo44 2.584448 1_555
Ge20 Mo17 2.627724 1_555
Ge20 Mo31 2.638455 1_555
Ge20 Mo14 2.728349 1_555
Ge21 Mo34 2.534903 1_655
Ge21 Mo43 2.544821 1_565
Ge21 Ge27 2.685205 1_655
Ge21 Mo42 2.712906 1_665
Ge21 Ge43 2.737032 1_665
Ge21 Mo48 2.757660 1_665
Ge21 Mo23 2.898700 1_555
Ge22 Mo44 2.584448 1_655
Ge22 Mo17 2.627724 1_565
Ge22 Mo31 2.638455 1_555
Ge22 Mo14 2.728349 1_665
Ge23 Mo9 2.565958 1_655
Ge23 Mo47 2.600706 1_555
Ge23 Mo1 2.670707 1_555
Ge23 Ge39 2.723105 1_555
Ge23 Mo11 2.815610 1_655
Ge23 Mo18 3.083087 1_555
Ge24 Mo2 2.584448 1_565
Ge24 Mo0 2.627724 1_555
Ge24 Mo8 2.638455 1_565
Ge24 Mo36 2.728349 1_555
Ge25 Mo12 2.602178 1_655
Ge25 Mo14 2.611915 1_655
Ge25 Mo17 2.662016 1_555
Ge25 Mo31 2.678575 1_555
Ge26 Mo32 2.591800 1_555
Ge26 Mo28 2.624204 1_556
Ge26 Mo37 2.644067 1_656
Ge26 Mo33 2.703976 1_655
Ge27 Mo23 2.550410 1_555
Ge27 Mo42 2.580427 1_565
Ge27 Mo41 2.684535 1_555
Ge27 Ge52 2.841390 1_455
Ge27 Mo43 2.864729 1_565
Ge27 Mo34 2.904973 1_555
Ge28 Mo5 2.591800 1_665
Ge28 Mo41 2.624204 1_655
Ge28 Mo49 2.644067 1_555
Ge28 Mo46 2.703976 1_565
Ge29 Mo48 2.578631 1_655
Ge29 Mo13 2.618632 1_555
Ge29 Mo19 2.649764 1_655
Ge29 Mo10 2.755036 1_555
Ge29 Ge80 2.791986 1_555
Ge30 Mo40 2.534903 1_655
Ge30 Mo30 2.544821 1_565
Ge30 Ge77 2.668488 1_555
Ge30 Ge58 2.685205 1_555
Ge30 Mo32 2.712906 1_555
Ge30 Ge67 2.737032 1_555
Ge30 Mo29 2.757660 1_555
Ge30 Mo50 2.898700 1_665
Ge31 Mo10 2.602178 1_565
Ge31 Mo38 2.611915 1_665
Ge31 Mo19 2.662016 1_655
Ge31 Mo13 2.678575 1_555
Ge32 Mo16 2.565958 1_555
Ge32 Mo38 2.600706 1_665
Ge32 Mo19 2.670707 1_655
Ge32 Ge59 2.723105 1_655
Ge32 Mo39 2.815610 1_565
Ge32 Mo22 3.083087 1_655
Ge33 Mo10 2.602178 1_555
Ge33 Mo38 2.611915 1_555
Ge33 Mo19 2.662016 1_555
Ge33 Mo13 2.678575 1_555
Ge34 Mo43 2.572473 1_565
Ge34 Mo41 2.607819 1_655
Ge34 Mo49 2.660902 1_555
Ge34 Ge52 2.753518 1_555
Ge34 Mo42 2.785143 1_665
Ge35 Mo30 2.572473 1_565
Ge35 Mo33 2.607819 1_655
Ge35 Mo37 2.660902 1_666
Ge35 Ge73 2.753518 1_655
Ge35 Mo32 2.785143 1_555
Ge36 Mo11 2.584448 1_555
Ge36 Mo1 2.627724 1_555
Ge36 Mo24 2.638455 1_555
Ge36 Mo47 2.728349 1_555
Ge37 Mo22 2.543099 1_655
Ge37 Mo39 2.568295 1_555
Ge37 Ge83 2.672453 1_545
Ge37 Mo38 2.690488 1_655
Ge37 Ge59 2.789449 1_645
Ge37 Mo4 2.838470 1_655
Ge37 Mo16 2.882736 1_555
Ge38 Mo35 2.537316 1_555
Ge38 Mo9 2.537316 1_565
Ge38 Ge39 2.672453 1_555
Ge38 Ge40 2.672453 1_455
Ge38 Ge86 2.728009 1_455
Ge38 Mo44 2.731720 1_555
Ge38 Mo11 2.731720 1_555
Ge38 Mo18 2.901789 1_565
Ge39 Mo18 2.543099 1_555
Ge39 Mo11 2.568295 1_555
Ge39 Mo47 2.690488 1_555
Ge39 Ge88 2.789449 1_555
Ge39 Mo35 2.838470 1_555
Ge39 Mo9 2.882736 1_555
Ge40 Mo18 2.543099 1_565
Ge40 Mo44 2.568295 1_655
Ge40 Mo14 2.690488 1_665
Ge40 Ge46 2.789449 1_665
Ge40 Mo9 2.838470 1_665
Ge40 Mo35 2.882736 1_555
Ge41 Mo6 2.550410 1_555
Ge41 Mo5 2.580427 1_665
Ge41 Mo46 2.684535 1_565
Ge41 Ge54 2.685205 1_565
Ge41 Ge47 2.753518 1_555
Ge41 Ge90 2.841390 1_565
Ge41 Mo26 2.864729 1_655
Ge41 Mo45 2.904973 1_565
Ge42 Mo3 2.591800 1_555
Ge42 Mo33 2.624204 1_554
Ge42 Mo37 2.644067 1_555
Ge42 Mo28 2.703976 1_555
Ge43 Mo34 2.534903 1_555
Ge43 Mo43 2.544821 1_555
Ge43 Ge50 2.668488 1_545
Ge43 Ge52 2.685205 1_455
Ge43 Mo42 2.712906 1_555
Ge43 Mo48 2.757660 1_555
Ge43 Mo23 2.898700 1_555
Ge44 Mo26 2.572473 1_655
Ge44 Mo46 2.607819 1_555
Ge44 Mo49 2.660902 1_555
Ge44 Ge90 2.753518 1_555
Ge44 Mo5 2.785143 1_655
Ge45 Mo32 2.591800 1_555
Ge45 Mo28 2.624204 1_566
Ge45 Mo37 2.644067 1_566
Ge45 Mo33 2.703976 1_555
Ge46 Mo18 2.543099 1_555
Ge46 Mo44 2.568295 1_555
Ge46 Ge86 2.672453 1_455
Ge46 Mo14 2.690488 1_555
Ge46 Ge82 2.723105 1_545
Ge46 Mo9 2.838470 1_555
Ge46 Mo35 2.882736 1_555
Ge47 Mo26 2.572473 1_555
Ge47 Mo46 2.607819 1_565
Ge47 Mo49 2.660902 1_555
Ge47 Mo5 2.785143 1_565
Ge48 Mo50 2.537078 1_655
Ge48 Mo29 2.555402 1_555
Ge48 Ge67 2.668488 1_555
Ge48 Mo7 2.700778 1_555
Ge48 Ge51 2.703042 1_545
Ge48 Ge77 2.757183 1_545
Ge48 Mo30 2.793798 1_555
Ge48 Mo40 2.892752 1_655
Ge49 Mo42 2.591800 1_655
Ge49 Mo46 2.624204 1_555
Ge49 Mo49 2.644067 1_555
Ge49 Mo41 2.703976 1_655
Ge50 Mo23 2.537078 1_555
Ge50 Mo48 2.555402 1_565
Ge50 Mo10 2.700778 1_565
Ge50 Ge80 2.703042 1_555
Ge50 Mo43 2.793798 1_565
Ge50 Mo34 2.892752 1_555
Ge51 Mo40 2.558947 1_655
Ge51 Mo7 2.591972 1_565
Ge51 Mo8 2.677360 1_665
Ge51 Ge65 2.791986 1_655
Ge51 Mo29 2.841834 1_555
Ge51 Mo50 2.989629 1_665
Ge52 Mo23 2.550410 1_555
Ge52 Mo42 2.580427 1_655
Ge52 Mo41 2.684535 1_655
Ge52 Mo43 2.864729 1_555
Ge52 Mo34 2.904973 1_655
Ge53 Mo25 2.534903 1_565
Ge53 Mo27 2.544821 1_555
Ge53 Ge60 2.668488 1_555
Ge53 Mo3 2.712906 1_555
Ge53 Ge85 2.737032 1_555
Ge53 Mo21 2.757660 1_555
Ge53 Mo20 2.898700 1_565
Ge54 Mo45 2.534903 1_555
Ge54 Mo26 2.544821 1_655
Ge54 Ge63 2.668488 1_655
Ge54 Mo5 2.712906 1_655
Ge54 Mo51 2.757660 1_655
Ge54 Mo6 2.898700 1_555
Ge55 Mo5 2.591800 1_555
Ge55 Mo41 2.624204 1_555
Ge55 Mo49 2.644067 1_555
Ge55 Mo46 2.703976 1_555
Ge56 Mo15 2.602178 1_555
Ge56 Mo47 2.611915 1_555
Ge56 Mo1 2.662016 1_565
Ge56 Mo24 2.678575 1_565
Ge57 Mo15 2.602178 1_655
Ge57 Mo47 2.611915 1_555
Ge57 Mo1 2.662016 1_555
Ge57 Mo24 2.678575 1_655
Ge58 Mo50 2.550410 1_655
Ge58 Mo32 2.580427 1_555
Ge58 Mo33 2.684535 1_655
Ge58 Ge73 2.841390 1_655
Ge58 Mo30 2.864729 1_555
Ge58 Mo40 2.904973 1_655
Ge59 Mo22 2.543099 1_555
Ge59 Mo39 2.568295 1_565
Ge59 Ge69 2.672453 1_565
Ge59 Mo38 2.690488 1_565
Ge59 Mo4 2.838470 1_565
Ge59 Mo16 2.882736 1_555
Ge60 Mo20 2.537078 1_555
Ge60 Mo21 2.555402 1_555
Ge60 Mo15 2.700778 1_555
Ge60 Ge87 2.757183 1_455
Ge60 Mo27 2.793798 1_555
Ge60 Mo25 2.892752 1_555
Ge61 Mo22 2.543099 1_655
Ge61 Mo2 2.568295 1_555
Ge61 Ge69 2.672453 1_555
Ge61 Mo36 2.690488 1_555
Ge61 Ge9 2.723105 1_555
Ge61 Mo16 2.838470 1_555
Ge61 Mo4 2.882736 1_655
Ge62 Mo2 2.584448 1_555
Ge62 Mo0 2.627724 1_655
Ge62 Mo8 2.638455 1_655
Ge62 Mo36 2.728349 1_555
Ge63 Mo6 2.537078 1_555
Ge63 Mo51 2.555402 1_555
Ge63 Mo12 2.700778 1_555
Ge63 Ge74 2.703042 1_555
Ge63 Mo26 2.793798 1_555
Ge63 Mo45 2.892752 1_555
Ge64 Mo51 2.578631 1_665
Ge64 Mo31 2.618632 1_555
Ge64 Mo17 2.649764 1_565
Ge64 Mo12 2.755036 1_655
Ge64 Ge74 2.791986 1_555
Ge65 Mo29 2.578631 1_555
Ge65 Mo8 2.618632 1_565
Ge65 Mo0 2.649764 1_555
Ge65 Mo7 2.755036 1_565
Ge66 Mo9 2.565958 1_565
Ge66 Mo47 2.600706 1_555
Ge66 Mo1 2.670707 1_565
Ge66 Ge88 2.723105 1_555
Ge66 Mo11 2.815610 1_555
Ge66 Mo18 3.083087 1_565
Ge67 Mo40 2.534903 1_555
Ge67 Mo30 2.544821 1_555
Ge67 Ge73 2.685205 1_555
Ge67 Mo32 2.712906 1_555
Ge67 Mo29 2.757660 1_555
Ge67 Mo50 2.898700 1_555
Ge68 Mo3 2.591800 1_555
Ge68 Mo33 2.624204 1_654
Ge68 Mo37 2.644067 1_665
Ge68 Mo28 2.703976 1_565
Ge69 Mo4 2.537316 1_555
Ge69 Mo16 2.537316 1_555
Ge69 Ge83 2.728009 1_545
Ge69 Mo2 2.731720 1_555
Ge69 Mo39 2.731720 1_555
Ge69 Mo22 2.901789 1_555
Ge70 Mo34 2.558947 1_555
Ge70 Mo10 2.591972 1_555
Ge70 Mo13 2.677360 1_555
Ge70 Ge79 2.791986 1_555
Ge70 Mo48 2.841834 1_555
Ge70 Ge80 2.907524 1_555
Ge70 Mo23 2.989629 1_555
Ge71 Mo42 2.591800 1_565
Ge71 Mo46 2.624204 1_565
Ge71 Mo49 2.644067 1_555
Ge71 Mo41 2.703976 1_555
Ge72 Mo45 2.558947 1_555
Ge72 Mo12 2.591972 1_655
Ge72 Mo31 2.677360 1_555
Ge72 Mo51 2.841834 1_655
Ge72 Ge74 2.907524 1_555
Ge72 Mo6 2.989629 1_555
Ge73 Mo50 2.550410 1_565
Ge73 Mo32 2.580427 1_555
Ge73 Mo33 2.684535 1_555
Ge73 Mo30 2.864729 1_565
Ge73 Mo40 2.904973 1_555
Ge74 Mo45 2.558947 1_565
Ge74 Mo12 2.591972 1_555
Ge74 Mo31 2.677360 1_555
Ge74 Mo51 2.841834 1_565
Ge74 Mo6 2.989629 1_555
Ge75 Mo25 2.558947 1_565
Ge75 Mo15 2.591972 1_555
Ge75 Mo24 2.677360 1_565
Ge75 Ge87 2.703042 1_455
Ge75 Mo21 2.841834 1_555
Ge75 Mo20 2.989629 1_565
Ge76 Mo27 2.572473 1_655
Ge76 Mo28 2.607819 1_555
Ge76 Mo37 2.660902 1_655
Ge76 Mo3 2.785143 1_555
Ge77 Mo50 2.537078 1_565
Ge77 Mo29 2.555402 1_555
Ge77 Mo7 2.700778 1_565
Ge77 Mo30 2.793798 1_565
Ge77 Mo40 2.892752 1_555
Ge78 Mo4 2.565958 1_555
Ge78 Mo36 2.600706 1_555
Ge78 Mo0 2.670707 1_555
Ge78 Mo2 2.815610 1_555
Ge78 Mo22 3.083087 1_555
Ge79 Mo48 2.578631 1_565
Ge79 Mo13 2.618632 1_555
Ge79 Mo19 2.649764 1_555
Ge79 Mo10 2.755036 1_565
Ge80 Mo34 2.558947 1_655
Ge80 Mo10 2.591972 1_565
Ge80 Mo13 2.677360 1_555
Ge80 Mo48 2.841834 1_665
Ge80 Mo23 2.989629 1_555
Ge81 Mo39 2.584448 1_555
Ge81 Mo19 2.627724 1_655
Ge81 Mo13 2.638455 1_555
Ge81 Mo38 2.728349 1_655
Ge82 Mo35 2.565958 1_555
Ge82 Mo14 2.600706 1_565
Ge82 Mo17 2.670707 1_565
Ge82 Mo44 2.815610 1_555
Ge82 Mo18 3.083087 1_565
Ge83 Mo4 2.537316 1_665
Ge83 Mo16 2.537316 1_555
Ge83 Mo39 2.731720 1_565
Ge83 Mo2 2.731720 1_565
Ge83 Mo22 2.901789 1_655
Ge84 Mo20 2.550410 1_555
Ge84 Mo3 2.580427 1_555
Ge84 Mo28 2.684535 1_555
Ge84 Ge85 2.685205 1_555
Ge84 Ge91 2.753518 1_545
Ge84 Mo27 2.864729 1_555
Ge84 Mo25 2.904973 1_555
Ge85 Mo25 2.534903 1_555
Ge85 Mo27 2.544821 1_655
Ge85 Ge87 2.668488 1_555
Ge85 Mo3 2.712906 1_555
Ge85 Mo21 2.757660 1_555
Ge85 Mo20 2.898700 1_655
Ge86 Mo35 2.537316 1_555
Ge86 Mo9 2.537316 1_655
Ge86 Ge88 2.672453 1_555
Ge86 Mo44 2.731720 1_655
Ge86 Mo11 2.731720 1_655
Ge86 Mo18 2.901789 1_555
Ge87 Mo20 2.537078 1_665
Ge87 Mo21 2.555402 1_555
Ge87 Mo15 2.700778 1_655
Ge87 Mo27 2.793798 1_655
Ge87 Mo25 2.892752 1_565
Ge88 Mo18 2.543099 1_565
Ge88 Mo11 2.568295 1_655
Ge88 Mo47 2.690488 1_555
Ge88 Mo35 2.838470 1_555
Ge88 Mo9 2.882736 1_665
Ge89 Mo21 2.578631 1_555
Ge89 Mo24 2.618632 1_665
Ge89 Mo1 2.649764 1_565
Ge89 Mo15 2.755036 1_655
Ge90 Mo6 2.550410 1_555
Ge90 Mo5 2.580427 1_555
Ge90 Mo46 2.684535 1_555
Ge90 Mo26 2.864729 1_555
Ge90 Mo45 2.904973 1_555
Ge91 Mo27 2.572473 1_555
Ge91 Mo28 2.607819 1_565
Ge91 Mo37 2.660902 1_565
Ge91 Mo3 2.785143 1_555
