# generated using pymatgen
data_Na2S2O3
_symmetry_space_group_name_H-M   'P 1'
_cell_length_a   8.07325925
_cell_length_b   10.80937417
_cell_length_c   16.08266765
_cell_angle_alpha   90.00000000
_cell_angle_beta   90.00000000
_cell_angle_gamma   90.00000000
_symmetry_Int_Tables_number   1
_chemical_formula_structural   Na2S2O3
_chemical_formula_sum   'Na24 S24 O36'
_cell_volume   1403.48422797
_cell_formula_units_Z   12
loop_
 _symmetry_equiv_pos_site_id
 _symmetry_equiv_pos_as_xyz
  1  'x, y, z'
loop_
 _atom_site_type_symbol
 _atom_site_label
 _atom_site_symmetry_multiplicity
 _atom_site_fract_x
 _atom_site_fract_y
 _atom_site_fract_z
 _atom_site_occupancy
  Na  Na0  1  0.70259571  0.98540734  0.87866678  1
  Na  Na1  1  0.78865032  0.45564256  0.86325496  1
  Na  Na2  1  0.94479270  0.75193797  0.01592328  1
  Na  Na3  1  0.78865032  0.95564256  0.63674504  1
  Na  Na4  1  0.95163521  0.74997007  0.45487881  1
  Na  Na5  1  0.58463010  0.25908404  0.23361084  1
  Na  Na6  1  0.95163521  0.24997007  0.04512119  1
  Na  Na7  1  0.94479270  0.25193797  0.48407672  1
  Na  Na8  1  0.28865032  0.04435744  0.36325496  1
  Na  Na9  1  0.08463010  0.74091596  0.76638916  1
  Na  Na10  1  0.08463010  0.24091596  0.73361084  1
  Na  Na11  1  0.88152381  0.48653795  0.24960551  1
  Na  Na12  1  0.20259571  0.51459266  0.37866678  1
  Na  Na13  1  0.28865032  0.54435744  0.13674504  1
  Na  Na14  1  0.20259571  0.01459266  0.12133322  1
  Na  Na15  1  0.45163521  0.75002993  0.95487881  1
  Na  Na16  1  0.38152381  0.01346205  0.74960551  1
  Na  Na17  1  0.38152381  0.51346205  0.75039449  1
  Na  Na18  1  0.45163521  0.25002993  0.54512119  1
  Na  Na19  1  0.44479270  0.74806203  0.51592328  1
  Na  Na20  1  0.70259571  0.48540734  0.62133322  1
  Na  Na21  1  0.44479270  0.24806203  0.98407672  1
  Na  Na22  1  0.58463010  0.75908404  0.26638916  1
  Na  Na23  1  0.88152381  0.98653795  0.25039449  1
  S  S0  1  0.66178000  0.22125510  0.73914538  1
  S  S1  1  0.16178000  0.27874490  0.23914538  1
  S  S2  1  0.23176838  0.98490684  0.93355923  1
  S  S3  1  0.63556576  0.12605434  0.41120467  1
  S  S4  1  0.06646224  0.99436538  0.83872384  1
  S  S5  1  0.45640040  0.27470377  0.80312702  1
  S  S6  1  0.06646224  0.49436538  0.66127616  1
  S  S7  1  0.95640040  0.22529623  0.30312702  1
  S  S8  1  0.73176838  0.51509316  0.43355923  1
  S  S9  1  0.16178000  0.77874490  0.26085462  1
  S  S10  1  0.66178000  0.72125510  0.76085462  1
  S  S11  1  0.64714617  0.44050698  0.07746703  1
  S  S12  1  0.73176838  0.01509316  0.06644077  1
  S  S13  1  0.23176838  0.48490684  0.56644077  1
  S  S14  1  0.45640040  0.77470377  0.69687298  1
  S  S15  1  0.64714617  0.94050698  0.42253297  1
  S  S16  1  0.13556576  0.87394566  0.58879533  1
  S  S17  1  0.56646224  0.00563462  0.16127616  1
  S  S18  1  0.14714617  0.05949302  0.57746703  1
  S  S19  1  0.13556576  0.37394566  0.91120467  1
  S  S20  1  0.95640040  0.72529623  0.19687298  1
  S  S21  1  0.56646224  0.50563462  0.33872384  1
  S  S22  1  0.63556576  0.62605434  0.08879533  1
  S  S23  1  0.14714617  0.55949302  0.92253297  1
  O  O0  1  0.81004292  0.77465151  0.71942763  1
  O  O1  1  0.22510842  0.60075703  0.51649266  1
  O  O2  1  0.15161289  0.23567294  0.15176449  1
  O  O3  1  0.98726739  0.11461055  0.60704138  1
  O  O4  1  0.66809942  0.08218046  0.74255286  1
  O  O5  1  0.67473286  0.40586405  0.98930007  1
  O  O6  1  0.67473286  0.90586405  0.51069993  1
  O  O7  1  0.66809942  0.58218046  0.75744714  1
  O  O8  1  0.28442230  0.60938424  0.86976387  1
  O  O9  1  0.17473286  0.09413595  0.48930007  1
  O  O10  1  0.31004292  0.72534849  0.21942763  1
  O  O11  1  0.48726739  0.38538945  0.10704138  1
  O  O12  1  0.28442230  0.10938424  0.63023613  1
  O  O13  1  0.89909795  0.53311687  0.39625964  1
  O  O14  1  0.89909795  0.03311687  0.10374036  1
  O  O15  1  0.78442230  0.39061576  0.13023613  1
  O  O16  1  0.17473286  0.59413595  0.01069993  1
  O  O17  1  0.16809942  0.41781954  0.24255286  1
  O  O18  1  0.69256505  0.12271929  0.01168008  1
  O  O19  1  0.69256505  0.62271929  0.48831992  1
  O  O20  1  0.72510842  0.39924297  0.48350734  1
  O  O21  1  0.15161289  0.73567294  0.34823551  1
  O  O22  1  0.31004292  0.22534849  0.28057237  1
  O  O23  1  0.72510842  0.89924297  0.01649266  1
  O  O24  1  0.19256505  0.37728071  0.51168008  1
  O  O25  1  0.39909795  0.46688313  0.60374036  1
  O  O26  1  0.16809942  0.91781954  0.25744714  1
  O  O27  1  0.65161289  0.76432706  0.84823551  1
  O  O28  1  0.19256505  0.87728071  0.98831992  1
  O  O29  1  0.22510842  0.10075703  0.98350734  1
  O  O30  1  0.39909795  0.96688313  0.89625964  1
  O  O31  1  0.65161289  0.26432706  0.65176449  1
  O  O32  1  0.48726739  0.88538945  0.39295862  1
  O  O33  1  0.78442230  0.89061576  0.36976387  1
  O  O34  1  0.98726739  0.61461055  0.89295862  1
  O  O35  1  0.81004292  0.27465151  0.78057237  1
loop_
_geom_bond_atom_site_label_1
_geom_bond_atom_site_label_2
_geom_bond_distance
_geom_bond_site_symmetry_2
Na0 O23 2.411194 1_556
Na0 O4 2.442098 1_565
Na0 O27 2.473822 1_555
Na0 O30 2.474613 1_555
Na0 O18 2.604955 1_566
Na0 S4 3.008566 1_655
Na1 O5 2.290120 1_555
Na1 O35 2.371831 1_555
Na1 O7 2.390344 1_555
Na1 O34 2.398351 1_555
Na1 S19 3.036227 1_655
Na2 O23 2.383478 1_555
Na2 O28 2.456439 1_654
Na2 O34 2.496398 1_554
Na2 O16 2.522441 1_655
Na2 S20 2.925869 1_555
Na2 S22 3.075298 1_555
Na3 O6 2.290120 1_555
Na3 O0 2.371831 1_555
Na3 O4 2.390344 1_565
Na3 O3 2.398351 1_565
Na3 S16 3.036227 1_655
Na4 O21 2.360508 1_655
Na4 O33 2.451016 1_555
Na4 O19 2.560429 1_555
Na4 O13 2.561882 1_555
Na4 O1 2.908234 1_655
Na4 S16 2.939289 1_655
Na4 O6 2.939908 1_555
Na5 O22 2.370162 1_555
Na5 O11 2.573987 1_555
Na5 O15 2.717936 1_555
Na5 S17 2.980005 1_555
Na5 S21 3.159403 1_555
Na5 S7 3.223618 1_555
Na5 S3 3.224070 1_555
Na6 O2 2.360508 1_655
Na6 O15 2.451016 1_555
Na6 O18 2.560429 1_555
Na6 O14 2.561882 1_555
Na6 O29 2.908234 1_654
Na6 S19 2.939289 1_654
Na6 O5 2.939908 1_554
Na7 O20 2.383478 1_555
Na7 O24 2.456439 1_655
Na7 O3 2.496398 1_555
Na7 O9 2.522441 1_655
Na7 S7 2.925869 1_555
Na7 S3 3.075298 1_555
Na8 O9 2.290120 1_555
Na8 O22 2.371831 1_555
Na8 O26 2.390344 1_545
Na8 O32 2.398351 1_545
Na8 S3 3.036227 1_555
Na9 O0 2.370162 1_455
Na9 O34 2.573987 1_455
Na9 O8 2.717936 1_555
Na9 S4 2.980005 1_555
Na9 S6 3.159403 1_555
Na9 S14 3.223618 1_555
Na9 S16 3.224070 1_555
Na10 O35 2.370162 1_455
Na10 O3 2.573987 1_455
Na10 O12 2.717936 1_555
Na10 S6 2.980005 1_555
Na10 S4 3.159403 1_545
Na10 S5 3.223618 1_555
Na10 S19 3.224070 1_555
Na11 O15 2.318440 1_555
Na11 O13 2.415901 1_555
Na11 O17 2.432563 1_655
Na11 S20 2.783043 1_555
Na11 S21 2.926878 1_555
Na11 S7 3.013391 1_555
Na12 O1 2.411194 1_555
Na12 O17 2.442098 1_555
Na12 O21 2.473822 1_555
Na12 O13 2.474613 1_455
Na12 O24 2.604955 1_555
Na12 S21 3.008566 1_555
Na13 O16 2.290120 1_555
Na13 O10 2.371831 1_555
Na13 O17 2.390344 1_555
Na13 O11 2.398351 1_555
Na13 S22 3.036227 1_555
Na14 O29 2.411194 1_554
Na14 O26 2.442098 1_545
Na14 O2 2.473822 1_555
Na14 O14 2.474613 1_455
Na14 O28 2.604955 1_544
Na14 S17 3.008566 1_555
Na15 O27 2.360508 1_555
Na15 O8 2.451016 1_555
Na15 O28 2.560429 1_555
Na15 O30 2.561882 1_555
Na15 O23 2.908234 1_556
Na15 S22 2.939289 1_556
Na15 O16 2.939908 1_556
Na16 O12 2.318440 1_555
Na16 O30 2.415901 1_545
Na16 O4 2.432563 1_555
Na16 S14 2.783043 1_545
Na16 S4 2.926878 1_545
Na16 S5 3.013391 1_555
Na17 O8 2.318440 1_555
Na17 O25 2.415901 1_555
Na17 O7 2.432563 1_555
Na17 S5 2.783043 1_555
Na17 S6 2.926878 1_555
Na17 S14 3.013391 1_555
Na18 O31 2.360508 1_555
Na18 O12 2.451016 1_555
Na18 O24 2.560429 1_555
Na18 O25 2.561882 1_555
Na18 O20 2.908234 1_555
Na18 S3 2.939289 1_555
Na18 O9 2.939908 1_555
Na19 O1 2.383478 1_555
Na19 O19 2.456439 1_555
Na19 O32 2.496398 1_555
Na19 O6 2.522441 1_555
Na19 S14 2.925869 1_555
Na19 S16 3.075298 1_555
Na20 O20 2.411194 1_555
Na20 O7 2.442098 1_555
Na20 O31 2.473822 1_555
Na20 O25 2.474613 1_555
Na20 O19 2.604955 1_555
Na20 S6 3.008566 1_655
Na21 O29 2.383478 1_555
Na21 O18 2.456439 1_556
Na21 O11 2.496398 1_556
Na21 O5 2.522441 1_555
Na21 S5 2.925869 1_555
Na21 S19 3.075298 1_555
Na22 O10 2.370162 1_555
Na22 O32 2.573987 1_555
Na22 O33 2.717936 1_555
Na22 S21 2.980005 1_555
Na22 S17 3.159403 1_565
Na22 S20 3.223618 1_555
Na22 S22 3.224070 1_555
Na23 O33 2.318440 1_555
Na23 O14 2.415901 1_565
Na23 O26 2.432563 1_655
Na23 S7 2.783043 1_565
Na23 S17 2.926878 1_565
Na23 S20 3.013391 1_555
S0 S5 2.035156 1_555
S1 S7 2.035156 1_455
S2 S4 2.029225 1_555
S10 S14 2.035156 1_555
S11 S22 2.016078 1_555
S12 S17 2.029225 1_555
S13 S6 2.029225 1_555
S15 S3 2.016078 1_565
S16 S18 2.016078 1_565
S19 S23 2.016078 1_555
S20 S9 2.035156 1_655
S21 S8 2.029225 1_555
O0 S10 1.486527 1_555
O1 S13 1.488743 1_555
O2 S1 1.482707 1_555
O3 S18 1.499068 1_655
O4 S0 1.505173 1_555
O5 S11 1.483388 1_556
O6 S15 1.483388 1_555
O7 S10 1.505173 1_555
O8 S23 1.496438 1_555
O9 S18 1.483388 1_555
O10 S9 1.486527 1_555
O11 S11 1.499068 1_555
O12 S18 1.496438 1_555
O13 S8 1.490881 1_555
O14 S12 1.490881 1_555
O15 S11 1.496438 1_555
O16 S23 1.483388 1_554
O17 S1 1.505173 1_555
O18 S12 1.493062 1_555
O19 S8 1.493062 1_555
O20 S8 1.488743 1_555
O21 S9 1.482707 1_555
O22 S1 1.486527 1_555
O23 S12 1.488743 1_565
O24 S13 1.493062 1_555
O25 S13 1.490881 1_555
O26 S9 1.505173 1_555
O27 S10 1.482707 1_555
O28 S2 1.493062 1_555
O29 S2 1.488743 1_545
O30 S2 1.490881 1_555
O31 S0 1.482707 1_555
O32 S15 1.499068 1_555
O33 S15 1.496438 1_555
O34 S23 1.499068 1_655
O35 S0 1.486527 1_555
