# generated using pymatgen
data_Li16(CoO4)3
_symmetry_space_group_name_H-M   'P 1'
_cell_length_a   6.53781100
_cell_length_b   6.54618122
_cell_length_c   14.02860709
_cell_angle_alpha   90.11377730
_cell_angle_beta   90.01185238
_cell_angle_gamma   91.18804251
_symmetry_Int_Tables_number   1
_chemical_formula_structural   Li16(CoO4)3
_chemical_formula_sum   'Li32 Co6 O24'
_cell_volume   600.26178871
_cell_formula_units_Z   2
loop_
 _symmetry_equiv_pos_site_id
 _symmetry_equiv_pos_as_xyz
  1  'x, y, z'
loop_
 _atom_site_type_symbol
 _atom_site_label
 _atom_site_symmetry_multiplicity
 _atom_site_fract_x
 _atom_site_fract_y
 _atom_site_fract_z
 _atom_site_occupancy
  Li  Li0  1  0.46438400  0.02902900  0.58816700  1
  Li  Li1  1  0.04571400  0.03721500  0.25914300  1
  Li  Li2  1  0.04412800  0.03878400  0.91505800  1
  Li  Li3  1  0.72890800  0.22186800  0.22867600  1
  Li  Li4  1  0.76874900  0.22903500  0.56728400  1
  Li  Li5  1  0.77869000  0.27303200  0.06189800  1
  Li  Li6  1  0.72929600  0.22503000  0.89590800  1
  Li  Li7  1  0.74822100  0.25013800  0.39564200  1
  Li  Li8  1  0.74812200  0.25067500  0.73098900  1
  Li  Li9  1  0.46246500  0.45533200  0.24601100  1
  Li  Li10  1  0.47357200  0.47586900  0.58341600  1
  Li  Li11  1  0.46316200  0.45338700  0.91089200  1
  Li  Li12  1  0.02508500  0.47694900  0.23906000  1
  Li  Li13  1  0.03053500  0.46737700  0.58116700  1
  Li  Li14  1  0.02222900  0.47384000  0.92517600  1
  Li  Li15  1  0.96683600  0.52734200  0.75162500  1
  Li  Li16  1  0.54472100  0.53574800  0.07671600  1
  Li  Li17  1  0.53826400  0.53173800  0.74594100  1
  Li  Li18  1  0.96564800  0.53426400  0.41011100  1
  Li  Li19  1  0.53627800  0.53807300  0.41694000  1
  Li  Li20  1  0.24665400  0.74269000  0.43774400  1
  Li  Li21  1  0.22626200  0.72250500  0.10402200  1
  Li  Li22  1  0.27587200  0.77277900  0.27098300  1
  Li  Li23  1  0.22739000  0.76868000  0.60130900  1
  Li  Li24  1  0.25229900  0.74403900  0.76988700  1
  Li  Li25  1  0.27541300  0.77185300  0.93722500  1
  Li  Li26  1  0.96445400  0.95605700  0.08921000  1
  Li  Li27  1  0.97169800  0.96769900  0.43380400  1
  Li  Li28  1  0.52155400  0.97965100  0.08225200  1
  Li  Li29  1  0.52318000  0.96795000  0.40972600  1
  Li  Li30  1  0.97283800  0.97417900  0.73574400  1
  Li  Li31  1  0.52446300  0.97904000  0.76305300  1
  Co  Co0  1  0.24546800  0.25407900  0.08276100  1
  Co  Co1  1  0.24944400  0.25153000  0.74942500  1
  Co  Co2  1  0.24771200  0.25311400  0.41730300  1
  Co  Co3  1  0.74340700  0.75738200  0.24856400  1
  Co  Co4  1  0.75616100  0.75764300  0.58433700  1
  Co  Co5  1  0.74574900  0.75535500  0.91740300  1
  O  O0  1  0.76248100  0.99906400  0.32234800  1
  O  O1  1  0.73000600  0.00794200  0.65881400  1
  O  O2  1  0.76622900  0.99904700  0.98897600  1
  O  O3  1  0.99924800  0.23598800  0.15569100  1
  O  O4  1  0.98699400  0.26570900  0.47502900  1
  O  O5  1  0.98706800  0.25303500  0.82158400  1
  O  O6  1  0.51183400  0.26435600  0.13843400  1
  O  O7  1  0.51016900  0.25379700  0.48235200  1
  O  O8  1  0.51168700  0.26456900  0.81158900  1
  O  O9  1  0.75474100  0.48476300  0.65169400  1
  O  O10  1  0.74267500  0.49078900  0.31150200  1
  O  O11  1  0.73894600  0.49301500  0.97429100  1
  O  O12  1  0.26188300  0.49998000  0.01255200  1
  O  O13  1  0.24687700  0.51482600  0.68007400  1
  O  O14  1  0.25383300  0.50753100  0.34347300  1
  O  O15  1  0.00663900  0.72797100  0.50944400  1
  O  O16  1  0.00893500  0.76332700  0.19446700  1
  O  O17  1  0.00915100  0.75325800  0.85304000  1
  O  O18  1  0.48751400  0.75259400  0.51147700  1
  O  O19  1  0.50167700  0.73563700  0.17785200  1
  O  O20  1  0.49961900  0.73498500  0.84793800  1
  O  O21  1  0.23489600  0.98801100  0.02794400  1
  O  O22  1  0.24105500  0.98999300  0.35982200  1
  O  O23  1  0.25866100  0.98300500  0.69170700  1
loop_
_geom_bond_atom_site_label_1
_geom_bond_atom_site_label_2
_geom_bond_distance
_geom_bond_site_symmetry_2
Li0 O23 1.998825 1_545
Li0 O1 2.006688 1_555
Li0 O7 2.109190 1_555
Li0 O18 2.111549 1_545
Li1 O22 1.933583 1_545
Li1 O3 1.978727 1_455
Li1 O16 2.017715 1_545
Li1 O0 2.063936 1_445
Li2 O5 1.963307 1_455
Li2 O21 2.047522 1_546
Li2 O17 2.068460 1_545
Li2 O2 2.103846 1_445
Li3 O6 1.926437 1_555
Li3 O0 1.980666 1_545
Li3 O3 2.043290 1_555
Li3 O10 2.107719 1_555
Li4 O4 1.938116 1_555
Li4 O1 1.949345 1_555
Li4 O9 2.052207 1_555
Li4 O7 2.077292 1_555
Li5 O11 1.916800 1_554
Li5 O3 1.970874 1_555
Li5 O6 2.048602 1_555
Li5 O2 2.063156 1_544
Li6 O8 1.872437 1_555
Li6 O5 1.987346 1_555
Li6 O2 1.993411 1_545
Li6 O11 2.068411 1_555
Li7 O4 1.918283 1_555
Li7 O0 1.940860 1_545
Li7 O10 1.971301 1_555
Li7 O7 1.976020 1_555
Li8 O1 1.884094 1_555
Li8 O9 1.895136 1_555
Li8 O8 1.918934 1_555
Li8 O5 2.013454 1_555
Li9 O14 1.965930 1_555
Li9 O6 1.988486 1_555
Li9 O10 2.057881 1_555
Li9 O19 2.081950 1_555
Li10 O13 2.028652 1_555
Li10 O7 2.046230 1_555
Li10 O9 2.072332 1_555
Li10 O18 2.075754 1_555
Li11 O8 1.891750 1_555
Li11 O12 1.968318 1_556
Li11 O11 2.021941 1_555
Li11 O20 2.055043 1_555
Li12 O3 1.966224 1_455
Li12 O16 1.982364 1_555
Li12 O14 2.099451 1_555
Li12 O10 2.111237 1_455
Li13 O15 1.991149 1_555
Li13 O13 2.000376 1_555
Li13 O4 2.004321 1_455
Li13 O9 2.061986 1_455
Li14 O11 1.982527 1_455
Li14 O12 1.993473 1_556
Li14 O5 2.057132 1_455
Li14 O17 2.095441 1_555
Li15 O9 1.986800 1_555
Li15 O5 2.054726 1_555
Li15 O17 2.064525 1_655
Li15 O13 2.091156 1_655
Li16 O11 1.941436 1_554
Li16 O19 1.952547 1_555
Li16 O6 1.985562 1_555
Li16 O12 2.065164 1_555
Li17 O9 1.965424 1_555
Li17 O20 1.971795 1_555
Li17 O8 1.982670 1_555
Li17 O13 2.117863 1_555
Li18 O15 1.897455 1_655
Li18 O4 1.988956 1_555
Li18 O10 2.024868 1_555
Li18 O14 2.113795 1_655
Li19 O18 1.960584 1_555
Li19 O10 2.029989 1_555
Li19 O7 2.080362 1_555
Li19 O14 2.120166 1_555
Li20 O15 1.864964 1_555
Li20 O18 1.883779 1_555
Li20 O22 1.956160 1_555
Li20 O14 2.028757 1_555
Li21 O16 1.927498 1_555
Li21 O12 1.956921 1_555
Li21 O21 2.041174 1_555
Li21 O19 2.077207 1_555
Li22 O22 1.906151 1_555
Li22 O19 1.989937 1_555
Li22 O14 2.016573 1_555
Li22 O16 2.048461 1_555
Li23 O23 1.897206 1_555
Li23 O15 1.948509 1_555
Li23 O13 2.003667 1_555
Li23 O18 2.121133 1_555
Li24 O23 1.912020 1_555
Li24 O20 1.954581 1_555
Li24 O13 1.957144 1_555
Li24 O17 1.973799 1_555
Li25 O21 1.923699 1_556
Li25 O20 1.946800 1_555
Li25 O12 2.071938 1_556
Li25 O17 2.104673 1_555
Li26 O2 1.936978 1_554
Li26 O16 1.969550 1_655
Li26 O21 1.973483 1_655
Li26 O3 2.062856 1_565
Li27 O15 1.913703 1_655
Li27 O4 2.034109 1_565
Li27 O22 2.047022 1_655
Li27 O0 2.090427 1_555
Li28 O6 2.024306 1_565
Li28 O21 2.024740 1_555
Li28 O2 2.068895 1_554
Li28 O19 2.089751 1_555
Li29 O22 1.980896 1_555
Li29 O0 1.995068 1_555
Li29 O18 2.018374 1_555
Li29 O7 2.132077 1_565
Li30 O1 1.936181 1_565
Li30 O23 1.967996 1_655
Li30 O5 2.185225 1_565
Li30 O17 2.208850 1_655
Li31 O8 1.991397 1_565
Li31 O1 1.992830 1_565
Li31 O20 1.998430 1_555
Li31 O23 2.005871 1_555
Co0 O12 1.889964 1_555
Co0 O21 1.902481 1_545
Co0 O6 1.908279 1_555
Co0 O3 1.909265 1_455
Co1 O8 1.923619 1_555
Co1 O23 1.935954 1_545
Co1 O13 1.981263 1_555
Co1 O5 1.992156 1_455
Co2 O4 1.890539 1_455
Co2 O22 1.900077 1_545
Co2 O7 1.943212 1_555
Co2 O14 1.962703 1_555
Co3 O19 1.868525 1_555
Co3 O0 1.890830 1_555
Co3 O16 1.894442 1_655
Co3 O10 1.957287 1_555
Co4 O1 1.952037 1_565
Co4 O15 1.958656 1_655
Co4 O9 2.022359 1_555
Co4 O18 2.031590 1_555
Co5 O20 1.883277 1_555
Co5 O2 1.885640 1_555
Co5 O11 1.894828 1_555
Co5 O17 1.944882 1_655
