# generated using pymatgen
data_Ce(GeRh)2
_symmetry_space_group_name_H-M   'P 1'
_cell_length_a   4.17360652
_cell_length_b   4.17360748
_cell_length_c   6.00263778
_cell_angle_alpha   110.34350572
_cell_angle_beta   110.34351208
_cell_angle_gamma   89.99999888
_symmetry_Int_Tables_number   1
_chemical_formula_structural   Ce(GeRh)2
_chemical_formula_sum   'Ce1 Ge2 Rh2'
_cell_volume   91.05014401
_cell_formula_units_Z   1
loop_
 _symmetry_equiv_pos_site_id
 _symmetry_equiv_pos_as_xyz
  1  'x, y, z'
loop_
 _atom_site_type_symbol
 _atom_site_label
 _atom_site_symmetry_multiplicity
 _atom_site_fract_x
 _atom_site_fract_y
 _atom_site_fract_z
 _atom_site_occupancy
  Ce  Ce0  1  0.00000000  0.00000000  0.00000000  1
  Ge  Ge0  1  0.62522782  0.62522782  0.25045565  1
  Ge  Ge1  1  0.37477218  0.37477218  0.74954435  1
  Rh  Rh0  1  0.25000000  0.75000000  0.50000000  1
  Rh  Rh1  1  0.75000000  0.25000000  0.50000000  1
loop_
_geom_bond_atom_site_label_1
_geom_bond_atom_site_label_2
_geom_bond_distance
_geom_bond_site_symmetry_2
Ce0 Ge0 3.228523 1_545
Ce0 Ge1 3.228523 1_454
Ce0 Ge0 3.228523 1_555
Ce0 Ge1 3.228523 1_444
Ce0 Ge0 3.228523 1_445
Ce0 Ge1 3.228523 1_554
Ce0 Ge0 3.228524 1_455
Ce0 Ge1 3.228524 1_544
Ce0 Rh0 3.344441 1_444
Ce0 Rh1 3.344441 1_555
Ce0 Rh0 3.344442 1_545
Ce0 Rh1 3.344442 1_454
Ce0 Rh0 3.344442 1_544
Ce0 Rh1 3.344442 1_455
Ce0 Rh0 3.344442 1_555
Ce0 Rh1 3.344442 1_444
Ge0 Rh0 2.460927 1_655
Ge0 Rh0 2.460928 1_555
Ge0 Rh1 2.460928 1_555
Ge0 Rh1 2.460928 1_565
Ge0 Ge1 2.618294 1_554
Ge1 Rh1 2.460927 1_455
Ge1 Rh1 2.460928 1_555
Ge1 Rh0 2.460928 1_555
Ge1 Rh0 2.460928 1_545
