# generated using pymatgen
data_PH8C2NO4
_symmetry_space_group_name_H-M   'P 1'
_cell_length_a   7.85770700
_cell_length_b   8.95624800
_cell_length_c   9.09561492
_cell_angle_alpha   76.87760828
_cell_angle_beta   90.00000000
_cell_angle_gamma   90.00000000
_symmetry_Int_Tables_number   1
_chemical_formula_structural   PH8C2NO4
_chemical_formula_sum   'P4 H32 C8 N4 O16'
_cell_volume   623.39414118
_cell_formula_units_Z   4
loop_
 _symmetry_equiv_pos_site_id
 _symmetry_equiv_pos_as_xyz
  1  'x, y, z'
loop_
 _atom_site_type_symbol
 _atom_site_label
 _atom_site_symmetry_multiplicity
 _atom_site_fract_x
 _atom_site_fract_y
 _atom_site_fract_z
 _atom_site_occupancy
  P  P0  1  0.52362300  0.38770800  0.23512400  1
  P  P1  1  0.47637700  0.61229200  0.76487600  1
  P  P2  1  0.97637700  0.88770800  0.23512400  1
  P  P3  1  0.02362300  0.11229200  0.76487600  1
  H  H0  1  0.01520400  0.23588100  0.44881300  1
  H  H1  1  0.48479600  0.73588100  0.44881300  1
  H  H2  1  0.86247900  0.34799400  0.09829500  1
  H  H3  1  0.61723900  0.02392800  0.82083700  1
  H  H4  1  0.55713100  0.31130700  0.71919900  1
  H  H5  1  0.20984600  0.27680900  0.36512000  1
  H  H6  1  0.99826000  0.85910600  0.99853800  1
  H  H7  1  0.05713100  0.18869300  0.28080100  1
  H  H8  1  0.98479600  0.76411900  0.55118700  1
  H  H9  1  0.00919100  0.49987300  0.34261500  1
  H  H10  1  0.63752100  0.84799400  0.09829500  1
  H  H11  1  0.50174000  0.35910600  0.99853800  1
  H  H12  1  0.79015400  0.72319100  0.63488000  1
  H  H13  1  0.51520400  0.26411900  0.55118700  1
  H  H14  1  0.29015400  0.77680900  0.36512000  1
  H  H15  1  0.49080900  0.99987300  0.34261500  1
  H  H16  1  0.36247900  0.15200600  0.90170500  1
  H  H17  1  0.99080900  0.50012700  0.65738500  1
  H  H18  1  0.94286900  0.81130700  0.71919900  1
  H  H19  1  0.44286900  0.68869300  0.28080100  1
  H  H20  1  0.17808200  0.46042700  0.88093600  1
  H  H21  1  0.11723900  0.47607200  0.17916300  1
  H  H22  1  0.70984600  0.22319100  0.63488000  1
  H  H23  1  0.32191800  0.96042700  0.88093600  1
  H  H24  1  0.13752100  0.65200600  0.90170500  1
  H  H25  1  0.50919100  0.00012700  0.65738500  1
  H  H26  1  0.00174000  0.14089400  0.00146200  1
  H  H27  1  0.49826000  0.64089400  0.00146200  1
  H  H28  1  0.88276100  0.52392800  0.82083700  1
  H  H29  1  0.82191800  0.53957300  0.11906400  1
  H  H30  1  0.38276100  0.97607200  0.17916300  1
  H  H31  1  0.67808200  0.03957300  0.11906400  1
  C  C0  1  0.48064700  0.92597800  0.26188600  1
  C  C1  1  0.51935300  0.07402200  0.73811400  1
  C  C2  1  0.85264500  0.42182200  0.17974600  1
  C  C3  1  0.98064700  0.57402200  0.73811400  1
  C  C4  1  0.01935300  0.42597800  0.26188600  1
  C  C5  1  0.35264500  0.07817800  0.82025400  1
  C  C6  1  0.64735500  0.92182200  0.17974600  1
  C  C7  1  0.14735500  0.57817800  0.82025400  1
  N  N0  1  0.07819200  0.27130700  0.34446900  1
  N  N1  1  0.92180800  0.72869300  0.65553100  1
  N  N2  1  0.57819200  0.22869300  0.65553100  1
  N  N3  1  0.42180800  0.77130700  0.34446900  1
  O  O0  1  0.07610200  0.81288000  0.37442000  1
  O  O1  1  0.57610200  0.68712000  0.62558000  1
  O  O2  1  0.92389800  0.18712000  0.62558000  1
  O  O3  1  0.22051300  0.13695000  0.71225700  1
  O  O4  1  0.49667600  0.29461700  0.10775200  1
  O  O5  1  0.77948700  0.86305000  0.28774300  1
  O  O6  1  0.99076900  0.94219100  0.83128900  1
  O  O7  1  0.00332400  0.79461700  0.10775200  1
  O  O8  1  0.99667600  0.20538300  0.89224800  1
  O  O9  1  0.49076900  0.55780900  0.16871100  1
  O  O10  1  0.50332400  0.70538300  0.89224800  1
  O  O11  1  0.00923100  0.05780900  0.16871100  1
  O  O12  1  0.72051300  0.36305000  0.28774300  1
  O  O13  1  0.27948700  0.63695000  0.71225700  1
  O  O14  1  0.50923100  0.44219100  0.83128900  1
  O  O15  1  0.42389800  0.31288000  0.37442000  1
loop_
_geom_bond_atom_site_label_1
_geom_bond_atom_site_label_2
_geom_bond_distance
_geom_bond_site_symmetry_2
H0 N0 1.053397 1_555
H1 N3 1.053397 1_555
H4 N2 1.051081 1_555
H5 N0 1.054561 1_555
H6 O7 1.030264 1_656
H6 O6 1.535365 1_555
H7 N0 1.051081 1_555
H8 N1 1.053397 1_555
H11 O4 1.030264 1_556
H11 O14 1.535365 1_555
H12 N1 1.054561 1_555
H13 N2 1.053397 1_555
H14 N3 1.054561 1_555
H18 N1 1.051081 1_555
H19 N3 1.051081 1_555
H22 N2 1.054561 1_555
H26 O8 1.030264 1_454
H26 O11 1.535365 1_555
H27 O10 1.030264 1_554
H27 O9 1.535365 1_555
C0 H15 1.097365 1_555
C0 H30 1.098065 1_555
C0 N3 1.491470 1_555
C1 H25 1.097365 1_555
C1 H3 1.098065 1_555
C1 N2 1.491470 1_555
C2 H29 1.100376 1_555
C2 H2 1.102030 1_555
C2 O12 1.444015 1_555
C3 H17 1.097365 1_555
C3 H28 1.098065 1_555
C3 N1 1.491470 1_555
C4 H9 1.097365 1_555
C4 H21 1.098065 1_555
C4 N0 1.491470 1_555
C5 H23 1.100376 1_545
C5 H16 1.102030 1_555
C5 O3 1.444015 1_555
C6 H31 1.100376 1_565
C6 H10 1.102030 1_555
C6 O5 1.444015 1_555
C7 H20 1.100376 1_555
C7 H24 1.102030 1_555
C7 O13 1.444015 1_555
O0 P2 1.510921 1_455
O1 P1 1.510921 1_555
O2 P3 1.510921 1_655
O3 P3 1.619682 1_555
O4 P0 1.587684 1_555
O5 P2 1.619682 1_555
O6 P3 1.527949 1_665
O7 P2 1.587684 1_455
O8 P3 1.587684 1_655
O9 P0 1.527949 1_555
O10 P1 1.587684 1_555
O11 P2 1.527949 1_445
O12 P0 1.619682 1_555
O13 P1 1.619682 1_555
O14 P1 1.527949 1_555
O15 P0 1.510921 1_555
