# generated using pymatgen
data_H13C4NF2
_symmetry_space_group_name_H-M   'P 1'
_cell_length_a   5.44215200
_cell_length_b   6.63455700
_cell_length_c   8.82561300
_cell_angle_alpha   90.00000000
_cell_angle_beta   90.00000000
_cell_angle_gamma   90.00000000
_symmetry_Int_Tables_number   1
_chemical_formula_structural   H13C4NF2
_chemical_formula_sum   'H26 C8 N2 F4'
_cell_volume   318.65994512
_cell_formula_units_Z   2
loop_
 _symmetry_equiv_pos_site_id
 _symmetry_equiv_pos_as_xyz
  1  'x, y, z'
loop_
 _atom_site_type_symbol
 _atom_site_label
 _atom_site_symmetry_multiplicity
 _atom_site_fract_x
 _atom_site_fract_y
 _atom_site_fract_z
 _atom_site_occupancy
  H  H0  1  0.99066400  0.50000000  0.76203200  1
  H  H1  1  0.24529800  0.86367600  0.63762900  1
  H  H2  1  0.24529800  0.13632400  0.36237100  1
  H  H3  1  0.93326600  0.31657100  0.50000000  1
  H  H4  1  0.30086800  0.31773300  0.10216600  1
  H  H5  1  0.06673400  0.18342900  0.00000000  1
  H  H6  1  0.69913200  0.18226700  0.60216600  1
  H  H7  1  0.00933600  0.00000000  0.26203200  1
  H  H8  1  0.93326600  0.68342900  0.50000000  1
  H  H9  1  0.69913200  0.81773300  0.39783400  1
  H  H10  1  0.69913200  0.81773300  0.60216600  1
  H  H11  1  0.35773800  0.50000000  0.50000000  1
  H  H12  1  0.30086800  0.31773300  0.89783400  1
  H  H13  1  0.30086800  0.68226700  0.10216600  1
  H  H14  1  0.00933600  0.00000000  0.73796800  1
  H  H15  1  0.06673400  0.81657100  0.00000000  1
  H  H16  1  0.69913200  0.18226700  0.39783400  1
  H  H17  1  0.99066400  0.50000000  0.23796800  1
  H  H18  1  0.75470200  0.36367600  0.86237100  1
  H  H19  1  0.30086800  0.68226700  0.89783400  1
  H  H20  1  0.24529800  0.13632400  0.63762900  1
  H  H21  1  0.75470200  0.36367600  0.13762900  1
  H  H22  1  0.24529800  0.86367600  0.36237100  1
  H  H23  1  0.75470200  0.63632400  0.86237100  1
  H  H24  1  0.64226200  0.00000000  0.00000000  1
  H  H25  1  0.75470200  0.63632400  0.13762900  1
  C  C0  1  0.86846800  0.50000000  0.86090600  1
  C  C1  1  0.13153200  0.00000000  0.63909400  1
  C  C2  1  0.18690500  0.68417000  0.00000000  1
  C  C3  1  0.18690500  0.31583000  0.00000000  1
  C  C4  1  0.81309500  0.81583000  0.50000000  1
  C  C5  1  0.86846800  0.50000000  0.13909400  1
  C  C6  1  0.81309500  0.18417000  0.50000000  1
  C  C7  1  0.13153200  0.00000000  0.36090600  1
  N  N0  1  0.97283600  0.00000000  0.50000000  1
  N  N1  1  0.02716400  0.50000000  0.00000000  1
  F  F0  1  0.35359900  0.50000000  0.36931000  1
  F  F1  1  0.64640100  0.00000000  0.86931000  1
  F  F2  1  0.35359900  0.50000000  0.63069000  1
  F  F3  1  0.64640100  0.00000000  0.13069000  1
loop_
_geom_bond_atom_site_label_1
_geom_bond_atom_site_label_2
_geom_bond_distance
_geom_bond_site_symmetry_2
C0 H18 1.096139 1_555
C0 H23 1.096139 1_555
C0 H0 1.097137 1_555
C0 N1 1.500954 1_656
C1 H20 1.096139 1_555
C1 H1 1.096139 1_545
C1 H14 1.097137 1_555
C1 N0 1.500954 1_455
C2 H13 1.094456 1_555
C2 H19 1.094456 1_554
C2 H15 1.095138 1_555
C2 N1 1.499583 1_555
C3 H4 1.094456 1_555
C3 H12 1.094456 1_554
C3 H5 1.095138 1_555
C3 N1 1.499583 1_555
C4 H10 1.094456 1_555
C4 H9 1.094456 1_555
C4 H8 1.095138 1_555
C4 N0 1.499583 1_565
C5 H21 1.096139 1_555
C5 H25 1.096139 1_555
C5 H17 1.097137 1_555
C5 N1 1.500954 1_655
C6 H6 1.094456 1_555
C6 H16 1.094456 1_555
C6 H3 1.095138 1_555
C6 N0 1.499583 1_555
C7 H2 1.096139 1_555
C7 H22 1.096139 1_545
C7 H7 1.097137 1_555
C7 N0 1.500954 1_455
F0 H11 1.153639 1_555
F1 H24 1.153639 1_556
F2 H11 1.153639 1_555
F3 H24 1.153639 1_555
