# generated using pymatgen
data_CsPd2F5
_symmetry_space_group_name_H-M   'P 1'
_cell_length_a   7.40989879
_cell_length_b   7.40979793
_cell_length_c   7.40972910
_cell_angle_alpha   128.15943988
_cell_angle_beta   115.80327058
_cell_angle_gamma   86.95370651
_symmetry_Int_Tables_number   1
_chemical_formula_structural   CsPd2F5
_chemical_formula_sum   'Cs2 Pd4 F10'
_cell_volume   274.29068905
_cell_formula_units_Z   2
loop_
 _symmetry_equiv_pos_site_id
 _symmetry_equiv_pos_as_xyz
  1  'x, y, z'
loop_
 _atom_site_type_symbol
 _atom_site_label
 _atom_site_symmetry_multiplicity
 _atom_site_fract_x
 _atom_site_fract_y
 _atom_site_fract_z
 _atom_site_occupancy
  Cs  Cs0  1  0.36092460  0.61092340  0.75000205  1
  Cs  Cs1  1  0.63908280  0.38908208  0.25000385  1
  Pd  Pd0  1  -0.00002823  -0.00003462  0.50001018  1
  Pd  Pd1  1  -0.00004262  0.50000119  -0.00003973  1
  Pd  Pd2  1  0.00000353  0.00000067  0.00000160  1
  Pd  Pd3  1  0.50000352  -0.00000047  0.49999776  1
  F  F0  1  0.95300724  0.62591624  0.81885751  1
  F  F1  1  0.04699764  0.86585177  0.67290640  1
  F  F2  1  0.69293202  0.37408853  0.82709272  1
  F  F3  1  0.30708159  0.13416310  0.68116338  1
  F  F4  1  0.04699974  0.37408928  0.18115361  1
  F  F5  1  0.95301022  0.13416144  0.32709815  1
  F  F6  1  0.33712085  0.08708987  0.24998764  1
  F  F7  1  0.66289220  0.91289738  0.74999800  1
  F  F8  1  0.69293585  0.86585062  0.31884889  1
  F  F9  1  0.30708005  0.62591951  0.17291798  1
loop_
_geom_bond_atom_site_label_1
_geom_bond_atom_site_label_2
_geom_bond_distance
_geom_bond_site_symmetry_2
Cs0 F8 3.002450 1_556
Cs0 F2 3.002451 1_555
Cs0 F4 3.002463 1_555
Cs0 F1 3.002524 1_555
Cs0 F7 3.247400 1_555
Cs0 F6 3.248918 1_566
Cs0 F6 3.249209 1_555
Cs0 F9 3.262671 1_556
Cs0 F3 3.262710 1_555
Cs0 F5 3.262744 1_455
Cs0 F0 3.262778 1_455
Cs1 F3 3.002413 1_554
Cs1 F9 3.002432 1_555
Cs1 F5 3.002484 1_555
Cs1 F0 3.002490 1_555
Cs1 F6 3.247359 1_555
Cs1 F7 3.249064 1_544
Cs1 F7 3.249069 1_555
Cs1 F2 3.262665 1_554
Cs1 F8 3.262752 1_555
Cs1 F4 3.262755 1_655
Cs1 F1 3.262778 1_655
F0 Pd1 1.974460 1_656
F0 Pd2 2.168975 1_666
F1 Pd0 1.974330 1_565
F1 Pd2 2.168985 1_566
F2 Pd1 1.974556 1_656
F2 Pd3 2.168990 1_555
F3 Pd0 1.975112 1_555
F3 Pd3 2.168954 1_555
F4 Pd1 1.974941 1_555
F4 Pd2 2.168989 1_555
F5 Pd0 1.975043 1_655
F5 Pd2 2.168969 1_655
F6 Pd3 2.180120 1_555
F6 Pd2 2.180280 1_555
F7 Pd3 2.180138 1_565
F7 Pd2 2.180249 1_666
F8 Pd0 1.974532 1_665
F8 Pd3 2.168942 1_565
F9 Pd1 1.975111 1_555
F9 Pd3 2.168935 1_565
