# generated using pymatgen
data_BaVS3
_symmetry_space_group_name_H-M   'P 1'
_cell_length_a   6.79668058
_cell_length_b   6.79667262
_cell_length_c   5.68786110
_cell_angle_alpha   90.00268095
_cell_angle_beta   89.99731047
_cell_angle_gamma   120.79161101
_symmetry_Int_Tables_number   1
_chemical_formula_structural   BaVS3
_chemical_formula_sum   'Ba2 V2 S6'
_cell_volume   225.71113274
_cell_formula_units_Z   2
loop_
 _symmetry_equiv_pos_site_id
 _symmetry_equiv_pos_as_xyz
  1  'x, y, z'
loop_
 _atom_site_type_symbol
 _atom_site_label
 _atom_site_symmetry_multiplicity
 _atom_site_fract_x
 _atom_site_fract_y
 _atom_site_fract_z
 _atom_site_occupancy
  Ba  Ba0  1  0.32957121  0.67043563  0.25001010  1
  Ba  Ba1  1  0.67043505  0.32957028  0.74999013  1
  V  V0  1  0.96147676  0.96147466  0.49999816  1
  V  V1  1  0.03849992  0.03850176  -0.00000206  1
  S  S0  1  0.83833450  0.16167985  0.24999686  1
  S  S1  1  0.16510438  0.32809827  0.74099765  1
  S  S2  1  0.16167955  0.83833446  0.75000459  1
  S  S3  1  0.67190394  0.83489805  0.75900953  1
  S  S4  1  0.83489763  0.67190292  0.24099157  1
  S  S5  1  0.32809706  0.16510412  0.25900347  1
loop_
_geom_bond_atom_site_label_1
_geom_bond_atom_site_label_2
_geom_bond_distance
_geom_bond_site_symmetry_2
Ba0 S0 3.359166 1_455
Ba0 S0 3.359217 1_565
Ba0 S5 3.367626 1_565
Ba0 S4 3.367648 1_455
Ba0 S4 3.429829 1_555
Ba0 S5 3.429838 1_555
Ba0 S3 3.435029 1_554
Ba0 S1 3.435075 1_555
Ba0 S2 3.467668 1_555
Ba0 S2 3.467895 1_554
Ba0 S1 3.518840 1_554
Ba0 S3 3.518859 1_555
Ba1 S2 3.359163 1_545
Ba1 S2 3.359221 1_655
Ba1 S1 3.367628 1_655
Ba1 S3 3.367640 1_545
Ba1 S3 3.429829 1_555
Ba1 S1 3.429844 1_555
Ba1 S4 3.435032 1_556
Ba1 S5 3.435075 1_555
Ba1 S0 3.467660 1_555
Ba1 S0 3.467898 1_556
Ba1 S5 3.518848 1_556
Ba1 S4 3.518853 1_555
S0 V1 2.395738 1_655
S0 V0 2.395913 1_545
S1 V1 2.247421 1_556
S1 V0 2.544135 1_445
S2 V1 2.395735 1_566
S2 V0 2.395910 1_455
S3 V0 2.247299 1_555
S3 V1 2.544020 1_666
S4 V0 2.247273 1_555
S4 V1 2.544047 1_665
S5 V1 2.247446 1_555
S5 V0 2.544106 1_445
