# generated using pymatgen
data_SnH22(Cl3O5)2
_symmetry_space_group_name_H-M   'P 1'
_cell_length_a   7.34695200
_cell_length_b   9.08627300
_cell_length_c   16.34311634
_cell_angle_alpha   59.12724548
_cell_angle_beta   90.00000000
_cell_angle_gamma   90.00000000
_symmetry_Int_Tables_number   1
_chemical_formula_structural   SnH22(Cl3O5)2
_chemical_formula_sum   'Sn2 H44 Cl12 O20'
_cell_volume   936.42182522
_cell_formula_units_Z   2
loop_
 _symmetry_equiv_pos_site_id
 _symmetry_equiv_pos_as_xyz
  1  'x, y, z'
loop_
 _atom_site_type_symbol
 _atom_site_label
 _atom_site_symmetry_multiplicity
 _atom_site_fract_x
 _atom_site_fract_y
 _atom_site_fract_z
 _atom_site_occupancy
  Sn  Sn0  1  0.50000000  0.00000000  0.50000000  1
  Sn  Sn1  1  0.00000000  0.00000000  0.00000000  1
  H  H0  1  0.38967200  0.53239200  0.23853700  1
  H  H1  1  0.61032800  0.46760800  0.76146300  1
  H  H2  1  0.29673700  0.63077700  0.13672500  1
  H  H3  1  0.23035600  0.14221100  0.20694000  1
  H  H4  1  0.88967200  0.46760800  0.26146300  1
  H  H5  1  0.26964400  0.14221100  0.70694000  1
  H  H6  1  0.49966000  0.47521200  0.13716700  1
  H  H7  1  0.90262000  0.85892300  0.41690300  1
  H  H8  1  0.50842200  0.04116200  0.18183400  1
  H  H9  1  0.09738000  0.14107700  0.58309700  1
  H  H10  1  0.49612600  0.66780100  0.31462600  1
  H  H11  1  0.59738000  0.85892300  0.91690300  1
  H  H12  1  0.49157800  0.95883800  0.81816600  1
  H  H13  1  0.19364800  0.16705600  0.29394500  1
  H  H14  1  0.45897600  0.68487800  0.88452600  1
  H  H15  1  0.02034600  0.46718600  0.89125600  1
  H  H16  1  0.00842200  0.95883800  0.31816600  1
  H  H17  1  0.77978800  0.42368700  0.62714100  1
  H  H18  1  0.69364800  0.83294400  0.20605500  1
  H  H19  1  0.79673700  0.36922300  0.36327500  1
  H  H20  1  0.80635200  0.83294400  0.70605500  1
  H  H21  1  0.72021200  0.42368700  0.12714100  1
  H  H22  1  0.04102400  0.68487800  0.38452600  1
  H  H23  1  0.11032800  0.53239200  0.73853700  1
  H  H24  1  0.22021200  0.57631300  0.37285900  1
  H  H25  1  0.70326300  0.36922300  0.86327500  1
  H  H26  1  0.95897600  0.31512200  0.61547400  1
  H  H27  1  0.52034600  0.53281400  0.60874400  1
  H  H28  1  0.20326300  0.63077700  0.63672500  1
  H  H29  1  0.99612600  0.33219900  0.18537400  1
  H  H30  1  0.47965400  0.46718600  0.39125600  1
  H  H31  1  0.00387400  0.66780100  0.81462600  1
  H  H32  1  0.27978800  0.57631300  0.87285900  1
  H  H33  1  0.40262000  0.14107700  0.08309700  1
  H  H34  1  0.54102400  0.31512200  0.11547400  1
  H  H35  1  0.30635200  0.16705600  0.79394500  1
  H  H36  1  0.73035600  0.85778900  0.29306000  1
  H  H37  1  0.99966000  0.52478800  0.36283300  1
  H  H38  1  0.97965400  0.53281400  0.10874400  1
  H  H39  1  0.76964400  0.85778900  0.79306000  1
  H  H40  1  0.50034000  0.52478800  0.86283300  1
  H  H41  1  0.99157800  0.04116200  0.68183400  1
  H  H42  1  0.00034000  0.47521200  0.63716700  1
  H  H43  1  0.50387400  0.33219900  0.68537400  1
  Cl  Cl0  1  0.20373200  0.15120500  0.44449700  1
  Cl  Cl1  1  0.89097600  0.14761000  0.83585000  1
  Cl  Cl2  1  0.70373200  0.84879500  0.05550300  1
  Cl  Cl3  1  0.61727400  0.24234800  0.51525400  1
  Cl  Cl4  1  0.39097600  0.85239000  0.66415000  1
  Cl  Cl5  1  0.88272600  0.24234800  0.01525400  1
  Cl  Cl6  1  0.60902400  0.14761000  0.33585000  1
  Cl  Cl7  1  0.38272600  0.75765200  0.48474600  1
  Cl  Cl8  1  0.79626800  0.84879500  0.55550300  1
  Cl  Cl9  1  0.29626800  0.15120500  0.94449700  1
  Cl  Cl10  1  0.10902400  0.85239000  0.16415000  1
  Cl  Cl11  1  0.11727400  0.75765200  0.98474600  1
  O  O0  1  0.08457500  0.56483000  0.83787300  1
  O  O1  1  0.63842600  0.47487200  0.81882400  1
  O  O2  1  0.06363400  0.14730400  0.63960300  1
  O  O3  1  0.93636600  0.85269600  0.36039700  1
  O  O4  1  0.58457500  0.43517000  0.66212700  1
  O  O5  1  0.13842600  0.52512800  0.68117600  1
  O  O6  1  0.56363400  0.85269600  0.86039700  1
  O  O7  1  0.13148300  0.14943200  0.24634200  1
  O  O8  1  0.43636600  0.14730400  0.13960300  1
  O  O9  1  0.86157400  0.47487200  0.31882400  1
  O  O10  1  0.41093900  0.56860000  0.89690400  1
  O  O11  1  0.86851700  0.85056800  0.75365800  1
  O  O12  1  0.41542500  0.56483000  0.33787300  1
  O  O13  1  0.08906100  0.56860000  0.39690400  1
  O  O14  1  0.36851700  0.14943200  0.74634200  1
  O  O15  1  0.36157400  0.52512800  0.18117600  1
  O  O16  1  0.91542500  0.43517000  0.16212700  1
  O  O17  1  0.91093900  0.43140000  0.60309600  1
  O  O18  1  0.63148300  0.85056800  0.25365800  1
  O  O19  1  0.58906100  0.43140000  0.10309600  1
loop_
_geom_bond_atom_site_label_1
_geom_bond_atom_site_label_2
_geom_bond_distance
_geom_bond_site_symmetry_2
H0 O15 0.994635 1_555
H1 O1 0.994635 1_555
H2 O15 0.980046 1_555
H3 O7 0.994997 1_555
H4 O9 0.994635 1_555
H5 O14 0.994997 1_555
H6 O19 1.061808 1_555
H6 O15 1.444657 1_555
H7 O3 0.985453 1_555
H8 O8 1.001811 1_555
H9 O2 0.985453 1_555
H10 O12 1.003228 1_555
H11 O6 0.985453 1_555
H12 O6 1.001811 1_555
H13 O7 0.983540 1_555
H14 O10 1.030727 1_555
H14 O6 1.566772 1_555
H15 O0 0.988238 1_555
H16 O3 1.001811 1_455
H17 O17 1.029331 1_555
H17 O4 1.567174 1_555
H18 O18 0.983540 1_555
H19 O9 0.980046 1_555
H20 O11 0.983540 1_555
H21 O19 1.029331 1_555
H21 O16 1.567174 1_555
H22 O13 1.030727 1_555
H22 O3 1.566772 1_455
H23 O5 0.994635 1_555
H24 O13 1.029331 1_555
H24 O12 1.567174 1_555
H25 O1 0.980046 1_555
H26 O17 1.030727 1_555
H26 O2 1.566772 1_655
H27 O4 0.988238 1_555
H28 O5 0.980046 1_555
H29 O16 1.003228 1_555
H30 O12 0.988238 1_555
H31 O0 1.003228 1_555
H32 O10 1.029331 1_555
H32 O0 1.567174 1_555
H33 O8 0.985453 1_555
H34 O19 1.030727 1_555
H34 O8 1.566772 1_555
H35 O14 0.983540 1_555
H36 O18 0.994997 1_555
H37 O13 1.061808 1_655
H37 O9 1.444657 1_555
H38 O16 0.988238 1_555
H39 O11 0.994997 1_555
H40 O10 1.061808 1_555
H40 O1 1.444657 1_555
H41 O2 1.001811 1_655
H42 O17 1.061808 1_455
H42 O5 1.444657 1_555
H43 O4 1.003228 1_555
Cl0 Sn0 2.483805 1_555
Cl1 Sn1 2.438203 1_656
Cl2 Sn1 2.483805 1_665
Cl3 Sn0 2.493367 1_555
Cl4 Sn0 2.438203 1_565
Cl5 Sn1 2.493367 1_655
Cl6 Sn0 2.438203 1_555
Cl7 Sn0 2.493367 1_565
Cl8 Sn0 2.483805 1_565
Cl9 Sn1 2.483805 1_556
Cl10 Sn1 2.438203 1_565
Cl11 Sn1 2.493367 1_566
