# generated using pymatgen
data_KHfCuF7
_symmetry_space_group_name_H-M   'P 1'
_cell_length_a   7.56438131
_cell_length_b   7.56438131
_cell_length_c   10.00224456
_cell_angle_alpha   90.00000000
_cell_angle_beta   90.00000000
_cell_angle_gamma   113.97580612
_symmetry_Int_Tables_number   1
_chemical_formula_structural   KHfCuF7
_chemical_formula_sum   'K4 Hf4 Cu4 F28'
_cell_volume   522.94505466
_cell_formula_units_Z   4
loop_
 _symmetry_equiv_pos_site_id
 _symmetry_equiv_pos_as_xyz
  1  'x, y, z'
loop_
 _atom_site_type_symbol
 _atom_site_label
 _atom_site_symmetry_multiplicity
 _atom_site_fract_x
 _atom_site_fract_y
 _atom_site_fract_z
 _atom_site_occupancy
  K  K0  1  0.16343591  0.36283925  0.25000000  1
  K  K1  1  0.36283925  0.16343591  0.75000000  1
  K  K2  1  0.63716075  0.83656409  0.25000000  1
  K  K3  1  0.83656409  0.63716075  0.75000000  1
  Hf  Hf0  1  0.86662124  0.13337876  0.56930274  1
  Hf  Hf1  1  0.13337876  0.86662124  0.06930274  1
  Hf  Hf2  1  0.13337876  0.86662124  0.43069726  1
  Hf  Hf3  1  0.86662124  0.13337876  0.93069726  1
  Cu  Cu0  1  0.36418008  0.63581992  0.92880016  1
  Cu  Cu1  1  0.63581992  0.36418008  0.07119984  1
  Cu  Cu2  1  0.63581992  0.36418008  0.42880016  1
  Cu  Cu3  1  0.36418008  0.63581992  0.57119984  1
  F  F0  1  0.29227749  0.70772251  0.11153099  1
  F  F1  1  0.00561937  0.27462453  0.75000000  1
  F  F2  1  0.72537547  0.99438063  0.75000000  1
  F  F3  1  0.89534756  0.64091544  0.48603740  1
  F  F4  1  0.35908456  0.10465244  0.48603740  1
  F  F5  1  0.22047768  0.77952232  0.88538627  1
  F  F6  1  0.02527954  0.97472046  0.88716497  1
  F  F7  1  0.89534756  0.64091544  0.01396260  1
  F  F8  1  0.10465244  0.35908456  0.51396260  1
  F  F9  1  0.35908456  0.10465244  0.01396260  1
  F  F10  1  0.42205302  0.57794698  0.75000000  1
  F  F11  1  0.10465244  0.35908456  0.98603740  1
  F  F12  1  0.64091544  0.89534756  0.51396260  1
  F  F13  1  0.70772251  0.29227749  0.61153099  1
  F  F14  1  0.99438063  0.72537547  0.25000000  1
  F  F15  1  0.97472046  0.02527954  0.11283503  1
  F  F16  1  0.29227749  0.70772251  0.38846901  1
  F  F17  1  0.27462453  0.00561937  0.25000000  1
  F  F18  1  0.70772251  0.29227749  0.88846901  1
  F  F19  1  0.77952232  0.22047768  0.38538627  1
  F  F20  1  0.50000000  0.50000000  0.00000000  1
  F  F21  1  0.97472046  0.02527954  0.38716497  1
  F  F22  1  0.64091544  0.89534756  0.98603740  1
  F  F23  1  0.77952232  0.22047768  0.11461373  1
  F  F24  1  0.57794698  0.42205302  0.25000000  1
  F  F25  1  0.02527954  0.97472046  0.61283503  1
  F  F26  1  0.22047768  0.77952232  0.61461373  1
  F  F27  1  0.50000000  0.50000000  0.50000000  1
loop_
_geom_bond_atom_site_label_1
_geom_bond_atom_site_label_2
_geom_bond_distance
_geom_bond_site_symmetry_2
Cu0 F20 1.864425 1_556
Cu0 F5 1.874055 1_555
Cu0 F10 1.933242 1_555
Cu0 F0 2.042700 1_556
Cu0 F11 2.285601 1_555
Cu0 F22 2.285601 1_555
Cu1 F20 1.864425 1_555
Cu1 F23 1.874055 1_555
Cu1 F24 1.933242 1_555
Cu1 F18 2.042700 1_554
Cu1 F9 2.285601 1_555
Cu1 F7 2.285601 1_555
Cu2 F27 1.864425 1_555
Cu2 F19 1.874055 1_555
Cu2 F24 1.933242 1_555
Cu2 F13 2.042700 1_555
Cu2 F4 2.285601 1_555
Cu2 F3 2.285601 1_555
Cu3 F27 1.864425 1_555
Cu3 F26 1.874055 1_555
Cu3 F10 1.933242 1_555
Cu3 F16 2.042700 1_555
Cu3 F8 2.285601 1_555
Cu3 F12 2.285601 1_555
F0 Hf1 2.059613 1_555
F0 K0 2.758208 1_555
F0 K2 2.758208 1_555
F1 Hf3 2.144926 1_455
F1 Hf0 2.144926 1_455
F1 K1 3.139432 1_555
F2 Hf3 2.144926 1_565
F2 Hf0 2.144926 1_565
F2 K3 3.139432 1_555
F3 Hf2 1.991231 1_655
F3 K3 2.675634 1_555
F4 Hf2 1.991231 1_545
F4 K1 2.675634 1_555
F5 Hf1 2.145924 1_556
F5 K1 2.980850 1_565
F5 K3 2.980850 1_455
F6 Hf3 2.059346 1_465
F6 Hf1 2.280261 1_556
F6 K3 2.734543 1_455
F6 K1 2.734543 1_565
F7 Hf1 1.991231 1_655
F7 K3 2.675634 1_554
F8 Hf0 1.991231 1_455
F8 K0 2.675634 1_555
F9 Hf1 1.991231 1_545
F9 K1 2.675634 1_554
F10 K3 2.981730 1_555
F10 K1 2.981730 1_555
F11 Hf3 1.991231 1_455
F11 K0 2.675634 1_556
F12 Hf0 1.991231 1_565
F12 K2 2.675634 1_555
F13 Hf0 2.059613 1_555
F13 K1 2.758208 1_555
F13 K3 2.758208 1_555
F14 Hf1 2.144926 1_655
F14 Hf2 2.144926 1_655
F14 K2 3.139432 1_555
F15 Hf1 2.059346 1_645
F15 Hf3 2.280261 1_554
F15 K2 2.734543 1_545
F15 K0 2.734543 1_655
F16 Hf2 2.059613 1_555
F16 K0 2.758208 1_555
F16 K2 2.758208 1_555
F17 Hf1 2.144926 1_545
F17 Hf2 2.144926 1_545
F17 K0 3.139432 1_555
F18 Hf3 2.059613 1_555
F18 K1 2.758208 1_555
F18 K3 2.758208 1_555
F19 Hf0 2.145924 1_555
F19 K2 2.980850 1_545
F19 K0 2.980850 1_655
F21 Hf2 2.059346 1_645
F21 Hf0 2.280261 1_555
F21 K2 2.734543 1_545
F21 K0 2.734543 1_655
F22 Hf3 1.991231 1_565
F22 K2 2.675634 1_556
F23 Hf3 2.145924 1_554
F23 K2 2.980850 1_545
F23 K0 2.980850 1_655
F24 K2 2.981730 1_555
F24 K0 2.981730 1_555
F25 Hf0 2.059346 1_465
F25 Hf2 2.280261 1_555
F25 K3 2.734543 1_455
F25 K1 2.734543 1_565
F26 Hf2 2.145924 1_555
F26 K1 2.980850 1_565
F26 K3 2.980850 1_455
