# generated using pymatgen
data_TbInNi
_symmetry_space_group_name_H-M   'P 1'
_cell_length_a   7.42324500
_cell_length_b   7.42324717
_cell_length_c   3.77371462
_cell_angle_alpha   90.00000000
_cell_angle_beta   90.00000000
_cell_angle_gamma   119.99999952
_symmetry_Int_Tables_number   1
_chemical_formula_structural   TbInNi
_chemical_formula_sum   'Tb3 In3 Ni3'
_cell_volume   180.08909007
_cell_formula_units_Z   3
loop_
 _symmetry_equiv_pos_site_id
 _symmetry_equiv_pos_as_xyz
  1  'x, y, z'
loop_
 _atom_site_type_symbol
 _atom_site_label
 _atom_site_symmetry_multiplicity
 _atom_site_fract_x
 _atom_site_fract_y
 _atom_site_fract_z
 _atom_site_occupancy
  Tb  Tb0  1  0.00000000  0.58741297  0.50000000  1
  Tb  Tb1  1  0.58741297  1.00000000  0.50000000  1
  Tb  Tb2  1  0.41258703  0.41258703  0.50000000  1
  In  In0  1  0.74706782  0.74706782  0.00000000  1
  In  In1  1  1.00000000  0.25293218  0.00000000  1
  In  In2  1  0.25293218  0.00000000  -0.00000000  1
  Ni  Ni0  1  -0.00000000  0.00000000  0.50000000  1
  Ni  Ni1  1  0.66666700  0.33333300  -0.00000000  1
  Ni  Ni2  1  0.33333300  0.66666700  -0.00000000  1
loop_
_geom_bond_atom_site_label_1
_geom_bond_atom_site_label_2
_geom_bond_distance
_geom_bond_site_symmetry_2
In0 Ni0 2.661866 1_665
In0 Ni0 2.661866 1_664
In0 Ni2 2.820600 1_555
In0 Ni1 2.820601 1_555
In0 Tb2 3.118523 1_555
In0 Tb2 3.118523 1_554
In0 In2 3.252060 1_665
In0 In1 3.252061 1_565
In0 Tb0 3.273431 1_655
In0 Tb0 3.273431 1_654
In0 Tb1 3.273431 1_555
In0 Tb1 3.273431 1_554
In1 Ni0 2.661866 1_654
In1 Ni0 2.661866 1_655
In1 Ni1 2.820593 1_555
In1 Ni2 2.820599 1_655
In1 Tb0 3.118524 1_655
In1 Tb0 3.118524 1_654
In1 In2 3.252060 1_655
In1 Tb2 3.273431 1_654
In1 Tb2 3.273431 1_655
In1 Tb1 3.273431 1_544
In1 Tb1 3.273431 1_545
In2 Ni0 2.661865 1_554
In2 Ni0 2.661865 1_555
In2 Ni2 2.820594 1_545
In2 Ni1 2.820598 1_555
In2 Tb1 3.118523 1_544
In2 Tb1 3.118523 1_545
In2 Tb0 3.273431 1_545
In2 Tb0 3.273431 1_544
In2 Tb2 3.273432 1_555
In2 Tb2 3.273432 1_554
Ni0 Tb1 3.062735 1_445
Ni0 Tb2 3.062735 1_555
Ni0 Tb0 3.062736 1_545
Ni1 Tb1 2.928024 1_544
Ni1 Tb1 2.928024 1_545
Ni1 Tb0 2.928025 1_655
Ni1 Tb0 2.928025 1_654
Ni1 Tb2 2.928029 1_555
Ni1 Tb2 2.928029 1_554
Ni2 Tb0 2.928023 1_555
Ni2 Tb0 2.928023 1_554
Ni2 Tb1 2.928025 1_554
Ni2 Tb1 2.928025 1_555
Ni2 Tb2 2.928029 1_555
Ni2 Tb2 2.928029 1_554
