# generated using pymatgen
data_Ca14MnBi11
_symmetry_space_group_name_H-M   'P 1'
_cell_length_a   16.55823867
_cell_length_b   16.55823766
_cell_length_c   16.55823863
_cell_angle_alpha   117.64647862
_cell_angle_beta   117.64648021
_cell_angle_gamma   94.12717095
_symmetry_Int_Tables_number   1
_chemical_formula_structural   Ca14MnBi11
_chemical_formula_sum   'Ca56 Mn4 Bi44'
_cell_volume   3315.05773336
_cell_formula_units_Z   4
loop_
 _symmetry_equiv_pos_site_id
 _symmetry_equiv_pos_as_xyz
  1  'x, y, z'
loop_
 _atom_site_type_symbol
 _atom_site_label
 _atom_site_symmetry_multiplicity
 _atom_site_fract_x
 _atom_site_fract_y
 _atom_site_fract_z
 _atom_site_occupancy
  Ca  Ca0  1  0.30737011  0.64597364  0.01862461  1
  Ca  Ca1  1  0.40047064  0.00384128  0.64926790  1
  Ca  Ca2  1  0.39597346  0.87734898  0.83860343  1
  Ca  Ca3  1  0.16133090  0.37866173  0.13398727  1
  Ca  Ca4  1  0.03874534  0.55737003  0.16139651  1
  Ca  Ca5  1  0.25383703  0.15046696  0.14926540  1
  Ca  Ca6  1  0.99615882  0.64542758  0.39662950  1
  Ca  Ca7  1  0.21125188  0.87265420  0.01862564  1
  Ca  Ca8  1  0.47908942  0.87500220  0.10409155  1
  Ca  Ca9  1  0.84953308  0.99879935  0.10337003  1
  Ca  Ca10  1  0.62500128  0.52091058  0.39591277  1
  Ca  Ca11  1  0.34952936  0.24615872  0.85073210  1
  Ca  Ca12  1  0.85402844  0.19262628  0.98137422  1
  Ca  Ca13  1  0.74467622  0.87866688  0.21733326  1
  Ca  Ca14  1  0.77091052  0.37499870  0.89590841  1
  Ca  Ca15  1  0.12133291  0.33866622  0.86600939  1
  Ca  Ca16  1  0.94262609  0.46125172  0.83859769  1
  Ca  Ca17  1  0.75384118  0.60457242  0.10337050  1
  Ca  Ca18  1  0.71125466  0.69262997  0.33860349  1
  Ca  Ca19  1  0.49616297  0.09953304  0.35073460  1
  Ca  Ca20  1  0.90046692  0.25120065  0.39662997  1
  Ca  Ca21  1  0.35457267  0.75120200  0.35073233  1
  Ca  Ca22  1  0.35402654  0.37265102  0.66139657  1
  Ca  Ca23  1  0.50532561  0.22265650  0.63398747  1
  Ca  Ca24  1  0.24467439  0.02734350  0.86601253  1
  Ca  Ca25  1  0.62265383  0.10402840  0.16140220  1
  Ca  Ca26  1  0.85457068  0.50383711  0.60337019  1
  Ca  Ca27  1  0.89542932  0.74616289  0.89662981  1
  Ca  Ca28  1  0.89597156  0.05737372  0.51862578  1
  Ca  Ca29  1  0.12265109  0.96125451  0.51862483  1
  Ca  Ca30  1  0.62866709  0.91133378  0.63399061  1
  Ca  Ca31  1  0.08866641  0.72265707  0.71733329  1
  Ca  Ca32  1  0.12734617  0.14597160  0.33859780  1
  Ca  Ca33  1  0.27091058  0.37499780  0.39590845  1
  Ca  Ca34  1  0.53874812  0.37734580  0.48137436  1
  Ca  Ca35  1  0.62500201  0.02091069  0.89591174  1
  Ca  Ca36  1  0.74879937  0.14542924  0.64926547  1
  Ca  Ca37  1  0.00532378  0.37133312  0.28266674  1
  Ca  Ca38  1  0.12866201  0.49467448  0.71733083  1
  Ca  Ca39  1  0.50120202  0.65047058  0.89662941  1
  Ca  Ca40  1  0.97265644  0.83866890  0.21733091  1
  Ca  Ca41  1  0.58866910  0.87133827  0.36601273  1
  Ca  Ca42  1  0.12499799  0.22908931  0.60408826  1
  Ca  Ca43  1  0.24879798  0.59952942  0.60337059  1
  Ca  Ca44  1  0.77734356  0.41133110  0.28266909  1
  Ca  Ca45  1  0.62133799  0.75532552  0.78266917  1
  Ca  Ca46  1  0.44262989  0.60402636  0.48137539  1
  Ca  Ca47  1  0.12499872  0.72909042  0.10408823  1
  Ca  Ca48  1  0.62734891  0.28874549  0.98137517  1
  Ca  Ca49  1  0.97908948  0.87500130  0.60409159  1
  Ca  Ca50  1  0.39542733  0.49879800  0.14926767  1
  Ca  Ca51  1  0.27734316  0.99467652  0.36600948  1
  Ca  Ca52  1  0.66133359  0.52734293  0.78266671  1
  Ca  Ca53  1  0.00120063  0.10457076  0.85073453  1
  Ca  Ca54  1  0.80737391  0.78874828  0.66140231  1
  Ca  Ca55  1  0.47265684  0.25532348  0.13399052  1
  Mn  Mn0  1  0.00000006  0.99999999  0.99999985  1
  Mn  Mn1  1  0.50000007  0.49999996  0.99999991  1
  Mn  Mn2  1  0.24999993  0.75000004  0.50000009  1
  Mn  Mn3  1  0.74999994  0.25000001  0.50000015  1
  Bi  Bi0  1  0.29544333  0.43084128  0.85342317  1
  Bi  Bi1  1  0.36272943  0.86273094  0.22545940  1
  Bi  Bi2  1  0.79544691  0.94202146  0.86460415  1
  Bi  Bi3  1  0.17258176  0.80797995  0.35342326  1
  Bi  Bi4  1  0.95816386  0.05109566  0.35325827  1
  Bi  Bi5  1  0.18084128  0.82741815  0.63539816  1
  Bi  Bi6  1  0.11272751  0.11272896  0.72545938  1
  Bi  Bi7  1  0.79183614  0.19890434  0.14674173  1
  Bi  Bi8  1  0.35490576  0.20816381  0.40706814  1
  Bi  Bi9  1  0.24999855  0.24999854  0.99999988  1
  Bi  Bi10  1  0.80109602  0.94783719  0.59293206  1
  Bi  Bi11  1  0.45455667  0.81915872  0.64657683  1
  Bi  Bi12  1  0.05797870  0.92258285  0.85342540  1
  Bi  Bi13  1  0.86272930  0.63727067  0.50000155  1
  Bi  Bi14  1  0.55216529  0.69890524  0.40707030  1
  Bi  Bi15  1  0.68084248  0.04544683  0.35342553  1
  Bi  Bi16  1  0.06915752  0.20455317  0.14657447  1
  Bi  Bi17  1  0.13726923  0.36272781  0.49999860  1
  Bi  Bi18  1  0.19202001  0.54544325  0.36460191  1
  Bi  Bi19  1  0.38727057  0.38726906  0.27454060  1
  Bi  Bi20  1  0.50000145  0.00000146  0.50000012  1
  Bi  Bi21  1  0.07741725  0.93084261  0.13539573  1
  Bi  Bi22  1  0.56915872  0.42258185  0.86460184  1
  Bi  Bi23  1  0.44890538  0.54183495  0.64674065  1
  Bi  Bi24  1  0.67258275  0.31915739  0.36460427  1
  Bi  Bi25  1  0.45816487  0.10490545  0.90707015  1
  Bi  Bi26  1  0.39509424  0.04183619  0.09293186  1
  Bi  Bi27  1  0.89509425  0.80216525  0.35325951  1
  Bi  Bi28  1  0.69783720  0.60490554  0.64674190  1
  Bi  Bi29  1  0.69202130  0.32741715  0.64657460  1
  Bi  Bi30  1  0.75000119  0.75000109  0.99999992  1
  Bi  Bi31  1  0.19783471  0.55109476  0.09292970  1
  Bi  Bi32  1  0.95455309  0.30797854  0.63539585  1
  Bi  Bi33  1  0.85490575  0.44783475  0.14674049  1
  Bi  Bi34  1  0.88727070  0.61272933  0.99999845  1
  Bi  Bi35  1  0.30109462  0.70816505  0.85325935  1
  Bi  Bi36  1  0.99999881  0.49999891  0.50000008  1
  Bi  Bi37  1  0.29183513  0.14509455  0.59292985  1
  Bi  Bi38  1  0.63727249  0.13727104  0.77454062  1
  Bi  Bi39  1  0.55797999  0.70455675  0.13539809  1
  Bi  Bi40  1  0.57741824  0.44202005  0.14657674  1
  Bi  Bi41  1  0.05216280  0.64509446  0.85325810  1
  Bi  Bi42  1  0.94890398  0.30216281  0.90706794  1
  Bi  Bi43  1  0.61273077  0.88727219  0.00000140  1
loop_
_geom_bond_atom_site_label_1
_geom_bond_atom_site_label_2
_geom_bond_distance
_geom_bond_site_symmetry_2
Bi0 Mn1 2.812073 1_555
Bi0 Ca11 3.234237 1_555
Bi0 Ca0 3.250459 1_556
Bi0 Ca38 3.267563 1_555
Bi0 Ca15 3.302086 1_555
Bi0 Ca42 3.346681 1_555
Bi0 Ca22 3.483258 1_555
Bi1 Ca0 3.264507 1_555
Bi1 Ca7 3.264512 1_555
Bi1 Ca51 3.311793 1_555
Bi1 Ca41 3.311829 1_555
Bi1 Ca21 3.392698 1_555
Bi1 Ca19 3.392710 1_565
Bi1 Ca8 3.421710 1_555
Bi1 Ca47 3.421743 1_555
Bi2 Mn0 2.812025 1_655
Bi2 Ca9 3.234189 1_556
Bi2 Ca54 3.250411 1_555
Bi2 Ca30 3.267554 1_555
Bi2 Ca45 3.302066 1_555
Bi2 Ca35 3.346678 1_565
Bi2 Ca12 3.483191 1_565
Bi3 Mn2 2.812073 1_555
Bi3 Ca21 3.234232 1_555
Bi3 Ca29 3.250457 1_555
Bi3 Ca40 3.267560 1_455
Bi3 Ca51 3.302086 1_555
Bi3 Ca47 3.346682 1_555
Bi3 Ca4 3.483259 1_555
Bi4 Ca42 3.223054 1_655
Bi4 Ca9 3.263375 1_545
Bi4 Ca32 3.275067 1_655
Bi4 Ca40 3.281967 1_545
Bi4 Ca13 3.303572 1_545
Bi4 Ca28 3.307126 1_555
Bi4 Ca20 3.360219 1_555
Bi4 Ca29 3.817208 1_645
Bi5 Mn2 2.812073 1_555
Bi5 Ca6 3.234232 1_455
Bi5 Ca2 3.250456 1_555
Bi5 Ca24 3.267560 1_565
Bi5 Ca31 3.302079 1_555
Bi5 Ca49 3.346680 1_455
Bi5 Ca29 3.483256 1_555
Bi6 Ca28 3.264505 1_455
Bi6 Ca29 3.264510 1_545
Bi6 Ca15 3.311800 1_555
Bi6 Ca24 3.311821 1_555
Bi6 Ca11 3.392698 1_555
Bi6 Ca53 3.392709 1_555
Bi6 Ca49 3.421702 1_445
Bi6 Ca42 3.421758 1_555
Bi7 Ca35 3.223054 1_554
Bi7 Ca20 3.263375 1_555
Bi7 Ca25 3.275067 1_555
Bi7 Ca44 3.281967 1_555
Bi7 Ca37 3.303572 1_655
Bi7 Ca12 3.307126 1_554
Bi7 Ca9 3.360219 1_545
Bi7 Ca48 3.817208 1_554
Bi8 Ca33 3.223048 1_555
Bi8 Ca19 3.263366 1_555
Bi8 Ca34 3.275060 1_555
Bi8 Ca23 3.281966 1_555
Bi8 Ca51 3.303568 1_545
Bi8 Ca32 3.307122 1_555
Bi8 Ca5 3.360232 1_555
Bi8 Ca22 3.817208 1_555
Bi9 Ca24 3.271570 1_555
Bi9 Ca3 3.271570 1_556
Bi9 Ca15 3.271615 1_555
Bi9 Ca55 3.271616 1_556
Bi9 Ca5 3.532464 1_556
Bi9 Ca53 3.532478 1_555
Bi9 Ca11 3.532482 1_555
Bi9 Ca50 3.532497 1_556
Bi10 Ca49 3.223048 1_555
Bi10 Ca36 3.263380 1_565
Bi10 Ca28 3.275063 1_565
Bi10 Ca41 3.281970 1_555
Bi10 Ca30 3.303570 1_555
Bi10 Ca54 3.307116 1_555
Bi10 Ca53 3.360222 1_665
Bi10 Ca18 3.817204 1_555
Bi11 Mn2 2.812073 1_555
Bi11 Ca1 3.234237 1_565
Bi11 Ca46 3.250459 1_555
Bi11 Ca45 3.267563 1_555
Bi11 Ca30 3.302086 1_555
Bi11 Ca35 3.346681 1_565
Bi11 Ca2 3.483258 1_555
Bi12 Mn0 2.812024 1_555
Bi12 Ca53 3.234184 1_565
Bi12 Ca7 3.250411 1_556
Bi12 Ca31 3.267553 1_555
Bi12 Ca24 3.302059 1_565
Bi12 Ca49 3.346673 1_455
Bi12 Ca54 3.483190 1_455
Bi13 Ca18 3.264502 1_555
Bi13 Ca54 3.264503 1_555
Bi13 Ca31 3.311800 1_655
Bi13 Ca44 3.311830 1_555
Bi13 Ca6 3.392694 1_555
Bi13 Ca26 3.392713 1_555
Bi13 Ca10 3.421713 1_555
Bi13 Ca49 3.421745 1_555
Bi14 Ca10 3.223073 1_555
Bi14 Ca21 3.263386 1_555
Bi14 Ca46 3.275067 1_555
Bi14 Ca30 3.281981 1_555
Bi14 Ca41 3.303624 1_555
Bi14 Ca18 3.307087 1_555
Bi14 Ca50 3.360246 1_555
Bi14 Ca54 3.817235 1_555
Bi15 Mn3 2.812025 1_555
Bi15 Ca19 3.234190 1_555
Bi15 Ca28 3.250414 1_555
Bi15 Ca13 3.267556 1_545
Bi15 Ca41 3.302058 1_545
Bi15 Ca8 3.346679 1_545
Bi15 Ca25 3.483192 1_555
Bi16 Mn0 2.812025 1_544
Bi16 Ca5 3.234190 1_555
Bi16 Ca12 3.250414 1_454
Bi16 Ca37 3.267556 1_555
Bi16 Ca3 3.302058 1_555
Bi16 Ca33 3.346679 1_555
Bi16 Ca32 3.483192 1_555
Bi17 Ca22 3.264503 1_555
Bi17 Ca32 3.264504 1_555
Bi17 Ca37 3.311801 1_555
Bi17 Ca38 3.311828 1_555
Bi17 Ca43 3.392694 1_555
Bi17 Ca20 3.392714 1_455
Bi17 Ca42 3.421714 1_555
Bi17 Ca33 3.421757 1_555
Bi18 Mn2 2.812074 1_555
Bi18 Ca43 3.234233 1_555
Bi18 Ca4 3.250457 1_555
Bi18 Ca3 3.267564 1_555
Bi18 Ca37 3.302080 1_555
Bi18 Ca33 3.346688 1_555
Bi18 Ca46 3.483259 1_555
Bi19 Ca46 3.264507 1_555
Bi19 Ca34 3.264512 1_555
Bi19 Ca55 3.311793 1_555
Bi19 Ca3 3.311829 1_555
Bi19 Ca50 3.392698 1_555
Bi19 Ca5 3.392710 1_555
Bi19 Ca33 3.421710 1_555
Bi19 Ca10 3.421743 1_555
Bi20 Ca23 3.271570 1_555
Bi20 Ca41 3.271570 1_545
Bi20 Ca30 3.271615 1_545
Bi20 Ca51 3.271616 1_545
Bi20 Ca19 3.532464 1_555
Bi20 Ca36 3.532478 1_555
Bi20 Ca1 3.532482 1_555
Bi20 Ca21 3.532497 1_545
Bi21 Mn0 2.812026 1_554
Bi21 Ca27 3.234189 1_454
Bi21 Ca32 3.250412 1_565
Bi21 Ca51 3.267555 1_555
Bi21 Ca40 3.302065 1_455
Bi21 Ca47 3.346672 1_555
Bi21 Ca7 3.483190 1_555
Bi22 Mn1 2.812073 1_555
Bi22 Ca17 3.234232 1_556
Bi22 Ca22 3.250456 1_555
Bi22 Ca23 3.267560 1_555
Bi22 Ca52 3.302079 1_555
Bi22 Ca14 3.346680 1_555
Bi22 Ca48 3.483256 1_555
Bi23 Ca33 3.223086 1_555
Bi23 Ca39 3.263376 1_555
Bi23 Ca22 3.275059 1_555
Bi23 Ca52 3.281976 1_555
Bi23 Ca45 3.303623 1_555
Bi23 Ca46 3.307094 1_555
Bi23 Ca43 3.360240 1_555
Bi23 Ca34 3.817239 1_555
Bi24 Mn3 2.812026 1_555
Bi24 Ca26 3.234189 1_555
Bi24 Ca25 3.250412 1_555
Bi24 Ca55 3.267555 1_555
Bi24 Ca44 3.302065 1_555
Bi24 Ca10 3.346684 1_555
Bi24 Ca34 3.483190 1_555
Bi25 Ca35 3.223087 1_555
Bi25 Ca11 3.263372 1_555
Bi25 Ca48 3.275063 1_555
Bi25 Ca55 3.281978 1_556
Bi25 Ca24 3.303624 1_555
Bi25 Ca2 3.307092 1_545
Bi25 Ca1 3.360248 1_555
Bi25 Ca25 3.817240 1_556
Bi26 Ca8 3.223048 1_545
Bi26 Ca5 3.263366 1_555
Bi26 Ca7 3.275060 1_545
Bi26 Ca24 3.281966 1_554
Bi26 Ca55 3.303568 1_555
Bi26 Ca25 3.307122 1_555
Bi26 Ca19 3.360232 1_555
Bi26 Ca2 3.817208 1_544
Bi27 Ca49 3.223089 1_555
Bi27 Ca17 3.263382 1_555
Bi27 Ca18 3.275058 1_555
Bi27 Ca13 3.281971 1_555
Bi27 Ca40 3.303623 1_555
Bi27 Ca29 3.307093 1_655
Bi27 Ca6 3.360245 1_555
Bi27 Ca28 3.817231 1_565
Bi28 Ca10 3.223046 1_555
Bi28 Ca27 3.263374 1_555
Bi28 Ca54 3.275069 1_555
Bi28 Ca45 3.281964 1_555
Bi28 Ca52 3.303568 1_555
Bi28 Ca34 3.307123 1_555
Bi28 Ca26 3.360221 1_555
Bi28 Ca46 3.817204 1_555
Bi29 Mn3 2.812024 1_555
Bi29 Ca36 3.234184 1_555
Bi29 Ca34 3.250411 1_555
Bi29 Ca52 3.267553 1_555
Bi29 Ca23 3.302059 1_555
Bi29 Ca14 3.346673 1_555
Bi29 Ca16 3.483190 1_555
Bi30 Ca45 3.271571 1_555
Bi30 Ca40 3.271572 1_556
Bi30 Ca52 3.271614 1_555
Bi30 Ca13 3.271617 1_556
Bi30 Ca9 3.532482 1_556
Bi30 Ca27 3.532482 1_555
Bi30 Ca39 3.532490 1_555
Bi30 Ca17 3.532491 1_556
Bi31 Ca47 3.223085 1_555
Bi31 Ca50 3.263386 1_555
Bi31 Ca0 3.275067 1_555
Bi31 Ca15 3.281981 1_554
Bi31 Ca3 3.303624 1_555
Bi31 Ca4 3.307087 1_555
Bi31 Ca21 3.360246 1_555
Bi31 Ca16 3.817235 1_454
Bi32 Mn3 2.812025 1_555
Bi32 Ca20 3.234189 1_555
Bi32 Ca16 3.250411 1_555
Bi32 Ca15 3.267554 1_655
Bi32 Ca38 3.302066 1_655
Bi32 Ca42 3.346678 1_655
Bi32 Ca28 3.483191 1_555
Bi33 Ca14 3.223089 1_554
Bi33 Ca6 3.263382 1_555
Bi33 Ca4 3.275058 1_655
Bi33 Ca37 3.281971 1_655
Bi33 Ca44 3.303623 1_555
Bi33 Ca48 3.307093 1_554
Bi33 Ca17 3.360245 1_555
Bi33 Ca12 3.817231 1_554
Bi34 Ca4 3.264502 1_656
Bi34 Ca16 3.264503 1_555
Bi34 Ca52 3.311800 1_555
Bi34 Ca40 3.311830 1_556
Bi34 Ca17 3.392694 1_556
Bi34 Ca27 3.392713 1_555
Bi34 Ca47 3.421712 1_656
Bi34 Ca14 3.421745 1_555
Bi35 Ca8 3.223086 1_556
Bi35 Ca43 3.263376 1_555
Bi35 Ca2 3.275059 1_555
Bi35 Ca31 3.281976 1_555
Bi35 Ca38 3.303623 1_555
Bi35 Ca0 3.307094 1_556
Bi35 Ca39 3.360240 1_555
Bi35 Ca7 3.817239 1_556
Bi36 Ca38 3.271571 1_655
Bi36 Ca44 3.271572 1_555
Bi36 Ca31 3.271614 1_655
Bi36 Ca37 3.271617 1_655
Bi36 Ca20 3.532482 1_555
Bi36 Ca26 3.532482 1_555
Bi36 Ca43 3.532490 1_655
Bi36 Ca6 3.532491 1_555
Bi37 Ca42 3.223087 1_555
Bi37 Ca1 3.263372 1_555
Bi37 Ca29 3.275063 1_545
Bi37 Ca51 3.281978 1_545
Bi37 Ca23 3.303624 1_555
Bi37 Ca22 3.307092 1_555
Bi37 Ca11 3.360248 1_555
Bi37 Ca32 3.817240 1_555
Bi38 Ca12 3.264505 1_555
Bi38 Ca48 3.264510 1_555
Bi38 Ca30 3.311800 1_545
Bi38 Ca23 3.311821 1_555
Bi38 Ca1 3.392698 1_555
Bi38 Ca36 3.392709 1_555
Bi38 Ca14 3.421702 1_555
Bi38 Ca35 3.421758 1_555
Bi39 Mn1 2.812074 1_554
Bi39 Ca39 3.234233 1_554
Bi39 Ca18 3.250457 1_555
Bi39 Ca41 3.267564 1_555
Bi39 Ca13 3.302080 1_555
Bi39 Ca8 3.346688 1_555
Bi39 Ca0 3.483259 1_555
Bi40 Mn1 2.812073 1_554
Bi40 Ca50 3.234232 1_555
Bi40 Ca48 3.250457 1_554
Bi40 Ca44 3.267560 1_555
Bi40 Ca55 3.302086 1_555
Bi40 Ca10 3.346695 1_555
Bi40 Ca18 3.483259 1_555
Bi41 Ca47 3.223058 1_556
Bi41 Ca26 3.263374 1_455
Bi41 Ca16 3.275069 1_455
Bi41 Ca38 3.281964 1_555
Bi41 Ca31 3.303568 1_555
Bi41 Ca7 3.307123 1_556
Bi41 Ca27 3.360221 1_455
Bi41 Ca0 3.817204 1_556
Bi42 Ca14 3.223048 1_555
Bi42 Ca53 3.263380 1_655
Bi42 Ca12 3.275063 1_555
Bi42 Ca3 3.281970 1_656
Bi42 Ca15 3.303570 1_655
Bi42 Ca16 3.307116 1_555
Bi42 Ca36 3.360222 1_555
Bi42 Ca4 3.817204 1_656
Bi43 Ca2 3.264503 1_554
Bi43 Ca25 3.264504 1_565
Bi43 Ca13 3.311801 1_555
Bi43 Ca45 3.311828 1_554
Bi43 Ca39 3.392694 1_554
Bi43 Ca9 3.392714 1_555
Bi43 Ca35 3.421714 1_564
Bi43 Ca8 3.421757 1_555
