# generated using pymatgen
data_Ca3Cu3(AsO4)4
_symmetry_space_group_name_H-M   'P 1'
_cell_length_a   5.14602600
_cell_length_b   9.27211300
_cell_length_c   16.91954939
_cell_angle_alpha   63.30750500
_cell_angle_beta   90.00000000
_cell_angle_gamma   90.00000000
_symmetry_Int_Tables_number   1
_chemical_formula_structural   Ca3Cu3(AsO4)4
_chemical_formula_sum   'Ca6 Cu6 As8 O32'
_cell_volume   721.27375586
_cell_formula_units_Z   2
loop_
 _symmetry_equiv_pos_site_id
 _symmetry_equiv_pos_as_xyz
  1  'x, y, z'
loop_
 _atom_site_type_symbol
 _atom_site_label
 _atom_site_symmetry_multiplicity
 _atom_site_fract_x
 _atom_site_fract_y
 _atom_site_fract_z
 _atom_site_occupancy
  Ca  Ca0  1  0.53175600  0.30321200  0.23281600  1
  Ca  Ca1  1  0.03175600  0.69678800  0.26718400  1
  Ca  Ca2  1  0.46824400  0.69678800  0.76718400  1
  Ca  Ca3  1  0.96824400  0.30321200  0.73281600  1
  Ca  Ca4  1  0.50000000  0.00000000  0.50000000  1
  Ca  Ca5  1  0.00000000  0.00000000  0.00000000  1
  Cu  Cu0  1  0.47350300  0.20947400  0.61885600  1
  Cu  Cu1  1  0.52649700  0.79052600  0.38114400  1
  Cu  Cu2  1  0.97350300  0.79052600  0.88114400  1
  Cu  Cu3  1  0.02649700  0.20947400  0.11885600  1
  Cu  Cu4  1  0.00000000  0.50000000  0.50000000  1
  Cu  Cu5  1  0.50000000  0.50000000  0.00000000  1
  As  As0  1  0.00768000  0.03959300  0.34031300  1
  As  As1  1  0.49305400  0.43600000  0.40639600  1
  As  As2  1  0.99305400  0.56400000  0.09360400  1
  As  As3  1  0.00694600  0.43600000  0.90639600  1
  As  As4  1  0.99232000  0.96040700  0.65968700  1
  As  As5  1  0.50694600  0.56400000  0.59360400  1
  As  As6  1  0.49232000  0.03959300  0.84031300  1
  As  As7  1  0.50768000  0.96040700  0.15968700  1
  O  O0  1  0.44412700  0.80889500  0.26665500  1
  O  O1  1  0.93523000  0.74813100  0.00428900  1
  O  O2  1  0.38738500  0.43924400  0.31125300  1
  O  O3  1  0.40590300  0.14574300  0.15021100  1
  O  O4  1  0.61261500  0.56075600  0.68874700  1
  O  O5  1  0.05587300  0.80889500  0.76665500  1
  O  O6  1  0.88738500  0.56075600  0.18874700  1
  O  O7  1  0.68711600  0.50121500  0.89863300  1
  O  O8  1  0.66194500  0.10651400  0.90292700  1
  O  O9  1  0.55587300  0.19110500  0.73334500  1
  O  O10  1  0.09409700  0.14574300  0.65021100  1
  O  O11  1  0.31288400  0.49878500  0.10136700  1
  O  O12  1  0.30296600  0.58066100  0.42250400  1
  O  O13  1  0.33805500  0.89348600  0.09707300  1
  O  O14  1  0.66123700  0.96130000  0.64358900  1
  O  O15  1  0.16123700  0.03870000  0.85641100  1
  O  O16  1  0.80296600  0.41933900  0.07749600  1
  O  O17  1  0.11261500  0.43924400  0.81125300  1
  O  O18  1  0.16194500  0.89348600  0.59707300  1
  O  O19  1  0.18711600  0.49878500  0.60136700  1
  O  O20  1  0.83876300  0.96130000  0.14358900  1
  O  O21  1  0.33876300  0.03870000  0.35641100  1
  O  O22  1  0.06477000  0.25186900  0.99571100  1
  O  O23  1  0.43523000  0.25186900  0.49571100  1
  O  O24  1  0.69703400  0.41933900  0.57749600  1
  O  O25  1  0.94412700  0.19110500  0.23334500  1
  O  O26  1  0.59409700  0.85425700  0.84978900  1
  O  O27  1  0.83805500  0.10651400  0.40292700  1
  O  O28  1  0.56477000  0.74813100  0.50428900  1
  O  O29  1  0.81288400  0.50121500  0.39863300  1
  O  O30  1  0.19703400  0.58066100  0.92250400  1
  O  O31  1  0.90590300  0.85425700  0.34978900  1
loop_
_geom_bond_atom_site_label_1
_geom_bond_atom_site_label_2
_geom_bond_distance
_geom_bond_site_symmetry_2
Ca0 O2 2.325495 1_555
Ca0 O25 2.361230 1_555
Ca0 O11 2.424882 1_555
Ca0 O3 2.517533 1_555
Ca0 O21 2.601308 1_555
Ca0 O16 2.733345 1_555
Ca0 O6 2.829828 1_555
Ca1 O6 2.325495 1_455
Ca1 O0 2.361230 1_555
Ca1 O29 2.424882 1_455
Ca1 O31 2.517533 1_455
Ca1 O20 2.601308 1_455
Ca1 O12 2.733345 1_555
Ca1 O2 2.829828 1_555
Ca2 O4 2.325495 1_555
Ca2 O5 2.361230 1_555
Ca2 O7 2.424882 1_555
Ca2 O26 2.517533 1_555
Ca2 O14 2.601308 1_555
Ca2 O30 2.733345 1_555
Ca2 O17 2.829828 1_555
Ca3 O17 2.325495 1_655
Ca3 O9 2.361230 1_555
Ca3 O19 2.424882 1_655
Ca3 O10 2.517533 1_655
Ca3 O15 2.601308 1_655
Ca3 O24 2.733345 1_555
Ca3 O4 2.829828 1_555
Ca4 O18 2.289545 1_545
Ca4 O27 2.289545 1_555
Ca4 O23 2.327660 1_555
Ca4 O28 2.327660 1_545
Ca4 O14 2.436451 1_545
Ca4 O21 2.436451 1_555
Ca5 O13 2.289545 1_545
Ca5 O8 2.289545 1_454
Ca5 O22 2.327660 1_554
Ca5 O1 2.327660 1_445
Ca5 O20 2.436451 1_445
Ca5 O15 2.436451 1_554
Cu0 O9 1.914325 1_555
Cu0 O23 1.949027 1_555
Cu0 O10 2.039849 1_555
Cu0 O24 2.091892 1_555
Cu0 O14 2.353375 1_545
Cu1 O0 1.914325 1_555
Cu1 O28 1.949027 1_555
Cu1 O31 2.039849 1_555
Cu1 O12 2.091892 1_555
Cu1 O21 2.353375 1_565
Cu2 O5 1.914325 1_655
Cu2 O1 1.949027 1_556
Cu2 O26 2.039849 1_555
Cu2 O30 2.091892 1_655
Cu2 O15 2.353375 1_665
Cu3 O25 1.914325 1_455
Cu3 O22 1.949027 1_554
Cu3 O3 2.039849 1_555
Cu3 O16 2.091892 1_455
Cu3 O20 2.353375 1_445
Cu4 O12 1.956599 1_555
Cu4 O24 1.956599 1_455
Cu4 O19 1.962515 1_555
Cu4 O29 1.962515 1_455
Cu5 O30 1.956599 1_554
Cu5 O16 1.956599 1_555
Cu5 O11 1.962515 1_555
Cu5 O7 1.962515 1_554
As0 O27 1.691114 1_455
As0 O21 1.724828 1_555
As0 O31 1.733661 1_445
As0 O25 1.752670 1_455
As1 O2 1.686558 1_555
As1 O23 1.723113 1_555
As1 O29 1.737921 1_555
As1 O12 1.777271 1_555
As2 O6 1.686558 1_555
As2 O1 1.723113 1_555
As2 O11 1.737921 1_655
As2 O16 1.777271 1_555
As3 O17 1.686558 1_555
As3 O22 1.723113 1_555
As3 O7 1.737921 1_455
As3 O30 1.777271 1_555
As4 O18 1.691114 1_655
As4 O14 1.724828 1_555
As4 O10 1.733661 1_665
As4 O5 1.752670 1_655
As5 O4 1.686558 1_555
As5 O28 1.723113 1_555
As5 O19 1.737921 1_555
As5 O24 1.777271 1_555
As6 O8 1.691114 1_555
As6 O15 1.724828 1_555
As6 O26 1.733661 1_545
As6 O9 1.752670 1_555
As7 O13 1.691114 1_555
As7 O20 1.724828 1_555
As7 O3 1.733661 1_565
As7 O0 1.752670 1_555
