# generated using pymatgen
data_HfI4
_symmetry_space_group_name_H-M   'P 1'
_cell_length_a   8.60273141
_cell_length_b   8.60273130
_cell_length_c   13.07252486
_cell_angle_alpha   108.12314207
_cell_angle_beta   108.12313889
_cell_angle_gamma   89.83372900
_symmetry_Int_Tables_number   1
_chemical_formula_structural   HfI4
_chemical_formula_sum   'Hf4 I16'
_cell_volume   869.11789300
_cell_formula_units_Z   4
loop_
 _symmetry_equiv_pos_site_id
 _symmetry_equiv_pos_as_xyz
  1  'x, y, z'
loop_
 _atom_site_type_symbol
 _atom_site_label
 _atom_site_symmetry_multiplicity
 _atom_site_fract_x
 _atom_site_fract_y
 _atom_site_fract_z
 _atom_site_occupancy
  Hf  Hf0  1  0.21291228  0.93922288  0.62420929  1
  Hf  Hf1  1  0.93922288  0.21291228  0.12420929  1
  Hf  Hf2  1  0.78708772  0.06077712  0.37579071  1
  Hf  Hf3  1  0.06077712  0.78708772  0.87579071  1
  I  I0  1  0.17175279  0.94801994  0.11738280  1
  I  I1  1  0.71558671  0.95101617  0.13374441  1
  I  I2  1  0.04898383  0.28441329  0.36625559  1
  I  I3  1  0.18104368  0.42403941  0.13737461  1
  I  I4  1  0.57596059  0.81895632  0.36262539  1
  I  I5  1  0.28441329  0.04898383  0.86625659  1
  I  I6  1  0.58981293  0.30478998  0.38943727  1
  I  I7  1  0.05198006  0.82824721  0.38261720  1
  I  I8  1  0.81895632  0.57596059  0.86262539  1
  I  I9  1  0.42403941  0.18104368  0.63737461  1
  I  I10  1  0.30478998  0.58981293  0.88943727  1
  I  I11  1  0.69521002  0.41018707  0.11056273  1
  I  I12  1  0.82824721  0.05198006  0.88261720  1
  I  I13  1  0.41018707  0.69521002  0.61056273  1
  I  I14  1  0.94801994  0.17175279  0.61738280  1
  I  I15  1  0.95101617  0.71558671  0.63374341  1
loop_
_geom_bond_atom_site_label_1
_geom_bond_atom_site_label_2
_geom_bond_distance
_geom_bond_site_symmetry_2
Hf0 I13 2.693181 1_555
Hf0 I9 2.694607 1_565
Hf0 I7 2.866048 1_555
Hf0 I5 2.866308 1_565
Hf0 I15 3.023572 1_455
Hf0 I14 3.026638 1_465
Hf1 I11 2.693181 1_555
Hf1 I3 2.694607 1_655
Hf1 I12 2.866048 1_554
Hf1 I2 2.866295 1_655
Hf1 I1 3.023578 1_545
Hf1 I0 3.026638 1_645
Hf2 I6 2.693181 1_555
Hf2 I4 2.694607 1_545
Hf2 I14 2.866048 1_555
Hf2 I1 2.866295 1_545
Hf2 I2 3.023578 1_655
Hf2 I7 3.026638 1_645
Hf3 I10 2.693181 1_555
Hf3 I8 2.694607 1_455
Hf3 I0 2.866048 1_556
Hf3 I15 2.866308 1_455
Hf3 I5 3.023572 1_565
Hf3 I12 3.026638 1_465
