# generated using pymatgen
data_MgAl6O10
_symmetry_space_group_name_H-M   'P 1'
_cell_length_a   5.67998731
_cell_length_b   5.67998731
_cell_length_c   23.54961782
_cell_angle_alpha   82.86712546
_cell_angle_beta   82.86712546
_cell_angle_gamma   60.58947356
_symmetry_Int_Tables_number   1
_chemical_formula_structural   MgAl6O10
_chemical_formula_sum   'Mg4 Al24 O40'
_cell_volume   654.96856084
_cell_formula_units_Z   4
loop_
 _symmetry_equiv_pos_site_id
 _symmetry_equiv_pos_as_xyz
  1  'x, y, z'
loop_
 _atom_site_type_symbol
 _atom_site_label
 _atom_site_symmetry_multiplicity
 _atom_site_fract_x
 _atom_site_fract_y
 _atom_site_fract_z
 _atom_site_occupancy
  Mg  Mg0  1  0.93238500  0.93238500  0.21955800  1
  Mg  Mg1  1  0.13326400  0.13326400  0.61752000  1
  Mg  Mg2  1  0.72623700  0.72623700  0.82522200  1
  Mg  Mg3  1  0.07432600  0.07432600  0.77342800  1
  Al  Al0  1  0.32901000  0.32901000  0.02679500  1
  Al  Al1  1  0.80038300  0.29876200  0.10126400  1
  Al  Al2  1  0.29876200  0.80038300  0.10126400  1
  Al  Al3  1  0.40214600  0.40214600  0.30000400  1
  Al  Al4  1  0.40294000  0.89562600  0.29988900  1
  Al  Al5  1  0.60989900  0.60989900  0.19890400  1
  Al  Al6  1  0.53000100  0.53000100  0.42584100  1
  Al  Al7  1  0.89562600  0.40294000  0.29988900  1
  Al  Al8  1  0.00133400  0.50000900  0.49961200  1
  Al  Al9  1  0.18694300  0.18694300  0.40548300  1
  Al  Al10  1  0.26843600  0.26843600  0.17483200  1
  Al  Al11  1  0.50000900  0.00133400  0.49961200  1
  Al  Al12  1  0.60348300  0.60348300  0.69825100  1
  Al  Al13  1  0.86751400  0.86751400  0.37810400  1
  Al  Al14  1  0.81100500  0.81100500  0.59747200  1
  Al  Al15  1  0.19941400  0.19941400  0.90127600  1
  Al  Al16  1  0.09828500  0.60306000  0.69842800  1
  Al  Al17  1  0.46967000  0.46967000  0.57311600  1
  Al  Al18  1  0.20105800  0.69648400  0.90093300  1
  Al  Al19  1  0.40033800  0.40033800  0.79889900  1
  Al  Al20  1  0.60306000  0.09828500  0.69842800  1
  Al  Al21  1  0.69648400  0.20105800  0.90093300  1
  Al  Al22  1  0.98598700  0.98598700  0.00681900  1
  Al  Al23  1  0.66650700  0.66650700  0.98053300  1
  O  O0  1  0.66374100  0.16928900  0.04596300  1
  O  O1  1  0.96465900  0.96465900  0.13794500  1
  O  O2  1  0.16928900  0.66374100  0.04596300  1
  O  O3  1  0.14452900  0.14452900  0.04785100  1
  O  O4  1  0.28576300  0.72926900  0.25503400  1
  O  O5  1  0.45582100  0.45582100  0.15043000  1
  O  O6  1  0.72926900  0.28576300  0.25503400  1
  O  O7  1  0.43444300  0.93132200  0.15460300  1
  O  O8  1  0.55153600  0.55153600  0.34641400  1
  O  O9  1  0.63764000  0.63764000  0.05552300  1
  O  O10  1  0.73472900  0.73472900  0.25437900  1
  O  O11  1  0.93132200  0.43444300  0.15460300  1
  O  O12  1  0.86492800  0.36966300  0.44476300  1
  O  O13  1  0.05762800  0.05762800  0.34831400  1
  O  O14  1  0.06215100  0.52959700  0.34643500  1
  O  O15  1  0.24757900  0.24757900  0.25585200  1
  O  O16  1  0.16579000  0.16579000  0.53621600  1
  O  O17  1  0.36966300  0.86492800  0.44476300  1
  O  O18  1  0.34551400  0.34551400  0.44653100  1
  O  O19  1  0.52959700  0.06215100  0.34643500  1
  O  O20  1  0.65727100  0.65727100  0.54870000  1
  O  O21  1  0.48373500  0.93167100  0.65374400  1
  O  O22  1  0.83877600  0.83877600  0.45320300  1
  O  O23  1  0.75452200  0.75452200  0.74292600  1
  O  O24  1  0.63568800  0.13188400  0.55306300  1
  O  O25  1  0.93167100  0.48373500  0.65374400  1
  O  O26  1  0.93687900  0.93687900  0.65314200  1
  O  O27  1  0.13188500  0.63568800  0.55306300  1
  O  O28  1  0.08572600  0.52882400  0.85464500  1
  O  O29  1  0.26986800  0.26986800  0.74726300  1
  O  O30  1  0.34988400  0.34988400  0.94695000  1
  O  O31  1  0.52882400  0.08572600  0.85464500  1
  O  O32  1  0.45030900  0.45030900  0.65331400  1
  O  O33  1  0.27138900  0.71246400  0.74736400  1
  O  O34  1  0.53016900  0.53016900  0.85451800  1
  O  O35  1  0.71246400  0.27138900  0.74736400  1
  O  O36  1  0.85509800  0.85509800  0.95021200  1
  O  O37  1  0.85923800  0.33266900  0.94801900  1
  O  O38  1  0.04424300  0.04424300  0.86071900  1
  O  O39  1  0.33266900  0.85923800  0.94801900  1
loop_
_geom_bond_atom_site_label_1
_geom_bond_atom_site_label_2
_geom_bond_distance
_geom_bond_site_symmetry_2
Mg0 O1 1.902401 1_555
Mg0 O6 1.990114 1_565
Mg0 O4 1.990114 1_655
Mg0 O10 1.993465 1_555
Mg1 O16 1.895280 1_555
Mg1 O25 1.985470 1_455
Mg1 O21 1.985470 1_545
Mg1 O26 1.987335 1_445
Mg2 O23 1.917895 1_555
Mg2 O34 1.947546 1_555
Mg2 O28 1.953589 1_655
Mg2 O31 1.953589 1_565
Mg3 O29 1.928345 1_555
Mg3 O35 1.933225 1_455
Mg3 O33 1.933225 1_545
Mg3 O38 2.034302 1_555
Al0 O0 1.749006 1_555
Al0 O2 1.749006 1_555
Al0 O3 1.806143 1_555
Al0 O30 1.861932 1_554
Al1 O1 1.808896 1_545
Al1 O9 1.924746 1_555
Al1 O11 1.939128 1_555
Al1 O0 1.971965 1_555
Al1 O5 1.986389 1_555
Al1 O3 2.037617 1_655
Al2 O1 1.808896 1_455
Al2 O9 1.924746 1_555
Al2 O7 1.939128 1_555
Al2 O2 1.971965 1_555
Al2 O5 1.986389 1_555
Al2 O3 2.037617 1_565
Al3 O6 1.868090 1_555
Al3 O4 1.868090 1_555
Al3 O19 1.936031 1_555
Al3 O14 1.936031 1_555
Al3 O8 1.949947 1_555
Al3 O15 1.957819 1_555
Al4 O4 1.868624 1_555
Al4 O10 1.893551 1_555
Al4 O19 1.932703 1_565
Al4 O8 1.952016 1_555
Al4 O15 1.957142 1_565
Al4 O13 1.981605 1_565
Al5 O7 1.847422 1_555
Al5 O11 1.847422 1_555
Al5 O10 1.914678 1_555
Al5 O4 1.997197 1_555
Al5 O6 1.997197 1_555
Al5 O5 2.020732 1_555
Al6 O17 1.747912 1_555
Al6 O12 1.747912 1_555
Al6 O18 1.805095 1_555
Al6 O8 1.851934 1_555
Al7 O6 1.868624 1_555
Al7 O10 1.893551 1_555
Al7 O14 1.932703 1_655
Al7 O8 1.952016 1_555
Al7 O15 1.957142 1_655
Al7 O13 1.981605 1_655
Al8 O16 1.808698 1_555
Al8 O22 1.932085 1_455
Al8 O27 1.939635 1_555
Al8 O12 1.966276 1_455
Al8 O20 1.983524 1_455
Al8 O18 2.033497 1_555
Al9 O17 1.797805 1_545
Al9 O12 1.797805 1_455
Al9 O18 1.945781 1_555
Al9 O13 1.978020 1_555
Al9 O14 2.107561 1_555
Al9 O19 2.107561 1_555
Al10 O11 1.767556 1_455
Al10 O7 1.767556 1_545
Al10 O5 1.845179 1_555
Al10 O15 1.889447 1_555
Al11 O16 1.808698 1_555
Al11 O22 1.932085 1_545
Al11 O24 1.939631 1_555
Al11 O17 1.966276 1_545
Al11 O20 1.983524 1_545
Al11 O18 2.033497 1_555
Al12 O21 1.866189 1_555
Al12 O25 1.866189 1_555
Al12 O23 1.936488 1_555
Al12 O33 1.941186 1_555
Al12 O35 1.941186 1_555
Al12 O32 1.958188 1_555
Al13 O22 1.750386 1_555
Al13 O19 1.878591 1_565
Al13 O14 1.878591 1_655
Al13 O13 1.895588 1_665
Al14 O24 1.846604 1_565
Al14 O27 1.846607 1_655
Al14 O26 1.925791 1_555
Al14 O21 2.010933 1_555
Al14 O25 2.010933 1_555
Al14 O20 2.022666 1_555
Al15 O31 1.898138 1_555
Al15 O28 1.898138 1_555
Al15 O38 1.909680 1_555
Al15 O37 1.939166 1_455
Al15 O39 1.939166 1_545
Al15 O30 1.947264 1_555
Al16 O25 1.875278 1_455
Al16 O26 1.899051 1_455
Al16 O23 1.927884 1_455
Al16 O33 1.933982 1_555
Al16 O29 1.944337 1_555
Al16 O32 1.969018 1_555
Al17 O27 1.769419 1_555
Al17 O24 1.769424 1_555
Al17 O20 1.847250 1_555
Al17 O32 1.870785 1_555
Al18 O28 1.889997 1_555
Al18 O34 1.896383 1_555
Al18 O38 1.899705 1_565
Al18 O39 1.944768 1_555
Al18 O30 1.956502 1_555
Al18 O36 1.993601 1_455
Al19 O33 1.887735 1_555
Al19 O35 1.887735 1_555
Al19 O29 1.887853 1_555
Al19 O34 1.953731 1_555
Al19 O31 1.955474 1_555
Al19 O28 1.955474 1_555
Al20 O21 1.875278 1_545
Al20 O26 1.899051 1_545
Al20 O23 1.927884 1_545
Al20 O35 1.933982 1_555
Al20 O29 1.944337 1_555
Al20 O32 1.969018 1_555
Al21 O31 1.889997 1_555
Al21 O34 1.896383 1_555
Al21 O38 1.899705 1_655
Al21 O37 1.944768 1_555
Al21 O30 1.956502 1_555
Al21 O36 1.993601 1_545
Al22 O2 1.797684 1_655
Al22 O0 1.797684 1_565
Al22 O3 1.945303 1_665
Al22 O36 1.979292 1_554
Al22 O37 2.119291 1_564
Al22 O39 2.119291 1_654
Al23 O9 1.747873 1_556
Al23 O39 1.869212 1_555
Al23 O37 1.869212 1_555
Al23 O36 1.884628 1_555
