# generated using pymatgen
data_Tb2Co2I
_symmetry_space_group_name_H-M   'P 1'
_cell_length_a   3.98734718
_cell_length_b   3.98734665
_cell_length_c   17.02203708
_cell_angle_alpha   90.00000000
_cell_angle_beta   90.00000000
_cell_angle_gamma   120.00001350
_symmetry_Int_Tables_number   1
_chemical_formula_structural   Tb2Co2I
_chemical_formula_sum   'Tb4 Co4 I2'
_cell_volume   234.37438732
_cell_formula_units_Z   2
loop_
 _symmetry_equiv_pos_site_id
 _symmetry_equiv_pos_as_xyz
  1  'x, y, z'
loop_
 _atom_site_type_symbol
 _atom_site_label
 _atom_site_symmetry_multiplicity
 _atom_site_fract_x
 _atom_site_fract_y
 _atom_site_fract_z
 _atom_site_occupancy
  Tb  Tb0  1  0.00000000  -0.00000000  0.10462859  1
  Tb  Tb1  1  -0.00000000  0.00000000  0.60462859  1
  Tb  Tb2  1  0.00000000  -0.00000000  0.39537141  1
  Tb  Tb3  1  -0.00000000  0.00000000  0.89537141  1
  Co  Co0  1  0.66666700  0.33333300  0.99627847  1
  Co  Co1  1  0.33333300  0.66666700  0.00372053  1
  Co  Co2  1  0.66666700  0.33333300  0.50372153  1
  Co  Co3  1  0.33333300  0.66666700  0.49627947  1
  I  I0  1  0.66666700  0.33333300  0.25000000  1
  I  I1  1  0.33333300  0.66666700  0.75000000  1
loop_
_geom_bond_atom_site_label_1
_geom_bond_atom_site_label_2
_geom_bond_distance
_geom_bond_site_symmetry_2
Co0 Co1 2.305576 1_546
Co0 Co1 2.305576 1_656
Co0 Co1 2.305583 1_556
Co0 Tb3 2.872270 1_655
Co0 Tb3 2.872272 1_665
Co0 Tb3 2.872273 1_555
Co0 Tb0 2.949784 1_656
Co0 Tb0 2.949786 1_666
Co0 Tb0 2.949786 1_556
Co1 Tb0 2.872280 1_565
Co1 Tb0 2.872282 1_555
Co1 Tb0 2.872283 1_665
Co1 Tb3 2.949773 1_564
Co1 Tb3 2.949775 1_554
Co1 Tb3 2.949776 1_664
Co2 Co3 2.305576 1_545
Co2 Co3 2.305576 1_655
Co2 Co3 2.305583 1_555
Co2 Tb1 2.872270 1_655
Co2 Tb1 2.872272 1_665
Co2 Tb1 2.872273 1_555
Co2 Tb2 2.949784 1_655
Co2 Tb2 2.949786 1_665
Co2 Tb2 2.949786 1_555
Co3 Tb2 2.872280 1_565
Co3 Tb2 2.872282 1_555
Co3 Tb2 2.872283 1_665
Co3 Tb1 2.949773 1_565
Co3 Tb1 2.949775 1_555
Co3 Tb1 2.949776 1_665
I0 Tb2 3.379774 1_655
I0 Tb0 3.379774 1_655
I0 Tb0 3.379776 1_665
I0 Tb2 3.379776 1_665
I0 Tb2 3.379776 1_555
I0 Tb0 3.379776 1_555
I1 Tb3 3.379774 1_565
I1 Tb1 3.379774 1_565
I1 Tb1 3.379776 1_555
I1 Tb3 3.379776 1_555
I1 Tb1 3.379776 1_665
I1 Tb3 3.379776 1_665
