# generated using pymatgen
data_Mn4Si7
_symmetry_space_group_name_H-M   'P 1'
_cell_length_a   5.43272198
_cell_length_b   5.43266687
_cell_length_c   17.12332659
_cell_angle_alpha   90.00000000
_cell_angle_beta   90.00000000
_cell_angle_gamma   89.99541165
_symmetry_Int_Tables_number   1
_chemical_formula_structural   Mn4Si7
_chemical_formula_sum   'Mn16 Si28'
_cell_volume   505.38074912
_cell_formula_units_Z   4
loop_
 _symmetry_equiv_pos_site_id
 _symmetry_equiv_pos_as_xyz
  1  'x, y, z'
loop_
 _atom_site_type_symbol
 _atom_site_label
 _atom_site_symmetry_multiplicity
 _atom_site_fract_x
 _atom_site_fract_y
 _atom_site_fract_z
 _atom_site_occupancy
  Mn  Mn0  1  -0.00000000  0.50000000  0.31106501  1
  Mn  Mn1  1  0.50000000  0.50000000  0.87045888  1
  Mn  Mn2  1  0.50000000  0.00000000  0.19220303  1
  Mn  Mn3  1  0.50000000  0.50000000  0.62887585  1
  Mn  Mn4  1  0.50000000  0.50000000  0.12883185  1
  Mn  Mn5  1  0.50000000  0.50000000  0.37041569  1
  Mn  Mn6  1  -0.00000000  0.00000000  0.49865784  1
  Mn  Mn7  1  0.50000000  0.00000000  0.93364718  1
  Mn  Mn8  1  -0.00000000  0.00000000  0.25190756  1
  Mn  Mn9  1  0.50000000  0.00000000  0.43372008  1
  Mn  Mn10  1  -0.00000000  0.50000000  0.56391805  1
  Mn  Mn11  1  -0.00000000  0.00000000  0.99862388  1
  Mn  Mn12  1  0.50000000  0.00000000  0.69218665  1
  Mn  Mn13  1  -0.00000000  0.50000000  0.06387849  1
  Mn  Mn14  1  -0.00000000  0.50000000  0.81109550  1
  Mn  Mn15  1  -0.00000000  0.00000000  0.75189343  1
  Si  Si0  1  0.78859828  0.84668384  0.10772519  1
  Si  Si1  1  0.32733093  0.66305297  0.74770093  1
  Si  Si2  1  0.20968032  0.34647727  0.95422222  1
  Si  Si3  1  0.21140172  0.15331616  0.10772519  1
  Si  Si4  1  0.15815195  0.31251878  0.67932758  1
  Si  Si5  1  0.21109020  0.84660129  0.60780981  1
  Si  Si6  1  0.15839431  0.81353203  0.88298075  1
  Si  Si7  1  0.67197751  0.16339033  0.31473295  1
  Si  Si8  1  0.84184805  0.68748122  0.67932758  1
  Si  Si9  1  0.15837030  0.18658338  0.38302024  1
  Si  Si10  1  0.67268954  0.66302152  0.24768491  1
  Si  Si11  1  0.15809448  0.68760551  0.17928907  1
  Si  Si12  1  0.79031968  0.65352273  0.95422222  1
  Si  Si13  1  0.32802149  0.83660967  0.31473295  1
  Si  Si14  1  0.78890980  0.15339871  0.60780981  1
  Si  Si15  1  0.34726597  0.74874285  0.03087777  1
  Si  Si16  1  0.32803906  0.16341033  0.81471885  1
  Si  Si17  1  0.32731046  0.33697848  0.24768491  1
  Si  Si18  1  0.67196094  0.83658967  0.81471885  1
  Si  Si19  1  0.65273403  0.25125715  0.03087777  1
  Si  Si20  1  0.20998839  0.65343999  0.45430290  1
  Si  Si21  1  0.79001161  0.34656001  0.45430290  1
  Si  Si22  1  0.84162970  0.81341662  0.38302024  1
  Si  Si23  1  0.65275563  0.74932945  0.53106485  1
  Si  Si24  1  0.34724437  0.25067055  0.53106485  1
  Si  Si25  1  0.67266907  0.33694703  0.74770093  1
  Si  Si26  1  0.84190552  0.31239449  0.17928907  1
  Si  Si27  1  0.84160569  0.18646797  0.88298075  1
loop_
_geom_bond_atom_site_label_1
_geom_bond_atom_site_label_2
_geom_bond_distance
_geom_bond_site_symmetry_2
Mn0 Si10 2.263600 1_455
Mn0 Si17 2.263600 1_555
Mn0 Si22 2.270963 1_455
Mn0 Si9 2.270963 1_555
Mn0 Si13 2.554265 1_555
Mn0 Si7 2.554268 1_455
Mn0 Si11 2.620710 1_555
Mn0 Si26 2.620710 1_455
Mn0 Si20 2.830592 1_555
Mn0 Si21 2.830592 1_455
Mn1 Si18 2.264447 1_555
Mn1 Si16 2.264447 1_555
Mn1 Si12 2.289259 1_555
Mn1 Si2 2.289259 1_555
Mn1 Si1 2.466374 1_555
Mn1 Si25 2.466374 1_555
Mn1 Si27 2.528028 1_555
Mn1 Si6 2.528028 1_555
Mn2 Si10 2.265810 1_545
Mn2 Si17 2.265810 1_555
Mn2 Si3 2.290033 1_555
Mn2 Si0 2.290033 1_545
Mn2 Si7 2.462333 1_555
Mn2 Si13 2.462335 1_545
Mn2 Si11 2.525845 1_545
Mn2 Si26 2.525845 1_555
Mn3 Si8 2.287593 1_555
Mn3 Si4 2.287593 1_555
Mn3 Si23 2.308405 1_555
Mn3 Si24 2.308405 1_555
Mn3 Si1 2.409236 1_555
Mn3 Si25 2.409236 1_555
Mn3 Si5 2.477652 1_555
Mn3 Si14 2.477652 1_555
Mn4 Si26 2.288050 1_555
Mn4 Si11 2.288050 1_555
Mn4 Si15 2.308196 1_555
Mn4 Si19 2.308196 1_555
Mn4 Si17 2.409676 1_555
Mn4 Si10 2.409676 1_555
Mn4 Si0 2.477214 1_555
Mn4 Si3 2.477214 1_555
Mn5 Si7 2.264038 1_555
Mn5 Si13 2.264040 1_555
Mn5 Si21 2.289181 1_555
Mn5 Si20 2.289181 1_555
Mn5 Si17 2.466012 1_555
Mn5 Si10 2.466012 1_555
Mn5 Si9 2.528022 1_555
Mn5 Si22 2.528022 1_555
Mn6 Si21 2.328664 1_455
Mn6 Si20 2.328664 1_545
Mn6 Si14 2.345807 1_455
Mn6 Si5 2.345807 1_545
Mn6 Si9 2.385093 1_555
Mn6 Si22 2.385093 1_445
Mn6 Si24 2.392004 1_555
Mn6 Si23 2.392004 1_445
Mn7 Si6 2.285470 1_545
Mn7 Si27 2.285470 1_555
Mn7 Si19 2.307343 1_556
Mn7 Si15 2.307343 1_546
Mn7 Si16 2.409950 1_555
Mn7 Si18 2.409950 1_545
Mn7 Si12 2.480792 1_545
Mn7 Si2 2.480792 1_555
Mn8 Si13 2.262888 1_545
Mn8 Si7 2.262893 1_455
Mn8 Si11 2.272429 1_545
Mn8 Si26 2.272429 1_455
Mn8 Si10 2.553259 1_445
Mn8 Si17 2.553259 1_555
Mn8 Si9 2.609268 1_555
Mn8 Si22 2.609268 1_445
Mn8 Si0 2.847508 1_445
Mn8 Si3 2.847508 1_555
Mn9 Si9 2.285939 1_555
Mn9 Si22 2.285939 1_545
Mn9 Si24 2.306835 1_555
Mn9 Si23 2.306835 1_545
Mn9 Si7 2.410850 1_555
Mn9 Si13 2.410852 1_545
Mn9 Si20 2.480280 1_545
Mn9 Si21 2.480280 1_555
Mn10 Si5 2.329360 1_555
Mn10 Si14 2.329360 1_455
Mn10 Si20 2.349363 1_555
Mn10 Si21 2.349363 1_455
Mn10 Si4 2.383446 1_555
Mn10 Si8 2.383446 1_455
Mn10 Si23 2.389479 1_455
Mn10 Si24 2.389479 1_555
Mn11 Si12 2.327890 1_445
Mn11 Si2 2.327890 1_555
Mn11 Si3 2.345850 1_556
Mn11 Si0 2.345850 1_446
Mn11 Si27 2.384894 1_455
Mn11 Si6 2.384894 1_545
Mn11 Si19 2.393134 1_456
Mn11 Si15 2.393134 1_546
Mn12 Si25 2.265980 1_555
Mn12 Si1 2.265980 1_545
Mn12 Si14 2.290355 1_555
Mn12 Si5 2.290355 1_545
Mn12 Si16 2.462317 1_555
Mn12 Si18 2.462317 1_545
Mn12 Si4 2.525787 1_555
Mn12 Si8 2.525787 1_545
Mn13 Si3 2.330159 1_555
Mn13 Si0 2.330159 1_455
Mn13 Si2 2.349208 1_554
Mn13 Si12 2.349208 1_454
Mn13 Si11 2.383695 1_555
Mn13 Si26 2.383695 1_455
Mn13 Si15 2.388534 1_555
Mn13 Si19 2.388534 1_455
Mn14 Si25 2.263985 1_455
Mn14 Si1 2.263985 1_555
Mn14 Si27 2.270936 1_455
Mn14 Si6 2.270936 1_555
Mn14 Si16 2.554030 1_555
Mn14 Si18 2.554030 1_455
Mn14 Si4 2.620378 1_555
Mn14 Si8 2.620378 1_455
Mn14 Si12 2.828346 1_455
Mn14 Si2 2.828346 1_555
Mn15 Si18 2.263118 1_445
Mn15 Si16 2.263118 1_555
Mn15 Si4 2.272661 1_555
Mn15 Si8 2.272661 1_445
Mn15 Si25 2.552995 1_455
Mn15 Si1 2.552995 1_545
Mn15 Si27 2.608641 1_455
Mn15 Si6 2.608641 1_545
Mn15 Si14 2.845437 1_455
Mn15 Si5 2.845437 1_545
