# generated using pymatgen
data_TaIr
_symmetry_space_group_name_H-M   'P 1'
_cell_length_a   5.72370158
_cell_length_b   9.66474410
_cell_length_c   27.61132172
_cell_angle_alpha   90.00000000
_cell_angle_beta   90.00000000
_cell_angle_gamma   90.00000000
_symmetry_Int_Tables_number   1
_chemical_formula_structural   TaIr
_chemical_formula_sum   'Ta48 Ir48'
_cell_volume   1527.40616185
_cell_formula_units_Z   48
loop_
 _symmetry_equiv_pos_site_id
 _symmetry_equiv_pos_as_xyz
  1  'x, y, z'
loop_
 _atom_site_type_symbol
 _atom_site_label
 _atom_site_symmetry_multiplicity
 _atom_site_fract_x
 _atom_site_fract_y
 _atom_site_fract_z
 _atom_site_occupancy
  Ta  Ta0_0  1  0.00000000  0.47326819  0.37500000  1
  Ta  Ta0_1  1  0.00000000  0.47326819  0.87500000  1
  Ta  Ta0_2  1  0.00000000  0.97326819  0.37500000  1
  Ta  Ta0_3  1  0.00000000  0.97326819  0.87500000  1
  Ta  Ta0_4  1  0.50000000  0.47326819  0.37500000  1
  Ta  Ta0_5  1  0.50000000  0.47326819  0.87500000  1
  Ta  Ta0_6  1  0.50000000  0.97326819  0.37500000  1
  Ta  Ta0_7  1  0.50000000  0.97326819  0.87500000  1
  Ta  Ta1_0  1  0.00000000  0.16247065  0.45719346  1
  Ta  Ta1_1  1  0.00000000  0.16247065  0.95719346  1
  Ta  Ta1_2  1  0.00000000  0.66247066  0.45719346  1
  Ta  Ta1_3  1  0.00000000  0.66247066  0.95719346  1
  Ta  Ta1_4  1  0.50000000  0.16247065  0.45719346  1
  Ta  Ta1_5  1  0.50000000  0.16247065  0.95719346  1
  Ta  Ta1_6  1  0.50000000  0.66247066  0.45719346  1
  Ta  Ta1_7  1  0.50000000  0.66247066  0.95719346  1
  Ta  Ta2_0  1  0.00000000  0.33752934  0.20719346  1
  Ta  Ta2_1  1  0.00000000  0.33752934  0.70719346  1
  Ta  Ta2_2  1  0.00000000  0.83752934  0.20719346  1
  Ta  Ta2_3  1  0.00000000  0.83752934  0.70719346  1
  Ta  Ta2_4  1  0.50000000  0.33752934  0.20719346  1
  Ta  Ta2_5  1  0.50000000  0.33752934  0.70719346  1
  Ta  Ta2_6  1  0.50000000  0.83752934  0.20719346  1
  Ta  Ta2_7  1  0.50000000  0.83752934  0.70719346  1
  Ta  Ta3_0  1  0.00000000  0.33752934  0.04280654  1
  Ta  Ta3_1  1  0.00000000  0.33752934  0.54280654  1
  Ta  Ta3_2  1  0.00000000  0.83752934  0.04280654  1
  Ta  Ta3_3  1  0.00000000  0.83752934  0.54280654  1
  Ta  Ta3_4  1  0.50000000  0.33752934  0.04280654  1
  Ta  Ta3_5  1  0.50000000  0.33752934  0.54280654  1
  Ta  Ta3_6  1  0.50000000  0.83752934  0.04280654  1
  Ta  Ta3_7  1  0.50000000  0.83752934  0.54280654  1
  Ta  Ta4_0  1  0.00000000  0.02673181  0.12500000  1
  Ta  Ta4_1  1  0.00000000  0.02673181  0.62500000  1
  Ta  Ta4_2  1  0.00000000  0.52673181  0.12500000  1
  Ta  Ta4_3  1  0.00000000  0.52673181  0.62500000  1
  Ta  Ta4_4  1  0.50000000  0.02673181  0.12500000  1
  Ta  Ta4_5  1  0.50000000  0.02673181  0.62500000  1
  Ta  Ta4_6  1  0.50000000  0.52673181  0.12500000  1
  Ta  Ta4_7  1  0.50000000  0.52673181  0.62500000  1
  Ta  Ta5_0  1  0.00000000  0.16247065  0.29280654  1
  Ta  Ta5_1  1  0.00000000  0.16247065  0.79280654  1
  Ta  Ta5_2  1  0.00000000  0.66247066  0.29280654  1
  Ta  Ta5_3  1  0.00000000  0.66247066  0.79280654  1
  Ta  Ta5_4  1  0.50000000  0.16247065  0.29280654  1
  Ta  Ta5_5  1  0.50000000  0.16247065  0.79280654  1
  Ta  Ta5_6  1  0.50000000  0.66247066  0.29280654  1
  Ta  Ta5_7  1  0.50000000  0.66247066  0.79280654  1
  Ir  Ir0_0  1  0.25000000  0.22878749  0.37500000  1
  Ir  Ir0_1  1  0.25000000  0.22878749  0.87500000  1
  Ir  Ir0_2  1  0.25000000  0.72878749  0.37500000  1
  Ir  Ir0_3  1  0.25000000  0.72878749  0.87500000  1
  Ir  Ir0_4  1  0.75000000  0.22878749  0.37500000  1
  Ir  Ir0_5  1  0.75000000  0.22878749  0.87500000  1
  Ir  Ir0_6  1  0.75000000  0.72878749  0.37500000  1
  Ir  Ir0_7  1  0.75000000  0.72878749  0.87500000  1
  Ir  Ir1_0  1  0.25000000  0.27121251  0.12500000  1
  Ir  Ir1_1  1  0.25000000  0.27121251  0.62500000  1
  Ir  Ir1_2  1  0.25000000  0.77121251  0.12500000  1
  Ir  Ir1_3  1  0.25000000  0.77121251  0.62500000  1
  Ir  Ir1_4  1  0.75000000  0.27121251  0.12500000  1
  Ir  Ir1_5  1  0.75000000  0.27121251  0.62500000  1
  Ir  Ir1_6  1  0.75000000  0.77121251  0.12500000  1
  Ir  Ir1_7  1  0.75000000  0.77121251  0.62500000  1
  Ir  Ir2_0  1  0.25000000  0.41181152  0.45898352  1
  Ir  Ir2_1  1  0.25000000  0.41181152  0.95898352  1
  Ir  Ir2_2  1  0.25000000  0.91181152  0.45898352  1
  Ir  Ir2_3  1  0.25000000  0.91181152  0.95898352  1
  Ir  Ir2_4  1  0.75000000  0.41181152  0.45898352  1
  Ir  Ir2_5  1  0.75000000  0.41181152  0.95898352  1
  Ir  Ir2_6  1  0.75000000  0.91181152  0.45898352  1
  Ir  Ir2_7  1  0.75000000  0.91181152  0.95898352  1
  Ir  Ir3_0  1  0.25000000  0.41181152  0.29101648  1
  Ir  Ir3_1  1  0.25000000  0.41181152  0.79101648  1
  Ir  Ir3_2  1  0.25000000  0.91181152  0.29101648  1
  Ir  Ir3_3  1  0.25000000  0.91181152  0.79101648  1
  Ir  Ir3_4  1  0.75000000  0.41181152  0.29101648  1
  Ir  Ir3_5  1  0.75000000  0.41181152  0.79101648  1
  Ir  Ir3_6  1  0.75000000  0.91181152  0.29101648  1
  Ir  Ir3_7  1  0.75000000  0.91181152  0.79101648  1
  Ir  Ir4_0  1  0.25000000  0.08818848  0.04101648  1
  Ir  Ir4_1  1  0.25000000  0.08818848  0.54101648  1
  Ir  Ir4_2  1  0.25000000  0.58818848  0.04101648  1
  Ir  Ir4_3  1  0.25000000  0.58818848  0.54101648  1
  Ir  Ir4_4  1  0.75000000  0.08818848  0.04101648  1
  Ir  Ir4_5  1  0.75000000  0.08818848  0.54101648  1
  Ir  Ir4_6  1  0.75000000  0.58818848  0.04101648  1
  Ir  Ir4_7  1  0.75000000  0.58818848  0.54101648  1
  Ir  Ir5_0  1  0.25000000  0.08818848  0.20898352  1
  Ir  Ir5_1  1  0.25000000  0.08818848  0.70898352  1
  Ir  Ir5_2  1  0.25000000  0.58818848  0.20898352  1
  Ir  Ir5_3  1  0.25000000  0.58818848  0.70898352  1
  Ir  Ir5_4  1  0.75000000  0.08818848  0.20898352  1
  Ir  Ir5_5  1  0.75000000  0.08818848  0.70898352  1
  Ir  Ir5_6  1  0.75000000  0.58818848  0.20898352  1
  Ir  Ir5_7  1  0.75000000  0.58818848  0.70898352  1
loop_
_geom_bond_atom_site_label_1
_geom_bond_atom_site_label_2
_geom_bond_distance
_geom_bond_site_symmetry_2
Ta0_0 Ta0_4 2.861851 1_555
Ta0_0 Ta0_4 2.861851 1_455
Ta0_0 Ta5_2 2.914489 1_555
Ta0_0 Ta1_2 2.914489 1_555
Ta0_1 Ta0_5 2.861851 1_455
Ta0_1 Ta0_5 2.861851 1_555
Ta0_1 Ta5_3 2.914489 1_555
Ta0_1 Ta1_3 2.914489 1_555
Ta0_2 Ta0_6 2.861851 1_455
Ta0_2 Ta0_6 2.861851 1_555
Ta0_2 Ta5_0 2.914489 1_565
Ta0_2 Ta1_0 2.914489 1_565
Ta0_3 Ta0_7 2.861851 1_555
Ta0_3 Ta0_7 2.861851 1_455
Ta0_3 Ta5_1 2.914489 1_565
Ta0_3 Ta1_1 2.914489 1_565
Ta0_4 Ta5_6 2.914489 1_555
Ta0_4 Ta1_6 2.914489 1_555
Ta0_5 Ta5_7 2.914489 1_555
Ta0_5 Ta1_7 2.914489 1_555
Ta0_6 Ta5_4 2.914489 1_565
Ta0_6 Ta1_4 2.914489 1_565
Ta0_7 Ta5_5 2.914489 1_565
Ta0_7 Ta1_5 2.914489 1_565
Ta1_0 Ta1_4 2.861851 1_455
Ta1_0 Ta1_4 2.861851 1_555
Ta1_0 Ta3_1 2.906973 1_555
Ta1_1 Ta1_5 2.861851 1_455
Ta1_1 Ta1_5 2.861851 1_555
Ta1_1 Ta3_0 2.906973 1_556
Ta1_2 Ta1_6 2.861851 1_455
Ta1_2 Ta1_6 2.861851 1_555
Ta1_2 Ta3_3 2.906973 1_555
Ta1_3 Ta1_7 2.861851 1_455
Ta1_3 Ta1_7 2.861851 1_555
Ta1_3 Ta3_2 2.906973 1_556
Ta1_4 Ta3_5 2.906973 1_555
Ta1_5 Ta3_4 2.906973 1_556
Ta1_6 Ta3_7 2.906973 1_555
Ta1_7 Ta3_6 2.906973 1_556
Ta2_0 Ta2_4 2.861851 1_555
Ta2_0 Ta2_4 2.861851 1_455
Ta2_0 Ta5_0 2.906973 1_555
Ta2_0 Ta4_2 2.914489 1_555
Ta2_1 Ta2_5 2.861851 1_455
Ta2_1 Ta2_5 2.861851 1_555
Ta2_1 Ta5_1 2.906973 1_555
Ta2_1 Ta4_3 2.914489 1_555
Ta2_2 Ta2_6 2.861851 1_455
Ta2_2 Ta2_6 2.861851 1_555
Ta2_2 Ta5_2 2.906973 1_555
Ta2_2 Ta4_0 2.914489 1_565
Ta2_3 Ta2_7 2.861851 1_555
Ta2_3 Ta2_7 2.861851 1_455
Ta2_3 Ta5_3 2.906973 1_555
Ta2_3 Ta4_1 2.914489 1_565
Ta2_4 Ta5_4 2.906973 1_555
Ta2_4 Ta4_6 2.914489 1_555
Ta2_5 Ta5_5 2.906973 1_555
Ta2_5 Ta4_7 2.914489 1_555
Ta2_6 Ta5_6 2.906973 1_555
Ta2_6 Ta4_4 2.914489 1_565
Ta2_7 Ta5_7 2.906973 1_555
Ta2_7 Ta4_5 2.914489 1_565
Ta3_0 Ta3_4 2.861851 1_455
Ta3_0 Ta3_4 2.861851 1_555
Ta3_0 Ta4_2 2.914489 1_555
Ta3_1 Ta3_5 2.861851 1_555
Ta3_1 Ta3_5 2.861851 1_455
Ta3_1 Ta4_3 2.914489 1_555
Ta3_2 Ta3_6 2.861851 1_555
Ta3_2 Ta3_6 2.861851 1_455
Ta3_2 Ta4_0 2.914489 1_565
Ta3_3 Ta3_7 2.861851 1_455
Ta3_3 Ta3_7 2.861851 1_555
Ta3_3 Ta4_1 2.914489 1_565
Ta3_4 Ta4_6 2.914489 1_555
Ta3_5 Ta4_7 2.914489 1_555
Ta3_6 Ta4_4 2.914489 1_565
Ta3_7 Ta4_5 2.914489 1_565
Ta4_0 Ta4_4 2.861851 1_455
Ta4_0 Ta4_4 2.861851 1_555
Ta4_1 Ta4_5 2.861851 1_455
Ta4_1 Ta4_5 2.861851 1_555
Ta4_2 Ta4_6 2.861851 1_455
Ta4_2 Ta4_6 2.861851 1_555
Ta4_3 Ta4_7 2.861851 1_555
Ta4_3 Ta4_7 2.861851 1_455
Ta5_0 Ta5_4 2.861851 1_455
Ta5_0 Ta5_4 2.861851 1_555
Ta5_1 Ta5_5 2.861851 1_555
Ta5_1 Ta5_5 2.861851 1_455
Ta5_2 Ta5_6 2.861851 1_555
Ta5_2 Ta5_6 2.861851 1_455
Ta5_3 Ta5_7 2.861851 1_455
Ta5_3 Ta5_7 2.861851 1_555
Ir0_0 Ta5_0 2.758413 1_555
Ir0_0 Ta5_4 2.758413 1_555
Ir0_0 Ta1_0 2.758413 1_555
Ir0_0 Ta1_4 2.758413 1_555
Ir0_0 Ta0_0 2.762350 1_555
Ir0_0 Ta0_4 2.762350 1_555
Ir0_0 Ta0_2 2.854141 1_545
Ir0_0 Ta0_6 2.854141 1_545
Ir0_0 Ir0_4 2.861851 1_455
Ir0_0 Ir0_4 2.861851 1_555
Ir0_0 Ir3_0 2.916542 1_555
Ir0_0 Ir2_0 2.916542 1_555
Ir0_1 Ta5_5 2.758413 1_555
Ir0_1 Ta5_1 2.758413 1_555
Ir0_1 Ta1_1 2.758413 1_555
Ir0_1 Ta1_5 2.758413 1_555
Ir0_1 Ta0_1 2.762350 1_555
Ir0_1 Ta0_5 2.762350 1_555
Ir0_1 Ta0_7 2.854141 1_545
Ir0_1 Ta0_3 2.854141 1_545
Ir0_1 Ir0_5 2.861851 1_555
Ir0_1 Ir0_5 2.861851 1_455
Ir0_1 Ir3_1 2.916542 1_555
Ir0_1 Ir2_1 2.916542 1_555
Ir0_2 Ta5_2 2.758413 1_555
Ir0_2 Ta5_6 2.758413 1_555
Ir0_2 Ta1_2 2.758413 1_555
Ir0_2 Ta1_6 2.758413 1_555
Ir0_2 Ta0_6 2.762350 1_555
Ir0_2 Ta0_2 2.762350 1_555
Ir0_2 Ta0_4 2.854141 1_555
Ir0_2 Ta0_0 2.854141 1_555
Ir0_2 Ir0_6 2.861851 1_555
Ir0_2 Ir0_6 2.861851 1_455
Ir0_2 Ir3_2 2.916542 1_555
Ir0_2 Ir2_2 2.916542 1_555
Ir0_3 Ta5_3 2.758413 1_555
Ir0_3 Ta5_7 2.758413 1_555
Ir0_3 Ta1_3 2.758413 1_555
Ir0_3 Ta1_7 2.758413 1_555
Ir0_3 Ta0_3 2.762350 1_555
Ir0_3 Ta0_7 2.762350 1_555
Ir0_3 Ta0_5 2.854141 1_555
Ir0_3 Ta0_1 2.854141 1_555
Ir0_3 Ir0_7 2.861851 1_455
Ir0_3 Ir0_7 2.861851 1_555
Ir0_3 Ir3_3 2.916542 1_555
Ir0_3 Ir2_3 2.916542 1_555
Ir0_4 Ta5_4 2.758413 1_555
Ir0_4 Ta5_0 2.758413 1_655
Ir0_4 Ta1_0 2.758413 1_655
Ir0_4 Ta1_4 2.758413 1_555
Ir0_4 Ta0_4 2.762350 1_555
Ir0_4 Ta0_0 2.762350 1_655
Ir0_4 Ta0_2 2.854141 1_645
Ir0_4 Ta0_6 2.854141 1_545
Ir0_4 Ir3_4 2.916542 1_555
Ir0_4 Ir2_4 2.916542 1_555
Ir0_5 Ta5_5 2.758413 1_555
Ir0_5 Ta5_1 2.758413 1_655
Ir0_5 Ta1_5 2.758413 1_555
Ir0_5 Ta1_1 2.758413 1_655
Ir0_5 Ta0_5 2.762350 1_555
Ir0_5 Ta0_1 2.762350 1_655
Ir0_5 Ta0_7 2.854141 1_545
Ir0_5 Ta0_3 2.854141 1_645
Ir0_5 Ir3_5 2.916542 1_555
Ir0_5 Ir2_5 2.916542 1_555
Ir0_6 Ta5_6 2.758413 1_555
Ir0_6 Ta5_2 2.758413 1_655
Ir0_6 Ta1_2 2.758413 1_655
Ir0_6 Ta1_6 2.758413 1_555
Ir0_6 Ta0_2 2.762350 1_655
Ir0_6 Ta0_6 2.762350 1_555
Ir0_6 Ta0_0 2.854141 1_655
Ir0_6 Ta0_4 2.854141 1_555
Ir0_6 Ir3_6 2.916542 1_555
Ir0_6 Ir2_6 2.916542 1_555
Ir0_7 Ta5_3 2.758413 1_655
Ir0_7 Ta5_7 2.758413 1_555
Ir0_7 Ta1_7 2.758413 1_555
Ir0_7 Ta1_3 2.758413 1_655
Ir0_7 Ta0_7 2.762350 1_555
Ir0_7 Ta0_3 2.762350 1_655
Ir0_7 Ta0_5 2.854141 1_555
Ir0_7 Ta0_1 2.854141 1_655
Ir0_7 Ir3_7 2.916542 1_555
Ir0_7 Ir2_7 2.916542 1_555
Ir1_0 Ta3_0 2.758413 1_555
Ir1_0 Ta3_4 2.758413 1_555
Ir1_0 Ta2_0 2.758413 1_555
Ir1_0 Ta2_4 2.758413 1_555
Ir1_0 Ta4_0 2.762350 1_555
Ir1_0 Ta4_4 2.762350 1_555
Ir1_0 Ta4_6 2.854141 1_555
Ir1_0 Ta4_2 2.854141 1_555
Ir1_0 Ir1_4 2.861851 1_455
Ir1_0 Ir1_4 2.861851 1_555
Ir1_0 Ir4_0 2.916542 1_555
Ir1_0 Ir5_0 2.916542 1_555
Ir1_1 Ta2_1 2.758413 1_555
Ir1_1 Ta2_5 2.758413 1_555
Ir1_1 Ta3_1 2.758413 1_555
Ir1_1 Ta3_5 2.758413 1_555
Ir1_1 Ta4_5 2.762350 1_555
Ir1_1 Ta4_1 2.762350 1_555
Ir1_1 Ta4_7 2.854141 1_555
Ir1_1 Ta4_3 2.854141 1_555
Ir1_1 Ir1_5 2.861851 1_455
Ir1_1 Ir1_5 2.861851 1_555
Ir1_1 Ir5_1 2.916542 1_555
Ir1_1 Ir4_1 2.916542 1_555
Ir1_2 Ta2_6 2.758413 1_555
Ir1_2 Ta3_6 2.758413 1_555
Ir1_2 Ta3_2 2.758413 1_555
Ir1_2 Ta2_2 2.758413 1_555
Ir1_2 Ta4_2 2.762350 1_555
Ir1_2 Ta4_6 2.762350 1_555
Ir1_2 Ta4_0 2.854141 1_565
Ir1_2 Ta4_4 2.854141 1_565
Ir1_2 Ir1_6 2.861851 1_455
Ir1_2 Ir1_6 2.861851 1_555
Ir1_2 Ir4_2 2.916542 1_555
Ir1_2 Ir5_2 2.916542 1_555
Ir1_3 Ta2_3 2.758413 1_555
Ir1_3 Ta2_7 2.758413 1_555
Ir1_3 Ta3_7 2.758413 1_555
Ir1_3 Ta3_3 2.758413 1_555
Ir1_3 Ta4_3 2.762350 1_555
Ir1_3 Ta4_7 2.762350 1_555
Ir1_3 Ta4_5 2.854141 1_565
Ir1_3 Ta4_1 2.854141 1_565
Ir1_3 Ir1_7 2.861851 1_455
Ir1_3 Ir1_7 2.861851 1_555
Ir1_3 Ir5_3 2.916542 1_555
Ir1_3 Ir4_3 2.916542 1_555
Ir1_4 Ta3_4 2.758413 1_555
Ir1_4 Ta3_0 2.758413 1_655
Ir1_4 Ta2_4 2.758413 1_555
Ir1_4 Ta2_0 2.758413 1_655
Ir1_4 Ta4_0 2.762350 1_655
Ir1_4 Ta4_4 2.762350 1_555
Ir1_4 Ta4_2 2.854141 1_655
Ir1_4 Ta4_6 2.854141 1_555
Ir1_4 Ir4_4 2.916542 1_555
Ir1_4 Ir5_4 2.916542 1_555
Ir1_5 Ta2_1 2.758413 1_655
Ir1_5 Ta2_5 2.758413 1_555
Ir1_5 Ta3_5 2.758413 1_555
Ir1_5 Ta3_1 2.758413 1_655
Ir1_5 Ta4_5 2.762350 1_555
Ir1_5 Ta4_1 2.762350 1_655
Ir1_5 Ta4_3 2.854141 1_655
Ir1_5 Ta4_7 2.854141 1_555
Ir1_5 Ir5_5 2.916542 1_555
Ir1_5 Ir4_5 2.916542 1_555
Ir1_6 Ta2_6 2.758413 1_555
Ir1_6 Ta2_2 2.758413 1_655
Ir1_6 Ta3_2 2.758413 1_655
Ir1_6 Ta3_6 2.758413 1_555
Ir1_6 Ta4_6 2.762350 1_555
Ir1_6 Ta4_2 2.762350 1_655
Ir1_6 Ta4_4 2.854141 1_565
Ir1_6 Ta4_0 2.854141 1_665
Ir1_6 Ir4_6 2.916542 1_555
Ir1_6 Ir5_6 2.916542 1_555
Ir1_7 Ta2_3 2.758413 1_655
Ir1_7 Ta2_7 2.758413 1_555
Ir1_7 Ta3_7 2.758413 1_555
Ir1_7 Ta3_3 2.758413 1_655
Ir1_7 Ta4_3 2.762350 1_655
Ir1_7 Ta4_7 2.762350 1_555
Ir1_7 Ta4_5 2.854141 1_565
Ir1_7 Ta4_1 2.854141 1_665
Ir1_7 Ir5_7 2.916542 1_555
Ir1_7 Ir4_7 2.916542 1_555
Ir2_0 Ta0_0 2.788838 1_555
Ir2_0 Ta0_4 2.788838 1_555
Ir2_0 Ta1_4 2.803070 1_555
Ir2_0 Ta1_0 2.803070 1_555
Ir2_0 Ta1_2 2.814031 1_555
Ir2_0 Ta1_6 2.814031 1_555
Ir2_0 Ta3_1 2.814196 1_555
Ir2_0 Ta3_5 2.814196 1_555
Ir2_0 Ir4_3 2.834818 1_555
Ir2_0 Ir2_4 2.861851 1_555
Ir2_0 Ir2_4 2.861851 1_455
Ir2_1 Ta0_5 2.788838 1_555
Ir2_1 Ta0_1 2.788838 1_555
Ir2_1 Ta1_5 2.803070 1_555
Ir2_1 Ta1_1 2.803070 1_555
Ir2_1 Ta1_7 2.814031 1_555
Ir2_1 Ta1_3 2.814031 1_555
Ir2_1 Ta3_4 2.814196 1_556
Ir2_1 Ta3_0 2.814196 1_556
Ir2_1 Ir4_2 2.834818 1_556
Ir2_1 Ir2_5 2.861851 1_455
Ir2_1 Ir2_5 2.861851 1_555
Ir2_2 Ta0_2 2.788838 1_555
Ir2_2 Ta0_6 2.788838 1_555
Ir2_2 Ta1_2 2.803070 1_555
Ir2_2 Ta1_6 2.803070 1_555
Ir2_2 Ta1_4 2.814031 1_565
Ir2_2 Ta1_0 2.814031 1_565
Ir2_2 Ta3_3 2.814196 1_555
Ir2_2 Ta3_7 2.814196 1_555
Ir2_2 Ir4_1 2.834818 1_565
Ir2_2 Ir2_6 2.861851 1_555
Ir2_2 Ir2_6 2.861851 1_455
Ir2_3 Ta0_7 2.788838 1_555
Ir2_3 Ta0_3 2.788838 1_555
Ir2_3 Ta1_3 2.803070 1_555
Ir2_3 Ta1_7 2.803070 1_555
Ir2_3 Ta1_5 2.814031 1_565
Ir2_3 Ta1_1 2.814031 1_565
Ir2_3 Ta3_6 2.814196 1_556
Ir2_3 Ta3_2 2.814196 1_556
Ir2_3 Ir4_0 2.834818 1_566
Ir2_3 Ir2_7 2.861851 1_455
Ir2_3 Ir2_7 2.861851 1_555
Ir2_4 Ta0_4 2.788838 1_555
Ir2_4 Ta0_0 2.788838 1_655
Ir2_4 Ta1_4 2.803070 1_555
Ir2_4 Ta1_0 2.803070 1_655
Ir2_4 Ta1_2 2.814031 1_655
Ir2_4 Ta1_6 2.814031 1_555
Ir2_4 Ta3_5 2.814196 1_555
Ir2_4 Ta3_1 2.814196 1_655
Ir2_4 Ir4_7 2.834818 1_555
Ir2_5 Ta0_5 2.788838 1_555
Ir2_5 Ta0_1 2.788838 1_655
Ir2_5 Ta1_1 2.803070 1_655
Ir2_5 Ta1_5 2.803070 1_555
Ir2_5 Ta1_3 2.814031 1_655
Ir2_5 Ta1_7 2.814031 1_555
Ir2_5 Ta3_4 2.814196 1_556
Ir2_5 Ta3_0 2.814196 1_656
Ir2_5 Ir4_6 2.834818 1_556
Ir2_6 Ta0_2 2.788838 1_655
Ir2_6 Ta0_6 2.788838 1_555
Ir2_6 Ta1_2 2.803070 1_655
Ir2_6 Ta1_6 2.803070 1_555
Ir2_6 Ta1_4 2.814031 1_565
Ir2_6 Ta1_0 2.814031 1_665
Ir2_6 Ta3_3 2.814196 1_655
Ir2_6 Ta3_7 2.814196 1_555
Ir2_6 Ir4_5 2.834818 1_565
Ir2_7 Ta0_3 2.788838 1_655
Ir2_7 Ta0_7 2.788838 1_555
Ir2_7 Ta1_3 2.803070 1_655
Ir2_7 Ta1_7 2.803070 1_555
Ir2_7 Ta1_1 2.814031 1_665
Ir2_7 Ta1_5 2.814031 1_565
Ir2_7 Ta3_6 2.814196 1_556
Ir2_7 Ta3_2 2.814196 1_656
Ir2_7 Ir4_4 2.834818 1_566
Ir3_0 Ta0_0 2.788838 1_555
Ir3_0 Ta0_4 2.788838 1_555
Ir3_0 Ta5_0 2.803070 1_555
Ir3_0 Ta5_4 2.803070 1_555
Ir3_0 Ta5_2 2.814031 1_555
Ir3_0 Ta5_6 2.814031 1_555
Ir3_0 Ta2_0 2.814196 1_555
Ir3_0 Ta2_4 2.814196 1_555
Ir3_0 Ir5_2 2.834818 1_555
Ir3_0 Ir3_4 2.861851 1_555
Ir3_0 Ir3_4 2.861851 1_455
Ir3_1 Ta0_1 2.788838 1_555
Ir3_1 Ta0_5 2.788838 1_555
Ir3_1 Ta5_1 2.803070 1_555
Ir3_1 Ta5_5 2.803070 1_555
Ir3_1 Ta5_7 2.814031 1_555
Ir3_1 Ta5_3 2.814031 1_555
Ir3_1 Ta2_1 2.814196 1_555
Ir3_1 Ta2_5 2.814196 1_555
Ir3_1 Ir5_3 2.834818 1_555
Ir3_1 Ir3_5 2.861851 1_455
Ir3_1 Ir3_5 2.861851 1_555
Ir3_2 Ta0_6 2.788838 1_555
Ir3_2 Ta0_2 2.788838 1_555
Ir3_2 Ta5_2 2.803070 1_555
Ir3_2 Ta5_6 2.803070 1_555
Ir3_2 Ta5_4 2.814031 1_565
Ir3_2 Ta5_0 2.814031 1_565
Ir3_2 Ta2_6 2.814196 1_555
Ir3_2 Ta2_2 2.814196 1_555
Ir3_2 Ir5_0 2.834818 1_565
Ir3_2 Ir3_6 2.861851 1_555
Ir3_2 Ir3_6 2.861851 1_455
Ir3_3 Ta0_3 2.788838 1_555
Ir3_3 Ta0_7 2.788838 1_555
Ir3_3 Ta5_7 2.803070 1_555
Ir3_3 Ta5_3 2.803070 1_555
Ir3_3 Ta5_5 2.814031 1_565
Ir3_3 Ta5_1 2.814031 1_565
Ir3_3 Ta2_3 2.814196 1_555
Ir3_3 Ta2_7 2.814196 1_555
Ir3_3 Ir5_1 2.834818 1_565
Ir3_3 Ir3_7 2.861851 1_555
Ir3_3 Ir3_7 2.861851 1_455
Ir3_4 Ta0_4 2.788838 1_555
Ir3_4 Ta0_0 2.788838 1_655
Ir3_4 Ta5_0 2.803070 1_655
Ir3_4 Ta5_4 2.803070 1_555
Ir3_4 Ta5_6 2.814031 1_555
Ir3_4 Ta5_2 2.814031 1_655
Ir3_4 Ta2_0 2.814196 1_655
Ir3_4 Ta2_4 2.814196 1_555
Ir3_4 Ir5_6 2.834818 1_555
Ir3_5 Ta0_5 2.788838 1_555
Ir3_5 Ta0_1 2.788838 1_655
Ir3_5 Ta5_1 2.803070 1_655
Ir3_5 Ta5_5 2.803070 1_555
Ir3_5 Ta5_3 2.814031 1_655
Ir3_5 Ta5_7 2.814031 1_555
Ir3_5 Ta2_1 2.814196 1_655
Ir3_5 Ta2_5 2.814196 1_555
Ir3_5 Ir5_7 2.834818 1_555
Ir3_6 Ta0_2 2.788838 1_655
Ir3_6 Ta0_6 2.788838 1_555
Ir3_6 Ta5_6 2.803070 1_555
Ir3_6 Ta5_2 2.803070 1_655
Ir3_6 Ta5_0 2.814031 1_665
Ir3_6 Ta5_4 2.814031 1_565
Ir3_6 Ta2_2 2.814196 1_655
Ir3_6 Ta2_6 2.814196 1_555
Ir3_6 Ir5_4 2.834818 1_565
Ir3_7 Ta0_3 2.788838 1_655
Ir3_7 Ta0_7 2.788838 1_555
Ir3_7 Ta5_7 2.803070 1_555
Ir3_7 Ta5_3 2.803070 1_655
Ir3_7 Ta5_5 2.814031 1_565
Ir3_7 Ta5_1 2.814031 1_665
Ir3_7 Ta2_3 2.814196 1_655
Ir3_7 Ta2_7 2.814196 1_555
Ir3_7 Ir5_5 2.834818 1_565
Ir4_0 Ta4_0 2.788838 1_555
Ir4_0 Ta4_4 2.788838 1_555
Ir4_0 Ta3_0 2.803070 1_555
Ir4_0 Ta3_4 2.803070 1_555
Ir4_0 Ta3_2 2.814031 1_545
Ir4_0 Ta3_6 2.814031 1_545
Ir4_0 Ta1_5 2.814196 1_554
Ir4_0 Ta1_1 2.814196 1_554
Ir4_0 Ir4_4 2.861851 1_455
Ir4_0 Ir4_4 2.861851 1_555
Ir4_1 Ta4_1 2.788838 1_555
Ir4_1 Ta4_5 2.788838 1_555
Ir4_1 Ta3_1 2.803070 1_555
Ir4_1 Ta3_5 2.803070 1_555
Ir4_1 Ta3_7 2.814031 1_545
Ir4_1 Ta3_3 2.814031 1_545
Ir4_1 Ta1_0 2.814196 1_555
Ir4_1 Ta1_4 2.814196 1_555
Ir4_1 Ir4_5 2.861851 1_555
Ir4_1 Ir4_5 2.861851 1_455
Ir4_2 Ta4_2 2.788838 1_555
Ir4_2 Ta4_6 2.788838 1_555
Ir4_2 Ta3_2 2.803070 1_555
Ir4_2 Ta3_6 2.803070 1_555
Ir4_2 Ta3_4 2.814031 1_555
Ir4_2 Ta3_0 2.814031 1_555
Ir4_2 Ta1_3 2.814196 1_554
Ir4_2 Ta1_7 2.814196 1_554
Ir4_2 Ir4_6 2.861851 1_455
Ir4_2 Ir4_6 2.861851 1_555
Ir4_3 Ta4_7 2.788838 1_555
Ir4_3 Ta4_3 2.788838 1_555
Ir4_3 Ta3_3 2.803070 1_555
Ir4_3 Ta3_7 2.803070 1_555
Ir4_3 Ta3_1 2.814031 1_555
Ir4_3 Ta3_5 2.814031 1_555
Ir4_3 Ta1_2 2.814196 1_555
Ir4_3 Ta1_6 2.814196 1_555
Ir4_3 Ir4_7 2.861851 1_455
Ir4_3 Ir4_7 2.861851 1_555
Ir4_4 Ta4_0 2.788838 1_655
Ir4_4 Ta4_4 2.788838 1_555
Ir4_4 Ta3_0 2.803070 1_655
Ir4_4 Ta3_4 2.803070 1_555
Ir4_4 Ta3_2 2.814031 1_645
Ir4_4 Ta3_6 2.814031 1_545
Ir4_4 Ta1_1 2.814196 1_654
Ir4_4 Ta1_5 2.814196 1_554
Ir4_5 Ta4_1 2.788838 1_655
Ir4_5 Ta4_5 2.788838 1_555
Ir4_5 Ta3_5 2.803070 1_555
Ir4_5 Ta3_1 2.803070 1_655
Ir4_5 Ta3_7 2.814031 1_545
Ir4_5 Ta3_3 2.814031 1_645
Ir4_5 Ta1_0 2.814196 1_655
Ir4_5 Ta1_4 2.814196 1_555
Ir4_6 Ta4_2 2.788838 1_655
Ir4_6 Ta4_6 2.788838 1_555
Ir4_6 Ta3_2 2.803070 1_655
Ir4_6 Ta3_6 2.803070 1_555
Ir4_6 Ta3_4 2.814031 1_555
Ir4_6 Ta3_0 2.814031 1_655
Ir4_6 Ta1_7 2.814196 1_554
Ir4_6 Ta1_3 2.814196 1_654
Ir4_7 Ta4_7 2.788838 1_555
Ir4_7 Ta4_3 2.788838 1_655
Ir4_7 Ta3_3 2.803070 1_655
Ir4_7 Ta3_7 2.803070 1_555
Ir4_7 Ta3_1 2.814031 1_655
Ir4_7 Ta3_5 2.814031 1_555
Ir4_7 Ta1_2 2.814196 1_655
Ir4_7 Ta1_6 2.814196 1_555
Ir5_0 Ta4_0 2.788838 1_555
Ir5_0 Ta4_4 2.788838 1_555
Ir5_0 Ta2_0 2.803070 1_555
Ir5_0 Ta2_4 2.803070 1_555
Ir5_0 Ta2_6 2.814031 1_545
Ir5_0 Ta2_2 2.814031 1_545
Ir5_0 Ta5_0 2.814196 1_555
Ir5_0 Ta5_4 2.814196 1_555
Ir5_0 Ir5_4 2.861851 1_455
Ir5_0 Ir5_4 2.861851 1_555
Ir5_1 Ta4_1 2.788838 1_555
Ir5_1 Ta4_5 2.788838 1_555
Ir5_1 Ta2_5 2.803070 1_555
Ir5_1 Ta2_1 2.803070 1_555
Ir5_1 Ta2_3 2.814031 1_545
Ir5_1 Ta2_7 2.814031 1_545
Ir5_1 Ta5_1 2.814196 1_555
Ir5_1 Ta5_5 2.814196 1_555
Ir5_1 Ir5_5 2.861851 1_455
Ir5_1 Ir5_5 2.861851 1_555
Ir5_2 Ta4_2 2.788838 1_555
Ir5_2 Ta4_6 2.788838 1_555
Ir5_2 Ta2_6 2.803070 1_555
Ir5_2 Ta2_2 2.803070 1_555
Ir5_2 Ta2_0 2.814031 1_555
Ir5_2 Ta2_4 2.814031 1_555
Ir5_2 Ta5_2 2.814196 1_555
Ir5_2 Ta5_6 2.814196 1_555
Ir5_2 Ir5_6 2.861851 1_555
Ir5_2 Ir5_6 2.861851 1_455
Ir5_3 Ta4_7 2.788838 1_555
Ir5_3 Ta4_3 2.788838 1_555
Ir5_3 Ta2_3 2.803070 1_555
Ir5_3 Ta2_7 2.803070 1_555
Ir5_3 Ta2_1 2.814031 1_555
Ir5_3 Ta2_5 2.814031 1_555
Ir5_3 Ta5_3 2.814196 1_555
Ir5_3 Ta5_7 2.814196 1_555
Ir5_3 Ir5_7 2.861851 1_455
Ir5_3 Ir5_7 2.861851 1_555
Ir5_4 Ta4_0 2.788838 1_655
Ir5_4 Ta4_4 2.788838 1_555
Ir5_4 Ta2_4 2.803070 1_555
Ir5_4 Ta2_0 2.803070 1_655
Ir5_4 Ta2_6 2.814031 1_545
Ir5_4 Ta2_2 2.814031 1_645
Ir5_4 Ta5_0 2.814196 1_655
Ir5_4 Ta5_4 2.814196 1_555
Ir5_5 Ta4_1 2.788838 1_655
Ir5_5 Ta4_5 2.788838 1_555
Ir5_5 Ta2_5 2.803070 1_555
Ir5_5 Ta2_1 2.803070 1_655
Ir5_5 Ta2_7 2.814031 1_545
Ir5_5 Ta2_3 2.814031 1_645
Ir5_5 Ta5_1 2.814196 1_655
Ir5_5 Ta5_5 2.814196 1_555
Ir5_6 Ta4_2 2.788838 1_655
Ir5_6 Ta4_6 2.788838 1_555
Ir5_6 Ta2_6 2.803070 1_555
Ir5_6 Ta2_2 2.803070 1_655
Ir5_6 Ta2_4 2.814031 1_555
Ir5_6 Ta2_0 2.814031 1_655
Ir5_6 Ta5_2 2.814196 1_655
Ir5_6 Ta5_6 2.814196 1_555
Ir5_7 Ta4_3 2.788838 1_655
Ir5_7 Ta4_7 2.788838 1_555
Ir5_7 Ta2_3 2.803070 1_655
Ir5_7 Ta2_7 2.803070 1_555
Ir5_7 Ta2_5 2.814031 1_555
Ir5_7 Ta2_1 2.814031 1_655
Ir5_7 Ta5_7 2.814196 1_555
Ir5_7 Ta5_3 2.814196 1_655
