# generated using pymatgen
data_Si3Ru4
_symmetry_space_group_name_H-M   'P 1'
_cell_length_a   4.01329825
_cell_length_b   5.18353390
_cell_length_c   17.13442985
_cell_angle_alpha   90.00000000
_cell_angle_beta   90.00000000
_cell_angle_gamma   90.00000000
_symmetry_Int_Tables_number   1
_chemical_formula_structural   Si3Ru4
_chemical_formula_sum   'Si12 Ru16'
_cell_volume   356.44870125
_cell_formula_units_Z   4
loop_
 _symmetry_equiv_pos_site_id
 _symmetry_equiv_pos_as_xyz
  1  'x, y, z'
loop_
 _atom_site_type_symbol
 _atom_site_label
 _atom_site_symmetry_multiplicity
 _atom_site_fract_x
 _atom_site_fract_y
 _atom_site_fract_z
 _atom_site_occupancy
  Si  Si0  1  0.75000000  0.99482646  0.60345985  1
  Si  Si1  1  0.25000000  0.00517354  0.39654015  1
  Si  Si2  1  0.75000000  0.49482646  0.89654015  1
  Si  Si3  1  0.25000000  0.50517354  0.10345985  1
  Si  Si4  1  0.75000000  0.84914763  0.03368554  1
  Si  Si5  1  0.25000000  0.15085237  0.96631446  1
  Si  Si6  1  0.75000000  0.34914763  0.46631446  1
  Si  Si7  1  0.25000000  0.65085237  0.53368554  1
  Si  Si8  1  0.75000000  0.62378122  0.31028272  1
  Si  Si9  1  0.25000000  0.37621878  0.68971728  1
  Si  Si10  1  0.75000000  0.12378122  0.18971728  1
  Si  Si11  1  0.25000000  0.87621878  0.81028272  1
  Ru  Ru0  1  0.75000000  0.65398287  0.76414760  1
  Ru  Ru1  1  0.25000000  0.34601713  0.23585240  1
  Ru  Ru2  1  0.75000000  0.15398287  0.73585240  1
  Ru  Ru3  1  0.25000000  0.84601713  0.26414760  1
  Ru  Ru4  1  0.75000000  0.99099126  0.89325614  1
  Ru  Ru5  1  0.25000000  0.00900874  0.10674386  1
  Ru  Ru6  1  0.75000000  0.49099126  0.60674386  1
  Ru  Ru7  1  0.25000000  0.50900874  0.39325614  1
  Ru  Ru8  1  0.75000000  0.82657501  0.47037888  1
  Ru  Ru9  1  0.25000000  0.17342499  0.52962112  1
  Ru  Ru10  1  0.75000000  0.32657501  0.02962112  1
  Ru  Ru11  1  0.25000000  0.67342499  0.97037888  1
  Ru  Ru12  1  0.75000000  0.65884610  0.16406800  1
  Ru  Ru13  1  0.25000000  0.34115390  0.83593200  1
  Ru  Ru14  1  0.75000000  0.15884610  0.33593200  1
  Ru  Ru15  1  0.25000000  0.84115390  0.66406800  1
loop_
_geom_bond_atom_site_label_1
_geom_bond_atom_site_label_2
_geom_bond_distance
_geom_bond_site_symmetry_2
Ru0 Si2 2.413830 1_555
Ru0 Si11 2.445109 1_655
Ru0 Si11 2.445109 1_555
Ru0 Si9 2.779588 1_555
Ru0 Si9 2.779588 1_655
Ru1 Si3 2.413830 1_555
Ru1 Si10 2.445109 1_455
Ru1 Si10 2.445109 1_555
Ru1 Si8 2.779588 1_555
Ru1 Si8 2.779588 1_455
Ru2 Si0 2.413830 1_545
Ru2 Si9 2.445109 1_555
Ru2 Si9 2.445109 1_655
Ru2 Si11 2.779588 1_545
Ru2 Si11 2.779588 1_645
Ru3 Si1 2.413830 1_565
Ru3 Si8 2.445109 1_455
Ru3 Si8 2.445109 1_555
Ru3 Si10 2.779588 1_565
Ru3 Si10 2.779588 1_465
Ru4 Si5 2.506058 1_565
Ru4 Si5 2.506058 1_665
Ru4 Si4 2.516006 1_556
Ru4 Si11 2.530181 1_555
Ru4 Si11 2.530181 1_655
Ru4 Si2 2.572503 1_555
Ru4 Si2 2.612253 1_565
Ru5 Si4 2.506058 1_545
Ru5 Si4 2.506058 1_445
Ru5 Si5 2.516006 1_554
Ru5 Si10 2.530181 1_455
Ru5 Si10 2.530181 1_555
Ru5 Si3 2.572503 1_555
Ru5 Si3 2.612253 1_545
Ru6 Si7 2.506058 1_555
Ru6 Si7 2.506058 1_655
Ru6 Si6 2.516006 1_555
Ru6 Si9 2.530181 1_655
Ru6 Si9 2.530181 1_555
Ru6 Si0 2.572503 1_545
Ru6 Si0 2.612253 1_555
Ru7 Si6 2.506058 1_455
Ru7 Si6 2.506058 1_555
Ru7 Si7 2.516006 1_555
Ru7 Si8 2.530181 1_455
Ru7 Si8 2.530181 1_555
Ru7 Si1 2.572503 1_565
Ru7 Si1 2.612253 1_555
Ru8 Si0 2.441360 1_555
Ru8 Si7 2.456204 1_655
Ru8 Si7 2.456204 1_555
Ru8 Si6 2.475741 1_555
Ru8 Si1 2.546446 1_565
Ru8 Si1 2.546446 1_665
Ru8 Si6 2.709668 1_565
Ru8 Si8 2.937670 1_555
Ru9 Si1 2.441360 1_555
Ru9 Si6 2.456204 1_555
Ru9 Si6 2.456204 1_455
Ru9 Si7 2.475741 1_555
Ru9 Si0 2.546446 1_445
Ru9 Si0 2.546446 1_545
Ru9 Si7 2.709668 1_545
Ru9 Si9 2.937670 1_555
Ru10 Si2 2.441360 1_554
Ru10 Si5 2.456204 1_654
Ru10 Si5 2.456204 1_554
Ru10 Si4 2.475741 1_545
Ru10 Si3 2.546446 1_555
Ru10 Si3 2.546446 1_655
Ru10 Si4 2.709668 1_555
Ru10 Si10 2.937670 1_555
Ru11 Si3 2.441360 1_556
Ru11 Si4 2.456204 1_556
Ru11 Si4 2.456204 1_456
Ru11 Si5 2.475741 1_565
Ru11 Si2 2.546446 1_455
Ru11 Si2 2.546446 1_555
Ru11 Si5 2.709668 1_555
Ru11 Si11 2.937670 1_555
Ru12 Si3 2.395749 1_555
Ru12 Si3 2.395749 1_655
Ru12 Si4 2.442118 1_555
Ru12 Si10 2.449751 1_565
Ru12 Si8 2.511891 1_555
Ru12 Si10 2.808131 1_555
Ru13 Si2 2.395749 1_455
Ru13 Si2 2.395749 1_555
Ru13 Si5 2.442118 1_555
Ru13 Si11 2.449751 1_545
Ru13 Si9 2.511891 1_555
Ru13 Si11 2.808131 1_555
Ru14 Si1 2.395749 1_555
Ru14 Si1 2.395749 1_655
Ru14 Si6 2.442118 1_555
Ru14 Si8 2.449751 1_555
Ru14 Si10 2.511891 1_555
Ru14 Si8 2.808131 1_545
Ru15 Si0 2.395749 1_555
Ru15 Si0 2.395749 1_455
Ru15 Si7 2.442118 1_555
Ru15 Si9 2.449751 1_555
Ru15 Si11 2.511891 1_555
Ru15 Si9 2.808131 1_565
