# generated using pymatgen
data_La4CdRu
_symmetry_space_group_name_H-M   'P 1'
_cell_length_a   10.04623922
_cell_length_b   10.04622931
_cell_length_c   10.04634714
_cell_angle_alpha   60.00104921
_cell_angle_beta   59.99997676
_cell_angle_gamma   60.00055654
_symmetry_Int_Tables_number   1
_chemical_formula_structural   La4CdRu
_chemical_formula_sum   'La16 Cd4 Ru4'
_cell_volume   716.97659470
_cell_formula_units_Z   4
loop_
 _symmetry_equiv_pos_site_id
 _symmetry_equiv_pos_as_xyz
  1  'x, y, z'
loop_
 _atom_site_type_symbol
 _atom_site_label
 _atom_site_symmetry_multiplicity
 _atom_site_fract_x
 _atom_site_fract_y
 _atom_site_fract_z
 _atom_site_occupancy
  La  La0  1  0.90423433  0.90423313  0.90423687  1
  La  La1  1  0.43880533  0.43880864  0.06119468  1
  La  La2  1  0.06119286  0.06119499  0.43880806  1
  La  La3  1  0.43880742  0.06119377  0.06119582  1
  La  La4  1  0.30922545  0.69077541  0.30923128  1
  La  La5  1  0.69077415  0.69077889  0.30923034  1
  La  La6  1  0.69077220  0.30922142  0.30923828  1
  La  La7  1  0.28729255  0.90423496  0.90423853  1
  La  La8  1  0.90423359  0.28729437  0.90423804  1
  La  La9  1  0.30922797  0.69077838  0.69077440  1
  La  La10  1  0.90423868  0.90423787  0.28728660  1
  La  La11  1  0.06119671  0.43880668  0.06119608  1
  La  La12  1  0.30923151  0.30921676  0.69077996  1
  La  La13  1  0.06119324  0.43880845  0.43880912  1
  La  La14  1  0.43880699  0.06119606  0.43880638  1
  La  La15  1  0.69077691  0.30921972  0.69078136  1
  Cd  Cd0  1  0.67220761  0.67219352  0.98338388  1
  Cd  Cd1  1  0.98336572  0.67220804  0.67221107  1
  Cd  Cd2  1  0.67221335  0.98337527  0.67219046  1
  Cd  Cd3  1  0.67219909  0.67221832  0.67219353  1
  Ru  Ru0  1  0.11378163  0.11381952  0.65860458  1
  Ru  Ru1  1  0.11382137  0.11378569  0.11378648  1
  Ru  Ru2  1  0.11379285  0.65861219  0.11380460  1
  Ru  Ru3  1  0.65860650  0.11378895  0.11377660  1
loop_
_geom_bond_atom_site_label_1
_geom_bond_atom_site_label_2
_geom_bond_distance
_geom_bond_site_symmetry_2
La0 Ru3 2.999144 1_566
La0 Ru2 2.999386 1_656
La0 Ru0 2.999407 1_665
La0 La9 3.591657 1_655
La0 La15 3.591664 1_565
La0 La5 3.591690 1_556
La1 Ru2 2.836909 1_555
La1 Ru3 2.836965 1_555
La1 La15 3.752314 1_554
La1 La4 3.752334 1_555
La1 La9 3.752375 1_554
La1 La6 3.752413 1_555
La2 Ru0 2.836871 1_555
La2 Ru1 2.836995 1_555
La2 La4 3.752289 1_545
La2 La6 3.752301 1_455
La2 La9 3.752375 1_545
La3 Ru3 2.836629 1_555
La3 Ru1 2.836719 1_555
La3 La4 3.752326 1_545
La3 La5 3.752368 1_545
La4 La7 3.591752 1_554
La4 Ru1 3.596791 1_565
La4 Ru2 3.596848 1_555
La4 La9 3.833142 1_555
La4 La5 3.833142 1_555
La4 La6 3.833177 1_555
La5 Ru3 3.596753 1_565
La5 Ru2 3.596793 1_655
La5 La9 3.833113 1_555
La5 La6 3.833184 1_555
La6 La8 3.591754 1_554
La6 Ru1 3.597075 1_655
La6 Ru3 3.597151 1_555
La7 Ru1 2.999162 1_566
La7 Ru2 2.999320 1_556
La7 Ru0 2.999524 1_565
La7 La9 3.591616 1_555
La8 Ru0 2.999235 1_655
La8 Ru3 2.999383 1_556
La8 Ru1 2.999449 1_656
La9 Ru2 3.596937 1_556
La9 Ru0 3.597002 1_565
La10 Ru2 2.999217 1_655
La10 Ru1 2.999371 1_665
La10 Ru3 2.999492 1_565
La10 La5 3.591585 1_555
La10 La6 3.591670 1_565
La10 La4 3.591684 1_655
La11 Ru2 2.836877 1_555
La11 Ru1 2.836969 1_555
La11 La12 3.752342 1_554
La11 La5 3.752353 1_455
La11 La9 3.752362 1_554
La11 La6 3.752371 1_455
La12 La7 3.591632 1_545
La12 La8 3.591683 1_455
La12 Ru1 3.596746 1_556
La12 Ru0 3.596795 1_555
La12 La14 3.752274 1_555
La12 La3 3.752330 1_556
La12 La13 3.752388 1_555
La12 La6 3.833073 1_555
La12 La15 3.833118 1_555
La12 La9 3.833210 1_555
La12 La4 3.833259 1_555
La13 Ru0 2.836763 1_555
La13 Ru2 2.836901 1_555
La13 La4 3.752298 1_555
La13 La15 3.752321 1_455
La13 La5 3.752334 1_455
La14 Ru0 2.836970 1_555
La14 Ru3 2.837028 1_555
La14 La6 3.752258 1_555
La14 La5 3.752266 1_545
La14 La9 3.752307 1_545
La15 La8 3.591632 1_555
La15 Ru3 3.596656 1_556
La15 Ru0 3.596665 1_655
La15 La2 3.752288 1_655
La15 La3 3.752300 1_556
La15 La6 3.833129 1_555
La15 La9 3.833211 1_555
La15 La5 3.833273 1_555
Cd0 Cd1 3.126058 1_555
Cd0 Cd3 3.126245 1_555
Cd0 Cd2 3.126330 1_555
Cd0 La4 3.470128 1_556
Cd0 La6 3.470160 1_556
Cd0 La5 3.470233 1_556
Cd0 La8 3.636693 1_555
Cd0 La7 3.636852 1_555
Cd0 La0 3.636853 1_555
Cd0 La1 3.665850 1_556
Cd0 La11 3.666009 1_656
Cd0 La3 3.666078 1_566
Cd1 Cd2 3.126011 1_555
Cd1 Cd3 3.126091 1_555
Cd1 La4 3.470179 1_655
Cd1 La9 3.470257 1_655
Cd1 La12 3.470278 1_655
Cd1 La8 3.636779 1_555
Cd1 La0 3.636797 1_555
Cd1 La10 3.636900 1_555
Cd1 La13 3.665912 1_655
Cd1 La2 3.666050 1_665
Cd1 La11 3.666101 1_656
Cd2 Cd3 3.126010 1_555
Cd2 La6 3.470016 1_565
Cd2 La12 3.470111 1_565
Cd2 La15 3.470188 1_565
Cd2 La10 3.636714 1_555
Cd2 La7 3.636846 1_555
Cd2 La0 3.636927 1_555
Cd2 La14 3.665880 1_565
Cd2 La2 3.665925 1_665
Cd2 La3 3.666168 1_566
Cd3 La5 3.469963 1_555
Cd3 La9 3.469977 1_555
Cd3 La15 3.470142 1_555
Cd3 La7 3.636794 1_555
Cd3 La10 3.636822 1_555
Cd3 La8 3.637007 1_555
Cd3 La14 3.665903 1_565
Cd3 La13 3.665973 1_655
Cd3 La1 3.666080 1_556
