# generated using pymatgen
data_Ce3CuSnS7
_symmetry_space_group_name_H-M   'P 1'
_cell_length_a   10.17014618
_cell_length_b   10.17014618
_cell_length_c   6.09067000
_cell_angle_alpha   90.00000000
_cell_angle_beta   90.00000000
_cell_angle_gamma   120.00000115
_symmetry_Int_Tables_number   1
_chemical_formula_structural   Ce3CuSnS7
_chemical_formula_sum   'Ce6 Cu2 Sn2 S14'
_cell_volume   545.56950415
_cell_formula_units_Z   2
loop_
 _symmetry_equiv_pos_site_id
 _symmetry_equiv_pos_as_xyz
  1  'x, y, z'
loop_
 _atom_site_type_symbol
 _atom_site_label
 _atom_site_symmetry_multiplicity
 _atom_site_fract_x
 _atom_site_fract_y
 _atom_site_fract_z
 _atom_site_occupancy
  Ce  Ce0  1  0.22307200  0.35823700  0.75846900  1
  Ce  Ce1  1  0.86483500  0.22307200  0.25846900  1
  Ce  Ce2  1  0.35823700  0.13516500  0.25846900  1
  Ce  Ce3  1  0.64176300  0.86483500  0.75846900  1
  Ce  Ce4  1  0.13516500  0.77692800  0.75846900  1
  Ce  Ce5  1  0.77692800  0.64176300  0.25846900  1
  Cu  Cu0  1  0.00000000  0.00000000  0.71487900  1
  Cu  Cu1  1  0.00000000  0.00000000  0.21487900  1
  Sn  Sn0  1  0.33333300  0.66666700  0.33079400  1
  Sn  Sn1  1  0.66666700  0.33333300  0.83079400  1
  S  S0  1  0.33333300  0.66666700  0.93673900  1
  S  S1  1  0.66666700  0.33333300  0.43673900  1
  S  S2  1  0.90267000  0.15529200  0.72919600  1
  S  S3  1  0.74737800  0.90267000  0.22919600  1
  S  S4  1  0.15529200  0.25262200  0.22919600  1
  S  S5  1  0.84470800  0.74737800  0.72919600  1
  S  S6  1  0.25262200  0.09733000  0.72919600  1
  S  S7  1  0.09733000  0.84470800  0.22919600  1
  S  S8  1  0.42761100  0.91416700  0.50416500  1
  S  S9  1  0.51344400  0.42761100  0.00416500  1
  S  S10  1  0.91416700  0.48655600  0.00416500  1
  S  S11  1  0.08583300  0.51344400  0.50416500  1
  S  S12  1  0.48655600  0.57238900  0.50416500  1
  S  S13  1  0.57238900  0.08583300  0.00416500  1
loop_
_geom_bond_atom_site_label_1
_geom_bond_atom_site_label_2
_geom_bond_distance
_geom_bond_site_symmetry_2
Ce0 S6 2.821419 1_555
Ce0 S2 2.860822 1_455
Ce0 S12 2.913239 1_555
Ce0 S0 2.959440 1_555
Ce0 S11 3.006969 1_555
Ce0 S4 3.018016 1_556
Ce0 S9 3.061790 1_556
Ce0 Cu0 3.197758 1_555
Ce0 S4 3.358610 1_555
Ce1 S4 2.821419 1_655
Ce1 S3 2.860822 1_545
Ce1 S10 2.913239 1_555
Ce1 S1 2.959431 1_555
Ce1 S13 3.006969 1_555
Ce1 S2 3.018016 1_555
Ce1 S11 3.061790 1_655
Ce1 Cu1 3.197758 1_655
Ce1 S2 3.358610 1_554
Ce2 S7 2.821419 1_545
Ce2 S4 2.860822 1_555
Ce2 S13 2.913239 1_555
Ce2 S1 2.959438 1_555
Ce2 S9 3.006969 1_555
Ce2 S6 3.018016 1_555
Ce2 S8 3.061790 1_545
Ce2 Cu1 3.197758 1_555
Ce2 S6 3.358610 1_554
Ce3 S2 2.821419 1_565
Ce3 S5 2.860822 1_555
Ce3 S8 2.913239 1_555
Ce3 S0 2.959438 1_555
Ce3 S12 3.006969 1_555
Ce3 S3 3.018016 1_556
Ce3 S13 3.061790 1_566
Ce3 Cu0 3.197758 1_665
Ce3 S3 3.358610 1_555
Ce4 S5 2.821419 1_455
Ce4 S6 2.860822 1_565
Ce4 S11 2.913239 1_555
Ce4 S0 2.959431 1_555
Ce4 S8 3.006969 1_555
Ce4 S7 3.018016 1_556
Ce4 S10 3.061790 1_456
Ce4 Cu0 3.197758 1_565
Ce4 S7 3.358610 1_555
Ce5 S3 2.821419 1_555
Ce5 S7 2.860822 1_655
Ce5 S9 2.913239 1_555
Ce5 S1 2.959440 1_555
Ce5 S10 3.006969 1_555
Ce5 S5 3.018016 1_555
Ce5 S12 3.061790 1_555
Ce5 Cu1 3.197758 1_665
Ce5 S5 3.358610 1_554
Cu0 S5 2.246125 1_445
Cu0 S6 2.246125 1_555
Cu0 S2 2.246125 1_455
Cu1 S4 2.246125 1_555
Cu1 S3 2.246125 1_445
Cu1 S7 2.246125 1_545
S0 Sn0 2.400059 1_556
S1 Sn1 2.400059 1_555
S8 Sn0 2.440645 1_555
S9 Sn1 2.440654 1_554
S10 Sn1 2.440646 1_554
S11 Sn0 2.440646 1_555
S12 Sn0 2.440654 1_555
S13 Sn1 2.440645 1_554
