# generated using pymatgen
data_BaHg2(ClO)2
_symmetry_space_group_name_H-M   'P 1'
_cell_length_a   12.13352500
_cell_length_b   12.13352500
_cell_length_c   4.37539400
_cell_angle_alpha   90.00000000
_cell_angle_beta   90.00000000
_cell_angle_gamma   90.00000000
_symmetry_Int_Tables_number   1
_chemical_formula_structural   BaHg2(ClO)2
_chemical_formula_sum   'Ba4 Hg8 Cl8 O8'
_cell_volume   644.15613219
_cell_formula_units_Z   4
loop_
 _symmetry_equiv_pos_site_id
 _symmetry_equiv_pos_as_xyz
  1  'x, y, z'
loop_
 _atom_site_type_symbol
 _atom_site_label
 _atom_site_symmetry_multiplicity
 _atom_site_fract_x
 _atom_site_fract_y
 _atom_site_fract_z
 _atom_site_occupancy
  Ba  Ba0  1  0.63604800  0.13604800  0.00000000  1
  Ba  Ba1  1  0.36395200  0.86395200  0.00000000  1
  Ba  Ba2  1  0.13604800  0.36395200  0.00000000  1
  Ba  Ba3  1  0.86395200  0.63604800  0.00000000  1
  Hg  Hg0  1  0.67290000  0.42223400  0.50000000  1
  Hg  Hg1  1  0.32710000  0.57776600  0.50000000  1
  Hg  Hg2  1  0.17290000  0.07776600  0.50000000  1
  Hg  Hg3  1  0.57776600  0.67290000  0.50000000  1
  Hg  Hg4  1  0.82710000  0.92223400  0.50000000  1
  Hg  Hg5  1  0.07776600  0.82710000  0.50000000  1
  Hg  Hg6  1  0.92223400  0.17290000  0.50000000  1
  Hg  Hg7  1  0.42223400  0.32710000  0.50000000  1
  Cl  Cl0  1  0.50000000  0.00000000  0.50000000  1
  Cl  Cl1  1  0.32744600  0.17255400  0.00000000  1
  Cl  Cl2  1  0.67255400  0.82744600  0.00000000  1
  Cl  Cl3  1  0.82744600  0.32744600  0.00000000  1
  Cl  Cl4  1  0.00000000  0.00000000  0.00000000  1
  Cl  Cl5  1  0.50000000  0.50000000  0.00000000  1
  Cl  Cl6  1  0.17255400  0.67255400  0.00000000  1
  Cl  Cl7  1  0.00000000  0.50000000  0.50000000  1
  O  O0  1  0.58635000  0.27121800  0.50000000  1
  O  O1  1  0.41365000  0.72878200  0.50000000  1
  O  O2  1  0.27121800  0.41365000  0.50000000  1
  O  O3  1  0.91365000  0.77121800  0.50000000  1
  O  O4  1  0.22878200  0.91365000  0.50000000  1
  O  O5  1  0.08635000  0.22878200  0.50000000  1
  O  O6  1  0.77121800  0.08635000  0.50000000  1
  O  O7  1  0.72878200  0.58635000  0.50000000  1
loop_
_geom_bond_atom_site_label_1
_geom_bond_atom_site_label_2
_geom_bond_distance
_geom_bond_site_symmetry_2
Ba0 O6 2.799916 1_555
Ba0 O6 2.799916 1_554
Ba0 O0 2.799916 1_554
Ba0 O0 2.799916 1_555
Ba0 Cl0 3.199362 1_554
Ba0 Cl0 3.199362 1_555
Ba0 Cl3 3.284274 1_555
Ba0 Cl2 3.770538 1_545
Ba0 Cl1 3.770538 1_555
Ba1 O1 2.799916 1_555
Ba1 O1 2.799916 1_554
Ba1 O4 2.799916 1_555
Ba1 O4 2.799916 1_554
Ba1 Cl0 3.199362 1_565
Ba1 Cl0 3.199362 1_564
Ba1 Cl6 3.284274 1_555
Ba1 Cl2 3.770538 1_555
Ba1 Cl1 3.770538 1_565
Ba2 O2 2.799916 1_554
Ba2 O2 2.799916 1_555
Ba2 O5 2.799916 1_555
Ba2 O5 2.799916 1_554
Ba2 Cl7 3.199362 1_555
Ba2 Cl7 3.199362 1_554
Ba2 Cl1 3.284274 1_555
Ba2 Cl6 3.770538 1_555
Ba2 Cl3 3.770538 1_455
Ba3 O7 2.799916 1_554
Ba3 O7 2.799916 1_555
Ba3 O3 2.799916 1_555
Ba3 O3 2.799916 1_554
Ba3 Cl7 3.199362 1_655
Ba3 Cl7 3.199362 1_654
Ba3 Cl2 3.284274 1_555
Ba3 Cl6 3.770538 1_655
Ba3 Cl3 3.770538 1_555
Hg0 O7 2.103579 1_555
Hg0 O0 2.111956 1_555
Hg1 O2 2.103579 1_555
Hg1 O1 2.111956 1_555
Hg2 O4 2.103579 1_545
Hg2 O5 2.111956 1_555
Hg3 O1 2.103579 1_555
Hg3 O7 2.111956 1_555
Hg4 O6 2.103579 1_565
Hg4 O3 2.111956 1_555
Hg5 O3 2.103579 1_455
Hg5 O4 2.111956 1_555
Hg6 O5 2.103579 1_655
Hg6 O6 2.111956 1_555
Hg7 O0 2.103579 1_555
Hg7 O2 2.111956 1_555
Cl1 Hg2 3.102436 1_555
Cl1 Hg2 3.102436 1_554
Cl1 Hg7 3.102436 1_554
Cl1 Hg7 3.102436 1_555
Cl2 Hg3 3.102436 1_555
Cl2 Hg3 3.102436 1_554
Cl2 Hg4 3.102436 1_554
Cl2 Hg4 3.102436 1_555
Cl3 Hg6 3.102436 1_554
Cl3 Hg6 3.102436 1_555
Cl3 Hg0 3.102436 1_554
Cl3 Hg0 3.102436 1_555
Cl6 Hg5 3.102436 1_555
Cl6 Hg5 3.102436 1_554
Cl6 Hg1 3.102436 1_555
Cl6 Hg1 3.102436 1_554
