# generated using pymatgen
data_YbPS4
_symmetry_space_group_name_H-M   'P 1'
_cell_length_a   12.08757388
_cell_length_b   12.08757388
_cell_length_c   12.08757388
_cell_angle_alpha   124.80677196
_cell_angle_beta   124.80677196
_cell_angle_gamma   81.85832896
_symmetry_Int_Tables_number   1
_chemical_formula_structural   YbPS4
_chemical_formula_sum   'Yb8 P8 S32'
_cell_volume   1145.36105370
_cell_formula_units_Z   8
loop_
 _symmetry_equiv_pos_site_id
 _symmetry_equiv_pos_as_xyz
  1  'x, y, z'
loop_
 _atom_site_type_symbol
 _atom_site_label
 _atom_site_symmetry_multiplicity
 _atom_site_fract_x
 _atom_site_fract_y
 _atom_site_fract_z
 _atom_site_occupancy
  Yb  Yb0  1  0.00000000  0.50000000  0.50000000  1
  Yb  Yb1  1  0.25000000  0.25000000  0.00000000  1
  Yb  Yb2  1  0.50000000  0.00000000  0.50000000  1
  Yb  Yb3  1  0.00000000  0.00000000  0.00000000  1
  Yb  Yb4  1  0.50000000  0.50000000  0.00000000  1
  Yb  Yb5  1  0.25000000  0.75000000  0.50000000  1
  Yb  Yb6  1  0.75000000  0.75000000  0.00000000  1
  Yb  Yb7  1  0.75000000  0.25000000  0.50000000  1
  P  P0  1  0.62500000  0.92443000  0.79943000  1
  P  P1  1  0.57557000  0.87500000  0.20057000  1
  P  P2  1  0.07557000  0.87500000  0.70057000  1
  P  P3  1  0.67443000  0.37500000  0.79943000  1
  P  P4  1  0.12500000  0.32557000  0.70057000  1
  P  P5  1  0.17443000  0.37500000  0.29943000  1
  P  P6  1  0.12500000  0.82557000  0.20057000  1
  P  P7  1  0.62500000  0.42443000  0.29943000  1
  S  S0  1  0.03888600  0.84417100  0.31331500  1
  S  S1  1  0.27512900  0.22512700  0.24091800  1
  S  S2  1  0.53888600  0.22557100  0.19471500  1
  S  S3  1  0.71111400  0.40582900  0.18668500  1
  S  S4  1  0.47487100  0.02487300  0.25908200  1
  S  S5  1  0.26579000  0.52487300  0.55000100  1
  S  S6  1  0.77442900  0.96914400  0.31331500  1
  S  S7  1  0.65582900  0.46111400  0.68668500  1
  S  S8  1  0.96578900  0.72487100  0.94999900  1
  S  S9  1  0.53085600  0.72557100  0.68668500  1
  S  S10  1  0.59417100  0.78085600  0.30528500  1
  S  S11  1  0.47557100  0.28888600  0.69471500  1
  S  S12  1  0.21914400  0.52442900  0.81331500  1
  S  S13  1  0.28421100  0.73421000  0.25908200  1
  S  S14  1  0.76579000  0.21578900  0.74091800  1
  S  S15  1  0.97487100  0.71578900  0.44999900  1
  S  S16  1  0.47512700  0.02512900  0.74091800  1
  S  S17  1  0.21111400  0.02442900  0.30528500  1
  S  S18  1  0.77487300  0.01579000  0.05000100  1
  S  S19  1  0.03085600  0.34417100  0.80528500  1
  S  S20  1  0.98421000  0.03421100  0.75908200  1
  S  S21  1  0.46578900  0.51579000  0.24091800  1
  S  S22  1  0.97512700  0.23421000  0.44999900  1
  S  S23  1  0.27442900  0.96111400  0.80528500  1
  S  S24  1  0.15582900  0.46914400  0.19471500  1
  S  S25  1  0.71914400  0.90582900  0.69471500  1
  S  S26  1  0.48421000  0.72512700  0.94999900  1
  S  S27  1  0.97557100  0.28085600  0.18668500  1
  S  S28  1  0.09417100  0.78888600  0.81331500  1
  S  S29  1  0.77512900  0.53421100  0.05000100  1
  S  S30  1  0.78421100  0.52512900  0.55000100  1
  S  S31  1  0.27487300  0.22487100  0.75908200  1
loop_
_geom_bond_atom_site_label_1
_geom_bond_atom_site_label_2
_geom_bond_distance
_geom_bond_site_symmetry_2
P0 S18 2.039408 1_566
P0 S16 2.039414 1_565
P0 S25 2.048089 1_555
P0 S9 2.048089 1_555
P1 S26 2.039408 1_554
P1 S4 2.039414 1_565
P1 S10 2.048089 1_555
P1 S6 2.048089 1_555
P2 S20 2.039407 1_465
P2 S15 2.039407 1_455
P2 S23 2.048089 1_555
P2 S28 2.048089 1_555
P3 S29 2.039407 1_556
P3 S14 2.039407 1_555
P3 S11 2.048089 1_555
P3 S7 2.048089 1_555
P4 S22 2.039408 1_455
P4 S31 2.039414 1_555
P4 S12 2.048089 1_555
P4 S19 2.048089 1_555
P5 S5 2.039408 1_555
P5 S1 2.039414 1_555
P5 S24 2.048089 1_555
P5 S27 2.048089 1_455
P6 S13 2.039407 1_555
P6 S8 2.039407 1_454
P6 S17 2.048089 1_565
P6 S0 2.048089 1_555
P7 S30 2.039407 1_555
P7 S21 2.039407 1_555
P7 S2 2.048089 1_555
P7 S3 2.048089 1_555
S0 Yb5 2.904395 1_555
S0 Yb6 2.989826 1_455
S1 Yb1 2.937160 1_555
S1 Yb3 3.066873 1_555
S2 Yb7 2.904395 1_555
S2 Yb1 2.989826 1_555
S3 Yb4 2.904395 1_555
S3 Yb0 2.989826 1_655
S4 Yb2 2.937160 1_555
S4 Yb7 3.066873 1_555
S5 Yb0 2.937154 1_555
S5 Yb5 3.066867 1_555
S6 Yb7 2.904395 1_565
S6 Yb6 2.989826 1_555
S7 Yb7 2.904395 1_555
S7 Yb6 2.989826 1_556
S8 Yb6 2.937152 1_556
S8 Yb3 3.066879 1_666
S9 Yb5 2.904395 1_555
S9 Yb6 2.989826 1_556
S10 Yb4 2.904395 1_555
S10 Yb2 2.989826 1_565
S11 Yb4 2.904395 1_556
S11 Yb2 2.989826 1_555
S12 Yb4 2.904395 1_556
S12 Yb0 2.989826 1_555
S13 Yb2 2.937152 1_565
S13 Yb5 3.066879 1_555
S14 Yb2 2.937152 1_555
S14 Yb7 3.066879 1_555
S15 Yb0 2.937152 1_655
S15 Yb5 3.066879 1_655
S16 Yb2 2.937160 1_555
S16 Yb5 3.066873 1_545
S17 Yb3 2.904395 1_555
S17 Yb2 2.989826 1_555
S18 Yb6 2.937154 1_545
S18 Yb3 3.066867 1_655
S19 Yb7 2.904395 1_455
S19 Yb1 2.989826 1_556
S20 Yb1 2.937152 1_656
S20 Yb3 3.066879 1_656
S21 Yb1 2.937152 1_555
S21 Yb4 3.066879 1_555
S22 Yb0 2.937154 1_655
S22 Yb7 3.066867 1_555
S23 Yb5 2.904395 1_555
S23 Yb1 2.989826 1_566
S24 Yb5 2.904395 1_555
S24 Yb1 2.989826 1_555
S25 Yb3 2.904395 1_666
S25 Yb2 2.989826 1_565
S26 Yb6 2.937154 1_556
S26 Yb4 3.066867 1_556
S27 Yb3 2.904395 1_655
S27 Yb0 2.989826 1_655
S28 Yb3 2.904395 1_566
S28 Yb0 2.989826 1_555
S29 Yb6 2.937152 1_555
S29 Yb4 3.066879 1_555
S30 Yb0 2.937152 1_655
S30 Yb7 3.066879 1_555
S31 Yb1 2.937160 1_556
S31 Yb4 3.066873 1_556
