# generated using pymatgen
data_K2NaS2ClO6
_symmetry_space_group_name_H-M   'P 1'
_cell_length_a   12.32220600
_cell_length_b   12.32220600
_cell_length_c   5.67074700
_cell_angle_alpha   90.00000000
_cell_angle_beta   90.00000000
_cell_angle_gamma   90.00000000
_symmetry_Int_Tables_number   1
_chemical_formula_structural   K2NaS2ClO6
_chemical_formula_sum   'K8 Na4 S8 Cl4 O24'
_cell_volume   861.02785527
_cell_formula_units_Z   4
loop_
 _symmetry_equiv_pos_site_id
 _symmetry_equiv_pos_as_xyz
  1  'x, y, z'
loop_
 _atom_site_type_symbol
 _atom_site_label
 _atom_site_symmetry_multiplicity
 _atom_site_fract_x
 _atom_site_fract_y
 _atom_site_fract_z
 _atom_site_occupancy
  K  K0  1  0.05537400  0.25015100  0.48260700  1
  K  K1  1  0.75015100  0.44462600  0.48260700  1
  K  K2  1  0.44462600  0.24984900  0.51739300  1
  K  K3  1  0.94462600  0.74984900  0.48260700  1
  K  K4  1  0.24984900  0.55537400  0.48260700  1
  K  K5  1  0.25015100  0.94462600  0.51739300  1
  K  K6  1  0.55537400  0.75015100  0.51739300  1
  K  K7  1  0.74984900  0.05537400  0.51739300  1
  Na  Na0  1  0.50000000  0.00000000  0.94722400  1
  Na  Na1  1  0.00000000  0.00000000  0.00000000  1
  Na  Na2  1  0.00000000  0.50000000  0.05277600  1
  Na  Na3  1  0.50000000  0.50000000  0.00000000  1
  S  S0  1  0.75912200  0.83771700  0.02449000  1
  S  S1  1  0.66228300  0.25912200  0.02449000  1
  S  S2  1  0.83771700  0.24087800  0.97551000  1
  S  S3  1  0.25912200  0.33771700  0.97551000  1
  S  S4  1  0.74087800  0.66228300  0.97551000  1
  S  S5  1  0.24087800  0.16228300  0.02449000  1
  S  S6  1  0.33771700  0.74087800  0.02449000  1
  S  S7  1  0.16228300  0.75912200  0.97551000  1
  Cl  Cl0  1  0.50000000  0.00000000  0.43848200  1
  Cl  Cl1  1  0.00000000  0.00000000  0.50000000  1
  Cl  Cl2  1  0.00000000  0.50000000  0.56151800  1
  Cl  Cl3  1  0.50000000  0.50000000  0.50000000  1
  O  O0  1  0.86751200  0.86044700  0.92818800  1
  O  O1  1  0.13955300  0.86751200  0.07181200  1
  O  O2  1  0.38704600  0.83001500  0.88856400  1
  O  O3  1  0.74945900  0.64719600  0.71893000  1
  O  O4  1  0.16998500  0.38704600  0.11143600  1
  O  O5  1  0.11295400  0.66998500  0.11143600  1
  O  O6  1  0.63955300  0.36751200  0.92818800  1
  O  O7  1  0.64719600  0.25054100  0.28107000  1
  O  O8  1  0.14719600  0.75054100  0.71893000  1
  O  O9  1  0.24945900  0.14719600  0.28107000  1
  O  O10  1  0.36751200  0.36044700  0.07181200  1
  O  O11  1  0.33001500  0.11295400  0.88856400  1
  O  O12  1  0.63248800  0.63955300  0.07181200  1
  O  O13  1  0.13248800  0.13955300  0.92818800  1
  O  O14  1  0.35280400  0.74945900  0.28107000  1
  O  O15  1  0.36044700  0.63248800  0.92818800  1
  O  O16  1  0.86044700  0.13248800  0.07181200  1
  O  O17  1  0.75054100  0.85280400  0.28107000  1
  O  O18  1  0.85280400  0.24945900  0.71893000  1
  O  O19  1  0.61295400  0.16998500  0.88856400  1
  O  O20  1  0.88704600  0.33001500  0.11143600  1
  O  O21  1  0.25054100  0.35280400  0.71893000  1
  O  O22  1  0.66998500  0.88704600  0.88856400  1
  O  O23  1  0.83001500  0.61295400  0.11143600  1
loop_
_geom_bond_atom_site_label_1
_geom_bond_atom_site_label_2
_geom_bond_distance
_geom_bond_site_symmetry_2
K0 O18 2.833121 1_455
K0 O9 2.938555 1_555
K0 O13 3.024031 1_555
K0 O21 3.029757 1_555
K0 O4 3.044699 1_555
K0 O20 3.114627 1_455
K1 O3 2.833121 1_555
K1 O7 2.938555 1_555
K1 O6 3.024031 1_555
K1 O18 3.029757 1_555
K1 O20 3.044699 1_555
K1 O23 3.114627 1_555
K2 O7 2.833121 1_555
K2 O21 2.938555 1_555
K2 O10 3.024031 1_555
K2 O9 3.029757 1_555
K2 O11 3.044699 1_555
K2 O19 3.114627 1_555
K3 O8 2.833121 1_655
K3 O17 2.938555 1_555
K3 O0 3.024031 1_555
K3 O3 3.029757 1_555
K3 O23 3.044699 1_555
K3 O5 3.114627 1_655
K4 O21 2.833121 1_555
K4 O14 2.938555 1_555
K4 O15 3.024031 1_555
K4 O8 3.029757 1_555
K4 O5 3.044699 1_555
K4 O4 3.114627 1_555
K5 O9 2.833121 1_565
K5 O8 2.938555 1_555
K5 O1 3.024031 1_555
K5 O14 3.029757 1_555
K5 O2 3.044699 1_555
K5 O11 3.114627 1_565
K6 O14 2.833121 1_555
K6 O3 2.938555 1_555
K6 O12 3.024031 1_555
K6 O17 3.029757 1_555
K6 O22 3.044699 1_555
K6 O2 3.114627 1_555
K7 O17 2.833121 1_545
K7 O18 2.938555 1_555
K7 O16 3.024031 1_555
K7 O7 3.029757 1_555
K7 O19 3.044699 1_555
K7 O22 3.114627 1_545
Na0 O22 2.536767 1_545
Na0 O19 2.536767 1_555
Na0 O11 2.536767 1_555
Na0 O2 2.536767 1_545
Na1 O13 2.405839 1_554
Na1 O1 2.405839 1_545
Na1 O0 2.405839 1_444
Na1 O16 2.405839 1_455
Na2 O5 2.536767 1_555
Na2 O20 2.536767 1_455
Na2 O23 2.536767 1_455
Na2 O4 2.536767 1_555
Na3 O12 2.405839 1_555
Na3 O6 2.405839 1_554
Na3 O15 2.405839 1_554
Na3 O10 2.405839 1_555
Cl0 Na0 2.785800 1_554
Cl0 Na0 2.884947 1_555
Cl0 K6 3.184989 1_545
Cl0 K7 3.184989 1_555
Cl0 K5 3.184989 1_545
Cl0 K2 3.184989 1_555
Cl1 Na1 2.835374 1_555
Cl1 Na1 2.835374 1_556
Cl1 K7 3.158570 1_455
Cl1 K0 3.158570 1_555
Cl1 K5 3.158570 1_545
Cl1 K3 3.158570 1_445
Cl2 Na2 2.785800 1_556
Cl2 Na2 2.884947 1_555
Cl2 K4 3.184989 1_555
Cl2 K3 3.184989 1_455
Cl2 K0 3.184989 1_555
Cl2 K1 3.184989 1_455
Cl3 Na3 2.835374 1_556
Cl3 Na3 2.835374 1_555
Cl3 K4 3.158570 1_555
Cl3 K6 3.158570 1_555
Cl3 K1 3.158570 1_555
Cl3 K2 3.158570 1_555
O0 S0 1.469869 1_556
O1 S7 1.469869 1_554
O2 S6 1.473096 1_556
O3 S4 1.470635 1_555
O4 S3 1.473096 1_554
O5 S7 1.473096 1_554
O6 S1 1.469869 1_556
O7 S1 1.470635 1_555
O8 S7 1.470635 1_555
O9 S5 1.470635 1_555
O10 S3 1.469869 1_554
O11 S5 1.473096 1_556
O12 S4 1.469869 1_554
O13 S5 1.469869 1_556
O14 S6 1.470635 1_555
O15 S6 1.469869 1_556
O16 S2 1.469869 1_554
O17 S0 1.470635 1_555
O18 S2 1.470635 1_555
O19 S1 1.473096 1_556
O20 S2 1.473096 1_554
O21 S3 1.470635 1_555
O22 S0 1.473096 1_556
O23 S4 1.473096 1_554
