# generated using pymatgen
data_BaU(SiO4)2
_symmetry_space_group_name_H-M   'P 1'
_cell_length_a   8.70746073
_cell_length_b   8.70746073
_cell_length_c   7.64267449
_cell_angle_alpha   90.00000000
_cell_angle_beta   90.00000000
_cell_angle_gamma   141.86320731
_symmetry_Int_Tables_number   1
_chemical_formula_structural   BaU(SiO4)2
_chemical_formula_sum   'Ba2 U2 Si4 O16'
_cell_volume   357.84443347
_cell_formula_units_Z   2
loop_
 _symmetry_equiv_pos_site_id
 _symmetry_equiv_pos_as_xyz
  1  'x, y, z'
loop_
 _atom_site_type_symbol
 _atom_site_label
 _atom_site_symmetry_multiplicity
 _atom_site_fract_x
 _atom_site_fract_y
 _atom_site_fract_z
 _atom_site_occupancy
  Ba  Ba0  1  0.21020358  0.78979642  0.75000000  1
  Ba  Ba1  1  0.78979642  0.21020358  0.25000000  1
  U  U0  1  0.87852129  0.12147871  0.75000000  1
  U  U1  1  0.12147871  0.87852129  0.25000000  1
  Si  Si0  1  0.40459773  0.59540227  0.04070049  1
  Si  Si1  1  0.59540227  0.40459773  0.95929951  1
  Si  Si2  1  0.40459773  0.59540227  0.45929951  1
  Si  Si3  1  0.59540227  0.40459773  0.54070049  1
  O  O0  1  0.59076492  0.87082144  0.53767204  1
  O  O1  1  0.01065517  0.98934483  0.25000000  1
  O  O2  1  0.40923508  0.12917856  0.03767204  1
  O  O3  1  0.98934483  0.01065517  0.75000000  1
  O  O4  1  0.12917856  0.40923508  0.96232796  1
  O  O5  1  0.59076492  0.87082144  0.96232796  1
  O  O6  1  0.87082144  0.59076492  0.03767204  1
  O  O7  1  0.12917856  0.40923508  0.53767204  1
  O  O8  1  0.87082144  0.59076492  0.46232796  1
  O  O9  1  0.76645064  0.23354936  0.75000000  1
  O  O10  1  0.60650280  0.39349720  0.75000000  1
  O  O11  1  0.50000000  0.50000000  0.50000000  1
  O  O12  1  0.40923508  0.12917856  0.46232796  1
  O  O13  1  0.23354936  0.76645064  0.25000000  1
  O  O14  1  0.50000000  0.50000000  -0.00000000  1
  O  O15  1  0.39349720  0.60650280  0.25000000  1
loop_
_geom_bond_atom_site_label_1
_geom_bond_atom_site_label_2
_geom_bond_distance
_geom_bond_site_symmetry_2
Ba0 O2 2.917835 1_566
Ba0 O6 2.917835 1_456
Ba0 O12 2.917835 1_565
Ba0 O8 2.917835 1_455
Ba0 O9 2.991554 1_565
Ba0 O9 2.991554 1_455
Ba0 O7 3.230193 1_555
Ba0 O4 3.230193 1_555
Ba0 O0 3.230193 1_555
Ba0 O5 3.230193 1_555
Ba0 O10 3.317474 1_455
Ba0 O10 3.317474 1_565
Ba1 O4 2.917835 1_654
Ba1 O5 2.917835 1_544
Ba1 O7 2.917835 1_655
Ba1 O0 2.917835 1_545
Ba1 O13 2.991554 1_655
Ba1 O13 2.991554 1_545
Ba1 O6 3.230193 1_555
Ba1 O12 3.230193 1_555
Ba1 O2 3.230193 1_555
Ba1 O8 3.230193 1_555
Ba1 O15 3.317474 1_655
Ba1 O15 3.317474 1_545
O0 Si2 1.619397 1_555
O0 U0 2.252203 1_565
O1 U1 1.824084 1_555
O2 Si1 1.619397 1_554
O2 U1 2.252203 1_545
O3 U0 1.824084 1_555
O4 Si0 1.619397 1_556
O4 U0 2.252203 1_455
O5 Si0 1.619397 1_556
O5 U0 2.252203 1_565
O6 Si1 1.619397 1_554
O6 U1 2.252203 1_655
O7 Si2 1.619397 1_555
O7 U0 2.252203 1_455
O8 Si3 1.619397 1_555
O8 U1 2.252203 1_655
O9 U0 1.844610 1_555
O10 Si1 1.610009 1_555
O10 Si3 1.610009 1_555
O11 Si3 1.600773 1_555
O11 Si2 1.600773 1_555
O12 Si3 1.619397 1_555
O12 U1 2.252203 1_545
O13 U1 1.844610 1_555
O14 Si0 1.600773 1_555
O14 Si1 1.600773 1_554
O15 Si0 1.610009 1_555
O15 Si2 1.610009 1_555
