# generated using pymatgen
data_Ba8Nb6CoO24
_symmetry_space_group_name_H-M   'P 1'
_cell_length_a   5.87546393
_cell_length_b   5.87546393
_cell_length_c   19.20686300
_cell_angle_alpha   90.00000000
_cell_angle_beta   90.00000000
_cell_angle_gamma   119.99999919
_symmetry_Int_Tables_number   1
_chemical_formula_structural   Ba8Nb6CoO24
_chemical_formula_sum   'Ba8 Nb6 Co1 O24'
_cell_volume   574.21086059
_cell_formula_units_Z   1
loop_
 _symmetry_equiv_pos_site_id
 _symmetry_equiv_pos_as_xyz
  1  'x, y, z'
loop_
 _atom_site_type_symbol
 _atom_site_label
 _atom_site_symmetry_multiplicity
 _atom_site_fract_x
 _atom_site_fract_y
 _atom_site_fract_z
 _atom_site_occupancy
  Ba  Ba0  1  0.66666700  0.33333300  0.31731900  1
  Ba  Ba1  1  0.66666700  0.33333300  0.93839800  1
  Ba  Ba2  1  0.33333300  0.66666700  0.06160200  1
  Ba  Ba3  1  0.33333300  0.66666700  0.68268100  1
  Ba  Ba4  1  0.33333300  0.66666700  0.45582000  1
  Ba  Ba5  1  0.66666700  0.33333300  0.54418000  1
  Ba  Ba6  1  0.00000000  0.00000000  0.81407000  1
  Ba  Ba7  1  0.00000000  0.00000000  0.18593000  1
  Nb  Nb0  1  0.00000000  0.00000000  0.38520500  1
  Nb  Nb1  1  0.66666700  0.33333300  0.74692200  1
  Nb  Nb2  1  0.00000000  0.00000000  0.61479500  1
  Nb  Nb3  1  0.33333300  0.66666700  0.87919000  1
  Nb  Nb4  1  0.33333300  0.66666700  0.25307800  1
  Nb  Nb5  1  0.66666700  0.33333300  0.12081000  1
  Co  Co0  1  0.00000000  0.00000000  0.00000000  1
  O  O0  1  0.16883900  0.83116100  0.30707600  1
  O  O1  1  0.33767700  0.16883900  0.69292400  1
  O  O2  1  0.16404300  0.83595700  0.57053500  1
  O  O3  1  0.83595700  0.16404300  0.42946500  1
  O  O4  1  0.49889000  0.50111000  0.18674500  1
  O  O5  1  0.50111000  0.49889000  0.81325500  1
  O  O6  1  0.50111000  0.00222000  0.81325500  1
  O  O7  1  0.99778000  0.49889000  0.81325500  1
  O  O8  1  0.00222000  0.50111000  0.18674500  1
  O  O9  1  0.49889000  0.99778000  0.18674500  1
  O  O10  1  0.17201500  0.82798500  0.93486600  1
  O  O11  1  0.32808600  0.16404300  0.42946500  1
  O  O12  1  0.67191400  0.83595700  0.57053500  1
  O  O13  1  0.16883900  0.33767700  0.30707600  1
  O  O14  1  0.83595700  0.67191400  0.42946500  1
  O  O15  1  0.82798500  0.65597000  0.06513400  1
  O  O16  1  0.83116100  0.66232300  0.69292400  1
  O  O17  1  0.66232300  0.83116100  0.30707600  1
  O  O18  1  0.34403000  0.17201500  0.06513400  1
  O  O19  1  0.82798500  0.17201500  0.06513400  1
  O  O20  1  0.16404300  0.32808600  0.57053500  1
  O  O21  1  0.17201500  0.34403000  0.93486600  1
  O  O22  1  0.65597000  0.82798500  0.93486600  1
  O  O23  1  0.83116100  0.16883900  0.69292400  1
loop_
_geom_bond_atom_site_label_1
_geom_bond_atom_site_label_2
_geom_bond_distance
_geom_bond_site_symmetry_2
Ba0 O3 2.758193 1_555
Ba0 O14 2.758196 1_555
Ba0 O11 2.758196 1_555
Ba0 O13 2.944395 1_555
Ba0 O17 2.944395 1_555
Ba0 O17 2.944395 1_545
Ba0 O13 2.944395 1_655
Ba0 O0 2.944395 1_655
Ba0 O0 2.944395 1_545
Ba0 O9 3.033949 1_545
Ba0 O8 3.033949 1_655
Ba0 O4 3.033951 1_555
Ba1 O7 2.935281 1_555
Ba1 O6 2.935281 1_555
Ba1 O5 2.935284 1_555
Ba1 O19 2.936054 1_556
Ba1 O15 2.936057 1_556
Ba1 O18 2.936057 1_556
Ba1 O22 2.939016 1_545
Ba1 O21 2.939016 1_655
Ba1 O10 2.939019 1_545
Ba1 O10 2.939019 1_655
Ba1 O22 2.939022 1_555
Ba1 O21 2.939022 1_555
Ba2 O8 2.935281 1_555
Ba2 O9 2.935281 1_555
Ba2 O4 2.935284 1_555
Ba2 O10 2.936054 1_554
Ba2 O21 2.936057 1_554
Ba2 O22 2.936057 1_554
Ba2 O15 2.939016 1_455
Ba2 O18 2.939016 1_565
Ba2 O19 2.939019 1_565
Ba2 O19 2.939019 1_455
Ba2 O15 2.939022 1_555
Ba2 O18 2.939022 1_555
Ba3 O2 2.758193 1_555
Ba3 O20 2.758196 1_555
Ba3 O12 2.758196 1_555
Ba3 O16 2.944395 1_555
Ba3 O1 2.944395 1_555
Ba3 O1 2.944395 1_565
Ba3 O16 2.944395 1_455
Ba3 O23 2.944395 1_565
Ba3 O23 2.944395 1_455
Ba3 O7 3.033949 1_455
Ba3 O6 3.033949 1_565
Ba3 O5 3.033951 1_555
Ba4 O2 2.796896 1_555
Ba4 O12 2.796899 1_555
Ba4 O20 2.796899 1_555
Ba4 O11 2.981141 1_565
Ba4 O14 2.981141 1_455
Ba4 O3 2.981144 1_565
Ba4 O3 2.981144 1_455
Ba4 O14 2.981146 1_555
Ba4 O11 2.981146 1_555
Ba4 O0 3.311216 1_555
Ba4 O17 3.311221 1_555
Ba4 O13 3.311221 1_555
Ba5 O3 2.796896 1_555
Ba5 O14 2.796899 1_555
Ba5 O11 2.796899 1_555
Ba5 O20 2.981141 1_655
Ba5 O12 2.981141 1_545
Ba5 O2 2.981144 1_655
Ba5 O2 2.981144 1_545
Ba5 O12 2.981146 1_555
Ba5 O20 2.981146 1_555
Ba5 O23 3.311216 1_555
Ba5 O16 3.311221 1_555
Ba5 O1 3.311221 1_555
Ba6 O16 2.892469 1_445
Ba6 O1 2.892469 1_555
Ba6 O23 2.892472 1_455
Ba6 O10 2.906419 1_545
Ba6 O22 2.906419 1_445
Ba6 O21 2.906419 1_555
Ba6 O6 2.937795 1_455
Ba6 O7 2.937795 1_455
Ba6 O7 2.937795 1_445
Ba6 O6 2.937795 1_555
Ba6 O5 2.937795 1_445
Ba6 O5 2.937795 1_555
Ba7 O17 2.892469 1_445
Ba7 O13 2.892469 1_555
Ba7 O0 2.892472 1_545
Ba7 O19 2.906419 1_455
Ba7 O15 2.906419 1_445
Ba7 O18 2.906419 1_555
Ba7 O8 2.937795 1_545
Ba7 O9 2.937795 1_545
Ba7 O9 2.937795 1_445
Ba7 O8 2.937795 1_555
Ba7 O4 2.937795 1_445
Ba7 O4 2.937795 1_555
Nb0 O3 1.873382 1_455
Nb0 O14 1.873382 1_445
Nb0 O11 1.873382 1_555
Nb0 O17 2.281241 1_445
Nb0 O13 2.281241 1_555
Nb0 O0 2.281244 1_545
Nb1 O23 1.969235 1_555
Nb1 O16 1.969243 1_555
Nb1 O1 1.969243 1_555
Nb1 O6 2.112288 1_555
Nb1 O7 2.112288 1_555
Nb1 O5 2.112292 1_555
Nb2 O2 1.873382 1_545
Nb2 O12 1.873382 1_445
Nb2 O20 1.873382 1_555
Nb2 O16 2.281241 1_445
Nb2 O1 2.281241 1_555
Nb2 O23 2.281244 1_455
Nb3 O10 1.959237 1_555
Nb3 O21 1.959242 1_555
Nb3 O22 1.959242 1_555
Nb3 O7 2.125789 1_455
Nb3 O6 2.125789 1_565
Nb3 O5 2.125793 1_555
Nb4 O0 1.969235 1_555
Nb4 O17 1.969243 1_555
Nb4 O13 1.969243 1_555
Nb4 O8 2.112288 1_555
Nb4 O9 2.112288 1_555
Nb4 O4 2.112292 1_555
Nb5 O19 1.959237 1_555
Nb5 O18 1.959242 1_555
Nb5 O15 1.959242 1_555
Nb5 O9 2.125789 1_545
Nb5 O8 2.125789 1_655
Nb5 O4 2.125793 1_555
Co0 O19 2.151604 1_455
Co0 O10 2.151604 1_544
Co0 O15 2.151604 1_445
Co0 O18 2.151604 1_555
Co0 O21 2.151604 1_554
Co0 O22 2.151604 1_444
