# generated using pymatgen
data_CsLi2I3
_symmetry_space_group_name_H-M   'P 1'
_cell_length_a   4.59530478
_cell_length_b   4.59530478
_cell_length_c   10.81571048
_cell_angle_alpha   90.00000000
_cell_angle_beta   90.00000000
_cell_angle_gamma   90.00000000
_symmetry_Int_Tables_number   1
_chemical_formula_structural   CsLi2I3
_chemical_formula_sum   'Cs1 Li2 I3'
_cell_volume   228.39347650
_cell_formula_units_Z   1
loop_
 _symmetry_equiv_pos_site_id
 _symmetry_equiv_pos_as_xyz
  1  'x, y, z'
loop_
 _atom_site_type_symbol
 _atom_site_label
 _atom_site_symmetry_multiplicity
 _atom_site_fract_x
 _atom_site_fract_y
 _atom_site_fract_z
 _atom_site_occupancy
  Cs  Cs0  1  0.50000000  0.50000000  0.50000000  1
  Li  Li0  1  0.50000000  0.00000000  0.14330605  1
  Li  Li1  1  0.00000000  0.50000000  0.85669395  1
  I  I0  1  0.00000000  -0.00000000  0.29333846  1
  I  I1  1  0.00000000  0.00000000  0.70666154  1
  I  I2  1  0.50000000  0.50000000  0.00000000  1
loop_
_geom_bond_atom_site_label_1
_geom_bond_atom_site_label_2
_geom_bond_distance
_geom_bond_site_symmetry_2
Cs0 I1 3.943919 1_565
Cs0 I0 3.943919 1_655
Cs0 I1 3.943919 1_655
Cs0 I0 3.943919 1_555
Cs0 I0 3.943919 1_665
Cs0 I1 3.943919 1_665
Cs0 I1 3.943919 1_555
Cs0 I0 3.943919 1_565
I0 Li0 2.812896 1_455
I0 Li0 2.812896 1_555
I1 Li1 2.812896 1_555
I1 Li1 2.812896 1_545
I2 Li0 2.771565 1_565
I2 Li1 2.771565 1_654
I2 Li1 2.771565 1_554
I2 Li0 2.771565 1_555
