# generated using pymatgen
data_SbCNCl6
_symmetry_space_group_name_H-M   'P 1'
_cell_length_a   8.08289600
_cell_length_b   10.12700900
_cell_length_c   13.40851000
_cell_angle_alpha   90.00000000
_cell_angle_beta   90.00000000
_cell_angle_gamma   90.00000000
_symmetry_Int_Tables_number   1
_chemical_formula_structural   SbCNCl6
_chemical_formula_sum   'Sb4 C4 N4 Cl24'
_cell_volume   1097.56110203
_cell_formula_units_Z   4
loop_
 _symmetry_equiv_pos_site_id
 _symmetry_equiv_pos_as_xyz
  1  'x, y, z'
loop_
 _atom_site_type_symbol
 _atom_site_label
 _atom_site_symmetry_multiplicity
 _atom_site_fract_x
 _atom_site_fract_y
 _atom_site_fract_z
 _atom_site_occupancy
  Sb  Sb0  1  0.79130600  0.25000000  0.58307200  1
  Sb  Sb1  1  0.29130600  0.75000000  0.91692800  1
  Sb  Sb2  1  0.20869400  0.75000000  0.41692800  1
  Sb  Sb3  1  0.70869400  0.25000000  0.08307200  1
  C  C0  1  0.65538500  0.75000000  0.05520200  1
  C  C1  1  0.15538500  0.25000000  0.44479800  1
  C  C2  1  0.34461500  0.25000000  0.94479800  1
  C  C3  1  0.84461500  0.75000000  0.55520200  1
  N  N0  1  0.46032200  0.25000000  0.99666300  1
  N  N1  1  0.03967800  0.25000000  0.49666300  1
  N  N2  1  0.53967800  0.75000000  0.00333700  1
  N  N3  1  0.96032200  0.75000000  0.50333700  1
  Cl  Cl0  1  0.71476400  0.41537700  0.46624500  1
  Cl  Cl1  1  0.46596800  0.75000000  0.33232700  1
  Cl  Cl2  1  0.08271100  0.58515200  0.31557600  1
  Cl  Cl3  1  0.03403200  0.75000000  0.83232700  1
  Cl  Cl4  1  0.31397100  0.25000000  0.37407000  1
  Cl  Cl5  1  0.96596800  0.25000000  0.16767300  1
  Cl  Cl6  1  0.81397100  0.75000000  0.12593000  1
  Cl  Cl7  1  0.08271100  0.91484800  0.31557600  1
  Cl  Cl8  1  0.28523600  0.58462300  0.53375500  1
  Cl  Cl9  1  0.21476400  0.91537700  0.03375500  1
  Cl  Cl10  1  0.91728900  0.08515200  0.68442400  1
  Cl  Cl11  1  0.21476400  0.58462300  0.03375500  1
  Cl  Cl12  1  0.53403200  0.25000000  0.66767300  1
  Cl  Cl13  1  0.71476400  0.08462300  0.46624500  1
  Cl  Cl14  1  0.91728900  0.41484800  0.68442400  1
  Cl  Cl15  1  0.68602900  0.75000000  0.62593000  1
  Cl  Cl16  1  0.28523600  0.91537700  0.53375500  1
  Cl  Cl17  1  0.18602900  0.25000000  0.87407000  1
  Cl  Cl18  1  0.58271100  0.41484800  0.18442400  1
  Cl  Cl19  1  0.41728900  0.91484800  0.81557600  1
  Cl  Cl20  1  0.58271100  0.08515200  0.18442400  1
  Cl  Cl21  1  0.78523600  0.41537700  0.96624500  1
  Cl  Cl22  1  0.78523600  0.08462300  0.96624500  1
  Cl  Cl23  1  0.41728900  0.58515200  0.81557600  1
loop_
_geom_bond_atom_site_label_1
_geom_bond_atom_site_label_2
_geom_bond_distance
_geom_bond_site_symmetry_2
C0 N2 1.165467 1_555
C0 Cl6 1.594516 1_555
C1 N1 1.165467 1_555
C1 Cl4 1.594516 1_555
C2 N0 1.165467 1_555
C2 Cl17 1.594516 1_555
C3 N3 1.165467 1_555
C3 Cl15 1.594516 1_555
N0 Sb3 2.317910 1_556
N1 Sb0 2.317910 1_455
N2 Sb1 2.317910 1_554
N3 Sb2 2.317910 1_655
Cl0 Sb0 2.375181 1_555
Cl1 Sb2 2.368798 1_555
Cl2 Sb2 2.381329 1_555
Cl3 Sb1 2.368798 1_555
Cl5 Sb3 2.368798 1_555
Cl7 Sb2 2.381329 1_555
Cl8 Sb2 2.375181 1_555
Cl9 Sb1 2.375181 1_554
Cl10 Sb0 2.381329 1_555
Cl11 Sb1 2.375181 1_554
Cl12 Sb0 2.368798 1_555
Cl13 Sb0 2.375181 1_555
Cl14 Sb0 2.381329 1_555
Cl16 Sb2 2.375181 1_555
Cl18 Sb3 2.381329 1_555
Cl19 Sb1 2.381329 1_555
Cl20 Sb3 2.381329 1_555
Cl21 Sb3 2.375181 1_556
Cl22 Sb3 2.375181 1_556
Cl23 Sb1 2.381329 1_555
