# generated using pymatgen
data_HoB4
_symmetry_space_group_name_H-M   'P 1'
_cell_length_a   4.00075408
_cell_length_b   7.07528971
_cell_length_c   7.07528971
_cell_angle_alpha   90.00000000
_cell_angle_beta   90.00000000
_cell_angle_gamma   90.00000000
_symmetry_Int_Tables_number   1
_chemical_formula_structural   HoB4
_chemical_formula_sum   'Ho4 B16'
_cell_volume   200.27664696
_cell_formula_units_Z   4
loop_
 _symmetry_equiv_pos_site_id
 _symmetry_equiv_pos_as_xyz
  1  'x, y, z'
loop_
 _atom_site_type_symbol
 _atom_site_label
 _atom_site_symmetry_multiplicity
 _atom_site_fract_x
 _atom_site_fract_y
 _atom_site_fract_z
 _atom_site_occupancy
  Ho  Ho0  1  0.00000000  0.18184249  0.31815751  1
  Ho  Ho1  1  0.00000000  0.81815751  0.68184249  1
  Ho  Ho2  1  0.00000000  0.68184249  0.18184249  1
  Ho  Ho3  1  0.00000000  0.31815751  0.81815751  1
  B  B0  1  0.79726470  0.50000000  0.50000000  1
  B  B1  1  0.50000000  0.41296617  0.08703383  1
  B  B2  1  0.50000000  0.08703383  0.58703383  1
  B  B3  1  0.50000000  0.53835080  0.67613255  1
  B  B4  1  0.50000000  0.58703383  0.91296617  1
  B  B5  1  0.50000000  0.67613255  0.46164920  1
  B  B6  1  0.20273530  0.00000000  0.00000000  1
  B  B7  1  0.20273530  0.50000000  0.50000000  1
  B  B8  1  0.79726470  0.00000000  0.00000000  1
  B  B9  1  0.50000000  0.03835080  0.82386745  1
  B  B10  1  0.50000000  0.91296617  0.41296617  1
  B  B11  1  0.50000000  0.82386745  0.96164920  1
  B  B12  1  0.50000000  0.46164920  0.32386745  1
  B  B13  1  0.50000000  0.32386745  0.53835080  1
  B  B14  1  0.50000000  0.17613255  0.03835080  1
  B  B15  1  0.50000000  0.96164920  0.17613255  1
loop_
_geom_bond_atom_site_label_1
_geom_bond_atom_site_label_2
_geom_bond_distance
_geom_bond_site_symmetry_2
B0 B7 1.622188 1_655
B0 B13 1.743848 1_555
B0 B12 1.743848 1_555
B0 B5 1.743848 1_555
B0 B3 1.743848 1_555
B0 Ho2 2.716696 1_655
B0 Ho3 2.716696 1_655
B0 Ho1 2.716696 1_655
B0 Ho0 2.716696 1_655
B1 B12 1.710702 1_555
B1 B14 1.710702 1_555
B1 B4 1.741716 1_554
B1 Ho2 2.840866 1_555
B1 Ho3 2.840866 1_654
B1 Ho3 2.840866 1_554
B1 Ho2 2.840866 1_655
B1 Ho0 3.057729 1_655
B1 Ho0 3.057729 1_555
B2 B9 1.710702 1_555
B2 Ho1 2.840866 1_545
B2 Ho0 2.840866 1_655
B2 Ho1 2.840866 1_645
B2 Ho0 2.840866 1_555
B2 Ho3 3.057729 1_555
B2 Ho3 3.057729 1_655
B3 B4 1.710702 1_555
B3 B7 1.743848 1_555
B3 B5 1.803670 1_555
B3 Ho3 2.727346 1_555
B3 Ho3 2.727346 1_655
B3 Ho1 2.814677 1_655
B3 Ho1 2.814677 1_555
B4 Ho2 2.840866 1_656
B4 Ho3 2.840866 1_655
B4 Ho2 2.840866 1_556
B4 Ho3 2.840866 1_555
B4 Ho1 3.057729 1_555
B4 Ho1 3.057729 1_655
B5 B7 1.743848 1_555
B5 Ho1 2.727346 1_655
B5 Ho1 2.727346 1_555
B5 Ho2 2.814677 1_655
B5 Ho2 2.814677 1_555
B6 B8 1.622188 1_455
B6 B9 1.743848 1_554
B6 Ho0 2.716696 1_555
B6 Ho2 2.716696 1_545
B6 Ho3 2.716696 1_554
B6 Ho1 2.716696 1_544
B7 Ho2 2.716696 1_555
B7 Ho0 2.716696 1_555
B7 Ho3 2.716696 1_555
B7 Ho1 2.716696 1_555
B8 B9 1.743848 1_554
B8 Ho1 2.716696 1_644
B8 Ho3 2.716696 1_654
B8 Ho2 2.716696 1_645
B8 Ho0 2.716696 1_655
B9 Ho1 2.727346 1_545
B9 Ho1 2.727346 1_645
B9 Ho3 2.814677 1_555
B9 Ho3 2.814677 1_655
B10 B5 1.710702 1_555
B10 B15 1.710702 1_555
B10 B2 1.741716 1_565
B10 Ho1 2.840866 1_555
B10 Ho0 2.840866 1_565
B10 Ho0 2.840866 1_665
B10 Ho1 2.840866 1_655
B10 Ho2 3.057729 1_555
B10 Ho2 3.057729 1_655
B11 B4 1.710702 1_555
B11 B8 1.743848 1_566
B11 B6 1.743848 1_566
B11 B9 1.803670 1_565
B11 B15 1.803670 1_556
B11 Ho2 2.727346 1_556
B11 Ho2 2.727346 1_656
B11 Ho1 2.814677 1_655
B11 Ho1 2.814677 1_555
B12 B7 1.743848 1_555
B12 B13 1.803670 1_555
B12 B5 1.803670 1_555
B12 Ho2 2.727346 1_555
B12 Ho2 2.727346 1_655
B12 Ho0 2.814677 1_555
B12 Ho0 2.814677 1_655
B13 B2 1.710702 1_555
B13 B7 1.743848 1_555
B13 B3 1.803670 1_555
B13 Ho0 2.727346 1_555
B13 Ho0 2.727346 1_655
B13 Ho3 2.814677 1_555
B13 Ho3 2.814677 1_655
B14 B8 1.743848 1_555
B14 B6 1.743848 1_555
B14 B9 1.803670 1_554
B14 B15 1.803670 1_545
B14 Ho3 2.727346 1_654
B14 Ho3 2.727346 1_554
B14 Ho0 2.814677 1_555
B14 Ho0 2.814677 1_655
B15 B8 1.743848 1_565
B15 B6 1.743848 1_565
B15 Ho0 2.727346 1_665
B15 Ho0 2.727346 1_565
B15 Ho2 2.814677 1_655
B15 Ho2 2.814677 1_555
