# generated using pymatgen
data_NbAg2(PS4)2
_symmetry_space_group_name_H-M   'P 1'
_cell_length_a   6.89786800
_cell_length_b   12.51477100
_cell_length_c   26.82600200
_cell_angle_alpha   90.00000000
_cell_angle_beta   90.00000000
_cell_angle_gamma   90.00000000
_symmetry_Int_Tables_number   1
_chemical_formula_structural   NbAg2(PS4)2
_chemical_formula_sum   'Nb8 Ag16 P16 S64'
_cell_volume   2315.76101819
_cell_formula_units_Z   8
loop_
 _symmetry_equiv_pos_site_id
 _symmetry_equiv_pos_as_xyz
  1  'x, y, z'
loop_
 _atom_site_type_symbol
 _atom_site_label
 _atom_site_symmetry_multiplicity
 _atom_site_fract_x
 _atom_site_fract_y
 _atom_site_fract_z
 _atom_site_occupancy
  Nb  Nb0  1  0.46723800  0.36673500  0.19553300  1
  Nb  Nb1  1  0.03276200  0.86673500  0.19553300  1
  Nb  Nb2  1  0.53276200  0.63326500  0.69553300  1
  Nb  Nb3  1  0.53276200  0.63326500  0.80446700  1
  Nb  Nb4  1  0.03276200  0.86673500  0.30446700  1
  Nb  Nb5  1  0.46723800  0.36673500  0.30446700  1
  Nb  Nb6  1  0.96723800  0.13326500  0.69553300  1
  Nb  Nb7  1  0.96723800  0.13326500  0.80446700  1
  Ag  Ag0  1  0.52068900  0.15718800  0.45919600  1
  Ag  Ag1  1  0.52068900  0.15718800  0.04080400  1
  Ag  Ag2  1  0.48528800  0.57972800  0.05580900  1
  Ag  Ag3  1  0.02068900  0.34281200  0.95919600  1
  Ag  Ag4  1  0.01471200  0.07972800  0.44419100  1
  Ag  Ag5  1  0.98528800  0.92027200  0.55580900  1
  Ag  Ag6  1  0.51471200  0.42027200  0.55580900  1
  Ag  Ag7  1  0.48528800  0.57972800  0.44419100  1
  Ag  Ag8  1  0.97931100  0.65718800  0.04080400  1
  Ag  Ag9  1  0.97931100  0.65718800  0.45919600  1
  Ag  Ag10  1  0.47931100  0.84281200  0.54080400  1
  Ag  Ag11  1  0.01471200  0.07972800  0.05580900  1
  Ag  Ag12  1  0.02068900  0.34281200  0.54080400  1
  Ag  Ag13  1  0.47931100  0.84281200  0.95919600  1
  Ag  Ag14  1  0.98528800  0.92027200  0.94419100  1
  Ag  Ag15  1  0.51471200  0.42027200  0.94419100  1
  P  P0  1  0.69178700  0.89304000  0.10639900  1
  P  P1  1  0.80821300  0.39304000  0.39360100  1
  P  P2  1  0.37404400  0.84034800  0.10727800  1
  P  P3  1  0.69178700  0.89304000  0.39360100  1
  P  P4  1  0.19178700  0.60696000  0.89360100  1
  P  P5  1  0.19178700  0.60696000  0.60639900  1
  P  P6  1  0.12595600  0.34034800  0.39272200  1
  P  P7  1  0.12595600  0.34034800  0.10727800  1
  P  P8  1  0.62595600  0.15965200  0.89272200  1
  P  P9  1  0.30821300  0.10696000  0.60639900  1
  P  P10  1  0.80821300  0.39304000  0.10639900  1
  P  P11  1  0.87404400  0.65965200  0.89272200  1
  P  P12  1  0.87404400  0.65965200  0.60727800  1
  P  P13  1  0.30821300  0.10696000  0.89360100  1
  P  P14  1  0.37404400  0.84034800  0.39272200  1
  P  P15  1  0.62595600  0.15965200  0.60727800  1
  S  S0  1  0.67137600  0.24077000  0.95930900  1
  S  S1  1  0.18248300  0.24309600  0.16570000  1
  S  S2  1  0.31751700  0.74309600  0.33430000  1
  S  S3  1  0.20332300  0.43865900  0.25000000  1
  S  S4  1  0.71431500  0.97164600  0.03874000  1
  S  S5  1  0.28568500  0.02835400  0.96126000  1
  S  S6  1  0.81751700  0.75690400  0.66570000  1
  S  S7  1  0.55546100  0.46943500  0.75000000  1
  S  S8  1  0.94453900  0.96943500  0.75000000  1
  S  S9  1  0.64712700  0.25970100  0.37977500  1
  S  S10  1  0.22145300  0.97618500  0.37748900  1
  S  S11  1  0.76599900  0.79578800  0.25000000  1
  S  S12  1  0.35287300  0.74029900  0.62022500  1
  S  S13  1  0.85287300  0.75970100  0.12022500  1
  S  S14  1  0.32862400  0.75923000  0.04069100  1
  S  S15  1  0.35287300  0.74029900  0.87977500  1
  S  S16  1  0.75250200  0.99093300  0.33548900  1
  S  S17  1  0.50563800  0.79716700  0.75000000  1
  S  S18  1  0.71431500  0.97164600  0.46126000  1
  S  S19  1  0.74749800  0.49093300  0.16451100  1
  S  S20  1  0.31751700  0.74309600  0.16570000  1
  S  S21  1  0.18248300  0.24309600  0.33430000  1
  S  S22  1  0.81751700  0.75690400  0.83430000  1
  S  S23  1  0.27854700  0.47618500  0.37748900  1
  S  S24  1  0.79667700  0.56134100  0.75000000  1
  S  S25  1  0.26599900  0.70421200  0.75000000  1
  S  S26  1  0.17137600  0.25923000  0.04069100  1
  S  S27  1  0.67137600  0.24077000  0.54069100  1
  S  S28  1  0.70332300  0.06134100  0.75000000  1
  S  S29  1  0.14712700  0.24029900  0.87977500  1
  S  S30  1  0.75250200  0.99093300  0.16451100  1
  S  S31  1  0.74749800  0.49093300  0.33548900  1
  S  S32  1  0.85287300  0.75970100  0.37977500  1
  S  S33  1  0.78568500  0.47164600  0.46126000  1
  S  S34  1  0.99436200  0.29716700  0.75000000  1
  S  S35  1  0.25250200  0.50906700  0.83548900  1
  S  S36  1  0.21431500  0.52835400  0.53874000  1
  S  S37  1  0.82862400  0.74077000  0.54069100  1
  S  S38  1  0.72145300  0.52381500  0.87748900  1
  S  S39  1  0.77854700  0.02381500  0.87748900  1
  S  S40  1  0.64712700  0.25970100  0.12022500  1
  S  S41  1  0.73400100  0.29578800  0.25000000  1
  S  S42  1  0.24749800  0.00906700  0.83548900  1
  S  S43  1  0.68248300  0.25690400  0.66570000  1
  S  S44  1  0.44453900  0.53056500  0.25000000  1
  S  S45  1  0.29667700  0.93865900  0.25000000  1
  S  S46  1  0.72145300  0.52381500  0.62251100  1
  S  S47  1  0.27854700  0.47618500  0.12251100  1
  S  S48  1  0.78568500  0.47164600  0.03874000  1
  S  S49  1  0.22145300  0.97618500  0.12251100  1
  S  S50  1  0.68248300  0.25690400  0.83430000  1
  S  S51  1  0.24749800  0.00906700  0.66451100  1
  S  S52  1  0.77854700  0.02381500  0.62251100  1
  S  S53  1  0.82862400  0.74077000  0.95930900  1
  S  S54  1  0.21431500  0.52835400  0.96126000  1
  S  S55  1  0.25250200  0.50906700  0.66451100  1
  S  S56  1  0.49436200  0.20283300  0.25000000  1
  S  S57  1  0.05546100  0.03056500  0.25000000  1
  S  S58  1  0.32862400  0.75923000  0.45930900  1
  S  S59  1  0.17137600  0.25923000  0.45930900  1
  S  S60  1  0.23400100  0.20421200  0.75000000  1
  S  S61  1  0.14712700  0.24029900  0.62022500  1
  S  S62  1  0.28568500  0.02835400  0.53874000  1
  S  S63  1  0.00563800  0.70283300  0.25000000  1
loop_
_geom_bond_atom_site_label_1
_geom_bond_atom_site_label_2
_geom_bond_distance
_geom_bond_site_symmetry_2
Nb0 S3 2.501829 1_555
Nb0 S41 2.511812 1_555
Nb0 S44 2.522525 1_555
Nb0 S56 2.525335 1_555
Nb0 S19 2.616425 1_555
Nb0 S1 2.625405 1_555
Nb0 S47 2.721674 1_555
Nb0 S40 2.723095 1_555
Nb1 S45 2.501829 1_555
Nb1 S11 2.511812 1_455
Nb1 S57 2.522525 1_565
Nb1 S63 2.525335 1_555
Nb1 S30 2.616425 1_455
Nb1 S20 2.625405 1_555
Nb1 S49 2.721674 1_555
Nb1 S13 2.723095 1_455
Nb2 S24 2.501829 1_555
Nb2 S25 2.511812 1_555
Nb2 S7 2.522525 1_555
Nb2 S17 2.525335 1_555
Nb2 S55 2.616425 1_555
Nb2 S6 2.625405 1_555
Nb2 S46 2.721674 1_555
Nb2 S12 2.723095 1_555
Nb3 S24 2.501829 1_555
Nb3 S25 2.511812 1_555
Nb3 S7 2.522525 1_555
Nb3 S17 2.525335 1_555
Nb3 S35 2.616425 1_555
Nb3 S22 2.625405 1_555
Nb3 S38 2.721674 1_555
Nb3 S15 2.723095 1_555
Nb4 S45 2.501829 1_555
Nb4 S11 2.511812 1_455
Nb4 S57 2.522525 1_565
Nb4 S63 2.525335 1_555
Nb4 S16 2.616425 1_455
Nb4 S2 2.625405 1_555
Nb4 S10 2.721674 1_555
Nb4 S32 2.723095 1_455
Nb5 S3 2.501829 1_555
Nb5 S41 2.511812 1_555
Nb5 S44 2.522525 1_555
Nb5 S56 2.525335 1_555
Nb5 S31 2.616425 1_555
Nb5 S21 2.625405 1_555
Nb5 S23 2.721674 1_555
Nb5 S9 2.723095 1_555
Nb6 S28 2.501829 1_555
Nb6 S60 2.511812 1_655
Nb6 S8 2.522525 1_545
Nb6 S34 2.525335 1_555
Nb6 S51 2.616425 1_655
Nb6 S43 2.625405 1_555
Nb6 S52 2.721674 1_555
Nb6 S61 2.723095 1_655
Nb7 S28 2.501829 1_555
Nb7 S60 2.511812 1_655
Nb7 S8 2.522525 1_545
Nb7 S34 2.525335 1_555
Nb7 S42 2.616425 1_655
Nb7 S50 2.625405 1_555
Nb7 S39 2.721674 1_555
Nb7 S29 2.723095 1_655
Ag0 S9 2.635486 1_555
Ag0 S27 2.637031 1_555
Ag0 S18 2.679304 1_545
Ag0 S59 2.727010 1_555
Ag0 S62 3.127401 1_555
Ag1 S40 2.635486 1_555
Ag1 S0 2.637031 1_554
Ag1 S4 2.679304 1_545
Ag1 S26 2.727010 1_555
Ag1 S5 3.127401 1_554
Ag2 S48 2.516514 1_555
Ag2 S14 2.525610 1_555
Ag2 S47 2.629561 1_555
Ag3 S29 2.635486 1_555
Ag3 S26 2.637031 1_556
Ag3 S54 2.679304 1_555
Ag3 S0 2.727010 1_455
Ag3 S48 3.127401 1_456
Ag4 S18 2.516514 1_445
Ag4 S59 2.525610 1_555
Ag4 S10 2.629561 1_545
Ag5 S62 2.516514 1_665
Ag5 S37 2.525610 1_555
Ag5 S52 2.629561 1_565
Ag6 S36 2.516514 1_555
Ag6 S27 2.525610 1_555
Ag6 S46 2.629561 1_555
Ag7 S33 2.516514 1_555
Ag7 S58 2.525610 1_555
Ag7 S23 2.629561 1_555
Ag8 S13 2.635486 1_555
Ag8 S53 2.637031 1_554
Ag8 S48 2.679304 1_555
Ag8 S14 2.727010 1_655
Ag8 S54 3.127401 1_654
Ag9 S32 2.635486 1_555
Ag9 S37 2.637031 1_555
Ag9 S33 2.679304 1_555
Ag9 S58 2.727010 1_655
Ag9 S36 3.127401 1_655
Ag10 S12 2.635486 1_555
Ag10 S58 2.637031 1_555
Ag10 S62 2.679304 1_565
Ag10 S37 2.727010 1_555
Ag10 S18 3.127401 1_555
Ag11 S4 2.516514 1_445
Ag11 S26 2.525610 1_555
Ag11 S49 2.629561 1_545
Ag12 S61 2.635486 1_555
Ag12 S59 2.637031 1_555
Ag12 S36 2.679304 1_555
Ag12 S27 2.727010 1_455
Ag12 S33 3.127401 1_455
Ag13 S15 2.635486 1_555
Ag13 S14 2.637031 1_556
Ag13 S5 2.679304 1_565
Ag13 S53 2.727010 1_555
Ag13 S4 3.127401 1_556
Ag14 S5 2.516514 1_665
Ag14 S53 2.525610 1_555
Ag14 S39 2.629561 1_565
Ag15 S54 2.516514 1_555
Ag15 S0 2.525610 1_555
Ag15 S38 2.629561 1_555
P0 S30 2.026449 1_555
P0 S13 2.038824 1_555
P0 S4 2.070310 1_555
P0 P2 2.288923 1_555
P1 S31 2.026449 1_555
P1 S9 2.038824 1_555
P1 S33 2.070310 1_555
P1 P6 2.288923 1_655
P2 S20 2.022261 1_555
P2 S49 2.040772 1_555
P2 S14 2.078333 1_555
P3 S16 2.026449 1_555
P3 S32 2.038824 1_555
P3 S18 2.070310 1_555
P4 S35 2.026449 1_555
P4 S15 2.038824 1_555
P4 S54 2.070310 1_555
P5 S55 2.026449 1_555
P5 S12 2.038824 1_555
P5 S36 2.070310 1_555
P6 S21 2.022261 1_555
P6 S23 2.040772 1_555
P6 S59 2.078333 1_555
P7 S1 2.022261 1_555
P7 S47 2.040772 1_555
P7 S26 2.078333 1_555
P8 S50 2.022261 1_555
P8 S39 2.040772 1_555
P8 S0 2.078333 1_555
P9 S51 2.026449 1_555
P9 S61 2.038824 1_555
P9 S62 2.070310 1_555
P10 S19 2.026449 1_555
P10 S40 2.038824 1_555
P10 S48 2.070310 1_555
P10 P7 2.288923 1_655
P11 S22 2.022261 1_555
P11 S38 2.040772 1_555
P11 S53 2.078333 1_555
P11 P4 2.288923 1_655
P12 S6 2.022261 1_555
P12 S46 2.040772 1_555
P12 S37 2.078333 1_555
P12 P5 2.288923 1_655
P13 S42 2.026449 1_555
P13 S29 2.038824 1_555
P13 S5 2.070310 1_555
P13 P8 2.288923 1_555
P14 S2 2.022261 1_555
P14 S10 2.040772 1_555
P14 S58 2.078333 1_555
P14 P3 2.288923 1_555
P15 S43 2.022261 1_555
P15 S52 2.040772 1_555
P15 S27 2.078333 1_555
P15 P9 2.288923 1_555
S3 S44 2.022722 1_555
S11 S63 2.021310 1_655
S17 S25 2.021310 1_555
S24 S7 2.022722 1_555
S28 S8 2.022722 1_545
S34 S60 2.021310 1_655
S41 S56 2.021310 1_555
S45 S57 2.022722 1_565
