# generated using pymatgen
data_K2Mo3O10
_symmetry_space_group_name_H-M   'P 1'
_cell_length_a   8.01128311
_cell_length_b   8.01128311
_cell_length_c   8.90453807
_cell_angle_alpha   82.14649536
_cell_angle_beta   82.14649536
_cell_angle_gamma   59.09902457
_symmetry_Int_Tables_number   1
_chemical_formula_structural   K2Mo3O10
_chemical_formula_sum   'K4 Mo6 O20'
_cell_volume   484.29141942
_cell_formula_units_Z   2
loop_
 _symmetry_equiv_pos_site_id
 _symmetry_equiv_pos_as_xyz
  1  'x, y, z'
loop_
 _atom_site_type_symbol
 _atom_site_label
 _atom_site_symmetry_multiplicity
 _atom_site_fract_x
 _atom_site_fract_y
 _atom_site_fract_z
 _atom_site_occupancy
  K  K0  1  0.59311992  0.77716165  0.84326091  1
  K  K1  1  0.22283835  0.40688008  0.65673909  1
  K  K2  1  0.40688008  0.22283835  0.15673909  1
  K  K3  1  0.77716165  0.59311992  0.34326091  1
  Mo  Mo0  1  0.81291475  0.96825991  0.51886034  1
  Mo  Mo1  1  0.03174009  0.18708525  0.98113966  1
  Mo  Mo2  1  0.18708525  0.03174009  0.48113966  1
  Mo  Mo3  1  0.96825991  0.81291475  0.01886034  1
  Mo  Mo4  1  0.30515623  0.69484377  0.25000000  1
  Mo  Mo5  1  0.69484377  0.30515623  0.75000000  1
  O  O0  1  0.74070057  0.84530601  0.08118188  1
  O  O1  1  0.15469399  0.25929943  0.41881812  1
  O  O2  1  0.25929943  0.15469399  0.91881812  1
  O  O3  1  0.84530601  0.74070057  0.58118188  1
  O  O4  1  0.88298738  0.06580034  0.91097407  1
  O  O5  1  0.93419966  0.11701262  0.58902593  1
  O  O6  1  0.11701262  0.93419966  0.08902593  1
  O  O7  1  0.06580034  0.88298738  0.41097407  1
  O  O8  1  0.67133594  0.05383072  0.36861001  1
  O  O9  1  0.94616928  0.32866406  0.13138999  1
  O  O10  1  0.32866406  0.94616928  0.63138999  1
  O  O11  1  0.05383072  0.67133594  0.86861001  1
  O  O12  1  0.36398051  0.87961091  0.32181905  1
  O  O13  1  0.12038909  0.63601949  0.17818095  1
  O  O14  1  0.63601949  0.12038909  0.67818095  1
  O  O15  1  0.87961091  0.36398051  0.82181905  1
  O  O16  1  0.49434454  0.61623171  0.11271119  1
  O  O17  1  0.38376829  0.50565546  0.38728881  1
  O  O18  1  0.50565546  0.38376829  0.88728881  1
  O  O19  1  0.61623171  0.49434454  0.61271119  1
loop_
_geom_bond_atom_site_label_1
_geom_bond_atom_site_label_2
_geom_bond_distance
_geom_bond_site_symmetry_2
K0 O10 2.707221 1_555
K0 O16 2.780072 1_556
K0 O0 2.801392 1_556
K0 O3 2.811559 1_555
K0 O2 2.917010 1_565
K0 O15 2.917327 1_555
K0 O14 3.093169 1_565
K0 O19 3.180997 1_555
K1 O11 2.707221 1_555
K1 O17 2.780072 1_555
K1 O1 2.801392 1_555
K1 O2 2.811559 1_555
K1 O3 2.917010 1_455
K1 O14 2.917327 1_555
K1 O15 3.093169 1_455
K1 O18 3.180997 1_555
K2 O8 2.707221 1_555
K2 O18 2.780072 1_554
K2 O2 2.801392 1_554
K2 O1 2.811559 1_555
K2 O0 2.917010 1_545
K2 O13 2.917327 1_555
K2 O12 3.093169 1_545
K2 O17 3.180997 1_555
K3 O9 2.707221 1_555
K3 O19 2.780072 1_555
K3 O3 2.801392 1_555
K3 O0 2.811559 1_555
K3 O1 2.917010 1_655
K3 O12 2.917327 1_555
K3 O13 3.093169 1_655
K3 O16 3.180997 1_555
Mo0 O8 1.706416 1_565
Mo0 O3 1.725041 1_555
Mo0 O14 1.911916 1_565
Mo0 O7 1.928718 1_655
Mo0 O5 2.076848 1_565
Mo1 O9 1.706416 1_456
Mo1 O2 1.725041 1_555
Mo1 O15 1.911916 1_455
Mo1 O6 1.928718 1_546
Mo1 O4 2.076848 1_455
Mo2 O10 1.706416 1_545
Mo2 O1 1.725041 1_555
Mo2 O12 1.911916 1_545
Mo2 O5 1.928718 1_455
Mo2 O7 2.076848 1_545
Mo3 O11 1.706416 1_654
Mo3 O0 1.725041 1_555
Mo3 O13 1.911916 1_655
Mo3 O4 1.928718 1_564
Mo3 O6 2.076848 1_655
Mo4 O16 1.706438 1_555
Mo4 O17 1.706438 1_555
Mo4 O13 1.969684 1_555
Mo4 O12 1.969684 1_555
Mo4 O7 2.207748 1_555
Mo4 O6 2.207748 1_555
Mo5 O18 1.706438 1_555
Mo5 O19 1.706438 1_555
Mo5 O14 1.969684 1_555
Mo5 O15 1.969684 1_555
Mo5 O5 2.207748 1_555
Mo5 O4 2.207748 1_555
