# generated using pymatgen
data_Ca2SiH2O5
_symmetry_space_group_name_H-M   'P 1'
_cell_length_a   9.25271300
_cell_length_b   9.55352700
_cell_length_c   10.78945400
_cell_angle_alpha   90.00000000
_cell_angle_beta   90.00000000
_cell_angle_gamma   90.00000000
_symmetry_Int_Tables_number   1
_chemical_formula_structural   Ca2SiH2O5
_chemical_formula_sum   'Ca16 Si8 H16 O40'
_cell_volume   953.74504479
_cell_formula_units_Z   8
loop_
 _symmetry_equiv_pos_site_id
 _symmetry_equiv_pos_as_xyz
  1  'x, y, z'
loop_
 _atom_site_type_symbol
 _atom_site_label
 _atom_site_symmetry_multiplicity
 _atom_site_fract_x
 _atom_site_fract_y
 _atom_site_fract_z
 _atom_site_occupancy
  Ca  Ca0  1  0.83144600  0.51705000  0.06968800  1
  Ca  Ca1  1  0.33144600  0.48295000  0.43031200  1
  Ca  Ca2  1  0.66855400  0.01705000  0.93031200  1
  Ca  Ca3  1  0.16855400  0.98295000  0.56968800  1
  Ca  Ca4  1  0.16855400  0.48295000  0.93031200  1
  Ca  Ca5  1  0.66855400  0.51705000  0.56968800  1
  Ca  Ca6  1  0.33144600  0.98295000  0.06968800  1
  Ca  Ca7  1  0.83144600  0.01705000  0.43031200  1
  Ca  Ca8  1  0.99528400  0.65405100  0.38786200  1
  Ca  Ca9  1  0.49528400  0.34594900  0.11213800  1
  Ca  Ca10  1  0.50471600  0.15405100  0.61213800  1
  Ca  Ca11  1  0.00471600  0.84594900  0.88786200  1
  Ca  Ca12  1  0.00471600  0.34594900  0.61213800  1
  Ca  Ca13  1  0.50471600  0.65405100  0.88786200  1
  Ca  Ca14  1  0.49528400  0.84594900  0.38786200  1
  Ca  Ca15  1  0.99528400  0.15405100  0.11213800  1
  Si  Si0  1  0.78629300  0.83206800  0.15926800  1
  Si  Si1  1  0.28629300  0.16793200  0.34073200  1
  Si  Si2  1  0.71370700  0.33206800  0.84073200  1
  Si  Si3  1  0.21370700  0.66793200  0.65926800  1
  Si  Si4  1  0.21370700  0.16793200  0.84073200  1
  Si  Si5  1  0.71370700  0.83206800  0.65926800  1
  Si  Si6  1  0.28629300  0.66793200  0.15926800  1
  Si  Si7  1  0.78629300  0.33206800  0.34073200  1
  H  H0  1  0.55744200  0.76059800  0.12240100  1
  H  H1  1  0.05744200  0.23940200  0.37759900  1
  H  H2  1  0.94255800  0.26059800  0.87759900  1
  H  H3  1  0.44255800  0.73940200  0.62240100  1
  H  H4  1  0.44255800  0.23940200  0.87759900  1
  H  H5  1  0.94255800  0.76059800  0.62240100  1
  H  H6  1  0.05744200  0.73940200  0.12240100  1
  H  H7  1  0.55744200  0.26059800  0.37759900  1
  H  H8  1  0.60032700  0.57223000  0.32561300  1
  H  H9  1  0.10032700  0.42777000  0.17438700  1
  H  H10  1  0.89967300  0.07223000  0.67438700  1
  H  H11  1  0.39967300  0.92777000  0.82561300  1
  H  H12  1  0.39967300  0.42777000  0.67438700  1
  H  H13  1  0.89967300  0.57223000  0.82561300  1
  H  H14  1  0.10032700  0.92777000  0.32561300  1
  H  H15  1  0.60032700  0.07223000  0.17438700  1
  O  O0  1  0.86017200  0.94570000  0.06385700  1
  O  O1  1  0.36017200  0.05430000  0.43614300  1
  O  O2  1  0.63982800  0.44570000  0.93614300  1
  O  O3  1  0.13982800  0.55430000  0.56385700  1
  O  O4  1  0.13982800  0.05430000  0.93614300  1
  O  O5  1  0.63982800  0.94570000  0.56385700  1
  O  O6  1  0.36017200  0.55430000  0.06385700  1
  O  O7  1  0.86017200  0.44570000  0.43614300  1
  O  O8  1  0.65253400  0.75054800  0.07481400  1
  O  O9  1  0.15253400  0.24945200  0.42518600  1
  O  O10  1  0.84746600  0.25054800  0.92518600  1
  O  O11  1  0.34746600  0.74945200  0.57481400  1
  O  O12  1  0.34746600  0.24945200  0.92518600  1
  O  O13  1  0.84746600  0.75054800  0.57481400  1
  O  O14  1  0.15253400  0.74945200  0.07481400  1
  O  O15  1  0.65253400  0.25054800  0.42518600  1
  O  O16  1  0.90216800  0.70698200  0.19069900  1
  O  O17  1  0.40216800  0.29301800  0.30930100  1
  O  O18  1  0.59783200  0.20698200  0.80930100  1
  O  O19  1  0.09783200  0.79301800  0.69069900  1
  O  O20  1  0.09783200  0.29301800  0.80930100  1
  O  O21  1  0.59783200  0.70698200  0.69069900  1
  O  O22  1  0.40216800  0.79301800  0.19069900  1
  O  O23  1  0.90216800  0.20698200  0.30930100  1
  O  O24  1  0.70719000  0.90097200  0.27920800  1
  O  O25  1  0.20719000  0.09902800  0.22079200  1
  O  O26  1  0.79281000  0.40097200  0.72079200  1
  O  O27  1  0.29281000  0.59902800  0.77920800  1
  O  O28  1  0.29281000  0.09902800  0.72079200  1
  O  O29  1  0.79281000  0.90097200  0.77920800  1
  O  O30  1  0.20719000  0.59902800  0.27920800  1
  O  O31  1  0.70719000  0.40097200  0.22079200  1
  O  O32  1  0.54718400  0.60724200  0.39761900  1
  O  O33  1  0.04718400  0.39275800  0.10238100  1
  O  O34  1  0.95281600  0.10724200  0.60238100  1
  O  O35  1  0.45281600  0.89275800  0.89761900  1
  O  O36  1  0.45281600  0.39275800  0.60238100  1
  O  O37  1  0.95281600  0.60724200  0.89761900  1
  O  O38  1  0.04718400  0.89275800  0.39761900  1
  O  O39  1  0.54718400  0.10724200  0.10238100  1
loop_
_geom_bond_atom_site_label_1
_geom_bond_atom_site_label_2
_geom_bond_distance
_geom_bond_site_symmetry_2
Ca0 O31 2.282450 1_555
Ca0 O16 2.329246 1_555
Ca0 O37 2.334584 1_554
Ca0 O33 2.349270 1_655
Ca0 O2 2.384166 1_554
Ca1 O30 2.282450 1_555
Ca1 O17 2.329246 1_555
Ca1 O36 2.334584 1_555
Ca1 O32 2.349270 1_555
Ca1 O3 2.384166 1_555
Ca2 O29 2.282450 1_545
Ca2 O18 2.329246 1_555
Ca2 O39 2.334584 1_556
Ca2 O35 2.349270 1_545
Ca2 O0 2.384166 1_546
Ca3 O28 2.282450 1_565
Ca3 O19 2.329246 1_555
Ca3 O38 2.334584 1_555
Ca3 O34 2.349270 1_465
Ca3 O1 2.384166 1_565
Ca4 O27 2.282450 1_555
Ca4 O20 2.329246 1_555
Ca4 O33 2.334584 1_556
Ca4 O37 2.349270 1_455
Ca4 O6 2.384166 1_556
Ca5 O26 2.282450 1_555
Ca5 O21 2.329246 1_555
Ca5 O32 2.334584 1_555
Ca5 O36 2.349270 1_555
Ca5 O7 2.384166 1_555
Ca6 O25 2.282450 1_565
Ca6 O22 2.329246 1_555
Ca6 O35 2.334584 1_554
Ca6 O39 2.349270 1_565
Ca6 O4 2.384166 1_564
Ca7 O24 2.282450 1_545
Ca7 O23 2.329246 1_555
Ca7 O34 2.334584 1_555
Ca7 O38 2.349270 1_645
Ca7 O5 2.384166 1_545
Ca8 O38 2.332883 1_655
Ca8 O30 2.344145 1_655
Ca8 O16 2.350180 1_555
Ca8 O7 2.407547 1_555
Ca8 O3 2.510507 1_655
Ca8 O13 2.605621 1_555
Ca9 O39 2.332883 1_555
Ca9 O31 2.344145 1_555
Ca9 O17 2.350180 1_555
Ca9 O6 2.407547 1_555
Ca9 O2 2.510507 1_554
Ca9 O12 2.605621 1_554
Ca10 O36 2.332883 1_555
Ca10 O28 2.344145 1_555
Ca10 O18 2.350180 1_555
Ca10 O5 2.407547 1_545
Ca10 O1 2.510507 1_555
Ca10 O15 2.605621 1_555
Ca11 O37 2.332883 1_455
Ca11 O29 2.344145 1_455
Ca11 O19 2.350180 1_555
Ca11 O4 2.407547 1_565
Ca11 O0 2.510507 1_456
Ca11 O14 2.605621 1_556
Ca12 O34 2.332883 1_455
Ca12 O26 2.344145 1_455
Ca12 O20 2.350180 1_555
Ca12 O3 2.407547 1_555
Ca12 O7 2.510507 1_455
Ca12 O9 2.605621 1_555
Ca13 O35 2.332883 1_555
Ca13 O27 2.344145 1_555
Ca13 O21 2.350180 1_555
Ca13 O2 2.407547 1_555
Ca13 O6 2.510507 1_556
Ca13 O8 2.605621 1_556
Ca14 O32 2.332883 1_555
Ca14 O24 2.344145 1_555
Ca14 O22 2.350180 1_555
Ca14 O1 2.407547 1_565
Ca14 O5 2.510507 1_555
Ca14 O11 2.605621 1_555
Ca15 O33 2.332883 1_655
Ca15 O25 2.344145 1_655
Ca15 O23 2.350180 1_555
Ca15 O0 2.407547 1_545
Ca15 O4 2.510507 1_654
Ca15 O10 2.605621 1_554
H0 O8 1.023225 1_555
H0 O22 1.644102 1_555
H1 O9 1.023225 1_555
H1 O23 1.644102 1_455
H2 O10 1.023225 1_555
H2 O20 1.644102 1_655
H3 O11 1.023225 1_555
H3 O21 1.644102 1_555
H4 O12 1.023225 1_555
H4 O18 1.644102 1_555
H5 O13 1.023225 1_555
H5 O19 1.644102 1_655
H6 O14 1.023225 1_555
H6 O16 1.644102 1_455
H7 O15 1.023225 1_555
H7 O17 1.644102 1_555
H8 O32 0.978391 1_555
H9 O33 0.978391 1_555
H10 O34 0.978391 1_555
H11 O35 0.978391 1_555
H12 O36 0.978391 1_555
H13 O37 0.978391 1_555
H14 O38 0.978391 1_555
H15 O39 0.978391 1_555
O0 Si0 1.644844 1_555
O1 Si1 1.644844 1_555
O2 Si2 1.644844 1_555
O3 Si3 1.644844 1_555
O4 Si4 1.644844 1_555
O5 Si5 1.644844 1_555
O6 Si6 1.644844 1_555
O7 Si7 1.644844 1_555
O8 Si0 1.722957 1_555
O9 Si1 1.722957 1_555
O10 Si2 1.722957 1_555
O11 Si3 1.722957 1_555
O12 Si4 1.722957 1_555
O13 Si5 1.722957 1_555
O14 Si6 1.722957 1_555
O15 Si7 1.722957 1_555
O16 Si0 1.640909 1_555
O17 Si1 1.640909 1_555
O18 Si2 1.640909 1_555
O19 Si3 1.640909 1_555
O20 Si4 1.640909 1_555
O21 Si5 1.640909 1_555
O22 Si6 1.640909 1_555
O23 Si7 1.640909 1_555
O24 Si0 1.625943 1_555
O25 Si1 1.625943 1_555
O26 Si2 1.625943 1_555
O27 Si3 1.625943 1_555
O28 Si4 1.625943 1_555
O29 Si5 1.625943 1_555
O30 Si6 1.625943 1_555
O31 Si7 1.625943 1_555
