# generated using pymatgen
data_RbPS3
_symmetry_space_group_name_H-M   'P 1'
_cell_length_a   7.02447561
_cell_length_b   7.25730680
_cell_length_c   7.25730696
_cell_angle_alpha   72.93797437
_cell_angle_beta   61.05573260
_cell_angle_gamma   61.05572351
_symmetry_Int_Tables_number   1
_chemical_formula_structural   RbPS3
_chemical_formula_sum   'Rb2 P2 S6'
_cell_volume   282.46844578
_cell_formula_units_Z   2
loop_
 _symmetry_equiv_pos_site_id
 _symmetry_equiv_pos_as_xyz
  1  'x, y, z'
loop_
 _atom_site_type_symbol
 _atom_site_label
 _atom_site_symmetry_multiplicity
 _atom_site_fract_x
 _atom_site_fract_y
 _atom_site_fract_z
 _atom_site_occupancy
  Rb  Rb0  1  0.50000000  0.74022148  0.25977852  1
  Rb  Rb1  1  0.50000000  0.25977852  0.74022148  1
  P  P0  1  0.15855620  0.34144380  0.34144380  1
  P  P1  1  0.84144380  0.65855620  0.65855620  1
  S  S0  1  -0.00000000  0.31961034  0.68038966  1
  S  S1  1  0.02606620  0.23333076  0.23333076  1
  S  S2  1  0.49272871  0.76666924  0.76666924  1
  S  S3  1  0.00000000  0.68038966  0.31961034  1
  S  S4  1  0.50727129  0.23333076  0.23333076  1
  S  S5  1  0.97393380  0.76666924  0.76666924  1
loop_
_geom_bond_atom_site_label_1
_geom_bond_atom_site_label_2
_geom_bond_distance
_geom_bond_site_symmetry_2
Rb0 S3 3.549967 1_655
Rb0 S3 3.549967 1_555
Rb0 S4 3.551128 1_565
Rb0 S2 3.551128 1_554
Rb0 S1 3.551132 1_565
Rb0 S5 3.551132 1_554
Rb0 S1 3.714156 1_655
Rb0 S5 3.714157 1_455
Rb0 S4 3.714160 1_555
Rb0 S2 3.714160 1_555
Rb1 S0 3.549967 1_555
Rb1 S0 3.549967 1_655
Rb1 S2 3.551128 1_545
Rb1 S4 3.551128 1_556
Rb1 S5 3.551132 1_545
Rb1 S1 3.551132 1_556
Rb1 S5 3.714156 1_455
Rb1 S1 3.714157 1_655
Rb1 S2 3.714160 1_555
Rb1 S4 3.714160 1_555
P0 S4 1.967785 1_555
P0 S1 1.967791 1_555
P0 S3 2.146317 1_555
P0 S0 2.146318 1_555
P1 S2 1.967785 1_555
P1 S5 1.967791 1_555
P1 S0 2.146317 1_655
P1 S3 2.146318 1_655
