# generated using pymatgen
data_K5Tl3O
_symmetry_space_group_name_H-M   'P 1'
_cell_length_a   16.94936349
_cell_length_b   16.94936349
_cell_length_c   8.81616919
_cell_angle_alpha   90.00000000
_cell_angle_beta   90.00000000
_cell_angle_gamma   151.44032082
_symmetry_Int_Tables_number   1
_chemical_formula_structural   K5Tl3O
_chemical_formula_sum   'K20 Tl12 O4'
_cell_volume   1210.82593718
_cell_formula_units_Z   4
loop_
 _symmetry_equiv_pos_site_id
 _symmetry_equiv_pos_as_xyz
  1  'x, y, z'
loop_
 _atom_site_type_symbol
 _atom_site_label
 _atom_site_symmetry_multiplicity
 _atom_site_fract_x
 _atom_site_fract_y
 _atom_site_fract_z
 _atom_site_occupancy
  K  K0  1  0.51056698  0.04518178  0.75000000  1
  K  K1  1  0.68007879  0.31992121  0.46554362  1
  K  K2  1  0.45001536  0.54998464  0.53395333  1
  K  K3  1  0.04518178  0.51056698  0.25000000  1
  K  K4  1  0.37521816  0.12025608  0.75000000  1
  K  K5  1  0.20670017  0.19344540  0.75000000  1
  K  K6  1  0.45001536  0.54998464  0.96604667  1
  K  K7  1  0.79329983  0.80655460  0.25000000  1
  K  K8  1  0.54998464  0.45001536  0.46604667  1
  K  K9  1  0.31992121  0.68007879  0.53445638  1
  K  K10  1  0.48943302  0.95481822  0.25000000  1
  K  K11  1  0.95481822  0.48943302  0.75000000  1
  K  K12  1  0.31992121  0.68007879  0.96554362  1
  K  K13  1  0.87974392  0.62478184  0.75000000  1
  K  K14  1  0.54998464  0.45001536  0.03395333  1
  K  K15  1  0.12025608  0.37521816  0.25000000  1
  K  K16  1  0.62478184  0.87974392  0.25000000  1
  K  K17  1  0.68007879  0.31992121  0.03445638  1
  K  K18  1  0.80655460  0.79329983  0.75000000  1
  K  K19  1  0.19344540  0.20670017  0.25000000  1
  Tl  Tl0  1  0.81578743  0.18421257  0.94298019  1
  Tl  Tl1  1  0.07662699  0.92337301  0.03853367  1
  Tl  Tl2  1  0.08632476  0.33761510  0.75000000  1
  Tl  Tl3  1  0.91367524  0.66238490  0.25000000  1
  Tl  Tl4  1  0.66238490  0.91367524  0.75000000  1
  Tl  Tl5  1  0.92337301  0.07662699  0.96146633  1
  Tl  Tl6  1  0.07662699  0.92337301  0.46146633  1
  Tl  Tl7  1  0.18421257  0.81578743  0.44298019  1
  Tl  Tl8  1  0.33761510  0.08632476  0.25000000  1
  Tl  Tl9  1  0.18421257  0.81578743  0.05701981  1
  Tl  Tl10  1  0.81578743  0.18421257  0.55701981  1
  Tl  Tl11  1  0.92337301  0.07662699  0.53853367  1
  O  O0  1  0.51145818  0.48854182  0.75000000  1
  O  O1  1  0.48854182  0.51145818  0.25000000  1
  O  O2  1  0.67526118  0.32473882  0.75000000  1
  O  O3  1  0.32473882  0.67526118  0.25000000  1
loop_
_geom_bond_atom_site_label_1
_geom_bond_atom_site_label_2
_geom_bond_distance
_geom_bond_site_symmetry_2
K0 O2 2.647475 1_555
K0 Tl0 3.714263 1_555
K0 Tl10 3.714263 1_555
K0 Tl9 3.906557 1_546
K0 Tl7 3.906557 1_545
K1 O2 2.512805 1_555
K1 Tl8 3.550889 1_555
K1 Tl3 3.550889 1_555
K1 Tl7 4.187629 1_655
K1 Tl7 4.187629 1_545
K2 O0 2.775276 1_555
K2 O1 2.805134 1_555
K2 Tl4 3.950433 1_555
K2 Tl2 3.950433 1_555
K3 O3 2.647475 1_555
K3 Tl7 3.714263 1_555
K3 Tl9 3.714263 1_555
K3 Tl10 3.906557 1_455
K3 Tl0 3.906557 1_454
K4 O2 2.629219 1_555
K4 Tl1 3.681375 1_546
K4 Tl6 3.681375 1_545
K4 Tl9 3.884669 1_546
K4 Tl7 3.884669 1_545
K5 O0 2.512826 1_555
K5 Tl5 3.708716 1_455
K5 Tl11 3.708716 1_455
K5 Tl6 3.815409 1_545
K5 Tl1 3.815409 1_546
K6 O0 2.775276 1_555
K6 O1 2.805134 1_556
K6 Tl4 3.950433 1_555
K6 Tl2 3.950433 1_555
K7 O1 2.512826 1_555
K7 Tl1 3.708716 1_655
K7 Tl6 3.708716 1_655
K7 Tl11 3.815409 1_565
K7 Tl5 3.815409 1_564
K8 O1 2.775276 1_555
K8 O0 2.805134 1_555
K8 Tl3 3.950433 1_555
K8 Tl8 3.950433 1_555
K9 O3 2.512805 1_555
K9 Tl2 3.550889 1_555
K9 Tl4 3.550889 1_555
K9 Tl10 4.187629 1_565
K9 Tl10 4.187629 1_455
K10 O3 2.647475 1_555
K10 Tl9 3.714263 1_555
K10 Tl7 3.714263 1_555
K10 Tl0 3.906557 1_564
K10 Tl10 3.906557 1_565
K11 O2 2.647475 1_555
K11 Tl0 3.714263 1_555
K11 Tl10 3.714263 1_555
K11 Tl9 3.906557 1_656
K11 Tl7 3.906557 1_655
K12 O3 2.512805 1_556
K12 Tl2 3.550889 1_555
K12 Tl4 3.550889 1_555
K12 Tl0 4.187629 1_565
K12 Tl0 4.187629 1_455
K13 O2 2.629219 1_555
K13 Tl1 3.681375 1_656
K13 Tl6 3.681375 1_655
K13 Tl9 3.884669 1_656
K13 Tl7 3.884669 1_655
K14 O1 2.775276 1_555
K14 O0 2.805134 1_554
K14 Tl3 3.950433 1_555
K14 Tl8 3.950433 1_555
K15 O3 2.629219 1_555
K15 Tl11 3.681375 1_455
K15 Tl5 3.681375 1_454
K15 Tl10 3.884669 1_455
K15 Tl0 3.884669 1_454
K16 O3 2.629219 1_555
K16 Tl11 3.681375 1_565
K16 Tl5 3.681375 1_564
K16 Tl0 3.884669 1_564
K16 Tl10 3.884669 1_565
K17 O2 2.512805 1_554
K17 Tl8 3.550889 1_555
K17 Tl3 3.550889 1_555
K17 Tl9 4.187629 1_655
K17 Tl9 4.187629 1_545
K18 O0 2.512826 1_555
K18 Tl11 3.708716 1_565
K18 Tl5 3.708716 1_565
K18 Tl1 3.815409 1_656
K18 Tl6 3.815409 1_655
K19 O1 2.512826 1_555
K19 Tl6 3.708716 1_545
K19 Tl1 3.708716 1_545
K19 Tl5 3.815409 1_454
K19 Tl11 3.815409 1_455
Tl0 Tl4 3.120528 1_545
Tl0 Tl2 3.120528 1_655
Tl0 Tl10 3.402692 1_555
Tl0 Tl5 3.538087 1_555
Tl1 Tl8 3.034812 1_565
Tl1 Tl3 3.034812 1_455
Tl1 Tl9 3.538087 1_555
Tl2 Tl5 3.034812 1_455
Tl3 Tl6 3.034812 1_655
Tl3 Tl9 3.120528 1_655
Tl3 Tl7 3.120528 1_655
Tl4 Tl5 3.034812 1_565
Tl6 Tl8 3.034812 1_565
Tl6 Tl7 3.538087 1_555
Tl7 Tl8 3.120528 1_565
Tl7 Tl9 3.402692 1_555
Tl8 Tl9 3.120528 1_545
Tl10 Tl4 3.120528 1_545
Tl10 Tl2 3.120528 1_655
Tl10 Tl11 3.538087 1_555
Tl11 Tl4 3.034812 1_545
Tl11 Tl2 3.034812 1_655
