# generated using pymatgen
data_EuMn2O5
_symmetry_space_group_name_H-M   'P 1'
_cell_length_a   5.73003436
_cell_length_b   7.38508782
_cell_length_c   8.55788977
_cell_angle_alpha   90.00000000
_cell_angle_beta   90.00000000
_cell_angle_gamma   90.00000000
_symmetry_Int_Tables_number   1
_chemical_formula_structural   EuMn2O5
_chemical_formula_sum   'Eu4 Mn8 O20'
_cell_volume   362.14256938
_cell_formula_units_Z   4
loop_
 _symmetry_equiv_pos_site_id
 _symmetry_equiv_pos_as_xyz
  1  'x, y, z'
loop_
 _atom_site_type_symbol
 _atom_site_label
 _atom_site_symmetry_multiplicity
 _atom_site_fract_x
 _atom_site_fract_y
 _atom_site_fract_z
 _atom_site_occupancy
  Eu  Eu0  1  0.00000000  0.13905805  0.17090764  1
  Eu  Eu1  1  0.00000000  0.86094195  0.82909236  1
  Eu  Eu2  1  0.00000000  0.63905805  0.32909236  1
  Eu  Eu3  1  0.00000000  0.36094195  0.67090764  1
  Mn  Mn0  1  0.25473592  0.00000000  0.50000000  1
  Mn  Mn1  1  0.74526408  0.50000000  0.00000000  1
  Mn  Mn2  1  0.74526408  0.00000000  0.50000000  1
  Mn  Mn3  1  0.25473592  0.50000000  0.00000000  1
  Mn  Mn4  1  0.50000000  0.40484680  0.35179100  1
  Mn  Mn5  1  0.50000000  0.59515320  0.64820900  1
  Mn  Mn6  1  0.50000000  0.90484680  0.14820900  1
  Mn  Mn7  1  0.50000000  0.09515320  0.85179100  1
  O  O0  1  0.28214944  0.00000000  -0.00000000  1
  O  O1  1  0.71785056  0.50000000  0.50000000  1
  O  O2  1  0.71785056  0.00000000  -0.00000000  1
  O  O3  1  0.28214944  0.50000000  0.50000000  1
  O  O4  1  0.00000000  0.15753882  0.44746289  1
  O  O5  1  0.00000000  0.84246118  0.55253711  1
  O  O6  1  0.00000000  0.65753882  0.05253711  1
  O  O7  1  0.00000000  0.34246118  0.94746289  1
  O  O8  1  0.50000000  0.15459707  0.43247462  1
  O  O9  1  0.50000000  0.84540293  0.56752538  1
  O  O10  1  0.50000000  0.65459707  0.06752538  1
  O  O11  1  0.50000000  0.34540293  0.93247462  1
  O  O12  1  0.25294681  0.39739926  0.20589639  1
  O  O13  1  0.25294681  0.60260074  0.79410361  1
  O  O14  1  0.74705319  0.89739926  0.29410361  1
  O  O15  1  0.74705319  0.10260074  0.70589639  1
  O  O16  1  0.74705319  0.60260074  0.79410361  1
  O  O17  1  0.74705319  0.39739926  0.20589639  1
  O  O18  1  0.25294681  0.10260074  0.70589639  1
  O  O19  1  0.25294681  0.89739926  0.29410361  1
loop_
_geom_bond_atom_site_label_1
_geom_bond_atom_site_label_2
_geom_bond_distance
_geom_bond_site_symmetry_2
Eu0 O4 2.370661 1_555
Eu0 O2 2.409910 1_455
Eu0 O0 2.409910 1_555
Eu0 O12 2.414618 1_555
Eu0 O17 2.414618 1_455
Eu0 O7 2.431671 1_554
Eu0 O14 2.529296 1_445
Eu0 O19 2.529296 1_545
Eu1 O5 2.370661 1_555
Eu1 O0 2.409910 1_566
Eu1 O2 2.409910 1_466
Eu1 O16 2.414618 1_455
Eu1 O13 2.414618 1_555
Eu1 O6 2.431671 1_556
Eu1 O18 2.529296 1_565
Eu1 O15 2.529296 1_465
Eu2 O6 2.370661 1_555
Eu2 O1 2.409910 1_455
Eu2 O3 2.409910 1_555
Eu2 O14 2.414618 1_455
Eu2 O19 2.414618 1_555
Eu2 O5 2.431671 1_555
Eu2 O12 2.529296 1_555
Eu2 O17 2.529296 1_455
Eu3 O7 2.370661 1_555
Eu3 O1 2.409910 1_455
Eu3 O3 2.409910 1_555
Eu3 O15 2.414618 1_455
Eu3 O18 2.414618 1_555
Eu3 O4 2.431671 1_555
Eu3 O13 2.529296 1_555
Eu3 O16 2.529296 1_455
Mn0 O8 1.900662 1_555
Mn0 O9 1.900662 1_545
Mn0 O19 1.918077 1_545
Mn0 O18 1.918077 1_555
Mn0 O5 1.919974 1_545
Mn0 O4 1.919974 1_555
Mn1 O11 1.900662 1_554
Mn1 O10 1.900662 1_555
Mn1 O16 1.918077 1_554
Mn1 O17 1.918077 1_555
Mn1 O7 1.919974 1_654
Mn1 O6 1.919974 1_655
Mn2 O8 1.900662 1_555
Mn2 O9 1.900662 1_545
Mn2 O14 1.918077 1_545
Mn2 O15 1.918077 1_555
Mn2 O4 1.919974 1_655
Mn2 O5 1.919974 1_645
Mn3 O11 1.900662 1_554
Mn3 O10 1.900662 1_555
Mn3 O13 1.918077 1_554
Mn3 O12 1.918077 1_555
Mn3 O7 1.919974 1_554
Mn3 O6 1.919974 1_555
Mn4 O12 1.888357 1_555
Mn4 O17 1.888357 1_555
Mn4 O3 1.913313 1_555
Mn4 O1 1.913313 1_555
Mn4 O8 1.972891 1_555
Mn5 O13 1.888357 1_555
Mn5 O16 1.888357 1_555
Mn5 O3 1.913313 1_555
Mn5 O1 1.913313 1_555
Mn5 O9 1.972891 1_555
Mn6 O19 1.888357 1_555
Mn6 O14 1.888357 1_555
Mn6 O0 1.913313 1_565
Mn6 O2 1.913313 1_565
Mn6 O10 1.972891 1_555
Mn7 O18 1.888357 1_555
Mn7 O15 1.888357 1_555
Mn7 O0 1.913313 1_556
Mn7 O2 1.913313 1_556
Mn7 O11 1.972891 1_555
