# generated using pymatgen
data_NiPO4
_symmetry_space_group_name_H-M   'P 1'
_cell_length_a   8.66542833
_cell_length_b   8.66542833
_cell_length_c   8.66542787
_cell_angle_alpha   108.40141848
_cell_angle_beta   108.40141848
_cell_angle_gamma   108.40141535
_symmetry_Int_Tables_number   1
_chemical_formula_structural   NiPO4
_chemical_formula_sum   'Ni6 P6 O24'
_cell_volume   519.79001532
_cell_formula_units_Z   6
loop_
 _symmetry_equiv_pos_site_id
 _symmetry_equiv_pos_as_xyz
  1  'x, y, z'
loop_
 _atom_site_type_symbol
 _atom_site_label
 _atom_site_symmetry_multiplicity
 _atom_site_fract_x
 _atom_site_fract_y
 _atom_site_fract_z
 _atom_site_occupancy
  Ni  Ni0  1  0.44709900  0.04633600  0.25280700  1
  Ni  Ni1  1  0.77050000  0.53379400  0.94428300  1
  Ni  Ni2  1  0.04633600  0.25280700  0.44709800  1
  Ni  Ni3  1  0.94428300  0.77050000  0.53379400  1
  Ni  Ni4  1  0.25280700  0.44709900  0.04633600  1
  Ni  Ni5  1  0.53379400  0.94428300  0.77050000  1
  P  P0  1  0.28623000  0.08067600  0.88813800  1
  P  P1  1  0.79579400  0.39108200  0.56279500  1
  P  P2  1  0.88813800  0.28623000  0.08067600  1
  P  P3  1  0.39108200  0.56279500  0.79579400  1
  P  P4  1  0.56279500  0.79579400  0.39108200  1
  P  P5  1  0.08067600  0.88813800  0.28623000  1
  O  O0  1  0.75247800  0.07867500  0.98757800  1
  O  O1  1  0.00655200  0.32521800  0.98365900  1
  O  O2  1  0.39436600  0.06777600  0.77465100  1
  O  O3  1  0.28342100  0.01218000  0.34770600  1
  O  O4  1  0.90740600  0.28084300  0.56812300  1
  O  O5  1  0.73093100  0.39944300  0.70956000  1
  O  O6  1  0.62390300  0.28961000  0.37210500  1
  O  O7  1  0.28961000  0.37210500  0.62390300  1
  O  O8  1  0.91870500  0.58431700  0.59897500  1
  O  O9  1  0.77465100  0.39436600  0.06777600  1
  O  O10  1  0.58431700  0.59897500  0.91870500  1
  O  O11  1  0.34770600  0.28342100  0.01218000  1
  O  O12  1  0.28084300  0.56812300  0.90740600  1
  O  O13  1  0.01218000  0.34770600  0.28342100  1
  O  O14  1  0.39944300  0.70956000  0.73093100  1
  O  O15  1  0.70956000  0.73093100  0.39944300  1
  O  O16  1  0.98757800  0.75247800  0.07867500  1
  O  O17  1  0.37210500  0.62390300  0.28961000  1
  O  O18  1  0.59897500  0.91870500  0.58431700  1
  O  O19  1  0.32521800  0.98365900  0.00655200  1
  O  O20  1  0.98365900  0.00655200  0.32521800  1
  O  O21  1  0.06777600  0.77465100  0.39436600  1
  O  O22  1  0.56812300  0.90740600  0.28084300  1
  O  O23  1  0.07867500  0.98757800  0.75247800  1
loop_
_geom_bond_atom_site_label_1
_geom_bond_atom_site_label_2
_geom_bond_distance
_geom_bond_site_symmetry_2
Ni0 O3 1.844055 1_555
Ni0 O22 1.851781 1_545
Ni0 O6 1.856083 1_555
Ni0 O19 1.856676 1_545
Ni1 O10 1.843816 1_555
Ni1 O5 1.850045 1_555
Ni1 O9 1.850843 1_556
Ni1 O16 1.859789 1_556
Ni2 O13 1.844047 1_555
Ni2 O4 1.851788 1_455
Ni2 O7 1.856086 1_555
Ni2 O20 1.856675 1_455
Ni3 O8 1.843816 1_555
Ni3 O15 1.850045 1_555
Ni3 O21 1.850843 1_655
Ni3 O23 1.859789 1_655
Ni4 O11 1.844055 1_555
Ni4 O12 1.851781 1_554
Ni4 O17 1.856083 1_555
Ni4 O1 1.856676 1_554
Ni5 O18 1.843816 1_555
Ni5 O14 1.850045 1_555
Ni5 O2 1.850843 1_565
Ni5 O0 1.859789 1_565
O0 P2 1.554958 1_556
O1 P2 1.542362 1_456
O2 P0 1.560822 1_555
O3 P5 1.543083 1_545
O4 P1 1.559818 1_555
O5 P1 1.535393 1_555
O6 P1 1.556965 1_555
O7 P3 1.556965 1_555
O8 P1 1.538926 1_555
O9 P2 1.560822 1_555
O10 P3 1.538926 1_555
O11 P0 1.543083 1_554
O12 P3 1.559818 1_555
O13 P2 1.543083 1_455
O14 P3 1.535393 1_555
O15 P4 1.535393 1_555
O16 P5 1.554958 1_655
O17 P4 1.556965 1_555
O18 P4 1.538926 1_555
O19 P0 1.542362 1_564
O20 P5 1.542362 1_645
O21 P5 1.560822 1_555
O22 P4 1.559818 1_555
O23 P0 1.554958 1_565
