# generated using pymatgen
data_VFeO4
_symmetry_space_group_name_H-M   'P 1'
_cell_length_a   6.72243262
_cell_length_b   8.04190704
_cell_length_c   9.36820287
_cell_angle_alpha   96.70389941
_cell_angle_beta   106.82811283
_cell_angle_gamma   101.53370975
_symmetry_Int_Tables_number   1
_chemical_formula_structural   VFeO4
_chemical_formula_sum   'V6 Fe6 O24'
_cell_volume   466.67356427
_cell_formula_units_Z   6
loop_
 _symmetry_equiv_pos_site_id
 _symmetry_equiv_pos_as_xyz
  1  'x, y, z'
loop_
 _atom_site_type_symbol
 _atom_site_label
 _atom_site_symmetry_multiplicity
 _atom_site_fract_x
 _atom_site_fract_y
 _atom_site_fract_z
 _atom_site_occupancy
  V  V0  1  0.00552845  0.99705305  0.25714333  1
  V  V1  1  0.99447155  0.00294695  0.74285667  1
  V  V2  1  0.20010776  0.60213060  0.34271905  1
  V  V3  1  0.79989224  0.39786940  0.65728095  1
  V  V4  1  0.52200437  0.30011186  0.12639640  1
  V  V5  1  0.47799563  0.69988814  0.87360360  1
  Fe  Fe0  1  0.75714537  0.69394730  0.41158221  1
  Fe  Fe1  1  0.24285463  0.30605270  0.58841779  1
  Fe  Fe2  1  0.46643723  0.88808400  0.21093136  1
  Fe  Fe3  1  0.53356277  0.11191600  0.78906864  1
  Fe  Fe4  1  0.97374819  0.30468898  0.01422709  1
  Fe  Fe5  1  0.02625181  0.69531102  0.98577291  1
  O  O0  1  0.64642293  0.48708500  0.25201352  1
  O  O1  1  0.35357707  0.51291500  0.74798648  1
  O  O2  1  0.25456592  0.43677385  0.42714652  1
  O  O3  1  0.74543408  0.56322615  0.57285348  1
  O  O4  1  0.05312045  0.70259992  0.42660172  1
  O  O5  1  0.94687955  0.29740008  0.57339828  1
  O  O6  1  0.16078147  0.09593530  0.43129865  1
  O  O7  1  0.83921853  0.90406470  0.56870135  1
  O  O8  1  0.45147735  0.73888842  0.35992503  1
  O  O9  1  0.54852265  0.26111158  0.64007497  1
  O  O10  1  0.76149619  0.86815892  0.26304583  1
  O  O11  1  0.23850381  0.13184108  0.73695417  1
  O  O12  1  0.52520150  0.12579853  0.21659016  1
  O  O13  1  0.47479850  0.87420147  0.78340984  1
  O  O14  1  0.15062130  0.87325945  0.17672686  1
  O  O15  1  0.84937870  0.12674055  0.82327314  1
  O  O16  1  0.35735401  0.72828149  0.01891800  1
  O  O17  1  0.64264599  0.27171851  0.98108200  1
  O  O18  1  0.26333543  0.29801818  0.03654116  1
  O  O19  1  0.73666457  0.70198182  0.96345884  1
  O  O20  1  0.95057666  0.14872381  0.15266785  1
  O  O21  1  0.04942334  0.85127619  0.84733215  1
  O  O22  1  0.05484111  0.52857916  0.14755773  1
  O  O23  1  0.94515889  0.47142084  0.85244227  1
loop_
_geom_bond_atom_site_label_1
_geom_bond_atom_site_label_2
_geom_bond_distance
_geom_bond_site_symmetry_2
Fe0 O4 1.940023 1_655
Fe0 O3 1.949486 1_555
Fe0 O0 1.958598 1_555
Fe0 O7 1.975471 1_555
Fe0 O8 2.085472 1_555
Fe0 O10 2.088614 1_555
Fe1 O5 1.940023 1_455
Fe1 O2 1.949486 1_555
Fe1 O1 1.958598 1_555
Fe1 O6 1.975471 1_555
Fe1 O9 2.085472 1_555
Fe1 O11 2.088614 1_555
Fe2 O12 1.864297 1_565
Fe2 O16 1.935119 1_555
Fe2 O10 1.944999 1_555
Fe2 O8 1.954986 1_555
Fe2 O14 2.029830 1_555
Fe3 O13 1.864297 1_545
Fe3 O17 1.935119 1_555
Fe3 O11 1.944999 1_555
Fe3 O9 1.954986 1_555
Fe3 O15 2.029830 1_555
Fe4 O18 1.909212 1_655
Fe4 O20 1.923050 1_555
Fe4 O22 1.946107 1_655
Fe4 O15 2.001230 1_554
Fe4 O17 2.113189 1_554
Fe4 O23 2.130917 1_554
Fe5 O19 1.909212 1_455
Fe5 O21 1.923050 1_555
Fe5 O23 1.946107 1_455
Fe5 O14 2.001230 1_556
Fe5 O16 2.113189 1_556
Fe5 O22 2.130917 1_556
O0 V4 1.690967 1_555
O1 V5 1.690967 1_555
O2 V2 1.673472 1_555
O3 V3 1.673472 1_555
O4 V2 1.693312 1_555
O5 V3 1.693312 1_555
O6 V0 1.662157 1_545
O7 V1 1.662157 1_565
O8 V2 1.774467 1_555
O9 V3 1.774467 1_555
O10 V0 1.776126 1_655
O11 V1 1.776126 1_455
O12 V4 1.719756 1_555
O13 V5 1.719756 1_555
O14 V0 1.774444 1_555
O15 V1 1.774444 1_555
O16 V5 1.789923 1_554
O17 V4 1.789923 1_556
O18 V4 1.694125 1_555
O19 V5 1.694125 1_555
O20 V0 1.682764 1_645
O21 V1 1.682764 1_465
O22 V2 1.768893 1_555
O23 V3 1.768893 1_555
