# generated using pymatgen
data_BaBiO3
_symmetry_space_group_name_H-M   'P 1'
_cell_length_a   6.17435169
_cell_length_b   6.21717942
_cell_length_c   8.71828688
_cell_angle_alpha   90.25395528
_cell_angle_beta   90.00000000
_cell_angle_gamma   90.00000000
_symmetry_Int_Tables_number   1
_chemical_formula_structural   BaBiO3
_chemical_formula_sum   'Ba4 Bi4 O12'
_cell_volume   334.66604672
_cell_formula_units_Z   4
loop_
 _symmetry_equiv_pos_site_id
 _symmetry_equiv_pos_as_xyz
  1  'x, y, z'
loop_
 _atom_site_type_symbol
 _atom_site_label
 _atom_site_symmetry_multiplicity
 _atom_site_fract_x
 _atom_site_fract_y
 _atom_site_fract_z
 _atom_site_occupancy
  Ba  Ba0  1  0.01258091  0.49460584  0.75068166  1
  Ba  Ba1  1  0.98741909  0.50539416  0.24931834  1
  Ba  Ba2  1  0.48741909  0.99460584  0.25068166  1
  Ba  Ba3  1  0.51258091  0.00539416  0.74931834  1
  Bi  Bi0  1  0.50000000  0.50000000  0.00000000  1
  Bi  Bi1  1  0.00000000  -0.00000000  0.00000000  1
  Bi  Bi2  1  0.00000000  -0.00000000  0.50000000  1
  Bi  Bi3  1  0.50000000  0.50000000  0.50000000  1
  O  O0  1  0.27157534  0.24546535  0.96437354  1
  O  O1  1  0.99202065  0.93368117  0.74088841  1
  O  O2  1  0.25756482  0.22536870  0.53648687  1
  O  O3  1  0.74243518  0.77463130  0.46351313  1
  O  O4  1  0.24243518  0.72536870  0.03648687  1
  O  O5  1  0.75756482  0.27463130  0.96351313  1
  O  O6  1  0.22842466  0.74546535  0.46437354  1
  O  O7  1  0.77157534  0.25453465  0.53562646  1
  O  O8  1  0.00797935  0.06631883  0.25911159  1
  O  O9  1  0.49202065  0.56631883  0.75911159  1
  O  O10  1  0.50797935  0.43368117  0.24088841  1
  O  O11  1  0.72842466  0.75453465  0.03562646  1
loop_
_geom_bond_atom_site_label_1
_geom_bond_atom_site_label_2
_geom_bond_distance
_geom_bond_site_symmetry_2
Ba0 O1 2.734472 1_455
Ba0 O5 2.795549 1_455
Ba0 O7 2.816478 1_455
Ba0 O0 2.907386 1_555
Ba0 O2 2.923945 1_555
Ba0 O9 2.994471 1_555
Ba0 O4 3.201487 1_556
Ba0 O6 3.236303 1_555
Ba0 O9 3.245686 1_455
Ba1 O8 2.734472 1_655
Ba1 O4 2.795549 1_655
Ba1 O6 2.816478 1_655
Ba1 O11 2.907386 1_555
Ba1 O3 2.923945 1_555
Ba1 O10 2.994471 1_555
Ba1 O5 3.201487 1_554
Ba1 O7 3.236303 1_555
Ba1 O10 3.245686 1_655
Ba2 O10 2.734472 1_565
Ba2 O3 2.795549 1_555
Ba2 O11 2.816478 1_555
Ba2 O6 2.907386 1_555
Ba2 O4 2.923945 1_555
Ba2 O8 2.994471 1_565
Ba2 O2 3.201487 1_565
Ba2 O0 3.236303 1_564
Ba2 O8 3.245686 1_665
Ba3 O9 2.734472 1_545
Ba3 O2 2.795549 1_555
Ba3 O0 2.816478 1_555
Ba3 O7 2.907386 1_555
Ba3 O5 2.923945 1_555
Ba3 O1 2.994471 1_545
Ba3 O3 3.201487 1_545
Ba3 O11 3.236303 1_546
Ba3 O1 3.245686 1_445
Bi0 O11 2.141387 1_555
Bi0 O0 2.141387 1_554
Bi0 O4 2.142317 1_555
Bi0 O5 2.142317 1_554
Bi0 O10 2.142585 1_555
Bi0 O9 2.142585 1_554
Bi1 O0 2.289394 1_554
Bi1 O11 2.289394 1_445
Bi1 O5 2.293900 1_454
Bi1 O4 2.293900 1_545
Bi1 O1 2.295059 1_444
Bi1 O8 2.295059 1_555
Bi2 O7 2.141387 1_455
Bi2 O6 2.141387 1_545
Bi2 O3 2.142317 1_445
Bi2 O2 2.142317 1_555
Bi2 O8 2.142585 1_555
Bi2 O1 2.142585 1_445
Bi3 O6 2.289394 1_555
Bi3 O7 2.289394 1_555
Bi3 O2 2.293900 1_555
Bi3 O3 2.293900 1_555
Bi3 O9 2.295059 1_555
Bi3 O10 2.295059 1_555
