# generated using pymatgen
data_UV3O10
_symmetry_space_group_name_H-M   'P 1'
_cell_length_a   10.21722285
_cell_length_b   8.90542721
_cell_length_c   7.05106287
_cell_angle_alpha   78.68860441
_cell_angle_beta   58.72428389
_cell_angle_gamma   42.58711169
_symmetry_Int_Tables_number   1
_chemical_formula_structural   UV3O10
_chemical_formula_sum   'U2 V6 O20'
_cell_volume   351.33253661
_cell_formula_units_Z   2
loop_
 _symmetry_equiv_pos_site_id
 _symmetry_equiv_pos_as_xyz
  1  'x, y, z'
loop_
 _atom_site_type_symbol
 _atom_site_label
 _atom_site_symmetry_multiplicity
 _atom_site_fract_x
 _atom_site_fract_y
 _atom_site_fract_z
 _atom_site_occupancy
  U  U0  1  0.50000000  0.50000000  0.50000000  1
  U  U1  1  0.75000000  0.75000000  0.75000000  1
  V  V0  1  0.00000000  0.00000000  0.00000000  1
  V  V1  1  0.25000000  0.25000000  0.25000000  1
  V  V2  1  0.77617500  0.77617500  0.22382500  1
  V  V3  1  0.22382500  0.22382500  0.77617500  1
  V  V4  1  0.47382500  0.47382500  0.02617500  1
  V  V5  1  0.02617500  0.02617500  0.47382500  1
  O  O0  1  0.29892100  0.69442600  0.90840200  1
  O  O1  1  0.09825100  0.90840200  0.69442600  1
  O  O2  1  0.90840200  0.09825100  0.29892100  1
  O  O3  1  0.69442600  0.29892100  0.09825100  1
  O  O4  1  0.95107900  0.55557400  0.34159800  1
  O  O5  1  0.15174900  0.34159800  0.55557400  1
  O  O6  1  0.34159800  0.15174900  0.95107900  1
  O  O7  1  0.55557400  0.95107900  0.15174900  1
  O  O8  1  0.87940900  0.87940900  0.12059100  1
  O  O9  1  0.12059100  0.12059100  0.87940900  1
  O  O10  1  0.37059100  0.37059100  0.12940900  1
  O  O11  1  0.12940900  0.12940900  0.37059100  1
  O  O12  1  0.61037500  0.61037500  0.38962500  1
  O  O13  1  0.38962500  0.38962500  0.61037500  1
  O  O14  1  0.63962500  0.63962500  0.86037500  1
  O  O15  1  0.86037500  0.86037500  0.63962500  1
  O  O16  1  0.70887800  0.29112200  0.70887800  1
  O  O17  1  0.29112200  0.70887800  0.29112200  1
  O  O18  1  0.54112200  0.95887800  0.54112200  1
  O  O19  1  0.95887800  0.54112200  0.95887800  1
loop_
_geom_bond_atom_site_label_1
_geom_bond_atom_site_label_2
_geom_bond_distance
_geom_bond_site_symmetry_2
O0 V4 1.863841 1_556
O0 V0 1.885049 1_566
O0 U0 2.467046 1_555
O1 V5 1.863841 1_565
O1 V0 1.885049 1_566
O1 U0 2.467046 1_555
O2 V5 1.863841 1_655
O2 V0 1.885049 1_655
O2 U0 2.467046 1_555
O3 V4 1.863841 1_555
O3 V0 1.885049 1_655
O3 U0 2.467046 1_555
O4 V2 1.863841 1_555
O4 V1 1.885049 1_655
O4 U1 2.467046 1_555
O5 V3 1.863841 1_555
O5 V1 1.885049 1_555
O5 U1 2.467046 1_455
O6 V3 1.863841 1_555
O6 V1 1.885049 1_556
O6 U1 2.467046 1_545
O7 V2 1.863841 1_555
O7 V1 1.885049 1_565
O7 U1 2.467046 1_554
O8 V2 1.689892 1_555
O8 V0 1.974018 1_665
O9 V3 1.689892 1_555
O9 V0 1.974018 1_556
O10 V4 1.689892 1_555
O10 V1 1.974018 1_555
O11 V5 1.689892 1_555
O11 V1 1.974018 1_555
O12 U0 1.806787 1_555
O13 U0 1.806787 1_555
O14 U1 1.806787 1_555
O15 U1 1.806787 1_555
O16 V5 1.875002 1_655
O16 V4 1.875002 1_556
O16 U0 2.554852 1_555
O17 V4 1.875002 1_555
O17 V5 1.875002 1_565
O17 U0 2.554852 1_555
O18 V3 1.875002 1_565
O18 V2 1.875002 1_555
O18 U1 2.554852 1_555
O19 V2 1.875002 1_556
O19 V3 1.875002 1_655
O19 U1 2.554852 1_555
