# generated using pymatgen
data_BaZn2(BO3)2
_symmetry_space_group_name_H-M   'P 1'
_cell_length_a   4.98611300
_cell_length_b   9.48278700
_cell_length_c   12.28349100
_cell_angle_alpha   90.00000000
_cell_angle_beta   90.00000000
_cell_angle_gamma   90.00000000
_symmetry_Int_Tables_number   1
_chemical_formula_structural   BaZn2(BO3)2
_chemical_formula_sum   'Ba4 Zn8 B8 O24'
_cell_volume   580.79106208
_cell_formula_units_Z   4
loop_
 _symmetry_equiv_pos_site_id
 _symmetry_equiv_pos_as_xyz
  1  'x, y, z'
loop_
 _atom_site_type_symbol
 _atom_site_label
 _atom_site_symmetry_multiplicity
 _atom_site_fract_x
 _atom_site_fract_y
 _atom_site_fract_z
 _atom_site_occupancy
  Ba  Ba0  1  0.96964300  0.89859200  0.27102900  1
  Ba  Ba1  1  0.46964300  0.60140800  0.72897100  1
  Ba  Ba2  1  0.53035700  0.10140800  0.77102900  1
  Ba  Ba3  1  0.03035700  0.39859200  0.22897100  1
  Zn  Zn0  1  0.54666000  0.13180300  0.10482500  1
  Zn  Zn1  1  0.95334000  0.86819700  0.60482500  1
  Zn  Zn2  1  0.05386800  0.15822000  0.46867300  1
  Zn  Zn3  1  0.44613200  0.84178000  0.96867300  1
  Zn  Zn4  1  0.45334000  0.63180300  0.39517500  1
  Zn  Zn5  1  0.94613200  0.65822000  0.03132700  1
  Zn  Zn6  1  0.04666000  0.36819700  0.89517500  1
  Zn  Zn7  1  0.55386800  0.34178000  0.53132700  1
  B  B0  1  0.55827200  0.40999100  0.00615000  1
  B  B1  1  0.53457500  0.16680900  0.33384400  1
  B  B2  1  0.96542500  0.83319100  0.83384400  1
  B  B3  1  0.05827200  0.09000900  0.99385000  1
  B  B4  1  0.46542500  0.66680900  0.16615600  1
  B  B5  1  0.94172800  0.59000900  0.50615000  1
  B  B6  1  0.44172800  0.90999100  0.49385000  1
  B  B7  1  0.03457500  0.33319100  0.66615600  1
  O  O0  1  0.38214900  0.24932000  0.40704700  1
  O  O1  1  0.18915800  0.66828000  0.15770900  1
  O  O2  1  0.09429400  0.90607700  0.75295500  1
  O  O3  1  0.91377000  0.06300600  0.08662500  1
  O  O4  1  0.03876300  0.66515100  0.59380200  1
  O  O5  1  0.11785100  0.75068000  0.90704700  1
  O  O6  1  0.40570600  0.09392300  0.25295500  1
  O  O7  1  0.81084200  0.16828000  0.34229100  1
  O  O8  1  0.31084200  0.33172000  0.65770900  1
  O  O9  1  0.88214900  0.25068000  0.59295300  1
  O  O10  1  0.41377000  0.43699400  0.91337500  1
  O  O11  1  0.68915800  0.83172000  0.84229100  1
  O  O12  1  0.53876300  0.83484900  0.40619800  1
  O  O13  1  0.08623000  0.56300600  0.41337500  1
  O  O14  1  0.67201600  0.53966600  0.51259700  1
  O  O15  1  0.59429400  0.59392300  0.24704500  1
  O  O16  1  0.17201600  0.96033400  0.48740300  1
  O  O17  1  0.96123700  0.16515100  0.90619800  1
  O  O18  1  0.58623000  0.93699400  0.58662500  1
  O  O19  1  0.61785100  0.74932000  0.09295300  1
  O  O20  1  0.82798400  0.46033400  0.01259700  1
  O  O21  1  0.46123700  0.33484900  0.09380200  1
  O  O22  1  0.32798400  0.03966600  0.98740300  1
  O  O23  1  0.90570600  0.40607700  0.74704500  1
loop_
_geom_bond_atom_site_label_1
_geom_bond_atom_site_label_2
_geom_bond_distance
_geom_bond_site_symmetry_2
Ba0 O3 2.763911 1_565
Ba0 O12 2.781694 1_555
Ba0 O1 2.811656 1_655
Ba0 O7 2.816636 1_565
Ba0 O6 2.864898 1_665
Ba0 O16 2.902591 1_655
Ba0 O19 3.140885 1_555
Ba1 O10 2.763911 1_555
Ba1 O4 2.781694 1_555
Ba1 O11 2.811656 1_555
Ba1 O8 2.816636 1_555
Ba1 O23 2.864898 1_555
Ba1 O14 2.902591 1_555
Ba1 O5 3.140885 1_555
Ba2 O18 2.763911 1_545
Ba2 O17 2.781694 1_555
Ba2 O8 2.811656 1_555
Ba2 O11 2.816636 1_545
Ba2 O2 2.864898 1_545
Ba2 O22 2.902591 1_555
Ba2 O9 3.140885 1_555
Ba3 O13 2.763911 1_555
Ba3 O21 2.781694 1_555
Ba3 O7 2.811656 1_455
Ba3 O1 2.816636 1_555
Ba3 O15 2.864898 1_455
Ba3 O20 2.902591 1_455
Ba3 O0 3.140885 1_555
B0 O10 1.372364 1_554
B0 O21 1.378785 1_555
B0 O20 1.429231 1_555
B1 O6 1.370337 1_555
B1 O7 1.381471 1_555
B1 O0 1.413635 1_555
B2 O2 1.370337 1_655
B2 O11 1.381471 1_555
B2 O5 1.413635 1_655
B3 O3 1.372364 1_456
B3 O17 1.378785 1_455
B3 O22 1.429231 1_555
B4 O15 1.370337 1_555
B4 O1 1.381471 1_555
B4 O19 1.413635 1_555
B5 O13 1.372364 1_655
B5 O4 1.378785 1_655
B5 O14 1.429231 1_555
B6 O18 1.372364 1_555
B6 O12 1.378785 1_555
B6 O16 1.429231 1_555
B7 O23 1.370337 1_455
B7 O8 1.381471 1_555
B7 O9 1.413635 1_455
O0 Zn7 1.957631 1_555
O0 Zn2 1.999645 1_555
O1 Zn5 1.971658 1_455
O2 Zn1 1.983369 1_455
O3 Zn0 1.956053 1_555
O4 Zn1 1.976632 1_455
O5 Zn5 1.957631 1_456
O5 Zn3 1.999645 1_555
O6 Zn0 1.983369 1_555
O7 Zn2 1.971658 1_655
O8 Zn7 1.971658 1_555
O9 Zn2 1.957631 1_655
O9 Zn7 1.999645 1_555
O10 Zn6 1.956053 1_555
O11 Zn3 1.971658 1_555
O12 Zn4 1.976632 1_555
O13 Zn4 1.956053 1_555
O14 Zn7 1.980218 1_555
O14 Zn4 2.008135 1_555
O15 Zn4 1.983369 1_555
O16 Zn2 1.980218 1_565
O16 Zn1 2.008135 1_455
O17 Zn6 1.976632 1_655
O18 Zn1 1.956053 1_555
O19 Zn3 1.957631 1_554
O19 Zn5 1.999645 1_555
O20 Zn5 1.980218 1_555
O20 Zn6 2.008135 1_654
O21 Zn0 1.976632 1_555
O22 Zn3 1.980218 1_545
O22 Zn0 2.008135 1_556
O23 Zn6 1.983369 1_655
