# generated using pymatgen
data_Pr2SbO5F
_symmetry_space_group_name_H-M   'P 1'
_cell_length_a   6.69231400
_cell_length_b   7.10535000
_cell_length_c   10.23653795
_cell_angle_alpha   86.38892104
_cell_angle_beta   90.00000000
_cell_angle_gamma   90.00000000
_symmetry_Int_Tables_number   1
_chemical_formula_structural   Pr2SbO5F
_chemical_formula_sum   'Pr8 Sb4 O20 F4'
_cell_volume   485.79357515
_cell_formula_units_Z   4
loop_
 _symmetry_equiv_pos_site_id
 _symmetry_equiv_pos_as_xyz
  1  'x, y, z'
loop_
 _atom_site_type_symbol
 _atom_site_label
 _atom_site_symmetry_multiplicity
 _atom_site_fract_x
 _atom_site_fract_y
 _atom_site_fract_z
 _atom_site_occupancy
  Pr  Pr0  1  0.74949000  0.37230100  0.53500700  1
  Pr  Pr1  1  0.56897500  0.12280700  0.96544400  1
  Pr  Pr2  1  0.06897500  0.87719300  0.03455600  1
  Pr  Pr3  1  0.37859500  0.13051200  0.33862700  1
  Pr  Pr4  1  0.43903000  0.62732800  0.83916600  1
  Pr  Pr5  1  0.93903000  0.37267200  0.16083400  1
  Pr  Pr6  1  0.87859500  0.86948800  0.66137300  1
  Pr  Pr7  1  0.24949000  0.62769900  0.46499300  1
  Sb  Sb0  1  0.80957500  0.88720400  0.32257100  1
  Sb  Sb1  1  0.30957500  0.11279600  0.67742900  1
  Sb  Sb2  1  0.01284200  0.39039700  0.82157800  1
  Sb  Sb3  1  0.51284200  0.60960300  0.17842200  1
  O  O0  1  0.31160300  0.30024500  0.82502100  1
  O  O1  1  0.72929900  0.04824200  0.46439200  1
  O  O2  1  0.58713300  0.05580000  0.72758100  1
  O  O3  1  0.01025400  0.19945600  0.67639400  1
  O  O4  1  0.09114700  0.55229800  0.96389100  1
  O  O5  1  0.89370500  0.69047200  0.46144700  1
  O  O6  1  0.08713300  0.94420000  0.27241900  1
  O  O7  1  0.22929900  0.95175800  0.53560800  1
  O  O8  1  0.11584100  0.58462500  0.68799100  1
  O  O9  1  0.71706200  0.08278900  0.18640700  1
  O  O10  1  0.74218000  0.46508100  0.76701700  1
  O  O11  1  0.42392300  0.80600000  0.04161000  1
  O  O12  1  0.59114700  0.44770200  0.03610900  1
  O  O13  1  0.81160300  0.69975500  0.17497900  1
  O  O14  1  0.61584100  0.41537500  0.31200900  1
  O  O15  1  0.21706200  0.91721100  0.81359300  1
  O  O16  1  0.51025400  0.80054400  0.32360600  1
  O  O17  1  0.39370500  0.30952800  0.53855300  1
  O  O18  1  0.92392300  0.19400000  0.95839000  1
  O  O19  1  0.24218000  0.53491900  0.23298300  1
  F  F0  1  0.03792700  0.32426800  0.39217000  1
  F  F1  1  0.53792700  0.67573200  0.60783000  1
  F  F2  1  0.77692100  0.83138800  0.89307900  1
  F  F3  1  0.27692100  0.16861200  0.10692100  1
loop_
_geom_bond_atom_site_label_1
_geom_bond_atom_site_label_2
_geom_bond_distance
_geom_bond_site_symmetry_2
O0 Sb1 2.076104 1_555
O0 Sb2 2.099125 1_555
O0 Pr4 2.488323 1_555
O0 Pr1 2.528673 1_555
O1 Sb0 1.978567 1_545
O1 Pr0 2.460119 1_555
O1 Pr6 2.520858 1_545
O1 Pr3 2.722648 1_555
O2 Sb1 1.962576 1_555
O2 Pr6 2.475781 1_545
O2 Pr1 2.513202 1_555
O3 Sb2 2.074528 1_555
O3 Sb1 2.095483 1_555
O3 Pr6 2.518384 1_445
O3 Pr0 2.534665 1_455
O4 Sb2 1.982751 1_555
O4 Pr2 2.466731 1_556
O4 Pr5 2.530910 1_456
O4 Pr4 2.692362 1_555
O5 Sb0 2.010381 1_555
O5 Pr7 2.422291 1_655
O5 Pr6 2.478793 1_555
O5 Pr0 2.528812 1_555
O6 Sb0 1.962576 1_455
O6 Pr3 2.475781 1_565
O6 Pr2 2.513202 1_555
O7 Sb1 1.978567 1_565
O7 Pr7 2.460119 1_555
O7 Pr3 2.520858 1_565
O7 Pr6 2.722648 1_455
O8 Sb2 2.002984 1_555
O8 Pr7 2.452855 1_555
O8 Pr6 2.573407 1_455
O8 Pr4 2.687760 1_555
O9 Sb0 2.003345 1_545
O9 Pr1 2.469449 1_554
O9 Pr5 2.539627 1_555
O9 Pr3 2.782148 1_555
O10 Sb2 1.958879 1_655
O10 Pr4 2.469340 1_555
O10 Pr0 2.504941 1_555
O11 Sb3 2.004149 1_555
O11 Pr2 2.428813 1_555
O11 Pr4 2.499571 1_554
O11 Pr1 2.529081 1_564
O12 Sb3 1.982751 1_555
O12 Pr1 2.466731 1_554
O12 Pr4 2.530910 1_554
O12 Pr5 2.692362 1_555
O13 Sb0 2.076104 1_555
O13 Sb3 2.099125 1_555
O13 Pr5 2.488323 1_555
O13 Pr2 2.528673 1_655
O14 Sb3 2.002984 1_555
O14 Pr0 2.452855 1_555
O14 Pr3 2.573407 1_555
O14 Pr5 2.687760 1_555
O15 Sb1 2.003345 1_565
O15 Pr2 2.469449 1_556
O15 Pr4 2.539627 1_555
O15 Pr6 2.782148 1_455
O16 Sb3 2.074528 1_555
O16 Sb0 2.095483 1_555
O16 Pr3 2.518384 1_565
O16 Pr7 2.534665 1_555
O17 Sb1 2.010381 1_555
O17 Pr0 2.422291 1_555
O17 Pr3 2.478793 1_555
O17 Pr7 2.528812 1_555
O18 Sb2 2.004149 1_655
O18 Pr1 2.428813 1_555
O18 Pr5 2.499571 1_556
O18 Pr2 2.529081 1_646
O19 Sb3 1.958879 1_555
O19 Pr5 2.469340 1_455
O19 Pr7 2.504941 1_555
F0 Pr0 2.458321 1_455
F0 Pr5 2.462019 1_455
F0 Pr7 2.722323 1_555
F0 Pr3 2.736516 1_555
F1 Pr7 2.458321 1_555
F1 Pr4 2.462019 1_555
F1 Pr0 2.722323 1_555
F1 Pr6 2.736516 1_555
F2 Pr6 2.465998 1_555
F2 Pr2 2.466337 1_656
F2 Pr1 2.639344 1_565
F2 Pr4 2.760613 1_555
F3 Pr3 2.465998 1_555
F3 Pr1 2.466337 1_554
F3 Pr2 2.639344 1_545
F3 Pr5 2.760613 1_455
