# generated using pymatgen
data_La5Si5I3
_symmetry_space_group_name_H-M   'P 1'
_cell_length_a   12.29709171
_cell_length_b   12.29709171
_cell_length_c   15.85779420
_cell_angle_alpha   69.86621984
_cell_angle_beta   69.86621984
_cell_angle_gamma   20.02749441
_symmetry_Int_Tables_number   1
_chemical_formula_structural   La5Si5I3
_chemical_formula_sum   'La10 Si10 I6'
_cell_volume   769.44032472
_cell_formula_units_Z   2
loop_
 _symmetry_equiv_pos_site_id
 _symmetry_equiv_pos_as_xyz
  1  'x, y, z'
loop_
 _atom_site_type_symbol
 _atom_site_label
 _atom_site_symmetry_multiplicity
 _atom_site_fract_x
 _atom_site_fract_y
 _atom_site_fract_z
 _atom_site_occupancy
  La  La0  1  0.33804847  0.33804847  0.05818411  1
  La  La1  1  0.91414290  0.91414290  0.56273851  1
  La  La2  1  0.08585710  0.08585710  0.43726149  1
  La  La3  1  0.01663973  0.01663973  0.70892983  1
  La  La4  1  0.98336027  0.98336027  0.29107017  1
  La  La5  1  0.83586225  0.83586225  0.83399335  1
  La  La6  1  0.73849455  0.73849455  0.67067600  1
  La  La7  1  0.66195153  0.66195153  0.94181589  1
  La  La8  1  0.16413775  0.16413775  0.16600665  1
  La  La9  1  0.26150545  0.26150545  0.32932400  1
  Si  Si0  1  0.50790152  0.50790152  0.57249789  1
  Si  Si1  1  0.42422813  0.42422813  0.70529144  1
  Si  Si2  1  0.49209848  0.49209848  0.42750211  1
  Si  Si3  1  0.74978342  0.74978342  0.03954024  1
  Si  Si4  1  0.67190427  0.67190427  0.31807254  1
  Si  Si5  1  0.24129695  0.24129695  0.81007301  1
  Si  Si6  1  0.75870305  0.75870305  0.18992699  1
  Si  Si7  1  0.32809573  0.32809573  0.68192746  1
  Si  Si8  1  0.57577187  0.57577187  0.29470856  1
  Si  Si9  1  0.25021658  0.25021658  0.96045976  1
  I  I0  1  0.59094499  0.59094499  0.79521002  1
  I  I1  1  0.06079460  0.06079460  0.06696428  1
  I  I2  1  0.93920540  0.93920540  0.93303572  1
  I  I3  1  0.82705032  0.82705032  0.43715140  1
  I  I4  1  0.40905501  0.40905501  0.20478998  1
  I  I5  1  0.17294968  0.17294968  0.56284860  1
loop_
_geom_bond_atom_site_label_1
_geom_bond_atom_site_label_2
_geom_bond_distance
_geom_bond_site_symmetry_2
La0 Si9 3.038302 1_554
La0 Si3 3.109883 1_455
La0 Si3 3.109883 1_545
La0 Si6 3.134185 1_455
La0 Si6 3.134185 1_545
La1 Si7 3.119953 1_565
La1 Si7 3.119953 1_655
La1 Si2 3.147294 1_655
La1 Si2 3.147294 1_565
La1 Si0 3.162012 1_655
La1 Si0 3.162012 1_565
La1 Si1 3.182465 1_655
La1 Si1 3.182465 1_565
La2 Si4 3.119953 1_545
La2 Si4 3.119953 1_455
La2 Si0 3.147294 1_455
La2 Si0 3.147294 1_545
La2 Si2 3.162012 1_455
La2 Si2 3.162012 1_545
La2 Si8 3.182465 1_455
La2 Si8 3.182465 1_545
La3 Si0 3.101268 1_455
La3 Si0 3.101268 1_545
La3 Si1 3.110498 1_545
La3 Si1 3.110498 1_455
La4 Si2 3.101268 1_655
La4 Si2 3.101268 1_565
La4 Si8 3.110498 1_655
La4 Si8 3.110498 1_565
La5 Si9 3.160496 1_565
La5 Si9 3.160496 1_655
La5 Si3 3.196921 1_556
La5 Si1 3.203816 1_565
La5 Si1 3.203816 1_655
La5 Si5 3.251005 1_655
La5 Si5 3.251005 1_565
La5 Si7 3.277146 1_565
La5 Si7 3.277146 1_655
La6 Si5 3.093242 1_565
La6 Si5 3.093242 1_655
La6 Si7 3.095812 1_655
La6 Si7 3.095812 1_565
La7 Si3 3.038302 1_556
La7 Si9 3.109883 1_655
La7 Si9 3.109883 1_565
La7 Si5 3.134185 1_655
La7 Si5 3.134185 1_565
La8 Si3 3.160496 1_455
La8 Si3 3.160496 1_545
La8 Si9 3.196921 1_554
La8 Si8 3.203816 1_455
La8 Si8 3.203816 1_545
La8 Si6 3.251005 1_545
La8 Si6 3.251005 1_455
La8 Si4 3.277146 1_455
La8 Si4 3.277146 1_545
La9 Si6 3.093242 1_545
La9 Si6 3.093242 1_455
La9 Si4 3.095812 1_455
La9 Si4 3.095812 1_545
Si0 Si1 2.357534 1_555
Si0 Si2 2.459380 1_555
Si1 Si7 2.482177 1_555
Si2 Si8 2.357534 1_555
Si3 Si6 2.468624 1_555
Si3 Si9 2.477044 1_564
Si3 Si9 2.477044 1_654
Si4 Si6 2.358472 1_555
Si4 Si8 2.482177 1_555
Si5 Si7 2.358472 1_555
Si5 Si9 2.468624 1_555
I0 La7 3.340274 1_555
I0 La3 3.377017 1_565
I0 La3 3.377017 1_655
I0 La6 3.425916 1_555
I1 La7 3.333782 1_454
I1 La7 3.333782 1_544
I1 La8 3.388141 1_555
I1 La4 3.389335 1_445
I2 La0 3.333782 1_656
I2 La0 3.333782 1_566
I2 La5 3.388141 1_555
I2 La3 3.389335 1_665
I3 La1 3.369306 1_555
I3 La9 3.451610 1_565
I3 La9 3.451610 1_655
I3 La6 3.572287 1_555
I3 La4 3.683402 1_555
I4 La0 3.340274 1_555
I4 La4 3.377017 1_545
I4 La4 3.377017 1_455
I4 La9 3.425916 1_555
I5 La2 3.369306 1_555
I5 La6 3.451610 1_545
I5 La6 3.451610 1_455
I5 La9 3.572287 1_555
I5 La3 3.683402 1_555
