# generated using pymatgen
data_NdSeClO3
_symmetry_space_group_name_H-M   'P 1'
_cell_length_a   5.42704500
_cell_length_b   11.29983900
_cell_length_c   13.66578000
_cell_angle_alpha   90.00000000
_cell_angle_beta   90.00000000
_cell_angle_gamma   90.00000000
_symmetry_Int_Tables_number   1
_chemical_formula_structural   NdSeClO3
_chemical_formula_sum   'Nd8 Se8 Cl8 O24'
_cell_volume   838.05033359
_cell_formula_units_Z   8
loop_
 _symmetry_equiv_pos_site_id
 _symmetry_equiv_pos_as_xyz
  1  'x, y, z'
loop_
 _atom_site_type_symbol
 _atom_site_label
 _atom_site_symmetry_multiplicity
 _atom_site_fract_x
 _atom_site_fract_y
 _atom_site_fract_z
 _atom_site_occupancy
  Nd  Nd0  1  0.25000000  0.42793200  0.85543500  1
  Nd  Nd1  1  0.75000000  0.92914600  0.10014500  1
  Nd  Nd2  1  0.25000000  0.07085400  0.89985500  1
  Nd  Nd3  1  0.25000000  0.92793200  0.64456500  1
  Nd  Nd4  1  0.25000000  0.57085400  0.60014500  1
  Nd  Nd5  1  0.75000000  0.42914600  0.39985500  1
  Nd  Nd6  1  0.75000000  0.07206800  0.35543500  1
  Nd  Nd7  1  0.75000000  0.57206800  0.14456500  1
  Se  Se0  1  0.75000000  0.24071300  0.97023600  1
  Se  Se1  1  0.25000000  0.25928700  0.47023600  1
  Se  Se2  1  0.75000000  0.74071300  0.52976400  1
  Se  Se3  1  0.25000000  0.15204800  0.18371500  1
  Se  Se4  1  0.75000000  0.84795200  0.81628500  1
  Se  Se5  1  0.25000000  0.75928700  0.02976400  1
  Se  Se6  1  0.75000000  0.34795200  0.68371500  1
  Se  Se7  1  0.25000000  0.65204800  0.31628500  1
  Cl  Cl0  1  0.25000000  0.16672300  0.70035800  1
  Cl  Cl1  1  0.75000000  0.33327700  0.20035800  1
  Cl  Cl2  1  0.75000000  0.83327700  0.29964200  1
  Cl  Cl3  1  0.25000000  0.48222500  0.06776800  1
  Cl  Cl4  1  0.75000000  0.01777500  0.56776800  1
  Cl  Cl5  1  0.25000000  0.98222500  0.43223200  1
  Cl  Cl6  1  0.75000000  0.51777500  0.93223200  1
  Cl  Cl7  1  0.25000000  0.66672300  0.79964200  1
  O  O0  1  0.25000000  0.65752300  0.44015100  1
  O  O1  1  0.75000000  0.58562100  0.52614500  1
  O  O2  1  0.49867000  0.05660100  0.20796000  1
  O  O3  1  0.25000000  0.15752300  0.05984900  1
  O  O4  1  0.00133000  0.05660100  0.20796000  1
  O  O5  1  0.25000000  0.41437900  0.47385500  1
  O  O6  1  0.75000000  0.08562100  0.97385500  1
  O  O7  1  0.49625800  0.74336900  0.11008300  1
  O  O8  1  0.50374200  0.25663100  0.88991700  1
  O  O9  1  0.50133000  0.44339900  0.70796000  1
  O  O10  1  0.99867000  0.44339900  0.70796000  1
  O  O11  1  0.99625800  0.25663100  0.88991700  1
  O  O12  1  0.75000000  0.84247700  0.94015100  1
  O  O13  1  0.25000000  0.91437900  0.02614500  1
  O  O14  1  0.99625800  0.75663100  0.61008300  1
  O  O15  1  0.50374200  0.75663100  0.61008300  1
  O  O16  1  0.00133000  0.55660100  0.29204000  1
  O  O17  1  0.50133000  0.94339900  0.79204000  1
  O  O18  1  0.00374200  0.24336900  0.38991700  1
  O  O19  1  0.49867000  0.55660100  0.29204000  1
  O  O20  1  0.75000000  0.34247700  0.55984900  1
  O  O21  1  0.49625800  0.24336900  0.38991700  1
  O  O22  1  0.99867000  0.94339900  0.79204000  1
  O  O23  1  0.00374200  0.74336900  0.11008300  1
loop_
_geom_bond_atom_site_label_1
_geom_bond_atom_site_label_2
_geom_bond_distance
_geom_bond_site_symmetry_2
Nd0 O8 2.421818 1_555
Nd0 O11 2.421818 1_455
Nd0 O9 2.439808 1_555
Nd0 O10 2.439808 1_455
Nd1 O12 2.395757 1_554
Nd1 O6 2.470808 1_564
Nd1 O4 2.470934 1_665
Nd1 O2 2.470934 1_565
Nd1 O23 2.514282 1_655
Nd1 O7 2.514282 1_555
Nd1 O13 2.900640 1_555
Nd1 O13 2.900640 1_655
Nd2 O3 2.395757 1_556
Nd2 O13 2.470808 1_546
Nd2 O22 2.470934 1_445
Nd2 O17 2.470934 1_545
Nd2 O11 2.514282 1_455
Nd2 O8 2.514282 1_555
Nd2 O6 2.900640 1_455
Nd2 O6 2.900640 1_555
Nd3 O15 2.421818 1_555
Nd3 O14 2.421818 1_455
Nd3 O17 2.439808 1_555
Nd3 O22 2.439808 1_455
Nd4 O0 2.395757 1_555
Nd4 O5 2.470808 1_555
Nd4 O9 2.470934 1_555
Nd4 O10 2.470934 1_455
Nd4 O15 2.514282 1_555
Nd4 O14 2.514282 1_455
Nd4 O1 2.900640 1_555
Nd4 O1 2.900640 1_455
Nd5 O20 2.395757 1_555
Nd5 O1 2.470808 1_555
Nd5 O19 2.470934 1_555
Nd5 O16 2.470934 1_655
Nd5 O21 2.514282 1_555
Nd5 O18 2.514282 1_655
Nd5 O5 2.900640 1_555
Nd5 O5 2.900640 1_655
Nd6 O18 2.421818 1_655
Nd6 O21 2.421818 1_555
Nd6 O4 2.439808 1_655
Nd6 O2 2.439808 1_555
Nd7 O23 2.421818 1_655
Nd7 O7 2.421818 1_555
Nd7 O16 2.439808 1_655
Nd7 O19 2.439808 1_555
Cl0 Nd3 2.803954 1_545
Cl0 Nd2 2.933626 1_555
Cl1 Nd7 2.803954 1_555
Cl1 Nd5 2.933626 1_555
Cl2 Nd6 2.803954 1_565
Cl2 Nd1 2.933626 1_555
Cl3 Nd0 2.965843 1_554
Cl3 Nd7 3.081443 1_455
Cl3 Nd7 3.081443 1_555
Cl4 Nd6 2.965843 1_555
Cl4 Nd3 3.081443 1_545
Cl4 Nd3 3.081443 1_645
Cl5 Nd3 2.965843 1_555
Cl5 Nd6 3.081443 1_465
Cl5 Nd6 3.081443 1_565
Cl6 Nd7 2.965843 1_556
Cl6 Nd0 3.081443 1_655
Cl6 Nd0 3.081443 1_555
Cl7 Nd0 2.803954 1_555
Cl7 Nd4 2.933626 1_555
O0 Se7 1.693856 1_555
O1 Se2 1.753212 1_555
O2 Se3 1.759058 1_555
O3 Se3 1.693856 1_555
O4 Se3 1.759058 1_555
O5 Se1 1.753212 1_555
O6 Se0 1.753212 1_555
O7 Se5 1.738745 1_555
O8 Se0 1.738745 1_555
O9 Se6 1.759058 1_555
O10 Se6 1.759058 1_555
O11 Se0 1.738745 1_555
O12 Se4 1.693856 1_555
O13 Se5 1.753212 1_555
O14 Se2 1.738745 1_555
O15 Se2 1.738745 1_555
O16 Se7 1.759058 1_555
O17 Se4 1.759058 1_555
O18 Se1 1.738745 1_555
O19 Se7 1.759058 1_555
O20 Se6 1.693856 1_555
O21 Se1 1.738745 1_555
O22 Se4 1.759058 1_555
O23 Se5 1.738745 1_555
