# generated using pymatgen
data_RuCl(OF3)2
_symmetry_space_group_name_H-M   'P 1'
_cell_length_a   5.84341600
_cell_length_b   7.19862800
_cell_length_c   10.41707172
_cell_angle_alpha   46.85256932
_cell_angle_beta   90.00000000
_cell_angle_gamma   90.00000000
_symmetry_Int_Tables_number   1
_chemical_formula_structural   RuCl(OF3)2
_chemical_formula_sum   'Ru2 Cl2 O4 F12'
_cell_volume   319.70164571
_cell_formula_units_Z   2
loop_
 _symmetry_equiv_pos_site_id
 _symmetry_equiv_pos_as_xyz
  1  'x, y, z'
loop_
 _atom_site_type_symbol
 _atom_site_label
 _atom_site_symmetry_multiplicity
 _atom_site_fract_x
 _atom_site_fract_y
 _atom_site_fract_z
 _atom_site_occupancy
  Ru  Ru0  1  0.99843200  0.50000000  0.75000000  1
  Ru  Ru1  1  0.00156800  0.50000000  0.25000000  1
  Cl  Cl0  1  0.35688300  0.00000000  0.75000000  1
  Cl  Cl1  1  0.64311700  0.00000000  0.25000000  1
  O  O0  1  0.51528800  0.84449400  0.41007000  1
  O  O1  1  0.48471200  0.84449400  0.91007000  1
  O  O2  1  0.51528800  0.15550600  0.08993000  1
  O  O3  1  0.48471200  0.15550600  0.58993000  1
  F  F0  1  0.75839800  0.32572900  0.24164500  1
  F  F1  1  0.00130100  0.24271300  0.99854500  1
  F  F2  1  0.24160200  0.32572900  0.74164500  1
  F  F3  1  0.22444200  0.32050600  0.24274500  1
  F  F4  1  0.75839800  0.67427100  0.25835500  1
  F  F5  1  0.77555800  0.67949400  0.75725500  1
  F  F6  1  0.99869900  0.24271300  0.49854500  1
  F  F7  1  0.77555800  0.32050600  0.74274500  1
  F  F8  1  0.24160200  0.67427100  0.75835500  1
  F  F9  1  0.00130100  0.75728700  0.50145500  1
  F  F10  1  0.99869900  0.75728700  0.00145500  1
  F  F11  1  0.22444200  0.67949400  0.25725500  1
loop_
_geom_bond_atom_site_label_1
_geom_bond_atom_site_label_2
_geom_bond_distance
_geom_bond_site_symmetry_2
Cl0 O3 1.427737 1_555
Cl0 O1 1.427737 1_545
Cl1 O2 1.427737 1_555
Cl1 O0 1.427737 1_545
F0 Ru1 1.936439 1_655
F1 Ru0 1.890837 1_455
F2 Ru0 1.936439 1_455
F3 Ru1 1.872146 1_555
F4 Ru1 1.936439 1_655
F5 Ru0 1.872146 1_555
F6 Ru1 1.890837 1_655
F7 Ru0 1.872146 1_555
F8 Ru0 1.936439 1_455
F9 Ru0 1.890837 1_455
F10 Ru1 1.890837 1_655
F11 Ru1 1.872146 1_555
