# generated using pymatgen
data_CsMn2V2ClO7
_symmetry_space_group_name_H-M   'P 1'
_cell_length_a   5.40999100
_cell_length_b   5.65171800
_cell_length_c   15.19317400
_cell_angle_alpha   90.00000000
_cell_angle_beta   90.00000000
_cell_angle_gamma   90.00000000
_symmetry_Int_Tables_number   1
_chemical_formula_structural   CsMn2V2ClO7
_chemical_formula_sum   'Cs2 Mn4 V4 Cl2 O14'
_cell_volume   464.54259140
_cell_formula_units_Z   2
loop_
 _symmetry_equiv_pos_site_id
 _symmetry_equiv_pos_as_xyz
  1  'x, y, z'
loop_
 _atom_site_type_symbol
 _atom_site_label
 _atom_site_symmetry_multiplicity
 _atom_site_fract_x
 _atom_site_fract_y
 _atom_site_fract_z
 _atom_site_occupancy
  Cs  Cs0  1  0.89557700  0.96379500  0.25000000  1
  Cs  Cs1  1  0.89557700  0.03620500  0.75000000  1
  Mn  Mn0  1  0.92689400  0.50000000  0.50000000  1
  Mn  Mn1  1  0.30753300  0.00000000  0.00000000  1
  Mn  Mn2  1  0.92689400  0.50000000  0.00000000  1
  Mn  Mn3  1  0.30753300  0.00000000  0.50000000  1
  V  V0  1  0.39997000  0.48293900  0.36374400  1
  V  V1  1  0.39997000  0.51706100  0.63625600  1
  V  V2  1  0.39997000  0.51706100  0.86374400  1
  V  V3  1  0.39997000  0.48293900  0.13625600  1
  Cl  Cl0  1  0.78781400  0.00000000  0.50000000  1
  Cl  Cl1  1  0.78781400  0.00000000  0.00000000  1
  O  O0  1  0.35118500  0.42554200  0.75000000  1
  O  O1  1  0.35118500  0.57445800  0.25000000  1
  O  O2  1  0.70818200  0.50186300  0.61258100  1
  O  O3  1  0.70818200  0.49813700  0.38741900  1
  O  O4  1  0.70818200  0.49813700  0.11258100  1
  O  O5  1  0.70818200  0.50186300  0.88741900  1
  O  O6  1  0.29724100  0.79991700  0.88038600  1
  O  O7  1  0.29724100  0.20008300  0.38038600  1
  O  O8  1  0.29724100  0.79991700  0.61961400  1
  O  O9  1  0.29724100  0.20008300  0.11961400  1
  O  O10  1  0.23039400  0.32477700  0.93127000  1
  O  O11  1  0.23039400  0.32477700  0.56873000  1
  O  O12  1  0.23039400  0.67522300  0.06873000  1
  O  O13  1  0.23039400  0.67522300  0.43127000  1
loop_
_geom_bond_atom_site_label_1
_geom_bond_atom_site_label_2
_geom_bond_distance
_geom_bond_site_symmetry_2
Cs0 O9 3.229485 1_665
Cs0 O7 3.229485 1_665
Cs0 O1 3.304130 1_655
Cs0 O3 3.508994 1_555
Cs0 O4 3.508994 1_555
Cs0 O1 3.676385 1_555
Cs0 O13 3.677747 1_655
Cs0 O12 3.677747 1_655
Cs0 O3 3.808797 1_565
Cs0 O4 3.808797 1_565
Cs1 O8 3.229485 1_645
Cs1 O6 3.229485 1_645
Cs1 O0 3.304130 1_655
Cs1 O5 3.508994 1_555
Cs1 O2 3.508994 1_555
Cs1 O0 3.676385 1_555
Cs1 O10 3.677747 1_655
Cs1 O11 3.677747 1_655
Cs1 O5 3.808797 1_545
Cs1 O2 3.808797 1_545
Mn0 O3 2.079862 1_555
Mn0 O2 2.079862 1_555
Mn0 O11 2.183361 1_655
Mn0 O13 2.183361 1_655
Mn1 O9 2.141139 1_555
Mn1 O6 2.141139 1_544
Mn1 O12 2.152627 1_545
Mn1 O10 2.152627 1_554
Mn2 O4 2.079862 1_555
Mn2 O5 2.079862 1_554
Mn2 O10 2.183361 1_654
Mn2 O12 2.183361 1_655
Mn3 O8 2.141139 1_545
Mn3 O7 2.141139 1_555
Mn3 O11 2.152627 1_555
Mn3 O13 2.152627 1_545
Cl0 Mn3 2.598316 1_555
Cl0 Mn3 2.811675 1_655
Cl0 Mn0 2.924315 1_555
Cl0 Mn0 2.924315 1_545
Cl0 Cs0 3.848219 1_545
Cl0 Cs1 3.848219 1_555
Cl1 Mn1 2.598316 1_555
Cl1 Mn1 2.811675 1_655
Cl1 Mn2 2.924315 1_545
Cl1 Mn2 2.924315 1_555
Cl1 Cs1 3.848219 1_554
Cl1 Cs0 3.848219 1_545
O0 V2 1.823084 1_555
O0 V1 1.823084 1_555
O1 V3 1.823084 1_555
O1 V0 1.823084 1_555
O2 V1 1.707941 1_555
O3 V0 1.707941 1_555
O4 V3 1.707941 1_555
O5 V2 1.707941 1_555
O6 V2 1.711256 1_555
O7 V0 1.711256 1_555
O8 V1 1.711256 1_555
O9 V3 1.711256 1_555
O10 V2 1.753615 1_555
O11 V1 1.753615 1_555
O12 V3 1.753615 1_555
O13 V0 1.753615 1_555
