# generated using pymatgen
data_KIn9Ni2
_symmetry_space_group_name_H-M   'P 1'
_cell_length_a   8.73063400
_cell_length_b   17.68345863
_cell_length_c   17.68345863
_cell_angle_alpha   119.99999486
_cell_angle_beta   90.00000000
_cell_angle_gamma   90.00000000
_symmetry_Int_Tables_number   1
_chemical_formula_structural   KIn9Ni2
_chemical_formula_sum   'K8 In72 Ni16'
_cell_volume   2364.34505293
_cell_formula_units_Z   8
loop_
 _symmetry_equiv_pos_site_id
 _symmetry_equiv_pos_as_xyz
  1  'x, y, z'
loop_
 _atom_site_type_symbol
 _atom_site_label
 _atom_site_symmetry_multiplicity
 _atom_site_fract_x
 _atom_site_fract_y
 _atom_site_fract_z
 _atom_site_occupancy
  K  K0_0  1  0.00000000  0.00000000  0.00000000  1
  K  K0_1  1  0.00000000  0.00000000  0.50000000  1
  K  K0_2  1  0.00000000  0.50000000  0.00000000  1
  K  K0_3  1  0.00000000  0.50000000  0.50000000  1
  K  K0_4  1  0.50000000  0.00000000  0.00000000  1
  K  K0_5  1  0.50000000  0.00000000  0.50000000  1
  K  K0_6  1  0.50000000  0.50000000  0.00000000  1
  K  K0_7  1  0.50000000  0.50000000  0.50000000  1
  In  In0_0  1  0.25000000  0.20813000  0.10406500  1
  In  In0_1  1  0.25000000  0.20813000  0.60406500  1
  In  In0_2  1  0.25000000  0.70813000  0.10406500  1
  In  In0_3  1  0.25000000  0.70813000  0.60406500  1
  In  In0_4  1  0.75000000  0.20813000  0.10406500  1
  In  In0_5  1  0.75000000  0.20813000  0.60406500  1
  In  In0_6  1  0.75000000  0.70813000  0.10406500  1
  In  In0_7  1  0.75000000  0.70813000  0.60406500  1
  In  In1_0  1  0.25000000  0.10406500  0.20813000  1
  In  In1_1  1  0.25000000  0.10406500  0.70813000  1
  In  In1_2  1  0.25000000  0.60406500  0.20813000  1
  In  In1_3  1  0.25000000  0.60406500  0.70813000  1
  In  In1_4  1  0.75000000  0.10406500  0.20813000  1
  In  In1_5  1  0.75000000  0.10406500  0.70813000  1
  In  In1_6  1  0.75000000  0.60406500  0.20813000  1
  In  In1_7  1  0.75000000  0.60406500  0.70813000  1
  In  In2_0  1  0.00000000  0.25000000  0.25000000  1
  In  In2_1  1  0.00000000  0.25000000  0.75000000  1
  In  In2_2  1  0.00000000  0.75000000  0.25000000  1
  In  In2_3  1  0.00000000  0.75000000  0.75000000  1
  In  In2_4  1  0.50000000  0.25000000  0.25000000  1
  In  In2_5  1  0.50000000  0.25000000  0.75000000  1
  In  In2_6  1  0.50000000  0.75000000  0.25000000  1
  In  In2_7  1  0.50000000  0.75000000  0.75000000  1
  In  In3_0  1  0.25000000  0.29187000  0.39593500  1
  In  In3_1  1  0.25000000  0.29187000  0.89593500  1
  In  In3_2  1  0.25000000  0.79187000  0.39593500  1
  In  In3_3  1  0.25000000  0.79187000  0.89593500  1
  In  In3_4  1  0.75000000  0.29187000  0.39593500  1
  In  In3_5  1  0.75000000  0.29187000  0.89593500  1
  In  In3_6  1  0.75000000  0.79187000  0.39593500  1
  In  In3_7  1  0.75000000  0.79187000  0.89593500  1
  In  In4_0  1  0.25000000  0.39593500  0.10406500  1
  In  In4_1  1  0.25000000  0.39593500  0.60406500  1
  In  In4_2  1  0.25000000  0.89593500  0.10406500  1
  In  In4_3  1  0.25000000  0.89593500  0.60406500  1
  In  In4_4  1  0.75000000  0.39593500  0.10406500  1
  In  In4_5  1  0.75000000  0.39593500  0.60406500  1
  In  In4_6  1  0.75000000  0.89593500  0.10406500  1
  In  In4_7  1  0.75000000  0.89593500  0.60406500  1
  In  In5_0  1  0.25000000  0.10406500  0.39593500  1
  In  In5_1  1  0.25000000  0.10406500  0.89593500  1
  In  In5_2  1  0.25000000  0.60406500  0.39593500  1
  In  In5_3  1  0.25000000  0.60406500  0.89593500  1
  In  In5_4  1  0.75000000  0.10406500  0.39593500  1
  In  In5_5  1  0.75000000  0.10406500  0.89593500  1
  In  In5_6  1  0.75000000  0.60406500  0.39593500  1
  In  In5_7  1  0.75000000  0.60406500  0.89593500  1
  In  In6_0  1  0.25000000  0.39593500  0.29187000  1
  In  In6_1  1  0.25000000  0.39593500  0.79187000  1
  In  In6_2  1  0.25000000  0.89593500  0.29187000  1
  In  In6_3  1  0.25000000  0.89593500  0.79187000  1
  In  In6_4  1  0.75000000  0.39593500  0.29187000  1
  In  In6_5  1  0.75000000  0.39593500  0.79187000  1
  In  In6_6  1  0.75000000  0.89593500  0.29187000  1
  In  In6_7  1  0.75000000  0.89593500  0.79187000  1
  In  In7_0  1  0.00000000  0.00000000  0.25000000  1
  In  In7_1  1  0.00000000  0.00000000  0.75000000  1
  In  In7_2  1  0.00000000  0.50000000  0.25000000  1
  In  In7_3  1  0.00000000  0.50000000  0.75000000  1
  In  In7_4  1  0.50000000  0.00000000  0.25000000  1
  In  In7_5  1  0.50000000  0.00000000  0.75000000  1
  In  In7_6  1  0.50000000  0.50000000  0.25000000  1
  In  In7_7  1  0.50000000  0.50000000  0.75000000  1
  In  In8_0  1  0.00000000  0.25000000  0.00000000  1
  In  In8_1  1  0.00000000  0.25000000  0.50000000  1
  In  In8_2  1  0.00000000  0.75000000  0.00000000  1
  In  In8_3  1  0.00000000  0.75000000  0.50000000  1
  In  In8_4  1  0.50000000  0.25000000  0.00000000  1
  In  In8_5  1  0.50000000  0.25000000  0.50000000  1
  In  In8_6  1  0.50000000  0.75000000  0.00000000  1
  In  In8_7  1  0.50000000  0.75000000  0.50000000  1
  Ni  Ni0_0  1  0.00000000  0.16666650  0.33333350  1
  Ni  Ni0_1  1  0.00000000  0.16666650  0.83333350  1
  Ni  Ni0_2  1  0.00000000  0.66666650  0.33333350  1
  Ni  Ni0_3  1  0.00000000  0.66666650  0.83333350  1
  Ni  Ni0_4  1  0.50000000  0.16666650  0.33333350  1
  Ni  Ni0_5  1  0.50000000  0.16666650  0.83333350  1
  Ni  Ni0_6  1  0.50000000  0.66666650  0.33333350  1
  Ni  Ni0_7  1  0.50000000  0.66666650  0.83333350  1
  Ni  Ni1_0  1  0.00000000  0.33333350  0.16666650  1
  Ni  Ni1_1  1  0.00000000  0.33333350  0.66666650  1
  Ni  Ni1_2  1  0.00000000  0.83333350  0.16666650  1
  Ni  Ni1_3  1  0.00000000  0.83333350  0.66666650  1
  Ni  Ni1_4  1  0.50000000  0.33333350  0.16666650  1
  Ni  Ni1_5  1  0.50000000  0.33333350  0.66666650  1
  Ni  Ni1_6  1  0.50000000  0.83333350  0.16666650  1
  Ni  Ni1_7  1  0.50000000  0.83333350  0.66666650  1
loop_
_geom_bond_atom_site_label_1
_geom_bond_atom_site_label_2
_geom_bond_distance
_geom_bond_site_symmetry_2
K0_0 K0_4 4.365317 1_555
K0_0 K0_4 4.365317 1_455
K0_1 K0_5 4.365317 1_455
K0_1 K0_5 4.365317 1_555
K0_2 K0_6 4.365317 1_455
K0_2 K0_6 4.365317 1_555
K0_3 K0_7 4.365317 1_555
K0_3 K0_7 4.365317 1_455
In0_0 Ni1_4 2.905245 1_555
In0_0 Ni1_0 2.905245 1_555
In0_0 In8_4 3.171933 1_555
In0_0 In8_0 3.171933 1_555
In0_0 In2_0 3.171933 1_555
In0_0 In2_4 3.171933 1_555
In0_0 In1_0 3.187370 1_555
In0_0 In5_1 3.187371 1_554
In0_0 In4_0 3.321042 1_555
In0_0 In6_0 3.321042 1_555
In0_0 K0_0 3.863072 1_555
In0_0 K0_4 3.863072 1_555
In0_1 Ni1_1 2.905245 1_555
In0_1 Ni1_5 2.905245 1_555
In0_1 In8_1 3.171933 1_555
In0_1 In8_5 3.171933 1_555
In0_1 In2_5 3.171933 1_555
In0_1 In2_1 3.171933 1_555
In0_1 In1_1 3.187370 1_555
In0_1 In5_0 3.187371 1_555
In0_1 In4_1 3.321042 1_555
In0_1 In6_1 3.321042 1_555
In0_1 K0_1 3.863072 1_555
In0_1 K0_5 3.863072 1_555
In0_2 Ni1_2 2.905245 1_555
In0_2 Ni1_6 2.905245 1_555
In0_2 In8_2 3.171933 1_555
In0_2 In8_6 3.171933 1_555
In0_2 In2_2 3.171933 1_555
In0_2 In2_6 3.171933 1_555
In0_2 In1_2 3.187370 1_555
In0_2 In5_3 3.187371 1_554
In0_2 In4_2 3.321042 1_555
In0_2 In6_2 3.321042 1_555
In0_2 K0_6 3.863072 1_555
In0_2 K0_2 3.863072 1_555
In0_3 Ni1_3 2.905245 1_555
In0_3 Ni1_7 2.905245 1_555
In0_3 In8_3 3.171933 1_555
In0_3 In8_7 3.171933 1_555
In0_3 In2_7 3.171933 1_555
In0_3 In2_3 3.171933 1_555
In0_3 In1_3 3.187370 1_555
In0_3 In5_2 3.187371 1_555
In0_3 In4_3 3.321042 1_555
In0_3 In6_3 3.321042 1_555
In0_3 K0_3 3.863072 1_555
In0_3 K0_7 3.863072 1_555
In0_4 Ni1_4 2.905245 1_555
In0_4 Ni1_0 2.905245 1_655
In0_4 In8_4 3.171933 1_555
In0_4 In8_0 3.171933 1_655
In0_4 In2_4 3.171933 1_555
In0_4 In2_0 3.171933 1_655
In0_4 In1_4 3.187370 1_555
In0_4 In5_5 3.187371 1_554
In0_4 In4_4 3.321042 1_555
In0_4 In6_4 3.321042 1_555
In0_4 K0_4 3.863072 1_555
In0_4 K0_0 3.863072 1_655
In0_5 Ni1_5 2.905245 1_555
In0_5 Ni1_1 2.905245 1_655
In0_5 In8_5 3.171933 1_555
In0_5 In8_1 3.171933 1_655
In0_5 In2_5 3.171933 1_555
In0_5 In2_1 3.171933 1_655
In0_5 In1_5 3.187370 1_555
In0_5 In5_4 3.187371 1_555
In0_5 In4_5 3.321042 1_555
In0_5 In6_5 3.321042 1_555
In0_5 K0_5 3.863072 1_555
In0_5 K0_1 3.863072 1_655
In0_6 Ni1_6 2.905245 1_555
In0_6 Ni1_2 2.905245 1_655
In0_6 In8_6 3.171933 1_555
In0_6 In8_2 3.171933 1_655
In0_6 In2_6 3.171933 1_555
In0_6 In2_2 3.171933 1_655
In0_6 In1_6 3.187370 1_555
In0_6 In5_7 3.187371 1_554
In0_6 In4_6 3.321042 1_555
In0_6 In6_6 3.321042 1_555
In0_6 K0_6 3.863072 1_555
In0_6 K0_2 3.863072 1_655
In0_7 Ni1_7 2.905245 1_555
In0_7 Ni1_3 2.905245 1_655
In0_7 In8_7 3.171933 1_555
In0_7 In8_3 3.171933 1_655
In0_7 In2_7 3.171933 1_555
In0_7 In2_3 3.171933 1_655
In0_7 In1_7 3.187370 1_555
In0_7 In5_6 3.187371 1_555
In0_7 In4_7 3.321042 1_555
In0_7 In6_7 3.321042 1_555
In0_7 K0_7 3.863072 1_555
In0_7 K0_3 3.863072 1_655
In1_0 Ni0_4 2.905245 1_555
In1_0 Ni0_0 2.905245 1_555
In1_0 In7_0 3.171933 1_555
In1_0 In7_4 3.171933 1_555
In1_0 In2_0 3.171933 1_555
In1_0 In2_4 3.171933 1_555
In1_0 In4_2 3.187371 1_545
In1_0 In5_0 3.321042 1_555
In1_0 In3_0 3.321042 1_555
In1_0 K0_0 3.863072 1_555
In1_0 K0_4 3.863072 1_555
In1_1 Ni0_1 2.905245 1_555
In1_1 Ni0_5 2.905245 1_555
In1_1 In7_1 3.171933 1_555
In1_1 In7_5 3.171933 1_555
In1_1 In2_1 3.171933 1_555
In1_1 In2_5 3.171933 1_555
In1_1 In4_3 3.187371 1_545
In1_1 In5_1 3.321042 1_555
In1_1 In3_1 3.321042 1_555
In1_1 K0_1 3.863072 1_555
In1_1 K0_5 3.863072 1_555
In1_2 Ni0_2 2.905245 1_555
In1_2 Ni0_6 2.905245 1_555
In1_2 In7_2 3.171933 1_555
In1_2 In7_6 3.171933 1_555
In1_2 In2_2 3.171933 1_555
In1_2 In2_6 3.171933 1_555
In1_2 In4_0 3.187371 1_555
In1_2 In5_2 3.321042 1_555
In1_2 In3_2 3.321042 1_555
In1_2 K0_2 3.863072 1_555
In1_2 K0_6 3.863072 1_555
In1_3 Ni0_3 2.905245 1_555
In1_3 Ni0_7 2.905245 1_555
In1_3 In7_3 3.171933 1_555
In1_3 In7_7 3.171933 1_555
In1_3 In2_7 3.171933 1_555
In1_3 In2_3 3.171933 1_555
In1_3 In4_1 3.187371 1_555
In1_3 In5_3 3.321042 1_555
In1_3 In3_3 3.321042 1_555
In1_3 K0_3 3.863072 1_555
In1_3 K0_7 3.863072 1_555
In1_4 Ni0_4 2.905245 1_555
In1_4 Ni0_0 2.905245 1_655
In1_4 In7_4 3.171933 1_555
In1_4 In7_0 3.171933 1_655
In1_4 In2_4 3.171933 1_555
In1_4 In2_0 3.171933 1_655
In1_4 In4_6 3.187371 1_545
In1_4 In5_4 3.321042 1_555
In1_4 In3_4 3.321042 1_555
In1_4 K0_4 3.863072 1_555
In1_4 K0_0 3.863072 1_655
In1_5 Ni0_5 2.905245 1_555
In1_5 Ni0_1 2.905245 1_655
In1_5 In7_5 3.171933 1_555
In1_5 In7_1 3.171933 1_655
In1_5 In2_5 3.171933 1_555
In1_5 In2_1 3.171933 1_655
In1_5 In4_7 3.187371 1_545
In1_5 In5_5 3.321042 1_555
In1_5 In3_5 3.321042 1_555
In1_5 K0_5 3.863072 1_555
In1_5 K0_1 3.863072 1_655
In1_6 Ni0_6 2.905245 1_555
In1_6 Ni0_2 2.905245 1_655
In1_6 In7_6 3.171933 1_555
In1_6 In7_2 3.171933 1_655
In1_6 In2_6 3.171933 1_555
In1_6 In2_2 3.171933 1_655
In1_6 In4_4 3.187371 1_555
In1_6 In5_6 3.321042 1_555
In1_6 In3_6 3.321042 1_555
In1_6 K0_6 3.863072 1_555
In1_6 K0_2 3.863072 1_655
In1_7 Ni0_7 2.905245 1_555
In1_7 Ni0_3 2.905245 1_655
In1_7 In7_7 3.171933 1_555
In1_7 In7_3 3.171933 1_655
In1_7 In2_7 3.171933 1_555
In1_7 In2_3 3.171933 1_655
In1_7 In4_5 3.187371 1_555
In1_7 In5_7 3.321042 1_555
In1_7 In3_7 3.321042 1_555
In1_7 K0_7 3.863072 1_555
In1_7 K0_3 3.863072 1_655
In2_0 Ni0_0 2.552392 1_555
In2_0 Ni1_0 2.552392 1_555
In2_0 In3_0 3.171933 1_555
In2_0 In3_4 3.171933 1_455
In2_0 In6_0 3.171933 1_555
In2_0 In6_4 3.171933 1_455
In2_1 Ni1_1 2.552392 1_555
In2_1 Ni0_1 2.552392 1_555
In2_1 In6_1 3.171933 1_555
In2_1 In6_5 3.171933 1_455
In2_1 In3_1 3.171933 1_555
In2_1 In3_5 3.171933 1_455
In2_2 Ni1_2 2.552392 1_555
In2_2 Ni0_2 2.552392 1_555
In2_2 In3_2 3.171933 1_555
In2_2 In3_6 3.171933 1_455
In2_2 In6_2 3.171933 1_555
In2_2 In6_6 3.171933 1_455
In2_3 Ni0_3 2.552392 1_555
In2_3 Ni1_3 2.552392 1_555
In2_3 In6_3 3.171933 1_555
In2_3 In3_3 3.171933 1_555
In2_3 In3_7 3.171933 1_455
In2_3 In6_7 3.171933 1_455
In2_4 Ni0_4 2.552392 1_555
In2_4 Ni1_4 2.552392 1_555
In2_4 In3_4 3.171933 1_555
In2_4 In3_0 3.171933 1_555
In2_4 In6_4 3.171933 1_555
In2_4 In6_0 3.171933 1_555
In2_5 Ni1_5 2.552392 1_555
In2_5 Ni0_5 2.552392 1_555
In2_5 In6_5 3.171933 1_555
In2_5 In6_1 3.171933 1_555
In2_5 In3_5 3.171933 1_555
In2_5 In3_1 3.171933 1_555
In2_6 Ni1_6 2.552392 1_555
In2_6 Ni0_6 2.552392 1_555
In2_6 In3_6 3.171933 1_555
In2_6 In6_6 3.171933 1_555
In2_6 In3_2 3.171933 1_555
In2_6 In6_2 3.171933 1_555
In2_7 Ni0_7 2.552392 1_555
In2_7 Ni1_7 2.552392 1_555
In2_7 In3_7 3.171933 1_555
In2_7 In6_7 3.171933 1_555
In2_7 In6_3 3.171933 1_555
In2_7 In3_3 3.171933 1_555
In3_0 Ni0_0 2.905245 1_555
In3_0 Ni0_4 2.905245 1_555
In3_0 In8_1 3.171933 1_555
In3_0 In8_5 3.171933 1_555
In3_0 In6_0 3.187370 1_555
In3_0 In4_1 3.187371 1_555
In3_0 In5_0 3.321042 1_555
In3_0 K0_3 3.863072 1_555
In3_0 K0_7 3.863072 1_555
In3_1 Ni0_5 2.905245 1_555
In3_1 Ni0_1 2.905245 1_555
In3_1 In8_0 3.171933 1_556
In3_1 In8_4 3.171933 1_556
In3_1 In6_1 3.187370 1_555
In3_1 In4_0 3.187371 1_556
In3_1 In5_1 3.321042 1_555
In3_1 K0_6 3.863072 1_556
In3_1 K0_2 3.863072 1_556
In3_2 Ni0_2 2.905245 1_555
In3_2 Ni0_6 2.905245 1_555
In3_2 In8_3 3.171933 1_555
In3_2 In8_7 3.171933 1_555
In3_2 In6_2 3.187370 1_555
In3_2 In4_3 3.187371 1_555
In3_2 In5_2 3.321042 1_555
In3_2 K0_5 3.863072 1_565
In3_2 K0_1 3.863072 1_565
In3_3 Ni0_3 2.905245 1_555
In3_3 Ni0_7 2.905245 1_555
In3_3 In8_2 3.171933 1_556
In3_3 In8_6 3.171933 1_556
In3_3 In6_3 3.187370 1_555
In3_3 In4_2 3.187371 1_556
In3_3 In5_3 3.321042 1_555
In3_3 K0_0 3.863072 1_566
In3_3 K0_4 3.863072 1_566
In3_4 Ni0_4 2.905245 1_555
In3_4 Ni0_0 2.905245 1_655
In3_4 In8_5 3.171933 1_555
In3_4 In8_1 3.171933 1_655
In3_4 In6_4 3.187370 1_555
In3_4 In4_5 3.187371 1_555
In3_4 In5_4 3.321042 1_555
In3_4 K0_7 3.863072 1_555
In3_4 K0_3 3.863072 1_655
In3_5 Ni0_5 2.905245 1_555
In3_5 Ni0_1 2.905245 1_655
In3_5 In8_4 3.171933 1_556
In3_5 In8_0 3.171933 1_656
In3_5 In6_5 3.187370 1_555
In3_5 In4_4 3.187371 1_556
In3_5 In5_5 3.321042 1_555
In3_5 K0_6 3.863072 1_556
In3_5 K0_2 3.863072 1_656
In3_6 Ni0_6 2.905245 1_555
In3_6 Ni0_2 2.905245 1_655
In3_6 In8_7 3.171933 1_555
In3_6 In8_3 3.171933 1_655
In3_6 In6_6 3.187370 1_555
In3_6 In4_7 3.187371 1_555
In3_6 In5_6 3.321042 1_555
In3_6 K0_5 3.863072 1_565
In3_6 K0_1 3.863072 1_665
In3_7 Ni0_7 2.905245 1_555
In3_7 Ni0_3 2.905245 1_655
In3_7 In8_6 3.171933 1_556
In3_7 In8_2 3.171933 1_656
In3_7 In6_7 3.187370 1_555
In3_7 In4_6 3.187371 1_556
In3_7 In5_7 3.321042 1_555
In3_7 K0_4 3.863072 1_566
In3_7 K0_0 3.863072 1_666
In4_0 Ni1_0 2.905240 1_555
In4_0 Ni1_4 2.905240 1_555
In4_0 In8_4 3.171933 1_555
In4_0 In8_0 3.171933 1_555
In4_0 In7_2 3.171933 1_555
In4_0 In7_6 3.171933 1_555
In4_0 In6_0 3.321042 1_555
In4_0 K0_2 3.863072 1_555
In4_0 K0_6 3.863072 1_555
In4_1 Ni1_1 2.905240 1_555
In4_1 Ni1_5 2.905240 1_555
In4_1 In7_3 3.171933 1_555
In4_1 In7_7 3.171933 1_555
In4_1 In8_1 3.171933 1_555
In4_1 In8_5 3.171933 1_555
In4_1 In6_1 3.321042 1_555
In4_1 K0_7 3.863072 1_555
In4_1 K0_3 3.863072 1_555
In4_2 Ni1_2 2.905240 1_555
In4_2 Ni1_6 2.905240 1_555
In4_2 In7_0 3.171933 1_565
In4_2 In7_4 3.171933 1_565
In4_2 In8_2 3.171933 1_555
In4_2 In8_6 3.171933 1_555
In4_2 In6_2 3.321042 1_555
In4_2 K0_4 3.863072 1_565
In4_2 K0_0 3.863072 1_565
In4_3 Ni1_7 2.905240 1_555
In4_3 Ni1_3 2.905240 1_555
In4_3 In7_1 3.171933 1_565
In4_3 In7_5 3.171933 1_565
In4_3 In8_3 3.171933 1_555
In4_3 In8_7 3.171933 1_555
In4_3 In6_3 3.321042 1_555
In4_3 K0_1 3.863072 1_565
In4_3 K0_5 3.863072 1_565
In4_4 Ni1_4 2.905240 1_555
In4_4 Ni1_0 2.905240 1_655
In4_4 In8_4 3.171933 1_555
In4_4 In7_6 3.171933 1_555
In4_4 In8_0 3.171933 1_655
In4_4 In7_2 3.171933 1_655
In4_4 In6_4 3.321042 1_555
In4_4 K0_6 3.863072 1_555
In4_4 K0_2 3.863072 1_655
In4_5 Ni1_5 2.905240 1_555
In4_5 Ni1_1 2.905240 1_655
In4_5 In7_7 3.171933 1_555
In4_5 In8_5 3.171933 1_555
In4_5 In7_3 3.171933 1_655
In4_5 In8_1 3.171933 1_655
In4_5 In6_5 3.321042 1_555
In4_5 K0_7 3.863072 1_555
In4_5 K0_3 3.863072 1_655
In4_6 Ni1_6 2.905240 1_555
In4_6 Ni1_2 2.905240 1_655
In4_6 In7_4 3.171933 1_565
In4_6 In8_6 3.171933 1_555
In4_6 In7_0 3.171933 1_665
In4_6 In8_2 3.171933 1_655
In4_6 In6_6 3.321042 1_555
In4_6 K0_4 3.863072 1_565
In4_6 K0_0 3.863072 1_665
In4_7 Ni1_7 2.905240 1_555
In4_7 Ni1_3 2.905240 1_655
In4_7 In7_5 3.171933 1_565
In4_7 In8_7 3.171933 1_555
In4_7 In7_1 3.171933 1_665
In4_7 In8_3 3.171933 1_655
In4_7 In6_7 3.321042 1_555
In4_7 K0_5 3.863072 1_565
In4_7 K0_1 3.863072 1_665
In5_0 Ni0_0 2.905240 1_555
In5_0 Ni0_4 2.905240 1_555
In5_0 In7_0 3.171933 1_555
In5_0 In7_4 3.171933 1_555
In5_0 In8_5 3.171933 1_555
In5_0 In8_1 3.171933 1_555
In5_0 In6_2 3.187371 1_545
In5_0 K0_5 3.863072 1_555
In5_0 K0_1 3.863072 1_555
In5_1 Ni0_1 2.905240 1_555
In5_1 Ni0_5 2.905240 1_555
In5_1 In7_1 3.171933 1_555
In5_1 In7_5 3.171933 1_555
In5_1 In8_0 3.171933 1_556
In5_1 In8_4 3.171933 1_556
In5_1 In6_3 3.187371 1_545
In5_1 K0_0 3.863072 1_556
In5_1 K0_4 3.863072 1_556
In5_2 Ni0_2 2.905240 1_555
In5_2 Ni0_6 2.905240 1_555
In5_2 In7_2 3.171933 1_555
In5_2 In7_6 3.171933 1_555
In5_2 In8_7 3.171933 1_555
In5_2 In8_3 3.171933 1_555
In5_2 In6_0 3.187371 1_555
In5_2 K0_3 3.863072 1_555
In5_2 K0_7 3.863072 1_555
In5_3 Ni0_3 2.905240 1_555
In5_3 Ni0_7 2.905240 1_555
In5_3 In8_6 3.171933 1_556
In5_3 In8_2 3.171933 1_556
In5_3 In7_3 3.171933 1_555
In5_3 In7_7 3.171933 1_555
In5_3 In6_1 3.187371 1_555
In5_3 K0_6 3.863072 1_556
In5_3 K0_2 3.863072 1_556
In5_4 Ni0_4 2.905240 1_555
In5_4 Ni0_0 2.905240 1_655
In5_4 In7_4 3.171933 1_555
In5_4 In8_5 3.171933 1_555
In5_4 In7_0 3.171933 1_655
In5_4 In8_1 3.171933 1_655
In5_4 In6_6 3.187371 1_545
In5_4 K0_5 3.863072 1_555
In5_4 K0_1 3.863072 1_655
In5_5 Ni0_5 2.905240 1_555
In5_5 Ni0_1 2.905240 1_655
In5_5 In7_5 3.171933 1_555
In5_5 In8_4 3.171933 1_556
In5_5 In7_1 3.171933 1_655
In5_5 In8_0 3.171933 1_656
In5_5 In6_7 3.187371 1_545
In5_5 K0_4 3.863072 1_556
In5_5 K0_0 3.863072 1_656
In5_6 Ni0_6 2.905240 1_555
In5_6 Ni0_2 2.905240 1_655
In5_6 In7_6 3.171933 1_555
In5_6 In8_7 3.171933 1_555
In5_6 In7_2 3.171933 1_655
In5_6 In8_3 3.171933 1_655
In5_6 In6_4 3.187371 1_555
In5_6 K0_7 3.863072 1_555
In5_6 K0_3 3.863072 1_655
In5_7 Ni0_7 2.905240 1_555
In5_7 Ni0_3 2.905240 1_655
In5_7 In8_6 3.171933 1_556
In5_7 In8_2 3.171933 1_656
In5_7 In7_7 3.171933 1_555
In5_7 In7_3 3.171933 1_655
In5_7 In6_5 3.187371 1_555
In5_7 K0_6 3.863072 1_556
In5_7 K0_2 3.863072 1_656
In6_0 Ni1_4 2.905245 1_555
In6_0 Ni1_0 2.905245 1_555
In6_0 In7_6 3.171933 1_555
In6_0 In7_2 3.171933 1_555
In6_0 K0_3 3.863072 1_555
In6_0 K0_7 3.863072 1_555
In6_1 Ni1_5 2.905245 1_555
In6_1 Ni1_1 2.905245 1_555
In6_1 In7_7 3.171933 1_555
In6_1 In7_3 3.171933 1_555
In6_1 K0_6 3.863072 1_556
In6_1 K0_2 3.863072 1_556
In6_2 Ni1_2 2.905245 1_555
In6_2 Ni1_6 2.905245 1_555
In6_2 In7_4 3.171933 1_565
In6_2 In7_0 3.171933 1_565
In6_2 K0_5 3.863072 1_565
In6_2 K0_1 3.863072 1_565
In6_3 Ni1_3 2.905245 1_555
In6_3 Ni1_7 2.905245 1_555
In6_3 In7_1 3.171933 1_565
In6_3 In7_5 3.171933 1_565
In6_3 K0_4 3.863072 1_566
In6_3 K0_0 3.863072 1_566
In6_4 Ni1_4 2.905245 1_555
In6_4 Ni1_0 2.905245 1_655
In6_4 In7_6 3.171933 1_555
In6_4 In7_2 3.171933 1_655
In6_4 K0_7 3.863072 1_555
In6_4 K0_3 3.863072 1_655
In6_5 Ni1_5 2.905245 1_555
In6_5 Ni1_1 2.905245 1_655
In6_5 In7_7 3.171933 1_555
In6_5 In7_3 3.171933 1_655
In6_5 K0_6 3.863072 1_556
In6_5 K0_2 3.863072 1_656
In6_6 Ni1_6 2.905245 1_555
In6_6 Ni1_2 2.905245 1_655
In6_6 In7_4 3.171933 1_565
In6_6 In7_0 3.171933 1_665
In6_6 K0_5 3.863072 1_565
In6_6 K0_1 3.863072 1_665
In6_7 Ni1_7 2.905245 1_555
In6_7 Ni1_3 2.905245 1_655
In6_7 In7_5 3.171933 1_565
In6_7 In7_1 3.171933 1_665
In6_7 K0_4 3.863072 1_566
In6_7 K0_0 3.863072 1_666
In7_0 Ni0_0 2.552385 1_555
In7_0 Ni1_2 2.552385 1_545
In7_1 Ni0_1 2.552385 1_555
In7_1 Ni1_3 2.552385 1_545
In7_2 Ni0_2 2.552385 1_555
In7_2 Ni1_0 2.552385 1_555
In7_3 Ni1_1 2.552385 1_555
In7_3 Ni0_3 2.552385 1_555
In7_4 Ni0_4 2.552385 1_555
In7_4 Ni1_6 2.552385 1_545
In7_5 Ni1_7 2.552385 1_545
In7_5 Ni0_5 2.552385 1_555
In7_6 Ni0_6 2.552385 1_555
In7_6 Ni1_4 2.552385 1_555
In7_7 Ni1_5 2.552385 1_555
In7_7 Ni0_7 2.552385 1_555
In8_0 Ni1_0 2.552385 1_555
In8_0 Ni0_1 2.552385 1_554
In8_1 Ni1_1 2.552385 1_555
In8_1 Ni0_0 2.552385 1_555
In8_2 Ni1_2 2.552385 1_555
In8_2 Ni0_3 2.552385 1_554
In8_3 Ni0_2 2.552385 1_555
In8_3 Ni1_3 2.552385 1_555
In8_4 Ni1_4 2.552385 1_555
In8_4 Ni0_5 2.552385 1_554
In8_5 Ni1_5 2.552385 1_555
In8_5 Ni0_4 2.552385 1_555
In8_6 Ni1_6 2.552385 1_555
In8_6 Ni0_7 2.552385 1_554
In8_7 Ni0_6 2.552385 1_555
In8_7 Ni1_7 2.552385 1_555
