# generated using pymatgen
data_Ba5Eu8Zn4O21
_symmetry_space_group_name_H-M   'P 1'
_cell_length_a   10.43586709
_cell_length_b   10.43586709
_cell_length_c   10.43586709
_cell_angle_alpha   94.48736925
_cell_angle_beta   94.48736925
_cell_angle_gamma   147.51385511
_symmetry_Int_Tables_number   1
_chemical_formula_structural   Ba5Eu8Zn4O21
_chemical_formula_sum   'Ba5 Eu8 Zn4 O21'
_cell_volume   586.06574521
_cell_formula_units_Z   1
loop_
 _symmetry_equiv_pos_site_id
 _symmetry_equiv_pos_as_xyz
  1  'x, y, z'
loop_
 _atom_site_type_symbol
 _atom_site_label
 _atom_site_symmetry_multiplicity
 _atom_site_fract_x
 _atom_site_fract_y
 _atom_site_fract_z
 _atom_site_occupancy
  Ba  Ba0  1  0.46811300  0.86175200  0.32986500  1
  Ba  Ba1  1  0.86175200  0.53188700  0.39363900  1
  Ba  Ba2  1  0.00000000  0.00000000  0.00000000  1
  Ba  Ba3  1  0.13824800  0.46811300  0.60636100  1
  Ba  Ba4  1  0.53188700  0.13824800  0.67013500  1
  Eu  Eu0  1  0.41022000  0.35828700  0.76850700  1
  Eu  Eu1  1  0.25037700  0.16571100  0.41608800  1
  Eu  Eu2  1  0.64171300  0.41022000  0.05193300  1
  Eu  Eu3  1  0.58978000  0.64171300  0.23149300  1
  Eu  Eu4  1  0.35828700  0.58978000  0.94806700  1
  Eu  Eu5  1  0.16571100  0.74962300  0.91533400  1
  Eu  Eu6  1  0.74962300  0.83428900  0.58391200  1
  Eu  Eu7  1  0.83428900  0.25037700  0.08466600  1
  Zn  Zn0  1  0.25271000  0.95786600  0.21057600  1
  Zn  Zn1  1  0.04213400  0.25271000  0.29484400  1
  Zn  Zn2  1  0.95786600  0.74729000  0.70515600  1
  Zn  Zn3  1  0.74729000  0.04213400  0.78942400  1
  O  O0  1  0.61035500  0.49566500  0.59290700  1
  O  O1  1  0.57516200  0.71039200  0.77599100  1
  O  O2  1  0.79917100  0.57516200  0.86477000  1
  O  O3  1  0.28960800  0.06559900  0.86477000  1
  O  O4  1  0.20082900  0.42483800  0.13523000  1
  O  O5  1  0.50433500  0.09724200  0.11469000  1
  O  O6  1  0.42483800  0.28960800  0.22400900  1
  O  O7  1  0.03121500  0.62523200  0.65644700  1
  O  O8  1  0.62523200  0.96878500  0.59401600  1
  O  O9  1  0.01744800  0.61035500  0.11469000  1
  O  O10  1  0.37476800  0.03121500  0.40598400  1
  O  O11  1  0.71039200  0.93440100  0.13523000  1
  O  O12  1  0.09724200  0.98255200  0.59290700  1
  O  O13  1  0.93440100  0.79917100  0.22400900  1
  O  O14  1  0.38964500  0.50433500  0.40709300  1
  O  O15  1  0.49566500  0.90275800  0.88531000  1
  O  O16  1  0.96878500  0.37476800  0.34355300  1
  O  O17  1  0.06559900  0.20082900  0.77599100  1
  O  O18  1  0.90275800  0.01744800  0.40709300  1
  O  O19  1  0.50000000  0.50000000  0.00000000  1
  O  O20  1  0.98255200  0.38964500  0.88531000  1
loop_
_geom_bond_atom_site_label_1
_geom_bond_atom_site_label_2
_geom_bond_distance
_geom_bond_site_symmetry_2
Ba0 O8 2.693766 1_555
Ba0 O10 2.741377 1_565
Ba0 O16 2.924883 1_455
Ba0 O16 2.924883 1_565
Ba0 O4 2.983948 1_555
Ba0 O11 2.983948 1_555
Ba0 O14 3.263963 1_555
Ba0 O18 3.263963 1_565
Ba0 O9 3.264044 1_555
Ba0 O5 3.264044 1_565
Ba1 O16 2.693775 1_555
Ba1 O7 2.741374 1_655
Ba1 O10 2.924880 1_665
Ba1 O10 2.924886 1_555
Ba1 O13 2.983948 1_555
Ba1 O6 2.983948 1_555
Ba1 O9 3.263963 1_655
Ba1 O5 3.263963 1_555
Ba1 O12 3.264044 1_655
Ba1 O0 3.264044 1_555
Ba2 O19 2.919047 1_445
Ba2 O19 2.919047 1_555
Ba2 O11 2.987086 1_445
Ba2 O4 2.987086 1_555
Ba2 O6 2.987086 1_555
Ba2 O2 2.987086 1_444
Ba2 O3 2.987086 1_554
Ba2 O17 2.987086 1_554
Ba2 O13 2.987086 1_445
Ba2 O1 2.987086 1_444
Ba3 O7 2.693775 1_555
Ba3 O16 2.741374 1_455
Ba3 O8 2.924880 1_445
Ba3 O8 2.924886 1_555
Ba3 O1 2.983948 1_555
Ba3 O17 2.983948 1_555
Ba3 O20 3.263963 1_455
Ba3 O15 3.263963 1_555
Ba3 O18 3.264044 1_455
Ba3 O14 3.264044 1_555
Ba4 O10 2.693766 1_555
Ba4 O8 2.741377 1_545
Ba4 O7 2.924883 1_545
Ba4 O7 2.924883 1_655
Ba4 O2 2.983948 1_555
Ba4 O3 2.983948 1_555
Ba4 O0 3.263963 1_555
Ba4 O12 3.263963 1_545
Ba4 O20 3.264044 1_555
Ba4 O15 3.264044 1_545
Eu0 O19 2.377048 1_556
Eu0 O12 2.394625 1_545
Eu0 O0 2.394625 1_555
Eu0 O17 2.394709 1_555
Eu0 O1 2.394709 1_555
Eu0 O3 2.472887 1_555
Eu0 O2 2.472887 1_555
Eu1 O12 2.339333 1_545
Eu1 O0 2.339333 1_555
Eu1 O13 2.451501 1_445
Eu1 O6 2.451501 1_555
Eu1 O14 2.453101 1_555
Eu1 O18 2.453101 1_455
Eu1 O10 2.595843 1_555
Eu2 O19 2.377048 1_555
Eu2 O9 2.394625 1_655
Eu2 O5 2.394625 1_555
Eu2 O3 2.394709 1_554
Eu2 O2 2.394709 1_554
Eu2 O6 2.472887 1_555
Eu2 O13 2.472887 1_555
Eu3 O19 2.377048 1_555
Eu3 O14 2.394625 1_555
Eu3 O18 2.394625 1_565
Eu3 O6 2.394709 1_555
Eu3 O13 2.394709 1_555
Eu3 O4 2.472887 1_555
Eu3 O11 2.472887 1_555
Eu4 O19 2.377048 1_556
Eu4 O15 2.394625 1_555
Eu4 O20 2.394625 1_455
Eu4 O4 2.394709 1_556
Eu4 O11 2.394709 1_556
Eu4 O1 2.472887 1_555
Eu4 O17 2.472887 1_555
Eu5 O20 2.339333 1_455
Eu5 O15 2.339333 1_555
Eu5 O3 2.451501 1_565
Eu5 O2 2.451501 1_455
Eu5 O5 2.453101 1_566
Eu5 O9 2.453101 1_556
Eu5 O7 2.595843 1_555
Eu6 O18 2.339333 1_565
Eu6 O14 2.339333 1_555
Eu6 O17 2.451501 1_665
Eu6 O1 2.451501 1_555
Eu6 O0 2.453101 1_555
Eu6 O12 2.453101 1_655
Eu6 O8 2.595843 1_555
Eu7 O9 2.339333 1_655
Eu7 O5 2.339333 1_555
Eu7 O4 2.451501 1_655
Eu7 O11 2.451501 1_545
Eu7 O20 2.453101 1_554
Eu7 O15 2.453101 1_544
Eu7 O16 2.595843 1_555
O0 Zn2 2.051282 1_555
O1 Zn3 2.150611 1_565
O2 Zn2 2.150611 1_555
O3 Zn2 2.150611 1_445
O4 Zn1 2.150611 1_555
O5 Zn0 2.051282 1_545
O6 Zn0 2.150611 1_545
O7 Zn2 2.017751 1_455
O8 Zn3 2.017761 1_565
O9 Zn0 2.051282 1_555
O10 Zn0 2.017761 1_545
O11 Zn1 2.150611 1_665
O12 Zn2 2.051282 1_455
O13 Zn0 2.150611 1_655
O14 Zn1 2.051282 1_555
O15 Zn3 2.051282 1_565
O16 Zn1 2.017751 1_655
O17 Zn3 2.150611 1_455
O18 Zn1 2.051282 1_655
O20 Zn3 2.051282 1_555
