# generated using pymatgen
data_SrCo2(AsO4)2
_symmetry_space_group_name_H-M   'P 1'
_cell_length_a   5.56895700
_cell_length_b   7.28065085
_cell_length_c   9.70860746
_cell_angle_alpha   109.43399061
_cell_angle_beta   99.15694169
_cell_angle_gamma   96.20029605
_symmetry_Int_Tables_number   1
_chemical_formula_structural   SrCo2(AsO4)2
_chemical_formula_sum   'Sr2 Co4 As4 O16'
_cell_volume   360.96512606
_cell_formula_units_Z   2
loop_
 _symmetry_equiv_pos_site_id
 _symmetry_equiv_pos_as_xyz
  1  'x, y, z'
loop_
 _atom_site_type_symbol
 _atom_site_label
 _atom_site_symmetry_multiplicity
 _atom_site_fract_x
 _atom_site_fract_y
 _atom_site_fract_z
 _atom_site_occupancy
  Sr  Sr0  1  0.67103300  0.77976900  0.52461400  1
  Sr  Sr1  1  0.32896700  0.22023100  0.47538600  1
  Co  Co0  1  0.52848900  0.64519900  0.87886100  1
  Co  Co1  1  0.13533400  0.87556400  0.06327300  1
  Co  Co2  1  0.47151100  0.35480100  0.12113900  1
  Co  Co3  1  0.86466600  0.12443600  0.93672700  1
  As  As0  1  0.92892500  0.41665200  0.74952000  1
  As  As1  1  0.07107500  0.58334800  0.25048000  1
  As  As2  1  0.22889800  0.87041200  0.71602200  1
  As  As3  1  0.77110200  0.12958800  0.28397800  1
  O  O0  1  0.61290300  0.26277900  0.97234300  1
  O  O1  1  0.77207400  0.53730800  0.27479400  1
  O  O2  1  0.72980200  0.43317700  0.60257100  1
  O  O3  1  0.53811400  0.83538200  0.77948700  1
  O  O4  1  0.12191100  0.81836200  0.24153300  1
  O  O5  1  0.38709700  0.73722100  0.02765700  1
  O  O6  1  0.46188600  0.16461800  0.22051300  1
  O  O7  1  0.27019800  0.56682300  0.39742900  1
  O  O8  1  0.13728800  0.40605000  0.09469900  1
  O  O9  1  0.85351300  0.00092600  0.08393200  1
  O  O10  1  0.14648700  0.99907400  0.91606800  1
  O  O11  1  0.87808900  0.18163800  0.75846700  1
  O  O12  1  0.31768300  0.02216700  0.62440500  1
  O  O13  1  0.68231700  0.97783300  0.37559500  1
  O  O14  1  0.86271200  0.59395000  0.90530100  1
  O  O15  1  0.22792600  0.46269200  0.72520600  1
loop_
_geom_bond_atom_site_label_1
_geom_bond_atom_site_label_2
_geom_bond_distance
_geom_bond_site_symmetry_2
Co0 O5 1.728496 1_556
Co0 O14 1.931616 1_555
Co0 O3 1.933995 1_555
Co0 O15 2.049021 1_555
Co1 O5 1.824123 1_555
Co1 O9 1.903745 1_465
Co1 O4 1.920490 1_555
Co1 O10 1.930373 1_554
Co1 O14 2.314092 1_454
Co1 O6 2.493664 1_565
Co2 O0 1.728496 1_554
Co2 O8 1.931616 1_555
Co2 O6 1.933995 1_555
Co2 O1 2.049021 1_555
Co3 O0 1.824123 1_555
Co3 O10 1.903745 1_645
Co3 O11 1.920490 1_555
Co3 O9 1.930373 1_556
Co3 O8 2.314092 1_656
Co3 O3 2.493664 1_545
As0 O2 1.708522 1_555
As0 O15 1.731447 1_655
As0 O11 1.737094 1_555
As0 O14 1.752378 1_555
As1 O7 1.708522 1_555
As1 O1 1.731447 1_455
As1 O4 1.737094 1_555
As1 O8 1.752378 1_555
As2 O12 1.712402 1_565
As2 O3 1.808798 1_555
As2 O10 2.006502 1_555
As2 Sr0 3.231736 1_455
As3 O13 1.712402 1_545
As3 O6 1.808798 1_555
As3 O9 2.006502 1_555
As3 Sr1 3.231736 1_655
O1 Sr0 2.667442 1_555
O2 Sr1 2.452038 1_555
O2 Sr0 2.901382 1_555
O3 Sr0 2.610716 1_555
O4 Sr1 3.010404 1_565
O6 Sr1 2.610716 1_555
O7 Sr0 2.452038 1_555
O7 Sr1 2.901382 1_555
O11 Sr0 3.010404 1_545
O12 Sr1 2.360977 1_555
O12 Sr0 2.853869 1_545
O13 Sr0 2.360977 1_555
O13 Sr1 2.853869 1_565
O15 Sr1 2.667442 1_555
