# generated using pymatgen
data_TaH20C6N3Cl4
_symmetry_space_group_name_H-M   'P 1'
_cell_length_a   18.47084800
_cell_length_b   8.88406300
_cell_length_c   11.60909774
_cell_angle_alpha   59.45828805
_cell_angle_beta   90.00000000
_cell_angle_gamma   90.00000000
_symmetry_Int_Tables_number   1
_chemical_formula_structural   TaH20C6N3Cl4
_chemical_formula_sum   'Ta4 H80 C24 N12 Cl16'
_cell_volume   1640.70660340
_cell_formula_units_Z   4
loop_
 _symmetry_equiv_pos_site_id
 _symmetry_equiv_pos_as_xyz
  1  'x, y, z'
loop_
 _atom_site_type_symbol
 _atom_site_label
 _atom_site_symmetry_multiplicity
 _atom_site_fract_x
 _atom_site_fract_y
 _atom_site_fract_z
 _atom_site_occupancy
  Ta  Ta0  1  0.62245200  0.95363000  0.28180100  1
  Ta  Ta1  1  0.12245200  0.04637000  0.21819900  1
  Ta  Ta2  1  0.37754800  0.04637000  0.71819900  1
  Ta  Ta3  1  0.87754800  0.95363000  0.78180100  1
  H  H0  1  0.32484000  0.75724900  0.57539800  1
  H  H1  1  0.57942800  0.21431200  0.44418900  1
  H  H2  1  0.80913600  0.95220800  0.09506200  1
  H  H3  1  0.81696900  0.82600600  0.33573900  1
  H  H4  1  0.51663300  0.23093800  0.81830100  1
  H  H5  1  0.90944100  0.49380600  0.36298700  1
  H  H6  1  0.50267100  0.56834800  0.10605600  1
  H  H7  1  0.92899000  0.18305800  0.44466300  1
  H  H8  1  0.67516000  0.24275100  0.42460200  1
  H  H9  1  0.00267100  0.43165200  0.39394400  1
  H  H10  1  0.71569000  0.69550700  0.00189500  1
  H  H11  1  0.40944100  0.50619400  0.13701300  1
  H  H12  1  0.40305500  0.10511600  0.38529800  1
  H  H13  1  0.11919300  0.70173000  0.21764800  1
  H  H14  1  0.16017200  0.22488700  0.92431100  1
  H  H15  1  0.65527000  0.59217500  0.31634300  1
  H  H16  1  0.99732900  0.56834800  0.60605600  1
  H  H17  1  0.84473000  0.59217500  0.81634300  1
  H  H18  1  0.74915600  0.61373400  0.79255200  1
  H  H19  1  0.09055900  0.50619400  0.63701300  1
  H  H20  1  0.82642200  0.31764200  0.30076700  1
  H  H21  1  0.23143500  0.07466700  0.58754900  1
  H  H22  1  0.86666200  0.15253100  0.27619900  1
  H  H23  1  0.21486100  0.49360300  0.04242800  1
  H  H24  1  0.17516000  0.75724900  0.07539800  1
  H  H25  1  0.09694500  0.10511600  0.88529800  1
  H  H26  1  0.96849900  0.54129200  0.22535600  1
  H  H27  1  0.63333800  0.15253100  0.77619900  1
  H  H28  1  0.25084400  0.38626600  0.20744800  1
  H  H29  1  0.17357800  0.68235800  0.69923300  1
  H  H30  1  0.92057200  0.21431200  0.94418900  1
  H  H31  1  0.61547300  0.37870700  0.65889000  1
  H  H32  1  0.07101000  0.81694200  0.55533700  1
  H  H33  1  0.78431000  0.69550700  0.50189500  1
  H  H34  1  0.03150100  0.45870800  0.77464400  1
  H  H35  1  0.38452700  0.62129300  0.34111000  1
  H  H36  1  0.21569000  0.30449300  0.49810500  1
  H  H37  1  0.36666200  0.84746900  0.22380100  1
  H  H38  1  0.73143500  0.92533300  0.91245100  1
  H  H39  1  0.53150100  0.54129200  0.72535600  1
  H  H40  1  0.59055900  0.49380600  0.86298700  1
  H  H41  1  0.34473000  0.40782500  0.68365700  1
  H  H42  1  0.59694500  0.89488400  0.61470200  1
  H  H43  1  0.46849900  0.45870800  0.27464400  1
  H  H44  1  0.61919300  0.29827000  0.28235200  1
  H  H45  1  0.88452700  0.37870700  0.15889000  1
  H  H46  1  0.24915600  0.38626600  0.70744800  1
  H  H47  1  0.32642200  0.68235800  0.19923300  1
  H  H48  1  0.66017200  0.77511300  0.57568900  1
  H  H49  1  0.33982800  0.22488700  0.42431100  1
  H  H50  1  0.18303100  0.17399400  0.66426100  1
  H  H51  1  0.31696900  0.17399400  0.16426100  1
  H  H52  1  0.69086400  0.95220800  0.59506200  1
  H  H53  1  0.83982800  0.77511300  0.07568900  1
  H  H54  1  0.42057200  0.78568800  0.55581100  1
  H  H55  1  0.42899000  0.81694200  0.05533700  1
  H  H56  1  0.01663300  0.76906200  0.68169900  1
  H  H57  1  0.13333800  0.84746900  0.72380100  1
  H  H58  1  0.19086400  0.04779200  0.90493800  1
  H  H59  1  0.15527000  0.40782500  0.18365700  1
  H  H60  1  0.90305500  0.89488400  0.11470200  1
  H  H61  1  0.28513900  0.49360300  0.54242800  1
  H  H62  1  0.30913600  0.04779200  0.40493800  1
  H  H63  1  0.28431000  0.30449300  0.99810500  1
  H  H64  1  0.26856500  0.07466700  0.08754900  1
  H  H65  1  0.07942800  0.78568800  0.05581100  1
  H  H66  1  0.71486100  0.50639700  0.45757200  1
  H  H67  1  0.11547300  0.62129300  0.84111000  1
  H  H68  1  0.78513900  0.50639700  0.95757200  1
  H  H69  1  0.48336700  0.76906200  0.18169900  1
  H  H70  1  0.67357800  0.31764200  0.80076700  1
  H  H71  1  0.82484000  0.24275100  0.92460200  1
  H  H72  1  0.76856500  0.92533300  0.41245100  1
  H  H73  1  0.49732900  0.43165200  0.89394400  1
  H  H74  1  0.75084400  0.61373400  0.29255200  1
  H  H75  1  0.38080700  0.70173000  0.71764800  1
  H  H76  1  0.68303100  0.82600600  0.83573900  1
  H  H77  1  0.98336700  0.23093800  0.31830100  1
  H  H78  1  0.88080700  0.29827000  0.78235200  1
  H  H79  1  0.57101000  0.18305800  0.94466300  1
  C  C0  1  0.77138800  0.80918600  0.40289300  1
  C  C1  1  0.72861200  0.80918600  0.90289300  1
  C  C2  1  0.62654400  0.20578400  0.38925300  1
  C  C3  1  0.45601600  0.55152100  0.16950300  1
  C  C4  1  0.29435000  0.38485600  0.64552100  1
  C  C5  1  0.37345600  0.79421600  0.61074700  1
  C  C6  1  0.04398400  0.55152100  0.66950300  1
  C  C7  1  0.12573200  0.71809400  0.73591900  1
  C  C8  1  0.20565000  0.38485600  0.14552100  1
  C  C9  1  0.12654400  0.79421600  0.11074700  1
  C  C10  1  0.87345600  0.20578400  0.88925300  1
  C  C11  1  0.22861200  0.19081400  0.59710700  1
  C  C12  1  0.14645100  0.09468900  0.94225900  1
  C  C13  1  0.95601600  0.44847900  0.33049700  1
  C  C14  1  0.37426800  0.71809400  0.23591900  1
  C  C15  1  0.87426800  0.28190600  0.26408100  1
  C  C16  1  0.70565000  0.61514400  0.35447900  1
  C  C17  1  0.27138800  0.19081400  0.09710700  1
  C  C18  1  0.35354900  0.09468900  0.44225900  1
  C  C19  1  0.85354900  0.90531100  0.05774100  1
  C  C20  1  0.79435000  0.61514400  0.85447900  1
  C  C21  1  0.64645100  0.90531100  0.55774100  1
  C  C22  1  0.54398400  0.44847900  0.83049700  1
  C  C23  1  0.62573200  0.28190600  0.76408100  1
  N  N0  1  0.93806300  0.27619300  0.34473800  1
  N  N1  1  0.36513300  0.97229600  0.58496400  1
  N  N2  1  0.79643500  0.78111200  0.85157500  1
  N  N3  1  0.63486700  0.02770400  0.41503600  1
  N  N4  1  0.43806300  0.72380700  0.15526200  1
  N  N5  1  0.70356500  0.78111200  0.35157500  1
  N  N6  1  0.86513300  0.02770400  0.91503600  1
  N  N7  1  0.56193700  0.27619300  0.84473800  1
  N  N8  1  0.20356500  0.21888800  0.14842500  1
  N  N9  1  0.06193700  0.72380700  0.65526200  1
  N  N10  1  0.29643500  0.21888800  0.64842500  1
  N  N11  1  0.13486700  0.97229600  0.08496400  1
  Cl  Cl0  1  0.89824700  0.88442900  0.59629800  1
  Cl  Cl1  1  0.96196600  0.71894400  0.91338200  1
  Cl  Cl2  1  0.98651300  0.14286100  0.68491300  1
  Cl  Cl3  1  0.10175300  0.11557100  0.40370200  1
  Cl  Cl4  1  0.60175300  0.88442900  0.09629800  1
  Cl  Cl5  1  0.53803400  0.71894400  0.41338200  1
  Cl  Cl6  1  0.80522200  0.19595900  0.61841700  1
  Cl  Cl7  1  0.69477800  0.19595900  0.11841700  1
  Cl  Cl8  1  0.46196600  0.28105600  0.58661800  1
  Cl  Cl9  1  0.19477800  0.80404100  0.38158300  1
  Cl  Cl10  1  0.39824700  0.11557100  0.90370200  1
  Cl  Cl11  1  0.03803400  0.28105600  0.08661800  1
  Cl  Cl12  1  0.48651300  0.85713900  0.81508700  1
  Cl  Cl13  1  0.30522200  0.80404100  0.88158300  1
  Cl  Cl14  1  0.51348700  0.14286100  0.18491300  1
  Cl  Cl15  1  0.01348700  0.85713900  0.31508700  1
loop_
_geom_bond_atom_site_label_1
_geom_bond_atom_site_label_2
_geom_bond_distance
_geom_bond_site_symmetry_2
H4 N7 1.039944 1_555
H7 N0 1.040617 1_555
H32 N9 1.040617 1_555
H55 N4 1.040617 1_555
H56 N9 1.039944 1_555
H69 N4 1.039944 1_555
H77 N0 1.039944 1_555
H79 N7 1.040617 1_555
C0 H72 1.093675 1_555
C0 H33 1.103712 1_555
C0 H3 1.104777 1_555
C0 N5 1.462027 1_555
C1 H38 1.093675 1_555
C1 H10 1.103712 1_556
C1 H76 1.104777 1_555
C1 N2 1.462027 1_555
C2 H44 1.094233 1_555
C2 H1 1.104064 1_555
C2 H8 1.104355 1_555
C2 N3 1.461132 1_555
C3 H6 1.093430 1_555
C3 H11 1.094929 1_555
C3 H43 1.095454 1_555
C3 N4 1.490923 1_555
C4 H41 1.093346 1_555
C4 H61 1.104332 1_555
C4 H46 1.105891 1_555
C4 N10 1.458136 1_555
C5 H75 1.094233 1_555
C5 H54 1.104064 1_555
C5 H0 1.104355 1_555
C5 N1 1.461132 1_555
C6 H16 1.093430 1_455
C6 H19 1.094929 1_555
C6 H34 1.095454 1_555
C6 N9 1.490923 1_555
C7 H57 1.093736 1_555
C7 H67 1.095173 1_555
C7 H29 1.095729 1_555
C7 N9 1.489812 1_555
C8 H59 1.093346 1_555
C8 H23 1.104332 1_555
C8 H28 1.105891 1_555
C8 N8 1.458136 1_555
C9 H13 1.094233 1_555
C9 H65 1.104064 1_555
C9 H24 1.104355 1_555
C9 N11 1.461132 1_555
C10 H78 1.094233 1_555
C10 H30 1.104064 1_555
C10 H71 1.104355 1_555
C10 N6 1.461132 1_555
C11 H21 1.093675 1_555
C11 H36 1.103712 1_555
C11 H50 1.104777 1_555
C11 N10 1.462027 1_555
C12 H14 1.095731 1_555
C12 H58 1.103508 1_555
C12 H25 1.104426 1_555
C12 N11 1.463517 1_546
C13 H9 1.093430 1_655
C13 H5 1.094929 1_555
C13 H26 1.095454 1_555
C13 N0 1.490923 1_555
C14 H37 1.093736 1_555
C14 H35 1.095173 1_555
C14 H47 1.095729 1_555
C14 N4 1.489812 1_555
C15 H22 1.093736 1_555
C15 H45 1.095173 1_555
C15 H20 1.095729 1_555
C15 N0 1.489812 1_555
C16 H15 1.093346 1_555
C16 H66 1.104332 1_555
C16 H74 1.105891 1_555
C16 N5 1.458136 1_555
C17 H64 1.093675 1_555
C17 H63 1.103712 1_554
C17 H51 1.104777 1_555
C17 N8 1.462027 1_555
C18 H49 1.095731 1_555
C18 H62 1.103508 1_555
C18 H12 1.104426 1_555
C18 N1 1.463517 1_545
C19 H53 1.095731 1_555
C19 H2 1.103508 1_555
C19 H60 1.104426 1_555
C19 N6 1.463517 1_564
C20 H17 1.093346 1_555
C20 H68 1.104332 1_555
C20 H18 1.105891 1_555
C20 N2 1.458136 1_555
C21 H48 1.095731 1_555
C21 H52 1.103508 1_555
C21 H42 1.104426 1_555
C21 N3 1.463517 1_565
C22 H73 1.093430 1_555
C22 H40 1.094929 1_555
C22 H39 1.095454 1_555
C22 N7 1.490923 1_555
C23 H27 1.093736 1_555
C23 H31 1.095173 1_555
C23 H70 1.095729 1_555
C23 N7 1.489812 1_555
N1 Ta2 1.978016 1_565
N2 Ta3 1.997023 1_555
N3 Ta0 1.978016 1_545
N5 Ta0 1.997023 1_555
N6 Ta3 1.978016 1_545
N8 Ta1 1.997023 1_555
N10 Ta2 1.997023 1_555
N11 Ta1 1.978016 1_565
Cl0 Ta3 2.550955 1_555
Cl1 Ta3 2.423820 1_555
Cl2 Ta3 2.494080 1_545
Cl3 Ta1 2.550955 1_555
Cl4 Ta0 2.550955 1_555
Cl5 Ta0 2.423820 1_555
Cl6 Ta3 2.422196 1_545
Cl7 Ta0 2.422196 1_545
Cl8 Ta2 2.423820 1_555
Cl9 Ta1 2.422196 1_565
Cl10 Ta2 2.550955 1_555
Cl11 Ta1 2.423820 1_555
Cl12 Ta2 2.494080 1_565
Cl13 Ta2 2.422196 1_565
Cl14 Ta0 2.494080 1_545
Cl15 Ta1 2.494080 1_565
