# generated using pymatgen
data_Cs2Np(SO5)2
_symmetry_space_group_name_H-M   'P 1'
_cell_length_a   9.15760000
_cell_length_b   11.04592300
_cell_length_c   13.22795920
_cell_angle_alpha   58.64865851
_cell_angle_beta   90.00000000
_cell_angle_gamma   90.00000000
_symmetry_Int_Tables_number   1
_chemical_formula_structural   Cs2Np(SO5)2
_chemical_formula_sum   'Cs8 Np4 S8 O40'
_cell_volume   1142.69628989
_cell_formula_units_Z   4
loop_
 _symmetry_equiv_pos_site_id
 _symmetry_equiv_pos_as_xyz
  1  'x, y, z'
loop_
 _atom_site_type_symbol
 _atom_site_label
 _atom_site_symmetry_multiplicity
 _atom_site_fract_x
 _atom_site_fract_y
 _atom_site_fract_z
 _atom_site_occupancy
  Cs  Cs0  1  0.92332100  0.73043600  0.80125200  1
  Cs  Cs1  1  0.42332100  0.26956400  0.69874800  1
  Cs  Cs2  1  0.59995000  0.21174800  0.06750100  1
  Cs  Cs3  1  0.09995000  0.78825200  0.43249900  1
  Cs  Cs4  1  0.07667900  0.26956400  0.19874800  1
  Cs  Cs5  1  0.40005000  0.78825200  0.93249900  1
  Cs  Cs6  1  0.90005000  0.21174800  0.56750100  1
  Cs  Cs7  1  0.57667900  0.73043600  0.30125200  1
  Np  Np0  1  0.49160100  0.71748500  0.64254100  1
  Np  Np1  1  0.00839900  0.71748500  0.14254100  1
  Np  Np2  1  0.99160100  0.28251500  0.85745900  1
  Np  Np3  1  0.50839900  0.28251500  0.35745900  1
  S  S0  1  0.74105300  0.97722100  0.43795100  1
  S  S1  1  0.18985200  0.48550500  0.36000100  1
  S  S2  1  0.25894700  0.02277900  0.56204900  1
  S  S3  1  0.75894700  0.97722100  0.93795100  1
  S  S4  1  0.81014800  0.51449500  0.63999900  1
  S  S5  1  0.68985200  0.51449500  0.13999900  1
  S  S6  1  0.31014800  0.48550500  0.86000100  1
  S  S7  1  0.24105300  0.02277900  0.06204900  1
  O  O0  1  0.35418500  0.08802500  0.97108300  1
  O  O1  1  0.85418500  0.91197500  0.52891700  1
  O  O2  1  0.20980100  0.40237900  0.82765000  1
  O  O3  1  0.20943200  0.98280700  0.68077000  1
  O  O4  1  0.96218400  0.52755100  0.67659600  1
  O  O5  1  0.29984000  0.43501400  0.98564800  1
  O  O6  1  0.77426200  0.35959000  0.71755400  1
  O  O7  1  0.43046400  0.20787200  0.27717100  1
  O  O8  1  0.11156200  0.12379000  0.02946300  1
  O  O9  1  0.41438800  0.64306200  0.56102400  1
  O  O10  1  0.91438800  0.35693800  0.93897600  1
  O  O11  1  0.79984000  0.56498600  0.51435200  1
  O  O12  1  0.46218400  0.47244900  0.82340400  1
  O  O13  1  0.70016000  0.56498600  0.01435200  1
  O  O14  1  0.03781600  0.47244900  0.32340400  1
  O  O15  1  0.20016000  0.43501400  0.48564800  1
  O  O16  1  0.79019900  0.59762100  0.17235000  1
  O  O17  1  0.58561200  0.35693800  0.43897600  1
  O  O18  1  0.72573800  0.35959000  0.21755400  1
  O  O19  1  0.81679200  0.10690100  0.93776600  1
  O  O20  1  0.14581500  0.08802500  0.47108300  1
  O  O21  1  0.31679200  0.89309900  0.56223400  1
  O  O22  1  0.22573800  0.64041000  0.28244600  1
  O  O23  1  0.27426200  0.64041000  0.78244600  1
  O  O24  1  0.29056800  0.98280700  0.18077000  1
  O  O25  1  0.93046400  0.79212800  0.22282900  1
  O  O26  1  0.79056800  0.01719300  0.31923000  1
  O  O27  1  0.38843800  0.12379000  0.52946300  1
  O  O28  1  0.18320800  0.89309900  0.06223400  1
  O  O29  1  0.56953600  0.79212800  0.72282900  1
  O  O30  1  0.70943200  0.01719300  0.81923000  1
  O  O31  1  0.70980100  0.59762100  0.67235000  1
  O  O32  1  0.06953600  0.20787200  0.77717100  1
  O  O33  1  0.88843800  0.87621000  0.97053700  1
  O  O34  1  0.29019900  0.40237900  0.32765000  1
  O  O35  1  0.64581500  0.91197500  0.02891700  1
  O  O36  1  0.61156200  0.87621000  0.47053700  1
  O  O37  1  0.53781600  0.52755100  0.17659600  1
  O  O38  1  0.08561200  0.64306200  0.06102400  1
  O  O39  1  0.68320800  0.10690100  0.43776600  1
loop_
_geom_bond_atom_site_label_1
_geom_bond_atom_site_label_2
_geom_bond_distance
_geom_bond_site_symmetry_2
Cs0 O1 3.143656 1_555
Cs0 O13 3.178325 1_556
Cs0 O29 3.361751 1_555
Cs0 O33 3.385450 1_555
Cs0 O31 3.389098 1_555
Cs0 O38 3.390741 1_656
Cs0 O23 3.411236 1_655
Cs0 O4 3.422467 1_555
Cs0 O10 3.539134 1_555
Cs0 O3 3.543010 1_655
Cs1 O0 3.143656 1_555
Cs1 O15 3.178325 1_555
Cs1 O32 3.361751 1_555
Cs1 O27 3.385450 1_555
Cs1 O2 3.389098 1_555
Cs1 O17 3.390741 1_555
Cs1 O6 3.411236 1_555
Cs1 O12 3.422467 1_555
Cs1 O9 3.539134 1_555
Cs1 O30 3.543010 1_555
Cs2 O7 3.159047 1_555
Cs2 O19 3.209006 1_554
Cs2 O0 3.220774 1_554
Cs2 O12 3.261075 1_554
Cs2 O10 3.304052 1_554
Cs2 O18 3.362516 1_555
Cs2 O26 3.362612 1_555
Cs2 O5 3.468268 1_554
Cs2 O24 3.567121 1_545
Cs2 O35 3.627672 1_545
Cs2 O13 3.702201 1_555
Cs3 O25 3.159047 1_455
Cs3 O21 3.209006 1_555
Cs3 O1 3.220774 1_455
Cs3 O4 3.261075 1_455
Cs3 O9 3.304052 1_555
Cs3 O22 3.362516 1_555
Cs3 O24 3.362612 1_555
Cs3 O11 3.468268 1_455
Cs3 O26 3.567121 1_465
Cs3 O20 3.627672 1_565
Cs3 O15 3.702201 1_555
Cs4 O20 3.143656 1_555
Cs4 O5 3.178325 1_554
Cs4 O7 3.361751 1_555
Cs4 O8 3.385450 1_555
Cs4 O34 3.389098 1_555
Cs4 O10 3.390741 1_454
Cs4 O18 3.411236 1_455
Cs4 O14 3.422467 1_555
Cs4 O38 3.539134 1_555
Cs4 O26 3.543010 1_455
Cs5 O29 3.159047 1_555
Cs5 O28 3.209006 1_556
Cs5 O35 3.220774 1_556
Cs5 O37 3.261075 1_556
Cs5 O38 3.304052 1_556
Cs5 O23 3.362516 1_555
Cs5 O3 3.362612 1_555
Cs5 O13 3.468268 1_556
Cs5 O30 3.567121 1_565
Cs5 O0 3.627672 1_565
Cs5 O5 3.702201 1_555
Cs6 O32 3.159047 1_655
Cs6 O39 3.209006 1_555
Cs6 O20 3.220774 1_655
Cs6 O14 3.261075 1_655
Cs6 O17 3.304052 1_555
Cs6 O6 3.362516 1_555
Cs6 O30 3.362612 1_555
Cs6 O15 3.468268 1_655
Cs6 O3 3.567121 1_645
Cs6 O1 3.627672 1_545
Cs6 O11 3.702201 1_555
Cs7 O35 3.143656 1_555
Cs7 O11 3.178325 1_555
Cs7 O25 3.361751 1_555
Cs7 O36 3.385450 1_555
Cs7 O16 3.389098 1_555
Cs7 O9 3.390741 1_555
Cs7 O22 3.411236 1_555
Cs7 O37 3.422467 1_555
Cs7 O17 3.539134 1_555
Cs7 O24 3.543010 1_555
Np0 O29 1.796745 1_555
Np0 O9 1.805800 1_555
Np0 O36 2.303607 1_555
Np0 O21 2.304293 1_555
Np0 O31 2.314732 1_555
Np0 O12 2.526678 1_555
Np0 O23 2.543926 1_555
Np1 O25 1.796745 1_455
Np1 O38 1.805800 1_555
Np1 O33 2.303607 1_454
Np1 O28 2.304293 1_555
Np1 O16 2.314732 1_455
Np1 O14 2.526678 1_555
Np1 O22 2.543926 1_555
Np2 O32 1.796745 1_655
Np2 O10 1.805800 1_555
Np2 O8 2.303607 1_656
Np2 O19 2.304293 1_555
Np2 O2 2.314732 1_655
Np2 O4 2.526678 1_555
Np2 O6 2.543926 1_555
Np3 O7 1.796745 1_555
Np3 O17 1.805800 1_555
Np3 O27 2.303607 1_555
Np3 O39 2.304293 1_555
Np3 O34 2.314732 1_555
Np3 O37 2.526678 1_555
Np3 O18 2.543926 1_555
O0 S7 1.462280 1_556
O1 S0 1.462280 1_555
O2 S6 1.509818 1_555
O3 S2 1.464685 1_565
O4 S4 1.505410 1_555
O5 S6 1.455272 1_555
O6 S4 1.503869 1_555
O8 S7 1.528545 1_555
O11 S4 1.455272 1_555
O12 S6 1.505410 1_555
O13 S5 1.455272 1_555
O14 S1 1.505410 1_555
O15 S1 1.455272 1_555
O16 S5 1.509818 1_555
O18 S5 1.503869 1_555
O19 S3 1.526052 1_545
O20 S2 1.462280 1_555
O21 S2 1.526052 1_565
O22 S1 1.503869 1_555
O23 S6 1.503869 1_555
O24 S7 1.464685 1_565
O26 S0 1.464685 1_545
O27 S2 1.528545 1_555
O28 S7 1.526052 1_565
O30 S3 1.464685 1_545
O31 S4 1.509818 1_555
O33 S3 1.528545 1_555
O34 S1 1.509818 1_555
O35 S3 1.462280 1_554
O36 S0 1.528545 1_555
O37 S5 1.505410 1_555
O39 S0 1.526052 1_545
