# generated using pymatgen
data_Ce2CuGe6
_symmetry_space_group_name_H-M   'P 1'
_cell_length_a   10.99079831
_cell_length_b   10.99079831
_cell_length_c   4.17789400
_cell_angle_alpha   90.00000000
_cell_angle_beta   90.00000000
_cell_angle_gamma   158.43000794
_symmetry_Int_Tables_number   1
_chemical_formula_structural   Ce2CuGe6
_chemical_formula_sum   'Ce2 Cu1 Ge6'
_cell_volume   185.53922984
_cell_formula_units_Z   1
loop_
 _symmetry_equiv_pos_site_id
 _symmetry_equiv_pos_as_xyz
  1  'x, y, z'
loop_
 _atom_site_type_symbol
 _atom_site_label
 _atom_site_symmetry_multiplicity
 _atom_site_fract_x
 _atom_site_fract_y
 _atom_site_fract_z
 _atom_site_occupancy
  Ce  Ce0  1  0.33017500  0.66982500  0.00000000  1
  Ce  Ce1  1  0.99668800  0.00331200  0.00000000  1
  Cu  Cu0  1  0.77428300  0.22571700  0.50000000  1
  Ge  Ge0  1  0.71547100  0.28452900  0.00000000  1
  Ge  Ge1  1  0.21487600  0.78512400  0.50000000  1
  Ge  Ge2  1  0.09930700  0.90069300  0.50000000  1
  Ge  Ge3  1  0.60017600  0.39982400  0.00000000  1
  Ge  Ge4  1  0.45440300  0.54559700  0.50000000  1
  Ge  Ge5  1  0.88362000  0.11638000  0.50000000  1
loop_
_geom_bond_atom_site_label_1
_geom_bond_atom_site_label_2
_geom_bond_distance
_geom_bond_site_symmetry_2
Ce0 Ge5 3.150448 1_455
Ce0 Ge5 3.150448 1_454
Ce0 Ge5 3.150448 1_565
Ce0 Ge5 3.150448 1_564
Ce0 Cu0 3.170185 1_565
Ce0 Cu0 3.170185 1_564
Ce0 Cu0 3.170185 1_455
Ce0 Cu0 3.170185 1_454
Ce0 Ge0 3.219397 1_455
Ce0 Ge0 3.219397 1_565
Ce0 Ge1 3.249961 1_555
Ce0 Ge1 3.249961 1_554
Ce0 Ge4 3.399923 1_554
Ce0 Ge4 3.399923 1_555
Ce1 Ge3 3.037011 1_655
Ce1 Ge3 3.037011 1_545
Ce1 Ge2 3.045299 1_644
Ce1 Ge2 3.045299 1_645
Ce1 Ge4 3.070372 1_544
Ce1 Ge4 3.070372 1_545
Ce1 Ge4 3.070372 1_654
Ce1 Ge4 3.070372 1_655
Ce1 Ge5 3.213205 1_555
Ce1 Ge5 3.213205 1_554
Cu0 Ge5 2.360949 1_555
Cu0 Ge1 2.423910 1_655
Cu0 Ge1 2.423910 1_545
Cu0 Ge0 2.444681 1_555
Cu0 Ge0 2.444681 1_556
Ge0 Ge3 2.489602 1_555
Ge0 Ge1 2.931492 1_654
Ge0 Ge1 2.931492 1_655
Ge0 Ge1 2.931492 1_544
Ge0 Ge1 2.931492 1_545
Ge1 Ge2 2.495518 1_555
Ge2 Ge3 2.931524 1_565
Ge2 Ge3 2.931524 1_566
Ge2 Ge3 2.931524 1_455
Ge2 Ge3 2.931524 1_456
Ge4 Ge5 2.562403 1_565
Ge4 Ge5 2.562403 1_455
