# generated using pymatgen
data_Ti4P3
_symmetry_space_group_name_H-M   'P 1'
_cell_length_a   6.42198844
_cell_length_b   6.42198774
_cell_length_c   6.42198928
_cell_angle_alpha   109.47122216
_cell_angle_beta   109.47122003
_cell_angle_gamma   109.47121894
_symmetry_Int_Tables_number   1
_chemical_formula_structural   Ti4P3
_chemical_formula_sum   'Ti8 P6'
_cell_volume   203.88566007
_cell_formula_units_Z   2
loop_
 _symmetry_equiv_pos_site_id
 _symmetry_equiv_pos_as_xyz
  1  'x, y, z'
loop_
 _atom_site_type_symbol
 _atom_site_label
 _atom_site_symmetry_multiplicity
 _atom_site_fract_x
 _atom_site_fract_y
 _atom_site_fract_z
 _atom_site_occupancy
  Ti  Ti0  1  0.36307163  0.50000000  -0.00000000  1
  Ti  Ti1  1  0.86307163  0.50000000  -0.00000000  1
  Ti  Ti2  1  0.63692837  0.63692837  0.63692837  1
  Ti  Ti3  1  0.50000000  0.00000000  0.36307163  1
  Ti  Ti4  1  0.13692837  0.13692837  0.13692837  1
  Ti  Ti5  1  -0.00000000  0.86307163  0.50000000  1
  Ti  Ti6  1  0.50000000  0.00000000  0.86307163  1
  Ti  Ti7  1  -0.00000000  0.36307163  0.50000000  1
  P  P0  1  0.87500000  0.12500000  0.75000000  1
  P  P1  1  0.75000000  0.87500000  0.12500000  1
  P  P2  1  0.25000000  0.62500000  0.37500000  1
  P  P3  1  0.62500000  0.37500000  0.25000000  1
  P  P4  1  0.12500000  0.75000000  0.87500000  1
  P  P5  1  0.37500000  0.25000000  0.62500000  1
loop_
_geom_bond_atom_site_label_1
_geom_bond_atom_site_label_2
_geom_bond_distance
_geom_bond_site_symmetry_2
P0 Ti1 2.451631 1_556
P0 Ti5 2.451631 1_645
P0 Ti3 2.451631 1_555
P0 Ti4 2.451631 1_656
P0 Ti2 2.690159 1_545
P0 Ti0 2.690160 1_656
P0 Ti6 2.690160 1_555
P0 Ti7 2.690160 1_655
P1 Ti0 2.451631 1_555
P1 Ti4 2.451631 1_665
P1 Ti6 2.451631 1_564
P1 Ti5 2.451631 1_655
P1 Ti1 2.690159 1_555
P1 Ti7 2.690160 1_665
P1 Ti3 2.690160 1_565
P1 Ti2 2.690160 1_554
P2 Ti3 2.451631 1_565
P2 Ti7 2.451631 1_555
P2 Ti2 2.451631 1_555
P2 Ti1 2.451631 1_455
P2 Ti4 2.690159 1_555
P2 Ti5 2.690160 1_555
P2 Ti6 2.690160 1_565
P2 Ti0 2.690160 1_555
P3 Ti6 2.451631 1_554
P3 Ti0 2.451631 1_555
P3 Ti7 2.451631 1_655
P3 Ti2 2.451631 1_555
P3 Ti5 2.690159 1_655
P3 Ti3 2.690160 1_555
P3 Ti4 2.690160 1_555
P3 Ti1 2.690160 1_555
P4 Ti4 2.451631 1_566
P4 Ti7 2.451631 1_555
P4 Ti6 2.451631 1_565
P4 Ti1 2.451631 1_456
P4 Ti0 2.690160 1_556
P4 Ti2 2.690160 1_455
P4 Ti5 2.690160 1_555
P4 Ti3 2.690160 1_566
P5 Ti2 2.451631 1_555
P5 Ti5 2.451631 1_545
P5 Ti3 2.451631 1_555
P5 Ti0 2.451631 1_556
P5 Ti7 2.690160 1_555
P5 Ti6 2.690160 1_555
P5 Ti1 2.690160 1_556
P5 Ti4 2.690160 1_555
