# generated using pymatgen
data_Al2FeO4
_symmetry_space_group_name_H-M   'P 1'
_cell_length_a   5.81204136
_cell_length_b   5.81204142
_cell_length_c   23.37140860
_cell_angle_alpha   60.17428620
_cell_angle_beta   60.17428589
_cell_angle_gamma   60.00000410
_symmetry_Int_Tables_number   1
_chemical_formula_structural   Al2FeO4
_chemical_formula_sum   'Al16 Fe8 O32'
_cell_volume   559.71425539
_cell_formula_units_Z   8
loop_
 _symmetry_equiv_pos_site_id
 _symmetry_equiv_pos_as_xyz
  1  'x, y, z'
loop_
 _atom_site_type_symbol
 _atom_site_label
 _atom_site_symmetry_multiplicity
 _atom_site_fract_x
 _atom_site_fract_y
 _atom_site_fract_z
 _atom_site_occupancy
  Al  Al0  1  0.00674184  0.49617817  0.12522545  1
  Al  Al1  1  0.49617817  0.49617817  0.12522545  1
  Al  Al2  1  0.00161869  0.49596031  0.37661517  1
  Al  Al3  1  0.49617817  0.00674184  0.12522545  1
  Al  Al4  1  0.49596031  0.49596031  0.37661517  1
  Al  Al5  1  0.00035583  0.50103047  0.62439581  1
  Al  Al6  1  0.88079041  0.88079041  0.21440719  1
  Al  Al7  1  0.50031204  0.50031204  0.49976597  1
  Al  Al8  1  0.49596031  0.00161869  0.37661517  1
  Al  Al9  1  0.50103047  0.50103047  0.62439581  1
  Al  Al10  1  0.00801098  0.49905922  0.87346765  1
  Al  Al11  1  0.50287778  0.50287778  0.74784166  1
  Al  Al12  1  0.50103047  0.00035583  0.62439581  1
  Al  Al13  1  0.49905922  0.49905922  0.87346765  1
  Al  Al14  1  0.49905922  0.00801098  0.87346765  1
  Al  Al15  1  0.87763831  0.87763831  0.96677127  1
  Fe  Fe0  1  0.12425916  0.12425916  0.03180563  1
  Fe  Fe1  1  0.12065108  0.12065108  0.28451169  1
  Fe  Fe2  1  0.49936925  0.49936925  0.00047306  1
  Fe  Fe3  1  0.49668151  0.49668151  0.25248887  1
  Fe  Fe4  1  0.12323272  0.12323272  0.53257546  1
  Fe  Fe5  1  0.12746883  0.12746883  0.77939838  1
  Fe  Fe6  1  0.87777280  0.87777280  0.46667040  1
  Fe  Fe7  1  0.87228913  0.87228913  0.72078315  1
  O  O0  1  0.25053593  0.25053593  0.07293889  1
  O  O1  1  0.26046530  0.26046530  0.17965103  1
  O  O2  1  0.25053593  0.70717259  0.07293889  1
  O  O3  1  0.70717259  0.25053593  0.07293889  1
  O  O4  1  0.24553698  0.24553698  0.32492923  1
  O  O5  1  0.26926782  0.75464707  0.18035951  1
  O  O6  1  0.75464707  0.26926782  0.18035951  1
  O  O7  1  0.26134070  0.26134070  0.42899447  1
  O  O8  1  0.74458568  0.74458568  0.06656074  1
  O  O9  1  0.24553698  0.70920910  0.32492923  1
  O  O10  1  0.75464707  0.75464707  0.18035951  1
  O  O11  1  0.70920910  0.24553698  0.32492923  1
  O  O12  1  0.26621377  0.26621377  0.56586170  1
  O  O13  1  0.30341189  0.73249835  0.43289785  1
  O  O14  1  0.75128197  0.75128197  0.31153852  1
  O  O15  1  0.73249835  0.30341189  0.43289785  1
  O  O16  1  0.26712737  0.26712737  0.67465447  1
  O  O17  1  0.26621377  0.70412565  0.56586170  1
  O  O18  1  0.73249835  0.73249835  0.43289785  1
  O  O19  1  0.70412565  0.26621377  0.56586170  1
  O  O20  1  0.26887296  0.26887296  0.81461301  1
  O  O21  1  0.29705821  0.73598352  0.68274368  1
  O  O22  1  0.73597342  0.73597342  0.57301993  1
  O  O23  1  0.26639441  0.26639441  0.92520419  1
  O  O24  1  0.73598352  0.29705821  0.68274368  1
  O  O25  1  0.26887296  0.70380206  0.81461301  1
  O  O26  1  0.73598352  0.73598352  0.68274368  1
  O  O27  1  0.70380206  0.26887296  0.81461301  1
  O  O28  1  0.25983736  0.75922148  0.93042992  1
  O  O29  1  0.72739963  0.72739963  0.82945027  1
  O  O30  1  0.75922148  0.25983736  0.93042992  1
  O  O31  1  0.75922148  0.75922148  0.93042992  1
loop_
_geom_bond_atom_site_label_1
_geom_bond_atom_site_label_2
_geom_bond_distance
_geom_bond_site_symmetry_2
Al0 O0 1.878676 1_555
Al0 O2 1.878677 1_555
Al0 O1 1.944641 1_555
Al0 O6 1.977446 1_455
Al0 O10 1.977446 1_455
Al0 O8 2.048173 1_455
Al1 O2 1.878676 1_555
Al1 O3 1.878676 1_555
Al1 O1 1.944641 1_555
Al1 O6 1.977446 1_555
Al1 O5 1.977446 1_555
Al1 O8 2.048173 1_555
Al2 O9 1.889292 1_555
Al2 O4 1.889292 1_555
Al2 O15 1.915384 1_455
Al2 O18 1.915384 1_455
Al2 O7 1.938030 1_555
Al2 O14 2.104597 1_455
Al3 O0 1.878676 1_555
Al3 O3 1.878677 1_555
Al3 O1 1.944641 1_555
Al3 O5 1.977446 1_545
Al3 O10 1.977446 1_545
Al3 O8 2.048173 1_545
Al4 O9 1.889292 1_555
Al4 O11 1.889292 1_555
Al4 O15 1.915384 1_555
Al4 O13 1.915384 1_555
Al4 O7 1.938030 1_555
Al4 O14 2.104597 1_555
Al5 O16 1.935779 1_555
Al5 O26 1.937817 1_455
Al5 O24 1.937817 1_455
Al5 O17 1.940962 1_555
Al5 O12 1.940963 1_555
Al5 O22 1.942579 1_455
Al6 O10 1.845638 1_555
Al6 O5 1.845638 1_655
Al6 O6 1.845638 1_565
Al6 O14 1.858393 1_555
Al7 O18 1.926116 1_555
Al7 O15 1.926116 1_555
Al7 O13 1.926116 1_555
Al7 O12 1.938681 1_555
Al7 O17 1.938681 1_555
Al7 O19 1.938681 1_555
Al8 O11 1.889292 1_555
Al8 O4 1.889292 1_555
Al8 O13 1.915384 1_545
Al8 O18 1.915384 1_545
Al8 O7 1.938030 1_555
Al8 O14 2.104597 1_545
Al9 O16 1.935779 1_555
Al9 O24 1.937817 1_555
Al9 O21 1.937817 1_555
Al9 O17 1.940963 1_555
Al9 O19 1.940963 1_555
Al9 O22 1.942579 1_555
Al10 O29 1.904191 1_455
Al10 O23 1.922218 1_555
Al10 O25 1.925683 1_555
Al10 O20 1.925684 1_555
Al10 O30 2.012623 1_455
Al10 O31 2.012623 1_455
Al11 O26 1.928879 1_555
Al11 O24 1.928879 1_555
Al11 O21 1.928879 1_555
Al11 O20 1.939595 1_555
Al11 O25 1.939596 1_555
Al11 O27 1.939596 1_555
Al12 O16 1.935779 1_555
Al12 O26 1.937817 1_545
Al12 O21 1.937817 1_545
Al12 O19 1.940962 1_555
Al12 O12 1.940963 1_555
Al12 O22 1.942579 1_545
Al13 O29 1.904191 1_555
Al13 O23 1.922218 1_555
Al13 O25 1.925684 1_555
Al13 O27 1.925684 1_555
Al13 O30 2.012623 1_555
Al13 O28 2.012623 1_555
Al14 O29 1.904191 1_545
Al14 O23 1.922218 1_555
Al14 O27 1.925683 1_555
Al14 O20 1.925684 1_555
Al14 O28 2.012623 1_545
Al14 O31 2.012623 1_545
Al15 O31 1.818071 1_555
Al15 O28 1.818071 1_655
Al15 O30 1.818071 1_565
Al15 O8 1.909251 1_556
Fe0 O0 1.985897 1_555
Fe0 O3 1.985897 1_455
Fe0 O2 1.985897 1_545
Fe0 O23 2.039583 1_554
Fe1 O4 1.958798 1_555
Fe1 O11 1.958798 1_455
Fe1 O9 1.958798 1_545
Fe1 O1 2.006277 1_555
Fe2 O0 2.066446 1_555
Fe2 O2 2.066446 1_555
Fe2 O3 2.066446 1_555
Fe2 O31 2.145688 1_554
Fe2 O30 2.145688 1_554
Fe2 O28 2.145688 1_554
Fe3 O9 2.083687 1_555
Fe3 O11 2.083687 1_555
Fe3 O4 2.083688 1_555
Fe3 O10 2.134775 1_555
Fe3 O6 2.134775 1_555
Fe3 O5 2.134775 1_555
Fe4 O7 1.981793 1_555
Fe4 O12 1.990751 1_555
Fe4 O19 1.990751 1_455
Fe4 O17 1.990751 1_545
Fe5 O16 2.004043 1_555
Fe5 O20 2.012288 1_555
Fe5 O27 2.012288 1_455
Fe5 O25 2.012288 1_545
Fe6 O18 2.021786 1_555
Fe6 O13 2.021786 1_655
Fe6 O15 2.021786 1_565
Fe6 O22 2.034763 1_555
Fe7 O26 2.018509 1_555
Fe7 O21 2.018509 1_655
Fe7 O24 2.018509 1_565
Fe7 O29 2.079105 1_555
