# generated using pymatgen
data_Ca7(B7Rh10)2
_symmetry_space_group_name_H-M   'P 1'
_cell_length_a   20.87641008
_cell_length_b   20.49006411
_cell_length_c   5.62374226
_cell_angle_alpha   86.10752844
_cell_angle_beta   78.30190602
_cell_angle_gamma   15.59056554
_symmetry_Int_Tables_number   1
_chemical_formula_structural   Ca7(B7Rh10)2
_chemical_formula_sum   'Ca7 B14 Rh20'
_cell_volume   553.96732753
_cell_formula_units_Z   1
loop_
 _symmetry_equiv_pos_site_id
 _symmetry_equiv_pos_as_xyz
  1  'x, y, z'
loop_
 _atom_site_type_symbol
 _atom_site_label
 _atom_site_symmetry_multiplicity
 _atom_site_fract_x
 _atom_site_fract_y
 _atom_site_fract_z
 _atom_site_occupancy
  Ca  Ca0  1  0.64653500  0.64653500  0.35346500  1
  Ca  Ca1  1  0.27780100  0.27780100  0.72219900  1
  Ca  Ca2  1  0.72219900  0.72219900  0.27780100  1
  Ca  Ca3  1  0.50000000  0.50000000  0.50000000  1
  Ca  Ca4  1  0.35346500  0.35346500  0.64653500  1
  Ca  Ca5  1  0.57293900  0.57293900  0.42706100  1
  Ca  Ca6  1  0.42706100  0.42706100  0.57293900  1
  B  B0  1  0.76135800  0.09424700  0.90575300  1
  B  B1  1  0.02232600  0.68912400  0.31087600  1
  B  B2  1  0.31087600  0.97767400  0.02232600  1
  B  B3  1  0.97767400  0.31087600  0.68912400  1
  B  B4  1  0.37781500  0.05515800  0.94484200  1
  B  B5  1  0.23864200  0.90575300  0.09424700  1
  B  B6  1  0.16632700  0.83367300  0.16632700  1
  B  B7  1  0.05515800  0.37781500  0.62218500  1
  B  B8  1  0.90575300  0.23864200  0.76135800  1
  B  B9  1  0.09424700  0.76135800  0.23864200  1
  B  B10  1  0.83367300  0.16632700  0.83367300  1
  B  B11  1  0.94484200  0.62218500  0.37781500  1
  B  B12  1  0.68912400  0.02232600  0.97767400  1
  B  B13  1  0.62218500  0.94484200  0.05515800  1
  Rh  Rh0  1  0.31973100  0.31973100  0.18026900  1
  Rh  Rh1  1  0.10803300  0.10803300  0.89196700  1
  Rh  Rh2  1  0.96396900  0.96396900  0.53603100  1
  Rh  Rh3  1  0.81928600  0.81928600  0.18071400  1
  Rh  Rh4  1  0.60829200  0.60829200  0.89170800  1
  Rh  Rh5  1  0.89196700  0.89196700  0.10803300  1
  Rh  Rh6  1  0.03597600  0.03597600  0.96402400  1
  Rh  Rh7  1  0.10829200  0.10829200  0.39170800  1
  Rh  Rh8  1  0.18026900  0.18026900  0.31973100  1
  Rh  Rh9  1  0.53603100  0.53603100  0.96396900  1
  Rh  Rh10  1  0.03603100  0.03603100  0.46396900  1
  Rh  Rh11  1  0.68026900  0.68026900  0.81973100  1
  Rh  Rh12  1  0.39170800  0.39170800  0.10829200  1
  Rh  Rh13  1  0.25000000  0.25000000  0.25000000  1
  Rh  Rh14  1  0.46396900  0.46396900  0.03603100  1
  Rh  Rh15  1  0.18071400  0.18071400  0.81928600  1
  Rh  Rh16  1  0.96402400  0.96402400  0.03597600  1
  Rh  Rh17  1  0.89170800  0.89170800  0.60829200  1
  Rh  Rh18  1  0.75000000  0.75000000  0.75000000  1
  Rh  Rh19  1  0.81973100  0.81973100  0.68026900  1
loop_
_geom_bond_atom_site_label_1
_geom_bond_atom_site_label_2
_geom_bond_distance
_geom_bond_site_symmetry_2
Ca0 Ca5 2.987745 1_555
Ca0 Ca2 3.071699 1_555
Ca0 Rh15 3.122122 1_654
Ca0 Rh15 3.122122 1_565
Ca0 Rh11 3.127636 1_554
Ca0 Rh8 3.127636 1_565
Ca0 Rh8 3.127636 1_655
Ca0 Rh11 3.127636 1_555
Ca0 Rh1 3.203978 1_654
Ca0 Rh1 3.203978 1_565
Ca0 Rh4 3.212006 1_554
Ca0 Rh4 3.212006 1_555
Ca0 Rh7 3.212006 1_565
Ca0 Rh7 3.212006 1_655
Ca1 Rh18 3.029920 1_545
Ca1 Rh13 3.029920 1_556
Ca1 Rh18 3.029920 1_455
Ca1 Rh13 3.029920 1_555
Ca1 Ca4 3.071699 1_555
Ca1 Rh3 3.264768 1_456
Ca1 Rh3 3.264768 1_545
Ca1 Rh0 3.286967 1_556
Ca1 Rh0 3.286967 1_555
Ca1 Rh19 3.286967 1_545
Ca1 Rh19 3.286967 1_455
Ca2 Rh18 3.029920 1_555
Ca2 Rh18 3.029920 1_554
Ca2 Rh13 3.029920 1_565
Ca2 Rh13 3.029920 1_655
Ca2 Rh15 3.264768 1_565
Ca2 Rh15 3.264768 1_654
Ca2 Rh8 3.286967 1_655
Ca2 Rh11 3.286967 1_555
Ca2 Rh8 3.286967 1_565
Ca2 Rh11 3.286967 1_554
Ca3 Ca5 2.961073 1_555
Ca3 Ca6 2.961073 1_555
Ca3 Rh6 3.155221 1_565
Ca3 Rh6 3.155221 1_654
Ca3 Rh16 3.155221 1_545
Ca3 Rh16 3.155221 1_456
Ca3 Rh10 3.169576 1_655
Ca3 Rh10 3.169576 1_565
Ca3 Rh14 3.169576 1_556
Ca3 Rh14 3.169576 1_555
Ca3 Rh9 3.169576 1_555
Ca3 Rh9 3.169576 1_554
Ca3 Rh2 3.169576 1_545
Ca3 Rh2 3.169576 1_455
Ca4 Ca6 2.987745 1_555
Ca4 Rh3 3.122122 1_545
Ca4 Rh3 3.122122 1_456
Ca4 Rh19 3.127636 1_545
Ca4 Rh19 3.127636 1_455
Ca4 Rh0 3.127636 1_555
Ca4 Rh0 3.127636 1_556
Ca4 Rh5 3.203978 1_545
Ca4 Rh5 3.203978 1_456
Ca4 Rh12 3.212006 1_555
Ca4 Rh17 3.212006 1_455
Ca4 Rh17 3.212006 1_545
Ca4 Rh12 3.212006 1_556
Ca5 Rh1 3.138807 1_565
Ca5 Rh1 3.138807 1_654
Ca5 Rh7 3.156968 1_565
Ca5 Rh4 3.156968 1_554
Ca5 Rh7 3.156968 1_655
Ca5 Rh4 3.156968 1_555
Ca5 Rh6 3.173967 1_565
Ca5 Rh6 3.173967 1_654
Ca5 Rh9 3.186163 1_554
Ca5 Rh9 3.186163 1_555
Ca5 Rh10 3.186163 1_565
Ca5 Rh10 3.186163 1_655
Ca6 Rh5 3.138807 1_545
Ca6 Rh5 3.138807 1_456
Ca6 Rh12 3.156968 1_555
Ca6 Rh12 3.156968 1_556
Ca6 Rh17 3.156968 1_545
Ca6 Rh17 3.156968 1_455
Ca6 Rh16 3.173967 1_545
Ca6 Rh16 3.173967 1_456
Ca6 Rh2 3.186163 1_455
Ca6 Rh2 3.186163 1_545
Ca6 Rh14 3.186163 1_555
Ca6 Rh14 3.186163 1_556
B0 Rh5 2.180434 1_546
B0 Rh12 2.183457 1_556
B0 Rh17 2.183457 1_545
B0 Rh2 2.185420 1_545
B0 Rh14 2.185420 1_556
B0 Rh16 2.190921 1_546
B0 Ca6 3.234365 1_556
B0 Ca6 3.234365 1_645
B0 Ca6 3.254938 1_555
B1 Rh17 2.179852 1_455
B1 Rh12 2.179852 1_555
B1 Rh0 2.180151 1_555
B1 Rh19 2.180151 1_455
B1 Rh5 2.192611 1_455
B1 Rh3 2.197986 1_455
B1 Ca4 3.236293 1_465
B1 Ca4 3.236293 1_554
B1 Ca4 3.254566 1_555
B2 Rh4 2.179852 1_554
B2 Rh7 2.179852 1_565
B2 Rh8 2.180151 1_565
B2 Rh11 2.180151 1_554
B2 Rh1 2.192611 1_564
B2 Rh15 2.197986 1_564
B2 Ca0 3.236293 1_465
B2 Ca0 3.236293 1_554
B2 Ca0 3.254566 1_555
B3 Rh4 2.179852 1_555
B3 Rh7 2.179852 1_655
B3 Rh8 2.180151 1_655
B3 Rh11 2.180151 1_555
B3 Rh1 2.192611 1_655
B3 Rh15 2.197986 1_655
B3 Ca0 3.236293 1_556
B3 Ca0 3.236293 1_645
B3 Ca0 3.254566 1_555
B4 Rh18 2.134313 1_545
B4 Rh13 2.134313 1_556
B4 Rh15 2.141773 1_555
B4 Rh11 2.205911 1_545
B4 Rh8 2.205911 1_556
B4 Ca1 2.945182 1_555
B4 Ca2 3.217813 1_456
B4 Ca2 3.217813 1_545
B5 Rh1 2.180434 1_564
B5 Rh7 2.183457 1_565
B5 Rh4 2.183457 1_554
B5 Rh9 2.185420 1_554
B5 Rh10 2.185420 1_565
B5 Rh6 2.190921 1_564
B5 Ca5 3.234365 1_465
B5 Ca5 3.234365 1_554
B5 Ca5 3.254938 1_555
B6 Rh10 2.182157 1_565
B6 Rh14 2.182157 1_555
B6 Rh9 2.182157 1_554
B6 Rh2 2.182157 1_455
B6 Rh6 2.183392 1_564
B6 Rh16 2.183392 1_455
B6 Ca3 3.233649 1_554
B6 Ca3 3.233649 1_465
B6 Ca3 3.255946 1_555
B7 Rh18 2.134313 1_455
B7 Rh13 2.134313 1_555
B7 Rh15 2.141773 1_555
B7 Rh8 2.205911 1_555
B7 Rh11 2.205911 1_455
B7 Ca1 2.945182 1_555
B7 Ca2 3.217813 1_456
B7 Ca2 3.217813 1_545
B8 Rh1 2.180434 1_655
B8 Rh7 2.183457 1_655
B8 Rh4 2.183457 1_555
B8 Rh9 2.185420 1_555
B8 Rh10 2.185420 1_655
B8 Rh6 2.190921 1_655
B8 Ca5 3.234365 1_645
B8 Ca5 3.234365 1_556
B8 Ca5 3.254938 1_555
B9 Rh5 2.180434 1_455
B9 Rh12 2.183457 1_555
B9 Rh17 2.183457 1_455
B9 Rh2 2.185420 1_455
B9 Rh14 2.185420 1_555
B9 Rh16 2.190921 1_455
B9 Ca6 3.234365 1_554
B9 Ca6 3.234365 1_465
B9 Ca6 3.254938 1_555
B10 Rh14 2.182157 1_556
B10 Rh10 2.182157 1_655
B10 Rh2 2.182157 1_545
B10 Rh9 2.182157 1_555
B10 Rh16 2.183392 1_546
B10 Rh6 2.183392 1_655
B10 Ca3 3.233649 1_645
B10 Ca3 3.233649 1_556
B10 Ca3 3.255946 1_555
B11 Rh18 2.134313 1_555
B11 Rh13 2.134313 1_655
B11 Rh3 2.141773 1_555
B11 Rh0 2.205911 1_655
B11 Rh19 2.205911 1_555
B11 Ca2 2.945182 1_555
B11 Ca1 3.217813 1_565
B11 Ca1 3.217813 1_654
B12 Rh17 2.179852 1_545
B12 Rh12 2.179852 1_556
B12 Rh0 2.180151 1_556
B12 Rh19 2.180151 1_545
B12 Rh5 2.192611 1_546
B12 Rh3 2.197986 1_546
B12 Ca4 3.236293 1_645
B12 Ca4 3.236293 1_556
B12 Ca4 3.254566 1_555
B13 Rh18 2.134313 1_554
B13 Rh13 2.134313 1_565
B13 Rh3 2.141773 1_555
B13 Rh0 2.205911 1_565
B13 Rh19 2.205911 1_554
B13 Ca2 2.945182 1_555
B13 Ca1 3.217813 1_654
B13 Ca1 3.217813 1_565
