# generated using pymatgen
data_Ca7NbSi2N9
_symmetry_space_group_name_H-M   'P 1'
_cell_length_a   9.96507500
_cell_length_b   6.06582000
_cell_length_c   9.02428517
_cell_angle_alpha   88.02954095
_cell_angle_beta   90.00000000
_cell_angle_gamma   90.00000000
_symmetry_Int_Tables_number   1
_chemical_formula_structural   Ca7NbSi2N9
_chemical_formula_sum   'Ca14 Nb2 Si4 N18'
_cell_volume   545.16255904
_cell_formula_units_Z   2
loop_
 _symmetry_equiv_pos_site_id
 _symmetry_equiv_pos_as_xyz
  1  'x, y, z'
loop_
 _atom_site_type_symbol
 _atom_site_label
 _atom_site_symmetry_multiplicity
 _atom_site_fract_x
 _atom_site_fract_y
 _atom_site_fract_z
 _atom_site_occupancy
  Ca  Ca0  1  0.94310200  0.43099700  0.16565000  1
  Ca  Ca1  1  0.07744800  0.24967600  0.49487000  1
  Ca  Ca2  1  0.25000000  0.09066900  0.80120800  1
  Ca  Ca3  1  0.44310200  0.56900300  0.83435000  1
  Ca  Ca4  1  0.57744800  0.75032400  0.50513000  1
  Ca  Ca5  1  0.57789700  0.06975600  0.83087800  1
  Ca  Ca6  1  0.92210300  0.06975600  0.83087800  1
  Ca  Ca7  1  0.42210300  0.93024400  0.16912200  1
  Ca  Ca8  1  0.42255200  0.24967600  0.49487000  1
  Ca  Ca9  1  0.07789700  0.93024400  0.16912200  1
  Ca  Ca10  1  0.92255200  0.75032400  0.50513000  1
  Ca  Ca11  1  0.05689800  0.56900300  0.83435000  1
  Ca  Ca12  1  0.75000000  0.90933100  0.19879200  1
  Ca  Ca13  1  0.55689800  0.43099700  0.16565000  1
  Nb  Nb0  1  0.75000000  0.27905600  0.43812500  1
  Nb  Nb1  1  0.25000000  0.72094400  0.56187500  1
  Si  Si0  1  0.25000000  0.32345700  0.06210000  1
  Si  Si1  1  0.75000000  0.45900400  0.72232300  1
  Si  Si2  1  0.75000000  0.67654300  0.93790000  1
  Si  Si3  1  0.25000000  0.54099600  0.27767700  1
  N  N0  1  0.39943900  0.23232800  0.98180600  1
  N  N1  1  0.25000000  0.24633800  0.25905200  1
  N  N2  1  0.90201500  0.11438700  0.34184000  1
  N  N3  1  0.60940700  0.36611300  0.63107200  1
  N  N4  1  0.75000000  0.55772000  0.33266000  1
  N  N5  1  0.25000000  0.61989700  0.08374400  1
  N  N6  1  0.89059300  0.36611300  0.63107200  1
  N  N7  1  0.39059300  0.63388700  0.36892800  1
  N  N8  1  0.75000000  0.38010300  0.91625600  1
  N  N9  1  0.09798500  0.88561300  0.65816000  1
  N  N10  1  0.75000000  0.75366200  0.74094800  1
  N  N11  1  0.10940700  0.63388700  0.36892800  1
  N  N12  1  0.60056100  0.76767200  0.01819400  1
  N  N13  1  0.25000000  0.44228000  0.66734000  1
  N  N14  1  0.40201500  0.88561300  0.65816000  1
  N  N15  1  0.59798500  0.11438700  0.34184000  1
  N  N16  1  0.10056100  0.23232800  0.98180600  1
  N  N17  1  0.89943900  0.76767200  0.01819400  1
loop_
_geom_bond_atom_site_label_1
_geom_bond_atom_site_label_2
_geom_bond_distance
_geom_bond_site_symmetry_2
Ca0 N17 2.437987 1_555
Ca0 N2 2.484759 1_555
Ca0 N4 2.577763 1_555
Ca0 N16 2.608498 1_654
Ca0 N11 2.789530 1_655
Ca0 N8 2.985152 1_554
Ca1 N6 2.352960 1_455
Ca1 N2 2.390548 1_455
Ca1 N11 2.577300 1_555
Ca1 N9 2.620361 1_545
Ca1 N13 2.620891 1_555
Ca1 N1 2.736566 1_555
Ca2 N14 2.370384 1_545
Ca2 N9 2.370384 1_545
Ca2 N16 2.389233 1_555
Ca2 N0 2.389233 1_555
Ca2 N13 2.414768 1_555
Ca3 N0 2.437987 1_555
Ca3 N14 2.484759 1_555
Ca3 N13 2.577763 1_555
Ca3 N12 2.608498 1_556
Ca3 N3 2.789530 1_555
Ca3 N5 2.985152 1_556
Ca4 N7 2.352960 1_555
Ca4 N14 2.390548 1_555
Ca4 N3 2.577300 1_555
Ca4 N15 2.620361 1_565
Ca4 N4 2.620891 1_555
Ca4 N10 2.736566 1_555
Ca5 N12 2.460299 1_546
Ca5 N0 2.466259 1_555
Ca5 N3 2.521592 1_555
Ca5 N14 2.620812 1_545
Ca5 N8 2.679274 1_555
Ca5 N10 2.717209 1_545
Ca6 N17 2.460299 1_546
Ca6 N16 2.466259 1_655
Ca6 N6 2.521592 1_555
Ca6 N9 2.620812 1_645
Ca6 N8 2.679274 1_555
Ca6 N10 2.717209 1_545
Ca7 N0 2.460299 1_564
Ca7 N12 2.466259 1_555
Ca7 N7 2.521592 1_555
Ca7 N15 2.620812 1_565
Ca7 N5 2.679274 1_555
Ca7 N1 2.717209 1_565
Ca8 N3 2.352960 1_555
Ca8 N15 2.390548 1_555
Ca8 N7 2.577300 1_555
Ca8 N14 2.620361 1_545
Ca8 N13 2.620891 1_555
Ca8 N1 2.736566 1_555
Ca9 N16 2.460299 1_564
Ca9 N17 2.466259 1_455
Ca9 N11 2.521592 1_555
Ca9 N2 2.620812 1_465
Ca9 N5 2.679274 1_555
Ca9 N1 2.717209 1_565
Ca10 N11 2.352960 1_655
Ca10 N9 2.390548 1_655
Ca10 N6 2.577300 1_555
Ca10 N2 2.620361 1_565
Ca10 N4 2.620891 1_555
Ca10 N10 2.736566 1_555
Ca11 N16 2.437987 1_555
Ca11 N9 2.484759 1_555
Ca11 N13 2.577763 1_555
Ca11 N17 2.608498 1_456
Ca11 N6 2.789530 1_455
Ca11 N5 2.985152 1_556
Ca12 N2 2.370384 1_565
Ca12 N15 2.370384 1_565
Ca12 N12 2.389233 1_555
Ca12 N17 2.389233 1_555
Ca12 N4 2.414768 1_555
Ca13 N12 2.437987 1_555
Ca13 N15 2.484759 1_555
Ca13 N4 2.577763 1_555
Ca13 N0 2.608498 1_554
Ca13 N7 2.789530 1_555
Ca13 N8 2.985152 1_554
N0 Si0 1.753787 1_556
N1 Si3 1.800972 1_555
N1 Si0 1.822259 1_555
N2 Nb0 2.026605 1_555
N3 Si1 1.729267 1_555
N3 Nb0 2.310142 1_555
N4 Nb0 1.911123 1_555
N5 Si3 1.798424 1_555
N5 Si0 1.815393 1_555
N6 Si1 1.729267 1_555
N6 Nb0 2.310142 1_555
N7 Si3 1.729267 1_555
N7 Nb1 2.310142 1_555
N8 Si1 1.798424 1_555
N8 Si2 1.815393 1_555
N9 Nb1 2.026605 1_555
N10 Si1 1.800972 1_555
N10 Si2 1.822259 1_555
N11 Si3 1.729267 1_555
N11 Nb1 2.310142 1_555
N12 Si2 1.753787 1_554
N13 Nb1 1.911123 1_555
N14 Nb1 2.026605 1_555
N15 Nb0 2.026605 1_555
N16 Si0 1.753787 1_556
N17 Si2 1.753787 1_554
