# generated using pymatgen
data_KAs4ClO6
_symmetry_space_group_name_H-M   'P 1'
_cell_length_a   5.25328503
_cell_length_b   5.25328503
_cell_length_c   8.94578662
_cell_angle_alpha   90.00000000
_cell_angle_beta   90.00000000
_cell_angle_gamma   120.00001252
_symmetry_Int_Tables_number   1
_chemical_formula_structural   KAs4ClO6
_chemical_formula_sum   'K1 As4 Cl1 O6'
_cell_volume   213.80164524
_cell_formula_units_Z   1
loop_
 _symmetry_equiv_pos_site_id
 _symmetry_equiv_pos_as_xyz
  1  'x, y, z'
loop_
 _atom_site_type_symbol
 _atom_site_label
 _atom_site_symmetry_multiplicity
 _atom_site_fract_x
 _atom_site_fract_y
 _atom_site_fract_z
 _atom_site_occupancy
  K  K0  1  -0.00000000  -0.00000000  0.50000000  1
  As  As0  1  0.33333300  0.66666700  0.79555371  1
  As  As1  1  0.66666700  0.33333300  0.79555371  1
  As  As2  1  0.66666700  0.33333300  0.20444629  1
  As  As3  1  0.33333300  0.66666700  0.20444629  1
  Cl  Cl0  1  -0.00000000  -0.00000000  -0.00000000  1
  O  O0  1  0.50000000  -0.00000000  0.68584998  1
  O  O1  1  0.50000000  -0.00000000  0.31415002  1
  O  O2  1  0.50000000  0.50000000  0.68584998  1
  O  O3  1  -0.00000000  0.50000000  0.68584998  1
  O  O4  1  0.50000000  0.50000000  0.31415002  1
  O  O5  1  -0.00000000  0.50000000  0.31415002  1
loop_
_geom_bond_atom_site_label_1
_geom_bond_atom_site_label_2
_geom_bond_distance
_geom_bond_site_symmetry_2
K0 O2 3.108601 1_555
K0 O2 3.108601 1_445
K0 O4 3.108601 1_555
K0 O4 3.108601 1_445
K0 O3 3.108602 1_545
K0 O0 3.108602 1_455
K0 O3 3.108602 1_555
K0 O0 3.108602 1_555
K0 O5 3.108602 1_545
K0 O1 3.108602 1_555
K0 O1 3.108602 1_455
K0 O5 3.108602 1_555
As0 O3 1.806340 1_555
As0 O0 1.806340 1_565
As0 O2 1.806344 1_555
As1 O3 1.806340 1_655
As1 O0 1.806340 1_555
As1 O2 1.806344 1_555
As2 O5 1.806340 1_655
As2 O1 1.806340 1_555
As2 O4 1.806344 1_555
As3 O5 1.806340 1_555
As3 O1 1.806340 1_565
As3 O4 1.806344 1_555
