# generated using pymatgen
data_Na2ZrGeO5
_symmetry_space_group_name_H-M   'P 1'
_cell_length_a   5.62409200
_cell_length_b   14.06172800
_cell_length_c   14.30189979
_cell_angle_alpha   60.93695176
_cell_angle_beta   90.00000000
_cell_angle_gamma   90.00000000
_symmetry_Int_Tables_number   1
_chemical_formula_structural   Na2ZrGeO5
_chemical_formula_sum   'Na16 Zr8 Ge8 O40'
_cell_volume   988.64153510
_cell_formula_units_Z   8
loop_
 _symmetry_equiv_pos_site_id
 _symmetry_equiv_pos_as_xyz
  1  'x, y, z'
loop_
 _atom_site_type_symbol
 _atom_site_label
 _atom_site_symmetry_multiplicity
 _atom_site_fract_x
 _atom_site_fract_y
 _atom_site_fract_z
 _atom_site_occupancy
  Na  Na0  1  0.73911600  0.84990200  0.32045900  1
  Na  Na1  1  0.27112200  0.67210900  0.17963900  1
  Na  Na2  1  0.76970800  0.07032500  0.57782800  1
  Na  Na3  1  0.26579300  0.14716500  0.92409500  1
  Na  Na4  1  0.77112200  0.82789100  0.82036100  1
  Na  Na5  1  0.76579300  0.35283500  0.07590500  1
  Na  Na6  1  0.23911600  0.65009800  0.67954100  1
  Na  Na7  1  0.73029200  0.57032500  0.57782800  1
  Na  Na8  1  0.76088400  0.34990200  0.32045900  1
  Na  Na9  1  0.73420700  0.85283500  0.07590500  1
  Na  Na10  1  0.26088400  0.15009800  0.67954100  1
  Na  Na11  1  0.72887800  0.32789100  0.82036100  1
  Na  Na12  1  0.26970800  0.42967500  0.42217200  1
  Na  Na13  1  0.22887800  0.17210900  0.17963900  1
  Na  Na14  1  0.23029200  0.92967500  0.42217200  1
  Na  Na15  1  0.23420700  0.64716500  0.92409500  1
  Zr  Zr0  1  0.26240300  0.69450700  0.43712000  1
  Zr  Zr1  1  0.23759700  0.19450700  0.43712000  1
  Zr  Zr2  1  0.23333700  0.36865100  0.93663000  1
  Zr  Zr3  1  0.73759700  0.30549300  0.56288000  1
  Zr  Zr4  1  0.73333700  0.13134900  0.06337000  1
  Zr  Zr5  1  0.76240300  0.80549300  0.56288000  1
  Zr  Zr6  1  0.26666300  0.86865100  0.93663000  1
  Zr  Zr7  1  0.76666300  0.63134900  0.06337000  1
  Ge  Ge0  1  0.78096800  0.59229100  0.34035100  1
  Ge  Ge1  1  0.78307800  0.06578400  0.84083600  1
  Ge  Ge2  1  0.21692200  0.93421600  0.15916400  1
  Ge  Ge3  1  0.71692200  0.56578400  0.84083600  1
  Ge  Ge4  1  0.28096800  0.90770900  0.65964900  1
  Ge  Ge5  1  0.21903200  0.40770900  0.65964900  1
  Ge  Ge6  1  0.71903200  0.09229100  0.34035100  1
  Ge  Ge7  1  0.28307800  0.43421600  0.15916400  1
  O  O0  1  0.70815900  0.45226600  0.41063200  1
  O  O1  1  0.21660400  0.85310300  0.79762700  1
  O  O2  1  0.09735600  0.83814200  0.61351700  1
  O  O3  1  0.74981700  0.15043900  0.70138300  1
  O  O4  1  0.08884600  0.61028800  0.35867500  1
  O  O5  1  0.97449300  0.77171500  0.99765300  1
  O  O6  1  0.53455800  0.23382700  0.49229200  1
  O  O7  1  0.69165200  0.13351000  0.91188400  1
  O  O8  1  0.40264400  0.33814200  0.61351700  1
  O  O9  1  0.90264400  0.16185800  0.38648300  1
  O  O10  1  0.47449300  0.72828500  0.00234700  1
  O  O11  1  0.41115400  0.11028800  0.35867500  1
  O  O12  1  0.30834800  0.86649000  0.08811600  1
  O  O13  1  0.96544200  0.73382700  0.49229200  1
  O  O14  1  0.25018300  0.84956100  0.29861700  1
  O  O15  1  0.59025600  0.47069800  0.13440100  1
  O  O16  1  0.91115400  0.38971200  0.64132500  1
  O  O17  1  0.09950800  0.54841000  0.12179400  1
  O  O18  1  0.09025600  0.02930200  0.86559900  1
  O  O19  1  0.03455800  0.26617300  0.50770800  1
  O  O20  1  0.59950800  0.95159000  0.87820600  1
  O  O21  1  0.90049200  0.45159000  0.87820600  1
  O  O22  1  0.46544200  0.76617300  0.50770800  1
  O  O23  1  0.79184100  0.95226600  0.41063200  1
  O  O24  1  0.20815900  0.04773400  0.58936800  1
  O  O25  1  0.75018300  0.65043900  0.70138300  1
  O  O26  1  0.24981700  0.34956100  0.29861700  1
  O  O27  1  0.58884600  0.88971200  0.64132500  1
  O  O28  1  0.59735600  0.66185800  0.38648300  1
  O  O29  1  0.71660400  0.64689700  0.20237300  1
  O  O30  1  0.40049200  0.04841000  0.12179400  1
  O  O31  1  0.02550700  0.22828500  0.00234700  1
  O  O32  1  0.40974400  0.52930200  0.86559900  1
  O  O33  1  0.90974400  0.97069800  0.13440100  1
  O  O34  1  0.19165200  0.36649000  0.08811600  1
  O  O35  1  0.78339600  0.14689700  0.20237300  1
  O  O36  1  0.28339600  0.35310300  0.79762700  1
  O  O37  1  0.52550700  0.27171500  0.99765300  1
  O  O38  1  0.29184100  0.54773400  0.58936800  1
  O  O39  1  0.80834800  0.63351000  0.91188400  1
loop_
_geom_bond_atom_site_label_1
_geom_bond_atom_site_label_2
_geom_bond_distance
_geom_bond_site_symmetry_2
Na0 O23 2.372033 1_555
Na0 O28 2.468481 1_555
Na0 O13 2.535104 1_555
Na0 O33 2.548653 1_555
Na0 O14 2.767758 1_555
Na0 O22 2.804232 1_555
Na0 O14 2.891469 1_655
Na1 O12 2.398397 1_555
Na1 O17 2.457565 1_555
Na1 O4 2.490075 1_555
Na1 O29 2.529150 1_555
Na1 O10 2.532901 1_555
Na1 O5 2.824433 1_454
Na2 O6 2.408104 1_555
Na2 O27 2.463499 1_545
Na2 O24 2.481496 1_655
Na2 O9 2.506495 1_555
Na2 O3 2.517575 1_555
Na2 O19 2.850531 1_655
Na3 O31 2.370696 1_556
Na3 O18 2.401764 1_555
Na3 O7 2.415845 1_555
Na3 O36 2.564853 1_555
Na3 O30 2.584996 1_556
Na3 O37 2.845643 1_555
Na4 O39 2.398397 1_555
Na4 O20 2.457565 1_555
Na4 O27 2.490075 1_555
Na4 O1 2.529150 1_655
Na4 O5 2.532901 1_555
Na4 O10 2.824433 1_556
Na5 O37 2.370696 1_554
Na5 O15 2.401764 1_555
Na5 O34 2.415845 1_655
Na5 O35 2.564853 1_555
Na5 O21 2.584996 1_554
Na5 O31 2.845643 1_655
Na6 O38 2.372033 1_555
Na6 O2 2.468481 1_555
Na6 O22 2.535104 1_555
Na6 O32 2.548653 1_555
Na6 O25 2.767758 1_455
Na6 O13 2.804232 1_455
Na6 O25 2.891469 1_555
Na7 O13 2.408104 1_555
Na7 O16 2.463499 1_555
Na7 O38 2.481496 1_555
Na7 O28 2.506495 1_555
Na7 O25 2.517575 1_555
Na7 O22 2.850531 1_555
Na8 O0 2.372033 1_555
Na8 O9 2.468481 1_555
Na8 O6 2.535104 1_555
Na8 O15 2.548653 1_555
Na8 O26 2.767758 1_655
Na8 O19 2.804232 1_655
Na8 O26 2.891469 1_555
Na9 O5 2.370696 1_554
Na9 O33 2.401764 1_555
Na9 O12 2.415845 1_555
Na9 O29 2.564853 1_555
Na9 O20 2.584996 1_554
Na9 O10 2.845643 1_555
Na10 O24 2.372033 1_555
Na10 O8 2.468481 1_555
Na10 O19 2.535104 1_555
Na10 O18 2.548653 1_555
Na10 O3 2.767758 1_555
Na10 O6 2.804232 1_555
Na10 O3 2.891469 1_455
Na11 O7 2.398397 1_555
Na11 O21 2.457565 1_555
Na11 O16 2.490075 1_555
Na11 O36 2.529150 1_555
Na11 O37 2.532901 1_555
Na11 O31 2.824433 1_656
Na12 O19 2.408104 1_555
Na12 O4 2.463499 1_555
Na12 O0 2.481496 1_555
Na12 O8 2.506495 1_555
Na12 O26 2.517575 1_555
Na12 O6 2.850531 1_555
Na13 O34 2.398397 1_555
Na13 O30 2.457565 1_555
Na13 O11 2.490075 1_555
Na13 O35 2.529150 1_455
Na13 O31 2.532901 1_555
Na13 O37 2.824433 1_554
Na14 O22 2.408104 1_555
Na14 O11 2.463499 1_565
Na14 O23 2.481496 1_455
Na14 O2 2.506495 1_555
Na14 O14 2.517575 1_555
Na14 O13 2.850531 1_455
Na15 O10 2.370696 1_556
Na15 O32 2.401764 1_555
Na15 O39 2.415845 1_455
Na15 O1 2.564853 1_555
Na15 O17 2.584996 1_556
Na15 O5 2.845643 1_455
Ge0 O28 1.756604 1_555
Ge0 O0 1.769781 1_555
Ge0 O29 1.772741 1_555
Ge0 O4 1.787559 1_655
Ge1 O20 1.759606 1_545
Ge1 O3 1.767264 1_555
Ge1 O7 1.773136 1_555
Ge1 O18 1.787925 1_655
Ge2 O30 1.759606 1_565
Ge2 O14 1.767264 1_555
Ge2 O12 1.773136 1_555
Ge2 O33 1.787925 1_455
Ge3 O21 1.759606 1_555
Ge3 O25 1.767264 1_555
Ge3 O39 1.773136 1_555
Ge3 O32 1.787925 1_555
Ge4 O2 1.756604 1_555
Ge4 O24 1.769781 1_565
Ge4 O1 1.772741 1_555
Ge4 O27 1.787559 1_555
Ge5 O8 1.756604 1_555
Ge5 O38 1.769781 1_555
Ge5 O36 1.772741 1_555
Ge5 O16 1.787559 1_455
Ge6 O9 1.756604 1_555
Ge6 O23 1.769781 1_545
Ge6 O35 1.772741 1_555
Ge6 O11 1.787559 1_555
Ge7 O17 1.759606 1_555
Ge7 O26 1.767264 1_555
Ge7 O34 1.773136 1_555
Ge7 O15 1.787925 1_555
O0 Zr3 2.159203 1_555
O1 Zr6 2.121676 1_555
O2 Zr5 2.146392 1_455
O3 Zr3 2.118095 1_555
O4 Zr0 2.214673 1_555
O5 Zr6 2.040586 1_655
O5 Zr7 2.084011 1_556
O6 Zr1 2.035079 1_555
O6 Zr3 2.080169 1_555
O7 Zr4 2.164673 1_556
O8 Zr3 2.146392 1_555
O9 Zr1 2.146392 1_655
O10 Zr7 2.040586 1_555
O10 Zr6 2.084011 1_554
O11 Zr1 2.214673 1_555
O12 Zr6 2.164673 1_554
O13 Zr0 2.035079 1_655
O13 Zr5 2.080169 1_555
O14 Zr0 2.118095 1_555
O15 Zr7 2.211324 1_555
O16 Zr3 2.214673 1_555
O17 Zr7 2.148439 1_455
O18 Zr6 2.211324 1_545
O19 Zr3 2.035079 1_455
O19 Zr1 2.080169 1_555
O20 Zr6 2.148439 1_555
O21 Zr2 2.148439 1_655
O22 Zr5 2.035079 1_555
O22 Zr0 2.080169 1_555
O23 Zr5 2.159203 1_555
O24 Zr1 2.159203 1_555
O25 Zr5 2.118095 1_555
O26 Zr1 2.118095 1_555
O27 Zr5 2.214673 1_555
O28 Zr0 2.146392 1_555
O29 Zr7 2.121676 1_555
O30 Zr4 2.148439 1_555
O31 Zr4 2.040586 1_455
O31 Zr2 2.084011 1_554
O32 Zr2 2.211324 1_555
O33 Zr4 2.211324 1_565
O34 Zr2 2.164673 1_554
O35 Zr4 2.121676 1_555
O36 Zr2 2.121676 1_555
O37 Zr2 2.040586 1_555
O37 Zr4 2.084011 1_556
O38 Zr0 2.159203 1_555
O39 Zr7 2.164673 1_556
