# generated using pymatgen
data_Nd3Sb5Pd6
_symmetry_space_group_name_H-M   'P 1'
_cell_length_a   4.44869637
_cell_length_b   10.19974387
_cell_length_c   13.46458715
_cell_angle_alpha   89.99811380
_cell_angle_beta   89.99999278
_cell_angle_gamma   89.99991312
_symmetry_Int_Tables_number   1
_chemical_formula_structural   Nd3Sb5Pd6
_chemical_formula_sum   'Nd6 Sb10 Pd12'
_cell_volume   610.96322946
_cell_formula_units_Z   2
loop_
 _symmetry_equiv_pos_site_id
 _symmetry_equiv_pos_as_xyz
  1  'x, y, z'
loop_
 _atom_site_type_symbol
 _atom_site_label
 _atom_site_symmetry_multiplicity
 _atom_site_fract_x
 _atom_site_fract_y
 _atom_site_fract_z
 _atom_site_occupancy
  Nd  Nd0  1  0.00000072  0.24251098  -0.00000131  1
  Nd  Nd1  1  0.49999981  0.75748025  0.50000190  1
  Nd  Nd2  1  0.00000031  0.24680838  0.32609741  1
  Nd  Nd3  1  0.50000009  0.75319771  0.17392031  1
  Nd  Nd4  1  0.00000039  0.24681626  0.67393095  1
  Nd  Nd5  1  0.49999940  0.75319722  0.82606890  1
  Sb  Sb0  1  -0.00000014  0.52097186  0.12792020  1
  Sb  Sb1  1  0.49999844  0.47902682  0.37207235  1
  Sb  Sb2  1  -0.00000089  0.52101692  0.87207535  1
  Sb  Sb3  1  0.49999573  0.47899846  0.62790854  1
  Sb  Sb4  1  0.00000029  0.86256114  0.33607469  1
  Sb  Sb5  1  0.50000251  0.13741815  0.16397597  1
  Sb  Sb6  1  0.00000007  0.86256260  0.66391609  1
  Sb  Sb7  1  0.50000069  0.13743031  0.83604673  1
  Sb  Sb8  1  0.00000045  0.83464937  -0.00001917  1
  Sb  Sb9  1  0.50000210  0.16538175  0.50001194  1
  Pd  Pd0  1  0.00000190  0.99217842  0.16103754  1
  Pd  Pd1  1  0.50000030  0.00784314  0.33897649  1
  Pd  Pd2  1  0.00000004  0.99217332  0.83892409  1
  Pd  Pd3  1  0.50000040  0.00784201  0.66106231  1
  Pd  Pd4  1  0.50000081  0.98568723  -0.00000258  1
  Pd  Pd5  1  0.00000106  0.01431607  0.50001253  1
  Pd  Pd6  1  -0.00000139  0.60726135  0.31871687  1
  Pd  Pd7  1  0.49999938  0.39273743  0.18131492  1
  Pd  Pd8  1  -0.00000550  0.60724860  0.68129236  1
  Pd  Pd9  1  0.50000300  0.39276994  0.81867001  1
  Pd  Pd10  1  0.49999983  0.52332649  -0.00000475  1
  Pd  Pd11  1  0.00000019  0.47658782  0.49999936  1
loop_
_geom_bond_atom_site_label_1
_geom_bond_atom_site_label_2
_geom_bond_distance
_geom_bond_site_symmetry_2
Nd0 Sb7 3.312080 1_554
Nd0 Sb7 3.312083 1_454
Nd0 Sb5 3.312297 1_455
Nd0 Sb5 3.312306 1_555
Nd0 Sb0 3.321735 1_555
Nd0 Sb2 3.322044 1_554
Nd0 Pd0 3.349737 1_545
Nd0 Pd2 3.350197 1_544
Nd0 Pd4 3.436522 1_545
Nd0 Pd4 3.436526 1_445
Nd0 Pd10 3.626518 1_455
Nd0 Pd10 3.626518 1_555
Nd0 Pd7 3.640878 1_555
Nd0 Pd7 3.640882 1_455
Nd0 Pd9 3.641057 1_454
Nd0 Pd9 3.641072 1_554
Nd1 Sb6 3.311746 1_555
Nd1 Sb6 3.311750 1_655
Nd1 Sb4 3.311811 1_555
Nd1 Sb4 3.311815 1_655
Nd1 Sb3 3.321717 1_555
Nd1 Sb1 3.321726 1_555
Nd1 Pd1 3.349856 1_565
Nd1 Pd3 3.350261 1_565
Nd1 Pd5 3.436612 1_565
Nd1 Pd5 3.436624 1_665
Nd1 Pd11 3.627136 1_655
Nd1 Pd11 3.627139 1_555
Nd1 Pd6 3.640561 1_655
Nd1 Pd6 3.640571 1_555
Nd1 Pd8 3.640586 1_655
Nd1 Pd8 3.640618 1_555
Nd2 Pd1 3.304330 1_555
Nd2 Pd1 3.304335 1_455
Nd2 Sb1 3.307736 1_555
Nd2 Sb1 3.307743 1_455
Nd2 Sb5 3.310257 1_455
Nd2 Sb5 3.310267 1_555
Nd2 Pd7 3.311084 1_555
Nd2 Pd7 3.311087 1_455
Nd2 Pd11 3.312998 1_555
Nd2 Pd5 3.332646 1_555
Nd2 Sb9 3.334793 1_455
Nd2 Sb9 3.334803 1_555
Nd2 Pd0 3.418328 1_545
Nd2 Pd6 3.677868 1_555
Nd3 Pd0 3.304443 1_555
Nd3 Pd0 3.304459 1_655
Nd3 Sb0 3.307854 1_655
Nd3 Sb0 3.307860 1_555
Nd3 Sb4 3.310460 1_555
Nd3 Sb4 3.310464 1_655
Nd3 Pd6 3.311225 1_655
Nd3 Pd6 3.311236 1_555
Nd3 Pd10 3.313880 1_555
Nd3 Pd4 3.332699 1_555
Nd3 Sb8 3.335096 1_555
Nd3 Sb8 3.335099 1_655
Nd3 Pd1 3.418415 1_565
Nd3 Pd7 3.677947 1_555
Nd4 Pd3 3.304398 1_555
Nd4 Pd3 3.304403 1_455
Nd4 Sb3 3.307554 1_555
Nd4 Sb3 3.307577 1_455
Nd4 Sb7 3.310148 1_555
Nd4 Sb7 3.310148 1_455
Nd4 Pd9 3.310902 1_455
Nd4 Pd9 3.310921 1_555
Nd4 Pd11 3.313114 1_555
Nd4 Pd5 3.332844 1_555
Nd4 Sb9 3.334895 1_455
Nd4 Sb9 3.334903 1_555
Nd4 Pd2 3.417733 1_545
Nd4 Pd8 3.677657 1_555
Nd5 Pd2 3.304401 1_555
Nd5 Pd2 3.304410 1_655
Nd5 Sb2 3.307508 1_655
Nd5 Sb2 3.307515 1_555
Nd5 Sb6 3.310404 1_555
Nd5 Sb6 3.310409 1_655
Nd5 Pd8 3.311169 1_655
Nd5 Pd8 3.311202 1_555
Nd5 Pd10 3.313780 1_556
Nd5 Pd4 3.332866 1_556
Nd5 Sb8 3.334873 1_556
Nd5 Sb8 3.334881 1_656
Nd5 Pd3 3.417865 1_565
Nd5 Pd9 3.677619 1_555
Pd0 Sb5 2.672797 1_465
Pd0 Sb5 2.672805 1_565
Pd0 Sb8 2.698992 1_555
Pd0 Sb4 2.702252 1_555
Pd0 Pd4 3.107054 1_555
Pd0 Pd4 3.107062 1_455
Pd1 Sb4 2.673031 1_645
Pd1 Sb4 2.673034 1_545
Pd1 Sb9 2.698820 1_555
Pd1 Sb5 2.701611 1_555
Pd1 Pd5 3.107013 1_555
Pd1 Pd5 3.107019 1_655
Pd2 Sb7 2.672881 1_465
Pd2 Sb7 2.672889 1_565
Pd2 Sb8 2.698876 1_556
Pd2 Sb6 2.701953 1_555
Pd2 Pd4 3.107364 1_456
Pd2 Pd4 3.107369 1_556
Pd3 Sb6 2.673004 1_645
Pd3 Sb6 2.673010 1_545
Pd3 Sb9 2.698903 1_555
Pd3 Sb7 2.701564 1_555
Pd3 Pd5 3.107140 1_555
Pd3 Pd5 3.107144 1_655
Pd4 Sb7 2.696008 1_564
Pd4 Sb5 2.696327 1_565
Pd4 Sb8 2.705734 1_655
Pd4 Sb8 2.705740 1_555
Pd5 Sb6 2.695549 1_545
Pd5 Sb4 2.696019 1_545
Pd5 Sb9 2.705893 1_455
Pd5 Sb9 2.705904 1_555
Pd6 Sb4 2.614467 1_555
Pd6 Sb1 2.678530 1_555
Pd6 Sb1 2.678534 1_455
Pd6 Sb0 2.715609 1_555
Pd7 Sb5 2.614643 1_555
Pd7 Sb0 2.678670 1_555
Pd7 Sb0 2.678676 1_655
Pd7 Sb1 2.715109 1_555
Pd8 Sb6 2.614619 1_555
Pd8 Sb3 2.678732 1_455
Pd8 Sb3 2.678738 1_555
Pd8 Sb2 2.715189 1_555
Pd9 Sb7 2.614880 1_555
Pd9 Sb2 2.678784 1_655
Pd9 Sb2 2.678810 1_555
Pd9 Sb3 2.714904 1_555
Pd10 Pd9 2.781054 1_554
Pd10 Pd7 2.781070 1_555
Pd10 Sb2 2.813341 1_654
Pd10 Sb2 2.813347 1_554
Pd10 Sb0 2.813388 1_555
Pd10 Sb0 2.813389 1_655
Pd11 Pd6 2.781043 1_555
Pd11 Pd8 2.781182 1_555
Pd11 Sb3 2.813249 1_555
Pd11 Sb3 2.813280 1_455
Pd11 Sb1 2.813407 1_555
Pd11 Sb1 2.813419 1_455
