# generated using pymatgen
data_USnTe
_symmetry_space_group_name_H-M   'P 1'
_cell_length_a   4.27904199
_cell_length_b   4.27904199
_cell_length_c   9.41011482
_cell_angle_alpha   90.00000000
_cell_angle_beta   90.00000000
_cell_angle_gamma   90.00000000
_symmetry_Int_Tables_number   1
_chemical_formula_structural   USnTe
_chemical_formula_sum   'U2 Sn2 Te2'
_cell_volume   172.30108769
_cell_formula_units_Z   2
loop_
 _symmetry_equiv_pos_site_id
 _symmetry_equiv_pos_as_xyz
  1  'x, y, z'
loop_
 _atom_site_type_symbol
 _atom_site_label
 _atom_site_symmetry_multiplicity
 _atom_site_fract_x
 _atom_site_fract_y
 _atom_site_fract_z
 _atom_site_occupancy
  U  U0  1  0.50000000  -0.00000000  0.27444863  1
  U  U1  1  -0.00000000  0.50000000  0.72555137  1
  Sn  Sn0  1  0.50000000  0.50000000  -0.00000000  1
  Sn  Sn1  1  -0.00000000  0.00000000  -0.00000000  1
  Te  Te0  1  0.50000000  -0.00000000  0.62851374  1
  Te  Te1  1  0.00000000  0.50000000  0.37148626  1
loop_
_geom_bond_atom_site_label_1
_geom_bond_atom_site_label_2
_geom_bond_distance
_geom_bond_site_symmetry_2
Sn0 Sn1 3.025740 1_565
Sn0 Sn1 3.025740 1_555
Sn0 Sn1 3.025740 1_655
Sn0 Sn1 3.025740 1_665
Sn0 U1 3.353705 1_654
Sn0 U1 3.353705 1_554
Sn0 U0 3.353705 1_555
Sn0 U0 3.353705 1_565
Sn1 U1 3.353705 1_554
Sn1 U1 3.353705 1_544
Sn1 U0 3.353705 1_555
Sn1 U0 3.353705 1_455
Te0 U1 3.160525 1_655
Te0 U1 3.160525 1_545
Te0 U1 3.160525 1_645
Te0 U1 3.160525 1_555
Te0 U0 3.331793 1_555
Te1 U0 3.160525 1_465
Te1 U0 3.160525 1_565
Te1 U0 3.160525 1_555
Te1 U0 3.160525 1_455
Te1 U1 3.331793 1_555
