# generated using pymatgen
data_LiPr2C2N4F3
_symmetry_space_group_name_H-M   'P 1'
_cell_length_a   6.72721039
_cell_length_b   6.72721039
_cell_length_c   8.59916232
_cell_angle_alpha   68.06105299
_cell_angle_beta   68.06105299
_cell_angle_gamma   59.13352283
_symmetry_Int_Tables_number   1
_chemical_formula_structural   LiPr2C2N4F3
_chemical_formula_sum   'Li2 Pr4 C4 N8 F6'
_cell_volume   301.65167555
_cell_formula_units_Z   2
loop_
 _symmetry_equiv_pos_site_id
 _symmetry_equiv_pos_as_xyz
  1  'x, y, z'
loop_
 _atom_site_type_symbol
 _atom_site_label
 _atom_site_symmetry_multiplicity
 _atom_site_fract_x
 _atom_site_fract_y
 _atom_site_fract_z
 _atom_site_occupancy
  Li  Li0  1  0.90691600  0.09308400  0.25000000  1
  Li  Li1  1  0.09308400  0.90691600  0.75000000  1
  Pr  Pr0  1  0.29061400  0.28261700  0.33214000  1
  Pr  Pr1  1  0.70938600  0.71738300  0.66786000  1
  Pr  Pr2  1  0.71738300  0.70938600  0.16786000  1
  Pr  Pr3  1  0.28261700  0.29061400  0.83214000  1
  C  C0  1  0.27397700  0.77457800  0.04638900  1
  C  C1  1  0.77457800  0.27397700  0.54638900  1
  C  C2  1  0.22542200  0.72602300  0.45361100  1
  C  C3  1  0.72602300  0.22542200  0.95361100  1
  N  N0  1  0.43524800  0.83906900  0.96267200  1
  N  N1  1  0.28867900  0.88430400  0.36749900  1
  N  N2  1  0.56475200  0.16093100  0.03732800  1
  N  N3  1  0.11569600  0.71132100  0.13250100  1
  N  N4  1  0.83906900  0.43524800  0.46267200  1
  N  N5  1  0.88430400  0.28867900  0.86749900  1
  N  N6  1  0.16093100  0.56475200  0.53732800  1
  N  N7  1  0.71132100  0.11569600  0.63250100  1
  F  F0  1  0.39730300  0.60269700  0.75000000  1
  F  F1  1  0.69107600  0.93575400  0.36595400  1
  F  F2  1  0.60269700  0.39730300  0.25000000  1
  F  F3  1  0.93575400  0.69107600  0.86595400  1
  F  F4  1  0.30892400  0.06424600  0.63404600  1
  F  F5  1  0.06424600  0.30892400  0.13404600  1
loop_
_geom_bond_atom_site_label_1
_geom_bond_atom_site_label_2
_geom_bond_distance
_geom_bond_site_symmetry_2
C0 N3 1.226168 1_555
C0 N0 1.244772 1_554
C1 N7 1.226168 1_555
C1 N4 1.244772 1_555
C2 N1 1.226168 1_555
C2 N6 1.244772 1_555
C3 N5 1.226168 1_555
C3 N2 1.244772 1_556
N0 Pr3 2.579637 1_565
N0 Pr1 2.646926 1_555
N0 Pr2 2.670184 1_556
N1 Pr0 2.587772 1_565
N1 Pr2 2.641392 1_555
N2 Pr2 2.579637 1_545
N2 Pr0 2.646926 1_555
N2 Pr3 2.670184 1_554
N3 Pr2 2.587772 1_455
N3 Pr0 2.641392 1_555
N4 Pr0 2.579637 1_655
N4 Pr2 2.646926 1_555
N4 Pr1 2.670184 1_555
N5 Pr3 2.587772 1_655
N5 Pr1 2.641392 1_555
N6 Pr1 2.579637 1_455
N6 Pr3 2.646926 1_555
N6 Pr0 2.670184 1_555
N7 Pr1 2.587772 1_545
N7 Pr3 2.641392 1_555
F0 Li1 2.019684 1_555
F0 Pr1 2.376665 1_555
F0 Pr3 2.376665 1_555
F1 Li0 1.982210 1_565
F1 Pr1 2.473181 1_555
F1 Pr0 2.532822 1_565
F1 Pr2 2.586234 1_555
F2 Li0 2.019684 1_555
F2 Pr2 2.376665 1_555
F2 Pr0 2.376665 1_555
F3 Li1 1.982210 1_655
F3 Pr2 2.473181 1_556
F3 Pr3 2.532822 1_655
F3 Pr1 2.586234 1_555
F4 Li1 1.982210 1_545
F4 Pr0 2.473181 1_555
F4 Pr1 2.532822 1_545
F4 Pr3 2.586234 1_555
F5 Li0 1.982210 1_455
F5 Pr3 2.473181 1_554
F5 Pr2 2.532822 1_455
F5 Pr0 2.586234 1_555
