# generated using pymatgen
data_Fe2Ag(MoO4)3
_symmetry_space_group_name_H-M   'P 1'
_cell_length_a   7.02389500
_cell_length_b   7.06296587
_cell_length_c   11.30333709
_cell_angle_alpha   83.55168608
_cell_angle_beta   80.84749005
_cell_angle_gamma   81.75893863
_symmetry_Int_Tables_number   1
_chemical_formula_structural   Fe2Ag(MoO4)3
_chemical_formula_sum   'Fe4 Ag2 Mo6 O24'
_cell_volume   545.59344516
_cell_formula_units_Z   2
loop_
 _symmetry_equiv_pos_site_id
 _symmetry_equiv_pos_as_xyz
  1  'x, y, z'
loop_
 _atom_site_type_symbol
 _atom_site_label
 _atom_site_symmetry_multiplicity
 _atom_site_fract_x
 _atom_site_fract_y
 _atom_site_fract_z
 _atom_site_occupancy
  Fe  Fe0  1  0.17398100  0.81727700  0.50686800  1
  Fe  Fe1  1  0.77572000  0.76947900  0.11092700  1
  Fe  Fe2  1  0.22428000  0.23052100  0.88907300  1
  Fe  Fe3  1  0.82601900  0.18272300  0.49313200  1
  Ag  Ag0  1  0.40542900  0.15257900  0.20498000  1
  Ag  Ag1  1  0.59457100  0.84742100  0.79502000  1
  Mo  Mo0  1  0.70790800  0.71974200  0.45100500  1
  Mo  Mo1  1  0.29209200  0.28025800  0.54899500  1
  Mo  Mo2  1  0.89738000  0.23883300  0.14698700  1
  Mo  Mo3  1  0.71672700  0.28721700  0.81235700  1
  Mo  Mo4  1  0.28327300  0.71278300  0.18764300  1
  Mo  Mo5  1  0.10262000  0.76116700  0.85301300  1
  O  O0  1  0.49695800  0.78362100  0.08767600  1
  O  O1  1  0.78931200  0.47978700  0.49844900  1
  O  O2  1  0.46800800  0.78976900  0.52498100  1
  O  O3  1  0.75317100  0.14531400  0.68651300  1
  O  O4  1  0.50304200  0.21637900  0.91232400  1
  O  O5  1  0.53199200  0.21023100  0.47501900  1
  O  O6  1  0.93538400  0.24715800  0.88557200  1
  O  O7  1  0.85224300  0.81527000  0.92718300  1
  O  O8  1  0.26095400  0.93692500  0.87336700  1
  O  O9  1  0.29039800  0.26105300  0.71018100  1
  O  O10  1  0.87347600  0.87277300  0.48982600  1
  O  O11  1  0.32709000  0.46784700  0.23785500  1
  O  O12  1  0.67291000  0.53215300  0.76214500  1
  O  O13  1  0.20109100  0.51935600  0.89708900  1
  O  O14  1  0.79890900  0.48064400  0.10291100  1
  O  O15  1  0.21068800  0.52021300  0.50155100  1
  O  O16  1  0.73904600  0.06307500  0.12663300  1
  O  O17  1  0.70960200  0.73894700  0.28981900  1
  O  O18  1  0.90870300  0.22254700  0.30185600  1
  O  O19  1  0.14775700  0.18473000  0.07281700  1
  O  O20  1  0.09129700  0.77745300  0.69814400  1
  O  O21  1  0.06461600  0.75284200  0.11442800  1
  O  O22  1  0.12652400  0.12722700  0.51017400  1
  O  O23  1  0.24682900  0.85468600  0.31348700  1
loop_
_geom_bond_atom_site_label_1
_geom_bond_atom_site_label_2
_geom_bond_distance
_geom_bond_site_symmetry_2
Fe0 O15 2.083422 1_555
Fe0 O2 2.086942 1_555
Fe0 O10 2.126282 1_455
Fe0 O20 2.145152 1_555
Fe0 O23 2.159350 1_555
Fe0 O22 2.170294 1_565
Fe1 O17 1.995744 1_555
Fe1 O0 2.003630 1_555
Fe1 O21 2.022145 1_655
Fe1 O14 2.034216 1_555
Fe1 O7 2.061776 1_554
Fe1 O16 2.076762 1_565
Fe2 O9 1.995744 1_555
Fe2 O4 2.003630 1_555
Fe2 O6 2.022145 1_455
Fe2 O13 2.034216 1_555
Fe2 O19 2.061776 1_556
Fe2 O8 2.076762 1_545
Fe3 O1 2.083422 1_555
Fe3 O5 2.086942 1_555
Fe3 O22 2.126282 1_655
Fe3 O18 2.145152 1_555
Fe3 O3 2.159350 1_555
Fe3 O10 2.170294 1_545
Ag0 O11 2.273484 1_555
Ag0 O16 2.390776 1_555
Ag0 O19 2.494986 1_555
Ag0 O23 2.613379 1_545
Ag1 O12 2.273484 1_555
Ag1 O8 2.390776 1_555
Ag1 O7 2.494986 1_555
Ag1 O3 2.613379 1_565
Mo0 O1 1.761375 1_555
Mo0 O2 1.785747 1_555
Mo0 O17 1.809989 1_555
Mo0 O10 1.828228 1_555
Mo1 O15 1.761375 1_555
Mo1 O5 1.785747 1_555
Mo1 O9 1.809989 1_555
Mo1 O22 1.828228 1_555
Mo2 O18 1.755100 1_555
Mo2 O14 1.795377 1_555
Mo2 O19 1.830821 1_655
Mo2 O16 1.836320 1_555
Mo3 O12 1.758424 1_555
Mo3 O3 1.795624 1_555
Mo3 O4 1.824446 1_555
Mo3 O6 1.830536 1_555
Mo4 O11 1.758424 1_555
Mo4 O23 1.795624 1_555
Mo4 O0 1.824446 1_555
Mo4 O21 1.830536 1_555
Mo5 O20 1.755100 1_555
Mo5 O13 1.795377 1_555
Mo5 O7 1.830821 1_455
Mo5 O8 1.836320 1_555
