# generated using pymatgen
data_Tm2NiAs2
_symmetry_space_group_name_H-M   'P 1'
_cell_length_a   4.04082890
_cell_length_b   4.04082890
_cell_length_c   13.94876792
_cell_angle_alpha   90.00000000
_cell_angle_beta   90.00000000
_cell_angle_gamma   120.00000750
_symmetry_Int_Tables_number   1
_chemical_formula_structural   Tm2NiAs2
_chemical_formula_sum   'Tm4 Ni2 As4'
_cell_volume   197.24562091
_cell_formula_units_Z   2
loop_
 _symmetry_equiv_pos_site_id
 _symmetry_equiv_pos_as_xyz
  1  'x, y, z'
loop_
 _atom_site_type_symbol
 _atom_site_label
 _atom_site_symmetry_multiplicity
 _atom_site_fract_x
 _atom_site_fract_y
 _atom_site_fract_z
 _atom_site_occupancy
  Tm  Tm0  1  0.33333300  0.66666700  0.87955832  1
  Tm  Tm1  1  0.66666700  0.33333300  0.37955832  1
  Tm  Tm2  1  0.66666700  0.33333300  0.11465807  1
  Tm  Tm3  1  0.33333300  0.66666700  0.61465807  1
  Ni  Ni0  1  0.00000000  -0.00000000  0.74413600  1
  Ni  Ni1  1  -0.00000000  0.00000000  0.24413600  1
  As  As0  1  -0.00000000  0.00000000  0.49728163  1
  As  As1  1  -0.00000000  0.00000000  -0.00271837  1
  As  As2  1  0.66666700  0.33333300  0.74803498  1
  As  As3  1  0.33333300  0.66666700  0.24803498  1
loop_
_geom_bond_atom_site_label_1
_geom_bond_atom_site_label_2
_geom_bond_distance
_geom_bond_site_symmetry_2
Ni0 Tm3 2.950356 1_545
Ni0 Tm3 2.950358 1_555
Ni0 Tm3 2.950358 1_445
Ni0 Tm0 3.001829 1_545
Ni0 Tm0 3.001832 1_555
Ni0 Tm0 3.001832 1_445
Ni1 Tm2 2.950356 1_455
Ni1 Tm2 2.950358 1_445
Ni1 Tm2 2.950358 1_555
Ni1 Tm1 3.001829 1_455
Ni1 Tm1 3.001832 1_555
Ni1 Tm1 3.001832 1_445
As0 Tm3 2.850152 1_545
As0 Tm3 2.850154 1_445
As0 Tm3 2.850154 1_555
As0 Tm1 2.852934 1_455
As0 Tm1 2.852937 1_445
As0 Tm1 2.852937 1_555
As1 Tm2 2.850152 1_455
As1 Tm2 2.850154 1_555
As1 Tm2 2.850154 1_445
As1 Tm0 2.852934 1_544
As1 Tm0 2.852937 1_554
As1 Tm0 2.852937 1_444
As2 Ni0 2.333605 1_655
As2 Ni0 2.333608 1_665
As2 Ni0 2.333608 1_555
As2 Tm0 2.967907 1_545
As2 Tm0 2.967907 1_655
As2 Tm0 2.967912 1_555
As2 Tm3 2.983958 1_545
As2 Tm3 2.983958 1_655
As2 Tm3 2.983964 1_555
As3 Ni1 2.333605 1_565
As3 Ni1 2.333608 1_555
As3 Ni1 2.333608 1_665
As3 Tm1 2.967907 1_455
As3 Tm1 2.967907 1_565
As3 Tm1 2.967912 1_555
As3 Tm2 2.983958 1_455
As3 Tm2 2.983958 1_565
As3 Tm2 2.983964 1_555
