# generated using pymatgen
data_LiFe(SiO3)2
_symmetry_space_group_name_H-M   'P 1'
_cell_length_a   6.60109354
_cell_length_b   6.60109354
_cell_length_c   5.36274093
_cell_angle_alpha   74.65162882
_cell_angle_beta   74.65162882
_cell_angle_gamma   83.62843159
_symmetry_Int_Tables_number   1
_chemical_formula_structural   LiFe(SiO3)2
_chemical_formula_sum   'Li2 Fe2 Si4 O12'
_cell_volume   217.09660800
_cell_formula_units_Z   2
loop_
 _symmetry_equiv_pos_site_id
 _symmetry_equiv_pos_as_xyz
  1  'x, y, z'
loop_
 _atom_site_type_symbol
 _atom_site_label
 _atom_site_symmetry_multiplicity
 _atom_site_fract_x
 _atom_site_fract_y
 _atom_site_fract_z
 _atom_site_occupancy
  Li  Li0  1  0.74808700  0.25191300  0.25000000  1
  Li  Li1  1  0.25191300  0.74808700  0.75000000  1
  Fe  Fe0  1  0.10300400  0.89699600  0.25000000  1
  Fe  Fe1  1  0.89699600  0.10300400  0.75000000  1
  Si  Si0  1  0.61492000  0.79325200  0.26869500  1
  Si  Si1  1  0.38508000  0.20674800  0.73130500  1
  Si  Si2  1  0.79325200  0.61492000  0.76869500  1
  Si  Si3  1  0.20674800  0.38508000  0.23130500  1
  O  O0  1  0.96938100  0.79884100  0.65008000  1
  O  O1  1  0.35009400  0.35735300  0.94002100  1
  O  O2  1  0.64264700  0.64990600  0.55997900  1
  O  O3  1  0.64990600  0.64264700  0.05997900  1
  O  O4  1  0.35735300  0.35009400  0.44002100  1
  O  O5  1  0.62503200  0.11243000  0.67147400  1
  O  O6  1  0.03061900  0.20115900  0.34992000  1
  O  O7  1  0.79884100  0.96938100  0.15008000  1
  O  O8  1  0.88757000  0.37496800  0.82852600  1
  O  O9  1  0.37496800  0.88757000  0.32852600  1
  O  O10  1  0.11243000  0.62503200  0.17147400  1
  O  O11  1  0.20115900  0.03061900  0.84992000  1
loop_
_geom_bond_atom_site_label_1
_geom_bond_atom_site_label_2
_geom_bond_distance
_geom_bond_site_symmetry_2
Li0 O6 2.042790 1_655
Li0 O7 2.042790 1_545
Li0 O8 2.169961 1_554
Li0 O5 2.169961 1_555
Li0 O4 2.588111 1_555
Li0 O3 2.588111 1_555
Li1 O11 2.042790 1_565
Li1 O0 2.042790 1_455
Li1 O9 2.169961 1_555
Li1 O10 2.169961 1_556
Li1 O1 2.588111 1_555
Li1 O2 2.588111 1_555
Fe0 O9 1.940545 1_555
Fe0 O10 1.940545 1_555
Fe0 O11 2.047004 1_564
Fe0 O0 2.047004 1_455
Fe0 O7 2.183530 1_455
Fe0 O6 2.183530 1_565
Fe1 O8 1.940545 1_555
Fe1 O5 1.940545 1_555
Fe1 O6 2.047004 1_655
Fe1 O7 2.047004 1_546
Fe1 O0 2.183530 1_545
Fe1 O11 2.183530 1_655
O0 Si2 1.656298 1_555
O1 Si1 1.641876 1_555
O1 Si3 1.642987 1_556
O2 Si2 1.641876 1_555
O2 Si0 1.642987 1_555
O3 Si0 1.641876 1_555
O3 Si2 1.642987 1_554
O4 Si3 1.641876 1_555
O4 Si1 1.642987 1_555
O5 Si1 1.617806 1_555
O6 Si3 1.656298 1_555
O7 Si0 1.656298 1_555
O8 Si2 1.617806 1_555
O9 Si0 1.617806 1_555
O10 Si3 1.617806 1_555
O11 Si1 1.656298 1_555
