# generated using pymatgen
data_Ba2LaRuO6
_symmetry_space_group_name_H-M   'P 1'
_cell_length_a   6.09156589
_cell_length_b   6.09156589
_cell_length_c   6.15128768
_cell_angle_alpha   60.01989194
_cell_angle_beta   60.01989194
_cell_angle_gamma   59.89580796
_symmetry_Int_Tables_number   1
_chemical_formula_structural   Ba2LaRuO6
_chemical_formula_sum   'Ba2 La1 Ru1 O6'
_cell_volume   161.32292828
_cell_formula_units_Z   1
loop_
 _symmetry_equiv_pos_site_id
 _symmetry_equiv_pos_as_xyz
  1  'x, y, z'
loop_
 _atom_site_type_symbol
 _atom_site_label
 _atom_site_symmetry_multiplicity
 _atom_site_fract_x
 _atom_site_fract_y
 _atom_site_fract_z
 _atom_site_occupancy
  Ba  Ba0  1  0.75115700  0.75115700  0.24565000  1
  Ba  Ba1  1  0.24884300  0.24884300  0.75435000  1
  La  La0  1  0.00000000  0.00000000  0.50000000  1
  Ru  Ru0  1  0.50000000  0.50000000  0.00000000  1
  O  O0  1  0.27267000  0.27267000  0.27830000  1
  O  O1  1  0.72733000  0.72733000  0.72170000  1
  O  O2  1  0.24765100  0.70182400  0.79470700  1
  O  O3  1  0.75234900  0.29817600  0.20529300  1
  O  O4  1  0.70182400  0.24765100  0.79470700  1
  O  O5  1  0.29817600  0.75234900  0.20529300  1
loop_
_geom_bond_atom_site_label_1
_geom_bond_atom_site_label_2
_geom_bond_distance
_geom_bond_site_symmetry_2
Ba0 O1 2.790839 1_555
Ba0 O3 2.887639 1_555
Ba0 O5 2.887639 1_555
Ba0 O4 2.910132 1_564
Ba0 O2 2.910132 1_654
Ba0 O0 3.064655 1_565
Ba0 O0 3.064655 1_655
Ba0 O3 3.218852 1_565
Ba0 O5 3.218852 1_655
Ba0 O2 3.234511 1_555
Ba0 O4 3.234511 1_555
Ba0 O1 3.374286 1_554
Ba1 O0 2.790839 1_555
Ba1 O2 2.887639 1_555
Ba1 O4 2.887639 1_555
Ba1 O3 2.910132 1_456
Ba1 O5 2.910132 1_546
Ba1 O1 3.064655 1_545
Ba1 O1 3.064655 1_455
Ba1 O2 3.218852 1_545
Ba1 O4 3.218852 1_455
Ba1 O5 3.234511 1_555
Ba1 O3 3.234511 1_555
Ba1 O0 3.374286 1_556
La0 O2 2.356896 1_545
La0 O4 2.356896 1_455
La0 O5 2.356896 1_545
La0 O3 2.356896 1_455
La0 O1 2.370131 1_445
La0 O0 2.370131 1_555
O0 Ru0 1.987764 1_555
O1 Ru0 1.987764 1_556
O2 Ru0 1.990423 1_556
O3 Ru0 1.990423 1_555
O4 Ru0 1.990423 1_556
O5 Ru0 1.990423 1_555
