# generated using pymatgen
data_Ce2SiSeO4
_symmetry_space_group_name_H-M   'P 1'
_cell_length_a   6.28538800
_cell_length_b   7.26030100
_cell_length_c   11.17910300
_cell_angle_alpha   90.00000000
_cell_angle_beta   90.00000000
_cell_angle_gamma   90.00000000
_symmetry_Int_Tables_number   1
_chemical_formula_structural   Ce2SiSeO4
_chemical_formula_sum   'Ce8 Si4 Se4 O16'
_cell_volume   510.14504865
_cell_formula_units_Z   4
loop_
 _symmetry_equiv_pos_site_id
 _symmetry_equiv_pos_as_xyz
  1  'x, y, z'
loop_
 _atom_site_type_symbol
 _atom_site_label
 _atom_site_symmetry_multiplicity
 _atom_site_fract_x
 _atom_site_fract_y
 _atom_site_fract_z
 _atom_site_occupancy
  Ce  Ce0  1  0.13221800  0.03447200  0.25000000  1
  Ce  Ce1  1  0.13221800  0.46552800  0.75000000  1
  Ce  Ce2  1  0.86778200  0.53447200  0.25000000  1
  Ce  Ce3  1  0.86778200  0.96552800  0.75000000  1
  Ce  Ce4  1  0.60746200  0.25000000  0.00000000  1
  Ce  Ce5  1  0.39253800  0.75000000  0.50000000  1
  Ce  Ce6  1  0.39253800  0.75000000  0.00000000  1
  Ce  Ce7  1  0.60746200  0.25000000  0.50000000  1
  Si  Si0  1  0.11296400  0.25000000  0.00000000  1
  Si  Si1  1  0.88703600  0.75000000  0.50000000  1
  Si  Si2  1  0.88703600  0.75000000  0.00000000  1
  Si  Si3  1  0.11296400  0.25000000  0.50000000  1
  Se  Se0  1  0.42417800  0.38915700  0.25000000  1
  Se  Se1  1  0.42417800  0.11084300  0.75000000  1
  Se  Se2  1  0.57582200  0.88915700  0.25000000  1
  Se  Se3  1  0.57582200  0.61084300  0.75000000  1
  O  O0  1  0.04677900  0.76553700  0.11732500  1
  O  O1  1  0.04677900  0.73446300  0.88267500  1
  O  O2  1  0.95322100  0.26553700  0.38267500  1
  O  O3  1  0.95322100  0.23446300  0.61732500  1
  O  O4  1  0.95322100  0.23446300  0.88267500  1
  O  O5  1  0.95322100  0.26553700  0.11732500  1
  O  O6  1  0.04677900  0.73446300  0.61732500  1
  O  O7  1  0.04677900  0.76553700  0.38267500  1
  O  O8  1  0.27005600  0.07513900  0.03160200  1
  O  O9  1  0.27005600  0.42486100  0.96839800  1
  O  O10  1  0.72994400  0.57513900  0.46839800  1
  O  O11  1  0.72994400  0.92486100  0.53160200  1
  O  O12  1  0.72994400  0.92486100  0.96839800  1
  O  O13  1  0.72994400  0.57513900  0.03160200  1
  O  O14  1  0.27005600  0.42486100  0.53160200  1
  O  O15  1  0.27005600  0.07513900  0.46839800  1
loop_
_geom_bond_atom_site_label_1
_geom_bond_atom_site_label_2
_geom_bond_distance
_geom_bond_site_symmetry_2
Ce0 O2 2.505986 1_455
Ce0 O5 2.505986 1_455
Ce0 O0 2.510116 1_545
Ce0 O7 2.510116 1_545
Ce0 O15 2.607423 1_555
Ce0 O8 2.607423 1_555
Ce0 Se2 2.981154 1_545
Ce0 Se0 3.162083 1_555
Ce1 O4 2.505986 1_455
Ce1 O3 2.505986 1_455
Ce1 O1 2.510116 1_555
Ce1 O6 2.510116 1_555
Ce1 O14 2.607423 1_555
Ce1 O9 2.607423 1_555
Ce1 Se3 2.981154 1_555
Ce1 Se1 3.162083 1_555
Ce2 O0 2.505986 1_655
Ce2 O7 2.505986 1_655
Ce2 O2 2.510116 1_555
Ce2 O5 2.510116 1_555
Ce2 O10 2.607423 1_555
Ce2 O13 2.607423 1_555
Ce2 Se0 2.981154 1_555
Ce2 Se2 3.162083 1_555
Ce3 O6 2.505986 1_655
Ce3 O1 2.505986 1_655
Ce3 O3 2.510116 1_565
Ce3 O4 2.510116 1_565
Ce3 O12 2.607423 1_555
Ce3 O11 2.607423 1_555
Ce3 Se1 2.981154 1_565
Ce3 Se3 3.162083 1_555
Ce4 O8 2.496805 1_555
Ce4 O9 2.496805 1_554
Ce4 O12 2.507975 1_544
Ce4 O13 2.507975 1_555
Ce4 O5 2.540849 1_555
Ce4 O4 2.540849 1_554
Ce4 Se0 3.187264 1_555
Ce4 Se1 3.187264 1_554
Ce5 O10 2.496805 1_555
Ce5 O11 2.496805 1_555
Ce5 O14 2.507975 1_555
Ce5 O15 2.507975 1_565
Ce5 O6 2.540849 1_555
Ce5 O7 2.540849 1_555
Ce5 Se3 3.187264 1_555
Ce5 Se2 3.187264 1_555
Ce6 O12 2.496805 1_554
Ce6 O13 2.496805 1_555
Ce6 O9 2.507975 1_554
Ce6 O8 2.507975 1_565
Ce6 O0 2.540849 1_555
Ce6 O1 2.540849 1_554
Ce6 Se3 3.187264 1_554
Ce6 Se2 3.187264 1_555
Ce7 O14 2.496805 1_555
Ce7 O15 2.496805 1_555
Ce7 O10 2.507975 1_555
Ce7 O11 2.507975 1_545
Ce7 O2 2.540849 1_555
Ce7 O3 2.540849 1_555
Ce7 Se0 3.187264 1_555
Ce7 Se1 3.187264 1_555
O0 Si2 1.655626 1_455
O1 Si2 1.655626 1_456
O2 Si3 1.655626 1_655
O3 Si3 1.655626 1_655
O4 Si0 1.655626 1_656
O5 Si0 1.655626 1_655
O6 Si1 1.655626 1_455
O7 Si1 1.655626 1_455
O8 Si0 1.646656 1_555
O9 Si0 1.646656 1_556
O10 Si1 1.646656 1_555
O11 Si1 1.646656 1_555
O12 Si2 1.646656 1_556
O13 Si2 1.646656 1_555
O14 Si3 1.646656 1_555
O15 Si3 1.646656 1_555
