# generated using pymatgen
data_Li5GeN3
_symmetry_space_group_name_H-M   'P 1'
_cell_length_a   8.31065800
_cell_length_b   8.37236164
_cell_length_c   21.11018592
_cell_angle_alpha   97.62779485
_cell_angle_beta   97.52950307
_cell_angle_gamma   109.22785438
_symmetry_Int_Tables_number   1
_chemical_formula_structural   Li5GeN3
_chemical_formula_sum   'Li80 Ge16 N48'
_cell_volume   1350.45623508
_cell_formula_units_Z   16
loop_
 _symmetry_equiv_pos_site_id
 _symmetry_equiv_pos_as_xyz
  1  'x, y, z'
loop_
 _atom_site_type_symbol
 _atom_site_label
 _atom_site_symmetry_multiplicity
 _atom_site_fract_x
 _atom_site_fract_y
 _atom_site_fract_z
 _atom_site_occupancy
  Li  Li0  1  0.39779600  0.88795600  0.06738000  1
  Li  Li1  1  0.90666000  0.88488100  0.08499000  1
  Li  Li2  1  0.17567400  0.65633100  0.08063400  1
  Li  Li3  1  0.32293200  0.57204400  0.17504300  1
  Li  Li4  1  0.01480300  0.52312000  0.24544800  1
  Li  Li5  1  0.66602000  0.64835700  0.08039900  1
  Li  Li6  1  0.42580600  0.66547800  0.33858500  1
  Li  Li7  1  0.52133100  0.51825300  0.25628400  1
  Li  Li8  1  0.41010600  0.44952300  0.08702500  1
  Li  Li9  1  0.08643700  0.32742000  0.17687800  1
  Li  Li10  1  0.56892000  0.54787000  0.41668900  1
  Li  Li11  1  0.83888100  0.33198800  0.42109600  1
  Li  Li12  1  0.83873400  0.61976400  0.17423900  1
  Li  Li13  1  0.84794600  0.08013700  0.15387100  1
  Li  Li14  1  0.99992500  0.27307400  0.50653500  1
  Li  Li15  1  0.71882900  0.19475200  0.59244800  1
  Li  Li16  1  0.33673800  0.31855700  0.42865000  1
  Li  Li17  1  0.57830500  0.36651800  0.16358500  1
  Li  Li18  1  0.28445100  0.24896500  0.23777000  1
  Li  Li19  1  0.90042300  0.13708100  0.33224900  1
  Li  Li20  1  0.67859100  0.41909100  0.33865900  1
  Li  Li21  1  0.06980000  0.33265600  0.67842500  1
  Li  Li22  1  0.72637300  0.23085400  0.73824900  1
  Li  Li23  1  0.07236000  0.11439900  0.42707400  1
  Li  Li24  1  0.76048800  0.00242700  0.51027000  1
  Li  Li25  1  0.59350100  0.06950400  0.91850800  1
  Li  Li26  1  0.42566200  0.19664100  0.33305000  1
  Li  Li27  1  0.23308700  0.21571200  0.75416800  1
  Li  Li28  1  0.51440400  0.98543300  0.75205400  1
  Li  Li29  1  0.00657100  0.01490600  0.23754500  1
  Li  Li30  1  0.63811000  0.14315700  0.08970000  1
  Li  Li31  1  0.35873900  0.07644100  0.15994000  1
  Li  Li32  1  0.51413500  0.26835600  0.51617100  1
  Li  Li33  1  0.84167400  0.06298900  0.66848800  1
  Li  Li34  1  0.49742300  0.73734600  0.48921900  1
  Li  Li35  1  0.47763700  0.00692500  0.25089200  1
  Li  Li36  1  0.76830800  0.76858800  0.25708900  1
  Li  Li37  1  0.66900500  0.91479800  0.84507500  1
  Li  Li38  1  0.36083700  0.84548000  0.92006900  1
  Li  Li39  1  0.00538400  0.97653500  0.75011900  1
  Li  Li40  1  0.58175000  0.81648500  0.66351300  1
  Li  Li41  1  0.73485600  0.97860600  0.00649300  1
  Li  Li42  1  0.24906600  0.01051400  0.49190900  1
  Li  Li43  1  0.34963900  0.08175600  0.67834700  1
  Li  Li44  1  0.92261700  0.90688500  0.58203900  1
  Li  Li45  1  0.11132600  0.83512700  0.16625100  1
  Li  Li46  1  0.84533700  0.85614800  0.92399800  1
  Li  Li47  1  0.26371800  0.74775100  0.25288300  1
  Li  Li48  1  0.91446600  0.64991200  0.32876400  1
  Li  Li49  1  0.09457300  0.84647600  0.66407200  1
  Li  Li50  1  0.74398100  0.78304200  0.75522100  1
  Li  Li51  1  0.42877900  0.66985300  0.84529900  1
  Li  Li52  1  0.63911400  0.90981500  0.32314800  1
  Li  Li53  1  0.67104000  0.68579600  0.57326300  1
  Li  Li54  1  0.30324400  0.79980600  0.41825500  1
  Li  Li55  1  0.00171100  0.74484400  0.49749600  1
  Li  Li56  1  0.18115300  0.94667500  0.84500500  1
  Li  Li57  1  0.49669700  0.72172400  0.99333900  1
  Li  Li58  1  0.18075200  0.42076700  0.82283400  1
  Li  Li59  1  0.43605900  0.45847100  0.58372300  1
  Li  Li60  1  0.06867300  0.56287800  0.41906700  1
  Li  Li61  1  0.15894300  0.67227900  0.57266200  1
  Li  Li62  1  0.91029500  0.70501300  0.83423900  1
  Li  Li63  1  0.00134700  0.75061800  0.00399000  1
  Li  Li64  1  0.24497400  0.47617300  0.99448600  1
  Li  Li65  1  0.61184700  0.59642000  0.91261500  1
  Li  Li66  1  0.76476500  0.50039500  0.50173500  1
  Li  Li67  1  0.24043600  0.50162800  0.49900600  1
  Li  Li68  1  0.93763100  0.43238000  0.58345300  1
  Li  Li69  1  0.56476600  0.31276700  0.65503800  1
  Li  Li70  1  0.75625800  0.51806000  0.99641900  1
  Li  Li71  1  0.30048400  0.58082000  0.65483900  1
  Li  Li72  1  0.34502700  0.34772900  0.90488900  1
  Li  Li73  1  0.96562000  0.48006500  0.76035700  1
  Li  Li74  1  0.68515500  0.41795700  0.83042600  1
  Li  Li75  1  0.80836700  0.33290400  0.91604700  1
  Li  Li76  1  0.10134200  0.10473100  0.92282000  1
  Li  Li77  1  0.44475100  0.16448800  0.83362600  1
  Li  Li78  1  0.96584100  0.23166500  0.99083500  1
  Li  Li79  1  0.23295000  0.97382800  0.99002100  1
  Ge  Ge0  1  0.90265100  0.41275800  0.08671400  1
  Ge  Ge1  1  0.75078700  0.24761400  0.24360200  1
  Ge  Ge2  1  0.17122500  0.40501800  0.32983100  1
  Ge  Ge3  1  0.56681000  0.08116300  0.42164000  1
  Ge  Ge4  1  0.15201300  0.15656500  0.08056800  1
  Ge  Ge5  1  0.17949800  0.18082100  0.58585700  1
  Ge  Ge6  1  0.42969800  0.92762900  0.58231000  1
  Ge  Ge7  1  0.15498300  0.93132600  0.33388900  1
  Ge  Ge8  1  0.23225200  0.74180400  0.75550800  1
  Ge  Ge9  1  0.81086800  0.82516400  0.41374500  1
  Ge  Ge10  1  0.57511800  0.83031100  0.16290800  1
  Ge  Ge11  1  0.07787500  0.58349400  0.91413600  1
  Ge  Ge12  1  0.82021000  0.59315700  0.66648300  1
  Ge  Ge13  1  0.48021800  0.49087400  0.74592500  1
  Ge  Ge14  1  0.48792500  0.25873300  0.99984400  1
  Ge  Ge15  1  0.91155400  0.16739400  0.82921300  1
  N  N0  1  0.65449700  0.90105500  0.08927300  1
  N  N1  1  0.92228100  0.63956000  0.08783700  1
  N  N2  1  0.58781500  0.61432700  0.17254800  1
  N  N3  1  0.83255900  0.33767700  0.16819100  1
  N  N4  1  0.67797400  0.67714900  0.33847100  1
  N  N5  1  0.30700700  0.54896900  0.40717800  1
  N  N6  1  0.25178500  0.48715200  0.25786800  1
  N  N7  1  0.13116200  0.39012700  0.08436400  1
  N  N8  1  0.92277200  0.38980900  0.32188100  1
  N  N9  1  0.58218400  0.30591600  0.42087800  1
  N  N10  1  0.25422300  0.25699500  0.51196200  1
  N  N11  1  0.53553300  0.26272300  0.24957000  1
  N  N12  1  0.73481800  0.25899100  0.01295800  1
  N  N13  1  0.39827900  0.18364600  0.07790200  1
  N  N14  1  0.49665500  0.99432100  0.49748600  1
  N  N15  1  0.32833400  0.33388600  0.66689200  1
  N  N16  1  0.16211100  0.16521000  0.33456800  1
  N  N17  1  0.95110500  0.16547300  0.58818200  1
  N  N18  1  0.98801100  0.23721900  0.75437600  1
  N  N19  1  0.10384200  0.08659700  0.15875500  1
  N  N20  1  0.57947400  0.06987500  0.65623200  1
  N  N21  1  0.25880400  0.96979300  0.75354600  1
  N  N22  1  0.79260500  0.05689300  0.41334200  1
  N  N23  1  0.92688300  0.95120700  0.83760400  1
  N  N24  1  0.74144100  0.01261800  0.24184300  1
  N  N25  1  0.39678500  0.93170800  0.34369700  1
  N  N26  1  0.19743100  0.94620300  0.58295900  1
  N  N27  1  0.06355100  0.85619000  0.40954000  1
  N  N28  1  0.02631800  0.77960000  0.25822100  1
  N  N29  1  0.35134700  0.82880000  0.16734700  1
  N  N30  1  0.15990000  0.66864100  0.83335200  1
  N  N31  1  0.00856700  0.00970700  0.00734600  1
  N  N32  1  0.83435800  0.81761800  0.66563400  1
  N  N33  1  0.45771800  0.71467600  0.74496200  1
  N  N34  1  0.59308500  0.83078000  0.92085800  1
  N  N35  1  0.23281300  0.72055900  0.98916100  1
  N  N36  1  0.75616100  0.75495800  0.49014900  1
  N  N37  1  0.41440400  0.69802100  0.57698500  1
  N  N38  1  0.85644100  0.58833100  0.91361800  1
  N  N39  1  0.68904100  0.43934300  0.59095400  1
  N  N40  1  0.72024900  0.51295500  0.74136700  1
  N  N41  1  0.06257700  0.58957700  0.67959000  1
  N  N42  1  0.00064300  0.50413100  0.49890200  1
  N  N43  1  0.49789800  0.48143400  0.99955000  1
  N  N44  1  0.42683400  0.41327300  0.82059000  1
  N  N45  1  0.07203000  0.34432700  0.90716700  1
  N  N46  1  0.35810800  0.10553200  0.92452100  1
  N  N47  1  0.68575000  0.16506400  0.83066700  1
loop_
_geom_bond_atom_site_label_1
_geom_bond_atom_site_label_2
_geom_bond_distance
_geom_bond_site_symmetry_2
Li0 N35 2.024185 1_554
Li0 N0 2.085875 1_555
Li0 N29 2.283157 1_555
Li0 N13 2.454650 1_565
Li1 N1 2.108408 1_555
Li1 N0 2.156743 1_555
Li1 N31 2.175232 1_665
Li1 N19 2.184642 1_665
Li2 N1 2.091010 1_455
Li2 N35 2.142721 1_554
Li2 N7 2.149787 1_555
Li2 N29 2.185575 1_555
Li3 N6 2.058130 1_555
Li3 N29 2.114613 1_555
Li3 N2 2.120400 1_555
Li3 N7 2.313389 1_555
Li4 N6 2.077145 1_555
Li4 N28 2.096932 1_555
Li4 N3 2.120362 1_455
Li4 N8 2.161804 1_455
Li5 N43 2.067356 1_554
Li5 N0 2.133845 1_555
Li5 N1 2.141130 1_555
Li5 N2 2.155046 1_555
Li6 N5 2.034287 1_555
Li6 N4 2.065900 1_555
Li6 N6 2.116772 1_555
Li6 N25 2.309803 1_555
Li7 N4 2.032071 1_555
Li7 N2 2.101832 1_555
Li7 N11 2.168227 1_555
Li7 N6 2.173647 1_555
Li8 N43 2.090303 1_554
Li8 N2 2.154578 1_555
Li8 N13 2.176931 1_555
Li8 N7 2.196291 1_555
Li9 N6 2.041264 1_555
Li9 N19 2.057765 1_555
Li9 N3 2.124799 1_455
Li9 N7 2.135851 1_555
Li10 N9 2.077406 1_555
Li10 N5 2.162738 1_555
Li10 N36 2.170059 1_555
Li10 N4 2.222591 1_555
Li11 N42 2.024593 1_655
Li11 N9 2.071032 1_555
Li11 N22 2.186185 1_555
Li11 N8 2.353017 1_555
Li12 N1 2.042733 1_555
Li12 N2 2.066245 1_555
Li12 N28 2.153130 1_655
Li12 N3 2.331336 1_555
Li13 N0 1.996817 1_545
Li13 N19 2.097988 1_655
Li13 N3 2.185340 1_555
Li13 N24 2.220759 1_555
Li14 N42 1.960526 1_655
Li14 N17 2.074046 1_555
Li14 N10 2.150736 1_655
Li14 N22 2.495448 1_555
Li15 N17 2.036145 1_555
Li15 N20 2.057255 1_555
Li15 N39 2.145876 1_555
Li15 N14 2.517934 1_545
Li16 N10 2.037885 1_555
Li16 N9 2.103394 1_555
Li16 N5 2.122413 1_555
Li16 N16 2.244886 1_555
Li17 N2 2.032359 1_555
Li17 N11 2.135586 1_555
Li17 N3 2.195690 1_555
Li17 N13 2.213846 1_555
Li18 N11 2.031577 1_555
Li18 N19 2.069098 1_555
Li18 N6 2.095863 1_555
Li18 N16 2.481194 1_555
Li19 N24 2.092426 1_555
Li19 N16 2.102214 1_655
Li19 N8 2.105780 1_555
Li19 N22 2.120156 1_555
Li20 N11 2.097523 1_555
Li20 N4 2.162778 1_555
Li20 N8 2.190120 1_555
Li20 N9 2.203018 1_555
Li21 N18 1.984733 1_455
Li21 N17 2.109895 1_455
Li21 N41 2.168537 1_555
Li21 N15 2.190660 1_555
Li22 N20 2.011828 1_555
Li22 N47 2.135192 1_555
Li22 N18 2.138118 1_555
Li22 N40 2.371507 1_555
Li23 N10 2.110610 1_555
Li23 N27 2.119447 1_545
Li23 N22 2.184094 1_455
Li23 N16 2.223534 1_555
Li24 N36 2.046405 1_545
Li24 N17 2.091634 1_555
Li24 N14 2.151068 1_545
Li24 N22 2.185557 1_555
Li25 N34 2.004751 1_545
Li25 N46 2.092288 1_555
Li25 N47 2.242512 1_555
Li25 N12 2.278373 1_556
Li26 N9 2.024953 1_555
Li26 N16 2.123350 1_555
Li26 N11 2.143195 1_555
Li26 N25 2.196365 1_545
Li27 N44 2.081596 1_555
Li27 N18 2.103439 1_455
Li27 N21 2.137383 1_545
Li27 N15 2.313062 1_555
Li28 N47 2.085947 1_565
Li28 N21 2.089451 1_555
Li28 N33 2.138014 1_555
Li28 N20 2.301864 1_565
Li29 N19 2.019418 1_555
Li29 N28 2.126278 1_545
Li29 N24 2.211028 1_455
Li29 N16 2.236070 1_555
Li30 N0 2.074730 1_545
Li30 N12 2.110908 1_555
Li30 N13 2.118241 1_555
Li30 N3 2.204022 1_555
Li31 N13 2.068911 1_555
Li31 N29 2.081262 1_545
Li31 N19 2.144907 1_555
Li31 N11 2.269353 1_555
Li32 N39 2.020538 1_555
Li32 N10 2.120105 1_555
Li32 N9 2.194177 1_555
Li32 N14 2.228408 1_545
Li33 N32 2.027691 1_545
Li33 N18 2.108504 1_555
Li33 N17 2.171062 1_555
Li33 N20 2.181168 1_555
Li34 N37 2.089129 1_555
Li34 N36 2.103610 1_555
Li34 N14 2.137535 1_555
Li34 N5 2.214471 1_555
Li35 N11 2.039499 1_555
Li35 N29 2.054699 1_545
Li35 N24 2.211032 1_555
Li35 N25 2.253904 1_545
Li36 N4 2.099951 1_555
Li36 N28 2.112483 1_655
Li36 N2 2.124537 1_555
Li36 N24 2.187220 1_565
Li37 N34 1.929559 1_555
Li37 N23 2.093294 1_555
Li37 N47 2.119070 1_565
Li37 N33 2.550818 1_555
Li38 N34 1.972162 1_555
Li38 N35 2.105226 1_555
Li38 N46 2.174517 1_565
Li38 N30 2.276553 1_555
Li39 N23 2.051818 1_455
Li39 N32 2.105096 1_455
Li39 N21 2.117422 1_555
Li39 N18 2.225149 1_465
Li40 N37 2.049196 1_555
Li40 N32 2.090802 1_555
Li40 N20 2.153338 1_565
Li40 N33 2.240598 1_555
Li41 N34 2.018756 1_554
Li41 N0 2.059806 1_555
Li41 N31 2.200083 1_665
Li41 N12 2.333400 1_565
Li42 N10 2.035848 1_555
Li42 N14 2.095366 1_545
Li42 N27 2.111601 1_545
Li42 N26 2.123011 1_545
Li43 N21 2.052230 1_545
Li43 N20 2.054936 1_555
Li43 N26 2.173275 1_545
Li43 N15 2.217271 1_555
Li44 N17 2.083237 1_565
Li44 N32 2.130506 1_555
Li44 N36 2.185690 1_555
Li44 N26 2.194621 1_655
Li45 N29 2.010006 1_555
Li45 N19 2.152609 1_565
Li45 N1 2.189509 1_455
Li45 N28 2.206223 1_555
Li46 N34 2.027534 1_555
Li46 N31 2.052842 1_666
Li46 N23 2.184699 1_555
Li46 N38 2.257303 1_555
Li47 N28 2.091203 1_555
Li47 N29 2.143762 1_555
Li47 N6 2.168516 1_555
Li47 N25 2.192948 1_555
Li48 N4 2.084502 1_555
Li48 N28 2.094740 1_655
Li48 N27 2.163465 1_655
Li48 N8 2.187645 1_555
Li49 N21 2.091642 1_555
Li49 N32 2.100662 1_455
Li49 N41 2.153453 1_555
Li49 N26 2.157061 1_555
Li50 N23 2.136567 1_555
Li50 N32 2.144520 1_555
Li50 N40 2.180212 1_555
Li50 N33 2.229236 1_555
Li51 N34 1.967488 1_555
Li51 N44 2.136462 1_555
Li51 N30 2.212163 1_555
Li51 N33 2.229403 1_555
Li52 N22 2.115474 1_565
Li52 N4 2.134889 1_555
Li52 N24 2.168527 1_565
Li52 N25 2.174535 1_555
Li53 N36 2.058975 1_555
Li53 N32 2.147339 1_555
Li53 N37 2.179704 1_555
Li53 N39 2.193785 1_555
Li54 N5 2.093054 1_555
Li54 N25 2.125510 1_555
Li54 N27 2.184300 1_555
Li54 N14 2.209414 1_555
Li55 N42 2.016608 1_555
Li55 N36 2.056688 1_455
Li55 N27 2.230427 1_555
Li55 N26 2.315187 1_555
Li56 N46 2.054607 1_565
Li56 N23 2.111662 1_455
Li56 N21 2.127216 1_555
Li56 N30 2.253033 1_555
Li57 N34 2.006708 1_555
Li57 N43 2.036546 1_555
Li57 N35 2.179985 1_555
Li57 N0 2.296810 1_556
Li58 N18 2.048969 1_455
Li58 N44 2.073100 1_555
Li58 N30 2.123863 1_555
Li58 N45 2.176824 1_555
Li59 N37 2.093277 1_555
Li59 N10 2.113441 1_555
Li59 N39 2.147878 1_555
Li59 N15 2.292393 1_555
Li60 N42 1.920553 1_555
Li60 N5 2.067418 1_555
Li60 N8 2.276089 1_455
Li60 N27 2.504099 1_555
Li61 N42 1.948975 1_555
Li61 N37 2.050547 1_555
Li61 N26 2.185286 1_555
Li62 N23 2.010996 1_555
Li62 N38 2.075041 1_555
Li62 N30 2.195648 1_655
Li62 N40 2.367001 1_555
Li63 N35 2.077851 1_554
Li63 N38 2.137287 1_454
Li63 N31 2.141577 1_565
Li63 N1 2.183719 1_455
Li64 N43 2.076175 1_555
Li64 N45 2.098241 1_555
Li64 N35 2.098478 1_555
Li64 N7 2.323340 1_556
Li65 N34 2.005640 1_555
Li65 N38 2.053492 1_555
Li65 N44 2.315777 1_555
Li65 N43 2.348537 1_555
Li66 N42 1.959125 1_655
Li66 N39 2.135170 1_555
Li66 N9 2.196186 1_555
Li66 N36 2.200347 1_555
Li67 N42 1.999554 1_555
Li67 N5 2.135790 1_555
Li67 N10 2.139613 1_555
Li67 N37 2.143750 1_555
Li68 N42 2.035518 1_655
Li68 N39 2.111686 1_555
Li68 N41 2.183491 1_655
Li68 N17 2.288501 1_555
Li69 N39 2.011403 1_555
Li69 N15 2.073809 1_555
Li69 N20 2.080275 1_555
Li69 N40 2.223860 1_555
Li70 N43 2.077866 1_555
Li70 N38 2.103906 1_555
Li70 N1 2.125889 1_556
Li70 N12 2.195697 1_556
Li71 N33 2.097836 1_555
Li71 N41 2.131573 1_555
Li71 N37 2.187315 1_555
Li71 N15 2.198164 1_555
Li72 N44 2.064174 1_555
Li72 N46 2.156820 1_555
Li72 N43 2.159746 1_555
Li72 N45 2.266473 1_555
Li73 N18 2.090850 1_555
Li73 N30 2.120657 1_655
Li73 N40 2.140039 1_555
Li73 N41 2.164586 1_655
Li74 N44 2.116374 1_555
Li74 N38 2.118414 1_555
Li74 N47 2.119624 1_555
Li74 N40 2.154097 1_555
Li75 N47 2.040777 1_555
Li75 N38 2.051165 1_555
Li75 N45 2.195469 1_655
Li75 N12 2.314426 1_556
Li76 N23 2.113184 1_445
Li76 N46 2.127268 1_555
Li76 N45 2.160842 1_555
Li76 N31 2.178245 1_556
Li77 N47 2.010443 1_555
Li77 N44 2.186816 1_555
Li77 N46 2.196223 1_555
Li77 N21 2.197190 1_545
Li78 N31 2.067613 1_656
Li78 N12 2.110121 1_556
Li78 N7 2.222434 1_656
Li78 N45 2.256249 1_655
Li79 N31 2.054236 1_566
Li79 N46 2.058142 1_565
Li79 N35 2.117750 1_555
Li79 N13 2.300545 1_566
Ge0 N1 1.848209 1_555
Ge0 N12 1.934713 1_555
Ge0 N7 1.975867 1_655
Ge0 N3 2.000318 1_555
Ge1 N11 1.853626 1_555
Ge1 N24 1.938441 1_555
Ge1 N3 1.956875 1_555
Ge1 N8 1.982148 1_555
Ge2 N6 1.862680 1_555
Ge2 N5 1.868396 1_555
Ge2 N16 2.000489 1_555
Ge2 N8 2.009514 1_455
Ge3 N9 1.845982 1_555
Ge3 N14 1.925265 1_545
Ge3 N22 1.980173 1_555
Ge3 N25 1.987264 1_545
Ge4 N31 1.835574 1_555
Ge4 N19 1.871658 1_555
Ge4 N13 1.992791 1_555
Ge4 N7 2.011348 1_555
Ge5 N10 1.866259 1_555
Ge5 N17 1.867386 1_455
Ge5 N15 1.979409 1_555
Ge5 N26 2.011905 1_545
Ge6 N20 1.850422 1_565
Ge6 N37 1.871421 1_555
Ge6 N26 1.988586 1_555
Ge6 N14 2.037098 1_555
Ge7 N28 1.851392 1_555
Ge7 N16 1.937533 1_565
Ge7 N27 1.947674 1_555
Ge7 N25 1.991897 1_555
Ge8 N21 1.854698 1_555
Ge8 N30 1.928936 1_555
Ge8 N41 1.965451 1_555
Ge8 N33 1.997092 1_555
Ge9 N4 1.842926 1_555
Ge9 N36 1.849731 1_555
Ge9 N22 1.996288 1_565
Ge9 N27 2.044721 1_655
Ge10 N0 1.859603 1_555
Ge10 N29 1.870256 1_555
Ge10 N2 1.881549 1_555
Ge10 N24 2.085318 1_565
Ge11 N38 1.852635 1_455
Ge11 N35 1.868981 1_555
Ge11 N45 1.972165 1_555
Ge11 N30 2.046580 1_555
Ge12 N32 1.846552 1_555
Ge12 N39 1.861101 1_555
Ge12 N40 1.974474 1_555
Ge12 N41 2.007606 1_655
Ge13 N44 1.835375 1_555
Ge13 N33 1.945819 1_555
Ge13 N40 1.958278 1_555
Ge13 N15 1.969159 1_555
Ge14 N43 1.839786 1_555
Ge14 N46 1.853386 1_555
Ge14 N13 1.988422 1_556
Ge14 N12 2.033411 1_556
Ge15 N18 1.872148 1_555
Ge15 N47 1.874571 1_555
Ge15 N23 1.885409 1_545
Ge15 N45 2.039006 1_655
