# generated using pymatgen
data_U6Co30Si19
_symmetry_space_group_name_H-M   'P 1'
_cell_length_a   20.95042588
_cell_length_b   20.95042588
_cell_length_c   3.64389000
_cell_angle_alpha   90.00000000
_cell_angle_beta   90.00000000
_cell_angle_gamma   119.99999963
_symmetry_Int_Tables_number   1
_chemical_formula_structural   U6Co30Si19
_chemical_formula_sum   'U12 Co60 Si38'
_cell_volume   1385.10151115
_cell_formula_units_Z   2
loop_
 _symmetry_equiv_pos_site_id
 _symmetry_equiv_pos_as_xyz
  1  'x, y, z'
loop_
 _atom_site_type_symbol
 _atom_site_label
 _atom_site_symmetry_multiplicity
 _atom_site_fract_x
 _atom_site_fract_y
 _atom_site_fract_z
 _atom_site_occupancy
  U  U0  1  0.77490900  0.03712800  0.25000000  1
  U  U1  1  0.51840700  0.13369100  0.25000000  1
  U  U2  1  0.38471600  0.51840700  0.75000000  1
  U  U3  1  0.61528400  0.48159300  0.25000000  1
  U  U4  1  0.73778100  0.77490900  0.75000000  1
  U  U5  1  0.26221900  0.22509100  0.25000000  1
  U  U6  1  0.13369100  0.61528400  0.75000000  1
  U  U7  1  0.22509100  0.96287200  0.75000000  1
  U  U8  1  0.48159300  0.86630900  0.75000000  1
  U  U9  1  0.03712800  0.26221900  0.75000000  1
  U  U10  1  0.86630900  0.38471600  0.25000000  1
  U  U11  1  0.96287200  0.73778100  0.25000000  1
  Co  Co0  1  0.39446500  0.10099800  0.75000000  1
  Co  Co1  1  0.94801400  0.14453300  0.25000000  1
  Co  Co2  1  0.00407900  0.35630100  0.25000000  1
  Co  Co3  1  0.91355400  0.92588300  0.75000000  1
  Co  Co4  1  0.79544700  0.59375100  0.25000000  1
  Co  Co5  1  0.86208200  0.15594000  0.75000000  1
  Co  Co6  1  0.55449100  0.65984000  0.75000000  1
  Co  Co7  1  0.85546700  0.80348100  0.25000000  1
  Co  Co8  1  0.35630100  0.35222200  0.75000000  1
  Co  Co9  1  0.13791800  0.84406000  0.25000000  1
  Co  Co10  1  0.30183700  0.75547600  0.75000000  1
  Co  Co11  1  0.29385800  0.13791800  0.75000000  1
  Co  Co12  1  0.54894200  0.04217900  0.75000000  1
  Co  Co13  1  0.01232900  0.08644600  0.75000000  1
  Co  Co14  1  0.60553500  0.89900200  0.25000000  1
  Co  Co15  1  0.25350600  0.64613600  0.25000000  1
  Co  Co16  1  0.54636100  0.30183700  0.25000000  1
  Co  Co17  1  0.92588300  0.01232900  0.25000000  1
  Co  Co18  1  0.05198600  0.85546700  0.75000000  1
  Co  Co19  1  0.39262900  0.74649400  0.25000000  1
  Co  Co20  1  0.74649400  0.35386400  0.75000000  1
  Co  Co21  1  0.44550900  0.34016000  0.25000000  1
  Co  Co22  1  0.50676300  0.54894200  0.25000000  1
  Co  Co23  1  0.14453300  0.19651900  0.75000000  1
  Co  Co24  1  0.35386400  0.60737100  0.25000000  1
  Co  Co25  1  0.19651900  0.05198600  0.25000000  1
  Co  Co26  1  0.49323700  0.45105800  0.75000000  1
  Co  Co27  1  0.10534900  0.44550900  0.75000000  1
  Co  Co28  1  0.98767100  0.91355400  0.25000000  1
  Co  Co29  1  0.15594000  0.29385800  0.25000000  1
  Co  Co30  1  0.64777800  0.00407900  0.75000000  1
  Co  Co31  1  0.70653300  0.60553500  0.75000000  1
  Co  Co32  1  0.40624900  0.20169600  0.25000000  1
  Co  Co33  1  0.89465100  0.55449100  0.25000000  1
  Co  Co34  1  0.80348100  0.94801400  0.75000000  1
  Co  Co35  1  0.10099800  0.70653300  0.25000000  1
  Co  Co36  1  0.08644600  0.07411700  0.25000000  1
  Co  Co37  1  0.04217900  0.49323700  0.25000000  1
  Co  Co38  1  0.95782100  0.50676300  0.75000000  1
  Co  Co39  1  0.70614200  0.86208200  0.25000000  1
  Co  Co40  1  0.79830400  0.20455300  0.25000000  1
  Co  Co41  1  0.69816300  0.24452400  0.25000000  1
  Co  Co42  1  0.75547600  0.45363900  0.25000000  1
  Co  Co43  1  0.45105800  0.95782100  0.25000000  1
  Co  Co44  1  0.24452400  0.54636100  0.75000000  1
  Co  Co45  1  0.34016000  0.89465100  0.75000000  1
  Co  Co46  1  0.89900200  0.29346700  0.75000000  1
  Co  Co47  1  0.64613600  0.39262900  0.75000000  1
  Co  Co48  1  0.45363900  0.69816300  0.75000000  1
  Co  Co49  1  0.20169600  0.79544700  0.75000000  1
  Co  Co50  1  0.29346700  0.39446500  0.25000000  1
  Co  Co51  1  0.59375100  0.79830400  0.75000000  1
  Co  Co52  1  0.65984000  0.10534900  0.25000000  1
  Co  Co53  1  0.84406000  0.70614200  0.75000000  1
  Co  Co54  1  0.35222200  0.99592100  0.25000000  1
  Co  Co55  1  0.60737100  0.25350600  0.75000000  1
  Co  Co56  1  0.99592100  0.64369900  0.75000000  1
  Co  Co57  1  0.64369900  0.64777800  0.25000000  1
  Co  Co58  1  0.07411700  0.98767100  0.75000000  1
  Co  Co59  1  0.20455300  0.40624900  0.75000000  1
  Si  Si0  1  0.10325000  0.93268900  0.25000000  1
  Si  Si1  1  0.61543100  0.73966700  0.25000000  1
  Si  Si2  1  0.57170400  0.98658200  0.25000000  1
  Si  Si3  1  0.42829600  0.01341800  0.75000000  1
  Si  Si4  1  0.06731100  0.17056100  0.25000000  1
  Si  Si5  1  0.33333300  0.66666700  0.75000000  1
  Si  Si6  1  0.77795200  0.26365500  0.75000000  1
  Si  Si7  1  0.82943900  0.89675000  0.25000000  1
  Si  Si8  1  0.16403700  0.52477600  0.25000000  1
  Si  Si9  1  0.58512100  0.57170400  0.75000000  1
  Si  Si10  1  0.08257300  0.76478700  0.75000000  1
  Si  Si11  1  0.23521300  0.31778700  0.75000000  1
  Si  Si12  1  0.66666700  0.33333300  0.25000000  1
  Si  Si13  1  0.26365500  0.48570300  0.25000000  1
  Si  Si14  1  0.31778700  0.08257300  0.25000000  1
  Si  Si15  1  0.26033300  0.87576400  0.25000000  1
  Si  Si16  1  0.01341800  0.58512100  0.25000000  1
  Si  Si17  1  0.76478700  0.68221300  0.25000000  1
  Si  Si18  1  0.22204800  0.73634500  0.25000000  1
  Si  Si19  1  0.68221300  0.91742700  0.75000000  1
  Si  Si20  1  0.38456900  0.26033300  0.75000000  1
  Si  Si21  1  0.87576400  0.61543100  0.75000000  1
  Si  Si22  1  0.51429700  0.77795200  0.25000000  1
  Si  Si23  1  0.93268900  0.82943900  0.75000000  1
  Si  Si24  1  0.36073900  0.83596300  0.25000000  1
  Si  Si25  1  0.91742700  0.23521300  0.25000000  1
  Si  Si26  1  0.47522400  0.63926100  0.25000000  1
  Si  Si27  1  0.17056100  0.10325000  0.75000000  1
  Si  Si28  1  0.83596300  0.47522400  0.75000000  1
  Si  Si29  1  0.41487900  0.42829600  0.25000000  1
  Si  Si30  1  0.52477600  0.36073900  0.75000000  1
  Si  Si31  1  0.89675000  0.06731100  0.75000000  1
  Si  Si32  1  0.73966700  0.12423600  0.75000000  1
  Si  Si33  1  0.48570300  0.22204800  0.75000000  1
  Si  Si34  1  0.63926100  0.16403700  0.75000000  1
  Si  Si35  1  0.98658200  0.41487900  0.75000000  1
  Si  Si36  1  0.73634500  0.51429700  0.75000000  1
  Si  Si37  1  0.12423600  0.38456900  0.25000000  1
loop_
_geom_bond_atom_site_label_1
_geom_bond_atom_site_label_2
_geom_bond_distance
_geom_bond_site_symmetry_2
Co0 Si3 2.273648 1_555
Co0 Si33 2.288599 1_555
Co0 Si14 2.330027 1_555
Co0 Si14 2.330027 1_556
Co0 Co11 2.582880 1_555
Co0 Co54 2.645875 1_545
Co0 Co54 2.645875 1_546
Co0 Co32 2.703755 1_555
Co0 Co32 2.703755 1_556
Co0 U1 2.958483 1_556
Co0 U1 2.958483 1_555
Co0 U7 3.270642 1_545
Co1 Si4 2.276201 1_655
Co1 Si25 2.288498 1_555
Co1 Si31 2.313611 1_555
Co1 Si31 2.313611 1_554
Co1 Co17 2.569471 1_555
Co1 Co5 2.654799 1_554
Co1 Co5 2.654799 1_555
Co1 U9 2.877666 1_655
Co1 U9 2.877666 1_654
Co2 Si25 2.264038 1_455
Co2 Si37 2.279671 1_555
Co2 Si35 2.325903 1_454
Co2 Si35 2.325903 1_455
Co2 Co37 2.564679 1_555
Co2 Co46 2.645875 1_455
Co2 Co46 2.645875 1_454
Co2 Co27 2.710828 1_555
Co2 Co27 2.710828 1_554
Co2 U9 3.008106 1_554
Co2 U9 3.008106 1_555
Co2 U10 3.225462 1_455
Co3 Si23 2.247957 1_555
Co3 Si7 2.392056 1_556
Co3 Si7 2.392056 1_555
Co3 Co34 2.569471 1_555
Co4 Si17 2.244514 1_555
Co4 Si36 2.358476 1_554
Co4 Si36 2.358476 1_555
Co4 Si21 2.364932 1_555
Co4 Si21 2.364932 1_554
Co4 Co53 2.739154 1_555
Co4 Co53 2.739154 1_554
Co5 Si32 2.305454 1_555
Co5 Si31 2.307360 1_555
Co5 Si25 2.344460 1_556
Co5 Si25 2.344460 1_555
Co5 U0 2.881812 1_556
Co5 U0 2.881812 1_555
Co5 U9 3.200181 1_655
Co6 Si9 2.237458 1_555
Co6 Si26 2.355256 1_556
Co6 Si26 2.355256 1_555
Co6 Si1 2.368808 1_556
Co6 Si1 2.368808 1_555
Co7 Si7 2.276201 1_555
Co7 Si17 2.288512 1_555
Co7 Si23 2.313611 1_555
Co7 Si23 2.313611 1_554
Co7 U4 2.877666 1_554
Co7 U4 2.877666 1_555
Co8 Si11 2.264043 1_555
Co8 Si20 2.279671 1_555
Co8 Si29 2.325895 1_555
Co8 Si29 2.325895 1_556
Co8 U5 3.008106 1_556
Co8 U5 3.008106 1_555
Co8 U2 3.225462 1_555
Co9 Si15 2.305454 1_555
Co9 Si0 2.307360 1_555
Co9 Si10 2.344460 1_554
Co9 Si10 2.344460 1_555
Co9 U7 2.881812 1_554
Co9 U7 2.881812 1_555
Co9 U11 3.200181 1_455
Co10 Si5 2.263826 1_555
Co10 Si18 2.367368 1_556
Co10 Si18 2.367368 1_555
Co10 Si24 2.367453 1_555
Co10 Si24 2.367453 1_556
Co10 Co15 2.696788 1_556
Co10 Co15 2.696788 1_555
Co10 Co19 2.707570 1_555
Co10 Co19 2.707570 1_556
Co11 Si20 2.305454 1_555
Co11 Si27 2.307360 1_555
Co11 Si14 2.344469 1_555
Co11 Si14 2.344469 1_556
Co11 Co25 2.654799 1_556
Co11 Co25 2.654799 1_555
Co11 Co32 2.739154 1_555
Co11 Co32 2.739154 1_556
Co11 U5 2.881812 1_555
Co11 U5 2.881812 1_556
Co11 U7 3.200181 1_545
Co12 Si3 2.286646 1_555
Co12 Si34 2.295081 1_555
Co12 Si2 2.336463 1_545
Co12 Si2 2.336463 1_546
Co12 Co30 2.564679 1_555
Co12 Co43 2.650298 1_546
Co12 Co43 2.650298 1_545
Co12 Co52 2.719219 1_555
Co12 Co52 2.719219 1_556
Co12 U1 2.937844 1_556
Co12 U1 2.937844 1_555
Co12 U8 3.219930 1_545
Co13 Si31 2.247957 1_455
Co13 Si4 2.392056 1_556
Co13 Si4 2.392056 1_555
Co13 Co36 2.489662 1_556
Co13 Co36 2.489662 1_555
Co13 Co17 2.489662 1_455
Co13 Co17 2.489662 1_456
Co13 Co23 2.569471 1_555
Co14 Si2 2.273648 1_555
Co14 Si22 2.288599 1_555
Co14 Si19 2.330027 1_554
Co14 Si19 2.330027 1_555
Co14 Co39 2.582880 1_555
Co14 Co30 2.645875 1_565
Co14 Co30 2.645875 1_564
Co14 Co51 2.703755 1_555
Co14 Co51 2.703755 1_554
Co14 U8 2.958483 1_554
Co14 U8 2.958483 1_555
Co14 U0 3.270642 1_565
Co15 Si8 2.283019 1_555
Co15 Si18 2.291661 1_555
Co15 Si5 2.362645 1_555
Co15 Si5 2.362645 1_554
Co15 Co24 2.605346 1_555
Co15 Co19 2.605346 1_555
Co15 Co44 2.707585 1_555
Co15 Co44 2.707585 1_554
Co15 U6 2.900994 1_555
Co15 U6 2.900994 1_554
Co16 Si12 2.263846 1_555
Co16 Si33 2.367368 1_555
Co16 Si33 2.367368 1_554
Co16 Si30 2.367453 1_555
Co16 Si30 2.367453 1_554
Co16 Co55 2.696802 1_554
Co16 Co55 2.696802 1_555
Co16 Co47 2.707578 1_554
Co16 Co47 2.707578 1_555
Co17 Si7 2.247957 1_545
Co17 Si31 2.392056 1_555
Co17 Si31 2.392056 1_554
Co17 Co3 2.489662 1_545
Co17 Co3 2.489662 1_544
Co18 Si23 2.276201 1_455
Co18 Si10 2.288498 1_555
Co18 Si0 2.313611 1_555
Co18 Si0 2.313611 1_556
Co18 Co58 2.569471 1_555
Co18 Co9 2.654799 1_556
Co18 Co9 2.654799 1_555
Co18 U11 2.877666 1_456
Co18 U11 2.877666 1_455
Co19 Si24 2.283004 1_555
Co19 Si22 2.291681 1_555
Co19 Si5 2.362645 1_555
Co19 Si5 2.362645 1_554
Co19 Co24 2.605346 1_555
Co19 Co48 2.696802 1_555
Co19 Co48 2.696802 1_554
Co19 U8 2.900998 1_555
Co19 U8 2.900998 1_554
Co20 Si28 2.283019 1_555
Co20 Si6 2.291661 1_555
Co20 Si12 2.362645 1_555
Co20 Si12 2.362645 1_556
Co20 Co47 2.605346 1_555
Co20 Co55 2.605346 1_555
Co20 Co41 2.696788 1_556
Co20 Co41 2.696788 1_555
Co20 Co42 2.707585 1_555
Co20 Co42 2.707585 1_556
Co20 U10 2.900994 1_555
Co20 U10 2.900994 1_556
Co21 Si29 2.237458 1_555
Co21 Si30 2.355256 1_554
Co21 Si30 2.355256 1_555
Co21 Si20 2.368808 1_555
Co21 Si20 2.368808 1_554
Co21 Co8 2.710828 1_554
Co21 Co8 2.710828 1_555
Co21 Co26 2.719219 1_554
Co21 Co26 2.719219 1_555
Co22 Si29 2.286640 1_555
Co22 Si26 2.295081 1_555
Co22 Si9 2.336450 1_555
Co22 Si9 2.336450 1_554
Co22 Co57 2.564679 1_555
Co22 Co26 2.650298 1_555
Co22 Co26 2.650298 1_554
Co22 Co6 2.719219 1_555
Co22 Co6 2.719219 1_554
Co22 U2 2.937844 1_555
Co22 U2 2.937844 1_554
Co22 U3 3.219930 1_555
Co23 Si27 2.276201 1_555
Co23 Si11 2.288512 1_555
Co23 Si4 2.313611 1_556
Co23 Si4 2.313611 1_555
Co23 Co29 2.654799 1_555
Co23 Co29 2.654799 1_556
Co23 U5 2.877666 1_555
Co23 U5 2.877666 1_556
Co24 Si26 2.283025 1_555
Co24 Si13 2.291676 1_555
Co24 Si5 2.362645 1_554
Co24 Si5 2.362645 1_555
Co24 Co44 2.696789 1_555
Co24 Co44 2.696789 1_554
Co24 Co48 2.707578 1_555
Co24 Co48 2.707578 1_554
Co24 U2 2.901010 1_555
Co24 U2 2.901010 1_554
Co25 Si0 2.276201 1_545
Co25 Si14 2.288518 1_555
Co25 Si27 2.313611 1_554
Co25 Si27 2.313611 1_555
Co25 Co36 2.569471 1_555
Co25 U7 2.877666 1_544
Co25 U7 2.877666 1_545
Co26 Si9 2.286640 1_555
Co26 Si30 2.295081 1_555
Co26 Si29 2.336450 1_555
Co26 Si29 2.336450 1_556
Co26 Co8 2.564679 1_555
Co26 U3 2.937844 1_555
Co26 U3 2.937844 1_556
Co26 U2 3.219930 1_555
Co27 Si35 2.237478 1_455
Co27 Si8 2.355256 1_556
Co27 Si8 2.355256 1_555
Co27 Si37 2.368808 1_555
Co27 Si37 2.368808 1_556
Co27 Co37 2.719219 1_555
Co27 Co37 2.719219 1_556
Co28 Si0 2.247957 1_655
Co28 Si23 2.392056 1_555
Co28 Si23 2.392056 1_554
Co28 Co3 2.489662 1_555
Co28 Co3 2.489662 1_554
Co28 Co58 2.489662 1_655
Co28 Co58 2.489662 1_654
Co28 Co7 2.569471 1_555
Co29 Si37 2.305454 1_555
Co29 Si4 2.307360 1_555
Co29 Si11 2.344457 1_555
Co29 Si11 2.344457 1_554
Co29 Co50 2.582880 1_555
Co29 Co59 2.739154 1_555
Co29 Co59 2.739154 1_554
Co29 U9 2.881812 1_554
Co29 U9 2.881812 1_555
Co29 U5 3.200181 1_555
Co30 Si19 2.264023 1_545
Co30 Si32 2.279671 1_555
Co30 Si2 2.325891 1_546
Co30 Si2 2.325891 1_545
Co30 Co52 2.710828 1_555
Co30 Co52 2.710828 1_556
Co30 U0 3.008106 1_556
Co30 U0 3.008106 1_555
Co30 U8 3.225462 1_545
Co31 Si9 2.273669 1_555
Co31 Si36 2.288599 1_555
Co31 Si17 2.330030 1_555
Co31 Si17 2.330030 1_556
Co31 Co53 2.582880 1_555
Co31 Co57 2.645875 1_555
Co31 Co57 2.645875 1_556
Co31 Co4 2.703755 1_555
Co31 Co4 2.703755 1_556
Co31 U3 2.958483 1_555
Co31 U3 2.958483 1_556
Co31 U4 3.270642 1_555
Co32 Si14 2.244529 1_555
Co32 Si33 2.358476 1_555
Co32 Si33 2.358476 1_554
Co32 Si20 2.364932 1_554
Co32 Si20 2.364932 1_555
Co33 Si16 2.237478 1_655
Co33 Si28 2.355256 1_555
Co33 Si28 2.355256 1_554
Co33 Si21 2.368808 1_555
Co33 Si21 2.368808 1_554
Co33 Co56 2.710828 1_555
Co33 Co56 2.710828 1_554
Co33 Co38 2.719219 1_555
Co33 Co38 2.719219 1_554
Co34 Si31 2.276201 1_565
Co34 Si19 2.288518 1_555
Co34 Si7 2.313611 1_555
Co34 Si7 2.313611 1_556
Co34 Co39 2.654799 1_555
Co34 Co39 2.654799 1_556
Co34 U0 2.877666 1_565
Co34 U0 2.877666 1_566
Co35 Si16 2.273663 1_555
Co35 Si18 2.288599 1_555
Co35 Si10 2.330039 1_554
Co35 Si10 2.330039 1_555
Co35 Co9 2.582880 1_555
Co35 Co56 2.645875 1_455
Co35 Co56 2.645875 1_454
Co35 Co49 2.703755 1_554
Co35 Co49 2.703755 1_555
Co35 U6 2.958483 1_554
Co35 U6 2.958483 1_555
Co35 U11 3.270642 1_455
Co36 Si4 2.247957 1_555
Co36 Si27 2.392056 1_554
Co36 Si27 2.392056 1_555
Co36 Co58 2.489662 1_544
Co36 Co58 2.489662 1_545
Co37 Si16 2.286626 1_555
Co37 Si8 2.295081 1_555
Co37 Si35 2.336454 1_455
Co37 Si35 2.336454 1_454
Co37 Co38 2.650298 1_455
Co37 Co38 2.650298 1_454
Co37 U6 2.937844 1_554
Co37 U6 2.937844 1_555
Co37 U10 3.219930 1_455
Co38 Si35 2.286626 1_555
Co38 Si28 2.295081 1_555
Co38 Si16 2.336454 1_656
Co38 Si16 2.336454 1_655
Co38 Co56 2.564679 1_555
Co38 U10 2.937844 1_556
Co38 U10 2.937844 1_555
Co38 U6 3.219930 1_655
Co39 Si1 2.305454 1_555
Co39 Si7 2.307360 1_555
Co39 Si19 2.344469 1_555
Co39 Si19 2.344469 1_554
Co39 Co51 2.739154 1_554
Co39 Co51 2.739154 1_555
Co39 U4 2.881812 1_554
Co39 U4 2.881812 1_555
Co39 U0 3.200181 1_565
Co40 Si25 2.244534 1_555
Co40 Si6 2.358476 1_554
Co40 Si6 2.358476 1_555
Co40 Si32 2.364932 1_554
Co40 Si32 2.364932 1_555
Co40 Co46 2.703755 1_555
Co40 Co46 2.703755 1_554
Co40 Co5 2.739154 1_555
Co40 Co5 2.739154 1_554
Co41 Si12 2.263826 1_555
Co41 Si6 2.367368 1_555
Co41 Si6 2.367368 1_554
Co41 Si34 2.367453 1_554
Co41 Si34 2.367453 1_555
Co41 Co55 2.707570 1_554
Co41 Co55 2.707570 1_555
Co42 Si12 2.263840 1_555
Co42 Si36 2.367368 1_554
Co42 Si36 2.367368 1_555
Co42 Si28 2.367453 1_555
Co42 Si28 2.367453 1_554
Co42 Co47 2.696789 1_555
Co42 Co47 2.696789 1_554
Co43 Si2 2.286646 1_555
Co43 Si24 2.295081 1_555
Co43 Si3 2.336463 1_565
Co43 Si3 2.336463 1_564
Co43 Co54 2.564679 1_555
Co43 Co45 2.719219 1_555
Co43 Co45 2.719219 1_554
Co43 U8 2.937844 1_555
Co43 U8 2.937844 1_554
Co43 U1 3.219930 1_565
Co44 Si5 2.263840 1_555
Co44 Si13 2.367368 1_555
Co44 Si13 2.367368 1_556
Co44 Si8 2.367453 1_555
Co44 Si8 2.367453 1_556
Co45 Si3 2.237473 1_565
Co45 Si24 2.355256 1_556
Co45 Si24 2.355256 1_555
Co45 Si15 2.368808 1_555
Co45 Si15 2.368808 1_556
Co45 Co54 2.710828 1_555
Co45 Co54 2.710828 1_556
Co46 Si35 2.273663 1_555
Co46 Si6 2.288599 1_555
Co46 Si25 2.330039 1_556
Co46 Si25 2.330039 1_555
Co46 Co5 2.582880 1_555
Co46 U10 2.958483 1_555
Co46 U10 2.958483 1_556
Co46 U9 3.270642 1_655
Co47 Si30 2.283025 1_555
Co47 Si36 2.291676 1_555
Co47 Si12 2.362645 1_556
Co47 Si12 2.362645 1_555
Co47 Co55 2.605346 1_555
Co47 U3 2.901010 1_555
Co47 U3 2.901010 1_556
Co48 Si5 2.263846 1_555
Co48 Si22 2.367368 1_556
Co48 Si22 2.367368 1_555
Co48 Si26 2.367453 1_555
Co48 Si26 2.367453 1_556
Co49 Si10 2.244534 1_555
Co49 Si18 2.358476 1_556
Co49 Si18 2.358476 1_555
Co49 Si15 2.364932 1_556
Co49 Si15 2.364932 1_555
Co49 Co9 2.739154 1_556
Co49 Co9 2.739154 1_555
Co50 Si29 2.273669 1_555
Co50 Si13 2.288599 1_555
Co50 Si11 2.330030 1_555
Co50 Si11 2.330030 1_554
Co50 Co8 2.645875 1_554
Co50 Co8 2.645875 1_555
Co50 Co59 2.703755 1_554
Co50 Co59 2.703755 1_555
Co50 U2 2.958483 1_555
Co50 U2 2.958483 1_554
Co50 U5 3.270642 1_555
Co51 Si19 2.244529 1_555
Co51 Si22 2.358476 1_555
Co51 Si22 2.358476 1_556
Co51 Si1 2.364932 1_555
Co51 Si1 2.364932 1_556
Co52 Si2 2.237473 1_545
Co52 Si34 2.355256 1_555
Co52 Si34 2.355256 1_554
Co52 Si32 2.368808 1_555
Co52 Si32 2.368808 1_554
Co53 Si21 2.305454 1_555
Co53 Si23 2.307360 1_555
Co53 Si17 2.344457 1_556
Co53 Si17 2.344457 1_555
Co53 Co7 2.654799 1_556
Co53 Co7 2.654799 1_555
Co53 U11 2.881812 1_556
Co53 U11 2.881812 1_555
Co53 U4 3.200181 1_555
Co54 Si14 2.264023 1_565
Co54 Si15 2.279671 1_555
Co54 Si3 2.325891 1_564
Co54 Si3 2.325891 1_565
Co54 U7 3.008106 1_555
Co54 U7 3.008106 1_554
Co54 U1 3.225462 1_565
Co55 Si34 2.283004 1_555
Co55 Si33 2.291681 1_555
Co55 Si12 2.362645 1_556
Co55 Si12 2.362645 1_555
Co55 U1 2.900998 1_555
Co55 U1 2.900998 1_556
Co56 Si10 2.264038 1_655
Co56 Si21 2.279671 1_555
Co56 Si16 2.325903 1_656
Co56 Si16 2.325903 1_655
Co56 U11 3.008106 1_556
Co56 U11 3.008106 1_555
Co56 U6 3.225462 1_655
Co57 Si17 2.264043 1_555
Co57 Si1 2.279671 1_555
Co57 Si9 2.325895 1_554
Co57 Si9 2.325895 1_555
Co57 Co6 2.710828 1_554
Co57 Co6 2.710828 1_555
Co57 U4 3.008106 1_554
Co57 U4 3.008106 1_555
Co57 U3 3.225462 1_555
Co58 Si27 2.247957 1_565
Co58 Si0 2.392056 1_555
Co58 Si0 2.392056 1_556
Co59 Si11 2.244514 1_555
Co59 Si13 2.358476 1_556
Co59 Si13 2.358476 1_555
Co59 Si37 2.364932 1_556
Co59 Si37 2.364932 1_555
Si0 U7 2.936167 1_554
Si0 U7 2.936167 1_555
Si1 Si22 2.613833 1_555
Si1 Si26 2.621881 1_555
Si1 U4 2.922753 1_554
Si1 U4 2.922753 1_555
Si2 U8 2.911318 1_555
Si2 U8 2.911318 1_554
Si3 U1 2.911318 1_556
Si3 U1 2.911318 1_555
Si4 U9 2.936167 1_555
Si4 U9 2.936167 1_554
Si6 U10 2.912710 1_555
Si6 U10 2.912710 1_556
Si7 U4 2.936167 1_554
Si7 U4 2.936167 1_555
Si8 U6 2.919709 1_555
Si8 U6 2.919709 1_554
Si9 U3 2.911329 1_555
Si9 U3 2.911329 1_556
Si10 U11 2.917142 1_456
Si10 U11 2.917142 1_455
Si11 U5 2.917158 1_556
Si11 U5 2.917158 1_555
Si13 Si8 2.595048 1_555
Si13 Si37 2.613833 1_555
Si13 U2 2.912710 1_554
Si13 U2 2.912710 1_555
Si14 U7 2.917147 1_544
Si14 U7 2.917147 1_545
Si15 Si18 2.613833 1_555
Si15 Si24 2.621881 1_555
Si15 U7 2.922753 1_554
Si15 U7 2.922753 1_555
Si16 U6 2.911314 1_554
Si16 U6 2.911314 1_555
Si17 U4 2.917158 1_555
Si17 U4 2.917158 1_554
Si18 Si24 2.595048 1_555
Si18 U6 2.912710 1_555
Si18 U6 2.912710 1_554
Si19 U0 2.917147 1_566
Si19 U0 2.917147 1_565
Si20 Si33 2.613833 1_555
Si20 Si30 2.621881 1_555
Si20 U5 2.922753 1_556
Si20 U5 2.922753 1_555
Si21 Si36 2.613833 1_555
Si21 Si28 2.621881 1_555
Si21 U11 2.922753 1_556
Si21 U11 2.922753 1_555
Si22 Si26 2.595048 1_555
Si22 U8 2.912710 1_554
Si22 U8 2.912710 1_555
Si23 U11 2.936167 1_555
Si23 U11 2.936167 1_556
Si24 U8 2.919709 1_555
Si24 U8 2.919709 1_554
Si25 U9 2.917142 1_655
Si25 U9 2.917142 1_654
Si26 U2 2.919709 1_555
Si26 U2 2.919709 1_554
Si27 U5 2.936167 1_556
Si27 U5 2.936167 1_555
Si28 Si36 2.595048 1_555
Si28 U10 2.919709 1_555
Si28 U10 2.919709 1_556
Si29 U2 2.911329 1_555
Si29 U2 2.911329 1_554
Si30 Si33 2.595048 1_555
Si30 U3 2.919709 1_555
Si30 U3 2.919709 1_556
Si31 U0 2.936167 1_555
Si31 U0 2.936167 1_556
Si32 Si6 2.613833 1_555
Si32 Si34 2.621881 1_555
Si32 U0 2.922753 1_556
Si32 U0 2.922753 1_555
Si33 U1 2.912710 1_556
Si33 U1 2.912710 1_555
Si34 Si6 2.595048 1_555
Si34 U1 2.919709 1_556
Si34 U1 2.919709 1_555
Si35 U10 2.911314 1_556
Si35 U10 2.911314 1_555
Si36 U3 2.912710 1_555
Si36 U3 2.912710 1_556
Si37 Si8 2.621881 1_555
Si37 U9 2.922753 1_555
Si37 U9 2.922753 1_554
