# generated using pymatgen
data_KGa(PO3)4
_symmetry_space_group_name_H-M   'P 1'
_cell_length_a   10.52658089
_cell_length_b   10.52658089
_cell_length_c   5.22101811
_cell_angle_alpha   81.25249471
_cell_angle_beta   81.25249471
_cell_angle_gamma   72.35621299
_symmetry_Int_Tables_number   1
_chemical_formula_structural   KGa(PO3)4
_chemical_formula_sum   'K2 Ga2 P8 O24'
_cell_volume   541.44690545
_cell_formula_units_Z   2
loop_
 _symmetry_equiv_pos_site_id
 _symmetry_equiv_pos_as_xyz
  1  'x, y, z'
loop_
 _atom_site_type_symbol
 _atom_site_label
 _atom_site_symmetry_multiplicity
 _atom_site_fract_x
 _atom_site_fract_y
 _atom_site_fract_z
 _atom_site_occupancy
  K  K0  1  0.40705200  0.40705200  0.73973800  1
  K  K1  1  0.59294800  0.59294800  0.26026200  1
  Ga  Ga0  1  0.50000000  0.00000000  0.00000000  1
  Ga  Ga1  1  0.00000000  0.50000000  0.00000000  1
  P  P0  1  0.79934400  0.35499200  0.83615000  1
  P  P1  1  0.06860000  0.30884200  0.53353400  1
  P  P2  1  0.30884200  0.06860000  0.53353400  1
  P  P3  1  0.64500800  0.20065600  0.16385000  1
  P  P4  1  0.35499200  0.79934400  0.83615000  1
  P  P5  1  0.69115800  0.93140000  0.46646600  1
  P  P6  1  0.93140000  0.69115800  0.46646600  1
  P  P7  1  0.20065600  0.64500800  0.16385000  1
  O  O0  1  0.42679700  0.84940100  0.01419800  1
  O  O1  1  0.39929700  0.10039000  0.69860100  1
  O  O2  1  0.43032700  0.67729300  0.71106900  1
  O  O3  1  0.15059900  0.57320300  0.98580200  1
  O  O4  1  0.57320300  0.15059900  0.98580200  1
  O  O5  1  0.91239400  0.65672400  0.75714300  1
  O  O6  1  0.21543000  0.78457000  0.00000000  1
  O  O7  1  0.56967300  0.32270700  0.28893100  1
  O  O8  1  0.60070300  0.89961000  0.30139900  1
  O  O9  1  0.70842200  0.07735800  0.37806000  1
  O  O10  1  0.32270700  0.56967300  0.28893100  1
  O  O11  1  0.89961000  0.60070300  0.30139900  1
  O  O12  1  0.84940100  0.42679700  0.01419800  1
  O  O13  1  0.07735800  0.70842200  0.37806000  1
  O  O14  1  0.15718800  0.15718800  0.60245600  1
  O  O15  1  0.10039000  0.39929700  0.69860100  1
  O  O16  1  0.67729300  0.43032700  0.71106900  1
  O  O17  1  0.29157800  0.92264200  0.62194000  1
  O  O18  1  0.78457000  0.21543000  0.00000000  1
  O  O19  1  0.34327600  0.08760600  0.24285700  1
  O  O20  1  0.65672400  0.91239400  0.75714300  1
  O  O21  1  0.84281200  0.84281200  0.39754400  1
  O  O22  1  0.92264200  0.29157800  0.62194000  1
  O  O23  1  0.08760600  0.34327600  0.24285700  1
loop_
_geom_bond_atom_site_label_1
_geom_bond_atom_site_label_2
_geom_bond_distance
_geom_bond_site_symmetry_2
K0 O10 2.783388 1_555
K0 O7 2.783388 1_555
K0 O16 2.908035 1_555
K0 O2 2.908035 1_555
K0 O3 2.960327 1_555
K0 O4 2.960327 1_555
K0 O1 3.293842 1_555
K0 O15 3.293842 1_555
K1 O16 2.783388 1_555
K1 O2 2.783388 1_555
K1 O10 2.908035 1_555
K1 O7 2.908035 1_555
K1 O12 2.960327 1_555
K1 O0 2.960327 1_555
K1 O11 3.293842 1_555
K1 O8 3.293842 1_555
Ga0 O4 1.949319 1_554
Ga0 O0 1.949319 1_545
Ga0 O19 1.994249 1_555
Ga0 O20 1.994249 1_544
Ga0 O1 2.009780 1_554
Ga0 O8 2.009780 1_545
Ga1 O3 1.949319 1_554
Ga1 O12 1.949319 1_455
Ga1 O23 1.994249 1_555
Ga1 O5 1.994249 1_454
Ga1 O11 2.009780 1_455
Ga1 O15 2.009780 1_554
O0 P4 1.522256 1_554
O1 P2 1.513882 1_555
O2 P4 1.478535 1_555
O3 P7 1.522256 1_556
O4 P3 1.522256 1_556
O5 P6 1.502965 1_555
O6 P7 1.621748 1_555
O6 P4 1.621748 1_554
O7 P3 1.478535 1_555
O8 P5 1.513882 1_555
O9 P5 1.592093 1_545
O9 P3 1.625216 1_555
O10 P7 1.478535 1_555
O11 P6 1.513882 1_555
O12 P0 1.522256 1_554
O13 P6 1.592093 1_455
O13 P7 1.625216 1_555
O14 P1 1.603897 1_555
O14 P2 1.603897 1_555
O15 P1 1.513882 1_555
O16 P0 1.478535 1_555
O17 P2 1.592093 1_565
O17 P4 1.625216 1_555
O18 P3 1.621748 1_555
O18 P0 1.621748 1_554
O19 P2 1.502965 1_555
O20 P5 1.502965 1_555
O21 P5 1.603897 1_555
O21 P6 1.603897 1_555
O22 P1 1.592093 1_655
O22 P0 1.625216 1_555
O23 P1 1.502965 1_555
