# generated using pymatgen
data_VAgSeO5
_symmetry_space_group_name_H-M   'P 1'
_cell_length_a   4.07810872
_cell_length_b   5.23564341
_cell_length_c   20.23890639
_cell_angle_alpha   90.00000000
_cell_angle_beta   90.00000000
_cell_angle_gamma   90.00000000
_symmetry_Int_Tables_number   1
_chemical_formula_structural   VAgSeO5
_chemical_formula_sum   'V4 Ag4 Se4 O20'
_cell_volume   432.13147619
_cell_formula_units_Z   4
loop_
 _symmetry_equiv_pos_site_id
 _symmetry_equiv_pos_as_xyz
  1  'x, y, z'
loop_
 _atom_site_type_symbol
 _atom_site_label
 _atom_site_symmetry_multiplicity
 _atom_site_fract_x
 _atom_site_fract_y
 _atom_site_fract_z
 _atom_site_occupancy
  V  V0  1  0.56319398  0.75000000  0.69228030  1
  V  V1  1  0.43680602  0.25000000  0.30771970  1
  V  V2  1  0.43680602  0.75000000  0.19228030  1
  V  V3  1  0.56319398  0.25000000  0.80771970  1
  Ag  Ag0  1  0.62795021  0.25000000  0.48179936  1
  Ag  Ag1  1  0.37204979  0.25000000  0.98179936  1
  Ag  Ag2  1  0.37204979  0.75000000  0.51820064  1
  Ag  Ag3  1  0.62795021  0.75000000  0.01820064  1
  Se  Se0  1  0.19924088  0.25000000  0.62168456  1
  Se  Se1  1  0.80075912  0.25000000  0.12168456  1
  Se  Se2  1  0.19924088  0.75000000  0.87831544  1
  Se  Se3  1  0.80075912  0.75000000  0.37831544  1
  O  O0  1  0.52454574  0.99594599  0.11947630  1
  O  O1  1  0.47545426  0.00405401  0.88052370  1
  O  O2  1  0.88699957  0.75000000  0.45984632  1
  O  O3  1  0.04059263  0.25000000  0.31333883  1
  O  O4  1  0.11300043  0.25000000  0.54015368  1
  O  O5  1  0.52518231  0.50000000  0.25000000  1
  O  O6  1  0.47481769  -0.00000000  0.75000000  1
  O  O7  1  0.47545426  0.50405401  0.61947630  1
  O  O8  1  0.47545426  0.49594599  0.88052370  1
  O  O9  1  0.04059263  0.75000000  0.18666117  1
  O  O10  1  0.52454574  0.50405401  0.11947630  1
  O  O11  1  0.47481769  0.50000000  0.75000000  1
  O  O12  1  0.52454574  0.00405401  0.38052370  1
  O  O13  1  0.11300043  0.75000000  0.95984632  1
  O  O14  1  0.52518231  -0.00000000  0.25000000  1
  O  O15  1  0.95940737  0.75000000  0.68666117  1
  O  O16  1  0.52454574  0.49594599  0.38052370  1
  O  O17  1  0.88699957  0.25000000  0.04015368  1
  O  O18  1  0.47545426  0.99594599  0.61947630  1
  O  O19  1  0.95940737  0.25000000  0.81333883  1
loop_
_geom_bond_atom_site_label_1
_geom_bond_atom_site_label_2
_geom_bond_distance
_geom_bond_site_symmetry_2
Ag0 O4 2.303835 1_655
Ag0 O4 2.409339 1_555
Ag0 O12 2.457085 1_555
Ag0 O16 2.457085 1_555
Ag1 O17 2.303835 1_456
Ag1 O17 2.409339 1_556
Ag1 O1 2.457085 1_555
Ag1 O8 2.457085 1_555
Ag2 O2 2.303835 1_455
Ag2 O2 2.409339 1_555
Ag2 O18 2.457085 1_555
Ag2 O7 2.457085 1_555
Ag3 O13 2.303835 1_654
Ag3 O13 2.409339 1_554
Ag3 O0 2.457085 1_555
Ag3 O10 2.457085 1_555
O0 Se1 1.743588 1_565
O0 V2 1.989293 1_555
O1 Se2 1.743588 1_545
O1 V3 1.989293 1_555
O2 Se3 1.687160 1_555
O3 V1 1.619798 1_555
O3 V1 2.464932 1_455
O4 Se0 1.687160 1_555
O5 V1 1.791032 1_555
O5 V2 1.791032 1_555
O6 V3 1.791032 1_555
O6 V0 1.791032 1_545
O7 Se0 1.743588 1_555
O7 V0 1.989293 1_555
O8 Se2 1.743588 1_555
O8 V3 1.989293 1_555
O9 V2 1.619798 1_555
O9 V2 2.464932 1_455
O10 Se1 1.743588 1_555
O10 V2 1.989293 1_555
O11 V0 1.791032 1_555
O11 V3 1.791032 1_555
O12 Se3 1.743588 1_545
O12 V1 1.989293 1_555
O13 Se2 1.687160 1_555
O14 V1 1.791032 1_555
O14 V2 1.791032 1_545
O15 V0 1.619798 1_555
O15 V0 2.464932 1_655
O16 Se3 1.743588 1_555
O16 V1 1.989293 1_555
O17 Se1 1.687160 1_555
O18 Se0 1.743588 1_565
O18 V0 1.989293 1_555
O19 V3 1.619798 1_555
O19 V3 2.464932 1_655
