# generated using pymatgen
data_Sr7Nb6O21
_symmetry_space_group_name_H-M   'P 1'
_cell_length_a   16.60750869
_cell_length_b   16.60750869
_cell_length_c   16.60750871
_cell_angle_alpha   19.82498683
_cell_angle_beta   19.82498682
_cell_angle_gamma   19.82498671
_symmetry_Int_Tables_number   1
_chemical_formula_structural   Sr7Nb6O21
_chemical_formula_sum   'Sr7 Nb6 O21'
_cell_volume   460.82229265
_cell_formula_units_Z   1
loop_
 _symmetry_equiv_pos_site_id
 _symmetry_equiv_pos_as_xyz
  1  'x, y, z'
loop_
 _atom_site_type_symbol
 _atom_site_label
 _atom_site_symmetry_multiplicity
 _atom_site_fract_x
 _atom_site_fract_y
 _atom_site_fract_z
 _atom_site_occupancy
  Sr  Sr0  1  0.84726791  0.84726791  0.84726791  1
  Sr  Sr1  1  0.76773603  0.76773603  0.76773603  1
  Sr  Sr2  1  0.23226397  0.23226397  0.23226397  1
  Sr  Sr3  1  0.15273209  0.15273209  0.15273209  1
  Sr  Sr4  1  0.38402131  0.38402131  0.38402131  1
  Sr  Sr5  1  0.61597869  0.61597869  0.61597869  1
  Sr  Sr6  1  0.00000000  -0.00000000  0.00000000  1
  Nb  Nb0  1  0.92707893  0.92707893  0.92707893  1
  Nb  Nb1  1  0.45714269  0.45714269  0.45714269  1
  Nb  Nb2  1  0.30941935  0.30941935  0.30941935  1
  Nb  Nb3  1  0.07292107  0.07292107  0.07292107  1
  Nb  Nb4  1  0.69058065  0.69058065  0.69058065  1
  Nb  Nb5  1  0.54285731  0.54285731  0.54285731  1
  O  O0  1  0.75412526  0.30819809  0.21884200  1
  O  O1  1  0.70655575  0.14016315  0.57519471  1
  O  O2  1  0.57519471  0.70655575  0.14016315  1
  O  O3  1  0.62554287  0.14206794  0.09081623  1
  O  O4  1  0.14016315  0.57519471  0.70655575  1
  O  O5  1  0.24587474  0.69180191  0.78115800  1
  O  O6  1  0.78115800  0.24587474  0.69180191  1
  O  O7  1  0.30819809  0.21884200  0.75412526  1
  O  O8  1  0.90918377  0.37445713  0.85793206  1
  O  O9  1  0.29344425  0.85983685  0.42480529  1
  O  O10  1  0.50000000  0.50000000  0.00000000  1
  O  O11  1  0.14206794  0.09081623  0.62554287  1
  O  O12  1  0.42480529  0.29344425  0.85983685  1
  O  O13  1  0.37445713  0.85793206  0.90918377  1
  O  O14  1  0.21884300  0.75412526  0.30819809  1
  O  O15  1  0.85983685  0.42480529  0.29344425  1
  O  O16  1  0.09081623  0.62554287  0.14206794  1
  O  O17  1  0.85793206  0.90918377  0.37445713  1
  O  O18  1  0.69180191  0.78115800  0.24587474  1
  O  O19  1  0.50000000  -0.00000000  0.50000000  1
  O  O20  1  0.00000000  0.50000000  0.50000000  1
loop_
_geom_bond_atom_site_label_1
_geom_bond_atom_site_label_2
_geom_bond_distance
_geom_bond_site_symmetry_2
Nb0 O5 1.981054 1_655
Nb0 O6 1.981054 1_565
Nb0 O18 1.981054 1_556
Nb0 O3 2.055731 1_566
Nb0 O16 2.055731 1_656
Nb0 O11 2.055731 1_665
Nb1 O1 1.883721 1_555
Nb1 O4 1.883721 1_555
Nb1 O2 1.883721 1_555
Nb1 O14 2.201481 1_555
Nb1 O0 2.201493 1_555
Nb1 O7 2.201493 1_555
Nb2 O20 2.021850 1_555
Nb2 O19 2.021850 1_555
Nb2 O10 2.021850 1_555
Nb2 O16 2.034148 1_555
Nb2 O3 2.034148 1_555
Nb2 O11 2.034148 1_555
Nb3 O0 1.981054 1_455
Nb3 O7 1.981054 1_554
Nb3 O14 1.981064 1_545
Nb3 O13 2.055731 1_544
Nb3 O8 2.055731 1_454
Nb3 O17 2.055731 1_445
Nb4 O20 2.021850 1_655
Nb4 O19 2.021850 1_565
Nb4 O10 2.021850 1_556
Nb4 O8 2.034148 1_555
Nb4 O13 2.034148 1_555
Nb4 O17 2.034148 1_555
Nb5 O9 1.883721 1_555
Nb5 O15 1.883721 1_555
Nb5 O12 1.883721 1_555
Nb5 O6 2.201493 1_555
Nb5 O5 2.201493 1_555
Nb5 O18 2.201493 1_555
O0 Sr1 2.628210 1_554
O0 Sr4 2.665253 1_555
O1 Sr3 2.552587 1_655
O1 Sr1 2.567207 1_545
O1 Sr0 2.581749 1_545
O2 Sr3 2.552587 1_565
O2 Sr1 2.567207 1_554
O2 Sr0 2.581749 1_554
O3 Sr5 2.717894 1_554
O3 Sr6 2.820850 1_655
O3 Sr5 3.010401 1_545
O4 Sr3 2.552587 1_556
O4 Sr1 2.567207 1_455
O4 Sr0 2.581749 1_455
O5 Sr2 2.628210 1_556
O5 Sr5 2.665253 1_555
O6 Sr2 2.628210 1_655
O6 Sr5 2.665253 1_555
O7 Sr1 2.628210 1_545
O7 Sr4 2.665253 1_555
O8 Sr4 2.717894 1_655
O8 Sr6 2.820850 1_656
O8 Sr4 3.010401 1_556
O9 Sr0 2.552587 1_455
O9 Sr2 2.567207 1_565
O9 Sr3 2.581749 1_565
O10 Sr6 2.858881 1_565
O10 Sr6 2.858881 1_655
O10 Sr5 2.974907 1_554
O10 Sr4 2.974907 1_555
O11 Sr5 2.717894 1_545
O11 Sr6 2.820850 1_556
O11 Sr5 3.010401 1_455
O12 Sr0 2.552587 1_545
O12 Sr2 2.567207 1_556
O12 Sr3 2.581749 1_556
O13 Sr4 2.717894 1_556
O13 Sr6 2.820850 1_566
O13 Sr4 3.010401 1_565
O14 Sr1 2.628211 1_455
O14 Sr4 2.665264 1_555
O15 Sr0 2.552587 1_554
O15 Sr2 2.567207 1_655
O15 Sr3 2.581749 1_655
O16 Sr5 2.717894 1_455
O16 Sr6 2.820850 1_565
O16 Sr5 3.010401 1_554
O17 Sr4 2.717894 1_565
O17 Sr6 2.820850 1_665
O17 Sr4 3.010401 1_655
O18 Sr2 2.628210 1_565
O18 Sr5 2.665253 1_555
O19 Sr6 2.858881 1_655
O19 Sr6 2.858881 1_556
O19 Sr5 2.974907 1_545
O19 Sr4 2.974907 1_555
O20 Sr6 2.858881 1_565
O20 Sr6 2.858881 1_556
O20 Sr5 2.974907 1_455
O20 Sr4 2.974907 1_555
