# generated using pymatgen
data_Ca2TaMnO6
_symmetry_space_group_name_H-M   'P 1'
_cell_length_a   5.52133002
_cell_length_b   11.48296424
_cell_length_c   7.70880400
_cell_angle_alpha   90.00000000
_cell_angle_beta   90.00000000
_cell_angle_gamma   86.11370277
_symmetry_Int_Tables_number   1
_chemical_formula_structural   Ca2TaMnO6
_chemical_formula_sum   'Ca8 Ta4 Mn4 O24'
_cell_volume   487.62382799
_cell_formula_units_Z   4
loop_
 _symmetry_equiv_pos_site_id
 _symmetry_equiv_pos_as_xyz
  1  'x, y, z'
loop_
 _atom_site_type_symbol
 _atom_site_label
 _atom_site_symmetry_multiplicity
 _atom_site_fract_x
 _atom_site_fract_y
 _atom_site_fract_z
 _atom_site_occupancy
  Ca  Ca0  1  0.01795300  0.47629800  0.25000000  1
  Ca  Ca1  1  0.01795300  0.97629800  0.25000000  1
  Ca  Ca2  1  0.98204700  0.02370200  0.75000000  1
  Ca  Ca3  1  0.98204700  0.52370200  0.75000000  1
  Ca  Ca4  1  0.49402700  0.21684600  0.25000000  1
  Ca  Ca5  1  0.49402700  0.71684600  0.25000000  1
  Ca  Ca6  1  0.50597300  0.28315400  0.75000000  1
  Ca  Ca7  1  0.50597300  0.78315400  0.75000000  1
  Ta  Ta0  1  0.00000000  0.25000000  0.00000000  1
  Ta  Ta1  1  0.00000000  0.75000000  0.00000000  1
  Ta  Ta2  1  0.00000000  0.25000000  0.50000000  1
  Ta  Ta3  1  0.00000000  0.75000000  0.50000000  1
  Mn  Mn0  1  0.50000000  0.50000000  0.00000000  1
  Mn  Mn1  1  0.50000000  0.50000000  0.50000000  1
  Mn  Mn2  1  0.50000000  0.00000000  0.00000000  1
  Mn  Mn3  1  0.50000000  0.00000000  0.50000000  1
  O  O0  1  0.09771500  0.23600100  0.75000000  1
  O  O1  1  0.09771500  0.73600100  0.75000000  1
  O  O2  1  0.90228500  0.26399900  0.25000000  1
  O  O3  1  0.90228500  0.76399900  0.25000000  1
  O  O4  1  0.59510800  0.01396200  0.25000000  1
  O  O5  1  0.59510800  0.51396200  0.25000000  1
  O  O6  1  0.40489200  0.48603800  0.75000000  1
  O  O7  1  0.40489200  0.98603800  0.75000000  1
  O  O8  1  0.79809400  0.39858100  0.54835000  1
  O  O9  1  0.79809400  0.89858100  0.54835000  1
  O  O10  1  0.20190600  0.10141900  0.45165000  1
  O  O11  1  0.20190600  0.60141900  0.45165000  1
  O  O12  1  0.79809400  0.39858100  0.95165000  1
  O  O13  1  0.79809400  0.89858100  0.95165000  1
  O  O14  1  0.20190600  0.10141900  0.04835000  1
  O  O15  1  0.20190600  0.60141900  0.04835000  1
  O  O16  1  0.28083400  0.34257700  0.45147000  1
  O  O17  1  0.28083400  0.84257700  0.45147000  1
  O  O18  1  0.71916600  0.15742300  0.95147000  1
  O  O19  1  0.71916600  0.65742300  0.95147000  1
  O  O20  1  0.71916600  0.15742300  0.54853000  1
  O  O21  1  0.71916600  0.65742300  0.54853000  1
  O  O22  1  0.28083400  0.34257700  0.04853000  1
  O  O23  1  0.28083400  0.84257700  0.04853000  1
loop_
_geom_bond_atom_site_label_1
_geom_bond_atom_site_label_2
_geom_bond_distance
_geom_bond_site_symmetry_2
Ca0 O5 2.345389 1_455
Ca0 O11 2.389576 1_555
Ca0 O15 2.389576 1_555
Ca0 O2 2.561617 1_455
Ca0 O22 2.564079 1_555
Ca0 O16 2.564079 1_555
Ca0 O12 2.776057 1_454
Ca0 O8 2.776057 1_455
Ca1 O4 2.345389 1_465
Ca1 O10 2.389576 1_565
Ca1 O14 2.389576 1_565
Ca1 O3 2.561617 1_455
Ca1 O17 2.564079 1_555
Ca1 O23 2.564079 1_555
Ca1 O13 2.776057 1_454
Ca1 O9 2.776057 1_455
Ca2 O7 2.345389 1_645
Ca2 O13 2.389576 1_545
Ca2 O9 2.389576 1_545
Ca2 O0 2.561617 1_655
Ca2 O20 2.564079 1_555
Ca2 O18 2.564079 1_555
Ca2 O14 2.776057 1_656
Ca2 O10 2.776057 1_655
Ca3 O6 2.345389 1_655
Ca3 O8 2.389576 1_555
Ca3 O12 2.389576 1_555
Ca3 O1 2.561617 1_655
Ca3 O21 2.564079 1_555
Ca3 O19 2.564079 1_555
Ca3 O15 2.776057 1_656
Ca3 O11 2.776057 1_655
Ca4 O2 2.353659 1_555
Ca4 O4 2.358554 1_555
Ca4 O16 2.377345 1_555
Ca4 O22 2.377345 1_555
Ca4 O14 2.657900 1_555
Ca4 O10 2.657900 1_555
Ca4 O20 2.681765 1_555
Ca4 O18 2.681765 1_554
Ca5 O3 2.353659 1_555
Ca5 O5 2.358554 1_555
Ca5 O17 2.377345 1_555
Ca5 O23 2.377345 1_555
Ca5 O11 2.657900 1_555
Ca5 O15 2.657900 1_555
Ca5 O19 2.681765 1_554
Ca5 O21 2.681765 1_555
Ca6 O0 2.353659 1_555
Ca6 O6 2.358554 1_555
Ca6 O18 2.377345 1_555
Ca6 O20 2.377345 1_555
Ca6 O8 2.657900 1_555
Ca6 O12 2.657900 1_555
Ca6 O22 2.681765 1_556
Ca6 O16 2.681765 1_555
Ca7 O1 2.353659 1_555
Ca7 O7 2.358554 1_555
Ca7 O19 2.377345 1_555
Ca7 O21 2.377345 1_555
Ca7 O9 2.657900 1_555
Ca7 O13 2.657900 1_555
Ca7 O23 2.681765 1_556
Ca7 O17 2.681765 1_555
Mn0 O15 1.986019 1_555
Mn0 O12 1.986019 1_554
Mn0 O5 2.006732 1_555
Mn0 O6 2.006732 1_554
Mn0 O22 2.273434 1_555
Mn0 O19 2.273434 1_554
Mn1 O11 1.986019 1_555
Mn1 O8 1.986019 1_555
Mn1 O5 2.006732 1_555
Mn1 O6 2.006732 1_555
Mn1 O21 2.273434 1_555
Mn1 O16 2.273434 1_555
Mn2 O13 1.986019 1_544
Mn2 O14 1.986019 1_555
Mn2 O7 2.006732 1_544
Mn2 O4 2.006732 1_555
Mn2 O18 2.273434 1_554
Mn2 O23 2.273434 1_545
Mn3 O10 1.986019 1_555
Mn3 O9 1.986019 1_545
Mn3 O7 2.006732 1_545
Mn3 O4 2.006732 1_555
Mn3 O20 2.273434 1_555
Mn3 O17 2.273434 1_545
O0 Ta2 2.004811 1_555
O0 Ta0 2.004811 1_556
O1 Ta1 2.004811 1_556
O1 Ta3 2.004811 1_555
O2 Ta0 2.004811 1_655
O2 Ta2 2.004811 1_655
O3 Ta3 2.004811 1_655
O3 Ta1 2.004811 1_655
O8 Ta2 2.008682 1_655
O9 Ta3 2.008682 1_655
O10 Ta2 2.008682 1_555
O11 Ta3 2.008682 1_555
O12 Ta0 2.008682 1_656
O13 Ta1 2.008682 1_656
O14 Ta0 2.008682 1_555
O15 Ta1 2.008682 1_555
O16 Ta2 1.974280 1_555
O17 Ta3 1.974280 1_555
O18 Ta0 1.974280 1_656
O19 Ta1 1.974280 1_656
O20 Ta2 1.974280 1_655
O21 Ta3 1.974280 1_655
O22 Ta0 1.974280 1_555
O23 Ta1 1.974280 1_555
