# generated using pymatgen
data_TmMnO3
_symmetry_space_group_name_H-M   'P 1'
_cell_length_a   5.27079300
_cell_length_b   5.81241900
_cell_length_c   7.45387100
_cell_angle_alpha   90.00000000
_cell_angle_beta   90.00000000
_cell_angle_gamma   90.00000000
_symmetry_Int_Tables_number   1
_chemical_formula_structural   TmMnO3
_chemical_formula_sum   'Tm4 Mn4 O12'
_cell_volume   228.35721965
_cell_formula_units_Z   4
loop_
 _symmetry_equiv_pos_site_id
 _symmetry_equiv_pos_as_xyz
  1  'x, y, z'
loop_
 _atom_site_type_symbol
 _atom_site_label
 _atom_site_symmetry_multiplicity
 _atom_site_fract_x
 _atom_site_fract_y
 _atom_site_fract_z
 _atom_site_occupancy
  Tm  Tm0  1  0.47991500  0.41630900  0.75000000  1
  Tm  Tm1  1  0.52008500  0.58369100  0.25000000  1
  Tm  Tm2  1  0.02008500  0.91630900  0.75000000  1
  Tm  Tm3  1  0.97991500  0.08369100  0.25000000  1
  Mn  Mn0  1  0.50000000  0.00000000  0.50000000  1
  Mn  Mn1  1  0.50000000  0.00000000  0.00000000  1
  Mn  Mn2  1  0.00000000  0.50000000  0.50000000  1
  Mn  Mn3  1  0.00000000  0.50000000  0.00000000  1
  O  O0  1  0.69763600  0.32697100  0.44000400  1
  O  O1  1  0.87372900  0.54676300  0.75000000  1
  O  O2  1  0.80236400  0.82697100  0.05999600  1
  O  O3  1  0.12627100  0.45323700  0.25000000  1
  O  O4  1  0.19763600  0.17302900  0.55999600  1
  O  O5  1  0.62627100  0.04676300  0.75000000  1
  O  O6  1  0.69763600  0.32697100  0.05999600  1
  O  O7  1  0.30236400  0.67302900  0.55999600  1
  O  O8  1  0.37372900  0.95323700  0.25000000  1
  O  O9  1  0.80236400  0.82697100  0.44000400  1
  O  O10  1  0.19763600  0.17302900  0.94000400  1
  O  O11  1  0.30236400  0.67302900  0.94000400  1
loop_
_geom_bond_atom_site_label_1
_geom_bond_atom_site_label_2
_geom_bond_distance
_geom_bond_site_symmetry_2
Mn0 O9 1.936835 1_545
Mn0 O4 1.936835 1_555
Mn0 O8 1.997335 1_545
Mn0 O5 1.997335 1_555
Mn0 O0 2.212916 1_555
Mn0 O7 2.212916 1_545
Mn1 O2 1.936835 1_545
Mn1 O10 1.936835 1_554
Mn1 O8 1.997335 1_545
Mn1 O5 1.997335 1_554
Mn1 O6 2.212916 1_555
Mn1 O11 2.212916 1_544
Mn2 O7 1.936835 1_555
Mn2 O0 1.936835 1_455
Mn2 O3 1.997335 1_555
Mn2 O1 1.997335 1_455
Mn2 O4 2.212916 1_555
Mn2 O9 2.212916 1_455
Mn3 O11 1.936835 1_554
Mn3 O6 1.936835 1_455
Mn3 O3 1.997335 1_555
Mn3 O1 1.997335 1_454
Mn3 O10 2.212916 1_554
Mn3 O2 2.212916 1_455
O0 Tm1 2.260121 1_555
O0 Tm3 2.493789 1_555
O0 Tm0 2.631680 1_555
O1 Tm0 2.209871 1_555
O1 Tm2 2.282278 1_655
O2 Tm3 2.260121 1_565
O2 Tm1 2.493789 1_555
O2 Tm2 2.631680 1_654
O3 Tm1 2.209871 1_555
O3 Tm3 2.282278 1_455
O4 Tm2 2.260121 1_545
O4 Tm0 2.493789 1_555
O4 Tm3 2.631680 1_455
O5 Tm2 2.209871 1_645
O5 Tm0 2.282278 1_555
O6 Tm1 2.260121 1_555
O6 Tm3 2.493789 1_555
O6 Tm0 2.631680 1_554
O7 Tm0 2.260121 1_555
O7 Tm2 2.493789 1_555
O7 Tm1 2.631680 1_555
O8 Tm3 2.209871 1_465
O8 Tm1 2.282278 1_555
O9 Tm3 2.260121 1_565
O9 Tm1 2.493789 1_555
O9 Tm2 2.631680 1_655
O10 Tm2 2.260121 1_545
O10 Tm0 2.493789 1_555
O10 Tm3 2.631680 1_456
O11 Tm0 2.260121 1_555
O11 Tm2 2.493789 1_555
O11 Tm1 2.631680 1_556
