# generated using pymatgen
data_Ba3SrTa2O9
_symmetry_space_group_name_H-M   'P 1'
_cell_length_a   6.09539036
_cell_length_b   6.09539036
_cell_length_c   15.99008700
_cell_angle_alpha   90.00000000
_cell_angle_beta   90.00000000
_cell_angle_gamma   120.00000389
_symmetry_Int_Tables_number   1
_chemical_formula_structural   Ba3SrTa2O9
_chemical_formula_sum   'Ba6 Sr2 Ta4 O18'
_cell_volume   514.49894537
_cell_formula_units_Z   2
loop_
 _symmetry_equiv_pos_site_id
 _symmetry_equiv_pos_as_xyz
  1  'x, y, z'
loop_
 _atom_site_type_symbol
 _atom_site_label
 _atom_site_symmetry_multiplicity
 _atom_site_fract_x
 _atom_site_fract_y
 _atom_site_fract_z
 _atom_site_occupancy
  Ba  Ba0  1  0.00000000  0.00000000  0.25000000  1
  Ba  Ba1  1  0.00000000  0.00000000  0.75000000  1
  Ba  Ba2  1  0.33333300  0.66666700  0.87656400  1
  Ba  Ba3  1  0.66666700  0.33333300  0.37656400  1
  Ba  Ba4  1  0.66666700  0.33333300  0.12343600  1
  Ba  Ba5  1  0.33333300  0.66666700  0.62343600  1
  Sr  Sr0  1  0.00000000  0.00000000  0.00000000  1
  Sr  Sr1  1  0.00000000  0.00000000  0.50000000  1
  Ta  Ta0  1  0.33333300  0.66666700  0.15634100  1
  Ta  Ta1  1  0.66666700  0.33333300  0.65634100  1
  Ta  Ta2  1  0.66666700  0.33333300  0.84365900  1
  Ta  Ta3  1  0.33333300  0.66666700  0.34365900  1
  O  O0  1  0.48200900  0.96401700  0.25000000  1
  O  O1  1  0.51799100  0.48200900  0.75000000  1
  O  O2  1  0.96401700  0.48200900  0.75000000  1
  O  O3  1  0.03598300  0.51799100  0.25000000  1
  O  O4  1  0.48200900  0.51799100  0.25000000  1
  O  O5  1  0.51799100  0.03598300  0.75000000  1
  O  O6  1  0.17355200  0.34710300  0.39850900  1
  O  O7  1  0.82644800  0.17355200  0.89850900  1
  O  O8  1  0.34710300  0.17355200  0.89850900  1
  O  O9  1  0.65289700  0.82644800  0.39850900  1
  O  O10  1  0.17355200  0.82644800  0.39850900  1
  O  O11  1  0.82644800  0.65289700  0.60149100  1
  O  O12  1  0.82644800  0.17355200  0.60149100  1
  O  O13  1  0.82644800  0.65289700  0.89850900  1
  O  O14  1  0.34710300  0.17355200  0.60149100  1
  O  O15  1  0.65289700  0.82644800  0.10149100  1
  O  O16  1  0.17355200  0.34710300  0.10149100  1
  O  O17  1  0.17355200  0.82644800  0.10149100  1
loop_
_geom_bond_atom_site_label_1
_geom_bond_atom_site_label_2
_geom_bond_distance
_geom_bond_site_symmetry_2
Ba0 O15 2.999383 1_445
Ba0 O16 2.999383 1_555
Ba0 O9 2.999383 1_445
Ba0 O6 2.999383 1_555
Ba0 O10 2.999386 1_545
Ba0 O17 2.999386 1_545
Ba0 O3 3.053606 1_555
Ba0 O0 3.053606 1_445
Ba0 O4 3.053608 1_445
Ba0 O4 3.053608 1_555
Ba0 O3 3.053612 1_545
Ba0 O0 3.053612 1_545
Ba1 O14 2.999383 1_555
Ba1 O8 2.999383 1_555
Ba1 O13 2.999383 1_445
Ba1 O11 2.999383 1_445
Ba1 O12 2.999386 1_455
Ba1 O7 2.999386 1_455
Ba1 O5 3.053606 1_555
Ba1 O2 3.053606 1_445
Ba1 O1 3.053608 1_555
Ba1 O1 3.053608 1_445
Ba1 O2 3.053612 1_455
Ba1 O5 3.053612 1_455
Ba2 O2 2.810038 1_455
Ba2 O5 2.810038 1_565
Ba2 O1 2.810038 1_555
Ba2 O7 3.068690 1_565
Ba2 O7 3.068690 1_455
Ba2 O8 3.068691 1_565
Ba2 O13 3.068691 1_455
Ba2 O8 3.068691 1_555
Ba2 O13 3.068691 1_555
Ba3 O0 2.810038 1_545
Ba3 O3 2.810038 1_655
Ba3 O4 2.810038 1_555
Ba3 O10 3.068690 1_655
Ba3 O10 3.068690 1_545
Ba3 O6 3.068691 1_655
Ba3 O9 3.068691 1_545
Ba3 O9 3.068691 1_555
Ba3 O6 3.068691 1_555
Ba4 O0 2.810038 1_545
Ba4 O3 2.810038 1_655
Ba4 O4 2.810038 1_555
Ba4 O17 3.068690 1_655
Ba4 O17 3.068690 1_545
Ba4 O16 3.068691 1_655
Ba4 O15 3.068691 1_545
Ba4 O15 3.068691 1_555
Ba4 O16 3.068691 1_555
Ba5 O2 2.810038 1_455
Ba5 O5 2.810038 1_565
Ba5 O1 2.810038 1_555
Ba5 O12 3.068690 1_565
Ba5 O12 3.068690 1_455
Ba5 O14 3.068691 1_565
Ba5 O11 3.068691 1_455
Ba5 O11 3.068691 1_555
Ba5 O14 3.068691 1_555
O0 Ta3 2.169475 1_555
O0 Ta0 2.169475 1_555
O1 Ta1 2.169483 1_555
O1 Ta2 2.169483 1_555
O2 Ta2 2.169475 1_555
O2 Ta1 2.169475 1_555
O3 Ta3 2.169475 1_555
O3 Ta0 2.169475 1_555
O4 Ta3 2.169483 1_555
O4 Ta0 2.169483 1_555
O5 Ta2 2.169475 1_555
O5 Ta1 2.169475 1_555
O6 Ta3 1.901281 1_555
O6 Sr1 2.447626 1_555
O7 Ta2 1.901271 1_555
O7 Sr0 2.447630 1_656
O8 Ta2 1.901281 1_555
O8 Sr0 2.447626 1_556
O9 Ta3 1.901281 1_555
O9 Sr1 2.447626 1_665
O10 Ta3 1.901271 1_555
O10 Sr1 2.447630 1_565
O11 Ta1 1.901281 1_555
O11 Sr1 2.447626 1_665
O12 Ta1 1.901271 1_555
O12 Sr1 2.447630 1_655
O13 Ta2 1.901281 1_555
O13 Sr0 2.447626 1_666
O14 Ta1 1.901281 1_555
O14 Sr1 2.447626 1_555
O15 Ta0 1.901281 1_555
O15 Sr0 2.447626 1_665
O16 Ta0 1.901281 1_555
O16 Sr0 2.447626 1_555
O17 Ta0 1.901271 1_555
O17 Sr0 2.447630 1_565
