# generated using pymatgen
data_CsReBrCl3
_symmetry_space_group_name_H-M   'P 1'
_cell_length_a   10.29389739
_cell_length_b   10.29389739
_cell_length_c   11.09723200
_cell_angle_alpha   90.00000000
_cell_angle_beta   90.00000000
_cell_angle_gamma   90.43995526
_symmetry_Int_Tables_number   1
_chemical_formula_structural   CsReBrCl3
_chemical_formula_sum   'Cs6 Re6 Br6 Cl18'
_cell_volume   1175.87601380
_cell_formula_units_Z   6
loop_
 _symmetry_equiv_pos_site_id
 _symmetry_equiv_pos_as_xyz
  1  'x, y, z'
loop_
 _atom_site_type_symbol
 _atom_site_label
 _atom_site_symmetry_multiplicity
 _atom_site_fract_x
 _atom_site_fract_y
 _atom_site_fract_z
 _atom_site_occupancy
  Cs  Cs0  1  0.43279300  0.79637600  0.75000000  1
  Cs  Cs1  1  0.00435600  0.00435600  0.50000000  1
  Cs  Cs2  1  0.48775300  0.29558500  0.75000000  1
  Cs  Cs3  1  0.79637600  0.43279300  0.25000000  1
  Cs  Cs4  1  0.00435600  0.00435600  0.00000000  1
  Cs  Cs5  1  0.29558500  0.48775300  0.25000000  1
  Re  Re0  1  0.91806700  0.63424900  0.75000000  1
  Re  Re1  1  0.01179700  0.44910700  0.63808500  1
  Re  Re2  1  0.01179700  0.44910700  0.86191500  1
  Re  Re3  1  0.44910700  0.01179700  0.13808500  1
  Re  Re4  1  0.63424900  0.91806700  0.25000000  1
  Re  Re5  1  0.44910700  0.01179700  0.36191500  1
  Br  Br0  1  0.25421200  0.11166100  0.25000000  1
  Br  Br1  1  0.63968800  0.91647200  0.48220000  1
  Br  Br2  1  0.91647200  0.63968800  0.98220000  1
  Br  Br3  1  0.63968800  0.91647200  0.01780000  1
  Br  Br4  1  0.91647200  0.63968800  0.51780000  1
  Br  Br5  1  0.11166100  0.25421200  0.75000000  1
  Cl  Cl0  1  0.52819800  0.22240000  0.10266600  1
  Cl  Cl1  1  0.82293400  0.32868800  0.89595000  1
  Cl  Cl2  1  0.32868800  0.82293400  0.39595000  1
  Cl  Cl3  1  0.06316400  0.33936700  0.07010300  1
  Cl  Cl4  1  0.33936700  0.06316400  0.57010300  1
  Cl  Cl5  1  0.22240000  0.52819800  0.60266600  1
  Cl  Cl6  1  0.80751800  0.86334600  0.75000000  1
  Cl  Cl7  1  0.22240000  0.52819800  0.89733400  1
  Cl  Cl8  1  0.06316400  0.33936700  0.42989700  1
  Cl  Cl9  1  0.32868800  0.82293400  0.10405000  1
  Cl  Cl10  1  0.86334600  0.80751900  0.25000000  1
  Cl  Cl11  1  0.09804500  0.77401100  0.75000000  1
  Cl  Cl12  1  0.52819800  0.22240000  0.39733400  1
  Cl  Cl13  1  0.69941900  0.57204400  0.75000000  1
  Cl  Cl14  1  0.77401100  0.09804500  0.25000000  1
  Cl  Cl15  1  0.33936700  0.06316400  0.92989700  1
  Cl  Cl16  1  0.57204400  0.69941900  0.25000000  1
  Cl  Cl17  1  0.82293400  0.32868800  0.60405000  1
loop_
_geom_bond_atom_site_label_1
_geom_bond_atom_site_label_2
_geom_bond_distance
_geom_bond_site_symmetry_2
Br0 Re5 2.579888 1_555
Br0 Re3 2.579888 1_555
Br0 Cs5 3.891556 1_555
Br0 Cs1 3.935532 1_555
Br0 Cs4 3.935532 1_555
Br1 Re5 2.573511 1_565
Br1 Re4 2.577440 1_555
Br1 Cs0 3.854294 1_555
Br1 Cs1 3.859627 1_665
Br2 Re2 2.573511 1_655
Br2 Re0 2.577440 1_555
Br2 Cs3 3.854294 1_556
Br2 Cs4 3.859627 1_666
Br3 Re3 2.573511 1_565
Br3 Re4 2.577440 1_555
Br3 Cs0 3.854294 1_554
Br3 Cs4 3.859627 1_665
Br4 Re1 2.573511 1_655
Br4 Re0 2.577440 1_555
Br4 Cs3 3.854294 1_555
Br4 Cs1 3.859627 1_665
Br5 Re1 2.579888 1_555
Br5 Re2 2.579888 1_555
Br5 Cs2 3.891556 1_555
Br5 Cs1 3.935532 1_555
Br5 Cs4 3.935532 1_556
Cl0 Re3 2.343104 1_555
Cl0 Cs3 3.859124 1_555
Cl0 Cs5 3.996055 1_555
Cl0 Cs2 4.007754 1_554
Cl1 Re2 2.328491 1_655
Cl1 Cs2 3.824395 1_555
Cl1 Cs4 4.007896 1_656
Cl1 Cs3 4.082219 1_556
Cl2 Re5 2.328491 1_565
Cl2 Cs5 3.824395 1_555
Cl2 Cs1 4.007896 1_565
Cl2 Cs0 4.082219 1_555
Cl3 Re2 2.627245 1_554
Cl3 Cs5 3.462172 1_555
Cl3 Cs3 3.534545 1_455
Cl3 Cs4 3.582211 1_555
Cl4 Re5 2.627245 1_555
Cl4 Cs2 3.462172 1_555
Cl4 Cs0 3.534545 1_545
Cl4 Cs1 3.582211 1_555
Cl5 Re1 2.343104 1_555
Cl5 Cs0 3.859124 1_555
Cl5 Cs2 3.996055 1_555
Cl5 Cs5 4.007754 1_555
Cl6 Re0 2.626366 1_555
Cl6 Cs4 3.723466 1_666
Cl6 Cs1 3.723466 1_665
Cl6 Cs0 3.913285 1_555
Cl7 Re2 2.343104 1_555
Cl7 Cs0 3.859124 1_555
Cl7 Cs2 3.996055 1_555
Cl7 Cs5 4.007754 1_556
Cl8 Re1 2.627245 1_555
Cl8 Cs5 3.462172 1_555
Cl8 Cs3 3.534545 1_455
Cl8 Cs1 3.582211 1_555
Cl9 Re3 2.328491 1_565
Cl9 Cs5 3.824395 1_555
Cl9 Cs4 4.007896 1_565
Cl9 Cs0 4.082219 1_554
Cl10 Re4 2.626361 1_555
Cl10 Cs4 3.723461 1_665
Cl10 Cs1 3.723461 1_665
Cl10 Cs3 3.913295 1_555
Cl11 Re0 2.336946 1_455
Cl11 Cs0 3.451779 1_555
Cl11 Cs1 3.779466 1_565
Cl11 Cs4 3.779466 1_566
Cl12 Re5 2.343104 1_555
Cl12 Cs3 3.859124 1_555
Cl12 Cs5 3.996055 1_555
Cl12 Cs2 4.007754 1_555
Cl13 Re0 2.335321 1_555
Cl13 Cs2 3.570861 1_555
Cl13 Cs0 3.600405 1_555
Cl14 Re4 2.336946 1_545
Cl14 Cs3 3.451779 1_555
Cl14 Cs4 3.779466 1_655
Cl14 Cs1 3.779466 1_655
Cl15 Re3 2.627245 1_556
Cl15 Cs2 3.462172 1_555
Cl15 Cs0 3.534545 1_545
Cl15 Cs4 3.582211 1_556
Cl16 Re4 2.335321 1_555
Cl16 Cs5 3.570861 1_555
Cl16 Cs3 3.600405 1_555
Cl17 Re1 2.328491 1_655
Cl17 Cs2 3.824395 1_555
Cl17 Cs1 4.007896 1_655
Cl17 Cs3 4.082219 1_555
