# generated using pymatgen
data_Ge2C2(SF2)3
_symmetry_space_group_name_H-M   'P 1'
_cell_length_a   11.39876637
_cell_length_b   11.39876637
_cell_length_c   11.39876637
_cell_angle_alpha   60.00000000
_cell_angle_beta   60.00000000
_cell_angle_gamma   60.00000000
_symmetry_Int_Tables_number   1
_chemical_formula_structural   Ge2C2(SF2)3
_chemical_formula_sum   'Ge8 C8 S12 F24'
_cell_volume   1047.26975135
_cell_formula_units_Z   4
loop_
 _symmetry_equiv_pos_site_id
 _symmetry_equiv_pos_as_xyz
  1  'x, y, z'
loop_
 _atom_site_type_symbol
 _atom_site_label
 _atom_site_symmetry_multiplicity
 _atom_site_fract_x
 _atom_site_fract_y
 _atom_site_fract_z
 _atom_site_occupancy
  Ge  Ge0  1  0.42485200  0.72544500  0.42485200  1
  Ge  Ge1  1  0.82514800  0.82514800  0.52455500  1
  Ge  Ge2  1  0.52455500  0.82514800  0.82514800  1
  Ge  Ge3  1  0.82514800  0.82514800  0.82514800  1
  Ge  Ge4  1  0.72544500  0.42485200  0.42485200  1
  Ge  Ge5  1  0.42485200  0.42485200  0.42485200  1
  Ge  Ge6  1  0.42485200  0.42485200  0.72544500  1
  Ge  Ge7  1  0.82514800  0.52455500  0.82514800  1
  C  C0  1  0.35155100  0.94534600  0.35155100  1
  C  C1  1  0.89844900  0.89844900  0.30465400  1
  C  C2  1  0.30465400  0.89844900  0.89844900  1
  C  C3  1  0.89844900  0.89844900  0.89844900  1
  C  C4  1  0.94534600  0.35155100  0.35155100  1
  C  C5  1  0.35155100  0.35155100  0.35155100  1
  C  C6  1  0.35155100  0.35155100  0.94534600  1
  C  C7  1  0.89844900  0.30465400  0.89844900  1
  S  S0  1  0.66455500  0.66455500  0.33544500  1
  S  S1  1  0.91455500  0.58544500  0.58544500  1
  S  S2  1  0.58544500  0.91455500  0.91455500  1
  S  S3  1  0.91455500  0.91455500  0.58544500  1
  S  S4  1  0.91455500  0.58544500  0.91455500  1
  S  S5  1  0.58544500  0.91455500  0.58544500  1
  S  S6  1  0.33544500  0.66455500  0.33544500  1
  S  S7  1  0.33544500  0.66455500  0.66455500  1
  S  S8  1  0.66455500  0.33544500  0.33544500  1
  S  S9  1  0.66455500  0.33544500  0.66455500  1
  S  S10  1  0.58544500  0.58544500  0.91455500  1
  S  S11  1  0.33544500  0.33544500  0.66455500  1
  F  F0  1  0.26972200  0.99788700  0.46266800  1
  F  F1  1  0.98027800  0.98027800  0.25211300  1
  F  F2  1  0.25211300  0.78733200  0.98027800  1
  F  F3  1  0.98027800  0.78733200  0.98027800  1
  F  F4  1  0.78733200  0.98027800  0.25211300  1
  F  F5  1  0.78733200  0.98027800  0.98027800  1
  F  F6  1  0.25211300  0.98027800  0.98027800  1
  F  F7  1  0.46266800  0.99788700  0.26972200  1
  F  F8  1  0.26972200  0.99788700  0.26972200  1
  F  F9  1  0.99788700  0.26972200  0.46266800  1
  F  F10  1  0.26972200  0.26972200  0.46266800  1
  F  F11  1  0.99788700  0.46266800  0.26972200  1
  F  F12  1  0.46266800  0.26972200  0.99788700  1
  F  F13  1  0.26972200  0.26972200  0.99788700  1
  F  F14  1  0.26972200  0.46266800  0.26972200  1
  F  F15  1  0.25211300  0.98027800  0.78733200  1
  F  F16  1  0.98027800  0.98027800  0.78733200  1
  F  F17  1  0.98027800  0.78733200  0.25211300  1
  F  F18  1  0.98027800  0.25211300  0.78733200  1
  F  F19  1  0.78733200  0.25211300  0.98027800  1
  F  F20  1  0.98027800  0.25211300  0.98027800  1
  F  F21  1  0.46266800  0.26972200  0.26972200  1
  F  F22  1  0.99788700  0.26972200  0.26972200  1
  F  F23  1  0.26972200  0.46266800  0.99788700  1
loop_
_geom_bond_atom_site_label_1
_geom_bond_atom_site_label_2
_geom_bond_distance
_geom_bond_site_symmetry_2
Ge0 S7 2.238808 1_555
Ge0 S0 2.238808 1_555
Ge0 S6 2.238818 1_555
Ge1 S5 2.238808 1_555
Ge1 S1 2.238808 1_555
Ge1 S3 2.238818 1_555
Ge2 S10 2.238808 1_555
Ge2 S5 2.238808 1_555
Ge2 S2 2.238818 1_555
Ge3 S3 2.238809 1_555
Ge3 S4 2.238809 1_555
Ge3 S2 2.238809 1_555
Ge4 S9 2.238808 1_555
Ge4 S0 2.238808 1_555
Ge4 S8 2.238818 1_555
Ge5 S11 2.238809 1_555
Ge5 S8 2.238809 1_555
Ge5 S6 2.238809 1_555
Ge6 S9 2.238808 1_555
Ge6 S7 2.238808 1_555
Ge6 S11 2.238818 1_555
Ge7 S10 2.238808 1_555
Ge7 S1 2.238808 1_555
Ge7 S4 2.238818 1_555
C0 F0 1.360698 1_555
C0 F7 1.360698 1_555
C0 F8 1.360698 1_555
C0 Ge0 2.046630 1_555
C1 F17 1.360698 1_555
C1 F4 1.360698 1_555
C1 F1 1.360698 1_555
C1 Ge1 2.046630 1_555
C2 F15 1.360698 1_555
C2 F2 1.360698 1_555
C2 F6 1.360698 1_555
C2 Ge2 2.046630 1_555
C3 F5 1.360698 1_555
C3 F16 1.360698 1_555
C3 F3 1.360698 1_555
C3 Ge3 2.046649 1_555
C4 F11 1.360698 1_555
C4 F9 1.360698 1_555
C4 F22 1.360698 1_555
C4 Ge4 2.046630 1_555
C5 F21 1.360698 1_555
C5 F14 1.360698 1_555
C5 F10 1.360698 1_555
C5 Ge5 2.046649 1_555
C6 F12 1.360698 1_555
C6 F23 1.360698 1_555
C6 F13 1.360698 1_555
C6 Ge6 2.046630 1_555
C7 F18 1.360698 1_555
C7 F19 1.360698 1_555
C7 F20 1.360698 1_555
C7 Ge7 2.046630 1_555
