# generated using pymatgen
data_AlBPbO4
_symmetry_space_group_name_H-M   'P 1'
_cell_length_a   5.73781189
_cell_length_b   6.96473999
_cell_length_c   8.02147638
_cell_angle_alpha   90.00000000
_cell_angle_beta   90.00000000
_cell_angle_gamma   90.00000000
_symmetry_Int_Tables_number   1
_chemical_formula_structural   AlBPbO4
_chemical_formula_sum   'Al4 B4 Pb4 O16'
_cell_volume   320.55719040
_cell_formula_units_Z   4
loop_
 _symmetry_equiv_pos_site_id
 _symmetry_equiv_pos_as_xyz
  1  'x, y, z'
loop_
 _atom_site_type_symbol
 _atom_site_label
 _atom_site_symmetry_multiplicity
 _atom_site_fract_x
 _atom_site_fract_y
 _atom_site_fract_z
 _atom_site_occupancy
  Al  Al0  1  0.00000000  0.50000000  0.50000000  1
  Al  Al1  1  0.00000000  -0.00000000  0.00000000  1
  Al  Al2  1  0.50000000  -0.00000000  0.00000000  1
  Al  Al3  1  0.50000000  0.50000000  0.50000000  1
  B  B0  1  0.75000000  0.72824914  0.24231423  1
  B  B1  1  0.75000000  0.22824914  0.25768577  1
  B  B2  1  0.25000000  0.77175086  0.74231423  1
  B  B3  1  0.25000000  0.27175086  0.75768577  1
  Pb  Pb0  1  0.25000000  0.06401282  0.36393193  1
  Pb  Pb1  1  0.25000000  0.56401282  0.13606807  1
  Pb  Pb2  1  0.75000000  0.93598718  0.63606807  1
  Pb  Pb3  1  0.75000000  0.43598718  0.86393193  1
  O  O0  1  0.95647923  0.17198817  0.18451604  1
  O  O1  1  0.95647923  0.67198817  0.31548396  1
  O  O2  1  0.45647923  0.32801183  0.68451604  1
  O  O3  1  0.75000000  0.10013489  0.88937202  1
  O  O4  1  0.04352077  0.32801183  0.68451604  1
  O  O5  1  0.25000000  0.89986511  0.11062798  1
  O  O6  1  0.75000000  0.33494936  0.40187730  1
  O  O7  1  0.25000000  0.16505064  0.90187730  1
  O  O8  1  0.54352077  0.17198817  0.18451604  1
  O  O9  1  0.04352077  0.82801183  0.81548396  1
  O  O10  1  0.25000000  0.66505064  0.59812270  1
  O  O11  1  0.75000000  0.60013489  0.61062798  1
  O  O12  1  0.54352077  0.67198817  0.31548396  1
  O  O13  1  0.75000000  0.83494936  0.09812270  1
  O  O14  1  0.25000000  0.39986511  0.38937202  1
  O  O15  1  0.45647923  0.82801183  0.81548396  1
loop_
_geom_bond_atom_site_label_1
_geom_bond_atom_site_label_2
_geom_bond_distance
_geom_bond_site_symmetry_2
Al0 O11 1.825245 1_455
Al0 O14 1.825245 1_555
Al0 O1 1.920385 1_455
Al0 O4 1.920385 1_555
Al0 O6 1.999649 1_455
Al0 O10 1.999649 1_555
Al1 O3 1.825245 1_454
Al1 O5 1.825245 1_545
Al1 O0 1.920385 1_455
Al1 O9 1.920385 1_544
Al1 O7 1.999649 1_554
Al1 O13 1.999649 1_445
Al2 O3 1.825245 1_554
Al2 O5 1.825245 1_545
Al2 O15 1.920385 1_544
Al2 O8 1.920385 1_555
Al2 O7 1.999649 1_554
Al2 O13 1.999649 1_545
Al3 O11 1.825245 1_555
Al3 O14 1.825245 1_555
Al3 O12 1.920385 1_555
Al3 O2 1.920385 1_555
Al3 O6 1.999649 1_555
Al3 O10 1.999649 1_555
B0 O13 1.374790 1_555
B0 O12 1.378997 1_555
B0 O1 1.378997 1_555
B1 O6 1.374790 1_555
B1 O8 1.378997 1_555
B1 O0 1.378997 1_555
B2 O10 1.374790 1_555
B2 O9 1.378997 1_555
B2 O15 1.378997 1_555
B3 O7 1.374790 1_555
B3 O4 1.378997 1_555
B3 O2 1.378997 1_555
O0 Pb0 2.339486 1_655
O1 Pb1 2.339486 1_655
O2 Pb3 2.339486 1_555
O3 Pb2 2.331419 1_545
O3 Pb3 2.348008 1_555
O4 Pb3 2.339486 1_455
O5 Pb0 2.331419 1_565
O5 Pb1 2.348008 1_555
O8 Pb0 2.339486 1_555
O9 Pb2 2.339486 1_455
O11 Pb3 2.331419 1_555
O11 Pb2 2.348008 1_555
O12 Pb1 2.339486 1_555
O14 Pb1 2.331419 1_555
O14 Pb0 2.348008 1_555
O15 Pb2 2.339486 1_555
