# generated using pymatgen
data_Rb2SbBr6
_symmetry_space_group_name_H-M   'P 1'
_cell_length_a   13.56626093
_cell_length_b   13.56626093
_cell_length_c   13.56626093
_cell_angle_alpha   132.24456036
_cell_angle_beta   132.24456036
_cell_angle_gamma   69.84304358
_symmetry_Int_Tables_number   1
_chemical_formula_structural   Rb2SbBr6
_chemical_formula_sum   'Rb8 Sb4 Br24'
_cell_volume   1341.75113078
_cell_formula_units_Z   4
loop_
 _symmetry_equiv_pos_site_id
 _symmetry_equiv_pos_as_xyz
  1  'x, y, z'
loop_
 _atom_site_type_symbol
 _atom_site_label
 _atom_site_symmetry_multiplicity
 _atom_site_fract_x
 _atom_site_fract_y
 _atom_site_fract_z
 _atom_site_occupancy
  Rb  Rb0  1  0.37680700  0.35913600  0.48160000  1
  Rb  Rb1  1  0.10479300  0.62319300  0.98232800  1
  Rb  Rb2  1  0.87753600  0.89520700  0.51840000  1
  Rb  Rb3  1  0.10913600  0.12753600  0.48232800  1
  Rb  Rb4  1  0.37319300  0.89086400  0.01840000  1
  Rb  Rb5  1  0.64520700  0.62680700  0.51767200  1
  Rb  Rb6  1  0.64086400  0.12246400  0.01767200  1
  Rb  Rb7  1  0.87246400  0.35479300  0.98160000  1
  Sb  Sb0  1  0.25000000  0.75000000  0.50000000  1
  Sb  Sb1  1  0.50000000  0.50000000  0.00000000  1
  Sb  Sb2  1  0.75000000  0.25000000  0.50000000  1
  Sb  Sb3  1  0.00000000  0.00000000  0.00000000  1
  Br  Br0  1  0.00755200  0.77565600  0.28340700  1
  Br  Br1  1  0.01598300  0.25356500  0.26319000  1
  Br  Br2  1  0.27585500  0.99244800  0.76810400  1
  Br  Br3  1  0.00356500  0.24037500  0.73758200  1
  Br  Br4  1  0.12987800  0.62987800  0.50000000  1
  Br  Br5  1  0.25775100  0.52585500  0.78340700  1
  Br  Br6  1  0.49224900  0.72414500  0.71659300  1
  Br  Br7  1  0.50279300  0.26598300  0.26241800  1
  Br  Br8  1  0.47414500  0.25755200  0.73189600  1
  Br  Br9  1  0.62012200  0.62012200  0.00000000  1
  Br  Br10  1  0.52565600  0.74224900  0.26810400  1
  Br  Br11  1  0.12416500  0.12416500  0.00000000  1
  Br  Br12  1  0.87583500  0.87583500  0.00000000  1
  Br  Br13  1  0.99037500  0.75279300  0.73681000  1
  Br  Br14  1  0.74643500  0.00962500  0.76241800  1
  Br  Br15  1  0.24720700  0.98401700  0.23758200  1
  Br  Br16  1  0.74244800  0.47434400  0.21659300  1
  Br  Br17  1  0.22434400  0.50775100  0.23189600  1
  Br  Br18  1  0.37012200  0.87012200  0.50000000  1
  Br  Br19  1  0.87416500  0.37416500  0.50000000  1
  Br  Br20  1  0.37987800  0.37987800  0.00000000  1
  Br  Br21  1  0.62583500  0.12583500  0.50000000  1
  Br  Br22  1  0.75962500  0.49720700  0.76319000  1
  Br  Br23  1  0.73401700  0.99643500  0.23681000  1
loop_
_geom_bond_atom_site_label_1
_geom_bond_atom_site_label_2
_geom_bond_distance
_geom_bond_site_symmetry_2
Br0 Sb0 2.676671 1_555
Br0 Rb3 3.765868 1_565
Br0 Rb2 3.813363 1_455
Br0 Rb1 4.087392 1_554
Br1 Sb3 2.754457 1_555
Br1 Rb3 3.694862 1_555
Br1 Rb0 3.796798 1_555
Br1 Rb7 3.934514 1_454
Br1 Rb6 3.954273 1_455
Br2 Sb0 2.676671 1_555
Br2 Rb4 3.765863 1_556
Br2 Rb6 3.813359 1_566
Br2 Rb2 4.087380 1_455
Br3 Sb2 2.754457 1_455
Br3 Rb2 3.694874 1_445
Br3 Rb3 3.796810 1_555
Br3 Rb1 3.934518 1_555
Br3 Rb7 3.954268 1_455
Br4 Sb0 2.672349 1_555
Br4 Rb0 4.023253 1_555
Br4 Rb2 4.023253 1_455
Br4 Rb4 4.031315 1_556
Br4 Rb7 4.031315 1_454
Br5 Sb1 2.676671 1_556
Br5 Rb1 3.765851 1_555
Br5 Rb4 3.813363 1_556
Br5 Rb3 4.087377 1_555
Br6 Sb0 2.676671 1_555
Br6 Rb5 3.765851 1_555
Br6 Rb0 3.813363 1_555
Br6 Rb6 4.087377 1_566
Br7 Sb2 2.754457 1_555
Br7 Rb0 3.694874 1_555
Br7 Rb5 3.796794 1_555
Br7 Rb6 3.934503 1_555
Br7 Rb4 3.954268 1_545
Br8 Sb1 2.676671 1_556
Br8 Rb0 3.765863 1_555
Br8 Rb3 3.813359 1_555
Br8 Rb7 4.087380 1_555
Br9 Sb1 2.672349 1_555
Br9 Rb7 4.023253 1_554
Br9 Rb4 4.023253 1_555
Br9 Rb0 4.031315 1_554
Br9 Rb2 4.031315 1_555
Br10 Sb1 2.676671 1_555
Br10 Rb2 3.765863 1_555
Br10 Rb5 3.813375 1_555
Br10 Rb4 4.087380 1_555
Br11 Sb3 2.762293 1_555
Br11 Rb2 3.743249 1_444
Br11 Rb0 3.743249 1_555
Br11 Rb7 3.748638 1_454
Br11 Rb4 3.748638 1_545
Br12 Sb3 2.762293 1_665
Br12 Rb1 3.743249 1_654
Br12 Rb6 3.743249 1_565
Br12 Rb5 3.748630 1_554
Br12 Rb3 3.748630 1_665
Br13 Sb3 2.754457 1_666
Br13 Rb5 3.694879 1_555
Br13 Rb2 3.796798 1_555
Br13 Rb4 3.934514 1_656
Br13 Rb1 3.954256 1_655
Br14 Sb3 2.754457 1_656
Br14 Rb7 3.694874 1_555
Br14 Rb6 3.796810 1_556
Br14 Rb5 3.934518 1_545
Br14 Rb2 3.954268 1_545
Br15 Sb3 2.754457 1_565
Br15 Rb4 3.694874 1_555
Br15 Rb1 3.796794 1_554
Br15 Rb3 3.934503 1_565
Br15 Rb0 3.954268 1_565
Br16 Sb1 2.676671 1_555
Br16 Rb6 3.765868 1_555
Br16 Rb7 3.813363 1_554
Br16 Rb5 4.087392 1_555
Br17 Sb0 2.676671 1_555
Br17 Rb7 3.765863 1_454
Br17 Rb1 3.813375 1_554
Br17 Rb0 4.087380 1_555
Br18 Sb0 2.672349 1_555
Br18 Rb6 4.023260 1_566
Br18 Rb1 4.023261 1_554
Br18 Rb5 4.031315 1_555
Br18 Rb3 4.031316 1_565
Br19 Sb2 2.762293 1_555
Br19 Rb5 3.743249 1_555
Br19 Rb3 3.743249 1_655
Br19 Rb1 3.748630 1_655
Br19 Rb6 3.748630 1_555
Br20 Sb1 2.672349 1_555
Br20 Rb3 4.023260 1_554
Br20 Rb5 4.023261 1_555
Br20 Rb1 4.031315 1_554
Br20 Rb6 4.031316 1_555
Br21 Sb2 2.762293 1_555
Br21 Rb4 3.743249 1_545
Br21 Rb7 3.743249 1_555
Br21 Rb0 3.748638 1_555
Br21 Rb2 3.748638 1_545
Br22 Sb2 2.754457 1_555
Br22 Rb1 3.694879 1_655
Br22 Rb7 3.796798 1_555
Br22 Rb0 3.934514 1_555
Br22 Rb5 3.954256 1_555
Br23 Sb2 2.754457 1_565
Br23 Rb6 3.694862 1_565
Br23 Rb4 3.796798 1_555
Br23 Rb2 3.934514 1_555
Br23 Rb3 3.954273 1_665
