# generated using pymatgen
data_As4S3
_symmetry_space_group_name_H-M   'P 1'
_cell_length_a   6.79579656
_cell_length_b   10.16654238
_cell_length_c   11.57031641
_cell_angle_alpha   90.00000000
_cell_angle_beta   90.00000000
_cell_angle_gamma   90.00000000
_symmetry_Int_Tables_number   1
_chemical_formula_structural   As4S3
_chemical_formula_sum   'As16 S12'
_cell_volume   799.39031138
_cell_formula_units_Z   4
loop_
 _symmetry_equiv_pos_site_id
 _symmetry_equiv_pos_as_xyz
  1  'x, y, z'
loop_
 _atom_site_type_symbol
 _atom_site_label
 _atom_site_symmetry_multiplicity
 _atom_site_fract_x
 _atom_site_fract_y
 _atom_site_fract_z
 _atom_site_occupancy
  As  As0  1  0.21695559  0.62681439  0.92694449  1
  As  As1  1  0.78304441  0.12681439  0.07305551  1
  As  As2  1  0.71695559  0.12681439  0.57305551  1
  As  As3  1  0.21695559  0.87318561  0.92694449  1
  As  As4  1  0.89921646  0.25000000  0.42145929  1
  As  As5  1  0.78304441  0.37318661  0.07305551  1
  As  As6  1  0.39921646  0.75000000  0.07854071  1
  As  As7  1  0.16735335  0.25000000  0.68623711  1
  As  As8  1  0.10078354  0.75000000  0.57854071  1
  As  As9  1  0.71695559  0.37318661  0.57305551  1
  As  As10  1  0.83264665  0.75000000  0.31376289  1
  As  As11  1  0.33264665  0.25000000  0.18623711  1
  As  As12  1  0.28304441  0.62681439  0.42694449  1
  As  As13  1  0.66735335  0.75000000  0.81376289  1
  As  As14  1  0.28304441  0.87318561  0.42694449  1
  As  As15  1  0.60078354  0.25000000  0.92145929  1
  S  S0  1  0.79784831  0.75000000  0.50674043  1
  S  S1  1  0.45183812  0.58348762  0.79952081  1
  S  S2  1  0.54816188  0.41651238  0.20047919  1
  S  S3  1  0.70215169  0.75000000  0.00674043  1
  S  S4  1  0.45183812  0.91651238  0.79952081  1
  S  S5  1  0.20215169  0.25000000  0.49325957  1
  S  S6  1  0.95183812  0.41651238  0.70047919  1
  S  S7  1  0.29784831  0.25000000  0.99325957  1
  S  S8  1  0.54816188  0.08348762  0.20047919  1
  S  S9  1  0.95183812  0.08348762  0.70047919  1
  S  S10  1  0.04816188  0.91651238  0.29952081  1
  S  S11  1  0.04816188  0.58348762  0.29952081  1
loop_
_geom_bond_atom_site_label_1
_geom_bond_atom_site_label_2
_geom_bond_distance
_geom_bond_site_symmetry_2
As0 S1 2.217111 1_555
As1 S8 2.217111 1_555
As2 S9 2.217111 1_555
As3 S4 2.217111 1_555
As4 S5 2.219986 1_655
As5 S2 2.217109 1_555
As6 S3 2.219986 1_555
As7 S9 2.244540 1_455
As7 S6 2.244540 1_455
As7 S5 2.245299 1_555
As8 S0 2.219986 1_455
As9 S6 2.217109 1_555
As10 S10 2.244540 1_655
As10 S11 2.244540 1_655
As10 S0 2.245299 1_555
As11 S8 2.244540 1_555
As11 S2 2.244540 1_555
As11 S7 2.245299 1_554
As12 S11 2.217111 1_555
As13 S1 2.244540 1_555
As13 S4 2.244540 1_555
As13 S3 2.245299 1_556
As14 S10 2.217111 1_555
As15 S7 2.219986 1_555
