# generated using pymatgen
data_Sc6C2I11
_symmetry_space_group_name_H-M   'P 1'
_cell_length_a   9.23614479
_cell_length_b   10.29887453
_cell_length_c   14.46197832
_cell_angle_alpha   90.03270783
_cell_angle_beta   104.59462477
_cell_angle_gamma   110.55371410
_symmetry_Int_Tables_number   1
_chemical_formula_structural   Sc6C2I11
_chemical_formula_sum   'Sc12 C4 I22'
_cell_volume   1240.48661846
_cell_formula_units_Z   2
loop_
 _symmetry_equiv_pos_site_id
 _symmetry_equiv_pos_as_xyz
  1  'x, y, z'
loop_
 _atom_site_type_symbol
 _atom_site_label
 _atom_site_symmetry_multiplicity
 _atom_site_fract_x
 _atom_site_fract_y
 _atom_site_fract_z
 _atom_site_occupancy
  Sc  Sc0  1  0.38850564  0.47875183  0.12023964  1
  Sc  Sc1  1  0.61149436  0.52124817  0.87976036  1
  Sc  Sc2  1  0.43409443  0.77773395  0.26463447  1
  Sc  Sc3  1  0.56590557  0.22226605  0.73536553  1
  Sc  Sc4  1  0.62374553  0.58325417  0.35533673  1
  Sc  Sc5  1  0.37625447  0.41674583  0.64466327  1
  Sc  Sc6  1  0.82544401  0.65438306  0.20361996  1
  Sc  Sc7  1  0.17455599  0.34561694  0.79638004  1
  Sc  Sc8  1  0.63150777  0.84249125  0.10969668  1
  Sc  Sc9  1  0.36849223  0.15750875  0.89030332  1
  Sc  Sc10  1  0.85800683  0.94627587  0.34800035  1
  Sc  Sc11  1  0.14199317  0.05372413  0.65199965  1
  C  C0  1  0.43287901  0.34648895  0.79858874  1
  C  C1  1  0.56712099  0.65351105  0.20141126  1
  C  C2  1  0.31372756  0.22941767  0.73836373  1
  C  C3  1  0.68627244  0.77058233  0.26163627  1
  I  I0  1  0.38473171  0.30643842  0.27129527  1
  I  I1  1  0.61526829  0.69356158  0.72870473  1
  I  I2  1  0.12915801  0.55360067  0.14877421  1
  I  I3  1  0.87084199  0.44639933  0.85122579  1
  I  I4  1  0.62693672  0.37781460  0.06257006  1
  I  I5  1  0.37306328  0.62218540  0.93742994  1
  I  I6  1  0.12004382  0.20712488  0.47950051  1
  I  I7  1  0.87995618  0.79287512  0.52049949  1
  I  I8  1  0.61729725  0.03373977  0.39025550  1
  I  I9  1  0.38270275  0.96626023  0.60974450  1
  I  I10  1  0.12225946  0.87222413  0.30699215  1
  I  I11  1  0.87774054  0.12777587  0.69300785  1
  I  I12  1  0.13614204  0.52659039  0.65233614  1
  I  I13  1  0.86385796  0.47340961  0.34766386  1
  I  I14  1  0.61256814  0.36899116  0.56846101  1
  I  I15  1  0.38743186  0.63100884  0.43153899  1
  I  I16  1  0.14522228  0.21994391  0.97709488  1
  I  I17  1  0.85477772  0.78005609  0.02290512  1
  I  I18  1  0.61924200  0.05595516  0.89483765  1
  I  I19  1  0.38075800  0.94404484  0.10516235  1
  I  I20  1  0.12741776  0.88755250  0.81434022  1
  I  I21  1  0.87258224  0.11244750  0.18565978  1
loop_
_geom_bond_atom_site_label_1
_geom_bond_atom_site_label_2
_geom_bond_distance
_geom_bond_site_symmetry_2
C0 C2 1.416854 1_555
C0 Sc1 2.067780 1_555
C0 Sc5 2.330940 1_555
C0 Sc9 2.342794 1_555
C0 Sc7 2.374912 1_555
C0 Sc3 2.377159 1_555
C1 C3 1.416854 1_555
C1 Sc0 2.067780 1_555
C1 Sc4 2.330940 1_555
C1 Sc8 2.342794 1_555
C1 Sc6 2.374912 1_555
C1 Sc2 2.377159 1_555
C2 Sc11 2.081763 1_555
C2 Sc9 2.310283 1_555
C2 Sc7 2.326133 1_555
C2 Sc5 2.346680 1_555
C2 Sc3 2.367194 1_555
C3 Sc10 2.081763 1_555
C3 Sc8 2.310283 1_555
C3 Sc6 2.326133 1_555
C3 Sc4 2.346680 1_555
C3 Sc2 2.367194 1_555
I0 Sc0 2.814645 1_555
I0 Sc4 2.950066 1_555
I1 Sc1 2.814645 1_555
I1 Sc5 2.950066 1_555
I2 Sc0 2.880394 1_555
I2 Sc2 3.020026 1_555
I2 Sc6 3.569327 1_455
I3 Sc1 2.880394 1_555
I3 Sc3 3.020026 1_555
I3 Sc7 3.569327 1_655
I4 Sc1 3.025635 1_554
I4 Sc0 3.026202 1_555
I4 Sc6 3.174470 1_555
I4 Sc9 3.200964 1_554
I5 Sc0 3.025635 1_556
I5 Sc1 3.026202 1_555
I5 Sc7 3.174470 1_555
I5 Sc8 3.200964 1_556
I6 Sc11 2.955500 1_555
I6 Sc5 3.086133 1_555
I6 Sc10 3.130556 1_445
I7 Sc10 2.955500 1_555
I7 Sc4 3.086133 1_555
I7 Sc11 3.130556 1_665
I8 Sc10 2.866675 1_545
I8 Sc2 2.903086 1_545
I9 Sc11 2.866675 1_565
I9 Sc3 2.903086 1_565
I10 Sc6 2.897560 1_455
I10 Sc10 2.987675 1_455
I10 Sc2 3.531860 1_555
I11 Sc7 2.897560 1_655
I11 Sc11 2.987675 1_655
I11 Sc3 3.531860 1_555
I12 Sc7 2.834706 1_555
I12 Sc5 2.845323 1_555
I13 Sc6 2.834706 1_555
I13 Sc4 2.845323 1_555
I14 Sc5 2.861039 1_555
I14 Sc3 2.892507 1_555
I15 Sc4 2.861039 1_555
I15 Sc2 2.892507 1_555
I16 Sc9 2.911355 1_555
I16 Sc7 2.948461 1_555
I16 Sc0 3.143739 1_556
I17 Sc8 2.911355 1_555
I17 Sc6 2.948461 1_555
I17 Sc1 3.143739 1_554
I18 Sc9 2.843628 1_555
I18 Sc3 2.918865 1_555
I19 Sc8 2.843628 1_555
I19 Sc2 2.918865 1_555
I20 Sc9 2.882947 1_565
I20 Sc11 2.908788 1_565
I21 Sc8 2.882947 1_545
I21 Sc10 2.908788 1_545
