# generated using pymatgen
data_Li2BeSiO4
_symmetry_space_group_name_H-M   'P 1'
_cell_length_a   4.84695080
_cell_length_b   4.84695083
_cell_length_c   6.07202864
_cell_angle_alpha   90.00000000
_cell_angle_beta   90.00000000
_cell_angle_gamma   90.53150525
_symmetry_Int_Tables_number   1
_chemical_formula_structural   Li2BeSiO4
_chemical_formula_sum   'Li4 Be2 Si2 O8'
_cell_volume   142.64361935
_cell_formula_units_Z   2
loop_
 _symmetry_equiv_pos_site_id
 _symmetry_equiv_pos_as_xyz
  1  'x, y, z'
loop_
 _atom_site_type_symbol
 _atom_site_label
 _atom_site_symmetry_multiplicity
 _atom_site_fract_x
 _atom_site_fract_y
 _atom_site_fract_z
 _atom_site_occupancy
  Li  Li0  1  0.68234938  0.68234938  0.00000000  1
  Li  Li1  1  0.80371176  0.19628824  0.75000000  1
  Li  Li2  1  0.31765062  0.31765062  0.50000000  1
  Li  Li3  1  0.19628824  0.80371176  0.25000000  1
  Be  Be0  1  0.68010542  0.68010542  0.50000000  1
  Be  Be1  1  0.31989458  0.31989458  0.00000000  1
  Si  Si0  1  0.17962800  0.82037200  0.75000000  1
  Si  Si1  1  0.82037200  0.17962800  0.25000000  1
  O  O0  1  0.71645628  0.34355522  0.46733291  1
  O  O1  1  0.65644478  0.28354472  0.03266709  1
  O  O2  1  0.15370479  0.22058410  0.21987420  1
  O  O3  1  0.84629521  0.77941590  0.71987420  1
  O  O4  1  0.77941590  0.84629521  0.28012580  1
  O  O5  1  0.28354472  0.65644478  0.96733291  1
  O  O6  1  0.22058410  0.15370479  0.78012580  1
  O  O7  1  0.34355522  0.71645628  0.53266709  1
loop_
_geom_bond_atom_site_label_1
_geom_bond_atom_site_label_2
_geom_bond_distance
_geom_bond_site_symmetry_2
Li0 O3 1.933657 1_554
Li0 O4 1.933657 1_555
Li0 O5 1.946033 1_554
Li0 O1 1.946033 1_555
Li1 O0 1.907844 1_555
Li1 O1 1.907845 1_556
Li1 O6 2.041191 1_655
Li1 O3 2.041191 1_545
Li2 O2 1.933657 1_555
Li2 O6 1.933657 1_555
Li2 O0 1.946038 1_555
Li2 O7 1.946038 1_555
Li3 O7 1.907844 1_555
Li3 O5 1.907845 1_554
Li3 O4 2.041191 1_455
Li3 O2 2.041191 1_565
Be0 O3 1.629664 1_555
Be0 O4 1.629664 1_555
Be0 O7 1.654289 1_555
Be0 O0 1.654289 1_555
Be1 O2 1.629664 1_555
Be1 O6 1.629664 1_554
Be1 O1 1.654288 1_555
Be1 O5 1.654288 1_554
O0 Si1 1.622929 1_555
O1 Si1 1.622930 1_555
O2 Si1 1.636226 1_455
O3 Si0 1.636226 1_655
O4 Si1 1.636226 1_565
O5 Si0 1.622930 1_555
O6 Si0 1.636226 1_545
O7 Si0 1.622929 1_555
