# generated using pymatgen
data_Tm(GeRh)2
_symmetry_space_group_name_H-M   'P 1'
_cell_length_a   4.08785634
_cell_length_b   4.08785682
_cell_length_c   5.87536719
_cell_angle_alpha   110.35775150
_cell_angle_beta   110.35775672
_cell_angle_gamma   90.00000484
_symmetry_Int_Tables_number   1
_chemical_formula_structural   Tm(GeRh)2
_chemical_formula_sum   'Tm1 Ge2 Rh2'
_cell_volume   85.47691180
_cell_formula_units_Z   1
loop_
 _symmetry_equiv_pos_site_id
 _symmetry_equiv_pos_as_xyz
  1  'x, y, z'
loop_
 _atom_site_type_symbol
 _atom_site_label
 _atom_site_symmetry_multiplicity
 _atom_site_fract_x
 _atom_site_fract_y
 _atom_site_fract_z
 _atom_site_occupancy
  Tm  Tm0  1  0.00000000  0.00000000  0.00000000  1
  Ge  Ge0  1  0.37927602  0.37927602  0.75855104  1
  Ge  Ge1  1  0.62072398  0.62072398  0.24144896  1
  Rh  Rh0  1  0.25000000  0.75000000  0.50000000  1
  Rh  Rh1  1  0.75000000  0.25000000  0.50000000  1
loop_
_geom_bond_atom_site_label_1
_geom_bond_atom_site_label_2
_geom_bond_distance
_geom_bond_site_symmetry_2
Ge0 Rh1 2.434483 1_555
Ge0 Rh0 2.434483 1_555
Ge0 Rh1 2.434486 1_455
Ge0 Rh0 2.434486 1_545
Ge0 Ge1 2.470090 1_556
Ge0 Tm0 3.143343 1_666
Ge0 Tm0 3.143346 1_656
Ge0 Tm0 3.143346 1_566
Ge0 Tm0 3.143348 1_556
Ge1 Rh0 2.434483 1_555
Ge1 Rh1 2.434483 1_555
Ge1 Rh0 2.434486 1_655
Ge1 Rh1 2.434486 1_565
Ge1 Tm0 3.143343 1_555
Ge1 Tm0 3.143346 1_565
Ge1 Tm0 3.143346 1_655
Ge1 Tm0 3.143348 1_665
Rh0 Tm0 3.273959 1_565
Rh0 Tm0 3.273959 1_666
Rh0 Tm0 3.273959 1_566
Rh0 Tm0 3.273959 1_555
Rh1 Tm0 3.273959 1_656
Rh1 Tm0 3.273959 1_555
Rh1 Tm0 3.273959 1_655
Rh1 Tm0 3.273959 1_666
