# generated using pymatgen
data_Ca4CN4
_symmetry_space_group_name_H-M   'P 1'
_cell_length_a   3.56362109
_cell_length_b   11.42106586
_cell_length_c   13.92057993
_cell_angle_alpha   90.00000000
_cell_angle_beta   90.00000000
_cell_angle_gamma   90.00000000
_symmetry_Int_Tables_number   1
_chemical_formula_structural   Ca4CN4
_chemical_formula_sum   'Ca16 C4 N16'
_cell_volume   566.57249163
_cell_formula_units_Z   4
loop_
 _symmetry_equiv_pos_site_id
 _symmetry_equiv_pos_as_xyz
  1  'x, y, z'
loop_
 _atom_site_type_symbol
 _atom_site_label
 _atom_site_symmetry_multiplicity
 _atom_site_fract_x
 _atom_site_fract_y
 _atom_site_fract_z
 _atom_site_occupancy
  Ca  Ca0  1  0.25000000  0.63857799  0.26045131  1
  Ca  Ca1  1  0.75000000  0.36142201  0.73954869  1
  Ca  Ca2  1  0.25000000  0.13857799  0.23954869  1
  Ca  Ca3  1  0.75000000  0.86142201  0.76045131  1
  Ca  Ca4  1  0.25000000  0.87631170  0.38287551  1
  Ca  Ca5  1  0.75000000  0.12368830  0.61712449  1
  Ca  Ca6  1  0.25000000  0.37631170  0.11712449  1
  Ca  Ca7  1  0.75000000  0.62368830  0.88287551  1
  Ca  Ca8  1  0.25000000  0.37967340  0.54051216  1
  Ca  Ca9  1  0.75000000  0.62032660  0.45948784  1
  Ca  Ca10  1  0.25000000  0.87967340  0.95948784  1
  Ca  Ca11  1  0.75000000  0.12032660  0.04051216  1
  Ca  Ca12  1  0.25000000  0.61550519  0.67029379  1
  Ca  Ca13  1  0.75000000  0.38449481  0.32970621  1
  Ca  Ca14  1  0.25000000  0.11550519  0.82970621  1
  Ca  Ca15  1  0.75000000  0.88449481  0.17029379  1
  C  C0  1  0.25000000  0.86119288  0.58639311  1
  C  C1  1  0.75000000  0.13880712  0.41360689  1
  C  C2  1  0.25000000  0.36119288  0.91360689  1
  C  C3  1  0.75000000  0.63880712  0.08639311  1
  N  N0  1  0.25000000  0.95435583  0.63200200  1
  N  N1  1  0.75000000  0.04564417  0.36799800  1
  N  N2  1  0.25000000  0.45435583  0.86799800  1
  N  N3  1  0.75000000  0.54564417  0.13200200  1
  N  N4  1  0.25000000  0.76865142  0.54044657  1
  N  N5  1  0.75000000  0.23134858  0.45955343  1
  N  N6  1  0.25000000  0.26865142  0.95955343  1
  N  N7  1  0.75000000  0.73134858  0.04044657  1
  N  N8  1  0.25000000  0.49896217  0.38384339  1
  N  N9  1  0.75000000  0.50103783  0.61615661  1
  N  N10  1  0.25000000  0.99896217  0.11615661  1
  N  N11  1  0.75000000  0.00103783  0.88384339  1
  N  N12  1  0.75000000  0.26587127  0.18565668  1
  N  N13  1  0.25000000  0.73412873  0.81434332  1
  N  N14  1  0.75000000  0.76587127  0.31434332  1
  N  N15  1  0.25000000  0.23412873  0.68565668  1
loop_
_geom_bond_atom_site_label_1
_geom_bond_atom_site_label_2
_geom_bond_distance
_geom_bond_site_symmetry_2
Ca0 N8 2.343733 1_555
Ca0 N14 2.418939 1_555
Ca0 N14 2.418939 1_455
Ca0 N3 2.738373 1_455
Ca0 N3 2.738373 1_555
Ca1 N9 2.343733 1_555
Ca1 N15 2.418939 1_655
Ca1 N15 2.418939 1_555
Ca1 N2 2.738373 1_655
Ca1 N2 2.738373 1_555
Ca2 N10 2.343733 1_545
Ca2 N12 2.418939 1_555
Ca2 N12 2.418939 1_455
Ca2 N1 2.738373 1_455
Ca2 N1 2.738373 1_555
Ca3 N11 2.343733 1_565
Ca3 N13 2.418939 1_555
Ca3 N13 2.418939 1_655
Ca3 N0 2.738373 1_555
Ca3 N0 2.738373 1_655
Ca4 N14 2.382431 1_555
Ca4 N14 2.382431 1_455
Ca4 N4 2.514610 1_555
Ca4 N1 2.637789 1_465
Ca4 N1 2.637789 1_565
Ca5 N15 2.382431 1_555
Ca5 N15 2.382431 1_655
Ca5 N5 2.514610 1_555
Ca5 N0 2.637789 1_545
Ca5 N0 2.637789 1_645
Ca6 N12 2.382431 1_455
Ca6 N12 2.382431 1_555
Ca6 N6 2.514610 1_554
Ca6 N3 2.637789 1_555
Ca6 N3 2.637789 1_455
Ca7 N13 2.382431 1_555
Ca7 N13 2.382431 1_655
Ca7 N7 2.514610 1_556
Ca7 N2 2.637789 1_655
Ca7 N2 2.637789 1_555
Ca8 N9 2.490982 1_555
Ca8 N9 2.490982 1_455
Ca8 N8 2.571490 1_555
Ca8 N15 2.616403 1_555
Ca8 N5 2.704568 1_455
Ca8 N5 2.704568 1_555
Ca9 N8 2.490982 1_655
Ca9 N8 2.490982 1_555
Ca9 N9 2.571490 1_555
Ca9 N14 2.616403 1_555
Ca9 N4 2.704568 1_655
Ca9 N4 2.704568 1_555
Ca10 N11 2.490982 1_465
Ca10 N11 2.490982 1_565
Ca10 N10 2.571490 1_556
Ca10 N13 2.616403 1_555
Ca10 N7 2.704568 1_456
Ca10 N7 2.704568 1_556
Ca11 N10 2.490982 1_645
Ca11 N10 2.490982 1_545
Ca11 N11 2.571490 1_554
Ca11 N12 2.616403 1_555
Ca11 N6 2.704568 1_654
Ca11 N6 2.704568 1_554
Ca12 N9 2.334937 1_555
Ca12 N9 2.334937 1_455
Ca12 N13 2.420029 1_555
Ca12 N4 2.515265 1_555
Ca13 N8 2.334937 1_655
Ca13 N8 2.334937 1_555
Ca13 N12 2.420029 1_555
Ca13 N5 2.515265 1_555
Ca14 N11 2.334937 1_455
Ca14 N11 2.334937 1_555
Ca14 N15 2.420029 1_555
Ca14 N6 2.515265 1_555
Ca15 N10 2.334937 1_655
Ca15 N10 2.334937 1_555
Ca15 N14 2.420029 1_555
Ca15 N7 2.515265 1_555
C0 N4 1.235385 1_555
C0 N0 1.239048 1_555
C1 N5 1.235385 1_555
C1 N1 1.239048 1_555
C2 N6 1.235385 1_555
C2 N2 1.239048 1_555
C3 N7 1.235385 1_555
C3 N3 1.239048 1_555
