# generated using pymatgen
data_BaCeI4
_symmetry_space_group_name_H-M   'P 1'
_cell_length_a   7.50673631
_cell_length_b   9.03711382
_cell_length_c   9.27009305
_cell_angle_alpha   113.85854741
_cell_angle_beta   107.75834295
_cell_angle_gamma   102.01548252
_symmetry_Int_Tables_number   1
_chemical_formula_structural   BaCeI4
_chemical_formula_sum   'Ba2 Ce2 I8'
_cell_volume   506.49606045
_cell_formula_units_Z   2
loop_
 _symmetry_equiv_pos_site_id
 _symmetry_equiv_pos_as_xyz
  1  'x, y, z'
loop_
 _atom_site_type_symbol
 _atom_site_label
 _atom_site_symmetry_multiplicity
 _atom_site_fract_x
 _atom_site_fract_y
 _atom_site_fract_z
 _atom_site_occupancy
  Ba  Ba0  1  0.88541211  0.63521495  0.26982361  1
  Ba  Ba1  1  0.11458789  0.36478505  0.73017639  1
  Ce  Ce0  1  0.25012182  0.00006557  0.99956826  1
  Ce  Ce1  1  0.74987818  -0.00006557  0.00043174  1
  I  I0  1  0.51305243  0.23338122  0.87454500  1
  I  I1  1  0.48694757  0.76661878  0.12545500  1
  I  I2  1  0.13992006  0.35995062  0.12569183  1
  I  I3  1  0.70492675  0.28970326  0.34798664  1
  I  I4  1  0.85707608  0.94108988  0.65197816  1
  I  I5  1  0.14292392  0.05891012  0.34802184  1
  I  I6  1  0.29507325  0.71029674  0.65201336  1
  I  I7  1  0.86007994  0.64004938  0.87430817  1
loop_
_geom_bond_atom_site_label_1
_geom_bond_atom_site_label_2
_geom_bond_distance
_geom_bond_site_symmetry_2
Ba0 I2 3.531373 1_655
Ba0 I1 3.531426 1_555
Ba0 I5 3.569518 1_665
Ba0 I3 3.574622 1_555
Ba0 I6 3.606949 1_655
Ba0 I4 3.608178 1_555
Ba0 I0 3.631624 1_554
Ba0 I7 3.631634 1_554
Ba1 I7 3.531373 1_455
Ba1 I0 3.531426 1_555
Ba1 I4 3.569518 1_445
Ba1 I6 3.574622 1_555
Ba1 I3 3.606949 1_455
Ba1 I5 3.608178 1_555
Ba1 I1 3.631624 1_556
Ba1 I2 3.631634 1_556
Ce0 I1 3.355710 1_546
Ce0 I2 3.356043 1_556
Ce0 I0 3.365152 1_555
Ce0 I7 3.377897 1_445
Ce0 I4 3.395386 1_445
Ce0 I6 3.399650 1_545
Ce0 I3 3.413657 1_556
Ce0 I5 3.426180 1_556
Ce1 I0 3.355710 1_554
Ce1 I7 3.356043 1_544
Ce1 I1 3.365152 1_545
Ce1 I2 3.377897 1_655
Ce1 I5 3.395386 1_655
Ce1 I3 3.399650 1_555
Ce1 I6 3.413657 1_544
Ce1 I4 3.426180 1_544
