# generated using pymatgen
data_Ni3(BiS)2
_symmetry_space_group_name_H-M   'P 1'
_cell_length_a   5.54970510
_cell_length_b   5.54970510
_cell_length_c   5.54970467
_cell_angle_alpha   63.23129321
_cell_angle_beta   63.23129321
_cell_angle_gamma   63.23129383
_symmetry_Int_Tables_number   1
_chemical_formula_structural   Ni3(BiS)2
_chemical_formula_sum   'Ni3 Bi2 S2'
_cell_volume   129.51803797
_cell_formula_units_Z   1
loop_
 _symmetry_equiv_pos_site_id
 _symmetry_equiv_pos_as_xyz
  1  'x, y, z'
loop_
 _atom_site_type_symbol
 _atom_site_label
 _atom_site_symmetry_multiplicity
 _atom_site_fract_x
 _atom_site_fract_y
 _atom_site_fract_z
 _atom_site_occupancy
  Ni  Ni0  1  0.00000000  0.00000000  0.50000000  1
  Ni  Ni1  1  0.50000000  0.00000000  0.00000000  1
  Ni  Ni2  1  0.00000000  0.50000000  0.00000000  1
  Bi  Bi0  1  0.50000000  0.50000000  0.50000000  1
  Bi  Bi1  1  0.00000000  0.00000000  0.00000000  1
  S  S0  1  0.72830300  0.72830300  0.72830300  1
  S  S1  1  0.27169700  0.27169700  0.27169700  1
loop_
_geom_bond_atom_site_label_1
_geom_bond_atom_site_label_2
_geom_bond_distance
_geom_bond_site_symmetry_2
Ni0 S1 2.181439 1_555
Ni0 S0 2.181439 1_445
Ni1 S1 2.181439 1_555
Ni1 S0 2.181439 1_544
Ni2 S1 2.181439 1_555
Ni2 S0 2.181439 1_454
Bi0 Ni1 2.909258 1_565
Bi0 Ni1 2.909258 1_556
Bi0 Ni2 2.909258 1_556
Bi0 Ni2 2.909258 1_655
Bi0 Ni0 2.909258 1_655
Bi0 Ni0 2.909258 1_565
Bi0 S0 3.025576 1_555
Bi0 S1 3.025576 1_555
Bi1 Ni0 2.774852 1_555
Bi1 Ni0 2.774852 1_554
Bi1 Ni1 2.774853 1_555
Bi1 Ni1 2.774853 1_455
Bi1 Ni2 2.774853 1_555
Bi1 Ni2 2.774853 1_545
