# generated using pymatgen
data_Hf3Tl2(CuSe4)2
_symmetry_space_group_name_H-M   'P 1'
_cell_length_a   7.70721822
_cell_length_b   7.70721822
_cell_length_c   14.50273627
_cell_angle_alpha   66.17114885
_cell_angle_beta   66.17114885
_cell_angle_gamma   28.71131101
_symmetry_Int_Tables_number   1
_chemical_formula_structural   Hf3Tl2(CuSe4)2
_chemical_formula_sum   'Hf3 Tl2 Cu2 Se8'
_cell_volume   376.14769211
_cell_formula_units_Z   1
loop_
 _symmetry_equiv_pos_site_id
 _symmetry_equiv_pos_as_xyz
  1  'x, y, z'
loop_
 _atom_site_type_symbol
 _atom_site_label
 _atom_site_symmetry_multiplicity
 _atom_site_fract_x
 _atom_site_fract_y
 _atom_site_fract_z
 _atom_site_occupancy
  Hf  Hf0  1  0.34489500  0.34489500  0.38017300  1
  Hf  Hf1  1  0.65510500  0.65510500  0.61982700  1
  Hf  Hf2  1  0.50000000  0.50000000  0.00000000  1
  Tl  Tl0  1  0.66848600  0.66848600  0.19837300  1
  Tl  Tl1  1  0.33151400  0.33151400  0.80162700  1
  Cu  Cu0  1  0.95926100  0.95926100  0.19797900  1
  Cu  Cu1  1  0.04073900  0.04073900  0.80202100  1
  Se  Se0  1  0.10728300  0.10728300  0.03960600  1
  Se  Se1  1  0.97974700  0.97974700  0.35544000  1
  Se  Se2  1  0.02025300  0.02025300  0.64456000  1
  Se  Se3  1  0.29523400  0.29523400  0.58136900  1
  Se  Se4  1  0.70476600  0.70476600  0.41863100  1
  Se  Se5  1  0.64318600  0.64318600  0.80920100  1
  Se  Se6  1  0.35681400  0.35681400  0.19079900  1
  Se  Se7  1  0.89271700  0.89271700  0.96039400  1
loop_
_geom_bond_atom_site_label_1
_geom_bond_atom_site_label_2
_geom_bond_distance
_geom_bond_site_symmetry_2
Hf0 Se6 2.677108 1_555
Hf0 Se1 2.689440 1_545
Hf0 Se1 2.689440 1_455
Hf0 Se3 2.694300 1_555
Hf0 Se4 2.714427 1_455
Hf0 Se4 2.714427 1_545
Hf1 Se5 2.677108 1_555
Hf1 Se2 2.689440 1_655
Hf1 Se2 2.689440 1_565
Hf1 Se4 2.694300 1_555
Hf1 Se3 2.714427 1_655
Hf1 Se3 2.714427 1_565
Hf2 Se6 2.700744 1_555
Hf2 Se5 2.700744 1_554
Hf2 Se0 2.704760 1_565
Hf2 Se7 2.704760 1_454
Hf2 Se7 2.704760 1_544
Hf2 Se0 2.704760 1_655
Cu0 Se1 2.427171 1_555
Cu0 Se0 2.434539 1_665
Cu0 Se6 2.477057 1_655
Cu0 Se6 2.477057 1_565
Cu1 Se2 2.427171 1_555
Cu1 Se7 2.434539 1_445
Cu1 Se5 2.477057 1_545
Cu1 Se5 2.477057 1_455
Se0 Tl0 3.397636 1_455
Se0 Tl0 3.397636 1_545
Se1 Tl0 3.380745 1_655
Se1 Tl0 3.380745 1_565
Se2 Tl1 3.380745 1_455
Se2 Tl1 3.380745 1_545
Se3 Tl1 3.455543 1_555
Se4 Tl0 3.455543 1_555
Se5 Tl1 3.363813 1_655
Se5 Tl1 3.363813 1_565
Se6 Tl0 3.363813 1_545
Se6 Tl0 3.363813 1_455
Se7 Tl1 3.397636 1_565
Se7 Tl1 3.397636 1_655
