# generated using pymatgen
data_CdI2
_symmetry_space_group_name_H-M   'P 1'
_cell_length_a   4.33596625
_cell_length_b   4.33596625
_cell_length_c   68.61868800
_cell_angle_alpha   90.00000000
_cell_angle_beta   90.00000000
_cell_angle_gamma   120.00000389
_symmetry_Int_Tables_number   1
_chemical_formula_structural   CdI2
_chemical_formula_sum   'Cd9 I18'
_cell_volume   1117.23571860
_cell_formula_units_Z   9
loop_
 _symmetry_equiv_pos_site_id
 _symmetry_equiv_pos_as_xyz
  1  'x, y, z'
loop_
 _atom_site_type_symbol
 _atom_site_label
 _atom_site_symmetry_multiplicity
 _atom_site_fract_x
 _atom_site_fract_y
 _atom_site_fract_z
 _atom_site_occupancy
  Cd  Cd0  1  0.00000000  0.00000000  0.13619600  1
  Cd  Cd1  1  0.00000000  0.00000000  0.36012800  1
  Cd  Cd2  1  0.33333300  0.66666700  0.80198600  1
  Cd  Cd3  1  0.66666700  0.33333300  0.69147900  1
  Cd  Cd4  1  0.66666700  0.33333300  0.91269800  1
  Cd  Cd5  1  0.66666700  0.33333300  0.02582200  1
  Cd  Cd6  1  0.66666700  0.33333300  0.47076500  1
  Cd  Cd7  1  0.66666700  0.33333300  0.24656400  1
  Cd  Cd8  1  0.33333300  0.66666700  0.58111600  1
  I  I0  1  0.33333300  0.66666700  0.11122000  1
  I  I1  1  0.00000000  0.00000000  0.82707800  1
  I  I2  1  0.66666700  0.33333300  0.16113400  1
  I  I3  1  0.66666700  0.33333300  0.38518700  1
  I  I4  1  0.00000000  0.00000000  0.27154000  1
  I  I5  1  0.00000000  0.00000000  0.71658500  1
  I  I6  1  0.00000000  0.00000000  0.05078700  1
  I  I7  1  0.33333300  0.66666700  0.33489900  1
  I  I8  1  0.00000000  0.00000000  0.60619200  1
  I  I9  1  0.66666700  0.33333300  0.55593600  1
  I  I10  1  0.00000000  0.00000000  0.93780100  1
  I  I11  1  0.33333300  0.66666700  0.00077900  1
  I  I12  1  0.33333300  0.66666700  0.66627100  1
  I  I13  1  0.33333300  0.66666700  0.44555900  1
  I  I14  1  0.66666700  0.33333300  0.77681400  1
  I  I15  1  0.33333300  0.66666700  0.88753100  1
  I  I16  1  0.00000000  0.00000000  0.49585800  1
  I  I17  1  0.33333300  0.66666700  0.22157400  1
loop_
_geom_bond_atom_site_label_1
_geom_bond_atom_site_label_2
_geom_bond_distance
_geom_bond_site_symmetry_2
Cd0 I2 3.032343 1_455
Cd0 I2 3.032346 1_555
Cd0 I2 3.032346 1_445
Cd0 I0 3.033815 1_545
Cd0 I0 3.033818 1_555
Cd0 I0 3.033818 1_445
Cd1 I3 3.037036 1_455
Cd1 I3 3.037039 1_555
Cd1 I3 3.037039 1_445
Cd1 I7 3.043656 1_545
Cd1 I7 3.043659 1_555
Cd1 I7 3.043659 1_445
Cd2 I1 3.038319 1_565
Cd2 I1 3.038322 1_665
Cd2 I1 3.038322 1_555
Cd2 I14 3.041433 1_455
Cd2 I14 3.041433 1_565
Cd2 I14 3.041439 1_555
Cd3 I5 3.038863 1_655
Cd3 I5 3.038866 1_555
Cd3 I5 3.038866 1_665
Cd3 I12 3.042837 1_545
Cd3 I12 3.042837 1_655
Cd3 I12 3.042843 1_555
Cd4 I10 3.038747 1_655
Cd4 I10 3.038750 1_555
Cd4 I10 3.038750 1_665
Cd4 I15 3.041238 1_655
Cd4 I15 3.041238 1_545
Cd4 I15 3.041245 1_555
Cd5 I6 3.033389 1_655
Cd5 I6 3.033392 1_665
Cd5 I6 3.033392 1_555
Cd5 I11 3.036415 1_655
Cd5 I11 3.036415 1_545
Cd5 I11 3.036421 1_555
Cd6 I16 3.038358 1_655
Cd6 I16 3.038361 1_555
Cd6 I16 3.038361 1_665
Cd6 I13 3.042759 1_655
Cd6 I13 3.042759 1_545
Cd6 I13 3.042765 1_555
Cd7 I4 3.033815 1_655
Cd7 I4 3.033818 1_665
Cd7 I4 3.033818 1_555
Cd7 I17 3.034358 1_545
Cd7 I17 3.034358 1_655
Cd7 I17 3.034364 1_555
Cd8 I8 3.037697 1_565
Cd8 I8 3.037700 1_665
Cd8 I8 3.037700 1_555
Cd8 I9 3.041745 1_455
Cd8 I9 3.041745 1_565
Cd8 I9 3.041751 1_555
