# generated using pymatgen
data_Zr2Ni2Sn
_symmetry_space_group_name_H-M   'P 1'
_cell_length_a   7.11124600
_cell_length_b   7.11124600
_cell_length_c   6.85395700
_cell_angle_alpha   90.00000000
_cell_angle_beta   90.00000000
_cell_angle_gamma   90.00000000
_symmetry_Int_Tables_number   1
_chemical_formula_structural   Zr2Ni2Sn
_chemical_formula_sum   'Zr8 Ni8 Sn4'
_cell_volume   346.60336953
_cell_formula_units_Z   4
loop_
 _symmetry_equiv_pos_site_id
 _symmetry_equiv_pos_as_xyz
  1  'x, y, z'
loop_
 _atom_site_type_symbol
 _atom_site_label
 _atom_site_symmetry_multiplicity
 _atom_site_fract_x
 _atom_site_fract_y
 _atom_site_fract_z
 _atom_site_occupancy
  Zr  Zr0  1  0.18331400  0.18331400  0.00000000  1
  Zr  Zr1  1  0.68331400  0.31668600  0.50000000  1
  Zr  Zr2  1  0.31668600  0.68331400  0.50000000  1
  Zr  Zr3  1  0.81668600  0.81668600  0.00000000  1
  Zr  Zr4  1  0.65494600  0.34505400  0.00000000  1
  Zr  Zr5  1  0.84505400  0.84505400  0.50000000  1
  Zr  Zr6  1  0.15494600  0.15494600  0.50000000  1
  Zr  Zr7  1  0.34505400  0.65494600  0.00000000  1
  Ni  Ni0  1  0.37463500  0.37463500  0.28476800  1
  Ni  Ni1  1  0.87463500  0.12536500  0.78476800  1
  Ni  Ni2  1  0.12536500  0.87463500  0.78476800  1
  Ni  Ni3  1  0.62536500  0.62536500  0.28476800  1
  Ni  Ni4  1  0.12536500  0.87463500  0.21523200  1
  Ni  Ni5  1  0.87463500  0.12536500  0.21523200  1
  Ni  Ni6  1  0.37463500  0.37463500  0.71523200  1
  Ni  Ni7  1  0.62536500  0.62536500  0.71523200  1
  Sn  Sn0  1  0.50000000  0.00000000  0.25000000  1
  Sn  Sn1  1  0.50000000  0.00000000  0.75000000  1
  Sn  Sn2  1  0.00000000  0.50000000  0.25000000  1
  Sn  Sn3  1  0.00000000  0.50000000  0.75000000  1
loop_
_geom_bond_atom_site_label_1
_geom_bond_atom_site_label_2
_geom_bond_distance
_geom_bond_site_symmetry_2
Ni0 Zr6 2.656599 1_555
Ni0 Zr2 2.676646 1_555
Ni0 Zr1 2.676646 1_555
Ni0 Zr0 2.740723 1_555
Ni0 Zr7 2.797715 1_555
Ni0 Zr4 2.797715 1_555
Ni0 Sn2 2.819416 1_555
Ni0 Sn0 2.819416 1_555
Ni1 Zr4 2.656599 1_556
Ni1 Zr0 2.676646 1_656
Ni1 Zr3 2.676646 1_546
Ni1 Zr1 2.740723 1_555
Ni1 Zr6 2.797715 1_655
Ni1 Zr5 2.797715 1_545
Ni1 Sn3 2.819416 1_655
Ni1 Sn1 2.819416 1_555
Ni2 Zr7 2.656599 1_556
Ni2 Zr0 2.676646 1_566
Ni2 Zr3 2.676646 1_456
Ni2 Zr2 2.740723 1_555
Ni2 Zr6 2.797715 1_565
Ni2 Zr5 2.797715 1_455
Ni2 Sn1 2.819416 1_565
Ni2 Sn3 2.819416 1_555
Ni3 Zr5 2.656599 1_555
Ni3 Zr2 2.676646 1_555
Ni3 Zr1 2.676646 1_555
Ni3 Zr3 2.740723 1_555
Ni3 Zr4 2.797715 1_555
Ni3 Zr7 2.797715 1_555
Ni3 Sn2 2.819416 1_655
Ni3 Sn0 2.819416 1_565
Ni4 Zr7 2.656599 1_555
Ni4 Zr0 2.676646 1_565
Ni4 Zr3 2.676646 1_455
Ni4 Zr2 2.740723 1_555
Ni4 Zr6 2.797715 1_565
Ni4 Zr5 2.797715 1_455
Ni4 Sn0 2.819416 1_565
Ni4 Sn2 2.819416 1_555
Ni5 Zr4 2.656599 1_555
Ni5 Zr3 2.676646 1_545
Ni5 Zr0 2.676646 1_655
Ni5 Zr1 2.740723 1_555
Ni5 Zr6 2.797715 1_655
Ni5 Zr5 2.797715 1_545
Ni5 Sn2 2.819416 1_655
Ni5 Sn0 2.819416 1_555
Ni6 Zr6 2.656599 1_555
Ni6 Zr2 2.676646 1_555
Ni6 Zr1 2.676646 1_555
Ni6 Zr0 2.740723 1_556
Ni6 Zr4 2.797715 1_556
Ni6 Zr7 2.797715 1_556
Ni6 Sn3 2.819416 1_555
Ni6 Sn1 2.819416 1_555
Ni7 Zr5 2.656599 1_555
Ni7 Zr2 2.676646 1_555
Ni7 Zr1 2.676646 1_555
Ni7 Zr3 2.740723 1_556
Ni7 Zr4 2.797715 1_556
Ni7 Zr7 2.797715 1_556
Ni7 Sn3 2.819416 1_655
Ni7 Sn1 2.819416 1_565
Sn0 Zr1 3.115613 1_555
Sn0 Zr2 3.115613 1_545
Sn0 Zr3 3.115613 1_545
Sn0 Zr0 3.115613 1_555
Sn0 Zr7 3.189216 1_545
Sn0 Zr5 3.189216 1_545
Sn0 Zr6 3.189216 1_555
Sn0 Zr4 3.189216 1_555
Sn1 Zr1 3.115613 1_555
Sn1 Zr2 3.115613 1_545
Sn1 Zr3 3.115613 1_546
Sn1 Zr0 3.115613 1_556
Sn1 Zr7 3.189216 1_546
Sn1 Zr5 3.189216 1_545
Sn1 Zr6 3.189216 1_555
Sn1 Zr4 3.189216 1_556
Sn2 Zr1 3.115613 1_455
Sn2 Zr3 3.115613 1_455
Sn2 Zr0 3.115613 1_555
Sn2 Zr2 3.115613 1_555
Sn2 Zr4 3.189216 1_455
Sn2 Zr6 3.189216 1_555
Sn2 Zr5 3.189216 1_455
Sn2 Zr7 3.189216 1_555
Sn3 Zr1 3.115613 1_455
Sn3 Zr3 3.115613 1_456
Sn3 Zr2 3.115613 1_555
Sn3 Zr0 3.115613 1_556
Sn3 Zr6 3.189216 1_555
Sn3 Zr4 3.189216 1_456
Sn3 Zr5 3.189216 1_455
Sn3 Zr7 3.189216 1_556
