# generated using pymatgen
data_BaPt2S3
_symmetry_space_group_name_H-M   'P 1'
_cell_length_a   11.14566158
_cell_length_b   11.14566158
_cell_length_c   13.25091140
_cell_angle_alpha   90.00000000
_cell_angle_beta   90.00000000
_cell_angle_gamma   90.00000000
_symmetry_Int_Tables_number   1
_chemical_formula_structural   BaPt2S3
_chemical_formula_sum   'Ba12 Pt24 S36'
_cell_volume   1646.10469911
_cell_formula_units_Z   12
loop_
 _symmetry_equiv_pos_site_id
 _symmetry_equiv_pos_as_xyz
  1  'x, y, z'
loop_
 _atom_site_type_symbol
 _atom_site_label
 _atom_site_symmetry_multiplicity
 _atom_site_fract_x
 _atom_site_fract_y
 _atom_site_fract_z
 _atom_site_occupancy
  Ba  Ba0  1  0.89837842  0.67777398  0.25074970  1
  Ba  Ba1  1  0.82222602  0.39837842  0.50074970  1
  Ba  Ba2  1  0.67777398  0.89837842  0.74925030  1
  Ba  Ba3  1  0.60162158  0.17777398  0.99925030  1
  Ba  Ba4  1  0.17777398  0.60162158  0.00074970  1
  Ba  Ba5  1  0.10162158  0.32222602  0.75074970  1
  Ba  Ba6  1  0.39444303  0.39444303  0.50000000  1
  Ba  Ba7  1  0.32222602  0.10162158  0.24925030  1
  Ba  Ba8  1  0.39837842  0.82222602  0.49925030  1
  Ba  Ba9  1  0.10555697  0.89444303  0.75000000  1
  Ba  Ba10  1  0.89444303  0.10555697  0.25000000  1
  Ba  Ba11  1  0.60555697  0.60555697  -0.00000000  1
  Pt  Pt0  1  0.63436523  0.03958761  0.36716214  1
  Pt  Pt1  1  0.35777326  0.26940534  0.86811438  1
  Pt  Pt2  1  0.11105406  0.11105406  -0.00000000  1
  Pt  Pt3  1  0.03958761  0.63436523  0.63283786  1
  Pt  Pt4  1  0.38645989  0.61354011  0.75000000  1
  Pt  Pt5  1  0.88894594  0.88894594  0.50000000  1
  Pt  Pt6  1  0.76940534  0.14222674  0.61811438  1
  Pt  Pt7  1  0.13436523  0.46041239  0.38283786  1
  Pt  Pt8  1  0.88645989  0.88645989  -0.00000000  1
  Pt  Pt9  1  0.73059466  0.64222674  0.63188562  1
  Pt  Pt10  1  0.85777326  0.23059466  0.88188562  1
  Pt  Pt11  1  0.23059466  0.85777326  0.11811438  1
  Pt  Pt12  1  0.61105406  0.38894594  0.75000000  1
  Pt  Pt13  1  0.46041239  0.13436523  0.61716214  1
  Pt  Pt14  1  0.53958761  0.86563477  0.11716214  1
  Pt  Pt15  1  0.11354011  0.11354011  0.50000000  1
  Pt  Pt16  1  0.14222674  0.76940534  0.38188562  1
  Pt  Pt17  1  0.64222674  0.73059466  0.36811438  1
  Pt  Pt18  1  0.86563477  0.53958761  0.88283786  1
  Pt  Pt19  1  0.38894594  0.61105406  0.25000000  1
  Pt  Pt20  1  0.96041239  0.36563477  0.13283786  1
  Pt  Pt21  1  0.61354011  0.38645989  0.25000000  1
  Pt  Pt22  1  0.36563477  0.96041239  0.86716214  1
  Pt  Pt23  1  0.26940534  0.35777326  0.13188562  1
  S  S0  1  0.11416685  0.32235925  0.25137177  1
  S  S1  1  0.17764075  0.61416685  0.50137177  1
  S  S2  1  0.59842363  0.59842363  0.50000000  1
  S  S3  1  0.31974471  0.11233739  0.98081149  1
  S  S4  1  0.59793495  0.59450955  0.23931329  1
  S  S5  1  0.68025529  0.88766261  0.48081149  1
  S  S6  1  0.09842363  0.90157637  0.25000000  1
  S  S7  1  0.09450955  0.90206505  0.98931329  1
  S  S8  1  0.32424605  0.10503391  0.48273590  1
  S  S9  1  0.82235925  0.38583315  0.00137177  1
  S  S10  1  0.09793495  0.90549045  0.51068671  1
  S  S11  1  0.17575395  0.60503391  0.76726410  1
  S  S12  1  0.39496609  0.82424605  0.73273590  1
  S  S13  1  0.90206505  0.09450955  0.01068671  1
  S  S14  1  0.82424605  0.39496609  0.26726410  1
  S  S15  1  0.32235925  0.11416685  0.74862823  1
  S  S16  1  0.89496609  0.67575395  0.01726410  1
  S  S17  1  0.11233739  0.31974471  0.01918851  1
  S  S18  1  0.61233739  0.18025529  0.73081149  1
  S  S19  1  0.61416685  0.17764075  0.49862823  1
  S  S20  1  0.40157637  0.40157637  -0.00000000  1
  S  S21  1  0.67575395  0.89496609  0.98273590  1
  S  S22  1  0.90549045  0.09793495  0.48931329  1
  S  S23  1  0.40206505  0.40549045  0.73931329  1
  S  S24  1  0.18025529  0.61233739  0.26918851  1
  S  S25  1  0.60503391  0.17575395  0.23273590  1
  S  S26  1  0.81974471  0.38766261  0.76918851  1
  S  S27  1  0.90157637  0.09842363  0.75000000  1
  S  S28  1  0.88583315  0.67764075  0.75137177  1
  S  S29  1  0.38766261  0.81974471  0.23081149  1
  S  S30  1  0.88766261  0.68025529  0.51918851  1
  S  S31  1  0.59450955  0.59793495  0.76068671  1
  S  S32  1  0.67764075  0.88583315  0.24862823  1
  S  S33  1  0.10503391  0.32424605  0.51726410  1
  S  S34  1  0.38583315  0.82235925  0.99862823  1
  S  S35  1  0.40549045  0.40206505  0.26068671  1
loop_
_geom_bond_atom_site_label_1
_geom_bond_atom_site_label_2
_geom_bond_distance
_geom_bond_site_symmetry_2
Ba0 S16 3.094213 1_555
Ba0 S24 3.234491 1_655
Ba0 S14 3.265915 1_555
Ba0 Pt17 3.303955 1_555
Ba0 S6 3.345674 1_655
Ba0 S32 3.381016 1_555
Ba0 Pt16 3.383674 1_655
Ba0 S4 3.478163 1_555
Ba0 S30 3.559171 1_555
Ba1 S14 3.094213 1_555
Ba1 S30 3.234491 1_555
Ba1 S33 3.265915 1_655
Ba1 Pt6 3.303955 1_555
Ba1 S2 3.345674 1_555
Ba1 S19 3.381016 1_555
Ba1 Pt9 3.383674 1_555
Ba1 S22 3.478163 1_555
Ba1 S26 3.559171 1_555
Ba2 S21 3.094213 1_555
Ba2 S18 3.234491 1_565
Ba2 S12 3.265915 1_555
Ba2 Pt9 3.303955 1_555
Ba2 S27 3.345674 1_565
Ba2 S28 3.381016 1_555
Ba2 Pt6 3.383674 1_565
Ba2 S31 3.478163 1_555
Ba2 S5 3.559171 1_555
Ba3 S25 3.094213 1_556
Ba3 S3 3.234491 1_555
Ba3 S21 3.265915 1_545
Ba3 Pt10 3.303955 1_555
Ba3 S20 3.345674 1_556
Ba3 S9 3.381016 1_556
Ba3 Pt1 3.383674 1_555
Ba3 S13 3.478163 1_556
Ba3 S18 3.559171 1_555
Ba4 S11 3.094213 1_554
Ba4 S17 3.234491 1_555
Ba4 S16 3.265915 1_455
Ba4 Pt11 3.303955 1_555
Ba4 S20 3.345674 1_555
Ba4 S34 3.381016 1_554
Ba4 Pt23 3.383674 1_555
Ba4 S7 3.478163 1_554
Ba4 S24 3.559171 1_555
Ba5 S33 3.094213 1_555
Ba5 S26 3.234491 1_455
Ba5 S11 3.265915 1_555
Ba5 Pt1 3.303955 1_555
Ba5 S27 3.345674 1_455
Ba5 S15 3.381016 1_555
Ba5 Pt10 3.383674 1_455
Ba5 S23 3.478163 1_555
Ba5 S17 3.559171 1_556
Ba6 S23 3.174646 1_555
Ba6 S35 3.174646 1_555
Ba6 S2 3.215213 1_555
Ba6 S33 3.327060 1_555
Ba6 S8 3.327060 1_555
Ba6 Pt7 3.369508 1_555
Ba6 Pt13 3.369508 1_555
Ba6 S19 3.440463 1_555
Ba6 S1 3.440463 1_555
Ba7 S8 3.094213 1_555
Ba7 S29 3.234491 1_545
Ba7 S25 3.265915 1_555
Ba7 Pt23 3.303955 1_555
Ba7 S6 3.345674 1_545
Ba7 S0 3.381016 1_555
Ba7 Pt11 3.383674 1_545
Ba7 S35 3.478163 1_555
Ba7 S3 3.559171 1_554
Ba8 S12 3.094213 1_555
Ba8 S5 3.234491 1_555
Ba8 S8 3.265915 1_565
Ba8 Pt16 3.303955 1_555
Ba8 S2 3.345674 1_555
Ba8 S1 3.381016 1_555
Ba8 Pt17 3.383674 1_555
Ba8 S10 3.478163 1_555
Ba8 S29 3.559171 1_555
Ba9 S7 3.174646 1_555
Ba9 S10 3.174646 1_555
Ba9 S27 3.215213 1_465
Ba9 S12 3.327060 1_555
Ba9 S11 3.327060 1_555
Ba9 Pt3 3.369508 1_555
Ba9 Pt22 3.369508 1_555
Ba9 S15 3.440463 1_565
Ba9 S28 3.440463 1_455
Ba10 S22 3.174646 1_555
Ba10 S13 3.174646 1_555
Ba10 S6 3.215213 1_645
Ba10 S25 3.327060 1_555
Ba10 S14 3.327060 1_555
Ba10 Pt20 3.369508 1_555
Ba10 Pt0 3.369508 1_555
Ba10 S0 3.440463 1_655
Ba10 S32 3.440463 1_545
Ba11 S4 3.174646 1_555
Ba11 S31 3.174646 1_554
Ba11 S20 3.215213 1_555
Ba11 S16 3.327060 1_555
Ba11 S21 3.327060 1_554
Ba11 Pt14 3.369508 1_555
Ba11 Pt18 3.369508 1_554
Ba11 S9 3.440463 1_555
Ba11 S34 3.440463 1_554
Pt0 S5 2.323100 1_545
Pt0 S19 2.335162 1_555
Pt0 S25 2.362859 1_555
Pt0 S32 2.374119 1_545
Pt1 S23 2.336063 1_555
Pt1 S20 2.337220 1_556
Pt1 S3 2.339745 1_555
Pt1 S15 2.378309 1_555
Pt2 S17 2.339895 1_555
Pt2 S3 2.339895 1_554
Pt2 S7 2.340895 1_544
Pt2 S13 2.340895 1_455
Pt3 S30 2.323100 1_455
Pt3 S1 2.335162 1_555
Pt3 S11 2.362859 1_555
Pt3 S28 2.374119 1_455
Pt4 S23 2.329673 1_555
Pt4 S31 2.329673 1_555
Pt4 S11 2.361477 1_555
Pt4 S12 2.361477 1_555
Pt5 S30 2.339895 1_555
Pt5 S5 2.339895 1_555
Pt5 S10 2.340895 1_655
Pt5 S22 2.340895 1_565
Pt6 S22 2.336063 1_555
Pt6 S27 2.337220 1_555
Pt6 S18 2.339745 1_555
Pt6 S19 2.378309 1_555
Pt7 S24 2.323100 1_555
Pt7 S0 2.335162 1_555
Pt7 S33 2.362859 1_555
Pt7 S1 2.374119 1_555
Pt8 S13 2.329673 1_565
Pt8 S7 2.329673 1_654
Pt8 S16 2.361477 1_555
Pt8 S21 2.361477 1_554
Pt9 S31 2.336063 1_555
Pt9 S2 2.337220 1_555
Pt9 S30 2.339745 1_555
Pt9 S28 2.378309 1_555
Pt10 S13 2.336063 1_556
Pt10 S27 2.337220 1_555
Pt10 S26 2.339745 1_555
Pt10 S9 2.378309 1_556
Pt11 S7 2.336063 1_554
Pt11 S6 2.337220 1_555
Pt11 S29 2.339745 1_555
Pt11 S34 2.378309 1_554
Pt12 S18 2.339895 1_555
Pt12 S26 2.339895 1_555
Pt12 S31 2.340895 1_555
Pt12 S23 2.340895 1_555
Pt13 S18 2.323100 1_555
Pt13 S15 2.335162 1_555
Pt13 S8 2.362859 1_555
Pt13 S19 2.374119 1_555
Pt14 S29 2.323100 1_555
Pt14 S32 2.335162 1_555
Pt14 S21 2.362859 1_554
Pt14 S34 2.374119 1_554
Pt15 S10 2.329673 1_545
Pt15 S22 2.329673 1_455
Pt15 S8 2.361477 1_555
Pt15 S33 2.361477 1_555
Pt16 S10 2.336063 1_555
Pt16 S6 2.337220 1_555
Pt16 S24 2.339745 1_555
Pt16 S1 2.378309 1_555
Pt17 S4 2.336063 1_555
Pt17 S2 2.337220 1_555
Pt17 S5 2.339745 1_555
Pt17 S32 2.378309 1_555
Pt18 S26 2.323100 1_555
Pt18 S28 2.335162 1_555
Pt18 S16 2.362859 1_556
Pt18 S9 2.374119 1_556
Pt19 S29 2.339895 1_555
Pt19 S24 2.339895 1_555
Pt19 S4 2.340895 1_555
Pt19 S35 2.340895 1_555
Pt20 S17 2.323100 1_655
Pt20 S9 2.335162 1_555
Pt20 S14 2.362859 1_555
Pt20 S0 2.374119 1_655
Pt21 S35 2.329673 1_555
Pt21 S4 2.329673 1_555
Pt21 S25 2.361477 1_555
Pt21 S14 2.361477 1_555
Pt22 S3 2.323100 1_565
Pt22 S34 2.335162 1_555
Pt22 S12 2.362859 1_555
Pt22 S15 2.374119 1_565
Pt23 S35 2.336063 1_555
Pt23 S20 2.337220 1_555
Pt23 S17 2.339745 1_555
Pt23 S0 2.378309 1_555
