# generated using pymatgen
data_Li4Ga3Si3IO12
_symmetry_space_group_name_H-M   'P 1'
_cell_length_a   8.63662629
_cell_length_b   8.63662629
_cell_length_c   8.63662629
_cell_angle_alpha   90.00000000
_cell_angle_beta   90.00000000
_cell_angle_gamma   90.00000000
_symmetry_Int_Tables_number   1
_chemical_formula_structural   Li4Ga3Si3IO12
_chemical_formula_sum   'Li8 Ga6 Si6 I2 O24'
_cell_volume   644.21730067
_cell_formula_units_Z   2
loop_
 _symmetry_equiv_pos_site_id
 _symmetry_equiv_pos_as_xyz
  1  'x, y, z'
loop_
 _atom_site_type_symbol
 _atom_site_label
 _atom_site_symmetry_multiplicity
 _atom_site_fract_x
 _atom_site_fract_y
 _atom_site_fract_z
 _atom_site_occupancy
  Li  Li0  1  0.18924482  0.81075518  0.81075518  1
  Li  Li1  1  0.81075518  0.18924482  0.81075518  1
  Li  Li2  1  0.68924482  0.31075518  0.31075518  1
  Li  Li3  1  0.18924482  0.18924482  0.18924482  1
  Li  Li4  1  0.81075518  0.81075518  0.18924482  1
  Li  Li5  1  0.68924482  0.68924482  0.68924482  1
  Li  Li6  1  0.31075518  0.31075518  0.68924482  1
  Li  Li7  1  0.31075518  0.68924482  0.31075518  1
  Ga  Ga0  1  -0.00000000  0.75000000  0.50000000  1
  Ga  Ga1  1  0.25000000  0.50000000  0.00000000  1
  Ga  Ga2  1  0.50000000  -0.00000000  0.75000000  1
  Ga  Ga3  1  0.50000000  -0.00000000  0.25000000  1
  Ga  Ga4  1  -0.00000000  0.25000000  0.50000000  1
  Ga  Ga5  1  0.75000000  0.50000000  0.00000000  1
  Si  Si0  1  -0.00000000  0.50000000  0.25000000  1
  Si  Si1  1  0.50000000  0.75000000  0.00000000  1
  Si  Si2  1  0.50000000  0.25000000  0.00000000  1
  Si  Si3  1  -0.00000000  0.50000000  0.75000000  1
  Si  Si4  1  0.75000000  -0.00000000  0.50000000  1
  Si  Si5  1  0.25000000  -0.00000000  0.50000000  1
  I  I0  1  -0.00000000  -0.00000000  0.00000000  1
  I  I1  1  0.50000000  0.50000000  0.50000000  1
  O  O0  1  0.12936044  0.59276233  0.85174555  1
  O  O1  1  0.09276233  0.62936044  0.35174555  1
  O  O2  1  0.40723767  0.85174555  0.87063956  1
  O  O3  1  0.40723767  0.14825445  0.12936044  1
  O  O4  1  0.14825445  0.87063956  0.59276233  1
  O  O5  1  0.59276233  0.85174555  0.12936044  1
  O  O6  1  0.35174555  0.09276233  0.62936044  1
  O  O7  1  0.90723767  0.37063956  0.35174555  1
  O  O8  1  0.59276233  0.14825445  0.87063956  1
  O  O9  1  0.37063956  0.64825445  0.09276233  1
  O  O10  1  0.35174555  0.90723767  0.37063956  1
  O  O11  1  0.09276233  0.37063956  0.64825445  1
  O  O12  1  0.87063956  0.59276233  0.14825445  1
  O  O13  1  0.64825445  0.90723767  0.62936044  1
  O  O14  1  0.90723767  0.62936044  0.64825445  1
  O  O15  1  0.87063956  0.40723767  0.85174555  1
  O  O16  1  0.62936044  0.35174555  0.09276233  1
  O  O17  1  0.64825445  0.09276233  0.37063956  1
  O  O18  1  0.85174555  0.87063956  0.40723767  1
  O  O19  1  0.37063956  0.35174555  0.90723767  1
  O  O20  1  0.14825445  0.12936044  0.40723767  1
  O  O21  1  0.12936044  0.40723767  0.14825445  1
  O  O22  1  0.62936044  0.64825445  0.90723767  1
  O  O23  1  0.85174555  0.12936044  0.59276233  1
loop_
_geom_bond_atom_site_label_1
_geom_bond_atom_site_label_2
_geom_bond_distance
_geom_bond_site_symmetry_2
Li0 O2 1.984306 1_555
Li0 O4 1.984306 1_555
Li0 O0 1.984306 1_555
Li1 O15 1.984306 1_555
Li1 O8 1.984306 1_555
Li1 O23 1.984306 1_555
Li2 O16 1.984306 1_555
Li2 O17 1.984306 1_555
Li2 O7 1.984306 1_555
Li3 O21 1.984306 1_555
Li3 O20 1.984306 1_555
Li3 O3 1.984306 1_555
Li4 O18 1.984306 1_555
Li4 O5 1.984306 1_555
Li4 O12 1.984306 1_555
Li5 O14 1.984306 1_555
Li5 O13 1.984306 1_555
Li5 O22 1.984306 1_555
Li6 O19 1.984306 1_555
Li6 O11 1.984306 1_555
Li6 O6 1.984306 1_555
Li7 O9 1.984306 1_555
Li7 O1 1.984306 1_555
Li7 O10 1.984306 1_555
Ga0 O1 1.834915 1_555
Ga0 O4 1.834915 1_555
Ga0 O14 1.834915 1_455
Ga0 O18 1.834915 1_455
Ga1 O19 1.834915 1_554
Ga1 O9 1.834915 1_555
Ga1 O21 1.834915 1_555
Ga1 O0 1.834915 1_554
Ga2 O6 1.834915 1_555
Ga2 O8 1.834915 1_555
Ga2 O13 1.834915 1_545
Ga2 O2 1.834915 1_545
Ga3 O10 1.834915 1_545
Ga3 O17 1.834915 1_555
Ga3 O3 1.834915 1_555
Ga3 O5 1.834915 1_545
Ga4 O7 1.834915 1_455
Ga4 O11 1.834915 1_555
Ga4 O20 1.834915 1_555
Ga4 O23 1.834915 1_455
Ga5 O16 1.834915 1_555
Ga5 O12 1.834915 1_555
Ga5 O15 1.834915 1_554
Ga5 O22 1.834915 1_554
I0 Li1 2.830928 1_454
I0 Li4 2.830928 1_445
I0 Li0 2.830928 1_544
I0 Li3 2.830928 1_555
I1 Li5 2.830928 1_555
I1 Li2 2.830928 1_555
I1 Li7 2.830928 1_555
I1 Li6 2.830928 1_555
O0 Si3 1.631640 1_555
O1 Si0 1.631640 1_555
O2 Si1 1.631640 1_556
O3 Si2 1.631640 1_555
O4 Si5 1.631640 1_565
O5 Si1 1.631640 1_555
O6 Si5 1.631640 1_555
O7 Si0 1.631640 1_655
O8 Si2 1.631640 1_556
O9 Si1 1.631640 1_555
O10 Si5 1.631640 1_565
O11 Si3 1.631640 1_555
O12 Si0 1.631640 1_655
O13 Si4 1.631640 1_565
O14 Si3 1.631640 1_655
O15 Si3 1.631640 1_655
O16 Si2 1.631640 1_555
O17 Si4 1.631640 1_555
O18 Si4 1.631640 1_565
O19 Si2 1.631640 1_556
O20 Si5 1.631640 1_555
O21 Si0 1.631640 1_555
O22 Si1 1.631640 1_556
O23 Si4 1.631640 1_555
