# generated using pymatgen
data_TiTe
_symmetry_space_group_name_H-M   'P 1'
_cell_length_a   3.62557161
_cell_length_b   3.62557161
_cell_length_c   7.66176600
_cell_angle_alpha   90.00000000
_cell_angle_beta   90.00000000
_cell_angle_gamma   119.99999281
_symmetry_Int_Tables_number   1
_chemical_formula_structural   TiTe
_chemical_formula_sum   'Ti2 Te2'
_cell_volume   87.21928478
_cell_formula_units_Z   2
loop_
 _symmetry_equiv_pos_site_id
 _symmetry_equiv_pos_as_xyz
  1  'x, y, z'
loop_
 _atom_site_type_symbol
 _atom_site_label
 _atom_site_symmetry_multiplicity
 _atom_site_fract_x
 _atom_site_fract_y
 _atom_site_fract_z
 _atom_site_occupancy
  Ti  Ti0  1  0.66666700  0.33333300  0.75000000  1
  Ti  Ti1  1  0.33333300  0.66666700  0.25000000  1
  Te  Te0  1  0.00000000  0.00000000  0.50000000  1
  Te  Te1  1  0.00000000  0.00000000  0.00000000  1
loop_
_geom_bond_atom_site_label_1
_geom_bond_atom_site_label_2
_geom_bond_distance
_geom_bond_site_symmetry_2
Te0 Ti0 2.837340 1_455
Te0 Ti1 2.837340 1_545
Te0 Ti0 2.837342 1_555
Te0 Ti0 2.837342 1_445
Te0 Ti1 2.837342 1_445
Te0 Ti1 2.837342 1_555
Te1 Ti0 2.837340 1_454
Te1 Ti1 2.837340 1_545
Te1 Ti0 2.837342 1_554
Te1 Ti1 2.837342 1_445
Te1 Ti1 2.837342 1_555
Te1 Ti0 2.837342 1_444
