# generated using pymatgen
data_K6Ti2S6O
_symmetry_space_group_name_H-M   'P 1'
_cell_length_a   10.47563600
_cell_length_b   13.12379300
_cell_length_c   13.46625782
_cell_angle_alpha   74.12439467
_cell_angle_beta   90.00000000
_cell_angle_gamma   90.00000000
_symmetry_Int_Tables_number   1
_chemical_formula_structural   K6Ti2S6O
_chemical_formula_sum   'K24 Ti8 S24 O4'
_cell_volume   1780.72803806
_cell_formula_units_Z   4
loop_
 _symmetry_equiv_pos_site_id
 _symmetry_equiv_pos_as_xyz
  1  'x, y, z'
loop_
 _atom_site_type_symbol
 _atom_site_label
 _atom_site_symmetry_multiplicity
 _atom_site_fract_x
 _atom_site_fract_y
 _atom_site_fract_z
 _atom_site_occupancy
  K  K0  1  0.34172600  0.39621800  0.99525600  1
  K  K1  1  0.16776500  0.39699200  0.53069200  1
  K  K2  1  0.04481000  0.16987800  0.40604800  1
  K  K3  1  0.54481000  0.33012200  0.59395200  1
  K  K4  1  0.26482300  0.06481000  0.20339300  1
  K  K5  1  0.71646500  0.41636800  0.28588800  1
  K  K6  1  0.23517700  0.56481000  0.20339300  1
  K  K7  1  0.45519000  0.66987800  0.40604800  1
  K  K8  1  0.52385100  0.83955300  0.08685100  1
  K  K9  1  0.73517700  0.93519000  0.79660700  1
  K  K10  1  0.95519000  0.83012200  0.59395200  1
  K  K11  1  0.83223500  0.60300800  0.46930800  1
  K  K12  1  0.15827400  0.89621800  0.99525600  1
  K  K13  1  0.33223500  0.89699200  0.53069200  1
  K  K14  1  0.21646500  0.08363200  0.71411200  1
  K  K15  1  0.28353500  0.58363200  0.71411200  1
  K  K16  1  0.76482300  0.43519000  0.79660700  1
  K  K17  1  0.02385100  0.66044700  0.91314900  1
  K  K18  1  0.65827400  0.60378200  0.00474400  1
  K  K19  1  0.84172600  0.10378200  0.00474400  1
  K  K20  1  0.47614900  0.16044700  0.91314900  1
  K  K21  1  0.78353500  0.91636800  0.28588800  1
  K  K22  1  0.66776500  0.10300800  0.46930800  1
  K  K23  1  0.97614900  0.33955300  0.08685100  1
  Ti  Ti0  1  0.60944400  0.71659500  0.66200600  1
  Ti  Ti1  1  0.86982400  0.70697900  0.17841500  1
  Ti  Ti2  1  0.10944400  0.78340500  0.33799400  1
  Ti  Ti3  1  0.63017600  0.20697900  0.17841500  1
  Ti  Ti4  1  0.13017600  0.29302100  0.82158500  1
  Ti  Ti5  1  0.36982400  0.79302100  0.82158500  1
  Ti  Ti6  1  0.89055600  0.21659500  0.66200600  1
  Ti  Ti7  1  0.39055600  0.28340500  0.33799400  1
  S  S0  1  0.35006500  0.15748300  0.48875200  1
  S  S1  1  0.05824800  0.44153500  0.85797600  1
  S  S2  1  0.14666300  0.15492200  0.96695000  1
  S  S3  1  0.17420200  0.83212200  0.75268000  1
  S  S4  1  0.67420200  0.66787800  0.24732000  1
  S  S5  1  0.64993500  0.84251700  0.51124800  1
  S  S6  1  0.57328100  0.56184400  0.62509400  1
  S  S7  1  0.92671900  0.06184400  0.62509400  1
  S  S8  1  0.64666300  0.34507800  0.03305000  1
  S  S9  1  0.35333700  0.65492200  0.96695000  1
  S  S10  1  0.22626900  0.30529000  0.22474100  1
  S  S11  1  0.77373100  0.69471000  0.77525900  1
  S  S12  1  0.44175200  0.94153500  0.85797600  1
  S  S13  1  0.85333700  0.84507800  0.03305000  1
  S  S14  1  0.42671900  0.43815600  0.37490600  1
  S  S15  1  0.85006500  0.34251700  0.51124800  1
  S  S16  1  0.94175200  0.55846500  0.14202400  1
  S  S17  1  0.72626900  0.19471000  0.77525900  1
  S  S18  1  0.07328100  0.93815600  0.37490600  1
  S  S19  1  0.14993500  0.65748300  0.48875200  1
  S  S20  1  0.32579800  0.33212200  0.75268000  1
  S  S21  1  0.82579800  0.16787800  0.24732000  1
  S  S22  1  0.55824800  0.05846500  0.14202400  1
  S  S23  1  0.27373100  0.80529000  0.22474100  1
  O  O0  1  0.96200200  0.74413700  0.28096800  1
  O  O1  1  0.03799800  0.25586300  0.71903200  1
  O  O2  1  0.53799800  0.24413700  0.28096800  1
  O  O3  1  0.46200200  0.75586300  0.71903200  1
loop_
_geom_bond_atom_site_label_1
_geom_bond_atom_site_label_2
_geom_bond_distance
_geom_bond_site_symmetry_2
K0 S10 3.227894 1_556
K0 S8 3.275185 1_556
K0 S9 3.313501 1_555
K0 S1 3.462412 1_555
K0 S20 3.592961 1_555
K1 O1 3.023391 1_555
K1 S19 3.314298 1_555
K1 S20 3.318027 1_555
K1 S14 3.381063 1_555
K1 S15 3.429051 1_455
K2 S21 3.140691 1_455
K2 S7 3.154902 1_455
K2 S18 3.195413 1_545
K2 S10 3.218512 1_555
K2 S0 3.375388 1_555
K2 S15 3.613603 1_455
K3 S20 3.140691 1_555
K3 S14 3.154902 1_555
K3 S6 3.195413 1_555
K3 S17 3.218512 1_555
K3 S15 3.375388 1_555
K3 S0 3.613603 1_555
K4 S18 3.165925 1_545
K4 S22 3.189963 1_555
K4 S10 3.271472 1_555
K4 S2 3.317910 1_554
K4 S23 3.340021 1_545
K5 O2 2.947986 1_555
K5 S4 3.228453 1_555
K5 S15 3.240161 1_555
K5 S16 3.289985 1_555
K5 S14 3.304414 1_555
K5 S21 3.625347 1_555
K6 S14 3.165925 1_555
K6 S16 3.189963 1_455
K6 S23 3.271472 1_555
K6 S9 3.317910 1_554
K6 S10 3.340021 1_555
K7 S4 3.140691 1_555
K7 S6 3.154902 1_555
K7 S14 3.195413 1_555
K7 S23 3.218512 1_555
K7 S19 3.375388 1_555
K7 S5 3.613603 1_555
K8 S4 3.092374 1_555
K8 S12 3.126248 1_554
K8 S23 3.171529 1_555
K8 S22 3.178604 1_565
K8 S13 3.523462 1_555
K8 S9 3.716086 1_554
K9 S7 3.165925 1_565
K9 S12 3.189963 1_555
K9 S11 3.271472 1_555
K9 S13 3.317910 1_556
K9 S17 3.340021 1_565
K10 S3 3.140691 1_655
K10 S18 3.154902 1_655
K10 S7 3.195413 1_565
K10 S11 3.218512 1_555
K10 S5 3.375388 1_555
K10 S19 3.613603 1_655
K11 O0 3.023391 1_555
K11 S15 3.314298 1_555
K11 S4 3.318027 1_555
K11 S6 3.381063 1_555
K11 S19 3.429051 1_655
K12 S23 3.227894 1_556
K12 S13 3.275185 1_456
K12 S2 3.313501 1_565
K12 S12 3.462412 1_555
K12 S3 3.592961 1_555
K13 O3 3.023391 1_555
K13 S0 3.314298 1_565
K13 S3 3.318027 1_555
K13 S18 3.381063 1_555
K13 S5 3.429051 1_555
K14 O1 2.947986 1_555
K14 S3 3.228453 1_545
K14 S0 3.240161 1_555
K14 S12 3.289985 1_545
K14 S7 3.304414 1_455
K14 S20 3.625347 1_555
K15 O3 2.947986 1_555
K15 S20 3.228453 1_555
K15 S19 3.240161 1_555
K15 S1 3.289985 1_555
K15 S6 3.304414 1_555
K15 S3 3.625347 1_555
K16 S6 3.165925 1_555
K16 S1 3.189963 1_655
K16 S17 3.271472 1_555
K16 S8 3.317910 1_556
K16 S11 3.340021 1_555
K17 S3 3.092374 1_555
K17 S16 3.126248 1_456
K17 S11 3.171529 1_455
K17 S1 3.178604 1_555
K17 S9 3.523462 1_555
K17 S13 3.716086 1_456
K18 S11 3.227894 1_554
K18 S9 3.275185 1_554
K18 S8 3.313501 1_555
K18 S16 3.462412 1_555
K18 S4 3.592961 1_555
K19 S17 3.227894 1_554
K19 S2 3.275185 1_654
K19 S13 3.313501 1_545
K19 S22 3.462412 1_555
K19 S21 3.592961 1_555
K20 S20 3.092374 1_555
K20 S22 3.126248 1_556
K20 S17 3.171529 1_555
K20 S12 3.178604 1_545
K20 S2 3.523462 1_555
K20 S8 3.716086 1_556
K21 O0 2.947986 1_555
K21 S21 3.228453 1_565
K21 S5 3.240161 1_555
K21 S22 3.289985 1_565
K21 S18 3.304414 1_655
K21 S4 3.625347 1_555
K22 O2 3.023391 1_555
K22 S5 3.314298 1_545
K22 S21 3.318027 1_555
K22 S7 3.381063 1_555
K22 S0 3.429051 1_555
K23 S21 3.092374 1_555
K23 S1 3.126248 1_654
K23 S10 3.171529 1_655
K23 S16 3.178604 1_555
K23 S8 3.523462 1_555
K23 S2 3.716086 1_654
S0 Ti7 2.279674 1_555
S1 Ti4 2.264800 1_555
S2 Ti4 2.281549 1_555
S3 Ti5 2.250177 1_555
S4 Ti1 2.250177 1_555
S5 Ti0 2.279674 1_555
S6 Ti0 2.251116 1_555
S7 Ti6 2.251116 1_555
S8 Ti3 2.281549 1_555
S9 Ti5 2.281549 1_555
S10 Ti7 2.265091 1_555
S11 Ti0 2.265091 1_555
S12 Ti5 2.264800 1_555
S13 Ti1 2.281549 1_555
S14 Ti7 2.251116 1_555
S15 Ti6 2.279674 1_555
S16 Ti1 2.264800 1_555
S17 Ti6 2.265091 1_555
S18 Ti2 2.251116 1_555
S19 Ti2 2.279674 1_555
S20 Ti4 2.250177 1_555
S21 Ti3 2.250177 1_555
S22 Ti3 2.264800 1_555
S23 Ti2 2.265091 1_555
O0 Ti1 1.856301 1_555
O0 Ti2 1.859418 1_655
O1 Ti4 1.856301 1_555
O1 Ti6 1.859418 1_455
O2 Ti3 1.856301 1_555
O2 Ti7 1.859418 1_555
O3 Ti5 1.856301 1_555
O3 Ti0 1.859418 1_555
