# generated using pymatgen
data_RbGaS2
_symmetry_space_group_name_H-M   'P 1'
_cell_length_a   7.45303636
_cell_length_b   7.45303636
_cell_length_c   15.50419379
_cell_angle_alpha   83.07462653
_cell_angle_beta   83.07462653
_cell_angle_gamma   90.00490012
_symmetry_Int_Tables_number   1
_chemical_formula_structural   RbGaS2
_chemical_formula_sum   'Rb8 Ga8 S16'
_cell_volume   848.60858545
_cell_formula_units_Z   8
loop_
 _symmetry_equiv_pos_site_id
 _symmetry_equiv_pos_as_xyz
  1  'x, y, z'
loop_
 _atom_site_type_symbol
 _atom_site_label
 _atom_site_symmetry_multiplicity
 _atom_site_fract_x
 _atom_site_fract_y
 _atom_site_fract_z
 _atom_site_occupancy
  Rb  Rb0  1  0.27607129  0.15231366  0.39417493  1
  Rb  Rb1  1  0.15231366  0.27607129  0.89417493  1
  Rb  Rb2  1  0.72392871  0.84768634  0.60582507  1
  Rb  Rb3  1  0.72393995  0.34912530  0.60600361  1
  Rb  Rb4  1  0.65087470  0.27606005  0.89399639  1
  Rb  Rb5  1  0.27606005  0.65087470  0.39399639  1
  Rb  Rb6  1  0.34912530  0.72393995  0.10600361  1
  Rb  Rb7  1  0.84768634  0.72392871  0.10582507  1
  Ga  Ga0  1  0.58656722  0.20812981  0.16774679  1
  Ga  Ga1  1  0.41343278  0.79187019  0.83225321  1
  Ga  Ga2  1  0.20812981  0.58656722  0.66774679  1
  Ga  Ga3  1  0.92059355  0.79195920  0.83248022  1
  Ga  Ga4  1  0.20804080  0.07940645  0.66751978  1
  Ga  Ga5  1  0.79195920  0.92059355  0.33248022  1
  Ga  Ga6  1  0.07940645  0.20804080  0.16751978  1
  Ga  Ga7  1  0.79187019  0.41343278  0.33225321  1
  S  S0  1  0.93382076  0.06617924  0.75000000  1
  S  S1  1  0.76918876  0.14438013  0.42358241  1
  S  S2  1  0.14438013  0.76918876  0.92358241  1
  S  S3  1  0.23081124  0.85561987  0.57641759  1
  S  S4  1  0.64482650  0.77024631  0.91974659  1
  S  S5  1  0.93400417  0.55849328  0.75037964  1
  S  S6  1  0.44150672  0.06599583  0.74962036  1
  S  S7  1  0.85561987  0.23081124  0.07641759  1
  S  S8  1  0.06599583  0.44150672  0.24962036  1
  S  S9  1  0.35517350  0.22975369  0.08025341  1
  S  S10  1  0.22975369  0.35517350  0.58025341  1
  S  S11  1  0.06617924  0.93382076  0.25000000  1
  S  S12  1  0.55849328  0.93400417  0.25037964  1
  S  S13  1  0.77024631  0.64482650  0.41974659  1
  S  S14  1  0.55861442  0.44138558  0.25000000  1
  S  S15  1  0.44138558  0.55861442  0.75000000  1
loop_
_geom_bond_atom_site_label_1
_geom_bond_atom_site_label_2
_geom_bond_distance
_geom_bond_site_symmetry_2
Rb0 S3 3.354161 1_545
Rb0 S10 3.397070 1_555
Rb0 S14 3.431541 1_555
Rb0 S12 3.433949 1_545
Rb0 S8 3.435387 1_555
Rb0 S11 3.437472 1_545
Rb0 S1 3.749845 1_455
Rb0 S1 3.757162 1_555
Rb1 S7 3.354161 1_456
Rb1 S9 3.397070 1_556
Rb1 S15 3.431541 1_555
Rb1 S5 3.433949 1_455
Rb1 S6 3.435387 1_555
Rb1 S0 3.437472 1_455
Rb1 S2 3.749845 1_545
Rb1 S2 3.757162 1_555
Rb2 S1 3.354161 1_565
Rb2 S13 3.397070 1_555
Rb2 S15 3.431541 1_555
Rb2 S6 3.433949 1_565
Rb2 S5 3.435387 1_555
Rb2 S0 3.437472 1_565
Rb2 S3 3.749845 1_655
Rb2 S3 3.757162 1_555
Rb3 S1 3.354465 1_555
Rb3 S13 3.397074 1_555
Rb3 S15 3.400613 1_555
Rb3 S6 3.402597 1_555
Rb3 S5 3.403485 1_555
Rb3 S0 3.403762 1_555
Rb3 S10 3.742440 1_655
Rb3 S10 3.752012 1_555
Rb4 S7 3.354465 1_556
Rb4 S9 3.397074 1_556
Rb4 S15 3.400613 1_555
Rb4 S5 3.402597 1_555
Rb4 S6 3.403485 1_555
Rb4 S0 3.403762 1_555
Rb4 S4 3.742440 1_545
Rb4 S4 3.752012 1_555
Rb5 S3 3.354465 1_555
Rb5 S10 3.397074 1_555
Rb5 S14 3.400613 1_555
Rb5 S12 3.402597 1_555
Rb5 S8 3.403485 1_555
Rb5 S11 3.403762 1_555
Rb5 S13 3.742440 1_455
Rb5 S13 3.752012 1_555
Rb6 S2 3.354465 1_554
Rb6 S4 3.397074 1_554
Rb6 S14 3.400613 1_555
Rb6 S8 3.402597 1_555
Rb6 S12 3.403485 1_555
Rb6 S11 3.403762 1_555
Rb6 S9 3.742440 1_565
Rb6 S9 3.752012 1_555
Rb7 S2 3.354161 1_654
Rb7 S4 3.397070 1_554
Rb7 S14 3.431541 1_555
Rb7 S8 3.433949 1_655
Rb7 S12 3.435387 1_555
Rb7 S11 3.437472 1_655
Rb7 S7 3.749845 1_565
Rb7 S7 3.757162 1_555
Ga0 S14 2.272136 1_555
Ga0 S12 2.272297 1_545
Ga0 S7 2.304808 1_555
Ga0 S9 2.313393 1_555
Ga1 S15 2.272136 1_555
Ga1 S6 2.272297 1_565
Ga1 S2 2.304808 1_555
Ga1 S4 2.313393 1_555
Ga2 S15 2.272136 1_555
Ga2 S5 2.272297 1_455
Ga2 S3 2.304808 1_555
Ga2 S10 2.313393 1_555
Ga3 S0 2.271854 1_565
Ga3 S5 2.271883 1_555
Ga3 S2 2.305662 1_655
Ga3 S4 2.314647 1_555
Ga4 S0 2.271854 1_455
Ga4 S6 2.271883 1_555
Ga4 S3 2.305662 1_545
Ga4 S10 2.314647 1_555
Ga5 S11 2.271854 1_655
Ga5 S12 2.271883 1_555
Ga5 S1 2.305662 1_565
Ga5 S13 2.314647 1_555
Ga6 S11 2.271854 1_545
Ga6 S8 2.271883 1_555
Ga6 S7 2.305662 1_455
Ga6 S9 2.314647 1_555
Ga7 S14 2.272136 1_555
Ga7 S8 2.272297 1_655
Ga7 S1 2.304808 1_555
Ga7 S13 2.313393 1_555
