# generated using pymatgen
data_BaYFeCuO5
_symmetry_space_group_name_H-M   'P 1'
_cell_length_a   3.89946500
_cell_length_b   3.89946500
_cell_length_c   7.94520300
_cell_angle_alpha   90.00000000
_cell_angle_beta   90.00000000
_cell_angle_gamma   90.00000000
_symmetry_Int_Tables_number   1
_chemical_formula_structural   BaYFeCuO5
_chemical_formula_sum   'Ba1 Y1 Fe1 Cu1 O5'
_cell_volume   120.81338457
_cell_formula_units_Z   1
loop_
 _symmetry_equiv_pos_site_id
 _symmetry_equiv_pos_as_xyz
  1  'x, y, z'
loop_
 _atom_site_type_symbol
 _atom_site_label
 _atom_site_symmetry_multiplicity
 _atom_site_fract_x
 _atom_site_fract_y
 _atom_site_fract_z
 _atom_site_occupancy
  Ba  Ba0  1  0.50000000  0.50000000  0.99775900  1
  Y  Y0  1  0.50000000  0.50000000  0.46400000  1
  Fe  Fe0  1  0.00000000  0.00000000  0.70534500  1
  Cu  Cu0  1  0.00000000  0.00000000  0.25515300  1
  O  O0  1  0.50000000  0.00000000  0.63616600  1
  O  O1  1  0.00000000  0.50000000  0.63616600  1
  O  O2  1  0.50000000  0.00000000  0.27651400  1
  O  O3  1  0.00000000  0.50000000  0.27651400  1
  O  O4  1  0.00000000  0.00000000  0.94030000  1
loop_
_geom_bond_atom_site_label_1
_geom_bond_atom_site_label_2
_geom_bond_distance
_geom_bond_site_symmetry_2
Ba0 O4 2.794875 1_665
Ba0 O4 2.794875 1_555
Ba0 O4 2.794875 1_655
Ba0 O4 2.794875 1_565
Ba0 O3 2.950702 1_656
Ba0 O2 2.950702 1_566
Ba0 O2 2.950702 1_556
Ba0 O3 2.950702 1_556
Fe0 O4 1.866765 1_555
Fe0 O1 2.025725 1_545
Fe0 O0 2.025725 1_455
Fe0 O0 2.025725 1_555
Fe0 O1 2.025725 1_555
Cu0 O2 1.957105 1_555
Cu0 O3 1.957105 1_545
Cu0 O2 1.957105 1_455
Cu0 O3 1.957105 1_555
Cu0 O4 2.501571 1_554
O0 Y0 2.381720 1_555
O0 Y0 2.381720 1_545
O1 Y0 2.381720 1_555
O1 Y0 2.381720 1_455
O2 Y0 2.453652 1_545
O2 Y0 2.453652 1_555
O3 Y0 2.453652 1_455
O3 Y0 2.453652 1_555
