# generated using pymatgen
data_K2CuF4
_symmetry_space_group_name_H-M   'P 1'
_cell_length_a   5.80136849
_cell_length_b   5.80140380
_cell_length_c   13.29212554
_cell_angle_alpha   102.59816710
_cell_angle_beta   102.59837750
_cell_angle_gamma   90.00622605
_symmetry_Int_Tables_number   1
_chemical_formula_structural   K2CuF4
_chemical_formula_sum   'K8 Cu4 F16'
_cell_volume   425.54397663
_cell_formula_units_Z   4
loop_
 _symmetry_equiv_pos_site_id
 _symmetry_equiv_pos_as_xyz
  1  'x, y, z'
loop_
 _atom_site_type_symbol
 _atom_site_label
 _atom_site_symmetry_multiplicity
 _atom_site_fract_x
 _atom_site_fract_y
 _atom_site_fract_z
 _atom_site_occupancy
  K  K0  1  0.42875733  0.42876071  0.85752591  1
  K  K1  1  0.57124267  0.57123929  0.14247409  1
  K  K2  1  0.92876066  0.92875741  0.85752615  1
  K  K3  1  0.07123934  0.07124259  0.14247385  1
  K  K4  1  0.82047306  0.32047298  0.64094541  1
  K  K5  1  0.17952694  0.67952702  0.35905459  1
  K  K6  1  0.67953111  0.17953125  0.35905789  1
  K  K7  1  0.32046889  0.82046875  0.64094211  1
  Cu  Cu0  1  0.00000000  0.50000000  -0.00000000  1
  Cu  Cu1  1  0.50000000  -0.00000000  -0.00000000  1
  Cu  Cu2  1  0.75000001  0.74999990  0.50000002  1
  Cu  Cu3  1  0.24999999  0.25000010  0.49999998  1
  F  F0  1  0.17448697  0.17448280  0.34858842  1
  F  F1  1  0.50000000  -0.00000000  0.50000000  1
  F  F2  1  0.57692254  0.07692531  0.15371686  1
  F  F3  1  0.50000000  0.50000000  0.50000000  1
  F  F4  1  0.73151077  0.76847993  0.00000090  1
  F  F5  1  0.82551303  0.82551720  0.65141158  1
  F  F6  1  0.07673854  0.57674206  0.15358995  1
  F  F7  1  0.42307746  0.92307469  0.84628314  1
  F  F8  1  0.32551454  0.32551571  0.65141153  1
  F  F9  1  0.00000000  -0.00000000  0.50000000  1
  F  F10  1  0.26848923  0.23152007  -0.00000090  1
  F  F11  1  0.92326146  0.42325794  0.84641005  1
  F  F12  1  0.23157355  0.73157450  0.00003856  1
  F  F13  1  0.67448546  0.67448429  0.34858847  1
  F  F14  1  0.76842645  0.26842550  -0.00003856  1
  F  F15  1  0.00000000  0.50000000  0.50000000  1
loop_
_geom_bond_atom_site_label_1
_geom_bond_atom_site_label_2
_geom_bond_distance
_geom_bond_site_symmetry_2
Cu0 F12 1.899664 1_555
Cu0 F14 1.899664 1_455
Cu0 F11 1.941975 1_454
Cu0 F6 1.941975 1_555
Cu0 F4 2.202874 1_455
Cu0 F10 2.202874 1_555
Cu1 F4 1.899548 1_545
Cu1 F10 1.899548 1_555
Cu1 F7 1.943580 1_544
Cu1 F2 1.943580 1_555
Cu1 F14 2.202312 1_555
Cu1 F12 2.202312 1_545
Cu2 F13 1.914432 1_555
Cu2 F5 1.914432 1_555
Cu2 F3 2.050988 1_555
Cu2 F9 2.050989 1_665
Cu2 F15 2.051211 1_655
Cu2 F1 2.051212 1_565
Cu3 F8 1.914432 1_555
Cu3 F0 1.914432 1_555
Cu3 F3 2.050988 1_555
Cu3 F9 2.050989 1_555
Cu3 F15 2.051211 1_555
Cu3 F1 2.051212 1_555
F0 K3 2.606092 1_555
F0 K6 2.902611 1_555
F0 K5 2.902637 1_555
F0 K6 2.904796 1_455
F0 K5 2.904801 1_545
F1 K6 2.716871 1_555
F1 K7 2.716871 1_545
F1 K5 2.717243 1_545
F1 K4 2.717243 1_555
F2 K6 2.596311 1_555
F2 K1 2.903795 1_555
F2 K3 2.903795 1_655
F2 K3 2.904536 1_555
F2 K1 2.904571 1_545
F3 K6 2.717208 1_555
F3 K7 2.717208 1_555
F3 K5 2.717226 1_555
F3 K4 2.717226 1_555
F4 K1 2.733748 1_555
F4 K2 2.733823 1_554
F4 K0 2.734168 1_554
F4 K3 2.734213 1_665
F5 K2 2.606092 1_555
F5 K7 2.902611 1_555
F5 K4 2.902637 1_555
F5 K7 2.904796 1_655
F5 K4 2.904801 1_565
F6 K5 2.597874 1_555
F6 K1 2.903740 1_455
F6 K3 2.903779 1_555
F6 K3 2.904431 1_565
F6 K1 2.904434 1_555
F7 K7 2.596311 1_555
F7 K0 2.903795 1_555
F7 K2 2.903795 1_455
F7 K2 2.904536 1_555
F7 K0 2.904571 1_565
F8 K0 2.606089 1_555
F8 K4 2.902603 1_455
F8 K7 2.902646 1_545
F8 K7 2.904796 1_555
F8 K4 2.904800 1_555
F9 K7 2.717199 1_545
F9 K6 2.717199 1_455
F9 K5 2.717236 1_545
F9 K4 2.717236 1_455
F10 K0 2.733748 1_554
F10 K3 2.733823 1_555
F10 K1 2.734168 1_555
F10 K2 2.734213 1_444
F11 K4 2.597874 1_555
F11 K0 2.903740 1_655
F11 K2 2.903779 1_555
F11 K2 2.904431 1_545
F11 K0 2.904434 1_555
F12 K1 2.733839 1_555
F12 K3 2.733842 1_565
F12 K2 2.734424 1_454
F12 K0 2.734440 1_554
F13 K1 2.606089 1_555
F13 K5 2.902603 1_655
F13 K6 2.902646 1_565
F13 K6 2.904796 1_555
F13 K5 2.904800 1_555
F14 K0 2.733839 1_554
F14 K2 2.733842 1_544
F14 K3 2.734424 1_655
F14 K1 2.734440 1_555
F15 K5 2.716883 1_555
F15 K4 2.716883 1_455
F15 K7 2.717199 1_555
F15 K6 2.717199 1_455
