# generated using pymatgen
data_Ga5Fe6
_symmetry_space_group_name_H-M   'P 1'
_cell_length_a   6.39304798
_cell_length_b   6.39304798
_cell_length_c   7.68878477
_cell_angle_alpha   75.66164882
_cell_angle_beta   75.66164882
_cell_angle_gamma   76.52286448
_symmetry_Int_Tables_number   1
_chemical_formula_structural   Ga5Fe6
_chemical_formula_sum   'Ga10 Fe12'
_cell_volume   289.99770081
_cell_formula_units_Z   2
loop_
 _symmetry_equiv_pos_site_id
 _symmetry_equiv_pos_as_xyz
  1  'x, y, z'
loop_
 _atom_site_type_symbol
 _atom_site_label
 _atom_site_symmetry_multiplicity
 _atom_site_fract_x
 _atom_site_fract_y
 _atom_site_fract_z
 _atom_site_occupancy
  Ga  Ga0  1  0.32152200  0.32152200  0.65503000  1
  Ga  Ga1  1  0.84161800  0.23457800  0.79491300  1
  Ga  Ga2  1  0.13112300  0.13112300  0.40140200  1
  Ga  Ga3  1  0.15838200  0.76542200  0.20508700  1
  Ga  Ga4  1  0.23457800  0.84161800  0.79491300  1
  Ga  Ga5  1  0.62271800  0.62271800  0.02012100  1
  Ga  Ga6  1  0.67847800  0.67847800  0.34497000  1
  Ga  Ga7  1  0.76542200  0.15838200  0.20508700  1
  Ga  Ga8  1  0.86887700  0.86887700  0.59859800  1
  Ga  Ga9  1  0.37728200  0.37728200  0.97987900  1
  Fe  Fe0  1  0.86905200  0.86905200  0.01319300  1
  Fe  Fe1  1  0.60344800  0.60344800  0.69055500  1
  Fe  Fe2  1  0.50000000  0.00000000  0.50000000  1
  Fe  Fe3  1  0.72032800  0.27967200  0.50000000  1
  Fe  Fe4  1  0.99302500  0.45688600  0.17014200  1
  Fe  Fe5  1  0.00697500  0.54311400  0.82985800  1
  Fe  Fe6  1  0.39655200  0.39655200  0.30944500  1
  Fe  Fe7  1  0.45688600  0.99302500  0.17014200  1
  Fe  Fe8  1  0.13094800  0.13094800  0.98680700  1
  Fe  Fe9  1  0.27967200  0.72032800  0.50000000  1
  Fe  Fe10  1  0.54311400  0.00697500  0.82985800  1
  Fe  Fe11  1  0.00000000  0.50000000  0.50000000  1
loop_
_geom_bond_atom_site_label_1
_geom_bond_atom_site_label_2
_geom_bond_distance
_geom_bond_site_symmetry_2
Ga0 Ga9 2.726509 1_555
Ga1 Ga9 2.992703 1_555
Ga2 Ga8 2.590870 1_445
Ga3 Ga5 2.992703 1_555
Ga4 Ga9 2.992703 1_555
Ga5 Ga9 2.578429 1_554
Ga5 Ga6 2.726509 1_555
Ga5 Ga7 2.992703 1_555
Fe0 Ga5 2.456804 1_555
Fe0 Ga1 2.514057 1_564
Fe0 Ga4 2.514057 1_654
Fe0 Ga7 2.516661 1_565
Fe0 Ga3 2.516661 1_655
Fe0 Fe8 2.572547 1_664
Fe0 Fe7 2.636846 1_555
Fe0 Fe4 2.636846 1_555
Fe0 Fe5 2.662569 1_654
Fe0 Fe10 2.662569 1_564
Fe0 Ga6 2.662579 1_555
Fe1 Ga6 2.522933 1_555
Fe1 Ga8 2.532296 1_555
Fe1 Ga1 2.552963 1_555
Fe1 Ga4 2.552963 1_555
Fe1 Ga5 2.601466 1_556
Fe1 Fe11 2.621036 1_655
Fe1 Fe2 2.621036 1_565
Fe1 Ga9 2.630226 1_555
Fe1 Fe3 2.688574 1_555
Fe1 Fe9 2.688574 1_555
Fe1 Ga0 2.928057 1_555
Fe1 Fe5 2.941308 1_655
Fe1 Fe10 2.941308 1_565
Fe2 Fe3 2.520861 1_555
Fe2 Fe9 2.520861 1_545
Fe2 Ga6 2.528747 1_545
Fe2 Ga0 2.528747 1_555
Fe2 Ga2 2.547162 1_555
Fe2 Ga8 2.547162 1_545
Fe2 Ga4 2.608480 1_545
Fe2 Ga7 2.608480 1_555
Fe2 Fe6 2.621036 1_555
Fe2 Fe7 2.630264 1_545
Fe3 Ga1 2.503782 1_555
Fe3 Ga7 2.503782 1_555
Fe3 Ga0 2.515467 1_555
Fe3 Ga6 2.515467 1_555
Fe3 Ga8 2.565474 1_545
Fe3 Ga2 2.565474 1_655
Fe3 Fe6 2.688574 1_555
Fe3 Fe4 2.839493 1_555
Fe4 Ga6 2.476708 1_555
Fe4 Fe5 2.519964 1_654
Fe4 Ga2 2.522852 1_655
Fe4 Ga9 2.537689 1_654
Fe4 Ga3 2.540775 1_655
Fe4 Ga7 2.584173 1_555
Fe4 Fe8 2.662569 1_654
Fe4 Ga5 2.763326 1_555
Fe4 Fe6 2.941308 1_655
Fe5 Ga0 2.476708 1_555
Fe5 Ga8 2.522852 1_455
Fe5 Ga5 2.537689 1_456
Fe5 Ga1 2.540775 1_455
Fe5 Ga4 2.584173 1_555
Fe5 Fe8 2.636846 1_555
Fe5 Ga9 2.763326 1_555
Fe5 Fe9 2.839493 1_555
Fe6 Ga0 2.522933 1_555
Fe6 Ga2 2.532296 1_555
Fe6 Ga3 2.552963 1_555
Fe6 Ga7 2.552963 1_555
Fe6 Ga9 2.601466 1_554
Fe6 Ga5 2.630226 1_555
Fe6 Fe9 2.688574 1_555
Fe6 Ga6 2.928057 1_555
Fe6 Fe7 2.941308 1_545
Fe7 Ga6 2.476708 1_555
Fe7 Ga2 2.522852 1_565
Fe7 Ga9 2.537689 1_564
Fe7 Ga7 2.540775 1_565
Fe7 Ga3 2.584173 1_555
Fe7 Fe8 2.662569 1_564
Fe7 Ga5 2.763326 1_555
Fe7 Fe9 2.839493 1_555
Fe8 Ga9 2.456804 1_555
Fe8 Ga7 2.514057 1_456
Fe8 Ga3 2.514057 1_546
Fe8 Ga4 2.516661 1_545
Fe8 Ga1 2.516661 1_455
Fe8 Ga0 2.662579 1_555
Fe9 Ga3 2.503782 1_555
Fe9 Ga4 2.503782 1_555
Fe9 Ga0 2.515467 1_555
Fe9 Ga6 2.515467 1_555
Fe9 Ga8 2.565474 1_455
Fe9 Ga2 2.565474 1_565
Fe10 Ga0 2.476708 1_555
Fe10 Fe7 2.519964 1_546
Fe10 Ga8 2.522852 1_545
Fe10 Ga5 2.537689 1_546
Fe10 Ga4 2.540775 1_545
Fe10 Ga1 2.584173 1_555
Fe10 Fe2 2.630264 1_555
Fe10 Fe8 2.636846 1_555
Fe10 Ga9 2.763326 1_555
Fe10 Fe3 2.839493 1_555
Fe11 Fe9 2.520861 1_555
Fe11 Fe3 2.520861 1_455
Fe11 Ga0 2.528747 1_555
Fe11 Ga6 2.528747 1_455
Fe11 Ga2 2.547162 1_555
Fe11 Ga8 2.547162 1_455
Fe11 Ga3 2.608480 1_555
Fe11 Ga1 2.608480 1_455
Fe11 Fe6 2.621036 1_555
Fe11 Fe4 2.630264 1_455
Fe11 Fe5 2.630264 1_555
