# generated using pymatgen
data_TiCdO3
_symmetry_space_group_name_H-M   'P 1'
_cell_length_a   5.31246054
_cell_length_b   5.42898714
_cell_length_c   7.64691644
_cell_angle_alpha   90.00000000
_cell_angle_beta   90.00000000
_cell_angle_gamma   90.00000000
_symmetry_Int_Tables_number   1
_chemical_formula_structural   TiCdO3
_chemical_formula_sum   'Ti4 Cd4 O12'
_cell_volume   220.54685783
_cell_formula_units_Z   4
loop_
 _symmetry_equiv_pos_site_id
 _symmetry_equiv_pos_as_xyz
  1  'x, y, z'
loop_
 _atom_site_type_symbol
 _atom_site_label
 _atom_site_symmetry_multiplicity
 _atom_site_fract_x
 _atom_site_fract_y
 _atom_site_fract_z
 _atom_site_occupancy
  Ti  Ti0  1  0.49887423  0.00109045  0.49624022  1
  Ti  Ti1  1  0.50112577  0.99890955  0.99624022  1
  Ti  Ti2  1  0.00112577  0.50109045  0.49624022  1
  Ti  Ti3  1  0.99887423  0.49890955  0.99624022  1
  Cd  Cd0  1  0.50887107  0.46056743  0.24727408  1
  Cd  Cd1  1  0.49112893  0.53943257  0.74727408  1
  Cd  Cd2  1  0.99112893  0.96056743  0.24727408  1
  Cd  Cd3  1  0.00887107  0.03943257  0.74727408  1
  O  O0  1  0.79568451  0.21229498  0.05195509  1
  O  O1  1  0.20431549  0.78770502  0.55195509  1
  O  O2  1  0.70431549  0.71229498  0.05195509  1
  O  O3  1  0.29568551  0.28770502  0.55195509  1
  O  O4  1  0.80138053  0.19576258  0.45596526  1
  O  O5  1  0.19861947  0.80423742  0.95596526  1
  O  O6  1  0.69861947  0.69576258  0.45596526  1
  O  O7  1  0.30138053  0.30423742  0.95596526  1
  O  O8  1  0.90857874  0.47133659  0.75346635  1
  O  O9  1  0.09142126  0.52866341  0.25346635  1
  O  O10  1  0.59142126  0.97133659  0.75346635  1
  O  O11  1  0.40857874  0.02866341  0.25346635  1
loop_
_geom_bond_atom_site_label_1
_geom_bond_atom_site_label_2
_geom_bond_distance
_geom_bond_site_symmetry_2
Cd0 O9 2.248787 1_555
Cd0 O2 2.275196 1_555
Cd0 O6 2.278869 1_555
Cd0 O11 2.405039 1_555
Cd0 O0 2.523721 1_555
Cd0 O7 2.626331 1_554
Cd0 O4 2.651079 1_555
Cd0 O3 2.755297 1_555
Cd1 O8 2.248787 1_555
Cd1 O3 2.275194 1_555
Cd1 O7 2.278869 1_555
Cd1 O10 2.405039 1_555
Cd1 O1 2.523721 1_555
Cd1 O6 2.626331 1_555
Cd1 O5 2.651079 1_555
Cd1 O2 2.755300 1_556
Cd2 O11 2.248787 1_665
Cd2 O0 2.275196 1_565
Cd2 O4 2.278869 1_565
Cd2 O9 2.405039 1_655
Cd2 O2 2.523721 1_555
Cd2 O5 2.626331 1_654
Cd2 O6 2.651079 1_555
Cd2 O1 2.755300 1_655
Cd3 O10 2.248787 1_445
Cd3 O1 2.275196 1_545
Cd3 O5 2.278869 1_545
Cd3 O8 2.405039 1_455
Cd3 O3 2.523725 1_555
Cd3 O4 2.626331 1_455
Cd3 O7 2.651079 1_555
Cd3 O0 2.755300 1_456
O0 Ti3 1.941113 1_554
O0 Ti1 1.993053 1_544
O1 Ti2 1.941113 1_555
O1 Ti0 1.993053 1_565
O2 Ti1 1.941113 1_554
O2 Ti3 1.993053 1_554
O3 Ti0 1.941110 1_555
O3 Ti2 1.993057 1_555
O4 Ti0 1.947935 1_555
O4 Ti2 1.992128 1_655
O5 Ti1 1.947935 1_555
O5 Ti3 1.992128 1_455
O6 Ti2 1.947935 1_655
O6 Ti0 1.992128 1_565
O7 Ti3 1.947935 1_455
O7 Ti1 1.992128 1_545
O8 Ti3 1.923278 1_555
O8 Ti2 2.033925 1_655
O9 Ti2 1.923278 1_555
O9 Ti3 2.033925 1_454
O10 Ti1 1.923278 1_555
O10 Ti0 2.033925 1_565
O11 Ti0 1.923278 1_555
O11 Ti1 2.033925 1_544
