# generated using pymatgen
data_Yb11InSb9
_symmetry_space_group_name_H-M   'P 1'
_cell_length_a   12.03995466
_cell_length_b   12.03995466
_cell_length_c   12.03995466
_cell_angle_alpha   120.92600188
_cell_angle_beta   117.49198983
_cell_angle_gamma   91.40072305
_symmetry_Int_Tables_number   1
_chemical_formula_structural   Yb11InSb9
_chemical_formula_sum   'Yb22 In2 Sb18'
_cell_volume   1247.11705806
_cell_formula_units_Z   2
loop_
 _symmetry_equiv_pos_site_id
 _symmetry_equiv_pos_as_xyz
  1  'x, y, z'
loop_
 _atom_site_type_symbol
 _atom_site_label
 _atom_site_symmetry_multiplicity
 _atom_site_fract_x
 _atom_site_fract_y
 _atom_site_fract_z
 _atom_site_occupancy
  Yb  Yb0  1  0.56306700  0.91149700  0.79186300  1
  Yb  Yb1  1  0.32614200  0.66544000  0.99002800  1
  Yb  Yb2  1  0.11963500  0.77120500  0.20813700  1
  Yb  Yb3  1  0.32620600  0.32620600  0.00000000  1
  Yb  Yb4  1  0.31656900  0.05314100  0.62931900  1
  Yb  Yb5  1  0.06968500  0.44355200  0.25560100  1
  Yb  Yb6  1  0.93124900  0.74491300  0.35820500  1
  Yb  Yb7  1  0.06306700  0.27120500  0.65157000  1
  Yb  Yb8  1  0.38670800  0.57304400  0.64179500  1
  Yb  Yb9  1  0.56968500  0.31408400  0.62613300  1
  Yb  Yb10  1  0.61963500  0.41149700  0.34843000  1
  Yb  Yb11  1  0.68795100  0.94355200  0.37386700  1
  Yb  Yb12  1  0.17541100  0.16544000  0.33929800  1
  Yb  Yb13  1  0.42382200  0.68725000  0.37068100  1
  Yb  Yb14  1  0.92382200  0.55314100  0.73657200  1
  Yb  Yb15  1  0.67541100  0.33611400  0.00997200  1
  Yb  Yb16  1  0.82620600  0.82620600  0.00000000  1
  Yb  Yb17  1  0.43124900  0.07304400  0.18633600  1
  Yb  Yb18  1  0.82614200  0.83611400  0.66070200  1
  Yb  Yb19  1  0.81656900  0.18725000  0.26342800  1
  Yb  Yb20  1  0.88670800  0.24491300  0.81366400  1
  Yb  Yb21  1  0.18795100  0.81408400  0.74439900  1
  In  In0  1  0.61016100  0.61016100  0.00000000  1
  In  In1  1  0.11016100  0.11016100  0.00000000  1
  Sb  Sb0  1  0.99366300  0.99457800  0.35426000  1
  Sb  Sb1  1  0.89290800  0.53813500  0.42567300  1
  Sb  Sb2  1  0.11246300  0.46723500  0.57432700  1
  Sb  Sb3  1  0.37493300  0.36001000  0.74756400  1
  Sb  Sb4  1  0.87493300  0.12736900  0.01492300  1
  Sb  Sb5  1  0.61244600  0.62736900  0.25243600  1
  Sb  Sb6  1  0.74773700  0.24773700  0.50000000  1
  Sb  Sb7  1  0.64031700  0.63940200  0.64574000  1
  Sb  Sb8  1  0.83766300  0.53770000  0.99038500  1
  Sb  Sb9  1  0.11244600  0.86001000  0.98507700  1
  Sb  Sb10  1  0.49366300  0.13940200  0.99908500  1
  Sb  Sb11  1  0.61246300  0.03813500  0.64522800  1
  Sb  Sb12  1  0.14031700  0.49457800  0.00091500  1
  Sb  Sb13  1  0.24773700  0.74773700  0.50000000  1
  Sb  Sb14  1  0.39290800  0.96723500  0.35477200  1
  Sb  Sb15  1  0.33766300  0.34727800  0.29996300  1
  Sb  Sb16  1  0.54731500  0.84727800  0.00961500  1
  Sb  Sb17  1  0.04731500  0.03770000  0.70003700  1
loop_
_geom_bond_atom_site_label_1
_geom_bond_atom_site_label_2
_geom_bond_distance
_geom_bond_site_symmetry_2
In0 Sb5 2.925136 1_555
In0 Sb3 2.925136 1_554
In0 Sb16 2.929684 1_555
In0 Sb8 2.929684 1_554
In0 Yb15 3.459077 1_555
In0 Yb1 3.459080 1_554
In0 Yb16 3.633373 1_555
In0 Yb6 3.644939 1_555
In0 Yb8 3.644939 1_554
In0 Yb9 3.821465 1_554
In0 Yb11 3.821465 1_555
In1 Sb9 2.925136 1_544
In1 Sb4 2.925136 1_455
In1 Sb15 2.929684 1_555
In1 Sb17 2.929684 1_554
In1 Yb18 3.459080 1_444
In1 Yb12 3.459084 1_555
In1 Yb3 3.633373 1_555
In1 Yb20 3.644939 1_454
In1 Yb17 3.644939 1_555
In1 Yb21 3.821465 1_544
In1 Yb5 3.821465 1_555
Sb0 Yb16 3.056184 1_555
Sb0 Yb7 3.074502 1_665
Sb0 Yb12 3.094762 1_665
Sb0 Yb6 3.109982 1_555
Sb0 Yb2 3.229253 1_655
Sb0 Yb19 3.438046 1_565
Sb0 Yb4 3.486860 1_665
Sb0 Yb11 3.849918 1_555
Sb1 Sb2 2.869218 1_655
Sb1 Yb6 3.072415 1_555
Sb1 Yb10 3.080137 1_555
Sb1 Yb5 3.430039 1_655
Sb1 Yb21 3.480798 1_655
Sb1 Yb19 3.489746 1_555
Sb1 Yb14 3.492574 1_555
Sb1 Yb15 3.591502 1_555
Sb1 Yb18 3.651167 1_555
Sb2 Yb8 3.072404 1_555
Sb2 Yb7 3.080141 1_555
Sb2 Yb21 3.430040 1_555
Sb2 Yb5 3.480794 1_555
Sb2 Yb14 3.489757 1_455
Sb2 Yb19 3.492580 1_455
Sb2 Yb1 3.591500 1_555
Sb2 Yb12 3.651153 1_555
Sb3 Yb4 3.116766 1_555
Sb3 Yb9 3.215411 1_555
Sb3 Yb7 3.332388 1_555
Sb3 Yb8 3.424443 1_555
Sb3 Yb12 3.522466 1_555
Sb3 Yb3 3.557148 1_556
Sb3 Yb1 3.611754 1_555
Sb3 Yb15 3.685801 1_556
Sb4 Yb19 3.116766 1_555
Sb4 Yb5 3.215411 1_655
Sb4 Yb0 3.332389 1_544
Sb4 Yb20 3.424443 1_554
Sb4 Yb15 3.522474 1_555
Sb4 Yb16 3.557148 1_545
Sb4 Yb18 3.611754 1_544
Sb4 Yb12 3.685802 1_655
Sb5 Yb13 3.116766 1_555
Sb5 Yb11 3.215411 1_555
Sb5 Yb10 3.332388 1_555
Sb5 Yb6 3.424443 1_555
Sb5 Yb18 3.522466 1_555
Sb5 Yb3 3.557148 1_555
Sb5 Yb15 3.611747 1_555
Sb5 Yb1 3.685808 1_554
Sb6 Yb11 3.063083 1_545
Sb6 Yb9 3.063083 1_555
Sb6 Yb19 3.067049 1_555
Sb6 Yb14 3.067049 1_555
Sb6 Yb10 3.293164 1_555
Sb6 Yb7 3.293164 1_655
Sb6 Yb17 3.370995 1_555
Sb6 Yb20 3.370995 1_555
Sb7 Yb16 3.056185 1_556
Sb7 Yb10 3.074504 1_555
Sb7 Yb18 3.094787 1_555
Sb7 Yb8 3.109968 1_555
Sb7 Yb0 3.229253 1_555
Sb7 Yb14 3.438051 1_555
Sb7 Yb13 3.486864 1_555
Sb7 Yb9 3.849905 1_555
Sb8 Yb2 3.169035 1_656
Sb8 Yb15 3.247214 1_556
Sb8 Yb20 3.294657 1_555
Sb8 Yb6 3.317387 1_556
Sb8 Yb9 3.356632 1_555
Sb8 Yb16 3.423911 1_556
Sb8 Yb14 3.735026 1_555
Sb8 Yb5 3.863264 1_656
Sb9 Yb14 3.116766 1_455
Sb9 Yb21 3.215411 1_555
Sb9 Yb2 3.332376 1_556
Sb9 Yb17 3.424443 1_566
Sb9 Yb1 3.522466 1_555
Sb9 Yb16 3.557148 1_456
Sb9 Yb12 3.611759 1_566
Sb9 Yb18 3.685808 1_455
Sb10 Yb3 3.056194 1_556
Sb10 Yb0 3.074490 1_545
Sb10 Yb15 3.094771 1_556
Sb10 Yb17 3.109975 1_556
Sb10 Yb10 3.229253 1_556
Sb10 Yb4 3.438051 1_555
Sb10 Yb19 3.486856 1_556
Sb10 Yb21 3.849911 1_545
Sb11 Sb14 2.869230 1_545
Sb11 Yb20 3.072409 1_555
Sb11 Yb0 3.080143 1_545
Sb11 Yb11 3.430042 1_545
Sb11 Yb9 3.480806 1_555
Sb11 Yb13 3.489748 1_545
Sb11 Yb4 3.492581 1_555
Sb11 Yb18 3.591492 1_545
Sb11 Yb15 3.651169 1_556
Sb12 Yb3 3.056194 1_555
Sb12 Yb2 3.074492 1_555
Sb12 Yb1 3.094779 1_554
Sb12 Yb20 3.109975 1_454
Sb12 Yb7 3.229253 1_554
Sb12 Yb13 3.438051 1_555
Sb12 Yb14 3.486856 1_454
Sb12 Yb5 3.849911 1_555
Sb13 Yb5 3.063083 1_555
Sb13 Yb21 3.063083 1_555
Sb13 Yb13 3.067049 1_555
Sb13 Yb4 3.067049 1_565
Sb13 Yb0 3.293167 1_555
Sb13 Yb2 3.293175 1_555
Sb13 Yb8 3.370995 1_555
Sb13 Yb6 3.370995 1_455
Sb14 Yb17 3.072404 1_565
Sb14 Yb2 3.080137 1_555
Sb14 Yb9 3.430040 1_565
Sb14 Yb11 3.480794 1_555
Sb14 Yb4 3.489757 1_565
Sb14 Yb13 3.492580 1_555
Sb14 Yb12 3.591509 1_565
Sb14 Yb1 3.651160 1_554
Sb15 Yb10 3.169034 1_555
Sb15 Yb12 3.247214 1_555
Sb15 Yb8 3.294657 1_555
Sb15 Yb17 3.317387 1_555
Sb15 Yb5 3.356632 1_555
Sb15 Yb3 3.423911 1_555
Sb15 Yb13 3.735026 1_555
Sb15 Yb9 3.863264 1_555
Sb16 Yb0 3.169022 1_554
Sb16 Yb1 3.247206 1_554
Sb16 Yb17 3.294657 1_565
Sb16 Yb8 3.317387 1_554
Sb16 Yb11 3.356632 1_555
Sb16 Yb16 3.423911 1_555
Sb16 Yb19 3.735026 1_565
Sb16 Yb21 3.863264 1_554
Sb17 Yb7 3.169034 1_555
Sb17 Yb18 3.247206 1_445
Sb17 Yb6 3.294657 1_445
Sb17 Yb20 3.317387 1_455
Sb17 Yb21 3.356632 1_545
Sb17 Yb3 3.423911 1_556
Sb17 Yb4 3.735026 1_555
Sb17 Yb11 3.863264 1_445
