# generated using pymatgen
data_Ho(SiIr)2
_symmetry_space_group_name_H-M   'P 1'
_cell_length_a   4.05974207
_cell_length_b   4.05974158
_cell_length_c   5.71510400
_cell_angle_alpha   110.80427096
_cell_angle_beta   110.80426170
_cell_angle_gamma   89.99999990
_symmetry_Int_Tables_number   1
_chemical_formula_structural   Ho(SiIr)2
_chemical_formula_sum   'Ho1 Si2 Ir2'
_cell_volume   81.44875144
_cell_formula_units_Z   1
loop_
 _symmetry_equiv_pos_site_id
 _symmetry_equiv_pos_as_xyz
  1  'x, y, z'
loop_
 _atom_site_type_symbol
 _atom_site_label
 _atom_site_symmetry_multiplicity
 _atom_site_fract_x
 _atom_site_fract_y
 _atom_site_fract_z
 _atom_site_occupancy
  Ho  Ho0  1  0.00000000  0.00000000  0.00000000  1
  Si  Si0  1  0.37868950  0.37868950  0.75738100  1
  Si  Si1  1  0.62131050  0.62131050  0.24261900  1
  Ir  Ir0  1  0.75000000  0.25000000  0.50000000  1
  Ir  Ir1  1  0.25000000  0.75000000  0.50000000  1
loop_
_geom_bond_atom_site_label_1
_geom_bond_atom_site_label_2
_geom_bond_distance
_geom_bond_site_symmetry_2
Ho0 Si0 3.110993 1_554
Ho0 Si1 3.110993 1_445
Ho0 Si1 3.110998 1_455
Ho0 Si0 3.110998 1_544
Ho0 Si0 3.110998 1_454
Ho0 Si1 3.110998 1_545
Ho0 Si1 3.111003 1_555
Ho0 Si0 3.111003 1_444
Ho0 Ir1 3.197779 1_555
Ho0 Ir0 3.197779 1_444
Ho0 Ir1 3.197779 1_544
Ho0 Ir0 3.197779 1_455
Ho0 Ir1 3.197779 1_545
Ho0 Ir0 3.197779 1_454
Ho0 Ir1 3.197779 1_444
Ho0 Ir0 3.197779 1_555
Si0 Si1 2.397963 1_556
Ir0 Si1 2.395448 1_545
Ir0 Si0 2.395448 1_655
Ir0 Si0 2.395455 1_555
Ir0 Si1 2.395455 1_555
Ir1 Si0 2.395448 1_565
Ir1 Si1 2.395448 1_455
Ir1 Si1 2.395455 1_555
Ir1 Si0 2.395455 1_555
