# generated using pymatgen
data_InH8C4NO10
_symmetry_space_group_name_H-M   'P 1'
_cell_length_a   9.10228968
_cell_length_b   9.10228968
_cell_length_c   11.65331000
_cell_angle_alpha   90.00000000
_cell_angle_beta   90.00000000
_cell_angle_gamma   119.99999765
_symmetry_Int_Tables_number   1
_chemical_formula_structural   InH8C4NO10
_chemical_formula_sum   'In3 H24 C12 N3 O30'
_cell_volume   836.14432585
_cell_formula_units_Z   3
loop_
 _symmetry_equiv_pos_site_id
 _symmetry_equiv_pos_as_xyz
  1  'x, y, z'
loop_
 _atom_site_type_symbol
 _atom_site_label
 _atom_site_symmetry_multiplicity
 _atom_site_fract_x
 _atom_site_fract_y
 _atom_site_fract_z
 _atom_site_occupancy
  In  In0  1  0.50000000  0.00000000  0.00000000  1
  In  In1  1  0.00000000  0.50000000  0.66666700  1
  In  In2  1  0.50000000  0.50000000  0.33333300  1
  H  H0  1  0.90085200  0.64315700  0.17839000  1
  H  H1  1  0.89718100  0.92245000  0.94813300  1
  H  H2  1  0.25769500  0.90085200  0.51172300  1
  H  H3  1  0.90085200  0.25769500  0.15494300  1
  H  H4  1  0.25769500  0.35684300  0.82161000  1
  H  H5  1  0.02526900  0.10281900  0.28146700  1
  H  H6  1  0.97473100  0.07755000  0.05186700  1
  H  H7  1  0.02526900  0.92245000  0.05186700  1
  H  H8  1  0.09914800  0.74230500  0.15494300  1
  H  H9  1  0.92245000  0.89718100  0.71853300  1
  H  H10  1  0.09914800  0.35684300  0.17839000  1
  H  H11  1  0.92245000  0.02526900  0.61480000  1
  H  H12  1  0.64315700  0.74230500  0.84505700  1
  H  H13  1  0.74230500  0.64315700  0.82161000  1
  H  H14  1  0.97473100  0.89718100  0.28146700  1
  H  H15  1  0.35684300  0.25769500  0.84505700  1
  H  H16  1  0.35684300  0.09914800  0.48827700  1
  H  H17  1  0.07755000  0.10281900  0.71853300  1
  H  H18  1  0.74230500  0.09914800  0.51172300  1
  H  H19  1  0.10281900  0.07755000  0.94813300  1
  H  H20  1  0.07755000  0.97473100  0.61480000  1
  H  H21  1  0.89718100  0.97473100  0.38520000  1
  H  H22  1  0.10281900  0.02526900  0.38520000  1
  H  H23  1  0.64315700  0.90085200  0.48827700  1
  C  C0  1  0.21326300  0.78673700  0.83333300  1
  C  C1  1  0.31152100  0.62304200  0.50000000  1
  C  C2  1  0.37695800  0.68847900  0.16666700  1
  C  C3  1  0.78673700  0.57347300  0.50000000  1
  C  C4  1  0.78673700  0.21326300  0.83333300  1
  C  C5  1  0.21326300  0.42652700  0.50000000  1
  C  C6  1  0.31152100  0.68847900  0.83333300  1
  C  C7  1  0.68847900  0.37695800  0.50000000  1
  C  C8  1  0.68847900  0.31152100  0.83333300  1
  C  C9  1  0.57347300  0.78673700  0.16666700  1
  C  C10  1  0.62304200  0.31152100  0.16666700  1
  C  C11  1  0.42652700  0.21326300  0.16666700  1
  N  N0  1  0.00000000  0.00000000  0.66666700  1
  N  N1  1  0.00000000  0.00000000  0.33333300  1
  N  N2  1  0.00000000  0.00000000  0.00000000  1
  O  O0  1  0.24484100  0.69488500  0.55501700  1
  O  O1  1  0.08164400  0.73113800  0.77175400  1
  O  O2  1  0.54995600  0.30511500  0.44498300  1
  O  O3  1  0.35050500  0.26886200  0.22824600  1
  O  O4  1  0.24308400  0.00000000  0.50000000  1
  O  O5  1  0.54995600  0.24484100  0.88835000  1
  O  O6  1  0.24484100  0.54995600  0.77831700  1
  O  O7  1  0.73113800  0.64949500  0.43842000  1
  O  O8  1  0.00000000  0.24308400  0.16666700  1
  O  O9  1  0.45004400  0.75515900  0.88835000  1
  O  O10  1  0.75691600  0.75691600  0.83333300  1
  O  O11  1  0.73113800  0.08164400  0.89491300  1
  O  O12  1  0.24308400  0.24308400  0.83333300  1
  O  O13  1  0.69488500  0.24484100  0.11165000  1
  O  O14  1  0.91835600  0.64949500  0.56158000  1
  O  O15  1  0.08164400  0.35050500  0.56158000  1
  O  O16  1  0.26886200  0.35050500  0.43842000  1
  O  O17  1  0.64949500  0.91835600  0.10508700  1
  O  O18  1  0.26886200  0.91835600  0.89491300  1
  O  O19  1  0.45004400  0.69488500  0.44498300  1
  O  O20  1  0.69488500  0.45004400  0.22168300  1
  O  O21  1  0.75691600  0.00000000  0.50000000  1
  O  O22  1  0.00000000  0.75691600  0.16666700  1
  O  O23  1  0.75515900  0.30511500  0.55501700  1
  O  O24  1  0.91835600  0.26886200  0.77175400  1
  O  O25  1  0.35050500  0.08164400  0.10508700  1
  O  O26  1  0.30511500  0.75515900  0.11165000  1
  O  O27  1  0.75515900  0.45004400  0.77831700  1
  O  O28  1  0.64949500  0.73113800  0.22824600  1
  O  O29  1  0.30511500  0.54995600  0.22168300  1
loop_
_geom_bond_atom_site_label_1
_geom_bond_atom_site_label_2
_geom_bond_distance
_geom_bond_site_symmetry_2
In0 O11 2.216930 1_554
In0 O18 2.216930 1_544
In0 O25 2.216937 1_555
In0 O17 2.216937 1_545
In0 O5 2.419286 1_554
In0 O9 2.419286 1_544
In0 O26 2.419286 1_545
In0 O13 2.419286 1_555
In1 O1 2.216930 1_555
In1 O24 2.216930 1_455
In1 O15 2.216937 1_555
In1 O14 2.216937 1_455
In1 O27 2.419286 1_455
In1 O6 2.419286 1_555
In1 O0 2.419286 1_555
In1 O23 2.419286 1_455
In2 O28 2.216931 1_555
In2 O7 2.216931 1_555
In2 O16 2.216931 1_555
In2 O3 2.216931 1_555
In2 O2 2.419286 1_555
In2 O19 2.419286 1_555
In2 O20 2.419286 1_555
In2 O29 2.419286 1_555
H0 O22 0.985308 1_655
H1 N2 1.038680 1_666
H2 O4 0.985308 1_565
H3 O8 0.985310 1_655
H4 O12 0.985308 1_555
H5 N1 1.038673 1_555
H6 N2 1.038680 1_655
H7 N2 1.038680 1_565
H8 O22 0.985310 1_555
H9 N0 1.038673 1_665
H10 O8 0.985308 1_555
H11 N0 1.038680 1_655
H12 O10 0.985310 1_555
H13 O10 0.985308 1_555
H14 N1 1.038673 1_665
H15 O12 0.985310 1_555
H16 O4 0.985308 1_555
H17 N0 1.038673 1_555
H18 O21 0.985308 1_555
H19 N2 1.038680 1_556
H20 N0 1.038680 1_565
H21 N1 1.038680 1_665
H22 N1 1.038680 1_555
H23 O21 0.985308 1_565
C0 O1 1.264931 1_555
C0 O18 1.264938 1_555
C1 O0 1.266474 1_555
C1 O19 1.266474 1_555
C2 O29 1.266468 1_555
C2 O26 1.266474 1_555
C3 O14 1.264939 1_555
C3 O7 1.264951 1_555
C4 O24 1.264931 1_555
C4 O11 1.264938 1_555
C5 O15 1.264939 1_555
C5 O16 1.264951 1_555
C6 O6 1.266468 1_555
C6 O9 1.266474 1_555
C7 O23 1.266474 1_555
C7 O2 1.266474 1_555
C8 O27 1.266468 1_555
C8 O5 1.266474 1_555
C9 O17 1.264939 1_555
C9 O28 1.264945 1_555
C10 O20 1.266468 1_555
C10 O13 1.266474 1_555
C11 O25 1.264939 1_555
C11 O3 1.264945 1_555
