# generated using pymatgen
data_VPPbO6
_symmetry_space_group_name_H-M   'P 1'
_cell_length_a   9.98105300
_cell_length_b   11.15709800
_cell_length_c   13.95974800
_cell_angle_alpha   90.00000000
_cell_angle_beta   90.00000000
_cell_angle_gamma   90.00000000
_symmetry_Int_Tables_number   1
_chemical_formula_structural   VPPbO6
_chemical_formula_sum   'V12 P12 Pb12 O72'
_cell_volume   1554.55176442
_cell_formula_units_Z   12
loop_
 _symmetry_equiv_pos_site_id
 _symmetry_equiv_pos_as_xyz
  1  'x, y, z'
loop_
 _atom_site_type_symbol
 _atom_site_label
 _atom_site_symmetry_multiplicity
 _atom_site_fract_x
 _atom_site_fract_y
 _atom_site_fract_z
 _atom_site_occupancy
  V  V0  1  0.12415400  0.31573600  0.75000000  1
  V  V1  1  0.78770100  0.09531600  0.47884300  1
  V  V2  1  0.21229900  0.90468400  0.52115700  1
  V  V3  1  0.28770100  0.40468400  0.02115700  1
  V  V4  1  0.62415400  0.18426400  0.75000000  1
  V  V5  1  0.71229900  0.59531600  0.97884300  1
  V  V6  1  0.78770100  0.09531600  0.02115700  1
  V  V7  1  0.21229900  0.90468400  0.97884300  1
  V  V8  1  0.28770100  0.40468400  0.47884300  1
  V  V9  1  0.37584600  0.81573600  0.25000000  1
  V  V10  1  0.87584600  0.68426400  0.25000000  1
  V  V11  1  0.71229900  0.59531600  0.52115700  1
  P  P0  1  0.60508600  0.32565200  0.54901700  1
  P  P1  1  0.89491400  0.82565200  0.04901700  1
  P  P2  1  0.10508600  0.17434800  0.95098300  1
  P  P3  1  0.72085400  0.21086500  0.25000000  1
  P  P4  1  0.60508600  0.32565200  0.95098300  1
  P  P5  1  0.39491400  0.67434800  0.04901700  1
  P  P6  1  0.10508600  0.17434800  0.54901700  1
  P  P7  1  0.27914600  0.78913500  0.75000000  1
  P  P8  1  0.22085400  0.28913500  0.25000000  1
  P  P9  1  0.77914600  0.71086500  0.75000000  1
  P  P10  1  0.39491400  0.67434800  0.45098300  1
  P  P11  1  0.89491400  0.82565200  0.45098300  1
  Pb  Pb0  1  0.41764500  0.11863800  0.38962600  1
  Pb  Pb1  1  0.58235500  0.88136200  0.61037400  1
  Pb  Pb2  1  0.06487600  0.99422700  0.25000000  1
  Pb  Pb3  1  0.93512400  0.00577300  0.75000000  1
  Pb  Pb4  1  0.58235500  0.88136200  0.88962600  1
  Pb  Pb5  1  0.08235500  0.61863800  0.61037400  1
  Pb  Pb6  1  0.08235500  0.61863800  0.88962600  1
  Pb  Pb7  1  0.56487600  0.50577300  0.25000000  1
  Pb  Pb8  1  0.41764500  0.11863800  0.11037400  1
  Pb  Pb9  1  0.91764500  0.38136200  0.38962600  1
  Pb  Pb10  1  0.91764500  0.38136200  0.11037400  1
  Pb  Pb11  1  0.43512400  0.49422700  0.75000000  1
  O  O0  1  0.82056800  0.04356700  0.91001500  1
  O  O1  1  0.67943200  0.54356700  0.08998500  1
  O  O2  1  0.23730900  0.23215900  0.51389600  1
  O  O3  1  0.37242800  0.95021200  0.53337300  1
  O  O4  1  0.87091500  0.95564100  0.08429800  1
  O  O5  1  0.19999800  0.83095300  0.84000500  1
  O  O6  1  0.87242800  0.54978800  0.53337300  1
  O  O7  1  0.57225800  0.04198700  0.75000000  1
  O  O8  1  0.73730900  0.26784100  0.51389600  1
  O  O9  1  0.50718800  0.68329900  0.97409800  1
  O  O10  1  0.82056800  0.04356700  0.58998500  1
  O  O11  1  0.49281200  0.31670100  0.47409800  1
  O  O12  1  0.12908500  0.04435900  0.91570200  1
  O  O13  1  0.05648600  0.24242800  0.64235200  1
  O  O14  1  0.12757200  0.45021200  0.46662700  1
  O  O15  1  0.12908500  0.04435900  0.58429800  1
  O  O16  1  0.62757200  0.04978800  0.46662700  1
  O  O17  1  0.26269100  0.73215900  0.01389600  1
  O  O18  1  0.19999800  0.83095300  0.65999500  1
  O  O19  1  0.92774200  0.54198700  0.25000000  1
  O  O20  1  0.42774200  0.95801300  0.25000000  1
  O  O21  1  0.07225800  0.45801300  0.75000000  1
  O  O22  1  0.94351400  0.75757200  0.35764800  1
  O  O23  1  0.80000200  0.16904700  0.15999500  1
  O  O24  1  0.80000200  0.16904700  0.34000500  1
  O  O25  1  0.27033900  0.64777500  0.75000000  1
  O  O26  1  0.79034900  0.18751300  0.75000000  1
  O  O27  1  0.26269100  0.73215900  0.48610400  1
  O  O28  1  0.37242800  0.95021200  0.96662700  1
  O  O29  1  0.12757200  0.45021200  0.03337300  1
  O  O30  1  0.77033900  0.85222500  0.75000000  1
  O  O31  1  0.99281200  0.18329900  0.47409800  1
  O  O32  1  0.49281200  0.31670100  0.02590200  1
  O  O33  1  0.87091500  0.95564100  0.41570200  1
  O  O34  1  0.92722500  0.67136200  0.75000000  1
  O  O35  1  0.05648600  0.24242800  0.85764800  1
  O  O36  1  0.73730900  0.26784100  0.98610400  1
  O  O37  1  0.67943200  0.54356700  0.41001500  1
  O  O38  1  0.55648600  0.25757200  0.64235200  1
  O  O39  1  0.87242800  0.54978800  0.96662700  1
  O  O40  1  0.00718800  0.81670100  0.52590200  1
  O  O41  1  0.69999800  0.66904700  0.84000500  1
  O  O42  1  0.20965100  0.81248700  0.25000000  1
  O  O43  1  0.22966100  0.14777500  0.25000000  1
  O  O44  1  0.76269100  0.76784100  0.48610400  1
  O  O45  1  0.30000200  0.33095300  0.15999500  1
  O  O46  1  0.62757200  0.04978800  0.03337300  1
  O  O47  1  0.69999800  0.66904700  0.65999500  1
  O  O48  1  0.94351400  0.75757200  0.14235200  1
  O  O49  1  0.37091500  0.54435900  0.08429800  1
  O  O50  1  0.17943200  0.95643300  0.08998500  1
  O  O51  1  0.00718800  0.81670100  0.97409800  1
  O  O52  1  0.37091500  0.54435900  0.41570200  1
  O  O53  1  0.44351400  0.74242800  0.35764800  1
  O  O54  1  0.44351400  0.74242800  0.14235200  1
  O  O55  1  0.07277500  0.32863800  0.25000000  1
  O  O56  1  0.70965100  0.68751300  0.25000000  1
  O  O57  1  0.29034900  0.31248700  0.75000000  1
  O  O58  1  0.32056800  0.45643300  0.58998500  1
  O  O59  1  0.62908500  0.45564100  0.91570200  1
  O  O60  1  0.17943200  0.95643300  0.41001500  1
  O  O61  1  0.72966100  0.35222500  0.25000000  1
  O  O62  1  0.50718800  0.68329900  0.52590200  1
  O  O63  1  0.42722500  0.82863800  0.75000000  1
  O  O64  1  0.32056800  0.45643300  0.91001500  1
  O  O65  1  0.23730900  0.23215900  0.98610400  1
  O  O66  1  0.30000200  0.33095300  0.34000500  1
  O  O67  1  0.57277500  0.17136200  0.25000000  1
  O  O68  1  0.76269100  0.76784100  0.01389600  1
  O  O69  1  0.62908500  0.45564100  0.58429800  1
  O  O70  1  0.99281200  0.18329900  0.02590200  1
  O  O71  1  0.55648600  0.25757200  0.85764800  1
loop_
_geom_bond_atom_site_label_1
_geom_bond_atom_site_label_2
_geom_bond_distance
_geom_bond_site_symmetry_2
O0 V6 1.687651 1_556
O0 Pb3 2.544577 1_555
O1 V5 1.687651 1_554
O1 Pb7 2.544577 1_555
O2 P6 1.548573 1_555
O2 V8 2.048799 1_555
O2 Pb0 2.802398 1_555
O3 V2 1.685683 1_555
O3 Pb1 2.477049 1_555
O3 Pb0 2.785965 1_565
O4 P1 1.550264 1_555
O4 V6 1.973643 1_565
O5 P7 1.555768 1_555
O5 V7 2.109072 1_555
O5 Pb6 2.733108 1_555
O6 V11 1.685683 1_555
O6 Pb5 2.477049 1_655
O6 Pb9 2.785965 1_555
O7 V4 1.669771 1_555
O7 Pb4 2.649712 1_545
O7 Pb1 2.649712 1_545
O8 P0 1.548573 1_555
O8 V1 2.048799 1_555
O8 Pb9 2.802398 1_555
O9 P5 1.536082 1_556
O9 V5 2.271370 1_555
O9 Pb4 2.614699 1_555
O10 V1 1.687651 1_555
O10 Pb3 2.544577 1_555
O11 P0 1.536082 1_555
O11 V8 2.271370 1_555
O11 Pb0 2.614699 1_555
O12 P2 1.550264 1_555
O12 V7 1.973643 1_545
O13 P6 1.584264 1_555
O13 V0 1.839390 1_555
O14 V8 1.685683 1_555
O14 Pb9 2.477049 1_455
O14 Pb5 2.785965 1_555
O15 P6 1.550264 1_555
O15 V2 1.973643 1_545
O16 V1 1.685683 1_555
O16 Pb0 2.477049 1_555
O16 Pb1 2.785965 1_545
O17 P5 1.548573 1_555
O17 V7 2.048799 1_554
O17 Pb6 2.802398 1_554
O18 P7 1.555768 1_555
O18 V2 2.109072 1_555
O18 Pb5 2.733108 1_555
O19 V10 1.669771 1_555
O19 Pb9 2.649712 1_555
O19 Pb10 2.649712 1_555
O20 V9 1.669771 1_555
O20 Pb0 2.649712 1_565
O20 Pb8 2.649712 1_565
O21 V0 1.669771 1_555
O21 Pb5 2.649712 1_555
O21 Pb6 2.649712 1_555
O22 P11 1.584264 1_555
O22 V10 1.839390 1_555
O23 P3 1.555768 1_555
O23 V6 2.109072 1_555
O23 Pb10 2.733108 1_555
O24 P3 1.555768 1_555
O24 V1 2.109072 1_555
O24 Pb9 2.733108 1_555
O25 P7 1.579615 1_555
O25 Pb11 2.374871 1_555
O25 Pb6 2.724933 1_555
O25 Pb5 2.724933 1_555
O26 V4 1.659197 1_555
O26 Pb3 2.489895 1_555
O27 P10 1.548573 1_555
O27 V2 2.048799 1_555
O27 Pb5 2.802398 1_555
O28 V7 1.685683 1_555
O28 Pb4 2.477049 1_555
O28 Pb8 2.785965 1_566
O29 V3 1.685683 1_555
O29 Pb10 2.477049 1_455
O29 Pb6 2.785965 1_554
O30 P9 1.579615 1_555
O30 Pb3 2.374871 1_565
O30 Pb4 2.724933 1_555
O30 Pb1 2.724933 1_555
O31 P6 1.536082 1_655
O31 V1 2.271370 1_555
O31 Pb9 2.614699 1_555
O32 P4 1.536082 1_554
O32 V3 2.271370 1_555
O32 Pb8 2.614699 1_555
O33 P11 1.550264 1_555
O33 V1 1.973643 1_565
O34 P9 1.542300 1_555
O34 Pb6 2.557854 1_655
O34 Pb5 2.557854 1_655
O35 P2 1.584264 1_555
O35 V0 1.839390 1_555
O36 P4 1.548573 1_555
O36 V6 2.048799 1_556
O36 Pb10 2.802398 1_556
O37 V11 1.687651 1_555
O37 Pb7 2.544577 1_555
O38 P0 1.584264 1_555
O38 V4 1.839390 1_555
O39 V5 1.685683 1_555
O39 Pb6 2.477049 1_655
O39 Pb10 2.785965 1_556
O40 P11 1.536082 1_455
O40 V2 2.271370 1_555
O40 Pb5 2.614699 1_555
O41 P9 1.555768 1_555
O41 V5 2.109072 1_555
O41 Pb4 2.733108 1_555
O42 V9 1.659197 1_555
O42 Pb2 2.489895 1_555
O43 P8 1.579615 1_555
O43 Pb2 2.374871 1_545
O43 Pb0 2.724933 1_555
O43 Pb8 2.724933 1_555
O44 P11 1.548573 1_555
O44 V11 2.048799 1_555
O44 Pb1 2.802398 1_555
O45 P8 1.555768 1_555
O45 V3 2.109072 1_555
O45 Pb8 2.733108 1_555
O46 V6 1.685683 1_555
O46 Pb8 2.477049 1_555
O46 Pb4 2.785965 1_544
O47 P9 1.555768 1_555
O47 V11 2.109072 1_555
O47 Pb1 2.733108 1_555
O48 P1 1.584264 1_555
O48 V10 1.839390 1_555
O49 P5 1.550264 1_555
O49 V3 1.973643 1_555
O50 V7 1.687651 1_554
O50 Pb2 2.544577 1_555
O51 P1 1.536082 1_456
O51 V7 2.271370 1_555
O51 Pb6 2.614699 1_555
O52 P10 1.550264 1_555
O52 V8 1.973643 1_555
O53 P10 1.584264 1_555
O53 V9 1.839390 1_555
O54 P5 1.584264 1_555
O54 V9 1.839390 1_555
O55 P8 1.542300 1_555
O55 Pb9 2.557854 1_455
O55 Pb10 2.557854 1_455
O56 V10 1.659197 1_555
O56 Pb7 2.489895 1_555
O57 V0 1.659197 1_555
O57 Pb11 2.489895 1_555
O58 V8 1.687651 1_555
O58 Pb11 2.544577 1_555
O59 P4 1.550264 1_555
O59 V5 1.973643 1_555
O60 V2 1.687651 1_555
O60 Pb2 2.544577 1_555
O61 P3 1.579615 1_555
O61 Pb7 2.374871 1_555
O61 Pb9 2.724933 1_555
O61 Pb10 2.724933 1_555
O62 P10 1.536082 1_555
O62 V11 2.271370 1_555
O62 Pb1 2.614699 1_555
O63 P7 1.542300 1_555
O63 Pb1 2.557854 1_555
O63 Pb4 2.557854 1_555
O64 V3 1.687651 1_556
O64 Pb11 2.544577 1_555
O65 P2 1.548573 1_555
O65 V3 2.048799 1_556
O65 Pb8 2.802398 1_556
O66 P8 1.555768 1_555
O66 V8 2.109072 1_555
O66 Pb0 2.733108 1_555
O67 P3 1.542300 1_555
O67 Pb0 2.557854 1_555
O67 Pb8 2.557854 1_555
O68 P1 1.548573 1_555
O68 V5 2.048799 1_554
O68 Pb4 2.802398 1_554
O69 P0 1.550264 1_555
O69 V11 1.973643 1_555
O70 P2 1.536082 1_654
O70 V6 2.271370 1_555
O70 Pb10 2.614699 1_555
O71 P4 1.584264 1_555
O71 V4 1.839390 1_555
