# generated using pymatgen
data_Tl2HgGeTe4
_symmetry_space_group_name_H-M   'P 1'
_cell_length_a   7.06736273
_cell_length_b   7.06736273
_cell_length_c   7.06736273
_cell_angle_alpha   105.06985625
_cell_angle_beta   105.06985625
_cell_angle_gamma   118.68585528
_symmetry_Int_Tables_number   1
_chemical_formula_structural   Tl2HgGeTe4
_chemical_formula_sum   'Tl2 Hg1 Ge1 Te4'
_cell_volume   266.39107700
_cell_formula_units_Z   1
loop_
 _symmetry_equiv_pos_site_id
 _symmetry_equiv_pos_as_xyz
  1  'x, y, z'
loop_
 _atom_site_type_symbol
 _atom_site_label
 _atom_site_symmetry_multiplicity
 _atom_site_fract_x
 _atom_site_fract_y
 _atom_site_fract_z
 _atom_site_occupancy
  Tl  Tl0  1  0.50000000  0.00000000  0.50000000  1
  Tl  Tl1  1  0.00000000  0.50000000  0.50000000  1
  Hg  Hg0  1  0.50000000  0.50000000  0.00000000  1
  Ge  Ge0  1  0.00000000  0.00000000  0.00000000  1
  Te  Te0  1  0.95169800  0.60297600  0.00000000  1
  Te  Te1  1  0.04830200  0.04830200  0.65127700  1
  Te  Te2  1  0.39702400  0.39702400  0.34872300  1
  Te  Te3  1  0.60297600  0.95169800  0.00000000  1
loop_
_geom_bond_atom_site_label_1
_geom_bond_atom_site_label_2
_geom_bond_distance
_geom_bond_site_symmetry_2
Hg0 Te3 2.913785 1_555
Hg0 Te0 2.913785 1_555
Hg0 Te1 2.913787 1_554
Hg0 Te2 2.913792 1_555
Ge0 Te0 2.658972 1_445
Ge0 Te3 2.658972 1_445
Ge0 Te2 2.658974 1_555
Ge0 Te1 2.658979 1_554
Te0 Tl0 3.558311 1_665
Te0 Tl1 3.558311 1_654
Te1 Tl0 3.558311 1_455
Te1 Tl1 3.558311 1_545
Te2 Tl1 3.558308 1_555
Te2 Tl0 3.558308 1_555
Te3 Tl0 3.558311 1_564
Te3 Tl1 3.558311 1_665
