# generated using pymatgen
data_TmZn2
_symmetry_space_group_name_H-M   'P 1'
_cell_length_a   4.38723827
_cell_length_b   5.54058295
_cell_length_c   5.54058333
_cell_angle_alpha   77.05253386
_cell_angle_beta   66.67673502
_cell_angle_gamma   66.67672776
_symmetry_Int_Tables_number   1
_chemical_formula_structural   TmZn2
_chemical_formula_sum   'Tm2 Zn4'
_cell_volume   113.20613056
_cell_formula_units_Z   2
loop_
 _symmetry_equiv_pos_site_id
 _symmetry_equiv_pos_as_xyz
  1  'x, y, z'
loop_
 _atom_site_type_symbol
 _atom_site_label
 _atom_site_symmetry_multiplicity
 _atom_site_fract_x
 _atom_site_fract_y
 _atom_site_fract_z
 _atom_site_occupancy
  Tm  Tm0  1  0.47045714  0.27954286  0.77954186  1
  Tm  Tm1  1  0.52954186  0.72045814  0.22045814  1
  Zn  Zn0  1  0.16603865  0.29097383  0.37694886  1
  Zn  Zn1  1  0.83396135  0.12305114  0.20902617  1
  Zn  Zn2  1  0.83396135  0.70902617  0.62305114  1
  Zn  Zn3  1  0.16603865  0.87694886  0.79097383  1
loop_
_geom_bond_atom_site_label_1
_geom_bond_atom_site_label_2
_geom_bond_distance
_geom_bond_site_symmetry_2
Tm0 Zn0 2.998661 1_555
Tm0 Zn3 2.998664 1_545
Tm0 Zn0 2.998664 1_655
Tm0 Zn3 2.998667 1_645
Tm0 Zn3 3.044699 1_555
Tm0 Zn0 3.044704 1_556
Tm0 Zn1 3.070586 1_555
Tm0 Zn2 3.070589 1_545
Tm0 Zn2 3.153252 1_455
Tm0 Zn2 3.153255 1_555
Tm0 Zn1 3.153256 1_456
Tm0 Zn1 3.153259 1_556
Tm1 Zn1 2.998662 1_465
Tm1 Zn1 2.998663 1_565
Tm1 Zn2 2.998663 1_555
Tm1 Zn2 2.998663 1_455
Tm1 Zn1 3.044704 1_555
Tm1 Zn2 3.044705 1_554
Tm1 Zn0 3.070584 1_565
Tm1 Zn3 3.070584 1_555
Tm1 Zn0 3.153257 1_655
Tm1 Zn3 3.153257 1_554
Tm1 Zn0 3.153257 1_555
Tm1 Zn3 3.153257 1_654
Zn0 Zn1 2.527521 1_455
Zn0 Zn1 2.527521 1_555
Zn0 Zn2 2.552848 1_455
Zn0 Zn3 2.857668 1_545
Zn1 Zn3 2.552848 1_644
Zn1 Zn2 2.857668 1_545
Zn2 Zn3 2.527521 1_655
Zn2 Zn3 2.527521 1_555
