# generated using pymatgen
data_Cs2CeAsS3Cl2
_symmetry_space_group_name_H-M   'P 1'
_cell_length_a   6.70114400
_cell_length_b   9.55029200
_cell_length_c   17.98308400
_cell_angle_alpha   90.00000000
_cell_angle_beta   90.00000000
_cell_angle_gamma   90.00000000
_symmetry_Int_Tables_number   1
_chemical_formula_structural   Cs2CeAsS3Cl2
_chemical_formula_sum   'Cs8 Ce4 As4 S12 Cl8'
_cell_volume   1150.87928664
_cell_formula_units_Z   4
loop_
 _symmetry_equiv_pos_site_id
 _symmetry_equiv_pos_as_xyz
  1  'x, y, z'
loop_
 _atom_site_type_symbol
 _atom_site_label
 _atom_site_symmetry_multiplicity
 _atom_site_fract_x
 _atom_site_fract_y
 _atom_site_fract_z
 _atom_site_occupancy
  Cs  Cs0  1  0.25000000  0.83799300  0.21919000  1
  Cs  Cs1  1  0.75000000  0.33799400  0.28081000  1
  Cs  Cs2  1  0.25000000  0.66200700  0.71919000  1
  Cs  Cs3  1  0.25000000  0.95938300  0.92753400  1
  Cs  Cs4  1  0.75000000  0.04061700  0.07246600  1
  Cs  Cs5  1  0.75000000  0.45938300  0.57246600  1
  Cs  Cs6  1  0.25000000  0.54061700  0.42753400  1
  Cs  Cs7  1  0.75000000  0.16200700  0.78081000  1
  Ce  Ce0  1  0.25000000  0.43362400  0.05707400  1
  Ce  Ce1  1  0.25000000  0.06637600  0.55707400  1
  Ce  Ce2  1  0.75000000  0.93362400  0.44292600  1
  Ce  Ce3  1  0.75000000  0.56637600  0.94292600  1
  As  As0  1  0.25000000  0.12232900  0.36527200  1
  As  As1  1  0.25000000  0.37767100  0.86527100  1
  As  As2  1  0.75000000  0.87767100  0.63472900  1
  As  As3  1  0.75000000  0.62232900  0.13472800  1
  S  S0  1  0.25000000  0.90142100  0.40973100  1
  S  S1  1  0.00383600  0.69419300  0.06055700  1
  S  S2  1  0.75000000  0.40142100  0.09026900  1
  S  S3  1  0.50383600  0.30580700  0.93944300  1
  S  S4  1  0.00383600  0.80580700  0.56055700  1
  S  S5  1  0.75000000  0.09857900  0.59026900  1
  S  S6  1  0.25000000  0.59857900  0.90973100  1
  S  S7  1  0.49616400  0.69419300  0.06055700  1
  S  S8  1  0.50383600  0.19419300  0.43944300  1
  S  S9  1  0.99616400  0.19419300  0.43944300  1
  S  S10  1  0.99616400  0.30580700  0.93944300  1
  S  S11  1  0.49616400  0.80580700  0.56055700  1
  Cl  Cl0  1  0.75000000  0.85563600  0.89442300  1
  Cl  Cl1  1  0.25000000  0.35563600  0.60557700  1
  Cl  Cl2  1  0.25000000  0.14436400  0.10557700  1
  Cl  Cl3  1  0.75000000  0.52924300  0.78302900  1
  Cl  Cl4  1  0.25000000  0.02924300  0.71697100  1
  Cl  Cl5  1  0.75000000  0.97075700  0.28302900  1
  Cl  Cl6  1  0.75000000  0.64436400  0.39442300  1
  Cl  Cl7  1  0.25000000  0.47075700  0.21697100  1
loop_
_geom_bond_atom_site_label_1
_geom_bond_atom_site_label_2
_geom_bond_distance
_geom_bond_site_symmetry_2
Cs0 S0 3.479647 1_555
Cs0 S7 3.570030 1_555
Cs0 S1 3.570030 1_555
Cs1 S2 3.479645 1_555
Cs1 S9 3.570034 1_555
Cs1 S8 3.570034 1_555
Cs2 S6 3.479647 1_555
Cs2 S11 3.570030 1_555
Cs2 S4 3.570030 1_555
Cs3 S6 3.460625 1_555
Cs3 S3 3.726269 1_565
Cs3 S10 3.726269 1_465
Cs3 S1 3.854587 1_556
Cs3 S7 3.854587 1_556
Cs4 S2 3.460625 1_555
Cs4 S1 3.726269 1_645
Cs4 S7 3.726269 1_545
Cs4 S10 3.854587 1_554
Cs4 S3 3.854587 1_554
Cs5 S5 3.460625 1_555
Cs5 S4 3.726269 1_655
Cs5 S11 3.726269 1_555
Cs5 S9 3.854587 1_555
Cs5 S8 3.854587 1_555
Cs6 S0 3.460625 1_555
Cs6 S8 3.726269 1_555
Cs6 S9 3.726269 1_455
Cs6 S11 3.854587 1_555
Cs6 S4 3.854587 1_555
Cs7 S5 3.479647 1_555
Cs7 S10 3.570030 1_555
Cs7 S3 3.570030 1_555
Ce0 Cl2 2.896946 1_555
Ce0 Cl7 2.897227 1_555
Ce0 S3 2.976279 1_554
Ce0 S10 2.976279 1_454
Ce0 S1 2.986255 1_555
Ce0 S7 2.986255 1_555
Ce0 S6 3.082628 1_554
Ce0 S2 3.417201 1_555
Ce0 S2 3.417201 1_455
Ce1 Cl1 2.896946 1_555
Ce1 Cl4 2.897227 1_555
Ce1 S8 2.976279 1_555
Ce1 S9 2.976279 1_455
Ce1 S11 2.986255 1_545
Ce1 S4 2.986255 1_545
Ce1 S0 3.082628 1_545
Ce1 S5 3.417201 1_555
Ce1 S5 3.417201 1_455
Ce2 Cl6 2.896946 1_555
Ce2 Cl5 2.897227 1_555
Ce2 S4 2.976279 1_655
Ce2 S11 2.976279 1_555
Ce2 S9 2.986255 1_565
Ce2 S8 2.986255 1_565
Ce2 S5 3.082628 1_565
Ce2 S0 3.417201 1_555
Ce2 S0 3.417201 1_655
Ce3 Cl0 2.896946 1_555
Ce3 Cl3 2.897227 1_555
Ce3 S1 2.976279 1_656
Ce3 S7 2.976279 1_556
Ce3 S10 2.986255 1_555
Ce3 S3 2.986255 1_555
Ce3 S2 3.082628 1_556
Ce3 S6 3.417201 1_655
Ce3 S6 3.417201 1_555
As0 S0 2.256148 1_545
As0 S8 2.267928 1_555
As0 S9 2.267928 1_455
As1 S6 2.256154 1_555
As1 S3 2.267938 1_555
As1 S10 2.267938 1_455
As2 S5 2.256154 1_565
As2 S4 2.267938 1_655
As2 S11 2.267938 1_555
As3 S2 2.256148 1_555
As3 S1 2.267928 1_655
As3 S7 2.267928 1_555
Cl0 Cs3 3.544375 1_655
Cl0 Cs3 3.544375 1_555
Cl0 Cs7 3.568668 1_565
Cl0 Cs4 3.656807 1_566
Cl1 Cs5 3.544375 1_555
Cl1 Cs5 3.544375 1_455
Cl1 Cs2 3.568668 1_555
Cl1 Cs6 3.656807 1_555
Cl2 Cs4 3.544375 1_555
Cl2 Cs4 3.544375 1_455
Cl2 Cs0 3.568668 1_545
Cl2 Cs3 3.656807 1_544
Cl3 Cs7 3.507438 1_555
Cl3 Cs2 3.761907 1_655
Cl3 Cs2 3.761907 1_555
Cl3 Cs5 3.844901 1_555
Cl4 Cs2 3.507438 1_545
Cl4 Cs7 3.761907 1_455
Cl4 Cs7 3.761907 1_555
Cl4 Cs3 3.844901 1_545
Cl5 Cs1 3.507448 1_565
Cl5 Cs0 3.761907 1_555
Cl5 Cs0 3.761907 1_655
Cl5 Cs4 3.844901 1_565
Cl6 Cs6 3.544375 1_655
Cl6 Cs6 3.544375 1_555
Cl6 Cs1 3.568660 1_555
Cl6 Cs5 3.656807 1_555
Cl7 Cs0 3.507438 1_555
Cl7 Cs1 3.761904 1_455
Cl7 Cs1 3.761904 1_555
Cl7 Cs6 3.844901 1_555
