# generated using pymatgen
data_SbS(BrF2)3
_symmetry_space_group_name_H-M   'P 1'
_cell_length_a   8.11107538
_cell_length_b   9.25307377
_cell_length_c   12.48627183
_cell_angle_alpha   90.00000000
_cell_angle_beta   90.00000000
_cell_angle_gamma   90.00000000
_symmetry_Int_Tables_number   1
_chemical_formula_structural   SbS(BrF2)3
_chemical_formula_sum   'Sb4 S4 Br12 F24'
_cell_volume   937.12440375
_cell_formula_units_Z   4
loop_
 _symmetry_equiv_pos_site_id
 _symmetry_equiv_pos_as_xyz
  1  'x, y, z'
loop_
 _atom_site_type_symbol
 _atom_site_label
 _atom_site_symmetry_multiplicity
 _atom_site_fract_x
 _atom_site_fract_y
 _atom_site_fract_z
 _atom_site_occupancy
  Sb  Sb0  1  0.30671276  0.95926802  0.19010738  1
  Sb  Sb1  1  0.69328724  0.45926802  0.30989262  1
  Sb  Sb2  1  0.19328724  0.04073198  0.69010738  1
  Sb  Sb3  1  0.80671276  0.54073198  0.80989262  1
  S  S0  1  0.65141507  0.02659257  0.48027809  1
  S  S1  1  0.34858493  0.52659257  0.01972191  1
  S  S2  1  0.15141507  0.47340743  0.51972191  1
  S  S3  1  0.84858493  0.97340743  0.98027809  1
  Br  Br0  1  0.28214403  0.68590312  0.90036155  1
  Br  Br1  1  0.36602129  0.50182366  0.62142661  1
  Br  Br2  1  0.14876208  0.67254410  0.42812938  1
  Br  Br3  1  0.63397871  0.00182366  0.87857339  1
  Br  Br4  1  0.86602129  -0.00182366  0.37857339  1
  Br  Br5  1  0.35123792  0.32745590  0.92812938  1
  Br  Br6  1  0.13397871  0.49817634  0.12142661  1
  Br  Br7  1  0.85123792  0.17254410  0.07187062  1
  Br  Br8  1  0.78214403  0.81409688  0.09963845  1
  Br  Br9  1  0.64876208  0.82745590  0.57187062  1
  Br  Br10  1  0.71785597  0.18590312  0.59963845  1
  Br  Br11  1  0.21785597  0.31409688  0.40036155  1
  F  F0  1  0.56218191  0.45006440  0.18519452  1
  F  F1  1  0.72684294  0.35555129  0.76941310  1
  F  F2  1  0.37247240  0.12172207  0.76974653  1
  F  F3  1  0.62170343  0.27142567  0.34823098  1
  F  F4  1  0.12170343  0.22857433  0.65176902  1
  F  F5  1  0.27315706  0.85555129  0.73058690  1
  F  F6  1  0.43781809  0.95006440  0.31480548  1
  F  F7  1  0.77315706  0.64444871  0.26941310  1
  F  F8  1  0.16887763  0.96192461  0.06768858  1
  F  F9  1  0.87247240  0.37827793  0.23025347  1
  F  F10  1  0.02121909  0.95387939  0.61219442  1
  F  F11  1  0.93781809  0.54993560  0.68519452  1
  F  F12  1  0.52121909  0.54612061  0.38780558  1
  F  F13  1  0.22684294  0.14444871  0.23058690  1
  F  F14  1  0.33112237  0.03807539  0.56768858  1
  F  F15  1  0.87829657  0.72857433  0.84823098  1
  F  F16  1  0.37829657  0.77142567  0.15176902  1
  F  F17  1  0.12752760  0.87827793  0.26974653  1
  F  F18  1  0.83112237  0.46192461  0.43231142  1
  F  F19  1  0.62752760  0.62172207  0.73025347  1
  F  F20  1  0.97878091  0.45387939  0.88780558  1
  F  F21  1  0.66887763  0.53807539  0.93231142  1
  F  F22  1  0.06218191  0.04993560  0.81480548  1
  F  F23  1  0.47878091  0.04612061  0.11219442  1
loop_
_geom_bond_atom_site_label_1
_geom_bond_atom_site_label_2
_geom_bond_distance
_geom_bond_site_symmetry_2
Br0 S1 2.164398 1_556
Br1 S2 2.170669 1_555
Br2 S2 2.168794 1_555
Br3 S3 2.170669 1_545
Br4 S0 2.170669 1_555
Br5 S1 2.168794 1_556
Br6 S1 2.170669 1_555
Br7 S3 2.168794 1_544
Br8 S3 2.164398 1_554
Br9 S0 2.168794 1_565
Br10 S0 2.164398 1_555
Br11 S2 2.164398 1_555
F0 Sb1 1.887426 1_555
F1 Sb3 1.900316 1_555
F2 Sb2 1.913834 1_555
F3 Sb1 1.894026 1_555
F4 Sb2 1.894026 1_555
F5 Sb2 1.900316 1_565
F6 Sb0 1.887426 1_555
F7 Sb1 1.900316 1_555
F8 Sb0 1.893934 1_555
F9 Sb1 1.913834 1_555
F10 Sb2 1.881526 1_565
F11 Sb3 1.887426 1_555
F12 Sb1 1.881526 1_555
F13 Sb0 1.900316 1_545
F14 Sb2 1.893934 1_555
F15 Sb3 1.894026 1_555
F16 Sb0 1.894026 1_555
F17 Sb0 1.913834 1_555
F18 Sb1 1.893934 1_555
F19 Sb3 1.913834 1_555
F20 Sb3 1.881526 1_555
F21 Sb3 1.893934 1_555
F22 Sb2 1.887426 1_555
F23 Sb0 1.881526 1_545
