# generated using pymatgen
data_Fe3(PO4)2
_symmetry_space_group_name_H-M   'P 1'
_cell_length_a   11.34747200
_cell_length_b   6.26676300
_cell_length_c   9.00772570
_cell_angle_alpha   80.19058523
_cell_angle_beta   90.00000000
_cell_angle_gamma   90.00000000
_symmetry_Int_Tables_number   1
_chemical_formula_structural   Fe3(PO4)2
_chemical_formula_sum   'Fe12 P8 O32'
_cell_volume   631.19165685
_cell_formula_units_Z   4
loop_
 _symmetry_equiv_pos_site_id
 _symmetry_equiv_pos_as_xyz
  1  'x, y, z'
loop_
 _atom_site_type_symbol
 _atom_site_label
 _atom_site_symmetry_multiplicity
 _atom_site_fract_x
 _atom_site_fract_y
 _atom_site_fract_z
 _atom_site_occupancy
  Fe  Fe0  1  0.91752900  0.66501300  0.72538800  1
  Fe  Fe1  1  0.08247100  0.33498700  0.27461200  1
  Fe  Fe2  1  0.19397000  0.11778500  0.63678500  1
  Fe  Fe3  1  0.80603000  0.88221500  0.36321500  1
  Fe  Fe4  1  0.30603000  0.61778500  0.63678500  1
  Fe  Fe5  1  0.88347700  0.12390200  0.92550500  1
  Fe  Fe6  1  0.58247100  0.16501300  0.72538800  1
  Fe  Fe7  1  0.69397000  0.38221500  0.36321500  1
  Fe  Fe8  1  0.41752900  0.83498700  0.27461200  1
  Fe  Fe9  1  0.38347700  0.37609800  0.07449500  1
  Fe  Fe10  1  0.11652300  0.87609800  0.07449500  1
  Fe  Fe11  1  0.61652300  0.62390200  0.92550500  1
  P  P0  1  0.58715700  0.69249500  0.60344200  1
  P  P1  1  0.08715700  0.80750500  0.39655800  1
  P  P2  1  0.91284300  0.19249500  0.60344200  1
  P  P3  1  0.86488000  0.61137700  0.09505300  1
  P  P4  1  0.36488000  0.88862300  0.90494700  1
  P  P5  1  0.63512000  0.11137700  0.09505300  1
  P  P6  1  0.13512000  0.38862300  0.90494700  1
  P  P7  1  0.41284300  0.30750500  0.39655800  1
  O  O0  1  0.96220600  0.76463600  0.46736900  1
  O  O1  1  0.56115000  0.90570500  0.13264400  1
  O  O2  1  0.67909500  0.67372000  0.48039900  1
  O  O3  1  0.08745200  0.01845600  0.27556800  1
  O  O4  1  0.93748900  0.82702400  0.07368300  1
  O  O5  1  0.46220600  0.73536400  0.53263100  1
  O  O6  1  0.37595600  0.13301600  0.30175900  1
  O  O7  1  0.41254800  0.51845600  0.27556800  1
  O  O8  1  0.22155700  0.37192200  0.77204300  1
  O  O9  1  0.56251100  0.32702400  0.07368300  1
  O  O10  1  0.29377600  0.89128100  0.05346100  1
  O  O11  1  0.79377600  0.60871900  0.94653900  1
  O  O12  1  0.53779400  0.26463600  0.46736900  1
  O  O13  1  0.93885000  0.40570500  0.13264400  1
  O  O14  1  0.20622400  0.39128100  0.05346100  1
  O  O15  1  0.70622400  0.10871900  0.94653900  1
  O  O16  1  0.32090500  0.32628000  0.51960100  1
  O  O17  1  0.77844300  0.62807800  0.22795700  1
  O  O18  1  0.03779400  0.23536400  0.53263100  1
  O  O19  1  0.72155700  0.12807800  0.22795700  1
  O  O20  1  0.17909500  0.82628000  0.51960100  1
  O  O21  1  0.12404400  0.63301600  0.30175900  1
  O  O22  1  0.82090500  0.17372000  0.48039900  1
  O  O23  1  0.06251100  0.17297600  0.92631700  1
  O  O24  1  0.91254800  0.98154400  0.72443200  1
  O  O25  1  0.43748900  0.67297600  0.92631700  1
  O  O26  1  0.27844300  0.87192200  0.77204300  1
  O  O27  1  0.62404400  0.86698400  0.69824100  1
  O  O28  1  0.87595600  0.36698400  0.69824100  1
  O  O29  1  0.43885000  0.09429500  0.86735600  1
  O  O30  1  0.58745200  0.48154400  0.72443200  1
  O  O31  1  0.06115000  0.59429500  0.86735600  1
loop_
_geom_bond_atom_site_label_1
_geom_bond_atom_site_label_2
_geom_bond_distance
_geom_bond_site_symmetry_2
Fe0 O28 1.981459 1_555
Fe0 O24 1.982981 1_555
Fe0 O31 2.072361 1_655
Fe0 O0 2.356715 1_555
Fe0 O11 2.413574 1_555
Fe1 O21 1.981459 1_555
Fe1 O3 1.982981 1_555
Fe1 O13 2.072361 1_455
Fe1 O18 2.356715 1_555
Fe1 O14 2.413574 1_555
Fe2 O26 2.034098 1_545
Fe2 O18 2.080453 1_555
Fe2 O16 2.103845 1_555
Fe2 O8 2.186325 1_555
Fe2 O20 2.266478 1_545
Fe3 O19 2.034098 1_565
Fe3 O0 2.080453 1_555
Fe3 O2 2.103845 1_555
Fe3 O17 2.186325 1_555
Fe3 O22 2.266478 1_565
Fe4 O8 2.034098 1_555
Fe4 O5 2.080453 1_555
Fe4 O20 2.103845 1_555
Fe4 O26 2.186325 1_555
Fe4 O16 2.266478 1_555
Fe5 O15 2.020998 1_555
Fe5 O23 2.054928 1_655
Fe5 O24 2.176183 1_545
Fe5 O4 2.184576 1_546
Fe5 O28 2.335806 1_555
Fe6 O27 1.981459 1_545
Fe6 O30 1.982981 1_555
Fe6 O29 2.072361 1_555
Fe6 O12 2.356715 1_555
Fe6 O15 2.413574 1_555
Fe7 O17 2.034098 1_555
Fe7 O12 2.080453 1_555
Fe7 O22 2.103845 1_555
Fe7 O19 2.186325 1_555
Fe7 O2 2.266478 1_555
Fe8 O6 1.981459 1_565
Fe8 O7 1.982981 1_555
Fe8 O1 2.072361 1_555
Fe8 O5 2.356715 1_555
Fe8 O10 2.413574 1_555
Fe9 O14 2.020998 1_555
Fe9 O9 2.054928 1_555
Fe9 O7 2.176183 1_555
Fe9 O25 2.184576 1_554
Fe9 O6 2.335806 1_555
Fe10 O10 2.020998 1_555
Fe10 O4 2.054928 1_455
Fe10 O3 2.176183 1_565
Fe10 O23 2.184576 1_564
Fe10 O21 2.335806 1_555
Fe11 O11 2.020998 1_555
Fe11 O25 2.054928 1_555
Fe11 O30 2.176183 1_555
Fe11 O9 2.184576 1_556
Fe11 O27 2.335806 1_555
O0 P1 1.559170 1_655
O1 P5 1.527006 1_565
O2 P0 1.541133 1_555
O3 P1 1.563482 1_545
O4 P3 1.566390 1_555
O5 P0 1.559170 1_555
O6 P7 1.555075 1_555
O7 P7 1.563482 1_555
O8 P6 1.564895 1_555
O9 P5 1.566390 1_555
O10 P4 1.564773 1_554
O11 P3 1.564773 1_556
O12 P7 1.559170 1_555
O13 P3 1.527006 1_555
O14 P6 1.564773 1_554
O15 P5 1.564773 1_556
O16 P7 1.541133 1_555
O17 P3 1.564895 1_555
O18 P2 1.559170 1_455
O19 P5 1.564895 1_555
O20 P1 1.541133 1_555
O21 P1 1.555075 1_555
O22 P2 1.541133 1_555
O23 P6 1.566390 1_555
O24 P2 1.563482 1_565
O25 P4 1.566390 1_555
O26 P4 1.564895 1_555
O27 P0 1.555075 1_555
O28 P2 1.555075 1_555
O29 P4 1.527006 1_545
O30 P0 1.563482 1_555
O31 P6 1.527006 1_555
