# generated using pymatgen
data_CdH4Br3N
_symmetry_space_group_name_H-M   'P 1'
_cell_length_a   4.39002800
_cell_length_b   9.21381400
_cell_length_c   16.16450400
_cell_angle_alpha   90.00000000
_cell_angle_beta   90.00000000
_cell_angle_gamma   90.00000000
_symmetry_Int_Tables_number   1
_chemical_formula_structural   CdH4Br3N
_chemical_formula_sum   'Cd4 H16 Br12 N4'
_cell_volume   653.83642923
_cell_formula_units_Z   4
loop_
 _symmetry_equiv_pos_site_id
 _symmetry_equiv_pos_as_xyz
  1  'x, y, z'
loop_
 _atom_site_type_symbol
 _atom_site_label
 _atom_site_symmetry_multiplicity
 _atom_site_fract_x
 _atom_site_fract_y
 _atom_site_fract_z
 _atom_site_occupancy
  Cd  Cd0  1  0.75000000  0.33255800  0.55867900  1
  Cd  Cd1  1  0.25000000  0.66744200  0.44132100  1
  Cd  Cd2  1  0.75000000  0.83255800  0.94132100  1
  Cd  Cd3  1  0.25000000  0.16744200  0.05867900  1
  H  H0  1  0.75000000  0.17704000  0.33730700  1
  H  H1  1  0.25000000  0.82296000  0.66269300  1
  H  H2  1  0.75000000  0.67704000  0.16269300  1
  H  H3  1  0.25000000  0.32296000  0.83730700  1
  H  H4  1  0.75000000  0.01176100  0.38579100  1
  H  H5  1  0.25000000  0.98823900  0.61420900  1
  H  H6  1  0.75000000  0.51176100  0.11420900  1
  H  H7  1  0.25000000  0.48823900  0.88579100  1
  H  H8  1  0.56014400  0.03455900  0.29621400  1
  H  H9  1  0.06014400  0.96544100  0.70378600  1
  H  H10  1  0.93985600  0.53455900  0.20378600  1
  H  H11  1  0.43985600  0.46544100  0.79621400  1
  H  H12  1  0.43985600  0.96544100  0.70378600  1
  H  H13  1  0.93985600  0.03455900  0.29621400  1
  H  H14  1  0.06014400  0.46544100  0.79621400  1
  H  H15  1  0.56014400  0.53455900  0.20378600  1
  Br  Br0  1  0.75000000  0.21786000  0.71117400  1
  Br  Br1  1  0.25000000  0.78214000  0.28882600  1
  Br  Br2  1  0.75000000  0.71786000  0.78882600  1
  Br  Br3  1  0.25000000  0.28214000  0.21117400  1
  Br  Br4  1  0.25000000  0.16309900  0.50096700  1
  Br  Br5  1  0.75000000  0.83690100  0.49903300  1
  Br  Br6  1  0.25000000  0.66309900  0.99903300  1
  Br  Br7  1  0.75000000  0.33690100  0.00096700  1
  Br  Br8  1  0.75000000  0.46517800  0.40164900  1
  Br  Br9  1  0.25000000  0.53482200  0.59835100  1
  Br  Br10  1  0.75000000  0.96517800  0.09835100  1
  Br  Br11  1  0.25000000  0.03482200  0.90164900  1
  N  N0  1  0.75000000  0.06600300  0.32927500  1
  N  N1  1  0.25000000  0.93399700  0.67072500  1
  N  N2  1  0.75000000  0.56600300  0.17072500  1
  N  N3  1  0.25000000  0.43399700  0.82927500  1
loop_
_geom_bond_atom_site_label_1
_geom_bond_atom_site_label_2
_geom_bond_distance
_geom_bond_site_symmetry_2
H0 N0 1.031280 1_555
H1 N1 1.031280 1_555
H2 N2 1.031280 1_555
H3 N3 1.031280 1_555
H4 N0 1.041324 1_555
H5 N1 1.041324 1_555
H6 N2 1.041324 1_555
H7 N3 1.041324 1_555
H8 N0 1.031607 1_555
H9 N1 1.031607 1_555
H10 N2 1.031607 1_555
H11 N3 1.031607 1_555
H12 N1 1.031607 1_555
H13 N0 1.031607 1_555
H14 N3 1.031607 1_555
H15 N2 1.031607 1_555
Br0 Cd0 2.681994 1_555
Br1 Cd1 2.681994 1_555
Br2 Cd2 2.681994 1_555
Br3 Cd3 2.681994 1_555
Br4 Cd0 2.850652 1_555
Br4 Cd0 2.850652 1_455
Br5 Cd1 2.850652 1_555
Br5 Cd1 2.850652 1_655
Br6 Cd2 2.850652 1_555
Br6 Cd2 2.850652 1_455
Br7 Cd3 2.850652 1_655
Br7 Cd3 2.850652 1_555
Br8 Cd0 2.817118 1_555
Br8 Cd1 2.949985 1_655
Br8 Cd1 2.949985 1_555
Br9 Cd1 2.817118 1_555
Br9 Cd0 2.949985 1_555
Br9 Cd0 2.949985 1_455
Br10 Cd2 2.817118 1_554
Br10 Cd3 2.949985 1_565
Br10 Cd3 2.949985 1_665
Br11 Cd3 2.817118 1_556
Br11 Cd2 2.949985 1_445
Br11 Cd2 2.949985 1_545
