# generated using pymatgen
data_Sm4Sn3
_symmetry_space_group_name_H-M   'P 1'
_cell_length_a   8.21297124
_cell_length_b   8.21296982
_cell_length_c   8.21296992
_cell_angle_alpha   109.47121314
_cell_angle_beta   109.47120962
_cell_angle_gamma   109.47122782
_symmetry_Int_Tables_number   1
_chemical_formula_structural   Sm4Sn3
_chemical_formula_sum   'Sm8 Sn6'
_cell_volume   426.46061714
_cell_formula_units_Z   2
loop_
 _symmetry_equiv_pos_site_id
 _symmetry_equiv_pos_as_xyz
  1  'x, y, z'
loop_
 _atom_site_type_symbol
 _atom_site_label
 _atom_site_symmetry_multiplicity
 _atom_site_fract_x
 _atom_site_fract_y
 _atom_site_fract_z
 _atom_site_occupancy
  Sm  Sm0  1  0.36138697  0.50000000  -0.00000000  1
  Sm  Sm1  1  0.86138697  0.50000000  -0.00000000  1
  Sm  Sm2  1  0.63861303  0.63861303  0.63861303  1
  Sm  Sm3  1  0.50000000  -0.00000000  0.36138697  1
  Sm  Sm4  1  0.13861303  0.13861303  0.13861303  1
  Sm  Sm5  1  0.00000000  0.86138697  0.50000000  1
  Sm  Sm6  1  0.50000000  -0.00000000  0.86138697  1
  Sm  Sm7  1  0.00000000  0.36138697  0.50000000  1
  Sn  Sn0  1  0.87500000  0.12500000  0.75000000  1
  Sn  Sn1  1  0.75000000  0.87500000  0.12500000  1
  Sn  Sn2  1  0.25000000  0.62500000  0.37500000  1
  Sn  Sn3  1  0.62500000  0.37500000  0.25000000  1
  Sn  Sn4  1  0.12500000  0.75000000  0.87500000  1
  Sn  Sn5  1  0.37500000  0.25000000  0.62500000  1
loop_
_geom_bond_atom_site_label_1
_geom_bond_atom_site_label_2
_geom_bond_distance
_geom_bond_site_symmetry_2
Sm0 Sn1 3.143352 1_555
Sm0 Sn5 3.143352 1_554
Sm0 Sn3 3.143352 1_555
Sm0 Sn2 3.431175 1_555
Sm0 Sn4 3.431175 1_554
Sm0 Sn0 3.431175 1_454
Sm0 Sm4 3.670675 1_555
Sm0 Sm3 3.670676 1_565
Sm0 Sm7 3.670676 1_554
Sm1 Sn4 3.143351 1_654
Sm1 Sn0 3.143352 1_554
Sm1 Sn2 3.143353 1_655
Sm1 Sn3 3.431174 1_555
Sm1 Sn1 3.431175 1_555
Sm1 Sn5 3.431175 1_554
Sm1 Sm6 3.670675 1_554
Sm1 Sm2 3.670676 1_554
Sm1 Sm5 3.670676 1_655
Sm2 Sn5 3.143352 1_555
Sm2 Sn3 3.143352 1_555
Sm2 Sn2 3.143352 1_555
Sm2 Sn0 3.431174 1_565
Sm2 Sn1 3.431175 1_556
Sm2 Sn4 3.431175 1_655
Sm2 Sm5 3.670675 1_655
Sm2 Sm6 3.670676 1_565
Sm3 Sn2 3.143351 1_545
Sm3 Sn5 3.143352 1_555
Sm3 Sn0 3.143353 1_555
Sm3 Sn3 3.431174 1_555
Sm3 Sn1 3.431175 1_545
Sm3 Sn4 3.431175 1_544
Sm3 Sm7 3.670676 1_655
Sm3 Sm4 3.670676 1_555
Sm4 Sn1 3.143352 1_445
Sm4 Sn4 3.143352 1_544
Sm4 Sn0 3.143352 1_454
Sm4 Sn2 3.431175 1_555
Sm4 Sn5 3.431175 1_555
Sm4 Sn3 3.431175 1_555
Sm4 Sm7 3.670675 1_555
Sm5 Sn5 3.143352 1_565
Sm5 Sn0 3.143352 1_465
Sm5 Sn1 3.143352 1_455
Sm5 Sn4 3.431175 1_555
Sm5 Sn3 3.431175 1_455
Sm5 Sn2 3.431175 1_555
Sm5 Sm6 3.670676 1_565
Sm6 Sn4 3.143352 1_545
Sm6 Sn3 3.143352 1_556
Sm6 Sn1 3.143352 1_546
Sm6 Sn5 3.431175 1_555
Sm6 Sn0 3.431175 1_555
Sm6 Sn2 3.431175 1_545
Sm7 Sn2 3.143351 1_555
Sm7 Sn4 3.143352 1_555
Sm7 Sn3 3.143352 1_455
Sm7 Sn0 3.431174 1_455
Sm7 Sn1 3.431175 1_445
Sm7 Sn5 3.431175 1_555
