# generated using pymatgen
data_Rb2MoSeO6
_symmetry_space_group_name_H-M   'P 1'
_cell_length_a   6.19431804
_cell_length_b   7.79857809
_cell_length_c   14.41127885
_cell_angle_alpha   90.00000000
_cell_angle_beta   90.00000000
_cell_angle_gamma   90.00000000
_symmetry_Int_Tables_number   1
_chemical_formula_structural   Rb2MoSeO6
_chemical_formula_sum   'Rb8 Mo4 Se4 O24'
_cell_volume   696.16381644
_cell_formula_units_Z   4
loop_
 _symmetry_equiv_pos_site_id
 _symmetry_equiv_pos_as_xyz
  1  'x, y, z'
loop_
 _atom_site_type_symbol
 _atom_site_label
 _atom_site_symmetry_multiplicity
 _atom_site_fract_x
 _atom_site_fract_y
 _atom_site_fract_z
 _atom_site_occupancy
  Rb  Rb0  1  0.25000000  0.87304696  0.46707181  1
  Rb  Rb1  1  0.25000000  0.37304696  0.03292819  1
  Rb  Rb2  1  0.75000000  0.15664548  0.79880128  1
  Rb  Rb3  1  0.75000000  0.12695304  0.53292819  1
  Rb  Rb4  1  0.25000000  0.34335452  0.29880128  1
  Rb  Rb5  1  0.75000000  0.62695304  0.96707181  1
  Rb  Rb6  1  0.75000000  0.65664548  0.70119872  1
  Rb  Rb7  1  0.25000000  0.84335452  0.20119872  1
  Mo  Mo0  1  0.25000000  0.89783401  0.73062450  1
  Mo  Mo1  1  0.75000000  0.60216599  0.23062450  1
  Mo  Mo2  1  0.25000000  0.39783401  0.76937550  1
  Mo  Mo3  1  0.75000000  0.10216599  0.26937550  1
  Se  Se0  1  0.75000000  0.08253072  0.06207031  1
  Se  Se1  1  0.25000000  0.91746928  0.93792969  1
  Se  Se2  1  0.75000000  0.58253072  0.43792969  1
  Se  Se3  1  0.25000000  0.41746928  0.56207031  1
  O  O0  1  0.97437998  0.04854638  0.33552812  1
  O  O1  1  0.95286808  0.11222458  0.14374330  1
  O  O2  1  0.04713192  0.38777542  0.64374330  1
  O  O3  1  0.75000000  0.25849365  0.99731659  1
  O  O4  1  0.25000000  0.66973589  0.72231389  1
  O  O5  1  0.04713192  0.88777542  0.85625670  1
  O  O6  1  0.52562002  0.54854638  0.16447188  1
  O  O7  1  0.02562002  0.45145362  0.83552812  1
  O  O8  1  0.54713192  0.61222458  0.35625670  1
  O  O9  1  0.52562002  0.04854638  0.33552812  1
  O  O10  1  0.25000000  0.16973589  0.77768611  1
  O  O11  1  0.25000000  0.74150635  0.00268341  1
  O  O12  1  0.02562002  0.95145362  0.66447188  1
  O  O13  1  0.45286808  0.38777542  0.64374330  1
  O  O14  1  0.25000000  0.24150635  0.49731659  1
  O  O15  1  0.47437998  0.95145362  0.66447188  1
  O  O16  1  0.75000000  0.33026411  0.27768611  1
  O  O17  1  0.75000000  0.75849365  0.50268341  1
  O  O18  1  0.47437998  0.45145362  0.83552812  1
  O  O19  1  0.95286808  0.61222458  0.35625670  1
  O  O20  1  0.97437998  0.54854638  0.16447188  1
  O  O21  1  0.54713192  0.11222458  0.14374330  1
  O  O22  1  0.45286808  0.88777542  0.85625670  1
  O  O23  1  0.75000000  0.83026411  0.22231389  1
loop_
_geom_bond_atom_site_label_1
_geom_bond_atom_site_label_2
_geom_bond_distance
_geom_bond_site_symmetry_2
Rb0 Se3 3.807506 1_555
Rb1 Se1 3.807506 1_544
Rb3 Se2 3.807506 1_555
Rb5 Se0 3.807506 1_566
Mo0 O12 1.736516 1_555
Mo0 O15 1.736516 1_555
Mo0 O4 1.782868 1_555
Mo0 O5 2.205279 1_555
Mo0 O22 2.205279 1_555
Mo0 O10 2.226270 1_565
Mo1 O20 1.736516 1_555
Mo1 O6 1.736516 1_555
Mo1 O23 1.782868 1_555
Mo1 O8 2.205279 1_555
Mo1 O19 2.205279 1_555
Mo1 O16 2.226270 1_555
Mo2 O18 1.736516 1_555
Mo2 O7 1.736516 1_555
Mo2 O10 1.782868 1_555
Mo2 O2 2.205279 1_555
Mo2 O13 2.205279 1_555
Mo2 O4 2.226270 1_555
Mo3 O9 1.736516 1_555
Mo3 O0 1.736516 1_555
Mo3 O16 1.782868 1_555
Mo3 O1 2.205279 1_555
Mo3 O21 2.205279 1_555
Mo3 O23 2.226270 1_545
O0 Rb0 2.895120 1_645
O0 Rb4 2.912168 1_655
O0 Rb7 3.036939 1_645
O0 Rb3 3.224666 1_555
O1 Se0 1.737268 1_555
O1 Rb7 2.910280 1_645
O1 Rb1 3.174154 1_655
O1 Rb4 3.410259 1_655
O2 Se3 1.737268 1_555
O2 Rb6 2.910280 1_455
O2 Rb3 3.174154 1_455
O2 Rb2 3.410259 1_455
O3 Se0 1.659497 1_556
O3 Rb5 2.906329 1_555
O3 Rb2 2.969071 1_555
O3 Rb1 3.264025 1_556
O3 Rb1 3.264025 1_656
O4 Rb6 3.113746 1_455
O4 Rb6 3.113746 1_555
O5 Se1 1.737268 1_555
O5 Rb2 2.910280 1_465
O5 Rb5 3.174154 1_455
O5 Rb6 3.410259 1_455
O6 Rb1 2.895120 1_555
O6 Rb7 2.912168 1_555
O6 Rb4 3.036939 1_555
O6 Rb5 3.224666 1_554
O7 Rb5 2.895120 1_455
O7 Rb2 2.912168 1_455
O7 Rb6 3.036939 1_455
O7 Rb1 3.224666 1_556
O8 Se2 1.737268 1_555
O8 Rb4 2.910280 1_555
O8 Rb0 3.174154 1_555
O8 Rb7 3.410259 1_555
O9 Rb0 2.895120 1_545
O9 Rb4 2.912168 1_555
O9 Rb7 3.036939 1_545
O9 Rb3 3.224666 1_555
O10 Rb2 3.113746 1_555
O10 Rb2 3.113746 1_455
O11 Se1 1.659497 1_554
O11 Rb1 2.906329 1_555
O11 Rb7 2.969071 1_555
O11 Rb5 3.264025 1_554
O11 Rb5 3.264025 1_454
O12 Rb3 2.895120 1_465
O12 Rb6 2.912168 1_455
O12 Rb2 3.036939 1_465
O12 Rb0 3.224666 1_555
O13 Se3 1.737268 1_555
O13 Rb6 2.910280 1_555
O13 Rb3 3.174154 1_555
O13 Rb2 3.410259 1_555
O14 Se3 1.659497 1_555
O14 Rb0 2.906329 1_545
O14 Rb4 2.969071 1_555
O14 Rb3 3.264025 1_555
O14 Rb3 3.264025 1_455
O15 Rb3 2.895120 1_565
O15 Rb6 2.912168 1_555
O15 Rb2 3.036939 1_565
O15 Rb0 3.224666 1_555
O16 Rb4 3.113746 1_655
O16 Rb4 3.113746 1_555
O17 Se2 1.659497 1_555
O17 Rb3 2.906329 1_565
O17 Rb6 2.969071 1_555
O17 Rb0 3.264025 1_555
O17 Rb0 3.264025 1_655
O18 Rb5 2.895120 1_555
O18 Rb2 2.912168 1_555
O18 Rb6 3.036939 1_555
O18 Rb1 3.224666 1_556
O19 Se2 1.737268 1_555
O19 Rb4 2.910280 1_655
O19 Rb0 3.174154 1_655
O19 Rb7 3.410259 1_655
O20 Rb1 2.895120 1_655
O20 Rb7 2.912168 1_655
O20 Rb4 3.036939 1_655
O20 Rb5 3.224666 1_554
O21 Se0 1.737268 1_555
O21 Rb7 2.910280 1_545
O21 Rb1 3.174154 1_555
O21 Rb4 3.410259 1_555
O22 Se1 1.737268 1_555
O22 Rb2 2.910280 1_565
O22 Rb5 3.174154 1_555
O22 Rb6 3.410259 1_555
O23 Rb7 3.113746 1_555
O23 Rb7 3.113746 1_655
