# generated using pymatgen
data_FeO2
_symmetry_space_group_name_H-M   'P 1'
_cell_length_a   5.76758717
_cell_length_b   5.76758717
_cell_length_c   5.76758717
_cell_angle_alpha   60.00000000
_cell_angle_beta   60.00000000
_cell_angle_gamma   60.00000000
_symmetry_Int_Tables_number   1
_chemical_formula_structural   FeO2
_chemical_formula_sum   'Fe4 O8'
_cell_volume   135.66490146
_cell_formula_units_Z   4
loop_
 _symmetry_equiv_pos_site_id
 _symmetry_equiv_pos_as_xyz
  1  'x, y, z'
loop_
 _atom_site_type_symbol
 _atom_site_label
 _atom_site_symmetry_multiplicity
 _atom_site_fract_x
 _atom_site_fract_y
 _atom_site_fract_z
 _atom_site_occupancy
  Fe  Fe0  1  0.12500000  0.12500000  0.12500000  1
  Fe  Fe1  1  0.12500000  0.12500000  0.62500000  1
  Fe  Fe2  1  0.12500000  0.62500000  0.12500000  1
  Fe  Fe3  1  0.62500000  0.12500000  0.12500000  1
  O  O0  1  0.91465900  0.36178000  0.36178000  1
  O  O1  1  0.36178000  0.36178000  0.36178000  1
  O  O2  1  0.33534100  0.88822000  0.88822000  1
  O  O3  1  0.88822000  0.88822000  0.33534100  1
  O  O4  1  0.88822000  0.88822000  0.88822000  1
  O  O5  1  0.88822000  0.33534100  0.88822000  1
  O  O6  1  0.36178000  0.36178000  0.91465900  1
  O  O7  1  0.36178000  0.91465900  0.36178000  1
loop_
_geom_bond_atom_site_label_1
_geom_bond_atom_site_label_2
_geom_bond_distance
_geom_bond_site_symmetry_2
Fe0 O2 1.937330 1_544
Fe0 O3 1.937330 1_445
Fe0 O5 1.937330 1_454
Fe0 O0 1.937330 1_455
Fe0 O6 1.937330 1_554
Fe0 O7 1.937330 1_545
Fe1 O4 1.937331 1_445
Fe1 O1 1.937331 1_555
Fe1 O0 1.937335 1_455
Fe1 O7 1.937335 1_545
Fe1 O5 1.937335 1_455
Fe1 O2 1.937335 1_545
Fe2 O4 1.937331 1_454
Fe2 O1 1.937331 1_555
Fe2 O6 1.937335 1_554
Fe2 O0 1.937335 1_455
Fe2 O2 1.937335 1_554
Fe2 O3 1.937335 1_455
Fe3 O4 1.937331 1_544
Fe3 O1 1.937331 1_555
Fe3 O6 1.937335 1_554
Fe3 O7 1.937335 1_545
Fe3 O3 1.937335 1_545
Fe3 O5 1.937335 1_554
