# generated using pymatgen
data_Ca7NbSi4O17F
_symmetry_space_group_name_H-M   'P 1'
_cell_length_a   10.55758100
_cell_length_b   7.45252000
_cell_length_c   10.96928549
_cell_angle_alpha   70.52922533
_cell_angle_beta   90.00000000
_cell_angle_gamma   90.00000000
_symmetry_Int_Tables_number   1
_chemical_formula_structural   Ca7NbSi4O17F
_chemical_formula_sum   'Ca14 Nb2 Si8 O34 F2'
_cell_volume   813.71223470
_cell_formula_units_Z   2
loop_
 _symmetry_equiv_pos_site_id
 _symmetry_equiv_pos_as_xyz
  1  'x, y, z'
loop_
 _atom_site_type_symbol
 _atom_site_label
 _atom_site_symmetry_multiplicity
 _atom_site_fract_x
 _atom_site_fract_y
 _atom_site_fract_z
 _atom_site_occupancy
  Ca  Ca0  1  0.64945300  0.51915200  0.93147500  1
  Ca  Ca1  1  0.35054700  0.51915200  0.43147500  1
  Ca  Ca2  1  0.66533800  0.02568400  0.91998200  1
  Ca  Ca3  1  0.33466200  0.02568400  0.41998200  1
  Ca  Ca4  1  0.38090000  0.31590500  0.80764700  1
  Ca  Ca5  1  0.61910000  0.31590500  0.30764700  1
  Ca  Ca6  1  0.37318400  0.82845500  0.82840000  1
  Ca  Ca7  1  0.62681600  0.82845500  0.32840000  1
  Ca  Ca8  1  0.13263700  0.65009700  0.65872100  1
  Ca  Ca9  1  0.86736300  0.65009700  0.15872100  1
  Ca  Ca10  1  0.83667300  0.44924800  0.57302900  1
  Ca  Ca11  1  0.16332700  0.44924800  0.07302900  1
  Ca  Ca12  1  0.84635300  0.96044700  0.56019800  1
  Ca  Ca13  1  0.15364700  0.96044700  0.06019800  1
  Nb  Nb0  1  0.14059700  0.13919700  0.68218400  1
  Nb  Nb1  1  0.85940300  0.13919700  0.18218400  1
  Si  Si0  1  0.06941300  0.33896100  0.36195100  1
  Si  Si1  1  0.93058700  0.33896100  0.86195100  1
  Si  Si2  1  0.05459900  0.75939200  0.37623700  1
  Si  Si3  1  0.94540100  0.75939200  0.87623700  1
  Si  Si4  1  0.55591200  0.64795800  0.61662300  1
  Si  Si5  1  0.44408800  0.64795800  0.11662300  1
  Si  Si6  1  0.55976200  0.21071100  0.60685700  1
  Si  Si7  1  0.44023800  0.21071100  0.10685700  1
  O  O0  1  0.01250700  0.21479500  0.50479200  1
  O  O1  1  0.98749300  0.21479500  0.00479200  1
  O  O2  1  0.97084600  0.73120000  0.50740400  1
  O  O3  1  0.02915400  0.73120000  0.00740400  1
  O  O4  1  0.99933000  0.31071000  0.23546400  1
  O  O5  1  0.00067000  0.31071000  0.73546400  1
  O  O6  1  0.00826200  0.92667400  0.24432000  1
  O  O7  1  0.99173800  0.92667400  0.74432000  1
  O  O8  1  0.22098500  0.32362000  0.34553600  1
  O  O9  1  0.77901500  0.32362000  0.84553600  1
  O  O10  1  0.20296600  0.77066800  0.41157500  1
  O  O11  1  0.79703400  0.77066800  0.91157500  1
  O  O12  1  0.50520600  0.63172400  0.76026500  1
  O  O13  1  0.49479400  0.63172400  0.26026500  1
  O  O14  1  0.50801200  0.07595900  0.74711300  1
  O  O15  1  0.49198800  0.07595900  0.24711300  1
  O  O16  1  0.46858800  0.76971200  0.49497900  1
  O  O17  1  0.53141200  0.76971200  0.99497900  1
  O  O18  1  0.47865300  0.21822200  0.47834400  1
  O  O19  1  0.52134700  0.21822200  0.97834400  1
  O  O20  1  0.70476400  0.70107800  0.58332900  1
  O  O21  1  0.29523600  0.70107800  0.08332900  1
  O  O22  1  0.71058800  0.19069200  0.58279400  1
  O  O23  1  0.28941200  0.19069200  0.08279400  1
  O  O24  1  0.23237200  0.95625300  0.62949600  1
  O  O25  1  0.76762800  0.95625300  0.12949600  1
  O  O26  1  0.23508100  0.37342400  0.62342500  1
  O  O27  1  0.76491900  0.37342400  0.12342500  1
  O  O28  1  0.22185000  0.06533000  0.84573500  1
  O  O29  1  0.77815000  0.06533000  0.34573500  1
  O  O30  1  0.02725100  0.56648900  0.33456400  1
  O  O31  1  0.97274900  0.56648900  0.83456400  1
  O  O32  1  0.52940900  0.42602200  0.61670600  1
  O  O33  1  0.47059100  0.42602200  0.11670600  1
  F  F0  1  0.24827000  0.54972000  0.85045600  1
  F  F1  1  0.75173000  0.54972000  0.35045600  1
loop_
_geom_bond_atom_site_label_1
_geom_bond_atom_site_label_2
_geom_bond_distance
_geom_bond_site_symmetry_2
Ca0 O12 2.345157 1_555
Ca0 O27 2.361030 1_556
Ca0 O11 2.390822 1_555
Ca0 O9 2.408097 1_555
Ca0 O19 2.520820 1_555
Ca0 O17 2.528299 1_555
Ca0 O33 2.689958 1_556
Ca1 O13 2.345157 1_555
Ca1 O26 2.361030 1_555
Ca1 O10 2.390822 1_555
Ca1 O8 2.408097 1_555
Ca1 O18 2.520820 1_555
Ca1 O16 2.528299 1_555
Ca1 O32 2.689958 1_555
Ca2 O17 2.295399 1_545
Ca2 O19 2.322100 1_555
Ca2 O11 2.381276 1_545
Ca2 O9 2.414234 1_555
Ca2 O25 2.433730 1_546
Ca2 O14 2.453847 1_555
Ca3 O16 2.295399 1_545
Ca3 O18 2.322100 1_555
Ca3 O10 2.381276 1_545
Ca3 O8 2.414234 1_555
Ca3 O24 2.433730 1_545
Ca3 O15 2.453847 1_555
Ca4 O19 2.307783 1_555
Ca4 F0 2.400636 1_555
Ca4 O28 2.441583 1_555
Ca4 O26 2.461684 1_555
Ca4 O14 2.496220 1_555
Ca4 O32 2.524434 1_555
Ca4 O12 2.591639 1_555
Ca5 O18 2.307783 1_555
Ca5 F1 2.400636 1_555
Ca5 O29 2.441583 1_555
Ca5 O27 2.461684 1_555
Ca5 O15 2.496220 1_555
Ca5 O33 2.524434 1_555
Ca5 O13 2.591639 1_555
Ca6 O14 2.264318 1_565
Ca6 O12 2.319794 1_555
Ca6 F0 2.403702 1_555
Ca6 O17 2.405787 1_555
Ca6 O28 2.434952 1_565
Ca6 O24 2.547993 1_555
Ca6 O21 2.761973 1_556
Ca7 O15 2.264318 1_565
Ca7 O13 2.319794 1_555
Ca7 F1 2.403702 1_555
Ca7 O16 2.405787 1_555
Ca7 O29 2.434952 1_565
Ca7 O25 2.547993 1_555
Ca7 O20 2.761973 1_555
Ca8 O2 2.317166 1_455
Ca8 F0 2.329063 1_555
Ca8 O24 2.435104 1_555
Ca8 O26 2.470496 1_555
Ca8 O31 2.481333 1_455
Ca8 O10 2.661645 1_555
Ca8 O5 2.761824 1_555
Ca8 O7 2.938233 1_455
Ca9 O3 2.317166 1_655
Ca9 F1 2.329063 1_555
Ca9 O25 2.435104 1_555
Ca9 O27 2.470496 1_555
Ca9 O30 2.481333 1_655
Ca9 O11 2.661645 1_554
Ca9 O4 2.761824 1_555
Ca9 O6 2.938233 1_655
Ca10 O22 2.314900 1_555
Ca10 O20 2.369774 1_555
Ca10 O2 2.435502 1_555
Ca10 O5 2.451970 1_655
Ca10 F1 2.471224 1_555
Ca10 O0 2.816245 1_655
Ca10 O9 2.883878 1_555
Ca11 O23 2.314900 1_555
Ca11 O21 2.369774 1_555
Ca11 O3 2.435502 1_555
Ca11 O4 2.451970 1_455
Ca11 F0 2.471224 1_554
Ca11 O1 2.816245 1_455
Ca11 O8 2.883878 1_555
Ca12 O22 2.311664 1_565
Ca12 O29 2.331927 1_565
Ca12 O2 2.375146 1_555
Ca12 O20 2.389198 1_555
Ca12 O7 2.481846 1_555
Ca12 O0 2.504312 1_665
Ca13 O23 2.311664 1_565
Ca13 O28 2.331927 1_564
Ca13 O3 2.375146 1_555
Ca13 O21 2.389198 1_555
Ca13 O6 2.481846 1_555
Ca13 O1 2.504312 1_465
Nb0 O28 1.897131 1_555
Nb0 O24 1.912324 1_545
Nb0 O26 1.925484 1_555
Nb0 O5 2.157726 1_555
Nb0 O7 2.173320 1_445
Nb0 O0 2.280729 1_555
Nb1 O29 1.897131 1_555
Nb1 O25 1.912324 1_545
Nb1 O27 1.925484 1_555
Nb1 O4 2.157726 1_555
Nb1 O6 2.173320 1_645
Nb1 O1 2.280729 1_555
O0 Si0 1.644903 1_555
O1 Si1 1.644903 1_554
O2 Si2 1.641538 1_655
O3 Si3 1.641538 1_454
O4 Si0 1.646697 1_655
O5 Si1 1.646697 1_455
O6 Si2 1.638536 1_555
O7 Si3 1.638536 1_555
O8 Si0 1.618630 1_555
O9 Si1 1.618630 1_555
O10 Si2 1.622540 1_555
O11 Si3 1.622540 1_555
O12 Si4 1.629972 1_555
O13 Si5 1.629972 1_555
O14 Si6 1.626042 1_555
O15 Si7 1.626042 1_555
O16 Si4 1.626842 1_555
O17 Si5 1.626842 1_556
O18 Si6 1.634333 1_555
O19 Si7 1.634333 1_556
O20 Si4 1.631987 1_555
O21 Si5 1.631987 1_555
O22 Si6 1.629044 1_555
O23 Si7 1.629044 1_555
O30 Si2 1.672471 1_555
O30 Si0 1.680490 1_555
O31 Si3 1.672471 1_555
O31 Si1 1.680490 1_555
O32 Si6 1.674725 1_555
O32 Si4 1.677184 1_555
O33 Si7 1.674725 1_555
O33 Si5 1.677184 1_555
