# generated using pymatgen
data_Ti9ZnS16
_symmetry_space_group_name_H-M   'P 1'
_cell_length_a   13.91991900
_cell_length_b   7.03717000
_cell_length_c   12.05418933
_cell_angle_alpha   55.13655380
_cell_angle_beta   90.00000000
_cell_angle_gamma   90.00000000
_symmetry_Int_Tables_number   1
_chemical_formula_structural   Ti9ZnS16
_chemical_formula_sum   'Ti18 Zn2 S32'
_cell_volume   968.85815523
_cell_formula_units_Z   2
loop_
 _symmetry_equiv_pos_site_id
 _symmetry_equiv_pos_as_xyz
  1  'x, y, z'
loop_
 _atom_site_type_symbol
 _atom_site_label
 _atom_site_symmetry_multiplicity
 _atom_site_fract_x
 _atom_site_fract_y
 _atom_site_fract_z
 _atom_site_occupancy
  Ti  Ti0  1  0.37531600  0.50781000  0.99102100  1
  Ti  Ti1  1  0.50417100  0.50005900  0.25018700  1
  Ti  Ti2  1  0.62468400  0.50781000  0.49102100  1
  Ti  Ti3  1  0.37993800  0.48649400  0.50272700  1
  Ti  Ti4  1  0.73797700  0.49686200  0.75351200  1
  Ti  Ti5  1  0.49582900  0.50005900  0.75018700  1
  Ti  Ti6  1  0.62006200  0.48649400  0.00272700  1
  Ti  Ti7  1  0.98671300  0.48790000  0.26043400  1
  Ti  Ti8  1  0.74671300  0.49138000  0.25792100  1
  Ti  Ti9  1  0.62042300  0.01109800  0.00120600  1
  Ti  Ti10  1  0.86906100  0.49712300  0.49284200  1
  Ti  Ti11  1  0.01328700  0.48790000  0.76043400  1
  Ti  Ti12  1  0.25328700  0.49138000  0.75792100  1
  Ti  Ti13  1  0.86729600  0.02603700  0.48911200  1
  Ti  Ti14  1  0.13093900  0.49712300  0.99284200  1
  Ti  Ti15  1  0.26202300  0.49686200  0.25351200  1
  Ti  Ti16  1  0.13270400  0.02603700  0.98911200  1
  Ti  Ti17  1  0.37957700  0.01109800  0.50120600  1
  Zn  Zn0  1  0.87575100  0.87676300  0.87370400  1
  Zn  Zn1  1  0.12424900  0.87676300  0.37370400  1
  S  S0  1  0.37837500  0.24712100  0.25009500  1
  S  S1  1  0.50594800  0.24336100  0.50280800  1
  S  S2  1  0.37914100  0.73834000  0.25587700  1
  S  S3  1  0.62162500  0.24712100  0.75009500  1
  S  S4  1  0.74539300  0.25380300  0.99620700  1
  S  S5  1  0.50003800  0.74997400  0.49900400  1
  S  S6  1  0.49405200  0.24336100  0.00280800  1
  S  S7  1  0.62085900  0.73834000  0.75587700  1
  S  S8  1  0.62329300  0.25682000  0.24808100  1
  S  S9  1  0.87251800  0.25593200  0.24705200  1
  S  S10  1  0.99422600  0.24792000  0.50063200  1
  S  S11  1  0.73923500  0.74627100  0.00686800  1
  S  S12  1  0.49996200  0.74997400  0.99900400  1
  S  S13  1  0.74364700  0.24051000  0.50745000  1
  S  S14  1  0.87039200  0.74354300  0.25121200  1
  S  S15  1  0.62409900  0.76012400  0.24741200  1
  S  S16  1  0.87401900  0.27512700  0.74220000  1
  S  S17  1  0.12748200  0.25593200  0.74705200  1
  S  S18  1  0.25635300  0.24051000  0.00745000  1
  S  S19  1  0.98883000  0.74641600  0.50695800  1
  S  S20  1  0.00577400  0.24792000  0.00063200  1
  S  S21  1  0.74687600  0.74932400  0.49937400  1
  S  S22  1  0.87486500  0.73888700  0.74110500  1
  S  S23  1  0.12960800  0.74354300  0.75121200  1
  S  S24  1  0.12598100  0.27512700  0.24220000  1
  S  S25  1  0.25312400  0.74932400  0.99937400  1
  S  S26  1  0.25460700  0.25380300  0.49620700  1
  S  S27  1  0.01117000  0.74641600  0.00695800  1
  S  S28  1  0.12513500  0.73888700  0.24110500  1
  S  S29  1  0.37670700  0.25682000  0.74808100  1
  S  S30  1  0.26076500  0.74627100  0.50686800  1
  S  S31  1  0.37590100  0.76012400  0.74741200  1
loop_
_geom_bond_atom_site_label_1
_geom_bond_atom_site_label_2
_geom_bond_distance
_geom_bond_site_symmetry_2
S0 Ti15 2.407549 1_555
S0 Ti17 2.484678 1_555
S0 Ti1 2.497357 1_555
S0 Ti0 2.563243 1_554
S1 Ti17 2.408797 1_555
S1 Ti2 2.431636 1_555
S1 Ti3 2.449937 1_555
S1 Ti1 2.499577 1_555
S2 Ti15 2.366787 1_555
S2 Ti3 2.442579 1_555
S2 Ti1 2.444779 1_555
S3 Ti4 2.407549 1_555
S3 Ti9 2.484678 1_556
S3 Ti5 2.497357 1_555
S3 Ti2 2.563243 1_555
S4 Ti4 2.402937 1_555
S4 Ti9 2.414373 1_556
S4 Ti6 2.424518 1_556
S5 Ti2 2.472105 1_555
S5 Ti3 2.477827 1_555
S5 Ti5 2.485214 1_555
S5 Ti17 2.498965 1_565
S6 Ti9 2.408797 1_555
S6 Ti0 2.431636 1_554
S6 Ti6 2.449937 1_555
S6 Ti5 2.499577 1_554
S7 Ti4 2.366787 1_555
S7 Ti6 2.442579 1_556
S7 Ti5 2.444779 1_555
S8 Ti1 2.393702 1_555
S8 Ti6 2.428269 1_555
S8 Ti8 2.431876 1_555
S9 Ti7 2.349163 1_555
S9 Ti13 2.395761 1_555
S9 Ti8 2.465219 1_555
S10 Ti7 2.378257 1_555
S10 Ti13 2.413919 1_555
S10 Ti10 2.435472 1_555
S11 Zn0 2.312101 1_554
S11 Ti9 2.463250 1_565
S11 Ti8 2.486082 1_555
S11 Ti6 2.490105 1_555
S12 Ti0 2.472105 1_555
S12 Ti6 2.477827 1_556
S12 Ti1 2.485214 1_556
S12 Ti9 2.498965 1_566
S13 Ti13 2.381321 1_555
S13 Ti2 2.427720 1_555
S13 Ti10 2.444616 1_555
S13 Ti8 2.468806 1_555
S14 Ti7 2.375264 1_555
S14 Ti10 2.390953 1_555
S14 Ti8 2.440346 1_555
S15 Ti2 2.411420 1_555
S15 Ti9 2.436675 1_565
S15 Ti1 2.463196 1_555
S15 Ti8 2.496372 1_555
S16 Zn0 2.300391 1_545
S16 Ti10 2.472206 1_555
S16 Ti4 2.506536 1_555
S16 Ti11 2.534698 1_655
S17 Ti11 2.349163 1_555
S17 Ti16 2.395761 1_555
S17 Ti12 2.465219 1_555
S18 Ti16 2.381321 1_554
S18 Ti0 2.427720 1_554
S18 Ti14 2.444616 1_554
S18 Ti12 2.468806 1_554
S19 Zn1 2.300077 1_655
S19 Ti10 2.495461 1_555
S19 Ti13 2.509251 1_565
S19 Ti11 2.531098 1_655
S20 Ti11 2.378257 1_554
S20 Ti16 2.413919 1_554
S20 Ti14 2.435472 1_554
S21 Ti2 2.446917 1_555
S21 Ti10 2.491696 1_555
S21 Ti4 2.516773 1_555
S21 Ti13 2.518248 1_565
S22 Zn0 2.295502 1_555
S22 Ti4 2.502552 1_555
S22 Ti13 2.510761 1_565
S22 Ti11 2.532994 1_655
S23 Ti11 2.375264 1_555
S23 Ti14 2.390953 1_555
S23 Ti12 2.440346 1_555
S24 Zn1 2.300391 1_545
S24 Ti14 2.472206 1_554
S24 Ti15 2.506536 1_555
S24 Ti7 2.534698 1_455
S25 Ti0 2.446917 1_555
S25 Ti14 2.491696 1_555
S25 Ti15 2.516773 1_556
S25 Ti16 2.518248 1_565
S26 Ti15 2.402937 1_555
S26 Ti17 2.414373 1_555
S26 Ti3 2.424518 1_555
S27 Zn0 2.300077 1_454
S27 Ti14 2.495461 1_554
S27 Ti16 2.509251 1_564
S27 Ti7 2.531098 1_455
S28 Zn1 2.295502 1_555
S28 Ti15 2.502552 1_555
S28 Ti16 2.510761 1_564
S28 Ti7 2.532994 1_455
S29 Ti5 2.393702 1_555
S29 Ti3 2.428269 1_555
S29 Ti12 2.431876 1_555
S30 Zn1 2.312101 1_555
S30 Ti17 2.463250 1_565
S30 Ti12 2.486082 1_555
S30 Ti3 2.490105 1_555
S31 Ti0 2.411420 1_555
S31 Ti17 2.436675 1_565
S31 Ti5 2.463196 1_555
S31 Ti12 2.496372 1_555
