# generated using pymatgen
data_WS2(NCl)3
_symmetry_space_group_name_H-M   'P 1'
_cell_length_a   9.56363000
_cell_length_b   7.79546100
_cell_length_c   13.28407572
_cell_angle_alpha   59.74906459
_cell_angle_beta   90.00000000
_cell_angle_gamma   90.00000000
_symmetry_Int_Tables_number   1
_chemical_formula_structural   WS2(NCl)3
_chemical_formula_sum   'W4 S8 N12 Cl12'
_cell_volume   855.50554052
_cell_formula_units_Z   4
loop_
 _symmetry_equiv_pos_site_id
 _symmetry_equiv_pos_as_xyz
  1  'x, y, z'
loop_
 _atom_site_type_symbol
 _atom_site_label
 _atom_site_symmetry_multiplicity
 _atom_site_fract_x
 _atom_site_fract_y
 _atom_site_fract_z
 _atom_site_occupancy
  W  W0  1  0.13079600  0.01397800  0.58723600  1
  W  W1  1  0.63079600  0.98602200  0.91276400  1
  W  W2  1  0.86920400  0.98602200  0.41276400  1
  W  W3  1  0.36920400  0.01397800  0.08723600  1
  S  S0  1  0.90866200  0.24200400  0.88373900  1
  S  S1  1  0.81056000  0.25523000  0.53104300  1
  S  S2  1  0.68944000  0.25523000  0.03104300  1
  S  S3  1  0.31056000  0.74477000  0.96895700  1
  S  S4  1  0.18944000  0.74477000  0.46895700  1
  S  S5  1  0.59133800  0.24200400  0.38373900  1
  S  S6  1  0.09133800  0.75799600  0.11626100  1
  S  S7  1  0.40866200  0.75799600  0.61626100  1
  N  N0  1  0.09167700  0.88820700  0.49385200  1
  N  N1  1  0.80168300  0.09761600  0.86905200  1
  N  N2  1  0.40832300  0.88820700  0.99385200  1
  N  N3  1  0.69831700  0.09761600  0.36905200  1
  N  N4  1  0.66425900  0.30499500  0.46918800  1
  N  N5  1  0.83574100  0.30499500  0.96918800  1
  N  N6  1  0.19831700  0.90238400  0.13094800  1
  N  N7  1  0.59167700  0.11179300  0.00614800  1
  N  N8  1  0.33574100  0.69500500  0.53081200  1
  N  N9  1  0.16425900  0.69500500  0.03081200  1
  N  N10  1  0.30168300  0.90238400  0.63094800  1
  N  N11  1  0.90832300  0.11179300  0.50614800  1
  Cl  Cl0  1  0.09911700  0.21830400  0.67215200  1
  Cl  Cl1  1  0.28815100  0.30839600  0.92377700  1
  Cl  Cl2  1  0.48479800  0.76946400  0.25319900  1
  Cl  Cl3  1  0.01520200  0.76946400  0.75319900  1
  Cl  Cl4  1  0.90088300  0.78169600  0.32784800  1
  Cl  Cl5  1  0.59911700  0.78169600  0.82784800  1
  Cl  Cl6  1  0.21184900  0.30839600  0.42377700  1
  Cl  Cl7  1  0.71184900  0.69160400  0.07622300  1
  Cl  Cl8  1  0.98479800  0.23053600  0.24680100  1
  Cl  Cl9  1  0.78815100  0.69160400  0.57622300  1
  Cl  Cl10  1  0.40088300  0.21830400  0.17215200  1
  Cl  Cl11  1  0.51520200  0.23053600  0.74680100  1
loop_
_geom_bond_atom_site_label_1
_geom_bond_atom_site_label_2
_geom_bond_distance
_geom_bond_site_symmetry_2
N0 S4 1.614433 1_555
N0 W0 1.966112 1_565
N0 W2 2.332605 1_455
N1 S0 1.604054 1_555
N1 W1 1.804417 1_545
N2 S3 1.614433 1_555
N2 W3 1.966112 1_566
N2 W1 2.332605 1_555
N3 S5 1.604054 1_555
N3 W2 1.804417 1_545
N4 S1 1.569127 1_555
N4 S5 1.605480 1_555
N5 S2 1.569127 1_556
N5 S0 1.605480 1_555
N6 S6 1.604054 1_555
N6 W3 1.804417 1_565
N7 S2 1.614433 1_555
N7 W1 1.966112 1_544
N7 W3 2.332605 1_555
N8 S4 1.569127 1_555
N8 S7 1.605480 1_555
N9 S3 1.569127 1_554
N9 S6 1.605480 1_555
N10 S7 1.604054 1_555
N10 W0 1.804417 1_565
N11 S1 1.614433 1_555
N11 W2 1.966112 1_545
N11 W0 2.332605 1_655
Cl0 W0 2.389908 1_555
Cl1 W3 2.358402 1_556
Cl2 W3 2.341312 1_565
Cl3 W0 2.341312 1_565
Cl4 W2 2.389908 1_555
Cl5 W1 2.389908 1_555
Cl6 W0 2.358402 1_555
Cl7 W1 2.358402 1_554
Cl8 W2 2.341312 1_545
Cl9 W2 2.358402 1_555
Cl10 W3 2.389908 1_555
Cl11 W1 2.341312 1_545
