# generated using pymatgen
data_PrOs2
_symmetry_space_group_name_H-M   'P 1'
_cell_length_a   5.34906892
_cell_length_b   5.34906874
_cell_length_c   9.20962785
_cell_angle_alpha   90.00000000
_cell_angle_beta   90.00000000
_cell_angle_gamma   120.00001371
_symmetry_Int_Tables_number   1
_chemical_formula_structural   PrOs2
_chemical_formula_sum   'Pr4 Os8'
_cell_volume   228.20703345
_cell_formula_units_Z   4
loop_
 _symmetry_equiv_pos_site_id
 _symmetry_equiv_pos_as_xyz
  1  'x, y, z'
loop_
 _atom_site_type_symbol
 _atom_site_label
 _atom_site_symmetry_multiplicity
 _atom_site_fract_x
 _atom_site_fract_y
 _atom_site_fract_z
 _atom_site_occupancy
  Pr  Pr0  1  0.33333300  0.66666700  0.43531144  1
  Pr  Pr1  1  0.66666700  0.33333300  0.56468856  1
  Pr  Pr2  1  0.66666700  0.33333300  0.93531144  1
  Pr  Pr3  1  0.33333300  0.66666700  0.06468856  1
  Os  Os0  1  0.16930959  0.33862018  0.75000000  1
  Os  Os1  1  0.16930959  0.83069041  0.75000000  1
  Os  Os2  1  0.33862018  0.16930959  0.25000000  1
  Os  Os3  1  0.83069041  0.66137982  0.25000000  1
  Os  Os4  1  0.66137982  0.83069041  0.75000000  1
  Os  Os5  1  -0.00000000  0.00000000  -0.00000000  1
  Os  Os6  1  0.83069041  0.16930959  0.25000000  1
  Os  Os7  1  -0.00000000  0.00000000  0.50000000  1
loop_
_geom_bond_atom_site_label_1
_geom_bond_atom_site_label_2
_geom_bond_distance
_geom_bond_site_symmetry_2
Pr0 Pr1 3.310166 1_565
Pr0 Pr1 3.310166 1_455
Pr0 Pr1 3.310175 1_555
Pr0 Pr3 3.413299 1_555
Pr1 Pr2 3.413299 1_555
Pr2 Pr3 3.310166 1_546
Pr2 Pr3 3.310166 1_656
Pr2 Pr3 3.310175 1_556
Os0 Os4 2.632117 1_555
Os0 Os1 2.632117 1_555
Os0 Os4 2.716951 1_445
Os0 Os1 2.716951 1_545
Os0 Os7 2.785981 1_555
Os0 Os5 2.785981 1_556
Os0 Pr1 3.172752 1_455
Os0 Pr2 3.172752 1_455
Os0 Pr2 3.172761 1_555
Os0 Pr1 3.172761 1_555
Os0 Pr3 3.272416 1_556
Os0 Pr0 3.272416 1_555
Os1 Os4 2.632118 1_555
Os1 Os4 2.716951 1_455
Os1 Os5 2.785979 1_566
Os1 Os7 2.785979 1_565
Os1 Pr1 3.172756 1_565
Os1 Pr2 3.172756 1_565
Os1 Pr1 3.172756 1_455
Os1 Pr2 3.172756 1_455
Os1 Pr3 3.272416 1_556
Os1 Pr0 3.272416 1_555
Os2 Os3 2.632117 1_555
Os2 Os6 2.632118 1_555
Os2 Os3 2.716951 1_445
Os2 Os6 2.716951 1_455
Os2 Os7 2.785981 1_555
Os2 Os5 2.785981 1_555
Os2 Pr3 3.172752 1_545
Os2 Pr0 3.172752 1_545
Os2 Pr3 3.172761 1_555
Os2 Pr0 3.172761 1_555
Os2 Pr2 3.272416 1_554
Os2 Pr1 3.272416 1_555
Os3 Os6 2.632117 1_555
Os3 Os6 2.716951 1_565
Os3 Os5 2.785981 1_665
Os3 Os7 2.785981 1_665
Os3 Pr3 3.172752 1_655
Os3 Pr0 3.172752 1_655
Os3 Pr3 3.172761 1_555
Os3 Pr0 3.172761 1_555
Os3 Pr2 3.272416 1_554
Os3 Pr1 3.272416 1_555
Os4 Os5 2.785981 1_666
Os4 Os7 2.785981 1_665
Os4 Pr1 3.172752 1_565
Os4 Pr2 3.172752 1_565
Os4 Pr1 3.172761 1_555
Os4 Pr2 3.172761 1_555
Os4 Pr0 3.272416 1_555
Os4 Pr3 3.272416 1_556
Os5 Os6 2.785979 1_455
Os5 Pr2 3.145222 1_454
Os5 Pr3 3.145222 1_545
Os5 Pr2 3.145226 1_444
Os5 Pr3 3.145226 1_555
Os5 Pr3 3.145226 1_445
Os5 Pr2 3.145226 1_554
Os6 Os7 2.785979 1_655
Os6 Pr0 3.172756 1_545
Os6 Pr3 3.172756 1_545
Os6 Pr3 3.172756 1_655
Os6 Pr0 3.172756 1_655
Os6 Pr2 3.272416 1_554
Os6 Pr1 3.272416 1_555
Os7 Pr0 3.145222 1_545
Os7 Pr1 3.145222 1_455
Os7 Pr0 3.145226 1_555
Os7 Pr1 3.145226 1_445
Os7 Pr0 3.145226 1_445
Os7 Pr1 3.145226 1_555
