# generated using pymatgen
data_Ti4Fe2O
_symmetry_space_group_name_H-M   'P 1'
_cell_length_a   8.03179965
_cell_length_b   8.03179965
_cell_length_c   8.03179965
_cell_angle_alpha   60.00000000
_cell_angle_beta   60.00000000
_cell_angle_gamma   60.00000000
_symmetry_Int_Tables_number   1
_chemical_formula_structural   Ti4Fe2O
_chemical_formula_sum   'Ti16 Fe8 O4'
_cell_volume   366.37311974
_cell_formula_units_Z   4
loop_
 _symmetry_equiv_pos_site_id
 _symmetry_equiv_pos_as_xyz
  1  'x, y, z'
loop_
 _atom_site_type_symbol
 _atom_site_label
 _atom_site_symmetry_multiplicity
 _atom_site_fract_x
 _atom_site_fract_y
 _atom_site_fract_z
 _atom_site_occupancy
  Ti  Ti0  1  0.56340100  0.93659900  0.56340100  1
  Ti  Ti1  1  0.31340100  0.68659900  0.68659900  1
  Ti  Ti2  1  0.68659900  0.31340100  0.31340100  1
  Ti  Ti3  1  0.31340100  0.68659900  0.31340100  1
  Ti  Ti4  1  0.68659900  0.68659900  0.31340100  1
  Ti  Ti5  1  0.31340100  0.31340100  0.68659900  1
  Ti  Ti6  1  0.56340100  0.56340100  0.93659900  1
  Ti  Ti7  1  0.93659900  0.56340100  0.56340100  1
  Ti  Ti8  1  0.56340100  0.93659900  0.93659900  1
  Ti  Ti9  1  0.93659900  0.93659900  0.56340100  1
  Ti  Ti10  1  0.68659900  0.31340100  0.68659900  1
  Ti  Ti11  1  0.93659900  0.56340100  0.93659900  1
  Ti  Ti12  1  0.12500000  0.12500000  0.12500000  1
  Ti  Ti13  1  0.62500000  0.12500000  0.12500000  1
  Ti  Ti14  1  0.12500000  0.62500000  0.12500000  1
  Ti  Ti15  1  0.12500000  0.12500000  0.62500000  1
  Fe  Fe0  1  0.91413300  0.91413300  0.91413300  1
  Fe  Fe1  1  0.99240000  0.33586700  0.33586700  1
  Fe  Fe2  1  0.33586700  0.99240000  0.33586700  1
  Fe  Fe3  1  0.33586700  0.33586700  0.99240000  1
  Fe  Fe4  1  0.91413300  0.25760000  0.91413300  1
  Fe  Fe5  1  0.91413300  0.91413300  0.25760000  1
  Fe  Fe6  1  0.25760000  0.91413300  0.91413300  1
  Fe  Fe7  1  0.33586700  0.33586700  0.33586700  1
  O  O0  1  0.62500000  0.62500000  0.62500000  1
  O  O1  1  0.12500000  0.62500000  0.62500000  1
  O  O2  1  0.62500000  0.12500000  0.62500000  1
  O  O3  1  0.62500000  0.62500000  0.12500000  1
loop_
_geom_bond_atom_site_label_1
_geom_bond_atom_site_label_2
_geom_bond_distance
_geom_bond_site_symmetry_2
Fe0 Ti14 2.476288 1_656
Fe0 Ti13 2.476288 1_566
Fe0 Ti15 2.476288 1_665
Fe0 Ti11 2.648887 1_555
Fe0 Ti8 2.648887 1_555
Fe0 Ti9 2.648887 1_555
Fe0 Fe6 2.758658 1_655
Fe0 Fe5 2.758658 1_556
Fe0 Fe4 2.758658 1_565
Fe0 Ti1 2.929527 1_655
Fe0 Ti10 2.929527 1_565
Fe0 Ti4 2.929527 1_556
Fe1 Ti14 2.476284 1_655
Fe1 Ti15 2.476284 1_655
Fe1 Ti12 2.476290 1_655
Fe1 Ti4 2.648891 1_555
Fe1 Ti10 2.648891 1_555
Fe1 Ti2 2.648895 1_555
Fe1 Fe7 2.758658 1_655
Fe1 Fe2 2.758658 1_645
Fe1 Fe3 2.758658 1_654
Fe1 Ti7 2.929523 1_555
Fe1 Ti9 2.929530 1_545
Fe1 Ti11 2.929530 1_554
Fe2 Ti15 2.476284 1_565
Fe2 Ti13 2.476284 1_565
Fe2 Ti12 2.476290 1_565
Fe2 Ti4 2.648891 1_555
Fe2 Ti1 2.648891 1_555
Fe2 Ti3 2.648895 1_555
Fe2 Fe3 2.758658 1_564
Fe2 Fe7 2.758658 1_565
Fe2 Ti0 2.929523 1_555
Fe2 Ti9 2.929530 1_455
Fe2 Ti8 2.929530 1_554
Fe3 Ti14 2.476284 1_556
Fe3 Ti13 2.476284 1_556
Fe3 Ti12 2.476290 1_556
Fe3 Ti10 2.648891 1_555
Fe3 Ti1 2.648891 1_555
Fe3 Ti5 2.648895 1_555
Fe3 Fe7 2.758658 1_556
Fe3 Ti6 2.929523 1_555
Fe3 Ti8 2.929530 1_545
Fe3 Ti11 2.929530 1_455
Fe4 Ti15 2.476284 1_655
Fe4 Ti13 2.476284 1_556
Fe4 Ti12 2.476290 1_656
Fe4 Ti6 2.648891 1_555
Fe4 Ti7 2.648891 1_555
Fe4 Ti11 2.648895 1_555
Fe4 Fe5 2.758658 1_546
Fe4 Fe6 2.758658 1_645
Fe4 Ti10 2.929523 1_555
Fe4 Ti2 2.929530 1_556
Fe4 Ti5 2.929530 1_655
Fe5 Ti14 2.476284 1_655
Fe5 Ti13 2.476284 1_565
Fe5 Ti12 2.476290 1_665
Fe5 Ti7 2.648891 1_555
Fe5 Ti0 2.648891 1_555
Fe5 Ti9 2.648895 1_555
Fe5 Fe6 2.758658 1_654
Fe5 Ti4 2.929523 1_555
Fe5 Ti3 2.929530 1_655
Fe5 Ti2 2.929530 1_565
Fe6 Ti15 2.476284 1_565
Fe6 Ti14 2.476284 1_556
Fe6 Ti12 2.476290 1_566
Fe6 Ti6 2.648891 1_555
Fe6 Ti0 2.648891 1_555
Fe6 Ti8 2.648895 1_555
Fe6 Ti1 2.929523 1_555
Fe6 Ti3 2.929530 1_556
Fe6 Ti5 2.929530 1_565
Fe7 Ti15 2.476288 1_555
Fe7 Ti13 2.476288 1_555
Fe7 Ti14 2.476288 1_555
Fe7 Ti3 2.648887 1_555
Fe7 Ti2 2.648887 1_555
Fe7 Ti5 2.648887 1_555
Fe7 Ti0 2.929527 1_545
Fe7 Ti7 2.929527 1_455
Fe7 Ti6 2.929527 1_554
O0 Ti0 2.126363 1_555
O0 Ti6 2.126363 1_555
O0 Ti7 2.126363 1_555
O0 Ti4 2.126363 1_555
O0 Ti1 2.126363 1_555
O0 Ti10 2.126363 1_555
O1 Ti1 2.126363 1_555
O1 Ti11 2.126363 1_455
O1 Ti9 2.126363 1_455
O1 Ti5 2.126363 1_555
O1 Ti3 2.126363 1_555
O1 Ti7 2.126363 1_455
O2 Ti10 2.126363 1_555
O2 Ti9 2.126363 1_545
O2 Ti8 2.126363 1_545
O2 Ti5 2.126363 1_555
O2 Ti2 2.126363 1_555
O2 Ti0 2.126363 1_545
O3 Ti4 2.126363 1_555
O3 Ti8 2.126363 1_554
O3 Ti11 2.126363 1_554
O3 Ti3 2.126363 1_555
O3 Ti2 2.126363 1_555
O3 Ti6 2.126363 1_554
