# generated using pymatgen
data_KSrNb2O6F
_symmetry_space_group_name_H-M   'P 1'
_cell_length_a   12.19858010
_cell_length_b   12.19858010
_cell_length_c   12.19858010
_cell_angle_alpha   161.53701360
_cell_angle_beta   142.78642770
_cell_angle_gamma   41.84819141
_symmetry_Int_Tables_number   1
_chemical_formula_structural   KSrNb2O6F
_chemical_formula_sum   'K2 Sr2 Nb4 O12 F2'
_cell_volume   347.14967454
_cell_formula_units_Z   2
loop_
 _symmetry_equiv_pos_site_id
 _symmetry_equiv_pos_as_xyz
  1  'x, y, z'
loop_
 _atom_site_type_symbol
 _atom_site_label
 _atom_site_symmetry_multiplicity
 _atom_site_fract_x
 _atom_site_fract_y
 _atom_site_fract_z
 _atom_site_occupancy
  K  K0  1  0.23580500  0.73580500  0.50000000  1
  K  K1  1  0.76419500  0.26419500  0.50000000  1
  Sr  Sr0  1  0.50000000  0.50000000  0.00000000  1
  Sr  Sr1  1  0.00000000  0.50000000  0.50000000  1
  Nb  Nb0  1  0.35491500  0.10764300  0.24727200  1
  Nb  Nb1  1  0.86037100  0.10764300  0.75272800  1
  Nb  Nb2  1  0.64508500  0.89235700  0.75272800  1
  Nb  Nb3  1  0.13962900  0.89235700  0.24727200  1
  O  O0  1  0.04104400  0.81402000  0.22702400  1
  O  O1  1  0.08009600  0.08009600  0.00000000  1
  O  O2  1  0.66642900  0.41476200  0.25166800  1
  O  O3  1  0.41300400  0.18598000  0.22702400  1
  O  O4  1  0.83690600  0.58523800  0.25166800  1
  O  O5  1  0.95895600  0.18598000  0.77297600  1
  O  O6  1  0.91990400  0.91990400  0.00000000  1
  O  O7  1  0.40899400  0.90899400  0.50000000  1
  O  O8  1  0.58699600  0.81402000  0.77297600  1
  O  O9  1  0.16309400  0.41476200  0.74833200  1
  O  O10  1  0.33357100  0.58523800  0.74833200  1
  O  O11  1  0.59100600  0.09100600  0.50000000  1
  F  F0  1  0.26712300  0.00000000  0.26712300  1
  F  F1  1  0.73287700  0.00000000  0.73287700  1
loop_
_geom_bond_atom_site_label_1
_geom_bond_atom_site_label_2
_geom_bond_distance
_geom_bond_site_symmetry_2
K0 O8 2.773513 1_555
K0 O0 2.773513 1_555
K0 O3 2.870889 1_555
K0 O3 2.870889 1_566
K0 O5 2.870889 1_454
K0 O5 2.870889 1_465
K1 O3 2.773513 1_555
K1 O5 2.773513 1_555
K1 O8 2.870889 1_555
K1 O8 2.870889 1_544
K1 O0 2.870889 1_645
K1 O0 2.870889 1_656
Nb0 O3 1.792110 1_555
Nb0 O11 2.003544 1_555
Nb0 O10 2.022462 1_555
Nb0 O10 2.022466 1_544
Nb0 O1 2.024650 1_555
Nb1 O5 1.792110 1_555
Nb1 O11 2.003544 1_555
Nb1 O4 2.022467 1_545
Nb1 O4 2.022467 1_556
Nb1 O1 2.024650 1_656
Nb2 O8 1.792110 1_555
Nb2 O7 2.003544 1_555
Nb2 O2 2.022462 1_555
Nb2 O2 2.022466 1_566
Nb2 O6 2.024650 1_556
Nb3 O0 1.792110 1_555
Nb3 O7 2.003544 1_555
Nb3 O9 2.022467 1_565
Nb3 O9 2.022467 1_554
Nb3 O6 2.024650 1_455
O1 Sr1 2.676034 1_544
O1 Sr1 2.676034 1_555
O2 Sr1 2.740448 1_655
O2 Sr0 2.758823 1_555
O4 Sr1 2.740437 1_655
O4 Sr0 2.758817 1_555
O6 Sr1 2.676034 1_665
O6 Sr1 2.676034 1_654
O7 Sr0 2.851413 1_566
O7 Sr0 2.851413 1_555
O9 Sr1 2.740437 1_555
O9 Sr0 2.758817 1_556
O10 Sr1 2.740448 1_555
O10 Sr0 2.758823 1_556
O11 Sr0 2.851413 1_556
O11 Sr0 2.851413 1_545
F0 Nb0 2.457861 1_555
F0 Nb3 2.457861 1_545
F0 Sr0 2.667570 1_545
F0 Sr0 2.667570 1_556
F0 Sr1 2.855440 1_555
F0 Sr1 2.855440 1_544
F1 Nb1 2.457861 1_555
F1 Nb2 2.457861 1_545
F1 Sr0 2.667570 1_545
F1 Sr0 2.667570 1_556
F1 Sr1 2.855440 1_656
F1 Sr1 2.855440 1_645
