# generated using pymatgen
data_Al(Ni10B7)2
_symmetry_space_group_name_H-M   'P 1'
_cell_length_a   7.53571333
_cell_length_b   7.53571333
_cell_length_c   7.53571333
_cell_angle_alpha   60.00000000
_cell_angle_beta   60.00000000
_cell_angle_gamma   60.00000000
_symmetry_Int_Tables_number   1
_chemical_formula_structural   Al(Ni10B7)2
_chemical_formula_sum   'Al1 Ni20 B14'
_cell_volume   302.59246525
_cell_formula_units_Z   1
loop_
 _symmetry_equiv_pos_site_id
 _symmetry_equiv_pos_as_xyz
  1  'x, y, z'
loop_
 _atom_site_type_symbol
 _atom_site_label
 _atom_site_symmetry_multiplicity
 _atom_site_fract_x
 _atom_site_fract_y
 _atom_site_fract_z
 _atom_site_occupancy
  Al  Al0  1  0.00000000  0.00000000  0.00000000  1
  Ni  Ni0  1  0.33415700  0.66584300  0.00000000  1
  Ni  Ni1  1  0.00000000  0.66584300  0.33415700  1
  Ni  Ni2  1  0.33415700  0.00000000  0.00000000  1
  Ni  Ni3  1  0.00000000  0.00000000  0.66584300  1
  Ni  Ni4  1  0.00000000  0.00000000  0.33415700  1
  Ni  Ni5  1  0.00000000  0.66584300  0.00000000  1
  Ni  Ni6  1  0.33415700  0.00000000  0.66584300  1
  Ni  Ni7  1  0.66584300  0.00000000  0.00000000  1
  Ni  Ni8  1  0.00000000  0.33415700  0.00000000  1
  Ni  Ni9  1  0.66584300  0.00000000  0.33415700  1
  Ni  Ni10  1  0.00000000  0.33415700  0.66584300  1
  Ni  Ni11  1  0.66584300  0.33415700  0.00000000  1
  Ni  Ni12  1  0.37854800  0.86435500  0.37854800  1
  Ni  Ni13  1  0.62145200  0.62145200  0.13564500  1
  Ni  Ni14  1  0.13564500  0.62145200  0.62145200  1
  Ni  Ni15  1  0.62145200  0.62145200  0.62145200  1
  Ni  Ni16  1  0.86435500  0.37854800  0.37854800  1
  Ni  Ni17  1  0.37854800  0.37854800  0.37854800  1
  Ni  Ni18  1  0.37854800  0.37854800  0.86435500  1
  Ni  Ni19  1  0.62145200  0.13564500  0.62145200  1
  B  B0  1  0.27620400  0.27620400  0.72379600  1
  B  B1  1  0.27620400  0.72379600  0.72379600  1
  B  B2  1  0.72379600  0.27620400  0.27620400  1
  B  B3  1  0.27620400  0.72379600  0.27620400  1
  B  B4  1  0.72379600  0.27620400  0.72379600  1
  B  B5  1  0.72379600  0.72379600  0.27620400  1
  B  B6  1  0.81013000  0.56960900  0.81013000  1
  B  B7  1  0.18987000  0.18987000  0.43039100  1
  B  B8  1  0.43039100  0.18987000  0.18987000  1
  B  B9  1  0.18987000  0.18987000  0.18987000  1
  B  B10  1  0.56960900  0.81013000  0.81013000  1
  B  B11  1  0.81013000  0.81013000  0.81013000  1
  B  B12  1  0.81013000  0.81013000  0.56960900  1
  B  B13  1  0.18987000  0.43039100  0.18987000  1
loop_
_geom_bond_atom_site_label_1
_geom_bond_atom_site_label_2
_geom_bond_distance
_geom_bond_site_symmetry_2
Al0 Ni4 2.518111 1_555
Al0 Ni9 2.518111 1_455
Al0 Ni0 2.518111 1_545
Al0 Ni11 2.518111 1_455
Al0 Ni6 2.518111 1_554
Al0 Ni2 2.518111 1_555
Al0 Ni1 2.518111 1_545
Al0 Ni8 2.518111 1_555
Al0 Ni10 2.518111 1_554
Al0 Ni7 2.518111 1_455
Al0 Ni3 2.518111 1_554
Al0 Ni5 2.518111 1_545
B0 Ni2 2.126717 1_556
B0 Ni8 2.126717 1_556
B0 Ni6 2.126717 1_555
B0 Ni10 2.126717 1_555
B0 Ni18 2.130762 1_555
B0 Ni14 2.130767 1_555
B0 Ni19 2.130767 1_555
B0 Ni17 2.130768 1_555
B1 Ni6 2.126717 1_565
B1 Ni0 2.126717 1_556
B1 Ni5 2.126717 1_556
B1 Ni3 2.126717 1_565
B1 Ni14 2.130762 1_555
B1 Ni18 2.130767 1_555
B1 Ni12 2.130767 1_555
B1 Ni15 2.130768 1_555
B2 Ni4 2.126717 1_655
B2 Ni11 2.126717 1_555
B2 Ni8 2.126717 1_655
B2 Ni9 2.126717 1_555
B2 Ni16 2.130762 1_555
B2 Ni13 2.130767 1_555
B2 Ni19 2.130767 1_555
B2 Ni17 2.130768 1_555
B3 Ni0 2.126717 1_555
B3 Ni1 2.126717 1_555
B3 Ni2 2.126717 1_565
B3 Ni4 2.126717 1_565
B3 Ni12 2.130762 1_555
B3 Ni14 2.130767 1_555
B3 Ni13 2.130767 1_555
B3 Ni17 2.130768 1_555
B4 Ni11 2.126717 1_556
B4 Ni10 2.126717 1_655
B4 Ni3 2.126717 1_655
B4 Ni7 2.126717 1_556
B4 Ni19 2.130762 1_555
B4 Ni18 2.130767 1_555
B4 Ni16 2.130767 1_555
B4 Ni15 2.130768 1_555
B5 Ni9 2.126717 1_565
B5 Ni1 2.126717 1_655
B5 Ni7 2.126717 1_565
B5 Ni5 2.126717 1_655
B5 Ni13 2.130762 1_555
B5 Ni12 2.130767 1_555
B5 Ni16 2.130767 1_555
B5 Ni15 2.130768 1_555
B6 Ni11 2.052408 1_556
B6 Ni10 2.052408 1_655
B6 Ni8 2.052413 1_656
B6 Ni15 2.259742 1_555
B6 Ni13 2.259755 1_556
B6 Ni14 2.259755 1_655
B7 B8 1.812497 1_555
B7 B9 1.812497 1_555
B7 Ni6 2.052408 1_555
B7 Ni10 2.052408 1_555
B7 Ni3 2.052413 1_555
B7 Ni17 2.259742 1_555
B7 Ni12 2.259755 1_545
B7 Ni16 2.259755 1_455
B8 B9 1.812497 1_555
B8 Ni9 2.052408 1_555
B8 Ni11 2.052408 1_555
B8 Ni7 2.052413 1_555
B8 Ni17 2.259742 1_555
B8 Ni18 2.259755 1_554
B8 Ni12 2.259755 1_545
B9 Ni4 2.052414 1_555
B9 Ni8 2.052414 1_555
B9 Ni2 2.052414 1_555
B9 Ni12 2.259748 1_545
B9 Ni18 2.259748 1_554
B9 Ni16 2.259748 1_455
B10 B11 1.812497 1_555
B10 B12 1.812497 1_555
B10 B6 1.812497 1_555
B10 Ni0 2.052408 1_556
B10 Ni6 2.052408 1_565
B10 Ni2 2.052413 1_566
B10 Ni15 2.259742 1_555
B10 Ni13 2.259755 1_556
B10 Ni19 2.259755 1_565
B11 B12 1.812497 1_555
B11 B6 1.812497 1_555
B11 Ni7 2.052414 1_566
B11 Ni3 2.052414 1_665
B11 Ni5 2.052414 1_656
B11 Ni14 2.259748 1_655
B11 Ni13 2.259748 1_556
B11 Ni19 2.259748 1_565
B12 B6 1.812497 1_555
B12 Ni1 2.052408 1_655
B12 Ni9 2.052408 1_565
B12 Ni4 2.052413 1_665
B12 Ni15 2.259742 1_555
B12 Ni19 2.259755 1_565
B12 Ni14 2.259755 1_655
B13 B7 1.812497 1_555
B13 B8 1.812497 1_555
B13 B9 1.812497 1_555
B13 Ni0 2.052408 1_555
B13 Ni1 2.052408 1_555
B13 Ni5 2.052413 1_555
B13 Ni17 2.259742 1_555
B13 Ni18 2.259755 1_554
B13 Ni16 2.259755 1_455
