# generated using pymatgen
data_BaAlBO3F2
_symmetry_space_group_name_H-M   'P 1'
_cell_length_a   4.88060763
_cell_length_b   4.88060875
_cell_length_c   9.38515641
_cell_angle_alpha   90.00000000
_cell_angle_beta   90.00000000
_cell_angle_gamma   119.99999237
_symmetry_Int_Tables_number   1
_chemical_formula_structural   BaAlBO3F2
_chemical_formula_sum   'Ba2 Al2 B2 O6 F4'
_cell_volume   193.60656014
_cell_formula_units_Z   2
loop_
 _symmetry_equiv_pos_site_id
 _symmetry_equiv_pos_as_xyz
  1  'x, y, z'
loop_
 _atom_site_type_symbol
 _atom_site_label
 _atom_site_symmetry_multiplicity
 _atom_site_fract_x
 _atom_site_fract_y
 _atom_site_fract_z
 _atom_site_occupancy
  Ba  Ba0  1  0.00000000  -0.00000000  0.75000278  1
  Ba  Ba1  1  0.00000000  0.00000000  0.24999722  1
  Al  Al0  1  0.66666700  0.33333300  0.00000000  1
  Al  Al1  1  0.33333300  0.66666700  0.50000000  1
  B  B0  1  0.33333300  0.66666700  0.00000000  1
  B  B1  1  0.66666700  0.33333300  0.50000000  1
  O  O0  1  0.38300666  0.05499991  0.50000000  1
  O  O1  1  0.32800291  0.94500124  0.00000000  1
  O  O2  1  0.67199326  0.61699334  0.50000000  1
  O  O3  1  0.61699733  0.67199709  0.00000000  1
  O  O4  1  0.05499876  0.38300267  0.00000000  1
  O  O5  1  0.94500009  0.32800674  0.50000000  1
  F  F0  1  0.66666700  0.33333300  0.80399394  1
  F  F1  1  0.33333300  0.66666700  0.69600480  1
  F  F2  1  0.33333300  0.66666700  0.30399520  1
  F  F3  1  0.66666700  0.33333300  0.19600706  1
loop_
_geom_bond_atom_site_label_1
_geom_bond_atom_site_label_2
_geom_bond_distance
_geom_bond_site_symmetry_2
Ba0 F0 2.863015 1_455
Ba0 F0 2.863019 1_555
Ba0 F0 2.863020 1_445
Ba0 F1 2.863027 1_545
Ba0 F1 2.863031 1_445
Ba0 F1 2.863031 1_555
Ba0 O1 2.927362 1_546
Ba0 O3 2.927364 1_446
Ba0 O4 2.927365 1_556
Ba0 O0 2.927417 1_555
Ba0 O5 2.927417 1_455
Ba0 O2 2.927417 1_445
Ba1 F3 2.863014 1_455
Ba1 F3 2.863018 1_555
Ba1 F3 2.863018 1_445
Ba1 F2 2.863027 1_545
Ba1 F2 2.863031 1_445
Ba1 F2 2.863031 1_555
Ba1 O1 2.927362 1_545
Ba1 O3 2.927364 1_445
Ba1 O4 2.927365 1_555
Ba1 O0 2.927417 1_555
Ba1 O5 2.927417 1_455
Ba1 O2 2.927417 1_445
Al0 O4 1.786465 1_655
Al0 O1 1.786469 1_545
Al0 O3 1.786475 1_555
Al0 F0 1.839548 1_554
Al0 F3 1.839557 1_555
Al1 O0 1.786463 1_565
Al1 O5 1.786465 1_455
Al1 O2 1.786467 1_555
Al1 F1 1.839536 1_555
Al1 F2 1.839536 1_555
B0 O3 1.371632 1_555
B0 O1 1.371633 1_555
B0 O4 1.371633 1_555
B1 O5 1.371617 1_555
B1 O0 1.371620 1_555
B1 O2 1.371622 1_555
