# generated using pymatgen
data_BaLiZr2F11
_symmetry_space_group_name_H-M   'P 1'
_cell_length_a   8.06891644
_cell_length_b   8.06891644
_cell_length_c   8.06891644
_cell_angle_alpha   119.04932788
_cell_angle_beta   119.04932788
_cell_angle_gamma   91.65465362
_symmetry_Int_Tables_number   1
_chemical_formula_structural   BaLiZr2F11
_chemical_formula_sum   'Ba2 Li2 Zr4 F22'
_cell_volume   376.64383672
_cell_formula_units_Z   2
loop_
 _symmetry_equiv_pos_site_id
 _symmetry_equiv_pos_as_xyz
  1  'x, y, z'
loop_
 _atom_site_type_symbol
 _atom_site_label
 _atom_site_symmetry_multiplicity
 _atom_site_fract_x
 _atom_site_fract_y
 _atom_site_fract_z
 _atom_site_occupancy
  Ba  Ba0  1  0.19480802  0.19480802  -0.00000000  1
  Ba  Ba1  1  0.80519198  0.80519198  0.00000000  1
  Li  Li0  1  0.75000000  0.25000000  0.50000000  1
  Li  Li1  1  0.25000000  0.75000000  0.50000000  1
  Zr  Zr0  1  0.63751907  0.21430330  0.85182237  1
  Zr  Zr1  1  0.78569670  0.63751907  0.42321676  1
  Zr  Zr2  1  0.36248093  0.78569670  0.14817763  1
  Zr  Zr3  1  0.21430330  0.36248093  0.57678324  1
  F  F0  1  0.81079975  0.53194821  0.13296052  1
  F  F1  1  0.81135557  0.88172009  0.69307566  1
  F  F2  1  0.05455001  0.83878580  0.56374198  1
  F  F3  1  0.16121420  0.72495618  0.21576321  1
  F  F4  1  0.53194821  0.39898769  0.72114745  1
  F  F5  1  0.67783923  0.81079975  0.27885255  1
  F  F6  1  0.49080703  0.05455001  0.21576321  1
  F  F7  1  0.60101231  0.32216077  0.13296052  1
  F  F8  1  0.50919297  0.94544999  0.78423679  1
  F  F9  1  0.11827991  0.81135557  0.92963548  1
  F  F10  1  0.50000000  0.00000000  0.50000000  1
  F  F11  1  0.88172009  0.18864443  0.07036452  1
  F  F12  1  0.94544999  0.16121420  0.43625802  1
  F  F13  1  0.46805179  0.60101231  0.27885255  1
  F  F14  1  0.39898769  0.67783923  0.86703948  1
  F  F15  1  0.18920025  0.46805179  0.86703948  1
  F  F16  1  0.32216077  0.18920025  0.72114745  1
  F  F17  1  0.83878580  0.27504382  0.78423679  1
  F  F18  1  0.00000000  0.50000000  0.50000000  1
  F  F19  1  0.72495618  0.50919297  0.56374198  1
  F  F20  1  0.18864443  0.11827991  0.30692434  1
  F  F21  1  0.27504382  0.49080703  0.43625802  1
loop_
_geom_bond_atom_site_label_1
_geom_bond_atom_site_label_2
_geom_bond_distance
_geom_bond_site_symmetry_2
Ba0 F6 2.836843 1_555
Ba0 F21 2.836849 1_555
Ba0 F17 2.836849 1_454
Ba0 F2 2.836851 1_544
Ba0 F1 2.849563 1_444
Ba0 F11 2.849563 1_455
Ba0 F9 2.849563 1_544
Ba0 F20 2.849563 1_555
Ba0 F13 2.875728 1_555
Ba0 F7 2.875729 1_555
Ba0 F15 2.875729 1_554
Ba0 F16 2.875737 1_554
Ba1 F8 2.836843 1_554
Ba1 F19 2.836849 1_554
Ba1 F3 2.836849 1_655
Ba1 F12 2.836851 1_565
Ba1 F9 2.849563 1_654
Ba1 F20 2.849563 1_665
Ba1 F11 2.849563 1_565
Ba1 F1 2.849563 1_554
Ba1 F4 2.875728 1_554
Ba1 F0 2.875729 1_555
Ba1 F14 2.875729 1_554
Ba1 F5 2.875737 1_555
F0 Zr0 2.176392 1_554
F0 Zr1 2.187484 1_555
F1 Zr1 2.009682 1_555
F2 Li1 1.939085 1_555
F2 Zr1 2.061236 1_455
F3 Li1 1.939092 1_555
F3 Zr2 2.061227 1_555
F4 Zr3 2.176392 1_555
F4 Zr0 2.187481 1_555
F5 Zr1 2.176392 1_555
F5 Zr2 2.187475 1_555
F6 Li0 1.939091 1_555
F6 Zr2 2.061234 1_545
F7 Zr0 2.176392 1_554
F7 Zr1 2.187478 1_555
F8 Li1 1.939091 1_555
F8 Zr0 2.061234 1_565
F9 Zr2 2.009686 1_556
F10 Zr0 2.084056 1_555
F10 Zr2 2.084056 1_545
F11 Zr0 2.009686 1_554
F12 Li0 1.939085 1_555
F12 Zr3 2.061236 1_655
F13 Zr1 2.176392 1_555
F13 Zr2 2.187481 1_555
F14 Zr2 2.176392 1_556
F14 Zr3 2.187478 1_555
F15 Zr2 2.176392 1_556
F15 Zr3 2.187484 1_555
F16 Zr3 2.176392 1_555
F16 Zr0 2.187475 1_555
F17 Li0 1.939092 1_555
F17 Zr0 2.061227 1_555
F18 Zr3 2.084055 1_555
F18 Zr1 2.084055 1_455
F19 Li0 1.939092 1_555
F19 Zr1 2.061220 1_555
F20 Zr3 2.009682 1_555
F21 Li1 1.939092 1_555
F21 Zr3 2.061220 1_555
