# generated using pymatgen
data_LiNb3InCl9
_symmetry_space_group_name_H-M   'P 1'
_cell_length_a   9.40361069
_cell_length_b   9.46056400
_cell_length_c   9.47128904
_cell_angle_alpha   119.24997693
_cell_angle_beta   104.87970447
_cell_angle_gamma   96.80534051
_symmetry_Int_Tables_number   1
_chemical_formula_structural   LiNb3InCl9
_chemical_formula_sum   'Li2 Nb6 In2 Cl18'
_cell_volume   680.12409936
_cell_formula_units_Z   2
loop_
 _symmetry_equiv_pos_site_id
 _symmetry_equiv_pos_as_xyz
  1  'x, y, z'
loop_
 _atom_site_type_symbol
 _atom_site_label
 _atom_site_symmetry_multiplicity
 _atom_site_fract_x
 _atom_site_fract_y
 _atom_site_fract_z
 _atom_site_occupancy
  Li  Li0  1  0.61797100  0.04802300  0.18870700  1
  Li  Li1  1  0.38202900  0.95197700  0.81129300  1
  Nb  Nb0  1  0.13946800  0.57137700  0.24666300  1
  Nb  Nb1  1  0.86053200  0.42862300  0.75333700  1
  Nb  Nb2  1  0.13225100  0.34525700  0.89241300  1
  Nb  Nb3  1  0.85781400  0.29953500  0.97879700  1
  Nb  Nb4  1  0.86774900  0.65474300  0.10758700  1
  Nb  Nb5  1  0.14218600  0.70046500  0.02120300  1
  In  In0  1  0.34302100  0.26803100  0.48431700  1
  In  In1  1  0.65697900  0.73196900  0.51568300  1
  Cl  Cl0  1  0.00274100  0.65211700  0.73431900  1
  Cl  Cl1  1  0.67989100  0.59817100  0.83409200  1
  Cl  Cl2  1  0.33258600  0.96255700  0.05708700  1
  Cl  Cl3  1  0.98779400  0.08175000  0.84946100  1
  Cl  Cl4  1  0.00817500  0.76298900  0.41608200  1
  Cl  Cl5  1  0.67003200  0.33670100  0.43917700  1
  Cl  Cl6  1  0.32223600  0.55537600  0.90032300  1
  Cl  Cl7  1  0.32010900  0.40182900  0.16590800  1
  Cl  Cl8  1  0.29989100  0.15453200  0.75211500  1
  Cl  Cl9  1  0.99725900  0.34788300  0.26568100  1
  Cl  Cl10  1  0.67776400  0.44462400  0.09967700  1
  Cl  Cl11  1  0.66921000  0.17654700  0.68169500  1
  Cl  Cl12  1  0.70010900  0.84546800  0.24788500  1
  Cl  Cl13  1  0.01220600  0.91825000  0.15053900  1
  Cl  Cl14  1  0.99182500  0.23701100  0.58391800  1
  Cl  Cl15  1  0.32996800  0.66329900  0.56082300  1
  Cl  Cl16  1  0.66741400  0.03744300  0.94291300  1
  Cl  Cl17  1  0.33079000  0.82345300  0.31830500  1
loop_
_geom_bond_atom_site_label_1
_geom_bond_atom_site_label_2
_geom_bond_distance
_geom_bond_site_symmetry_2
Cl0 Nb1 2.473288 1_455
Cl0 Nb5 2.474891 1_556
Cl1 Nb1 2.481425 1_555
Cl1 Nb4 2.487574 1_556
Cl2 Li1 2.446409 1_554
Cl2 Li0 2.488442 1_565
Cl2 Nb5 2.698358 1_555
Cl3 Nb3 2.477700 1_555
Cl3 Nb2 2.479521 1_655
Cl4 Nb0 2.467889 1_555
Cl4 Nb4 2.470531 1_455
Cl5 Li0 2.466036 1_555
Cl5 Nb1 2.680205 1_555
Cl6 Nb5 2.464164 1_556
Cl6 Nb2 2.468391 1_555
Cl7 Nb0 2.481425 1_555
Cl7 Nb2 2.487574 1_554
Cl8 Li1 2.400197 1_545
Cl8 Nb2 2.629337 1_555
Cl9 Nb0 2.473288 1_655
Cl9 Nb3 2.474891 1_554
Cl10 Nb3 2.464164 1_554
Cl10 Nb4 2.468391 1_555
Cl11 Nb1 2.481792 1_555
Cl11 Nb3 2.483101 1_555
Cl12 Li0 2.400197 1_565
Cl12 Nb4 2.629337 1_555
Cl13 Nb5 2.477700 1_555
Cl13 Nb4 2.479521 1_455
Cl14 Nb1 2.467889 1_555
Cl14 Nb2 2.470531 1_655
Cl15 Li1 2.466036 1_555
Cl15 Nb0 2.680205 1_555
Cl16 Li0 2.446409 1_556
Cl16 Li1 2.488442 1_545
Cl16 Nb3 2.698358 1_555
Cl17 Nb0 2.481792 1_555
Cl17 Nb5 2.483101 1_555
