# generated using pymatgen
data_K2Ag4Pt3(NO2)12
_symmetry_space_group_name_H-M   'P 1'
_cell_length_a   24.14078600
_cell_length_b   7.28633200
_cell_length_c   9.82806589
_cell_angle_alpha   52.08303077
_cell_angle_beta   90.00000000
_cell_angle_gamma   90.00000000
_symmetry_Int_Tables_number   1
_chemical_formula_structural   K2Ag4Pt3(NO2)12
_chemical_formula_sum   'K4 Ag8 Pt6 N24 O48'
_cell_volume   1363.80269321
_cell_formula_units_Z   2
loop_
 _symmetry_equiv_pos_site_id
 _symmetry_equiv_pos_as_xyz
  1  'x, y, z'
loop_
 _atom_site_type_symbol
 _atom_site_label
 _atom_site_symmetry_multiplicity
 _atom_site_fract_x
 _atom_site_fract_y
 _atom_site_fract_z
 _atom_site_occupancy
  K  K0  1  0.63403800  0.66880300  0.93577000  1
  K  K1  1  0.86596200  0.66880300  0.43577000  1
  K  K2  1  0.36596200  0.33119700  0.06423000  1
  K  K3  1  0.13403800  0.33119700  0.56423000  1
  Ag  Ag0  1  0.52616100  0.23405000  0.39399200  1
  Ag  Ag1  1  0.81736300  0.42664800  0.18376100  1
  Ag  Ag2  1  0.47383900  0.76595000  0.60600800  1
  Ag  Ag3  1  0.31736300  0.57335200  0.31623900  1
  Ag  Ag4  1  0.68263700  0.42664800  0.68376100  1
  Ag  Ag5  1  0.18263700  0.57335200  0.81623900  1
  Ag  Ag6  1  0.02616100  0.76595000  0.10600800  1
  Ag  Ag7  1  0.97383900  0.23405000  0.89399200  1
  Pt  Pt0  1  0.32397900  0.17811400  0.70706400  1
  Pt  Pt1  1  0.00000000  0.00000000  0.50000000  1
  Pt  Pt2  1  0.82397900  0.82188600  0.79293600  1
  Pt  Pt3  1  0.67602100  0.82188600  0.29293600  1
  Pt  Pt4  1  0.50000000  0.00000000  0.00000000  1
  Pt  Pt5  1  0.17602100  0.17811400  0.20706400  1
  N  N0  1  0.26650000  0.92766700  0.77898100  1
  N  N1  1  0.76650000  0.07233300  0.72101900  1
  N  N2  1  0.37730400  0.02294000  0.64231600  1
  N  N3  1  0.27048300  0.33282900  0.76853700  1
  N  N4  1  0.22951700  0.33282900  0.26853700  1
  N  N5  1  0.38294800  0.42386900  0.64431000  1
  N  N6  1  0.56802000  0.21320900  0.90402700  1
  N  N7  1  0.11705200  0.42386900  0.14431000  1
  N  N8  1  0.06802000  0.78679100  0.59597300  1
  N  N9  1  0.93198000  0.21320900  0.40402700  1
  N  N10  1  0.62269600  0.97706000  0.35768400  1
  N  N11  1  0.00522500  0.98859500  0.71335300  1
  N  N12  1  0.73350000  0.07233300  0.22101900  1
  N  N13  1  0.61705200  0.57613100  0.35569000  1
  N  N14  1  0.50522500  0.01140500  0.78664700  1
  N  N15  1  0.12269600  0.02294000  0.14231600  1
  N  N16  1  0.49477500  0.98859500  0.21335300  1
  N  N17  1  0.43198000  0.78679100  0.09597300  1
  N  N18  1  0.87730400  0.97706000  0.85768400  1
  N  N19  1  0.23350000  0.92766700  0.27898100  1
  N  N20  1  0.72951700  0.66717100  0.23146300  1
  N  N21  1  0.88294800  0.57613100  0.85569000  1
  N  N22  1  0.99477500  0.01140500  0.28664700  1
  N  N23  1  0.77048300  0.66717100  0.73146300  1
  O  O0  1  0.02223900  0.16265100  0.69857300  1
  O  O1  1  0.41073400  0.40979100  0.75777900  1
  O  O2  1  0.60979200  0.40705400  0.51118500  1
  O  O3  1  0.89020800  0.40705400  0.01118500  1
  O  O4  1  0.08926600  0.40979100  0.25777900  1
  O  O5  1  0.22775600  0.73424600  0.42157400  1
  O  O6  1  0.39020800  0.59294600  0.48881500  1
  O  O7  1  0.49230900  0.19453600  0.64152700  1
  O  O8  1  0.00769100  0.19453600  0.14152700  1
  O  O9  1  0.93518100  0.41661000  0.35349200  1
  O  O10  1  0.89754500  0.17255500  0.74020600  1
  O  O11  1  0.97776100  0.83734900  0.30142700  1
  O  O12  1  0.28089400  0.29952500  0.27398400  1
  O  O13  1  0.28808500  0.46659600  0.79748000  1
  O  O14  1  0.78808500  0.53340400  0.70252000  1
  O  O15  1  0.27224400  0.73424600  0.92157400  1
  O  O16  1  0.43518100  0.58339000  0.14650800  1
  O  O17  1  0.58926600  0.59020900  0.24222100  1
  O  O18  1  0.71910600  0.70047500  0.72601600  1
  O  O19  1  0.10979200  0.59294600  0.98881500  1
  O  O20  1  0.52223900  0.83734900  0.80142700  1
  O  O21  1  0.60245500  0.17255500  0.24020600  1
  O  O22  1  0.38721300  0.86563300  0.10679900  1
  O  O23  1  0.56481900  0.41661000  0.85349200  1
  O  O24  1  0.78089400  0.70047500  0.22601600  1
  O  O25  1  0.27360400  0.96763100  0.18311200  1
  O  O26  1  0.21910600  0.29952500  0.77398400  1
  O  O27  1  0.89060200  0.87569000  0.01072200  1
  O  O28  1  0.39754500  0.82744500  0.75979400  1
  O  O29  1  0.91073400  0.59020900  0.74222100  1
  O  O30  1  0.10245500  0.82744500  0.25979400  1
  O  O31  1  0.21191500  0.46659600  0.29748000  1
  O  O32  1  0.99230900  0.80546400  0.85847300  1
  O  O33  1  0.10939800  0.12431000  0.98927800  1
  O  O34  1  0.77360400  0.03236900  0.31688800  1
  O  O35  1  0.22639600  0.96763100  0.68311200  1
  O  O36  1  0.06481900  0.58339000  0.64650800  1
  O  O37  1  0.88721300  0.13436700  0.39320100  1
  O  O38  1  0.39060200  0.12431000  0.48927800  1
  O  O39  1  0.61278700  0.13436700  0.89320100  1
  O  O40  1  0.77224400  0.26575400  0.57842600  1
  O  O41  1  0.11278700  0.86563300  0.60679900  1
  O  O42  1  0.71191500  0.53340400  0.20252000  1
  O  O43  1  0.47776100  0.16265100  0.19857300  1
  O  O44  1  0.72775600  0.26575400  0.07842600  1
  O  O45  1  0.50769100  0.80546400  0.35847300  1
  O  O46  1  0.72639600  0.03236900  0.81688800  1
  O  O47  1  0.60939800  0.87569000  0.51072200  1
loop_
_geom_bond_atom_site_label_1
_geom_bond_atom_site_label_2
_geom_bond_distance
_geom_bond_site_symmetry_2
K0 O18 2.817012 1_555
K0 O42 2.863902 1_556
K0 O17 2.906443 1_556
K0 O20 2.922799 1_555
K0 O23 2.940920 1_555
K0 O21 3.051426 1_556
K0 O46 3.090263 1_565
K0 O39 3.193952 1_565
K0 O44 3.263173 1_556
K1 O24 2.817012 1_555
K1 O14 2.863902 1_555
K1 O29 2.906443 1_555
K1 O11 2.922799 1_555
K1 O9 2.940920 1_555
K1 O10 3.051426 1_555
K1 O34 3.090263 1_565
K1 O37 3.193952 1_565
K1 O40 3.263173 1_555
K2 O12 2.817012 1_555
K2 O13 2.863902 1_554
K2 O1 2.906443 1_554
K2 O43 2.922799 1_555
K2 O16 2.940920 1_555
K2 O28 3.051426 1_554
K2 O25 3.090263 1_545
K2 O22 3.193952 1_545
K2 O15 3.263173 1_554
K3 O26 2.817012 1_555
K3 O31 2.863902 1_555
K3 O4 2.906443 1_555
K3 O0 2.922799 1_555
K3 O36 2.940920 1_555
K3 O30 3.051426 1_555
K3 O35 3.090263 1_545
K3 O41 3.193952 1_545
K3 O5 3.263173 1_555
Ag0 O7 2.410051 1_555
Ag0 O17 2.553963 1_555
Ag0 O43 2.559788 1_555
Ag0 O21 2.590311 1_555
Ag1 O24 2.438585 1_555
Ag1 O37 2.495617 1_555
Ag1 O3 2.507420 1_555
Ag1 O34 2.541921 1_555
Ag1 O42 2.700996 1_555
Ag2 O45 2.410051 1_555
Ag2 O1 2.553963 1_555
Ag2 O20 2.559788 1_555
Ag2 O28 2.590311 1_555
Ag3 O12 2.438585 1_555
Ag3 O22 2.495617 1_555
Ag3 O6 2.507420 1_555
Ag3 O25 2.541921 1_555
Ag3 O31 2.700996 1_555
Ag4 O18 2.438585 1_555
Ag4 O39 2.495617 1_555
Ag4 O2 2.507420 1_555
Ag4 O46 2.541921 1_555
Ag4 O14 2.700996 1_555
Ag5 O26 2.438585 1_555
Ag5 O41 2.495617 1_555
Ag5 O19 2.507420 1_555
Ag5 O35 2.541921 1_555
Ag5 O13 2.700996 1_555
Ag6 O32 2.410051 1_454
Ag6 O4 2.553963 1_555
Ag6 O11 2.559788 1_455
Ag6 O30 2.590311 1_555
Ag7 O8 2.410051 1_656
Ag7 O29 2.553963 1_555
Ag7 O0 2.559788 1_655
Ag7 O10 2.590311 1_555
N0 O15 1.241766 1_555
N0 O35 1.254051 1_555
N0 Pt0 2.042008 1_565
N1 O40 1.241766 1_555
N1 O46 1.254051 1_555
N1 Pt2 2.042008 1_545
N2 O38 1.243164 1_555
N2 O28 1.256797 1_545
N2 Pt0 2.055418 1_555
N3 O13 1.245877 1_555
N3 O26 1.258604 1_555
N3 Pt0 2.034870 1_555
N4 O31 1.245877 1_555
N4 O12 1.258604 1_555
N4 Pt5 2.034870 1_555
N5 O1 1.250399 1_555
N5 O6 1.252984 1_555
N5 Pt0 2.063008 1_555
N6 O23 1.242756 1_555
N6 O39 1.258727 1_555
N6 Pt4 2.049024 1_556
N7 O4 1.250399 1_555
N7 O19 1.252984 1_554
N7 Pt5 2.063008 1_555
N8 O36 1.242756 1_555
N8 O41 1.258727 1_555
N8 Pt1 2.049024 1_565
N9 O9 1.242756 1_555
N9 O37 1.258727 1_555
N9 Pt1 2.049024 1_655
N10 O47 1.243164 1_555
N10 O21 1.256797 1_565
N10 Pt3 2.055418 1_555
N11 O0 1.253711 1_565
N11 O32 1.254153 1_455
N11 Pt1 2.050713 1_565
N12 O44 1.241766 1_555
N12 O34 1.254051 1_555
N12 Pt3 2.042008 1_545
N13 O17 1.250399 1_555
N13 O2 1.252984 1_555
N13 Pt3 2.063008 1_555
N14 O20 1.253711 1_545
N14 O7 1.254153 1_555
N14 Pt4 2.050713 1_556
N15 O33 1.243164 1_554
N15 O30 1.256797 1_545
N15 Pt5 2.055418 1_555
N16 O43 1.253711 1_565
N16 O45 1.254153 1_555
N16 Pt4 2.050713 1_565
N17 O16 1.242756 1_555
N17 O22 1.258727 1_555
N17 Pt4 2.049024 1_565
N18 O27 1.243164 1_556
N18 O10 1.256797 1_565
N18 Pt2 2.055418 1_555
N19 O5 1.241766 1_555
N19 O25 1.254051 1_555
N19 Pt5 2.042008 1_565
N20 O42 1.245877 1_555
N20 O24 1.258604 1_555
N20 Pt3 2.034870 1_555
N21 O29 1.250399 1_555
N21 O3 1.252984 1_556
N21 Pt2 2.063008 1_555
N22 O11 1.253711 1_545
N22 O8 1.254153 1_655
N22 Pt1 2.050713 1_655
N23 O14 1.245877 1_555
N23 O18 1.258604 1_555
N23 Pt2 2.034870 1_555
