# generated using pymatgen
data_Yb14MnSb11
_symmetry_space_group_name_H-M   'P 1'
_cell_length_a   16.14745604
_cell_length_b   16.14745680
_cell_length_c   16.14745594
_cell_angle_alpha   94.24658479
_cell_angle_beta   117.57927651
_cell_angle_gamma   117.57927686
_symmetry_Int_Tables_number   1
_chemical_formula_structural   Yb14MnSb11
_chemical_formula_sum   'Yb56 Mn4 Sb44'
_cell_volume   3076.91472666
_cell_formula_units_Z   4
loop_
 _symmetry_equiv_pos_site_id
 _symmetry_equiv_pos_as_xyz
  1  'x, y, z'
loop_
 _atom_site_type_symbol
 _atom_site_label
 _atom_site_symmetry_multiplicity
 _atom_site_fract_x
 _atom_site_fract_y
 _atom_site_fract_z
 _atom_site_occupancy
  Yb  Yb0  1  0.64417017  0.39417017  0.25000000  1
  Yb  Yb1  1  0.72951668  0.56673387  0.47720864  1
  Yb  Yb2  1  0.77048332  0.02279136  0.93326613  1
  Yb  Yb3  1  0.14417017  0.75000000  0.89417017  1
  Yb  Yb4  1  0.38323468  0.59819266  0.12913741  1
  Yb  Yb5  1  0.08952523  0.06673387  0.33721718  1
  Yb  Yb6  1  0.85398254  0.98013430  0.37765709  1
  Yb  Yb7  1  0.22951668  0.75230804  0.16278282  1
  Yb  Yb8  1  0.89752279  0.87384824  0.01986570  1
  Yb  Yb9  1  0.39752279  0.51986570  0.37384824  1
  Yb  Yb10  1  0.60247721  0.62234291  0.97632544  1
  Yb  Yb11  1  0.27048332  0.33721718  0.74769196  1
  Yb  Yb12  1  0.38323468  0.28504202  0.25409727  1
  Yb  Yb13  1  0.27048332  0.43326613  0.52279136  1
  Yb  Yb14  1  0.10247721  0.47632544  0.12234291  1
  Yb  Yb15  1  0.85582983  0.25000000  0.10582983  1
  Yb  Yb16  1  0.91047477  0.93326613  0.66278282  1
  Yb  Yb17  1  0.41047477  0.74769196  0.97720864  1
  Yb  Yb18  1  0.35582983  0.25000000  0.60582983  1
  Yb  Yb19  1  0.08952523  0.52279136  0.75230804  1
  Yb  Yb20  1  0.89752279  0.52367456  0.87765709  1
  Yb  Yb21  1  0.03094475  0.74590273  0.62913741  1
  Yb  Yb22  1  0.14601746  0.01986570  0.62234291  1
  Yb  Yb23  1  0.64601746  0.02367456  0.12615176  1
  Yb  Yb24  1  0.14417017  0.89417017  0.25000000  1
  Yb  Yb25  1  0.58952523  0.25230804  0.02279136  1
  Yb  Yb26  1  0.88323468  0.62913741  0.09819266  1
  Yb  Yb27  1  0.77048332  0.24769196  0.83721718  1
  Yb  Yb28  1  0.41047477  0.16278282  0.43326613  1
  Yb  Yb29  1  0.39752279  0.37765709  0.02367456  1
  Yb  Yb30  1  0.03094475  0.78504202  0.40180734  1
  Yb  Yb31  1  0.14601746  0.62615176  0.52367456  1
  Yb  Yb32  1  0.58952523  0.83721718  0.56673387  1
  Yb  Yb33  1  0.85398254  0.37384824  0.47632544  1
  Yb  Yb34  1  0.64417017  0.75000000  0.39417017  1
  Yb  Yb35  1  0.60247721  0.48013430  0.62615176  1
  Yb  Yb36  1  0.53094475  0.90180734  0.28504202  1
  Yb  Yb37  1  0.85582983  0.10582983  0.75000000  1
  Yb  Yb38  1  0.10247721  0.12615176  0.98013430  1
  Yb  Yb39  1  0.11676532  0.24590273  0.21495798  1
  Yb  Yb40  1  0.96905525  0.25409727  0.37086259  1
  Yb  Yb41  1  0.72951668  0.66278282  0.25230804  1
  Yb  Yb42  1  0.91047477  0.47720864  0.24769196  1
  Yb  Yb43  1  0.53094475  0.12913741  0.24590273  1
  Yb  Yb44  1  0.35398254  0.97632544  0.87384824  1
  Yb  Yb45  1  0.96905525  0.21495798  0.59819266  1
  Yb  Yb46  1  0.22951668  0.97720864  0.06673387  1
  Yb  Yb47  1  0.46905525  0.87086259  0.75409727  1
  Yb  Yb48  1  0.61676532  0.71495798  0.74590273  1
  Yb  Yb49  1  0.61676532  0.40180734  0.87086259  1
  Yb  Yb50  1  0.46905525  0.09819266  0.71495798  1
  Yb  Yb51  1  0.35582983  0.60582983  0.75000000  1
  Yb  Yb52  1  0.64601746  0.12234291  0.51986570  1
  Yb  Yb53  1  0.35398254  0.87765709  0.48013430  1
  Yb  Yb54  1  0.88323468  0.75409727  0.78504202  1
  Yb  Yb55  1  0.11676532  0.37086259  0.90180734  1
  Mn  Mn0  1  0.75000000  0.87500000  0.12500000  1
  Mn  Mn1  1  0.25000000  0.12500000  0.87500000  1
  Mn  Mn2  1  0.75000000  0.37500000  0.62500000  1
  Mn  Mn3  1  0.25000000  0.62500000  0.37500000  1
  Sb  Sb0  1  0.88459122  0.30781422  0.70163368  1
  Sb  Sb1  1  0.10618055  0.42322301  0.30781422  1
  Sb  Sb2  1  0.60618055  0.80781422  0.92322301  1
  Sb  Sb3  1  0.52090058  0.51045029  0.26045029  1
  Sb  Sb4  1  0.34341414  0.32250568  0.42712729  1
  Sb  Sb5  1  0.75000000  0.98954971  0.51045029  1
  Sb  Sb6  1  0.25000000  0.01045029  0.48954971  1
  Sb  Sb7  1  0.60462160  0.08371314  0.92712729  1
  Sb  Sb8  1  0.65658586  0.47909154  0.08371314  1
  Sb  Sb9  1  0.38459122  0.68295754  0.57677699  1
  Sb  Sb10  1  0.60618055  0.29836632  0.68295754  1
  Sb  Sb11  1  0.10462160  0.42712729  0.58371314  1
  Sb  Sb12  1  0.47909942  0.48954971  0.73954971  1
  Sb  Sb13  1  0.88459122  0.07677699  0.18295754  1
  Sb  Sb14  1  0.89381945  0.81704246  0.20163368  1
  Sb  Sb15  1  0.84341414  0.92712729  0.82250568  1
  Sb  Sb16  1  0.39537840  0.91628686  0.07287271  1
  Sb  Sb17  1  0.25000000  0.87500000  0.62500000  1
  Sb  Sb18  1  0.39537840  0.97909154  0.32250568  1
  Sb  Sb19  1  0.60462160  0.02090846  0.67749432  1
  Sb  Sb20  1  0.10618055  0.18295754  0.79836632  1
  Sb  Sb21  1  0.11540878  0.92322301  0.81704246  1
  Sb  Sb22  1  0.38459122  0.20163368  0.80781422  1
  Sb  Sb23  1  0.61540878  0.31704246  0.42322301  1
  Sb  Sb24  1  0.39381945  0.70163368  0.31704246  1
  Sb  Sb25  1  0.61540878  0.79836632  0.19218578  1
  Sb  Sb26  1  0.25000000  0.73954971  0.76045029  1
  Sb  Sb27  1  0.75000000  0.62500000  0.87500000  1
  Sb  Sb28  1  0.65658586  0.67749432  0.57287271  1
  Sb  Sb29  1  0.75000000  0.12500000  0.37500000  1
  Sb  Sb30  1  0.89381945  0.57677699  0.69218578  1
  Sb  Sb31  1  0.75000000  0.26045029  0.23954971  1
  Sb  Sb32  1  0.89537840  0.82250568  0.47909154  1
  Sb  Sb33  1  0.15658586  0.07287271  0.17749432  1
  Sb  Sb34  1  0.39381945  0.19218578  0.07677699  1
  Sb  Sb35  1  0.10462160  0.17749432  0.52090846  1
  Sb  Sb36  1  0.15658586  0.58371314  0.97909154  1
  Sb  Sb37  1  0.84341414  0.41628686  0.02090846  1
  Sb  Sb38  1  0.89537840  0.57287271  0.41628686  1
  Sb  Sb39  1  0.25000000  0.37500000  0.12500000  1
  Sb  Sb40  1  0.11540878  0.69218578  0.29836632  1
  Sb  Sb41  1  0.02090058  0.76045029  0.01045029  1
  Sb  Sb42  1  0.97909942  0.23954971  0.98954971  1
  Sb  Sb43  1  0.34341414  0.52090846  0.91628686  1
loop_
_geom_bond_atom_site_label_1
_geom_bond_atom_site_label_2
_geom_bond_distance
_geom_bond_site_symmetry_2
Mn0 Sb2 2.706157 1_554
Mn0 Sb14 2.706157 1_555
Mn0 Sb25 2.706157 1_555
Mn0 Sb13 2.706157 1_565
Mn0 Yb8 3.512513 1_555
Mn0 Yb6 3.512513 1_555
Mn0 Yb10 3.512513 1_554
Mn0 Yb23 3.512513 1_565
Mn1 Sb34 2.706157 1_556
Mn1 Sb20 2.706157 1_555
Mn1 Sb22 2.706157 1_555
Mn1 Sb21 2.706157 1_545
Mn1 Yb38 3.512513 1_555
Mn1 Yb22 3.512513 1_555
Mn1 Yb29 3.512513 1_556
Mn1 Yb44 3.512513 1_545
Mn2 Sb23 2.706157 1_555
Mn2 Sb10 2.706157 1_555
Mn2 Sb30 2.706157 1_555
Mn2 Sb0 2.706157 1_555
Mn2 Yb35 3.512513 1_555
Mn2 Yb20 3.512513 1_555
Mn2 Yb33 3.512513 1_555
Mn2 Yb52 3.512513 1_555
Mn3 Sb9 2.706157 1_555
Mn3 Sb24 2.706157 1_555
Mn3 Sb1 2.706157 1_555
Mn3 Sb40 2.706157 1_555
Mn3 Yb9 3.512513 1_555
Mn3 Yb14 3.512513 1_555
Mn3 Yb31 3.512513 1_555
Mn3 Yb53 3.512513 1_555
Sb0 Yb52 3.157557 1_555
Sb0 Yb19 3.178955 1_655
Sb0 Yb55 3.208933 1_655
Sb0 Yb45 3.245049 1_555
Sb0 Yb37 3.282342 1_555
Sb0 Yb27 3.394752 1_555
Sb0 Yb33 3.743648 1_555
Sb1 Yb14 3.157556 1_555
Sb1 Yb13 3.178955 1_555
Sb1 Yb40 3.208933 1_455
Sb1 Yb39 3.245049 1_555
Sb1 Yb15 3.282342 1_455
Sb1 Yb42 3.394752 1_455
Sb1 Yb9 3.743648 1_555
Sb2 Yb10 3.157556 1_555
Sb2 Yb2 3.178955 1_565
Sb2 Yb47 3.208933 1_555
Sb2 Yb48 3.245049 1_555
Sb2 Yb51 3.282342 1_555
Sb2 Yb17 3.394752 1_555
Sb2 Yb8 3.743648 1_556
Sb3 Yb1 3.193887 1_555
Sb3 Yb41 3.193887 1_555
Sb3 Yb4 3.231349 1_555
Sb3 Yb12 3.231349 1_555
Sb3 Yb29 3.310903 1_555
Sb3 Yb9 3.310903 1_555
Sb3 Yb0 3.352724 1_555
Sb3 Yb34 3.352724 1_555
Sb4 Yb18 3.149534 1_555
Sb4 Yb9 3.191152 1_555
Sb4 Yb13 3.193324 1_555
Sb4 Yb39 3.198791 1_555
Sb4 Yb28 3.218500 1_555
Sb4 Yb12 3.218568 1_555
Sb4 Yb35 3.284380 1_555
Sb4 Yb5 3.727615 1_555
Sb5 Yb16 3.193887 1_555
Sb5 Yb32 3.193887 1_555
Sb5 Yb36 3.231349 1_555
Sb5 Yb45 3.231349 1_565
Sb5 Yb6 3.310903 1_555
Sb5 Yb52 3.310903 1_565
Sb5 Yb37 3.352723 1_565
Sb5 Yb34 3.352724 1_555
Sb6 Yb5 3.193887 1_555
Sb6 Yb28 3.193887 1_555
Sb6 Yb50 3.231349 1_555
Sb6 Yb30 3.231349 1_545
Sb6 Yb22 3.310903 1_555
Sb6 Yb53 3.310903 1_545
Sb6 Yb24 3.352723 1_545
Sb6 Yb18 3.352724 1_555
Sb7 Yb15 3.149534 1_556
Sb7 Yb44 3.191152 1_545
Sb7 Yb25 3.193324 1_556
Sb7 Yb50 3.198791 1_555
Sb7 Yb2 3.218500 1_555
Sb7 Yb47 3.218568 1_545
Sb7 Yb23 3.284379 1_556
Sb7 Yb27 3.727615 1_555
Sb8 Yb0 3.149534 1_555
Sb8 Yb10 3.191152 1_554
Sb8 Yb41 3.193325 1_555
Sb8 Yb26 3.198791 1_555
Sb8 Yb25 3.218500 1_555
Sb8 Yb49 3.218567 1_554
Sb8 Yb29 3.284380 1_555
Sb8 Yb42 3.727615 1_555
Sb9 Yb31 3.157557 1_555
Sb9 Yb32 3.178955 1_555
Sb9 Yb48 3.208933 1_555
Sb9 Yb47 3.245049 1_555
Sb9 Yb51 3.282342 1_555
Sb9 Yb13 3.394752 1_555
Sb9 Yb53 3.743648 1_555
Sb10 Yb35 3.157557 1_555
Sb10 Yb27 3.178955 1_555
Sb10 Yb50 3.208933 1_555
Sb10 Yb49 3.245049 1_555
Sb10 Yb18 3.282342 1_555
Sb10 Yb28 3.394752 1_555
Sb10 Yb20 3.743648 1_555
Sb11 Yb51 3.149534 1_555
Sb11 Yb33 3.191152 1_455
Sb11 Yb19 3.193324 1_555
Sb11 Yb45 3.198791 1_455
Sb11 Yb13 3.218500 1_555
Sb11 Yb40 3.218568 1_455
Sb11 Yb31 3.284380 1_555
Sb11 Yb11 3.727615 1_555
Sb12 Yb13 3.193887 1_555
Sb12 Yb11 3.193887 1_555
Sb12 Yb49 3.231349 1_555
Sb12 Yb48 3.231349 1_555
Sb12 Yb10 3.310903 1_555
Sb12 Yb35 3.310903 1_555
Sb12 Yb51 3.352724 1_555
Sb12 Yb18 3.352724 1_555
Sb13 Yb23 3.157557 1_555
Sb13 Yb5 3.178955 1_655
Sb13 Yb39 3.208933 1_655
Sb13 Yb40 3.245049 1_555
Sb13 Yb15 3.282342 1_555
Sb13 Yb2 3.394752 1_554
Sb13 Yb6 3.743648 1_545
Sb14 Yb8 3.157557 1_555
Sb14 Yb41 3.178955 1_555
Sb14 Yb30 3.208933 1_655
Sb14 Yb26 3.245049 1_555
Sb14 Yb24 3.282342 1_655
Sb14 Yb5 3.394752 1_665
Sb14 Yb10 3.743648 1_554
Sb15 Yb37 3.149534 1_565
Sb15 Yb8 3.191152 1_556
Sb15 Yb2 3.193324 1_565
Sb15 Yb48 3.198791 1_555
Sb15 Yb16 3.218500 1_555
Sb15 Yb54 3.218568 1_555
Sb15 Yb38 3.284380 1_665
Sb15 Yb32 3.727614 1_555
Sb16 Yb3 3.149534 1_554
Sb16 Yb23 3.191152 1_565
Sb16 Yb17 3.193324 1_554
Sb16 Yb36 3.198791 1_555
Sb16 Yb46 3.218500 1_555
Sb16 Yb43 3.218568 1_565
Sb16 Yb44 3.284379 1_554
Sb16 Yb7 3.727615 1_555
Sb17 Yb30 3.205234 1_555
Sb17 Yb47 3.205234 1_555
Sb17 Yb21 3.205234 1_555
Sb17 Yb50 3.205234 1_565
Sb17 Yb44 3.446441 1_555
Sb17 Yb53 3.446441 1_555
Sb17 Yb22 3.446441 1_565
Sb17 Yb31 3.446442 1_555
Sb18 Yb24 3.149534 1_555
Sb18 Yb52 3.191152 1_565
Sb18 Yb28 3.193325 1_565
Sb18 Yb43 3.198791 1_565
Sb18 Yb7 3.218500 1_555
Sb18 Yb36 3.218568 1_555
Sb18 Yb53 3.284380 1_555
Sb18 Yb46 3.727615 1_555
Sb19 Yb37 3.149534 1_555
Sb19 Yb53 3.191152 1_545
Sb19 Yb32 3.193325 1_545
Sb19 Yb47 3.198791 1_545
Sb19 Yb27 3.218500 1_555
Sb19 Yb50 3.218568 1_555
Sb19 Yb52 3.284380 1_555
Sb19 Yb2 3.727615 1_555
Sb20 Yb38 3.157557 1_555
Sb20 Yb11 3.178955 1_555
Sb20 Yb45 3.208933 1_455
Sb20 Yb55 3.245049 1_555
Sb20 Yb37 3.282342 1_455
Sb20 Yb16 3.394752 1_445
Sb20 Yb29 3.743648 1_556
Sb21 Yb44 3.157557 1_555
Sb21 Yb16 3.178955 1_455
Sb21 Yb54 3.208933 1_455
Sb21 Yb21 3.245049 1_555
Sb21 Yb3 3.282342 1_555
Sb21 Yb46 3.394752 1_556
Sb21 Yb22 3.743648 1_565
Sb22 Yb22 3.157557 1_555
Sb22 Yb25 3.178955 1_556
Sb22 Yb49 3.208933 1_555
Sb22 Yb50 3.245049 1_555
Sb22 Yb18 3.282342 1_555
Sb22 Yb11 3.394752 1_555
Sb22 Yb44 3.743648 1_545
Sb23 Yb33 3.157557 1_555
Sb23 Yb28 3.178955 1_555
Sb23 Yb12 3.208933 1_555
Sb23 Yb43 3.245049 1_555
Sb23 Yb0 3.282342 1_555
Sb23 Yb1 3.394752 1_555
Sb23 Yb52 3.743648 1_555
Sb24 Yb9 3.157557 1_555
Sb24 Yb7 3.178955 1_555
Sb24 Yb36 3.208933 1_555
Sb24 Yb4 3.245049 1_555
Sb24 Yb34 3.282342 1_555
Sb24 Yb32 3.394752 1_555
Sb24 Yb14 3.743648 1_555
Sb25 Yb6 3.157557 1_555
Sb25 Yb17 3.178955 1_554
Sb25 Yb4 3.208933 1_555
Sb25 Yb36 3.245049 1_555
Sb25 Yb34 3.282342 1_555
Sb25 Yb41 3.394752 1_555
Sb25 Yb23 3.743648 1_565
Sb26 Yb17 3.193887 1_555
Sb26 Yb19 3.193887 1_555
Sb26 Yb21 3.231349 1_555
Sb26 Yb47 3.231349 1_555
Sb26 Yb31 3.310902 1_555
Sb26 Yb44 3.310903 1_555
Sb26 Yb3 3.352723 1_555
Sb26 Yb51 3.352724 1_555
Sb27 Yb26 3.205234 1_556
Sb27 Yb54 3.205234 1_555
Sb27 Yb48 3.205234 1_555
Sb27 Yb49 3.205234 1_555
Sb27 Yb10 3.446441 1_555
Sb27 Yb20 3.446441 1_555
Sb27 Yb35 3.446441 1_555
Sb27 Yb8 3.446442 1_556
Sb28 Yb34 3.149534 1_555
Sb28 Yb35 3.191152 1_555
Sb28 Yb1 3.193324 1_555
Sb28 Yb54 3.198791 1_555
Sb28 Yb32 3.218500 1_555
Sb28 Yb48 3.218568 1_555
Sb28 Yb9 3.284380 1_555
Sb28 Yb16 3.727615 1_555
Sb29 Yb45 3.205234 1_555
Sb29 Yb43 3.205234 1_555
Sb29 Yb40 3.205234 1_555
Sb29 Yb36 3.205234 1_545
Sb29 Yb23 3.446441 1_555
Sb29 Yb52 3.446441 1_555
Sb29 Yb6 3.446441 1_545
Sb29 Yb33 3.446442 1_555
Sb30 Yb20 3.157556 1_555
Sb30 Yb1 3.178955 1_555
Sb30 Yb21 3.208933 1_655
Sb30 Yb54 3.245049 1_555
Sb30 Yb3 3.282342 1_655
Sb30 Yb19 3.394752 1_655
Sb30 Yb35 3.743648 1_555
Sb31 Yb25 3.193887 1_555
Sb31 Yb42 3.193887 1_555
Sb31 Yb40 3.231349 1_555
Sb31 Yb43 3.231349 1_555
Sb31 Yb33 3.310902 1_555
Sb31 Yb23 3.310903 1_555
Sb31 Yb15 3.352723 1_555
Sb31 Yb0 3.352724 1_555
Sb32 Yb34 3.149534 1_555
Sb32 Yb22 3.191152 1_665
Sb32 Yb16 3.193325 1_555
Sb32 Yb21 3.198791 1_655
Sb32 Yb41 3.218500 1_555
Sb32 Yb30 3.218567 1_655
Sb32 Yb6 3.284380 1_555
Sb32 Yb1 3.727615 1_555
Sb33 Yb24 3.149534 1_545
Sb33 Yb38 3.191152 1_554
Sb33 Yb46 3.193324 1_545
Sb33 Yb12 3.198791 1_555
Sb33 Yb5 3.218500 1_555
Sb33 Yb39 3.218568 1_555
Sb33 Yb8 3.284380 1_445
Sb33 Yb28 3.727614 1_555
Sb34 Yb29 3.157556 1_555
Sb34 Yb46 3.178955 1_545
Sb34 Yb43 3.208933 1_555
Sb34 Yb12 3.245049 1_555
Sb34 Yb0 3.282342 1_555
Sb34 Yb25 3.394752 1_555
Sb34 Yb38 3.743648 1_554
Sb35 Yb18 3.149534 1_555
Sb35 Yb6 3.191152 1_445
Sb35 Yb5 3.193325 1_555
Sb35 Yb40 3.198791 1_455
Sb35 Yb11 3.218500 1_555
Sb35 Yb45 3.218567 1_455
Sb35 Yb22 3.284380 1_555
Sb35 Yb13 3.727615 1_555
Sb36 Yb3 3.149534 1_555
Sb36 Yb14 3.191152 1_556
Sb36 Yb7 3.193325 1_556
Sb36 Yb4 3.198791 1_556
Sb36 Yb19 3.218500 1_555
Sb36 Yb55 3.218568 1_555
Sb36 Yb20 3.284380 1_455
Sb36 Yb17 3.727615 1_555
Sb37 Yb15 3.149534 1_555
Sb37 Yb20 3.191152 1_554
Sb37 Yb27 3.193325 1_554
Sb37 Yb49 3.198791 1_554
Sb37 Yb42 3.218500 1_555
Sb37 Yb26 3.218568 1_555
Sb37 Yb14 3.284380 1_655
Sb37 Yb25 3.727615 1_555
Sb38 Yb0 3.149534 1_555
Sb38 Yb31 3.191152 1_655
Sb38 Yb42 3.193324 1_555
Sb38 Yb30 3.198791 1_655
Sb38 Yb1 3.218500 1_555
Sb38 Yb21 3.218568 1_655
Sb38 Yb33 3.284380 1_555
Sb38 Yb41 3.727615 1_555
Sb39 Yb55 3.205234 1_554
Sb39 Yb39 3.205234 1_555
Sb39 Yb12 3.205234 1_555
Sb39 Yb4 3.205234 1_555
Sb39 Yb29 3.446441 1_555
Sb39 Yb14 3.446441 1_555
Sb39 Yb9 3.446441 1_555
Sb39 Yb38 3.446442 1_554
Sb40 Yb53 3.157557 1_555
Sb40 Yb42 3.178955 1_455
Sb40 Yb26 3.208933 1_455
Sb40 Yb30 3.245049 1_555
Sb40 Yb24 3.282342 1_555
Sb40 Yb7 3.394752 1_555
Sb40 Yb31 3.743648 1_555
Sb41 Yb7 3.193887 1_555
Sb41 Yb46 3.193887 1_555
Sb41 Yb54 3.231349 1_454
Sb41 Yb26 3.231349 1_455
Sb41 Yb20 3.310903 1_454
Sb41 Yb8 3.310903 1_455
Sb41 Yb3 3.352723 1_554
Sb41 Yb24 3.352723 1_555
Sb42 Yb27 3.193887 1_555
Sb42 Yb2 3.193887 1_555
Sb42 Yb39 3.231349 1_656
Sb42 Yb55 3.231349 1_655
Sb42 Yb14 3.310903 1_656
Sb42 Yb38 3.310903 1_655
Sb42 Yb15 3.352723 1_556
Sb42 Yb37 3.352723 1_555
Sb43 Yb51 3.149534 1_555
Sb43 Yb29 3.191152 1_556
Sb43 Yb11 3.193325 1_555
Sb43 Yb55 3.198791 1_555
Sb43 Yb17 3.218500 1_555
Sb43 Yb4 3.218567 1_556
Sb43 Yb10 3.284380 1_555
Sb43 Yb19 3.727615 1_555
