# generated using pymatgen
data_EuFeO3
_symmetry_space_group_name_H-M   'P 1'
_cell_length_a   5.49831100
_cell_length_b   5.58790000
_cell_length_c   7.79632700
_cell_angle_alpha   90.00000000
_cell_angle_beta   90.00000000
_cell_angle_gamma   90.00000000
_symmetry_Int_Tables_number   1
_chemical_formula_structural   EuFeO3
_chemical_formula_sum   'Eu4 Fe4 O12'
_cell_volume   239.53444459
_cell_formula_units_Z   4
loop_
 _symmetry_equiv_pos_site_id
 _symmetry_equiv_pos_as_xyz
  1  'x, y, z'
loop_
 _atom_site_type_symbol
 _atom_site_label
 _atom_site_symmetry_multiplicity
 _atom_site_fract_x
 _atom_site_fract_y
 _atom_site_fract_z
 _atom_site_occupancy
  Eu  Eu0  1  0.99218200  0.04345200  0.25000000  1
  Eu  Eu1  1  0.49218200  0.45654800  0.75000000  1
  Eu  Eu2  1  0.50781800  0.54345200  0.25000000  1
  Eu  Eu3  1  0.00781800  0.95654800  0.75000000  1
  Fe  Fe0  1  0.00000000  0.50000000  0.00000000  1
  Fe  Fe1  1  0.50000000  0.00000000  0.00000000  1
  Fe  Fe2  1  0.50000000  0.00000000  0.50000000  1
  Fe  Fe3  1  0.00000000  0.50000000  0.50000000  1
  O  O0  1  0.07940200  0.47851500  0.25000000  1
  O  O1  1  0.57940200  0.02148500  0.75000000  1
  O  O2  1  0.42059800  0.97851500  0.25000000  1
  O  O3  1  0.92059800  0.52148500  0.75000000  1
  O  O4  1  0.70517000  0.29499600  0.04132000  1
  O  O5  1  0.20517000  0.20500400  0.95868000  1
  O  O6  1  0.79483000  0.79499600  0.45868000  1
  O  O7  1  0.29483000  0.70500400  0.54132000  1
  O  O8  1  0.29483000  0.70500400  0.95868000  1
  O  O9  1  0.79483000  0.79499600  0.04132000  1
  O  O10  1  0.20517000  0.20500400  0.54132000  1
  O  O11  1  0.70517000  0.29499600  0.45868000  1
loop_
_geom_bond_atom_site_label_1
_geom_bond_atom_site_label_2
_geom_bond_distance
_geom_bond_site_symmetry_2
Eu0 O2 2.383349 1_645
Eu0 O6 2.398308 1_545
Eu0 O9 2.398308 1_545
Eu0 O0 2.477937 1_655
Eu0 O4 2.667018 1_555
Eu0 O11 2.667018 1_555
Eu0 O5 2.710132 1_654
Eu0 O10 2.710132 1_655
Eu1 O3 2.383349 1_555
Eu1 O7 2.398308 1_555
Eu1 O8 2.398308 1_555
Eu1 O1 2.477937 1_555
Eu1 O5 2.667018 1_555
Eu1 O10 2.667018 1_555
Eu1 O4 2.710132 1_556
Eu1 O11 2.710132 1_555
Eu2 O0 2.383349 1_555
Eu2 O11 2.398308 1_555
Eu2 O4 2.398308 1_555
Eu2 O2 2.477937 1_555
Eu2 O9 2.667018 1_555
Eu2 O6 2.667018 1_555
Eu2 O7 2.710132 1_555
Eu2 O8 2.710132 1_554
Eu3 O1 2.383349 1_465
Eu3 O10 2.398308 1_565
Eu3 O5 2.398308 1_565
Eu3 O3 2.477937 1_455
Eu3 O7 2.667018 1_555
Eu3 O8 2.667018 1_555
Eu3 O9 2.710132 1_456
Eu3 O6 2.710132 1_455
Fe0 O3 2.000983 1_454
Fe0 O0 2.000983 1_555
Fe0 O8 2.010945 1_554
Fe0 O4 2.010945 1_455
Fe0 O9 2.023267 1_455
Fe0 O5 2.023267 1_554
Fe1 O1 2.000983 1_554
Fe1 O2 2.000983 1_545
Fe1 O9 2.010945 1_545
Fe1 O5 2.010945 1_554
Fe1 O4 2.023267 1_555
Fe1 O8 2.023267 1_544
Fe2 O1 2.000983 1_555
Fe2 O2 2.000983 1_545
Fe2 O6 2.010945 1_545
Fe2 O10 2.010945 1_555
Fe2 O11 2.023267 1_555
Fe2 O7 2.023267 1_545
Fe3 O3 2.000983 1_455
Fe3 O0 2.000983 1_555
Fe3 O7 2.010945 1_555
Fe3 O11 2.010945 1_455
Fe3 O10 2.023267 1_555
Fe3 O6 2.023267 1_455
