# generated using pymatgen
data_Nd(CoAs)2
_symmetry_space_group_name_H-M   'P 1'
_cell_length_a   4.04756448
_cell_length_b   4.04756536
_cell_length_c   5.79608228
_cell_angle_alpha   110.43616449
_cell_angle_beta   110.43616480
_cell_angle_gamma   89.99999858
_symmetry_Int_Tables_number   1
_chemical_formula_structural   Nd(CoAs)2
_chemical_formula_sum   'Nd1 Co2 As2'
_cell_volume   82.57180771
_cell_formula_units_Z   1
loop_
 _symmetry_equiv_pos_site_id
 _symmetry_equiv_pos_as_xyz
  1  'x, y, z'
loop_
 _atom_site_type_symbol
 _atom_site_label
 _atom_site_symmetry_multiplicity
 _atom_site_fract_x
 _atom_site_fract_y
 _atom_site_fract_z
 _atom_site_occupancy
  Nd  Nd0  1  0.00000000  0.00000000  0.00000000  1
  Co  Co0  1  0.25000000  0.75000000  0.50000000  1
  Co  Co1  1  0.75000000  0.25000000  0.50000000  1
  As  As0  1  0.36322985  0.36322985  0.72645970  1
  As  As1  1  0.63677015  0.63677015  0.27354030  1
loop_
_geom_bond_atom_site_label_1
_geom_bond_atom_site_label_2
_geom_bond_distance
_geom_bond_site_symmetry_2
Co0 Nd0 3.232103 1_566
Co0 Nd0 3.232103 1_565
Co0 Nd0 3.232104 1_666
Co0 Nd0 3.232104 1_555
Co1 Nd0 3.232103 1_655
Co1 Nd0 3.232103 1_656
Co1 Nd0 3.232104 1_555
Co1 Nd0 3.232104 1_666
As0 Co1 2.323461 1_555
As0 Co0 2.323461 1_555
As0 Co1 2.323461 1_455
As0 Co0 2.323462 1_545
As0 Nd0 3.176817 1_556
As0 Nd0 3.176817 1_656
As0 Nd0 3.176817 1_566
As0 Nd0 3.176818 1_666
As1 Co0 2.323461 1_555
As1 Co1 2.323461 1_555
As1 Co0 2.323461 1_655
As1 Co1 2.323462 1_565
As1 Nd0 3.176817 1_665
As1 Nd0 3.176817 1_565
As1 Nd0 3.176817 1_655
As1 Nd0 3.176818 1_555
