# generated using pymatgen
data_Al2CuSi2O7F2
_symmetry_space_group_name_H-M   'P 1'
_cell_length_a   4.82309900
_cell_length_b   8.96850800
_cell_length_c   14.19470600
_cell_angle_alpha   90.00000000
_cell_angle_beta   90.00000000
_cell_angle_gamma   90.00000000
_symmetry_Int_Tables_number   1
_chemical_formula_structural   Al2CuSi2O7F2
_chemical_formula_sum   'Al8 Cu4 Si8 O28 F8'
_cell_volume   614.00623065
_cell_formula_units_Z   4
loop_
 _symmetry_equiv_pos_site_id
 _symmetry_equiv_pos_as_xyz
  1  'x, y, z'
loop_
 _atom_site_type_symbol
 _atom_site_label
 _atom_site_symmetry_multiplicity
 _atom_site_fract_x
 _atom_site_fract_y
 _atom_site_fract_z
 _atom_site_occupancy
  Al  Al0  1  0.09594900  0.36891000  0.45017600  1
  Al  Al1  1  0.40405100  0.86891000  0.04982400  1
  Al  Al2  1  0.59594900  0.13109000  0.95017600  1
  Al  Al3  1  0.40405100  0.86891000  0.45017600  1
  Al  Al4  1  0.90405100  0.63109000  0.54982400  1
  Al  Al5  1  0.90405100  0.63109000  0.95017600  1
  Al  Al6  1  0.59594900  0.13109000  0.54982400  1
  Al  Al7  1  0.09594900  0.36891000  0.04982400  1
  Cu  Cu0  1  0.35986200  0.85456300  0.25000000  1
  Cu  Cu1  1  0.85986200  0.64543700  0.75000000  1
  Cu  Cu2  1  0.14013800  0.35456300  0.25000000  1
  Cu  Cu3  1  0.64013800  0.14543700  0.75000000  1
  Si  Si0  1  0.59492400  0.56177300  0.35361600  1
  Si  Si1  1  0.90507600  0.06177300  0.35361600  1
  Si  Si2  1  0.09492400  0.93822700  0.85361600  1
  Si  Si3  1  0.40507600  0.43822700  0.85361600  1
  Si  Si4  1  0.40507600  0.43822700  0.64638400  1
  Si  Si5  1  0.90507600  0.06177300  0.14638400  1
  Si  Si6  1  0.09492400  0.93822700  0.64638400  1
  Si  Si7  1  0.59492400  0.56177300  0.14638400  1
  O  O0  1  0.25909200  0.47416700  0.75000000  1
  O  O1  1  0.03165200  0.75744600  0.85390800  1
  O  O2  1  0.53165200  0.74255400  0.35390800  1
  O  O3  1  0.46834800  0.25744600  0.64609200  1
  O  O4  1  0.80544200  0.03482000  0.85678700  1
  O  O5  1  0.69455800  0.53482000  0.85678700  1
  O  O6  1  0.19455800  0.96518000  0.14321300  1
  O  O7  1  0.69455800  0.53482000  0.64321300  1
  O  O8  1  0.80544200  0.03482000  0.64321300  1
  O  O9  1  0.96834800  0.24255400  0.14609200  1
  O  O10  1  0.46834800  0.25744600  0.85390800  1
  O  O11  1  0.30151300  0.98586700  0.94132800  1
  O  O12  1  0.69848700  0.01413300  0.05867200  1
  O  O13  1  0.30544200  0.46518000  0.35678700  1
  O  O14  1  0.30151300  0.98586700  0.55867200  1
  O  O15  1  0.80151300  0.51413300  0.44132800  1
  O  O16  1  0.24090800  0.97416700  0.75000000  1
  O  O17  1  0.19848700  0.48586700  0.55867200  1
  O  O18  1  0.19848700  0.48586700  0.94132800  1
  O  O19  1  0.80151300  0.51413300  0.05867200  1
  O  O20  1  0.74090800  0.52583300  0.25000000  1
  O  O21  1  0.30544200  0.46518000  0.14321300  1
  O  O22  1  0.69848700  0.01413300  0.44132800  1
  O  O23  1  0.96834800  0.24255400  0.35390800  1
  O  O24  1  0.03165200  0.75744600  0.64609200  1
  O  O25  1  0.19455800  0.96518000  0.35678700  1
  O  O26  1  0.75909200  0.02583300  0.25000000  1
  O  O27  1  0.53165200  0.74255400  0.14609200  1
  F  F0  1  0.89436900  0.25389200  0.53117200  1
  F  F1  1  0.60563100  0.75389200  0.53117200  1
  F  F2  1  0.10563100  0.74610800  0.03117200  1
  F  F3  1  0.39436900  0.24610800  0.03117200  1
  F  F4  1  0.10563100  0.74610800  0.46882800  1
  F  F5  1  0.89436900  0.25389200  0.96882800  1
  F  F6  1  0.60563100  0.75389200  0.96882800  1
  F  F7  1  0.39436900  0.24610800  0.46882800  1
loop_
_geom_bond_atom_site_label_1
_geom_bond_atom_site_label_2
_geom_bond_distance
_geom_bond_site_symmetry_2
Al0 F0 1.825149 1_455
Al0 F7 1.831579 1_555
Al0 O13 1.877144 1_555
Al0 O23 1.878900 1_455
Al0 O17 1.927861 1_555
Al0 O15 1.931003 1_455
Al1 F6 1.825149 1_554
Al1 F2 1.831579 1_555
Al1 O6 1.877144 1_555
Al1 O27 1.878900 1_555
Al1 O11 1.927861 1_554
Al1 O12 1.931003 1_565
Al2 F3 1.825149 1_556
Al2 F5 1.831579 1_555
Al2 O4 1.877144 1_555
Al2 O10 1.878900 1_555
Al2 O12 1.927861 1_556
Al2 O11 1.931003 1_545
Al3 F1 1.825149 1_555
Al3 F4 1.831579 1_555
Al3 O25 1.877144 1_555
Al3 O2 1.878900 1_555
Al3 O14 1.927861 1_555
Al3 O22 1.931003 1_565
Al4 F4 1.825149 1_655
Al4 F1 1.831579 1_555
Al4 O7 1.877144 1_555
Al4 O24 1.878900 1_655
Al4 O15 1.927861 1_555
Al4 O17 1.931003 1_655
Al5 F2 1.825149 1_656
Al5 F6 1.831579 1_555
Al5 O5 1.877144 1_555
Al5 O1 1.878900 1_655
Al5 O19 1.927861 1_556
Al5 O18 1.931003 1_655
Al6 F7 1.825149 1_555
Al6 F0 1.831579 1_555
Al6 O8 1.877144 1_555
Al6 O3 1.878900 1_555
Al6 O22 1.927861 1_555
Al6 O14 1.931003 1_545
Al7 F5 1.825149 1_454
Al7 F3 1.831579 1_555
Al7 O21 1.877144 1_555
Al7 O9 1.878900 1_455
Al7 O18 1.927861 1_554
Al7 O19 1.931003 1_455
Cu0 O2 1.967511 1_555
Cu0 O27 1.967511 1_555
Cu0 O6 1.979276 1_555
Cu0 O25 1.979276 1_555
Cu0 O26 2.463140 1_565
Cu1 O1 1.967511 1_655
Cu1 O24 1.967511 1_655
Cu1 O7 1.979276 1_555
Cu1 O5 1.979276 1_555
Cu1 O0 2.463140 1_655
Cu2 O9 1.967511 1_455
Cu2 O23 1.967511 1_455
Cu2 O21 1.979276 1_555
Cu2 O13 1.979276 1_555
Cu2 O20 2.463140 1_455
Cu3 O10 1.967511 1_555
Cu3 O3 1.967511 1_555
Cu3 O4 1.979276 1_555
Cu3 O8 1.979276 1_555
Cu3 O16 2.463140 1_545
O0 Si4 1.662196 1_555
O0 Si3 1.662196 1_555
O1 Si2 1.649810 1_555
O2 Si0 1.649810 1_555
O3 Si4 1.649810 1_555
O4 Si2 1.643736 1_645
O5 Si3 1.643736 1_555
O6 Si5 1.643736 1_465
O7 Si4 1.643736 1_555
O8 Si6 1.643736 1_645
O9 Si5 1.649810 1_555
O10 Si3 1.649810 1_555
O11 Si2 1.650909 1_555
O12 Si5 1.650909 1_555
O13 Si0 1.643736 1_555
O14 Si6 1.650909 1_555
O15 Si0 1.650909 1_555
O16 Si2 1.662196 1_555
O16 Si6 1.662196 1_555
O17 Si4 1.650909 1_555
O18 Si3 1.650909 1_555
O19 Si7 1.650909 1_555
O20 Si0 1.662196 1_555
O20 Si7 1.662196 1_555
O21 Si7 1.643736 1_555
O22 Si1 1.650909 1_555
O23 Si1 1.649810 1_555
O24 Si6 1.649810 1_555
O25 Si1 1.643736 1_465
O26 Si1 1.662196 1_555
O26 Si5 1.662196 1_555
O27 Si7 1.649810 1_555
