# generated using pymatgen
data_Na4Zr(MoO4)4
_symmetry_space_group_name_H-M   'P 1'
_cell_length_a   9.92250549
_cell_length_b   9.92250549
_cell_length_c   9.92250549
_cell_angle_alpha   110.99503922
_cell_angle_beta   110.99503922
_cell_angle_gamma   106.46477200
_symmetry_Int_Tables_number   1
_chemical_formula_structural   Na4Zr(MoO4)4
_chemical_formula_sum   'Na8 Zr2 Mo8 O32'
_cell_volume   750.49947766
_cell_formula_units_Z   2
loop_
 _symmetry_equiv_pos_site_id
 _symmetry_equiv_pos_as_xyz
  1  'x, y, z'
loop_
 _atom_site_type_symbol
 _atom_site_label
 _atom_site_symmetry_multiplicity
 _atom_site_fract_x
 _atom_site_fract_y
 _atom_site_fract_z
 _atom_site_occupancy
  Na  Na0  1  0.50625100  0.39308200  0.34045300  1
  Na  Na1  1  0.05262900  0.16579800  0.65954700  1
  Na  Na2  1  0.91579800  0.75625100  0.61316900  1
  Na  Na3  1  0.83420200  0.49374900  0.88683100  1
  Na  Na4  1  0.24374900  0.85691800  0.15954700  1
  Na  Na5  1  0.14308200  0.30262900  0.38683100  1
  Na  Na6  1  0.60691800  0.94737100  0.11316900  1
  Na  Na7  1  0.69737100  0.08420200  0.84045300  1
  Zr  Zr0  1  0.25000000  0.75000000  0.50000000  1
  Zr  Zr1  1  0.50000000  0.50000000  0.00000000  1
  Mo  Mo0  1  0.16597700  0.42994600  0.09325400  1
  Mo  Mo1  1  0.41330800  0.17727800  0.59325400  1
  Mo  Mo2  1  0.58402300  0.82005400  0.40674600  1
  Mo  Mo3  1  0.82272200  0.41597700  0.23603000  1
  Mo  Mo4  1  0.33669200  0.07272200  0.90674600  1
  Mo  Mo5  1  0.92727800  0.83402300  0.26397000  1
  Mo  Mo6  1  0.17994600  0.58669200  0.76397000  1
  Mo  Mo7  1  0.57005400  0.66330800  0.73603000  1
  O  O0  1  0.80009700  0.92411800  0.53643900  1
  O  O1  1  0.73456600  0.48431700  0.08980200  1
  O  O2  1  0.35548500  0.60523600  0.58980200  1
  O  O3  1  0.01365800  0.05009700  0.37597900  1
  O  O4  1  0.07428600  0.37976700  0.60267800  1
  O  O5  1  0.50800600  0.84028800  0.55276000  1
  O  O6  1  0.04475400  0.49199400  0.33228200  1
  O  O7  1  0.67571400  0.87023300  0.89732200  1
  O  O8  1  0.28752800  0.95524600  0.44724000  1
  O  O9  1  0.24199400  0.40971200  0.94724000  1
  O  O10  1  0.77708900  0.47160800  0.39732200  1
  O  O11  1  0.12976700  0.02708900  0.80548100  1
  O  O12  1  0.62023300  0.22291100  0.69451900  1
  O  O13  1  0.39476400  0.98456600  0.75025000  1
  O  O14  1  0.73634200  0.19990300  0.12402100  1
  O  O15  1  0.36232100  0.98634200  0.03643900  1
  O  O16  1  0.51568300  0.60548500  0.25025000  1
  O  O17  1  0.97291100  0.77839200  0.10267800  1
  O  O18  1  0.38767900  0.26365800  0.46356100  1
  O  O19  1  0.35523600  0.26543400  0.74975000  1
  O  O20  1  0.70524600  0.75800600  0.16771800  1
  O  O21  1  0.94990300  0.32588200  0.96356100  1
  O  O22  1  0.46247200  0.29475400  0.05276000  1
  O  O23  1  0.07588200  0.61232100  0.87597900  1
  O  O24  1  0.67411800  0.63767900  0.62402100  1
  O  O25  1  0.01543400  0.76568300  0.41019800  1
  O  O26  1  0.39451500  0.64476400  0.91019800  1
  O  O27  1  0.15971200  0.71247200  0.66771800  1
  O  O28  1  0.22160800  0.32428600  0.19451900  1
  O  O29  1  0.52839200  0.92571400  0.30548100  1
  O  O30  1  0.23431700  0.64451500  0.24975000  1
  O  O31  1  0.59028800  0.53752800  0.83228200  1
loop_
_geom_bond_atom_site_label_1
_geom_bond_atom_site_label_2
_geom_bond_distance
_geom_bond_site_symmetry_2
Na0 O10 2.357740 1_555
Na0 O28 2.409984 1_555
Na0 O18 2.413103 1_555
Na0 O24 2.457326 1_555
Na0 O22 2.482933 1_555
Na0 O16 2.559617 1_555
Na1 O4 2.357740 1_555
Na1 O11 2.409984 1_555
Na1 O0 2.413103 1_445
Na1 O3 2.457326 1_555
Na1 O9 2.482933 1_555
Na1 O19 2.559625 1_555
Na2 O11 2.357740 1_665
Na2 O10 2.409984 1_555
Na2 O24 2.413103 1_555
Na2 O0 2.457326 1_555
Na2 O27 2.482933 1_655
Na2 O25 2.559623 1_655
Na3 O12 2.357740 1_555
Na3 O17 2.409984 1_556
Na3 O23 2.413103 1_655
Na3 O21 2.457326 1_555
Na3 O31 2.482933 1_555
Na3 O1 2.559623 1_556
Na4 O17 2.357740 1_455
Na4 O29 2.409984 1_555
Na4 O15 2.413103 1_555
Na4 O23 2.457326 1_554
Na4 O8 2.482933 1_555
Na4 O30 2.559617 1_555
Na5 O28 2.357740 1_555
Na5 O4 2.409984 1_555
Na5 O3 2.413103 1_555
Na5 O18 2.457326 1_555
Na5 O6 2.482933 1_555
Na5 O2 2.559623 1_555
Na6 O29 2.357740 1_555
Na6 O7 2.409984 1_554
Na6 O14 2.413103 1_565
Na6 O15 2.457326 1_555
Na6 O20 2.482933 1_555
Na6 O26 2.559623 1_554
Na7 O7 2.357740 1_545
Na7 O12 2.409984 1_555
Na7 O21 2.413103 1_555
Na7 O14 2.457326 1_556
Na7 O5 2.482933 1_545
Na7 O13 2.559625 1_545
Mo0 O28 1.760390 1_555
Mo0 O21 1.770540 1_454
Mo0 O9 1.835437 1_554
Mo0 O30 1.860659 1_555
Mo1 O12 1.760393 1_555
Mo1 O18 1.770532 1_555
Mo1 O8 1.835444 1_545
Mo1 O19 1.860652 1_555
Mo2 O29 1.760390 1_555
Mo2 O0 1.770540 1_555
Mo2 O5 1.835437 1_555
Mo2 O16 1.860659 1_555
Mo3 O10 1.760392 1_555
Mo3 O14 1.770541 1_555
Mo3 O6 1.835445 1_655
Mo3 O1 1.860652 1_555
Mo4 O11 1.760393 1_555
Mo4 O15 1.770532 1_546
Mo4 O22 1.835444 1_556
Mo4 O13 1.860652 1_545
Mo5 O17 1.760392 1_555
Mo5 O3 1.770541 1_665
Mo5 O20 1.835445 1_555
Mo5 O25 1.860652 1_655
Mo6 O4 1.760393 1_555
Mo6 O23 1.770532 1_555
Mo6 O27 1.835444 1_555
Mo6 O26 1.860659 1_555
Mo7 O7 1.760393 1_555
Mo7 O24 1.770532 1_555
Mo7 O31 1.835444 1_555
Mo7 O2 1.860659 1_555
O1 Zr1 2.248094 1_555
O2 Zr0 2.248094 1_555
O5 Zr0 2.243675 1_555
O6 Zr0 2.243675 1_555
O8 Zr0 2.243675 1_555
O9 Zr1 2.243675 1_556
O13 Zr0 2.248099 1_555
O16 Zr1 2.248103 1_555
O19 Zr1 2.248099 1_556
O20 Zr1 2.243675 1_555
O22 Zr1 2.243675 1_555
O25 Zr0 2.248094 1_555
O26 Zr1 2.248094 1_556
O27 Zr0 2.243675 1_555
O30 Zr0 2.248103 1_555
O31 Zr1 2.243675 1_556
