# generated using pymatgen
data_BaSi6N8O
_symmetry_space_group_name_H-M   'P 1'
_cell_length_a   6.82911417
_cell_length_b   6.82911417
_cell_length_c   6.82911417
_cell_angle_alpha   138.21066050
_cell_angle_beta   106.49901585
_cell_angle_gamma   88.30386151
_symmetry_Int_Tables_number   1
_chemical_formula_structural   BaSi6N8O
_chemical_formula_sum   'Ba1 Si6 N8 O1'
_cell_volume   195.05520832
_cell_formula_units_Z   1
loop_
 _symmetry_equiv_pos_site_id
 _symmetry_equiv_pos_as_xyz
  1  'x, y, z'
loop_
 _atom_site_type_symbol
 _atom_site_label
 _atom_site_symmetry_multiplicity
 _atom_site_fract_x
 _atom_site_fract_y
 _atom_site_fract_z
 _atom_site_occupancy
  Ba  Ba0  1  0.50000000  0.49654300  0.99654300  1
  Si  Si0  1  0.35524500  0.17980400  0.21757900  1
  Si  Si1  1  0.16071100  0.68558100  0.52487000  1
  Si  Si2  1  0.96222500  0.17980400  0.82455900  1
  Si  Si3  1  0.83928900  0.36415800  0.52487000  1
  Si  Si4  1  0.03777500  0.86233400  0.21757900  1
  Si  Si5  1  0.64475500  0.86233400  0.82455900  1
  N  N0  1  0.27406500  0.05229000  0.32635500  1
  N  N1  1  0.04610700  0.90334900  0.50630000  1
  N  N2  1  0.72593500  0.05229000  0.77822500  1
  N  N3  1  0.81294800  0.98772700  0.17477900  1
  N  N4  1  0.39704800  0.90334900  0.85724100  1
  N  N5  1  0.18705200  0.36183100  0.17477900  1
  N  N6  1  0.60295200  0.46019300  0.50630000  1
  N  N7  1  0.95389300  0.46019300  0.85724100  1
  O  O0  1  0.00000000  0.61172300  0.61172300  1
loop_
_geom_bond_atom_site_label_1
_geom_bond_atom_site_label_2
_geom_bond_distance
_geom_bond_site_symmetry_2
Ba0 N2 2.844685 1_555
Ba0 N0 2.844685 1_555
Ba0 N3 3.187332 1_556
Ba0 N5 3.187332 1_556
Ba0 N2 3.276866 1_566
Ba0 N0 3.276866 1_566
N0 Si0 1.686588 1_555
N0 Si4 1.686588 1_545
N1 Si1 1.730961 1_555
N1 Si4 1.755849 1_555
N1 Si2 1.772162 1_465
N2 Si5 1.686588 1_545
N2 Si2 1.686588 1_555
N3 Si3 1.724794 1_565
N3 Si4 1.793484 1_655
N3 Si5 1.793484 1_554
N4 Si1 1.730954 1_555
N4 Si5 1.755853 1_555
N4 Si0 1.772163 1_566
N5 Si1 1.724797 1_555
N5 Si0 1.793484 1_555
N5 Si2 1.793484 1_454
N6 Si3 1.730958 1_555
N6 Si0 1.755853 1_555
N6 Si5 1.772163 1_555
N7 Si3 1.730951 1_555
N7 Si2 1.755853 1_555
N7 Si4 1.772163 1_656
O0 Si1 1.630759 1_555
O0 Si3 1.630765 1_455
