# generated using pymatgen
data_CsCu5S3
_symmetry_space_group_name_H-M   'P 1'
_cell_length_a   3.91495300
_cell_length_b   9.01488900
_cell_length_c   9.60712700
_cell_angle_alpha   90.00000000
_cell_angle_beta   90.00000000
_cell_angle_gamma   90.00000000
_symmetry_Int_Tables_number   1
_chemical_formula_structural   CsCu5S3
_chemical_formula_sum   'Cs2 Cu10 S6'
_cell_volume   339.06305292
_cell_formula_units_Z   2
loop_
 _symmetry_equiv_pos_site_id
 _symmetry_equiv_pos_as_xyz
  1  'x, y, z'
loop_
 _atom_site_type_symbol
 _atom_site_label
 _atom_site_symmetry_multiplicity
 _atom_site_fract_x
 _atom_site_fract_y
 _atom_site_fract_z
 _atom_site_occupancy
  Cs  Cs0  1  0.00000000  0.05898800  0.25000000  1
  Cs  Cs1  1  0.00000000  0.94101200  0.75000000  1
  Cu  Cu0  1  0.50000000  0.71444400  0.25000000  1
  Cu  Cu1  1  0.50000000  0.57675500  0.88672900  1
  Cu  Cu2  1  0.00000000  0.63998100  0.07809300  1
  Cu  Cu3  1  0.50000000  0.42324500  0.38672900  1
  Cu  Cu4  1  0.50000000  0.42324500  0.11327100  1
  Cu  Cu5  1  0.00000000  0.36001900  0.92190700  1
  Cu  Cu6  1  0.00000000  0.36001900  0.57809300  1
  Cu  Cu7  1  0.50000000  0.57675500  0.61327100  1
  Cu  Cu8  1  0.00000000  0.63998100  0.42190700  1
  Cu  Cu9  1  0.50000000  0.28555600  0.75000000  1
  S  S0  1  0.50000000  0.22032200  0.52799900  1
  S  S1  1  0.00000000  0.45750200  0.25000000  1
  S  S2  1  0.50000000  0.77967800  0.02799900  1
  S  S3  1  0.00000000  0.54249800  0.75000000  1
  S  S4  1  0.50000000  0.22032200  0.97200100  1
  S  S5  1  0.50000000  0.77967800  0.47200100  1
loop_
_geom_bond_atom_site_label_1
_geom_bond_atom_site_label_2
_geom_bond_distance
_geom_bond_site_symmetry_2
Cs0 S1 3.592559 1_555
Cs0 S0 3.616634 1_455
Cs0 S0 3.616634 1_555
Cs0 S4 3.616634 1_454
Cs0 S4 3.616634 1_554
Cs0 Cu0 3.671391 1_545
Cs0 Cu0 3.671391 1_445
Cs0 S2 3.836741 1_545
Cs0 S2 3.836741 1_445
Cs0 S5 3.836741 1_445
Cs0 S5 3.836741 1_545
Cs1 S3 3.592559 1_555
Cs1 S5 3.616634 1_555
Cs1 S5 3.616634 1_455
Cs1 S2 3.616634 1_556
Cs1 S2 3.616634 1_456
Cs1 Cu9 3.671391 1_565
Cs1 Cu9 3.671391 1_465
Cs1 S4 3.836741 1_465
Cs1 S0 3.836741 1_565
Cs1 S4 3.836741 1_565
Cs1 S0 3.836741 1_465
Cu0 S5 2.212382 1_555
Cu0 S2 2.212382 1_555
Cu1 S2 2.277813 1_556
Cu1 S3 2.377511 1_555
Cu1 S3 2.377511 1_655
Cu2 S1 2.331025 1_555
Cu2 S2 2.376825 1_455
Cu2 S2 2.376825 1_555
Cu3 S0 2.277813 1_555
Cu3 S1 2.377511 1_555
Cu3 S1 2.377511 1_655
Cu4 S4 2.277813 1_554
Cu4 S1 2.377511 1_555
Cu4 S1 2.377511 1_655
Cu5 S3 2.331025 1_555
Cu5 S4 2.376825 1_555
Cu5 S4 2.376825 1_455
Cu6 S3 2.331025 1_555
Cu6 S0 2.376825 1_455
Cu6 S0 2.376825 1_555
Cu7 S5 2.277813 1_555
Cu7 S3 2.377511 1_555
Cu7 S3 2.377511 1_655
Cu8 S1 2.331025 1_555
Cu8 S5 2.376825 1_455
Cu8 S5 2.376825 1_555
Cu9 S4 2.212382 1_555
Cu9 S0 2.212382 1_555
