# generated using pymatgen
data_K2UCu3S5
_symmetry_space_group_name_H-M   'P 1'
_cell_length_a   7.26934543
_cell_length_b   7.26934543
_cell_length_c   17.61941800
_cell_angle_alpha   90.00000000
_cell_angle_beta   90.00000000
_cell_angle_gamma   148.52570366
_symmetry_Int_Tables_number   1
_chemical_formula_structural   K2UCu3S5
_chemical_formula_sum   'K4 U2 Cu6 S10'
_cell_volume   486.12636896
_cell_formula_units_Z   2
loop_
 _symmetry_equiv_pos_site_id
 _symmetry_equiv_pos_as_xyz
  1  'x, y, z'
loop_
 _atom_site_type_symbol
 _atom_site_label
 _atom_site_symmetry_multiplicity
 _atom_site_fract_x
 _atom_site_fract_y
 _atom_site_fract_z
 _atom_site_occupancy
  K  K0  1  0.76365900  0.23634100  0.13402600  1
  K  K1  1  0.23634100  0.76365900  0.86597400  1
  K  K2  1  0.23634100  0.76365900  0.63402600  1
  K  K3  1  0.76365900  0.23634100  0.36597500  1
  U  U0  1  0.50000000  0.50000000  0.00000000  1
  U  U1  1  0.50000000  0.50000000  0.50000000  1
  Cu  Cu0  1  0.44653100  0.55346900  0.75000000  1
  Cu  Cu1  1  0.04359100  0.95640900  0.14367200  1
  Cu  Cu2  1  0.95640900  0.04359100  0.64367200  1
  Cu  Cu3  1  0.95640900  0.04359100  0.85632800  1
  Cu  Cu4  1  0.55346900  0.44653100  0.25000000  1
  Cu  Cu5  1  0.04359100  0.95640900  0.35632800  1
  S  S0  1  0.55214400  0.44785600  0.85809700  1
  S  S1  1  0.44785600  0.55214400  0.35809700  1
  S  S2  1  0.87547000  0.12453000  0.97009500  1
  S  S3  1  0.44785600  0.55214400  0.14190300  1
  S  S4  1  0.12453000  0.87547000  0.47009500  1
  S  S5  1  0.87547000  0.12453000  0.52990500  1
  S  S6  1  0.14649700  0.85350300  0.25000000  1
  S  S7  1  0.85350300  0.14649700  0.75000000  1
  S  S8  1  0.12453000  0.87547000  0.02990500  1
  S  S9  1  0.55214400  0.44785600  0.64190300  1
loop_
_geom_bond_atom_site_label_1
_geom_bond_atom_site_label_2
_geom_bond_distance
_geom_bond_site_symmetry_2
K0 S3 3.248169 1_545
K0 S3 3.248169 1_655
K0 S6 3.278846 1_655
K0 S6 3.278846 1_545
K0 S2 3.284937 1_554
K0 S8 3.323166 1_655
K0 S8 3.323166 1_545
K1 S0 3.248169 1_565
K1 S0 3.248169 1_455
K1 S7 3.278846 1_565
K1 S7 3.278846 1_455
K1 S8 3.284937 1_556
K1 S2 3.323166 1_455
K1 S2 3.323166 1_565
K2 S9 3.248169 1_455
K2 S9 3.248169 1_565
K2 S7 3.278846 1_565
K2 S7 3.278846 1_455
K2 S4 3.284937 1_555
K2 S5 3.323166 1_455
K2 S5 3.323166 1_565
K3 S1 3.248169 1_545
K3 S1 3.248169 1_655
K3 S6 3.278857 1_655
K3 S6 3.278857 1_545
K3 S5 3.284922 1_555
K3 S4 3.323156 1_545
K3 S4 3.323156 1_655
Cu0 S7 2.362628 1_455
Cu0 S7 2.362628 1_565
Cu0 S0 2.410761 1_555
Cu0 S9 2.410761 1_555
Cu1 S8 2.302373 1_555
Cu1 S6 2.362938 1_555
Cu1 S3 2.383914 1_455
Cu1 S3 2.383914 1_565
Cu2 S5 2.302373 1_555
Cu2 S7 2.362938 1_555
Cu2 S9 2.383914 1_655
Cu2 S9 2.383914 1_545
Cu3 S2 2.302373 1_555
Cu3 S7 2.362938 1_555
Cu3 S0 2.383914 1_655
Cu3 S0 2.383914 1_545
Cu4 S6 2.362628 1_545
Cu4 S6 2.362628 1_655
Cu4 S1 2.410761 1_555
Cu4 S3 2.410761 1_555
Cu5 S4 2.302373 1_555
Cu5 S6 2.362938 1_555
Cu5 S1 2.383914 1_455
Cu5 S1 2.383914 1_565
S0 U0 2.604551 1_556
S1 U1 2.604551 1_555
S2 U0 2.683603 1_546
S2 U0 2.683603 1_656
S3 U0 2.604551 1_555
S4 U1 2.683603 1_565
S4 U1 2.683603 1_455
S5 U1 2.683603 1_545
S5 U1 2.683603 1_655
S8 U0 2.683603 1_565
S8 U0 2.683603 1_455
S9 U1 2.604551 1_555
