# generated using pymatgen
data_Rb4Hf3S14
_symmetry_space_group_name_H-M   'P 1'
_cell_length_a   11.68521516
_cell_length_b   11.68521516
_cell_length_c   13.61982535
_cell_angle_alpha   69.26119854
_cell_angle_beta   69.26119854
_cell_angle_gamma   41.54071207
_symmetry_Int_Tables_number   1
_chemical_formula_structural   Rb4Hf3S14
_chemical_formula_sum   'Rb8 Hf6 S28'
_cell_volume   1141.40427531
_cell_formula_units_Z   2
loop_
 _symmetry_equiv_pos_site_id
 _symmetry_equiv_pos_as_xyz
  1  'x, y, z'
loop_
 _atom_site_type_symbol
 _atom_site_label
 _atom_site_symmetry_multiplicity
 _atom_site_fract_x
 _atom_site_fract_y
 _atom_site_fract_z
 _atom_site_occupancy
  Rb  Rb0  1  0.01955803  0.38441276  0.89142476  1
  Rb  Rb1  1  0.61558724  0.98044197  0.60857524  1
  Rb  Rb2  1  0.98044197  0.61558724  0.10857524  1
  Rb  Rb3  1  0.38441276  0.01955803  0.39142476  1
  Rb  Rb4  1  0.19565666  0.67227392  0.64401263  1
  Rb  Rb5  1  0.32772608  0.80434334  0.85598737  1
  Rb  Rb6  1  0.80434334  0.32772608  0.35598737  1
  Rb  Rb7  1  0.67227392  0.19565666  0.14401263  1
  Hf  Hf0  1  0.92027344  0.41629680  0.58850704  1
  Hf  Hf1  1  0.58370320  0.07972656  0.91149296  1
  Hf  Hf2  1  0.07972656  0.58370320  0.41149296  1
  Hf  Hf3  1  0.41629680  0.92027344  0.08850704  1
  Hf  Hf4  1  0.76606812  0.23393188  0.75000000  1
  Hf  Hf5  1  0.23393188  0.76606812  0.25000000  1
  S  S0  1  0.88789847  0.19331549  0.89537234  1
  S  S1  1  0.80668451  0.11210153  0.60462766  1
  S  S2  1  0.11210153  0.80668451  0.10462766  1
  S  S3  1  0.19331549  0.88789847  0.39537234  1
  S  S4  1  0.65067959  0.48698444  0.58416528  1
  S  S5  1  0.51301556  0.34932041  0.91583472  1
  S  S6  1  0.34932041  0.51301556  0.41583472  1
  S  S7  1  0.48698444  0.65067959  0.08416528  1
  S  S8  1  0.07452222  0.09714304  0.63203961  1
  S  S9  1  0.90285696  0.92547778  0.86796039  1
  S  S10  1  0.92547778  0.90285696  0.36796039  1
  S  S11  1  0.09714304  0.07452222  0.13203961  1
  S  S12  1  0.76145572  0.43073342  0.79532902  1
  S  S13  1  0.56926658  0.23854428  0.70467098  1
  S  S14  1  0.23854428  0.56926658  0.20467098  1
  S  S15  1  0.43073342  0.76145572  0.29532902  1
  S  S16  1  0.99109921  0.56849394  0.60222495  1
  S  S17  1  0.43150606  0.00890079  0.89777505  1
  S  S18  1  0.00890079  0.43150606  0.39777505  1
  S  S19  1  0.56849394  0.99109921  0.10222495  1
  S  S20  1  0.85405766  0.80661199  0.83213517  1
  S  S21  1  0.19338801  0.14594234  0.66786483  1
  S  S22  1  0.14594234  0.19338801  0.16786483  1
  S  S23  1  0.80661199  0.85405766  0.33213517  1
  S  S24  1  0.30577494  0.40745557  0.89254263  1
  S  S25  1  0.59254443  0.69422506  0.60745737  1
  S  S26  1  0.69422506  0.59254443  0.10745737  1
  S  S27  1  0.40745557  0.30577494  0.39254263  1
loop_
_geom_bond_atom_site_label_1
_geom_bond_atom_site_label_2
_geom_bond_distance
_geom_bond_site_symmetry_2
Rb0 S17 3.292409 1_555
Rb0 S12 3.309414 1_455
Rb0 S26 3.511400 1_456
Rb0 S0 3.515003 1_455
Rb0 S24 3.556052 1_555
Rb0 S20 3.568402 1_455
Rb0 S11 3.668719 1_556
Rb0 S16 3.756126 1_455
Rb0 S21 3.783875 1_555
Rb0 S22 3.793470 1_556
Rb1 S16 3.292409 1_555
Rb1 S13 3.309414 1_565
Rb1 S27 3.511400 1_565
Rb1 S1 3.515003 1_565
Rb1 S25 3.556052 1_555
Rb1 S21 3.568402 1_565
Rb1 S10 3.668719 1_555
Rb1 S17 3.756126 1_565
Rb1 S20 3.783875 1_555
Rb1 S23 3.793470 1_555
Rb2 S19 3.292409 1_555
Rb2 S14 3.309414 1_655
Rb2 S24 3.511400 1_654
Rb2 S2 3.515003 1_655
Rb2 S26 3.556052 1_555
Rb2 S22 3.568402 1_655
Rb2 S9 3.668719 1_554
Rb2 S18 3.756126 1_655
Rb2 S23 3.783875 1_555
Rb2 S20 3.793470 1_554
Rb3 S18 3.292409 1_555
Rb3 S15 3.309414 1_545
Rb3 S25 3.511400 1_545
Rb3 S3 3.515003 1_545
Rb3 S27 3.556052 1_555
Rb3 S23 3.568402 1_545
Rb3 S8 3.668719 1_555
Rb3 S19 3.756126 1_545
Rb3 S22 3.783875 1_555
Rb3 S21 3.793470 1_555
Rb4 S20 3.344793 1_455
Rb4 S6 3.389266 1_555
Rb4 S3 3.425892 1_555
Rb4 S13 3.448953 1_555
Rb4 S1 3.487974 1_465
Rb4 S24 3.520654 1_555
Rb4 S16 3.646861 1_455
Rb4 S9 3.689192 1_455
Rb4 S4 3.817107 1_555
Rb4 S8 3.968446 1_565
Rb5 S21 3.344793 1_565
Rb5 S7 3.389266 1_556
Rb5 S2 3.425892 1_556
Rb5 S12 3.448953 1_555
Rb5 S0 3.487974 1_465
Rb5 S25 3.520654 1_555
Rb5 S17 3.646861 1_565
Rb5 S8 3.689192 1_565
Rb5 S5 3.817107 1_555
Rb5 S9 3.968446 1_455
Rb6 S22 3.344793 1_655
Rb6 S4 3.389266 1_555
Rb6 S1 3.425892 1_555
Rb6 S15 3.448953 1_555
Rb6 S3 3.487974 1_645
Rb6 S26 3.520654 1_555
Rb6 S18 3.646861 1_655
Rb6 S11 3.689192 1_655
Rb6 S6 3.817107 1_555
Rb6 S10 3.968446 1_545
Rb7 S23 3.344793 1_545
Rb7 S5 3.389266 1_554
Rb7 S0 3.425892 1_554
Rb7 S14 3.448953 1_555
Rb7 S2 3.487974 1_645
Rb7 S27 3.520654 1_555
Rb7 S19 3.646861 1_545
Rb7 S10 3.689192 1_545
Rb7 S7 3.817107 1_555
Rb7 S11 3.968446 1_655
Hf0 S18 2.428085 1_655
Hf0 S21 2.503109 1_655
Hf0 S16 2.535932 1_555
Hf0 S25 2.560304 1_555
Hf0 S8 2.576215 1_655
Hf0 S4 2.609976 1_555
Hf0 S12 2.751896 1_555
Hf1 S19 2.428085 1_546
Hf1 S20 2.503109 1_545
Hf1 S17 2.535932 1_555
Hf1 S24 2.560304 1_555
Hf1 S9 2.576215 1_545
Hf1 S5 2.609976 1_555
Hf1 S13 2.751896 1_555
Hf2 S16 2.428085 1_455
Hf2 S23 2.503109 1_455
Hf2 S18 2.535932 1_555
Hf2 S27 2.560304 1_555
Hf2 S10 2.576215 1_455
Hf2 S6 2.609976 1_555
Hf2 S14 2.751896 1_555
Hf3 S17 2.428085 1_564
Hf3 S22 2.503109 1_565
Hf3 S19 2.535932 1_555
Hf3 S26 2.560304 1_555
Hf3 S11 2.576215 1_565
Hf3 S7 2.609976 1_555
Hf3 S15 2.751896 1_555
Hf4 S12 2.543406 1_555
Hf4 S13 2.543406 1_555
Hf4 S0 2.547821 1_555
Hf4 S1 2.547821 1_555
Hf4 S5 2.668626 1_555
Hf4 S4 2.668626 1_555
Hf4 S8 2.687126 1_655
Hf4 S9 2.687126 1_545
Hf5 S15 2.543406 1_555
Hf5 S14 2.543406 1_555
Hf5 S3 2.547821 1_555
Hf5 S2 2.547821 1_555
Hf5 S6 2.668626 1_555
Hf5 S7 2.668626 1_555
Hf5 S11 2.687126 1_565
Hf5 S10 2.687126 1_455
S0 S12 2.085371 1_555
S1 S13 2.085371 1_555
S10 S23 2.086903 1_555
S11 S22 2.086903 1_555
S14 S2 2.085371 1_555
S15 S3 2.085371 1_555
S20 S9 2.086903 1_555
S21 S8 2.086903 1_555
S24 S5 2.086942 1_555
S25 S4 2.086942 1_555
S26 S7 2.086942 1_555
S27 S6 2.086942 1_555
