# generated using pymatgen
data_MnCo2Sb
_symmetry_space_group_name_H-M   'P 1'
_cell_length_a   4.22459446
_cell_length_b   4.22459405
_cell_length_c   4.22459476
_cell_angle_alpha   60.00001056
_cell_angle_beta   60.00001372
_cell_angle_gamma   60.00001520
_symmetry_Int_Tables_number   1
_chemical_formula_structural   MnCo2Sb
_chemical_formula_sum   'Mn1 Co2 Sb1'
_cell_volume   53.31386834
_cell_formula_units_Z   1
loop_
 _symmetry_equiv_pos_site_id
 _symmetry_equiv_pos_as_xyz
  1  'x, y, z'
loop_
 _atom_site_type_symbol
 _atom_site_label
 _atom_site_symmetry_multiplicity
 _atom_site_fract_x
 _atom_site_fract_y
 _atom_site_fract_z
 _atom_site_occupancy
  Mn  Mn0  1  -0.00000000  -0.00000000  0.00000000  1
  Co  Co0  1  0.25000000  0.25000000  0.25000000  1
  Co  Co1  1  0.75000000  0.75000000  0.75000000  1
  Sb  Sb0  1  0.50000000  0.50000000  0.50000000  1
loop_
_geom_bond_atom_site_label_1
_geom_bond_atom_site_label_2
_geom_bond_distance
_geom_bond_site_symmetry_2
Mn0 Sb0 2.987239 1_554
Mn0 Sb0 2.987239 1_445
Mn0 Sb0 2.987240 1_544
Mn0 Sb0 2.987240 1_455
Mn0 Sb0 2.987240 1_545
Mn0 Sb0 2.987240 1_454
Co0 Sb0 2.587025 1_555
Co0 Mn0 2.587025 1_555
Co0 Sb0 2.587025 1_545
Co0 Mn0 2.587025 1_565
Co0 Mn0 2.587026 1_655
Co0 Sb0 2.587026 1_455
Co0 Mn0 2.587026 1_556
Co0 Sb0 2.587026 1_554
Co1 Mn0 2.587025 1_666
Co1 Sb0 2.587025 1_555
Co1 Mn0 2.587025 1_656
Co1 Sb0 2.587025 1_565
Co1 Sb0 2.587026 1_655
Co1 Mn0 2.587026 1_566
Co1 Sb0 2.587026 1_556
Co1 Mn0 2.587026 1_665
