# generated using pymatgen
data_Ca3SiBr2
_symmetry_space_group_name_H-M   'P 1'
_cell_length_a   4.55957990
_cell_length_b   4.55957990
_cell_length_c   11.09571200
_cell_angle_alpha   90.00000000
_cell_angle_beta   90.00000000
_cell_angle_gamma   119.99999861
_symmetry_Int_Tables_number   1
_chemical_formula_structural   Ca3SiBr2
_chemical_formula_sum   'Ca3 Si1 Br2'
_cell_volume   199.77239454
_cell_formula_units_Z   1
loop_
 _symmetry_equiv_pos_site_id
 _symmetry_equiv_pos_as_xyz
  1  'x, y, z'
loop_
 _atom_site_type_symbol
 _atom_site_label
 _atom_site_symmetry_multiplicity
 _atom_site_fract_x
 _atom_site_fract_y
 _atom_site_fract_z
 _atom_site_occupancy
  Ca  Ca0  1  0.33333300  0.66666700  0.11343500  1
  Ca  Ca1  1  0.66666700  0.33333300  0.88656500  1
  Ca  Ca2  1  0.00000000  0.00000000  0.50000000  1
  Si  Si0  1  0.00000000  0.00000000  0.00000000  1
  Br  Br0  1  0.33333300  0.66666700  0.62953800  1
  Br  Br1  1  0.66666700  0.33333300  0.37046200  1
loop_
_geom_bond_atom_site_label_1
_geom_bond_atom_site_label_2
_geom_bond_distance
_geom_bond_site_symmetry_2
Ca0 Si0 2.917891 1_565
Ca0 Si0 2.917895 1_555
Ca0 Si0 2.917895 1_665
Ca1 Si0 2.917891 1_656
Ca1 Si0 2.917895 1_556
Ca1 Si0 2.917895 1_666
Br0 Ca2 2.999298 1_565
Br0 Ca2 2.999301 1_555
Br0 Ca2 2.999301 1_665
Br1 Ca2 2.999298 1_655
Br1 Ca2 2.999301 1_555
Br1 Ca2 2.999301 1_665
