# generated using pymatgen
data_CdC2(SN)2
_symmetry_space_group_name_H-M   'P 1'
_cell_length_a   13.53274700
_cell_length_b   5.90518500
_cell_length_c   7.80534165
_cell_angle_alpha   66.20615265
_cell_angle_beta   90.00000000
_cell_angle_gamma   90.00000000
_symmetry_Int_Tables_number   1
_chemical_formula_structural   CdC2(SN)2
_chemical_formula_sum   'Cd4 C8 S8 N8'
_cell_volume   570.73420905
_cell_formula_units_Z   4
loop_
 _symmetry_equiv_pos_site_id
 _symmetry_equiv_pos_as_xyz
  1  'x, y, z'
loop_
 _atom_site_type_symbol
 _atom_site_label
 _atom_site_symmetry_multiplicity
 _atom_site_fract_x
 _atom_site_fract_y
 _atom_site_fract_z
 _atom_site_occupancy
  Cd  Cd0  1  0.86933800  0.17537900  0.88434100  1
  Cd  Cd1  1  0.36933800  0.82462100  0.61565900  1
  Cd  Cd2  1  0.13066200  0.82462100  0.11565900  1
  Cd  Cd3  1  0.63066200  0.17537900  0.38434100  1
  C  C0  1  0.98600400  0.72446900  0.77874300  1
  C  C1  1  0.48600400  0.27553100  0.72125700  1
  C  C2  1  0.01399600  0.27553100  0.22125700  1
  C  C3  1  0.51399600  0.72446900  0.27874300  1
  C  C4  1  0.75375100  0.62334300  0.98570700  1
  C  C5  1  0.25375100  0.37665700  0.51429300  1
  C  C6  1  0.24624900  0.37665700  0.01429300  1
  C  C7  1  0.74624900  0.62334300  0.48570700  1
  S  S0  1  0.03305500  0.98871000  0.76267000  1
  S  S1  1  0.53305500  0.01129000  0.73733000  1
  S  S2  1  0.96694500  0.01129000  0.23733000  1
  S  S3  1  0.46694500  0.98871000  0.26267000  1
  S  S4  1  0.70728500  0.35706400  0.00593600  1
  S  S5  1  0.20728500  0.64293600  0.49406400  1
  S  S6  1  0.29271500  0.64293600  0.99406400  1
  S  S7  1  0.79271500  0.35706400  0.50593600  1
  N  N0  1  0.95252600  0.53696000  0.78572900  1
  N  N1  1  0.45252600  0.46304000  0.71427100  1
  N  N2  1  0.04747400  0.46304000  0.21427100  1
  N  N3  1  0.54747400  0.53696000  0.28572900  1
  N  N4  1  0.78656200  0.81566700  0.96953900  1
  N  N5  1  0.28656200  0.18433300  0.53046100  1
  N  N6  1  0.21343800  0.18433300  0.03046100  1
  N  N7  1  0.71343800  0.81566700  0.46953900  1
loop_
_geom_bond_atom_site_label_1
_geom_bond_atom_site_label_2
_geom_bond_distance
_geom_bond_site_symmetry_2
Cd0 N4 2.251517 1_545
Cd0 N0 2.256716 1_555
Cd0 S4 2.771792 1_556
Cd0 S0 2.805408 1_645
Cd0 S2 2.849668 1_556
Cd0 S7 2.897066 1_555
Cd1 N5 2.251517 1_565
Cd1 N1 2.256716 1_555
Cd1 S5 2.771792 1_555
Cd1 S1 2.805408 1_565
Cd1 S3 2.849668 1_555
Cd1 S6 2.897066 1_555
Cd2 N6 2.251517 1_565
Cd2 N2 2.256716 1_555
Cd2 S6 2.771792 1_554
Cd2 S2 2.805408 1_465
Cd2 S0 2.849668 1_554
Cd2 S5 2.897066 1_555
Cd3 N7 2.251517 1_545
Cd3 N3 2.256716 1_555
Cd3 S7 2.771792 1_555
Cd3 S3 2.805408 1_545
Cd3 S1 2.849668 1_555
Cd3 S4 2.897066 1_555
C0 N0 1.177101 1_555
C0 S0 1.642568 1_655
C1 N1 1.177101 1_555
C1 S1 1.642568 1_555
C2 N2 1.177101 1_555
C2 S2 1.642568 1_455
C3 N3 1.177101 1_555
C3 S3 1.642568 1_555
C4 N4 1.177824 1_555
C4 S4 1.640893 1_556
C5 N5 1.177824 1_555
C5 S5 1.640893 1_555
C6 N6 1.177824 1_555
C6 S6 1.640893 1_554
C7 N7 1.177824 1_555
C7 S7 1.640893 1_555
