# generated using pymatgen
data_CrAg3ClO4
_symmetry_space_group_name_H-M   'P 1'
_cell_length_a   7.47563400
_cell_length_b   7.47563400
_cell_length_c   5.37069700
_cell_angle_alpha   90.00000000
_cell_angle_beta   90.00000000
_cell_angle_gamma   90.00000000
_symmetry_Int_Tables_number   1
_chemical_formula_structural   CrAg3ClO4
_chemical_formula_sum   'Cr2 Ag6 Cl2 O8'
_cell_volume   300.14195880
_cell_formula_units_Z   2
loop_
 _symmetry_equiv_pos_site_id
 _symmetry_equiv_pos_as_xyz
  1  'x, y, z'
loop_
 _atom_site_type_symbol
 _atom_site_label
 _atom_site_symmetry_multiplicity
 _atom_site_fract_x
 _atom_site_fract_y
 _atom_site_fract_z
 _atom_site_occupancy
  Cr  Cr0  1  0.50000000  0.50000000  0.00000000  1
  Cr  Cr1  1  0.00000000  0.00000000  0.00000000  1
  Ag  Ag0  1  0.50000000  0.00000000  0.10389100  1
  Ag  Ag1  1  0.75000000  0.25000000  0.50000000  1
  Ag  Ag2  1  0.75000000  0.75000000  0.50000000  1
  Ag  Ag3  1  0.00000000  0.50000000  0.89610900  1
  Ag  Ag4  1  0.25000000  0.75000000  0.50000000  1
  Ag  Ag5  1  0.25000000  0.25000000  0.50000000  1
  Cl  Cl0  1  0.00000000  0.50000000  0.37239200  1
  Cl  Cl1  1  0.50000000  0.00000000  0.62760800  1
  O  O0  1  0.50000000  0.31876400  0.18625100  1
  O  O1  1  0.18123600  0.00000000  0.18625100  1
  O  O2  1  0.50000000  0.68123600  0.18625100  1
  O  O3  1  0.81876400  0.00000000  0.18625100  1
  O  O4  1  0.68123600  0.50000000  0.81374900  1
  O  O5  1  0.00000000  0.18123600  0.81374900  1
  O  O6  1  0.00000000  0.81876400  0.81374900  1
  O  O7  1  0.31876400  0.50000000  0.81374900  1
loop_
_geom_bond_atom_site_label_1
_geom_bond_atom_site_label_2
_geom_bond_distance
_geom_bond_site_symmetry_2
Cr0 O2 1.684110 1_555
Cr0 O4 1.684110 1_554
Cr0 O0 1.684110 1_555
Cr0 O7 1.684110 1_554
Cr1 O1 1.684110 1_555
Cr1 O5 1.684110 1_554
Cr1 O3 1.684110 1_455
Cr1 O6 1.684110 1_544
Ag0 O3 2.423669 1_555
Ag0 O0 2.423669 1_555
Ag0 O2 2.423669 1_545
Ag0 O1 2.423669 1_555
Ag0 Cl1 2.557972 1_554
Ag0 Cl1 2.812725 1_555
Ag1 O3 2.568359 1_555
Ag1 O0 2.568359 1_555
Ag1 O4 2.568359 1_555
Ag1 O5 2.568359 1_655
Ag1 Cl1 2.730446 1_555
Ag1 Cl0 2.730446 1_655
Ag2 O6 2.568359 1_655
Ag2 O3 2.568359 1_565
Ag2 O2 2.568359 1_555
Ag2 O4 2.568359 1_555
Ag2 Cl1 2.730446 1_565
Ag2 Cl0 2.730446 1_655
Ag3 O6 2.423669 1_555
Ag3 O7 2.423669 1_555
Ag3 O4 2.423669 1_455
Ag3 O5 2.423669 1_555
Ag3 Cl0 2.557972 1_556
Ag3 Cl0 2.812725 1_555
Ag4 O6 2.568359 1_555
Ag4 O2 2.568359 1_555
Ag4 O7 2.568359 1_555
Ag4 O1 2.568359 1_565
Ag4 Cl1 2.730446 1_565
Ag4 Cl0 2.730446 1_555
Ag5 O0 2.568359 1_555
Ag5 O7 2.568359 1_555
Ag5 O1 2.568359 1_555
Ag5 O5 2.568359 1_555
Ag5 Cl1 2.730446 1_555
Ag5 Cl0 2.730446 1_555
