# generated using pymatgen
data_Mg7As6(HO6)4
_symmetry_space_group_name_H-M   'P 1'
_cell_length_a   6.83479100
_cell_length_b   8.44792689
_cell_length_c   9.66345483
_cell_angle_alpha   73.01181496
_cell_angle_beta   72.04127689
_cell_angle_gamma   82.56095184
_symmetry_Int_Tables_number   1
_chemical_formula_structural   Mg7As6(HO6)4
_chemical_formula_sum   'Mg7 As6 H4 O24'
_cell_volume   507.14484362
_cell_formula_units_Z   1
loop_
 _symmetry_equiv_pos_site_id
 _symmetry_equiv_pos_as_xyz
  1  'x, y, z'
loop_
 _atom_site_type_symbol
 _atom_site_label
 _atom_site_symmetry_multiplicity
 _atom_site_fract_x
 _atom_site_fract_y
 _atom_site_fract_z
 _atom_site_occupancy
  Mg  Mg0  1  0.00000000  0.00000000  0.00000000  1
  Mg  Mg1  1  0.71820900  0.45594500  0.88860600  1
  Mg  Mg2  1  0.28179100  0.54405500  0.11139400  1
  Mg  Mg3  1  0.00425200  0.20691900  0.28009700  1
  Mg  Mg4  1  0.99574800  0.79308100  0.71990300  1
  Mg  Mg5  1  0.61424900  0.31384200  0.51727400  1
  Mg  Mg6  1  0.38575100  0.68615800  0.48272600  1
  As  As0  1  0.54209100  0.19929600  0.21112100  1
  As  As1  1  0.45790900  0.80070400  0.78887900  1
  As  As2  1  0.75966300  0.57886100  0.18055200  1
  As  As3  1  0.24033700  0.42113900  0.81944800  1
  As  As4  1  0.00777300  0.20430600  0.64308300  1
  As  As5  1  0.99222700  0.79569400  0.35691700  1
  H  H0  1  0.32904400  0.15731500  0.76103000  1
  H  H1  1  0.67095600  0.84268500  0.23897000  1
  H  H2  1  0.31358600  0.78961200  0.17865000  1
  H  H3  1  0.68641400  0.21038800  0.82135000  1
  O  O0  1  0.66687300  0.21734700  0.33239500  1
  O  O1  1  0.33312700  0.78265300  0.66760500  1
  O  O2  1  0.71561700  0.20429700  0.03806300  1
  O  O3  1  0.28438300  0.79570300  0.96193700  1
  O  O4  1  0.69672400  0.70379800  0.77386900  1
  O  O5  1  0.30327600  0.29620200  0.22613100  1
  O  O6  1  0.56824800  0.00287700  0.72150400  1
  O  O7  1  0.43175200  0.99712300  0.27849600  1
  O  O8  1  0.60947100  0.52457600  0.08910800  1
  O  O9  1  0.39052900  0.47542400  0.91089200  1
  O  O10  1  0.62722800  0.54468700  0.36959500  1
  O  O11  1  0.37277200  0.45531300  0.63040500  1
  O  O12  1  0.80790100  0.78768800  0.10909600  1
  O  O13  1  0.19209900  0.21231200  0.89090400  1
  O  O14  1  0.01339100  0.53760000  0.83303800  1
  O  O15  1  0.98660900  0.46240000  0.16696200  1
  O  O16  1  0.90304100  0.19871500  0.49945000  1
  O  O17  1  0.09695900  0.80128500  0.50055000  1
  O  O18  1  0.75070000  0.30678300  0.74048700  1
  O  O19  1  0.24930000  0.69321700  0.25951300  1
  O  O20  1  0.42202000  0.12645300  0.66257800  1
  O  O21  1  0.57798000  0.87354700  0.33742200  1
  O  O22  1  0.03285100  0.99281400  0.21663000  1
  O  O23  1  0.96714900  0.00718600  0.78337000  1
loop_
_geom_bond_atom_site_label_1
_geom_bond_atom_site_label_2
_geom_bond_distance
_geom_bond_site_symmetry_2
Mg0 O23 2.156028 1_454
Mg0 O22 2.156028 1_545
Mg0 O13 2.168767 1_554
Mg0 O12 2.168767 1_445
Mg0 O3 2.439953 1_544
Mg0 O2 2.439953 1_455
Mg1 O4 2.073468 1_555
Mg1 O8 2.073511 1_556
Mg1 O14 2.076145 1_655
Mg1 O18 2.114573 1_555
Mg1 O9 2.171916 1_555
Mg1 O2 2.192145 1_556
Mg2 O5 2.073468 1_555
Mg2 O9 2.073511 1_554
Mg2 O15 2.076145 1_455
Mg2 O19 2.114573 1_555
Mg2 O8 2.171916 1_555
Mg2 O3 2.192145 1_554
Mg3 O16 1.999708 1_455
Mg3 O22 2.041731 1_545
Mg3 O15 2.122042 1_455
Mg3 O5 2.128358 1_555
Mg3 O0 2.198907 1_455
Mg4 O17 1.999708 1_655
Mg4 O23 2.041731 1_565
Mg4 O14 2.122042 1_655
Mg4 O4 2.128358 1_555
Mg4 O1 2.198907 1_655
Mg5 O10 2.046470 1_555
Mg5 O16 2.064642 1_555
Mg5 O20 2.075059 1_555
Mg5 O0 2.089157 1_555
Mg5 O11 2.118383 1_555
Mg5 O18 2.583982 1_555
Mg6 O11 2.046470 1_555
Mg6 O17 2.064642 1_555
Mg6 O21 2.075059 1_555
Mg6 O1 2.089157 1_555
Mg6 O10 2.118383 1_555
Mg6 O19 2.583982 1_555
As0 O0 1.696610 1_555
As0 O5 1.712558 1_555
As0 O2 1.718638 1_555
As0 O7 1.814014 1_545
As1 O1 1.696610 1_555
As1 O4 1.712558 1_555
As1 O3 1.718638 1_555
As1 O6 1.814014 1_565
As2 O15 1.716371 1_555
As2 O8 1.721344 1_555
As2 O10 1.726178 1_555
As2 O12 1.730935 1_555
As3 O14 1.716371 1_555
As3 O9 1.721344 1_555
As3 O11 1.726178 1_555
As3 O13 1.730935 1_555
As4 O16 1.760938 1_455
As4 O23 1.804552 1_455
As4 O18 1.945522 1_455
As5 O17 1.760938 1_655
As5 O22 1.804552 1_655
As5 O19 1.945522 1_655
H0 O20 1.051740 1_555
H0 O13 1.473357 1_555
H1 O21 1.051740 1_555
H1 O12 1.473357 1_555
H2 O19 0.987875 1_555
H3 O18 0.987875 1_555
O20 O6 1.465053 1_555
O21 O7 1.465053 1_555
