# generated using pymatgen
data_RbZrMnF7
_symmetry_space_group_name_H-M   'P 1'
_cell_length_a   6.54375529
_cell_length_b   6.54375529
_cell_length_c   8.42406300
_cell_angle_alpha   90.00000000
_cell_angle_beta   90.00000000
_cell_angle_gamma   117.66157145
_symmetry_Int_Tables_number   1
_chemical_formula_structural   RbZrMnF7
_chemical_formula_sum   'Rb2 Zr2 Mn2 F14'
_cell_volume   319.49561375
_cell_formula_units_Z   2
loop_
 _symmetry_equiv_pos_site_id
 _symmetry_equiv_pos_as_xyz
  1  'x, y, z'
loop_
 _atom_site_type_symbol
 _atom_site_label
 _atom_site_symmetry_multiplicity
 _atom_site_fract_x
 _atom_site_fract_y
 _atom_site_fract_z
 _atom_site_occupancy
  Rb  Rb0  1  0.50000000  0.50000000  0.50000000  1
  Rb  Rb1  1  0.50000000  0.50000000  0.00000000  1
  Zr  Zr0  1  0.80723900  0.19276100  0.25000000  1
  Zr  Zr1  1  0.19276100  0.80723900  0.75000000  1
  Mn  Mn0  1  0.18878200  0.81121800  0.25000000  1
  Mn  Mn1  1  0.81121800  0.18878200  0.75000000  1
  F  F0  1  0.84115300  0.55399600  0.75000000  1
  F  F1  1  0.15884700  0.44600400  0.25000000  1
  F  F2  1  0.16373800  0.46665900  0.75000000  1
  F  F3  1  0.79978100  0.20021900  0.49427600  1
  F  F4  1  0.44600400  0.15884700  0.75000000  1
  F  F5  1  0.79978100  0.20021900  0.00572400  1
  F  F6  1  0.20021900  0.79978100  0.99427600  1
  F  F7  1  0.83626200  0.53334100  0.25000000  1
  F  F8  1  0.55399600  0.84115300  0.25000000  1
  F  F9  1  0.99280700  0.00719300  0.25000000  1
  F  F10  1  0.00719300  0.99280700  0.75000000  1
  F  F11  1  0.20021900  0.79978100  0.50572400  1
  F  F12  1  0.53334100  0.83626200  0.75000000  1
  F  F13  1  0.46665900  0.16373800  0.25000000  1
loop_
_geom_bond_atom_site_label_1
_geom_bond_atom_site_label_2
_geom_bond_distance
_geom_bond_site_symmetry_2
F0 Zr1 2.121275 1_655
F0 Mn1 2.305468 1_555
F0 Rb1 2.968411 1_556
F0 Rb0 2.968411 1_555
F1 Zr0 2.121275 1_455
F1 Mn0 2.305468 1_555
F1 Rb0 2.968411 1_555
F1 Rb1 2.968411 1_555
F2 Zr1 2.147102 1_555
F2 Mn1 2.175571 1_455
F2 Rb0 2.979763 1_555
F2 Rb1 2.979763 1_556
F3 Zr0 2.059490 1_555
F3 Mn1 2.158039 1_555
F3 Rb0 3.357363 1_555
F4 Zr1 2.121275 1_545
F4 Mn1 2.305468 1_555
F4 Rb0 2.968411 1_555
F4 Rb1 2.968411 1_556
F5 Zr0 2.059490 1_555
F5 Mn1 2.158039 1_554
F5 Rb1 3.357363 1_555
F6 Zr1 2.059490 1_555
F6 Mn0 2.158039 1_556
F6 Rb1 3.357363 1_556
F7 Zr0 2.147102 1_555
F7 Mn0 2.175571 1_655
F7 Rb0 2.979763 1_555
F7 Rb1 2.979763 1_555
F8 Zr0 2.121275 1_565
F8 Mn0 2.305468 1_555
F8 Rb1 2.968411 1_555
F8 Rb0 2.968411 1_555
F9 Zr0 2.078033 1_555
F9 Mn0 2.194573 1_645
F10 Zr1 2.078033 1_555
F10 Mn1 2.194573 1_465
F11 Zr1 2.059490 1_555
F11 Mn0 2.158039 1_555
F11 Rb0 3.357363 1_555
F12 Zr1 2.147102 1_555
F12 Mn1 2.175571 1_565
F12 Rb0 2.979763 1_555
F12 Rb1 2.979763 1_556
F13 Zr0 2.147102 1_555
F13 Mn0 2.175571 1_545
F13 Rb0 2.979763 1_555
F13 Rb1 2.979763 1_555
