# generated using pymatgen
data_Li3AlMo2(AsO7)2
_symmetry_space_group_name_H-M   'P 1'
_cell_length_a   5.28278600
_cell_length_b   5.49119677
_cell_length_c   9.58569097
_cell_angle_alpha   96.31429303
_cell_angle_beta   102.34374207
_cell_angle_gamma   105.16998299
_symmetry_Int_Tables_number   1
_chemical_formula_structural   Li3AlMo2(AsO7)2
_chemical_formula_sum   'Li3 Al1 Mo2 As2 O14'
_cell_volume   258.08392604
_cell_formula_units_Z   1
loop_
 _symmetry_equiv_pos_site_id
 _symmetry_equiv_pos_as_xyz
  1  'x, y, z'
loop_
 _atom_site_type_symbol
 _atom_site_label
 _atom_site_symmetry_multiplicity
 _atom_site_fract_x
 _atom_site_fract_y
 _atom_site_fract_z
 _atom_site_occupancy
  Li  Li0  1  0.19407400  0.38654200  0.84780200  1
  Li  Li1  1  0.80592600  0.61345800  0.15219800  1
  Li  Li2  1  0.00000000  0.50000000  0.50000000  1
  Al  Al0  1  0.50000000  0.00000000  0.00000000  1
  Mo  Mo0  1  0.49517500  0.83859200  0.35383900  1
  Mo  Mo1  1  0.50482500  0.16140800  0.64616100  1
  As  As0  1  0.14977500  0.23207200  0.17493100  1
  As  As1  1  0.85022500  0.76792800  0.82506900  1
  O  O0  1  0.58298000  0.70763600  0.90586200  1
  O  O1  1  0.13705000  0.79174400  0.95700500  1
  O  O2  1  0.41702000  0.29236400  0.09413800  1
  O  O3  1  0.32476300  0.83666000  0.53615600  1
  O  O4  1  0.56073900  0.87020000  0.17662600  1
  O  O5  1  0.86295000  0.20825600  0.04299500  1
  O  O6  1  0.16120700  0.51050800  0.28843900  1
  O  O7  1  0.86662100  0.01980900  0.73471500  1
  O  O8  1  0.27980100  0.33398500  0.59058500  1
  O  O9  1  0.83879300  0.48949200  0.71156100  1
  O  O10  1  0.43926100  0.12980000  0.82337400  1
  O  O11  1  0.72019900  0.66601500  0.40941500  1
  O  O12  1  0.67523700  0.16334000  0.46384400  1
  O  O13  1  0.13337900  0.98019100  0.26528500  1
loop_
_geom_bond_atom_site_label_1
_geom_bond_atom_site_label_2
_geom_bond_distance
_geom_bond_site_symmetry_2
Li0 O10 2.175530 1_555
Li0 O0 2.244764 1_555
Li0 O7 2.262254 1_455
Li0 O9 2.284185 1_455
Li0 O1 2.471969 1_555
Li0 O2 2.574620 1_556
Li0 O8 2.599400 1_555
Li1 O4 2.175530 1_555
Li1 O2 2.244764 1_555
Li1 O13 2.262254 1_655
Li1 O6 2.284185 1_655
Li1 O5 2.471969 1_555
Li1 O0 2.574620 1_554
Li1 O11 2.599400 1_555
Li2 O11 2.024967 1_455
Li2 O8 2.024967 1_555
Li2 O3 2.103816 1_555
Li2 O12 2.103816 1_455
Li2 O6 2.362125 1_555
Li2 O9 2.362125 1_455
Al0 O5 1.888090 1_555
Al0 O1 1.888090 1_544
Al0 O10 1.905354 1_554
Al0 O4 1.905354 1_545
Al0 O2 1.950036 1_555
Al0 O0 1.950036 1_544
Mo0 O11 1.739213 1_555
Mo0 O4 1.822265 1_555
Mo0 O12 1.861853 1_565
Mo0 O6 2.089625 1_555
Mo0 O3 2.129916 1_555
Mo0 O13 2.281988 1_555
Mo1 O8 1.739213 1_555
Mo1 O10 1.822265 1_555
Mo1 O3 1.861853 1_545
Mo1 O9 2.089625 1_555
Mo1 O12 2.129916 1_555
Mo1 O7 2.281988 1_555
As0 O13 1.703984 1_545
As0 O5 1.718454 1_455
As0 O2 1.726794 1_555
As0 O6 1.755801 1_555
As1 O7 1.703984 1_565
As1 O1 1.718454 1_655
As1 O0 1.726794 1_555
As1 O9 1.755801 1_555
