# generated using pymatgen
data_MgSiO3
_symmetry_space_group_name_H-M   'P 1'
_cell_length_a   5.31230984
_cell_length_b   8.71185874
_cell_length_c   9.26667111
_cell_angle_alpha   90.00000000
_cell_angle_beta   90.00000000
_cell_angle_gamma   90.00000000
_symmetry_Int_Tables_number   1
_chemical_formula_structural   MgSiO3
_chemical_formula_sum   'Mg8 Si8 O24'
_cell_volume   428.86239993
_cell_formula_units_Z   8
loop_
 _symmetry_equiv_pos_site_id
 _symmetry_equiv_pos_as_xyz
  1  'x, y, z'
loop_
 _atom_site_type_symbol
 _atom_site_label
 _atom_site_symmetry_multiplicity
 _atom_site_fract_x
 _atom_site_fract_y
 _atom_site_fract_z
 _atom_site_occupancy
  Mg  Mg0  1  0.25000000  0.90424725  0.00000000  1
  Mg  Mg1  1  0.75000000  0.59575275  0.50000000  1
  Mg  Mg2  1  0.75000000  0.09575275  0.00000000  1
  Mg  Mg3  1  0.25000000  0.40424725  0.50000000  1
  Mg  Mg4  1  0.75000000  0.73740468  0.00000000  1
  Mg  Mg5  1  0.25000000  0.76259532  0.50000000  1
  Mg  Mg6  1  0.25000000  0.26259532  0.00000000  1
  Mg  Mg7  1  0.75000000  0.23740468  0.50000000  1
  Si  Si0  1  0.93487242  0.90871458  0.29214214  1
  Si  Si1  1  0.43487242  0.59128542  0.20785786  1
  Si  Si2  1  0.56512758  0.90871458  0.70785786  1
  Si  Si3  1  0.06512758  0.59128542  0.79214214  1
  Si  Si4  1  0.06512758  0.09128542  0.70785786  1
  Si  Si5  1  0.56512758  0.40871458  0.79214214  1
  Si  Si6  1  0.43487242  0.09128542  0.29214214  1
  Si  Si7  1  0.93487242  0.40871458  0.20785786  1
  O  O0  1  0.71225959  0.52586881  0.15058939  1
  O  O1  1  0.21225959  0.97413119  0.34941061  1
  O  O2  1  0.78774041  0.52586881  0.84941061  1
  O  O3  1  0.28774041  0.97413119  0.65058939  1
  O  O4  1  0.28774041  0.47413119  0.84941061  1
  O  O5  1  0.78774041  0.02586881  0.65058939  1
  O  O6  1  0.21225959  0.47413119  0.15058939  1
  O  O7  1  0.71225959  0.02586881  0.34941061  1
  O  O8  1  0.92997829  0.24975521  0.12314628  1
  O  O9  1  0.42997829  0.25024479  0.37685372  1
  O  O10  1  0.57002171  0.24975521  0.87685372  1
  O  O11  1  0.07002171  0.25024479  0.62314628  1
  O  O12  1  0.07002171  0.75024479  0.87685372  1
  O  O13  1  0.57002171  0.74975521  0.62314628  1
  O  O14  1  0.42997829  0.75024479  0.12314628  1
  O  O15  1  0.92997829  0.74975521  0.37685372  1
  O  O16  1  0.92179601  0.90622851  0.11804184  1
  O  O17  1  0.42179601  0.59377149  0.38195816  1
  O  O18  1  0.57820399  0.90622851  0.88195816  1
  O  O19  1  0.07820399  0.59377149  0.61804184  1
  O  O20  1  0.07820399  0.09377149  0.88195816  1
  O  O21  1  0.57820399  0.40622851  0.61804184  1
  O  O22  1  0.42179601  0.09377149  0.11804184  1
  O  O23  1  0.92179601  0.40622851  0.38195816  1
loop_
_geom_bond_atom_site_label_1
_geom_bond_atom_site_label_2
_geom_bond_distance
_geom_bond_site_symmetry_2
Mg0 O14 2.004092 1_555
Mg0 O12 2.004092 1_554
Mg0 O18 2.058320 1_554
Mg0 O16 2.058320 1_455
Mg0 O20 2.180729 1_564
Mg0 O22 2.180729 1_565
Mg1 O15 2.004092 1_555
Mg1 O13 2.004092 1_555
Mg1 O19 2.058320 1_655
Mg1 O17 2.058320 1_555
Mg1 O23 2.180729 1_555
Mg1 O21 2.180729 1_555
Mg2 O8 2.004092 1_555
Mg2 O10 2.004092 1_554
Mg2 O20 2.058320 1_654
Mg2 O22 2.058320 1_555
Mg2 O16 2.180729 1_545
Mg2 O18 2.180729 1_544
Mg3 O9 2.004092 1_555
Mg3 O11 2.004092 1_555
Mg3 O21 2.058320 1_555
Mg3 O23 2.058320 1_455
Mg3 O17 2.180729 1_555
Mg3 O19 2.180729 1_555
Mg4 O18 2.047579 1_554
Mg4 O16 2.047579 1_555
Mg4 O12 2.050594 1_654
Mg4 O14 2.050594 1_555
Mg4 O0 2.320276 1_555
Mg4 O2 2.320276 1_554
Mg5 O19 2.047579 1_555
Mg5 O17 2.047579 1_555
Mg5 O15 2.050594 1_455
Mg5 O13 2.050594 1_555
Mg5 O3 2.320276 1_555
Mg5 O1 2.320276 1_555
Mg6 O20 2.047579 1_554
Mg6 O22 2.047579 1_555
Mg6 O8 2.050594 1_455
Mg6 O10 2.050594 1_554
Mg6 O4 2.320276 1_554
Mg6 O6 2.320276 1_555
Mg7 O23 2.047579 1_555
Mg7 O21 2.047579 1_555
Mg7 O11 2.050594 1_655
Mg7 O9 2.050594 1_555
Mg7 O5 2.320276 1_555
Mg7 O7 2.320276 1_555
O0 Si7 1.649798 1_555
O0 Si1 1.666678 1_555
O1 Si6 1.649798 1_565
O1 Si0 1.666678 1_455
O2 Si5 1.649798 1_555
O2 Si3 1.666678 1_655
O3 Si4 1.649798 1_565
O3 Si2 1.666678 1_555
O4 Si3 1.649798 1_555
O4 Si5 1.666678 1_555
O5 Si2 1.649798 1_545
O5 Si4 1.666678 1_655
O6 Si1 1.649798 1_555
O6 Si7 1.666678 1_455
O7 Si0 1.649798 1_545
O7 Si6 1.666678 1_555
O8 Si7 1.592059 1_555
O9 Si6 1.592059 1_555
O10 Si5 1.592059 1_555
O11 Si4 1.592059 1_555
O12 Si3 1.592059 1_555
O13 Si2 1.592059 1_555
O14 Si1 1.592059 1_555
O15 Si0 1.592059 1_555
O16 Si0 1.614970 1_555
O17 Si1 1.614970 1_555
O18 Si2 1.614970 1_555
O19 Si3 1.614970 1_555
O20 Si4 1.614970 1_555
O21 Si5 1.614970 1_555
O22 Si6 1.614970 1_555
O23 Si7 1.614970 1_555
