# generated using pymatgen
data_La(SiRu)2
_symmetry_space_group_name_H-M   'P 1'
_cell_length_a   4.23157251
_cell_length_b   4.23157273
_cell_length_c   5.81935826
_cell_angle_alpha   111.32005434
_cell_angle_beta   111.32003987
_cell_angle_gamma   90.00000549
_symmetry_Int_Tables_number   1
_chemical_formula_structural   La(SiRu)2
_chemical_formula_sum   'La1 Si2 Ru2'
_cell_volume   89.37301445
_cell_formula_units_Z   1
loop_
 _symmetry_equiv_pos_site_id
 _symmetry_equiv_pos_as_xyz
  1  'x, y, z'
loop_
 _atom_site_type_symbol
 _atom_site_label
 _atom_site_symmetry_multiplicity
 _atom_site_fract_x
 _atom_site_fract_y
 _atom_site_fract_z
 _atom_site_occupancy
  La  La0  1  0.00000000  -0.00000000  -0.00000000  1
  Si  Si0  1  0.64126467  0.64126467  0.28253034  1
  Si  Si1  1  0.35873533  0.35873533  0.71746966  1
  Ru  Ru0  1  0.75000000  0.25000000  0.50000000  1
  Ru  Ru1  1  0.25000000  0.75000000  0.50000000  1
loop_
_geom_bond_atom_site_label_1
_geom_bond_atom_site_label_2
_geom_bond_distance
_geom_bond_site_symmetry_2
La0 Ru1 3.271774 1_544
La0 Ru0 3.271774 1_455
La0 Ru0 3.271774 1_444
La0 Ru1 3.271774 1_555
La0 Ru0 3.271775 1_454
La0 Ru1 3.271775 1_545
La0 Ru0 3.271775 1_555
La0 Ru1 3.271775 1_444
La0 Si1 3.307814 1_444
La0 Si0 3.307814 1_555
La0 Si1 3.307816 1_544
La0 Si0 3.307816 1_455
La0 Si1 3.307817 1_454
La0 Si0 3.307817 1_545
La0 Si0 3.307819 1_445
La0 Si1 3.307819 1_554
Ru0 Si1 2.377961 1_555
Ru0 Si0 2.377961 1_555
Ru0 Si0 2.377965 1_545
Ru0 Si1 2.377965 1_655
Ru1 Si0 2.377961 1_555
Ru1 Si1 2.377961 1_555
Ru1 Si1 2.377965 1_565
Ru1 Si0 2.377965 1_455
