# generated using pymatgen
data_Nd3CuSnS7
_symmetry_space_group_name_H-M   'P 1'
_cell_length_a   10.16437255
_cell_length_b   10.16437255
_cell_length_c   6.12937800
_cell_angle_alpha   90.00000000
_cell_angle_beta   90.00000000
_cell_angle_gamma   120.00000358
_symmetry_Int_Tables_number   1
_chemical_formula_structural   Nd3CuSnS7
_chemical_formula_sum   'Nd6 Cu2 Sn2 S14'
_cell_volume   548.41354229
_cell_formula_units_Z   2
loop_
 _symmetry_equiv_pos_site_id
 _symmetry_equiv_pos_as_xyz
  1  'x, y, z'
loop_
 _atom_site_type_symbol
 _atom_site_label
 _atom_site_symmetry_multiplicity
 _atom_site_fract_x
 _atom_site_fract_y
 _atom_site_fract_z
 _atom_site_occupancy
  Nd  Nd0  1  0.86210400  0.21926700  0.26087000  1
  Nd  Nd1  1  0.35716300  0.13789600  0.26087000  1
  Nd  Nd2  1  0.13789600  0.78073300  0.76087000  1
  Nd  Nd3  1  0.21926700  0.35716300  0.76087000  1
  Nd  Nd4  1  0.64283700  0.86210400  0.76087000  1
  Nd  Nd5  1  0.78073300  0.64283700  0.26087000  1
  Cu  Cu0  1  0.00000000  0.00000000  0.70169700  1
  Cu  Cu1  1  0.00000000  0.00000000  0.20169700  1
  Sn  Sn0  1  0.66666700  0.33333300  0.83296800  1
  Sn  Sn1  1  0.33333300  0.66666700  0.33296800  1
  S  S0  1  0.57170000  0.08771900  0.00540500  1
  S  S1  1  0.25458300  0.10100700  0.71802500  1
  S  S2  1  0.91228100  0.48398100  0.00540500  1
  S  S3  1  0.15357500  0.25458300  0.21802500  1
  S  S4  1  0.48398100  0.57170000  0.50540500  1
  S  S5  1  0.42830000  0.91228100  0.50540500  1
  S  S6  1  0.33333300  0.66666700  0.94443500  1
  S  S7  1  0.66666700  0.33333300  0.44443500  1
  S  S8  1  0.84642500  0.74541700  0.71802500  1
  S  S9  1  0.74541700  0.89899300  0.21802500  1
  S  S10  1  0.08771900  0.51601900  0.50540500  1
  S  S11  1  0.10100700  0.84642500  0.21802500  1
  S  S12  1  0.51601900  0.42830000  0.00540500  1
  S  S13  1  0.89899300  0.15357500  0.71802500  1
loop_
_geom_bond_atom_site_label_1
_geom_bond_atom_site_label_2
_geom_bond_distance
_geom_bond_site_symmetry_2
Nd0 S3 2.812732 1_655
Nd0 S9 2.865686 1_545
Nd0 S2 2.929045 1_555
Nd0 S13 2.947614 1_555
Nd0 S7 2.976489 1_555
Nd0 S0 3.000975 1_555
Nd0 S10 3.112305 1_655
Nd0 S13 3.450759 1_554
Nd1 S11 2.812736 1_545
Nd1 S3 2.865696 1_555
Nd1 S0 2.929045 1_555
Nd1 S1 2.947611 1_555
Nd1 S7 2.976497 1_555
Nd1 S12 3.000975 1_555
Nd1 S5 3.112305 1_545
Nd1 S1 3.450757 1_554
Nd2 S8 2.812732 1_455
Nd2 S1 2.865686 1_565
Nd2 S10 2.929045 1_555
Nd2 S11 2.947614 1_556
Nd2 S6 2.976489 1_555
Nd2 S5 3.000975 1_555
Nd2 S2 3.112305 1_456
Nd2 S11 3.450759 1_555
Nd3 S1 2.812742 1_555
Nd3 S13 2.865688 1_455
Nd3 S4 2.929045 1_555
Nd3 S3 2.947612 1_556
Nd3 S6 2.976498 1_555
Nd3 S10 3.000975 1_555
Nd3 S12 3.112305 1_556
Nd3 S3 3.450757 1_555
Nd4 S13 2.812736 1_565
Nd4 S8 2.865696 1_555
Nd4 S5 2.929045 1_555
Nd4 S9 2.947611 1_556
Nd4 S6 2.976497 1_555
Nd4 S4 3.000975 1_555
Nd4 S0 3.112305 1_566
Nd4 S9 3.450757 1_555
Nd5 S9 2.812742 1_555
Nd5 S11 2.865688 1_655
Nd5 S12 2.929045 1_555
Nd5 S8 2.947612 1_555
Nd5 S7 2.976498 1_555
Nd5 S2 3.000975 1_555
Nd5 S4 3.112305 1_555
Nd5 S8 3.450757 1_554
Cu0 S13 2.259071 1_455
Cu0 S8 2.259079 1_445
Cu0 S1 2.259081 1_555
Cu0 Nd3 3.191720 1_555
Cu0 Nd4 3.191720 1_445
Cu0 Nd2 3.191720 1_545
Cu1 S11 2.259071 1_545
Cu1 S3 2.259079 1_555
Cu1 S9 2.259081 1_445
Cu1 Nd5 3.191720 1_445
Cu1 Nd1 3.191720 1_555
Cu1 Nd0 3.191720 1_455
S0 Sn0 2.423140 1_554
S2 Sn0 2.423142 1_554
S4 Sn1 2.423149 1_555
S5 Sn1 2.423140 1_555
S6 Sn1 2.381466 1_556
S7 Sn0 2.381466 1_555
S10 Sn1 2.423142 1_555
S12 Sn0 2.423149 1_554
