# generated using pymatgen
data_CaU(MoO4)4
_symmetry_space_group_name_H-M   'P 1'
_cell_length_a   6.67439678
_cell_length_b   8.23762010
_cell_length_c   14.04687104
_cell_angle_alpha   54.52706532
_cell_angle_beta   90.00000000
_cell_angle_gamma   90.00000000
_symmetry_Int_Tables_number   1
_chemical_formula_structural   CaU(MoO4)4
_chemical_formula_sum   'Ca2 U2 Mo8 O32'
_cell_volume   628.96382707
_cell_formula_units_Z   2
loop_
 _symmetry_equiv_pos_site_id
 _symmetry_equiv_pos_as_xyz
  1  'x, y, z'
loop_
 _atom_site_type_symbol
 _atom_site_label
 _atom_site_symmetry_multiplicity
 _atom_site_fract_x
 _atom_site_fract_y
 _atom_site_fract_z
 _atom_site_occupancy
  Ca  Ca0  1  0.29893445  0.50000000  0.25000000  1
  Ca  Ca1  1  0.70106555  0.50000000  0.75000000  1
  U  U0  1  0.70064357  -0.00000000  0.75000000  1
  U  U1  1  0.29935643  -0.00000000  0.25000000  1
  Mo  Mo0  1  0.83090098  0.79722540  0.40708233  1
  Mo  Mo1  1  0.16909902  0.20277460  0.59291767  1
  Mo  Mo2  1  0.82914840  0.30026949  0.40381650  1
  Mo  Mo3  1  0.83090098  0.20277460  0.09291767  1
  Mo  Mo4  1  0.16909902  0.79722540  0.90708233  1
  Mo  Mo5  1  0.17085160  0.69973051  0.59618350  1
  Mo  Mo6  1  0.82914840  0.69973051  0.09618350  1
  Mo  Mo7  1  0.17085160  0.30026949  0.90381650  1
  O  O0  1  0.15063912  0.18620483  0.06673031  1
  O  O1  1  0.15293207  0.09395656  0.90279305  1
  O  O2  1  0.15063912  0.81379517  0.43326969  1
  O  O3  1  0.41877143  0.63640733  0.62389700  1
  O  O4  1  0.58122857  0.36359267  0.37610300  1
  O  O5  1  0.14837538  0.31307096  0.43796116  1
  O  O6  1  0.84480741  0.59501789  0.40219448  1
  O  O7  1  0.84936088  0.18620483  0.56673031  1
  O  O8  1  0.93353690  0.50000000  0.25000000  1
  O  O9  1  0.84706793  0.90604344  0.09720695  1
  O  O10  1  0.41877143  0.36359267  0.87610300  1
  O  O11  1  0.94119377  -0.00000000  0.25000000  1
  O  O12  1  0.15293207  0.90604344  0.59720695  1
  O  O13  1  0.42128085  0.87112751  0.87179276  1
  O  O14  1  0.05880623  -0.00000000  0.75000000  1
  O  O15  1  0.15519259  0.40498211  0.59780552  1
  O  O16  1  0.06646310  0.50000000  0.75000000  1
  O  O17  1  0.85162462  0.68692904  0.56203884  1
  O  O18  1  0.69943250  0.78205275  0.74751567  1
  O  O19  1  0.30056750  0.78205275  0.24751567  1
  O  O20  1  0.14837538  0.68692904  0.06203884  1
  O  O21  1  0.85162462  0.31307096  0.93796116  1
  O  O22  1  0.84706793  0.09395656  0.40279305  1
  O  O23  1  0.57871915  0.12887249  0.12820724  1
  O  O24  1  0.84936088  0.81379517  0.93326969  1
  O  O25  1  0.69943250  0.21794725  0.75248433  1
  O  O26  1  0.84480741  0.40498211  0.09780552  1
  O  O27  1  0.57871915  0.87112751  0.37179276  1
  O  O28  1  0.42128085  0.12887249  0.62820724  1
  O  O29  1  0.15519259  0.59501789  0.90219448  1
  O  O30  1  0.30056750  0.21794725  0.25248433  1
  O  O31  1  0.58122857  0.63640733  0.12389700  1
loop_
_geom_bond_atom_site_label_1
_geom_bond_atom_site_label_2
_geom_bond_distance
_geom_bond_site_symmetry_2
Ca0 O19 2.303393 1_555
Ca0 O30 2.303393 1_555
Ca0 O5 2.373447 1_555
Ca0 O20 2.373447 1_555
Ca0 O31 2.374904 1_555
Ca0 O4 2.374904 1_555
Ca0 O8 2.438808 1_455
Ca1 O25 2.303393 1_555
Ca1 O18 2.303393 1_555
Ca1 O17 2.373447 1_555
Ca1 O21 2.373447 1_555
Ca1 O3 2.374904 1_555
Ca1 O10 2.374904 1_555
Ca1 O16 2.438808 1_655
Mo0 O6 1.708991 1_555
Mo0 O27 1.760431 1_555
Mo0 O17 1.813043 1_555
Mo0 O11 1.980656 1_565
Mo0 O2 2.183215 1_655
Mo0 O22 2.412308 1_565
Mo1 O15 1.708991 1_555
Mo1 O28 1.760431 1_555
Mo1 O5 1.813043 1_555
Mo1 O14 1.980656 1_555
Mo1 O7 2.183215 1_455
Mo1 O12 2.412308 1_545
Mo2 O4 1.710568 1_555
Mo2 O22 1.712093 1_555
Mo2 O7 1.908489 1_555
Mo2 O8 1.932580 1_555
Mo2 O5 2.199892 1_655
Mo2 O6 2.417135 1_555
Mo3 O26 1.708991 1_555
Mo3 O23 1.760431 1_555
Mo3 O21 1.813043 1_554
Mo3 O11 1.980656 1_555
Mo3 O0 2.183215 1_655
Mo3 O9 2.412308 1_545
Mo4 O29 1.708991 1_555
Mo4 O13 1.760431 1_555
Mo4 O20 1.813043 1_556
Mo4 O14 1.980656 1_565
Mo4 O24 2.183215 1_455
Mo4 O1 2.412308 1_565
Mo5 O3 1.710568 1_555
Mo5 O12 1.712093 1_555
Mo5 O2 1.908489 1_555
Mo5 O16 1.932580 1_555
Mo5 O17 2.199892 1_455
Mo5 O15 2.417135 1_555
Mo6 O31 1.710568 1_555
Mo6 O9 1.712093 1_555
Mo6 O24 1.908489 1_554
Mo6 O8 1.932580 1_555
Mo6 O20 2.199892 1_655
Mo6 O26 2.417135 1_555
Mo7 O10 1.710568 1_555
Mo7 O1 1.712093 1_555
Mo7 O0 1.908489 1_556
Mo7 O16 1.932580 1_555
Mo7 O21 2.199892 1_455
Mo7 O29 2.417135 1_555
O0 U1 2.319981 1_555
O2 U1 2.319981 1_565
O7 U0 2.319981 1_555
O11 U1 2.390520 1_655
O13 U0 2.328640 1_565
O14 U0 2.390520 1_455
O18 U0 1.815858 1_565
O19 U1 1.815858 1_565
O23 U1 2.328640 1_555
O24 U0 2.319981 1_565
O25 U0 1.815858 1_555
O27 U1 2.328640 1_565
O28 U0 2.328640 1_555
O30 U1 1.815858 1_555
