# generated using pymatgen
data_Cs4Mn2PdF12
_symmetry_space_group_name_H-M   'P 1'
_cell_length_a   8.73757200
_cell_length_b   8.73757200
_cell_length_c   11.65156575
_cell_angle_alpha   112.02138925
_cell_angle_beta   112.02138925
_cell_angle_gamma   90.00000000
_symmetry_Int_Tables_number   1
_chemical_formula_structural   Cs4Mn2PdF12
_chemical_formula_sum   'Cs8 Mn4 Pd2 F24'
_cell_volume   754.18204372
_cell_formula_units_Z   2
loop_
 _symmetry_equiv_pos_site_id
 _symmetry_equiv_pos_as_xyz
  1  'x, y, z'
loop_
 _atom_site_type_symbol
 _atom_site_label
 _atom_site_symmetry_multiplicity
 _atom_site_fract_x
 _atom_site_fract_y
 _atom_site_fract_z
 _atom_site_occupancy
  Cs  Cs0  1  0.12500000  0.63325900  0.75000000  1
  Cs  Cs1  1  0.12500000  0.11674100  0.75000000  1
  Cs  Cs2  1  0.88325900  0.87500000  0.25000000  1
  Cs  Cs3  1  0.88325900  0.37500000  0.25000000  1
  Cs  Cs4  1  0.62500000  0.63325900  0.75000000  1
  Cs  Cs5  1  0.62500000  0.11674100  0.75000000  1
  Cs  Cs6  1  0.36674100  0.87500000  0.25000000  1
  Cs  Cs7  1  0.36674100  0.37500000  0.25000000  1
  Mn  Mn0  1  0.25267600  0.25267600  0.50535200  1
  Mn  Mn1  1  0.50267600  0.00267600  0.00535200  1
  Mn  Mn2  1  0.99732400  0.49732400  0.99464800  1
  Mn  Mn3  1  0.74732400  0.74732400  0.49464800  1
  Pd  Pd0  1  0.75000000  0.25000000  0.50000000  1
  Pd  Pd1  1  0.50000000  0.50000000  0.00000000  1
  F  F0  1  0.98292600  0.25072500  0.50145000  1
  F  F1  1  0.50072500  0.73292600  0.00145000  1
  F  F2  1  0.50072500  0.26852400  0.00145000  1
  F  F3  1  0.51852400  0.25072500  0.50145000  1
  F  F4  1  0.26707400  0.49927500  0.99855000  1
  F  F5  1  0.74927500  0.01707400  0.49855000  1
  F  F6  1  0.74927500  0.48147600  0.49855000  1
  F  F7  1  0.73147600  0.49927500  0.99855000  1
  F  F8  1  0.95997800  0.74720500  0.49441100  1
  F  F9  1  0.99720500  0.70997800  0.99441100  1
  F  F10  1  0.99720500  0.28443300  0.99441100  1
  F  F11  1  0.53443300  0.74720500  0.49441100  1
  F  F12  1  0.29002200  0.00279500  0.00558900  1
  F  F13  1  0.25279500  0.04002200  0.50558900  1
  F  F14  1  0.25279500  0.46556700  0.50558900  1
  F  F15  1  0.71556700  0.00279500  0.00558900  1
  F  F16  1  0.34765400  0.34765400  0.69530900  1
  F  F17  1  0.59765400  0.09765400  0.19530900  1
  F  F18  1  0.90234600  0.40234600  0.80469100  1
  F  F19  1  0.65234600  0.65234600  0.30469100  1
  F  F20  1  0.15728500  0.15728500  0.31456900  1
  F  F21  1  0.40728500  0.90728500  0.81456900  1
  F  F22  1  0.09271500  0.59271500  0.18543100  1
  F  F23  1  0.84271500  0.84271500  0.68543100  1
loop_
_geom_bond_atom_site_label_1
_geom_bond_atom_site_label_2
_geom_bond_distance
_geom_bond_site_symmetry_2
Cs0 F23 3.104825 1_455
Cs0 F21 3.104831 1_555
Cs0 F18 3.186765 1_455
Cs0 F16 3.186771 1_555
Cs0 F9 3.280098 1_455
Cs0 F14 3.280098 1_555
Cs0 F8 3.307900 1_455
Cs0 F12 3.307906 1_566
Cs0 F1 3.315647 1_556
Cs0 F6 3.315647 1_455
Cs0 F0 3.338389 1_455
Cs0 F4 3.338389 1_555
Cs1 F21 3.104825 1_545
Cs1 F23 3.104831 1_445
Cs1 F16 3.186765 1_555
Cs1 F18 3.186771 1_455
Cs1 F10 3.280098 1_455
Cs1 F13 3.280098 1_555
Cs1 F12 3.307900 1_556
Cs1 F8 3.307906 1_445
Cs1 F2 3.315647 1_556
Cs1 F5 3.315647 1_455
Cs1 F4 3.338389 1_555
Cs1 F0 3.338389 1_455
Cs2 F22 3.104825 1_655
Cs2 F20 3.104831 1_665
Cs2 F19 3.186765 1_555
Cs2 F17 3.186771 1_565
Cs2 F8 3.280098 1_555
Cs2 F15 3.280098 1_565
Cs2 F9 3.307900 1_554
Cs2 F13 3.307906 1_665
Cs2 F0 3.315647 1_565
Cs2 F7 3.315647 1_554
Cs2 F1 3.338389 1_555
Cs2 F5 3.338389 1_565
Cs3 F22 3.104819 1_655
Cs3 F20 3.104825 1_655
Cs3 F19 3.186771 1_555
Cs3 F17 3.186777 1_555
Cs3 F8 3.280092 1_555
Cs3 F15 3.280092 1_555
Cs3 F10 3.307900 1_554
Cs3 F14 3.307906 1_655
Cs3 F7 3.315647 1_554
Cs3 F0 3.315647 1_555
Cs3 F2 3.338389 1_555
Cs3 F6 3.338389 1_555
Cs4 F23 3.104819 1_555
Cs4 F21 3.104825 1_555
Cs4 F18 3.186771 1_555
Cs4 F16 3.186777 1_555
Cs4 F9 3.280092 1_555
Cs4 F14 3.280092 1_555
Cs4 F11 3.307900 1_555
Cs4 F15 3.307906 1_566
Cs4 F6 3.315647 1_555
Cs4 F1 3.315647 1_556
Cs4 F3 3.338389 1_555
Cs4 F7 3.338389 1_555
Cs5 F21 3.104819 1_545
Cs5 F23 3.104825 1_545
Cs5 F16 3.186771 1_555
Cs5 F18 3.186777 1_555
Cs5 F10 3.280092 1_555
Cs5 F13 3.280092 1_555
Cs5 F15 3.307900 1_556
Cs5 F11 3.307906 1_545
Cs5 F5 3.315647 1_555
Cs5 F2 3.315647 1_556
Cs5 F7 3.338389 1_555
Cs5 F3 3.338389 1_555
Cs6 F20 3.104825 1_565
Cs6 F22 3.104831 1_555
Cs6 F17 3.186765 1_565
Cs6 F19 3.186771 1_555
Cs6 F11 3.280098 1_555
Cs6 F12 3.280098 1_565
Cs6 F13 3.307900 1_565
Cs6 F9 3.307906 1_454
Cs6 F3 3.315647 1_565
Cs6 F4 3.315647 1_554
Cs6 F5 3.338389 1_565
Cs6 F1 3.338389 1_555
Cs7 F20 3.104819 1_555
Cs7 F22 3.104825 1_555
Cs7 F17 3.186771 1_555
Cs7 F19 3.186777 1_555
Cs7 F11 3.280092 1_555
Cs7 F12 3.280092 1_555
Cs7 F14 3.307900 1_555
Cs7 F10 3.307906 1_454
Cs7 F4 3.315647 1_554
Cs7 F3 3.315647 1_555
Cs7 F6 3.338389 1_555
Cs7 F2 3.338389 1_555
F0 Pd0 2.028924 1_555
F0 Mn0 2.340231 1_655
F1 Pd1 2.028924 1_555
F1 Mn1 2.340231 1_565
F2 Pd1 2.028924 1_555
F2 Mn1 2.340231 1_555
F3 Pd0 2.028924 1_555
F3 Mn0 2.340231 1_555
F4 Pd1 2.028924 1_556
F4 Mn2 2.340231 1_455
F5 Pd0 2.028924 1_555
F5 Mn3 2.340231 1_545
F6 Pd0 2.028924 1_555
F6 Mn3 2.340231 1_555
F7 Pd1 2.028924 1_556
F7 Mn2 2.340231 1_555
F8 Mn3 1.859117 1_555
F9 Mn2 1.859117 1_555
F10 Mn2 1.859117 1_555
F11 Mn3 1.859117 1_555
F12 Mn1 1.859117 1_555
F13 Mn0 1.859117 1_555
F14 Mn0 1.859117 1_555
F15 Mn1 1.859117 1_555
F16 Mn0 1.876506 1_555
F17 Mn1 1.876506 1_555
F18 Mn2 1.876506 1_555
F19 Mn3 1.876506 1_555
F20 Mn0 1.884666 1_555
F21 Mn1 1.884666 1_566
F22 Mn2 1.884666 1_454
F23 Mn3 1.884666 1_555
