# generated using pymatgen
data_Sb4OsC6(O3F11)2
_symmetry_space_group_name_H-M   'P 1'
_cell_length_a   12.77946200
_cell_length_b   9.97986400
_cell_length_c   11.79274202
_cell_angle_alpha   58.54402451
_cell_angle_beta   90.00000000
_cell_angle_gamma   90.00000000
_symmetry_Int_Tables_number   1
_chemical_formula_structural   Sb4OsC6(O3F11)2
_chemical_formula_sum   'Sb8 Os2 C12 O12 F44'
_cell_volume   1282.98652130
_cell_formula_units_Z   2
loop_
 _symmetry_equiv_pos_site_id
 _symmetry_equiv_pos_as_xyz
  1  'x, y, z'
loop_
 _atom_site_type_symbol
 _atom_site_label
 _atom_site_symmetry_multiplicity
 _atom_site_fract_x
 _atom_site_fract_y
 _atom_site_fract_z
 _atom_site_occupancy
  Sb  Sb0  1  0.36900400  0.24170800  0.77376100  1
  Sb  Sb1  1  0.63099600  0.75829200  0.22623900  1
  Sb  Sb2  1  0.29993600  0.60040100  0.99666700  1
  Sb  Sb3  1  0.20006400  0.60040100  0.49666700  1
  Sb  Sb4  1  0.86900400  0.75829200  0.72623900  1
  Sb  Sb5  1  0.13099600  0.24170800  0.27376100  1
  Sb  Sb6  1  0.70006400  0.39959900  0.00333300  1
  Sb  Sb7  1  0.79993600  0.39959900  0.50333300  1
  Os  Os0  1  0.00000000  0.00000000  0.00000000  1
  Os  Os1  1  0.50000000  0.00000000  0.50000000  1
  C  C0  1  0.55347500  0.96964900  0.67308500  1
  C  C1  1  0.64693700  0.04977500  0.42627400  1
  C  C2  1  0.47694300  0.23086400  0.42647600  1
  C  C3  1  0.94652500  0.96964900  0.17308500  1
  C  C4  1  0.52305700  0.76913600  0.57352400  1
  C  C5  1  0.05347500  0.03035100  0.82691500  1
  C  C6  1  0.02305700  0.23086400  0.92647600  1
  C  C7  1  0.35306300  0.95022500  0.57372600  1
  C  C8  1  0.97694300  0.76913600  0.07352400  1
  C  C9  1  0.85306300  0.04977500  0.92627400  1
  C  C10  1  0.44652500  0.03035100  0.32691500  1
  C  C11  1  0.14693700  0.95022500  0.07372600  1
  O  O0  1  0.58347700  0.95128400  0.77096100  1
  O  O1  1  0.72920400  0.08155900  0.38367500  1
  O  O2  1  0.08347700  0.04871600  0.72903900  1
  O  O3  1  0.53359100  0.63784000  0.61799700  1
  O  O4  1  0.41652300  0.04871600  0.22903900  1
  O  O5  1  0.91652300  0.95128400  0.27096100  1
  O  O6  1  0.22920400  0.91844100  0.11632500  1
  O  O7  1  0.03359100  0.36216000  0.88200300  1
  O  O8  1  0.46640900  0.36216000  0.38200300  1
  O  O9  1  0.77079600  0.08155900  0.88367500  1
  O  O10  1  0.96640900  0.63784000  0.11799700  1
  O  O11  1  0.27079600  0.91844100  0.61632500  1
  F  F0  1  0.26558200  0.53499600  0.38969700  1
  F  F1  1  0.49620000  0.29802500  0.67576400  1
  F  F2  1  0.58832500  0.66743600  0.12789800  1
  F  F3  1  0.31900600  0.17816200  0.65551400  1
  F  F4  1  0.18385800  0.46448300  0.13688200  1
  F  F5  1  0.00380000  0.29802500  0.17576400  1
  F  F6  1  0.73046500  0.79356200  0.65240400  1
  F  F7  1  0.41129100  0.03474900  0.90194500  1
  F  F8  1  0.18099400  0.17816200  0.15551400  1
  F  F9  1  0.38480200  0.41757600  0.08030600  1
  F  F10  1  0.80246300  0.23566800  0.05917200  1
  F  F11  1  0.26953500  0.20643800  0.34759600  1
  F  F12  1  0.68099400  0.82183800  0.34448600  1
  F  F13  1  0.68385800  0.53551700  0.36311800  1
  F  F14  1  0.08870900  0.03474900  0.40194500  1
  F  F15  1  0.91129100  0.96525100  0.59805500  1
  F  F16  1  0.15263500  0.65245800  0.62083300  1
  F  F17  1  0.50380000  0.70197500  0.32423600  1
  F  F18  1  0.31614200  0.46448300  0.63688200  1
  F  F19  1  0.19753700  0.76433200  0.94082800  1
  F  F20  1  0.10339700  0.73128800  0.35966600  1
  F  F21  1  0.30246300  0.76433200  0.44082800  1
  F  F22  1  0.76558200  0.46500400  0.11030300  1
  F  F23  1  0.60339700  0.26871200  0.14033400  1
  F  F24  1  0.61519800  0.58242400  0.91969400  1
  F  F25  1  0.91167500  0.66743600  0.62789800  1
  F  F26  1  0.84736500  0.34754200  0.37916700  1
  F  F27  1  0.99620000  0.70197500  0.82423600  1
  F  F28  1  0.73441800  0.46500400  0.61030300  1
  F  F29  1  0.88480200  0.58242400  0.41969400  1
  F  F30  1  0.11519800  0.41757600  0.58030600  1
  F  F31  1  0.89660300  0.26871200  0.64033400  1
  F  F32  1  0.69753700  0.23566800  0.55917200  1
  F  F33  1  0.81614200  0.53551700  0.86311800  1
  F  F34  1  0.08832500  0.33256400  0.37210200  1
  F  F35  1  0.23441800  0.53499600  0.88969700  1
  F  F36  1  0.76953500  0.79356200  0.15240400  1
  F  F37  1  0.23046500  0.20643800  0.84759600  1
  F  F38  1  0.65263500  0.34754200  0.87916700  1
  F  F39  1  0.58870900  0.96525100  0.09805500  1
  F  F40  1  0.81900600  0.82183800  0.84448600  1
  F  F41  1  0.34736500  0.65245800  0.12083300  1
  F  F42  1  0.41167500  0.33256400  0.87210200  1
  F  F43  1  0.39660300  0.73128800  0.85966600  1
loop_
_geom_bond_atom_site_label_1
_geom_bond_atom_site_label_2
_geom_bond_distance
_geom_bond_site_symmetry_2
C0 O0 1.136681 1_555
C0 Os1 2.019843 1_565
C1 O1 1.136645 1_555
C1 Os1 2.019395 1_555
C2 O8 1.137049 1_555
C2 Os1 2.015447 1_555
C3 O5 1.136681 1_555
C3 Os0 2.019843 1_665
C4 O3 1.137049 1_555
C4 Os1 2.015447 1_565
C5 O2 1.136681 1_555
C5 Os0 2.019843 1_556
C6 O7 1.137049 1_555
C6 Os0 2.015447 1_556
C7 O11 1.136645 1_555
C7 Os1 2.019395 1_565
C8 O10 1.137049 1_555
C8 Os0 2.015447 1_665
C9 O9 1.136645 1_555
C9 Os0 2.019395 1_656
C10 O4 1.136681 1_555
C10 Os1 2.019843 1_555
C11 O6 1.136645 1_555
C11 Os0 2.019395 1_565
F0 Sb3 1.891504 1_555
F1 Sb0 1.901516 1_555
F2 Sb1 1.887309 1_555
F3 Sb0 1.917790 1_555
F4 Sb5 2.063811 1_555
F4 Sb2 2.105634 1_554
F5 Sb5 1.901516 1_555
F6 Sb4 1.922675 1_555
F7 Sb0 1.893276 1_555
F8 Sb5 1.917790 1_555
F9 Sb2 1.897336 1_554
F10 Sb6 1.923075 1_555
F11 Sb5 1.922675 1_555
F12 Sb1 1.917790 1_555
F13 Sb1 2.063811 1_555
F13 Sb7 2.105634 1_555
F14 Sb5 1.893276 1_555
F15 Sb4 1.893276 1_555
F16 Sb3 1.890841 1_555
F17 Sb1 1.901516 1_555
F18 Sb0 2.063811 1_555
F18 Sb3 2.105634 1_555
F19 Sb2 1.923075 1_555
F20 Sb3 1.907877 1_555
F21 Sb3 1.923075 1_555
F22 Sb6 1.891504 1_555
F23 Sb6 1.907877 1_555
F24 Sb6 1.897336 1_556
F25 Sb4 1.887309 1_555
F26 Sb7 1.890841 1_555
F27 Sb4 1.901516 1_555
F28 Sb7 1.891504 1_555
F29 Sb7 1.897336 1_555
F30 Sb3 1.897336 1_555
F31 Sb7 1.907877 1_555
F32 Sb7 1.923075 1_555
F33 Sb4 2.063811 1_555
F33 Sb6 2.105634 1_556
F34 Sb5 1.887309 1_555
F35 Sb2 1.891504 1_555
F36 Sb1 1.922675 1_555
F37 Sb0 1.922675 1_555
F38 Sb6 1.890841 1_556
F39 Sb1 1.893276 1_555
F40 Sb4 1.917790 1_555
F41 Sb2 1.890841 1_554
F42 Sb0 1.887309 1_555
F43 Sb2 1.907877 1_555
