# generated using pymatgen
data_Na6P4Pb3S16
_symmetry_space_group_name_H-M   'P 1'
_cell_length_a   11.53424695
_cell_length_b   11.53424695
_cell_length_c   11.53424709
_cell_angle_alpha   116.81847953
_cell_angle_beta   116.81847953
_cell_angle_gamma   116.81847363
_symmetry_Int_Tables_number   1
_chemical_formula_structural   Na6P4Pb3S16
_chemical_formula_sum   'Na6 P4 Pb3 S16'
_cell_volume   695.92684852
_cell_formula_units_Z   1
loop_
 _symmetry_equiv_pos_site_id
 _symmetry_equiv_pos_as_xyz
  1  'x, y, z'
loop_
 _atom_site_type_symbol
 _atom_site_label
 _atom_site_symmetry_multiplicity
 _atom_site_fract_x
 _atom_site_fract_y
 _atom_site_fract_z
 _atom_site_occupancy
  Na  Na0  1  0.39811900  0.84950600  0.65513500  1
  Na  Na1  1  0.84950600  0.39811900  0.65513500  1
  Na  Na2  1  0.65513400  0.84950600  0.39811900  1
  Na  Na3  1  0.39811900  0.65513500  0.84950600  1
  Na  Na4  1  0.65513400  0.39811900  0.84950600  1
  Na  Na5  1  0.84950600  0.65513500  0.39811900  1
  P  P0  1  0.23467300  0.23467300  0.76085200  1
  P  P1  1  0.23467300  0.76085200  0.23467300  1
  P  P2  1  0.76085200  0.23467300  0.23467300  1
  P  P3  1  0.41913500  0.41913500  0.41913500  1
  Pb  Pb0  1  0.01178000  0.01178000  0.27766500  1
  Pb  Pb1  1  0.27766500  0.01178000  0.01178000  1
  Pb  Pb2  1  0.01178000  0.27766500  0.01178000  1
  S  S0  1  0.03367500  0.20459700  0.57124800  1
  S  S1  1  0.64048300  0.46746100  0.46746100  1
  S  S2  1  0.57124800  0.03367500  0.20459700  1
  S  S3  1  0.08973600  0.08973600  0.08973600  1
  S  S4  1  0.46746100  0.46746100  0.64048300  1
  S  S5  1  0.56967600  0.06163100  0.56967600  1
  S  S6  1  0.10387100  0.10387100  0.80686500  1
  S  S7  1  0.56967600  0.56967600  0.06163100  1
  S  S8  1  0.06163100  0.56967600  0.56967600  1
  S  S9  1  0.20459700  0.03367500  0.57124800  1
  S  S10  1  0.46746100  0.64048300  0.46746100  1
  S  S11  1  0.57124800  0.20459700  0.03367500  1
  S  S12  1  0.03367500  0.57124800  0.20459700  1
  S  S13  1  0.20459700  0.57124800  0.03367500  1
  S  S14  1  0.10387100  0.80686500  0.10387100  1
  S  S15  1  0.80686500  0.10387100  0.10387100  1
loop_
_geom_bond_atom_site_label_1
_geom_bond_atom_site_label_2
_geom_bond_distance
_geom_bond_site_symmetry_2
Na0 S12 2.835787 1_555
Na0 S11 2.905633 1_566
Na0 S8 2.970905 1_555
Na0 S15 3.069578 1_566
Na0 S10 3.119470 1_555
Na0 S5 3.231267 1_565
Na1 S2 2.835787 1_555
Na1 S13 2.905633 1_656
Na1 S5 2.970905 1_555
Na1 S14 3.069578 1_656
Na1 S1 3.119470 1_555
Na1 S8 3.231267 1_655
Na2 S13 2.835779 1_555
Na2 S0 2.905639 1_665
Na2 S7 2.970914 1_555
Na2 S6 3.069585 1_665
Na2 S10 3.119465 1_555
Na2 S5 3.231256 1_565
Na3 S0 2.835787 1_555
Na3 S2 2.905633 1_566
Na3 S8 2.970905 1_555
Na3 S15 3.069579 1_566
Na3 S4 3.119470 1_555
Na3 S7 3.231266 1_556
Na4 S9 2.835780 1_555
Na4 S12 2.905639 1_656
Na4 S5 2.970914 1_555
Na4 S14 3.069585 1_656
Na4 S4 3.119465 1_555
Na4 S7 3.231256 1_556
Na5 S11 2.835787 1_555
Na5 S9 2.905633 1_665
Na5 S7 2.970905 1_555
Na5 S6 3.069579 1_665
Na5 S1 3.119471 1_555
Na5 S8 3.231266 1_655
P0 S6 2.055522 1_555
P0 S7 2.057339 1_556
P0 S0 2.071874 1_555
P0 S9 2.071874 1_555
P1 S14 2.055522 1_555
P1 S5 2.057339 1_565
P1 S13 2.071874 1_555
P1 S12 2.071875 1_555
P2 S15 2.055522 1_555
P2 S8 2.057339 1_655
P2 S11 2.071874 1_555
P2 S2 2.071875 1_555
P3 S3 2.056606 1_555
P3 S4 2.071488 1_555
P3 S1 2.071488 1_555
P3 S10 2.071488 1_555
Pb0 S4 2.853398 1_555
Pb0 S0 2.898752 1_555
Pb0 S9 2.898752 1_555
Pb0 S3 3.017184 1_555
Pb1 S1 2.853398 1_555
Pb1 S2 2.898752 1_555
Pb1 S11 2.898753 1_555
Pb1 S3 3.017184 1_555
Pb2 S10 2.853398 1_555
Pb2 S12 2.898752 1_555
Pb2 S13 2.898753 1_555
Pb2 S3 3.017184 1_555
