# generated using pymatgen
data_Ba2GeS4
_symmetry_space_group_name_H-M   'P 1'
_cell_length_a   6.89661790
_cell_length_b   9.06505193
_cell_length_c   12.44325749
_cell_angle_alpha   90.00000000
_cell_angle_beta   90.00000000
_cell_angle_gamma   90.00000000
_symmetry_Int_Tables_number   1
_chemical_formula_structural   Ba2GeS4
_chemical_formula_sum   'Ba8 Ge4 S16'
_cell_volume   777.93005301
_cell_formula_units_Z   4
loop_
 _symmetry_equiv_pos_site_id
 _symmetry_equiv_pos_as_xyz
  1  'x, y, z'
loop_
 _atom_site_type_symbol
 _atom_site_label
 _atom_site_symmetry_multiplicity
 _atom_site_fract_x
 _atom_site_fract_y
 _atom_site_fract_z
 _atom_site_occupancy
  Ba  Ba0  1  0.75000000  0.87187931  0.08156976  1
  Ba  Ba1  1  0.25000000  0.12812069  0.91843024  1
  Ba  Ba2  1  0.75000000  0.37187931  0.41843024  1
  Ba  Ba3  1  0.25000000  0.62812069  0.58156976  1
  Ba  Ba4  1  0.75000000  0.52144735  0.82880684  1
  Ba  Ba5  1  0.25000000  0.47855265  0.17119316  1
  Ba  Ba6  1  0.75000000  0.02144735  0.67119316  1
  Ba  Ba7  1  0.25000000  0.97855265  0.32880684  1
  Ge  Ge0  1  0.75000000  0.27112494  0.07310427  1
  Ge  Ge1  1  0.25000000  0.72887506  0.92689573  1
  Ge  Ge2  1  0.75000000  0.77112494  0.42689573  1
  Ge  Ge3  1  0.25000000  0.22887506  0.57310427  1
  S  S0  1  0.75000000  0.51182199  0.09488521  1
  S  S1  1  0.25000000  0.48817801  0.90511479  1
  S  S2  1  0.75000000  0.01182199  0.40511479  1
  S  S3  1  0.25000000  0.98817801  0.59488521  1
  S  S4  1  0.75000000  0.19265831  0.90454462  1
  S  S5  1  0.25000000  0.80734169  0.09545538  1
  S  S6  1  0.75000000  0.69265831  0.59545538  1
  S  S7  1  0.25000000  0.30734169  0.40454462  1
  S  S8  1  0.48917004  0.17234002  0.14358943  1
  S  S9  1  0.98917004  0.82765998  0.85641057  1
  S  S10  1  0.01082996  0.67234002  0.35641057  1
  S  S11  1  0.51082996  0.32765998  0.64358943  1
  S  S12  1  0.51082996  0.82765998  0.85641057  1
  S  S13  1  0.01082996  0.17234002  0.14358943  1
  S  S14  1  0.98917004  0.32765998  0.64358943  1
  S  S15  1  0.48917004  0.67234002  0.35641057  1
loop_
_geom_bond_atom_site_label_1
_geom_bond_atom_site_label_2
_geom_bond_distance
_geom_bond_site_symmetry_2
Ba0 S0 3.268141 1_555
Ba0 S12 3.275823 1_554
Ba0 S9 3.275823 1_554
Ba0 S13 3.354087 1_665
Ba0 S8 3.354087 1_565
Ba0 S5 3.501850 1_555
Ba0 S5 3.501850 1_655
Ba0 S4 3.648006 1_564
Ba1 S1 3.268141 1_555
Ba1 S8 3.275823 1_556
Ba1 S13 3.275823 1_556
Ba1 S9 3.354087 1_445
Ba1 S12 3.354087 1_545
Ba1 S4 3.501850 1_555
Ba1 S4 3.501850 1_455
Ba1 S5 3.648006 1_546
Ba2 S2 3.268141 1_555
Ba2 S14 3.275823 1_555
Ba2 S11 3.275823 1_555
Ba2 S10 3.354087 1_655
Ba2 S15 3.354087 1_555
Ba2 S7 3.501850 1_555
Ba2 S7 3.501850 1_655
Ba2 S6 3.648006 1_555
Ba3 S3 3.268141 1_555
Ba3 S10 3.275823 1_555
Ba3 S15 3.275823 1_555
Ba3 S14 3.354087 1_455
Ba3 S11 3.354087 1_555
Ba3 S6 3.501850 1_455
Ba3 S6 3.501850 1_555
Ba3 S7 3.648006 1_555
Ba4 S4 3.125937 1_555
Ba4 S12 3.247147 1_555
Ba4 S9 3.247147 1_555
Ba4 S6 3.292418 1_555
Ba4 S0 3.312031 1_556
Ba4 S14 3.334424 1_555
Ba4 S11 3.334424 1_555
Ba4 S1 3.589342 1_555
Ba4 S1 3.589342 1_655
Ba5 S5 3.125937 1_555
Ba5 S13 3.247147 1_555
Ba5 S8 3.247147 1_555
Ba5 S7 3.292418 1_555
Ba5 S1 3.312031 1_554
Ba5 S15 3.334424 1_555
Ba5 S10 3.334424 1_555
Ba5 S0 3.589342 1_455
Ba5 S0 3.589342 1_555
Ba6 S6 3.125937 1_545
Ba6 S14 3.247147 1_555
Ba6 S11 3.247147 1_555
Ba6 S4 3.292418 1_555
Ba6 S2 3.312031 1_555
Ba6 S12 3.334424 1_545
Ba6 S9 3.334424 1_545
Ba6 S3 3.589342 1_545
Ba6 S3 3.589342 1_645
Ba7 S7 3.125937 1_565
Ba7 S10 3.247147 1_555
Ba7 S15 3.247147 1_555
Ba7 S5 3.292418 1_555
Ba7 S3 3.312031 1_555
Ba7 S13 3.334424 1_565
Ba7 S8 3.334424 1_565
Ba7 S2 3.589342 1_565
Ba7 S2 3.589342 1_465
Ge0 S13 2.192484 1_655
Ge0 S8 2.192484 1_555
Ge0 S0 2.198699 1_555
Ge0 S4 2.214762 1_554
Ge1 S9 2.192484 1_455
Ge1 S12 2.192484 1_555
Ge1 S1 2.198699 1_555
Ge1 S5 2.214762 1_556
Ge2 S10 2.192484 1_655
Ge2 S15 2.192484 1_555
Ge2 S2 2.198699 1_565
Ge2 S6 2.214762 1_555
Ge3 S14 2.192484 1_455
Ge3 S11 2.192484 1_555
Ge3 S3 2.198699 1_545
Ge3 S7 2.214762 1_555
