# generated using pymatgen
data_NaCa9Ti9Nb(SiO5)10
_symmetry_space_group_name_H-M   'P 1'
_cell_length_a   5.45717108
_cell_length_b   7.46026519
_cell_length_c   24.17734842
_cell_angle_alpha   98.16839626
_cell_angle_beta   87.61637006
_cell_angle_gamma   107.48085285
_symmetry_Int_Tables_number   1
_chemical_formula_structural   NaCa9Ti9Nb(SiO5)10
_chemical_formula_sum   'Na1 Ca9 Ti9 Nb1 Si10 O50'
_cell_volume   929.32350577
_cell_formula_units_Z   1
loop_
 _symmetry_equiv_pos_site_id
 _symmetry_equiv_pos_as_xyz
  1  'x, y, z'
loop_
 _atom_site_type_symbol
 _atom_site_label
 _atom_site_symmetry_multiplicity
 _atom_site_fract_x
 _atom_site_fract_y
 _atom_site_fract_z
 _atom_site_occupancy
  Na  Na0  1  0.22301293  0.39799282  0.81420793  1
  Ca  Ca0  1  0.81636585  0.98613108  0.61366271  1
  Ca  Ca1  1  0.41280660  0.58252526  0.41527118  1
  Ca  Ca2  1  0.38574654  0.21505637  0.98490340  1
  Ca  Ca3  1  0.01199196  0.18188827  0.21607777  1
  Ca  Ca4  1  0.97484929  0.80219979  0.78790339  1
  Ca  Ca5  1  0.60930861  0.78065537  0.01734951  1
  Ca  Ca6  1  0.59052086  0.42006315  0.58264460  1
  Ca  Ca7  1  0.18947528  0.01896213  0.38300952  1
  Ca  Ca8  1  0.78816678  0.61814016  0.18404942  1
  Ti  Ti0  1  0.29547462  0.79048603  0.90138629  1
  Ti  Ti1  1  0.90866648  0.40681123  0.69789954  1
  Ti  Ti2  1  0.50127325  0.00141800  0.49842594  1
  Ti  Ti3  1  0.20433048  0.70389749  0.59821675  1
  Ti  Ti4  1  0.09982793  0.60003891  0.29964115  1
  Ti  Ti5  1  0.80178103  0.30114284  0.39921683  1
  Ti  Ti6  1  0.69750701  0.19897287  0.10093989  1
  Ti  Ti7  1  0.39975032  0.89964976  0.20031904  1
  Ti  Ti8  1  0.99654930  0.49579231  0.00128216  1
  Nb  Nb0  1  0.60241750  0.10754267  0.80113433  1
  Si  Si0  1  0.89241839  0.07201269  0.91623394  1
  Si  Si1  1  0.49791679  0.67799989  0.71186950  1
  Si  Si2  1  0.70308612  0.52691594  0.88850910  1
  Si  Si3  1  0.09757850  0.27843755  0.51268528  1
  Si  Si4  1  0.30639268  0.12331327  0.68463517  1
  Si  Si5  1  0.69587265  0.87702752  0.31358870  1
  Si  Si6  1  0.90540830  0.72358696  0.48507986  1
  Si  Si7  1  0.29398031  0.47605346  0.11467507  1
  Si  Si8  1  0.50391037  0.32244503  0.28615824  1
  Si  Si9  1  0.10196155  0.92148242  0.08714293  1
  O  O0  1  0.53125628  0.65220055  0.86978116  1
  O  O1  1  0.24575631  0.67320296  0.96507837  1
  O  O2  1  0.12954663  0.24894764  0.66762948  1
  O  O3  1  0.03517660  0.28867073  0.94487285  1
  O  O4  1  0.87853733  0.06221935  0.84802480  1
  O  O5  1  0.99011453  0.60671690  0.86255696  1
  O  O6  1  0.85495729  0.28432690  0.76374571  1
  O  O7  1  0.72777627  0.84741494  0.46695361  1
  O  O8  1  0.65128783  0.89164128  0.74209271  1
  O  O9  1  0.60232092  0.99263584  0.94129624  1
  O  O10  1  0.49322679  0.67918162  0.64415438  1
  O  O11  1  0.70983232  0.52583258  0.95610742  1
  O  O12  1  0.59682770  0.20439992  0.65991270  1
  O  O13  1  0.55898257  0.30822277  0.86082929  1
  O  O14  1  0.45132598  0.87772088  0.56214163  1
  O  O15  1  0.32580769  0.44595463  0.26808411  1
  O  O16  1  0.34333959  0.91892821  0.83709794  1
  O  O17  1  0.24564946  0.49486856  0.54074694  1
  O  O18  1  0.20579426  0.60523361  0.73585332  1
  O  O19  1  0.08855069  0.27425729  0.44483309  1
  O  O20  1  0.31268933  0.11844448  0.75219687  1
  O  O21  1  0.19452889  0.80533117  0.45962318  1
  O  O22  1  0.15891116  0.90914987  0.65465341  1
  O  O23  1  0.04876078  0.47780306  0.36359514  1
  O  O24  1  0.92387747  0.04553813  0.06931491  1
  O  O25  1  0.07332681  0.95102315  0.93399752  1
  O  O26  1  0.95535297  0.52158441  0.63396933  1
  O  O27  1  0.84284376  0.09386408  0.34165581  1
  O  O28  1  0.80802926  0.19699639  0.53807438  1
  O  O29  1  0.68706211  0.87302621  0.24575452  1
  O  O30  1  0.91464496  0.72692246  0.55290028  1
  O  O31  1  0.79304497  0.40400911  0.26074840  1
  O  O32  1  0.75790376  0.50692594  0.45708630  1
  O  O33  1  0.64672726  0.07734998  0.16482329  1
  O  O34  1  0.67278715  0.55153871  0.72930689  1
  O  O35  1  0.55214107  0.12315775  0.43522574  1
  O  O36  1  0.44163943  0.69307188  0.14259167  1
  O  O37  1  0.40682984  0.79539586  0.33905785  1
  O  O38  1  0.28453164  0.47172808  0.04684366  1
  O  O39  1  0.51301156  0.32659813  0.35403032  1
  O  O40  1  0.39135723  0.00348157  0.06188191  1
  O  O41  1  0.35607100  0.10551502  0.25836911  1
  O  O42  1  0.27457802  0.15430525  0.53107090  1
  O  O43  1  0.15107298  0.72180188  0.23626690  1
  O  O44  1  0.00489214  0.39481906  0.14019440  1
  O  O45  1  0.11115692  0.92527379  0.15504291  1
  O  O46  1  0.95541993  0.70513668  0.05898386  1
  O  O47  1  0.87403236  0.75376750  0.33182346  1
  O  O48  1  0.74701393  0.32255198  0.03782222  1
  O  O49  1  0.47135497  0.35267700  0.13318594  1
loop_
_geom_bond_atom_site_label_1
_geom_bond_atom_site_label_2
_geom_bond_distance
_geom_bond_site_symmetry_2
Na0 O6 2.264602 1_455
Na0 O0 2.403917 1_555
Na0 O5 2.440210 1_455
Na0 O13 2.490914 1_555
Na0 O20 2.549554 1_555
Na0 O18 2.631030 1_555
Na0 O4 2.846451 1_455
Ca0 O14 2.264141 1_555
Ca0 O22 2.401496 1_655
Ca0 O12 2.424952 1_565
Ca0 O2 2.431669 1_665
Ca0 O30 2.436297 1_555
Ca0 O28 2.585238 1_565
Ca0 O10 2.615814 1_555
Ca1 O23 2.261590 1_555
Ca1 O32 2.417708 1_555
Ca1 O7 2.420179 1_555
Ca1 O39 2.427605 1_555
Ca1 O21 2.430723 1_555
Ca1 O37 2.604994 1_555
Ca1 O19 2.616866 1_555
Ca2 O48 2.266117 1_556
Ca2 O25 2.401994 1_545
Ca2 O3 2.415489 1_555
Ca2 O9 2.416434 1_545
Ca2 O38 2.442560 1_556
Ca2 O40 2.612407 1_556
Ca2 O11 2.623123 1_555
Ca3 O33 2.261421 1_455
Ca3 O15 2.417252 1_555
Ca3 O41 2.421541 1_555
Ca3 O45 2.426645 1_545
Ca3 O31 2.431782 1_455
Ca3 O44 2.600371 1_555
Ca3 O29 2.622534 1_445
Ca4 O16 2.251521 1_655
Ca4 O18 2.405496 1_655
Ca4 O34 2.410545 1_555
Ca4 O8 2.422867 1_555
Ca4 O4 2.428935 1_565
Ca4 O5 2.494990 1_555
Ca4 O20 2.746576 1_665
Ca5 O1 2.267392 1_554
Ca5 O46 2.420081 1_555
Ca5 O24 2.422038 1_565
Ca5 O11 2.422062 1_554
Ca5 O40 2.431049 1_565
Ca5 O9 2.598427 1_554
Ca5 O38 2.620916 1_555
Ca6 O26 2.260499 1_555
Ca6 O17 2.414493 1_555
Ca6 O42 2.425071 1_555
Ca6 O28 2.431092 1_555
Ca6 O10 2.442207 1_555
Ca6 O30 2.610715 1_555
Ca6 O12 2.640534 1_555
Ca7 O35 2.262673 1_555
Ca7 O27 2.416869 1_455
Ca7 O47 2.417513 1_445
Ca7 O37 2.428567 1_545
Ca7 O19 2.432630 1_555
Ca7 O39 2.606739 1_555
Ca7 O21 2.615606 1_545
Ca8 O43 2.263730 1_655
Ca8 O36 2.417697 1_555
Ca8 O49 2.418926 1_555
Ca8 O44 2.424087 1_655
Ca8 O29 2.429314 1_555
Ca8 O45 2.603103 1_655
Ca8 O31 2.619694 1_555
Nb0 O6 1.897110 1_555
Nb0 O16 1.945547 1_545
Nb0 O13 1.987792 1_555
Nb0 O20 2.041224 1_555
Nb0 O4 2.056024 1_555
Nb0 O8 2.067883 1_545
O0 Si2 1.624810 1_555
O0 Ti0 1.948197 1_555
O1 Ti0 1.848238 1_555
O1 Ti8 1.875162 1_456
O2 Si4 1.632429 1_555
O2 Ti1 1.977392 1_455
O3 Si0 1.633774 1_455
O3 Ti8 1.965954 1_456
O4 Si0 1.644229 1_555
O5 Si2 1.632723 1_555
O5 Ti0 1.982334 1_655
O6 Ti1 1.915452 1_555
O7 Si6 1.635081 1_555
O7 Ti2 1.988302 1_565
O8 Si1 1.641108 1_555
O9 Si0 1.637997 1_565
O9 Ti0 2.052593 1_555
O10 Si1 1.639752 1_555
O10 Ti3 2.032624 1_555
O11 Si2 1.637514 1_555
O11 Ti8 2.028221 1_556
O12 Si4 1.638055 1_555
O12 Ti1 2.052264 1_555
O13 Si2 1.640370 1_555
O14 Ti3 1.852750 1_555
O14 Ti2 1.875332 1_565
O15 Si8 1.634746 1_555
O15 Ti4 1.987073 1_555
O16 Ti0 1.908247 1_555
O17 Si3 1.634247 1_555
O17 Ti3 1.995669 1_555
O18 Si1 1.632464 1_555
O18 Ti1 1.989528 1_455
O19 Si3 1.638858 1_555
O19 Ti5 2.025005 1_455
O20 Si4 1.641030 1_555
O21 Si6 1.639489 1_455
O21 Ti2 2.022795 1_565
O22 Si4 1.634867 1_565
O22 Ti3 1.968276 1_555
O23 Ti5 1.858518 1_455
O23 Ti4 1.874103 1_555
O24 Si9 1.635645 1_645
O24 Ti6 1.985750 1_555
O25 Si0 1.629294 1_465
O25 Ti0 2.012490 1_555
O26 Ti1 1.843745 1_555
O26 Ti3 1.889271 1_655
O27 Si5 1.635374 1_545
O27 Ti5 1.987181 1_555
O28 Si3 1.640506 1_655
O28 Ti2 2.029472 1_555
O29 Si5 1.638522 1_555
O29 Ti7 2.024073 1_555
O30 Si6 1.639012 1_555
O30 Ti3 2.022310 1_655
O31 Si8 1.638932 1_555
O31 Ti4 2.023616 1_655
O32 Si6 1.634442 1_555
O32 Ti5 1.988550 1_555
O33 Ti7 1.861222 1_545
O33 Ti6 1.870082 1_555
O34 Si1 1.632748 1_555
O34 Ti1 1.979907 1_555
O35 Ti2 1.855893 1_555
O35 Ti5 1.876183 1_555
O36 Si7 1.636162 1_555
O36 Ti7 1.987253 1_555
O37 Si5 1.639138 1_555
O37 Ti4 2.027389 1_555
O38 Si7 1.638366 1_555
O38 Ti8 2.021183 1_455
O39 Si8 1.639392 1_555
O39 Ti5 2.023585 1_555
O40 Si9 1.639173 1_545
O40 Ti6 2.021393 1_555
O41 Si8 1.634956 1_555
O41 Ti7 1.991210 1_545
O42 Si3 1.636538 1_555
O42 Ti2 1.991230 1_555
O43 Ti4 1.859658 1_555
O43 Ti7 1.872233 1_555
O44 Si7 1.639416 1_555
O44 Ti6 2.028610 1_455
O45 Si9 1.640460 1_555
O45 Ti7 2.024567 1_555
O46 Si9 1.632673 1_655
O46 Ti8 2.000283 1_555
O47 Si5 1.634985 1_555
O47 Ti4 1.988640 1_655
O48 Ti6 1.862133 1_555
O48 Ti8 1.863396 1_555
O49 Si7 1.634859 1_555
O49 Ti6 1.990459 1_555
