# generated using pymatgen
data_Zr3(VGa2)2
_symmetry_space_group_name_H-M   'P 1'
_cell_length_a   5.42632700
_cell_length_b   13.72857400
_cell_length_c   16.93101900
_cell_angle_alpha   90.00000000
_cell_angle_beta   90.00000000
_cell_angle_gamma   90.00000000
_symmetry_Int_Tables_number   1
_chemical_formula_structural   Zr3(VGa2)2
_chemical_formula_sum   'Zr24 V16 Ga32'
_cell_volume   1261.28864998
_cell_formula_units_Z   8
loop_
 _symmetry_equiv_pos_site_id
 _symmetry_equiv_pos_as_xyz
  1  'x, y, z'
loop_
 _atom_site_type_symbol
 _atom_site_label
 _atom_site_symmetry_multiplicity
 _atom_site_fract_x
 _atom_site_fract_y
 _atom_site_fract_z
 _atom_site_occupancy
  Zr  Zr0  1  0.75000000  0.81308100  0.71010800  1
  Zr  Zr1  1  0.75000000  0.46973000  0.06604000  1
  Zr  Zr2  1  0.75000000  0.23072500  0.05915000  1
  Zr  Zr3  1  0.25000000  0.96973000  0.43396000  1
  Zr  Zr4  1  0.25000000  0.14596900  0.96546800  1
  Zr  Zr5  1  0.25000000  0.35403100  0.46546800  1
  Zr  Zr6  1  0.25000000  0.53027000  0.93396000  1
  Zr  Zr7  1  0.75000000  0.64596900  0.53453200  1
  Zr  Zr8  1  0.25000000  0.97256400  0.67346100  1
  Zr  Zr9  1  0.25000000  0.76927500  0.94085000  1
  Zr  Zr10  1  0.75000000  0.02743600  0.32653900  1
  Zr  Zr11  1  0.75000000  0.47256400  0.82653900  1
  Zr  Zr12  1  0.25000000  0.52743600  0.17346100  1
  Zr  Zr13  1  0.75000000  0.32008000  0.34898400  1
  Zr  Zr14  1  0.25000000  0.73072500  0.44085000  1
  Zr  Zr15  1  0.25000000  0.67992000  0.65101600  1
  Zr  Zr16  1  0.75000000  0.85403100  0.03453200  1
  Zr  Zr17  1  0.75000000  0.26927500  0.55915000  1
  Zr  Zr18  1  0.75000000  0.17992000  0.84898400  1
  Zr  Zr19  1  0.25000000  0.82008000  0.15101600  1
  Zr  Zr20  1  0.25000000  0.18691900  0.28989200  1
  Zr  Zr21  1  0.25000000  0.31308100  0.78989200  1
  Zr  Zr22  1  0.75000000  0.03027000  0.56604000  1
  Zr  Zr23  1  0.75000000  0.68691900  0.21010800  1
  V  V0  1  0.99083000  0.04070400  0.12985500  1
  V  V1  1  0.98332300  0.16166900  0.68772500  1
  V  V2  1  0.48332300  0.66166900  0.81227500  1
  V  V3  1  0.98332300  0.33833100  0.18772500  1
  V  V4  1  0.99083000  0.45929600  0.62985500  1
  V  V5  1  0.01667700  0.83833100  0.31227500  1
  V  V6  1  0.51667700  0.33833100  0.18772500  1
  V  V7  1  0.00917000  0.95929600  0.87014500  1
  V  V8  1  0.49083000  0.54070400  0.37014500  1
  V  V9  1  0.01667700  0.66166900  0.81227500  1
  V  V10  1  0.00917000  0.54070400  0.37014500  1
  V  V11  1  0.51667700  0.16166900  0.68772500  1
  V  V12  1  0.50917000  0.04070400  0.12985500  1
  V  V13  1  0.48332300  0.83833100  0.31227500  1
  V  V14  1  0.50917000  0.45929600  0.62985500  1
  V  V15  1  0.49083000  0.95929600  0.87014500  1
  Ga  Ga0  1  0.25000000  0.55112100  0.51556400  1
  Ga  Ga1  1  0.75000000  0.17595000  0.21924200  1
  Ga  Ga2  1  0.00687700  0.65994700  0.06648600  1
  Ga  Ga3  1  0.75000000  0.32405000  0.71924200  1
  Ga  Ga4  1  0.25000000  0.39248100  0.30722500  1
  Ga  Ga5  1  0.25000000  0.10751900  0.80722500  1
  Ga  Ga6  1  0.75000000  0.48894800  0.24144200  1
  Ga  Ga7  1  0.25000000  0.98894800  0.25855800  1
  Ga  Ga8  1  0.99312300  0.15994700  0.43351400  1
  Ga  Ga9  1  0.25000000  0.37519500  0.06046300  1
  Ga  Ga10  1  0.49312300  0.84005300  0.56648600  1
  Ga  Ga11  1  0.25000000  0.30118300  0.62344100  1
  Ga  Ga12  1  0.25000000  0.19881700  0.12344100  1
  Ga  Ga13  1  0.75000000  0.62480500  0.93953700  1
  Ga  Ga14  1  0.50687700  0.15994700  0.43351400  1
  Ga  Ga15  1  0.25000000  0.51105200  0.75855800  1
  Ga  Ga16  1  0.75000000  0.87519500  0.43953700  1
  Ga  Ga17  1  0.25000000  0.67595000  0.28075800  1
  Ga  Ga18  1  0.50687700  0.34005300  0.93351400  1
  Ga  Ga19  1  0.75000000  0.80118300  0.87655900  1
  Ga  Ga20  1  0.49312300  0.65994700  0.06648600  1
  Ga  Ga21  1  0.25000000  0.82405000  0.78075800  1
  Ga  Ga22  1  0.75000000  0.44887900  0.48443600  1
  Ga  Ga23  1  0.75000000  0.01105200  0.74144200  1
  Ga  Ga24  1  0.00687700  0.84005300  0.56648600  1
  Ga  Ga25  1  0.25000000  0.94887900  0.01556400  1
  Ga  Ga26  1  0.75000000  0.05112100  0.98443600  1
  Ga  Ga27  1  0.75000000  0.69881700  0.37655900  1
  Ga  Ga28  1  0.75000000  0.89248100  0.19277500  1
  Ga  Ga29  1  0.99312300  0.34005300  0.93351400  1
  Ga  Ga30  1  0.75000000  0.60751900  0.69277500  1
  Ga  Ga31  1  0.25000000  0.12480500  0.56046300  1
loop_
_geom_bond_atom_site_label_1
_geom_bond_atom_site_label_2
_geom_bond_distance
_geom_bond_site_symmetry_2
Zr1 Zr2 3.283271 1_555
Zr1 Zr12 3.361058 1_655
Zr1 Zr12 3.361058 1_555
Zr1 Zr6 3.612871 1_554
Zr1 Zr6 3.612871 1_654
Zr6 Zr9 3.283271 1_555
Zr10 Zr3 3.361058 1_545
Zr10 Zr3 3.361058 1_645
Zr11 Zr6 3.361058 1_555
Zr11 Zr6 3.361058 1_655
Zr14 Zr3 3.283271 1_555
Zr17 Zr22 3.283271 1_555
Zr22 Zr8 3.361058 1_645
Zr22 Zr8 3.361058 1_545
Zr22 Zr3 3.612871 1_545
Zr22 Zr3 3.612871 1_645
V0 V12 2.613645 1_555
V0 V12 2.812682 1_655
V1 V11 2.532174 1_555
V1 V11 2.894153 1_655
V1 Zr17 2.919630 1_555
V1 Zr8 2.981997 1_645
V1 Zr22 3.016909 1_555
V1 Zr18 3.019964 1_555
V1 Zr21 3.067097 1_655
V2 V9 2.532174 1_555
V2 V9 2.894153 1_655
V2 Zr9 2.919630 1_555
V2 Zr11 2.981997 1_555
V2 Zr6 3.016909 1_555
V2 Zr15 3.019964 1_555
V2 Zr0 3.067097 1_555
V3 V6 2.532174 1_555
V3 V6 2.894153 1_655
V3 Zr2 2.919630 1_555
V3 Zr12 2.981997 1_655
V3 Zr1 3.016909 1_555
V3 Zr13 3.019964 1_555
V3 Zr20 3.067097 1_655
V5 Zr14 2.919630 1_555
V5 Zr10 2.981997 1_465
V5 Zr3 3.016909 1_555
V5 Zr19 3.019964 1_555
V5 Zr23 3.067097 1_455
V6 Zr2 2.919630 1_555
V6 Zr12 2.981997 1_555
V6 Zr1 3.016909 1_555
V6 Zr13 3.019964 1_555
V6 Zr20 3.067097 1_555
V9 Zr9 2.919630 1_555
V9 Zr11 2.981997 1_455
V9 Zr6 3.016909 1_555
V9 Zr15 3.019964 1_555
V9 Zr0 3.067097 1_455
V10 V8 2.613645 1_555
V10 V8 2.812682 1_455
V11 Zr17 2.919630 1_555
V11 Zr8 2.981997 1_545
V11 Zr22 3.016909 1_555
V11 Zr18 3.019964 1_555
V11 Zr21 3.067097 1_555
V13 V5 2.532174 1_555
V13 V5 2.894153 1_655
V13 Zr14 2.919630 1_555
V13 Zr10 2.981997 1_565
V13 Zr3 3.016909 1_555
V13 Zr19 3.019964 1_555
V13 Zr23 3.067097 1_555
V14 V4 2.613645 1_555
V14 V4 2.812682 1_455
V15 V7 2.613645 1_555
V15 V7 2.812682 1_655
Ga0 V4 2.703968 1_455
Ga0 V14 2.703968 1_555
Ga0 Zr14 2.771262 1_555
Ga0 V8 2.791081 1_555
Ga0 V10 2.791081 1_555
Ga0 Zr5 2.835589 1_555
Ga0 Zr15 2.895865 1_555
Ga0 Zr7 3.026537 1_555
Ga0 Zr7 3.026537 1_455
Ga0 Ga22 3.099873 1_455
Ga0 Ga22 3.099873 1_555
Ga1 V3 2.618648 1_555
Ga1 V6 2.618648 1_555
Ga1 V0 2.728675 1_555
Ga1 V12 2.728675 1_555
Ga1 Zr10 2.730799 1_555
Ga1 Zr2 2.812899 1_555
Ga1 Zr13 2.956448 1_555
Ga1 Zr20 2.968968 1_555
Ga1 Zr20 2.968968 1_655
Ga2 Ga20 2.638530 1_555
Ga2 Ga20 2.787797 1_455
Ga2 Zr23 2.827202 1_455
Ga2 Zr12 2.886231 1_555
Ga2 Zr9 2.918555 1_554
Ga2 Zr19 2.936271 1_555
Ga2 Zr1 2.960146 1_455
Ga2 Zr16 3.055354 1_455
Ga2 Zr6 3.153490 1_554
Ga3 V1 2.618648 1_555
Ga3 V11 2.618648 1_555
Ga3 V14 2.728675 1_555
Ga3 V4 2.728675 1_555
Ga3 Zr11 2.730799 1_555
Ga3 Zr17 2.812899 1_555
Ga3 Zr18 2.956448 1_555
Ga3 Zr21 2.968968 1_555
Ga3 Zr21 2.968968 1_655
Ga4 V6 2.596198 1_555
Ga4 V3 2.596198 1_455
Ga4 V10 2.642617 1_555
Ga4 V8 2.642617 1_555
Ga4 Zr5 2.730720 1_555
Ga4 Zr20 2.837291 1_555
Ga4 Zr12 2.926053 1_555
Ga4 Zr13 2.974743 1_455
Ga4 Zr13 2.974743 1_555
Ga5 V11 2.596198 1_555
Ga5 V1 2.596198 1_455
Ga5 V7 2.642617 1_545
Ga5 V15 2.642617 1_545
Ga5 Zr4 2.730720 1_555
Ga5 Zr21 2.837291 1_555
Ga5 Zr8 2.926053 1_545
Ga5 Zr18 2.974743 1_455
Ga5 Zr18 2.974743 1_555
Ga6 V3 2.589547 1_555
Ga6 V6 2.589547 1_555
Ga6 V10 2.689055 1_655
Ga6 V8 2.689055 1_555
Ga6 Zr23 2.769153 1_555
Ga6 Zr13 2.947862 1_555
Ga6 Zr1 2.981431 1_555
Ga6 Zr12 2.994198 1_655
Ga6 Zr12 2.994198 1_555
Ga7 V13 2.589547 1_555
Ga7 V5 2.589547 1_555
Ga7 V0 2.689055 1_465
Ga7 V12 2.689055 1_565
Ga7 Zr20 2.769153 1_565
Ga7 Zr19 2.947862 1_555
Ga7 Zr3 2.981431 1_555
Ga7 Zr10 2.994198 1_565
Ga7 Zr10 2.994198 1_465
Ga8 Zr20 2.827202 1_655
Ga8 Zr10 2.886231 1_555
Ga8 Zr17 2.918555 1_555
Ga8 Zr13 2.936271 1_555
Ga8 Zr3 2.960146 1_645
Ga8 Zr5 3.055354 1_655
Ga8 Zr22 3.153490 1_555
Ga9 V6 2.644387 1_555
Ga9 V3 2.644387 1_455
Ga9 Zr12 2.833468 1_555
Ga9 Zr1 3.009076 1_555
Ga9 Zr1 3.009076 1_455
Ga9 Zr6 3.019914 1_554
Ga10 Ga16 2.606823 1_555
Ga10 Ga24 2.638530 1_555
Ga10 Ga24 2.787797 1_655
Ga10 Zr0 2.827202 1_555
Ga10 Zr8 2.886231 1_555
Ga10 Zr14 2.918555 1_555
Ga10 Zr15 2.936271 1_555
Ga10 Zr22 2.960146 1_565
Ga10 Zr7 3.055354 1_555
Ga10 Zr3 3.153490 1_555
Ga11 V4 2.588702 1_455
Ga11 V14 2.588702 1_555
Ga11 V11 2.635738 1_555
Ga11 V1 2.635738 1_455
Ga11 Ga31 2.645794 1_555
Ga11 Zr5 2.771301 1_555
Ga11 Zr21 2.822915 1_555
Ga11 Zr17 2.956011 1_455
Ga11 Zr17 2.956011 1_555
Ga12 V0 2.588702 1_455
Ga12 V12 2.588702 1_555
Ga12 V6 2.635738 1_555
Ga12 V3 2.635738 1_455
Ga12 Ga9 2.645794 1_555
Ga12 Zr4 2.771301 1_554
Ga12 Zr20 2.822915 1_555
Ga12 Zr2 2.956011 1_455
Ga12 Zr2 2.956011 1_555
Ga13 Ga2 2.606823 1_656
Ga13 Ga20 2.606823 1_556
Ga13 V2 2.644387 1_555
Ga13 V9 2.644387 1_655
Ga13 Ga19 2.645794 1_555
Ga13 Zr11 2.833468 1_555
Ga13 Zr6 3.009076 1_655
Ga13 Zr6 3.009076 1_555
Ga13 Zr1 3.019914 1_556
Ga14 Ga31 2.606823 1_555
Ga14 Ga8 2.638530 1_555
Ga14 Ga8 2.787797 1_455
Ga14 Zr20 2.827202 1_555
Ga14 Zr10 2.886231 1_555
Ga14 Zr17 2.918555 1_555
Ga14 Zr13 2.936271 1_555
Ga14 Zr3 2.960146 1_545
Ga14 Zr5 3.055354 1_555
Ga14 Zr22 3.153490 1_555
Ga15 V9 2.589547 1_555
Ga15 V2 2.589547 1_555
Ga15 V4 2.689055 1_455
Ga15 V14 2.689055 1_555
Ga15 Zr21 2.769153 1_555
Ga15 Zr15 2.947862 1_555
Ga15 Zr6 2.981431 1_555
Ga15 Zr11 2.994198 1_455
Ga15 Zr11 2.994198 1_555
Ga16 Ga24 2.606823 1_655
Ga16 V13 2.644387 1_555
Ga16 V5 2.644387 1_655
Ga16 Ga27 2.645794 1_555
Ga16 Zr10 2.833468 1_565
Ga16 Zr3 3.009076 1_555
Ga16 Zr3 3.009076 1_655
Ga16 Zr22 3.019914 1_565
Ga17 V13 2.618648 1_555
Ga17 V5 2.618648 1_555
Ga17 V10 2.728675 1_555
Ga17 V8 2.728675 1_555
Ga17 Zr12 2.730799 1_555
Ga17 Zr14 2.812899 1_555
Ga17 Zr19 2.956448 1_555
Ga17 Zr23 2.968968 1_455
Ga17 Zr23 2.968968 1_555
Ga18 Ga9 2.606823 1_556
Ga18 Ga29 2.638530 1_555
Ga18 Ga29 2.787797 1_455
Ga18 Zr21 2.827202 1_555
Ga18 Zr11 2.886231 1_555
Ga18 Zr2 2.918555 1_556
Ga18 Zr18 2.936271 1_555
Ga18 Zr6 2.960146 1_555
Ga18 Zr4 3.055354 1_555
Ga18 Zr1 3.153490 1_556
Ga19 V7 2.588702 1_655
Ga19 V15 2.588702 1_555
Ga19 V2 2.635738 1_555
Ga19 V9 2.635738 1_655
Ga19 Zr16 2.771301 1_556
Ga19 Zr0 2.822915 1_555
Ga19 Zr9 2.956011 1_655
Ga19 Zr9 2.956011 1_555
Ga20 Zr23 2.827202 1_555
Ga20 Zr12 2.886231 1_555
Ga20 Zr9 2.918555 1_554
Ga20 Zr19 2.936271 1_555
Ga20 Zr1 2.960146 1_555
Ga20 Zr16 3.055354 1_555
Ga20 Zr6 3.153490 1_554
Ga21 V2 2.618648 1_555
Ga21 V9 2.618648 1_555
Ga21 V7 2.728675 1_555
Ga21 V15 2.728675 1_555
Ga21 Zr8 2.730799 1_555
Ga21 Zr9 2.812899 1_555
Ga21 Zr15 2.956448 1_555
Ga21 Zr0 2.968968 1_555
Ga21 Zr0 2.968968 1_455
Ga22 V10 2.703968 1_655
Ga22 V8 2.703968 1_555
Ga22 Zr17 2.771262 1_555
Ga22 V14 2.791081 1_555
Ga22 V4 2.791081 1_555
Ga22 Zr7 2.835589 1_555
Ga22 Zr13 2.895865 1_555
Ga22 Zr5 3.026537 1_555
Ga22 Zr5 3.026537 1_655
Ga23 V1 2.589547 1_555
Ga23 V11 2.589547 1_555
Ga23 V15 2.689055 1_545
Ga23 V7 2.689055 1_645
Ga23 Zr0 2.769153 1_545
Ga23 Zr18 2.947862 1_555
Ga23 Zr22 2.981431 1_555
Ga23 Zr8 2.994198 1_645
Ga23 Zr8 2.994198 1_545
Ga24 Zr0 2.827202 1_455
Ga24 Zr8 2.886231 1_555
Ga24 Zr14 2.918555 1_555
Ga24 Zr15 2.936271 1_555
Ga24 Zr22 2.960146 1_465
Ga24 Zr7 3.055354 1_455
Ga24 Zr3 3.153490 1_555
Ga25 V0 2.703968 1_465
Ga25 V12 2.703968 1_565
Ga25 Zr9 2.771262 1_554
Ga25 V7 2.791081 1_554
Ga25 V15 2.791081 1_554
Ga25 Zr4 2.835589 1_564
Ga25 Zr19 2.895865 1_555
Ga25 Zr16 3.026537 1_555
Ga25 Zr16 3.026537 1_455
Ga25 Ga26 3.099873 1_564
Ga25 Ga26 3.099873 1_464
Ga26 V15 2.703968 1_545
Ga26 V7 2.703968 1_645
Ga26 Zr2 2.771262 1_556
Ga26 V12 2.791081 1_556
Ga26 V0 2.791081 1_556
Ga26 Zr16 2.835589 1_546
Ga26 Zr18 2.895865 1_555
Ga26 Zr4 3.026537 1_655
Ga26 Zr4 3.026537 1_555
Ga27 V10 2.588702 1_655
Ga27 V8 2.588702 1_555
Ga27 V13 2.635738 1_555
Ga27 V5 2.635738 1_655
Ga27 Zr7 2.771301 1_555
Ga27 Zr23 2.822915 1_555
Ga27 Zr14 2.956011 1_655
Ga27 Zr14 2.956011 1_555
Ga28 V13 2.596198 1_555
Ga28 V5 2.596198 1_655
Ga28 V0 2.642617 1_565
Ga28 V12 2.642617 1_565
Ga28 Zr16 2.730720 1_555
Ga28 Zr23 2.837291 1_555
Ga28 Zr10 2.926053 1_565
Ga28 Zr19 2.974743 1_555
Ga28 Zr19 2.974743 1_655
Ga29 Ga9 2.606823 1_656
Ga29 Zr21 2.827202 1_655
Ga29 Zr11 2.886231 1_555
Ga29 Zr2 2.918555 1_556
Ga29 Zr18 2.936271 1_555
Ga29 Zr6 2.960146 1_655
Ga29 Zr4 3.055354 1_655
Ga29 Zr1 3.153490 1_556
Ga30 V2 2.596198 1_555
Ga30 V9 2.596198 1_655
Ga30 V14 2.642617 1_555
Ga30 V4 2.642617 1_555
Ga30 Zr7 2.730720 1_555
Ga30 Zr0 2.837291 1_555
Ga30 Zr11 2.926053 1_555
Ga30 Zr15 2.974743 1_555
Ga30 Zr15 2.974743 1_655
Ga31 Ga8 2.606823 1_455
Ga31 V11 2.644387 1_555
Ga31 V1 2.644387 1_455
Ga31 Zr8 2.833468 1_545
Ga31 Zr22 3.009076 1_455
Ga31 Zr22 3.009076 1_555
Ga31 Zr3 3.019914 1_545
