# generated using pymatgen
data_La13Cd58
_symmetry_space_group_name_H-M   'P 1'
_cell_length_a   16.14375215
_cell_length_b   16.14375246
_cell_length_c   15.76529702
_cell_angle_alpha   90.00000000
_cell_angle_beta   90.00000000
_cell_angle_gamma   119.99999934
_symmetry_Int_Tables_number   1
_chemical_formula_structural   La13Cd58
_chemical_formula_sum   'La26 Cd116'
_cell_volume   3558.29346554
_cell_formula_units_Z   2
loop_
 _symmetry_equiv_pos_site_id
 _symmetry_equiv_pos_as_xyz
  1  'x, y, z'
loop_
 _atom_site_type_symbol
 _atom_site_label
 _atom_site_symmetry_multiplicity
 _atom_site_fract_x
 _atom_site_fract_y
 _atom_site_fract_z
 _atom_site_occupancy
  La  La0  1  0.41128727  0.20564363  0.55182631  1
  La  La1  1  0.87225489  0.74450977  0.25000000  1
  La  La2  1  0.20564363  0.41128727  0.05182631  1
  La  La3  1  0.08457477  0.54228739  0.75000000  1
  La  La4  1  0.79435637  0.58871273  0.94817369  1
  La  La5  1  0.79435637  0.20564363  0.55182631  1
  La  La6  1  0.91542523  0.45771261  0.25000000  1
  La  La7  1  0.79435637  0.20564363  0.94817369  1
  La  La8  1  0.79435637  0.58871273  0.55182631  1
  La  La9  1  0.45771261  0.91542523  0.75000000  1
  La  La10  1  0.12774511  0.87225489  0.75000000  1
  La  La11  1  0.87225489  0.12774511  0.25000000  1
  La  La12  1  0.58871273  0.79435637  0.05182631  1
  La  La13  1  0.58871273  0.79435637  0.44817369  1
  La  La14  1  0.20564363  0.79435637  0.44817369  1
  La  La15  1  0.00000000  0.00000000  0.00000000  1
  La  La16  1  0.45771261  0.54228739  0.75000000  1
  La  La17  1  0.54228739  0.08457477  0.25000000  1
  La  La18  1  0.12774511  0.25549023  0.75000000  1
  La  La19  1  0.74450977  0.87225489  0.75000000  1
  La  La20  1  0.20564363  0.41128727  0.44817369  1
  La  La21  1  0.41128727  0.20564363  0.94817369  1
  La  La22  1  0.00000000  0.00000000  0.50000000  1
  La  La23  1  0.25549023  0.12774511  0.25000000  1
  La  La24  1  0.20564363  0.79435637  0.05182631  1
  La  La25  1  0.54228739  0.45771261  0.25000000  1
  Cd  Cd0  1  0.90580569  0.09419431  0.65615513  1
  Cd  Cd1  1  0.00000000  0.19985012  0.00000000  1
  Cd  Cd2  1  0.63479533  0.96418540  0.60277664  1
  Cd  Cd3  1  0.36520467  0.32939007  0.39722336  1
  Cd  Cd4  1  0.67060993  0.63479533  0.10277664  1
  Cd  Cd5  1  0.60052746  0.39947254  0.05306267  1
  Cd  Cd6  1  0.63479533  0.67060993  0.89722336  1
  Cd  Cd7  1  0.96418540  0.63479533  0.10277664  1
  Cd  Cd8  1  0.20105492  0.60052746  0.94693733  1
  Cd  Cd9  1  0.09419431  0.90580569  0.34384487  1
  Cd  Cd10  1  0.56249319  0.12498638  0.64349467  1
  Cd  Cd11  1  0.81161137  0.90580569  0.34384487  1
  Cd  Cd12  1  0.73160095  0.26839905  0.75000000  1
  Cd  Cd13  1  0.43750681  0.87501362  0.35650533  1
  Cd  Cd14  1  0.32939007  0.36520467  0.89722336  1
  Cd  Cd15  1  0.03581460  0.67060993  0.89722336  1
  Cd  Cd16  1  0.52985092  0.76492546  0.84144572  1
  Cd  Cd17  1  0.80014988  0.80014988  0.00000000  1
  Cd  Cd18  1  0.36520467  0.03581460  0.39722336  1
  Cd  Cd19  1  0.00000000  0.19985012  0.50000000  1
  Cd  Cd20  1  0.91737816  0.63751943  0.75000000  1
  Cd  Cd21  1  0.19985012  0.19985012  0.50000000  1
  Cd  Cd22  1  0.67060993  0.03581460  0.10277664  1
  Cd  Cd23  1  0.60052746  0.39947254  0.44693733  1
  Cd  Cd24  1  0.76492546  0.52985092  0.34144572  1
  Cd  Cd25  1  0.76492546  0.52985092  0.15855428  1
  Cd  Cd26  1  0.96418540  0.32939007  0.10277664  1
  Cd  Cd27  1  0.66666700  0.33333300  0.59420500  1
  Cd  Cd28  1  0.27985872  0.91737816  0.25000000  1
  Cd  Cd29  1  0.47014908  0.23507454  0.34144572  1
  Cd  Cd30  1  0.03581460  0.36520467  0.60277664  1
  Cd  Cd31  1  0.33333300  0.66666700  0.75000000  1
  Cd  Cd32  1  0.72014128  0.08262184  0.75000000  1
  Cd  Cd33  1  0.03581460  0.36520467  0.89722336  1
  Cd  Cd34  1  0.80014988  0.00000000  0.50000000  1
  Cd  Cd35  1  0.60052746  0.20105492  0.44693733  1
  Cd  Cd36  1  0.67060993  0.03581460  0.39722336  1
  Cd  Cd37  1  0.36248057  0.08262184  0.75000000  1
  Cd  Cd38  1  0.91737816  0.27985872  0.75000000  1
  Cd  Cd39  1  1.00000000  0.80014988  0.00000000  1
  Cd  Cd40  1  0.43750681  0.56249319  0.14349467  1
  Cd  Cd41  1  0.12498638  0.56249319  0.35650533  1
  Cd  Cd42  1  0.50000000  0.00000000  0.50000000  1
  Cd  Cd43  1  0.90580569  0.81161137  0.84384487  1
  Cd  Cd44  1  0.09419431  0.18838863  0.15615513  1
  Cd  Cd45  1  0.03581460  0.67060993  0.60277664  1
  Cd  Cd46  1  0.32939007  0.36520467  0.60277664  1
  Cd  Cd47  1  0.56249319  0.12498638  0.85650533  1
  Cd  Cd48  1  0.20105492  0.60052746  0.55306267  1
  Cd  Cd49  1  0.63479533  0.67060993  0.60277664  1
  Cd  Cd50  1  0.43750681  0.56249319  0.35650533  1
  Cd  Cd51  1  0.00000000  0.00000000  0.25000000  1
  Cd  Cd52  1  0.60052746  0.20105492  0.05306267  1
  Cd  Cd53  1  0.79894508  0.39947254  0.44693733  1
  Cd  Cd54  1  0.73160095  0.46320190  0.75000000  1
  Cd  Cd55  1  0.39947254  0.79894508  0.94693733  1
  Cd  Cd56  1  0.66666700  0.33333300  0.90579500  1
  Cd  Cd57  1  0.23507454  0.47014908  0.84144572  1
  Cd  Cd58  1  0.76492546  0.23507454  0.15855428  1
  Cd  Cd59  1  0.27985872  0.36248057  0.25000000  1
  Cd  Cd60  1  0.39947254  0.60052746  0.55306267  1
  Cd  Cd61  1  0.36520467  0.03581460  0.10277664  1
  Cd  Cd62  1  0.76492546  0.23507454  0.34144572  1
  Cd  Cd63  1  0.81161137  0.90580569  0.15615513  1
  Cd  Cd64  1  0.32939007  0.96418540  0.89722336  1
  Cd  Cd65  1  0.87501362  0.43750681  0.85650533  1
  Cd  Cd66  1  0.90580569  0.81161137  0.65615513  1
  Cd  Cd67  1  0.12498638  0.56249319  0.14349467  1
  Cd  Cd68  1  0.96418540  0.32939007  0.39722336  1
  Cd  Cd69  1  0.63751943  0.72014128  0.25000000  1
  Cd  Cd70  1  0.56249319  0.43750681  0.85650533  1
  Cd  Cd71  1  0.47014908  0.23507454  0.15855428  1
  Cd  Cd72  1  0.80014988  0.80014988  0.50000000  1
  Cd  Cd73  1  0.00000000  0.00000000  0.75000000  1
  Cd  Cd74  1  0.18838863  0.09419431  0.65615513  1
  Cd  Cd75  1  0.19985012  0.19985012  0.00000000  1
  Cd  Cd76  1  0.19985012  0.00000000  0.50000000  1
  Cd  Cd77  1  0.08262184  0.36248057  0.25000000  1
  Cd  Cd78  1  0.67060993  0.63479533  0.39722336  1
  Cd  Cd79  1  0.52985092  0.76492546  0.65855428  1
  Cd  Cd80  1  0.79894508  0.39947254  0.05306267  1
  Cd  Cd81  1  0.36520467  0.32939007  0.10277664  1
  Cd  Cd82  1  0.23507454  0.76492546  0.84144572  1
  Cd  Cd83  1  0.66666700  0.33333300  0.25000000  1
  Cd  Cd84  1  0.43750681  0.87501362  0.14349467  1
  Cd  Cd85  1  0.50000000  0.50000000  0.00000000  1
  Cd  Cd86  1  0.00000000  0.50000000  0.50000000  1
  Cd  Cd87  1  0.23507454  0.76492546  0.65855428  1
  Cd  Cd88  1  0.33333300  0.66666700  0.40579500  1
  Cd  Cd89  1  0.19985012  0.00000000  0.00000000  1
  Cd  Cd90  1  0.08262184  0.72014128  0.25000000  1
  Cd  Cd91  1  1.00000000  0.80014988  0.50000000  1
  Cd  Cd92  1  0.63479533  0.96418540  0.89722336  1
  Cd  Cd93  1  0.50000000  0.50000000  0.50000000  1
  Cd  Cd94  1  0.18838863  0.09419431  0.84384487  1
  Cd  Cd95  1  0.53679810  0.26839905  0.75000000  1
  Cd  Cd96  1  0.09419431  0.90580569  0.15615513  1
  Cd  Cd97  1  0.90580569  0.09419431  0.84384487  1
  Cd  Cd98  1  0.56249319  0.43750681  0.64349467  1
  Cd  Cd99  1  0.36248057  0.27985872  0.75000000  1
  Cd  Cd100  1  0.26839905  0.73160095  0.25000000  1
  Cd  Cd101  1  0.96418540  0.63479533  0.39722336  1
  Cd  Cd102  1  0.33333300  0.66666700  0.09420500  1
  Cd  Cd103  1  0.26839905  0.53679810  0.25000000  1
  Cd  Cd104  1  0.80014988  0.00000000  0.00000000  1
  Cd  Cd105  1  0.63751943  0.91737816  0.25000000  1
  Cd  Cd106  1  0.50000000  0.00000000  0.00000000  1
  Cd  Cd107  1  0.87501362  0.43750681  0.64349467  1
  Cd  Cd108  1  0.32939007  0.96418540  0.60277664  1
  Cd  Cd109  1  0.00000000  0.50000000  0.00000000  1
  Cd  Cd110  1  0.09419431  0.18838863  0.34384487  1
  Cd  Cd111  1  0.39947254  0.60052746  0.94693733  1
  Cd  Cd112  1  0.23507454  0.47014908  0.65855428  1
  Cd  Cd113  1  0.72014128  0.63751943  0.75000000  1
  Cd  Cd114  1  0.39947254  0.79894508  0.55306267  1
  Cd  Cd115  1  0.46320190  0.73160095  0.25000000  1
loop_
_geom_bond_atom_site_label_1
_geom_bond_atom_site_label_2
_geom_bond_distance
_geom_bond_site_symmetry_2
Cd0 Cd34 2.947643 1_555
Cd0 Cd19 2.947643 1_655
Cd0 Cd97 2.958984 1_555
Cd0 Cd73 3.020931 1_655
Cd0 Cd32 3.263091 1_555
Cd0 Cd38 3.263091 1_555
Cd0 La5 3.523742 1_555
Cd0 La18 3.532286 1_655
Cd0 La19 3.532286 1_545
Cd0 La22 3.605238 1_655
Cd1 Cd26 2.922701 1_455
Cd1 Cd33 2.922701 1_554
Cd1 Cd44 2.947643 1_555
Cd1 Cd97 2.947643 1_454
Cd1 Cd75 3.226331 1_555
Cd1 La15 3.226331 1_555
Cd1 Cd104 3.226331 1_455
Cd1 La7 3.465300 1_454
Cd1 La2 3.465300 1_555
Cd2 Cd32 2.882166 1_565
Cd2 Cd79 2.922582 1_555
Cd2 Cd34 2.922701 1_565
Cd2 Cd42 2.992204 1_565
Cd2 La9 3.453845 1_555
Cd2 La13 3.459960 1_555
Cd2 La5 3.526223 1_565
Cd2 La19 3.654518 1_555
Cd3 Cd59 2.882166 1_555
Cd3 Cd93 2.992204 1_555
Cd3 Cd50 3.397558 1_555
Cd3 La25 3.453845 1_555
Cd3 La0 3.459960 1_555
Cd3 La20 3.526223 1_555
Cd3 La23 3.654518 1_555
Cd4 Cd69 2.882166 1_555
Cd4 Cd85 2.992204 1_555
Cd4 Cd40 3.397558 1_555
Cd4 La25 3.453845 1_555
Cd4 La4 3.459960 1_554
Cd4 La12 3.526223 1_555
Cd4 La1 3.654518 1_555
Cd5 Cd85 2.932769 1_555
Cd5 Cd71 2.941714 1_555
Cd5 Cd56 2.968263 1_554
Cd5 Cd70 3.276204 1_554
Cd5 La25 3.505943 1_555
Cd5 La4 3.507068 1_554
Cd5 La21 3.507068 1_554
Cd6 Cd85 2.992204 1_556
Cd6 Cd70 3.397558 1_555
Cd6 La16 3.453845 1_555
Cd6 La12 3.459960 1_556
Cd6 La4 3.526223 1_555
Cd6 La19 3.654518 1_555
Cd7 Cd90 2.882166 1_655
Cd7 La6 3.453845 1_555
Cd7 La4 3.459960 1_554
Cd7 La24 3.526223 1_655
Cd7 La1 3.654518 1_555
Cd8 Cd82 2.941714 1_555
Cd8 La3 3.505943 1_555
Cd8 La2 3.507068 1_556
Cd8 La24 3.507068 1_556
Cd9 Cd91 2.947643 1_455
Cd9 Cd96 2.958984 1_555
Cd9 Cd90 3.263091 1_555
Cd9 La14 3.523742 1_555
Cd9 La1 3.532286 1_455
Cd9 La23 3.532286 1_565
Cd9 La22 3.605238 1_565
Cd10 Cd42 2.858530 1_555
Cd10 Cd27 3.014741 1_555
Cd10 Cd95 3.051563 1_555
Cd10 Cd12 3.051563 1_555
Cd10 Cd35 3.276204 1_555
Cd10 Cd47 3.358176 1_555
Cd10 La9 3.376889 1_545
Cd10 Cd37 3.391884 1_555
Cd10 Cd32 3.391884 1_555
Cd10 Cd2 3.397558 1_545
Cd10 Cd108 3.397558 1_545
Cd10 La0 3.594601 1_555
Cd10 La5 3.594601 1_555
Cd11 Cd34 2.947643 1_565
Cd11 Cd72 2.947643 1_555
Cd11 Cd63 2.958984 1_555
Cd11 Cd51 3.020931 1_665
Cd11 Cd69 3.263091 1_555
Cd11 La13 3.523742 1_555
Cd11 La11 3.532286 1_565
Cd11 La1 3.532286 1_555
Cd11 La22 3.605238 1_665
Cd12 Cd38 2.911052 1_555
Cd12 Cd32 2.911053 1_555
Cd12 Cd47 3.051563 1_555
Cd12 Cd65 3.051563 1_555
Cd12 Cd27 3.054399 1_555
Cd12 Cd56 3.054399 1_555
Cd12 Cd95 3.144849 1_555
Cd12 Cd54 3.144849 1_555
Cd12 La7 3.583324 1_555
Cd12 La5 3.583324 1_555
Cd13 Cd42 2.858530 1_565
Cd13 Cd88 3.014741 1_555
Cd13 Cd84 3.358176 1_555
Cd13 La17 3.376889 1_565
Cd13 Cd28 3.391884 1_555
Cd13 Cd18 3.397558 1_565
Cd13 Cd36 3.397558 1_565
Cd13 La13 3.594601 1_555
Cd13 La14 3.594601 1_555
Cd14 Cd99 2.882166 1_555
Cd14 Cd57 2.922582 1_555
Cd14 Cd75 2.922701 1_556
Cd14 Cd85 2.992204 1_556
Cd14 Cd70 3.397558 1_555
Cd14 La16 3.453845 1_555
Cd14 La2 3.459960 1_556
Cd14 La21 3.526223 1_555
Cd14 La18 3.654518 1_555
Cd15 Cd20 2.882166 1_455
Cd15 Cd82 2.922582 1_555
Cd15 Cd39 2.922701 1_456
Cd15 Cd65 3.397558 1_455
Cd15 La3 3.453845 1_555
Cd15 La24 3.459960 1_556
Cd15 La4 3.526223 1_455
Cd15 La10 3.654518 1_555
Cd16 Cd79 2.883338 1_555
Cd16 Cd6 2.922582 1_555
Cd16 Cd92 2.922582 1_555
Cd16 Cd55 2.941714 1_555
Cd16 Cd31 3.102765 1_555
Cd16 La19 3.329437 1_555
Cd16 La12 3.417282 1_556
Cd16 La16 3.488162 1_555
Cd16 La9 3.488162 1_555
Cd17 Cd6 2.922701 1_554
Cd17 Cd4 2.922701 1_555
Cd17 Cd43 2.947643 1_554
Cd17 Cd63 2.947643 1_555
Cd17 Cd39 3.226331 1_555
Cd17 La15 3.226331 1_665
Cd17 La12 3.465300 1_555
Cd17 La4 3.465300 1_554
Cd18 Cd28 2.882166 1_545
Cd18 Cd29 2.922582 1_555
Cd18 Cd76 2.922701 1_555
Cd18 Cd42 2.992204 1_555
Cd18 La17 3.453845 1_555
Cd18 La0 3.459960 1_555
Cd18 La14 3.526223 1_545
Cd18 La23 3.654518 1_555
Cd19 Cd68 2.922701 1_455
Cd19 Cd30 2.922701 1_555
Cd19 Cd21 3.226331 1_555
Cd19 La22 3.226331 1_555
Cd19 Cd34 3.226331 1_455
Cd19 La5 3.465300 1_455
Cd19 La20 3.465300 1_555
Cd20 Cd45 2.882166 1_655
Cd20 Cd54 2.911052 1_555
Cd20 Cd43 3.263091 1_555
Cd20 Cd66 3.263091 1_555
Cd20 Cd65 3.391884 1_555
Cd20 La4 3.572304 1_555
Cd20 La8 3.572304 1_555
Cd20 La10 3.608929 1_655
Cd20 La3 3.714688 1_655
Cd21 Cd3 2.922701 1_555
Cd21 Cd46 2.922701 1_555
Cd21 Cd74 2.947643 1_555
Cd21 Cd76 3.226331 1_555
Cd21 La22 3.226331 1_555
Cd21 La0 3.465300 1_555
Cd21 La20 3.465300 1_555
Cd22 Cd58 2.922582 1_555
Cd22 Cd84 3.397558 1_545
Cd22 La17 3.453845 1_555
Cd22 La7 3.459960 1_554
Cd22 La12 3.526223 1_545
Cd22 La11 3.654518 1_555
Cd23 Cd93 2.932769 1_555
Cd23 Cd24 2.941714 1_555
Cd23 Cd29 2.941714 1_555
Cd23 Cd27 2.968263 1_555
Cd23 Cd98 3.276204 1_555
Cd23 La25 3.505943 1_555
Cd23 La8 3.507068 1_555
Cd23 La0 3.507068 1_555
Cd24 Cd25 2.883338 1_555
Cd24 Cd78 2.922582 1_555
Cd24 Cd53 2.941714 1_555
Cd24 Cd83 3.102765 1_555
Cd24 La1 3.329437 1_555
Cd24 La8 3.417282 1_555
Cd24 La25 3.488162 1_555
Cd24 La6 3.488162 1_555
Cd25 Cd4 2.922582 1_555
Cd25 Cd7 2.922582 1_555
Cd25 Cd80 2.941714 1_555
Cd25 Cd5 2.941714 1_555
Cd25 Cd83 3.102765 1_555
Cd25 La1 3.329437 1_555
Cd25 La4 3.417282 1_554
Cd25 La25 3.488162 1_555
Cd25 La6 3.488162 1_555
Cd26 Cd77 2.882166 1_655
Cd26 Cd58 2.922582 1_555
Cd26 Cd67 3.397558 1_655
Cd26 La6 3.453845 1_555
Cd26 La7 3.459960 1_554
Cd26 La2 3.526223 1_655
Cd26 La11 3.654518 1_555
Cd27 Cd53 2.968254 1_555
Cd27 Cd35 2.968254 1_555
Cd27 Cd98 3.014754 1_555
Cd27 Cd95 3.054407 1_555
Cd27 Cd54 3.054407 1_555
Cd27 La5 3.632397 1_555
Cd27 La0 3.632410 1_555
Cd27 La8 3.632410 1_555
Cd28 Cd61 2.882166 1_565
Cd28 Cd90 3.184143 1_555
Cd28 Cd96 3.263091 1_555
Cd28 Cd9 3.263091 1_555
Cd28 Cd84 3.391884 1_555
Cd28 La24 3.572304 1_555
Cd28 La14 3.572304 1_555
Cd28 La23 3.608929 1_565
Cd28 La17 3.714689 1_565
Cd29 Cd71 2.883338 1_555
Cd29 Cd3 2.922582 1_555
Cd29 Cd35 2.941714 1_555
Cd29 Cd83 3.102765 1_555
Cd29 La23 3.329437 1_555
Cd29 La0 3.417282 1_555
Cd29 La25 3.488162 1_555
Cd29 La17 3.488162 1_555
Cd30 Cd38 2.882166 1_455
Cd30 Cd86 2.992204 1_555
Cd30 La3 3.453845 1_555
Cd30 La20 3.459960 1_555
Cd30 La5 3.526223 1_455
Cd30 La18 3.654518 1_555
Cd31 Cd87 3.102753 1_555
Cd31 Cd82 3.102753 1_555
Cd31 Cd79 3.102765 1_555
Cd31 Cd57 3.102765 1_555
Cd31 La3 3.477864 1_555
Cd31 La9 3.477864 1_555
Cd31 La16 3.477878 1_555
Cd32 Cd92 2.882166 1_545
Cd32 Cd38 3.184143 1_555
Cd32 Cd97 3.263091 1_555
Cd32 Cd47 3.391884 1_555
Cd32 La5 3.572304 1_555
Cd32 La7 3.572304 1_555
Cd32 La19 3.608929 1_545
Cd32 La9 3.714689 1_545
Cd33 Cd38 2.882166 1_455
Cd33 Cd57 2.922582 1_555
Cd33 Cd65 3.397558 1_455
Cd33 La3 3.453845 1_555
Cd33 La2 3.459960 1_556
Cd33 La7 3.526223 1_455
Cd33 La18 3.654518 1_555
Cd34 Cd36 2.922701 1_555
Cd34 La22 3.226331 1_655
Cd34 Cd72 3.226331 1_545
Cd34 La5 3.465300 1_555
Cd34 La13 3.465300 1_545
Cd35 Cd42 2.932769 1_555
Cd35 Cd62 2.941714 1_555
Cd35 La17 3.505943 1_555
Cd35 La0 3.507068 1_555
Cd35 La5 3.507068 1_555
Cd36 Cd62 2.922582 1_555
Cd36 Cd42 2.992204 1_555
Cd36 La17 3.453845 1_555
Cd36 La5 3.459960 1_555
Cd36 La13 3.526223 1_545
Cd36 La11 3.654518 1_555
Cd37 Cd64 2.882166 1_545
Cd37 Cd95 2.911052 1_555
Cd37 Cd99 3.184143 1_555
Cd37 Cd94 3.263091 1_555
Cd37 Cd74 3.263091 1_555
Cd37 Cd47 3.391884 1_555
Cd37 La0 3.572304 1_555
Cd37 La21 3.572304 1_555
Cd37 La10 3.608929 1_545
Cd37 La9 3.714688 1_545
Cd38 Cd97 3.263091 1_555
Cd38 Cd65 3.391884 1_555
Cd38 La7 3.572304 1_555
Cd38 La5 3.572304 1_555
Cd38 La18 3.608929 1_655
Cd38 La3 3.714689 1_655
Cd39 Cd7 2.922701 1_555
Cd39 Cd43 2.947643 1_554
Cd39 Cd96 2.947643 1_655
Cd39 La15 3.226331 1_665
Cd39 Cd89 3.226331 1_665
Cd39 La24 3.465300 1_655
Cd39 La4 3.465300 1_554
Cd40 Cd85 2.858530 1_555
Cd40 Cd50 3.358176 1_555
Cd40 La25 3.376889 1_555
Cd40 Cd69 3.391884 1_555
Cd40 Cd59 3.391884 1_555
Cd40 Cd81 3.397558 1_555
Cd40 La2 3.594601 1_555
Cd40 La12 3.594601 1_555
Cd41 Cd86 2.858530 1_555
Cd41 Cd88 3.014741 1_555
Cd41 Cd48 3.276204 1_555
Cd41 Cd67 3.358176 1_555
Cd41 La6 3.376889 1_455
Cd41 Cd77 3.391884 1_555
Cd41 Cd90 3.391884 1_555
Cd41 Cd68 3.397558 1_455
Cd41 La20 3.594601 1_555
Cd41 La14 3.594602 1_555
Cd43 Cd66 2.958984 1_555
Cd43 Cd73 3.020931 1_665
Cd43 La4 3.523742 1_555
Cd43 La10 3.532286 1_655
Cd43 La19 3.532286 1_555
Cd43 La15 3.605238 1_666
Cd44 Cd75 2.947643 1_555
Cd44 Cd51 3.020931 1_555
Cd44 Cd77 3.263091 1_555
Cd44 Cd59 3.263091 1_555
Cd44 La2 3.523742 1_555
Cd44 La11 3.532286 1_455
Cd44 La23 3.532286 1_555
Cd44 La15 3.605238 1_555
Cd45 Cd87 2.922582 1_555
Cd45 Cd91 2.922701 1_455
Cd45 Cd86 2.992204 1_555
Cd45 La3 3.453845 1_555
Cd45 La14 3.459960 1_555
Cd45 La8 3.526223 1_455
Cd45 La10 3.654518 1_555
Cd46 Cd99 2.882166 1_555
Cd46 Cd93 2.992204 1_555
Cd46 Cd98 3.397558 1_555
Cd46 La16 3.453845 1_555
Cd46 La20 3.459960 1_555
Cd46 La0 3.526223 1_555
Cd46 La18 3.654518 1_555
Cd47 Cd56 3.014741 1_555
Cd47 Cd95 3.051563 1_555
Cd47 Cd52 3.276204 1_556
Cd47 La9 3.376889 1_545
Cd47 Cd92 3.397558 1_545
Cd47 Cd64 3.397558 1_545
Cd47 La21 3.594601 1_555
Cd47 La7 3.594601 1_555
Cd48 Cd86 2.932769 1_555
Cd48 Cd87 2.941714 1_555
Cd48 Cd88 2.968254 1_555
Cd48 La3 3.505943 1_555
Cd48 La20 3.507068 1_555
Cd48 La14 3.507068 1_555
Cd49 Cd79 2.922582 1_555
Cd49 Cd72 2.922701 1_555
Cd49 Cd93 2.992204 1_555
Cd49 Cd98 3.397558 1_555
Cd49 La16 3.453845 1_555
Cd49 La13 3.459960 1_555
Cd49 La8 3.526223 1_555
Cd49 La19 3.654518 1_555
Cd50 Cd93 2.858530 1_555
Cd50 Cd88 3.014754 1_555
Cd50 Cd60 3.276204 1_555
Cd50 La25 3.376889 1_555
Cd50 Cd69 3.391884 1_555
Cd50 Cd59 3.391884 1_555
Cd50 Cd78 3.397558 1_555
Cd50 La20 3.594601 1_555
Cd50 La13 3.594601 1_555
Cd51 Cd96 3.020931 1_545
Cd51 Cd9 3.020931 1_545
Cd51 Cd63 3.020931 1_445
Cd51 La11 3.571983 1_455
Cd51 La23 3.571983 1_555
Cd51 La1 3.571983 1_445
Cd51 La22 3.941324 1_555
Cd51 La15 3.941324 1_555
Cd52 Cd71 2.941714 1_555
Cd52 Cd58 2.941714 1_555
Cd52 Cd56 2.968254 1_554
Cd52 La17 3.505943 1_555
Cd52 La21 3.507068 1_554
Cd52 La7 3.507068 1_554
Cd53 Cd86 2.932769 1_655
Cd53 Cd62 2.941714 1_555
Cd53 La6 3.505943 1_555
Cd53 La8 3.507068 1_555
Cd53 La5 3.507068 1_555
Cd54 Cd65 3.051562 1_555
Cd54 Cd70 3.051562 1_555
Cd54 Cd98 3.051562 1_555
Cd54 Cd56 3.054407 1_555
Cd54 Cd95 3.144849 1_555
Cd54 La8 3.583324 1_555
Cd54 La4 3.583324 1_555
Cd55 Cd82 2.941714 1_555
Cd55 Cd84 3.276204 1_556
Cd55 La9 3.505943 1_555
Cd55 La12 3.507068 1_556
Cd55 La24 3.507068 1_556
Cd56 Cd80 2.968254 1_556
Cd56 Cd65 3.014741 1_555
Cd56 Cd70 3.014754 1_555
Cd56 Cd95 3.054407 1_555
Cd56 La7 3.632397 1_555
Cd56 La21 3.632410 1_555
Cd56 La4 3.632410 1_555
Cd57 Cd8 2.941714 1_555
Cd57 La18 3.329437 1_555
Cd57 La2 3.417282 1_556
Cd57 La16 3.488162 1_555
Cd57 La3 3.488162 1_555
Cd58 Cd62 2.883338 1_555
Cd58 Cd80 2.941714 1_555
Cd58 Cd83 3.102753 1_555
Cd58 La11 3.329438 1_555
Cd58 La7 3.417282 1_554
Cd58 La17 3.488162 1_555
Cd58 La6 3.488162 1_555
Cd59 Cd81 2.882166 1_555
Cd59 Cd77 3.184143 1_555
Cd59 La20 3.572304 1_555
Cd59 La2 3.572304 1_555
Cd59 La23 3.608929 1_555
Cd59 La25 3.714689 1_555
Cd60 Cd93 2.932769 1_555
Cd60 Cd79 2.941714 1_555
Cd60 Cd88 2.968263 1_555
Cd60 La16 3.505943 1_555
Cd60 La20 3.507068 1_555
Cd60 La13 3.507068 1_555
Cd61 Cd71 2.922582 1_555
Cd61 Cd89 2.922701 1_555
Cd61 Cd84 3.397558 1_545
Cd61 La17 3.453845 1_555
Cd61 La21 3.459960 1_554
Cd61 La24 3.526223 1_545
Cd61 La23 3.654518 1_555
Cd62 Cd68 2.922582 1_555
Cd62 Cd83 3.102753 1_555
Cd62 La11 3.329438 1_555
Cd62 La5 3.417282 1_555
Cd62 La17 3.488162 1_555
Cd62 La6 3.488162 1_555
Cd63 Cd69 3.263091 1_555
Cd63 La12 3.523742 1_555
Cd63 La11 3.532286 1_565
Cd63 La1 3.532286 1_555
Cd63 La15 3.605238 1_665
Cd64 Cd82 2.922582 1_555
Cd64 Cd89 2.922701 1_566
Cd64 La9 3.453845 1_555
Cd64 La24 3.459960 1_556
Cd64 La21 3.526223 1_565
Cd64 La10 3.654518 1_555
Cd65 Cd80 3.276204 1_556
Cd65 La3 3.376889 1_655
Cd65 La4 3.594601 1_555
Cd65 La7 3.594602 1_555
Cd66 Cd91 2.947643 1_555
Cd66 Cd72 2.947643 1_555
Cd66 Cd73 3.020931 1_665
Cd66 La8 3.523742 1_555
Cd66 La10 3.532286 1_655
Cd66 La19 3.532286 1_555
Cd66 La22 3.605238 1_665
Cd67 Cd8 3.276204 1_554
Cd67 La6 3.376889 1_455
Cd67 Cd77 3.391884 1_555
Cd67 Cd90 3.391884 1_555
Cd67 Cd7 3.397558 1_455
Cd67 La2 3.594601 1_555
Cd67 La24 3.594602 1_555
Cd68 Cd77 2.882166 1_655
Cd68 Cd86 2.992204 1_655
Cd68 La6 3.453845 1_555
Cd68 La5 3.459960 1_555
Cd68 La20 3.526223 1_655
Cd68 La11 3.654518 1_555
Cd69 Cd78 2.882166 1_555
Cd69 La12 3.572304 1_555
Cd69 La13 3.572304 1_555
Cd69 La1 3.608929 1_555
Cd69 La25 3.714689 1_555
Cd70 Cd85 2.858530 1_556
Cd70 Cd95 3.051563 1_555
Cd70 Cd98 3.358176 1_555
Cd70 La16 3.376889 1_555
Cd70 Cd99 3.391884 1_555
Cd70 La4 3.594601 1_555
Cd70 La21 3.594601 1_555
Cd71 Cd81 2.922582 1_555
Cd71 Cd83 3.102765 1_555
Cd71 La23 3.329437 1_555
Cd71 La21 3.417282 1_554
Cd71 La25 3.488162 1_555
Cd71 La17 3.488162 1_555
Cd72 Cd78 2.922701 1_555
Cd72 Cd91 3.226331 1_555
Cd72 La22 3.226331 1_665
Cd72 La13 3.465300 1_555
Cd72 La8 3.465300 1_555
Cd73 Cd97 3.020931 1_455
Cd73 Cd74 3.020931 1_555
Cd73 Cd94 3.020931 1_555
Cd73 La10 3.571983 1_545
Cd73 La19 3.571983 1_445
Cd73 La18 3.571983 1_555
Cd73 La22 3.941324 1_555
Cd73 La15 3.941324 1_556
Cd74 Cd76 2.947643 1_555
Cd74 Cd94 2.958984 1_555
Cd74 Cd99 3.263091 1_555
Cd74 La0 3.523742 1_555
Cd74 La10 3.532286 1_545
Cd74 La18 3.532286 1_555
Cd74 La22 3.605238 1_555
Cd75 Cd81 2.922701 1_555
Cd75 Cd94 2.947643 1_554
Cd75 Cd89 3.226331 1_555
Cd75 La15 3.226331 1_555
Cd75 La21 3.465300 1_554
Cd75 La2 3.465300 1_555
Cd76 Cd9 2.947643 1_545
Cd76 La22 3.226331 1_555
Cd76 Cd91 3.226331 1_445
Cd76 La14 3.465300 1_545
Cd76 La0 3.465300 1_555
Cd77 La20 3.572304 1_555
Cd77 La2 3.572304 1_555
Cd77 La11 3.608929 1_455
Cd77 La6 3.714688 1_455
Cd78 Cd93 2.992204 1_555
Cd78 La25 3.453845 1_555
Cd78 La8 3.459960 1_555
Cd78 La13 3.526223 1_555
Cd78 La1 3.654518 1_555
Cd79 La19 3.329437 1_555
Cd79 La13 3.417282 1_555
Cd79 La16 3.488162 1_555
Cd79 La9 3.488162 1_555
Cd80 La6 3.505943 1_555
Cd80 La4 3.507068 1_554
Cd80 La7 3.507068 1_554
Cd81 Cd85 2.992204 1_555
Cd81 La25 3.453845 1_555
Cd81 La21 3.459960 1_554
Cd81 La2 3.526223 1_555
Cd81 La23 3.654518 1_555
Cd82 Cd87 2.883338 1_555
Cd82 La10 3.329438 1_555
Cd82 La24 3.417282 1_556
Cd82 La9 3.488162 1_555
Cd82 La3 3.488162 1_555
Cd83 La6 3.477864 1_555
Cd83 La17 3.477864 1_555
Cd83 La25 3.477878 1_555
Cd84 La17 3.376889 1_565
Cd84 La12 3.594601 1_555
Cd84 La24 3.594601 1_555
Cd87 La10 3.329438 1_555
Cd87 La14 3.417282 1_555
Cd87 La9 3.488162 1_555
Cd87 La3 3.488162 1_555
Cd88 La14 3.632397 1_555
Cd88 La13 3.632410 1_555
Cd88 La20 3.632410 1_555
Cd89 Cd94 2.947643 1_554
Cd89 Cd96 2.947643 1_545
Cd89 La15 3.226331 1_555
Cd89 La24 3.465300 1_545
Cd89 La21 3.465300 1_554
Cd90 Cd96 3.263091 1_555
Cd90 La24 3.572304 1_555
Cd90 La14 3.572304 1_555
Cd90 La1 3.608929 1_455
Cd90 La6 3.714689 1_455
Cd91 La22 3.226331 1_665
Cd91 La14 3.465300 1_655
Cd91 La8 3.465300 1_555
Cd92 La9 3.453845 1_555
Cd92 La12 3.459960 1_556
Cd92 La7 3.526223 1_565
Cd92 La19 3.654518 1_555
Cd93 Cd98 2.858530 1_555
Cd94 Cd99 3.263091 1_555
Cd94 La21 3.523742 1_555
Cd94 La10 3.532286 1_545
Cd94 La18 3.532286 1_555
Cd94 La15 3.605238 1_556
Cd95 Cd99 2.911052 1_555
Cd95 Cd98 3.051563 1_555
Cd95 La0 3.583324 1_555
Cd95 La21 3.583324 1_555
Cd96 La24 3.523742 1_555
Cd96 La1 3.532286 1_455
Cd96 La23 3.532286 1_565
Cd96 La15 3.605238 1_565
Cd97 La7 3.523742 1_555
Cd97 La18 3.532286 1_655
Cd97 La19 3.532286 1_545
Cd97 La15 3.605238 1_656
Cd98 La16 3.376889 1_555
Cd98 Cd99 3.391884 1_555
Cd98 La8 3.594601 1_555
Cd98 La0 3.594601 1_555
Cd99 La21 3.572304 1_555
Cd99 La0 3.572304 1_555
Cd99 La18 3.608929 1_555
Cd99 La16 3.714689 1_555
Cd100 Cd90 2.911052 1_555
Cd100 Cd28 2.911053 1_555
Cd100 Cd13 3.051563 1_555
Cd100 Cd84 3.051563 1_555
Cd100 Cd41 3.051563 1_555
Cd100 Cd67 3.051563 1_555
Cd100 Cd88 3.054399 1_555
Cd100 Cd102 3.054399 1_555
Cd100 Cd115 3.144849 1_555
Cd100 Cd103 3.144849 1_555
Cd100 La24 3.583324 1_555
Cd100 La14 3.583324 1_555
Cd101 Cd90 2.882166 1_655
Cd101 Cd24 2.922582 1_555
Cd101 Cd91 2.922701 1_555
Cd101 Cd86 2.992204 1_655
Cd101 Cd41 3.397558 1_655
Cd101 La6 3.453845 1_555
Cd101 La8 3.459960 1_555
Cd101 La14 3.526223 1_655
Cd101 La1 3.654518 1_555
Cd102 Cd8 2.968254 1_554
Cd102 Cd55 2.968254 1_554
Cd102 Cd111 2.968263 1_554
Cd102 Cd67 3.014741 1_555
Cd102 Cd84 3.014741 1_555
Cd102 Cd40 3.014754 1_555
Cd102 Cd115 3.054407 1_555
Cd102 Cd103 3.054407 1_555
Cd102 La24 3.632397 1_555
Cd102 La12 3.632410 1_555
Cd102 La2 3.632410 1_555
Cd103 Cd59 2.911052 1_555
Cd103 Cd77 2.911052 1_555
Cd103 Cd41 3.051562 1_555
Cd103 Cd67 3.051562 1_555
Cd103 Cd40 3.051562 1_555
Cd103 Cd50 3.051562 1_555
Cd103 Cd88 3.054407 1_555
Cd103 Cd115 3.144849 1_555
Cd103 La20 3.583324 1_555
Cd103 La2 3.583324 1_555
Cd104 Cd22 2.922701 1_555
Cd104 Cd92 2.922701 1_544
Cd104 Cd63 2.947643 1_545
Cd104 Cd97 2.947643 1_554
Cd104 La15 3.226331 1_655
Cd104 Cd17 3.226331 1_545
Cd104 La7 3.465300 1_554
Cd104 La12 3.465300 1_545
Cd105 Cd22 2.882166 1_565
Cd105 Cd36 2.882166 1_565
Cd105 Cd115 2.911052 1_555
Cd105 Cd69 3.184143 1_555
Cd105 Cd63 3.263091 1_555
Cd105 Cd11 3.263091 1_555
Cd105 Cd84 3.391884 1_555
Cd105 Cd13 3.391884 1_555
Cd105 La12 3.572304 1_555
Cd105 La13 3.572304 1_555
Cd105 La11 3.608929 1_565
Cd105 La17 3.714688 1_565
Cd106 Cd84 2.858530 1_545
Cd106 Cd47 2.858530 1_554
Cd106 Cd52 2.932769 1_555
Cd106 Cd55 2.932769 1_544
Cd106 Cd61 2.992204 1_555
Cd106 Cd92 2.992204 1_544
Cd106 Cd64 2.992204 1_544
Cd106 Cd22 2.992204 1_555
Cd107 Cd86 2.858530 1_655
Cd107 Cd27 3.014741 1_555
Cd107 Cd54 3.051562 1_555
Cd107 Cd12 3.051563 1_555
Cd107 Cd53 3.276204 1_555
Cd107 Cd65 3.358176 1_555
Cd107 La3 3.376889 1_655
Cd107 Cd20 3.391884 1_555
Cd107 Cd38 3.391884 1_555
Cd107 Cd30 3.397558 1_655
Cd107 Cd45 3.397558 1_655
Cd107 La8 3.594601 1_555
Cd107 La5 3.594602 1_555
Cd108 Cd37 2.882166 1_565
Cd108 Cd87 2.922582 1_555
Cd108 Cd76 2.922701 1_565
Cd108 Cd42 2.992204 1_565
Cd108 La9 3.453845 1_555
Cd108 La14 3.459960 1_555
Cd108 La0 3.526223 1_565
Cd108 La10 3.654518 1_555
Cd109 Cd67 2.858530 1_555
Cd109 Cd65 2.858530 1_454
Cd109 Cd8 2.932769 1_554
Cd109 Cd80 2.932769 1_455
Cd109 Cd7 2.992204 1_455
Cd109 Cd33 2.992204 1_554
Cd109 Cd26 2.992204 1_455
Cd109 Cd15 2.992204 1_554
Cd110 Cd19 2.947643 1_555
Cd110 Cd21 2.947643 1_555
Cd110 Cd44 2.958984 1_555
Cd110 Cd51 3.020931 1_555
Cd110 Cd77 3.263091 1_555
Cd110 Cd59 3.263091 1_555
Cd110 La20 3.523742 1_555
Cd110 La11 3.532286 1_455
Cd110 La23 3.532286 1_555
Cd110 La22 3.605238 1_555
Cd111 Cd85 2.932769 1_556
Cd111 Cd57 2.941714 1_555
Cd111 Cd16 2.941714 1_555
Cd111 Cd40 3.276204 1_556
Cd111 La16 3.505943 1_555
Cd111 La2 3.507068 1_556
Cd111 La12 3.507068 1_556
Cd112 Cd57 2.883338 1_555
Cd112 Cd46 2.922582 1_555
Cd112 Cd30 2.922582 1_555
Cd112 Cd48 2.941714 1_555
Cd112 Cd60 2.941714 1_555
Cd112 Cd31 3.102765 1_555
Cd112 La18 3.329437 1_555
Cd112 La20 3.417282 1_555
Cd112 La16 3.488162 1_555
Cd112 La3 3.488162 1_555
Cd113 Cd49 2.882166 1_555
Cd113 Cd6 2.882166 1_555
Cd113 Cd54 2.911052 1_555
Cd113 Cd20 3.184143 1_555
Cd113 Cd43 3.263091 1_555
Cd113 Cd66 3.263091 1_555
Cd113 Cd98 3.391884 1_555
Cd113 Cd70 3.391884 1_555
Cd113 La4 3.572304 1_555
Cd113 La8 3.572304 1_555
Cd113 La19 3.608929 1_555
Cd113 La16 3.714689 1_555
Cd114 Cd42 2.932769 1_565
Cd114 Cd79 2.941714 1_555
Cd114 Cd87 2.941714 1_555
Cd114 Cd88 2.968254 1_555
Cd114 Cd13 3.276204 1_555
Cd114 La9 3.505943 1_555
Cd114 La13 3.507068 1_555
Cd114 La14 3.507068 1_555
Cd115 Cd69 2.911052 1_555
Cd115 Cd13 3.051563 1_555
Cd115 Cd84 3.051563 1_555
Cd115 Cd40 3.051563 1_555
Cd115 Cd50 3.051563 1_555
Cd115 Cd88 3.054407 1_555
Cd115 La12 3.583324 1_555
Cd115 La13 3.583324 1_555
