# generated using pymatgen
data_ErTlSe2
_symmetry_space_group_name_H-M   'P 1'
_cell_length_a   8.09283854
_cell_length_b   8.09283854
_cell_length_c   8.09283808
_cell_angle_alpha   29.56438390
_cell_angle_beta   29.56438390
_cell_angle_gamma   29.56439139
_symmetry_Int_Tables_number   1
_chemical_formula_structural   ErTlSe2
_chemical_formula_sum   'Er1 Tl1 Se2'
_cell_volume   114.22245775
_cell_formula_units_Z   1
loop_
 _symmetry_equiv_pos_site_id
 _symmetry_equiv_pos_as_xyz
  1  'x, y, z'
loop_
 _atom_site_type_symbol
 _atom_site_label
 _atom_site_symmetry_multiplicity
 _atom_site_fract_x
 _atom_site_fract_y
 _atom_site_fract_z
 _atom_site_occupancy
  Er  Er0  1  -0.00000000  -0.00000000  0.00000000  1
  Tl  Tl0  1  0.50000000  0.50000000  0.50000000  1
  Se  Se0  1  0.73386561  0.73386561  0.73386561  1
  Se  Se1  1  0.26613439  0.26613439  0.26613439  1
loop_
_geom_bond_atom_site_label_1
_geom_bond_atom_site_label_2
_geom_bond_distance
_geom_bond_site_symmetry_2
Er0 Se0 2.848776 1_445
Er0 Se1 2.848776 1_554
Er0 Se1 2.848777 1_545
Er0 Se0 2.848777 1_544
Er0 Se1 2.848777 1_455
Er0 Se0 2.848777 1_454
Se0 Tl0 3.318205 1_556
Se0 Tl0 3.318205 1_565
Se0 Tl0 3.318205 1_655
Se1 Tl0 3.318205 1_554
Se1 Tl0 3.318205 1_545
Se1 Tl0 3.318205 1_455
