# generated using pymatgen
data_Rb5(CoO2)2
_symmetry_space_group_name_H-M   'P 1'
_cell_length_a   6.97239958
_cell_length_b   9.22800645
_cell_length_c   9.56582419
_cell_angle_alpha   61.57489934
_cell_angle_beta   89.73657150
_cell_angle_gamma   71.28365553
_symmetry_Int_Tables_number   1
_chemical_formula_structural   Rb5(CoO2)2
_chemical_formula_sum   'Rb10 Co4 O8'
_cell_volume   504.47888442
_cell_formula_units_Z   2
loop_
 _symmetry_equiv_pos_site_id
 _symmetry_equiv_pos_as_xyz
  1  'x, y, z'
loop_
 _atom_site_type_symbol
 _atom_site_label
 _atom_site_symmetry_multiplicity
 _atom_site_fract_x
 _atom_site_fract_y
 _atom_site_fract_z
 _atom_site_occupancy
  Rb  Rb0  1  0.90511836  0.83004562  0.77902048  1
  Rb  Rb1  1  0.09488164  0.16995438  0.22097952  1
  Rb  Rb2  1  0.89831051  0.43808402  0.77840855  1
  Rb  Rb3  1  0.10168949  0.56191598  0.22159145  1
  Rb  Rb4  1  0.73324015  0.04900963  0.02288272  1
  Rb  Rb5  1  0.26675985  0.95099037  0.97711728  1
  Rb  Rb6  1  0.37933653  0.35739808  0.63338435  1
  Rb  Rb7  1  0.62066347  0.64260192  0.36661565  1
  Rb  Rb8  1  0.62142514  0.16616268  0.38571897  1
  Rb  Rb9  1  0.37857486  0.83383732  0.61428103  1
  Co  Co0  1  0.60963750  0.58047594  0.02969543  1
  Co  Co1  1  0.39036250  0.41952406  0.97030457  1
  Co  Co2  1  0.98558517  0.79109329  0.42310821  1
  Co  Co3  1  0.01441483  0.20890671  0.57689179  1
  O  O0  1  0.69046767  0.73532319  0.04479443  1
  O  O1  1  0.30953233  0.26467681  0.95520557  1
  O  O2  1  0.22978930  0.20709305  0.48003502  1
  O  O3  1  0.77021070  0.79290695  0.51996498  1
  O  O4  1  0.32197158  0.64084906  0.95214688  1
  O  O5  1  0.67802842  0.35915094  0.04785312  1
  O  O6  1  0.81061365  0.20159823  0.68662686  1
  O  O7  1  0.18938635  0.79840177  0.31337314  1
loop_
_geom_bond_atom_site_label_1
_geom_bond_atom_site_label_2
_geom_bond_distance
_geom_bond_site_symmetry_2
Co0 O0 1.759087 1_555
Co0 O5 1.861966 1_555
Co0 O4 1.945943 1_554
Co1 O1 1.759087 1_555
Co1 O4 1.861966 1_555
Co1 O5 1.945943 1_556
Co2 O3 1.760563 1_555
Co2 O7 1.762389 1_655
Co3 O2 1.760563 1_555
Co3 O6 1.762389 1_455
O0 Rb5 2.850490 1_554
O0 Rb0 2.855944 1_554
O0 Rb3 2.857509 1_655
O0 Rb7 2.862144 1_555
O0 Rb4 2.913414 1_565
O1 Rb4 2.850490 1_556
O1 Rb1 2.855944 1_556
O1 Rb2 2.857509 1_455
O1 Rb6 2.862144 1_555
O1 Rb5 2.913414 1_545
O2 Rb6 2.835860 1_555
O2 Rb8 2.837765 1_555
O2 Rb3 2.840382 1_555
O2 Rb9 2.845580 1_545
O2 Rb1 2.860064 1_555
O3 Rb7 2.835860 1_555
O3 Rb9 2.837765 1_555
O3 Rb2 2.840382 1_555
O3 Rb8 2.845580 1_565
O3 Rb0 2.860064 1_555
O4 Rb0 2.876353 1_455
O4 Rb5 2.887754 1_555
O4 Rb3 2.902941 1_556
O4 Rb9 2.955107 1_555
O5 Rb1 2.876353 1_655
O5 Rb4 2.887754 1_555
O5 Rb2 2.902941 1_554
O5 Rb8 2.955107 1_555
O6 Rb6 2.812675 1_555
O6 Rb2 2.931289 1_555
O6 Rb0 2.939682 1_545
O6 Rb4 2.963055 1_556
O7 Rb7 2.812675 1_555
O7 Rb3 2.931289 1_555
O7 Rb1 2.939682 1_565
O7 Rb5 2.963055 1_554
