# generated using pymatgen
data_Ce5Si3
_symmetry_space_group_name_H-M   'P 1'
_cell_length_a   8.54993813
_cell_length_b   8.54990384
_cell_length_c   8.55397258
_cell_angle_alpha   125.32935083
_cell_angle_beta   125.32945131
_cell_angle_gamma   80.96807892
_symmetry_Int_Tables_number   1
_chemical_formula_structural   Ce5Si3
_chemical_formula_sum   'Ce10 Si6'
_cell_volume   401.14254594
_cell_formula_units_Z   2
loop_
 _symmetry_equiv_pos_site_id
 _symmetry_equiv_pos_as_xyz
  1  'x, y, z'
loop_
 _atom_site_type_symbol
 _atom_site_label
 _atom_site_symmetry_multiplicity
 _atom_site_fract_x
 _atom_site_fract_y
 _atom_site_fract_z
 _atom_site_occupancy
  Ce  Ce0  1  0.52925060  0.66540861  0.50000544  1
  Ce  Ce1  1  0.83461336  0.97076692  0.50002986  1
  Ce  Ce2  1  0.33427373  0.83428705  0.86391261  1
  Ce  Ce3  1  0.47077596  0.33460060  0.50000978  1
  Ce  Ce4  1  0.16540086  0.02922756  0.49999562  1
  Ce  Ce5  1  0.49998510  0.50000837  -0.00000104  1
  Ce  Ce6  1  0.97047039  0.47047351  0.13619051  1
  Ce  Ce7  1  0.66570361  0.16569970  0.13608145  1
  Ce  Ce8  1  0.00001565  0.99995388  -0.00002697  1
  Ce  Ce9  1  0.02953731  0.52955256  0.86380474  1
  Si  Si0  1  0.88812317  0.61185225  0.49997344  1
  Si  Si1  1  0.38820392  0.88817650  0.27644087  1
  Si  Si2  1  0.61187229  0.11181984  0.72364287  1
  Si  Si3  1  0.11179454  0.38814705  0.49994589  1
  Si  Si4  1  0.24995045  0.25002755  0.99999398  1
  Si  Si5  1  0.75002906  0.74999605  0.00000195  1
loop_
_geom_bond_atom_site_label_1
_geom_bond_atom_site_label_2
_geom_bond_distance
_geom_bond_site_symmetry_2
Ce0 Si0 3.030524 1_555
Ce0 Si1 3.092458 1_555
Ce0 Si2 3.092801 1_565
Ce0 Si4 3.145006 1_554
Ce0 Si5 3.145240 1_556
Ce1 Si0 3.030494 1_555
Ce1 Si2 3.092566 1_565
Ce1 Si1 3.092875 1_555
Ce1 Si4 3.144676 1_665
Ce1 Si5 3.145500 1_555
Ce2 Si1 3.030095 1_556
Ce2 Si3 3.091150 1_555
Ce2 Si0 3.091153 1_455
Ce2 Si4 3.144863 1_565
Ce2 Si5 3.144901 1_556
Ce3 Si3 3.031036 1_555
Ce3 Si2 3.092971 1_555
Ce3 Si1 3.093007 1_545
Ce3 Si5 3.144958 1_556
Ce3 Si4 3.145382 1_554
Ce4 Si3 3.030980 1_555
Ce4 Si1 3.092678 1_545
Ce4 Si2 3.093246 1_555
Ce4 Si5 3.144843 1_445
Ce4 Si4 3.145378 1_555
Ce5 Si1 3.171903 1_555
Ce5 Si2 3.172286 1_554
Ce5 Si0 3.173293 1_555
Ce5 Si3 3.173769 1_554
Ce5 Si4 3.251547 1_554
Ce5 Si5 3.251665 1_555
Ce6 Si2 3.029806 1_554
Ce6 Si3 3.091103 1_655
Ce6 Si0 3.091351 1_555
Ce6 Si4 3.144147 1_654
Ce6 Si5 3.144416 1_555
Ce7 Si2 3.029798 1_554
Ce7 Si3 3.090836 1_655
Ce7 Si0 3.091155 1_555
Ce7 Si5 3.144593 1_545
Ce7 Si4 3.144971 1_554
Ce8 Si2 3.171894 1_464
Ce8 Si1 3.172053 1_555
Ce8 Si0 3.173186 1_454
Ce8 Si3 3.173606 1_565
Ce8 Si5 3.251305 1_455
Ce8 Si4 3.251398 1_564
Ce9 Si1 3.029966 1_556
Ce9 Si3 3.091315 1_555
Ce9 Si0 3.091349 1_455
Ce9 Si5 3.144356 1_456
Ce9 Si4 3.144373 1_555
Si0 Si3 2.483351 1_655
Si1 Si2 2.484830 1_565
