# generated using pymatgen
data_Bi2Os2O7
_symmetry_space_group_name_H-M   'P 1'
_cell_length_a   7.32528469
_cell_length_b   7.32528469
_cell_length_c   7.32528469
_cell_angle_alpha   60.00000000
_cell_angle_beta   60.00000000
_cell_angle_gamma   60.00000000
_symmetry_Int_Tables_number   1
_chemical_formula_structural   Bi2Os2O7
_chemical_formula_sum   'Bi4 Os4 O14'
_cell_volume   277.94478245
_cell_formula_units_Z   2
loop_
 _symmetry_equiv_pos_site_id
 _symmetry_equiv_pos_as_xyz
  1  'x, y, z'
loop_
 _atom_site_type_symbol
 _atom_site_label
 _atom_site_symmetry_multiplicity
 _atom_site_fract_x
 _atom_site_fract_y
 _atom_site_fract_z
 _atom_site_occupancy
  Bi  Bi0  1  0.12500000  0.62500000  0.12500000  1
  Bi  Bi1  1  0.12500000  0.12500000  0.62500000  1
  Bi  Bi2  1  0.62500000  0.12500000  0.12500000  1
  Bi  Bi3  1  0.12500000  0.12500000  0.12500000  1
  Os  Os0  1  0.62500000  0.62500000  0.12500000  1
  Os  Os1  1  0.62500000  0.12500000  0.62500000  1
  Os  Os2  1  0.62500000  0.62500000  0.62500000  1
  Os  Os3  1  0.12500000  0.62500000  0.62500000  1
  O  O0  1  0.29671583  0.70328417  0.70328417  1
  O  O1  1  0.29671583  0.70328417  0.29671583  1
  O  O2  1  0.54671583  0.95328417  0.54671583  1
  O  O3  1  0.29671583  0.29671583  0.70328417  1
  O  O4  1  0.25000000  0.25000000  0.25000000  1
  O  O5  1  0.70328417  0.70328417  0.29671583  1
  O  O6  1  0.95328417  0.95328417  0.54671583  1
  O  O7  1  0.70328417  0.29671583  0.29671583  1
  O  O8  1  0.95328417  0.54671583  0.54671583  1
  O  O9  1  -0.00000000  0.00000000  -0.00000000  1
  O  O10  1  0.54671583  0.95328417  0.95328417  1
  O  O11  1  0.95328417  0.54671583  0.95328417  1
  O  O12  1  0.70328417  0.29671583  0.70328417  1
  O  O13  1  0.54671583  0.54671583  0.95328417  1
loop_
_geom_bond_atom_site_label_1
_geom_bond_atom_site_label_2
_geom_bond_distance
_geom_bond_site_symmetry_2
Bi0 O4 2.242901 1_555
Bi0 O9 2.242901 1_565
Bi0 O1 2.553076 1_555
Bi0 O11 2.553076 1_454
Bi0 O8 2.553076 1_455
Bi0 O0 2.553076 1_554
Bi0 O13 2.553076 1_554
Bi0 O5 2.553076 1_455
Bi1 O4 2.242901 1_555
Bi1 O9 2.242901 1_556
Bi1 O6 2.553076 1_445
Bi1 O3 2.553076 1_555
Bi1 O0 2.553076 1_545
Bi1 O8 2.553076 1_455
Bi1 O2 2.553076 1_545
Bi1 O12 2.553076 1_455
Bi2 O4 2.242901 1_555
Bi2 O9 2.242901 1_655
Bi2 O2 2.553076 1_545
Bi2 O5 2.553076 1_545
Bi2 O7 2.553076 1_555
Bi2 O10 2.553076 1_544
Bi2 O13 2.553076 1_554
Bi2 O12 2.553076 1_554
Bi3 O4 2.242901 1_555
Bi3 O9 2.242901 1_555
Bi3 O3 2.553076 1_554
Bi3 O6 2.553076 1_445
Bi3 O11 2.553076 1_454
Bi3 O1 2.553076 1_545
Bi3 O10 2.553076 1_544
Bi3 O7 2.553076 1_455
O0 Os2 2.002857 1_555
O0 Os3 2.002857 1_555
O1 Os3 2.002857 1_555
O1 Os0 2.002857 1_555
O2 Os2 2.002857 1_555
O2 Os1 2.002857 1_565
O3 Os1 2.002857 1_555
O3 Os3 2.002857 1_555
O5 Os0 2.002857 1_555
O5 Os2 2.002857 1_555
O6 Os3 2.002857 1_655
O6 Os1 2.002857 1_565
O7 Os1 2.002857 1_555
O7 Os0 2.002857 1_555
O8 Os3 2.002857 1_655
O8 Os2 2.002857 1_555
O10 Os0 2.002857 1_556
O10 Os1 2.002857 1_565
O11 Os3 2.002857 1_655
O11 Os0 2.002857 1_556
O12 Os1 2.002857 1_555
O12 Os2 2.002857 1_555
O13 Os2 2.002857 1_555
O13 Os0 2.002857 1_556
