# generated using pymatgen
data_Li17Sn4
_symmetry_space_group_name_H-M   'P 1'
_cell_length_a   13.90427763
_cell_length_b   13.90427763
_cell_length_c   13.90427763
_cell_angle_alpha   60.00000000
_cell_angle_beta   60.00000000
_cell_angle_gamma   60.00000000
_symmetry_Int_Tables_number   1
_chemical_formula_structural   Li17Sn4
_chemical_formula_sum   'Li85 Sn20'
_cell_volume   1900.77317710
_cell_formula_units_Z   5
loop_
 _symmetry_equiv_pos_site_id
 _symmetry_equiv_pos_as_xyz
  1  'x, y, z'
loop_
 _atom_site_type_symbol
 _atom_site_label
 _atom_site_symmetry_multiplicity
 _atom_site_fract_x
 _atom_site_fract_y
 _atom_site_fract_z
 _atom_site_occupancy
  Li  Li0  1  0.17381800  0.17381800  0.82618200  1
  Li  Li1  1  0.48807800  0.19245000  0.83139300  1
  Li  Li2  1  0.82618200  0.82618200  0.17381800  1
  Li  Li3  1  0.07876300  0.42123700  0.42123700  1
  Li  Li4  1  0.24272200  0.93086000  0.24272200  1
  Li  Li5  1  0.91781300  0.69406200  0.69406200  1
  Li  Li6  1  0.17553800  0.47338700  0.17553800  1
  Li  Li7  1  0.58369700  0.93086000  0.24272200  1
  Li  Li8  1  0.42273500  0.42273500  0.73179400  1
  Li  Li9  1  0.73129500  0.07668400  0.73129500  1
  Li  Li10  1  0.98440600  0.98440600  0.32999700  1
  Li  Li11  1  0.50157000  0.83281000  0.83281000  1
  Li  Li12  1  0.70119000  0.32999700  0.98440600  1
  Li  Li13  1  0.42273500  0.73179400  0.42273500  1
  Li  Li14  1  0.24272200  0.58369700  0.93086000  1
  Li  Li15  1  0.07876300  0.07876300  0.42123700  1
  Li  Li16  1  0.46072700  0.07668400  0.73129500  1
  Li  Li17  1  0.73129500  0.46072700  0.07668400  1
  Li  Li18  1  0.07668400  0.46072700  0.73129500  1
  Li  Li19  1  0.94676000  0.15971900  0.94676000  1
  Li  Li20  1  0.83281000  0.50157000  0.83281000  1
  Li  Li21  1  0.07876300  0.42123700  0.07876300  1
  Li  Li22  1  0.07668400  0.73129500  0.73129500  1
  Li  Li23  1  0.17381800  0.82618200  0.82618200  1
  Li  Li24  1  0.58369700  0.24272200  0.93086000  1
  Li  Li25  1  0.42273500  0.42273500  0.42273500  1
  Li  Li26  1  0.48807800  0.83139300  0.48807800  1
  Li  Li27  1  0.56802300  0.56802300  0.56802300  1
  Li  Li28  1  0.24272200  0.24272200  0.58369700  1
  Li  Li29  1  0.48807800  0.48807800  0.83139300  1
  Li  Li30  1  0.19245000  0.48807800  0.83139300  1
  Li  Li31  1  0.17553800  0.17553800  0.47338700  1
  Li  Li32  1  0.29593200  0.56802300  0.56802300  1
  Li  Li33  1  0.98440600  0.70119000  0.98440600  1
  Li  Li34  1  0.94676000  0.94676000  0.94676000  1
  Li  Li35  1  0.73179400  0.42273500  0.42273500  1
  Li  Li36  1  0.42123700  0.42123700  0.07876300  1
  Li  Li37  1  0.58369700  0.24272200  0.24272200  1
  Li  Li38  1  0.17381800  0.82618200  0.17381800  1
  Li  Li39  1  0.82618200  0.17381800  0.82618200  1
  Li  Li40  1  0.47338700  0.17553800  0.17553800  1
  Li  Li41  1  0.69406200  0.69406200  0.91781300  1
  Li  Li42  1  0.70119000  0.98440600  0.32999700  1
  Li  Li43  1  0.19245000  0.48807800  0.48807800  1
  Li  Li44  1  0.83281000  0.83281000  0.83281000  1
  Li  Li45  1  0.83139300  0.48807800  0.19245000  1
  Li  Li46  1  0.98440600  0.32999700  0.98440600  1
  Li  Li47  1  0.93086000  0.58369700  0.24272200  1
  Li  Li48  1  0.73129500  0.73129500  0.07668400  1
  Li  Li49  1  0.69406200  0.91781300  0.69406200  1
  Li  Li50  1  0.46072700  0.73129500  0.07668400  1
  Li  Li51  1  0.15971900  0.94676000  0.94676000  1
  Li  Li52  1  0.69406200  0.69406200  0.69406200  1
  Li  Li53  1  0.83281000  0.83281000  0.50157000  1
  Li  Li54  1  0.48807800  0.19245000  0.48807800  1
  Li  Li55  1  0.24272200  0.93086000  0.58369700  1
  Li  Li56  1  0.98440600  0.32999700  0.70119000  1
  Li  Li57  1  0.93086000  0.24272200  0.58369700  1
  Li  Li58  1  0.98440600  0.70119000  0.32999700  1
  Li  Li59  1  0.07668400  0.73129500  0.46072700  1
  Li  Li60  1  0.98440600  0.98440600  0.70119000  1
  Li  Li61  1  0.46072700  0.73129500  0.73129500  1
  Li  Li62  1  0.32999700  0.98440600  0.98440600  1
  Li  Li63  1  0.83139300  0.19245000  0.48807800  1
  Li  Li64  1  0.73129500  0.46072700  0.73129500  1
  Li  Li65  1  0.82618200  0.17381800  0.17381800  1
  Li  Li66  1  0.17553800  0.17553800  0.17553800  1
  Li  Li67  1  0.48807800  0.48807800  0.19245000  1
  Li  Li68  1  0.56802300  0.29593200  0.56802300  1
  Li  Li69  1  0.32999700  0.98440600  0.70119000  1
  Li  Li70  1  0.70119000  0.98440600  0.98440600  1
  Li  Li71  1  0.42123700  0.07876300  0.42123700  1
  Li  Li72  1  0.24272200  0.24272200  0.93086000  1
  Li  Li73  1  0.19245000  0.83139300  0.48807800  1
  Li  Li74  1  0.94676000  0.94676000  0.15971900  1
  Li  Li75  1  0.25000000  0.25000000  0.25000000  1
  Li  Li76  1  0.73129500  0.73129500  0.46072700  1
  Li  Li77  1  0.93086000  0.24272200  0.24272200  1
  Li  Li78  1  0.73129500  0.07668400  0.46072700  1
  Li  Li79  1  0.42123700  0.07876300  0.07876300  1
  Li  Li80  1  0.56802300  0.56802300  0.29593200  1
  Li  Li81  1  0.32999700  0.70119000  0.98440600  1
  Li  Li82  1  0.24272200  0.58369700  0.24272200  1
  Li  Li83  1  0.83139300  0.48807800  0.48807800  1
  Li  Li84  1  0.48807800  0.83139300  0.19245000  1
  Sn  Sn0  1  0.73035800  0.08988100  0.08988100  1
  Sn  Sn1  1  0.92918000  0.92918000  0.57082000  1
  Sn  Sn2  1  0.08988100  0.73035800  0.08988100  1
  Sn  Sn3  1  0.33365700  0.33365700  0.99902800  1
  Sn  Sn4  1  0.67977400  0.32022600  0.32022600  1
  Sn  Sn5  1  0.32022600  0.67977400  0.32022600  1
  Sn  Sn6  1  0.92918000  0.57082000  0.57082000  1
  Sn  Sn7  1  0.57082000  0.92918000  0.57082000  1
  Sn  Sn8  1  0.67977400  0.32022600  0.67977400  1
  Sn  Sn9  1  0.57082000  0.57082000  0.92918000  1
  Sn  Sn10  1  0.33365700  0.99902800  0.33365700  1
  Sn  Sn11  1  0.99902800  0.33365700  0.33365700  1
  Sn  Sn12  1  0.08988100  0.08988100  0.73035800  1
  Sn  Sn13  1  0.92918000  0.57082000  0.92918000  1
  Sn  Sn14  1  0.57082000  0.92918000  0.92918000  1
  Sn  Sn15  1  0.08988100  0.08988100  0.08988100  1
  Sn  Sn16  1  0.33365700  0.33365700  0.33365700  1
  Sn  Sn17  1  0.32022600  0.67977400  0.67977400  1
  Sn  Sn18  1  0.67977400  0.67977400  0.32022600  1
  Sn  Sn19  1  0.32022600  0.32022600  0.67977400  1
loop_
_geom_bond_atom_site_label_1
_geom_bond_atom_site_label_2
_geom_bond_distance
_geom_bond_site_symmetry_2
Li0 Li51 2.795287 1_545
Li0 Li19 2.795287 1_455
Li0 Sn19 2.878911 1_555
Li0 Sn12 2.995230 1_555
Li0 Sn15 2.995241 1_556
Li1 Li8 2.628801 1_555
Li1 Li72 2.811332 1_555
Li1 Li24 2.811356 1_555
Li1 Li79 2.833408 1_556
Li1 Li16 2.838023 1_555
Li1 Li9 2.838041 1_555
Li1 Sn14 2.991290 1_545
Li1 Li68 2.995950 1_555
Li1 Sn3 3.042029 1_555
Li1 Sn19 3.174263 1_555
Li1 Sn8 3.174274 1_555
Li2 Li74 2.795275 1_555
Li2 Li34 2.795282 1_554
Li2 Sn18 2.878911 1_555
Li2 Sn2 2.995241 1_655
Li2 Sn0 2.995241 1_565
Li3 Li6 2.812279 1_555
Li3 Li31 2.812279 1_555
Li3 Li43 2.833397 1_555
Li3 Li83 2.833409 1_455
Li3 Sn16 2.894445 1_555
Li3 Sn11 2.894456 1_455
Li3 Sn6 2.941343 1_455
Li4 Li66 2.799270 1_565
Li4 Li84 2.811332 1_555
Li4 Li73 2.811332 1_555
Li4 Sn10 2.844508 1_555
Li4 Sn5 2.854425 1_555
Li4 Sn15 3.006635 1_565
Li5 Li53 2.828767 1_555
Li5 Sn6 2.879669 1_555
Li5 Sn13 2.879681 1_555
Li5 Sn1 2.879681 1_555
Li6 Li75 2.536067 1_555
Li6 Li82 2.799270 1_555
Li6 Sn2 2.917339 1_555
Li6 Sn16 3.119687 1_555
Li6 Sn3 3.119708 1_554
Li6 Sn11 3.119708 1_455
Li7 Li84 2.811356 1_555
Li7 Sn10 2.844531 1_555
Li7 Sn18 2.854424 1_555
Li7 Sn0 3.006635 1_565
Li8 Sn19 2.946113 1_555
Li8 Sn17 2.946125 1_555
Li8 Sn8 2.946125 1_555
Li8 Sn3 3.033853 1_555
Li9 Sn8 2.855659 1_555
Li9 Sn1 3.090205 1_545
Li9 Sn14 3.090205 1_545
Li10 Sn15 2.793969 1_665
Li10 Sn1 2.799773 1_555
Li10 Li74 2.984301 1_555
Li10 Li53 2.993839 1_555
Li11 Li61 2.811154 1_555
Li11 Li50 2.811166 1_556
Li11 Li16 2.811166 1_565
Li11 Li49 2.828767 1_555
Li11 Li41 2.828767 1_555
Li11 Li52 2.828775 1_555
Li11 Sn14 2.982276 1_555
Li11 Sn7 2.982276 1_555
Li11 Sn9 2.982276 1_555
Li11 Li62 2.993839 1_555
Li11 Li81 2.993848 1_555
Li11 Li69 2.993848 1_555
Li12 Sn0 2.793964 1_556
Li12 Sn9 2.799770 1_555
Li12 Li19 2.984301 1_555
Li12 Li20 2.993848 1_555
Li13 Li84 2.628801 1_555
Li13 Li73 2.628801 1_555
Li13 Li26 2.628801 1_555
Li13 Li32 2.868405 1_555
Li13 Li80 2.868405 1_555
Li13 Li27 2.868423 1_555
Li13 Sn5 2.946113 1_555
Li13 Sn17 2.946125 1_555
Li13 Sn18 2.946125 1_555
Li13 Sn10 3.033853 1_555
Li14 Li6 2.799270 1_556
Li14 Li29 2.811336 1_555
Li14 Li30 2.811356 1_555
Li14 Sn3 2.844531 1_555
Li14 Sn17 2.854424 1_555
Li14 Sn2 3.006635 1_556
Li15 Li66 2.812281 1_555
Li15 Li31 2.812291 1_555
Li15 Li63 2.833408 1_455
Li15 Li73 2.833408 1_545
Li15 Sn10 2.894444 1_545
Li15 Sn11 2.894444 1_455
Li15 Sn1 2.941343 1_445
Li16 Li54 2.838046 1_555
Li16 Sn19 2.855662 1_555
Li16 Sn14 3.090197 1_545
Li16 Sn7 3.090208 1_545
Li17 Li20 2.811166 1_554
Li17 Li45 2.838023 1_555
Li17 Li67 2.838046 1_555
Li17 Sn4 2.855662 1_555
Li17 Sn13 3.090197 1_554
Li17 Sn9 3.090208 1_554
Li18 Li20 2.811166 1_455
Li18 Li30 2.838023 1_555
Li18 Li43 2.838046 1_555
Li18 Sn19 2.855662 1_555
Li18 Sn13 3.090197 1_455
Li18 Sn6 3.090208 1_455
Li19 Li39 2.795275 1_555
Li19 Li65 2.795287 1_556
Li19 Li74 2.961041 1_546
Li19 Li51 2.961041 1_645
Li19 Li34 2.961041 1_545
Li19 Li46 2.984301 1_555
Li19 Li56 2.984301 1_555
Li19 Sn12 2.993037 1_655
Li19 Sn0 2.993037 1_556
Li19 Sn15 2.993060 1_656
Li20 Li64 2.811154 1_555
Li20 Li41 2.828767 1_555
Li20 Li5 2.828767 1_555
Li20 Li52 2.828775 1_555
Li20 Sn13 2.982276 1_555
Li20 Sn6 2.982276 1_555
Li20 Sn9 2.982276 1_555
Li20 Li46 2.993839 1_555
Li20 Li56 2.993848 1_555
Li21 Li66 2.812281 1_555
Li21 Li6 2.812291 1_555
Li21 Li30 2.833408 1_554
Li21 Li45 2.833408 1_455
Li21 Sn11 2.894444 1_455
Li21 Sn3 2.894444 1_554
Li21 Sn13 2.941343 1_454
Li22 Li44 2.811164 1_455
Li22 Li73 2.838041 1_555
Li22 Li30 2.838041 1_555
Li22 Sn17 2.855659 1_555
Li22 Sn1 3.090205 1_455
Li22 Sn13 3.090205 1_455
Li23 Li51 2.795275 1_555
Li23 Li34 2.795282 1_455
Li23 Sn17 2.878911 1_555
Li23 Sn2 2.995241 1_556
Li23 Sn12 2.995241 1_565
Li24 Li40 2.799270 1_556
Li24 Li29 2.811336 1_555
Li24 Sn3 2.844531 1_555
Li24 Sn8 2.854424 1_555
Li24 Sn0 3.006635 1_556
Li25 Li43 2.628801 1_555
Li25 Li54 2.628801 1_555
Li25 Li67 2.628801 1_555
Li25 Li68 2.868426 1_555
Li25 Li32 2.868426 1_555
Li25 Li80 2.868426 1_555
Li25 Sn5 2.946123 1_555
Li25 Sn4 2.946123 1_555
Li25 Sn19 2.946123 1_555
Li25 Sn16 3.033853 1_555
Li26 Li7 2.811336 1_555
Li26 Li55 2.811336 1_555
Li26 Li71 2.833409 1_565
Li26 Li76 2.838047 1_555
Li26 Li61 2.838047 1_555
Li26 Sn7 2.991301 1_555
Li26 Li27 2.995949 1_555
Li26 Sn10 3.042029 1_555
Li26 Sn17 3.174265 1_555
Li26 Sn18 3.174265 1_555
Li27 Li8 2.868423 1_555
Li27 Li35 2.868423 1_555
Li27 Sn18 2.899470 1_555
Li27 Sn17 2.899470 1_555
Li27 Sn8 2.899470 1_555
Li27 Li29 2.995949 1_555
Li27 Li83 2.995949 1_555
Li28 Li31 2.799270 1_555
Li28 Li43 2.811332 1_555
Li28 Li54 2.811332 1_555
Li28 Sn16 2.844529 1_555
Li28 Sn19 2.854413 1_555
Li28 Sn12 3.006635 1_555
Li29 Li8 2.628801 1_555
Li29 Li36 2.833409 1_556
Li29 Li61 2.838047 1_555
Li29 Li64 2.838047 1_555
Li29 Sn9 2.991301 1_555
Li29 Sn3 3.042029 1_555
Li29 Sn8 3.174265 1_555
Li29 Sn17 3.174265 1_555
Li30 Li8 2.628801 1_555
Li30 Li72 2.811332 1_555
Li30 Sn13 2.991290 1_455
Li30 Li32 2.995950 1_555
Li30 Sn3 3.042029 1_555
Li30 Sn19 3.174263 1_555
Li30 Sn17 3.174274 1_555
Li31 Li75 2.536067 1_555
Li31 Li55 2.799270 1_545
Li31 Li57 2.799270 1_455
Li31 Li71 2.812279 1_555
Li31 Sn12 2.917339 1_555
Li31 Sn16 3.119687 1_555
Li31 Sn11 3.119708 1_455
Li31 Sn10 3.119708 1_545
Li32 Li8 2.868405 1_555
Li32 Sn17 2.899461 1_555
Li32 Sn5 2.899473 1_555
Li32 Sn19 2.899473 1_555
Li32 Li73 2.995950 1_555
Li32 Li43 2.995972 1_555
Li33 Sn2 2.793988 1_656
Li33 Sn13 2.799760 1_555
Li33 Li34 2.984301 1_555
Li33 Li44 2.993838 1_555
Li34 Li39 2.795282 1_565
Li34 Li51 2.961041 1_655
Li34 Li74 2.961041 1_556
Li34 Li60 2.984301 1_555
Li34 Li70 2.984301 1_555
Li34 Sn0 2.993050 1_566
Li34 Sn2 2.993050 1_656
Li34 Sn12 2.993050 1_665
Li35 Li63 2.628801 1_555
Li35 Li45 2.628801 1_555
Li35 Li83 2.628801 1_555
Li35 Li68 2.868405 1_555
Li35 Li80 2.868405 1_555
Li35 Sn4 2.946113 1_555
Li35 Sn8 2.946125 1_555
Li35 Sn18 2.946125 1_555
Li35 Sn11 3.033853 1_555
Li36 Li40 2.812279 1_555
Li36 Li6 2.812279 1_555
Li36 Li67 2.833397 1_555
Li36 Sn16 2.894445 1_555
Li36 Sn3 2.894456 1_554
Li36 Sn9 2.941343 1_554
Li37 Li40 2.799270 1_555
Li37 Li54 2.811332 1_555
Li37 Li67 2.811332 1_555
Li37 Sn16 2.844529 1_555
Li37 Sn4 2.854413 1_555
Li37 Sn0 3.006635 1_555
Li38 Li74 2.795287 1_455
Li38 Li51 2.795287 1_554
Li38 Sn5 2.878911 1_555
Li38 Sn2 2.995230 1_555
Li38 Sn15 2.995241 1_565
Li39 Sn8 2.878911 1_555
Li39 Sn0 2.995241 1_556
Li39 Sn12 2.995241 1_655
Li40 Li75 2.536067 1_555
Li40 Li7 2.799270 1_545
Li40 Li71 2.812279 1_555
Li40 Li79 2.812291 1_555
Li40 Sn0 2.917339 1_555
Li40 Sn16 3.119687 1_555
Li40 Sn10 3.119708 1_545
Li40 Sn3 3.119708 1_554
Li41 Li44 2.828779 1_555
Li41 Sn9 2.879669 1_555
Li41 Sn13 2.879681 1_555
Li41 Sn14 2.879681 1_555
Li42 Sn0 2.793964 1_565
Li42 Sn7 2.799770 1_555
Li42 Li74 2.984301 1_555
Li42 Li53 2.993848 1_555
Li43 Li82 2.811332 1_555
Li43 Li59 2.838046 1_555
Li43 Sn6 2.991289 1_455
Li43 Sn16 3.042029 1_555
Li43 Sn19 3.174274 1_555
Li43 Sn5 3.174274 1_555
Li44 Li48 2.811164 1_556
Li44 Li9 2.811164 1_565
Li44 Li5 2.828779 1_555
Li44 Li49 2.828779 1_555
Li44 Sn14 2.982276 1_555
Li44 Sn13 2.982276 1_555
Li44 Sn1 2.982276 1_555
Li44 Li70 2.993838 1_555
Li44 Li60 2.993838 1_555
Li45 Li77 2.811332 1_555
Li45 Li47 2.811356 1_555
Li45 Li48 2.838041 1_555
Li45 Sn13 2.991290 1_554
Li45 Li80 2.995950 1_555
Li45 Sn11 3.042029 1_555
Li45 Sn4 3.174263 1_555
Li45 Sn18 3.174274 1_555
Li46 Sn15 2.793969 1_656
Li46 Sn13 2.799773 1_555
Li47 Li6 2.799270 1_655
Li47 Li83 2.811336 1_555
Li47 Sn11 2.844531 1_555
Li47 Sn18 2.854424 1_555
Li47 Sn2 3.006635 1_655
Li48 Li84 2.838041 1_555
Li48 Sn18 2.855659 1_555
Li48 Sn13 3.090205 1_554
Li48 Sn14 3.090205 1_554
Li49 Li53 2.828767 1_555
Li49 Sn7 2.879669 1_555
Li49 Sn1 2.879681 1_555
Li49 Sn14 2.879681 1_555
Li50 Li84 2.838023 1_555
Li50 Li67 2.838046 1_555
Li50 Sn5 2.855662 1_555
Li50 Sn14 3.090197 1_554
Li50 Sn9 3.090208 1_554
Li51 Li74 2.961041 1_456
Li51 Li62 2.984301 1_555
Li51 Li69 2.984301 1_555
Li51 Li81 2.984301 1_555
Li51 Sn12 2.993037 1_565
Li51 Sn2 2.993037 1_556
Li51 Sn15 2.993060 1_566
Li52 Li53 2.828775 1_555
Li52 Sn6 2.879677 1_555
Li52 Sn7 2.879677 1_555
Li52 Sn9 2.879677 1_555
Li53 Li76 2.811154 1_555
Li53 Li59 2.811166 1_655
Li53 Li78 2.811166 1_565
Li53 Sn1 2.982276 1_555
Li53 Sn7 2.982276 1_555
Li53 Sn6 2.982276 1_555
Li53 Li58 2.993848 1_555
Li54 Li71 2.833397 1_555
Li54 Li78 2.838046 1_555
Li54 Sn7 2.991289 1_545
Li54 Li68 2.995972 1_555
Li54 Sn16 3.042029 1_555
Li54 Sn19 3.174274 1_555
Li54 Sn4 3.174274 1_555
Li55 Li73 2.811356 1_555
Li55 Sn10 2.844531 1_555
Li55 Sn17 2.854424 1_555
Li55 Sn12 3.006635 1_565
Li56 Sn12 2.793964 1_655
Li56 Sn6 2.799770 1_555
Li57 Li83 2.811336 1_555
Li57 Li63 2.811356 1_555
Li57 Sn11 2.844531 1_555
Li57 Sn8 2.854424 1_555
Li57 Sn12 3.006635 1_655
Li58 Sn2 2.793964 1_655
Li58 Sn6 2.799770 1_555
Li58 Li74 2.984301 1_555
Li59 Li73 2.838023 1_555
Li59 Sn5 2.855662 1_555
Li59 Sn1 3.090197 1_455
Li59 Sn6 3.090208 1_455
Li60 Sn12 2.793988 1_665
Li60 Sn1 2.799760 1_555
Li61 Sn17 2.855672 1_555
Li61 Sn7 3.090197 1_555
Li61 Sn9 3.090197 1_555
Li62 Sn15 2.793969 1_566
Li62 Sn14 2.799773 1_555
Li63 Li77 2.811332 1_555
Li63 Li78 2.838023 1_555
Li63 Li9 2.838041 1_555
Li63 Sn1 2.991290 1_545
Li63 Li68 2.995950 1_555
Li63 Sn11 3.042029 1_555
Li63 Sn4 3.174263 1_555
Li63 Sn8 3.174274 1_555
Li64 Li83 2.838047 1_555
Li64 Sn8 2.855672 1_555
Li64 Sn6 3.090197 1_555
Li64 Sn9 3.090197 1_555
Li65 Li74 2.795287 1_545
Li65 Sn4 2.878911 1_555
Li65 Sn0 2.995230 1_555
Li65 Sn15 2.995241 1_655
Li66 Li75 2.536055 1_555
Li66 Li77 2.799270 1_455
Li66 Li72 2.799270 1_554
Li66 Li79 2.812281 1_555
Li66 Sn15 2.917339 1_555
Li66 Sn11 3.119689 1_455
Li66 Sn3 3.119689 1_554
Li66 Sn10 3.119689 1_545
Li67 Li82 2.811332 1_555
Li67 Sn9 2.991289 1_554
Li67 Li80 2.995972 1_555
Li67 Sn16 3.042029 1_555
Li67 Sn5 3.174274 1_555
Li67 Sn4 3.174274 1_555
Li68 Li8 2.868405 1_555
Li68 Sn8 2.899461 1_555
Li68 Sn4 2.899473 1_555
Li68 Sn19 2.899473 1_555
Li69 Sn12 2.793964 1_565
Li69 Sn7 2.799770 1_555
Li70 Sn0 2.793988 1_566
Li70 Sn14 2.799760 1_555
Li71 Sn16 2.894445 1_555
Li71 Sn10 2.894456 1_545
Li71 Sn7 2.941343 1_545
Li72 Sn3 2.844508 1_555
Li72 Sn19 2.854425 1_555
Li72 Sn15 3.006635 1_556
Li73 Sn1 2.991290 1_455
Li73 Sn10 3.042029 1_555
Li73 Sn5 3.174263 1_555
Li73 Sn17 3.174274 1_555
Li74 Sn0 2.993037 1_565
Li74 Sn2 2.993037 1_655
Li74 Sn15 2.993060 1_665
Li75 Sn16 2.849222 1_555
Li75 Sn3 2.849234 1_554
Li75 Sn11 2.849234 1_455
Li75 Sn10 2.849234 1_545
Li76 Li83 2.838047 1_555
Li76 Sn18 2.855672 1_555
Li76 Sn6 3.090197 1_555
Li76 Sn7 3.090197 1_555
Li77 Sn11 2.844508 1_555
Li77 Sn4 2.854425 1_555
Li77 Sn15 3.006635 1_655
Li78 Sn4 2.855662 1_555
Li78 Sn1 3.090197 1_545
Li78 Sn7 3.090208 1_545
Li79 Li84 2.833408 1_545
Li79 Sn3 2.894444 1_554
Li79 Sn10 2.894444 1_545
Li79 Sn14 2.941343 1_544
Li80 Sn18 2.899461 1_555
Li80 Sn5 2.899473 1_555
Li80 Sn4 2.899473 1_555
Li80 Li84 2.995950 1_555
Li81 Sn2 2.793964 1_556
Li81 Sn9 2.799770 1_555
Li82 Sn16 2.844529 1_555
Li82 Sn5 2.854413 1_555
Li82 Sn2 3.006635 1_555
Li83 Sn6 2.991301 1_555
Li83 Sn11 3.042029 1_555
Li83 Sn8 3.174265 1_555
Li83 Sn18 3.174265 1_555
Li84 Sn14 2.991290 1_554
Li84 Sn10 3.042029 1_555
Li84 Sn5 3.174263 1_555
Li84 Sn18 3.174274 1_555
