# generated using pymatgen
data_Cs(BBr)6
_symmetry_space_group_name_H-M   'P 1'
_cell_length_a   17.03282040
_cell_length_b   17.03282137
_cell_length_c   17.03282103
_cell_angle_alpha   34.17066383
_cell_angle_beta   34.17066431
_cell_angle_gamma   34.17066860
_symmetry_Int_Tables_number   1
_chemical_formula_structural   Cs(BBr)6
_chemical_formula_sum   'Cs4 B24 Br24'
_cell_volume   1389.92428495
_cell_formula_units_Z   4
loop_
 _symmetry_equiv_pos_site_id
 _symmetry_equiv_pos_as_xyz
  1  'x, y, z'
loop_
 _atom_site_type_symbol
 _atom_site_label
 _atom_site_symmetry_multiplicity
 _atom_site_fract_x
 _atom_site_fract_y
 _atom_site_fract_z
 _atom_site_occupancy
  Cs  Cs0  1  0.37325393  0.37325393  0.37325393  1
  Cs  Cs1  1  0.79126912  0.79126912  0.79126912  1
  Cs  Cs2  1  0.20873088  0.20873088  0.20873088  1
  Cs  Cs3  1  0.62674607  0.62674607  0.62674607  1
  B  B0  1  0.91628480  0.11962242  0.04849964  1
  B  B1  1  0.81317185  0.14007072  0.02661780  1
  B  B2  1  0.67862781  0.44577075  0.35556273  1
  B  B3  1  0.14007072  0.02661780  0.81317185  1
  B  B4  1  0.64443727  0.32137219  0.55422925  1
  B  B5  1  0.08371520  0.88037758  0.95150036  1
  B  B6  1  0.32137219  0.55422925  0.64443727  1
  B  B7  1  0.50155456  0.55704144  0.35737669  1
  B  B8  1  0.02661780  0.81317185  0.14007072  1
  B  B9  1  0.35556273  0.67862781  0.44577075  1
  B  B10  1  0.55422925  0.64443727  0.32137219  1
  B  B11  1  0.97338220  0.18682815  0.85992928  1
  B  B12  1  0.18682815  0.85992928  0.97338220  1
  B  B13  1  0.95150036  0.08371520  0.88037758  1
  B  B14  1  0.04849964  0.91628480  0.11962242  1
  B  B15  1  0.85992928  0.97338220  0.18682815  1
  B  B16  1  0.88037758  0.95150036  0.08371520  1
  B  B17  1  0.44295856  0.64262331  0.49844544  1
  B  B18  1  0.55704144  0.35737669  0.50155456  1
  B  B19  1  0.44577075  0.35556273  0.67862781  1
  B  B20  1  0.49844544  0.44295856  0.64262331  1
  B  B21  1  0.35737669  0.50155456  0.55704144  1
  B  B22  1  0.11962242  0.04849964  0.91628480  1
  B  B23  1  0.64262331  0.49844544  0.44295856  1
  Br  Br0  1  0.80648957  0.49786587  0.37674271  1
  Br  Br1  1  0.37674271  0.80648957  0.49786587  1
  Br  Br2  1  0.05630710  0.59727527  0.30046792  1
  Br  Br3  1  0.18058060  0.74177127  0.89685876  1
  Br  Br4  1  0.81206266  0.11853602  0.61557971  1
  Br  Br5  1  0.74177127  0.89685876  0.18058060  1
  Br  Br6  1  0.49786587  0.37674271  0.80648957  1
  Br  Br7  1  0.88146398  0.38442029  0.18793734  1
  Br  Br8  1  0.69953208  0.94369290  0.40272473  1
  Br  Br9  1  0.25822873  0.10314124  0.81941940  1
  Br  Br10  1  0.40272473  0.69953208  0.94369290  1
  Br  Br11  1  0.50213413  0.62325729  0.19351043  1
  Br  Br12  1  0.18793734  0.88146398  0.38442029  1
  Br  Br13  1  0.10314124  0.81941940  0.25822873  1
  Br  Br14  1  0.11853602  0.61557971  0.81206266  1
  Br  Br15  1  0.61557971  0.81206266  0.11853602  1
  Br  Br16  1  0.89685876  0.18058060  0.74177127  1
  Br  Br17  1  0.81941940  0.25822873  0.10314124  1
  Br  Br18  1  0.19351043  0.50213413  0.62325729  1
  Br  Br19  1  0.30046792  0.05630710  0.59727527  1
  Br  Br20  1  0.62325729  0.19351043  0.50213413  1
  Br  Br21  1  0.94369290  0.40272473  0.69953208  1
  Br  Br22  1  0.38442029  0.18793734  0.88146398  1
  Br  Br23  1  0.59727527  0.30046792  0.05630710  1
loop_
_geom_bond_atom_site_label_1
_geom_bond_atom_site_label_2
_geom_bond_distance
_geom_bond_site_symmetry_2
B0 Br17 1.952297 1_555
B1 Br23 1.956275 1_555
B2 Br7 1.954567 1_555
B3 Br19 1.956274 1_555
B4 Br4 1.954567 1_555
B5 Br3 1.952297 1_555
B6 Br14 1.954567 1_555
B7 Br11 1.956076 1_555
B8 Br2 1.956275 1_555
B9 Br12 1.954567 1_555
B10 Br15 1.954567 1_555
B11 Br21 1.956275 1_555
B12 Br10 1.956275 1_555
B13 Br16 1.952297 1_555
B14 Br13 1.952297 1_555
B15 Br8 1.956274 1_555
B16 Br5 1.952297 1_555
B17 Br1 1.956076 1_555
B18 Br20 1.956076 1_555
B19 Br22 1.954567 1_555
B20 Br6 1.956076 1_555
B21 Br18 1.956076 1_555
B22 Br9 1.952297 1_555
B23 Br0 1.956076 1_555
Br0 Cs2 3.798380 1_655
Br0 Cs3 3.885772 1_555
Br1 Cs2 3.798379 1_565
Br1 Cs3 3.885772 1_555
Br2 Cs0 3.794909 1_555
Br2 Cs3 3.990555 1_455
Br3 Cs3 3.896220 1_555
Br4 Cs1 3.750134 1_545
Br4 Cs2 4.256137 1_655
Br5 Cs3 3.896220 1_555
Br6 Cs2 3.798379 1_556
Br6 Cs3 3.885772 1_555
Br7 Cs2 3.750134 1_655
Br7 Cs1 4.256138 1_554
Br8 Cs3 3.794909 1_555
Br8 Cs0 3.990556 1_565
Br9 Cs0 3.896220 1_555
Br10 Cs3 3.794909 1_555
Br10 Cs0 3.990555 1_556
Br11 Cs1 3.798379 1_554
Br11 Cs0 3.885772 1_555
Br12 Cs2 3.750134 1_565
Br12 Cs1 4.256137 1_455
Br13 Cs0 3.896220 1_555
Br14 Cs1 3.750134 1_455
Br14 Cs2 4.256138 1_556
Br15 Cs1 3.750134 1_554
Br15 Cs2 4.256138 1_565
Br16 Cs3 3.896220 1_555
Br17 Cs0 3.896220 1_555
Br18 Cs1 3.798380 1_455
Br18 Cs0 3.885772 1_555
Br19 Cs0 3.794909 1_555
Br19 Cs3 3.990556 1_545
Br20 Cs1 3.798379 1_545
Br20 Cs0 3.885772 1_555
Br21 Cs3 3.794909 1_555
Br21 Cs0 3.990555 1_655
Br22 Cs2 3.750134 1_556
Br22 Cs1 4.256138 1_545
Br23 Cs0 3.794909 1_555
Br23 Cs3 3.990555 1_554
