# generated using pymatgen
data_V2Ni(HO2)4
_symmetry_space_group_name_H-M   'P 1'
_cell_length_a   5.64973800
_cell_length_b   10.78896400
_cell_length_c   11.96045500
_cell_angle_alpha   90.00000000
_cell_angle_beta   90.00000000
_cell_angle_gamma   90.00000000
_symmetry_Int_Tables_number   1
_chemical_formula_structural   V2Ni(HO2)4
_chemical_formula_sum   'V8 Ni4 H16 O32'
_cell_volume   729.04738034
_cell_formula_units_Z   4
loop_
 _symmetry_equiv_pos_site_id
 _symmetry_equiv_pos_as_xyz
  1  'x, y, z'
loop_
 _atom_site_type_symbol
 _atom_site_label
 _atom_site_symmetry_multiplicity
 _atom_site_fract_x
 _atom_site_fract_y
 _atom_site_fract_z
 _atom_site_occupancy
  V  V0  1  0.19777800  0.53169000  0.32555300  1
  V  V1  1  0.69777800  0.96831000  0.17444700  1
  V  V2  1  0.80222200  0.03169000  0.67444700  1
  V  V3  1  0.30222200  0.46831000  0.82555300  1
  V  V4  1  0.80222200  0.46831000  0.67444700  1
  V  V5  1  0.30222200  0.03169000  0.82555300  1
  V  V6  1  0.19777800  0.96831000  0.32555300  1
  V  V7  1  0.69777800  0.53169000  0.17444700  1
  Ni  Ni0  1  0.02029000  0.25000000  0.45896800  1
  Ni  Ni1  1  0.52029000  0.25000000  0.04103200  1
  Ni  Ni2  1  0.97971000  0.75000000  0.54103200  1
  Ni  Ni3  1  0.47971000  0.75000000  0.95896800  1
  H  H0  1  0.37067600  0.32227000  0.59226200  1
  H  H1  1  0.87067600  0.17773000  0.90773800  1
  H  H2  1  0.62932400  0.82227000  0.40773800  1
  H  H3  1  0.12932400  0.67773000  0.09226200  1
  H  H4  1  0.62932400  0.67773000  0.40773800  1
  H  H5  1  0.12932400  0.82227000  0.09226200  1
  H  H6  1  0.37067600  0.17773000  0.59226200  1
  H  H7  1  0.87067600  0.32227000  0.90773800  1
  H  H8  1  0.55957400  0.25000000  0.41430100  1
  H  H9  1  0.05957400  0.25000000  0.08569900  1
  H  H10  1  0.44042600  0.75000000  0.58570000  1
  H  H11  1  0.94042600  0.75000000  0.91430000  1
  H  H12  1  0.68935600  0.25000000  0.29378300  1
  H  H13  1  0.18935600  0.25000000  0.20621700  1
  H  H14  1  0.31064400  0.75000000  0.70621700  1
  H  H15  1  0.81064400  0.75000000  0.79378300  1
  O  O0  1  0.11546300  0.61487200  0.43623300  1
  O  O1  1  0.61546300  0.88512800  0.06376700  1
  O  O2  1  0.88453700  0.11487200  0.56376700  1
  O  O3  1  0.38453700  0.38512800  0.93623300  1
  O  O4  1  0.88453700  0.38512800  0.56376700  1
  O  O5  1  0.38453700  0.11487200  0.93623300  1
  O  O6  1  0.11546300  0.88512800  0.43623300  1
  O  O7  1  0.61546300  0.61487200  0.06376700  1
  O  O8  1  0.16797100  0.37946100  0.35289900  1
  O  O9  1  0.66797100  0.12053900  0.14710100  1
  O  O10  1  0.83202900  0.87946100  0.64710100  1
  O  O11  1  0.33202900  0.62053900  0.85289900  1
  O  O12  1  0.83202900  0.62053900  0.64710100  1
  O  O13  1  0.33202900  0.87946100  0.85289900  1
  O  O14  1  0.16797100  0.12053900  0.35289900  1
  O  O15  1  0.66797100  0.37946100  0.14710100  1
  O  O16  1  0.00617200  0.57242300  0.20754100  1
  O  O17  1  0.50617200  0.92757700  0.29245900  1
  O  O18  1  0.99382800  0.07242300  0.79245900  1
  O  O19  1  0.49382800  0.42757700  0.70754100  1
  O  O20  1  0.99382800  0.42757700  0.79245900  1
  O  O21  1  0.49382800  0.07242300  0.70754100  1
  O  O22  1  0.00617200  0.92757700  0.20754100  1
  O  O23  1  0.50617200  0.57242300  0.29245900  1
  O  O24  1  0.34034300  0.25000000  0.54376000  1
  O  O25  1  0.84034300  0.25000000  0.95624000  1
  O  O26  1  0.65965700  0.75000000  0.45624000  1
  O  O27  1  0.15965700  0.75000000  0.04376000  1
  O  O28  1  0.71121700  0.25000000  0.37502600  1
  O  O29  1  0.21121700  0.25000000  0.12497400  1
  O  O30  1  0.28878300  0.75000000  0.62497400  1
  O  O31  1  0.78878300  0.75000000  0.87502600  1
loop_
_geom_bond_atom_site_label_1
_geom_bond_atom_site_label_2
_geom_bond_distance
_geom_bond_site_symmetry_2
Ni0 O28 2.014233 1_455
Ni0 O14 2.063128 1_555
Ni0 O8 2.063128 1_555
Ni0 O2 2.069978 1_455
Ni0 O4 2.069978 1_455
Ni0 O24 2.073197 1_555
Ni1 O29 2.014233 1_555
Ni1 O9 2.063128 1_555
Ni1 O15 2.063128 1_555
Ni1 O5 2.069978 1_554
Ni1 O3 2.069978 1_554
Ni1 O25 2.073197 1_554
Ni2 O30 2.014233 1_655
Ni2 O10 2.063128 1_555
Ni2 O12 2.063128 1_555
Ni2 O0 2.069978 1_655
Ni2 O6 2.069978 1_655
Ni2 O26 2.073197 1_555
Ni3 O31 2.014233 1_555
Ni3 O13 2.063128 1_555
Ni3 O11 2.063128 1_555
Ni3 O7 2.069978 1_556
Ni3 O1 2.069978 1_556
Ni3 O27 2.073197 1_556
H0 O24 0.986840 1_555
H1 O25 0.986840 1_555
H2 O26 0.986840 1_555
H3 O27 0.986840 1_555
H4 O26 0.986840 1_555
H5 O27 0.986840 1_555
H6 O24 0.986840 1_555
H7 O25 0.986840 1_555
H8 O28 0.977073 1_555
H9 O29 0.977073 1_555
H10 O30 0.977067 1_555
H11 O31 0.977067 1_555
H12 O28 0.979521 1_555
H13 O29 0.979521 1_555
H14 O30 0.979521 1_555
H15 O31 0.979521 1_555
O0 V0 1.665561 1_555
O1 V1 1.665561 1_555
O2 V2 1.665561 1_555
O3 V3 1.665561 1_555
O4 V4 1.665561 1_555
O5 V5 1.665561 1_555
O6 V6 1.665561 1_555
O7 V7 1.665561 1_555
O8 V0 1.683089 1_555
O9 V1 1.683089 1_545
O10 V2 1.683089 1_565
O11 V3 1.683089 1_555
O12 V4 1.683089 1_555
O13 V5 1.683089 1_565
O14 V6 1.683089 1_545
O15 V7 1.683089 1_555
O16 V0 1.832282 1_555
O16 V7 1.839992 1_455
O17 V1 1.832282 1_555
O17 V6 1.839992 1_555
O18 V2 1.832282 1_555
O18 V5 1.839992 1_655
O19 V3 1.832282 1_555
O19 V4 1.839992 1_555
O20 V4 1.832282 1_555
O20 V3 1.839992 1_655
O21 V5 1.832282 1_555
O21 V2 1.839992 1_555
O22 V6 1.832282 1_555
O22 V1 1.839992 1_455
O23 V7 1.832282 1_555
O23 V0 1.839992 1_555
