# generated using pymatgen
data_Mg3BeAl8O16
_symmetry_space_group_name_H-M   'P 1'
_cell_length_a   5.72392932
_cell_length_b   5.72392932
_cell_length_c   18.56697500
_cell_angle_alpha   90.00000000
_cell_angle_beta   90.00000000
_cell_angle_gamma   119.99999210
_symmetry_Int_Tables_number   1
_chemical_formula_structural   Mg3BeAl8O16
_chemical_formula_sum   'Mg6 Be2 Al16 O32'
_cell_volume   526.81768203
_cell_formula_units_Z   2
loop_
 _symmetry_equiv_pos_site_id
 _symmetry_equiv_pos_as_xyz
  1  'x, y, z'
loop_
 _atom_site_type_symbol
 _atom_site_label
 _atom_site_symmetry_multiplicity
 _atom_site_fract_x
 _atom_site_fract_y
 _atom_site_fract_z
 _atom_site_occupancy
  Mg  Mg0  1  0.66666700  0.33333300  0.64270700  1
  Mg  Mg1  1  0.33333300  0.66666700  0.95509400  1
  Mg  Mg2  1  0.33333300  0.66666700  0.14270700  1
  Mg  Mg3  1  0.00000000  0.00000000  0.89196300  1
  Mg  Mg4  1  0.00000000  0.00000000  0.39196300  1
  Mg  Mg5  1  0.66666700  0.33333300  0.45509400  1
  Be  Be0  1  0.66666700  0.33333300  0.19184300  1
  Be  Be1  1  0.33333300  0.66666700  0.69184300  1
  Al  Al0  1  0.83505400  0.16494600  0.05194100  1
  Al  Al1  1  0.83505400  0.67010800  0.05194100  1
  Al  Al2  1  0.67010800  0.83505400  0.55194100  1
  Al  Al3  1  0.32989200  0.16494600  0.05194100  1
  Al  Al4  1  0.16494600  0.83505400  0.55194100  1
  Al  Al5  1  0.00000000  0.00000000  0.18190000  1
  Al  Al6  1  0.49812200  0.50187800  0.29730900  1
  Al  Al7  1  0.49812200  0.99624400  0.29730900  1
  Al  Al8  1  0.00000000  0.00000000  0.68190000  1
  Al  Al9  1  0.16494600  0.32989200  0.55194100  1
  Al  Al10  1  0.50187800  0.00375600  0.79730900  1
  Al  Al11  1  0.33333300  0.66666700  0.42535900  1
  Al  Al12  1  0.99624400  0.49812200  0.79730900  1
  Al  Al13  1  0.50187800  0.49812200  0.79730900  1
  Al  Al14  1  0.00375600  0.50187800  0.29730900  1
  Al  Al15  1  0.66666700  0.33333300  0.92535900  1
  O  O0  1  0.51782200  0.03564400  0.99237100  1
  O  O1  1  0.96435600  0.48217800  0.99237100  1
  O  O2  1  0.85239600  0.70479300  0.61111300  1
  O  O3  1  0.66666700  0.33333300  0.34815700  1
  O  O4  1  0.48217800  0.51782200  0.49237100  1
  O  O5  1  0.48217800  0.96435600  0.49237100  1
  O  O6  1  0.03564400  0.51782200  0.49237100  1
  O  O7  1  0.33333300  0.66666700  0.84815700  1
  O  O8  1  0.18491600  0.81508400  0.35834600  1
  O  O9  1  0.18491600  0.36983300  0.35834600  1
  O  O10  1  0.82110600  0.17889400  0.23536400  1
  O  O11  1  0.17889400  0.82110600  0.73536400  1
  O  O12  1  0.70479300  0.85239600  0.11111300  1
  O  O13  1  0.14760400  0.85239600  0.11111300  1
  O  O14  1  0.17889400  0.35778900  0.73536400  1
  O  O15  1  0.81508400  0.18491600  0.85834600  1
  O  O16  1  0.33333300  0.66666700  0.60692700  1
  O  O17  1  0.00000000  0.00000000  0.99728700  1
  O  O18  1  0.29520700  0.14760400  0.61111300  1
  O  O19  1  0.51782200  0.48217800  0.99237100  1
  O  O20  1  0.33333300  0.66666700  0.24633300  1
  O  O21  1  0.63016700  0.81508400  0.35834600  1
  O  O22  1  0.64221100  0.82110600  0.73536400  1
  O  O23  1  0.36983300  0.18491600  0.85834600  1
  O  O24  1  0.66666700  0.33333300  0.10692700  1
  O  O25  1  0.85239600  0.14760400  0.61111300  1
  O  O26  1  0.66666700  0.33333300  0.74633300  1
  O  O27  1  0.14760400  0.29520700  0.11111300  1
  O  O28  1  0.00000000  0.00000000  0.49728700  1
  O  O29  1  0.82110600  0.64221100  0.23536400  1
  O  O30  1  0.35778900  0.17889400  0.23536400  1
  O  O31  1  0.81508400  0.63016700  0.85834600  1
loop_
_geom_bond_atom_site_label_1
_geom_bond_atom_site_label_2
_geom_bond_distance
_geom_bond_site_symmetry_2
Mg0 O26 1.924021 1_555
Mg0 O25 1.932524 1_555
Mg0 O18 1.932533 1_555
Mg0 O2 1.932533 1_555
Mg1 O0 1.955616 1_565
Mg1 O1 1.955616 1_455
Mg1 O19 1.955621 1_555
Mg1 O7 1.985497 1_555
Mg2 O20 1.924021 1_555
Mg2 O13 1.932524 1_555
Mg2 O12 1.932533 1_555
Mg2 O27 1.932533 1_555
Mg3 O15 1.936623 1_455
Mg3 O23 1.936628 1_555
Mg3 O31 1.936628 1_445
Mg3 O17 1.955548 1_555
Mg4 O8 1.936623 1_545
Mg4 O9 1.936628 1_555
Mg4 O21 1.936628 1_445
Mg4 O28 1.955548 1_555
Mg5 O6 1.955616 1_655
Mg5 O5 1.955616 1_545
Mg5 O4 1.955621 1_555
Mg5 O3 1.985497 1_555
Be0 O24 1.576633 1_555
Be0 O10 1.731273 1_555
Be0 O29 1.731273 1_555
Be0 O30 1.731273 1_555
Be1 O16 1.576633 1_555
Be1 O11 1.731273 1_555
Be1 O22 1.731273 1_555
Be1 O14 1.731273 1_555
Al0 O27 1.905157 1_655
Al0 O12 1.905157 1_545
Al0 O17 1.924561 1_654
Al0 O0 1.929858 1_554
Al0 O1 1.929858 1_554
Al0 O24 1.956839 1_555
Al1 O12 1.905152 1_555
Al1 O13 1.905156 1_655
Al1 O17 1.924561 1_664
Al1 O1 1.929858 1_554
Al1 O19 1.929858 1_554
Al1 O24 1.956844 1_555
Al2 O2 1.905152 1_555
Al2 O25 1.905156 1_565
Al2 O28 1.924561 1_665
Al2 O5 1.929858 1_555
Al2 O4 1.929858 1_555
Al2 O16 1.956844 1_555
Al3 O27 1.905152 1_555
Al3 O13 1.905156 1_545
Al3 O17 1.924561 1_554
Al3 O0 1.929858 1_554
Al3 O19 1.929858 1_554
Al3 O24 1.956844 1_555
Al4 O18 1.905157 1_565
Al4 O2 1.905157 1_455
Al4 O28 1.924561 1_565
Al4 O6 1.929858 1_555
Al4 O5 1.929858 1_555
Al4 O16 1.956839 1_555
Al5 O12 1.966930 1_445
Al5 O27 1.966930 1_555
Al5 O13 1.966933 1_545
Al5 O10 2.032478 1_455
Al5 O30 2.032483 1_555
Al5 O29 2.032483 1_445
Al6 O20 1.888098 1_555
Al6 O3 1.919240 1_555
Al6 O9 1.927325 1_555
Al6 O21 1.927325 1_555
Al6 O30 1.975055 1_555
Al6 O29 1.975055 1_555
Al7 O20 1.888094 1_555
Al7 O3 1.919235 1_565
Al7 O21 1.927321 1_555
Al7 O8 1.927325 1_555
Al7 O30 1.975051 1_565
Al7 O10 1.975055 1_565
Al8 O18 1.966930 1_555
Al8 O2 1.966930 1_445
Al8 O25 1.966933 1_455
Al8 O11 2.032478 1_545
Al8 O14 2.032483 1_555
Al8 O22 2.032483 1_445
Al9 O18 1.905152 1_555
Al9 O25 1.905156 1_455
Al9 O28 1.924561 1_555
Al9 O6 1.929858 1_555
Al9 O4 1.929858 1_555
Al9 O16 1.956844 1_555
Al10 O26 1.888094 1_555
Al10 O7 1.919235 1_545
Al10 O23 1.927321 1_555
Al10 O15 1.927325 1_555
Al10 O22 1.975051 1_545
Al10 O11 1.975055 1_545
Al11 O8 1.926967 1_555
Al11 O21 1.926967 1_555
Al11 O9 1.926967 1_555
Al11 O5 1.930193 1_555
Al11 O6 1.930193 1_555
Al11 O4 1.930197 1_555
Al12 O26 1.888094 1_555
Al12 O7 1.919235 1_655
Al12 O31 1.927321 1_555
Al12 O15 1.927325 1_555
Al12 O14 1.975051 1_655
Al12 O11 1.975055 1_655
Al13 O26 1.888098 1_555
Al13 O7 1.919240 1_555
Al13 O23 1.927325 1_555
Al13 O31 1.927325 1_555
Al13 O14 1.975055 1_555
Al13 O22 1.975055 1_555
Al14 O20 1.888094 1_555
Al14 O3 1.919235 1_455
Al14 O9 1.927321 1_555
Al14 O8 1.927325 1_555
Al14 O29 1.975051 1_455
Al14 O10 1.975055 1_455
Al15 O15 1.926967 1_555
Al15 O31 1.926967 1_555
Al15 O23 1.926967 1_555
Al15 O1 1.930193 1_555
Al15 O0 1.930193 1_555
Al15 O19 1.930197 1_555
