# generated using pymatgen
data_Ta3AlC2
_symmetry_space_group_name_H-M   'P 1'
_cell_length_a   3.08869848
_cell_length_b   3.08869923
_cell_length_c   19.21971736
_cell_angle_alpha   90.00000000
_cell_angle_beta   90.00000000
_cell_angle_gamma   120.00000289
_symmetry_Int_Tables_number   1
_chemical_formula_structural   Ta3AlC2
_chemical_formula_sum   'Ta6 Al2 C4'
_cell_volume   158.79204800
_cell_formula_units_Z   2
loop_
 _symmetry_equiv_pos_site_id
 _symmetry_equiv_pos_as_xyz
  1  'x, y, z'
loop_
 _atom_site_type_symbol
 _atom_site_label
 _atom_site_symmetry_multiplicity
 _atom_site_fract_x
 _atom_site_fract_y
 _atom_site_fract_z
 _atom_site_occupancy
  Ta  Ta0  1  0.33333300  0.66666700  0.13438313  1
  Ta  Ta1  1  0.66666700  0.33333300  0.63438313  1
  Ta  Ta2  1  0.33333300  0.66666700  0.36561687  1
  Ta  Ta3  1  0.66666700  0.33333300  0.86561687  1
  Ta  Ta4  1  -0.00000000  0.00000000  0.50000000  1
  Ta  Ta5  1  -0.00000000  0.00000000  0.00000000  1
  Al  Al0  1  -0.00000000  0.00000000  0.25000000  1
  Al  Al1  1  -0.00000000  0.00000000  0.75000000  1
  C  C0  1  0.66666700  0.33333300  0.43170295  1
  C  C1  1  0.66666700  0.33333300  0.06829705  1
  C  C2  1  0.33333300  0.66666700  0.56829705  1
  C  C3  1  0.33333300  0.66666700  0.93170295  1
loop_
_geom_bond_atom_site_label_1
_geom_bond_atom_site_label_2
_geom_bond_distance
_geom_bond_site_symmetry_2
Al0 Ta2 2.849184 1_545
Al0 Ta0 2.849184 1_545
Al0 Ta2 2.849185 1_445
Al0 Ta0 2.849185 1_445
Al0 Ta2 2.849185 1_555
Al0 Ta0 2.849185 1_555
Al1 Ta3 2.849184 1_455
Al1 Ta1 2.849184 1_455
Al1 Ta3 2.849185 1_555
Al1 Ta1 2.849185 1_555
Al1 Ta3 2.849185 1_445
Al1 Ta1 2.849185 1_445
C0 Ta2 2.189363 1_655
C0 Ta2 2.189363 1_545
C0 Ta2 2.189367 1_555
C0 Ta4 2.214286 1_655
C0 Ta4 2.214288 1_555
C0 Ta4 2.214289 1_665
C1 Ta0 2.189363 1_655
C1 Ta0 2.189363 1_545
C1 Ta0 2.189367 1_555
C1 Ta5 2.214286 1_655
C1 Ta5 2.214288 1_555
C1 Ta5 2.214289 1_665
C2 Ta1 2.189363 1_455
C2 Ta1 2.189363 1_565
C2 Ta1 2.189367 1_555
C2 Ta4 2.214286 1_565
C2 Ta4 2.214288 1_665
C2 Ta4 2.214289 1_555
C3 Ta3 2.189363 1_455
C3 Ta3 2.189363 1_565
C3 Ta3 2.189367 1_555
C3 Ta5 2.214286 1_566
C3 Ta5 2.214288 1_666
C3 Ta5 2.214289 1_556
