# generated using pymatgen
data_CeAl3
_symmetry_space_group_name_H-M   'P 1'
_cell_length_a   6.53712978
_cell_length_b   6.50556011
_cell_length_c   4.60687207
_cell_angle_alpha   89.99970428
_cell_angle_beta   90.00009821
_cell_angle_gamma   120.16167651
_symmetry_Int_Tables_number   1
_chemical_formula_structural   CeAl3
_chemical_formula_sum   'Ce2 Al6'
_cell_volume   169.39428045
_cell_formula_units_Z   2
loop_
 _symmetry_equiv_pos_site_id
 _symmetry_equiv_pos_as_xyz
  1  'x, y, z'
loop_
 _atom_site_type_symbol
 _atom_site_label
 _atom_site_symmetry_multiplicity
 _atom_site_fract_x
 _atom_site_fract_y
 _atom_site_fract_z
 _atom_site_occupancy
  Ce  Ce0  1  0.66578757  0.33154896  0.74998909  1
  Ce  Ce1  1  0.33423644  0.66845166  0.24998240  1
  Al  Al0  1  0.71980025  0.85917434  0.74995583  1
  Al  Al1  1  0.13938633  0.85923704  0.75005815  1
  Al  Al2  1  0.86063893  0.14082612  0.24996966  1
  Al  Al3  1  0.86031382  0.72064433  0.25000770  1
  Al  Al4  1  0.13967738  0.27935559  0.75000342  1
  Al  Al5  1  0.28015828  0.14076196  0.25003374  1
loop_
_geom_bond_atom_site_label_1
_geom_bond_atom_site_label_2
_geom_bond_distance
_geom_bond_site_symmetry_2
Al0 Al4 2.732474 1_665
Al0 Al1 2.742684 1_655
Al0 Al3 2.791512 1_555
Al0 Al3 2.791896 1_556
Al0 Al2 2.795580 1_565
Al0 Al2 2.795698 1_566
Al0 Ce1 3.170960 1_555
Al0 Ce1 3.171135 1_556
Al0 Ce0 3.264772 1_565
Al0 Ce0 3.269377 1_555
Al1 Al4 2.732151 1_565
Al1 Al3 2.791588 1_456
Al1 Al3 2.791974 1_455
Al1 Al5 2.795149 1_566
Al1 Al5 2.795321 1_565
Al1 Ce1 3.171088 1_556
Al1 Ce1 3.171607 1_555
Al1 Ce0 3.264602 1_565
Al1 Ce0 3.269529 1_455
Al2 Al3 2.732451 1_545
Al2 Al5 2.742662 1_655
Al2 Al4 2.791544 1_654
Al2 Al4 2.791803 1_655
Al2 Ce0 3.171040 1_554
Al2 Ce0 3.171182 1_555
Al2 Ce1 3.264775 1_545
Al2 Ce1 3.269292 1_655
Al3 Al5 2.732161 1_665
Al3 Ce0 3.177300 1_555
Al3 Ce0 3.177440 1_554
Al3 Ce1 3.281594 1_555
Al3 Ce1 3.281851 1_655
Al4 Al5 2.791691 1_555
Al4 Al5 2.791911 1_556
Al4 Ce1 3.177310 1_556
Al4 Ce1 3.177435 1_555
Al4 Ce0 3.281640 1_455
Al4 Ce0 3.281805 1_555
Al5 Ce0 3.171152 1_555
Al5 Ce0 3.171448 1_554
Al5 Ce1 3.264604 1_545
Al5 Ce1 3.269614 1_555
