# generated using pymatgen
data_YRu2
_symmetry_space_group_name_H-M   'P 1'
_cell_length_a   5.23064359
_cell_length_b   5.23063202
_cell_length_c   8.94817081
_cell_angle_alpha   90.00000000
_cell_angle_beta   90.00000000
_cell_angle_gamma   120.00005545
_symmetry_Int_Tables_number   1
_chemical_formula_structural   YRu2
_chemical_formula_sum   'Y4 Ru8'
_cell_volume   212.01859483
_cell_formula_units_Z   4
loop_
 _symmetry_equiv_pos_site_id
 _symmetry_equiv_pos_as_xyz
  1  'x, y, z'
loop_
 _atom_site_type_symbol
 _atom_site_label
 _atom_site_symmetry_multiplicity
 _atom_site_fract_x
 _atom_site_fract_y
 _atom_site_fract_z
 _atom_site_occupancy
  Y  Y0  1  0.33333300  0.66666700  0.43245845  1
  Y  Y1  1  0.66666700  0.33333300  0.56754255  1
  Y  Y2  1  0.66666700  0.33333300  0.93245745  1
  Y  Y3  1  0.33333300  0.66666700  0.06754255  1
  Ru  Ru0  1  0.17015189  0.34030178  0.75000000  1
  Ru  Ru1  1  0.17015189  0.82984811  0.75000000  1
  Ru  Ru2  1  0.34030178  0.17015189  0.25000000  1
  Ru  Ru3  1  0.82984811  0.65969822  0.25000000  1
  Ru  Ru4  1  0.65969822  0.82984811  0.75000000  1
  Ru  Ru5  1  -0.00000000  0.00000000  -0.00000000  1
  Ru  Ru6  1  0.82984811  0.17015189  0.25000000  1
  Ru  Ru7  1  -0.00000000  0.00000000  0.50000000  1
loop_
_geom_bond_atom_site_label_1
_geom_bond_atom_site_label_2
_geom_bond_distance
_geom_bond_site_symmetry_2
Ru0 Ru1 2.560637 1_555
Ru0 Ru4 2.560637 1_555
Ru0 Ru1 2.669995 1_545
Ru0 Ru4 2.669996 1_445
Ru0 Ru7 2.716733 1_555
Ru0 Ru5 2.716733 1_556
Ru0 Y1 3.083257 1_555
Ru0 Y2 3.083257 1_555
Ru0 Y1 3.083261 1_455
Ru0 Y2 3.083261 1_455
Ru0 Y0 3.203010 1_555
Ru0 Y3 3.203018 1_556
Ru1 Ru4 2.560642 1_555
Ru1 Ru4 2.670001 1_455
Ru1 Ru5 2.716740 1_566
Ru1 Ru7 2.716740 1_565
Ru1 Y1 3.083254 1_565
Ru1 Y2 3.083254 1_565
Ru1 Y1 3.083255 1_455
Ru1 Y2 3.083255 1_455
Ru1 Y0 3.203006 1_555
Ru1 Y3 3.203013 1_556
Ru2 Ru3 2.560637 1_555
Ru2 Ru6 2.560642 1_555
Ru2 Ru3 2.669996 1_445
Ru2 Ru6 2.670001 1_455
Ru2 Ru5 2.716735 1_555
Ru2 Ru7 2.716735 1_555
Ru2 Y3 3.083252 1_555
Ru2 Y3 3.083256 1_545
Ru2 Y0 3.083256 1_555
Ru2 Y0 3.083261 1_545
Ru2 Y2 3.203020 1_554
Ru2 Y1 3.203020 1_555
Ru3 Ru6 2.560637 1_555
Ru3 Ru6 2.669995 1_565
Ru3 Ru5 2.716733 1_665
Ru3 Ru7 2.716733 1_665
Ru3 Y3 3.083257 1_555
Ru3 Y3 3.083261 1_655
Ru3 Y0 3.083261 1_555
Ru3 Y0 3.083266 1_655
Ru3 Y1 3.203018 1_555
Ru3 Y2 3.203018 1_554
Ru4 Ru7 2.716735 1_665
Ru4 Ru5 2.716735 1_666
Ru4 Y2 3.083252 1_555
Ru4 Y1 3.083252 1_555
Ru4 Y2 3.083256 1_565
Ru4 Y1 3.083256 1_565
Ru4 Y0 3.203012 1_555
Ru4 Y3 3.203020 1_556
Ru5 Ru6 2.716740 1_455
Ru5 Y2 3.079791 1_444
Ru5 Y3 3.079791 1_555
Ru5 Y3 3.079793 1_545
Ru5 Y2 3.079793 1_454
Ru5 Y3 3.079798 1_445
Ru5 Y2 3.079798 1_554
Ru6 Ru7 2.716740 1_655
Ru6 Y3 3.083254 1_545
Ru6 Y3 3.083255 1_655
Ru6 Y0 3.083259 1_545
Ru6 Y0 3.083259 1_655
Ru6 Y2 3.203013 1_554
Ru6 Y1 3.203013 1_555
Ru7 Y0 3.079789 1_555
Ru7 Y0 3.079791 1_545
Ru7 Y1 3.079791 1_445
Ru7 Y1 3.079793 1_455
Ru7 Y0 3.079796 1_445
Ru7 Y1 3.079798 1_555
