# generated using pymatgen
data_Dy3Se4O12F
_symmetry_space_group_name_H-M   'P 1'
_cell_length_a   10.35250356
_cell_length_b   10.35250356
_cell_length_c   6.76786428
_cell_angle_alpha   90.00000000
_cell_angle_beta   90.00000000
_cell_angle_gamma   119.99999833
_symmetry_Int_Tables_number   1
_chemical_formula_structural   Dy3Se4O12F
_chemical_formula_sum   'Dy6 Se8 O24 F2'
_cell_volume   628.16401954
_cell_formula_units_Z   2
loop_
 _symmetry_equiv_pos_site_id
 _symmetry_equiv_pos_as_xyz
  1  'x, y, z'
loop_
 _atom_site_type_symbol
 _atom_site_label
 _atom_site_symmetry_multiplicity
 _atom_site_fract_x
 _atom_site_fract_y
 _atom_site_fract_z
 _atom_site_occupancy
  Dy  Dy0  1  0.46192692  0.92385383  0.31727138  1
  Dy  Dy1  1  0.07614617  0.53807308  0.31727138  1
  Dy  Dy2  1  0.53807308  0.46192692  0.81727138  1
  Dy  Dy3  1  0.46192692  0.53807308  0.31727138  1
  Dy  Dy4  1  0.53807308  0.07614617  0.81727138  1
  Dy  Dy5  1  0.92385383  0.46192692  0.81727138  1
  Se  Se0  1  0.69045535  0.84522768  0.08492800  1
  Se  Se1  1  0.15477232  0.84522768  0.08492800  1
  Se  Se2  1  0.84522768  0.69045535  0.58492800  1
  Se  Se3  1  0.84522768  0.15477232  0.58492800  1
  Se  Se4  1  0.33333300  0.66666700  0.75361421  1
  Se  Se5  1  0.30954465  0.15477232  0.58492800  1
  Se  Se6  1  0.66666700  0.33333300  0.25361421  1
  Se  Se7  1  0.15477232  0.30954465  0.08492800  1
  O  O0  1  0.41661769  0.08141998  0.51306414  1
  O  O1  1  0.18302345  0.36604789  0.32546980  1
  O  O2  1  0.81697655  0.18302345  0.82546980  1
  O  O3  1  0.66480129  0.08141998  0.51306414  1
  O  O4  1  0.58338231  0.91858002  0.01306414  1
  O  O5  1  0.66480129  0.58338231  0.51306414  1
  O  O6  1  0.81697655  0.63395211  0.82546980  1
  O  O7  1  0.08141998  0.41661769  0.01306414  1
  O  O8  1  0.41870215  0.58129785  0.63917272  1
  O  O9  1  0.41661769  0.33519871  0.51306414  1
  O  O10  1  0.58129785  0.16259570  0.13917272  1
  O  O11  1  0.41870215  0.83740430  0.63917272  1
  O  O12  1  0.33519871  0.41661769  0.01306414  1
  O  O13  1  0.58129785  0.41870215  0.13917272  1
  O  O14  1  0.83740430  0.41870215  0.13917272  1
  O  O15  1  0.58338231  0.66480129  0.01306414  1
  O  O16  1  0.63395211  0.81697655  0.32546980  1
  O  O17  1  0.91858002  0.58338231  0.51306414  1
  O  O18  1  0.18302345  0.81697655  0.32546980  1
  O  O19  1  0.33519871  0.91858002  0.01306414  1
  O  O20  1  0.91858002  0.33519871  0.51306414  1
  O  O21  1  0.36604789  0.18302345  0.82546980  1
  O  O22  1  0.08141998  0.66480129  0.01306414  1
  O  O23  1  0.16259570  0.58129785  0.63917272  1
  F  F0  1  0.66666700  0.33333300  0.76976327  1
  F  F1  1  0.33333300  0.66666700  0.26976327  1
loop_
_geom_bond_atom_site_label_1
_geom_bond_atom_site_label_2
_geom_bond_distance
_geom_bond_site_symmetry_2
Dy0 O11 2.312349 1_555
Dy0 O3 2.324187 1_565
Dy0 O0 2.324193 1_565
Dy0 F1 2.328126 1_555
Dy0 O19 2.427215 1_555
Dy0 O4 2.427220 1_555
Dy0 O10 2.456497 1_565
Dy0 O16 2.523755 1_555
Dy0 O18 2.523765 1_555
Dy1 O23 2.312349 1_555
Dy1 O20 2.324187 1_455
Dy1 O17 2.324193 1_455
Dy1 F1 2.328126 1_555
Dy1 O22 2.427215 1_555
Dy1 O7 2.427220 1_555
Dy1 O14 2.456497 1_455
Dy1 O1 2.523755 1_555
Dy1 O18 2.523765 1_555
Dy2 O13 2.312349 1_556
Dy2 O15 2.324185 1_556
Dy2 O12 2.324185 1_556
Dy2 F0 2.328135 1_555
Dy2 O9 2.427217 1_555
Dy2 O5 2.427217 1_555
Dy2 O8 2.456497 1_555
Dy2 O6 2.523764 1_555
Dy2 O21 2.523764 1_555
Dy3 O8 2.312349 1_555
Dy3 O9 2.324185 1_555
Dy3 O5 2.324185 1_555
Dy3 F1 2.328135 1_555
Dy3 O15 2.427217 1_555
Dy3 O12 2.427217 1_555
Dy3 O13 2.456497 1_555
Dy3 O1 2.523764 1_555
Dy3 O16 2.523764 1_555
Dy4 O10 2.312349 1_556
Dy4 O19 2.324187 1_546
Dy4 O4 2.324193 1_546
Dy4 F0 2.328126 1_555
Dy4 O3 2.427215 1_555
Dy4 O0 2.427220 1_555
Dy4 O11 2.456497 1_545
Dy4 O21 2.523755 1_555
Dy4 O2 2.523765 1_555
Dy5 O14 2.312349 1_556
Dy5 O22 2.324187 1_656
Dy5 O7 2.324193 1_656
Dy5 F0 2.328126 1_555
Dy5 O20 2.427215 1_555
Dy5 O17 2.427220 1_555
Dy5 O23 2.456497 1_655
Dy5 O6 2.523755 1_555
Dy5 O2 2.523765 1_555
O0 Se5 1.698139 1_555
O1 Se7 1.704952 1_555
O2 Se3 1.704949 1_555
O3 Se3 1.698149 1_555
O4 Se0 1.698139 1_555
O5 Se2 1.698148 1_555
O6 Se2 1.704952 1_555
O7 Se7 1.698139 1_555
O8 Se4 1.715550 1_555
O9 Se5 1.698148 1_555
O10 Se6 1.715542 1_555
O11 Se4 1.715542 1_555
O12 Se7 1.698148 1_555
O13 Se6 1.715550 1_555
O14 Se6 1.715542 1_555
O15 Se0 1.698148 1_555
O16 Se0 1.704952 1_555
O17 Se2 1.698139 1_555
O18 Se1 1.704949 1_555
O19 Se1 1.698149 1_555
O20 Se3 1.698149 1_555
O21 Se5 1.704952 1_555
O22 Se1 1.698149 1_555
O23 Se4 1.715542 1_555
