# generated using pymatgen
data_Cu3Pd
_symmetry_space_group_name_H-M   'P 1'
_cell_length_a   3.66615370
_cell_length_b   3.67481623
_cell_length_c   3.67481623
_cell_angle_alpha   90.00000000
_cell_angle_beta   90.00000000
_cell_angle_gamma   90.00000000
_symmetry_Int_Tables_number   1
_chemical_formula_structural   Cu3Pd
_chemical_formula_sum   'Cu3 Pd1'
_cell_volume   49.50874528
_cell_formula_units_Z   1
loop_
 _symmetry_equiv_pos_site_id
 _symmetry_equiv_pos_as_xyz
  1  'x, y, z'
loop_
 _atom_site_type_symbol
 _atom_site_label
 _atom_site_symmetry_multiplicity
 _atom_site_fract_x
 _atom_site_fract_y
 _atom_site_fract_z
 _atom_site_occupancy
  Cu  Cu0  1  0.00000000  0.50000000  0.50000000  1
  Cu  Cu1  1  0.50000000  0.50000000  0.00000000  1
  Cu  Cu2  1  0.50000000  0.00000000  0.50000000  1
  Pd  Pd0  1  0.00000000  -0.00000000  -0.00000000  1
loop_
_geom_bond_atom_site_label_1
_geom_bond_atom_site_label_2
_geom_bond_distance
_geom_bond_site_symmetry_2
Cu0 Cu1 2.595427 1_555
Cu0 Cu1 2.595427 1_556
Cu0 Cu2 2.595427 1_555
Cu0 Cu2 2.595427 1_565
Cu0 Cu1 2.595427 1_456
Cu0 Cu2 2.595427 1_465
Cu0 Cu2 2.595427 1_455
Cu0 Cu1 2.595427 1_455
Cu0 Pd0 2.598487 1_556
Cu0 Pd0 2.598487 1_555
Cu0 Pd0 2.598487 1_565
Cu0 Pd0 2.598487 1_566
Cu1 Pd0 2.595427 1_665
Cu1 Pd0 2.595427 1_555
Cu1 Pd0 2.595427 1_565
Cu1 Pd0 2.595427 1_655
Cu1 Cu2 2.598487 1_565
Cu1 Cu2 2.598487 1_555
Cu1 Cu2 2.598487 1_564
Cu1 Cu2 2.598487 1_554
Cu2 Pd0 2.595427 1_555
Cu2 Pd0 2.595427 1_556
Cu2 Pd0 2.595427 1_656
Cu2 Pd0 2.595427 1_655
