# generated using pymatgen
data_K(NiS)2
_symmetry_space_group_name_H-M   'P 1'
_cell_length_a   6.81717781
_cell_length_b   6.81717781
_cell_length_c   6.81717781
_cell_angle_alpha   147.49574792
_cell_angle_beta   147.49574792
_cell_angle_gamma   46.63030307
_symmetry_Int_Tables_number   1
_chemical_formula_structural   K(NiS)2
_chemical_formula_sum   'K1 Ni2 S2'
_cell_volume   91.15368694
_cell_formula_units_Z   1
loop_
 _symmetry_equiv_pos_site_id
 _symmetry_equiv_pos_as_xyz
  1  'x, y, z'
loop_
 _atom_site_type_symbol
 _atom_site_label
 _atom_site_symmetry_multiplicity
 _atom_site_fract_x
 _atom_site_fract_y
 _atom_site_fract_z
 _atom_site_occupancy
  K  K0  1  0.00000000  0.00000000  0.00000000  1
  Ni  Ni0  1  0.75000000  0.25000000  0.50000000  1
  Ni  Ni1  1  0.25000000  0.75000000  0.50000000  1
  S  S0  1  0.34647600  0.34647600  0.00000000  1
  S  S1  1  0.65352400  0.65352400  0.00000000  1
loop_
_geom_bond_atom_site_label_1
_geom_bond_atom_site_label_2
_geom_bond_distance
_geom_bond_site_symmetry_2
K0 S1 3.312884 1_545
K0 S0 3.312884 1_556
K0 S1 3.312884 1_455
K0 S0 3.312884 1_444
K0 S0 3.312884 1_545
K0 S1 3.312884 1_556
K0 S0 3.312884 1_455
K0 S1 3.312884 1_444
Ni0 S0 2.258149 1_555
Ni0 S1 2.258149 1_545
Ni0 S1 2.258149 1_556
Ni0 S0 2.258149 1_656
Ni1 S0 2.258149 1_555
Ni1 S1 2.258149 1_556
Ni1 S0 2.258149 1_566
Ni1 S1 2.258149 1_455
