# generated using pymatgen
data_Fe3Mo3N
_symmetry_space_group_name_H-M   'P 1'
_cell_length_a   7.86598971
_cell_length_b   7.86598791
_cell_length_c   7.86599114
_cell_angle_alpha   60.00013869
_cell_angle_beta   60.00010277
_cell_angle_gamma   60.00021375
_symmetry_Int_Tables_number   1
_chemical_formula_structural   Fe3Mo3N
_chemical_formula_sum   'Fe12 Mo12 N4'
_cell_volume   344.14906807
_cell_formula_units_Z   4
loop_
 _symmetry_equiv_pos_site_id
 _symmetry_equiv_pos_as_xyz
  1  'x, y, z'
loop_
 _atom_site_type_symbol
 _atom_site_label
 _atom_site_symmetry_multiplicity
 _atom_site_fract_x
 _atom_site_fract_y
 _atom_site_fract_z
 _atom_site_occupancy
  Fe  Fe0  1  0.12501165  0.62499544  0.62500061  1
  Fe  Fe1  1  0.62499817  0.12501294  0.62499818  1
  Fe  Fe2  1  0.62500227  0.62499723  0.12501032  1
  Fe  Fe3  1  0.62499740  0.62499275  0.62499408  1
  Fe  Fe4  1  0.74324108  0.41892193  0.41892111  1
  Fe  Fe5  1  0.41892185  0.74323895  0.41892230  1
  Fe  Fe6  1  0.41892115  0.41892227  0.74324023  1
  Fe  Fe7  1  0.41891497  0.41891583  0.41891535  1
  Fe  Fe8  1  0.50675574  0.83107803  0.83107816  1
  Fe  Fe9  1  0.83107847  0.50675373  0.83107865  1
  Fe  Fe10  1  0.83107772  0.83107749  0.50675832  1
  Fe  Fe11  1  0.83108946  0.83109035  0.83108785  1
  Mo  Mo0  1  0.80499985  0.80500267  0.19500208  1
  Mo  Mo1  1  0.19500511  0.19500584  0.80499512  1
  Mo  Mo2  1  0.80500054  0.19500208  0.80500173  1
  Mo  Mo3  1  0.19500629  0.80499461  0.19500732  1
  Mo  Mo4  1  0.19500156  0.80500212  0.80500048  1
  Mo  Mo5  1  0.80499304  0.19500670  0.19500709  1
  Mo  Mo6  1  0.44499291  0.44499500  0.05500574  1
  Mo  Mo7  1  0.05499879  0.05499848  0.44499371  1
  Mo  Mo8  1  0.44499204  0.05500747  0.44499125  1
  Mo  Mo9  1  0.05499905  0.44499450  0.05499936  1
  Mo  Mo10  1  0.05500727  0.44499370  0.44499083  1
  Mo  Mo11  1  0.44499335  0.05499901  0.05499970  1
  N  N0  1  0.62499815  0.12500160  0.12500155  1
  N  N1  1  0.12500146  0.62499945  0.12500113  1
  N  N2  1  0.12500159  0.12500112  0.62499772  1
  N  N3  1  0.12499909  0.12499872  0.12500007  1
loop_
_geom_bond_atom_site_label_1
_geom_bond_atom_site_label_2
_geom_bond_distance
_geom_bond_site_symmetry_2
Fe0 Fe6 2.394271 1_555
Fe0 Fe5 2.394288 1_555
Fe0 Fe7 2.394323 1_555
Fe0 Fe9 2.394428 1_455
Fe0 Fe11 2.394438 1_455
Fe0 Fe10 2.394440 1_455
Fe0 Mo1 2.806459 1_555
Fe0 Mo3 2.806482 1_555
Fe0 Mo9 2.806497 1_556
Fe0 Mo4 2.806502 1_555
Fe0 Mo7 2.806526 1_565
Fe0 Mo10 2.806615 1_555
Fe1 Fe4 2.394277 1_555
Fe1 Fe6 2.394279 1_555
Fe1 Fe7 2.394328 1_555
Fe1 Fe11 2.394436 1_545
Fe1 Fe10 2.394438 1_545
Fe1 Fe8 2.394443 1_545
Fe1 Mo5 2.806468 1_555
Fe1 Mo1 2.806483 1_555
Fe1 Mo2 2.806494 1_555
Fe1 Mo7 2.806507 1_655
Fe1 Mo11 2.806513 1_556
Fe1 Mo8 2.806632 1_555
Fe2 Fe4 2.394275 1_555
Fe2 Fe5 2.394294 1_555
Fe2 Fe7 2.394340 1_555
Fe2 Fe9 2.394428 1_554
Fe2 Fe8 2.394446 1_554
Fe2 Mo5 2.806462 1_555
Fe2 Mo9 2.806487 1_655
Fe2 Mo0 2.806488 1_555
Fe2 Mo3 2.806499 1_555
Fe2 Mo11 2.806521 1_565
Fe2 Mo6 2.806616 1_555
Fe3 Fe4 2.394223 1_555
Fe3 Fe6 2.394234 1_555
Fe3 Fe5 2.394241 1_555
Fe3 Fe9 2.394376 1_555
Fe3 Fe8 2.394393 1_555
Fe3 Mo2 2.806485 1_555
Fe3 Mo0 2.806492 1_555
Fe3 Mo4 2.806519 1_555
Fe3 Mo10 2.806580 1_655
Fe3 Mo6 2.806588 1_556
Fe3 Mo8 2.806615 1_565
Fe4 Fe5 2.551091 1_555
Fe4 Fe6 2.551098 1_555
Fe4 Fe7 2.551192 1_555
Fe4 Mo10 2.673199 1_655
Fe4 Mo9 2.673241 1_655
Fe4 Mo7 2.673252 1_655
Fe4 Mo5 2.798482 1_555
Fe4 Mo0 2.798530 1_555
Fe4 Mo2 2.798533 1_555
Fe5 Fe6 2.551082 1_555
Fe5 Fe7 2.551176 1_555
Fe5 Mo8 2.673206 1_565
Fe5 Mo11 2.673253 1_565
Fe5 Mo7 2.673256 1_565
Fe5 Mo3 2.798478 1_555
Fe5 Mo0 2.798526 1_555
Fe5 Mo4 2.798527 1_555
Fe6 Fe7 2.551186 1_555
Fe6 Mo6 2.673208 1_556
Fe6 Mo9 2.673247 1_556
Fe6 Mo11 2.673254 1_556
Fe6 Mo1 2.798491 1_555
Fe6 Mo4 2.798531 1_555
Fe6 Mo2 2.798533 1_555
Fe7 Mo10 2.673162 1_555
Fe7 Mo6 2.673165 1_555
Fe7 Mo8 2.673168 1_555
Fe7 Mo5 2.798455 1_555
Fe7 Mo3 2.798457 1_555
Fe7 Mo1 2.798465 1_555
Fe8 Fe9 2.551133 1_555
Fe8 Mo4 2.673160 1_555
Fe8 Mo3 2.673246 1_556
Fe8 Mo1 2.673248 1_565
Fe8 Mo11 2.798534 1_566
Fe8 Mo6 2.798558 1_556
Fe8 Mo8 2.798589 1_565
Fe9 Mo2 2.673145 1_555
Fe9 Mo1 2.673234 1_655
Fe9 Mo5 2.673236 1_556
Fe9 Mo9 2.798538 1_656
Fe9 Mo6 2.798562 1_556
Fe9 Mo10 2.798582 1_655
Fe10 Fe3 2.394376 1_555
Fe10 Fe8 2.551109 1_555
Fe10 Fe9 2.551119 1_555
Fe10 Fe11 2.551270 1_555
Fe10 Mo0 2.673173 1_555
Fe10 Mo3 2.673249 1_655
Fe10 Mo5 2.673254 1_565
Fe10 Mo7 2.798521 1_665
Fe10 Mo10 2.798581 1_655
Fe10 Mo8 2.798593 1_565
Fe11 Fe2 2.394428 1_556
Fe11 Fe8 2.551292 1_555
Fe11 Fe9 2.551307 1_555
Fe11 Mo2 2.673122 1_565
Fe11 Mo4 2.673123 1_655
Fe11 Mo0 2.673135 1_556
Fe11 Mo7 2.798509 1_665
Fe11 Mo11 2.798529 1_566
Fe11 Mo9 2.798532 1_656
Mo0 N0 2.115062 1_565
Mo0 N1 2.115079 1_655
Mo1 N3 2.115077 1_556
Mo1 N2 2.115086 1_555
Mo2 N0 2.115065 1_556
Mo2 N2 2.115076 1_655
Mo3 N3 2.115069 1_565
Mo3 N1 2.115084 1_555
Mo4 N2 2.115063 1_565
Mo4 N1 2.115071 1_556
Mo5 N0 2.115080 1_555
Mo5 N3 2.115082 1_655
Mo6 N1 2.115023 1_555
Mo6 N0 2.115036 1_555
Mo7 N3 2.115014 1_555
Mo7 N2 2.115118 1_555
Mo8 N0 2.115013 1_555
Mo8 N2 2.115019 1_555
Mo9 N3 2.115030 1_555
Mo9 N1 2.115117 1_555
Mo10 N1 2.115013 1_555
Mo10 N2 2.115033 1_555
Mo11 N3 2.115020 1_555
Mo11 N0 2.115118 1_555
