# generated using pymatgen
data_NaSiBO4
_symmetry_space_group_name_H-M   'P 1'
_cell_length_a   14.05524146
_cell_length_b   14.05524146
_cell_length_c   7.78989100
_cell_angle_alpha   90.00000000
_cell_angle_beta   90.00000000
_cell_angle_gamma   119.99999744
_symmetry_Int_Tables_number   1
_chemical_formula_structural   NaSiBO4
_chemical_formula_sum   'Na18 Si18 B18 O72'
_cell_volume   1332.71917185
_cell_formula_units_Z   18
loop_
 _symmetry_equiv_pos_site_id
 _symmetry_equiv_pos_as_xyz
  1  'x, y, z'
loop_
 _atom_site_type_symbol
 _atom_site_label
 _atom_site_symmetry_multiplicity
 _atom_site_fract_x
 _atom_site_fract_y
 _atom_site_fract_z
 _atom_site_occupancy
  Na  Na0  1  0.31143400  0.32576700  0.50269800  1
  Na  Na1  1  0.01433300  0.68856600  0.50269800  1
  Na  Na2  1  0.98730400  0.65404200  0.06724500  1
  Na  Na3  1  0.66673800  0.01269600  0.06724500  1
  Na  Na4  1  0.33326200  0.98730400  0.56724500  1
  Na  Na5  1  0.66666700  0.33333300  0.52317500  1
  Na  Na6  1  0.00000000  0.00000000  0.05288400  1
  Na  Na7  1  0.98566700  0.31143400  0.00269800  1
  Na  Na8  1  0.34595800  0.33326200  0.06724500  1
  Na  Na9  1  0.66666700  0.33333300  0.02497800  1
  Na  Na10  1  0.33333300  0.66666700  0.52497800  1
  Na  Na11  1  0.67423300  0.98566700  0.50269800  1
  Na  Na12  1  0.00000000  0.00000000  0.55288400  1
  Na  Na13  1  0.33333300  0.66666700  0.02317500  1
  Na  Na14  1  0.68856600  0.67423300  0.00269800  1
  Na  Na15  1  0.32576700  0.01433300  0.00269800  1
  Na  Na16  1  0.01269600  0.34595800  0.56724500  1
  Na  Na17  1  0.65404200  0.66673800  0.56724500  1
  Si  Si0  1  0.55109500  0.76323600  0.23968500  1
  Si  Si1  1  0.23676400  0.78785900  0.23968500  1
  Si  Si2  1  0.87877000  0.78249500  0.33388500  1
  Si  Si3  1  0.21214100  0.44890500  0.23968500  1
  Si  Si4  1  0.43137300  0.54557900  0.74599400  1
  Si  Si5  1  0.54557900  0.11420700  0.24599400  1
  Si  Si6  1  0.78785900  0.55109500  0.73968500  1
  Si  Si7  1  0.90372500  0.12123000  0.33388500  1
  Si  Si8  1  0.44890500  0.23676400  0.73968500  1
  Si  Si9  1  0.11420700  0.56862700  0.74599400  1
  Si  Si10  1  0.09627500  0.87877000  0.83388500  1
  Si  Si11  1  0.88579300  0.43137300  0.24599400  1
  Si  Si12  1  0.12123000  0.21750500  0.83388500  1
  Si  Si13  1  0.78249500  0.90372500  0.83388500  1
  Si  Si14  1  0.56862700  0.45442100  0.24599400  1
  Si  Si15  1  0.21750500  0.09627500  0.33388500  1
  Si  Si16  1  0.45442100  0.88579300  0.74599400  1
  Si  Si17  1  0.76323600  0.21214100  0.73968500  1
  B  B0  1  0.56682900  0.45357600  0.86513500  1
  B  B1  1  0.55243700  0.76596000  0.86453600  1
  B  B2  1  0.21858900  0.09855900  0.71029600  1
  B  B3  1  0.09855900  0.87996900  0.21029600  1
  B  B4  1  0.87996900  0.78141100  0.71029600  1
  B  B5  1  0.54642400  0.11325300  0.86513500  1
  B  B6  1  0.78647600  0.55243700  0.36453600  1
  B  B7  1  0.12003100  0.21858900  0.21029600  1
  B  B8  1  0.11325300  0.56682900  0.36513500  1
  B  B9  1  0.45357600  0.88674700  0.36513500  1
  B  B10  1  0.23404000  0.78647600  0.86453600  1
  B  B11  1  0.76596000  0.21352400  0.36453600  1
  B  B12  1  0.90144100  0.12003100  0.71029600  1
  B  B13  1  0.21352400  0.44756300  0.86453600  1
  B  B14  1  0.88674700  0.43317100  0.86513500  1
  B  B15  1  0.44756300  0.23404000  0.36453600  1
  B  B16  1  0.78141100  0.90144100  0.21029600  1
  B  B17  1  0.43317100  0.54642400  0.36513500  1
  O  O0  1  0.65884800  0.45651600  0.76753500  1
  O  O1  1  0.34062900  0.86906600  0.36372500  1
  O  O2  1  0.20258400  0.86466500  0.78784600  1
  O  O3  1  0.87698700  0.86839900  0.81236700  1
  O  O4  1  0.51222400  0.11807600  0.04540800  1
  O  O5  1  0.53899400  0.53436900  0.79222100  1
  O  O6  1  0.47156300  0.34062900  0.86372500  1
  O  O7  1  0.84358200  0.78749300  0.53256100  1
  O  O8  1  0.53436900  0.99537500  0.29222100  1
  O  O9  1  0.86963800  0.19761500  0.78497300  1
  O  O10  1  0.05608900  0.84358200  0.03256100  1
  O  O11  1  0.65937100  0.13093400  0.86372500  1
  O  O12  1  0.27595300  0.82362100  0.04134800  1
  O  O13  1  0.00462500  0.53899400  0.29222100  1
  O  O14  1  0.60585200  0.48777600  0.04540800  1
  O  O15  1  0.86175800  0.32665100  0.36856700  1
  O  O16  1  0.53456700  0.32434800  0.26329300  1
  O  O17  1  0.20013200  0.19350400  0.70707100  1
  O  O18  1  0.78749300  0.94391100  0.03256100  1
  O  O19  1  0.00662800  0.20013200  0.20707100  1
  O  O20  1  0.13036200  0.80238500  0.28497300  1
  O  O21  1  0.19761500  0.32797600  0.28497300  1
  O  O22  1  0.94391100  0.15641800  0.53256100  1
  O  O23  1  0.00858700  0.87698700  0.31236700  1
  O  O24  1  0.46100600  0.46563100  0.29222100  1
  O  O25  1  0.17637900  0.45233200  0.04134800  1
  O  O26  1  0.45233200  0.27595300  0.54134800  1
  O  O27  1  0.82362100  0.54766800  0.54134800  1
  O  O28  1  0.78978000  0.46543300  0.26329300  1
  O  O29  1  0.80649600  0.00662800  0.70707100  1
  O  O30  1  0.15641800  0.21250700  0.03256100  1
  O  O31  1  0.80238500  0.67202400  0.78497300  1
  O  O32  1  0.32797600  0.13036200  0.78497300  1
  O  O33  1  0.86839900  0.99141300  0.31236700  1
  O  O34  1  0.21250700  0.05608900  0.53256100  1
  O  O35  1  0.99141300  0.12301300  0.81236700  1
  O  O36  1  0.67202400  0.86963800  0.28497300  1
  O  O37  1  0.13160100  0.00858700  0.81236700  1
  O  O38  1  0.53510700  0.86175800  0.86856700  1
  O  O39  1  0.54348400  0.20233200  0.76753500  1
  O  O40  1  0.19350400  0.99337200  0.20707100  1
  O  O41  1  0.67334900  0.53510700  0.36856700  1
  O  O42  1  0.46563100  0.00462500  0.79222100  1
  O  O43  1  0.79766800  0.34115200  0.76753500  1
  O  O44  1  0.13093400  0.47156300  0.36372500  1
  O  O45  1  0.52843700  0.65937100  0.36372500  1
  O  O46  1  0.48777600  0.88192400  0.54540800  1
  O  O47  1  0.99537500  0.46100600  0.79222100  1
  O  O48  1  0.21022000  0.53456700  0.76329300  1
  O  O49  1  0.66208000  0.79741600  0.78784600  1
  O  O50  1  0.33792000  0.20258400  0.28784600  1
  O  O51  1  0.99337200  0.79986800  0.70707100  1
  O  O52  1  0.32665100  0.46489300  0.86856700  1
  O  O53  1  0.45651600  0.79766800  0.26753500  1
  O  O54  1  0.12301300  0.13160100  0.31236700  1
  O  O55  1  0.34115200  0.54348400  0.26753500  1
  O  O56  1  0.46543300  0.67565200  0.76329300  1
  O  O57  1  0.32434800  0.78978000  0.76329300  1
  O  O58  1  0.20233200  0.65884800  0.26753500  1
  O  O59  1  0.72404700  0.17637900  0.54134800  1
  O  O60  1  0.54766800  0.72404700  0.04134800  1
  O  O61  1  0.39414800  0.51222400  0.54540800  1
  O  O62  1  0.86906600  0.52843700  0.86372500  1
  O  O63  1  0.86466500  0.66208000  0.28784600  1
  O  O64  1  0.67565200  0.21022000  0.26329300  1
  O  O65  1  0.11807600  0.60585200  0.54540800  1
  O  O66  1  0.88192400  0.39414800  0.04540800  1
  O  O67  1  0.79741600  0.13533500  0.28784600  1
  O  O68  1  0.13824200  0.67334900  0.86856700  1
  O  O69  1  0.13533500  0.33792000  0.78784600  1
  O  O70  1  0.46489300  0.13824200  0.36856700  1
  O  O71  1  0.79986800  0.80649600  0.20707100  1
loop_
_geom_bond_atom_site_label_1
_geom_bond_atom_site_label_2
_geom_bond_distance
_geom_bond_site_symmetry_2
Na0 O61 2.298603 1_555
Na0 O21 2.342316 1_555
Na0 O17 2.351501 1_555
Na0 O26 2.426768 1_555
Na0 O50 2.565527 1_555
Na0 O24 2.615258 1_555
Na1 O65 2.298603 1_555
Na1 O20 2.342321 1_555
Na1 O51 2.351501 1_455
Na1 O27 2.426768 1_455
Na1 O63 2.565516 1_455
Na1 O13 2.615258 1_555
Na2 O62 2.336253 1_554
Na2 O10 2.351422 1_655
Na2 O63 2.476250 1_555
Na2 O13 2.477722 1_655
Na2 O68 2.528615 1_654
Na2 O20 2.659799 1_655
Na3 O11 2.336253 1_554
Na3 O18 2.351421 1_545
Na3 O67 2.476255 1_555
Na3 O8 2.477722 1_545
Na3 O38 2.528615 1_544
Na3 O36 2.659805 1_545
Na4 O1 2.336253 1_555
Na4 O34 2.351421 1_565
Na4 O2 2.476255 1_555
Na4 O42 2.477722 1_565
Na4 O70 2.528615 1_565
Na4 O32 2.659805 1_565
Na5 O43 2.612162 1_555
Na5 O39 2.612166 1_555
Na5 O0 2.612171 1_555
Na5 O59 2.704839 1_555
Na5 O27 2.704849 1_555
Na5 O26 2.704853 1_555
Na5 O64 2.706863 1_555
Na5 O28 2.706873 1_555
Na5 O16 2.706881 1_555
Na6 O35 2.592872 1_454
Na6 O3 2.592877 1_444
Na6 O37 2.592882 1_554
Na6 O10 2.685720 1_545
Na6 O18 2.685720 1_445
Na6 O30 2.685720 1_555
Na6 O23 2.701562 1_545
Na6 O54 2.701567 1_555
Na6 O33 2.701571 1_445
Na7 O66 2.298603 1_555
Na7 O9 2.342321 1_554
Na7 O19 2.351501 1_655
Na7 O25 2.426768 1_655
Na7 O69 2.565516 1_654
Na7 O47 2.615258 1_554
Na8 O6 2.336253 1_554
Na8 O30 2.351422 1_555
Na8 O50 2.476260 1_555
Na8 O24 2.477722 1_555
Na8 O52 2.528615 1_554
Na8 O21 2.659794 1_555
Na9 O64 2.583621 1_555
Na9 O28 2.583632 1_555
Na9 O16 2.583640 1_555
Na9 O43 2.687336 1_554
Na9 O39 2.687340 1_554
Na9 O0 2.687345 1_554
Na9 O66 2.706187 1_555
Na9 O4 2.706190 1_555
Na9 O14 2.706200 1_555
Na10 O57 2.583621 1_555
Na10 O48 2.583632 1_555
Na10 O56 2.583640 1_555
Na10 O58 2.687336 1_555
Na10 O53 2.687340 1_555
Na10 O55 2.687345 1_555
Na10 O65 2.706187 1_555
Na10 O46 2.706190 1_555
Na10 O61 2.706200 1_555
Na11 O46 2.298603 1_555
Na11 O36 2.342326 1_555
Na11 O29 2.351501 1_565
Na11 O59 2.426768 1_565
Na11 O67 2.565520 1_565
Na11 O8 2.615258 1_555
Na12 O23 2.592872 1_545
Na12 O54 2.592877 1_555
Na12 O33 2.592882 1_445
Na12 O22 2.685720 1_455
Na12 O34 2.685720 1_555
Na12 O7 2.685720 1_445
Na12 O35 2.701562 1_455
Na12 O3 2.701567 1_445
Na12 O37 2.701571 1_555
Na13 O58 2.612162 1_555
Na13 O53 2.612166 1_555
Na13 O55 2.612171 1_555
Na13 O12 2.704839 1_555
Na13 O25 2.704849 1_555
Na13 O60 2.704853 1_555
Na13 O57 2.706863 1_554
Na13 O48 2.706873 1_554
Na13 O56 2.706881 1_554
Na14 O14 2.298603 1_555
Na14 O31 2.342316 1_554
Na14 O71 2.351501 1_555
Na14 O60 2.426768 1_555
Na14 O49 2.565527 1_554
Na14 O5 2.615258 1_554
Na15 O4 2.298603 1_555
Na15 O32 2.342326 1_554
Na15 O40 2.351501 1_545
Na15 O12 2.426768 1_545
Na15 O2 2.565520 1_544
Na15 O42 2.615258 1_554
Na16 O44 2.336253 1_555
Na16 O22 2.351422 1_455
Na16 O69 2.476250 1_555
Na16 O47 2.477722 1_455
Na16 O15 2.528615 1_455
Na16 O9 2.659799 1_455
Na17 O45 2.336253 1_555
Na17 O7 2.351422 1_555
Na17 O49 2.476260 1_555
Na17 O5 2.477722 1_555
Na17 O41 2.528615 1_555
Na17 O31 2.659794 1_555
B0 O6 1.479025 1_555
B0 O0 1.482923 1_555
B0 O5 1.486421 1_555
B0 O14 1.496770 1_556
B1 O56 1.475242 1_555
B1 O38 1.483661 1_555
B1 O60 1.486312 1_556
B1 O49 1.498630 1_555
B2 O37 1.476516 1_555
B2 O17 1.481532 1_555
B2 O32 1.488205 1_555
B2 O34 1.493165 1_555
B3 O23 1.476527 1_555
B3 O40 1.481541 1_555
B3 O20 1.488205 1_555
B3 O10 1.493163 1_555
B4 O3 1.476503 1_555
B4 O51 1.481546 1_555
B4 O31 1.488205 1_555
B4 O7 1.493160 1_555
B5 O11 1.479025 1_555
B5 O39 1.482923 1_555
B5 O42 1.486421 1_555
B5 O4 1.496770 1_556
B6 O28 1.475242 1_555
B6 O41 1.483647 1_555
B6 O27 1.486318 1_555
B6 O63 1.498637 1_555
B7 O54 1.476503 1_555
B7 O19 1.481546 1_555
B7 O21 1.488205 1_555
B7 O30 1.493160 1_555
B8 O44 1.479025 1_555
B8 O58 1.482923 1_555
B8 O13 1.486421 1_555
B8 O65 1.496770 1_555
B9 O1 1.479025 1_555
B9 O53 1.482923 1_555
B9 O8 1.486421 1_555
B9 O46 1.496770 1_555
B10 O57 1.475242 1_555
B10 O68 1.483652 1_555
B10 O12 1.486314 1_556
B10 O2 1.498655 1_555
B11 O64 1.475242 1_555
B11 O15 1.483652 1_555
B11 O59 1.486314 1_555
B11 O67 1.498655 1_555
B12 O35 1.476527 1_555
B12 O29 1.481541 1_555
B12 O9 1.488205 1_555
B12 O22 1.493163 1_555
B13 O48 1.475242 1_555
B13 O52 1.483647 1_555
B13 O25 1.486318 1_556
B13 O69 1.498637 1_555
B14 O62 1.479025 1_555
B14 O43 1.482923 1_555
B14 O47 1.486421 1_555
B14 O66 1.496770 1_556
B15 O16 1.475242 1_555
B15 O70 1.483661 1_555
B15 O26 1.486312 1_555
B15 O50 1.498630 1_555
B16 O33 1.476516 1_555
B16 O71 1.481532 1_555
B16 O36 1.488205 1_555
B16 O18 1.493165 1_555
B17 O45 1.479025 1_555
B17 O55 1.482923 1_555
B17 O24 1.486421 1_555
B17 O61 1.496770 1_555
O0 Si6 1.640648 1_555
O1 Si1 1.643569 1_555
O2 Si10 1.642187 1_555
O3 Si13 1.642535 1_555
O4 Si5 1.640054 1_555
O5 Si4 1.637347 1_555
O6 Si8 1.643569 1_555
O7 Si2 1.636933 1_555
O8 Si5 1.637361 1_565
O9 Si17 1.645604 1_555
O10 Si10 1.636933 1_554
O11 Si17 1.643569 1_555
O12 Si1 1.632875 1_555
O13 Si11 1.637355 1_455
O14 Si14 1.640056 1_555
O15 Si11 1.641664 1_555
O16 Si14 1.647566 1_555
O17 Si12 1.641230 1_555
O18 Si13 1.636933 1_554
O19 Si7 1.641230 1_455
O20 Si1 1.645604 1_555
O21 Si3 1.645618 1_555
O22 Si7 1.636933 1_555
O23 Si2 1.642525 1_455
O24 Si14 1.637347 1_555
O25 Si3 1.632875 1_555
O26 Si8 1.632875 1_555
O27 Si6 1.632875 1_555
O28 Si11 1.647566 1_555
O29 Si13 1.641230 1_545
O30 Si12 1.636933 1_554
O31 Si6 1.645618 1_555
O32 Si8 1.645612 1_555
O33 Si7 1.642522 1_565
O34 Si15 1.636933 1_555
O35 Si12 1.642525 1_655
O36 Si0 1.645612 1_555
O37 Si10 1.642522 1_545
O38 Si16 1.641652 1_555
O39 Si8 1.640647 1_555
O40 Si15 1.641230 1_565
O41 Si14 1.641660 1_555
O42 Si16 1.637361 1_545
O43 Si17 1.640647 1_555
O44 Si3 1.643569 1_555
O45 Si0 1.643569 1_555
O46 Si16 1.640054 1_555
O47 Si9 1.637355 1_655
O48 Si9 1.647566 1_555
O49 Si13 1.642195 1_555
O50 Si15 1.642195 1_555
O51 Si10 1.641230 1_655
O52 Si4 1.641660 1_555
O53 Si0 1.640647 1_555
O54 Si15 1.642535 1_555
O55 Si3 1.640648 1_555
O56 Si4 1.647566 1_555
O57 Si16 1.647566 1_555
O58 Si1 1.640647 1_555
O59 Si17 1.632875 1_555
O60 Si0 1.632875 1_555
O61 Si4 1.640056 1_555
O62 Si6 1.643569 1_555
O63 Si2 1.642201 1_555
O64 Si5 1.647566 1_555
O65 Si9 1.640058 1_555
O66 Si11 1.640058 1_555
O67 Si7 1.642187 1_555
O68 Si9 1.641664 1_555
O69 Si12 1.642201 1_555
O70 Si5 1.641652 1_555
O71 Si2 1.641230 1_555
