# generated using pymatgen
data_Nd6S4BrN3
_symmetry_space_group_name_H-M   'P 1'
_cell_length_a   4.02922900
_cell_length_b   11.53751500
_cell_length_c   27.39314400
_cell_angle_alpha   90.00000000
_cell_angle_beta   90.00000000
_cell_angle_gamma   90.00000000
_symmetry_Int_Tables_number   1
_chemical_formula_structural   Nd6S4BrN3
_chemical_formula_sum   'Nd24 S16 Br4 N12'
_cell_volume   1273.43302985
_cell_formula_units_Z   4
loop_
 _symmetry_equiv_pos_site_id
 _symmetry_equiv_pos_as_xyz
  1  'x, y, z'
loop_
 _atom_site_type_symbol
 _atom_site_label
 _atom_site_symmetry_multiplicity
 _atom_site_fract_x
 _atom_site_fract_y
 _atom_site_fract_z
 _atom_site_occupancy
  Nd  Nd0  1  0.25000000  0.90059400  0.96480700  1
  Nd  Nd1  1  0.75000000  0.55789700  0.92200100  1
  Nd  Nd2  1  0.75000000  0.25213800  0.43574100  1
  Nd  Nd3  1  0.25000000  0.87582100  0.21712900  1
  Nd  Nd4  1  0.25000000  0.93753100  0.69244200  1
  Nd  Nd5  1  0.25000000  0.37582100  0.28287100  1
  Nd  Nd6  1  0.25000000  0.24296900  0.67080300  1
  Nd  Nd7  1  0.75000000  0.12417900  0.78287100  1
  Nd  Nd8  1  0.75000000  0.59940600  0.46480700  1
  Nd  Nd9  1  0.25000000  0.44210300  0.07799900  1
  Nd  Nd10  1  0.25000000  0.40059400  0.53519300  1
  Nd  Nd11  1  0.75000000  0.62417900  0.71712900  1
  Nd  Nd12  1  0.25000000  0.74296900  0.82919700  1
  Nd  Nd13  1  0.75000000  0.06246900  0.30755800  1
  Nd  Nd14  1  0.75000000  0.25703100  0.17080300  1
  Nd  Nd15  1  0.25000000  0.24786200  0.93574100  1
  Nd  Nd16  1  0.75000000  0.75213800  0.06425900  1
  Nd  Nd17  1  0.75000000  0.56246900  0.19244200  1
  Nd  Nd18  1  0.25000000  0.74786200  0.56425900  1
  Nd  Nd19  1  0.25000000  0.43753100  0.80755800  1
  Nd  Nd20  1  0.25000000  0.94210300  0.42200100  1
  Nd  Nd21  1  0.75000000  0.75703100  0.32919700  1
  Nd  Nd22  1  0.75000000  0.09940600  0.03519300  1
  Nd  Nd23  1  0.75000000  0.05789700  0.57799900  1
  S  S0  1  0.25000000  0.13687400  0.23561500  1
  S  S1  1  0.25000000  0.64312900  0.00640400  1
  S  S2  1  0.25000000  0.20746100  0.10207400  1
  S  S3  1  0.75000000  0.35687100  0.99359600  1
  S  S4  1  0.25000000  0.70746100  0.39792600  1
  S  S5  1  0.25000000  0.69219800  0.13809300  1
  S  S6  1  0.75000000  0.79253900  0.89792600  1
  S  S7  1  0.75000000  0.85687100  0.50640400  1
  S  S8  1  0.75000000  0.30780200  0.86190700  1
  S  S9  1  0.25000000  0.63687400  0.26438500  1
  S  S10  1  0.25000000  0.19219800  0.36190700  1
  S  S11  1  0.25000000  0.14312900  0.49359600  1
  S  S12  1  0.75000000  0.80780200  0.63809300  1
  S  S13  1  0.75000000  0.29253900  0.60207400  1
  S  S14  1  0.75000000  0.86312600  0.76438500  1
  S  S15  1  0.75000000  0.36312600  0.73561500  1
  Br  Br0  1  0.25000000  0.53817200  0.63763500  1
  Br  Br1  1  0.25000000  0.03817200  0.86236500  1
  Br  Br2  1  0.75000000  0.96182800  0.13763500  1
  Br  Br3  1  0.75000000  0.46182800  0.36236500  1
  N  N0  1  0.75000000  0.43929100  0.12503500  1
  N  N1  1  0.25000000  0.09822900  0.98606800  1
  N  N2  1  0.25000000  0.11178800  0.73737500  1
  N  N3  1  0.25000000  0.56070900  0.87496500  1
  N  N4  1  0.25000000  0.06070900  0.62503500  1
  N  N5  1  0.75000000  0.38821200  0.23737500  1
  N  N6  1  0.25000000  0.61178800  0.76262500  1
  N  N7  1  0.75000000  0.93929100  0.37496500  1
  N  N8  1  0.25000000  0.59822900  0.51393200  1
  N  N9  1  0.75000000  0.90177100  0.01393200  1
  N  N10  1  0.75000000  0.88821200  0.26262500  1
  N  N11  1  0.75000000  0.40177100  0.48606800  1
loop_
_geom_bond_atom_site_label_1
_geom_bond_atom_site_label_2
_geom_bond_distance
_geom_bond_site_symmetry_2
Nd0 S6 2.994899 1_555
Nd0 S6 2.994899 1_455
Nd0 S1 3.181557 1_556
Nd1 S6 2.786356 1_555
Nd1 S3 3.037383 1_555
Nd1 S1 3.220453 1_556
Nd1 S1 3.220453 1_656
Nd1 S8 3.322020 1_555
Nd2 S11 2.855197 1_555
Nd2 S11 2.855197 1_655
Nd2 S10 2.937280 1_555
Nd2 S10 2.937280 1_655
Nd3 S5 3.029139 1_555
Nd3 S9 3.045645 1_555
Nd3 S0 3.054176 1_565
Nd4 S12 2.918121 1_555
Nd4 S12 2.918121 1_455
Nd4 S14 2.946089 1_455
Nd4 S14 2.946089 1_555
Nd5 S10 3.029139 1_555
Nd5 S0 3.045645 1_555
Nd5 S9 3.054176 1_555
Nd6 S13 2.816084 1_555
Nd6 S13 2.816084 1_455
Nd6 S15 3.022019 1_455
Nd6 S15 3.022019 1_555
Nd7 S8 3.029139 1_555
Nd7 S15 3.045645 1_555
Nd7 S14 3.054176 1_545
Nd8 S4 2.994899 1_555
Nd8 S4 2.994899 1_655
Nd8 S7 3.181557 1_555
Nd9 S2 2.786356 1_555
Nd9 S1 3.037383 1_555
Nd9 S3 3.220453 1_454
Nd9 S3 3.220453 1_554
Nd9 S5 3.322020 1_555
Nd10 S13 2.994899 1_455
Nd10 S13 2.994899 1_555
Nd10 S11 3.181557 1_555
Nd11 S12 3.029139 1_555
Nd11 S14 3.045645 1_555
Nd11 S15 3.054176 1_555
Nd12 S6 2.816084 1_455
Nd12 S6 2.816084 1_555
Nd12 S14 3.022019 1_455
Nd12 S14 3.022019 1_555
Nd13 S10 2.918121 1_555
Nd13 S10 2.918121 1_655
Nd13 S0 2.946089 1_655
Nd13 S0 2.946089 1_555
Nd14 S2 2.816084 1_555
Nd14 S2 2.816084 1_655
Nd14 S0 3.022019 1_555
Nd14 S0 3.022019 1_655
Nd15 S3 2.855197 1_555
Nd15 S3 2.855197 1_455
Nd15 S8 2.937280 1_455
Nd15 S8 2.937280 1_555
Nd16 S1 2.855197 1_555
Nd16 S1 2.855197 1_655
Nd16 S5 2.937280 1_555
Nd16 S5 2.937280 1_655
Nd17 S5 2.918121 1_655
Nd17 S5 2.918121 1_555
Nd17 S9 2.946089 1_555
Nd17 S9 2.946089 1_655
Nd18 S7 2.855197 1_455
Nd18 S7 2.855197 1_555
Nd18 S12 2.937280 1_455
Nd18 S12 2.937280 1_555
Nd19 S8 2.918121 1_455
Nd19 S8 2.918121 1_555
Nd19 S15 2.946089 1_555
Nd19 S15 2.946089 1_455
Nd20 S4 2.786356 1_555
Nd20 S11 3.037383 1_565
Nd20 S7 3.220453 1_555
Nd20 S7 3.220453 1_455
Nd20 S10 3.322020 1_565
Nd21 S4 2.816084 1_555
Nd21 S4 2.816084 1_655
Nd21 S9 3.022019 1_555
Nd21 S9 3.022019 1_655
Nd22 S2 2.994899 1_655
Nd22 S2 2.994899 1_555
Nd22 S3 3.181557 1_554
Nd23 S13 2.786356 1_555
Nd23 S7 3.037383 1_545
Nd23 S11 3.220453 1_555
Nd23 S11 3.220453 1_655
Nd23 S12 3.322020 1_545
Br0 Nd11 3.128138 1_455
Br0 Nd11 3.128138 1_555
Br0 Nd18 3.145333 1_555
Br0 Nd10 3.224028 1_555
Br0 Nd6 3.525014 1_555
Br1 Nd7 3.128138 1_455
Br1 Nd7 3.128138 1_555
Br1 Nd15 3.145333 1_555
Br1 Nd0 3.224028 1_545
Br1 Nd12 3.525014 1_545
Br2 Nd3 3.128138 1_655
Br2 Nd3 3.128138 1_555
Br2 Nd16 3.145333 1_555
Br2 Nd22 3.224028 1_565
Br2 Nd14 3.525014 1_565
Br3 Nd5 3.128138 1_655
Br3 Nd5 3.128138 1_555
Br3 Nd2 3.145333 1_555
Br3 Nd8 3.224028 1_555
Br3 Nd21 3.525014 1_555
N0 Nd17 2.330074 1_555
N0 Nd9 2.391624 1_655
N0 Nd9 2.391624 1_555
N0 Nd14 2.448208 1_555
N1 Nd15 2.209301 1_555
N1 Nd0 2.353420 1_545
N1 Nd22 2.422753 1_556
N1 Nd22 2.422753 1_456
N2 Nd4 2.357348 1_545
N2 Nd6 2.369867 1_555
N2 Nd7 2.373251 1_455
N2 Nd7 2.373251 1_555
N3 Nd19 2.330074 1_555
N3 Nd1 2.391624 1_555
N3 Nd1 2.391624 1_455
N3 Nd12 2.448208 1_555
N4 Nd4 2.330074 1_545
N4 Nd23 2.391624 1_455
N4 Nd23 2.391624 1_555
N4 Nd6 2.448208 1_555
N5 Nd17 2.357348 1_555
N5 Nd14 2.369867 1_555
N5 Nd5 2.373251 1_655
N5 Nd5 2.373251 1_555
N6 Nd19 2.357348 1_555
N6 Nd12 2.369867 1_555
N6 Nd11 2.373251 1_555
N6 Nd11 2.373251 1_455
N7 Nd13 2.330074 1_565
N7 Nd20 2.391624 1_555
N7 Nd20 2.391624 1_655
N7 Nd21 2.448208 1_555
N8 Nd18 2.209301 1_555
N8 Nd10 2.353420 1_555
N8 Nd8 2.422753 1_555
N8 Nd8 2.422753 1_455
N9 Nd16 2.209301 1_555
N9 Nd22 2.353420 1_565
N9 Nd0 2.422753 1_554
N9 Nd0 2.422753 1_654
N10 Nd13 2.357348 1_565
N10 Nd21 2.369867 1_555
N10 Nd3 2.373251 1_555
N10 Nd3 2.373251 1_655
N11 Nd2 2.209301 1_555
N11 Nd8 2.353420 1_555
N11 Nd10 2.422753 1_555
N11 Nd10 2.422753 1_655
