# generated using pymatgen
data_La4Si4I3
_symmetry_space_group_name_H-M   'P 1'
_cell_length_a   12.50368330
_cell_length_b   12.50368330
_cell_length_c   12.63785364
_cell_angle_alpha   82.42925024
_cell_angle_beta   82.42925024
_cell_angle_gamma   19.70891094
_symmetry_Int_Tables_number   1
_chemical_formula_structural   La4Si4I3
_chemical_formula_sum   'La8 Si8 I6'
_cell_volume   660.34720186
_cell_formula_units_Z   2
loop_
 _symmetry_equiv_pos_site_id
 _symmetry_equiv_pos_as_xyz
  1  'x, y, z'
loop_
 _atom_site_type_symbol
 _atom_site_label
 _atom_site_symmetry_multiplicity
 _atom_site_fract_x
 _atom_site_fract_y
 _atom_site_fract_z
 _atom_site_occupancy
  La  La0  1  0.49635425  0.49635425  0.16464072  1
  La  La1  1  0.92640071  0.92640071  0.44589090  1
  La  La2  1  0.35668068  0.35668068  0.02283918  1
  La  La3  1  0.07359929  0.07359929  0.55410910  1
  La  La4  1  0.64331932  0.64331932  0.97716082  1
  La  La5  1  0.63810192  0.63810192  0.29029965  1
  La  La6  1  0.36189808  0.36189808  0.70970035  1
  La  La7  1  0.50364575  0.50364575  0.83535928  1
  Si  Si0  1  0.52359570  0.52359570  0.40906604  1
  Si  Si1  1  0.04280159  0.04280159  0.31710198  1
  Si  Si2  1  0.05075138  0.05075138  0.98511027  1
  Si  Si3  1  0.47640430  0.47640430  0.59093396  1
  Si  Si4  1  0.90443347  0.90443347  0.85922019  1
  Si  Si5  1  0.94924862  0.94924862  0.01488973  1
  Si  Si6  1  0.95719841  0.95719841  0.68289802  1
  Si  Si7  1  0.09556653  0.09556653  0.14077981  1
  I  I0  1  0.24251494  0.24251494  0.86896269  1
  I  I1  1  0.75748506  0.75748506  0.13103731  1
  I  I2  1  0.80037005  0.80037005  0.57297653  1
  I  I3  1  0.36836095  0.36836095  0.29035298  1
  I  I4  1  0.19962995  0.19962995  0.42702347  1
  I  I5  1  0.63163905  0.63163905  0.70964702  1
loop_
_geom_bond_atom_site_label_1
_geom_bond_atom_site_label_2
_geom_bond_distance
_geom_bond_site_symmetry_2
La0 Si5 3.177347 1_455
La0 Si5 3.177347 1_545
La0 Si1 3.192372 1_655
La0 Si1 3.192372 1_565
La0 Si7 3.232406 1_565
La0 Si7 3.232406 1_655
La0 Si0 3.247611 1_555
La0 Si2 3.272650 1_564
La0 Si2 3.272650 1_654
La1 Si1 3.102540 1_665
La1 Si3 3.171946 1_655
La1 Si3 3.171946 1_565
La1 Si6 3.186728 1_555
La1 Si0 3.198853 1_565
La1 Si0 3.198853 1_655
La2 Si4 3.096577 1_454
La2 Si4 3.096577 1_544
La2 Si5 3.119284 1_455
La2 Si5 3.119284 1_545
La3 Si6 3.102540 1_445
La3 Si0 3.171946 1_545
La3 Si0 3.171946 1_455
La3 Si1 3.186728 1_555
La3 Si3 3.198853 1_455
La3 Si3 3.198853 1_545
La4 Si7 3.096577 1_656
La4 Si7 3.096577 1_566
La4 Si2 3.119284 1_565
La4 Si2 3.119284 1_655
La5 Si0 3.013269 1_555
La5 Si7 3.126975 1_655
La5 Si7 3.126975 1_565
La5 Si1 3.161449 1_565
La5 Si1 3.161449 1_655
La6 Si3 3.013269 1_555
La6 Si4 3.126975 1_455
La6 Si4 3.126975 1_545
La6 Si6 3.161449 1_545
La6 Si6 3.161449 1_455
La7 Si2 3.177347 1_565
La7 Si2 3.177347 1_655
La7 Si6 3.192372 1_545
La7 Si6 3.192372 1_455
La7 Si4 3.232406 1_545
La7 Si4 3.232406 1_455
La7 Si3 3.247611 1_555
La7 Si5 3.272650 1_456
La7 Si5 3.272650 1_546
Si0 Si3 2.433089 1_555
Si0 Si1 2.450921 1_655
Si0 Si1 2.450921 1_565
Si1 Si7 2.425038 1_555
Si2 Si7 2.381292 1_556
Si2 Si5 2.478759 1_446
Si3 Si6 2.450921 1_545
Si3 Si6 2.450921 1_455
Si4 Si5 2.381292 1_556
Si4 Si6 2.425038 1_555
I0 La6 3.334611 1_555
I0 La4 3.395382 1_545
I0 La4 3.395382 1_455
I0 La2 3.627241 1_556
I1 La5 3.334611 1_555
I1 La2 3.395382 1_565
I1 La2 3.395382 1_655
I1 La4 3.627241 1_554
I2 La6 3.250184 1_565
I2 La6 3.250184 1_655
I2 La1 3.299687 1_555
I3 La0 3.336016 1_555
I3 La1 3.352602 1_455
I3 La1 3.352602 1_545
I3 La2 3.431157 1_555
I4 La5 3.250184 1_455
I4 La5 3.250184 1_545
I4 La3 3.299687 1_555
I5 La7 3.336016 1_555
I5 La3 3.352602 1_565
I5 La3 3.352602 1_655
I5 La4 3.431157 1_555
