# generated using pymatgen
data_Yb2FeS4
_symmetry_space_group_name_H-M   'P 1'
_cell_length_a   7.71150998
_cell_length_b   7.71150998
_cell_length_c   7.71150998
_cell_angle_alpha   60.00000000
_cell_angle_beta   60.00000000
_cell_angle_gamma   60.00000000
_symmetry_Int_Tables_number   1
_chemical_formula_structural   Yb2FeS4
_chemical_formula_sum   'Yb4 Fe2 S8'
_cell_volume   324.26739082
_cell_formula_units_Z   2
loop_
 _symmetry_equiv_pos_site_id
 _symmetry_equiv_pos_as_xyz
  1  'x, y, z'
loop_
 _atom_site_type_symbol
 _atom_site_label
 _atom_site_symmetry_multiplicity
 _atom_site_fract_x
 _atom_site_fract_y
 _atom_site_fract_z
 _atom_site_occupancy
  Yb  Yb0  1  0.62500000  0.12500000  0.12500000  1
  Yb  Yb1  1  0.12500000  0.12500000  0.12500000  1
  Yb  Yb2  1  0.12500000  0.62500000  0.12500000  1
  Yb  Yb3  1  0.12500000  0.12500000  0.62500000  1
  Fe  Fe0  1  0.75000000  0.75000000  0.75000000  1
  Fe  Fe1  1  0.50000000  0.50000000  0.50000000  1
  S  S0  1  0.38152000  0.38152000  0.38152000  1
  S  S1  1  0.39455900  0.86848000  0.86848000  1
  S  S2  1  0.86848000  0.86848000  0.39455900  1
  S  S3  1  0.86848000  0.39455900  0.86848000  1
  S  S4  1  0.38152000  0.38152000  0.85544100  1
  S  S5  1  0.38152000  0.85544100  0.38152000  1
  S  S6  1  0.86848000  0.86848000  0.86848000  1
  S  S7  1  0.85544100  0.38152000  0.38152000  1
loop_
_geom_bond_atom_site_label_1
_geom_bond_atom_site_label_2
_geom_bond_distance
_geom_bond_site_symmetry_2
Fe0 S6 2.238000 1_555
Fe0 S3 2.238006 1_555
Fe0 S2 2.238006 1_555
Fe0 S1 2.238006 1_555
Fe1 S0 2.238000 1_555
Fe1 S7 2.238006 1_555
Fe1 S5 2.238006 1_555
Fe1 S4 2.238006 1_555
S0 Yb0 2.799343 1_555
S0 Yb3 2.799343 1_555
S0 Yb2 2.799343 1_555
S1 Yb3 2.799337 1_565
S1 Yb2 2.799337 1_556
S1 Yb1 2.799342 1_566
S2 Yb2 2.799337 1_655
S2 Yb0 2.799337 1_565
S2 Yb1 2.799342 1_665
S3 Yb0 2.799337 1_556
S3 Yb3 2.799337 1_655
S3 Yb1 2.799342 1_656
S4 Yb2 2.799337 1_556
S4 Yb0 2.799337 1_556
S4 Yb1 2.799342 1_556
S5 Yb3 2.799337 1_565
S5 Yb0 2.799337 1_565
S5 Yb1 2.799342 1_565
S6 Yb3 2.799343 1_665
S6 Yb0 2.799343 1_566
S6 Yb2 2.799343 1_656
S7 Yb2 2.799337 1_655
S7 Yb3 2.799337 1_655
S7 Yb1 2.799342 1_655
