# generated using pymatgen
data_AgAs(XeF5)2
_symmetry_space_group_name_H-M   'P 1'
_cell_length_a   8.94545955
_cell_length_b   8.94545955
_cell_length_c   8.94545955
_cell_angle_alpha   121.19115804
_cell_angle_beta   121.19115804
_cell_angle_gamma   87.94894575
_symmetry_Int_Tables_number   1
_chemical_formula_structural   AgAs(XeF5)2
_chemical_formula_sum   'Ag2 As2 Xe4 F20'
_cell_volume   496.70720233
_cell_formula_units_Z   2
loop_
 _symmetry_equiv_pos_site_id
 _symmetry_equiv_pos_as_xyz
  1  'x, y, z'
loop_
 _atom_site_type_symbol
 _atom_site_label
 _atom_site_symmetry_multiplicity
 _atom_site_fract_x
 _atom_site_fract_y
 _atom_site_fract_z
 _atom_site_occupancy
  Ag  Ag0  1  0.50000000  0.00000000  0.50000000  1
  Ag  Ag1  1  0.00000000  0.50000000  0.50000000  1
  As  As0  1  0.50000000  0.50000000  0.00000000  1
  As  As1  1  0.00000000  0.00000000  0.00000000  1
  Xe  Xe0  1  0.50000000  0.50000000  0.50000000  1
  Xe  Xe1  1  0.50000000  0.00000000  0.00000000  1
  Xe  Xe2  1  0.00000000  0.00000000  0.50000000  1
  Xe  Xe3  1  0.00000000  0.50000000  0.00000000  1
  F  F0  1  0.07542900  0.81255000  0.88797800  1
  F  F1  1  0.63744000  0.63744000  0.00000000  1
  F  F2  1  0.13744000  0.13744000  0.00000000  1
  F  F3  1  0.92457100  0.18745000  0.11202200  1
  F  F4  1  0.46986500  0.96986500  0.73353100  1
  F  F5  1  0.26366600  0.53013500  0.50000000  1
  F  F6  1  0.42457100  0.31255000  0.73712100  1
  F  F7  1  0.18745000  0.07542900  0.26287900  1
  F  F8  1  0.53013500  0.03013500  0.26646900  1
  F  F9  1  0.36256000  0.36256000  0.00000000  1
  F  F10  1  0.23633400  0.73633400  0.26646900  1
  F  F11  1  0.31255000  0.57542900  0.88797800  1
  F  F12  1  0.57542900  0.68745000  0.26287900  1
  F  F13  1  0.96986500  0.23633400  0.50000000  1
  F  F14  1  0.81255000  0.92457100  0.73712100  1
  F  F15  1  0.76366600  0.26366600  0.73353100  1
  F  F16  1  0.86256000  0.86256000  0.00000000  1
  F  F17  1  0.03013500  0.76366600  0.50000000  1
  F  F18  1  0.73633400  0.46986500  0.50000000  1
  F  F19  1  0.68745000  0.42457100  0.11202200  1
loop_
_geom_bond_atom_site_label_1
_geom_bond_atom_site_label_2
_geom_bond_distance
_geom_bond_site_symmetry_2
Ag0 F8 2.383535 1_555
Ag0 F15 2.383535 1_555
Ag0 F10 2.383535 1_545
Ag0 F4 2.383535 1_545
Ag1 F17 2.383535 1_555
Ag1 F18 2.383535 1_455
Ag1 F5 2.383535 1_555
Ag1 F13 2.383535 1_455
As0 F9 1.769566 1_555
As0 F1 1.769566 1_555
As0 F6 1.774853 1_554
As0 F12 1.774853 1_555
As0 F11 1.774855 1_554
As0 F19 1.774855 1_555
As1 F2 1.769566 1_555
As1 F16 1.769566 1_445
As1 F7 1.774853 1_555
As1 F14 1.774853 1_444
As1 F3 1.774855 1_455
As1 F0 1.774855 1_544
F4 Xe1 2.121641 1_566
F5 Xe0 2.121641 1_555
F8 Xe1 2.121641 1_555
F10 Xe3 2.121641 1_555
F13 Xe2 2.121641 1_655
F15 Xe3 2.121641 1_656
F17 Xe2 2.121641 1_565
F18 Xe0 2.121641 1_555
