# generated using pymatgen
data_CdI2
_symmetry_space_group_name_H-M   'P 1'
_cell_length_a   4.28258986
_cell_length_b   4.28259057
_cell_length_c   85.86526602
_cell_angle_alpha   90.00000000
_cell_angle_beta   90.00000000
_cell_angle_gamma   120.00000252
_symmetry_Int_Tables_number   1
_chemical_formula_structural   CdI2
_chemical_formula_sum   'Cd12 I24'
_cell_volume   1363.83295824
_cell_formula_units_Z   12
loop_
 _symmetry_equiv_pos_site_id
 _symmetry_equiv_pos_as_xyz
  1  'x, y, z'
loop_
 _atom_site_type_symbol
 _atom_site_label
 _atom_site_symmetry_multiplicity
 _atom_site_fract_x
 _atom_site_fract_y
 _atom_site_fract_z
 _atom_site_occupancy
  Cd  Cd0  1  0.00000000  -0.00000000  0.27089529  1
  Cd  Cd1  1  0.00000000  -0.00000000  0.93738777  1
  Cd  Cd2  1  0.66666700  0.33333300  0.02082950  1
  Cd  Cd3  1  0.66666700  0.33333300  0.77074520  1
  Cd  Cd4  1  0.00000000  0.00000000  0.10423165  1
  Cd  Cd5  1  0.00000000  0.00000000  0.85416923  1
  Cd  Cd6  1  0.66666700  0.33333300  0.43736932  1
  Cd  Cd7  1  0.66666700  0.33333300  0.18748535  1
  Cd  Cd8  1  0.66666700  0.33333300  0.52089894  1
  Cd  Cd9  1  0.66666700  0.33333300  0.60440799  1
  Cd  Cd10  1  0.66666700  0.33333300  0.35415442  1
  Cd  Cd11  1  -0.00000000  -0.00000000  0.68737299  1
  I  I0  1  0.00000000  0.00000000  0.16743492  1
  I  I1  1  0.66666700  0.33333300  0.83410123  1
  I  I2  1  0.33333300  0.66666700  0.79087167  1
  I  I3  1  0.00000000  0.00000000  0.41728785  1
  I  I4  1  0.66666700  0.33333300  0.08411584  1
  I  I5  1  0.33333300  0.66666700  0.45747097  1
  I  I6  1  0.33333300  0.66666700  0.20755334  1
  I  I7  1  0.33333300  0.66666700  0.95748946  1
  I  I8  1  0.66666700  0.33333300  0.91728845  1
  I  I9  1  0.00000000  -0.00000000  0.58443947  1
  I  I10  1  0.33333300  0.66666700  0.54104482  1
  I  I11  1  0.33333300  0.66666700  0.12437818  1
  I  I12  1  0.33333300  0.66666700  0.04089589  1
  I  I13  1  0.00000000  -0.00000000  0.75062173  1
  I  I14  1  0.33333300  0.66666700  0.29104472  1
  I  I15  1  0.33333300  0.66666700  0.37421728  1
  I  I16  1  0.00000000  -0.00000000  0.33410105  1
  I  I17  1  0.33333300  0.66666700  0.62437974  1
  I  I18  1  0.33333300  0.66666700  0.70747511  1
  I  I19  1  0.00000000  0.00000000  0.00076829  1
  I  I20  1  0.66666700  0.33333300  0.66728847  1
  I  I21  1  0.66666700  0.33333300  0.25078280  1
  I  I22  1  0.33333300  0.66666700  0.87421880  1
  I  I23  1  0.00000000  0.00000000  0.50078227  1
loop_
_geom_bond_atom_site_label_1
_geom_bond_atom_site_label_2
_geom_bond_distance
_geom_bond_site_symmetry_2
Cd0 I21 3.015944 1_455
Cd0 I21 3.015947 1_555
Cd0 I21 3.015947 1_445
Cd0 I14 3.017762 1_545
Cd0 I14 3.017764 1_445
Cd0 I14 3.017765 1_555
Cd1 I8 3.015297 1_455
Cd1 I8 3.015300 1_555
Cd1 I8 3.015300 1_445
Cd1 I7 3.015413 1_545
Cd1 I7 3.015416 1_445
Cd1 I7 3.015417 1_555
Cd2 I19 3.013425 1_655
Cd2 I19 3.013428 1_555
Cd2 I19 3.013428 1_665
Cd2 I12 3.013679 1_655
Cd2 I12 3.013680 1_545
Cd2 I12 3.013686 1_555
Cd3 I13 3.016484 1_655
Cd3 I13 3.016487 1_555
Cd3 I13 3.016487 1_665
Cd3 I2 3.016632 1_655
Cd3 I2 3.016632 1_545
Cd3 I2 3.016638 1_555
Cd4 I4 3.016108 1_455
Cd4 I4 3.016110 1_555
Cd4 I4 3.016111 1_445
Cd4 I11 3.017619 1_545
Cd4 I11 3.017622 1_445
Cd4 I11 3.017622 1_555
Cd5 I22 3.012854 1_545
Cd5 I22 3.012857 1_445
Cd5 I22 3.012857 1_555
Cd5 I1 3.013758 1_455
Cd5 I1 3.013761 1_555
Cd5 I1 3.013762 1_445
Cd6 I3 3.014420 1_655
Cd6 I3 3.014423 1_555
Cd6 I3 3.014423 1_665
Cd6 I5 3.015411 1_655
Cd6 I5 3.015412 1_545
Cd6 I5 3.015417 1_555
Cd7 I0 3.012896 1_655
Cd7 I0 3.012899 1_555
Cd7 I0 3.012899 1_665
Cd7 I6 3.013758 1_655
Cd7 I6 3.013758 1_545
Cd7 I6 3.013764 1_555
Cd8 I23 3.016150 1_655
Cd8 I23 3.016153 1_555
Cd8 I23 3.016153 1_665
Cd8 I10 3.017587 1_655
Cd8 I10 3.017587 1_545
Cd8 I10 3.017593 1_555
Cd9 I9 3.008883 1_655
Cd9 I9 3.008886 1_555
Cd9 I9 3.008886 1_665
Cd9 I17 3.009041 1_655
Cd9 I17 3.009041 1_545
Cd9 I17 3.009047 1_555
Cd10 I16 3.013040 1_655
Cd10 I16 3.013043 1_555
Cd10 I16 3.013044 1_665
Cd10 I15 3.013506 1_655
Cd10 I15 3.013506 1_545
Cd10 I15 3.013512 1_555
Cd11 I20 3.014570 1_455
Cd11 I20 3.014573 1_555
Cd11 I20 3.014573 1_445
Cd11 I18 3.015435 1_545
Cd11 I18 3.015437 1_445
Cd11 I18 3.015438 1_555
