# generated using pymatgen
data_Y2Zr2O7
_symmetry_space_group_name_H-M   'P 1'
_cell_length_a   7.50115137
_cell_length_b   7.50115137
_cell_length_c   7.50115137
_cell_angle_alpha   60.00000000
_cell_angle_beta   60.00000000
_cell_angle_gamma   60.00000000
_symmetry_Int_Tables_number   1
_chemical_formula_structural   Y2Zr2O7
_chemical_formula_sum   'Y4 Zr4 O14'
_cell_volume   298.44808072
_cell_formula_units_Z   2
loop_
 _symmetry_equiv_pos_site_id
 _symmetry_equiv_pos_as_xyz
  1  'x, y, z'
loop_
 _atom_site_type_symbol
 _atom_site_label
 _atom_site_symmetry_multiplicity
 _atom_site_fract_x
 _atom_site_fract_y
 _atom_site_fract_z
 _atom_site_occupancy
  Y  Y0  1  0.12500000  0.12500000  0.12500000  1
  Y  Y1  1  0.62500000  0.12500000  0.12500000  1
  Y  Y2  1  0.12500000  0.62500000  0.12500000  1
  Y  Y3  1  0.12500000  0.12500000  0.62500000  1
  Zr  Zr0  1  0.62500000  0.12500000  0.62500000  1
  Zr  Zr1  1  0.62500000  0.62500000  0.12500000  1
  Zr  Zr2  1  0.62500000  0.62500000  0.62500000  1
  Zr  Zr3  1  0.12500000  0.62500000  0.62500000  1
  O  O0  1  0.53443100  0.53443100  0.96556900  1
  O  O1  1  0.71556900  0.71556900  0.28443100  1
  O  O2  1  0.28443100  0.71556900  0.71556900  1
  O  O3  1  0.28443100  0.71556900  0.28443100  1
  O  O4  1  0.96556900  0.53443100  0.96556900  1
  O  O5  1  0.71556900  0.28443100  0.28443100  1
  O  O6  1  0.96556900  0.96556900  0.53443100  1
  O  O7  1  0.28443100  0.28443100  0.71556900  1
  O  O8  1  0.96556900  0.53443100  0.53443100  1
  O  O9  1  0.53443100  0.96556900  0.53443100  1
  O  O10  1  0.00000000  0.00000000  0.00000000  1
  O  O11  1  0.71556900  0.28443100  0.71556900  1
  O  O12  1  0.53443100  0.96556900  0.96556900  1
  O  O13  1  0.25000000  0.25000000  0.25000000  1
loop_
_geom_bond_atom_site_label_1
_geom_bond_atom_site_label_2
_geom_bond_distance
_geom_bond_site_symmetry_2
O0 Zr1 2.107082 1_556
O0 Zr2 2.107082 1_555
O0 Y1 2.525299 1_556
O0 Y2 2.525299 1_556
O1 Zr1 2.107082 1_555
O1 Zr2 2.107082 1_555
O1 Y1 2.525299 1_565
O1 Y2 2.525299 1_655
O2 Zr2 2.107082 1_555
O2 Zr3 2.107082 1_555
O2 Y3 2.525299 1_565
O2 Y2 2.525299 1_556
O3 Zr1 2.107082 1_555
O3 Zr3 2.107082 1_555
O3 Y2 2.525299 1_555
O3 Y0 2.525299 1_565
O4 Zr3 2.107082 1_655
O4 Zr1 2.107082 1_556
O4 Y0 2.525299 1_656
O4 Y2 2.525299 1_656
O5 Zr1 2.107082 1_555
O5 Zr0 2.107082 1_555
O5 Y0 2.525299 1_655
O5 Y1 2.525299 1_555
O6 Zr0 2.107082 1_565
O6 Zr3 2.107082 1_655
O6 Y3 2.525299 1_665
O6 Y0 2.525299 1_665
O7 Zr3 2.107082 1_555
O7 Zr0 2.107082 1_555
O7 Y3 2.525299 1_555
O7 Y0 2.525299 1_556
O8 Zr2 2.107082 1_555
O8 Zr3 2.107082 1_655
O8 Y2 2.525299 1_655
O8 Y3 2.525299 1_655
O9 Zr0 2.107082 1_565
O9 Zr2 2.107082 1_555
O9 Y1 2.525299 1_565
O9 Y3 2.525299 1_565
O10 Y0 2.296749 1_555
O10 Y2 2.296749 1_545
O10 Y3 2.296749 1_554
O10 Y1 2.296749 1_455
O11 Zr0 2.107082 1_555
O11 Zr2 2.107082 1_555
O11 Y1 2.525299 1_556
O11 Y3 2.525299 1_655
O12 Zr0 2.107082 1_565
O12 Zr1 2.107082 1_556
O12 Y0 2.525299 1_566
O12 Y1 2.525299 1_566
O13 Y0 2.296749 1_555
O13 Y2 2.296749 1_555
O13 Y1 2.296749 1_555
O13 Y3 2.296749 1_555
