# generated using pymatgen
data_Na3Si3SnO9F
_symmetry_space_group_name_H-M   'P 1'
_cell_length_a   8.75381785
_cell_length_b   8.75381785
_cell_length_c   6.52107054
_cell_angle_alpha   77.06337995
_cell_angle_beta   77.06337995
_cell_angle_gamma   105.87606228
_symmetry_Int_Tables_number   1
_chemical_formula_structural   Na3Si3SnO9F
_chemical_formula_sum   'Na6 Si6 Sn2 O18 F2'
_cell_volume   446.25304464
_cell_formula_units_Z   2
loop_
 _symmetry_equiv_pos_site_id
 _symmetry_equiv_pos_as_xyz
  1  'x, y, z'
loop_
 _atom_site_type_symbol
 _atom_site_label
 _atom_site_symmetry_multiplicity
 _atom_site_fract_x
 _atom_site_fract_y
 _atom_site_fract_z
 _atom_site_occupancy
  Na  Na0  1  0.51169687  0.51169687  0.73719141  1
  Na  Na1  1  0.12248185  0.39402717  0.07849177  1
  Na  Na2  1  0.39402717  0.12248185  0.07849177  1
  Na  Na3  1  0.48830313  0.48830313  0.26280859  1
  Na  Na4  1  0.87751815  0.60597283  0.92150823  1
  Na  Na5  1  0.60597283  0.87751815  0.92150823  1
  Si  Si0  1  0.68753882  0.90836055  0.39917025  1
  Si  Si1  1  0.09163945  0.31246118  0.60082975  1
  Si  Si2  1  0.31246118  0.09163945  0.60082975  1
  Si  Si3  1  0.78542743  0.21457257  -0.00000000  1
  Si  Si4  1  0.21457257  0.78542743  -0.00000000  1
  Si  Si5  1  0.90836055  0.68753882  0.39917025  1
  Sn  Sn0  1  0.72327878  0.27672122  0.50000000  1
  Sn  Sn1  1  0.27672122  0.72327878  0.50000000  1
  O  O0  1  0.32891682  0.77377850  0.16107403  1
  O  O1  1  0.27513220  0.98251078  0.85909605  1
  O  O2  1  0.98251078  0.27513220  0.85909605  1
  O  O3  1  0.72486780  0.01748922  0.14090395  1
  O  O4  1  0.67418970  0.02584671  0.55587318  1
  O  O5  1  0.22622150  0.67108318  0.83892597  1
  O  O6  1  0.47853600  0.25211306  0.53569424  1
  O  O7  1  0.25211306  0.47853600  0.53569424  1
  O  O8  1  0.74788694  0.52146400  0.46430576  1
  O  O9  1  0.77377850  0.32891682  0.16107403  1
  O  O10  1  0.32581030  0.97415329  0.44412682  1
  O  O11  1  0.15656241  0.15656241  0.59195060  1
  O  O12  1  0.97415329  0.32581030  0.44412682  1
  O  O13  1  0.52146400  0.74788694  0.46430576  1
  O  O14  1  0.02584671  0.67418970  0.55587318  1
  O  O15  1  0.67108318  0.22622150  0.83892597  1
  O  O16  1  0.01748922  0.72486780  0.14090395  1
  O  O17  1  0.84343759  0.84343759  0.40804940  1
  F  F0  1  0.35082644  0.35082644  0.06950217  1
  F  F1  1  0.64917356  0.64917356  0.93049783  1
loop_
_geom_bond_atom_site_label_1
_geom_bond_atom_site_label_2
_geom_bond_distance
_geom_bond_site_symmetry_2
Na0 O13 2.374146 1_555
Na0 O8 2.374146 1_555
Na0 O6 2.849763 1_555
Na0 O7 2.849763 1_555
Na1 O12 2.297754 1_455
Na1 O2 2.320634 1_454
Na1 O5 2.368679 1_554
Na2 O10 2.297754 1_545
Na2 O1 2.320634 1_544
Na2 O15 2.368679 1_554
Na3 O7 2.374146 1_555
Na3 O6 2.374146 1_555
Na3 O13 2.849763 1_555
Na3 O8 2.849763 1_555
Na4 O14 2.297754 1_655
Na4 O16 2.320634 1_656
Na4 O9 2.368679 1_556
Na5 O4 2.297754 1_565
Na5 O3 2.320634 1_566
Na5 O0 2.368679 1_556
O0 Si4 1.610658 1_555
O0 Sn1 2.070959 1_555
O1 Si4 1.635076 1_556
O1 Si2 1.648706 1_565
O2 Si3 1.635076 1_556
O2 Si1 1.648706 1_655
O3 Si3 1.635076 1_555
O3 Si0 1.648706 1_545
O4 Si0 1.611966 1_545
O4 Sn0 2.048322 1_555
O5 Si4 1.610658 1_556
O5 Sn1 2.070959 1_555
O6 Si2 1.614400 1_555
O6 Sn0 2.047528 1_555
O7 Si1 1.614400 1_555
O7 Sn1 2.047528 1_555
O8 Si5 1.614400 1_555
O8 Sn0 2.047528 1_555
O9 Si3 1.610658 1_555
O9 Sn0 2.070959 1_555
O10 Si2 1.611966 1_565
O10 Sn1 2.048322 1_555
O11 Si1 1.622887 1_555
O11 Si2 1.622887 1_555
O12 Si1 1.611966 1_655
O12 Sn0 2.048322 1_555
O13 Si0 1.614400 1_555
O13 Sn1 2.047528 1_555
O14 Si5 1.611966 1_455
O14 Sn1 2.048322 1_555
O15 Si3 1.610658 1_556
O15 Sn0 2.070959 1_555
O16 Si4 1.635076 1_555
O16 Si5 1.648706 1_455
O17 Si0 1.622887 1_555
O17 Si5 1.622887 1_555
F0 Na2 2.124390 1_555
F0 Na1 2.124390 1_555
F0 Na0 2.201017 1_554
F0 Na3 2.247597 1_555
F1 Na4 2.124390 1_555
F1 Na5 2.124390 1_555
F1 Na3 2.201017 1_556
F1 Na0 2.247597 1_555
