# generated using pymatgen
data_V2ZnPbO7
_symmetry_space_group_name_H-M   'P 1'
_cell_length_a   15.07180000
_cell_length_b   7.02697500
_cell_length_c   11.56438101
_cell_angle_alpha   80.33353614
_cell_angle_beta   90.00000000
_cell_angle_gamma   90.00000000
_symmetry_Int_Tables_number   1
_chemical_formula_structural   V2ZnPbO7
_chemical_formula_sum   'V16 Zn8 Pb8 O56'
_cell_volume   1207.38446141
_cell_formula_units_Z   8
loop_
 _symmetry_equiv_pos_site_id
 _symmetry_equiv_pos_as_xyz
  1  'x, y, z'
loop_
 _atom_site_type_symbol
 _atom_site_label
 _atom_site_symmetry_multiplicity
 _atom_site_fract_x
 _atom_site_fract_y
 _atom_site_fract_z
 _atom_site_occupancy
  V  V0  1  0.70358100  0.47619200  0.80056000  1
  V  V1  1  0.98636100  0.40791800  0.32268700  1
  V  V2  1  0.36107000  0.13365400  0.98254400  1
  V  V3  1  0.63800000  0.15124000  0.47764000  1
  V  V4  1  0.36200000  0.84876000  0.52236000  1
  V  V5  1  0.29641900  0.52380800  0.19944000  1
  V  V6  1  0.86200000  0.15124000  0.97764000  1
  V  V7  1  0.79641900  0.47619200  0.30056000  1
  V  V8  1  0.01363900  0.59208200  0.67731300  1
  V  V9  1  0.48636100  0.59208200  0.17731300  1
  V  V10  1  0.20358100  0.52380800  0.69944000  1
  V  V11  1  0.13800000  0.84876000  0.02236000  1
  V  V12  1  0.63893000  0.86634600  0.01745600  1
  V  V13  1  0.13893000  0.13365400  0.48254400  1
  V  V14  1  0.86107000  0.86634600  0.51745600  1
  V  V15  1  0.51363900  0.40791800  0.82268700  1
  Zn  Zn0  1  0.75422500  0.98855600  0.24684200  1
  Zn  Zn1  1  0.32853600  0.64931300  0.92140300  1
  Zn  Zn2  1  0.82853600  0.35068700  0.57859700  1
  Zn  Zn3  1  0.24577500  0.01144400  0.75315800  1
  Zn  Zn4  1  0.74577500  0.98855600  0.74684200  1
  Zn  Zn5  1  0.25422500  0.01144400  0.25315800  1
  Zn  Zn6  1  0.67146400  0.35068700  0.07859700  1
  Zn  Zn7  1  0.17146400  0.64931300  0.42140300  1
  Pb  Pb0  1  0.51361200  0.92024700  0.73596900  1
  Pb  Pb1  1  0.48638800  0.07975300  0.26403100  1
  Pb  Pb2  1  0.37106900  0.34150300  0.53267900  1
  Pb  Pb3  1  0.12893100  0.34150300  0.03267900  1
  Pb  Pb4  1  0.62893100  0.65849700  0.46732100  1
  Pb  Pb5  1  0.01361200  0.07975300  0.76403100  1
  Pb  Pb6  1  0.98638800  0.92024700  0.23596900  1
  Pb  Pb7  1  0.87106900  0.65849700  0.96732100  1
  O  O0  1  0.60419900  0.56399500  0.72122200  1
  O  O1  1  0.10419900  0.43600500  0.77877800  1
  O  O2  1  0.78867700  0.67602500  0.54342400  1
  O  O3  1  0.65328300  0.99820900  0.37363000  1
  O  O4  1  0.53291700  0.23825200  0.45516300  1
  O  O5  1  0.35613400  0.99387800  0.38312300  1
  O  O6  1  0.85822100  0.96250000  0.36750400  1
  O  O7  1  0.55884000  0.40738400  0.16885900  1
  O  O8  1  0.15328300  0.00179100  0.12637000  1
  O  O9  1  0.21474000  0.65289500  0.04497100  1
  O  O10  1  0.96858100  0.77282200  0.54994500  1
  O  O11  1  0.46708300  0.76174800  0.54483700  1
  O  O12  1  0.76641100  0.68144300  0.79485300  1
  O  O13  1  0.64177900  0.96250000  0.86750400  1
  O  O14  1  0.75278200  0.31023900  0.22024800  1
  O  O15  1  0.16427500  0.96069700  0.39197200  1
  O  O16  1  0.23358900  0.31855700  0.20514700  1
  O  O17  1  0.25278200  0.68976100  0.27975200  1
  O  O18  1  0.03291700  0.76174800  0.04483700  1
  O  O19  1  0.83572500  0.03930300  0.60802800  1
  O  O20  1  0.98366400  0.71875400  0.78525900  1
  O  O21  1  0.38001600  0.61401000  0.08397900  1
  O  O22  1  0.84671700  0.99820900  0.87363000  1
  O  O23  1  0.28867700  0.32397500  0.95657600  1
  O  O24  1  0.89580100  0.56399500  0.22122200  1
  O  O25  1  0.64386600  0.00612200  0.61687700  1
  O  O26  1  0.01633600  0.28124600  0.21474100  1
  O  O27  1  0.53141900  0.77282200  0.04994500  1
  O  O28  1  0.94116000  0.40738400  0.66885900  1
  O  O29  1  0.33572500  0.96069700  0.89197200  1
  O  O30  1  0.61998400  0.38599000  0.91602100  1
  O  O31  1  0.35822100  0.03750000  0.13249600  1
  O  O32  1  0.24721800  0.68976100  0.77975200  1
  O  O33  1  0.21132300  0.32397500  0.45657600  1
  O  O34  1  0.74721800  0.31023900  0.72024800  1
  O  O35  1  0.48366400  0.28124600  0.71474100  1
  O  O36  1  0.46858100  0.22717800  0.95005500  1
  O  O37  1  0.88001600  0.38599000  0.41602100  1
  O  O38  1  0.26641100  0.31855700  0.70514700  1
  O  O39  1  0.51633600  0.71875400  0.28525900  1
  O  O40  1  0.96708300  0.23825200  0.95516300  1
  O  O41  1  0.39580100  0.43600500  0.27877800  1
  O  O42  1  0.85613400  0.00612200  0.11687700  1
  O  O43  1  0.14177900  0.03750000  0.63249600  1
  O  O44  1  0.28526000  0.65289500  0.54497100  1
  O  O45  1  0.78526000  0.34710500  0.95502900  1
  O  O46  1  0.73358900  0.68144300  0.29485300  1
  O  O47  1  0.66427500  0.03930300  0.10802800  1
  O  O48  1  0.05884000  0.59261600  0.33114100  1
  O  O49  1  0.71132300  0.67602500  0.04342400  1
  O  O50  1  0.71474000  0.34710500  0.45502900  1
  O  O51  1  0.34671700  0.00179100  0.62637000  1
  O  O52  1  0.03141900  0.22717800  0.45005500  1
  O  O53  1  0.14386600  0.99387800  0.88312300  1
  O  O54  1  0.44116000  0.59261600  0.83114100  1
  O  O55  1  0.11998400  0.61401000  0.58397900  1
loop_
_geom_bond_atom_site_label_1
_geom_bond_atom_site_label_2
_geom_bond_distance
_geom_bond_site_symmetry_2
O0 V0 1.809964 1_555
O0 V15 2.002614 1_555
O0 Pb0 2.881563 1_555
O1 V10 1.809964 1_555
O1 V8 2.002614 1_555
O1 Pb5 2.881563 1_555
O2 V14 1.713003 1_555
O2 Zn2 2.332490 1_555
O2 Pb4 2.573509 1_555
O3 V3 1.757995 1_565
O3 Zn0 2.121887 1_555
O3 Pb4 2.477605 1_555
O3 Pb1 2.831631 1_565
O4 V3 1.701890 1_555
O4 Pb1 2.728466 1_555
O4 Pb2 2.738392 1_555
O5 V4 1.757550 1_555
O5 Zn5 2.137986 1_565
O5 Pb1 2.415740 1_565
O6 V14 1.752714 1_555
O6 Zn0 2.086044 1_555
O6 Pb6 2.507016 1_555
O7 V9 1.711708 1_555
O7 Zn6 2.066224 1_555
O7 Pb1 2.617861 1_555
O8 V11 1.757995 1_545
O8 Zn5 2.121887 1_555
O8 Pb3 2.477605 1_555
O8 Pb6 2.831631 1_445
O9 V11 1.783134 1_555
O9 V5 2.232743 1_555
O9 Zn1 2.235245 1_554
O9 Pb3 2.566174 1_555
O10 V14 1.765159 1_555
O10 V8 1.901453 1_655
O11 V4 1.701890 1_555
O11 Pb0 2.728466 1_555
O11 Pb4 2.738392 1_555
O12 V0 1.717363 1_555
O12 Zn4 2.158681 1_555
O12 Pb7 2.526681 1_555
O13 V12 1.752714 1_556
O13 Zn4 2.086044 1_555
O13 Pb0 2.507016 1_555
O14 V7 1.737460 1_555
O14 Zn6 2.027298 1_555
O14 Zn0 2.229634 1_545
O15 V13 1.774147 1_565
O15 Zn5 2.085629 1_565
O15 Zn7 2.159910 1_555
O16 V5 1.717363 1_555
O16 Zn5 2.158681 1_555
O16 Pb3 2.526681 1_555
O17 V5 1.737460 1_555
O17 Zn7 2.027298 1_555
O17 Zn5 2.229634 1_565
O18 V11 1.701890 1_555
O18 Pb6 2.728466 1_455
O18 Pb7 2.738392 1_454
O19 V14 1.774147 1_545
O19 Zn4 2.085629 1_545
O19 Zn2 2.159910 1_555
O20 V8 1.711110 1_655
O20 Pb5 2.547523 1_665
O20 Pb7 2.681902 1_555
O21 V5 1.867588 1_555
O21 V9 1.924029 1_555
O21 Zn1 2.010390 1_554
O22 V6 1.757995 1_565
O22 Zn4 2.121887 1_555
O22 Pb7 2.477605 1_555
O22 Pb5 2.831631 1_665
O23 V2 1.713003 1_555
O23 Zn1 2.332490 1_555
O23 Pb3 2.573509 1_556
O24 V7 1.809964 1_555
O24 V1 2.002614 1_555
O24 Pb6 2.881563 1_555
O25 V3 1.757550 1_555
O25 Zn4 2.137986 1_545
O25 Pb0 2.415740 1_545
O26 V1 1.711110 1_455
O26 Pb6 2.547523 1_445
O26 Pb3 2.681902 1_555
O27 V12 1.765159 1_555
O27 V9 1.901453 1_555
O28 V8 1.711708 1_655
O28 Zn2 2.066224 1_555
O28 Pb5 2.617861 1_655
O29 V2 1.774147 1_565
O29 Zn3 2.085629 1_565
O29 Zn1 2.159910 1_555
O30 V0 1.867588 1_555
O30 V15 1.924029 1_555
O30 Zn6 2.010390 1_556
O31 V2 1.752714 1_554
O31 Zn5 2.086044 1_555
O31 Pb1 2.507016 1_555
O32 V10 1.737460 1_555
O32 Zn1 2.027298 1_555
O32 Zn3 2.229634 1_565
O33 V13 1.713003 1_555
O33 Zn7 2.332490 1_555
O33 Pb2 2.573509 1_555
O34 V0 1.737460 1_555
O34 Zn2 2.027298 1_555
O34 Zn4 2.229634 1_545
O35 V15 1.711110 1_555
O35 Pb0 2.547523 1_545
O35 Pb2 2.681902 1_555
O36 V2 1.765159 1_555
O36 V15 1.901453 1_555
O37 V7 1.867588 1_555
O37 V1 1.924029 1_555
O37 Zn2 2.010390 1_555
O38 V10 1.717363 1_555
O38 Zn3 2.158681 1_555
O38 Pb2 2.526681 1_555
O39 V9 1.711110 1_555
O39 Pb1 2.547523 1_565
O39 Pb4 2.681902 1_555
O40 V6 1.701890 1_555
O40 Pb5 2.728466 1_655
O40 Pb3 2.738392 1_656
O41 V5 1.809964 1_555
O41 V9 2.002614 1_555
O41 Pb1 2.881563 1_555
O42 V6 1.757550 1_554
O42 Zn0 2.137986 1_545
O42 Pb6 2.415740 1_545
O43 V13 1.752714 1_555
O43 Zn3 2.086044 1_555
O43 Pb5 2.507016 1_555
O44 V4 1.783134 1_555
O44 V10 2.232743 1_555
O44 Zn7 2.235245 1_555
O44 Pb2 2.566174 1_555
O45 V6 1.783134 1_555
O45 V0 2.232743 1_555
O45 Zn6 2.235245 1_556
O45 Pb7 2.566174 1_555
O46 V7 1.717363 1_555
O46 Zn0 2.158681 1_555
O46 Pb4 2.526681 1_555
O47 V12 1.774147 1_545
O47 Zn0 2.085629 1_545
O47 Zn6 2.159910 1_555
O48 V1 1.711708 1_455
O48 Zn7 2.066224 1_555
O48 Pb6 2.617861 1_455
O49 V12 1.713003 1_555
O49 Zn6 2.332490 1_555
O49 Pb7 2.573509 1_554
O50 V3 1.783134 1_555
O50 V7 2.232743 1_555
O50 Zn2 2.235245 1_555
O50 Pb4 2.566174 1_555
O51 V4 1.757995 1_545
O51 Zn3 2.121887 1_555
O51 Pb2 2.477605 1_555
O51 Pb0 2.831631 1_545
O52 V13 1.765159 1_555
O52 V1 1.901453 1_455
O53 V11 1.757550 1_556
O53 Zn3 2.137986 1_565
O53 Pb5 2.415740 1_565
O54 V15 1.711708 1_555
O54 Zn1 2.066224 1_555
O54 Pb0 2.617861 1_555
O55 V10 1.867588 1_555
O55 V8 1.924029 1_555
O55 Zn7 2.010390 1_555
