# generated using pymatgen
data_NaCa4(BO3)3
_symmetry_space_group_name_H-M   'P 1'
_cell_length_a   6.56002451
_cell_length_b   6.56002451
_cell_length_c   10.77738000
_cell_angle_alpha   90.00000000
_cell_angle_beta   90.00000000
_cell_angle_gamma   120.20676618
_symmetry_Int_Tables_number   1
_chemical_formula_structural   NaCa4(BO3)3
_chemical_formula_sum   'Na2 Ca8 B6 O18'
_cell_volume   400.81698610
_cell_formula_units_Z   2
loop_
 _symmetry_equiv_pos_site_id
 _symmetry_equiv_pos_as_xyz
  1  'x, y, z'
loop_
 _atom_site_type_symbol
 _atom_site_label
 _atom_site_symmetry_multiplicity
 _atom_site_fract_x
 _atom_site_fract_y
 _atom_site_fract_z
 _atom_site_occupancy
  Na  Na0  1  0.53619100  0.38646500  0.25000000  1
  Na  Na1  1  0.38646500  0.53619100  0.75000000  1
  Ca  Ca0  1  0.17730900  0.60544000  0.47209700  1
  Ca  Ca1  1  0.60544000  0.17730900  0.52790300  1
  Ca  Ca2  1  0.17730900  0.60544000  0.02790300  1
  Ca  Ca3  1  0.60544000  0.17730900  0.97209700  1
  Ca  Ca4  1  0.03273800  0.03273800  0.50000000  1
  Ca  Ca5  1  0.03273800  0.03273800  0.00000000  1
  Ca  Ca6  1  0.60843800  0.90768900  0.25000000  1
  Ca  Ca7  1  0.90768900  0.60843800  0.75000000  1
  B  B0  1  0.16804900  0.92445300  0.25000000  1
  B  B1  1  0.92445300  0.16804900  0.75000000  1
  B  B2  1  0.01177600  0.35614800  0.25000000  1
  B  B3  1  0.35614800  0.01177600  0.75000000  1
  B  B4  1  0.60768000  0.60768000  0.50000000  1
  B  B5  1  0.60768000  0.60768000  0.00000000  1
  O  O0  1  0.24626300  0.52910100  0.25000000  1
  O  O1  1  0.52910100  0.24626300  0.75000000  1
  O  O2  1  0.39700800  0.39700800  0.50000000  1
  O  O3  1  0.39700800  0.39700800  0.00000000  1
  O  O4  1  0.60994600  0.81546300  0.47129600  1
  O  O5  1  0.81546300  0.60994600  0.52870400  1
  O  O6  1  0.60994600  0.81546300  0.02870400  1
  O  O7  1  0.81546300  0.60994600  0.97129600  1
  O  O8  1  0.29950200  0.97616400  0.36100700  1
  O  O9  1  0.97616400  0.29950200  0.63899300  1
  O  O10  1  0.29950200  0.97616400  0.13899300  1
  O  O11  1  0.97616400  0.29950200  0.86100700  1
  O  O12  1  0.88785900  0.26874300  0.36114000  1
  O  O13  1  0.26874300  0.88785900  0.63886000  1
  O  O14  1  0.88785900  0.26874300  0.13886000  1
  O  O15  1  0.26874300  0.88785900  0.86114000  1
  O  O16  1  0.93116700  0.84269700  0.25000000  1
  O  O17  1  0.84269700  0.93116700  0.75000000  1
loop_
_geom_bond_atom_site_label_1
_geom_bond_atom_site_label_2
_geom_bond_distance
_geom_bond_site_symmetry_2
Na0 O0 2.506716 1_555
Na0 O10 2.623255 1_545
Na0 O8 2.623255 1_545
Na0 O16 2.804959 1_555
Na0 O2 2.856829 1_555
Na0 O3 2.856829 1_555
Na1 O1 2.506716 1_555
Na1 O11 2.623255 1_455
Na1 O9 2.623255 1_455
Na1 O17 2.804959 1_555
Na1 O2 2.856829 1_555
Na1 O3 2.856829 1_556
Ca0 O12 2.386175 1_455
Ca0 O13 2.429848 1_555
Ca0 O4 2.453266 1_555
Ca0 O2 2.453583 1_555
Ca0 O8 2.455360 1_555
Ca0 O5 2.465403 1_455
Ca0 O9 2.517854 1_455
Ca0 O0 2.532345 1_555
Ca1 O13 2.386175 1_545
Ca1 O12 2.429848 1_555
Ca1 O5 2.453266 1_555
Ca1 O2 2.453583 1_555
Ca1 O9 2.455360 1_555
Ca1 O4 2.465403 1_545
Ca1 O8 2.517854 1_545
Ca1 O1 2.532345 1_555
Ca2 O14 2.386175 1_455
Ca2 O15 2.429848 1_554
Ca2 O6 2.453266 1_555
Ca2 O3 2.453583 1_555
Ca2 O10 2.455360 1_555
Ca2 O7 2.465403 1_454
Ca2 O11 2.517854 1_454
Ca2 O0 2.532345 1_555
Ca3 O15 2.386175 1_545
Ca3 O14 2.429848 1_556
Ca3 O7 2.453266 1_555
Ca3 O3 2.453583 1_556
Ca3 O11 2.455360 1_555
Ca3 O6 2.465403 1_546
Ca3 O10 2.517854 1_546
Ca3 O1 2.532345 1_555
Ca4 O2 2.382148 1_555
Ca4 O4 2.416989 1_445
Ca4 O5 2.416989 1_445
Ca4 O8 2.469337 1_545
Ca4 O9 2.469337 1_455
Ca4 O12 2.649615 1_455
Ca4 O13 2.649615 1_545
Ca4 O16 2.902034 1_445
Ca4 O17 2.902034 1_445
Ca5 O3 2.382148 1_555
Ca5 O6 2.416989 1_445
Ca5 O7 2.416989 1_444
Ca5 O10 2.469337 1_545
Ca5 O11 2.469337 1_454
Ca5 O15 2.649615 1_544
Ca5 O14 2.649615 1_455
Ca5 O16 2.902034 1_445
Ca5 O17 2.902034 1_444
Ca6 O16 2.360549 1_555
Ca6 O0 2.423912 1_555
Ca6 O14 2.456809 1_565
Ca6 O12 2.456809 1_565
Ca6 O6 2.461774 1_555
Ca6 O4 2.461774 1_555
Ca6 O10 2.579986 1_555
Ca6 O8 2.579986 1_555
Ca7 O17 2.360549 1_555
Ca7 O1 2.423912 1_555
Ca7 O15 2.456809 1_655
Ca7 O13 2.456809 1_655
Ca7 O7 2.461774 1_555
Ca7 O5 2.461774 1_555
Ca7 O11 2.579986 1_555
Ca7 O9 2.579986 1_555
B0 O16 1.365205 1_455
B0 O10 1.412668 1_555
B0 O8 1.412668 1_555
B1 O17 1.365205 1_545
B1 O11 1.412668 1_555
B1 O9 1.412668 1_555
B2 O0 1.377425 1_555
B2 O14 1.398313 1_455
B2 O12 1.398313 1_455
B3 O1 1.377425 1_555
B3 O13 1.398313 1_545
B3 O15 1.398313 1_545
B4 O2 1.377692 1_555
B4 O5 1.390492 1_555
B4 O4 1.390492 1_555
B5 O3 1.377692 1_555
B5 O7 1.390492 1_554
B5 O6 1.390492 1_555
