# generated using pymatgen
data_Li6CoCl8
_symmetry_space_group_name_H-M   'P 1'
_cell_length_a   7.28065285
_cell_length_b   7.28065285
_cell_length_c   7.28065285
_cell_angle_alpha   60.00000000
_cell_angle_beta   60.00000000
_cell_angle_gamma   60.00000000
_symmetry_Int_Tables_number   1
_chemical_formula_structural   Li6CoCl8
_chemical_formula_sum   'Li6 Co1 Cl8'
_cell_volume   272.89524808
_cell_formula_units_Z   1
loop_
 _symmetry_equiv_pos_site_id
 _symmetry_equiv_pos_as_xyz
  1  'x, y, z'
loop_
 _atom_site_type_symbol
 _atom_site_label
 _atom_site_symmetry_multiplicity
 _atom_site_fract_x
 _atom_site_fract_y
 _atom_site_fract_z
 _atom_site_occupancy
  Li  Li0  1  0.50000000  0.50000000  0.00000000  1
  Li  Li1  1  0.00000000  0.50000000  0.50000000  1
  Li  Li2  1  0.50000000  0.00000000  0.00000000  1
  Li  Li3  1  0.00000000  0.00000000  0.50000000  1
  Li  Li4  1  0.00000000  0.50000000  0.00000000  1
  Li  Li5  1  0.50000000  0.00000000  0.50000000  1
  Co  Co0  1  0.00000000  0.00000000  0.00000000  1
  Cl  Cl0  1  0.75000000  0.75000000  0.75000000  1
  Cl  Cl1  1  0.25000000  0.25000000  0.25000000  1
  Cl  Cl2  1  0.23744200  0.23744200  0.76255800  1
  Cl  Cl3  1  0.23744200  0.76255800  0.76255800  1
  Cl  Cl4  1  0.76255800  0.23744200  0.23744200  1
  Cl  Cl5  1  0.23744200  0.76255800  0.23744200  1
  Cl  Cl6  1  0.76255800  0.23744200  0.76255800  1
  Cl  Cl7  1  0.76255800  0.76255800  0.23744200  1
loop_
_geom_bond_atom_site_label_1
_geom_bond_atom_site_label_2
_geom_bond_distance
_geom_bond_site_symmetry_2
Cl0 Li2 2.574099 1_566
Cl0 Li3 2.574099 1_665
Cl0 Li5 2.574099 1_565
Cl0 Li1 2.574099 1_655
Cl0 Li4 2.574099 1_656
Cl0 Li0 2.574099 1_556
Cl1 Li2 2.574099 1_555
Cl1 Li3 2.574099 1_555
Cl1 Li0 2.574099 1_555
Cl1 Li1 2.574099 1_555
Cl1 Li4 2.574099 1_555
Cl1 Li5 2.574099 1_555
Cl2 Co0 2.444797 1_556
Cl2 Li1 2.577345 1_555
Cl2 Li5 2.577345 1_555
Cl2 Li4 2.577345 1_556
Cl2 Li2 2.577345 1_556
Cl3 Co0 2.444797 1_566
Cl3 Li3 2.577345 1_565
Cl3 Li4 2.577345 1_556
Cl3 Li0 2.577345 1_556
Cl3 Li5 2.577345 1_565
Cl4 Co0 2.444797 1_655
Cl4 Li0 2.577345 1_555
Cl4 Li5 2.577345 1_555
Cl4 Li3 2.577345 1_655
Cl4 Li4 2.577345 1_655
Cl5 Co0 2.444797 1_565
Cl5 Li0 2.577345 1_555
Cl5 Li1 2.577345 1_555
Cl5 Li3 2.577345 1_565
Cl5 Li2 2.577345 1_565
Cl6 Co0 2.444797 1_656
Cl6 Li3 2.577345 1_655
Cl6 Li2 2.577345 1_556
Cl6 Li1 2.577345 1_655
Cl6 Li0 2.577345 1_556
Cl7 Co0 2.444797 1_665
Cl7 Li4 2.577345 1_655
Cl7 Li2 2.577345 1_565
Cl7 Li1 2.577345 1_655
Cl7 Li5 2.577345 1_565
