# generated using pymatgen
data_K2NiP2WO10
_symmetry_space_group_name_H-M   'P 1'
_cell_length_a   9.30495300
_cell_length_b   9.30495300
_cell_length_c   10.82662400
_cell_angle_alpha   90.00000000
_cell_angle_beta   90.00000000
_cell_angle_gamma   90.00000000
_symmetry_Int_Tables_number   1
_chemical_formula_structural   K2NiP2WO10
_chemical_formula_sum   'K8 Ni4 P8 W4 O40'
_cell_volume   937.39238676
_cell_formula_units_Z   4
loop_
 _symmetry_equiv_pos_site_id
 _symmetry_equiv_pos_as_xyz
  1  'x, y, z'
loop_
 _atom_site_type_symbol
 _atom_site_label
 _atom_site_symmetry_multiplicity
 _atom_site_fract_x
 _atom_site_fract_y
 _atom_site_fract_z
 _atom_site_occupancy
  K  K0  1  0.99846300  0.71252400  0.04394800  1
  K  K1  1  0.28747600  0.00153700  0.45605200  1
  K  K2  1  0.78747600  0.49846300  0.29394800  1
  K  K3  1  0.50153700  0.21252400  0.20605200  1
  K  K4  1  0.49846300  0.78747600  0.70605200  1
  K  K5  1  0.00153700  0.28747600  0.54394800  1
  K  K6  1  0.71252400  0.99846300  0.95605200  1
  K  K7  1  0.21252400  0.50153700  0.79394800  1
  Ni  Ni0  1  0.63566200  0.63566200  0.00000000  1
  Ni  Ni1  1  0.86433800  0.13566200  0.25000000  1
  Ni  Ni2  1  0.36433800  0.36433800  0.50000000  1
  Ni  Ni3  1  0.13566200  0.86433800  0.75000000  1
  P  P0  1  0.32975800  0.82278800  0.00217000  1
  P  P1  1  0.67721200  0.82975800  0.25217000  1
  P  P2  1  0.17721200  0.67024200  0.49783000  1
  P  P3  1  0.67024200  0.17721200  0.50217000  1
  P  P4  1  0.82975800  0.67721200  0.74783000  1
  P  P5  1  0.82278800  0.32975800  0.99783000  1
  P  P6  1  0.32278800  0.17024200  0.75217000  1
  P  P7  1  0.17024200  0.32278800  0.24783000  1
  W  W0  1  0.11149400  0.11149400  0.00000000  1
  W  W1  1  0.88850600  0.88850600  0.50000000  1
  W  W2  1  0.61149400  0.38850600  0.75000000  1
  W  W3  1  0.38850600  0.61149400  0.25000000  1
  O  O0  1  0.45617000  0.49298900  0.36899200  1
  O  O1  1  0.78129000  0.76065600  0.62885800  1
  O  O2  1  0.25563800  0.26255000  0.35765200  1
  O  O3  1  0.21871000  0.23934400  0.12885800  1
  O  O4  1  0.21734600  0.48420000  0.22097000  1
  O  O5  1  0.71734600  0.01580000  0.52903000  1
  O  O6  1  0.23745000  0.75563700  0.60765200  1
  O  O7  1  0.98420000  0.28265400  0.97097000  1
  O  O8  1  0.78265400  0.51580000  0.72097000  1
  O  O9  1  0.73934400  0.28129000  0.87885800  1
  O  O10  1  0.31677200  0.00832800  0.73211400  1
  O  O11  1  0.50701100  0.54383000  0.13100800  1
  O  O12  1  0.26255000  0.25563800  0.64234800  1
  O  O13  1  0.28265400  0.98420000  0.02903000  1
  O  O14  1  0.95617000  0.00701100  0.38100800  1
  O  O15  1  0.49298900  0.45617000  0.63100800  1
  O  O16  1  0.71871000  0.26065600  0.62114200  1
  O  O17  1  0.76255000  0.24436200  0.10765200  1
  O  O18  1  0.49167200  0.81677200  0.98211400  1
  O  O19  1  0.04383000  0.99298900  0.88100800  1
  O  O20  1  0.00701100  0.95617000  0.61899200  1
  O  O21  1  0.48420000  0.21734600  0.77903000  1
  O  O22  1  0.68322800  0.99167200  0.23211400  1
  O  O23  1  0.54383000  0.50701100  0.86899200  1
  O  O24  1  0.01580000  0.71734600  0.47097000  1
  O  O25  1  0.75563700  0.23745000  0.39234800  1
  O  O26  1  0.26065600  0.71871000  0.37885800  1
  O  O27  1  0.18322800  0.50832800  0.51788600  1
  O  O28  1  0.81677200  0.49167200  0.01788600  1
  O  O29  1  0.76065600  0.78129000  0.37114200  1
  O  O30  1  0.28129000  0.73934400  0.12114200  1
  O  O31  1  0.99167200  0.68322800  0.76788600  1
  O  O32  1  0.51580000  0.78265400  0.27903000  1
  O  O33  1  0.99298900  0.04383000  0.11899200  1
  O  O34  1  0.24436200  0.76255000  0.89234800  1
  O  O35  1  0.23934400  0.21871000  0.87114200  1
  O  O36  1  0.74436300  0.73745000  0.85765200  1
  O  O37  1  0.73745000  0.74436300  0.14234800  1
  O  O38  1  0.00832800  0.31677200  0.26788600  1
  O  O39  1  0.50832800  0.18322800  0.48211400  1
loop_
_geom_bond_atom_site_label_1
_geom_bond_atom_site_label_2
_geom_bond_distance
_geom_bond_site_symmetry_2
K0 O37 2.668589 1_555
K0 O28 2.675991 1_555
K0 O30 2.772465 1_655
K0 O34 2.854103 1_654
K0 O31 3.001890 1_554
K0 O36 3.116447 1_554
K0 O19 3.178179 1_654
K0 O33 3.188461 1_565
K1 O2 2.668588 1_555
K1 O39 2.675991 1_555
K1 O26 2.772465 1_545
K1 O6 2.854110 1_545
K1 O10 3.001890 1_555
K1 O12 3.116454 1_555
K1 O20 3.178179 1_545
K1 O14 3.188461 1_455
K2 O25 2.668589 1_555
K2 O38 2.675991 1_655
K2 O29 2.772465 1_555
K2 O37 2.854110 1_555
K2 O28 3.001890 1_555
K2 O17 3.116454 1_555
K2 O11 3.178179 1_555
K2 O0 3.188461 1_555
K3 O17 2.668588 1_555
K3 O22 2.675991 1_545
K3 O3 2.772465 1_555
K3 O2 2.854103 1_555
K3 O39 3.001890 1_555
K3 O25 3.116447 1_555
K3 O0 3.178179 1_555
K3 O11 3.188461 1_555
K4 O6 2.668589 1_555
K4 O10 2.675991 1_565
K4 O1 2.772465 1_555
K4 O36 2.854110 1_555
K4 O18 3.001890 1_555
K4 O34 3.116454 1_555
K4 O23 3.178179 1_555
K4 O15 3.188461 1_555
K5 O12 2.668588 1_555
K5 O27 2.675991 1_555
K5 O16 2.772465 1_455
K5 O25 2.854110 1_455
K5 O38 3.001890 1_555
K5 O2 3.116454 1_555
K5 O14 3.178179 1_455
K5 O20 3.188461 1_545
K6 O36 2.668589 1_555
K6 O18 2.675991 1_555
K6 O9 2.772465 1_565
K6 O17 2.854103 1_566
K6 O22 3.001890 1_556
K6 O37 3.116447 1_556
K6 O33 3.178179 1_566
K6 O19 3.188461 1_655
K7 O34 2.668588 1_555
K7 O31 2.675991 1_455
K7 O35 2.772465 1_555
K7 O12 2.854103 1_555
K7 O27 3.001890 1_555
K7 O6 3.116447 1_555
K7 O15 3.178179 1_555
K7 O23 3.188461 1_555
Ni0 O11 2.043275 1_555
Ni0 O23 2.043275 1_554
Ni0 O36 2.072497 1_554
Ni0 O37 2.072497 1_555
Ni0 O28 2.161616 1_555
Ni0 O18 2.161616 1_554
Ni1 O14 2.043275 1_555
Ni1 O33 2.043275 1_555
Ni1 O17 2.072493 1_555
Ni1 O25 2.072497 1_555
Ni1 O22 2.161616 1_545
Ni1 O38 2.161616 1_655
Ni2 O15 2.043275 1_555
Ni2 O0 2.043275 1_555
Ni2 O12 2.072493 1_555
Ni2 O2 2.072493 1_555
Ni2 O39 2.161616 1_555
Ni2 O27 2.161616 1_555
Ni3 O20 2.043275 1_555
Ni3 O19 2.043275 1_555
Ni3 O34 2.072493 1_555
Ni3 O6 2.072497 1_555
Ni3 O31 2.161616 1_455
Ni3 O10 2.161616 1_565
O0 W3 1.808864 1_555
O1 P4 1.570149 1_555
O1 W1 2.087300 1_555
O2 P7 1.536000 1_555
O3 P7 1.570149 1_555
O3 W0 2.087300 1_555
O4 P7 1.591374 1_555
O4 W3 2.009534 1_555
O5 P3 1.591374 1_555
O5 W1 2.009534 1_545
O6 P2 1.535995 1_555
O7 P5 1.591374 1_555
O7 W0 2.009534 1_656
O8 P4 1.591374 1_555
O8 W2 2.009534 1_555
O9 P5 1.570149 1_555
O9 W2 2.087300 1_555
O10 P6 1.523198 1_555
O11 W3 1.808864 1_555
O12 P6 1.536000 1_555
O13 P0 1.591374 1_555
O13 W0 2.009534 1_565
O14 W1 1.808864 1_545
O15 W2 1.808864 1_555
O16 P3 1.570149 1_555
O16 W2 2.087300 1_555
O17 P5 1.536000 1_554
O18 P0 1.523198 1_556
O19 W0 1.808864 1_566
O20 W1 1.808864 1_455
O21 P6 1.591374 1_555
O21 W2 2.009534 1_555
O22 P1 1.523198 1_555
O23 W2 1.808864 1_555
O24 P2 1.591374 1_555
O24 W1 2.009534 1_455
O25 P3 1.535995 1_555
O26 P2 1.570149 1_555
O26 W3 2.087300 1_555
O27 P2 1.523198 1_555
O28 P5 1.523198 1_554
O29 P1 1.570149 1_555
O29 W1 2.087300 1_555
O30 P0 1.570149 1_555
O30 W3 2.087300 1_555
O31 P4 1.523198 1_555
O32 P1 1.591374 1_555
O32 W3 2.009534 1_555
O33 W0 1.808864 1_655
O34 P0 1.536000 1_556
O35 P6 1.570149 1_555
O35 W0 2.087300 1_556
O36 P4 1.535995 1_555
O37 P1 1.535995 1_555
O38 P7 1.523198 1_555
O39 P3 1.523198 1_555
