# generated using pymatgen
data_Ba3LaIr2O9
_symmetry_space_group_name_H-M   'P 1'
_cell_length_a   6.02148933
_cell_length_b   6.02148933
_cell_length_c   15.16986281
_cell_angle_alpha   89.63412398
_cell_angle_beta   89.63412398
_cell_angle_gamma   119.96230284
_symmetry_Int_Tables_number   1
_chemical_formula_structural   Ba3LaIr2O9
_chemical_formula_sum   'Ba6 La2 Ir4 O18'
_cell_volume   476.48539359
_cell_formula_units_Z   2
loop_
 _symmetry_equiv_pos_site_id
 _symmetry_equiv_pos_as_xyz
  1  'x, y, z'
loop_
 _atom_site_type_symbol
 _atom_site_label
 _atom_site_symmetry_multiplicity
 _atom_site_fract_x
 _atom_site_fract_y
 _atom_site_fract_z
 _atom_site_occupancy
  Ba  Ba0  1  0.66968300  0.33610700  0.39777300  1
  Ba  Ba1  1  0.66389300  0.33031700  0.10222700  1
  Ba  Ba2  1  0.33610700  0.66968300  0.89777300  1
  Ba  Ba3  1  0.00087800  0.99912200  0.25000000  1
  Ba  Ba4  1  0.99912200  0.00087800  0.75000000  1
  Ba  Ba5  1  0.33031700  0.66389300  0.60222700  1
  La  La0  1  0.00000000  0.00000000  0.00000000  1
  La  La1  1  0.00000000  0.00000000  0.50000000  1
  Ir  Ir0  1  0.32636000  0.66038300  0.16703600  1
  Ir  Ir1  1  0.33961700  0.67364000  0.33296400  1
  Ir  Ir2  1  0.67364000  0.33961700  0.83296400  1
  Ir  Ir3  1  0.66038300  0.32636000  0.66703600  1
  O  O0  1  0.16267600  0.80850300  0.09387100  1
  O  O1  1  0.19149700  0.83732400  0.40612900  1
  O  O2  1  0.01803800  0.50709100  0.25424500  1
  O  O3  1  0.50709100  0.01803800  0.75424500  1
  O  O4  1  0.83732400  0.19149700  0.90612900  1
  O  O5  1  0.80989300  0.62616000  0.58700100  1
  O  O6  1  0.62616000  0.80989300  0.08700100  1
  O  O7  1  0.16455800  0.34491000  0.09682200  1
  O  O8  1  0.37384000  0.19010700  0.91299900  1
  O  O9  1  0.65509000  0.83544200  0.40317800  1
  O  O10  1  0.49290900  0.98196200  0.24575500  1
  O  O11  1  0.50897500  0.49102500  0.75000000  1
  O  O12  1  0.83544200  0.65509000  0.90317800  1
  O  O13  1  0.34491000  0.16455800  0.59682200  1
  O  O14  1  0.80850300  0.16267600  0.59387100  1
  O  O15  1  0.49102500  0.50897500  0.25000000  1
  O  O16  1  0.98196200  0.49290900  0.74575500  1
  O  O17  1  0.19010700  0.37384000  0.41299900  1
loop_
_geom_bond_atom_site_label_1
_geom_bond_atom_site_label_2
_geom_bond_distance
_geom_bond_site_symmetry_2
Ba0 O2 2.820727 1_655
Ba0 O15 2.895785 1_555
Ba0 O1 2.946149 1_545
Ba0 O10 2.970759 1_545
Ba0 O9 2.972423 1_545
Ba0 O17 3.015240 1_555
Ba0 O17 3.037094 1_655
Ba0 O9 3.053178 1_555
Ba0 O1 3.087930 1_655
Ba0 O5 3.259673 1_555
Ba0 O14 3.391559 1_555
Ba0 O13 3.446169 1_555
Ba1 O10 2.820727 1_545
Ba1 O15 2.895785 1_555
Ba1 O0 2.946149 1_655
Ba1 O2 2.970759 1_655
Ba1 O7 2.972423 1_655
Ba1 O6 3.015240 1_555
Ba1 O6 3.037094 1_545
Ba1 O7 3.053178 1_555
Ba1 O0 3.087930 1_545
Ba1 O8 3.259673 1_554
Ba1 O4 3.391559 1_554
Ba1 O12 3.446169 1_554
Ba2 O3 2.820727 1_565
Ba2 O11 2.895785 1_555
Ba2 O4 2.946149 1_455
Ba2 O16 2.970759 1_455
Ba2 O12 2.972423 1_455
Ba2 O8 3.015240 1_555
Ba2 O8 3.037094 1_565
Ba2 O12 3.053178 1_555
Ba2 O4 3.087930 1_565
Ba2 O6 3.259673 1_556
Ba2 O0 3.391559 1_556
Ba2 O7 3.446169 1_556
Ba3 O9 2.926678 1_455
Ba3 O7 2.926678 1_565
Ba3 O1 2.999748 1_555
Ba3 O0 2.999748 1_555
Ba3 O2 3.009578 1_565
Ba3 O10 3.009578 1_455
Ba3 O15 3.014212 1_455
Ba3 O15 3.014212 1_565
Ba3 O10 3.015991 1_555
Ba3 O2 3.015991 1_555
Ba3 O17 3.169034 1_565
Ba3 O6 3.169034 1_455
Ba4 O12 2.926678 1_545
Ba4 O13 2.926678 1_655
Ba4 O4 2.999748 1_555
Ba4 O14 2.999748 1_555
Ba4 O3 3.009578 1_655
Ba4 O16 3.009578 1_545
Ba4 O11 3.014212 1_655
Ba4 O11 3.014212 1_545
Ba4 O3 3.015991 1_555
Ba4 O16 3.015991 1_555
Ba4 O8 3.169034 1_655
Ba4 O5 3.169034 1_545
Ba5 O16 2.820727 1_455
Ba5 O11 2.895785 1_555
Ba5 O14 2.946149 1_565
Ba5 O3 2.970759 1_565
Ba5 O13 2.972423 1_565
Ba5 O5 3.015240 1_555
Ba5 O5 3.037094 1_455
Ba5 O13 3.053178 1_555
Ba5 O14 3.087930 1_455
Ba5 O17 3.259673 1_555
Ba5 O1 3.391559 1_555
Ba5 O9 3.446169 1_555
La0 O0 2.332817 1_545
La0 O4 2.332817 1_454
La0 O7 2.335488 1_555
La0 O12 2.335488 1_444
La0 O6 2.342738 1_445
La0 O8 2.342738 1_554
La1 O14 2.332817 1_455
La1 O1 2.332817 1_545
La1 O13 2.335488 1_555
La1 O9 2.335488 1_445
La1 O5 2.342738 1_445
La1 O17 2.342738 1_555
Ir0 O6 1.969307 1_555
Ir0 O0 1.969322 1_555
Ir0 O7 1.970464 1_555
Ir0 O10 2.070372 1_555
Ir0 O2 2.071307 1_555
Ir0 O15 2.074250 1_555
Ir1 O17 1.969307 1_555
Ir1 O1 1.969322 1_555
Ir1 O9 1.970464 1_555
Ir1 O2 2.070372 1_555
Ir1 O10 2.071307 1_555
Ir1 O15 2.074250 1_555
Ir2 O8 1.969307 1_555
Ir2 O4 1.969322 1_555
Ir2 O12 1.970464 1_555
Ir2 O3 2.070372 1_555
Ir2 O16 2.071307 1_555
Ir2 O11 2.074250 1_555
Ir3 O5 1.969307 1_555
Ir3 O14 1.969322 1_555
Ir3 O13 1.970464 1_555
Ir3 O16 2.070372 1_555
Ir3 O3 2.071307 1_555
Ir3 O11 2.074250 1_555
