# generated using pymatgen
data_YCu(WO4)2
_symmetry_space_group_name_H-M   'P 1'
_cell_length_a   5.14979500
_cell_length_b   6.05981849
_cell_length_c   6.18357278
_cell_angle_alpha   108.64815761
_cell_angle_beta   91.84921049
_cell_angle_gamma   113.86265620
_symmetry_Int_Tables_number   1
_chemical_formula_structural   YCu(WO4)2
_chemical_formula_sum   'Y1 Cu1 W2 O8'
_cell_volume   164.27480700
_cell_formula_units_Z   1
loop_
 _symmetry_equiv_pos_site_id
 _symmetry_equiv_pos_as_xyz
  1  'x, y, z'
loop_
 _atom_site_type_symbol
 _atom_site_label
 _atom_site_symmetry_multiplicity
 _atom_site_fract_x
 _atom_site_fract_y
 _atom_site_fract_z
 _atom_site_occupancy
  Y  Y0  1  0.00000000  0.50000000  0.00000000  1
  Cu  Cu0  1  0.50000000  0.50000000  0.50000000  1
  W  W0  1  0.75062600  0.01316800  0.33551400  1
  W  W1  1  0.24937400  0.98683200  0.66448600  1
  O  O0  1  0.48436900  0.76208400  0.08138300  1
  O  O1  1  0.97828900  0.24431100  0.21398500  1
  O  O2  1  0.46259200  0.79669200  0.52551600  1
  O  O3  1  0.02731300  0.19244800  0.66948900  1
  O  O4  1  0.02171100  0.75568900  0.78601500  1
  O  O5  1  0.51563100  0.23791600  0.91861700  1
  O  O6  1  0.53740800  0.20330800  0.47448400  1
  O  O7  1  0.97268700  0.80755200  0.33051100  1
loop_
_geom_bond_atom_site_label_1
_geom_bond_atom_site_label_2
_geom_bond_distance
_geom_bond_site_symmetry_2
Cu0 O2 1.842615 1_555
Cu0 O6 1.842615 1_555
O0 W0 1.818916 1_565
O0 Y0 2.280397 1_555
O1 W0 1.817288 1_555
O1 Y0 2.311833 1_655
O2 W1 1.929519 1_555
O2 W0 2.196631 1_565
O3 W1 1.997925 1_545
O3 W0 2.144354 1_455
O3 Y0 2.337703 1_556
O4 W1 1.817288 1_555
O4 Y0 2.311833 1_556
O5 W1 1.818916 1_545
O5 Y0 2.280397 1_656
O6 W0 1.929519 1_555
O6 W1 2.196631 1_545
O7 W0 1.997925 1_565
O7 W1 2.144354 1_655
O7 Y0 2.337703 1_655
