# generated using pymatgen
data_Ti3Al2NiC
_symmetry_space_group_name_H-M   'P 1'
_cell_length_a   8.10155574
_cell_length_b   8.10155574
_cell_length_c   8.10155574
_cell_angle_alpha   60.00000000
_cell_angle_beta   60.00000000
_cell_angle_gamma   60.00000000
_symmetry_Int_Tables_number   1
_chemical_formula_structural   Ti3Al2NiC
_chemical_formula_sum   'Ti12 Al8 Ni4 C4'
_cell_volume   376.00210374
_cell_formula_units_Z   4
loop_
 _symmetry_equiv_pos_site_id
 _symmetry_equiv_pos_as_xyz
  1  'x, y, z'
loop_
 _atom_site_type_symbol
 _atom_site_label
 _atom_site_symmetry_multiplicity
 _atom_site_fract_x
 _atom_site_fract_y
 _atom_site_fract_z
 _atom_site_occupancy
  Ti  Ti0  1  0.93896200  0.93896200  0.56103800  1
  Ti  Ti1  1  0.68896200  0.31103800  0.31103800  1
  Ti  Ti2  1  0.31103800  0.68896200  0.68896200  1
  Ti  Ti3  1  0.68896200  0.68896200  0.31103800  1
  Ti  Ti4  1  0.68896200  0.31103800  0.68896200  1
  Ti  Ti5  1  0.31103800  0.68896200  0.31103800  1
  Ti  Ti6  1  0.56103800  0.93896200  0.56103800  1
  Ti  Ti7  1  0.56103800  0.93896200  0.93896200  1
  Ti  Ti8  1  0.93896200  0.56103800  0.56103800  1
  Ti  Ti9  1  0.93896200  0.56103800  0.93896200  1
  Ti  Ti10  1  0.31103800  0.31103800  0.68896200  1
  Ti  Ti11  1  0.56103800  0.56103800  0.93896200  1
  Al  Al0  1  0.91709800  0.24870700  0.91709800  1
  Al  Al1  1  0.33290200  0.33290200  0.00129300  1
  Al  Al2  1  0.00129300  0.33290200  0.33290200  1
  Al  Al3  1  0.33290200  0.33290200  0.33290200  1
  Al  Al4  1  0.24870700  0.91709800  0.91709800  1
  Al  Al5  1  0.91709800  0.91709800  0.91709800  1
  Al  Al6  1  0.91709800  0.91709800  0.24870700  1
  Al  Al7  1  0.33290200  0.00129300  0.33290200  1
  Ni  Ni0  1  0.12500000  0.62500000  0.12500000  1
  Ni  Ni1  1  0.12500000  0.12500000  0.62500000  1
  Ni  Ni2  1  0.62500000  0.12500000  0.12500000  1
  Ni  Ni3  1  0.12500000  0.12500000  0.12500000  1
  C  C0  1  0.62500000  0.12500000  0.62500000  1
  C  C1  1  0.62500000  0.62500000  0.12500000  1
  C  C2  1  0.12500000  0.62500000  0.62500000  1
  C  C3  1  0.62500000  0.62500000  0.62500000  1
loop_
_geom_bond_atom_site_label_1
_geom_bond_atom_site_label_2
_geom_bond_distance
_geom_bond_site_symmetry_2
Al0 Ni3 2.477742 1_656
Al0 Ni2 2.477749 1_556
Al0 Ni1 2.477749 1_655
Al0 Al4 2.686549 1_645
Al0 Al6 2.686549 1_546
Al0 Al5 2.686549 1_545
Al0 Ti9 2.719063 1_555
Al0 Ti11 2.719068 1_555
Al0 Ti8 2.719068 1_555
Al0 Ti10 2.938786 1_655
Al0 Ti1 2.938786 1_556
Al0 Ti4 2.938792 1_555
Al1 Ni3 2.477742 1_555
Al1 Ni2 2.477749 1_555
Al1 Ni0 2.477749 1_555
Al1 Al3 2.686549 1_555
Al1 Al2 2.686549 1_555
Al1 Al7 2.686549 1_555
Al1 Ti10 2.719063 1_554
Al1 Ti2 2.719068 1_554
Al1 Ti4 2.719068 1_554
Al1 Ti9 2.938786 1_454
Al1 Ti7 2.938786 1_544
Al1 Ti11 2.938792 1_554
Al2 Ni3 2.477742 1_555
Al2 Ni0 2.477749 1_555
Al2 Ni1 2.477749 1_555
Al2 Al3 2.686549 1_555
Al2 Al7 2.686549 1_555
Al2 Ti1 2.719063 1_455
Al2 Ti3 2.719068 1_455
Al2 Ti4 2.719068 1_455
Al2 Ti9 2.938786 1_454
Al2 Ti0 2.938786 1_445
Al2 Ti8 2.938792 1_455
Al3 Ni0 2.477745 1_555
Al3 Ni1 2.477745 1_555
Al3 Ni2 2.477745 1_555
Al3 Al7 2.686549 1_555
Al3 Ti10 2.719071 1_555
Al3 Ti1 2.719071 1_555
Al3 Ti5 2.719071 1_555
Al3 Ti11 2.938789 1_554
Al3 Ti8 2.938789 1_455
Al3 Ti6 2.938789 1_545
Al4 Ni3 2.477742 1_566
Al4 Ni0 2.477749 1_556
Al4 Ni1 2.477749 1_565
Al4 Al6 2.686549 1_456
Al4 Al5 2.686549 1_455
Al4 Ti7 2.719063 1_555
Al4 Ti6 2.719068 1_555
Al4 Ti11 2.719068 1_555
Al4 Ti10 2.938786 1_565
Al4 Ti5 2.938786 1_556
Al4 Ti2 2.938792 1_555
Al5 Ni2 2.477745 1_566
Al5 Ni1 2.477745 1_665
Al5 Ni0 2.477745 1_656
Al5 Al6 2.686549 1_556
Al5 Ti9 2.719071 1_555
Al5 Ti0 2.719071 1_555
Al5 Ti7 2.719071 1_555
Al5 Ti4 2.938789 1_565
Al5 Ti3 2.938789 1_556
Al5 Ti2 2.938789 1_655
Al6 Ni3 2.477742 1_665
Al6 Ni2 2.477749 1_565
Al6 Ni0 2.477749 1_655
Al6 Ti0 2.719063 1_555
Al6 Ti6 2.719068 1_555
Al6 Ti8 2.719068 1_555
Al6 Ti5 2.938786 1_655
Al6 Ti1 2.938786 1_565
Al6 Ti3 2.938792 1_555
Al7 Ni3 2.477742 1_555
Al7 Ni1 2.477749 1_555
Al7 Ni2 2.477749 1_555
Al7 Ti5 2.719063 1_545
Al7 Ti2 2.719068 1_545
Al7 Ti3 2.719068 1_545
Al7 Ti7 2.938786 1_544
Al7 Ti0 2.938786 1_445
Al7 Ti6 2.938792 1_545
Ni0 Ti5 2.940321 1_555
Ni0 Ti9 2.940321 1_454
Ni0 Ti11 2.940321 1_554
Ni0 Ti8 2.940321 1_455
Ni0 Ti2 2.940321 1_554
Ni0 Ti3 2.940321 1_455
Ni1 Ti10 2.940321 1_555
Ni1 Ti6 2.940321 1_545
Ni1 Ti4 2.940321 1_455
Ni1 Ti2 2.940321 1_545
Ni1 Ti8 2.940321 1_455
Ni1 Ti0 2.940321 1_445
Ni2 Ti1 2.940321 1_555
Ni2 Ti4 2.940321 1_554
Ni2 Ti11 2.940321 1_554
Ni2 Ti7 2.940321 1_544
Ni2 Ti6 2.940321 1_545
Ni2 Ti3 2.940321 1_545
Ni3 Ti5 2.940321 1_545
Ni3 Ti10 2.940321 1_554
Ni3 Ti9 2.940321 1_454
Ni3 Ti7 2.940321 1_544
Ni3 Ti0 2.940321 1_445
Ni3 Ti1 2.940321 1_455
C0 Ti4 2.153891 1_555
C0 Ti7 2.153891 1_545
C0 Ti6 2.153891 1_545
C0 Ti0 2.153891 1_545
C0 Ti1 2.153891 1_555
C0 Ti10 2.153891 1_555
C1 Ti3 2.153891 1_555
C1 Ti9 2.153891 1_554
C1 Ti7 2.153891 1_554
C1 Ti11 2.153891 1_554
C1 Ti1 2.153891 1_555
C1 Ti5 2.153891 1_555
C2 Ti2 2.153891 1_555
C2 Ti0 2.153891 1_455
C2 Ti8 2.153891 1_455
C2 Ti9 2.153891 1_455
C2 Ti10 2.153891 1_555
C2 Ti5 2.153891 1_555
C3 Ti11 2.153891 1_555
C3 Ti8 2.153891 1_555
C3 Ti6 2.153891 1_555
C3 Ti3 2.153891 1_555
C3 Ti4 2.153891 1_555
C3 Ti2 2.153891 1_555
