# generated using pymatgen
data_Li3TaO4
_symmetry_space_group_name_H-M   'P 1'
_cell_length_a   5.95815596
_cell_length_b   5.98245306
_cell_length_c   12.71407173
_cell_angle_alpha   103.56518645
_cell_angle_beta   90.00000000
_cell_angle_gamma   90.00000000
_symmetry_Int_Tables_number   1
_chemical_formula_structural   Li3TaO4
_chemical_formula_sum   'Li18 Ta6 O24'
_cell_volume   440.54311515
_cell_formula_units_Z   6
loop_
 _symmetry_equiv_pos_site_id
 _symmetry_equiv_pos_as_xyz
  1  'x, y, z'
loop_
 _atom_site_type_symbol
 _atom_site_label
 _atom_site_symmetry_multiplicity
 _atom_site_fract_x
 _atom_site_fract_y
 _atom_site_fract_z
 _atom_site_occupancy
  Li  Li0  1  0.12316829  0.17445688  0.09124173  1
  Li  Li1  1  0.62487238  0.87483826  0.41714699  1
  Li  Li2  1  0.87683171  0.82554312  0.90875827  1
  Li  Li3  1  0.62524259  0.32630385  0.42463868  1
  Li  Li4  1  0.12316829  0.82554312  0.40875827  1
  Li  Li5  1  0.60979596  -0.00000000  0.75000000  1
  Li  Li6  1  0.37512762  0.12516174  0.58285301  1
  Li  Li7  1  0.62487238  0.12516174  0.08285301  1
  Li  Li8  1  0.62524259  0.67369615  0.07536132  1
  Li  Li9  1  0.16675402  -0.00000000  0.75000000  1
  Li  Li10  1  0.37475741  0.67369615  0.57536132  1
  Li  Li11  1  0.37475741  0.32630385  0.92463868  1
  Li  Li12  1  0.39020404  -0.00000000  0.25000000  1
  Li  Li13  1  0.37512762  0.87483826  0.91714699  1
  Li  Li14  1  0.87683171  0.17445688  0.59124173  1
  Li  Li15  1  0.88079379  0.50000000  0.25000000  1
  Li  Li16  1  0.83324598  -0.00000000  0.25000000  1
  Li  Li17  1  0.11920621  0.50000000  0.75000000  1
  Ta  Ta0  1  0.87729292  0.70099815  0.58359923  1
  Ta  Ta1  1  0.41121897  0.50000000  0.25000000  1
  Ta  Ta2  1  0.12270708  0.29900185  0.41640077  1
  Ta  Ta3  1  0.12270708  0.70099815  0.08359923  1
  Ta  Ta4  1  0.58878103  0.50000000  0.75000000  1
  Ta  Ta5  1  0.87729292  0.29900185  0.91640077  1
  O  O0  1  0.63860507  0.90516881  0.57983370  1
  O  O1  1  0.35957497  0.56583387  0.40846897  1
  O  O2  1  0.88510546  0.90813528  0.08763192  1
  O  O3  1  0.64042503  0.43416613  0.59153103  1
  O  O4  1  0.13784464  0.73004000  0.24197856  1
  O  O5  1  0.88679370  0.57144039  0.42508294  1
  O  O6  1  0.36139493  0.90516881  0.07983370  1
  O  O7  1  0.35957497  0.43416613  0.09153103  1
  O  O8  1  0.63860507  0.09483119  0.92016630  1
  O  O9  1  0.36139493  0.09483119  0.42016630  1
  O  O10  1  0.61458292  0.74106893  0.25444770  1
  O  O11  1  0.38541708  0.74106893  0.75444770  1
  O  O12  1  0.11320630  0.57144039  0.92508294  1
  O  O13  1  0.13784464  0.26996000  0.25802144  1
  O  O14  1  0.61458292  0.25893107  0.24555230  1
  O  O15  1  0.11489454  0.09186472  0.91236808  1
  O  O16  1  0.86215536  0.73004000  0.74197856  1
  O  O17  1  0.88679370  0.42855961  0.07491706  1
  O  O18  1  0.64042503  0.56583387  0.90846897  1
  O  O19  1  0.11489454  0.90813528  0.58763192  1
  O  O20  1  0.11320630  0.42855961  0.57491706  1
  O  O21  1  0.88510546  0.09186472  0.41236808  1
  O  O22  1  0.38541708  0.25893107  0.74555230  1
  O  O23  1  0.86215536  0.26996000  0.75802144  1
loop_
_geom_bond_atom_site_label_1
_geom_bond_atom_site_label_2
_geom_bond_distance
_geom_bond_site_symmetry_2
Li0 O13 2.064477 1_555
Li0 O7 2.096501 1_555
Li0 O17 2.117884 1_455
Li0 O2 2.125599 1_445
Li0 O6 2.126365 1_545
Li0 O15 2.211669 1_554
Li1 O21 2.032361 1_565
Li1 O0 2.035161 1_555
Li1 O10 2.036323 1_555
Li1 O9 2.043106 1_565
Li1 O5 2.413694 1_555
Li1 O1 2.415035 1_555
Li2 O16 2.064477 1_555
Li2 O18 2.096501 1_555
Li2 O12 2.117884 1_655
Li2 O15 2.125599 1_665
Li2 O8 2.126365 1_565
Li2 O2 2.211669 1_556
Li3 O3 2.069940 1_555
Li3 O21 2.070267 1_555
Li3 O9 2.086917 1_555
Li3 O5 2.138998 1_555
Li3 O1 2.177021 1_555
Li3 O14 2.218182 1_555
Li4 O4 2.064477 1_555
Li4 O1 2.096501 1_555
Li4 O5 2.117884 1_455
Li4 O21 2.125599 1_465
Li4 O9 2.126365 1_565
Li4 O19 2.211669 1_555
Li5 O22 2.056960 1_555
Li5 O11 2.056960 1_545
Li5 O8 2.110995 1_555
Li5 O0 2.110995 1_545
Li5 O16 2.191401 1_545
Li5 O23 2.191401 1_555
Li6 O19 2.032361 1_545
Li6 O9 2.035161 1_555
Li6 O22 2.036323 1_555
Li6 O0 2.043106 1_545
Li6 O20 2.413694 1_555
Li6 O3 2.415035 1_555
Li7 O2 2.032361 1_545
Li7 O8 2.035161 1_554
Li7 O14 2.036323 1_555
Li7 O6 2.043106 1_545
Li7 O17 2.413694 1_555
Li7 O7 2.415035 1_555
Li8 O18 2.069940 1_554
Li8 O2 2.070267 1_555
Li8 O6 2.086917 1_555
Li8 O17 2.138998 1_555
Li8 O7 2.177021 1_555
Li8 O10 2.218182 1_555
Li9 O19 2.031472 1_545
Li9 O15 2.031472 1_555
Li9 O22 2.034990 1_555
Li9 O11 2.034990 1_545
Li9 O23 2.415596 1_455
Li9 O16 2.415596 1_445
Li10 O1 2.069940 1_555
Li10 O19 2.070267 1_555
Li10 O0 2.086917 1_555
Li10 O20 2.138998 1_555
Li10 O3 2.177021 1_555
Li10 O11 2.218182 1_555
Li11 O7 2.069940 1_556
Li11 O15 2.070267 1_555
Li11 O8 2.086917 1_555
Li11 O12 2.138998 1_555
Li11 O18 2.177021 1_555
Li11 O22 2.218182 1_555
Li12 O14 2.056960 1_555
Li12 O10 2.056960 1_545
Li12 O9 2.110995 1_555
Li12 O6 2.110995 1_545
Li12 O13 2.191401 1_555
Li12 O4 2.191401 1_545
Li13 O15 2.032361 1_565
Li13 O6 2.035161 1_556
Li13 O11 2.036323 1_555
Li13 O8 2.043106 1_565
Li13 O12 2.413694 1_555
Li13 O18 2.415035 1_555
Li14 O23 2.064477 1_555
Li14 O3 2.096501 1_555
Li14 O20 2.117884 1_655
Li14 O19 2.125599 1_645
Li14 O0 2.126365 1_545
Li14 O21 2.211669 1_555
Li15 O4 2.077455 1_655
Li15 O13 2.077455 1_655
Li15 O10 2.135563 1_555
Li15 O14 2.135563 1_555
Li15 O5 2.166287 1_555
Li15 O17 2.166287 1_555
Li16 O2 2.031472 1_545
Li16 O21 2.031472 1_555
Li16 O14 2.034990 1_555
Li16 O10 2.034990 1_545
Li16 O4 2.415596 1_645
Li16 O13 2.415596 1_655
Li17 O16 2.077455 1_455
Li17 O23 2.077455 1_455
Li17 O11 2.135563 1_555
Li17 O22 2.135563 1_555
Li17 O12 2.166287 1_555
Li17 O20 2.166287 1_555
O0 Ta0 1.882584 1_555
O1 Ta1 1.984167 1_555
O1 Ta2 2.150732 1_555
O2 Ta3 1.874173 1_655
O3 Ta4 1.984167 1_555
O3 Ta0 2.150732 1_555
O4 Ta3 1.982164 1_555
O4 Ta1 2.150160 1_555
O5 Ta0 1.983168 1_555
O5 Ta2 2.135401 1_655
O6 Ta3 1.882584 1_555
O7 Ta1 1.984167 1_555
O7 Ta3 2.150732 1_555
O8 Ta5 1.882584 1_555
O9 Ta2 1.882584 1_555
O10 Ta1 1.874297 1_555
O11 Ta4 1.874297 1_555
O12 Ta3 1.983168 1_556
O12 Ta5 2.135401 1_455
O13 Ta2 1.982164 1_555
O13 Ta1 2.150160 1_555
O14 Ta1 1.874297 1_555
O15 Ta5 1.874173 1_455
O16 Ta0 1.982164 1_555
O16 Ta4 2.150160 1_555
O17 Ta5 1.983168 1_554
O17 Ta3 2.135401 1_655
O18 Ta4 1.984167 1_555
O18 Ta5 2.150732 1_555
O19 Ta0 1.874173 1_455
O20 Ta2 1.983168 1_555
O20 Ta0 2.135401 1_455
O21 Ta2 1.874173 1_655
O22 Ta4 1.874297 1_555
O23 Ta5 1.982164 1_555
O23 Ta4 2.150160 1_555
