# generated using pymatgen
data_K2Mn(PS3)2
_symmetry_space_group_name_H-M   'P 1'
_cell_length_a   12.33154400
_cell_length_b   6.19405000
_cell_length_c   8.84887198
_cell_angle_alpha   58.03146436
_cell_angle_beta   90.00000000
_cell_angle_gamma   90.00000000
_symmetry_Int_Tables_number   1
_chemical_formula_structural   K2Mn(PS3)2
_chemical_formula_sum   'K4 Mn2 P4 S12'
_cell_volume   573.38918424
_cell_formula_units_Z   2
loop_
 _symmetry_equiv_pos_site_id
 _symmetry_equiv_pos_as_xyz
  1  'x, y, z'
loop_
 _atom_site_type_symbol
 _atom_site_label
 _atom_site_symmetry_multiplicity
 _atom_site_fract_x
 _atom_site_fract_y
 _atom_site_fract_z
 _atom_site_occupancy
  K  K0  1  0.31719600  0.69122200  0.52940400  1
  K  K1  1  0.81719600  0.30877800  0.97059600  1
  K  K2  1  0.68280400  0.30877800  0.47059600  1
  K  K3  1  0.18280400  0.69122200  0.02940400  1
  Mn  Mn0  1  0.00000000  0.00000000  0.50000000  1
  Mn  Mn1  1  0.50000000  0.00000000  0.00000000  1
  P  P0  1  0.53624500  0.64912800  0.86937000  1
  P  P1  1  0.03624500  0.35087200  0.63063000  1
  P  P2  1  0.46375500  0.35087200  0.13063000  1
  P  P3  1  0.96375500  0.64912800  0.36937000  1
  S  S0  1  0.56571400  0.44939500  0.75094600  1
  S  S1  1  0.06571400  0.55060500  0.74905400  1
  S  S2  1  0.43428600  0.55060500  0.24905400  1
  S  S3  1  0.93428600  0.44939500  0.25094600  1
  S  S4  1  0.57710200  0.07032400  0.24780500  1
  S  S5  1  0.07710200  0.92967600  0.25219500  1
  S  S6  1  0.42289800  0.92967600  0.75219500  1
  S  S7  1  0.92289800  0.07032400  0.74780500  1
  S  S8  1  0.33264700  0.21466900  0.06771800  1
  S  S9  1  0.83264700  0.78533100  0.43228200  1
  S  S10  1  0.66735300  0.78533100  0.93228200  1
  S  S11  1  0.16735300  0.21466900  0.56771800  1
loop_
_geom_bond_atom_site_label_1
_geom_bond_atom_site_label_2
_geom_bond_distance
_geom_bond_site_symmetry_2
K0 S6 3.294011 1_555
K0 S11 3.344049 1_555
K0 S2 3.359429 1_555
K0 S1 3.515820 1_555
K0 S0 3.516992 1_555
K0 S5 3.623273 1_555
K0 S8 3.634946 1_565
K1 S7 3.294011 1_555
K1 S10 3.344049 1_555
K1 S3 3.359429 1_556
K1 S0 3.515820 1_555
K1 S1 3.516992 1_655
K1 S4 3.623273 1_556
K1 S9 3.634946 1_546
K2 S4 3.294011 1_555
K2 S9 3.344049 1_555
K2 S0 3.359429 1_555
K2 S3 3.515820 1_555
K2 S2 3.516992 1_555
K2 S7 3.623273 1_555
K2 S10 3.634946 1_545
K3 S5 3.294011 1_555
K3 S8 3.344049 1_555
K3 S1 3.359429 1_554
K3 S2 3.515820 1_555
K3 S3 3.516992 1_455
K3 S6 3.623273 1_554
K3 S11 3.634946 1_564
Mn0 S1 2.601147 1_545
Mn0 S3 2.601147 1_455
Mn0 S7 2.629355 1_455
Mn0 S5 2.629355 1_545
Mn0 S11 2.688820 1_555
Mn0 S9 2.688820 1_445
Mn1 S0 2.601147 1_554
Mn1 S2 2.601147 1_545
Mn1 S4 2.629355 1_555
Mn1 S6 2.629355 1_544
Mn1 S10 2.688820 1_544
Mn1 S8 2.688820 1_555
P0 S10 2.032956 1_555
P0 S0 2.033115 1_555
P0 S6 2.034834 1_555
P1 S11 2.032956 1_555
P1 S1 2.033115 1_555
P1 S7 2.034834 1_455
P2 S8 2.032956 1_555
P2 S2 2.033115 1_555
P2 S4 2.034834 1_555
P3 S9 2.032956 1_555
P3 S3 2.033115 1_555
P3 S5 2.034834 1_655
