# generated using pymatgen
data_SrEr2O4
_symmetry_space_group_name_H-M   'P 1'
_cell_length_a   3.36747122
_cell_length_b   9.99608255
_cell_length_c   11.79977925
_cell_angle_alpha   90.00000000
_cell_angle_beta   90.00000000
_cell_angle_gamma   90.00000000
_symmetry_Int_Tables_number   1
_chemical_formula_structural   SrEr2O4
_chemical_formula_sum   'Sr4 Er8 O16'
_cell_volume   397.19850876
_cell_formula_units_Z   4
loop_
 _symmetry_equiv_pos_site_id
 _symmetry_equiv_pos_as_xyz
  1  'x, y, z'
loop_
 _atom_site_type_symbol
 _atom_site_label
 _atom_site_symmetry_multiplicity
 _atom_site_fract_x
 _atom_site_fract_y
 _atom_site_fract_z
 _atom_site_occupancy
  Sr  Sr0  1  0.75000000  0.75301382  0.65005940  1
  Sr  Sr1  1  0.75000000  0.25301382  0.84994060  1
  Sr  Sr2  1  0.25000000  0.24698618  0.34994060  1
  Sr  Sr3  1  0.25000000  0.74698618  0.15005940  1
  Er  Er0  1  0.25000000  0.07735441  0.61000115  1
  Er  Er1  1  0.25000000  0.57735441  0.88999885  1
  Er  Er2  1  0.25000000  0.07596372  0.11189633  1
  Er  Er3  1  0.75000000  0.42264559  0.11000115  1
  Er  Er4  1  0.75000000  0.92403628  0.88810367  1
  Er  Er5  1  0.25000000  0.57596372  0.38810367  1
  Er  Er6  1  0.75000000  0.92264559  0.38999885  1
  Er  Er7  1  0.75000000  0.42403628  0.61189633  1
  O  O0  1  0.25000000  0.98424990  0.28359515  1
  O  O1  1  0.75000000  0.12399211  0.48039378  1
  O  O2  1  0.75000000  0.71096207  0.32778754  1
  O  O3  1  0.25000000  0.28903793  0.67221246  1
  O  O4  1  0.25000000  0.87600789  0.51960622  1
  O  O5  1  0.75000000  0.51575010  0.78359515  1
  O  O6  1  0.75000000  0.62399211  0.01960622  1
  O  O7  1  0.75000000  0.92577047  0.07679292  1
  O  O8  1  0.25000000  0.57422953  0.57679292  1
  O  O9  1  0.25000000  0.37600789  0.98039378  1
  O  O10  1  0.25000000  0.78903793  0.82778754  1
  O  O11  1  0.75000000  0.21096207  0.17221246  1
  O  O12  1  0.25000000  0.07422953  0.92320708  1
  O  O13  1  0.75000000  0.42577047  0.42320708  1
  O  O14  1  0.75000000  0.01575010  0.71640485  1
  O  O15  1  0.25000000  0.48424990  0.21640485  1
loop_
_geom_bond_atom_site_label_1
_geom_bond_atom_site_label_2
_geom_bond_distance
_geom_bond_site_symmetry_2
Er0 O14 2.188734 1_455
Er0 O14 2.188734 1_555
Er0 O3 2.239722 1_555
Er0 O4 2.277847 1_545
Er0 O1 2.321891 1_555
Er0 O1 2.321891 1_455
Er1 O5 2.188734 1_555
Er1 O5 2.188734 1_455
Er1 O10 2.239722 1_555
Er1 O9 2.277847 1_555
Er1 O6 2.321891 1_556
Er1 O6 2.321891 1_456
Er2 O0 2.223779 1_545
Er2 O12 2.226559 1_554
Er2 O11 2.272121 1_555
Er2 O11 2.272121 1_455
Er2 O7 2.293594 1_445
Er2 O7 2.293594 1_545
Er3 O15 2.188734 1_555
Er3 O15 2.188734 1_655
Er3 O11 2.239722 1_555
Er3 O6 2.277847 1_555
Er3 O9 2.321891 1_654
Er3 O9 2.321891 1_554
Er4 O14 2.223779 1_565
Er4 O7 2.226559 1_556
Er4 O10 2.272121 1_555
Er4 O10 2.272121 1_655
Er4 O12 2.293594 1_565
Er4 O12 2.293594 1_665
Er5 O15 2.223779 1_555
Er5 O8 2.226559 1_555
Er5 O2 2.272121 1_555
Er5 O2 2.272121 1_455
Er5 O13 2.293594 1_455
Er5 O13 2.293594 1_555
Er6 O0 2.188734 1_555
Er6 O0 2.188734 1_655
Er6 O2 2.239722 1_555
Er6 O1 2.277847 1_565
Er6 O4 2.321891 1_555
Er6 O4 2.321891 1_655
Er7 O5 2.223779 1_555
Er7 O13 2.226559 1_555
Er7 O3 2.272121 1_555
Er7 O3 2.272121 1_655
Er7 O8 2.293594 1_555
Er7 O8 2.293594 1_655
O0 Sr2 2.740529 1_565
O0 Sr3 2.847421 1_555
O1 Sr2 2.591532 1_555
O1 Sr2 2.591532 1_655
O2 Sr3 2.713427 1_555
O2 Sr3 2.713427 1_655
O3 Sr1 2.713427 1_555
O3 Sr1 2.713427 1_455
O4 Sr0 2.591532 1_555
O4 Sr0 2.591532 1_455
O5 Sr1 2.740529 1_555
O5 Sr0 2.847421 1_555
O6 Sr3 2.591532 1_555
O6 Sr3 2.591532 1_655
O7 Sr3 2.603124 1_555
O7 Sr3 2.603124 1_655
O8 Sr0 2.603124 1_455
O8 Sr0 2.603124 1_555
O9 Sr1 2.591532 1_555
O9 Sr1 2.591532 1_455
O10 Sr0 2.713427 1_555
O10 Sr0 2.713427 1_455
O11 Sr2 2.713427 1_655
O11 Sr2 2.713427 1_555
O12 Sr1 2.603124 1_555
O12 Sr1 2.603124 1_455
O13 Sr2 2.603124 1_555
O13 Sr2 2.603124 1_655
O14 Sr0 2.740529 1_545
O14 Sr1 2.847421 1_555
O15 Sr3 2.740529 1_555
O15 Sr2 2.847421 1_555
