# generated using pymatgen
data_HgCS(OF)3
_symmetry_space_group_name_H-M   'P 1'
_cell_length_a   5.33741500
_cell_length_b   5.35556274
_cell_length_c   11.30517323
_cell_angle_alpha   97.06036564
_cell_angle_beta   98.50903954
_cell_angle_gamma   94.85846079
_symmetry_Int_Tables_number   1
_chemical_formula_structural   HgCS(OF)3
_chemical_formula_sum   'Hg2 C2 S2 O6 F6'
_cell_volume   315.42889449
_cell_formula_units_Z   2
loop_
 _symmetry_equiv_pos_site_id
 _symmetry_equiv_pos_as_xyz
  1  'x, y, z'
loop_
 _atom_site_type_symbol
 _atom_site_label
 _atom_site_symmetry_multiplicity
 _atom_site_fract_x
 _atom_site_fract_y
 _atom_site_fract_z
 _atom_site_occupancy
  Hg  Hg0  1  0.85447300  0.82618300  0.42663900  1
  Hg  Hg1  1  0.14552700  0.17381700  0.57336100  1
  C  C0  1  0.80126400  0.67301300  0.83699600  1
  C  C1  1  0.19873600  0.32698700  0.16300400  1
  S  S0  1  0.59482500  0.63689700  0.68510800  1
  S  S1  1  0.40517500  0.36310300  0.31489200  1
  O  O0  1  0.73915400  0.50270500  0.60206800  1
  O  O1  1  0.63625900  0.51925800  0.29340000  1
  O  O2  1  0.36374100  0.48074200  0.70660000  1
  O  O3  1  0.26084600  0.49729500  0.39793200  1
  O  O4  1  0.45095600  0.10726000  0.33539800  1
  O  O5  1  0.54904400  0.89274000  0.66460200  1
  F  F0  1  0.01507300  0.82561000  0.83415200  1
  F  F1  1  0.86632100  0.44495000  0.86244900  1
  F  F2  1  0.67914800  0.77695000  0.92382000  1
  F  F3  1  0.98492700  0.17439000  0.16584800  1
  F  F4  1  0.32085200  0.22305000  0.07618000  1
  F  F5  1  0.13367900  0.55505000  0.13755100  1
loop_
_geom_bond_atom_site_label_1
_geom_bond_atom_site_label_2
_geom_bond_distance
_geom_bond_site_symmetry_2
Hg0 O1 2.207993 1_555
Hg1 O2 2.207993 1_555
C0 F2 1.347070 1_555
C0 F1 1.350510 1_555
C0 F0 1.352985 1_655
C1 F4 1.347070 1_555
C1 F5 1.350510 1_555
C1 F3 1.352985 1_455
O0 S0 1.460537 1_555
O1 S1 1.497864 1_555
O2 S0 1.497864 1_555
O3 S1 1.460537 1_555
O4 S1 1.452201 1_555
O5 S0 1.452201 1_555
