# generated using pymatgen
data_CaTe2O5
_symmetry_space_group_name_H-M   'P 1'
_cell_length_a   5.71741257
_cell_length_b   9.43363506
_cell_length_c   11.09965380
_cell_angle_alpha   65.17916495
_cell_angle_beta   90.00000000
_cell_angle_gamma   90.00000000
_symmetry_Int_Tables_number   1
_chemical_formula_structural   CaTe2O5
_chemical_formula_sum   'Ca4 Te8 O20'
_cell_volume   543.36846917
_cell_formula_units_Z   4
loop_
 _symmetry_equiv_pos_site_id
 _symmetry_equiv_pos_as_xyz
  1  'x, y, z'
loop_
 _atom_site_type_symbol
 _atom_site_label
 _atom_site_symmetry_multiplicity
 _atom_site_fract_x
 _atom_site_fract_y
 _atom_site_fract_z
 _atom_site_occupancy
  Ca  Ca0  1  0.20071692  0.02084008  0.36067402  1
  Ca  Ca1  1  0.70071692  0.97915992  0.13932598  1
  Ca  Ca2  1  0.79928308  0.97915992  0.63932598  1
  Ca  Ca3  1  0.29928308  0.02084008  0.86067402  1
  Te  Te0  1  0.82087012  0.26330881  0.77837377  1
  Te  Te1  1  0.32087012  0.73669119  0.72162623  1
  Te  Te2  1  0.17912988  0.73669119  0.22162623  1
  Te  Te3  1  0.67912988  0.26330881  0.27837377  1
  Te  Te4  1  0.35548590  0.34903823  0.51058639  1
  Te  Te5  1  0.85548590  0.65096177  0.98941361  1
  Te  Te6  1  0.64451410  0.65096177  0.48941361  1
  Te  Te7  1  0.14451410  0.34903823  0.01058639  1
  O  O0  1  0.89446268  0.47824944  0.90897378  1
  O  O1  1  0.39446268  0.52175056  0.59102622  1
  O  O2  1  0.10553732  0.52175056  0.09102622  1
  O  O3  1  0.60553732  0.47824944  0.40897378  1
  O  O4  1  0.52403032  0.20430574  0.65432754  1
  O  O5  1  0.02403032  0.79569426  0.84567246  1
  O  O6  1  0.47596968  0.79569426  0.34567246  1
  O  O7  1  0.97596968  0.20430574  0.15432754  1
  O  O8  1  0.08999119  0.22587656  0.90229826  1
  O  O9  1  0.58999119  0.77412344  0.59770174  1
  O  O10  1  0.91000881  0.77412344  0.09770174  1
  O  O11  1  0.41000881  0.22587656  0.40229826  1
  O  O12  1  0.50837239  0.14171538  0.21361820  1
  O  O13  1  0.00837239  0.85828462  0.28638180  1
  O  O14  1  0.49162761  0.85828462  0.78638180  1
  O  O15  1  0.99162761  0.14171538  0.71361820  1
  O  O16  1  0.85546771  0.11750145  0.41274200  1
  O  O17  1  0.35546771  0.88249855  0.08725800  1
  O  O18  1  0.14453229  0.88249855  0.58725800  1
  O  O19  1  0.64453229  0.11750145  0.91274200  1
loop_
_geom_bond_atom_site_label_1
_geom_bond_atom_site_label_2
_geom_bond_distance
_geom_bond_site_symmetry_2
Ca0 O13 2.302741 1_545
Ca0 O18 2.318614 1_545
Ca0 O12 2.344350 1_555
Ca0 O16 2.346140 1_455
Ca0 O11 2.477274 1_555
Ca0 O7 2.562104 1_455
Ca0 O6 2.704149 1_545
Ca1 O12 2.302741 1_565
Ca1 O19 2.318614 1_564
Ca1 O13 2.344350 1_655
Ca1 O17 2.346140 1_555
Ca1 O10 2.477274 1_555
Ca1 O6 2.562104 1_555
Ca1 O7 2.704149 1_565
Ca2 O15 2.302741 1_565
Ca2 O16 2.318614 1_565
Ca2 O14 2.344350 1_555
Ca2 O18 2.346140 1_655
Ca2 O9 2.477274 1_555
Ca2 O5 2.562104 1_655
Ca2 O4 2.704149 1_565
Ca3 O14 2.302741 1_545
Ca3 O17 2.318614 1_546
Ca3 O15 2.344350 1_455
Ca3 O19 2.346140 1_555
Ca3 O8 2.477274 1_555
Ca3 O4 2.562104 1_555
Ca3 O5 2.704149 1_545
O0 Te7 1.909853 1_656
O0 Te5 2.173206 1_555
O1 Te6 1.909853 1_555
O1 Te4 2.173206 1_555
O2 Te5 1.909853 1_454
O2 Te7 2.173206 1_555
O3 Te4 1.909853 1_555
O3 Te6 2.173206 1_555
O4 Te4 1.873349 1_555
O4 Te0 2.393607 1_555
O5 Te5 1.873349 1_455
O5 Te1 2.393607 1_555
O6 Te6 1.873349 1_555
O6 Te2 2.393607 1_555
O7 Te7 1.873349 1_655
O7 Te3 2.393607 1_555
O8 Te0 1.994110 1_455
O8 Te7 2.016004 1_556
O9 Te1 1.994110 1_555
O9 Te6 2.016004 1_555
O10 Te2 1.994110 1_655
O10 Te5 2.016004 1_554
O11 Te3 1.994110 1_555
O11 Te4 2.016004 1_555
O12 Te3 1.864867 1_555
O13 Te2 1.864867 1_555
O14 Te1 1.864867 1_555
O15 Te0 1.864867 1_555
O16 Te3 1.846754 1_555
O17 Te2 1.846754 1_555
O18 Te1 1.846754 1_555
O19 Te0 1.846754 1_555
