# generated using pymatgen
data_Si3N4
_symmetry_space_group_name_H-M   'P 1'
_cell_length_a   12.52608181
_cell_length_b   12.52608181
_cell_length_c   8.09143100
_cell_angle_alpha   90.00000000
_cell_angle_beta   90.00000000
_cell_angle_gamma   119.99999899
_symmetry_Int_Tables_number   1
_chemical_formula_structural   Si3N4
_chemical_formula_sum   'Si18 N24'
_cell_volume   1099.47778453
_cell_formula_units_Z   6
loop_
 _symmetry_equiv_pos_site_id
 _symmetry_equiv_pos_as_xyz
  1  'x, y, z'
loop_
 _atom_site_type_symbol
 _atom_site_label
 _atom_site_symmetry_multiplicity
 _atom_site_fract_x
 _atom_site_fract_y
 _atom_site_fract_z
 _atom_site_occupancy
  Si  Si0  1  0.01050500  0.23837500  0.09790600  1
  Si  Si1  1  0.16345400  0.12284900  0.25000000  1
  Si  Si2  1  0.04060600  0.16345400  0.75000000  1
  Si  Si3  1  0.95939400  0.83654600  0.25000000  1
  Si  Si4  1  0.77213000  0.01050500  0.59790600  1
  Si  Si5  1  0.83654600  0.87715100  0.75000000  1
  Si  Si6  1  0.77213000  0.01050500  0.90209400  1
  Si  Si7  1  0.12284900  0.95939400  0.75000000  1
  Si  Si8  1  0.76162500  0.77213000  0.40209400  1
  Si  Si9  1  0.23837500  0.22787000  0.90209400  1
  Si  Si10  1  0.01050500  0.23837500  0.40209400  1
  Si  Si11  1  0.76162500  0.77213000  0.09790600  1
  Si  Si12  1  0.98949500  0.76162500  0.90209400  1
  Si  Si13  1  0.87715100  0.04060600  0.25000000  1
  Si  Si14  1  0.22787000  0.98949500  0.09790600  1
  Si  Si15  1  0.98949500  0.76162500  0.59790600  1
  Si  Si16  1  0.22787000  0.98949500  0.40209400  1
  Si  Si17  1  0.23837500  0.22787000  0.59790600  1
  N  N0  1  0.31587300  0.98153200  0.25000000  1
  N  N1  1  0.14449100  0.10393000  0.75000000  1
  N  N2  1  0.09862800  0.24685500  0.57014600  1
  N  N3  1  0.68412700  0.01846800  0.75000000  1
  N  N4  1  0.66565900  0.68412700  0.25000000  1
  N  N5  1  0.24685500  0.14822700  0.42985400  1
  N  N6  1  0.24685500  0.14822700  0.07014600  1
  N  N7  1  0.10393000  0.95944000  0.25000000  1
  N  N8  1  0.85550900  0.89607000  0.25000000  1
  N  N9  1  0.89607000  0.04056000  0.75000000  1
  N  N10  1  0.14822700  0.90137200  0.57014600  1
  N  N11  1  0.33434100  0.31587300  0.75000000  1
  N  N12  1  0.90137200  0.75314500  0.07014600  1
  N  N13  1  0.01846800  0.33434100  0.25000000  1
  N  N14  1  0.85177300  0.09862800  0.07014600  1
  N  N15  1  0.09862800  0.24685500  0.92985400  1
  N  N16  1  0.75314500  0.85177300  0.57014600  1
  N  N17  1  0.75314500  0.85177300  0.92985400  1
  N  N18  1  0.14822700  0.90137200  0.92985400  1
  N  N19  1  0.90137200  0.75314500  0.42985400  1
  N  N20  1  0.85177300  0.09862800  0.42985400  1
  N  N21  1  0.98153200  0.66565900  0.75000000  1
  N  N22  1  0.95944000  0.85550900  0.75000000  1
  N  N23  1  0.04056000  0.14449100  0.25000000  1
loop_
_geom_bond_atom_site_label_1
_geom_bond_atom_site_label_2
_geom_bond_distance
_geom_bond_site_symmetry_2
N0 Si14 1.688064 1_555
N0 Si16 1.688064 1_555
N1 Si7 1.691299 1_545
N1 Si2 1.794286 1_555
N1 Si17 1.866006 1_555
N1 Si9 1.866006 1_555
N2 Si10 1.720898 1_555
N2 Si2 1.725733 1_555
N2 Si17 1.894062 1_555
N3 Si4 1.688064 1_555
N3 Si6 1.688064 1_555
N4 Si8 1.688064 1_555
N4 Si11 1.688064 1_555
N5 Si17 1.720898 1_555
N5 Si1 1.725735 1_555
N5 Si16 1.894062 1_545
N6 Si9 1.720898 1_554
N6 Si1 1.725735 1_555
N6 Si14 1.894062 1_545
N7 Si3 1.691299 1_455
N7 Si1 1.794286 1_565
N7 Si14 1.866008 1_555
N7 Si16 1.866008 1_555
N8 Si13 1.691299 1_565
N8 Si3 1.794286 1_555
N8 Si11 1.866006 1_555
N8 Si8 1.866006 1_555
N9 Si2 1.691299 1_655
N9 Si5 1.794286 1_545
N9 Si4 1.866008 1_555
N9 Si6 1.866008 1_555
N10 Si16 1.720898 1_555
N10 Si7 1.725728 1_555
N10 Si15 1.894062 1_455
N11 Si9 1.688064 1_555
N11 Si17 1.688064 1_555
N12 Si12 1.720898 1_554
N12 Si3 1.725733 1_555
N12 Si11 1.894062 1_555
N13 Si0 1.688064 1_555
N13 Si10 1.688064 1_555
N14 Si6 1.720898 1_554
N14 Si13 1.725728 1_555
N14 Si0 1.894062 1_655
N15 Si0 1.720898 1_556
N15 Si2 1.725733 1_555
N15 Si9 1.894062 1_555
N16 Si8 1.720898 1_555
N16 Si5 1.725735 1_555
N16 Si4 1.894062 1_565
N17 Si11 1.720898 1_556
N17 Si5 1.725735 1_555
N17 Si6 1.894062 1_565
N18 Si14 1.720898 1_556
N18 Si7 1.725728 1_555
N18 Si12 1.894062 1_455
N19 Si15 1.720898 1_555
N19 Si3 1.725733 1_555
N19 Si8 1.894062 1_555
N20 Si4 1.720898 1_555
N20 Si13 1.725728 1_555
N20 Si10 1.894062 1_655
N21 Si12 1.688064 1_555
N21 Si15 1.688064 1_555
N22 Si5 1.691299 1_555
N22 Si7 1.794286 1_655
N22 Si15 1.865999 1_555
N22 Si12 1.865999 1_555
N23 Si1 1.691299 1_555
N23 Si13 1.794286 1_455
N23 Si0 1.865999 1_555
N23 Si10 1.865999 1_555
