# generated using pymatgen
data_SmCu(MoO4)2
_symmetry_space_group_name_H-M   'P 1'
_cell_length_a   9.98258500
_cell_length_b   10.42312400
_cell_length_c   14.86584200
_cell_angle_alpha   90.00000000
_cell_angle_beta   90.00000000
_cell_angle_gamma   90.00000000
_symmetry_Int_Tables_number   1
_chemical_formula_structural   SmCu(MoO4)2
_chemical_formula_sum   'Sm8 Cu8 Mo16 O64'
_cell_volume   1546.78671692
_cell_formula_units_Z   8
loop_
 _symmetry_equiv_pos_site_id
 _symmetry_equiv_pos_as_xyz
  1  'x, y, z'
loop_
 _atom_site_type_symbol
 _atom_site_label
 _atom_site_symmetry_multiplicity
 _atom_site_fract_x
 _atom_site_fract_y
 _atom_site_fract_z
 _atom_site_occupancy
  Sm  Sm0  1  0.22291800  0.46490600  0.60393400  1
  Sm  Sm1  1  0.27708200  0.46490600  0.10393400  1
  Sm  Sm2  1  0.22291800  0.96490600  0.89606600  1
  Sm  Sm3  1  0.27708200  0.96490600  0.39606600  1
  Sm  Sm4  1  0.72291800  0.53509400  0.89606600  1
  Sm  Sm5  1  0.77708200  0.53509400  0.39606600  1
  Sm  Sm6  1  0.72291800  0.03509400  0.60393400  1
  Sm  Sm7  1  0.77708200  0.03509400  0.10393400  1
  Cu  Cu0  1  0.80722900  0.18266600  0.30524000  1
  Cu  Cu1  1  0.69277100  0.68266600  0.69476000  1
  Cu  Cu2  1  0.80722900  0.68266600  0.19476000  1
  Cu  Cu3  1  0.30722900  0.31733400  0.30524000  1
  Cu  Cu4  1  0.19277100  0.81733400  0.69476000  1
  Cu  Cu5  1  0.30722900  0.81733400  0.19476000  1
  Cu  Cu6  1  0.69277100  0.18266600  0.80524000  1
  Cu  Cu7  1  0.19277100  0.31733400  0.80524000  1
  Mo  Mo0  1  0.83016500  0.89747100  0.84702100  1
  Mo  Mo1  1  0.50086700  0.72023200  0.55773400  1
  Mo  Mo2  1  0.50086700  0.22023200  0.94226600  1
  Mo  Mo3  1  0.16983500  0.60252900  0.34702100  1
  Mo  Mo4  1  0.33016500  0.10252900  0.65297900  1
  Mo  Mo5  1  0.00086700  0.77976800  0.55773400  1
  Mo  Mo6  1  0.49913300  0.27976800  0.44226600  1
  Mo  Mo7  1  0.66983500  0.39747100  0.15297900  1
  Mo  Mo8  1  0.16983500  0.10252900  0.15297900  1
  Mo  Mo9  1  0.49913300  0.77976800  0.05773400  1
  Mo  Mo10  1  0.66983500  0.89747100  0.34702100  1
  Mo  Mo11  1  0.99913300  0.22023200  0.44226600  1
  Mo  Mo12  1  0.00086700  0.27976800  0.94226600  1
  Mo  Mo13  1  0.83016500  0.39747100  0.65297900  1
  Mo  Mo14  1  0.33016500  0.60252900  0.84702100  1
  Mo  Mo15  1  0.99913300  0.72023200  0.05773400  1
  O  O0  1  0.25532000  0.48717100  0.27295500  1
  O  O1  1  0.59980100  0.38640200  0.37540200  1
  O  O2  1  0.39187900  0.83077900  0.50249300  1
  O  O3  1  0.11211100  0.18165700  0.86853200  1
  O  O4  1  0.24468000  0.98717100  0.72704500  1
  O  O5  1  0.71171700  0.42442800  0.03834500  1
  O  O6  1  0.21171700  0.07557200  0.03834500  1
  O  O7  1  0.10812100  0.83077900  0.00249300  1
  O  O8  1  0.72556100  0.73699500  0.31783000  1
  O  O9  1  0.49311300  0.41200900  0.16570200  1
  O  O10  1  0.27443900  0.26300500  0.68217000  1
  O  O11  1  0.40624600  0.86721200  0.97567100  1
  O  O12  1  0.88788900  0.31834300  0.36853200  1
  O  O13  1  0.74468000  0.01282900  0.77295500  1
  O  O14  1  0.60812100  0.66922100  0.00249300  1
  O  O15  1  0.59980100  0.88640200  0.12459800  1
  O  O16  1  0.49311300  0.91200900  0.33429800  1
  O  O17  1  0.77443900  0.23699500  0.68217000  1
  O  O18  1  0.38788900  0.68165700  0.13146800  1
  O  O19  1  0.11211100  0.68165700  0.63146800  1
  O  O20  1  0.00688700  0.91200900  0.83429800  1
  O  O21  1  0.77443900  0.73699500  0.81783000  1
  O  O22  1  0.75532000  0.01282900  0.27295500  1
  O  O23  1  0.09980100  0.61359800  0.12459800  1
  O  O24  1  0.28828300  0.07557200  0.53834500  1
  O  O25  1  0.00688700  0.41200900  0.66570200  1
  O  O26  1  0.78828300  0.92442800  0.96165500  1
  O  O27  1  0.78828300  0.42442800  0.53834500  1
  O  O28  1  0.10812100  0.33077900  0.49750700  1
  O  O29  1  0.72556100  0.23699500  0.18217000  1
  O  O30  1  0.28828300  0.57557200  0.96165500  1
  O  O31  1  0.22556100  0.26300500  0.18217000  1
  O  O32  1  0.40624600  0.36721200  0.52432900  1
  O  O33  1  0.50688700  0.58799100  0.83429800  1
  O  O34  1  0.89187900  0.66922100  0.50249300  1
  O  O35  1  0.22556100  0.76300500  0.31783000  1
  O  O36  1  0.71171700  0.92442800  0.46165500  1
  O  O37  1  0.40019900  0.11359800  0.87540200  1
  O  O38  1  0.75532000  0.51282900  0.22704500  1
  O  O39  1  0.99311300  0.58799100  0.33429800  1
  O  O40  1  0.24468000  0.48717100  0.77295500  1
  O  O41  1  0.25532000  0.98717100  0.22704500  1
  O  O42  1  0.90624600  0.63278800  0.97567100  1
  O  O43  1  0.21171700  0.57557200  0.46165500  1
  O  O44  1  0.40019900  0.61359800  0.62459800  1
  O  O45  1  0.59375400  0.63278800  0.47567100  1
  O  O46  1  0.59375400  0.13278800  0.02432900  1
  O  O47  1  0.27443900  0.76300500  0.81783000  1
  O  O48  1  0.39187900  0.33077900  0.99750700  1
  O  O49  1  0.09375400  0.86721200  0.47567100  1
  O  O50  1  0.09980100  0.11359800  0.37540200  1
  O  O51  1  0.89187900  0.16922100  0.99750700  1
  O  O52  1  0.90624600  0.13278800  0.52432900  1
  O  O53  1  0.90019900  0.38640200  0.87540200  1
  O  O54  1  0.61211100  0.81834300  0.63146800  1
  O  O55  1  0.74468000  0.51282900  0.72704500  1
  O  O56  1  0.38788900  0.18165700  0.36853200  1
  O  O57  1  0.88788900  0.81834300  0.13146800  1
  O  O58  1  0.90019900  0.88640200  0.62459800  1
  O  O59  1  0.50688700  0.08799100  0.66570200  1
  O  O60  1  0.61211100  0.31834300  0.86853200  1
  O  O61  1  0.09375400  0.36721200  0.02432900  1
  O  O62  1  0.99311300  0.08799100  0.16570200  1
  O  O63  1  0.60812100  0.16922100  0.49750700  1
loop_
_geom_bond_atom_site_label_1
_geom_bond_atom_site_label_2
_geom_bond_distance
_geom_bond_site_symmetry_2
Cu0 O12 1.879764 1_555
Cu0 O22 1.905934 1_555
Cu0 O29 2.081473 1_555
Cu1 O54 1.879764 1_555
Cu1 O55 1.905934 1_555
Cu1 O21 2.081473 1_555
Cu2 O57 1.879764 1_555
Cu2 O38 1.905934 1_555
Cu2 O8 2.081473 1_555
Cu3 O56 1.879764 1_555
Cu3 O0 1.905934 1_555
Cu3 O31 2.081473 1_555
Cu4 O19 1.879764 1_555
Cu4 O4 1.905934 1_555
Cu4 O47 2.081473 1_555
Cu5 O18 1.879764 1_555
Cu5 O41 1.905934 1_555
Cu5 O35 2.081473 1_555
Cu6 O60 1.879764 1_555
Cu6 O13 1.905934 1_555
Cu6 O17 2.081473 1_555
Cu7 O3 1.879764 1_555
Cu7 O40 1.905934 1_555
Cu7 O10 2.081473 1_555
Mo0 O26 1.777023 1_555
Mo0 O20 1.780711 1_655
Mo0 O21 1.815369 1_555
Mo0 O13 1.840187 1_565
Mo1 O45 1.782908 1_555
Mo1 O2 1.784867 1_555
Mo1 O44 1.798120 1_555
Mo1 O54 1.865596 1_555
Mo2 O46 1.782908 1_556
Mo2 O48 1.784867 1_555
Mo2 O37 1.798120 1_555
Mo2 O60 1.865596 1_555
Mo3 O43 1.777023 1_555
Mo3 O39 1.780711 1_455
Mo3 O35 1.815369 1_555
Mo3 O0 1.840187 1_555
Mo4 O24 1.777023 1_555
Mo4 O59 1.780711 1_555
Mo4 O10 1.815369 1_555
Mo4 O4 1.840187 1_545
Mo5 O49 1.782908 1_555
Mo5 O34 1.784867 1_455
Mo5 O58 1.798120 1_455
Mo5 O19 1.865596 1_555
Mo6 O32 1.782908 1_555
Mo6 O63 1.784867 1_555
Mo6 O1 1.798120 1_555
Mo6 O56 1.865596 1_555
Mo7 O5 1.777023 1_555
Mo7 O9 1.780711 1_555
Mo7 O29 1.815369 1_555
Mo7 O38 1.840187 1_555
Mo8 O6 1.777023 1_555
Mo8 O62 1.780711 1_455
Mo8 O31 1.815369 1_555
Mo8 O41 1.840187 1_545
Mo9 O11 1.782908 1_554
Mo9 O14 1.784867 1_555
Mo9 O15 1.798120 1_555
Mo9 O18 1.865596 1_555
Mo10 O36 1.777023 1_555
Mo10 O16 1.780711 1_555
Mo10 O8 1.815369 1_555
Mo10 O22 1.840187 1_565
Mo11 O52 1.782908 1_555
Mo11 O28 1.784867 1_655
Mo11 O50 1.798120 1_655
Mo11 O12 1.865596 1_555
Mo12 O61 1.782908 1_556
Mo12 O51 1.784867 1_455
Mo12 O53 1.798120 1_455
Mo12 O3 1.865596 1_555
Mo13 O27 1.777023 1_555
Mo13 O25 1.780711 1_655
Mo13 O17 1.815369 1_555
Mo13 O55 1.840187 1_555
Mo14 O30 1.777023 1_555
Mo14 O33 1.780711 1_555
Mo14 O47 1.815369 1_555
Mo14 O40 1.840187 1_555
Mo15 O42 1.782908 1_554
Mo15 O7 1.784867 1_655
Mo15 O23 1.798120 1_655
Mo15 O57 1.865596 1_555
O0 Sm1 2.532668 1_555
O1 Sm5 2.372398 1_555
O2 Sm3 2.402258 1_555
O3 Sm2 2.548563 1_545
O4 Sm2 2.532668 1_555
O5 Sm4 2.411777 1_554
O6 Sm2 2.411777 1_544
O7 Sm2 2.402258 1_554
O8 Sm5 2.458832 1_555
O9 Sm1 2.407870 1_555
O10 Sm0 2.458832 1_555
O11 Sm2 2.405521 1_555
O12 Sm5 2.548563 1_555
O13 Sm6 2.532668 1_555
O14 Sm4 2.402258 1_554
O15 Sm7 2.372398 1_565
O16 Sm3 2.407870 1_555
O17 Sm6 2.458832 1_555
O18 Sm1 2.548563 1_555
O19 Sm0 2.548563 1_555
O20 Sm2 2.407870 1_555
O21 Sm4 2.458832 1_555
O22 Sm7 2.532668 1_555
O23 Sm1 2.372398 1_555
O24 Sm3 2.411777 1_545
O25 Sm0 2.407870 1_555
O26 Sm7 2.411777 1_566
O27 Sm5 2.411777 1_555
O28 Sm0 2.402258 1_555
O29 Sm7 2.458832 1_555
O30 Sm1 2.411777 1_556
O31 Sm1 2.458832 1_555
O32 Sm0 2.405521 1_555
O33 Sm4 2.407870 1_555
O34 Sm5 2.402258 1_555
O35 Sm3 2.458832 1_555
O36 Sm6 2.411777 1_565
O37 Sm2 2.372398 1_545
O38 Sm5 2.532668 1_555
O39 Sm5 2.407870 1_555
O40 Sm0 2.532668 1_555
O41 Sm3 2.532668 1_555
O42 Sm4 2.405521 1_555
O43 Sm0 2.411777 1_555
O44 Sm0 2.372398 1_555
O45 Sm5 2.405521 1_555
O46 Sm7 2.405521 1_555
O47 Sm2 2.458832 1_555
O48 Sm1 2.402258 1_556
O49 Sm3 2.405521 1_555
O50 Sm3 2.372398 1_545
O51 Sm7 2.402258 1_556
O52 Sm6 2.405521 1_555
O53 Sm4 2.372398 1_555
O54 Sm6 2.548563 1_565
O55 Sm4 2.532668 1_555
O56 Sm3 2.548563 1_545
O57 Sm7 2.548563 1_565
O58 Sm6 2.372398 1_565
O59 Sm6 2.407870 1_555
O60 Sm4 2.548563 1_555
O61 Sm1 2.405521 1_555
O62 Sm7 2.407870 1_555
O63 Sm6 2.402258 1_555
