# generated using pymatgen
data_Gd5CuBi3
_symmetry_space_group_name_H-M   'P 1'
_cell_length_a   9.39132174
_cell_length_b   9.41315905
_cell_length_c   6.48761320
_cell_angle_alpha   89.99812580
_cell_angle_beta   90.00155161
_cell_angle_gamma   119.92324248
_symmetry_Int_Tables_number   1
_chemical_formula_structural   Gd5CuBi3
_chemical_formula_sum   'Gd10 Cu2 Bi6'
_cell_volume   497.06488808
_cell_formula_units_Z   2
loop_
 _symmetry_equiv_pos_site_id
 _symmetry_equiv_pos_as_xyz
  1  'x, y, z'
loop_
 _atom_site_type_symbol
 _atom_site_label
 _atom_site_symmetry_multiplicity
 _atom_site_fract_x
 _atom_site_fract_y
 _atom_site_fract_z
 _atom_site_occupancy
  Gd  Gd0  1  0.24855991  0.24998402  0.74997648  1
  Gd  Gd1  1  0.74992579  0.74898295  0.24999441  1
  Gd  Gd2  1  0.33245882  0.66756141  0.49939839  1
  Gd  Gd3  1  0.25556412  0.00000742  0.25003178  1
  Gd  Gd4  1  0.66491239  0.33244760  0.49939960  1
  Gd  Gd5  1  -0.00140891  0.75000023  0.74998400  1
  Gd  Gd6  1  0.66491485  0.33244437  0.00060772  1
  Gd  Gd7  1  0.00096694  0.25100255  0.24999588  1
  Gd  Gd8  1  0.75004217  -0.00000347  0.75001948  1
  Gd  Gd9  1  0.33245614  0.66755538  0.00060185  1
  Cu  Cu0  1  0.00168505  -0.00000758  0.00148049  1
  Cu  Cu1  1  0.00161457  -0.00000271  0.49850846  1
  Bi  Bi0  1  0.38781078  -0.00000366  0.74999311  1
  Bi  Bi1  1  0.61505818  0.00000520  0.24999720  1
  Bi  Bi2  1  0.61000813  0.61103898  0.75003131  1
  Bi  Bi3  1  -0.00090205  0.61173262  0.24996814  1
  Bi  Bi4  1  -0.00106087  0.38896226  0.75004154  1
  Bi  Bi5  1  0.38739401  0.38829243  0.24996918  1
loop_
_geom_bond_atom_site_label_1
_geom_bond_atom_site_label_2
_geom_bond_distance
_geom_bond_site_symmetry_2
Cu0 Gd0 2.851669 1_554
Cu0 Gd5 2.851782 1_544
Cu0 Gd7 2.863290 1_555
Cu0 Gd1 2.863353 1_445
Cu0 Gd8 2.871634 1_454
Cu0 Gd3 2.878250 1_555
Cu1 Gd0 2.851798 1_555
Cu1 Gd5 2.851920 1_545
Cu1 Gd7 2.862881 1_555
Cu1 Gd1 2.863113 1_445
Cu1 Gd8 2.871328 1_455
Cu1 Gd3 2.878618 1_555
Bi0 Gd5 3.212021 1_545
Bi0 Gd0 3.212142 1_555
Bi0 Gd9 3.329112 1_546
Bi0 Gd2 3.329113 1_545
Bi0 Gd4 3.329191 1_555
Bi0 Gd6 3.329280 1_556
Bi0 Gd8 3.401831 1_555
Bi0 Gd3 3.473191 1_555
Bi0 Gd3 3.473723 1_556
Bi1 Gd1 3.189589 1_545
Bi1 Gd7 3.189686 1_655
Bi1 Gd6 3.341768 1_555
Bi1 Gd2 3.341910 1_545
Bi1 Gd4 3.341929 1_555
Bi1 Gd9 3.341960 1_545
Bi1 Gd3 3.376135 1_555
Bi1 Gd8 3.482625 1_554
Bi1 Gd8 3.482830 1_555
Bi2 Gd5 3.204065 1_655
Bi2 Gd8 3.214175 1_565
Bi2 Gd9 3.332212 1_556
Bi2 Gd2 3.332333 1_555
Bi2 Gd6 3.336866 1_556
Bi2 Gd4 3.337099 1_555
Bi2 Gd0 3.400514 1_555
Bi2 Gd1 3.497314 1_556
Bi2 Gd1 3.497745 1_555
Bi3 Gd1 3.187673 1_455
Bi3 Gd3 3.221304 1_565
Bi3 Gd9 3.324674 1_555
Bi3 Gd2 3.324814 1_555
Bi3 Gd6 3.338663 1_455
Bi3 Gd4 3.338888 1_455
Bi3 Gd7 3.404399 1_555
Bi3 Gd5 3.495931 1_554
Bi3 Gd5 3.496201 1_555
Bi4 Gd0 3.204178 1_555
Bi4 Gd8 3.214195 1_455
Bi4 Gd6 3.331827 1_456
Bi4 Gd4 3.332030 1_455
Bi4 Gd9 3.336942 1_556
Bi4 Gd2 3.337235 1_555
Bi4 Gd5 3.400140 1_555
Bi4 Gd7 3.497367 1_556
Bi4 Gd7 3.497996 1_555
Bi5 Gd7 3.187654 1_555
Bi5 Gd3 3.221358 1_555
Bi5 Gd6 3.324680 1_555
Bi5 Gd4 3.324776 1_555
Bi5 Gd9 3.338649 1_555
Bi5 Gd2 3.338976 1_555
Bi5 Gd1 3.403898 1_555
Bi5 Gd0 3.496206 1_554
Bi5 Gd0 3.496280 1_555
