# generated using pymatgen
data_BaVOF4
_symmetry_space_group_name_H-M   'P 1'
_cell_length_a   14.65521853
_cell_length_b   14.59190452
_cell_length_c   5.49843459
_cell_angle_alpha   79.81266842
_cell_angle_beta   78.51665345
_cell_angle_gamma   21.67067813
_symmetry_Int_Tables_number   1
_chemical_formula_structural   BaVOF4
_chemical_formula_sum   'Ba4 V4 O4 F16'
_cell_volume   425.39965004
_cell_formula_units_Z   4
loop_
 _symmetry_equiv_pos_site_id
 _symmetry_equiv_pos_as_xyz
  1  'x, y, z'
loop_
 _atom_site_type_symbol
 _atom_site_label
 _atom_site_symmetry_multiplicity
 _atom_site_fract_x
 _atom_site_fract_y
 _atom_site_fract_z
 _atom_site_occupancy
  Ba  Ba0  1  0.18108100  0.70984500  0.29298500  1
  Ba  Ba1  1  0.81608900  0.29298500  0.70984500  1
  Ba  Ba2  1  0.95701500  0.43391100  0.06891900  1
  Ba  Ba3  1  0.54015500  0.06891900  0.43391100  1
  V  V0  1  0.42581500  0.91948700  0.58424500  1
  V  V1  1  0.33051300  0.82418500  0.17954800  1
  V  V2  1  0.07045200  0.58424500  0.91948700  1
  V  V3  1  0.66575500  0.17954800  0.82418500  1
  O  O0  1  0.46781300  0.43839600  0.69124200  1
  O  O1  1  0.40254800  0.69124200  0.43839600  1
  O  O2  1  0.81160400  0.78218700  0.84745200  1
  O  O3  1  0.55875800  0.84745200  0.78218700  1
  F  F0  1  0.55487100  0.88315800  0.28401300  1
  F  F1  1  0.92892400  0.83406400  0.01882700  1
  F  F2  1  0.12971800  0.27251000  0.56304200  1
  F  F3  1  0.96598700  0.97204200  0.69512900  1
  F  F4  1  0.03473000  0.56304200  0.27251000  1
  F  F5  1  0.36684200  0.69512900  0.97204200  1
  F  F6  1  0.68695800  0.21527000  0.12028200  1
  F  F7  1  0.22109100  0.50352600  0.59580800  1
  F  F8  1  0.97749000  0.12028200  0.21527000  1
  F  F9  1  0.67957500  0.59580800  0.50352600  1
  F  F10  1  0.41593600  0.32107600  0.03181500  1
  F  F11  1  0.74647400  0.02890900  0.57042500  1
  F  F12  1  0.23117300  0.03181500  0.32107600  1
  F  F13  1  0.21818500  0.01882700  0.83406400  1
  F  F14  1  0.65419200  0.57042500  0.02890900  1
  F  F15  1  0.27795800  0.28401300  0.88315800  1
loop_
_geom_bond_atom_site_label_1
_geom_bond_atom_site_label_2
_geom_bond_distance
_geom_bond_site_symmetry_2
Ba0 F3 2.695400 1_455
Ba0 F7 2.741236 1_555
Ba0 F5 2.776000 1_554
Ba0 O0 2.793170 1_555
Ba0 F1 2.831209 1_455
Ba0 F11 2.845807 1_465
Ba0 F6 2.850373 1_555
Ba0 F6 2.954596 1_465
Ba1 F5 2.695400 1_555
Ba1 F9 2.741236 1_555
Ba1 F3 2.776000 1_545
Ba1 O1 2.793175 1_555
Ba1 F13 2.831209 1_655
Ba1 F14 2.845807 1_556
Ba1 F8 2.850373 1_555
Ba1 F8 2.954596 1_556
Ba2 F0 2.695400 1_555
Ba2 F14 2.741236 1_555
Ba2 F15 2.776000 1_654
Ba2 O3 2.793171 1_554
Ba2 F12 2.831209 1_655
Ba2 F9 2.845807 1_555
Ba2 F2 2.850373 1_654
Ba2 F2 2.954596 1_655
Ba3 F15 2.695400 1_555
Ba3 F11 2.741236 1_555
Ba3 F0 2.776000 1_545
Ba3 O2 2.793174 1_545
Ba3 F10 2.831209 1_555
Ba3 F7 2.845807 1_555
Ba3 F4 2.850373 1_645
Ba3 F4 2.954596 1_555
O0 V3 1.648801 1_555
O1 V1 1.648809 1_555
O2 V2 1.648796 1_655
O3 V0 1.648818 1_555
F0 V0 1.945824 1_555
F1 V2 2.022147 1_654
F1 V3 2.243159 1_564
F2 V0 1.954884 1_545
F3 V3 1.945817 1_565
F4 V2 1.954881 1_554
F5 V1 1.945828 1_556
F6 V3 1.954876 1_554
F7 V2 1.942319 1_555
F8 V1 1.954884 1_645
F9 V0 1.942313 1_555
F10 V3 2.022145 1_554
F10 V2 2.243161 1_554
F11 V3 1.942324 1_555
F12 V1 2.022134 1_545
F12 V0 2.243151 1_545
F13 V0 2.022137 1_545
F13 V1 2.243155 1_546
F14 V1 1.942315 1_555
F15 V2 1.945816 1_555
