# generated using pymatgen
data_Cs3CoI5
_symmetry_space_group_name_H-M   'P 1'
_cell_length_a   10.05498782
_cell_length_b   11.70089736
_cell_length_c   14.84724222
_cell_angle_alpha   90.00000000
_cell_angle_beta   90.00000000
_cell_angle_gamma   90.00000000
_symmetry_Int_Tables_number   1
_chemical_formula_structural   Cs3CoI5
_chemical_formula_sum   'Cs12 Co4 I20'
_cell_volume   1746.81339012
_cell_formula_units_Z   4
loop_
 _symmetry_equiv_pos_site_id
 _symmetry_equiv_pos_as_xyz
  1  'x, y, z'
loop_
 _atom_site_type_symbol
 _atom_site_label
 _atom_site_symmetry_multiplicity
 _atom_site_fract_x
 _atom_site_fract_y
 _atom_site_fract_z
 _atom_site_occupancy
  Cs  Cs0  1  0.58774174  0.75000000  0.04599974  1
  Cs  Cs1  1  0.08237895  0.51491362  0.17248989  1
  Cs  Cs2  1  0.91225826  0.25000000  0.54599974  1
  Cs  Cs3  1  0.08237895  0.98508638  0.17248989  1
  Cs  Cs4  1  0.91762105  0.01491362  0.82751011  1
  Cs  Cs5  1  0.41762105  0.48508638  0.67248989  1
  Cs  Cs6  1  0.08774174  0.75000000  0.45400026  1
  Cs  Cs7  1  0.58237895  0.51491362  0.32751011  1
  Cs  Cs8  1  0.41762105  0.01491362  0.67248989  1
  Cs  Cs9  1  0.41225826  0.25000000  0.95400026  1
  Cs  Cs10  1  0.91762105  0.48508638  0.82751011  1
  Cs  Cs11  1  0.58237895  0.98508638  0.32751011  1
  Co  Co0  1  0.18677906  0.75000000  0.89359539  1
  Co  Co1  1  0.81322094  0.25000000  0.10640461  1
  Co  Co2  1  0.68677906  0.75000000  0.60640461  1
  Co  Co3  1  0.31322094  0.25000000  0.39359539  1
  I  I0  1  0.52970716  0.25000000  0.48821717  1
  I  I1  1  0.69063661  0.43726646  0.06532738  1
  I  I2  1  0.80936339  0.56273354  0.56532738  1
  I  I3  1  0.83323977  0.75000000  0.26249571  1
  I  I4  1  0.19063661  0.43726646  0.43467262  1
  I  I5  1  0.33323977  0.75000000  0.23750429  1
  I  I6  1  0.16676023  0.25000000  0.73750429  1
  I  I7  1  0.30936339  0.56273354  0.93467262  1
  I  I8  1  0.63867820  0.75000000  0.77761247  1
  I  I9  1  0.47029284  0.75000000  0.51178283  1
  I  I10  1  0.97029284  0.75000000  0.98821717  1
  I  I11  1  0.13867820  0.75000000  0.72238753  1
  I  I12  1  0.30936339  0.93726646  0.93467262  1
  I  I13  1  0.69063661  0.06273354  0.06532738  1
  I  I14  1  0.80936339  0.93726646  0.56532738  1
  I  I15  1  0.19063661  0.06273354  0.43467262  1
  I  I16  1  0.02970716  0.25000000  0.01178283  1
  I  I17  1  0.66676023  0.25000000  0.76249571  1
  I  I18  1  0.36132180  0.25000000  0.22238753  1
  I  I19  1  0.86132180  0.25000000  0.27761247  1
loop_
_geom_bond_atom_site_label_1
_geom_bond_atom_site_label_2
_geom_bond_distance
_geom_bond_site_symmetry_2
Cs0 I1 3.813524 1_555
Cs0 I13 3.813524 1_565
Cs0 I5 3.825309 1_555
Cs0 I7 3.920240 1_554
Cs0 I12 3.920240 1_554
Cs0 I10 3.941057 1_554
Cs0 I8 4.017590 1_554
Cs0 I3 4.052845 1_555
Cs1 I5 3.854965 1_555
Cs1 I16 3.947413 1_555
Cs1 I3 3.953195 1_455
Cs1 I10 4.040053 1_454
Cs1 I19 4.121269 1_455
Cs1 I4 4.142871 1_555
Cs1 I7 4.241410 1_554
Cs1 I18 4.245453 1_555
Cs1 I1 4.344236 1_455
Cs2 I14 3.813524 1_545
Cs2 I2 3.813524 1_555
Cs2 I6 3.825309 1_655
Cs2 I15 3.920240 1_655
Cs2 I4 3.920240 1_655
Cs2 I0 3.941057 1_555
Cs2 I19 4.017590 1_555
Cs2 I17 4.052845 1_555
Cs3 I5 3.854965 1_555
Cs3 I16 3.947413 1_565
Cs3 I3 3.953195 1_455
Cs3 I10 4.040053 1_454
Cs3 I19 4.121269 1_465
Cs3 I15 4.142871 1_565
Cs3 I12 4.241410 1_554
Cs3 I18 4.245453 1_565
Cs3 I13 4.344236 1_465
Cs4 I17 3.854965 1_555
Cs4 I10 3.947413 1_545
Cs4 I6 3.953195 1_655
Cs4 I16 4.040053 1_656
Cs4 I11 4.121269 1_645
Cs4 I14 4.142871 1_545
Cs4 I13 4.241410 1_556
Cs4 I8 4.245453 1_545
Cs4 I12 4.344236 1_645
Cs5 I6 3.854965 1_555
Cs5 I9 3.947413 1_555
Cs5 I17 3.953195 1_555
Cs5 I0 4.040053 1_555
Cs5 I8 4.121269 1_555
Cs5 I7 4.142871 1_555
Cs5 I4 4.241410 1_555
Cs5 I11 4.245453 1_555
Cs5 I2 4.344236 1_555
Cs6 I4 3.813524 1_555
Cs6 I15 3.813524 1_565
Cs6 I3 3.825309 1_455
Cs6 I2 3.920240 1_455
Cs6 I14 3.920240 1_455
Cs6 I9 3.941057 1_555
Cs6 I11 4.017590 1_555
Cs6 I5 4.052845 1_555
Cs7 I3 3.854965 1_555
Cs7 I0 3.947413 1_555
Cs7 I5 3.953195 1_555
Cs7 I9 4.040053 1_555
Cs7 I18 4.121269 1_555
Cs7 I1 4.142871 1_555
Cs7 I2 4.241410 1_555
Cs7 I19 4.245453 1_555
Cs7 I4 4.344236 1_555
Cs8 I6 3.854965 1_555
Cs8 I9 3.947413 1_545
Cs8 I17 3.953195 1_555
Cs8 I0 4.040053 1_555
Cs8 I8 4.121269 1_545
Cs8 I12 4.142871 1_545
Cs8 I15 4.241410 1_555
Cs8 I11 4.245453 1_545
Cs8 I14 4.344236 1_545
Cs9 I7 3.813524 1_555
Cs9 I12 3.813524 1_545
Cs9 I17 3.825309 1_555
Cs9 I13 3.920240 1_556
Cs9 I1 3.920240 1_556
Cs9 I16 3.941057 1_556
Cs9 I18 4.017590 1_556
Cs9 I6 4.052845 1_555
Cs10 I17 3.854965 1_555
Cs10 I10 3.947413 1_555
Cs10 I6 3.953195 1_655
Cs10 I16 4.040053 1_656
Cs10 I11 4.121269 1_655
Cs10 I2 4.142871 1_555
Cs10 I1 4.241410 1_556
Cs10 I8 4.245453 1_555
Cs10 I7 4.344236 1_655
Cs11 I3 3.854965 1_555
Cs11 I0 3.947413 1_565
Cs11 I5 3.953195 1_555
Cs11 I9 4.040053 1_555
Cs11 I18 4.121269 1_565
Cs11 I13 4.142871 1_565
Cs11 I14 4.241410 1_555
Cs11 I19 4.245453 1_565
Cs11 I15 4.344236 1_565
Co0 I7 2.586990 1_555
Co0 I12 2.586990 1_555
Co0 I11 2.587567 1_555
Co0 I10 2.590749 1_455
Co1 I1 2.586990 1_555
Co1 I13 2.586990 1_555
Co1 I19 2.587567 1_555
Co1 I16 2.590749 1_655
Co2 I2 2.586990 1_555
Co2 I14 2.586990 1_555
Co2 I8 2.587567 1_555
Co2 I9 2.590749 1_555
Co3 I15 2.586990 1_555
Co3 I4 2.586990 1_555
Co3 I18 2.587567 1_555
Co3 I0 2.590749 1_555
