# generated using pymatgen
data_Nb3Se10Br3
_symmetry_space_group_name_H-M   'P 1'
_cell_length_a   19.53816402
_cell_length_b   7.62544287
_cell_length_c   12.49820511
_cell_angle_alpha   83.99583380
_cell_angle_beta   90.00000000
_cell_angle_gamma   90.00000000
_symmetry_Int_Tables_number   1
_chemical_formula_structural   Nb3Se10Br3
_chemical_formula_sum   'Nb12 Se40 Br12'
_cell_volume   1851.85721903
_cell_formula_units_Z   4
loop_
 _symmetry_equiv_pos_site_id
 _symmetry_equiv_pos_as_xyz
  1  'x, y, z'
loop_
 _atom_site_type_symbol
 _atom_site_label
 _atom_site_symmetry_multiplicity
 _atom_site_fract_x
 _atom_site_fract_y
 _atom_site_fract_z
 _atom_site_occupancy
  Nb  Nb0  1  0.85156911  0.66027239  0.33042873  1
  Nb  Nb1  1  0.00010342  0.74785913  0.24913062  1
  Nb  Nb2  1  0.50010342  0.25214087  0.75086938  1
  Nb  Nb3  1  0.14825201  0.82167273  0.16384553  1
  Nb  Nb4  1  0.49989658  0.74785913  0.24913062  1
  Nb  Nb5  1  0.35174799  0.82167273  0.16384553  1
  Nb  Nb6  1  0.99989658  0.25214087  0.75086938  1
  Nb  Nb7  1  0.64843089  0.66027239  0.33042873  1
  Nb  Nb8  1  0.35156911  0.33972761  0.66957127  1
  Nb  Nb9  1  0.14843089  0.33972761  0.66957127  1
  Nb  Nb10  1  0.85174799  0.17832727  0.83615447  1
  Nb  Nb11  1  0.64825201  0.17832727  0.83615447  1
  Se  Se0  1  0.58638256  0.96219001  0.34415737  1
  Se  Se1  1  0.60863755  0.71033768  0.12622264  1
  Se  Se2  1  0.25000000  0.09962291  0.71889151  1
  Se  Se3  1  0.08782645  0.99427218  0.30821375  1
  Se  Se4  1  0.75000000  0.90037709  0.28110849  1
  Se  Se5  1  0.54338060  0.95640244  0.86431917  1
  Se  Se6  1  0.75000000  0.13523432  0.69242388  1
  Se  Se7  1  0.08638256  0.03780999  0.65584263  1
  Se  Se8  1  0.41361744  0.03780999  0.65584263  1
  Se  Se9  1  0.25000000  0.22854534  0.54250000  1
  Se  Se10  1  0.60771884  0.46055403  0.70900741  1
  Se  Se11  1  0.89136245  0.71033768  0.12622264  1
  Se  Se12  1  0.54183129  0.72462156  0.45303610  1
  Se  Se13  1  0.25000000  0.06804812  0.15587965  1
  Se  Se14  1  0.57184256  0.42870945  0.89095733  1
  Se  Se15  1  0.58782645  0.00572782  0.69178625  1
  Se  Se16  1  0.92683168  0.45092087  0.23237933  1
  Se  Se17  1  0.10863755  0.28966232  0.87377736  1
  Se  Se18  1  0.42683168  0.54907913  0.76762067  1
  Se  Se19  1  0.07184256  0.57129055  0.10904267  1
  Se  Se20  1  0.04183129  0.27537844  0.54696390  1
  Se  Se21  1  0.10771884  0.53944597  0.29099259  1
  Se  Se22  1  0.75000000  0.93195188  0.84412035  1
  Se  Se23  1  0.42815744  0.57129055  0.10904267  1
  Se  Se24  1  0.25000000  0.86476568  0.30757612  1
  Se  Se25  1  0.57316832  0.45092087  0.23237933  1
  Se  Se26  1  0.91217355  0.00572782  0.69178625  1
  Se  Se27  1  0.41217355  0.99427218  0.30821375  1
  Se  Se28  1  0.92815744  0.42870945  0.89095733  1
  Se  Se29  1  0.04338060  0.04359756  0.13568083  1
  Se  Se30  1  0.95816871  0.72462156  0.45303610  1
  Se  Se31  1  0.07316832  0.54907913  0.76762067  1
  Se  Se32  1  0.89228116  0.46055403  0.70900741  1
  Se  Se33  1  0.75000000  0.77145466  0.45750000  1
  Se  Se34  1  0.45661940  0.04359756  0.13568083  1
  Se  Se35  1  0.39136245  0.28966232  0.87377736  1
  Se  Se36  1  0.95661940  0.95640244  0.86431917  1
  Se  Se37  1  0.39228116  0.53944597  0.29099259  1
  Se  Se38  1  0.45816871  0.27537844  0.54696390  1
  Se  Se39  1  0.91361744  0.96219001  0.34415737  1
  Br  Br0  1  0.64957765  0.37411509  0.47955859  1
  Br  Br1  1  0.14957765  0.62588491  0.52044141  1
  Br  Br2  1  0.25000000  0.60254672  0.10668246  1
  Br  Br3  1  0.35142644  0.90153763  0.94701595  1
  Br  Br4  1  0.35042235  0.62588491  0.52044141  1
  Br  Br5  1  0.75000000  0.46604839  0.25000999  1
  Br  Br6  1  0.64857356  0.09846237  0.05298405  1
  Br  Br7  1  0.25000000  0.53395161  0.74999001  1
  Br  Br8  1  0.75000000  0.39745328  0.89331754  1
  Br  Br9  1  0.85142644  0.09846237  0.05298405  1
  Br  Br10  1  0.85042235  0.37411509  0.47955859  1
  Br  Br11  1  0.14857356  0.90153763  0.94701595  1
loop_
_geom_bond_atom_site_label_1
_geom_bond_atom_site_label_2
_geom_bond_distance
_geom_bond_site_symmetry_2
Nb0 Se16 2.573286 1_555
Nb0 Se39 2.623387 1_555
Nb0 Se11 2.657099 1_555
Nb0 Se30 2.661604 1_555
Nb0 Se4 2.726575 1_555
Nb0 Se33 2.731459 1_555
Nb1 Se21 2.654513 1_555
Nb1 Se11 2.654698 1_455
Nb1 Se30 2.665115 1_455
Nb1 Se29 2.672481 1_565
Nb1 Se3 2.702562 1_555
Nb1 Se16 2.705450 1_455
Nb1 Se19 2.708521 1_555
Nb1 Se39 2.709821 1_455
Nb2 Se10 2.654513 1_555
Nb2 Se35 2.654698 1_555
Nb2 Se38 2.665115 1_555
Nb2 Se5 2.672481 1_545
Nb2 Se15 2.702562 1_555
Nb2 Se18 2.705450 1_555
Nb2 Se14 2.708521 1_555
Nb2 Se8 2.709821 1_555
Nb3 Se19 2.572314 1_555
Nb3 Se3 2.622696 1_555
Nb3 Se29 2.657342 1_565
Nb3 Se21 2.658673 1_555
Nb3 Se24 2.722214 1_555
Nb3 Se13 2.729908 1_565
Nb4 Se37 2.654513 1_555
Nb4 Se1 2.654698 1_555
Nb4 Se12 2.665115 1_555
Nb4 Se34 2.672481 1_565
Nb4 Se27 2.702562 1_555
Nb4 Se25 2.705450 1_555
Nb4 Se23 2.708521 1_555
Nb4 Se0 2.709821 1_555
Nb5 Se23 2.572314 1_555
Nb5 Se27 2.622696 1_555
Nb5 Se34 2.657342 1_565
Nb5 Se37 2.658673 1_555
Nb5 Se24 2.722214 1_555
Nb5 Se13 2.729908 1_565
Nb6 Se32 2.654513 1_555
Nb6 Se17 2.654698 1_655
Nb6 Se20 2.665115 1_655
Nb6 Se36 2.672481 1_545
Nb6 Se26 2.702562 1_555
Nb6 Se31 2.705450 1_655
Nb6 Se28 2.708521 1_555
Nb6 Se7 2.709821 1_655
Nb7 Se25 2.573286 1_555
Nb7 Se0 2.623387 1_555
Nb7 Se1 2.657099 1_555
Nb7 Se12 2.661604 1_555
Nb7 Se4 2.726575 1_555
Nb7 Se33 2.731459 1_555
Nb8 Se18 2.573286 1_555
Nb8 Se8 2.623387 1_555
Nb8 Se35 2.657099 1_555
Nb8 Se38 2.661604 1_555
Nb8 Se2 2.726575 1_555
Nb8 Se9 2.731459 1_555
Nb9 Se31 2.573286 1_555
Nb9 Se7 2.623387 1_555
Nb9 Se17 2.657099 1_555
Nb9 Se20 2.661604 1_555
Nb9 Se2 2.726575 1_555
Nb9 Se9 2.731459 1_555
Nb10 Se28 2.572314 1_555
Nb10 Se26 2.622696 1_555
Nb10 Se36 2.657342 1_545
Nb10 Se32 2.658673 1_555
Nb10 Se6 2.722214 1_555
Nb10 Se22 2.729908 1_545
Nb11 Se14 2.572314 1_555
Nb11 Se15 2.622696 1_555
Nb11 Se5 2.657342 1_545
Nb11 Se10 2.658673 1_555
Nb11 Se6 2.722214 1_555
Nb11 Se22 2.729908 1_545
Se0 Se12 2.318508 1_555
Se1 Se25 2.367415 1_555
Se2 Se9 2.318022 1_555
Se10 Se14 2.367715 1_555
Se11 Se16 2.367415 1_555
Se13 Se24 2.320044 1_545
Se15 Se5 2.318567 1_545
Se17 Se31 2.367415 1_555
Se18 Se35 2.367415 1_555
Se19 Se21 2.367715 1_555
Se20 Se7 2.318508 1_555
Se22 Se6 2.320044 1_565
Se23 Se37 2.367715 1_555
Se26 Se36 2.318567 1_545
Se27 Se34 2.318567 1_565
Se28 Se32 2.367715 1_555
Se29 Se3 2.318567 1_545
Se30 Se39 2.318508 1_555
Se33 Se4 2.318022 1_555
Se38 Se8 2.318508 1_555
Br0 Nb7 2.717550 1_555
Br0 Se10 3.118085 1_555
Br1 Nb9 2.717550 1_555
Br1 Se21 3.118085 1_555
Br2 Nb3 2.739379 1_555
Br2 Nb5 2.739379 1_555
Br3 Nb5 2.714711 1_556
Br3 Se35 3.104725 1_565
Br4 Nb8 2.717550 1_555
Br4 Se37 3.118085 1_555
Br5 Nb0 2.730064 1_555
Br5 Nb7 2.730064 1_555
Br6 Nb11 2.714711 1_554
Br6 Se1 3.104725 1_545
Br7 Nb9 2.730064 1_555
Br7 Nb8 2.730064 1_555
Br8 Nb10 2.739379 1_555
Br8 Nb11 2.739379 1_555
Br9 Nb10 2.714711 1_554
Br9 Se11 3.104725 1_545
Br10 Nb0 2.717550 1_555
Br10 Se32 3.118085 1_555
Br11 Nb3 2.714711 1_556
Br11 Se17 3.104725 1_565
