# generated using pymatgen
data_Y2Co17
_symmetry_space_group_name_H-M   'P 1'
_cell_length_a   8.32222700
_cell_length_b   8.32222812
_cell_length_c   8.14406800
_cell_angle_alpha   90.00000000
_cell_angle_beta   90.00000000
_cell_angle_gamma   119.99999953
_symmetry_Int_Tables_number   1
_chemical_formula_structural   Y2Co17
_chemical_formula_sum   'Y4 Co34'
_cell_volume   488.48496193
_cell_formula_units_Z   2
loop_
 _symmetry_equiv_pos_site_id
 _symmetry_equiv_pos_as_xyz
  1  'x, y, z'
loop_
 _atom_site_type_symbol
 _atom_site_label
 _atom_site_symmetry_multiplicity
 _atom_site_fract_x
 _atom_site_fract_y
 _atom_site_fract_z
 _atom_site_occupancy
  Y  Y0  1  0.33333300  0.66666700  0.75000000  1
  Y  Y1  1  0.00000000  0.00000000  0.25000000  1
  Y  Y2  1  0.66666700  0.33333300  0.25000000  1
  Y  Y3  1  0.00000000  0.00000000  0.75000000  1
  Co  Co0  1  0.62483800  0.95416400  0.25000000  1
  Co  Co1  1  0.67067400  0.62483800  0.75000000  1
  Co  Co2  1  0.50000000  0.00000000  0.00000000  1
  Co  Co3  1  0.66666700  0.33333300  0.60778500  1
  Co  Co4  1  0.32932600  0.37516200  0.25000000  1
  Co  Co5  1  0.16682200  0.33364300  0.51871900  1
  Co  Co6  1  0.33364300  0.16682200  0.01871900  1
  Co  Co7  1  0.83317800  0.66635700  0.48128100  1
  Co  Co8  1  0.04583600  0.37516200  0.25000000  1
  Co  Co9  1  0.32932600  0.95416400  0.25000000  1
  Co  Co10  1  0.04583600  0.67067400  0.25000000  1
  Co  Co11  1  0.83317800  0.16682200  0.01871900  1
  Co  Co12  1  0.33333300  0.66666700  0.39221500  1
  Co  Co13  1  0.62483800  0.67067400  0.25000000  1
  Co  Co14  1  0.66635700  0.83317800  0.98128100  1
  Co  Co15  1  0.16682200  0.83317800  0.98128100  1
  Co  Co16  1  0.16682200  0.83317800  0.51871900  1
  Co  Co17  1  0.66635700  0.83317800  0.51871900  1
  Co  Co18  1  0.33333300  0.66666700  0.10778500  1
  Co  Co19  1  0.50000000  0.00000000  0.50000000  1
  Co  Co20  1  0.37516200  0.32932600  0.75000000  1
  Co  Co21  1  0.50000000  0.50000000  0.00000000  1
  Co  Co22  1  0.67067400  0.04583600  0.75000000  1
  Co  Co23  1  0.37516200  0.04583600  0.75000000  1
  Co  Co24  1  0.16682200  0.33364300  0.98128100  1
  Co  Co25  1  0.66666700  0.33333300  0.89221500  1
  Co  Co26  1  0.83317800  0.16682200  0.48128100  1
  Co  Co27  1  0.83317800  0.66635700  0.01871900  1
  Co  Co28  1  0.00000000  0.50000000  0.00000000  1
  Co  Co29  1  0.95416400  0.32932600  0.75000000  1
  Co  Co30  1  0.95416400  0.62483800  0.75000000  1
  Co  Co31  1  0.00000000  0.50000000  0.50000000  1
  Co  Co32  1  0.33364300  0.16682200  0.48128100  1
  Co  Co33  1  0.50000000  0.50000000  0.50000000  1
loop_
_geom_bond_atom_site_label_1
_geom_bond_atom_site_label_2
_geom_bond_distance
_geom_bond_site_symmetry_2
Co0 Co13 2.359268 1_555
Co0 Co2 2.401366 1_565
Co0 Co19 2.401366 1_565
Co0 Co9 2.459318 1_555
Co0 Co17 2.504091 1_555
Co0 Co14 2.504091 1_554
Co0 Co26 2.572484 1_565
Co0 Co11 2.572484 1_565
Co0 Co12 2.673383 1_555
Co0 Co18 2.673383 1_555
Co0 Y1 2.950010 1_665
Co0 Y2 2.996679 1_565
Co1 Co30 2.359268 1_555
Co1 Co21 2.401366 1_556
Co1 Co33 2.401366 1_555
Co1 Co20 2.459318 1_555
Co1 Co27 2.504087 1_556
Co1 Co7 2.504087 1_555
Co1 Co14 2.572481 1_555
Co1 Co17 2.572481 1_555
Co1 Co25 2.673387 1_555
Co1 Co3 2.673387 1_555
Co1 Y3 2.950010 1_665
Co1 Y0 2.996687 1_555
Co2 Co9 2.401366 1_545
Co2 Co22 2.401366 1_554
Co2 Co23 2.401366 1_554
Co2 Co6 2.406143 1_555
Co2 Co25 2.557765 1_554
Co2 Y0 3.149123 1_544
Co2 Y2 3.149123 1_555
Co3 Co31 2.557764 1_655
Co3 Co33 2.557771 1_555
Co3 Co32 2.611962 1_555
Co3 Co7 2.611962 1_555
Co3 Co30 2.673383 1_555
Co3 Y2 2.913825 1_555
Co4 Co8 2.359268 1_555
Co4 Co5 2.504087 1_555
Co4 Co6 2.572481 1_555
Co4 Y1 2.950010 1_555
Co4 Y2 2.996687 1_555
Co5 Co8 2.504091 1_555
Co5 Y0 3.051024 1_555
Co5 Y3 3.054535 1_555
Co5 Y1 3.251420 1_555
Co6 Co9 2.572487 1_545
Co6 Y2 3.051023 1_555
Co6 Y1 3.054534 1_555
Co6 Y3 3.251420 1_554
Co7 Y2 3.051024 1_555
Co7 Y1 3.054535 1_665
Co7 Y3 3.251420 1_665
Co8 Y1 2.950010 1_555
Co8 Y2 2.996678 1_455
Co9 Y1 2.950010 1_565
Co9 Y2 2.996682 1_565
Co10 Co9 2.359268 1_555
Co10 Co31 2.401366 1_555
Co10 Co28 2.401366 1_555
Co10 Co8 2.459318 1_555
Co10 Co16 2.504088 1_555
Co10 Co15 2.504088 1_554
Co10 Co7 2.572486 1_455
Co10 Co27 2.572486 1_455
Co10 Co12 2.673379 1_555
Co10 Co18 2.673379 1_555
Co10 Y1 2.950010 1_565
Co10 Y2 2.996682 1_455
Co11 Co2 2.406136 1_555
Co11 Co28 2.406136 1_655
Co11 Co24 2.423912 1_654
Co11 Co14 2.423912 1_544
Co11 Co22 2.504088 1_554
Co11 Co29 2.504088 1_554
Co11 Co8 2.572484 1_655
Co11 Co25 2.611949 1_554
Co11 Y2 3.051012 1_555
Co11 Y1 3.054540 1_655
Co11 Y3 3.251426 1_654
Co12 Co18 2.316417 1_555
Co12 Co31 2.557764 1_555
Co12 Co19 2.557765 1_565
Co12 Co33 2.557771 1_555
Co12 Co16 2.611949 1_555
Co12 Co17 2.611962 1_555
Co12 Co5 2.611962 1_555
Co12 Co9 2.673379 1_555
Co12 Co8 2.673383 1_555
Co12 Co13 2.673386 1_555
Co12 Co4 2.673387 1_555
Co12 Y0 2.913825 1_555
Co13 Co21 2.401366 1_555
Co13 Co33 2.401366 1_555
Co13 Co4 2.459318 1_555
Co13 Co17 2.504087 1_555
Co13 Co14 2.504087 1_554
Co13 Co7 2.572481 1_555
Co13 Co27 2.572481 1_555
Co13 Co18 2.673386 1_555
Co13 Y1 2.950010 1_665
Co13 Y2 2.996687 1_555
Co14 Co21 2.406136 1_556
Co14 Co2 2.406143 1_566
Co14 Co27 2.423898 1_556
Co14 Co22 2.572487 1_565
Co14 Co18 2.611962 1_556
Co14 Y0 3.051023 1_555
Co14 Y3 3.054534 1_665
Co14 Y1 3.251420 1_666
Co15 Co2 2.406136 1_566
Co15 Co28 2.406136 1_556
Co15 Co27 2.423912 1_456
Co15 Co6 2.423912 1_566
Co15 Co9 2.504088 1_556
Co15 Co30 2.572484 1_455
Co15 Co23 2.572484 1_565
Co15 Co18 2.611949 1_556
Co15 Y0 3.051012 1_555
Co15 Y3 3.054540 1_565
Co15 Y1 3.251426 1_566
Co16 Co19 2.406136 1_565
Co16 Co31 2.406136 1_555
Co16 Co7 2.423912 1_455
Co16 Co32 2.423912 1_565
Co16 Co9 2.504088 1_555
Co16 Co30 2.572484 1_455
Co16 Co23 2.572484 1_565
Co16 Y0 3.051012 1_555
Co16 Y3 3.054540 1_565
Co16 Y1 3.251426 1_565
Co17 Co33 2.406136 1_555
Co17 Co19 2.406143 1_565
Co17 Co7 2.423898 1_555
Co17 Co26 2.423912 1_565
Co17 Co22 2.572487 1_565
Co17 Y0 3.051023 1_555
Co17 Y3 3.054534 1_665
Co17 Y1 3.251420 1_665
Co18 Co28 2.557764 1_555
Co18 Co2 2.557765 1_565
Co18 Co21 2.557771 1_555
Co18 Co24 2.611962 1_554
Co18 Co9 2.673379 1_555
Co18 Co8 2.673383 1_555
Co18 Co4 2.673387 1_555
Co18 Y0 2.913825 1_554
Co19 Co9 2.401366 1_545
Co19 Co22 2.401366 1_555
Co19 Co23 2.401366 1_555
Co19 Co26 2.406136 1_555
Co19 Co32 2.406143 1_555
Co19 Co3 2.557765 1_555
Co19 Y0 3.149123 1_545
Co19 Y2 3.149123 1_555
Co20 Co23 2.359268 1_555
Co20 Co21 2.401366 1_556
Co20 Co33 2.401366 1_555
Co20 Co6 2.504087 1_556
Co20 Co32 2.504087 1_555
Co20 Co24 2.572481 1_555
Co20 Co5 2.572481 1_555
Co20 Co3 2.673386 1_555
Co20 Co25 2.673386 1_555
Co20 Y3 2.950010 1_555
Co20 Y0 2.996687 1_555
Co21 Co4 2.401366 1_555
Co21 Co27 2.406136 1_555
Co21 Co24 2.406136 1_554
Co21 Co6 2.406136 1_555
Co21 Co25 2.557771 1_554
Co21 Y0 3.149129 1_554
Co21 Y2 3.149129 1_555
Co22 Co29 2.359268 1_555
Co22 Co23 2.459318 1_555
Co22 Co26 2.504088 1_555
Co22 Co25 2.673379 1_555
Co22 Co3 2.673379 1_555
Co22 Y3 2.950010 1_655
Co22 Y0 2.996682 1_545
Co23 Co6 2.504091 1_556
Co23 Co32 2.504091 1_555
Co23 Co25 2.673383 1_555
Co23 Co3 2.673383 1_555
Co23 Y3 2.950010 1_555
Co23 Y0 2.996679 1_545
Co24 Co28 2.406143 1_556
Co24 Co6 2.423898 1_556
Co24 Co4 2.504087 1_556
Co24 Co8 2.504091 1_556
Co24 Co29 2.572486 1_455
Co24 Y0 3.051024 1_555
Co24 Y3 3.054535 1_555
Co24 Y1 3.251420 1_556
Co25 Co3 2.316417 1_555
Co25 Co28 2.557764 1_656
Co25 Co6 2.611962 1_556
Co25 Co27 2.611962 1_556
Co25 Co29 2.673379 1_555
Co25 Co30 2.673383 1_555
Co25 Y2 2.913825 1_556
Co26 Co31 2.406136 1_655
Co26 Co5 2.423912 1_655
Co26 Co29 2.504088 1_555
Co26 Co8 2.572484 1_655
Co26 Co3 2.611949 1_555
Co26 Y2 3.051012 1_555
Co26 Y1 3.054540 1_655
Co26 Y3 3.251426 1_655
Co27 Co28 2.406143 1_655
Co27 Co30 2.504091 1_554
Co27 Y2 3.051024 1_555
Co27 Y1 3.054535 1_665
Co27 Y3 3.251420 1_664
Co28 Co8 2.401366 1_555
Co28 Co30 2.401366 1_454
Co28 Co29 2.401366 1_454
Co28 Y2 3.149123 1_455
Co28 Y0 3.149123 1_554
Co29 Co31 2.401366 1_655
Co29 Co30 2.459318 1_555
Co29 Co5 2.572486 1_655
Co29 Co3 2.673379 1_555
Co29 Y3 2.950010 1_655
Co29 Y0 2.996682 1_655
Co30 Co31 2.401366 1_655
Co30 Co7 2.504091 1_555
Co30 Y3 2.950010 1_665
Co30 Y0 2.996678 1_655
Co31 Co8 2.401366 1_555
Co31 Co7 2.406143 1_455
Co31 Co5 2.406143 1_555
Co31 Y0 3.149123 1_555
Co31 Y2 3.149123 1_455
Co32 Co33 2.406136 1_555
Co32 Co5 2.423898 1_555
Co32 Co4 2.572481 1_555
Co32 Co9 2.572487 1_545
Co32 Y2 3.051023 1_555
Co32 Y1 3.054534 1_555
Co32 Y3 3.251420 1_555
Co33 Co4 2.401366 1_555
Co33 Co5 2.406136 1_555
Co33 Co7 2.406136 1_555
Co33 Y2 3.149129 1_555
Co33 Y0 3.149129 1_555
