# generated using pymatgen
data_Sc2CrB6
_symmetry_space_group_name_H-M   'P 1'
_cell_length_a   3.38485181
_cell_length_b   8.89771956
_cell_length_c   11.17720360
_cell_angle_alpha   90.00000000
_cell_angle_beta   90.00000000
_cell_angle_gamma   90.00000000
_symmetry_Int_Tables_number   1
_chemical_formula_structural   Sc2CrB6
_chemical_formula_sum   'Sc8 Cr4 B24'
_cell_volume   336.62900645
_cell_formula_units_Z   4
loop_
 _symmetry_equiv_pos_site_id
 _symmetry_equiv_pos_as_xyz
  1  'x, y, z'
loop_
 _atom_site_type_symbol
 _atom_site_label
 _atom_site_symmetry_multiplicity
 _atom_site_fract_x
 _atom_site_fract_y
 _atom_site_fract_z
 _atom_site_occupancy
  Sc  Sc0  1  0.00000000  0.82239071  0.08537061  1
  Sc  Sc1  1  -0.00000000  0.17760929  0.91462939  1
  Sc  Sc2  1  0.00000000  0.32239071  0.41462939  1
  Sc  Sc3  1  -0.00000000  0.67760929  0.58537061  1
  Sc  Sc4  1  -0.00000000  0.44288258  0.13037228  1
  Sc  Sc5  1  0.00000000  0.55711742  0.86962772  1
  Sc  Sc6  1  -0.00000000  0.94288258  0.36962772  1
  Sc  Sc7  1  -0.00000000  0.05711742  0.63037228  1
  Cr  Cr0  1  -0.00000000  0.14064390  0.18042114  1
  Cr  Cr1  1  -0.00000000  0.85935610  0.81957886  1
  Cr  Cr2  1  0.00000000  0.64064390  0.31957886  1
  Cr  Cr3  1  0.00000000  0.35935610  0.68042114  1
  B  B0  1  0.50000000  0.05359403  0.06544742  1
  B  B1  1  0.50000000  0.94640597  0.93455258  1
  B  B2  1  0.50000000  0.55359403  0.43455258  1
  B  B3  1  0.50000000  0.44640597  0.56544742  1
  B  B4  1  0.50000000  0.25160557  0.07960832  1
  B  B5  1  0.50000000  0.74839443  0.92039168  1
  B  B6  1  0.50000000  0.75160557  0.42039168  1
  B  B7  1  0.50000000  0.24839443  0.57960832  1
  B  B8  1  0.50000000  0.29441218  0.23706774  1
  B  B9  1  0.50000000  0.70558782  0.76293226  1
  B  B10  1  0.50000000  0.79441218  0.26293226  1
  B  B11  1  0.50000000  0.20558782  0.73706774  1
  B  B12  1  0.50000000  0.13082410  0.31729932  1
  B  B13  1  0.50000000  0.86917590  0.68270068  1
  B  B14  1  0.50000000  0.63082410  0.18270068  1
  B  B15  1  0.50000000  0.36917590  0.81729932  1
  B  B16  1  0.50000000  0.48063914  0.28836140  1
  B  B17  1  0.50000000  0.51936086  0.71163860  1
  B  B18  1  0.50000000  0.98063914  0.21163860  1
  B  B19  1  0.50000000  0.01936086  0.78836140  1
  B  B20  1  0.50000000  0.09918188  0.47275568  1
  B  B21  1  0.50000000  0.90081812  0.52724432  1
  B  B22  1  0.50000000  0.59918188  0.02724432  1
  B  B23  1  0.50000000  0.40081812  0.97275568  1
loop_
_geom_bond_atom_site_label_1
_geom_bond_atom_site_label_2
_geom_bond_distance
_geom_bond_site_symmetry_2
B0 B1 1.746448 1_544
B0 B18 1.758225 1_545
B0 B4 1.768947 1_555
B0 Cr0 2.261784 1_655
B0 Cr0 2.261784 1_555
B0 Sc1 2.631269 1_654
B0 Sc1 2.631269 1_554
B0 Sc0 2.673180 1_645
B0 Sc0 2.673180 1_545
B1 B19 1.758225 1_565
B1 B5 1.768947 1_555
B1 Cr1 2.261784 1_655
B1 Cr1 2.261784 1_555
B1 Sc0 2.631269 1_556
B1 Sc0 2.631269 1_656
B1 Sc1 2.673180 1_565
B1 Sc1 2.673180 1_665
B2 B3 1.746448 1_555
B2 B6 1.768947 1_555
B2 Cr2 2.261784 1_555
B2 Cr2 2.261784 1_655
B2 Sc3 2.631269 1_555
B2 Sc3 2.631269 1_655
B2 Sc2 2.673180 1_555
B2 Sc2 2.673180 1_655
B3 B7 1.768947 1_555
B3 Cr3 2.261784 1_655
B3 Cr3 2.261784 1_555
B3 Sc2 2.631269 1_655
B3 Sc2 2.631269 1_555
B3 Sc3 2.673180 1_555
B3 Sc3 2.673180 1_655
B4 B8 1.800699 1_555
B4 Cr0 2.260259 1_555
B4 Cr0 2.260259 1_655
B4 Sc4 2.466335 1_655
B4 Sc4 2.466335 1_555
B4 Sc1 2.588077 1_654
B4 Sc1 2.588077 1_554
B5 B9 1.800699 1_555
B5 Cr1 2.260259 1_555
B5 Cr1 2.260259 1_655
B5 Sc5 2.466335 1_555
B5 Sc5 2.466335 1_655
B5 Sc0 2.588077 1_556
B5 Sc0 2.588077 1_656
B6 Cr2 2.260259 1_655
B6 Cr2 2.260259 1_555
B6 Sc6 2.466335 1_555
B6 Sc6 2.466335 1_655
B6 Sc3 2.588077 1_555
B6 Sc3 2.588077 1_655
B7 Cr3 2.260259 1_655
B7 Cr3 2.260259 1_555
B7 Sc7 2.466335 1_555
B7 Sc7 2.466335 1_655
B7 Sc2 2.588077 1_555
B7 Sc2 2.588077 1_655
B8 Cr0 2.266522 1_655
B8 Cr0 2.266522 1_555
B8 Sc4 2.455945 1_655
B8 Sc4 2.455945 1_555
B8 Sc2 2.620131 1_555
B8 Sc2 2.620131 1_655
B9 Cr1 2.266522 1_655
B9 Cr1 2.266522 1_555
B9 Sc5 2.455945 1_555
B9 Sc5 2.455945 1_655
B9 Sc3 2.620131 1_555
B9 Sc3 2.620131 1_655
B10 B14 1.709633 1_555
B10 B18 1.753376 1_555
B10 B6 1.800699 1_555
B10 Cr2 2.266522 1_555
B10 Cr2 2.266522 1_655
B10 Sc6 2.455945 1_555
B10 Sc6 2.455945 1_655
B10 Sc0 2.620131 1_655
B10 Sc0 2.620131 1_555
B11 B15 1.709633 1_555
B11 B19 1.753376 1_555
B11 B7 1.800699 1_555
B11 Cr3 2.266522 1_655
B11 Cr3 2.266522 1_555
B11 Sc7 2.455945 1_655
B11 Sc7 2.455945 1_555
B11 Sc1 2.620131 1_655
B11 Sc1 2.620131 1_555
B12 B8 1.709633 1_555
B12 B20 1.760229 1_555
B12 B18 1.783381 1_545
B12 Cr0 2.283108 1_555
B12 Cr0 2.283108 1_655
B12 Sc6 2.450065 1_645
B12 Sc6 2.450065 1_545
B12 Sc2 2.636878 1_655
B12 Sc2 2.636878 1_555
B13 B9 1.709633 1_555
B13 B21 1.760229 1_555
B13 B19 1.783381 1_565
B13 Cr1 2.283108 1_655
B13 Cr1 2.283108 1_555
B13 Sc7 2.450065 1_665
B13 Sc7 2.450065 1_565
B13 Sc3 2.636878 1_555
B13 Sc3 2.636878 1_655
B14 B22 1.760229 1_555
B14 B16 1.783381 1_555
B14 Cr2 2.283108 1_655
B14 Cr2 2.283108 1_555
B14 Sc4 2.450065 1_555
B14 Sc4 2.450065 1_655
B14 Sc0 2.636878 1_655
B14 Sc0 2.636878 1_555
B15 B23 1.760229 1_555
B15 B17 1.783381 1_555
B15 Cr3 2.283108 1_555
B15 Cr3 2.283108 1_655
B15 Sc5 2.450065 1_555
B15 Sc5 2.450065 1_655
B15 Sc1 2.636878 1_655
B15 Sc1 2.636878 1_555
B16 B8 1.753376 1_555
B16 B2 1.758225 1_555
B16 Cr2 2.238953 1_555
B16 Cr2 2.238953 1_655
B16 Sc4 2.468904 1_655
B16 Sc4 2.468904 1_555
B16 Sc2 2.615099 1_555
B16 Sc2 2.615099 1_655
B17 B9 1.753376 1_555
B17 B3 1.758225 1_555
B17 Cr3 2.238953 1_655
B17 Cr3 2.238953 1_555
B17 Sc5 2.468904 1_555
B17 Sc5 2.468904 1_655
B17 Sc3 2.615099 1_555
B17 Sc3 2.615099 1_655
B18 Cr0 2.238953 1_665
B18 Cr0 2.238953 1_565
B18 Sc6 2.468904 1_555
B18 Sc6 2.468904 1_655
B18 Sc0 2.615099 1_655
B18 Sc0 2.615099 1_555
B19 Cr1 2.238953 1_645
B19 Cr1 2.238953 1_545
B19 Sc7 2.468904 1_655
B19 Sc7 2.468904 1_555
B19 Sc1 2.615099 1_555
B19 Sc1 2.615099 1_655
B20 B7 1.785789 1_555
B20 B21 1.867108 1_545
B20 Sc7 2.471441 1_655
B20 Sc7 2.471441 1_555
B20 Sc6 2.475288 1_545
B20 Sc6 2.475288 1_645
B20 Sc2 2.689014 1_555
B20 Sc2 2.689014 1_655
B21 B6 1.785789 1_555
B21 Sc6 2.471441 1_655
B21 Sc6 2.471441 1_555
B21 Sc7 2.475288 1_665
B21 Sc7 2.475288 1_565
B21 Sc3 2.689014 1_555
B21 Sc3 2.689014 1_655
B22 B5 1.785789 1_554
B22 B23 1.867108 1_554
B22 Sc5 2.471441 1_554
B22 Sc5 2.471441 1_654
B22 Sc4 2.475288 1_655
B22 Sc4 2.475288 1_555
B22 Sc0 2.689014 1_655
B22 Sc0 2.689014 1_555
B23 B4 1.785789 1_556
B23 Sc4 2.471441 1_556
B23 Sc4 2.471441 1_656
B23 Sc5 2.475288 1_555
B23 Sc5 2.475288 1_655
B23 Sc1 2.689014 1_655
B23 Sc1 2.689014 1_555
