# generated using pymatgen
data_K3SO4F
_symmetry_space_group_name_H-M   'P 1'
_cell_length_a   7.60991994
_cell_length_b   7.60991994
_cell_length_c   7.60991994
_cell_angle_alpha   121.90274322
_cell_angle_beta   121.90274322
_cell_angle_gamma   86.73478200
_symmetry_Int_Tables_number   1
_chemical_formula_structural   K3SO4F
_chemical_formula_sum   'K6 S2 O8 F2'
_cell_volume   302.12396432
_cell_formula_units_Z   2
loop_
 _symmetry_equiv_pos_site_id
 _symmetry_equiv_pos_as_xyz
  1  'x, y, z'
loop_
 _atom_site_type_symbol
 _atom_site_label
 _atom_site_symmetry_multiplicity
 _atom_site_fract_x
 _atom_site_fract_y
 _atom_site_fract_z
 _atom_site_occupancy
  K  K0  1  0.19296200  0.69296200  0.88592400  1
  K  K1  1  0.75000000  0.75000000  0.00000000  1
  K  K2  1  0.30703800  0.19296200  0.50000000  1
  K  K3  1  0.80703800  0.30703800  0.11407600  1
  K  K4  1  0.69296200  0.80703800  0.50000000  1
  K  K5  1  0.25000000  0.25000000  0.00000000  1
  S  S0  1  0.75000000  0.25000000  0.50000000  1
  S  S1  1  0.25000000  0.75000000  0.50000000  1
  O  O0  1  0.05490000  0.78740100  0.50000000  1
  O  O1  1  0.44510000  0.94510000  0.73250100  1
  O  O2  1  0.78740100  0.28740100  0.73250100  1
  O  O3  1  0.21259900  0.71259900  0.26749900  1
  O  O4  1  0.28740100  0.55490000  0.50000000  1
  O  O5  1  0.55490000  0.05490000  0.26749900  1
  O  O6  1  0.71259900  0.44510000  0.50000000  1
  O  O7  1  0.94510000  0.21259900  0.50000000  1
  F  F0  1  0.50000000  0.50000000  0.00000000  1
  F  F1  1  0.00000000  0.00000000  0.00000000  1
loop_
_geom_bond_atom_site_label_1
_geom_bond_atom_site_label_2
_geom_bond_distance
_geom_bond_site_symmetry_2
K0 O5 2.749858 1_566
K0 O3 2.749858 1_556
K0 O4 3.021415 1_555
K0 O0 3.021415 1_555
K0 O6 3.021415 1_455
K0 O7 3.021415 1_455
K1 O3 3.088943 1_655
K1 O7 3.088943 1_565
K1 O5 3.088943 1_565
K1 O6 3.088943 1_554
K1 O0 3.088943 1_655
K1 O1 3.088943 1_554
K1 O4 3.088943 1_554
K1 O2 3.088943 1_554
K2 O7 2.749858 1_455
K2 O4 2.749858 1_555
K2 O1 3.021415 1_545
K2 O3 3.021415 1_545
K2 O2 3.021415 1_555
K2 O5 3.021415 1_555
K3 O1 2.749858 1_544
K3 O2 2.749858 1_554
K3 O6 3.021415 1_555
K3 O4 3.021415 1_655
K3 O0 3.021415 1_655
K3 O7 3.021415 1_555
K4 O6 2.749858 1_555
K4 O0 2.749858 1_655
K4 O1 3.021415 1_555
K4 O2 3.021415 1_565
K4 O5 3.021415 1_565
K4 O3 3.021415 1_555
K5 O7 3.088943 1_454
K5 O2 3.088943 1_454
K5 O1 3.088943 1_544
K5 O0 3.088943 1_544
K5 O5 3.088943 1_555
K5 O6 3.088943 1_555
K5 O3 3.088943 1_555
K5 O4 3.088943 1_555
O0 S1 1.495724 1_555
O1 S1 1.495724 1_555
O2 S0 1.495724 1_555
O3 S1 1.495724 1_555
O4 S1 1.495724 1_555
O5 S0 1.495724 1_555
O6 S0 1.495724 1_555
O7 S0 1.495724 1_555
F0 K3 2.679906 1_555
F0 K4 2.679906 1_555
F0 K2 2.679906 1_554
F0 K0 2.679906 1_554
F0 K1 2.766075 1_555
F0 K5 2.766075 1_555
F1 K4 2.679906 1_444
F1 K2 2.679906 1_555
F1 K0 2.679906 1_544
F1 K3 2.679906 1_455
F1 K1 2.766075 1_445
F1 K5 2.766075 1_555
