# generated using pymatgen
data_SNClO
_symmetry_space_group_name_H-M   'P 1'
_cell_length_a   7.88663300
_cell_length_b   10.51263400
_cell_length_c   12.05511000
_cell_angle_alpha   90.00000000
_cell_angle_beta   90.00000000
_cell_angle_gamma   90.00000000
_symmetry_Int_Tables_number   1
_chemical_formula_structural   SNClO
_chemical_formula_sum   'S12 N12 Cl12 O12'
_cell_volume   999.48056542
_cell_formula_units_Z   12
loop_
 _symmetry_equiv_pos_site_id
 _symmetry_equiv_pos_as_xyz
  1  'x, y, z'
loop_
 _atom_site_type_symbol
 _atom_site_label
 _atom_site_symmetry_multiplicity
 _atom_site_fract_x
 _atom_site_fract_y
 _atom_site_fract_z
 _atom_site_occupancy
  S  S0  1  0.40254100  0.51972100  0.25000000  1
  S  S1  1  0.86946800  0.86861100  0.63504000  1
  S  S2  1  0.59745900  0.48027900  0.75000000  1
  S  S3  1  0.13053200  0.13138900  0.36496000  1
  S  S4  1  0.36946800  0.63138900  0.86496000  1
  S  S5  1  0.09745900  0.01972100  0.75000000  1
  S  S6  1  0.63053200  0.36861100  0.36496000  1
  S  S7  1  0.90254100  0.98027900  0.25000000  1
  S  S8  1  0.13053200  0.13138900  0.13504000  1
  S  S9  1  0.36946800  0.63138900  0.63504000  1
  S  S10  1  0.86946800  0.86861100  0.86496000  1
  S  S11  1  0.63053200  0.36861100  0.13504000  1
  N  N0  1  0.53797500  0.54967700  0.64018100  1
  N  N1  1  0.67915400  0.30486000  0.25000000  1
  N  N2  1  0.03797500  0.95032300  0.64018100  1
  N  N3  1  0.17915400  0.19514000  0.25000000  1
  N  N4  1  0.53797500  0.54967700  0.85981900  1
  N  N5  1  0.03797500  0.95032300  0.85981900  1
  N  N6  1  0.46202500  0.45032300  0.35981900  1
  N  N7  1  0.32084600  0.69514000  0.75000000  1
  N  N8  1  0.96202500  0.04967700  0.14018100  1
  N  N9  1  0.96202500  0.04967700  0.35981900  1
  N  N10  1  0.46202500  0.45032300  0.14018100  1
  N  N11  1  0.82084600  0.80486000  0.75000000  1
  Cl  Cl0  1  0.67857000  0.99252200  0.59856800  1
  Cl  Cl1  1  0.98232600  0.19356300  0.75000000  1
  Cl  Cl2  1  0.82143000  0.49252200  0.09856800  1
  Cl  Cl3  1  0.17857000  0.50747800  0.90143200  1
  Cl  Cl4  1  0.01767400  0.80643700  0.25000000  1
  Cl  Cl5  1  0.17857000  0.50747800  0.59856800  1
  Cl  Cl6  1  0.51767400  0.69356300  0.25000000  1
  Cl  Cl7  1  0.32143000  0.00747800  0.09856800  1
  Cl  Cl8  1  0.32143000  0.00747800  0.40143200  1
  Cl  Cl9  1  0.48232600  0.30643700  0.75000000  1
  Cl  Cl10  1  0.67857000  0.99252200  0.90143200  1
  Cl  Cl11  1  0.82143000  0.49252200  0.40143200  1
  O  O0  1  0.72402700  0.95814300  0.25000000  1
  O  O1  1  0.62477700  0.27715700  0.04779300  1
  O  O2  1  0.12477700  0.22284300  0.45220700  1
  O  O3  1  0.37522300  0.72284300  0.95220700  1
  O  O4  1  0.22402700  0.54185700  0.25000000  1
  O  O5  1  0.12477700  0.22284300  0.04779300  1
  O  O6  1  0.27597300  0.04185700  0.75000000  1
  O  O7  1  0.37522300  0.72284300  0.54779300  1
  O  O8  1  0.87522300  0.77715700  0.54779300  1
  O  O9  1  0.87522300  0.77715700  0.95220700  1
  O  O10  1  0.62477700  0.27715700  0.45220700  1
  O  O11  1  0.77597300  0.45814300  0.75000000  1
loop_
_geom_bond_atom_site_label_1
_geom_bond_atom_site_label_2
_geom_bond_distance
_geom_bond_site_symmetry_2
N0 S2 1.582717 1_555
N0 S9 1.583620 1_555
N1 S6 1.586441 1_555
N1 S11 1.586441 1_555
N2 S5 1.582717 1_565
N2 S1 1.583620 1_455
N3 S3 1.586441 1_555
N3 S8 1.586441 1_555
N4 S2 1.582717 1_555
N4 S4 1.583620 1_555
N5 S5 1.582717 1_565
N5 S10 1.583620 1_455
N6 S0 1.582717 1_555
N6 S6 1.583620 1_555
N7 S9 1.586441 1_555
N7 S4 1.586441 1_555
N8 S7 1.582717 1_545
N8 S8 1.583620 1_655
N9 S7 1.582717 1_545
N9 S3 1.583620 1_655
N10 S0 1.582717 1_555
N10 S11 1.583620 1_555
N11 S1 1.586441 1_555
N11 S10 1.586441 1_555
Cl0 S1 2.038828 1_555
Cl1 S5 2.040681 1_655
Cl2 S11 2.038828 1_555
Cl3 S4 2.038828 1_555
Cl4 S7 2.040681 1_455
Cl5 S9 2.038828 1_555
Cl6 S0 2.040681 1_555
Cl7 S8 2.038828 1_555
Cl8 S3 2.038828 1_555
Cl9 S2 2.040681 1_555
Cl10 S10 2.038828 1_555
Cl11 S6 2.038828 1_555
O0 S7 1.426977 1_555
O1 S11 1.425699 1_555
O2 S3 1.425699 1_555
O3 S4 1.425699 1_555
O4 S0 1.426977 1_555
O5 S8 1.425699 1_555
O6 S5 1.426977 1_555
O7 S9 1.425699 1_555
O8 S1 1.425699 1_555
O9 S10 1.425699 1_555
O10 S6 1.425699 1_555
O11 S2 1.426977 1_555
