# generated using pymatgen
data_Ce2Ga12Cu
_symmetry_space_group_name_H-M   'P 1'
_cell_length_a   6.11540931
_cell_length_b   6.11562480
_cell_length_c   15.18702900
_cell_angle_alpha   89.99965686
_cell_angle_beta   89.99974975
_cell_angle_gamma   90.00112427
_symmetry_Int_Tables_number   1
_chemical_formula_structural   Ce2Ga12Cu
_chemical_formula_sum   'Ce4 Ga24 Cu2'
_cell_volume   567.98803274
_cell_formula_units_Z   2
loop_
 _symmetry_equiv_pos_site_id
 _symmetry_equiv_pos_as_xyz
  1  'x, y, z'
loop_
 _atom_site_type_symbol
 _atom_site_label
 _atom_site_symmetry_multiplicity
 _atom_site_fract_x
 _atom_site_fract_y
 _atom_site_fract_z
 _atom_site_occupancy
  Ce  Ce0  1  -0.00000317  0.50000127  0.75566198  1
  Ce  Ce1  1  0.49999762  -0.00000203  0.75566741  1
  Ce  Ce2  1  0.00000236  0.50000329  0.24434498  1
  Ce  Ce3  1  0.50000224  0.00000090  0.24434493  1
  Ga  Ga0  1  0.67748384  0.17748478  0.42786704  1
  Ga  Ga1  1  0.67725569  0.82272451  0.57245500  1
  Ga  Ga2  1  0.17727912  0.67727199  0.57244568  1
  Ga  Ga3  1  0.82272381  0.32274285  0.57245321  1
  Ga  Ga4  1  0.49999523  0.49999684  0.17887536  1
  Ga  Ga5  1  0.49999588  0.50000706  0.82101624  1
  Ga  Ga6  1  -0.00000191  0.00000019  0.82099330  1
  Ga  Ga7  1  -0.00000591  -0.00000309  0.17888340  1
  Ga  Ga8  1  0.49999927  0.49997946  0.34024659  1
  Ga  Ga9  1  0.49998918  0.49999510  0.65986767  1
  Ga  Ga10  1  -0.00000087  -0.00000130  0.65983812  1
  Ga  Ga11  1  0.00000731  -0.00000526  0.34026200  1
  Ga  Ga12  1  0.24994487  0.74993444  0.91482308  1
  Ga  Ga13  1  0.25000497  0.24999870  0.91482691  1
  Ga  Ga14  1  0.74999189  0.75000160  0.91482785  1
  Ga  Ga15  1  0.25005326  0.24996199  0.08487601  1
  Ga  Ga16  1  0.74993438  0.75003334  0.08487656  1
  Ga  Ga17  1  0.75005674  0.25006841  0.91482133  1
  Ga  Ga18  1  0.75002671  0.25003787  0.08487300  1
  Ga  Ga19  1  0.24996406  0.74996862  0.08487395  1
  Ga  Ga20  1  0.32256793  0.82252050  0.42786028  1
  Ga  Ga21  1  0.17749304  0.32250709  0.42786914  1
  Ga  Ga22  1  0.82250124  0.67749661  0.42786782  1
  Ga  Ga23  1  0.32274245  0.17727197  0.57245579  1
  Cu  Cu0  1  0.49999941  0.00000186  -0.00003752  1
  Cu  Cu1  1  -0.00000061  0.50000043  -0.00003812  1
loop_
_geom_bond_atom_site_label_1
_geom_bond_atom_site_label_2
_geom_bond_distance
_geom_bond_site_symmetry_2
Ce0 Ga3 3.176818 1_455
Ce0 Ga2 3.176943 1_555
Ce0 Ga6 3.214755 1_565
Ce0 Ga6 3.214756 1_555
Ce0 Ga5 3.214759 1_555
Ce0 Ga5 3.214762 1_455
Ce0 Ga17 3.242692 1_455
Ce0 Ga12 3.242759 1_555
Ce0 Ga14 3.243189 1_455
Ce0 Ga13 3.243190 1_555
Ce0 Ga9 3.386114 1_555
Ce0 Ga9 3.386210 1_455
Ce0 Ga10 3.386430 1_565
Ce0 Ga10 3.386474 1_555
Ce1 Ga23 3.176854 1_555
Ce1 Ga1 3.176873 1_545
Ce1 Ga6 3.214621 1_555
Ce1 Ga6 3.214635 1_655
Ce1 Ga5 3.214779 1_545
Ce1 Ga5 3.214896 1_555
Ce1 Ga14 3.243082 1_545
Ce1 Ga13 3.243083 1_555
Ce1 Ga12 3.243352 1_545
Ce1 Ga17 3.243394 1_555
Ce1 Ga9 3.386271 1_555
Ce1 Ga9 3.386318 1_545
Ce1 Ga10 3.386387 1_555
Ce1 Ga10 3.386393 1_655
Ce2 Ga21 3.181967 1_555
Ce2 Ga22 3.181968 1_455
Ce2 Ga4 3.215257 1_555
Ce2 Ga7 3.215324 1_565
Ce2 Ga4 3.215348 1_455
Ce2 Ga7 3.215410 1_555
Ce2 Ga19 3.246378 1_555
Ce2 Ga18 3.246452 1_455
Ce2 Ga15 3.246872 1_555
Ce2 Ga16 3.246879 1_455
Ce2 Ga8 3.386851 1_555
Ce2 Ga8 3.386873 1_455
Ce2 Ga11 3.387021 1_565
Ce2 Ga11 3.387099 1_555
Ce3 Ga20 3.181676 1_545
Ce3 Ga0 3.181892 1_555
Ce3 Ga7 3.215213 1_655
Ce3 Ga7 3.215316 1_555
Ce3 Ga4 3.215375 1_555
Ce3 Ga4 3.215434 1_545
Ce3 Ga16 3.246311 1_545
Ce3 Ga15 3.246343 1_555
Ce3 Ga18 3.246775 1_555
Ce3 Ga19 3.246814 1_545
Ce3 Ga8 3.386849 1_555
Ce3 Ga11 3.386929 1_555
Ce3 Ga11 3.386997 1_655
Ce3 Ga8 3.387070 1_545
Ga0 Ga3 2.529774 1_555
Ga0 Ga11 2.615081 1_655
Ga0 Ga8 2.615087 1_555
Ga1 Ga22 2.529740 1_555
Ga1 Ga10 2.613812 1_665
Ga1 Ga9 2.613976 1_555
Ga2 Ga20 2.529832 1_555
Ga2 Ga9 2.613990 1_555
Ga3 Ga9 2.613981 1_555
Ga4 Ga8 2.450750 1_555
Ga5 Ga9 2.447368 1_555
Ga10 Ga6 2.447468 1_555
Ga10 Ga23 2.613788 1_555
Ga10 Ga2 2.613886 1_545
Ga10 Ga3 2.613889 1_455
Ga11 Ga7 2.450861 1_555
Ga11 Ga22 2.615008 1_445
Ga11 Ga21 2.615049 1_555
Ga11 Ga20 2.615162 1_545
Ga12 Ga19 2.582568 1_556
Ga12 Ga5 2.589258 1_555
Ga12 Ga6 2.589570 1_565
Ga13 Ga15 2.582541 1_556
Ga13 Ga5 2.589320 1_555
Ga13 Ga6 2.589551 1_555
Ga14 Ga16 2.582535 1_556
Ga14 Ga5 2.589314 1_555
Ga14 Ga6 2.589540 1_665
Ga15 Ga4 2.590834 1_555
Ga15 Ga7 2.591055 1_555
Ga16 Ga4 2.590808 1_555
Ga16 Ga7 2.591065 1_665
Ga17 Ga18 2.582580 1_556
Ga17 Ga5 2.589317 1_555
Ga17 Ga6 2.589548 1_655
Ga18 Ga4 2.590937 1_555
Ga18 Ga7 2.591066 1_655
Ga19 Ga4 2.590971 1_555
Ga19 Ga7 2.591024 1_565
Ga20 Ga8 2.615121 1_555
Ga21 Ga23 2.529754 1_555
Ga21 Ga8 2.615053 1_555
Ga22 Ga8 2.615152 1_555
Ga23 Ga9 2.613908 1_555
Cu0 Ga16 2.517196 1_545
Cu0 Ga15 2.517204 1_555
Cu0 Ga18 2.517734 1_555
Cu0 Ga19 2.517745 1_545
Cu0 Ga13 2.519246 1_554
Cu0 Ga14 2.519247 1_544
Cu0 Ga12 2.519734 1_544
Cu0 Ga17 2.519739 1_554
Cu1 Ga18 2.517247 1_455
Cu1 Ga19 2.517262 1_555
Cu1 Ga15 2.517897 1_555
Cu1 Ga16 2.517925 1_455
Cu1 Ga12 2.518813 1_554
Cu1 Ga17 2.518825 1_454
Cu1 Ga14 2.519299 1_454
Cu1 Ga13 2.519304 1_554
