# generated using pymatgen
data_LiPr(SO4)2
_symmetry_space_group_name_H-M   'P 1'
_cell_length_a   6.78547900
_cell_length_b   7.10598900
_cell_length_c   13.87544615
_cell_angle_alpha   75.17593531
_cell_angle_beta   90.00000000
_cell_angle_gamma   90.00000000
_symmetry_Int_Tables_number   1
_chemical_formula_structural   LiPr(SO4)2
_chemical_formula_sum   'Li4 Pr4 S8 O32'
_cell_volume   646.77155440
_cell_formula_units_Z   4
loop_
 _symmetry_equiv_pos_site_id
 _symmetry_equiv_pos_as_xyz
  1  'x, y, z'
loop_
 _atom_site_type_symbol
 _atom_site_label
 _atom_site_symmetry_multiplicity
 _atom_site_fract_x
 _atom_site_fract_y
 _atom_site_fract_z
 _atom_site_occupancy
  Li  Li0  1  0.25384100  0.04345400  0.44590400  1
  Li  Li1  1  0.75384100  0.45654600  0.55409600  1
  Li  Li2  1  0.24615900  0.54345400  0.44590400  1
  Li  Li3  1  0.74615900  0.95654600  0.55409600  1
  Pr  Pr0  1  0.38891000  0.34556100  0.81600200  1
  Pr  Pr1  1  0.61109000  0.65443900  0.18399800  1
  Pr  Pr2  1  0.11109000  0.84556100  0.81600200  1
  Pr  Pr3  1  0.88891000  0.15443900  0.18399800  1
  S  S0  1  0.57180600  0.80656100  0.89520800  1
  S  S1  1  0.07180600  0.69343900  0.10479200  1
  S  S2  1  0.59600300  0.81649700  0.38264500  1
  S  S3  1  0.42819400  0.19343900  0.10479200  1
  S  S4  1  0.90399700  0.31649700  0.38264500  1
  S  S5  1  0.92819400  0.30656100  0.89520800  1
  S  S6  1  0.40399700  0.18350300  0.61735500  1
  S  S7  1  0.09600300  0.68350300  0.61735500  1
  O  O0  1  0.24592500  0.14476900  0.69734800  1
  O  O1  1  0.11202000  0.76160700  0.99787100  1
  O  O2  1  0.88798000  0.23839300  0.00212900  1
  O  O3  1  0.05330500  0.48669800  0.87239200  1
  O  O4  1  0.75641700  0.84197800  0.83766600  1
  O  O5  1  0.44522000  0.66152000  0.86121100  1
  O  O6  1  0.74592500  0.35523100  0.30265200  1
  O  O7  1  0.18612200  0.76226500  0.51795100  1
  O  O8  1  0.55330500  0.01330200  0.12760800  1
  O  O9  1  0.98794300  0.50400200  0.62134400  1
  O  O10  1  0.81387800  0.23773500  0.48204900  1
  O  O11  1  0.94669500  0.51330200  0.12760800  1
  O  O12  1  0.46824300  0.66396500  0.35523300  1
  O  O13  1  0.94522000  0.83848000  0.13878900  1
  O  O14  1  0.68612200  0.73773500  0.48204900  1
  O  O15  1  0.38798000  0.26160700  0.99787100  1
  O  O16  1  0.01205700  0.49599800  0.37865600  1
  O  O17  1  0.25407500  0.64476900  0.69734800  1
  O  O18  1  0.44669500  0.98669800  0.87239200  1
  O  O19  1  0.48794300  0.99599800  0.37865600  1
  O  O20  1  0.25641700  0.65802200  0.16233400  1
  O  O21  1  0.03175700  0.16396500  0.35523300  1
  O  O22  1  0.24358300  0.15802200  0.16233400  1
  O  O23  1  0.53175700  0.33603500  0.64476700  1
  O  O24  1  0.31387800  0.26226500  0.51795100  1
  O  O25  1  0.05478000  0.16152000  0.86121100  1
  O  O26  1  0.55478000  0.33848000  0.13878900  1
  O  O27  1  0.61202000  0.73839300  0.00212900  1
  O  O28  1  0.74358300  0.34197800  0.83766600  1
  O  O29  1  0.51205700  0.00400200  0.62134400  1
  O  O30  1  0.75407500  0.85523100  0.30265200  1
  O  O31  1  0.96824300  0.83603500  0.64476700  1
loop_
_geom_bond_atom_site_label_1
_geom_bond_atom_site_label_2
_geom_bond_distance
_geom_bond_site_symmetry_2
Li0 O19 1.915389 1_545
Li0 O21 2.008916 1_555
Li0 O7 2.044724 1_545
Li0 O24 2.092444 1_555
Li1 O9 1.915389 1_555
Li1 O23 2.008916 1_555
Li1 O14 2.044724 1_555
Li1 O10 2.092444 1_555
Li2 O16 1.915389 1_555
Li2 O12 2.008916 1_555
Li2 O24 2.044724 1_555
Li2 O7 2.092444 1_555
Li3 O29 1.915389 1_565
Li3 O31 2.008916 1_555
Li3 O10 2.044724 1_565
Li3 O14 2.092444 1_555
O0 S6 1.517186 1_555
O0 Pr2 2.505399 1_545
O0 Pr0 2.624835 1_555
O1 S1 1.463683 1_556
O1 Pr2 2.440023 1_555
O2 S5 1.463683 1_554
O2 Pr3 2.440023 1_555
O3 S5 1.500696 1_455
O3 Pr2 2.499570 1_555
O3 Pr0 2.684291 1_555
O4 S0 1.472136 1_555
O4 Pr2 2.424653 1_655
O5 S0 1.507102 1_555
O5 Pr0 2.510200 1_555
O5 Pr2 2.612351 1_555
O6 S4 1.517186 1_555
O6 Pr1 2.505399 1_555
O6 Pr3 2.624835 1_555
O7 S7 1.481406 1_555
O8 S3 1.500696 1_555
O8 Pr1 2.499570 1_545
O8 Pr3 2.684291 1_555
O9 S7 1.459986 1_655
O10 S4 1.481406 1_555
O11 S1 1.500696 1_655
O11 Pr3 2.499570 1_555
O11 Pr1 2.684291 1_555
O12 S2 1.510623 1_555
O12 Pr1 2.582942 1_555
O13 S1 1.507102 1_655
O13 Pr3 2.510200 1_565
O13 Pr1 2.612351 1_555
O14 S2 1.481406 1_555
O15 S3 1.463683 1_556
O15 Pr0 2.440023 1_555
O16 S4 1.459986 1_455
O17 S7 1.517186 1_555
O17 Pr0 2.505399 1_555
O17 Pr2 2.624835 1_555
O18 S0 1.500696 1_555
O18 Pr0 2.499570 1_565
O18 Pr2 2.684291 1_555
O19 S2 1.459986 1_555
O20 S1 1.472136 1_555
O20 Pr1 2.424653 1_555
O21 S4 1.510623 1_455
O21 Pr3 2.582942 1_455
O22 S3 1.472136 1_555
O22 Pr3 2.424653 1_455
O23 S6 1.510623 1_555
O23 Pr0 2.582942 1_555
O24 S6 1.481406 1_555
O25 S5 1.507102 1_455
O25 Pr2 2.510200 1_545
O25 Pr0 2.612351 1_555
O26 S3 1.507102 1_555
O26 Pr1 2.510200 1_555
O26 Pr3 2.612351 1_555
O27 S0 1.463683 1_554
O27 Pr1 2.440023 1_555
O28 S5 1.472136 1_555
O28 Pr0 2.424653 1_555
O29 S6 1.459986 1_555
O30 S2 1.517186 1_555
O30 Pr3 2.505399 1_565
O30 Pr1 2.624835 1_555
O31 S7 1.510623 1_655
O31 Pr2 2.582942 1_655
