# generated using pymatgen
data_KSb(PS3)2
_symmetry_space_group_name_H-M   'P 1'
_cell_length_a   7.87765200
_cell_length_b   6.76063400
_cell_length_c   9.90608372
_cell_angle_alpha   87.60755304
_cell_angle_beta   90.00000000
_cell_angle_gamma   90.00000000
_symmetry_Int_Tables_number   1
_chemical_formula_structural   KSb(PS3)2
_chemical_formula_sum   'K2 Sb2 P4 S12'
_cell_volume   527.11756636
_cell_formula_units_Z   2
loop_
 _symmetry_equiv_pos_site_id
 _symmetry_equiv_pos_as_xyz
  1  'x, y, z'
loop_
 _atom_site_type_symbol
 _atom_site_label
 _atom_site_symmetry_multiplicity
 _atom_site_fract_x
 _atom_site_fract_y
 _atom_site_fract_z
 _atom_site_occupancy
  K  K0  1  0.44574900  0.69473700  0.49244700  1
  K  K1  1  0.94574900  0.30526300  0.50755300  1
  Sb  Sb0  1  0.73689200  0.81460700  0.01803000  1
  Sb  Sb1  1  0.23689200  0.18539300  0.98197000  1
  P  P0  1  0.93274000  0.79565200  0.30191500  1
  P  P1  1  0.64907100  0.30640100  0.82865000  1
  P  P2  1  0.14907100  0.69359900  0.17135000  1
  P  P3  1  0.43274000  0.20434800  0.69808500  1
  S  S0  1  0.35913700  0.95004500  0.80743900  1
  S  S1  1  0.03527400  0.67308400  0.98167300  1
  S  S2  1  0.24931500  0.40805000  0.73088400  1
  S  S3  1  0.53527400  0.32691600  0.01832700  1
  S  S4  1  0.83627300  0.09313200  0.82989700  1
  S  S5  1  0.33627300  0.90686800  0.17010300  1
  S  S6  1  0.74931500  0.59195000  0.26911600  1
  S  S7  1  0.85913700  0.04995500  0.19256100  1
  S  S8  1  0.51371700  0.17412600  0.51164100  1
  S  S9  1  0.73498300  0.56670200  0.75277400  1
  S  S10  1  0.01371700  0.82587400  0.48835900  1
  S  S11  1  0.23498300  0.43329800  0.24722600  1
loop_
_geom_bond_atom_site_label_1
_geom_bond_atom_site_label_2
_geom_bond_distance
_geom_bond_site_symmetry_2
K0 S8 3.298211 1_565
K0 S6 3.350285 1_555
K0 S2 3.368659 1_555
K0 S11 3.484270 1_555
K0 S10 3.516783 1_555
K0 S9 3.522032 1_555
K0 S5 3.551690 1_555
K0 S8 3.557383 1_555
K0 S0 3.692007 1_555
K1 S10 3.298211 1_645
K1 S2 3.350285 1_655
K1 S6 3.368659 1_555
K1 S9 3.484270 1_555
K1 S8 3.516783 1_555
K1 S11 3.522032 1_655
K1 S4 3.551690 1_555
K1 S10 3.557383 1_655
K1 S7 3.692007 1_555
P0 S10 1.972645 1_655
P0 S6 2.031596 1_555
P0 S7 2.076052 1_565
P0 P2 2.264422 1_655
P1 S9 2.002362 1_555
P1 S4 2.062117 1_555
P1 S3 2.091673 1_556
P1 P3 2.264422 1_555
P2 S11 2.002362 1_555
P2 S5 2.062117 1_555
P2 S1 2.091673 1_554
P3 S8 1.972645 1_555
P3 S2 2.031596 1_555
P3 S0 2.076052 1_545
S0 Sb1 2.584145 1_565
S1 Sb0 2.568852 1_456
S2 Sb1 2.854730 1_555
S3 Sb1 2.568852 1_554
S4 Sb0 2.709036 1_546
S5 Sb1 2.709036 1_564
S6 Sb0 2.854730 1_555
S7 Sb0 2.584145 1_545
