# generated using pymatgen
data_Cd4GeS6
_symmetry_space_group_name_H-M   'P 1'
_cell_length_a   7.27927422
_cell_length_b   7.27927422
_cell_length_c   12.66627835
_cell_angle_alpha   72.61856586
_cell_angle_beta   72.61856586
_cell_angle_gamma   59.82021305
_symmetry_Int_Tables_number   1
_chemical_formula_structural   Cd4GeS6
_chemical_formula_sum   'Cd8 Ge2 S12'
_cell_volume   544.64085462
_cell_formula_units_Z   2
loop_
 _symmetry_equiv_pos_site_id
 _symmetry_equiv_pos_as_xyz
  1  'x, y, z'
loop_
 _atom_site_type_symbol
 _atom_site_label
 _atom_site_symmetry_multiplicity
 _atom_site_fract_x
 _atom_site_fract_y
 _atom_site_fract_z
 _atom_site_occupancy
  Cd  Cd0  1  0.26875000  0.67129900  0.29982500  1
  Cd  Cd1  1  0.67129900  0.26875000  0.79982500  1
  Cd  Cd2  1  0.75685800  0.91275000  0.14443800  1
  Cd  Cd3  1  0.91275000  0.75685800  0.64443800  1
  Cd  Cd4  1  0.54405100  0.76601800  0.95253100  1
  Cd  Cd5  1  0.76601800  0.54405100  0.45253100  1
  Cd  Cd6  1  0.07268900  0.28597000  0.14266400  1
  Cd  Cd7  1  0.28597000  0.07268900  0.64266400  1
  Ge  Ge0  1  0.13151800  0.67712200  0.89004800  1
  Ge  Ge1  1  0.67712200  0.13151800  0.39004800  1
  S  S0  1  0.70912000  0.24596300  0.20477000  1
  S  S1  1  0.24596300  0.70912000  0.70477000  1
  S  S2  1  0.56078200  0.01015600  0.75875200  1
  S  S3  1  0.01015600  0.56078200  0.25875200  1
  S  S4  1  0.99763800  0.95415800  0.44083400  1
  S  S5  1  0.95415800  0.99763800  0.94083400  1
  S  S6  1  0.95423300  0.48079900  0.94704500  1
  S  S7  1  0.48079900  0.95423300  0.44704500  1
  S  S8  1  0.43053600  0.47432400  0.96589000  1
  S  S9  1  0.47432400  0.43053600  0.46589000  1
  S  S10  1  0.40390100  0.91356400  0.13740200  1
  S  S11  1  0.91356400  0.40390100  0.63740200  1
loop_
_geom_bond_atom_site_label_1
_geom_bond_atom_site_label_2
_geom_bond_distance
_geom_bond_site_symmetry_2
Cd0 S10 2.584142 1_555
Cd0 S9 2.603166 1_555
Cd0 S3 2.611302 1_555
Cd0 S4 2.707388 1_455
Cd1 S11 2.584142 1_555
Cd1 S8 2.603166 1_555
Cd1 S2 2.611302 1_555
Cd1 S5 2.707388 1_545
Cd2 S0 2.586376 1_565
Cd2 S3 2.586388 1_655
Cd2 S10 2.594284 1_555
Cd2 S5 2.611999 1_554
Cd3 S1 2.586376 1_655
Cd3 S2 2.586388 1_565
Cd3 S11 2.594284 1_555
Cd3 S4 2.611999 1_555
Cd4 S2 2.574951 1_565
Cd4 S10 2.578992 1_556
Cd4 S8 2.585682 1_555
Cd4 S6 2.638178 1_555
Cd5 S3 2.574951 1_655
Cd5 S11 2.578992 1_555
Cd5 S9 2.585682 1_555
Cd5 S7 2.638178 1_555
Cd6 S10 2.570333 1_545
Cd6 S3 2.610171 1_555
Cd6 S6 2.615652 1_454
Cd6 S0 2.664934 1_455
Cd7 S11 2.570333 1_455
Cd7 S2 2.610171 1_555
Cd7 S7 2.615652 1_545
Cd7 S1 2.664934 1_545
Ge0 S5 2.212699 1_455
Ge0 S6 2.215877 1_455
Ge0 S1 2.226230 1_555
Ge0 S8 2.238558 1_555
Ge1 S4 2.212699 1_545
Ge1 S7 2.215877 1_545
Ge1 S0 2.226230 1_555
Ge1 S9 2.238558 1_555
