# generated using pymatgen
data_TlCoCl3
_symmetry_space_group_name_H-M   'P 1'
_cell_length_a   5.93600896
_cell_length_b   11.95923653
_cell_length_c   13.78494594
_cell_angle_alpha   90.02380051
_cell_angle_beta   90.00946375
_cell_angle_gamma   89.97055710
_symmetry_Int_Tables_number   1
_chemical_formula_structural   TlCoCl3
_chemical_formula_sum   'Tl8 Co8 Cl24'
_cell_volume   978.59494968
_cell_formula_units_Z   8
loop_
 _symmetry_equiv_pos_site_id
 _symmetry_equiv_pos_as_xyz
  1  'x, y, z'
loop_
 _atom_site_type_symbol
 _atom_site_label
 _atom_site_symmetry_multiplicity
 _atom_site_fract_x
 _atom_site_fract_y
 _atom_site_fract_z
 _atom_site_occupancy
  Tl  Tl0  1  0.75465430  0.58209868  0.87568924  1
  Tl  Tl1  1  0.25486843  0.91826285  0.87414442  1
  Tl  Tl2  1  0.24515438  0.41854622  0.12532016  1
  Tl  Tl3  1  0.74496846  0.58207566  0.37494692  1
  Tl  Tl4  1  0.24529499  0.91780635  0.37532143  1
  Tl  Tl5  1  0.75485176  0.08139605  0.62437203  1
  Tl  Tl6  1  0.74519082  0.08371385  0.12408529  1
  Tl  Tl7  1  0.25592985  0.41636487  0.62586131  1
  Co  Co0  1  0.54381699  0.25006583  0.87540319  1
  Co  Co1  1  0.54392702  0.75002762  0.62475152  1
  Co  Co2  1  0.45599011  0.74992393  0.12494583  1
  Co  Co3  1  0.45604273  0.24994764  0.37536231  1
  Co  Co4  1  0.04379153  0.24996663  0.87497045  1
  Co  Co5  1  0.95610604  0.25006443  0.37493159  1
  Co  Co6  1  0.95590389  0.75001233  0.12459195  1
  Co  Co7  1  0.04400641  0.74994318  0.62505564  1
  Cl  Cl0  1  0.79568811  0.58981761  0.62292008  1
  Cl  Cl1  1  0.70470660  0.33077416  0.25337441  1
  Cl  Cl2  1  0.79630234  0.33113391  0.99684007  1
  Cl  Cl3  1  0.79448435  0.33167152  0.75509471  1
  Cl  Cl4  1  0.20389426  0.16874622  0.49691051  1
  Cl  Cl5  1  0.20474967  0.91014559  0.12558357  1
  Cl  Cl6  1  0.70441095  0.58929976  0.12271358  1
  Cl  Cl7  1  0.70367299  0.83071024  0.00260485  1
  Cl  Cl8  1  0.79600839  0.83135886  0.50277865  1
  Cl  Cl9  1  0.70406952  0.33212728  0.49492027  1
  Cl  Cl10  1  0.29505226  0.91066040  0.62558227  1
  Cl  Cl11  1  0.20485957  0.66909116  0.24697635  1
  Cl  Cl12  1  0.29570133  0.16775641  0.99517952  1
  Cl  Cl13  1  0.20401740  0.66742291  0.00523955  1
  Cl  Cl14  1  0.29517679  0.16932734  0.75348483  1
  Cl  Cl15  1  0.20432664  0.41047929  0.37698656  1
  Cl  Cl16  1  0.79469073  0.83203139  0.74449623  1
  Cl  Cl17  1  0.29517358  0.41049791  0.87488282  1
  Cl  Cl18  1  0.79541761  0.08955498  0.87676333  1
  Cl  Cl19  1  0.70506220  0.08951538  0.37462755  1
  Cl  Cl20  1  0.29612385  0.66816910  0.50533399  1
  Cl  Cl21  1  0.70520141  0.83118667  0.24445055  1
  Cl  Cl22  1  0.20551468  0.16840044  0.25534446  1
  Cl  Cl23  1  0.29519508  0.66990335  0.74715701  1
loop_
_geom_bond_atom_site_label_1
_geom_bond_atom_site_label_2
_geom_bond_distance
_geom_bond_site_symmetry_2
Cl0 Co7 2.417351 1_655
Cl0 Co1 2.429420 1_555
Cl1 Co3 2.438145 1_555
Cl1 Co5 2.442442 1_555
Cl2 Co4 2.433267 1_655
Cl2 Co0 2.447002 1_555
Cl3 Co4 2.423756 1_655
Cl3 Co0 2.433227 1_555
Cl4 Co5 2.436320 1_455
Cl4 Co3 2.448350 1_555
Cl5 Co6 2.419202 1_455
Cl5 Co2 2.427520 1_555
Cl6 Co2 2.421270 1_555
Cl6 Co6 2.434398 1_555
Cl7 Co2 2.437797 1_555
Cl7 Co6 2.449468 1_555
Cl8 Co7 2.440373 1_655
Cl8 Co1 2.452735 1_555
Cl9 Co3 2.418495 1_555
Cl9 Co5 2.436237 1_555
Cl10 Co1 2.422829 1_555
Cl10 Co7 2.432695 1_555
Cl11 Co6 2.442477 1_455
Cl11 Co2 2.447475 1_555
Cl12 Co0 2.422387 1_555
Cl12 Co4 2.438768 1_555
Cl13 Co6 2.418589 1_455
Cl13 Co2 2.435766 1_555
Cl14 Co0 2.436091 1_555
Cl14 Co4 2.441169 1_555
Cl15 Co5 2.419728 1_455
Cl15 Co3 2.432262 1_555
Cl16 Co7 2.421333 1_655
Cl16 Co1 2.429318 1_555
Cl17 Co0 2.420078 1_555
Cl17 Co4 2.432156 1_555
Cl18 Co4 2.420235 1_655
Cl18 Co0 2.431624 1_555
Cl19 Co3 2.421447 1_555
Cl19 Co5 2.431092 1_555
Cl20 Co1 2.414808 1_555
Cl20 Co7 2.432647 1_555
Cl21 Co2 2.417854 1_555
Cl21 Co6 2.425898 1_555
Cl22 Co5 2.420996 1_455
Cl22 Co3 2.428823 1_555
Cl23 Co1 2.439048 1_555
Cl23 Co7 2.443683 1_555
