# generated using pymatgen
data_CsTmZnSe3
_symmetry_space_group_name_H-M   'P 1'
_cell_length_a   8.39624855
_cell_length_b   8.39624855
_cell_length_c   10.91196200
_cell_angle_alpha   90.00000000
_cell_angle_beta   90.00000000
_cell_angle_gamma   151.45957426
_symmetry_Int_Tables_number   1
_chemical_formula_structural   CsTmZnSe3
_chemical_formula_sum   'Cs2 Tm2 Zn2 Se6'
_cell_volume   367.53627004
_cell_formula_units_Z   2
loop_
 _symmetry_equiv_pos_site_id
 _symmetry_equiv_pos_as_xyz
  1  'x, y, z'
loop_
 _atom_site_type_symbol
 _atom_site_label
 _atom_site_symmetry_multiplicity
 _atom_site_fract_x
 _atom_site_fract_y
 _atom_site_fract_z
 _atom_site_occupancy
  Cs  Cs0  1  0.25769400  0.74230600  0.75000000  1
  Cs  Cs1  1  0.74230600  0.25769400  0.25000000  1
  Tm  Tm0  1  0.00000000  0.00000000  0.00000000  1
  Tm  Tm1  1  0.00000000  0.00000000  0.50000000  1
  Zn  Zn0  1  0.53958500  0.46041500  0.75000000  1
  Zn  Zn1  1  0.46041500  0.53958500  0.25000000  1
  Se  Se0  1  0.61521200  0.38478800  0.94399300  1
  Se  Se1  1  0.38478800  0.61521200  0.05600700  1
  Se  Se2  1  0.38478800  0.61521200  0.44399300  1
  Se  Se3  1  0.61521200  0.38478800  0.55600700  1
  Se  Se4  1  0.94601200  0.05398800  0.75000000  1
  Se  Se5  1  0.05398800  0.94601200  0.25000000  1
loop_
_geom_bond_atom_site_label_1
_geom_bond_atom_site_label_2
_geom_bond_distance
_geom_bond_site_symmetry_2
Cs0 Se4 3.698121 1_565
Cs0 Se4 3.698121 1_455
Cs0 Se0 3.760487 1_455
Cs0 Se3 3.760487 1_565
Cs0 Se3 3.760487 1_455
Cs0 Se0 3.760487 1_565
Cs0 Se1 3.927849 1_556
Cs0 Se2 3.927849 1_555
Cs1 Se5 3.698121 1_545
Cs1 Se5 3.698121 1_655
Cs1 Se1 3.760487 1_655
Cs1 Se2 3.760487 1_655
Cs1 Se2 3.760487 1_545
Cs1 Se1 3.760487 1_545
Cs1 Se0 3.927849 1_554
Cs1 Se3 3.927849 1_555
Se0 Zn0 2.448642 1_555
Se0 Tm0 2.858761 1_666
Se0 Tm0 2.858761 1_556
Se1 Zn1 2.448642 1_555
Se1 Tm0 2.858761 1_555
Se1 Tm0 2.858761 1_665
Se2 Zn1 2.448642 1_555
Se2 Tm1 2.858761 1_555
Se2 Tm1 2.858761 1_665
Se3 Zn0 2.448642 1_555
Se3 Tm1 2.858761 1_665
Se3 Tm1 2.858761 1_555
Se4 Zn0 2.569519 1_655
Se4 Zn0 2.569519 1_545
Se4 Tm1 2.865991 1_655
Se4 Tm0 2.865991 1_656
Se5 Zn1 2.569519 1_565
Se5 Zn1 2.569519 1_455
Se5 Tm0 2.865991 1_565
Se5 Tm1 2.865991 1_565
