# generated using pymatgen
data_Al45V7
_symmetry_space_group_name_H-M   'P 1'
_cell_length_a   7.54211584
_cell_length_b   11.00816190
_cell_length_c   11.01490106
_cell_angle_alpha   105.98556925
_cell_angle_beta   110.00043666
_cell_angle_gamma   89.99056350
_symmetry_Int_Tables_number   1
_chemical_formula_structural   Al45V7
_chemical_formula_sum   'Al45 V7'
_cell_volume   821.63842234
_cell_formula_units_Z   1
loop_
 _symmetry_equiv_pos_site_id
 _symmetry_equiv_pos_as_xyz
  1  'x, y, z'
loop_
 _atom_site_type_symbol
 _atom_site_label
 _atom_site_symmetry_multiplicity
 _atom_site_fract_x
 _atom_site_fract_y
 _atom_site_fract_z
 _atom_site_occupancy
  Al  Al0  1  0.38495484  0.98980101  0.13721000  1
  Al  Al1  1  0.61504516  0.01019899  0.86279000  1
  Al  Al2  1  0.24780411  0.01025150  0.86257278  1
  Al  Al3  1  0.14917185  0.37681431  0.90983953  1
  Al  Al4  1  0.70704858  0.49046308  0.41473837  1
  Al  Al5  1  0.36515410  0.35088308  0.36015575  1
  Al  Al6  1  0.23897595  0.62301240  0.08997352  1
  Al  Al7  1  0.77754465  0.79459769  0.92765218  1
  Al  Al8  1  0.14212979  0.14459218  0.67068503  1
  Al  Al9  1  0.51920605  0.13201295  0.41110974  1
  Al  Al10  1  0.52855437  0.14449696  0.67082392  1
  Al  Al11  1  0.47144563  0.85550304  0.32917708  1
  Al  Al12  1  0.62462168  0.63770107  0.24983011  1
  Al  Al13  1  0.62400135  0.37977347  0.62007788  1
  Al  Al14  1  0.89209851  0.13228667  0.41138601  1
  Al  Al15  1  0.87130258  0.88652209  0.74226939  1
  Al  Al16  1  0.12869742  0.11347891  0.25773061  1
  Al  Al17  1  0.47881089  0.24314438  0.95721484  1
  Al  Al18  1  0.77555628  0.00666332  0.55091481  1
  Al  Al19  1  0.00324043  0.62015566  0.37973125  1
  Al  Al20  1  0.85787121  0.85540782  0.32931597  1
  Al  Al21  1  0.63484590  0.64911692  0.63984425  1
  Al  Al22  1  0.38493021  0.77298432  0.76957425  1
  Al  Al23  1  0.99675957  0.37984434  0.62026875  1
  Al  Al24  1  0.08946105  0.84744843  0.17887446  1
  Al  Al25  1  0.22245535  0.20540231  0.07234782  1
  Al  Al26  1  0.37537832  0.36229893  0.75016989  1
  Al  Al27  1  0.52118811  0.75685562  0.04278516  1
  Al  Al28  1  0.08218468  0.44196896  0.16466540  1
  Al  Al29  1  0.61506979  0.22701568  0.23042575  1
  Al  Al30  1  0.50000000  0.50000000  0.00000000  1
  Al  Al31  1  0.85082815  0.62318569  0.09016047  1
  Al  Al32  1  0.22444372  0.99333668  0.44908519  1
  Al  Al33  1  0.37599865  0.62022653  0.37992212  1
  Al  Al34  1  0.75219589  0.98974850  0.13742722  1
  Al  Al35  1  0.99492619  0.35117026  0.36041296  1
  Al  Al36  1  0.15039042  0.79464638  0.92754700  1
  Al  Al37  1  0.76102405  0.37698760  0.91002648  1
  Al  Al38  1  0.91781532  0.55803104  0.83533460  1
  Al  Al39  1  0.91053895  0.15255157  0.82112654  1
  Al  Al40  1  0.10790149  0.86771433  0.58861499  1
  Al  Al41  1  0.29295242  0.50953692  0.58526163  1
  Al  Al42  1  0.84960958  0.20535362  0.07245300  1
  Al  Al43  1  0.00507381  0.64882974  0.63958704  1
  Al  Al44  1  0.48079395  0.86798805  0.58889126  1
  V  V0  1  0.74866155  0.75980585  0.49771561  1
  V  V1  1  0.75477869  0.41858278  0.17135658  1
  V  V2  1  0.24522031  0.58141722  0.82864242  1
  V  V3  1  0.25133845  0.24019415  0.50228439  1
  V  V4  1  0.41631055  0.41854514  0.17124813  1
  V  V5  1  0.00000000  0.00000000  0.00000000  1
  V  V6  1  0.58368945  0.58145486  0.82875187  1
loop_
_geom_bond_atom_site_label_1
_geom_bond_atom_site_label_2
_geom_bond_distance
_geom_bond_site_symmetry_2
Al0 Al36 2.748119 1_554
Al0 Al34 2.768957 1_555
Al0 V5 2.796083 1_565
Al0 Al11 2.803594 1_555
Al0 Al9 2.808489 1_565
Al0 Al27 2.823879 1_555
Al0 Al25 2.824789 1_565
Al0 Al16 2.847819 1_565
Al0 Al29 2.861992 1_565
Al0 Al2 2.916574 1_564
Al0 Al24 2.954659 1_555
Al1 Al42 2.748119 1_556
Al1 Al2 2.768957 1_555
Al1 V5 2.796083 1_656
Al1 Al10 2.803585 1_555
Al1 Al44 2.808478 1_545
Al1 Al17 2.823883 1_555
Al1 Al7 2.824789 1_545
Al1 Al15 2.847815 1_545
Al1 Al22 2.861992 1_545
Al1 Al34 2.916574 1_546
Al1 Al39 2.954653 1_555
Al2 Al25 2.749300 1_556
Al2 V5 2.797616 1_556
Al2 Al8 2.803301 1_555
Al2 Al40 2.809968 1_545
Al2 Al36 2.825057 1_545
Al2 Al22 2.861992 1_545
Al2 Al39 2.954793 1_455
Al3 Al30 2.699682 1_556
Al3 Al38 2.760200 1_455
Al3 Al39 2.785394 1_455
Al3 Al6 2.803608 1_556
Al3 V4 2.804390 1_556
Al3 V2 2.819715 1_555
Al3 Al37 2.928161 1_455
Al3 Al8 3.110033 1_555
Al4 V1 2.726577 1_555
Al4 V4 2.726972 1_555
Al4 Al5 2.793487 1_555
Al4 V0 2.834852 1_555
Al4 Al43 2.835588 1_655
Al5 V4 2.536983 1_555
Al5 V3 2.577355 1_555
Al5 Al9 2.787074 1_555
Al6 V2 2.804391 1_554
Al6 V4 2.818904 1_555
Al7 V6 2.516617 1_555
Al7 V5 2.580074 1_666
Al8 V3 2.710590 1_555
Al9 V3 2.690113 1_555
Al10 V3 2.710884 1_555
Al10 Al26 2.717093 1_555
Al10 Al39 2.775842 1_555
Al10 Al9 2.802339 1_555
Al10 Al32 2.815271 1_545
Al10 Al18 2.845263 1_555
Al10 Al44 2.911053 1_545
Al10 Al8 2.913936 1_555
Al10 Al13 2.934586 1_555
Al10 Al37 3.113445 1_555
Al11 V0 2.710878 1_555
Al11 Al12 2.717096 1_555
Al11 Al24 2.775842 1_555
Al11 Al44 2.802336 1_555
Al11 Al18 2.815267 1_565
Al11 Al32 2.845257 1_555
Al11 Al9 2.911064 1_565
Al11 Al20 2.913944 1_555
Al11 Al33 2.934581 1_555
Al11 Al6 3.113450 1_555
Al12 V0 2.523653 1_555
Al12 Al30 2.586022 1_555
Al12 V4 2.637917 1_555
Al12 V1 2.638231 1_555
Al12 Al4 2.676159 1_555
Al12 Al20 2.719719 1_555
Al12 Al19 2.756094 1_655
Al12 Al33 2.756176 1_555
Al12 Al6 2.815392 1_555
Al12 Al31 2.815506 1_555
Al12 Al27 2.821414 1_555
Al13 Al26 2.756176 1_555
Al13 Al5 2.790088 1_555
Al13 Al23 2.810667 1_555
Al13 V6 2.823435 1_555
Al13 Al41 2.840277 1_555
Al13 Al38 2.868379 1_555
Al13 V3 2.890145 1_555
Al13 Al21 2.911617 1_555
Al13 Al9 2.942777 1_555
Al13 Al37 3.010845 1_555
Al13 Al4 3.078968 1_555
Al14 Al18 2.672474 1_555
Al14 V3 2.691616 1_655
Al14 Al29 2.778719 1_555
Al14 Al35 2.786760 1_555
Al14 Al8 2.799056 1_655
Al14 Al34 2.809980 1_545
Al14 Al9 2.811360 1_555
Al14 Al16 2.822154 1_655
Al14 Al32 2.903723 1_645
Al14 Al20 2.914916 1_545
Al14 Al23 2.940778 1_555
Al15 V0 2.506785 1_555
Al15 V5 2.593075 1_666
Al15 Al18 2.684597 1_565
Al15 Al36 2.795731 1_655
Al15 Al7 2.796381 1_555
Al15 Al39 2.800275 1_565
Al15 Al40 2.822145 1_655
Al15 Al44 2.824359 1_555
Al15 Al2 2.847402 1_665
Al15 Al21 2.878257 1_555
Al15 Al43 2.879796 1_655
Al16 V3 2.506782 1_555
Al16 V5 2.593077 1_555
Al16 Al32 2.684605 1_545
Al16 Al42 2.795725 1_455
Al16 Al25 2.796375 1_555
Al16 Al24 2.800285 1_545
Al16 Al9 2.824361 1_555
Al16 Al34 2.847406 1_445
Al16 Al5 2.878248 1_555
Al16 Al35 2.879787 1_455
Al17 Al30 2.730774 1_556
Al17 Al42 2.732667 1_556
Al17 Al25 2.736225 1_556
Al17 V1 2.785595 1_556
Al17 V4 2.785872 1_556
Al17 Al26 2.821414 1_555
Al17 Al2 2.825235 1_555
Al17 Al37 2.855005 1_555
Al17 Al3 2.855316 1_555
Al17 Al29 2.884917 1_556
Al18 V0 2.609760 1_545
Al18 Al9 2.673276 1_555
Al18 Al39 2.787346 1_555
Al18 Al20 2.813092 1_545
Al18 Al8 2.844762 1_655
Al18 Al40 2.903716 1_645
Al18 Al44 2.904592 1_545
Al19 Al43 2.787078 1_555
Al19 Al33 2.810667 1_555
Al19 V1 2.820889 1_455
Al19 Al4 2.840920 1_455
Al19 Al28 2.866873 1_555
Al19 V0 2.888664 1_455
Al19 Al35 2.908751 1_455
Al19 Al20 2.931151 1_455
Al19 Al40 2.940791 1_555
Al19 Al31 3.007742 1_455
Al19 Al41 3.084827 1_555
Al20 V0 2.710584 1_555
Al20 Al24 2.775689 1_655
Al20 Al40 2.799051 1_655
Al20 Al34 2.803310 1_555
Al20 Al32 2.844756 1_655
Al20 Al31 3.110038 1_555
Al21 V6 2.536983 1_555
Al21 V0 2.577355 1_555
Al21 Al44 2.787081 1_555
Al21 Al33 2.790088 1_555
Al21 Al43 2.793272 1_655
Al21 Al41 2.793480 1_555
Al21 Al4 2.834244 1_555
Al21 Al22 2.867482 1_555
Al21 Al38 2.870847 1_555
Al21 Al7 2.939958 1_555
Al22 V6 2.684192 1_555
Al22 V2 2.684414 1_555
Al22 Al44 2.776397 1_555
Al22 Al40 2.778719 1_555
Al22 Al36 2.844400 1_555
Al22 Al7 2.846380 1_555
Al22 Al43 2.871099 1_555
Al22 Al27 2.884917 1_556
Al22 Al41 2.967775 1_555
Al23 Al26 2.756094 1_655
Al23 Al35 2.787078 1_555
Al23 V2 2.820882 1_655
Al23 Al41 2.840926 1_655
Al23 Al38 2.866873 1_555
Al23 V3 2.888664 1_655
Al23 Al43 2.908751 1_655
Al23 Al8 2.931156 1_655
Al23 Al3 3.007742 1_655
Al23 Al4 3.084823 1_555
Al24 Al6 2.785035 1_555
Al24 Al31 2.785393 1_455
Al24 Al32 2.787338 1_555
Al24 V5 2.840778 1_565
Al24 Al7 2.861949 1_454
Al24 Al36 2.862975 1_554
Al24 Al34 2.954793 1_455
Al25 V4 2.516617 1_555
Al25 V5 2.580074 1_555
Al25 Al42 2.812443 1_455
Al25 Al29 2.846380 1_555
Al25 Al39 2.861942 1_454
Al25 Al28 2.865548 1_555
Al25 Al3 2.872872 1_554
Al25 Al5 2.939958 1_555
Al26 V3 2.523653 1_555
Al26 Al30 2.586022 1_556
Al26 V6 2.637917 1_555
Al26 V2 2.638233 1_555
Al26 Al41 2.676159 1_555
Al26 Al8 2.719716 1_555
Al26 Al37 2.815392 1_555
Al26 Al3 2.815506 1_555
Al27 Al30 2.730774 1_555
Al27 Al36 2.732660 1_554
Al27 Al7 2.736232 1_554
Al27 V2 2.785599 1_554
Al27 V6 2.785875 1_554
Al27 Al34 2.825238 1_555
Al27 Al6 2.854999 1_555
Al27 Al31 2.855322 1_555
Al28 V1 2.510871 1_455
Al28 V4 2.511438 1_555
Al28 Al6 2.759808 1_555
Al28 Al31 2.760200 1_455
Al28 Al42 2.866808 1_455
Al28 Al33 2.868379 1_555
Al28 Al35 2.870367 1_455
Al28 Al5 2.870847 1_555
Al28 Al37 2.914445 1_454
Al28 Al3 2.917081 1_554
Al29 V4 2.684192 1_555
Al29 V1 2.684417 1_555
Al29 Al9 2.776400 1_555
Al29 Al42 2.844400 1_555
Al29 Al34 2.861992 1_545
Al29 Al5 2.867482 1_555
Al29 Al35 2.871099 1_555
Al29 Al4 2.967775 1_555
Al30 V4 2.550823 1_555
Al30 V6 2.550823 1_554
Al30 V1 2.551165 1_555
Al30 V2 2.551175 1_554
Al30 Al6 2.699283 1_555
Al30 Al37 2.699283 1_554
Al30 Al31 2.699682 1_555
Al31 Al37 2.803608 1_554
Al31 V6 2.804390 1_554
Al31 V1 2.819711 1_555
Al31 Al7 2.872872 1_554
Al31 Al38 2.917081 1_554
Al31 Al6 2.928161 1_655
Al32 V3 2.609760 1_565
Al32 Al40 2.672475 1_555
Al32 Al44 2.673274 1_555
Al32 Al8 2.813096 1_565
Al32 Al9 2.904592 1_565
Al33 V4 2.823435 1_555
Al33 Al4 2.840283 1_555
Al33 V0 2.890145 1_555
Al33 Al5 2.911617 1_555
Al33 Al44 2.942790 1_555
Al33 Al6 3.010845 1_555
Al33 Al41 3.078965 1_555
Al34 Al7 2.749300 1_554
Al34 V5 2.797616 1_665
Al34 Al42 2.825057 1_565
Al35 V1 2.537399 1_555
Al35 V3 2.580274 1_655
Al35 Al5 2.793272 1_655
Al35 Al4 2.793862 1_555
Al35 Al41 2.835592 1_655
Al35 Al42 2.942231 1_555
Al36 V2 2.516347 1_555
Al36 V5 2.580371 1_566
Al36 Al7 2.812443 1_455
Al36 Al38 2.866808 1_455
Al36 Al6 2.874158 1_556
Al36 Al43 2.942231 1_555
Al37 Al38 2.759808 1_555
Al37 Al39 2.785033 1_555
Al37 V1 2.804383 1_556
Al37 V6 2.818904 1_555
Al37 Al42 2.874158 1_556
Al38 V2 2.510868 1_655
Al38 V6 2.511438 1_555
Al38 Al7 2.865548 1_555
Al38 Al43 2.870367 1_655
Al38 Al6 2.914445 1_656
Al39 Al8 2.775696 1_655
Al39 V5 2.840770 1_656
Al39 Al42 2.862965 1_556
Al40 V0 2.691619 1_455
Al40 Al43 2.786765 1_555
Al40 Al44 2.811360 1_555
Al40 Al8 2.914905 1_565
Al41 V2 2.726573 1_555
Al41 V6 2.726968 1_555
Al41 Al43 2.793868 1_555
Al41 Al5 2.834240 1_555
Al41 V3 2.834852 1_555
Al42 V1 2.516347 1_555
Al42 V5 2.580371 1_655
Al43 V2 2.537389 1_555
Al43 V0 2.580274 1_455
Al44 V0 2.690122 1_555
V1 V4 2.552358 1_555
V2 V6 2.552361 1_555
