# generated using pymatgen
data_Mg5Si6
_symmetry_space_group_name_H-M   'P 1'
_cell_length_a   4.14286098
_cell_length_b   6.81477068
_cell_length_c   7.73544968
_cell_angle_alpha   109.37718741
_cell_angle_beta   105.20635268
_cell_angle_gamma   90.95564722
_symmetry_Int_Tables_number   1
_chemical_formula_structural   Mg5Si6
_chemical_formula_sum   'Mg5 Si6'
_cell_volume   197.51376109
_cell_formula_units_Z   1
loop_
 _symmetry_equiv_pos_site_id
 _symmetry_equiv_pos_as_xyz
  1  'x, y, z'
loop_
 _atom_site_type_symbol
 _atom_site_label
 _atom_site_symmetry_multiplicity
 _atom_site_fract_x
 _atom_site_fract_y
 _atom_site_fract_z
 _atom_site_occupancy
  Mg  Mg0  1  0.50000000  0.50000000  0.50000000  1
  Mg  Mg1  1  0.14765949  0.43508738  0.80721822  1
  Mg  Mg2  1  0.85234051  0.56491262  0.19278178  1
  Mg  Mg3  1  0.08554875  0.87276128  0.65661796  1
  Mg  Mg4  1  0.91445125  0.12723872  0.34338204  1
  Si  Si0  1  0.45333886  0.82975605  0.38363648  1
  Si  Si1  1  0.54666114  0.17024395  0.61636352  1
  Si  Si2  1  0.30883102  0.23787111  0.10823951  1
  Si  Si3  1  0.28644031  0.86619681  0.08067359  1
  Si  Si4  1  0.69116898  0.76212889  0.89176049  1
  Si  Si5  1  0.71355969  0.13380319  0.91932641  1
loop_
_geom_bond_atom_site_label_1
_geom_bond_atom_site_label_2
_geom_bond_distance
_geom_bond_site_symmetry_2
Mg0 Si1 2.676381 1_555
Mg0 Si0 2.676381 1_555
Mg0 Si4 2.846652 1_555
Mg0 Si2 2.846652 1_555
Mg1 Si1 2.789464 1_555
Mg1 Si1 2.791068 1_455
Mg1 Si4 2.925385 1_555
Mg1 Si3 2.935683 1_556
Mg1 Si4 2.965405 1_455
Mg1 Si2 2.994188 1_556
Mg2 Si0 2.789464 1_555
Mg2 Si0 2.791068 1_655
Mg2 Si2 2.925385 1_555
Mg2 Si5 2.935683 1_554
Mg2 Si2 2.965405 1_655
Mg2 Si4 2.994188 1_554
Mg3 Si0 2.840291 1_455
Mg3 Si0 2.856340 1_555
Mg3 Si1 2.908249 1_565
Mg3 Si5 2.955774 1_565
Mg3 Si4 2.958213 1_555
Mg3 Si4 2.995724 1_455
Mg3 Si5 3.000799 1_465
Mg3 Si1 3.065323 1_465
Mg4 Si1 2.840291 1_655
Mg4 Si1 2.856340 1_555
Mg4 Si0 2.908249 1_545
Mg4 Si3 2.955774 1_545
Mg4 Si2 2.958213 1_555
Mg4 Si2 2.995724 1_655
Mg4 Si3 3.000799 1_645
Mg4 Si0 3.065323 1_645
Si0 Si3 2.360902 1_555
Si0 Si1 2.368008 1_565
Si1 Si5 2.360902 1_555
Si2 Si5 2.466503 1_454
Si2 Si5 2.467231 1_554
Si2 Si3 2.468385 1_545
Si3 Si4 2.466503 1_454
Si3 Si4 2.467231 1_554
Si4 Si5 2.468385 1_565
