# generated using pymatgen
data_PS3N5F2
_symmetry_space_group_name_H-M   'P 1'
_cell_length_a   11.52852389
_cell_length_b   11.52852389
_cell_length_c   11.52852400
_cell_angle_alpha   117.55470367
_cell_angle_beta   117.55470367
_cell_angle_gamma   117.55470632
_symmetry_Int_Tables_number   1
_chemical_formula_structural   PS3N5F2
_chemical_formula_sum   'P3 S9 N15 F6'
_cell_volume   612.94765277
_cell_formula_units_Z   3
loop_
 _symmetry_equiv_pos_site_id
 _symmetry_equiv_pos_as_xyz
  1  'x, y, z'
loop_
 _atom_site_type_symbol
 _atom_site_label
 _atom_site_symmetry_multiplicity
 _atom_site_fract_x
 _atom_site_fract_y
 _atom_site_fract_z
 _atom_site_occupancy
  P  P0  1  0.42513600  0.42513600  0.70294700  1
  P  P1  1  0.70294700  0.42513600  0.42513600  1
  P  P2  1  0.42513600  0.70294700  0.42513600  1
  S  S0  1  0.13258100  0.13258100  0.74465100  1
  S  S1  1  0.13258100  0.74465100  0.13258100  1
  S  S2  1  0.00852800  0.60716900  0.46615600  1
  S  S3  1  0.74465100  0.13258100  0.13258100  1
  S  S4  1  0.46615600  0.00852800  0.60716900  1
  S  S5  1  0.00852800  0.46615600  0.60716900  1
  S  S6  1  0.60716900  0.00852800  0.46615600  1
  S  S7  1  0.60716900  0.46615600  0.00852800  1
  S  S8  1  0.46615600  0.60716900  0.00852800  1
  N  N0  1  0.80477900  0.53401000  0.39426600  1
  N  N1  1  0.80477900  0.39426600  0.53401000  1
  N  N2  1  0.67408800  0.17312000  0.67408800  1
  N  N3  1  0.81342200  0.31845900  0.18167600  1
  N  N4  1  0.39426600  0.80477900  0.53401000  1
  N  N5  1  0.18167600  0.31845900  0.81342200  1
  N  N6  1  0.67408800  0.67408800  0.17312000  1
  N  N7  1  0.31845900  0.81342200  0.18167600  1
  N  N8  1  0.53401000  0.39426600  0.80477900  1
  N  N9  1  0.31845900  0.18167600  0.81342200  1
  N  N10  1  0.53401000  0.80477900  0.39426600  1
  N  N11  1  0.18167600  0.81342200  0.31845900  1
  N  N12  1  0.39426600  0.53401000  0.80477900  1
  N  N13  1  0.81342200  0.18167600  0.31845900  1
  N  N14  1  0.17312000  0.67408800  0.67408800  1
  F  F0  1  0.74767100  0.59288800  0.59288800  1
  F  F1  1  0.40132900  0.16913400  0.16913400  1
  F  F2  1  0.59288800  0.59288800  0.74767100  1
  F  F3  1  0.16913400  0.16913400  0.40132900  1
  F  F4  1  0.16913400  0.40132900  0.16913400  1
  F  F5  1  0.59288800  0.74767100  0.59288800  1
loop_
_geom_bond_atom_site_label_1
_geom_bond_atom_site_label_2
_geom_bond_distance
_geom_bond_site_symmetry_2
N0 P1 1.586448 1_555
N0 S2 1.623248 1_655
N1 P1 1.586448 1_555
N1 S5 1.623248 1_655
N2 S4 1.633503 1_555
N2 S6 1.633503 1_555
N3 S3 1.559420 1_555
N3 S2 1.744356 1_655
N4 P2 1.586448 1_555
N4 S4 1.623248 1_565
N5 S0 1.559420 1_555
N5 S8 1.744356 1_556
N6 S8 1.633503 1_555
N6 S7 1.633503 1_555
N7 S1 1.559420 1_555
N7 S6 1.744356 1_565
N8 P0 1.586448 1_555
N8 S7 1.623248 1_556
N9 S0 1.559420 1_555
N9 S7 1.744356 1_556
N10 P2 1.586448 1_555
N10 S6 1.623248 1_565
N11 S1 1.559420 1_555
N11 S4 1.744356 1_565
N12 P0 1.586448 1_555
N12 S8 1.623248 1_556
N13 S3 1.559420 1_555
N13 S5 1.744356 1_655
N14 S5 1.633503 1_555
N14 S2 1.633503 1_555
F0 P1 1.562258 1_555
F1 P1 1.569590 1_555
F2 P0 1.562258 1_555
F3 P0 1.569590 1_555
F4 P2 1.569590 1_555
F5 P2 1.562258 1_555
