# generated using pymatgen
data_Eu3OsO7
_symmetry_space_group_name_H-M   'P 1'
_cell_length_a   6.55090076
_cell_length_b   6.55090076
_cell_length_c   7.53517823
_cell_angle_alpha   90.00000000
_cell_angle_beta   90.00000000
_cell_angle_gamma   111.77340375
_symmetry_Int_Tables_number   1
_chemical_formula_structural   Eu3OsO7
_chemical_formula_sum   'Eu6 Os2 O14'
_cell_volume   300.29729943
_cell_formula_units_Z   2
loop_
 _symmetry_equiv_pos_site_id
 _symmetry_equiv_pos_as_xyz
  1  'x, y, z'
loop_
 _atom_site_type_symbol
 _atom_site_label
 _atom_site_symmetry_multiplicity
 _atom_site_fract_x
 _atom_site_fract_y
 _atom_site_fract_z
 _atom_site_occupancy
  Eu  Eu0  1  -0.00000000  -0.00000000  -0.00000000  1
  Eu  Eu1  1  -0.00000000  -0.00000000  0.50000000  1
  Eu  Eu2  1  0.07257059  0.52703029  0.25000000  1
  Eu  Eu3  1  0.92742941  0.47296971  0.75000000  1
  Eu  Eu4  1  0.47296971  0.92742941  0.75000000  1
  Eu  Eu5  1  0.52703029  0.07257059  0.25000000  1
  Os  Os0  1  0.50000000  0.50000000  -0.00000000  1
  Os  Os1  1  0.50000000  0.50000000  0.50000000  1
  O  O0  1  0.41609738  0.41609738  0.25000000  1
  O  O1  1  0.58390262  0.58390262  0.75000000  1
  O  O2  1  0.89494905  0.15955066  0.25000000  1
  O  O3  1  0.10505095  0.84044934  0.75000000  1
  O  O4  1  0.84044934  0.10505095  0.75000000  1
  O  O5  1  0.15955066  0.89494905  0.25000000  1
  O  O6  1  0.19329929  0.44198840  0.95995751  1
  O  O7  1  0.80670071  0.55801160  0.45995751  1
  O  O8  1  0.55801160  0.80670071  0.04004249  1
  O  O9  1  0.44198840  0.19329929  0.54004249  1
  O  O10  1  0.80670071  0.55801160  0.04004249  1
  O  O11  1  0.19329929  0.44198840  0.54004249  1
  O  O12  1  0.44198840  0.19329929  0.95995751  1
  O  O13  1  0.55801160  0.80670071  0.45995751  1
loop_
_geom_bond_atom_site_label_1
_geom_bond_atom_site_label_2
_geom_bond_distance
_geom_bond_site_symmetry_2
Eu0 O4 2.376622 1_454
Eu0 O5 2.376622 1_545
Eu0 O3 2.376622 1_544
Eu0 O2 2.376622 1_455
Eu0 O6 2.712556 1_554
Eu0 O12 2.712556 1_554
Eu0 O8 2.712556 1_445
Eu0 O10 2.712556 1_445
Eu1 O4 2.376622 1_455
Eu1 O5 2.376622 1_545
Eu1 O3 2.376622 1_545
Eu1 O2 2.376622 1_455
Eu1 O9 2.712556 1_555
Eu1 O11 2.712556 1_555
Eu1 O7 2.712556 1_445
Eu1 O13 2.712556 1_445
Eu2 O2 2.251899 1_455
Eu2 O5 2.261614 1_555
Eu2 O10 2.416577 1_455
Eu2 O7 2.416577 1_455
Eu2 O6 2.457485 1_554
Eu2 O11 2.457485 1_555
Eu2 O0 2.608776 1_555
Eu3 O3 2.251899 1_655
Eu3 O4 2.261614 1_555
Eu3 O11 2.416577 1_655
Eu3 O6 2.416577 1_655
Eu3 O7 2.457485 1_555
Eu3 O10 2.457485 1_556
Eu3 O1 2.608776 1_555
Eu4 O4 2.251899 1_565
Eu4 O3 2.261614 1_555
Eu4 O9 2.416577 1_565
Eu4 O12 2.416577 1_565
Eu4 O13 2.457485 1_555
Eu4 O8 2.457485 1_556
Eu4 O1 2.608776 1_555
Eu5 O5 2.251899 1_545
Eu5 O2 2.261614 1_555
Eu5 O8 2.416577 1_545
Eu5 O13 2.416577 1_545
Eu5 O12 2.457485 1_554
Eu5 O9 2.457485 1_555
Eu5 O0 2.608776 1_555
O0 Os0 1.982111 1_555
O0 Os1 1.982111 1_555
O1 Os0 1.982111 1_556
O1 Os1 1.982111 1_555
O6 Os0 1.925035 1_556
O7 Os1 1.925035 1_555
O8 Os0 1.925035 1_555
O9 Os1 1.925035 1_555
O10 Os0 1.925035 1_555
O11 Os1 1.925035 1_555
O12 Os0 1.925035 1_556
O13 Os1 1.925035 1_555
