# generated using pymatgen
data_RbAlF4
_symmetry_space_group_name_H-M   'P 1'
_cell_length_a   5.09112282
_cell_length_b   5.09112282
_cell_length_c   6.28804313
_cell_angle_alpha   90.00000000
_cell_angle_beta   90.00000000
_cell_angle_gamma   90.00000000
_symmetry_Int_Tables_number   1
_chemical_formula_structural   RbAlF4
_chemical_formula_sum   'Rb2 Al2 F8'
_cell_volume   162.98313241
_cell_formula_units_Z   2
loop_
 _symmetry_equiv_pos_site_id
 _symmetry_equiv_pos_as_xyz
  1  'x, y, z'
loop_
 _atom_site_type_symbol
 _atom_site_label
 _atom_site_symmetry_multiplicity
 _atom_site_fract_x
 _atom_site_fract_y
 _atom_site_fract_z
 _atom_site_occupancy
  Rb  Rb0  1  0.50000000  -0.00000000  0.50000000  1
  Rb  Rb1  1  -0.00000000  0.50000000  0.50000000  1
  Al  Al0  1  0.50000000  0.50000000  -0.00000000  1
  Al  Al1  1  0.00000000  -0.00000000  -0.00000000  1
  F  F0  1  0.50000000  0.50000000  0.28071796  1
  F  F1  1  -0.00000000  -0.00000000  0.71928204  1
  F  F2  1  0.50000000  0.50000000  0.71928204  1
  F  F3  1  -0.00000000  -0.00000000  0.28071796  1
  F  F4  1  0.20221961  0.70221961  -0.00000000  1
  F  F5  1  0.29778039  0.20221961  -0.00000000  1
  F  F6  1  0.70221961  0.79778039  -0.00000000  1
  F  F7  1  0.79778039  0.29778039  -0.00000000  1
loop_
_geom_bond_atom_site_label_1
_geom_bond_atom_site_label_2
_geom_bond_distance
_geom_bond_site_symmetry_2
Al0 F2 1.765167 1_554
Al0 F0 1.765167 1_555
Al0 F7 1.832563 1_555
Al0 F4 1.832563 1_555
Al0 F5 1.832563 1_555
Al0 F6 1.832563 1_555
Al1 F1 1.765167 1_554
Al1 F3 1.765167 1_555
Al1 F5 1.832563 1_555
Al1 F4 1.832563 1_545
Al1 F7 1.832563 1_455
Al1 F6 1.832563 1_445
F0 Rb0 2.895017 1_555
F0 Rb1 2.895017 1_555
F0 Rb1 2.895017 1_655
F0 Rb0 2.895017 1_565
F1 Rb0 2.895017 1_555
F1 Rb1 2.895017 1_555
F1 Rb1 2.895017 1_545
F1 Rb0 2.895017 1_455
F2 Rb0 2.895017 1_555
F2 Rb1 2.895017 1_555
F2 Rb1 2.895017 1_655
F2 Rb0 2.895017 1_565
F3 Rb0 2.895017 1_555
F3 Rb1 2.895017 1_555
F3 Rb1 2.895017 1_545
F3 Rb0 2.895017 1_455
