# generated using pymatgen
data_Na2Zr(WO4)3
_symmetry_space_group_name_H-M   'P 1'
_cell_length_a   19.51015365
_cell_length_b   19.51015365
_cell_length_c   19.51015365
_cell_angle_alpha   164.94686539
_cell_angle_beta   164.94686539
_cell_angle_gamma   21.35048763
_symmetry_Int_Tables_number   1
_chemical_formula_structural   Na2Zr(WO4)3
_chemical_formula_sum   'Na4 Zr2 W6 O24'
_cell_volume   500.85149631
_cell_formula_units_Z   2
loop_
 _symmetry_equiv_pos_site_id
 _symmetry_equiv_pos_as_xyz
  1  'x, y, z'
loop_
 _atom_site_type_symbol
 _atom_site_label
 _atom_site_symmetry_multiplicity
 _atom_site_fract_x
 _atom_site_fract_y
 _atom_site_fract_z
 _atom_site_occupancy
  Na  Na0  1  0.01430300  0.51430300  0.50000000  1
  Na  Na1  1  0.82316700  0.32316700  0.50000000  1
  Na  Na2  1  0.07316700  0.07316700  0.00000000  1
  Na  Na3  1  0.26430300  0.26430300  0.00000000  1
  Zr  Zr0  1  0.17773500  0.67773500  0.50000000  1
  Zr  Zr1  1  0.42773500  0.42773500  0.00000000  1
  W  W0  1  0.59542200  0.59542200  0.00000000  1
  W  W1  1  0.34542200  0.84542200  0.50000000  1
  W  W2  1  0.90123200  0.90123200  0.00000000  1
  W  W3  1  0.49536400  0.99536400  0.50000000  1
  W  W4  1  0.65123200  0.15123200  0.50000000  1
  W  W5  1  0.74536400  0.74536400  0.00000000  1
  O  O0  1  0.88239700  0.84257200  0.43566900  1
  O  O1  1  0.61923500  0.69593800  0.37440600  1
  O  O2  1  0.79274700  0.30238200  0.87229600  1
  O  O3  1  0.05238200  0.68008600  0.00963500  1
  O  O4  1  0.44593800  0.57153300  0.57670400  1
  O  O5  1  0.44703900  0.57909700  0.39306600  1
  O  O6  1  0.80397200  0.69703900  0.36794200  1
  O  O7  1  0.99482900  0.86923500  0.42329600  1
  O  O8  1  0.90640000  0.52336500  0.88519900  1
  O  O9  1  0.27336500  0.88816600  0.11696400  1
  O  O10  1  0.43008600  0.92045100  0.12770400  1
  O  O11  1  0.67045100  0.04274700  0.99036500  1
  O  O12  1  0.91080600  0.35615200  0.90432700  1
  O  O13  1  0.10615200  0.70182500  0.94534600  1
  O  O14  1  0.18603000  0.05397200  0.60693400  1
  O  O15  1  0.32909700  0.43603000  0.63205800  1
  O  O16  1  0.77120100  0.15640000  0.88303600  1
  O  O17  1  0.59257200  0.65690300  0.46017500  1
  O  O18  1  0.19672800  0.13239700  0.53982500  1
  O  O19  1  0.63816600  0.02120100  0.11480100  1
  O  O20  1  0.40690300  0.44672800  0.56433100  1
  O  O21  1  0.75647900  0.16080600  0.05465400  1
  O  O22  1  0.45182500  0.00647900  0.09567300  1
  O  O23  1  0.32153300  0.24482900  0.62559400  1
loop_
_geom_bond_atom_site_label_1
_geom_bond_atom_site_label_2
_geom_bond_distance
_geom_bond_site_symmetry_2
Na0 O16 2.288589 1_454
Na0 O9 2.288594 1_556
Na0 O15 2.501423 1_555
Na0 O6 2.501423 1_455
Na0 O23 2.717775 1_555
Na0 O1 2.717784 1_455
Na1 O5 2.330698 1_555
Na1 O14 2.330702 1_655
Na1 O3 2.399301 1_656
Na1 O11 2.399301 1_554
Na1 O19 2.433874 1_555
Na1 O8 2.433874 1_555
Na2 O15 2.330699 1_555
Na2 O6 2.330699 1_444
Na2 O2 2.399301 1_454
Na2 O10 2.399301 1_545
Na2 O9 2.433858 1_545
Na2 O16 2.433888 1_454
Na3 O19 2.288595 1_555
Na3 O8 2.288595 1_454
Na3 O14 2.501406 1_554
Na3 O5 2.501436 1_555
Na3 O7 2.717775 1_444
Na3 O4 2.717788 1_555
O0 W4 1.980930 1_565
O0 Zr0 2.104632 1_655
O0 W0 2.462344 1_555
O1 W3 1.861173 1_555
O1 Zr1 2.140613 1_555
O2 W0 1.931309 1_556
O2 W4 2.035316 1_555
O3 W1 1.931309 1_555
O3 W2 2.035316 1_455
O4 W5 1.861171 1_556
O4 Zr0 2.140612 1_555
O5 W1 1.773304 1_555
O6 W0 1.773316 1_555
O7 W5 1.861160 1_555
O7 Zr0 2.140629 1_655
O8 W5 1.775939 1_556
O9 W3 1.775953 1_555
O10 W0 1.931309 1_555
O10 W4 2.035316 1_565
O11 W1 1.931309 1_545
O11 W2 2.035316 1_546
O12 W4 1.872173 1_555
O12 Zr0 2.166220 1_656
O13 W2 1.872173 1_456
O13 Zr1 2.166220 1_556
O14 W1 1.773328 1_545
O15 W0 1.773316 1_556
O16 W3 1.775931 1_545
O17 W2 1.980930 1_556
O17 Zr1 2.104632 1_555
O17 W1 2.462344 1_555
O18 W2 1.980930 1_445
O18 Zr1 2.104632 1_556
O18 W1 2.462344 1_545
O19 W5 1.775939 1_545
O20 W4 1.980930 1_555
O20 Zr0 2.104632 1_555
O20 W0 2.462344 1_556
O21 W2 1.872173 1_545
O21 Zr1 2.166220 1_555
O22 W4 1.872173 1_555
O22 Zr0 2.166220 1_544
O23 W3 1.861160 1_545
O23 Zr1 2.140629 1_556
