# generated using pymatgen
data_Bi2(PSe3)3
_symmetry_space_group_name_H-M   'P 1'
_cell_length_a   6.86938779
_cell_length_b   12.38147219
_cell_length_c   18.12299069
_cell_angle_alpha   94.05703655
_cell_angle_beta   90.29866427
_cell_angle_gamma   91.59093672
_symmetry_Int_Tables_number   1
_chemical_formula_structural   Bi2(PSe3)3
_chemical_formula_sum   'Bi8 P12 Se36'
_cell_volume   1536.92202926
_cell_formula_units_Z   4
loop_
 _symmetry_equiv_pos_site_id
 _symmetry_equiv_pos_as_xyz
  1  'x, y, z'
loop_
 _atom_site_type_symbol
 _atom_site_label
 _atom_site_symmetry_multiplicity
 _atom_site_fract_x
 _atom_site_fract_y
 _atom_site_fract_z
 _atom_site_occupancy
  Bi  Bi0  1  0.52632039  0.40023465  0.38284185  1
  Bi  Bi1  1  0.06682671  0.46598001  0.81128403  1
  Bi  Bi2  1  0.43315306  0.97721289  0.31323940  1
  Bi  Bi3  1  0.98169206  0.90493327  0.88658275  1
  Bi  Bi4  1  0.01830794  0.09506673  0.11341725  1
  Bi  Bi5  1  0.56684694  0.02278711  0.68676060  1
  Bi  Bi6  1  0.93317329  0.53401999  0.18871597  1
  Bi  Bi7  1  0.47367961  0.59976535  0.61715815  1
  P  P0  1  0.56553672  0.92131258  0.51215260  1
  P  P1  1  0.54410112  0.25304448  0.18168864  1
  P  P2  1  0.05900347  0.48959392  0.44286269  1
  P  P3  1  0.04729000  0.16395962  0.77238070  1
  P  P4  1  0.43014854  0.41201271  0.15337938  1
  P  P5  1  0.93008306  0.17558551  0.88696986  1
  P  P6  1  0.95271000  0.83604038  0.22761930  1
  P  P7  1  0.45589888  0.74695552  0.81831136  1
  P  P8  1  0.43446328  0.07868742  0.48784740  1
  P  P9  1  0.56985146  0.58798729  0.84662062  1
  P  P10  1  0.94099653  0.51040608  0.55713731  1
  P  P11  1  0.06991694  0.82441449  0.11303014  1
  Se  Se0  1  0.16104283  0.38115667  0.08881161  1
  Se  Se1  1  0.29644152  0.18799859  0.24212702  1
  Se  Se2  1  0.67811190  0.06289407  0.88767071  1
  Se  Se3  1  0.30444942  0.27045574  0.77672093  1
  Se  Se4  1  0.17809489  0.78220781  0.29892472  1
  Se  Se5  1  0.69555058  0.72954426  0.22327907  1
  Se  Se6  1  0.64619993  0.14954711  0.41398000  1
  Se  Se7  1  0.32986555  0.59318699  0.44590650  1
  Se  Se8  1  0.13686560  0.65488753  0.08462146  1
  Se  Se9  1  0.37175420  0.16538960  0.59388375  1
  Se  Se10  1  0.64536936  0.48733376  0.08249172  1
  Se  Se11  1  0.12044868  0.32071827  0.41808463  1
  Se  Se12  1  0.20753887  0.70173355  0.74501838  1
  Se  Se13  1  0.35463064  0.51266624  0.91750828  1
  Se  Se14  1  0.79246113  0.29826645  0.25498162  1
  Se  Se15  1  0.86313440  0.34511247  0.91537854  1
  Se  Se16  1  0.88403821  0.00981347  0.24955995  1
  Se  Se17  1  0.84185930  0.56354633  0.37435675  1
  Se  Se18  1  0.70355848  0.81200141  0.75787298  1
  Se  Se19  1  0.67013445  0.40681301  0.55409350  1
  Se  Se20  1  0.11596179  0.99018653  0.75044105  1
  Se  Se21  1  0.35380007  0.85045289  0.58602000  1
  Se  Se22  1  0.32188810  0.93710593  0.11232929  1
  Se  Se23  1  0.38845685  0.83280910  0.92335666  1
  Se  Se24  1  0.87955132  0.67928173  0.58191537  1
  Se  Se25  1  0.83378418  0.89426701  0.04848160  1
  Se  Se26  1  0.17000703  0.03162280  0.42354062  1
  Se  Se27  1  0.37879170  0.50992805  0.25855696  1
  Se  Se28  1  0.62120830  0.49007195  0.74144304  1
  Se  Se29  1  0.83895717  0.61884333  0.91118839  1
  Se  Se30  1  0.15814070  0.43645367  0.62564325  1
  Se  Se31  1  0.82999297  0.96837720  0.57645938  1
  Se  Se32  1  0.62824580  0.83461040  0.40611625  1
  Se  Se33  1  0.61154315  0.16719090  0.07664334  1
  Se  Se34  1  0.16621582  0.10573299  0.95151840  1
  Se  Se35  1  0.82190511  0.21779219  0.70107528  1
loop_
_geom_bond_atom_site_label_1
_geom_bond_atom_site_label_2
_geom_bond_distance
_geom_bond_site_symmetry_2
Bi0 Se27 2.903536 1_555
Bi0 Se17 2.935082 1_555
Bi0 Se7 2.940019 1_555
Bi0 Se11 3.017584 1_555
Bi0 Se14 3.172410 1_555
Bi0 Se19 3.246951 1_555
Bi0 Se6 3.318977 1_555
Bi1 Se13 2.772766 1_555
Bi1 Se15 2.840258 1_455
Bi1 Se3 2.988813 1_555
Bi1 Se29 3.003292 1_455
Bi1 Se28 3.335456 1_455
Bi1 Se12 3.353870 1_555
Bi1 Se30 3.421517 1_555
Bi2 Se26 2.762632 1_565
Bi2 Se32 2.876643 1_555
Bi2 Se4 2.939121 1_555
Bi2 Se6 3.045572 1_565
Bi2 Se1 3.154923 1_565
Bi2 Se16 3.334943 1_565
Bi3 Se20 2.896664 1_655
Bi3 Se2 2.897563 1_565
Bi3 Se34 2.927162 1_665
Bi3 Se23 3.041819 1_655
Bi3 Se25 3.120436 1_556
Bi3 Se18 3.141196 1_555
Bi4 Se16 2.896680 1_455
Bi4 Se22 2.897563 1_545
Bi4 Se25 2.927162 1_445
Bi4 Se33 3.041819 1_455
Bi4 Se34 3.120436 1_554
Bi4 Se1 3.141196 1_555
Bi5 Se31 2.762632 1_545
Bi5 Se9 2.876643 1_555
Bi5 Se35 2.939121 1_555
Bi5 Se21 3.045572 1_545
Bi5 Se18 3.154923 1_545
Bi5 Se20 3.334949 1_545
Bi6 Se10 2.772766 1_555
Bi6 Se8 2.840258 1_655
Bi6 Se5 2.988813 1_555
Bi6 Se0 3.003292 1_655
Bi6 Se27 3.335456 1_655
Bi6 Se14 3.353870 1_555
Bi6 Se17 3.421517 1_555
Bi7 Se28 2.903536 1_555
Bi7 Se30 2.935082 1_555
Bi7 Se19 2.940019 1_555
Bi7 Se24 3.017584 1_555
Bi7 Se12 3.172410 1_555
Bi7 Se7 3.246951 1_555
Bi7 Se21 3.318977 1_555
P0 Se32 2.184785 1_555
P0 Se21 2.189305 1_555
P0 Se31 2.195696 1_555
P0 P8 2.239698 1_565
P1 Se33 2.172324 1_555
P1 Se14 2.192410 1_555
P1 Se1 2.193361 1_555
P1 P4 2.230308 1_555
P2 Se11 2.160999 1_555
P2 Se17 2.195951 1_455
P2 Se7 2.228596 1_555
P3 Se35 2.160933 1_455
P3 Se3 2.172555 1_555
P3 Se20 2.224214 1_545
P3 P5 2.227827 1_455
P4 Se0 2.192601 1_555
P4 Se10 2.195154 1_555
P4 Se27 2.220661 1_555
P5 Se15 2.187580 1_555
P5 Se2 2.193534 1_555
P5 Se34 2.224617 1_655
P6 Se4 2.160933 1_655
P6 Se5 2.172555 1_555
P6 Se16 2.224216 1_565
P7 Se23 2.172324 1_555
P7 Se12 2.192410 1_555
P7 Se18 2.193361 1_555
P7 P9 2.230308 1_555
P8 Se9 2.184785 1_555
P8 Se6 2.189305 1_555
P8 Se26 2.195696 1_555
P9 Se29 2.192601 1_555
P9 Se13 2.195154 1_555
P9 Se28 2.220661 1_555
P10 Se24 2.160999 1_555
P10 Se30 2.195951 1_655
P10 P2 2.228486 1_655
P10 Se19 2.228596 1_555
P11 Se8 2.187580 1_555
P11 Se22 2.193534 1_555
P11 Se25 2.224617 1_455
P11 P6 2.227827 1_455
