# generated using pymatgen
data_Nb3Bi
_symmetry_space_group_name_H-M   'P 1'
_cell_length_a   5.37572967
_cell_length_b   5.37572967
_cell_length_c   5.37572967
_cell_angle_alpha   90.00000000
_cell_angle_beta   90.00000000
_cell_angle_gamma   90.00000000
_symmetry_Int_Tables_number   1
_chemical_formula_structural   Nb3Bi
_chemical_formula_sum   'Nb6 Bi2'
_cell_volume   155.35035983
_cell_formula_units_Z   2
loop_
 _symmetry_equiv_pos_site_id
 _symmetry_equiv_pos_as_xyz
  1  'x, y, z'
loop_
 _atom_site_type_symbol
 _atom_site_label
 _atom_site_symmetry_multiplicity
 _atom_site_fract_x
 _atom_site_fract_y
 _atom_site_fract_z
 _atom_site_occupancy
  Nb  Nb0  1  0.50000000  0.25000000  -0.00000000  1
  Nb  Nb1  1  -0.00000000  0.50000000  0.75000000  1
  Nb  Nb2  1  0.75000000  -0.00000000  0.50000000  1
  Nb  Nb3  1  0.50000000  0.75000000  -0.00000000  1
  Nb  Nb4  1  -0.00000000  0.50000000  0.25000000  1
  Nb  Nb5  1  0.25000000  -0.00000000  0.50000000  1
  Bi  Bi0  1  -0.00000000  -0.00000000  -0.00000000  1
  Bi  Bi1  1  0.50000000  0.50000000  0.50000000  1
loop_
_geom_bond_atom_site_label_1
_geom_bond_atom_site_label_2
_geom_bond_distance
_geom_bond_site_symmetry_2
Nb0 Nb3 2.687865 1_545
Nb0 Nb3 2.687865 1_555
Nb1 Nb4 2.687865 1_556
Nb1 Nb4 2.687865 1_555
Nb2 Nb5 2.687865 1_555
Nb2 Nb5 2.687865 1_655
Bi0 Nb1 3.005124 1_544
Bi0 Nb0 3.005124 1_455
Bi0 Nb5 3.005124 1_555
Bi0 Nb5 3.005124 1_554
Bi0 Nb0 3.005124 1_555
Bi0 Nb3 3.005124 1_545
Bi0 Nb2 3.005124 1_454
Bi0 Nb3 3.005124 1_445
Bi0 Nb4 3.005124 1_555
Bi0 Nb4 3.005124 1_545
Bi0 Nb1 3.005124 1_554
Bi0 Nb2 3.005124 1_455
Bi1 Nb1 3.005124 1_655
Bi1 Nb5 3.005124 1_555
Bi1 Nb5 3.005124 1_565
Bi1 Nb4 3.005124 1_655
Bi1 Nb3 3.005124 1_555
Bi1 Nb0 3.005124 1_556
Bi1 Nb0 3.005124 1_555
Bi1 Nb2 3.005124 1_565
Bi1 Nb3 3.005124 1_556
Bi1 Nb4 3.005124 1_555
Bi1 Nb1 3.005124 1_555
Bi1 Nb2 3.005124 1_555
