# generated using pymatgen
data_La10(Si2O9)3
_symmetry_space_group_name_H-M   'P 1'
_cell_length_a   7.30595000
_cell_length_b   9.96360300
_cell_length_c   19.61638904
_cell_angle_alpha   59.57190982
_cell_angle_beta   90.00000000
_cell_angle_gamma   90.00000000
_symmetry_Int_Tables_number   1
_chemical_formula_structural   La10(Si2O9)3
_chemical_formula_sum   'La20 Si12 O54'
_cell_volume   1231.26964697
_cell_formula_units_Z   2
loop_
 _symmetry_equiv_pos_site_id
 _symmetry_equiv_pos_as_xyz
  1  'x, y, z'
loop_
 _atom_site_type_symbol
 _atom_site_label
 _atom_site_symmetry_multiplicity
 _atom_site_fract_x
 _atom_site_fract_y
 _atom_site_fract_z
 _atom_site_occupancy
  La  La0  1  0.48913000  0.75774100  0.99631700  1
  La  La1  1  0.50271200  0.99455300  0.61101200  1
  La  La2  1  0.75146100  0.66152500  0.83444100  1
  La  La3  1  0.25225200  0.66783400  0.83403900  1
  La  La4  1  0.99830900  0.76065700  0.61563700  1
  La  La5  1  0.51087000  0.75774100  0.49631700  1
  La  La6  1  0.49565600  0.22159500  0.89571700  1
  La  La7  1  0.49728800  0.99455300  0.11101200  1
  La  La8  1  0.75574200  0.32724700  0.67150400  1
  La  La9  1  0.25487800  0.33755800  0.66964000  1
  La  La10  1  0.74774800  0.66783400  0.33403900  1
  La  La11  1  0.24853900  0.66152500  0.33444100  1
  La  La12  1  0.00389500  0.99993800  0.88140400  1
  La  La13  1  0.00169100  0.76065700  0.11563700  1
  La  La14  1  0.04308500  0.22942300  0.50266800  1
  La  La15  1  0.50434400  0.22159500  0.39571700  1
  La  La16  1  0.74512200  0.33755800  0.16964000  1
  La  La17  1  0.24425800  0.32724700  0.17150400  1
  La  La18  1  0.99610500  0.99993800  0.38140400  1
  La  La19  1  0.95691500  0.22942300  0.00266800  1
  Si  Si0  1  0.00184100  0.96679100  0.70179700  1
  Si  Si1  1  0.99687600  0.62334000  0.98592200  1
  Si  Si2  1  0.50574000  0.59117200  0.68972000  1
  Si  Si3  1  0.00218600  0.40731200  0.81402500  1
  Si  Si4  1  0.99815900  0.96679100  0.20179700  1
  Si  Si5  1  0.00312400  0.62334000  0.48592200  1
  Si  Si6  1  0.49549000  0.38387900  0.51874100  1
  Si  Si7  1  0.49855700  0.03036000  0.79779100  1
  Si  Si8  1  0.49426000  0.59117200  0.18972000  1
  Si  Si9  1  0.99781400  0.40731200  0.31402500  1
  Si  Si10  1  0.50451000  0.38387900  0.01874100  1
  Si  Si11  1  0.50144300  0.03036000  0.29779100  1
  O  O0  1  0.17503000  0.74355800  0.95289900  1
  O  O1  1  0.81401000  0.73641200  0.95500100  1
  O  O2  1  0.99684400  0.86508400  0.79974200  1
  O  O3  1  0.49888100  0.84083100  0.83401500  1
  O  O4  1  0.82478700  0.90763800  0.67148000  1
  O  O5  1  0.18667900  0.91111300  0.67427100  1
  O  O6  1  0.58527500  0.96710300  0.49998100  1
  O  O7  1  0.00684700  0.98782300  0.49866300  1
  O  O8  1  0.00572600  0.52945300  0.93660600  1
  O  O9  1  0.49948800  0.66270400  0.74903300  1
  O  O10  1  0.50073100  0.50404400  0.92232000  1
  O  O11  1  0.01881100  0.59975800  0.76428800  1
  O  O12  1  0.32722500  0.65170900  0.62880700  1
  O  O13  1  0.69316100  0.64601600  0.63595400  1
  O  O14  1  0.80983100  0.37442000  0.86374400  1
  O  O15  1  0.17385900  0.33742000  0.87656600  1
  O  O16  1  0.18599000  0.73641200  0.45500100  1
  O  O17  1  0.82497000  0.74355800  0.45289900  1
  O  O18  1  0.00315600  0.86508400  0.29974200  1
  O  O19  1  0.50111900  0.84083100  0.33401500  1
  O  O20  1  0.50160500  0.39872700  0.73776100  1
  O  O21  1  0.99704400  0.51541300  0.58272900  1
  O  O22  1  0.81332100  0.91111300  0.17427100  1
  O  O23  1  0.17521300  0.90763800  0.17148000  1
  O  O24  1  0.99880900  0.32955500  0.75745500  1
  O  O25  1  0.55061800  0.47575700  0.56712300  1
  O  O26  1  0.41472500  0.96710300  0.99998100  1
  O  O27  1  0.99427400  0.52945300  0.43660600  1
  O  O28  1  0.50051200  0.66270400  0.24903300  1
  O  O29  1  0.31024100  0.08911800  0.82159600  1
  O  O30  1  0.67620600  0.08187500  0.83234500  1
  O  O31  1  0.49926900  0.50404400  0.42232000  1
  O  O32  1  0.98118900  0.59975800  0.26428800  1
  O  O33  1  0.99863800  0.15486100  0.66843000  1
  O  O34  1  0.50828200  0.13039500  0.70039700  1
  O  O35  1  0.65187300  0.24835500  0.54354300  1
  O  O36  1  0.28349600  0.33681200  0.55128600  1
  O  O37  1  0.30683900  0.64601600  0.13595400  1
  O  O38  1  0.67277500  0.65170900  0.12880700  1
  O  O39  1  0.82614100  0.33742000  0.37656600  1
  O  O40  1  0.19016900  0.37442000  0.36374400  1
  O  O41  1  0.32660600  0.14312300  0.50359000  1
  O  O42  1  0.49839500  0.39872700  0.23776100  1
  O  O43  1  0.00295600  0.51541300  0.08272900  1
  O  O44  1  0.00119100  0.32955500  0.25745500  1
  O  O45  1  0.44938200  0.47575700  0.06712300  1
  O  O46  1  0.32379400  0.08187500  0.33234500  1
  O  O47  1  0.68975900  0.08911800  0.32159600  1
  O  O48  1  0.00136200  0.15486100  0.16843000  1
  O  O49  1  0.49171800  0.13039500  0.20039700  1
  O  O50  1  0.71650400  0.33681200  0.05128600  1
  O  O51  1  0.34812700  0.24835500  0.04354300  1
  O  O52  1  0.67339400  0.14312300  0.00359000  1
  O  O53  1  0.99315300  0.98782300  0.99866300  1
loop_
_geom_bond_atom_site_label_1
_geom_bond_atom_site_label_2
_geom_bond_distance
_geom_bond_site_symmetry_2
La0 O26 2.191786 1_555
La0 O45 2.440180 1_556
La0 O0 2.476567 1_555
La0 O1 2.551521 1_555
La0 O38 2.624838 1_556
La0 O37 2.725323 1_556
La0 O3 2.856063 1_555
La1 O41 2.264396 1_565
La1 O6 2.405378 1_555
La1 O35 2.438014 1_565
La1 O5 2.552876 1_555
La1 O4 2.579411 1_555
La1 O34 2.704043 1_565
La1 O9 3.032442 1_555
La2 O10 2.459570 1_555
La2 O9 2.485171 1_555
La2 O2 2.528331 1_555
La2 O8 2.554925 1_655
La2 O3 2.565525 1_555
La2 O11 2.635440 1_655
La2 O14 2.651367 1_555
La2 O1 2.854110 1_555
La2 O4 2.928988 1_555
La3 O10 2.468840 1_555
La3 O9 2.476335 1_555
La3 O11 2.486166 1_555
La3 O3 2.493376 1_555
La3 O8 2.526503 1_555
La3 O2 2.541213 1_455
La3 O0 2.847068 1_555
La3 O5 2.869232 1_555
La3 O15 3.013327 1_555
La4 O7 2.265258 1_655
La4 O13 2.443898 1_555
La4 O11 2.521985 1_655
La4 O4 2.564516 1_555
La4 O12 2.595312 1_655
La4 O5 2.685268 1_655
La4 O21 2.825829 1_555
La5 O6 2.191786 1_555
La5 O25 2.440180 1_555
La5 O17 2.476567 1_555
La5 O16 2.551521 1_555
La5 O12 2.624838 1_555
La5 O13 2.725323 1_555
La5 O19 2.856063 1_555
La6 O52 2.258200 1_556
La6 O26 2.389402 1_545
La6 O15 2.561473 1_555
La6 O30 2.641264 1_555
La6 O14 2.648247 1_555
La6 O20 2.679256 1_555
La6 O29 2.763212 1_555
La6 O10 3.111440 1_555
La6 O51 3.228760 1_556
La7 O52 2.264396 1_565
La7 O26 2.405378 1_554
La7 O51 2.438014 1_565
La7 O22 2.552876 1_555
La7 O23 2.579411 1_555
La7 O49 2.704043 1_565
La7 O28 3.032442 1_555
La8 O25 2.357761 1_555
La8 O24 2.456858 1_555
La8 O33 2.491546 1_555
La8 O34 2.512122 1_555
La8 O21 2.519616 1_555
La8 O20 2.565444 1_555
La8 O30 2.907959 1_555
La8 O13 2.922226 1_555
La8 O35 3.081083 1_555
La9 O36 2.334832 1_555
La9 O20 2.496262 1_555
La9 O24 2.516866 1_455
La9 O21 2.556382 1_455
La9 O34 2.605874 1_555
La9 O33 2.619650 1_455
La9 O29 2.775327 1_555
La9 O25 2.793530 1_555
La9 O12 2.859859 1_555
La10 O31 2.468840 1_555
La10 O28 2.476335 1_555
La10 O32 2.486166 1_555
La10 O19 2.493376 1_555
La10 O27 2.526503 1_555
La10 O18 2.541213 1_655
La10 O17 2.847068 1_555
La10 O22 2.869232 1_555
La10 O39 3.013327 1_555
La11 O31 2.459570 1_555
La11 O28 2.485171 1_555
La11 O18 2.528331 1_555
La11 O27 2.554925 1_455
La11 O19 2.565525 1_555
La11 O32 2.635440 1_455
La11 O40 2.651367 1_555
La11 O16 2.854110 1_555
La11 O23 2.928988 1_555
La12 O53 2.242856 1_455
La12 O29 2.473731 1_565
La12 O0 2.535087 1_555
La12 O30 2.555081 1_465
La12 O2 2.560137 1_455
La12 O1 2.657697 1_455
La12 O24 2.934395 1_465
La13 O53 2.265258 1_454
La13 O37 2.443898 1_555
La13 O32 2.521985 1_455
La13 O23 2.564516 1_555
La13 O38 2.595312 1_455
La13 O22 2.685268 1_455
La13 O43 2.825829 1_555
La14 O41 2.239328 1_555
La14 O7 2.462208 1_545
La14 O36 2.484572 1_555
La14 O40 2.584690 1_555
La14 O27 2.611314 1_455
La14 O39 2.663253 1_455
La14 O33 2.963736 1_455
La14 O35 3.000144 1_455
La15 O41 2.258200 1_555
La15 O6 2.389402 1_545
La15 O39 2.561473 1_555
La15 O46 2.641264 1_555
La15 O40 2.648247 1_555
La15 O42 2.679256 1_555
La15 O47 2.763212 1_555
La15 O31 3.111440 1_555
La15 O35 3.228760 1_555
La16 O50 2.334832 1_555
La16 O42 2.496262 1_555
La16 O44 2.516866 1_655
La16 O43 2.556382 1_655
La16 O49 2.605874 1_555
La16 O48 2.619650 1_655
La16 O47 2.775327 1_555
La16 O45 2.793530 1_555
La16 O38 2.859859 1_555
La17 O45 2.357761 1_555
La17 O44 2.456858 1_555
La17 O48 2.491546 1_555
La17 O49 2.512122 1_555
La17 O43 2.519616 1_555
La17 O42 2.565444 1_555
La17 O46 2.907959 1_555
La17 O37 2.922226 1_555
La17 O51 3.081083 1_555
La18 O7 2.242856 1_655
La18 O47 2.473731 1_565
La18 O17 2.535087 1_555
La18 O46 2.555081 1_665
La18 O18 2.560137 1_655
La18 O16 2.657697 1_655
La18 O44 2.934395 1_665
La19 O52 2.239328 1_555
La19 O53 2.462208 1_544
La19 O50 2.484572 1_555
La19 O14 2.584690 1_554
La19 O8 2.611314 1_654
La19 O15 2.663253 1_654
La19 O48 2.963736 1_655
La19 O51 3.000144 1_655
O0 Si1 1.662090 1_455
O1 Si1 1.652240 1_555
O2 Si0 1.657586 1_655
O3 Si7 1.646745 1_565
O4 Si0 1.652073 1_655
O5 Si0 1.651166 1_555
O8 Si1 1.652805 1_455
O9 Si2 1.644311 1_555
O10 Si10 1.648617 1_556
O11 Si3 1.657817 1_555
O12 Si2 1.662091 1_555
O13 Si2 1.643825 1_555
O14 Si3 1.646159 1_655
O15 Si3 1.642494 1_555
O16 Si5 1.652240 1_555
O17 Si5 1.662090 1_655
O18 Si4 1.657586 1_455
O19 Si11 1.646745 1_565
O20 Si2 1.653872 1_555
O21 Si5 1.641981 1_655
O22 Si4 1.651166 1_555
O23 Si4 1.652073 1_455
O24 Si3 1.644108 1_655
O25 Si6 1.667643 1_555
O27 Si5 1.652805 1_655
O28 Si8 1.644311 1_555
O29 Si7 1.652457 1_555
O30 Si7 1.661274 1_555
O31 Si6 1.648617 1_555
O32 Si9 1.657817 1_555
O33 Si0 1.642544 1_645
O34 Si7 1.649163 1_555
O35 Si6 1.643156 1_555
O36 Si6 1.650174 1_555
O37 Si8 1.643825 1_555
O38 Si8 1.662091 1_555
O39 Si9 1.642494 1_555
O40 Si9 1.646159 1_455
O42 Si8 1.653872 1_555
O43 Si1 1.641981 1_454
O44 Si9 1.644108 1_455
O45 Si10 1.667643 1_555
O46 Si11 1.661274 1_555
O47 Si11 1.652457 1_555
O48 Si4 1.642544 1_445
O49 Si11 1.649163 1_555
O50 Si10 1.650174 1_555
O51 Si10 1.643156 1_555
