# generated using pymatgen
data_La2Si(IO2)2
_symmetry_space_group_name_H-M   'P 1'
_cell_length_a   8.58255400
_cell_length_b   8.59712865
_cell_length_c   12.28480285
_cell_angle_alpha   107.62483290
_cell_angle_beta   99.33594328
_cell_angle_gamma   90.09019106
_symmetry_Int_Tables_number   1
_chemical_formula_structural   La2Si(IO2)2
_chemical_formula_sum   'La8 Si4 I8 O16'
_cell_volume   851.20721471
_cell_formula_units_Z   4
loop_
 _symmetry_equiv_pos_site_id
 _symmetry_equiv_pos_as_xyz
  1  'x, y, z'
loop_
 _atom_site_type_symbol
 _atom_site_label
 _atom_site_symmetry_multiplicity
 _atom_site_fract_x
 _atom_site_fract_y
 _atom_site_fract_z
 _atom_site_occupancy
  La  La0  1  0.22269200  0.21604800  0.18664800  1
  La  La1  1  0.36342400  0.71575100  0.18680600  1
  La  La2  1  0.15938100  0.43305800  0.87508400  1
  La  La3  1  0.28265400  0.93434100  0.87691400  1
  La  La4  1  0.71734600  0.06565900  0.12308600  1
  La  La5  1  0.84061900  0.56694200  0.12491600  1
  La  La6  1  0.63657600  0.28424900  0.81319400  1
  La  La7  1  0.77730800  0.78395200  0.81335200  1
  Si  Si0  1  0.93911900  0.19971200  0.97456700  1
  Si  Si1  1  0.45143300  0.30130900  0.02586800  1
  Si  Si2  1  0.54856700  0.69869100  0.97413200  1
  Si  Si3  1  0.06088100  0.80028800  0.02543300  1
  I  I0  1  0.00226800  0.05616500  0.33491300  1
  I  I1  1  0.34504700  0.43758700  0.66198200  1
  I  I2  1  0.51370500  0.09036000  0.34996500  1
  I  I3  1  0.65495300  0.56241300  0.33801800  1
  I  I4  1  0.85033400  0.41102000  0.64944500  1
  I  I5  1  0.99773200  0.94383500  0.66508700  1
  I  I6  1  0.48629500  0.90964000  0.65003500  1
  I  I7  1  0.14966600  0.58898000  0.35055500  1
  O  O0  1  0.21328800  0.92608800  0.09357700  1
  O  O1  1  0.38360800  0.24595200  0.88441900  1
  O  O2  1  0.06290800  0.74443400  0.88393800  1
  O  O3  1  0.93709200  0.25556600  0.11606200  1
  O  O4  1  0.66844800  0.57345000  0.90505400  1
  O  O5  1  0.88203600  0.85762000  0.03659900  1
  O  O6  1  0.11796400  0.14238000  0.96340100  1
  O  O7  1  0.91076300  0.36108600  0.92962600  1
  O  O8  1  0.55675600  0.86100100  0.93010000  1
  O  O9  1  0.78671200  0.07391200  0.90642300  1
  O  O10  1  0.61639200  0.75404800  0.11558100  1
  O  O11  1  0.36430500  0.64109000  0.96217400  1
  O  O12  1  0.33155200  0.42655000  0.09494600  1
  O  O13  1  0.63569500  0.35891000  0.03782600  1
  O  O14  1  0.08923700  0.63891400  0.07037400  1
  O  O15  1  0.44324400  0.13899900  0.06990000  1
loop_
_geom_bond_atom_site_label_1
_geom_bond_atom_site_label_2
_geom_bond_distance
_geom_bond_site_symmetry_2
La0 O0 2.402374 1_545
La0 O3 2.523298 1_455
La0 O15 2.527510 1_555
La0 O6 2.622433 1_554
La0 O12 2.643446 1_555
La1 O12 2.393454 1_555
La1 O14 2.520077 1_555
La1 O10 2.525129 1_555
La1 O11 2.638443 1_554
La1 O0 2.650411 1_555
La2 O11 2.378539 1_555
La2 O7 2.468923 1_455
La2 O1 2.520711 1_555
La2 O14 2.674133 1_556
La2 O2 2.779077 1_555
La2 O12 2.877272 1_556
La2 O6 3.051667 1_555
La3 O6 2.381187 1_565
La3 O8 2.472677 1_555
La3 O2 2.521577 1_555
La3 O15 2.649948 1_566
La3 O1 2.784467 1_565
La3 O0 2.841170 1_556
La3 O11 3.051337 1_555
La4 O5 2.381187 1_545
La4 O15 2.472677 1_555
La4 O3 2.521577 1_555
La4 O8 2.649948 1_544
La4 O10 2.784467 1_545
La4 O9 2.841170 1_554
La4 O13 3.051337 1_555
La5 O13 2.378539 1_555
La5 O14 2.468923 1_655
La5 O10 2.520711 1_555
La5 O7 2.674133 1_554
La5 O3 2.779077 1_555
La5 O4 2.877272 1_554
La5 O5 3.051667 1_555
La6 O4 2.393454 1_555
La6 O7 2.520077 1_555
La6 O1 2.525129 1_555
La6 O13 2.638443 1_556
La6 O9 2.650411 1_555
La7 O9 2.402374 1_565
La7 O2 2.523298 1_655
La7 O8 2.527510 1_555
La7 O5 2.622433 1_556
La7 O4 2.643446 1_555
I0 La4 3.289805 1_455
I0 La0 3.378111 1_555
I1 La2 3.287735 1_555
I1 La6 3.381448 1_555
I2 La0 3.335656 1_555
I2 La1 3.360388 1_545
I2 La4 3.477249 1_555
I3 La5 3.287735 1_555
I3 La1 3.381448 1_555
I4 La6 3.334498 1_555
I4 La7 3.351566 1_555
I4 La2 3.471275 1_655
I5 La3 3.289805 1_655
I5 La7 3.378111 1_555
I6 La7 3.335656 1_555
I6 La6 3.360388 1_565
I6 La3 3.477249 1_555
I7 La1 3.334498 1_555
I7 La0 3.351566 1_555
I7 La5 3.471275 1_455
O0 Si3 1.635072 1_555
O1 Si1 1.659822 1_556
O2 Si3 1.660343 1_556
O3 Si0 1.660343 1_554
O4 Si2 1.634476 1_555
O5 Si3 1.627136 1_655
O6 Si0 1.627136 1_455
O7 Si0 1.646233 1_555
O8 Si2 1.647359 1_555
O9 Si0 1.635072 1_555
O10 Si2 1.659822 1_554
O11 Si2 1.626611 1_555
O12 Si1 1.634476 1_555
O13 Si1 1.626611 1_555
O14 Si3 1.646233 1_555
O15 Si1 1.647359 1_555
