# generated using pymatgen
data_NdCu(WO4)2
_symmetry_space_group_name_H-M   'P 1'
_cell_length_a   5.14106600
_cell_length_b   6.10273116
_cell_length_c   6.32946811
_cell_angle_alpha   108.33533749
_cell_angle_beta   92.28485345
_cell_angle_gamma   112.28572394
_symmetry_Int_Tables_number   1
_chemical_formula_structural   NdCu(WO4)2
_chemical_formula_sum   'Nd1 Cu1 W2 O8'
_cell_volume   171.53432684
_cell_formula_units_Z   1
loop_
 _symmetry_equiv_pos_site_id
 _symmetry_equiv_pos_as_xyz
  1  'x, y, z'
loop_
 _atom_site_type_symbol
 _atom_site_label
 _atom_site_symmetry_multiplicity
 _atom_site_fract_x
 _atom_site_fract_y
 _atom_site_fract_z
 _atom_site_occupancy
  Nd  Nd0  1  0.00000000  0.50000000  0.00000000  1
  Cu  Cu0  1  0.50000000  0.50000000  0.50000000  1
  W  W0  1  0.75036700  0.01404700  0.33925500  1
  W  W1  1  0.24963300  0.98595300  0.66074500  1
  O  O0  1  0.49908700  0.76907800  0.08690500  1
  O  O1  1  0.97507300  0.24332400  0.22484300  1
  O  O2  1  0.47030300  0.79974500  0.52557100  1
  O  O3  1  0.02229400  0.18710400  0.66301400  1
  O  O4  1  0.02492700  0.75667600  0.77515700  1
  O  O5  1  0.50091300  0.23092200  0.91309500  1
  O  O6  1  0.97770600  0.81289600  0.33698600  1
  O  O7  1  0.52969700  0.20025500  0.47442900  1
loop_
_geom_bond_atom_site_label_1
_geom_bond_atom_site_label_2
_geom_bond_distance
_geom_bond_site_symmetry_2
Nd0 O5 2.388754 1_454
Nd0 O0 2.388754 1_555
Nd0 O4 2.400053 1_554
Nd0 O1 2.400053 1_455
Nd0 O6 2.414922 1_455
Nd0 O3 2.414922 1_554
Cu0 O2 1.850197 1_555
Cu0 O7 1.850197 1_555
O0 W0 1.823013 1_565
O1 W0 1.815217 1_555
O2 W1 1.937497 1_555
O2 W0 2.202670 1_565
O3 W1 1.987857 1_545
O3 W0 2.135232 1_455
O4 W1 1.815217 1_555
O5 W1 1.823013 1_545
O6 W0 1.987857 1_565
O6 W1 2.135232 1_655
O7 W0 1.937497 1_555
O7 W1 2.202670 1_545
