# generated using pymatgen
data_Mo8O23
_symmetry_space_group_name_H-M   'P 1'
_cell_length_a   8.13758000
_cell_length_b   13.71323900
_cell_length_c   17.35525459
_cell_angle_alpha   73.64140509
_cell_angle_beta   90.00000000
_cell_angle_gamma   90.00000000
_symmetry_Int_Tables_number   1
_chemical_formula_structural   Mo8O23
_chemical_formula_sum   'Mo32 O92'
_cell_volume   1858.31495752
_cell_formula_units_Z   4
loop_
 _symmetry_equiv_pos_site_id
 _symmetry_equiv_pos_as_xyz
  1  'x, y, z'
loop_
 _atom_site_type_symbol
 _atom_site_label
 _atom_site_symmetry_multiplicity
 _atom_site_fract_x
 _atom_site_fract_y
 _atom_site_fract_z
 _atom_site_occupancy
  Mo  Mo0  1  0.79210300  0.44566300  0.59684100  1
  Mo  Mo1  1  0.79142600  0.31608300  0.42029400  1
  Mo  Mo2  1  0.29182500  0.55470600  0.90275600  1
  Mo  Mo3  1  0.28780800  0.81499900  0.74509500  1
  Mo  Mo4  1  0.71260300  0.06448100  0.58110600  1
  Mo  Mo5  1  0.70817500  0.44529400  0.09724400  1
  Mo  Mo6  1  0.21086000  0.93372700  0.91717500  1
  Mo  Mo7  1  0.20789700  0.44566300  0.09684100  1
  Mo  Mo8  1  0.78608200  0.18384500  0.75324300  1
  Mo  Mo9  1  0.78914000  0.93372700  0.41717500  1
  Mo  Mo10  1  0.71103300  0.31550200  0.91908900  1
  Mo  Mo11  1  0.79210300  0.55433700  0.90315900  1
  Mo  Mo12  1  0.28739700  0.06448100  0.08110600  1
  Mo  Mo13  1  0.28896700  0.31550200  0.41908900  1
  Mo  Mo14  1  0.20857400  0.68391700  0.57970600  1
  Mo  Mo15  1  0.20857400  0.31608300  0.92029400  1
  Mo  Mo16  1  0.28739700  0.93551900  0.41889400  1
  Mo  Mo17  1  0.28896700  0.68449800  0.08091100  1
  Mo  Mo18  1  0.71219200  0.81499900  0.24509500  1
  Mo  Mo19  1  0.21391800  0.81615500  0.24675700  1
  Mo  Mo20  1  0.20789700  0.55433700  0.40315900  1
  Mo  Mo21  1  0.21391800  0.18384500  0.25324300  1
  Mo  Mo22  1  0.28780800  0.18500100  0.75490500  1
  Mo  Mo23  1  0.29182500  0.44529400  0.59724400  1
  Mo  Mo24  1  0.71260300  0.93551900  0.91889400  1
  Mo  Mo25  1  0.71103300  0.68449800  0.58091100  1
  Mo  Mo26  1  0.71219200  0.18500100  0.25490500  1
  Mo  Mo27  1  0.79142600  0.68391700  0.07970600  1
  Mo  Mo28  1  0.78914000  0.06627300  0.08282500  1
  Mo  Mo29  1  0.78608200  0.81615500  0.74675700  1
  Mo  Mo30  1  0.21086000  0.06627300  0.58282500  1
  Mo  Mo31  1  0.70817500  0.55470600  0.40275600  1
  O  O0  1  0.76004000  0.54284200  0.65208200  1
  O  O1  1  0.49893100  0.80191900  0.24012500  1
  O  O2  1  0.24366000  0.06646300  0.33447100  1
  O  O3  1  0.24992900  0.06723500  0.83517200  1
  O  O4  1  0.75634000  0.93353700  0.66552900  1
  O  O5  1  0.23330700  0.00068400  0.49973900  1
  O  O6  1  0.74577800  0.41117100  0.49553200  1
  O  O7  1  0.23032800  0.26413100  0.83494400  1
  O  O8  1  0.23032800  0.73586900  0.66505600  1
  O  O9  1  0.75509600  0.26296700  0.83567500  1
  O  O10  1  0.49784500  0.94031500  0.91964400  1
  O  O11  1  0.76669300  0.00068400  0.99973900  1
  O  O12  1  0.00408900  0.67948100  0.07173700  1
  O  O13  1  0.25113500  0.54240800  0.65181100  1
  O  O14  1  0.50279000  0.67937000  0.08340200  1
  O  O15  1  0.24992900  0.93276500  0.66482800  1
  O  O16  1  0.25458600  0.32641800  0.67289600  1
  O  O17  1  0.74491200  0.20099800  0.00329400  1
  O  O18  1  0.50215500  0.94031500  0.41964400  1
  O  O19  1  0.74541400  0.32641800  0.17289600  1
  O  O20  1  0.99932700  0.18969500  0.24812200  1
  O  O21  1  0.76967200  0.73586900  0.16505600  1
  O  O22  1  0.75007100  0.06723500  0.33517200  1
  O  O23  1  0.25508800  0.20099800  0.50329400  1
  O  O24  1  0.25422200  0.58882900  0.50446800  1
  O  O25  1  0.24490400  0.26296700  0.33567500  1
  O  O26  1  0.74491200  0.79900200  0.49670600  1
  O  O27  1  0.23996000  0.54284200  0.15208200  1
  O  O28  1  0.00220500  0.92596100  0.40986100  1
  O  O29  1  0.74541400  0.67358200  0.32710400  1
  O  O30  1  0.00220500  0.07403900  0.09013900  1
  O  O31  1  0.25437700  0.79939100  0.49772000  1
  O  O32  1  0.73021400  0.86910200  0.32941300  1
  O  O33  1  0.75557900  0.32724200  0.67324600  1
  O  O34  1  0.49721000  0.32063000  0.91659800  1
  O  O35  1  0.24442100  0.32724200  0.17324600  1
  O  O36  1  0.00067300  0.18969500  0.74812200  1
  O  O37  1  0.25508800  0.79900200  0.99670600  1
  O  O38  1  0.25113500  0.45759200  0.84818900  1
  O  O39  1  0.76004000  0.45715800  0.84791800  1
  O  O40  1  0.75509600  0.73703300  0.66432500  1
  O  O41  1  0.23330700  0.99931600  0.00026100  1
  O  O42  1  0.76967200  0.26413100  0.33494400  1
  O  O43  1  0.49300000  0.44725400  0.09511400  1
  O  O44  1  0.74577800  0.58882900  0.00446800  1
  O  O45  1  0.50700000  0.44725400  0.59511400  1
  O  O46  1  0.50106900  0.19808100  0.75987500  1
  O  O47  1  0.73682400  0.86808500  0.83008000  1
  O  O48  1  0.25677500  0.41137700  0.49512800  1
  O  O49  1  0.49300000  0.55274600  0.40488600  1
  O  O50  1  0.75007100  0.93276500  0.16482800  1
  O  O51  1  0.99779500  0.92596100  0.90986100  1
  O  O52  1  0.73021400  0.13089800  0.17058700  1
  O  O53  1  0.50279000  0.32063000  0.41659800  1
  O  O54  1  0.50106900  0.80191900  0.74012500  1
  O  O55  1  0.74562300  0.20060900  0.50228000  1
  O  O56  1  0.74886500  0.54240800  0.15181100  1
  O  O57  1  0.00645200  0.44578300  0.59042500  1
  O  O58  1  0.49721000  0.67937000  0.58340200  1
  O  O59  1  0.74322500  0.41137700  0.99512800  1
  O  O60  1  0.99591100  0.67948100  0.57173700  1
  O  O61  1  0.76669300  0.99931600  0.50026100  1
  O  O62  1  0.25677500  0.58862300  0.00487200  1
  O  O63  1  0.26978600  0.86910200  0.82941300  1
  O  O64  1  0.75634000  0.06646300  0.83447100  1
  O  O65  1  0.25458600  0.67358200  0.82710400  1
  O  O66  1  0.74562300  0.79939100  0.99772000  1
  O  O67  1  0.25422200  0.41117100  0.99553200  1
  O  O68  1  0.50215500  0.05968500  0.08035600  1
  O  O69  1  0.26317600  0.86808500  0.33008000  1
  O  O70  1  0.24442100  0.67275800  0.32675400  1
  O  O71  1  0.75557900  0.67275800  0.82675400  1
  O  O72  1  0.74322500  0.58862300  0.50487200  1
  O  O73  1  0.99591100  0.32051900  0.92826300  1
  O  O74  1  0.25437700  0.20060900  0.00228000  1
  O  O75  1  0.00067300  0.81030500  0.75187800  1
  O  O76  1  0.99932700  0.81030500  0.25187800  1
  O  O77  1  0.49893100  0.19808100  0.25987500  1
  O  O78  1  0.00645200  0.55421700  0.90957500  1
  O  O79  1  0.00408900  0.32051900  0.42826300  1
  O  O80  1  0.99354800  0.55421700  0.40957500  1
  O  O81  1  0.24366000  0.93353700  0.16552900  1
  O  O82  1  0.26978600  0.13089800  0.67058700  1
  O  O83  1  0.99779500  0.07403900  0.59013900  1
  O  O84  1  0.74886500  0.45759200  0.34818900  1
  O  O85  1  0.24490400  0.73703300  0.16432500  1
  O  O86  1  0.26317600  0.13191500  0.16992000  1
  O  O87  1  0.73682400  0.13191500  0.66992000  1
  O  O88  1  0.99354800  0.44578300  0.09042500  1
  O  O89  1  0.23996000  0.45715800  0.34791800  1
  O  O90  1  0.50700000  0.55274600  0.90488600  1
  O  O91  1  0.49784500  0.05968500  0.58035600  1
loop_
_geom_bond_atom_site_label_1
_geom_bond_atom_site_label_2
_geom_bond_distance
_geom_bond_site_symmetry_2
Mo0 O57 1.747804 1_655
Mo0 O33 1.808552 1_555
Mo0 O0 1.866235 1_555
Mo0 O6 1.981342 1_555
Mo0 O72 2.187827 1_555
Mo0 O45 2.320265 1_555
Mo1 O79 1.738509 1_655
Mo1 O42 1.824145 1_555
Mo1 O55 1.844417 1_555
Mo1 O84 2.020834 1_555
Mo1 O6 2.121903 1_555
Mo1 O53 2.350022 1_555
Mo2 O90 1.751440 1_555
Mo2 O65 1.807626 1_555
Mo2 O38 1.868281 1_555
Mo2 O62 1.975568 1_556
Mo2 O67 2.185242 1_555
Mo2 O78 2.325173 1_555
Mo3 O54 1.749297 1_555
Mo3 O63 1.823448 1_555
Mo3 O15 1.837507 1_555
Mo3 O8 2.043274 1_555
Mo3 O65 2.074819 1_555
Mo3 O75 2.339521 1_555
Mo4 O91 1.749034 1_555
Mo4 O61 1.915002 1_545
Mo4 O55 1.997493 1_555
Mo4 O4 2.003954 1_545
Mo4 O87 2.018114 1_555
Mo4 O83 2.332234 1_555
Mo5 O43 1.751440 1_555
Mo5 O19 1.807626 1_555
Mo5 O56 1.868281 1_555
Mo5 O59 1.975568 1_554
Mo5 O44 2.185242 1_555
Mo5 O88 2.325173 1_555
Mo6 O51 1.743917 1_455
Mo6 O41 1.911082 1_556
Mo6 O3 2.002681 1_565
Mo6 O37 2.002890 1_555
Mo6 O63 2.023759 1_555
Mo6 O10 2.337969 1_555
Mo7 O88 1.747804 1_455
Mo7 O35 1.808552 1_555
Mo7 O27 1.866235 1_555
Mo7 O67 1.981342 1_554
Mo7 O62 2.187827 1_555
Mo7 O43 2.320265 1_555
Mo8 O36 1.749203 1_655
Mo8 O87 1.827311 1_555
Mo8 O64 1.832694 1_555
Mo8 O9 2.040080 1_555
Mo8 O33 2.078023 1_555
Mo8 O46 2.333076 1_555
Mo9 O28 1.743917 1_655
Mo9 O61 1.911082 1_555
Mo9 O22 2.002681 1_565
Mo9 O26 2.002890 1_555
Mo9 O32 2.023759 1_555
Mo9 O18 2.337969 1_555
Mo10 O34 1.741467 1_555
Mo10 O9 1.825053 1_555
Mo10 O17 1.839750 1_556
Mo10 O39 2.026498 1_555
Mo10 O59 2.125113 1_555
Mo10 O73 2.326024 1_555
Mo11 O78 1.747804 1_655
Mo11 O71 1.808552 1_555
Mo11 O39 1.866235 1_555
Mo11 O44 1.981342 1_556
Mo11 O59 2.187827 1_555
Mo11 O90 2.320265 1_555
Mo12 O68 1.749034 1_555
Mo12 O41 1.915002 1_545
Mo12 O74 1.997493 1_555
Mo12 O81 2.003954 1_545
Mo12 O86 2.018114 1_555
Mo12 O30 2.332234 1_555
Mo13 O53 1.741467 1_555
Mo13 O25 1.825053 1_555
Mo13 O23 1.839750 1_555
Mo13 O89 2.026498 1_555
Mo13 O48 2.125113 1_555
Mo13 O79 2.326024 1_555
Mo14 O60 1.738509 1_455
Mo14 O8 1.824145 1_555
Mo14 O31 1.844417 1_555
Mo14 O13 2.020834 1_555
Mo14 O24 2.121903 1_555
Mo14 O58 2.350022 1_555
Mo15 O73 1.738509 1_455
Mo15 O7 1.824145 1_555
Mo15 O74 1.844417 1_556
Mo15 O38 2.020834 1_555
Mo15 O67 2.121903 1_555
Mo15 O34 2.350022 1_555
Mo16 O18 1.749034 1_555
Mo16 O5 1.915002 1_565
Mo16 O31 1.997493 1_555
Mo16 O2 2.003954 1_565
Mo16 O69 2.018114 1_555
Mo16 O28 2.332234 1_555
Mo17 O14 1.741467 1_555
Mo17 O85 1.825053 1_555
Mo17 O37 1.839750 1_554
Mo17 O27 2.026498 1_555
Mo17 O62 2.125113 1_555
Mo17 O12 2.326024 1_555
Mo18 O1 1.749297 1_555
Mo18 O32 1.823448 1_555
Mo18 O50 1.837507 1_555
Mo18 O21 2.043274 1_555
Mo18 O29 2.074819 1_555
Mo18 O76 2.339521 1_555
Mo19 O76 1.749203 1_455
Mo19 O69 1.827311 1_555
Mo19 O81 1.832694 1_555
Mo19 O85 2.040080 1_555
Mo19 O70 2.078023 1_555
Mo19 O1 2.333076 1_555
Mo20 O80 1.747804 1_455
Mo20 O70 1.808552 1_555
Mo20 O89 1.866235 1_555
Mo20 O24 1.981342 1_555
Mo20 O48 2.187827 1_555
Mo20 O49 2.320265 1_555
Mo21 O20 1.749203 1_455
Mo21 O86 1.827311 1_555
Mo21 O2 1.832694 1_555
Mo21 O25 2.040080 1_555
Mo21 O35 2.078023 1_555
Mo21 O77 2.333076 1_555
Mo22 O46 1.749297 1_555
Mo22 O82 1.823448 1_555
Mo22 O3 1.837507 1_555
Mo22 O7 2.043274 1_555
Mo22 O16 2.074819 1_555
Mo22 O36 2.339521 1_555
Mo23 O45 1.751440 1_555
Mo23 O16 1.807626 1_555
Mo23 O13 1.868281 1_555
Mo23 O48 1.975568 1_555
Mo23 O24 2.185242 1_555
Mo23 O57 2.325173 1_555
Mo24 O10 1.749034 1_555
Mo24 O11 1.915002 1_565
Mo24 O66 1.997493 1_555
Mo24 O64 2.003954 1_565
Mo24 O47 2.018114 1_555
Mo24 O51 2.332234 1_555
Mo25 O58 1.741467 1_555
Mo25 O40 1.825053 1_555
Mo25 O26 1.839750 1_555
Mo25 O0 2.026498 1_555
Mo25 O72 2.125113 1_555
Mo25 O60 2.326024 1_555
Mo26 O77 1.749297 1_555
Mo26 O52 1.823448 1_555
Mo26 O22 1.837507 1_555
Mo26 O42 2.043274 1_555
Mo26 O19 2.074819 1_555
Mo26 O20 2.339521 1_555
Mo27 O12 1.738509 1_655
Mo27 O21 1.824145 1_555
Mo27 O66 1.844417 1_554
Mo27 O56 2.020834 1_555
Mo27 O44 2.121903 1_555
Mo27 O14 2.350022 1_555
Mo28 O30 1.743917 1_655
Mo28 O11 1.911082 1_554
Mo28 O50 2.002681 1_545
Mo28 O17 2.002890 1_555
Mo28 O52 2.023759 1_555
Mo28 O68 2.337969 1_555
Mo29 O75 1.749203 1_655
Mo29 O47 1.827311 1_555
Mo29 O4 1.832694 1_555
Mo29 O40 2.040080 1_555
Mo29 O71 2.078023 1_555
Mo29 O54 2.333076 1_555
Mo30 O83 1.743917 1_455
Mo30 O5 1.911082 1_555
Mo30 O15 2.002681 1_545
Mo30 O23 2.002890 1_555
Mo30 O82 2.023759 1_555
Mo30 O91 2.337969 1_555
Mo31 O49 1.751440 1_555
Mo31 O29 1.807626 1_555
Mo31 O84 1.868281 1_555
Mo31 O72 1.975568 1_555
Mo31 O6 2.185242 1_555
Mo31 O80 2.325173 1_555
