# generated using pymatgen
data_Rb3Nb2S11
_symmetry_space_group_name_H-M   'P 1'
_cell_length_a   8.07785457
_cell_length_b   11.92472086
_cell_length_c   19.47050173
_cell_angle_alpha   75.85693289
_cell_angle_beta   90.00000000
_cell_angle_gamma   90.00000000
_symmetry_Int_Tables_number   1
_chemical_formula_structural   Rb3Nb2S11
_chemical_formula_sum   'Rb12 Nb8 S44'
_cell_volume   1818.66913279
_cell_formula_units_Z   4
loop_
 _symmetry_equiv_pos_site_id
 _symmetry_equiv_pos_as_xyz
  1  'x, y, z'
loop_
 _atom_site_type_symbol
 _atom_site_label
 _atom_site_symmetry_multiplicity
 _atom_site_fract_x
 _atom_site_fract_y
 _atom_site_fract_z
 _atom_site_occupancy
  Rb  Rb0  1  0.83159512  0.99882916  0.65862257  1
  Rb  Rb1  1  0.33159512  0.00117084  0.84137743  1
  Rb  Rb2  1  0.16840488  0.00117084  0.34137743  1
  Rb  Rb3  1  0.66840488  0.99882916  0.15862257  1
  Rb  Rb4  1  0.31327374  0.76777063  0.61253501  1
  Rb  Rb5  1  0.81327374  0.23222937  0.88746499  1
  Rb  Rb6  1  0.68672626  0.23222937  0.38746499  1
  Rb  Rb7  1  0.18672626  0.76777063  0.11253501  1
  Rb  Rb8  1  0.84454436  0.45761910  0.64256155  1
  Rb  Rb9  1  0.34454436  0.54238090  0.85743845  1
  Rb  Rb10  1  0.15545564  0.54238090  0.35743845  1
  Rb  Rb11  1  0.65545564  0.45761910  0.14256155  1
  Nb  Nb0  1  0.63977821  0.71128871  0.33516390  1
  Nb  Nb1  1  0.13977821  0.28871129  0.16483610  1
  Nb  Nb2  1  0.36022179  0.28871129  0.66483610  1
  Nb  Nb3  1  0.86022179  0.71128871  0.83516390  1
  Nb  Nb4  1  0.77069064  0.80262621  0.49338870  1
  Nb  Nb5  1  0.27069064  0.19737379  0.00661130  1
  Nb  Nb6  1  0.22930936  0.19737379  0.50661130  1
  Nb  Nb7  1  0.72930936  0.80262621  0.99338870  1
  S  S0  1  0.42685952  0.76847511  0.26185426  1
  S  S1  1  0.92685952  0.23152489  0.23814574  1
  S  S2  1  0.57314048  0.23152489  0.73814574  1
  S  S3  1  0.07314048  0.76847511  0.76185426  1
  S  S4  1  0.72350852  0.52257331  0.31412634  1
  S  S5  1  0.22350852  0.47742669  0.18587366  1
  S  S6  1  0.27649148  0.47742669  0.68587366  1
  S  S7  1  0.77649148  0.52257331  0.81412634  1
  S  S8  1  0.57198412  0.51295470  0.40126682  1
  S  S9  1  0.07198412  0.48704530  0.09873318  1
  S  S10  1  0.42801588  0.48704530  0.59873318  1
  S  S11  1  0.92801588  0.51295470  0.90126682  1
  S  S12  1  0.89467500  0.79922054  0.27690872  1
  S  S13  1  0.39467500  0.20077946  0.22309128  1
  S  S14  1  0.10532500  0.20077946  0.72309128  1
  S  S15  1  0.60532500  0.79922054  0.77690872  1
  S  S16  1  0.77429502  0.89548611  0.33720696  1
  S  S17  1  0.27429502  0.10451389  0.16279304  1
  S  S18  1  0.22570498  0.10451389  0.66279304  1
  S  S19  1  0.72570498  0.89548611  0.83720696  1
  S  S20  1  0.50039582  0.74580697  0.44750695  1
  S  S21  1  0.00039582  0.25419303  0.05249305  1
  S  S22  1  0.49960418  0.25419303  0.55249305  1
  S  S23  1  -0.00039582  0.74580697  0.94750695  1
  S  S24  1  0.51499159  0.91717138  0.45151631  1
  S  S25  1  0.01499159  0.08282862  0.04848369  1
  S  S26  1  0.48500841  0.08282862  0.54848369  1
  S  S27  1  0.98500841  0.91717138  0.95151631  1
  S  S28  1  0.87262815  0.63026797  0.45883946  1
  S  S29  1  0.37262815  0.36973203  0.04116054  1
  S  S30  1  0.12737185  0.36973203  0.54116054  1
  S  S31  1  0.62737185  0.63026797  0.95883946  1
  S  S32  1  0.05454934  0.74799428  0.46928232  1
  S  S33  1  0.55454934  0.25200572  0.03071768  1
  S  S34  1  0.94545066  0.25200572  0.53071768  1
  S  S35  1  0.44545066  0.74799428  0.96928232  1
  S  S36  1  0.73477134  0.74052039  0.60991119  1
  S  S37  1  0.23477134  0.25947961  0.89008881  1
  S  S38  1  0.26522866  0.25947961  0.39008881  1
  S  S39  1  0.76522866  0.74052039  0.10991119  1
  S  S40  1  0.87623349  0.00311089  0.48531728  1
  S  S41  1  0.37623349  0.99688911  0.01468272  1
  S  S42  1  0.12376651  0.99688911  0.51468272  1
  S  S43  1  0.62376651  0.00311089  0.98531728  1
loop_
_geom_bond_atom_site_label_1
_geom_bond_atom_site_label_2
_geom_bond_distance
_geom_bond_site_symmetry_2
Rb0 S40 3.381510 1_565
Rb0 S15 3.410532 1_555
Rb0 S18 3.432190 1_665
Rb0 S19 3.499528 1_555
Rb0 S26 3.520017 1_565
Rb0 S36 3.525184 1_555
Rb0 S34 3.533879 1_565
Rb0 S3 3.562920 1_655
Rb0 S42 3.668356 1_655
Rb0 S14 3.706950 1_665
Rb1 S41 3.381510 1_546
Rb1 S14 3.410532 1_555
Rb1 S19 3.432190 1_545
Rb1 S18 3.499528 1_555
Rb1 S27 3.520017 1_445
Rb1 S37 3.525184 1_555
Rb1 S35 3.533879 1_545
Rb1 S2 3.562920 1_555
Rb1 S43 3.668356 1_555
Rb1 S15 3.706950 1_545
Rb2 S42 3.381510 1_545
Rb2 S13 3.410532 1_555
Rb2 S16 3.432190 1_445
Rb2 S17 3.499528 1_555
Rb2 S24 3.520017 1_545
Rb2 S38 3.525184 1_555
Rb2 S32 3.533879 1_545
Rb2 S1 3.562920 1_455
Rb2 S40 3.668356 1_455
Rb2 S12 3.706950 1_445
Rb3 S43 3.381510 1_564
Rb3 S12 3.410532 1_555
Rb3 S17 3.432190 1_565
Rb3 S16 3.499528 1_555
Rb3 S25 3.520017 1_665
Rb3 S39 3.525184 1_555
Rb3 S33 3.533879 1_565
Rb3 S0 3.562920 1_555
Rb3 S41 3.668356 1_555
Rb3 S13 3.706950 1_565
Rb4 S42 3.300643 1_555
Rb4 S6 3.420319 1_555
Rb4 S36 3.421835 1_555
Rb4 S3 3.496741 1_555
Rb4 S32 3.539004 1_555
Rb4 S10 3.546428 1_555
Rb4 S24 3.595621 1_555
Rb4 S20 3.617893 1_555
Rb4 S26 3.912154 1_565
Rb5 S43 3.300643 1_555
Rb5 S7 3.420319 1_555
Rb5 S37 3.421835 1_655
Rb5 S2 3.496741 1_555
Rb5 S33 3.539004 1_556
Rb5 S11 3.546428 1_555
Rb5 S25 3.595621 1_656
Rb5 S21 3.617893 1_656
Rb5 S27 3.912154 1_545
Rb6 S40 3.300643 1_555
Rb6 S4 3.420319 1_555
Rb6 S38 3.421835 1_555
Rb6 S1 3.496741 1_555
Rb6 S34 3.539004 1_555
Rb6 S8 3.546428 1_555
Rb6 S26 3.595621 1_555
Rb6 S22 3.617893 1_555
Rb6 S24 3.912154 1_545
Rb7 S41 3.300643 1_555
Rb7 S5 3.420319 1_555
Rb7 S39 3.421835 1_455
Rb7 S0 3.496741 1_555
Rb7 S35 3.539004 1_554
Rb7 S9 3.546428 1_555
Rb7 S27 3.595621 1_454
Rb7 S23 3.617893 1_554
Rb7 S25 3.912154 1_565
Rb8 S30 3.350684 1_655
Rb8 S36 3.394557 1_555
Rb8 S10 3.467843 1_555
Rb8 S6 3.610936 1_655
Rb8 S2 3.617593 1_555
Rb8 S7 3.650368 1_555
Rb8 S28 3.672487 1_555
Rb8 S14 3.732240 1_655
Rb8 S34 3.745343 1_555
Rb9 S31 3.350684 1_555
Rb9 S37 3.394557 1_555
Rb9 S11 3.467843 1_455
Rb9 S7 3.610936 1_555
Rb9 S3 3.617593 1_555
Rb9 S6 3.650368 1_555
Rb9 S29 3.672487 1_556
Rb9 S15 3.732240 1_555
Rb9 S35 3.745343 1_555
Rb10 S28 3.350684 1_455
Rb10 S38 3.394557 1_555
Rb10 S8 3.467843 1_555
Rb10 S4 3.610936 1_455
Rb10 S0 3.617593 1_555
Rb10 S5 3.650368 1_555
Rb10 S30 3.672487 1_555
Rb10 S12 3.732240 1_455
Rb10 S32 3.745343 1_555
Rb11 S29 3.350684 1_555
Rb11 S39 3.394557 1_555
Rb11 S9 3.467843 1_655
Rb11 S5 3.610936 1_555
Rb11 S1 3.617593 1_555
Rb11 S4 3.650368 1_555
Rb11 S31 3.672487 1_554
Rb11 S13 3.732240 1_555
Rb11 S33 3.745343 1_555
Nb0 S0 2.232690 1_555
Nb0 S12 2.458530 1_555
Nb0 S16 2.459598 1_555
Nb0 S8 2.462204 1_555
Nb0 S4 2.477885 1_555
Nb0 S20 2.581030 1_555
Nb0 S28 3.022082 1_555
Nb1 S1 2.232690 1_455
Nb1 S13 2.458530 1_555
Nb1 S17 2.459598 1_555
Nb1 S9 2.462204 1_555
Nb1 S5 2.477885 1_555
Nb1 S21 2.581030 1_555
Nb1 S29 3.022082 1_555
Nb2 S2 2.232690 1_555
Nb2 S14 2.458530 1_555
Nb2 S18 2.459598 1_555
Nb2 S10 2.462204 1_555
Nb2 S6 2.477885 1_555
Nb2 S22 2.581030 1_555
Nb2 S30 3.022082 1_555
Nb3 S3 2.232690 1_655
Nb3 S15 2.458530 1_555
Nb3 S19 2.459598 1_555
Nb3 S11 2.462204 1_555
Nb3 S7 2.477885 1_555
Nb3 S23 2.581030 1_655
Nb3 S31 3.022082 1_555
Nb4 S36 2.226835 1_555
Nb4 S28 2.455723 1_555
Nb4 S32 2.460051 1_655
Nb4 S24 2.500499 1_555
Nb4 S40 2.506693 1_565
Nb4 S20 2.513996 1_555
Nb4 S16 2.971322 1_555
Nb5 S37 2.226835 1_554
Nb5 S29 2.455723 1_555
Nb5 S33 2.460051 1_555
Nb5 S25 2.500499 1_555
Nb5 S41 2.506693 1_545
Nb5 S21 2.513996 1_555
Nb5 S17 2.971322 1_555
Nb6 S38 2.226835 1_555
Nb6 S30 2.455723 1_555
Nb6 S34 2.460051 1_455
Nb6 S26 2.500499 1_555
Nb6 S42 2.506693 1_545
Nb6 S22 2.513996 1_555
Nb6 S18 2.971322 1_555
Nb7 S39 2.226835 1_556
Nb7 S31 2.455723 1_555
Nb7 S35 2.460051 1_555
Nb7 S27 2.500499 1_555
Nb7 S43 2.506693 1_565
Nb7 S23 2.513996 1_655
Nb7 S19 2.971322 1_555
S4 S8 2.072413 1_555
S5 S9 2.072413 1_555
S10 S6 2.072413 1_555
S11 S7 2.072413 1_555
S12 S16 2.073724 1_555
S13 S17 2.073724 1_555
S14 S18 2.073724 1_555
S15 S19 2.073724 1_555
S20 S24 2.067301 1_555
S21 S25 2.067301 1_555
S22 S26 2.067301 1_555
S23 S27 2.067301 1_455
S28 S32 2.076335 1_655
S29 S33 2.076335 1_555
S30 S34 2.076335 1_455
S31 S35 2.076335 1_555
S40 S42 2.076012 1_645
S41 S43 2.076012 1_564
