# generated using pymatgen
data_B3Pb6ClO10
_symmetry_space_group_name_H-M   'P 1'
_cell_length_a   7.05792529
_cell_length_b   11.03173519
_cell_length_c   17.29943384
_cell_angle_alpha   90.00000000
_cell_angle_beta   90.00000000
_cell_angle_gamma   90.00000000
_symmetry_Int_Tables_number   1
_chemical_formula_structural   B3Pb6ClO10
_chemical_formula_sum   'B12 Pb24 Cl4 O40'
_cell_volume   1346.95403439
_cell_formula_units_Z   4
loop_
 _symmetry_equiv_pos_site_id
 _symmetry_equiv_pos_as_xyz
  1  'x, y, z'
loop_
 _atom_site_type_symbol
 _atom_site_label
 _atom_site_symmetry_multiplicity
 _atom_site_fract_x
 _atom_site_fract_y
 _atom_site_fract_z
 _atom_site_occupancy
  B  B0  1  0.27901843  0.49729185  0.99666770  1
  B  B1  1  0.72098157  0.50270815  0.00333230  1
  B  B2  1  0.72098157  0.49729185  0.49666770  1
  B  B3  1  0.29647173  0.25000000  0.72512568  1
  B  B4  1  0.72098157  0.99729185  0.00333230  1
  B  B5  1  0.27901843  0.99729185  0.50333230  1
  B  B6  1  0.72098157  0.00270815  0.49666770  1
  B  B7  1  0.70352827  0.75000000  0.27487432  1
  B  B8  1  0.29647173  0.75000000  0.77487432  1
  B  B9  1  0.27901843  0.50270815  0.50333230  1
  B  B10  1  0.70352827  0.25000000  0.22512568  1
  B  B11  1  0.27901843  0.00270815  0.99666770  1
  Pb  Pb0  1  0.97509106  0.92036629  0.16053240  1
  Pb  Pb1  1  0.02490894  0.92036629  0.66053240  1
  Pb  Pb2  1  0.97509106  0.07963371  0.33946760  1
  Pb  Pb3  1  0.52977880  0.56412542  0.84422716  1
  Pb  Pb4  1  0.97509106  0.57963371  0.16053240  1
  Pb  Pb5  1  0.47022120  0.06412542  0.15577284  1
  Pb  Pb6  1  0.92661188  0.25000000  0.02806431  1
  Pb  Pb7  1  0.58703544  0.25000000  0.43680482  1
  Pb  Pb8  1  0.07338812  0.25000000  0.52806431  1
  Pb  Pb9  1  0.58703544  0.75000000  0.06319518  1
  Pb  Pb10  1  0.02490894  0.42036629  0.83946760  1
  Pb  Pb11  1  0.92661188  0.75000000  0.47193569  1
  Pb  Pb12  1  0.52977880  0.43587458  0.65577284  1
  Pb  Pb13  1  0.41296456  0.75000000  0.56319518  1
  Pb  Pb14  1  0.97509106  0.42036629  0.33946760  1
  Pb  Pb15  1  0.47022120  0.43587458  0.15577284  1
  Pb  Pb16  1  0.52977880  0.06412542  0.65577284  1
  Pb  Pb17  1  0.41296456  0.25000000  0.93680482  1
  Pb  Pb18  1  0.02490894  0.57963371  0.66053240  1
  Pb  Pb19  1  0.07338812  0.75000000  0.97193569  1
  Pb  Pb20  1  0.47022120  0.56412542  0.34422716  1
  Pb  Pb21  1  0.47022120  0.93587458  0.34422716  1
  Pb  Pb22  1  0.52977880  0.93587458  0.84422716  1
  Pb  Pb23  1  0.02490894  0.07963371  0.83946760  1
  Cl  Cl0  1  0.79903753  0.75000000  0.76223844  1
  Cl  Cl1  1  0.20096247  0.25000000  0.23776156  1
  Cl  Cl2  1  0.20096247  0.75000000  0.26223844  1
  Cl  Cl3  1  0.79903753  0.25000000  0.73776156  1
  O  O0  1  0.66447986  0.39198616  0.53392097  1
  O  O1  1  0.91355067  0.75000000  0.09083298  1
  O  O2  1  0.27455967  0.50548044  0.58375855  1
  O  O3  1  0.08644933  0.25000000  0.90916702  1
  O  O4  1  0.26576264  0.36115426  0.75734818  1
  O  O5  1  0.26576264  0.13884574  0.75734818  1
  O  O6  1  0.66447986  0.89198616  0.96607903  1
  O  O7  1  0.77008955  0.90121572  0.53732054  1
  O  O8  1  0.27455967  0.00548044  0.91624145  1
  O  O9  1  0.61259411  0.25000000  0.15138484  1
  O  O10  1  0.26576264  0.86115426  0.74265182  1
  O  O11  1  0.38740589  0.25000000  0.65138484  1
  O  O12  1  0.22991045  0.09878428  0.46267946  1
  O  O13  1  0.33552014  0.39198616  0.03392097  1
  O  O14  1  0.22991045  0.90121572  0.03732054  1
  O  O15  1  0.22991045  0.40121572  0.46267946  1
  O  O16  1  0.27455967  0.49451956  0.91624145  1
  O  O17  1  0.66447986  0.60801384  0.96607903  1
  O  O18  1  0.27455967  0.99451956  0.58375855  1
  O  O19  1  0.08644933  0.75000000  0.59083298  1
  O  O20  1  0.73423736  0.13884574  0.25734818  1
  O  O21  1  0.77008955  0.59878428  0.53732054  1
  O  O22  1  0.77008955  0.40121572  0.96267946  1
  O  O23  1  0.38740589  0.75000000  0.84861516  1
  O  O24  1  0.33552014  0.89198616  0.46607903  1
  O  O25  1  0.77008955  0.09878428  0.96267946  1
  O  O26  1  0.72544033  0.99451956  0.08375855  1
  O  O27  1  0.73423736  0.86115426  0.24265182  1
  O  O28  1  0.72544033  0.00548044  0.41624145  1
  O  O29  1  0.91355067  0.25000000  0.40916702  1
  O  O30  1  0.72544033  0.49451956  0.41624145  1
  O  O31  1  0.61259411  0.75000000  0.34861516  1
  O  O32  1  0.72544033  0.50548044  0.08375855  1
  O  O33  1  0.33552014  0.60801384  0.46607903  1
  O  O34  1  0.33552014  0.10801384  0.03392097  1
  O  O35  1  0.73423736  0.63884574  0.24265182  1
  O  O36  1  0.26576264  0.63884574  0.74265182  1
  O  O37  1  0.73423736  0.36115426  0.25734818  1
  O  O38  1  0.22991045  0.59878428  0.03732054  1
  O  O39  1  0.66447986  0.10801384  0.53392097  1
loop_
_geom_bond_atom_site_label_1
_geom_bond_atom_site_label_2
_geom_bond_distance
_geom_bond_site_symmetry_2
B0 O38 1.366862 1_556
B0 O13 1.387053 1_556
B0 O16 1.392020 1_555
B1 O22 1.366862 1_554
B1 O17 1.387053 1_554
B1 O32 1.392020 1_555
B2 O21 1.366862 1_555
B2 O0 1.387053 1_555
B2 O30 1.392020 1_555
B3 O5 1.364307 1_555
B3 O4 1.364307 1_555
B3 O11 1.428027 1_555
B4 O25 1.366862 1_564
B4 O6 1.387053 1_554
B4 O26 1.392020 1_555
B5 O12 1.366862 1_565
B5 O24 1.387053 1_555
B5 O18 1.392020 1_555
B6 O7 1.366862 1_545
B6 O39 1.387053 1_555
B6 O28 1.392020 1_555
B7 O35 1.364307 1_555
B7 O27 1.364307 1_555
B7 O31 1.428027 1_555
B8 O36 1.364307 1_555
B8 O10 1.364307 1_555
B8 O23 1.428027 1_555
B9 O15 1.366862 1_555
B9 O33 1.387053 1_555
B9 O2 1.392020 1_555
B10 O20 1.364307 1_555
B10 O37 1.364307 1_555
B10 O9 1.428027 1_555
B11 O14 1.366862 1_546
B11 O34 1.387053 1_556
B11 O8 1.392020 1_555
Cl0 Pb1 3.028100 1_655
Cl0 Pb18 3.028100 1_655
Cl0 Pb22 3.134951 1_555
Cl0 Pb3 3.134951 1_555
Cl1 Pb2 3.028100 1_455
Cl1 Pb14 3.028100 1_455
Cl1 Pb15 3.134951 1_555
Cl1 Pb5 3.134951 1_555
Cl2 Pb4 3.028100 1_455
Cl2 Pb0 3.028100 1_455
Cl2 Pb21 3.134951 1_555
Cl2 Pb20 3.134951 1_555
Cl3 Pb23 3.028100 1_655
Cl3 Pb10 3.028100 1_655
Cl3 Pb12 3.134951 1_555
Cl3 Pb16 3.134951 1_555
O0 Pb7 2.361105 1_555
O0 Pb12 2.362583 1_555
O1 Pb0 2.274818 1_555
O1 Pb4 2.274818 1_555
O1 Pb19 2.345914 1_654
O1 Pb9 2.353595 1_555
O2 Pb12 2.320864 1_555
O2 Pb18 2.353265 1_555
O3 Pb23 2.274818 1_555
O3 Pb10 2.274818 1_555
O3 Pb6 2.345914 1_456
O3 Pb17 2.353595 1_555
O4 Pb10 2.309675 1_555
O5 Pb23 2.309675 1_555
O6 Pb9 2.361105 1_556
O6 Pb22 2.362583 1_555
O7 Pb11 2.298400 1_555
O7 Pb1 2.796872 1_655
O8 Pb22 2.320864 1_545
O8 Pb23 2.353265 1_555
O9 Pb15 2.284760 1_555
O9 Pb5 2.284760 1_555
O10 Pb1 2.309675 1_555
O11 Pb12 2.284760 1_555
O11 Pb16 2.284760 1_555
O12 Pb8 2.298400 1_555
O12 Pb2 2.796872 1_455
O13 Pb17 2.361105 1_554
O13 Pb15 2.362583 1_555
O14 Pb19 2.298400 1_554
O14 Pb0 2.796872 1_455
O15 Pb8 2.298400 1_555
O15 Pb14 2.796872 1_455
O16 Pb3 2.320864 1_555
O16 Pb10 2.353265 1_555
O17 Pb9 2.361105 1_556
O17 Pb3 2.362583 1_555
O18 Pb16 2.320864 1_565
O18 Pb1 2.353265 1_555
O19 Pb18 2.274818 1_555
O19 Pb1 2.274818 1_555
O19 Pb11 2.345914 1_455
O19 Pb13 2.353595 1_555
O20 Pb2 2.309675 1_555
O21 Pb11 2.298400 1_555
O21 Pb18 2.796872 1_655
O22 Pb6 2.298400 1_556
O22 Pb10 2.796872 1_655
O23 Pb3 2.284760 1_555
O23 Pb22 2.284760 1_555
O24 Pb13 2.361105 1_555
O24 Pb21 2.362583 1_555
O25 Pb6 2.298400 1_556
O25 Pb23 2.796872 1_655
O26 Pb5 2.320864 1_565
O26 Pb0 2.353265 1_555
O27 Pb0 2.309675 1_555
O28 Pb21 2.320864 1_545
O28 Pb2 2.353265 1_555
O29 Pb2 2.274818 1_555
O29 Pb14 2.274818 1_555
O29 Pb8 2.345914 1_655
O29 Pb7 2.353595 1_555
O30 Pb20 2.320864 1_555
O30 Pb14 2.353265 1_555
O31 Pb20 2.284760 1_555
O31 Pb21 2.284760 1_555
O32 Pb15 2.320864 1_555
O32 Pb4 2.353265 1_555
O33 Pb13 2.361105 1_555
O33 Pb20 2.362583 1_555
O34 Pb17 2.361105 1_554
O34 Pb5 2.362583 1_555
O35 Pb4 2.309675 1_555
O36 Pb18 2.309675 1_555
O37 Pb14 2.309675 1_555
O38 Pb19 2.298400 1_554
O38 Pb4 2.796872 1_455
O39 Pb7 2.361105 1_555
O39 Pb16 2.362583 1_555
