# generated using pymatgen
data_Pr3Sb5Pd6
_symmetry_space_group_name_H-M   'P 1'
_cell_length_a   4.46435308
_cell_length_b   10.25403819
_cell_length_c   13.50534333
_cell_angle_alpha   90.00080941
_cell_angle_beta   90.00025178
_cell_angle_gamma   89.99999337
_symmetry_Int_Tables_number   1
_chemical_formula_structural   Pr3Sb5Pd6
_chemical_formula_sum   'Pr6 Sb10 Pd12'
_cell_volume   618.24283922
_cell_formula_units_Z   2
loop_
 _symmetry_equiv_pos_site_id
 _symmetry_equiv_pos_as_xyz
  1  'x, y, z'
loop_
 _atom_site_type_symbol
 _atom_site_label
 _atom_site_symmetry_multiplicity
 _atom_site_fract_x
 _atom_site_fract_y
 _atom_site_fract_z
 _atom_site_occupancy
  Pr  Pr0  1  -0.00000170  0.24216519  0.00003016  1
  Pr  Pr1  1  0.49999990  0.75784054  0.49997420  1
  Pr  Pr2  1  -0.00000067  0.24770359  0.32689869  1
  Pr  Pr3  1  0.49999900  0.75229794  0.17310383  1
  Pr  Pr4  1  -0.00000048  0.24770565  0.67308325  1
  Pr  Pr5  1  0.49999955  0.75228105  0.82690781  1
  Sb  Sb0  1  -0.00000174  0.51948242  0.12836874  1
  Sb  Sb1  1  0.49999841  0.48054792  0.37165181  1
  Sb  Sb2  1  -0.00000087  0.51949367  0.87163782  1
  Sb  Sb3  1  0.49999852  0.48052039  0.62834211  1
  Sb  Sb4  1  0.00000107  0.86302552  0.33553406  1
  Sb  Sb5  1  0.49999767  0.13695932  0.16451378  1
  Sb  Sb6  1  0.00000102  0.86304550  0.66444630  1
  Sb  Sb7  1  0.49999615  0.13694967  0.83551409  1
  Sb  Sb8  1  -0.00000072  0.83868152  0.00001386  1
  Sb  Sb9  1  0.50001795  0.16143797  0.49999077  1
  Pd  Pd0  1  -0.00000169  0.99333660  0.16184648  1
  Pd  Pd1  1  0.50000038  0.00663871  0.33819585  1
  Pd  Pd2  1  -0.00000323  0.99335493  0.83817689  1
  Pd  Pd3  1  0.50000038  0.00663577  0.66177042  1
  Pd  Pd4  1  0.49999901  0.98727582  0.00003764  1
  Pd  Pd5  1  0.00000124  0.01279205  0.49996676  1
  Pd  Pd6  1  0.00000201  0.60798658  0.31873588  1
  Pd  Pd7  1  0.49999886  0.39200507  0.18129858  1
  Pd  Pd8  1  0.00000317  0.60798250  0.68123300  1
  Pd  Pd9  1  0.49999927  0.39199635  0.81873424  1
  Pd  Pd10  1  0.49999898  0.51985736  0.00002617  1
  Pd  Pd11  1  -0.00000144  0.48000041  0.49996480  1
loop_
_geom_bond_atom_site_label_1
_geom_bond_atom_site_label_2
_geom_bond_distance
_geom_bond_site_symmetry_2
Pr0 Sb5 3.328822 1_555
Pr0 Sb5 3.328839 1_455
Pr0 Sb7 3.329134 1_454
Pr0 Sb7 3.329134 1_554
Pr0 Sb0 3.330199 1_555
Pr0 Sb2 3.330717 1_554
Pr1 Sb4 3.328359 1_555
Pr1 Sb4 3.328379 1_655
Pr1 Sb6 3.328700 1_655
Pr1 Sb6 3.328706 1_555
Pr1 Sb1 3.329869 1_555
Pr1 Sb3 3.330472 1_555
Pr2 Sb1 3.323922 1_555
Pr2 Sb1 3.323931 1_455
Pr2 Sb5 3.328903 1_455
Pr2 Sb5 3.328906 1_555
Pr2 Sb9 3.351045 1_455
Pr2 Sb9 3.351142 1_555
Pr3 Sb0 3.323669 1_655
Pr3 Sb0 3.323671 1_555
Pr3 Sb4 3.329249 1_655
Pr3 Sb4 3.329249 1_555
Pr3 Sb8 3.351385 1_555
Pr3 Sb8 3.351401 1_655
Pr4 Sb3 3.323690 1_555
Pr4 Sb3 3.323692 1_455
Pr4 Sb7 3.329358 1_555
Pr4 Sb7 3.329392 1_455
Pr4 Sb9 3.351024 1_455
Pr4 Sb9 3.351147 1_555
Pr5 Sb2 3.323459 1_655
Pr5 Sb2 3.323466 1_555
Pr5 Sb6 3.329667 1_555
Pr5 Sb6 3.329689 1_655
Pr5 Sb8 3.351565 1_656
Pr5 Sb8 3.351581 1_556
Pd0 Sb5 2.674468 1_565
Pd0 Sb5 2.674473 1_465
Pd0 Sb4 2.699614 1_555
Pd0 Sb8 2.700307 1_555
Pd0 Pr3 3.333861 1_455
Pd0 Pr3 3.333864 1_555
Pd0 Pr0 3.359495 1_565
Pd0 Pr2 3.431011 1_565
Pd1 Sb4 2.674413 1_545
Pd1 Sb4 2.674418 1_645
Pd1 Sb5 2.699598 1_555
Pd1 Sb9 2.700763 1_555
Pd1 Pr2 3.334084 1_655
Pd1 Pr2 3.334089 1_555
Pd1 Pr1 3.358924 1_545
Pd1 Pr3 3.431156 1_545
Pd2 Sb7 2.674310 1_565
Pd2 Sb7 2.674314 1_465
Pd2 Sb6 2.700078 1_555
Pd2 Sb8 2.700501 1_556
Pd2 Pr5 3.334126 1_455
Pd2 Pr5 3.334143 1_555
Pd2 Pr0 3.359630 1_566
Pd2 Pr4 3.431295 1_565
Pd3 Sb6 2.674287 1_545
Pd3 Sb6 2.674291 1_645
Pd3 Sb7 2.700254 1_555
Pd3 Sb9 2.700651 1_555
Pd3 Pr4 3.334128 1_655
Pd3 Pr4 3.334134 1_555
Pd3 Pr1 3.359012 1_545
Pd3 Pr5 3.431710 1_545
Pd4 Sb5 2.699982 1_565
Pd4 Sb7 2.700488 1_564
Pd4 Sb8 2.702636 1_555
Pd4 Sb8 2.702638 1_655
Pd4 Pr3 3.356899 1_555
Pd4 Pr5 3.357575 1_554
Pd4 Pr0 3.437112 1_665
Pd4 Pr0 3.437116 1_565
Pd5 Sb4 2.699984 1_545
Pd5 Sb6 2.700423 1_545
Pd5 Sb9 2.702874 1_455
Pd5 Sb9 2.702998 1_555
Pd5 Pr2 3.356429 1_555
Pd5 Pr4 3.356852 1_555
Pd5 Pr1 3.437595 1_545
Pd5 Pr1 3.437603 1_445
Pd6 Sb4 2.624998 1_555
Pd6 Sb1 2.683449 1_555
Pd6 Sb1 2.683481 1_455
Pd6 Sb0 2.726434 1_555
Pd6 Pr3 3.322762 1_555
Pd6 Pr3 3.322769 1_455
Pd6 Pr1 3.651677 1_555
Pd6 Pr1 3.651702 1_455
Pd6 Pr2 3.696002 1_555
Pd7 Sb5 2.625052 1_555
Pd7 Sb0 2.683708 1_555
Pd7 Sb0 2.683709 1_655
Pd7 Sb1 2.726389 1_555
Pd7 Pr2 3.322461 1_655
Pd7 Pr2 3.322470 1_555
Pd7 Pr0 3.651896 1_555
Pd7 Pr0 3.651906 1_655
Pd7 Pr3 3.696116 1_555
Pd8 Sb6 2.625236 1_555
Pd8 Sb3 2.683467 1_555
Pd8 Sb3 2.683497 1_455
Pd8 Sb2 2.726885 1_555
Pd8 Pr5 3.323008 1_555
Pd8 Pr5 3.323041 1_455
Pd8 Pr1 3.651919 1_555
Pd8 Pr1 3.651924 1_455
Pd8 Pr4 3.695930 1_555
Pd9 Sb7 2.625062 1_555
Pd9 Sb2 2.683701 1_655
Pd9 Sb2 2.683707 1_555
Pd9 Sb3 2.726844 1_555
Pd9 Pr4 3.322791 1_555
Pd9 Pr4 3.322804 1_655
Pd9 Pr0 3.652132 1_656
Pd9 Pr0 3.652151 1_556
Pd9 Pr5 3.696020 1_555
Pd10 Pd7 2.777091 1_555
Pd10 Pd9 2.777333 1_554
Pd10 Sb0 2.826118 1_655
Pd10 Sb0 2.826135 1_555
Pd10 Sb2 2.826499 1_554
Pd10 Sb2 2.826512 1_654
Pd10 Pr3 3.338335 1_555
Pd10 Pr5 3.338643 1_554
Pd10 Pr0 3.618102 1_655
Pd10 Pr0 3.618106 1_555
Pd11 Pd6 2.777222 1_555
Pd11 Pd8 2.777637 1_555
Pd11 Sb1 2.825879 1_455
Pd11 Sb1 2.825890 1_555
Pd11 Sb3 2.826411 1_555
Pd11 Sb3 2.826423 1_455
Pd11 Pr2 3.337173 1_555
Pd11 Pr4 3.337700 1_555
Pd11 Pr1 3.619294 1_455
Pd11 Pr1 3.619302 1_555
