# generated using pymatgen
data_Na2Li8U11(WO22)2
_symmetry_space_group_name_H-M   'P 1'
_cell_length_a   6.99560300
_cell_length_b   11.32338893
_cell_length_c   12.29864249
_cell_angle_alpha   99.02098192
_cell_angle_beta   106.27398770
_cell_angle_gamma   90.08317548
_symmetry_Int_Tables_number   1
_chemical_formula_structural   Na2Li8U11(WO22)2
_chemical_formula_sum   'Na2 Li8 U11 W2 O44'
_cell_volume   922.56267947
_cell_formula_units_Z   1
loop_
 _symmetry_equiv_pos_site_id
 _symmetry_equiv_pos_as_xyz
  1  'x, y, z'
loop_
 _atom_site_type_symbol
 _atom_site_label
 _atom_site_symmetry_multiplicity
 _atom_site_fract_x
 _atom_site_fract_y
 _atom_site_fract_z
 _atom_site_occupancy
  Na  Na0  1  0.99469900  0.69571900  0.00564400  1
  Na  Na1  1  0.00530100  0.30428100  0.99435500  1
  Li  Li0  1  0.51997800  0.13901700  0.98585700  1
  Li  Li1  1  0.79517200  0.26546300  0.49008300  1
  Li  Li2  1  0.81825900  0.57056300  0.50094300  1
  Li  Li3  1  0.26823500  0.11985900  0.48457700  1
  Li  Li4  1  0.18174100  0.42943700  0.49905700  1
  Li  Li5  1  0.20482800  0.73453700  0.50991700  1
  Li  Li6  1  0.48002200  0.86098300  0.01414300  1
  Li  Li7  1  0.73176500  0.88014100  0.51542300  1
  U  U0  1  0.29259200  0.23127500  0.26685000  1
  U  U1  1  0.22268400  0.64228200  0.75904300  1
  U  U2  1  0.69611800  0.14173800  0.72273700  1
  U  U3  1  0.30388200  0.85826200  0.27726300  1
  U  U4  1  0.19788600  0.95512500  0.72664000  1
  U  U5  1  0.77731600  0.35771800  0.24095700  1
  U  U6  1  0.21434900  0.27935000  0.74770300  1
  U  U7  1  0.78565100  0.72065000  0.25229700  1
  U  U8  1  0.50000000  0.50000000  0.00000000  1
  U  U9  1  0.70740800  0.76872500  0.73315000  1
  U  U10  1  0.80211400  0.04487500  0.27336000  1
  W  W0  1  0.28261800  0.54417400  0.27366500  1
  W  W1  1  0.71738200  0.45582600  0.72633500  1
  O  O0  1  0.35260700  0.68897300  0.91935900  1
  O  O1  1  0.64004800  0.01204500  0.12057300  1
  O  O2  1  0.71198500  0.52779400  0.17393200  1
  O  O3  1  0.65994900  0.72348700  0.09456900  1
  O  O4  1  0.64739300  0.31102700  0.08064100  1
  O  O5  1  0.26253600  0.19200400  0.11103400  1
  O  O6  1  0.29813300  0.05200500  0.30828800  1
  O  O7  1  0.73746400  0.80799600  0.88896600  1
  O  O8  1  0.95411700  0.19667400  0.22997800  1
  O  O9  1  0.47561100  0.66768000  0.27649700  1
  O  O10  1  0.30619800  0.28398500  0.42141400  1
  O  O11  1  0.70186700  0.94799500  0.69171200  1
  O  O12  1  0.64381100  0.89126100  0.31966600  1
  O  O13  1  0.69380200  0.71601500  0.57858600  1
  O  O14  1  0.35995200  0.98795500  0.87942700  1
  O  O15  1  0.47221800  0.42038200  0.27315800  1
  O  O16  1  0.91532100  0.58875800  0.78622100  1
  O  O17  1  0.08804600  0.65864100  0.21685300  1
  O  O18  1  0.03785500  0.91062600  0.57618100  1
  O  O19  1  0.71291000  0.49192800  0.93498500  1
  O  O20  1  0.89660000  0.41798700  0.39781800  1
  O  O21  1  0.04588300  0.80332600  0.77002200  1
  O  O22  1  0.66150500  0.14794200  0.56732700  1
  O  O23  1  0.09422200  0.30252900  0.59634900  1
  O  O24  1  0.03014900  0.11922000  0.74955600  1
  O  O25  1  0.28534300  0.56676700  0.42054300  1
  O  O26  1  0.08467900  0.41124200  0.21377900  1
  O  O27  1  0.72876900  0.15365800  0.88009700  1
  O  O28  1  0.96985100  0.88078000  0.25044400  1
  O  O29  1  0.90577800  0.69747100  0.40365100  1
  O  O30  1  0.96214500  0.08937400  0.42381900  1
  O  O31  1  0.27123100  0.84634200  0.11990300  1
  O  O32  1  0.34005100  0.27651300  0.90543100  1
  O  O33  1  0.10340000  0.58201300  0.60218200  1
  O  O34  1  0.91195400  0.34135900  0.78314700  1
  O  O35  1  0.71465700  0.43323300  0.57945700  1
  O  O36  1  0.28801500  0.47220600  0.82606800  1
  O  O37  1  0.35618900  0.10873900  0.68033400  1
  O  O38  1  0.33849500  0.85205800  0.43267300  1
  O  O39  1  0.28709000  0.50807200  0.06501500  1
  O  O40  1  0.63451300  0.21073500  0.30509700  1
  O  O41  1  0.52778200  0.57961800  0.72684200  1
  O  O42  1  0.36548700  0.78926500  0.69490300  1
  O  O43  1  0.52438900  0.33232000  0.72350300  1
loop_
_geom_bond_atom_site_label_1
_geom_bond_atom_site_label_2
_geom_bond_distance
_geom_bond_site_symmetry_2
Na0 O7 2.458710 1_554
Na0 O31 2.518173 1_655
Na0 O17 2.596584 1_655
Na0 O16 2.681596 1_554
Na0 O3 2.847556 1_555
Na0 O19 2.892059 1_554
Na0 O0 2.977441 1_654
Na0 O39 2.982262 1_655
Na1 O5 2.458716 1_556
Na1 O27 2.518170 1_455
Na1 O34 2.596573 1_455
Na1 O26 2.681607 1_556
Na1 O32 2.847549 1_555
Na1 O39 2.892059 1_556
Na1 O4 2.977448 1_456
Na1 O19 2.982260 1_455
Li0 O14 2.088908 1_545
Li0 O4 2.155843 1_556
Li0 O32 2.185758 1_555
Li0 O27 2.232583 1_555
Li0 O1 2.342707 1_556
Li1 O22 2.106758 1_555
Li1 O23 2.133983 1_655
Li1 O35 2.197652 1_555
Li1 O40 2.223947 1_555
Li1 O20 2.415821 1_555
Li1 O30 2.456624 1_555
Li2 O33 2.025509 1_655
Li2 O13 2.087928 1_555
Li2 O20 2.144520 1_555
Li2 O35 2.176162 1_555
Li2 O29 2.195201 1_555
Li3 O30 2.069498 1_455
Li3 O10 2.166745 1_555
Li3 O6 2.251008 1_555
Li3 O37 2.335758 1_555
Li4 O20 2.025509 1_455
Li4 O10 2.087928 1_555
Li4 O33 2.144520 1_555
Li4 O25 2.176162 1_555
Li4 O23 2.195201 1_555
Li5 O38 2.106758 1_555
Li5 O29 2.133983 1_455
Li5 O25 2.197652 1_555
Li5 O42 2.223947 1_555
Li5 O33 2.415821 1_555
Li5 O18 2.456624 1_555
Li6 O1 2.088908 1_565
Li6 O0 2.155843 1_554
Li6 O3 2.185758 1_555
Li6 O31 2.232583 1_555
Li6 O14 2.342707 1_554
Li7 O18 2.069498 1_655
Li7 O13 2.166745 1_555
Li7 O11 2.251008 1_555
Li7 O12 2.335758 1_555
O0 U1 1.913225 1_555
O0 U8 2.593140 1_556
O1 U10 1.881545 1_555
O2 U8 2.209909 1_555
O2 U5 2.210533 1_555
O2 U7 2.240918 1_555
O3 U7 1.897595 1_555
O3 U8 2.710764 1_555
O4 U5 1.913225 1_555
O4 U8 2.593140 1_555
O5 U0 1.849575 1_555
O6 U0 2.166904 1_555
O6 U3 2.169433 1_545
O7 U9 1.849575 1_555
O8 U5 2.212758 1_555
O8 U10 2.229392 1_555
O8 U0 2.303386 1_655
O9 W0 1.932019 1_555
O9 U7 2.359352 1_555
O9 U3 2.471423 1_555
O10 U0 1.876554 1_555
O11 U9 2.166904 1_555
O11 U2 2.169433 1_565
O12 U10 2.287983 1_565
O12 U3 2.303861 1_555
O12 U7 2.316822 1_555
O13 U9 1.876554 1_555
O14 U4 1.881545 1_555
O15 W0 1.931701 1_555
O15 U5 2.367650 1_555
O15 U0 2.460854 1_555
O16 W1 1.949437 1_555
O16 U1 2.359007 1_655
O16 U9 2.566699 1_555
O17 W0 1.943459 1_555
O17 U7 2.362893 1_455
O17 U3 2.603050 1_555
O18 U4 1.864473 1_555
O19 U8 1.873787 1_556
O20 U5 1.888657 1_555
O21 U1 2.212758 1_555
O21 U4 2.229392 1_555
O21 U9 2.303386 1_455
O22 U2 1.870702 1_555
O23 U6 1.875423 1_555
O24 U4 2.221798 1_545
O24 U6 2.229655 1_555
O24 U2 2.286991 1_455
O25 W0 1.778949 1_555
O26 W0 1.949437 1_555
O26 U5 2.359007 1_455
O26 U0 2.566699 1_555
O27 U2 1.867103 1_555
O28 U10 2.221798 1_565
O28 U7 2.229655 1_555
O28 U3 2.286991 1_655
O29 U7 1.875423 1_555
O30 U10 1.864473 1_555
O31 U3 1.867103 1_555
O32 U6 1.897595 1_555
O32 U8 2.710764 1_556
O33 U1 1.888657 1_555
O34 W1 1.943459 1_555
O34 U6 2.362893 1_655
O34 U2 2.603050 1_555
O35 W1 1.778949 1_555
O36 U8 2.209909 1_556
O36 U1 2.210533 1_555
O36 U6 2.240918 1_555
O37 U4 2.287983 1_545
O37 U2 2.303861 1_555
O37 U6 2.316822 1_555
O38 U3 1.870702 1_555
O39 U8 1.873787 1_555
O40 U10 2.255502 1_555
O40 U5 2.288853 1_555
O40 U0 2.324237 1_555
O41 W1 1.931701 1_555
O41 U1 2.367650 1_555
O41 U9 2.460854 1_555
O42 U4 2.255502 1_555
O42 U1 2.288853 1_555
O42 U9 2.324237 1_555
O43 W1 1.932019 1_555
O43 U6 2.359352 1_555
O43 U2 2.471423 1_555
