# generated using pymatgen
data_Hf3(Bi5Cl9)2
_symmetry_space_group_name_H-M   'P 1'
_cell_length_a   14.23279745
_cell_length_b   14.23279745
_cell_length_c   11.16521000
_cell_angle_alpha   90.00000000
_cell_angle_beta   90.00000000
_cell_angle_gamma   119.99999744
_symmetry_Int_Tables_number   1
_chemical_formula_structural   Hf3(Bi5Cl9)2
_chemical_formula_sum   'Hf6 Bi20 Cl36'
_cell_volume   1958.74579206
_cell_formula_units_Z   2
loop_
 _symmetry_equiv_pos_site_id
 _symmetry_equiv_pos_as_xyz
  1  'x, y, z'
loop_
 _atom_site_type_symbol
 _atom_site_label
 _atom_site_symmetry_multiplicity
 _atom_site_fract_x
 _atom_site_fract_y
 _atom_site_fract_z
 _atom_site_occupancy
  Hf  Hf0  1  0.22376800  0.89155500  0.24351300  1
  Hf  Hf1  1  0.10844500  0.33221400  0.24351300  1
  Hf  Hf2  1  0.33221400  0.22376800  0.74351300  1
  Hf  Hf3  1  0.66778600  0.77623200  0.24351300  1
  Hf  Hf4  1  0.89155500  0.66778600  0.74351300  1
  Hf  Hf5  1  0.77623200  0.10844500  0.74351300  1
  Bi  Bi0  1  0.00000000  0.00000000  0.88118100  1
  Bi  Bi1  1  0.22509400  0.70256200  0.57005300  1
  Bi  Bi2  1  0.22226100  0.70091300  0.92601500  1
  Bi  Bi3  1  0.12012200  0.50322000  0.75068400  1
  Bi  Bi4  1  0.38309800  0.87987800  0.75068400  1
  Bi  Bi5  1  0.00000000  0.00000000  0.38118100  1
  Bi  Bi6  1  0.29908700  0.52134800  0.92601500  1
  Bi  Bi7  1  0.29743800  0.52253200  0.57005300  1
  Bi  Bi8  1  0.47865200  0.77773900  0.92601500  1
  Bi  Bi9  1  0.47746800  0.77490600  0.57005300  1
  Bi  Bi10  1  0.49678000  0.61690200  0.75068400  1
  Bi  Bi11  1  0.50322000  0.38309800  0.25068400  1
  Bi  Bi12  1  0.52253200  0.22509400  0.07005300  1
  Bi  Bi13  1  0.52134800  0.22226100  0.42601500  1
  Bi  Bi14  1  0.70091300  0.47865200  0.42601500  1
  Bi  Bi15  1  0.70256200  0.47746800  0.07005300  1
  Bi  Bi16  1  0.61690200  0.12012200  0.25068400  1
  Bi  Bi17  1  0.87987800  0.49678000  0.25068400  1
  Bi  Bi18  1  0.77490600  0.29743800  0.07005300  1
  Bi  Bi19  1  0.77773900  0.29908700  0.42601500  1
  Cl  Cl0  1  0.07986300  0.81224900  0.74040200  1
  Cl  Cl1  1  0.09168100  0.83532600  0.08817100  1
  Cl  Cl2  1  0.07726200  0.85819500  0.39767100  1
  Cl  Cl3  1  0.07027100  0.43838800  0.09740900  1
  Cl  Cl4  1  0.06354300  0.41903500  0.41481800  1
  Cl  Cl5  1  0.17791900  0.70269300  0.27617100  1
  Cl  Cl6  1  0.36811600  0.92972900  0.09740900  1
  Cl  Cl7  1  0.35549200  0.93645700  0.41481800  1
  Cl  Cl8  1  0.16467400  0.25635500  0.08817100  1
  Cl  Cl9  1  0.14180500  0.21906700  0.39767100  1
  Cl  Cl10  1  0.29730700  0.47522600  0.27617100  1
  Cl  Cl11  1  0.18775100  0.26761500  0.74040200  1
  Cl  Cl12  1  0.52477400  0.82208100  0.27617100  1
  Cl  Cl13  1  0.25635500  0.09168100  0.58817100  1
  Cl  Cl14  1  0.21906700  0.07726200  0.89767100  1
  Cl  Cl15  1  0.26761500  0.07986300  0.24040200  1
  Cl  Cl16  1  0.56161200  0.63188400  0.09740900  1
  Cl  Cl17  1  0.58096500  0.64450800  0.41481800  1
  Cl  Cl18  1  0.43838800  0.36811600  0.59740900  1
  Cl  Cl19  1  0.41903500  0.35549200  0.91481800  1
  Cl  Cl20  1  0.73238500  0.92013700  0.74040200  1
  Cl  Cl21  1  0.74364500  0.90831900  0.08817100  1
  Cl  Cl22  1  0.78093300  0.92273800  0.39767100  1
  Cl  Cl23  1  0.47522600  0.17791900  0.77617100  1
  Cl  Cl24  1  0.81224900  0.73238500  0.24040200  1
  Cl  Cl25  1  0.70269300  0.52477400  0.77617100  1
  Cl  Cl26  1  0.83532600  0.74364500  0.58817100  1
  Cl  Cl27  1  0.85819500  0.78093300  0.89767100  1
  Cl  Cl28  1  0.63188400  0.07027100  0.59740900  1
  Cl  Cl29  1  0.64450800  0.06354300  0.91481800  1
  Cl  Cl30  1  0.82208100  0.29730700  0.77617100  1
  Cl  Cl31  1  0.92972900  0.56161200  0.59740900  1
  Cl  Cl32  1  0.93645700  0.58096500  0.91481800  1
  Cl  Cl33  1  0.90831900  0.16467400  0.58817100  1
  Cl  Cl34  1  0.92273800  0.14180500  0.89767100  1
  Cl  Cl35  1  0.92013700  0.18775100  0.24040200  1
loop_
_geom_bond_atom_site_label_1
_geom_bond_atom_site_label_2
_geom_bond_distance
_geom_bond_site_symmetry_2
Bi0 Cl34 2.745180 1_455
Bi0 Cl14 2.745180 1_555
Bi0 Cl27 2.745180 1_445
Bi1 Bi4 3.133427 1_555
Bi1 Bi3 3.179679 1_555
Bi2 Bi4 3.119244 1_555
Bi2 Bi3 3.126053 1_555
Bi2 Bi6 3.243738 1_555
Bi2 Bi8 3.243738 1_555
Bi3 Bi6 3.119244 1_555
Bi3 Bi7 3.133427 1_555
Bi4 Bi8 3.126053 1_555
Bi4 Bi9 3.179679 1_555
Bi5 Cl2 2.745180 1_545
Bi5 Cl22 2.745180 1_445
Bi5 Cl9 2.745180 1_555
Bi6 Bi8 3.243738 1_555
Bi10 Bi8 3.119244 1_555
Bi10 Bi6 3.126053 1_555
Bi10 Bi9 3.133427 1_555
Bi10 Bi7 3.179679 1_555
Bi11 Bi13 3.119244 1_555
Bi11 Bi14 3.126053 1_555
Bi11 Bi12 3.133427 1_555
Bi11 Bi15 3.179679 1_555
Bi12 Bi16 3.179679 1_555
Bi13 Bi16 3.126053 1_555
Bi13 Bi19 3.243738 1_555
Bi13 Bi14 3.243738 1_555
Bi14 Bi17 3.119244 1_555
Bi14 Bi19 3.243738 1_555
Bi15 Bi17 3.133427 1_555
Bi16 Bi19 3.119244 1_555
Bi16 Bi18 3.133427 1_555
Bi17 Bi19 3.126053 1_555
Bi17 Bi18 3.179679 1_555
Cl0 Hf4 2.429263 1_455
Cl1 Hf0 2.382951 1_555
Cl2 Hf0 2.558505 1_555
Cl3 Hf1 2.461891 1_555
Cl4 Hf1 2.526532 1_555
Cl5 Hf0 2.455650 1_555
Cl6 Hf0 2.461891 1_555
Cl7 Hf0 2.526541 1_555
Cl8 Hf1 2.382960 1_555
Cl9 Hf1 2.558516 1_555
Cl10 Hf1 2.455646 1_555
Cl11 Hf2 2.429282 1_555
Cl12 Hf3 2.455637 1_555
Cl13 Hf2 2.382952 1_555
Cl14 Hf2 2.558509 1_555
Cl15 Hf0 2.429255 1_545
Cl16 Hf3 2.461891 1_555
Cl17 Hf3 2.526539 1_555
Cl18 Hf2 2.461891 1_555
Cl19 Hf2 2.526539 1_555
Cl20 Hf5 2.429255 1_565
Cl21 Hf3 2.382952 1_555
Cl22 Hf3 2.558509 1_555
Cl23 Hf2 2.455637 1_555
Cl24 Hf3 2.429282 1_555
Cl25 Hf4 2.455646 1_555
Cl26 Hf4 2.382960 1_555
Cl27 Hf4 2.558516 1_555
Cl28 Hf5 2.461891 1_555
Cl29 Hf5 2.526541 1_555
Cl30 Hf5 2.455650 1_555
Cl31 Hf4 2.461891 1_555
Cl32 Hf4 2.526532 1_555
Cl33 Hf5 2.382951 1_555
Cl34 Hf5 2.558505 1_555
Cl35 Hf1 2.429263 1_655
