# generated using pymatgen
data_CaH8(NO5)2
_symmetry_space_group_name_H-M   'P 1'
_cell_length_a   9.30410300
_cell_length_b   6.31041500
_cell_length_c   15.05329644
_cell_angle_alpha   72.98156301
_cell_angle_beta   90.00000000
_cell_angle_gamma   90.00000000
_symmetry_Int_Tables_number   1
_chemical_formula_structural   CaH8(NO5)2
_chemical_formula_sum   'Ca4 H32 N8 O40'
_cell_volume   845.11850276
_cell_formula_units_Z   4
loop_
 _symmetry_equiv_pos_site_id
 _symmetry_equiv_pos_as_xyz
  1  'x, y, z'
loop_
 _atom_site_type_symbol
 _atom_site_label
 _atom_site_symmetry_multiplicity
 _atom_site_fract_x
 _atom_site_fract_y
 _atom_site_fract_z
 _atom_site_occupancy
  Ca  Ca0  1  0.40509400  0.81601500  0.63514100  1
  Ca  Ca1  1  0.09490600  0.81601500  0.13514100  1
  Ca  Ca2  1  0.59490600  0.18398500  0.36485900  1
  Ca  Ca3  1  0.90509400  0.18398500  0.86485900  1
  H  H0  1  0.28702500  0.24307600  0.11195800  1
  H  H1  1  0.36668200  0.53309500  0.15030800  1
  H  H2  1  0.62794200  0.91727300  0.93103700  1
  H  H3  1  0.61360500  0.90475400  0.23478500  1
  H  H4  1  0.11360500  0.09524600  0.26521500  1
  H  H5  1  0.58337100  0.58766000  0.52035000  1
  H  H6  1  0.67699900  0.35992400  0.95356300  1
  H  H7  1  0.38408000  0.53587800  0.37489200  1
  H  H8  1  0.37205800  0.08272700  0.06896300  1
  H  H9  1  0.88408000  0.46412200  0.12510800  1
  H  H10  1  0.12794200  0.08272700  0.56896300  1
  H  H11  1  0.44984900  0.96557700  0.23660300  1
  H  H12  1  0.32300100  0.64007600  0.04643700  1
  H  H13  1  0.21297500  0.24307600  0.61195800  1
  H  H14  1  0.86668200  0.46690500  0.34969200  1
  H  H15  1  0.11592000  0.53587800  0.87489200  1
  H  H16  1  0.78702500  0.75692400  0.38804200  1
  H  H17  1  0.87205800  0.91727300  0.43103700  1
  H  H18  1  0.71297500  0.75692400  0.88804200  1
  H  H19  1  0.91662900  0.58766000  0.02035000  1
  H  H20  1  0.88639500  0.90475400  0.73478500  1
  H  H21  1  0.82300100  0.35992400  0.45356300  1
  H  H22  1  0.63331800  0.46690500  0.84969200  1
  H  H23  1  0.55015100  0.03442300  0.76339700  1
  H  H24  1  0.94984900  0.03442300  0.26339700  1
  H  H25  1  0.08337100  0.41234000  0.97965000  1
  H  H26  1  0.41662900  0.41234000  0.47965000  1
  H  H27  1  0.05015100  0.96557700  0.73660300  1
  H  H28  1  0.61592000  0.46412200  0.62510800  1
  H  H29  1  0.17699900  0.64007600  0.54643700  1
  H  H30  1  0.13331800  0.53309500  0.65030800  1
  H  H31  1  0.38639500  0.09524600  0.76521500  1
  N  N0  1  0.37483200  0.54623500  0.83563500  1
  N  N1  1  0.87483200  0.45376500  0.66436500  1
  N  N2  1  0.62516800  0.45376500  0.16436500  1
  N  N3  1  0.73529300  0.99843200  0.58860800  1
  N  N4  1  0.76470700  0.99843200  0.08860800  1
  N  N5  1  0.26470700  0.00156800  0.41139200  1
  N  N6  1  0.12516800  0.54623500  0.33563500  1
  N  N7  1  0.23529300  0.00156800  0.91139200  1
  O  O0  1  0.64699000  0.07912800  0.05333100  1
  O  O1  1  0.46236100  0.05906200  0.72600100  1
  O  O2  1  0.38087500  0.45061300  0.92026400  1
  O  O3  1  0.95731300  0.55383000  0.08257900  1
  O  O4  1  0.72710000  0.87279700  0.67073000  1
  O  O5  1  0.71746500  0.44257200  0.89275700  1
  O  O6  1  0.35301000  0.92087200  0.94666900  1
  O  O7  1  0.19916600  0.08451500  0.61651200  1
  O  O8  1  0.23710700  0.65007200  0.29699600  1
  O  O9  1  0.53763900  0.94093800  0.27399900  1
  O  O10  1  0.78253500  0.44257200  0.39275700  1
  O  O11  1  0.54268700  0.55383000  0.58257900  1
  O  O12  1  0.11894600  0.95739700  0.95946800  1
  O  O13  1  0.85301000  0.07912800  0.55333100  1
  O  O14  1  0.11912500  0.45061300  0.42026400  1
  O  O15  1  0.04268700  0.44617000  0.91742100  1
  O  O16  1  0.01682600  0.54611700  0.28222400  1
  O  O17  1  0.26289300  0.65007200  0.79699600  1
  O  O18  1  0.38105400  0.95739700  0.45946800  1
  O  O19  1  0.14699000  0.92087200  0.44666900  1
  O  O20  1  0.03763900  0.05906200  0.22600100  1
  O  O21  1  0.61912500  0.54938700  0.07973600  1
  O  O22  1  0.76289300  0.34992800  0.70300400  1
  O  O23  1  0.96236100  0.94093800  0.77399900  1
  O  O24  1  0.69916600  0.91548500  0.88348800  1
  O  O25  1  0.88087500  0.54938700  0.57973600  1
  O  O26  1  0.30083400  0.08451500  0.11651200  1
  O  O27  1  0.88105400  0.04260300  0.04053200  1
  O  O28  1  0.77290000  0.87279700  0.17073000  1
  O  O29  1  0.28253500  0.55742800  0.10724300  1
  O  O30  1  0.45731300  0.44617000  0.41742100  1
  O  O31  1  0.51682600  0.45388300  0.21777600  1
  O  O32  1  0.48317400  0.54611700  0.78222400  1
  O  O33  1  0.21746500  0.55742800  0.60724300  1
  O  O34  1  0.22710000  0.12720300  0.82927000  1
  O  O35  1  0.98317400  0.45388300  0.71777600  1
  O  O36  1  0.73710700  0.34992800  0.20300400  1
  O  O37  1  0.27290000  0.12720300  0.32927000  1
  O  O38  1  0.61894600  0.04260300  0.54053200  1
  O  O39  1  0.80083400  0.91548500  0.38348800  1
loop_
_geom_bond_atom_site_label_1
_geom_bond_atom_site_label_2
_geom_bond_distance
_geom_bond_site_symmetry_2
Ca0 O1 2.394758 1_565
Ca0 O11 2.401781 1_555
Ca0 O32 2.474538 1_555
Ca0 O33 2.507544 1_555
Ca0 O7 2.518389 1_565
Ca0 O18 2.541282 1_555
Ca0 O38 2.615280 1_565
Ca0 O17 2.699973 1_555
Ca1 O20 2.394758 1_565
Ca1 O3 2.401781 1_455
Ca1 O16 2.474538 1_555
Ca1 O29 2.507544 1_555
Ca1 O26 2.518389 1_565
Ca1 O12 2.541282 1_554
Ca1 O27 2.615280 1_465
Ca1 O8 2.699973 1_555
Ca2 O9 2.394758 1_545
Ca2 O30 2.401781 1_555
Ca2 O31 2.474538 1_555
Ca2 O10 2.507544 1_555
Ca2 O39 2.518389 1_545
Ca2 O38 2.541282 1_555
Ca2 O18 2.615280 1_545
Ca2 O36 2.699973 1_555
Ca3 O23 2.394758 1_545
Ca3 O15 2.401781 1_655
Ca3 O35 2.474538 1_555
Ca3 O5 2.507544 1_555
Ca3 O24 2.518389 1_545
Ca3 O27 2.541282 1_556
Ca3 O12 2.615280 1_645
Ca3 O22 2.699973 1_555
H0 O26 0.991074 1_555
H1 O29 0.999258 1_555
H1 O31 1.713375 1_555
H2 O24 0.977916 1_555
H3 O9 0.989470 1_555
H4 O20 0.989470 1_555
H5 O11 0.974321 1_555
H6 O5 0.985976 1_555
H7 O30 0.991181 1_555
H8 O26 0.977916 1_555
H9 O3 0.991181 1_555
H10 O7 0.977916 1_555
H11 O9 0.978268 1_555
H12 O29 0.985976 1_555
H13 O7 0.991074 1_555
H14 O10 0.999258 1_555
H14 O16 1.713375 1_655
H15 O15 0.991181 1_555
H16 O39 0.991074 1_555
H17 O39 0.977916 1_555
H18 O24 0.991074 1_555
H19 O3 0.974321 1_555
H20 O23 0.989470 1_555
H21 O10 0.985976 1_555
H22 O5 0.999258 1_555
H22 O32 1.713375 1_555
H23 O1 0.978268 1_555
H24 O20 0.978268 1_655
H25 O15 0.974321 1_555
H26 O30 0.974321 1_555
H27 O23 0.978268 1_455
H28 O11 0.991181 1_555
H29 O33 0.985976 1_555
H30 O33 0.999258 1_555
H30 O35 1.713375 1_455
H31 O1 0.989470 1_555
N0 O2 1.241061 1_555
N0 O17 1.276432 1_555
N0 O32 1.289535 1_555
N1 O25 1.241061 1_555
N1 O22 1.276432 1_555
N1 O35 1.289535 1_555
N2 O21 1.241061 1_555
N2 O36 1.276432 1_555
N2 O31 1.289535 1_555
N3 O13 1.258012 1_565
N3 O4 1.260503 1_555
N3 O38 1.286536 1_565
N4 O0 1.258012 1_565
N4 O28 1.260503 1_555
N4 O27 1.286536 1_565
N5 O19 1.258012 1_545
N5 O37 1.260503 1_555
N5 O18 1.286536 1_545
N6 O14 1.241061 1_555
N6 O8 1.276432 1_555
N6 O16 1.289535 1_555
N7 O6 1.258012 1_545
N7 O34 1.260503 1_555
N7 O12 1.286536 1_545
