# generated using pymatgen
data_Ca3Mg(SiO4)2
_symmetry_space_group_name_H-M   'P 1'
_cell_length_a   5.26933700
_cell_length_b   9.96782500
_cell_length_c   13.67008202
_cell_angle_alpha   82.28048542
_cell_angle_beta   90.00000000
_cell_angle_gamma   90.00000000
_symmetry_Int_Tables_number   1
_chemical_formula_structural   Ca3Mg(SiO4)2
_chemical_formula_sum   'Ca12 Mg4 Si8 O32'
_cell_volume   711.49813594
_cell_formula_units_Z   4
loop_
 _symmetry_equiv_pos_site_id
 _symmetry_equiv_pos_as_xyz
  1  'x, y, z'
loop_
 _atom_site_type_symbol
 _atom_site_label
 _atom_site_symmetry_multiplicity
 _atom_site_fract_x
 _atom_site_fract_y
 _atom_site_fract_z
 _atom_site_occupancy
  Ca  Ca0  1  0.25898100  0.92884900  0.40461700  1
  Ca  Ca1  1  0.24740400  0.26117500  0.97781300  1
  Ca  Ca2  1  0.26887900  0.52416500  0.62145100  1
  Ca  Ca3  1  0.23112100  0.52416500  0.12145100  1
  Ca  Ca4  1  0.76887900  0.47583500  0.87854900  1
  Ca  Ca5  1  0.74740400  0.73882500  0.52218700  1
  Ca  Ca6  1  0.75898100  0.07115100  0.09538300  1
  Ca  Ca7  1  0.24101900  0.92884900  0.90461700  1
  Ca  Ca8  1  0.73112100  0.47583500  0.37854900  1
  Ca  Ca9  1  0.74101900  0.07115100  0.59538300  1
  Ca  Ca10  1  0.25259600  0.26117500  0.47781300  1
  Ca  Ca11  1  0.75259600  0.73882500  0.02218700  1
  Mg  Mg0  1  0.73317500  0.82823900  0.78829800  1
  Mg  Mg1  1  0.76682500  0.82823900  0.28829800  1
  Mg  Mg2  1  0.26682500  0.17176100  0.21170200  1
  Mg  Mg3  1  0.23317500  0.17176100  0.71170200  1
  Si  Si0  1  0.78831600  0.11006200  0.36220000  1
  Si  Si1  1  0.72992600  0.37565100  0.64021800  1
  Si  Si2  1  0.71168400  0.11006200  0.86220000  1
  Si  Si3  1  0.21168400  0.88993800  0.63780000  1
  Si  Si4  1  0.77007400  0.37565100  0.14021800  1
  Si  Si5  1  0.22992600  0.62434900  0.85978200  1
  Si  Si6  1  0.27007400  0.62434900  0.35978200  1
  Si  Si7  1  0.28831600  0.88993800  0.13780000  1
  O  O0  1  0.98387500  0.68897800  0.36782300  1
  O  O1  1  0.59274500  0.85299900  0.15747600  1
  O  O2  1  0.82452300  0.22099100  0.92961000  1
  O  O3  1  0.61849100  0.42769300  0.73872500  1
  O  O4  1  0.38150900  0.57230700  0.26127500  1
  O  O5  1  0.48290200  0.74065400  0.38196400  1
  O  O6  1  0.20862400  0.04291400  0.56822000  1
  O  O7  1  0.51612500  0.68897800  0.86782300  1
  O  O8  1  0.01709800  0.74065400  0.88196400  1
  O  O9  1  0.22784100  0.48944100  0.94541100  1
  O  O10  1  0.17547700  0.77900900  0.07039000  1
  O  O11  1  0.10823700  0.91923300  0.23115200  1
  O  O12  1  0.70862400  0.95708600  0.93178000  1
  O  O13  1  0.90725500  0.85299900  0.65747600  1
  O  O14  1  0.48387500  0.31102200  0.13217700  1
  O  O15  1  0.29137600  0.04291400  0.06822000  1
  O  O16  1  0.79137600  0.95708600  0.43178000  1
  O  O17  1  0.51709800  0.25934600  0.61803600  1
  O  O18  1  0.27215900  0.48944100  0.44541100  1
  O  O19  1  0.60823700  0.08076700  0.26884800  1
  O  O20  1  0.39176300  0.91923300  0.73115200  1
  O  O21  1  0.09274500  0.14700100  0.34252400  1
  O  O22  1  0.40725500  0.14700100  0.84252400  1
  O  O23  1  0.88150900  0.42769300  0.23872500  1
  O  O24  1  0.77215900  0.51055900  0.05458900  1
  O  O25  1  0.01612500  0.31102200  0.63217700  1
  O  O26  1  0.67547700  0.22099100  0.42961000  1
  O  O27  1  0.11849100  0.57230700  0.76127500  1
  O  O28  1  0.98290200  0.25934600  0.11803600  1
  O  O29  1  0.89176300  0.08076700  0.76884800  1
  O  O30  1  0.72784100  0.51055900  0.55458900  1
  O  O31  1  0.32452300  0.77900900  0.57039000  1
loop_
_geom_bond_atom_site_label_1
_geom_bond_atom_site_label_2
_geom_bond_distance
_geom_bond_site_symmetry_2
Ca0 O5 2.272253 1_555
Ca0 O21 2.391732 1_565
Ca0 O16 2.513228 1_455
Ca0 O11 2.514789 1_555
Ca0 O31 2.564396 1_555
Ca0 O6 2.654814 1_565
Ca0 O16 2.848731 1_555
Ca0 O19 2.893020 1_565
Ca0 O0 2.897296 1_455
Ca1 O9 2.261224 1_555
Ca1 O15 2.364724 1_556
Ca1 O28 2.368087 1_456
Ca1 O2 2.372947 1_455
Ca1 O22 2.447537 1_555
Ca1 O14 2.556166 1_556
Ca2 O27 2.181313 1_555
Ca2 O18 2.476897 1_555
Ca2 O25 2.495081 1_555
Ca2 O3 2.544488 1_555
Ca2 O31 2.559232 1_555
Ca2 O30 2.595359 1_555
Ca2 O30 3.002466 1_455
Ca3 O4 2.181313 1_555
Ca3 O9 2.476897 1_554
Ca3 O14 2.495081 1_555
Ca3 O23 2.544488 1_455
Ca3 O10 2.559232 1_555
Ca3 O24 2.595359 1_455
Ca3 O24 3.002466 1_555
Ca4 O3 2.181313 1_555
Ca4 O24 2.476897 1_556
Ca4 O7 2.495081 1_555
Ca4 O27 2.544488 1_655
Ca4 O2 2.559232 1_555
Ca4 O9 2.595359 1_655
Ca4 O9 3.002466 1_555
Ca5 O30 2.261224 1_555
Ca5 O16 2.364724 1_555
Ca5 O5 2.368087 1_555
Ca5 O31 2.372947 1_555
Ca5 O13 2.447537 1_555
Ca5 O0 2.556166 1_555
Ca6 O28 2.272253 1_555
Ca6 O1 2.391732 1_545
Ca6 O15 2.513228 1_555
Ca6 O19 2.514789 1_555
Ca6 O2 2.564396 1_554
Ca6 O12 2.654814 1_544
Ca6 O15 2.848731 1_655
Ca6 O11 2.893020 1_645
Ca6 O14 2.897296 1_555
Ca7 O8 2.272253 1_555
Ca7 O22 2.391732 1_565
Ca7 O12 2.513228 1_555
Ca7 O20 2.514789 1_555
Ca7 O10 2.564396 1_556
Ca7 O15 2.654814 1_566
Ca7 O12 2.848731 1_455
Ca7 O29 2.893020 1_465
Ca7 O7 2.897296 1_555
Ca8 O23 2.181313 1_555
Ca8 O30 2.476897 1_555
Ca8 O0 2.495081 1_555
Ca8 O4 2.544488 1_555
Ca8 O26 2.559232 1_555
Ca8 O18 2.595359 1_555
Ca8 O18 3.002466 1_655
Ca9 O17 2.272253 1_555
Ca9 O13 2.391732 1_545
Ca9 O6 2.513228 1_655
Ca9 O29 2.514789 1_555
Ca9 O26 2.564396 1_555
Ca9 O16 2.654814 1_545
Ca9 O6 2.848731 1_555
Ca9 O20 2.893020 1_545
Ca9 O25 2.897296 1_655
Ca10 O18 2.261224 1_555
Ca10 O6 2.364724 1_555
Ca10 O17 2.368087 1_555
Ca10 O26 2.372947 1_555
Ca10 O21 2.447537 1_555
Ca10 O25 2.556166 1_555
Ca11 O24 2.261224 1_555
Ca11 O12 2.364724 1_554
Ca11 O8 2.368087 1_654
Ca11 O10 2.372947 1_655
Ca11 O1 2.447537 1_555
Ca11 O7 2.556166 1_554
Mg0 O13 1.995480 1_555
Mg0 O7 2.002845 1_555
Mg0 O8 2.083178 1_655
Mg0 O20 2.116373 1_555
Mg0 O12 2.487992 1_555
Mg0 O29 2.631593 1_565
Mg1 O1 1.995480 1_555
Mg1 O0 2.002845 1_555
Mg1 O5 2.083178 1_555
Mg1 O11 2.116373 1_655
Mg1 O16 2.487992 1_555
Mg1 O19 2.631593 1_565
Mg2 O21 1.995480 1_555
Mg2 O14 2.002845 1_555
Mg2 O28 2.083178 1_455
Mg2 O19 2.116373 1_555
Mg2 O15 2.487992 1_555
Mg2 O11 2.631593 1_545
Mg3 O22 1.995480 1_555
Mg3 O25 2.002845 1_555
Mg3 O17 2.083178 1_555
Mg3 O29 2.116373 1_455
Mg3 O6 2.487992 1_555
Mg3 O20 2.631593 1_545
O0 Si6 1.649368 1_655
O1 Si7 1.659691 1_555
O2 Si2 1.642877 1_555
O3 Si1 1.617058 1_555
O4 Si6 1.617058 1_555
O5 Si6 1.669749 1_555
O6 Si3 1.685368 1_545
O7 Si5 1.649368 1_555
O8 Si5 1.669749 1_555
O9 Si5 1.660051 1_555
O10 Si7 1.642877 1_555
O11 Si7 1.647510 1_555
O12 Si2 1.685368 1_565
O13 Si3 1.659691 1_655
O14 Si4 1.649368 1_555
O15 Si7 1.685368 1_545
O16 Si0 1.685368 1_565
O17 Si1 1.669749 1_555
O18 Si6 1.660051 1_555
O19 Si0 1.647510 1_555
O20 Si3 1.647510 1_555
O21 Si0 1.659691 1_455
O22 Si2 1.659691 1_555
O23 Si4 1.617058 1_555
O24 Si4 1.660051 1_555
O25 Si1 1.649368 1_455
O26 Si0 1.642877 1_555
O27 Si5 1.617058 1_555
O28 Si4 1.669749 1_555
O29 Si2 1.647510 1_555
O30 Si1 1.660051 1_555
O31 Si3 1.642877 1_555
