# generated using pymatgen
data_Ca5Pb3
_symmetry_space_group_name_H-M   'P 1'
_cell_length_a   16.44440210
_cell_length_b   16.44440210
_cell_length_c   6.91977800
_cell_angle_alpha   90.00000000
_cell_angle_beta   90.00000000
_cell_angle_gamma   120.00000041
_symmetry_Int_Tables_number   1
_chemical_formula_structural   Ca5Pb3
_chemical_formula_sum   'Ca30 Pb18'
_cell_volume   1620.53705859
_cell_formula_units_Z   6
loop_
 _symmetry_equiv_pos_site_id
 _symmetry_equiv_pos_as_xyz
  1  'x, y, z'
loop_
 _atom_site_type_symbol
 _atom_site_label
 _atom_site_symmetry_multiplicity
 _atom_site_fract_x
 _atom_site_fract_y
 _atom_site_fract_z
 _atom_site_occupancy
  Ca  Ca0  1  0.48844900  0.24422500  0.25685100  1
  Ca  Ca1  1  0.08935900  0.91064100  0.25586200  1
  Ca  Ca2  1  0.00230300  0.66737100  0.00932700  1
  Ca  Ca3  1  0.84594700  0.42297300  0.76560100  1
  Ca  Ca4  1  0.24422500  0.75577500  0.75685100  1
  Ca  Ca5  1  0.42297300  0.57702700  0.26560100  1
  Ca  Ca6  1  0.57702700  0.15405300  0.76560100  1
  Ca  Ca7  1  0.66737100  0.66506800  0.50932700  1
  Ca  Ca8  1  0.75577500  0.51155100  0.25685100  1
  Ca  Ca9  1  0.08935900  0.17871800  0.25586200  1
  Ca  Ca10  1  0.24422500  0.48844900  0.75685100  1
  Ca  Ca11  1  0.57702700  0.42297300  0.76560100  1
  Ca  Ca12  1  0.33493200  0.33262900  0.50932700  1
  Ca  Ca13  1  0.00230300  0.33493200  0.00932700  1
  Ca  Ca14  1  0.66506800  0.99769700  0.00932700  1
  Ca  Ca15  1  0.99769700  0.66506800  0.50932700  1
  Ca  Ca16  1  0.42297300  0.84594700  0.26560100  1
  Ca  Ca17  1  0.33262900  0.33493200  0.00932700  1
  Ca  Ca18  1  0.15405300  0.57702700  0.26560100  1
  Ca  Ca19  1  0.82128200  0.91064100  0.25586200  1
  Ca  Ca20  1  0.99769700  0.33262900  0.50932700  1
  Ca  Ca21  1  0.33262900  0.99769700  0.00932700  1
  Ca  Ca22  1  0.91064100  0.08935900  0.75586200  1
  Ca  Ca23  1  0.75577500  0.24422500  0.25685100  1
  Ca  Ca24  1  0.66737100  0.00230300  0.50932700  1
  Ca  Ca25  1  0.91064100  0.82128200  0.75586200  1
  Ca  Ca26  1  0.66506800  0.66737100  0.00932700  1
  Ca  Ca27  1  0.51155100  0.75577500  0.75685100  1
  Ca  Ca28  1  0.17871800  0.08935900  0.75586200  1
  Ca  Ca29  1  0.33493200  0.00230300  0.50932700  1
  Pb  Pb0  1  0.92316400  0.46158200  0.26198300  1
  Pb  Pb1  1  0.12888300  0.87111700  0.74599500  1
  Pb  Pb2  1  0.87111700  0.74223300  0.24599500  1
  Pb  Pb3  1  0.87111700  0.12888300  0.24599500  1
  Pb  Pb4  1  0.20430500  0.40860900  0.26905300  1
  Pb  Pb5  1  0.74223300  0.87111700  0.74599500  1
  Pb  Pb6  1  0.12888300  0.25776700  0.74599500  1
  Pb  Pb7  1  0.20430500  0.79569500  0.26905300  1
  Pb  Pb8  1  0.53841800  0.46158200  0.26198300  1
  Pb  Pb9  1  0.79569500  0.20430500  0.76905300  1
  Pb  Pb10  1  0.07683600  0.53841800  0.76198300  1
  Pb  Pb11  1  0.25776700  0.12888300  0.24599500  1
  Pb  Pb12  1  0.59139100  0.79569500  0.26905300  1
  Pb  Pb13  1  0.79569500  0.59139100  0.76905300  1
  Pb  Pb14  1  0.40860900  0.20430500  0.76905300  1
  Pb  Pb15  1  0.46158200  0.53841800  0.76198300  1
  Pb  Pb16  1  0.53841800  0.07683600  0.26198300  1
  Pb  Pb17  1  0.46158200  0.92316400  0.76198300  1
loop_
_geom_bond_atom_site_label_1
_geom_bond_atom_site_label_2
_geom_bond_distance
_geom_bond_site_symmetry_2
Ca0 Pb8 3.242698 1_555
Ca0 Pb16 3.242714 1_555
Ca0 Pb11 3.286063 1_555
Ca0 Pb14 3.561813 1_554
Ca0 Pb14 3.722238 1_555
Ca1 Pb11 3.258082 1_565
Ca1 Pb2 3.258082 1_455
Ca1 Pb7 3.275226 1_555
Ca1 Pb1 3.573560 1_555
Ca1 Pb1 3.703412 1_554
Ca2 Pb2 3.392214 1_455
Ca2 Pb10 3.395216 1_554
Ca2 Pb13 3.409364 1_454
Ca2 Pb7 3.421659 1_555
Ca2 Pb0 3.434854 1_455
Ca2 Pb1 3.450330 1_554
Ca3 Pb9 3.262238 1_555
Ca3 Pb13 3.262270 1_555
Ca3 Pb10 3.288248 1_655
Ca3 Pb0 3.606589 1_556
Ca3 Pb0 3.654308 1_555
Ca4 Pb17 3.242702 1_555
Ca4 Pb10 3.242702 1_555
Ca4 Pb1 3.286092 1_555
Ca4 Pb7 3.561813 1_555
Ca4 Pb7 3.722238 1_556
Ca5 Pb12 3.262248 1_555
Ca5 Pb4 3.262248 1_555
Ca5 Pb8 3.288262 1_555
Ca5 Pb15 3.606594 1_555
Ca5 Pb15 3.654313 1_554
Ca6 Pb9 3.262238 1_555
Ca6 Pb14 3.262270 1_555
Ca6 Pb17 3.288248 1_545
Ca6 Pb16 3.606589 1_556
Ca6 Pb16 3.654308 1_555
Ca7 Pb5 3.392227 1_555
Ca7 Pb8 3.395216 1_555
Ca7 Pb12 3.409350 1_555
Ca7 Pb13 3.421648 1_555
Ca7 Pb15 3.434854 1_555
Ca7 Pb2 3.450332 1_555
Ca8 Pb8 3.242698 1_555
Ca8 Pb0 3.242714 1_555
Ca8 Pb2 3.286063 1_555
Ca8 Pb13 3.561813 1_554
Ca8 Pb13 3.722238 1_555
Ca9 Pb3 3.258078 1_455
Ca9 Pb11 3.258094 1_555
Ca9 Pb4 3.275212 1_555
Ca9 Pb6 3.573564 1_555
Ca9 Pb6 3.703416 1_554
Ca10 Pb15 3.242698 1_555
Ca10 Pb10 3.242714 1_555
Ca10 Pb6 3.286063 1_555
Ca10 Pb4 3.561813 1_555
Ca10 Pb4 3.722238 1_556
Ca11 Pb13 3.262248 1_555
Ca11 Pb14 3.262248 1_555
Ca11 Pb15 3.288262 1_555
Ca11 Pb8 3.606594 1_556
Ca11 Pb8 3.654313 1_555
Ca12 Pb6 3.392227 1_555
Ca12 Pb8 3.395216 1_555
Ca12 Pb4 3.409350 1_555
Ca12 Pb14 3.421648 1_555
Ca12 Pb15 3.434854 1_555
Ca12 Pb11 3.450332 1_555
Ca13 Pb3 3.392225 1_455
Ca13 Pb10 3.395216 1_554
Ca13 Pb9 3.409361 1_454
Ca13 Pb4 3.421661 1_555
Ca13 Pb0 3.434854 1_455
Ca13 Pb6 3.450319 1_554
Ca14 Pb3 3.392225 1_565
Ca14 Pb17 3.395216 1_554
Ca14 Pb9 3.409361 1_564
Ca14 Pb12 3.421661 1_555
Ca14 Pb16 3.434854 1_565
Ca14 Pb5 3.450319 1_554
Ca15 Pb1 3.392225 1_655
Ca15 Pb0 3.395216 1_555
Ca15 Pb7 3.409361 1_655
Ca15 Pb13 3.421661 1_555
Ca15 Pb10 3.434854 1_655
Ca15 Pb2 3.450319 1_555
Ca16 Pb7 3.262238 1_555
Ca16 Pb12 3.262270 1_555
Ca16 Pb16 3.288248 1_565
Ca16 Pb17 3.606589 1_555
Ca16 Pb17 3.654308 1_554
Ca17 Pb11 3.392227 1_555
Ca17 Pb15 3.395216 1_554
Ca17 Pb14 3.409350 1_554
Ca17 Pb4 3.421648 1_555
Ca17 Pb8 3.434854 1_555
Ca17 Pb6 3.450332 1_554
Ca18 Pb7 3.262238 1_555
Ca18 Pb4 3.262270 1_555
Ca18 Pb0 3.288248 1_455
Ca18 Pb10 3.606589 1_555
Ca18 Pb10 3.654308 1_554
Ca19 Pb3 3.258078 1_565
Ca19 Pb2 3.258094 1_555
Ca19 Pb12 3.275212 1_555
Ca19 Pb5 3.573564 1_555
Ca19 Pb5 3.703416 1_554
Ca20 Pb6 3.392214 1_655
Ca20 Pb0 3.395216 1_555
Ca20 Pb4 3.409364 1_655
Ca20 Pb9 3.421659 1_555
Ca20 Pb10 3.434854 1_655
Ca20 Pb3 3.450330 1_555
Ca21 Pb11 3.392214 1_565
Ca21 Pb17 3.395216 1_554
Ca21 Pb14 3.409364 1_564
Ca21 Pb7 3.421659 1_555
Ca21 Pb16 3.434854 1_565
Ca21 Pb1 3.450330 1_554
Ca22 Pb6 3.258082 1_655
Ca22 Pb5 3.258082 1_545
Ca22 Pb9 3.275226 1_555
Ca22 Pb3 3.573560 1_556
Ca22 Pb3 3.703412 1_555
Ca23 Pb0 3.242702 1_555
Ca23 Pb16 3.242702 1_555
Ca23 Pb3 3.286092 1_555
Ca23 Pb9 3.561813 1_554
Ca23 Pb9 3.722238 1_555
Ca24 Pb5 3.392214 1_545
Ca24 Pb16 3.395216 1_555
Ca24 Pb12 3.409364 1_545
Ca24 Pb9 3.421659 1_555
Ca24 Pb17 3.434854 1_545
Ca24 Pb3 3.450330 1_555
Ca25 Pb1 3.258078 1_655
Ca25 Pb5 3.258094 1_555
Ca25 Pb13 3.275212 1_555
Ca25 Pb2 3.573564 1_556
Ca25 Pb2 3.703416 1_555
Ca26 Pb2 3.392227 1_555
Ca26 Pb15 3.395216 1_554
Ca26 Pb13 3.409350 1_554
Ca26 Pb12 3.421648 1_555
Ca26 Pb8 3.434854 1_555
Ca26 Pb5 3.450332 1_554
Ca27 Pb15 3.242698 1_555
Ca27 Pb17 3.242714 1_555
Ca27 Pb5 3.286063 1_555
Ca27 Pb12 3.561813 1_555
Ca27 Pb12 3.722238 1_556
Ca28 Pb1 3.258078 1_545
Ca28 Pb6 3.258094 1_555
Ca28 Pb14 3.275212 1_555
Ca28 Pb11 3.573564 1_556
Ca28 Pb11 3.703416 1_555
Ca29 Pb1 3.392225 1_545
Ca29 Pb16 3.395216 1_555
Ca29 Pb7 3.409361 1_545
Ca29 Pb14 3.421661 1_555
Ca29 Pb17 3.434854 1_545
Ca29 Pb11 3.450319 1_555
