# generated using pymatgen
data_Y2Si2O7
_symmetry_space_group_name_H-M   'P 1'
_cell_length_a   6.67168700
_cell_length_b   6.71321400
_cell_length_c   12.18723557
_cell_angle_alpha   94.48800720
_cell_angle_beta   91.21502771
_cell_angle_gamma   91.88246166
_symmetry_Int_Tables_number   1
_chemical_formula_structural   Y2Si2O7
_chemical_formula_sum   'Y8 Si8 O28'
_cell_volume   543.72529816
_cell_formula_units_Z   4
loop_
 _symmetry_equiv_pos_site_id
 _symmetry_equiv_pos_as_xyz
  1  'x, y, z'
loop_
 _atom_site_type_symbol
 _atom_site_label
 _atom_site_symmetry_multiplicity
 _atom_site_fract_x
 _atom_site_fract_y
 _atom_site_fract_z
 _atom_site_occupancy
  Y  Y0  1  0.11614900  0.09215900  0.35692500  1
  Y  Y1  1  0.32925900  0.82765200  0.10815300  1
  Y  Y2  1  0.63029900  0.78304400  0.36647500  1
  Y  Y3  1  0.88385100  0.90784100  0.64307500  1
  Y  Y4  1  0.67074100  0.17234800  0.89184700  1
  Y  Y5  1  0.36970100  0.21695600  0.63352500  1
  Y  Y6  1  0.94842100  0.67027200  0.88486800  1
  Y  Y7  1  0.05157900  0.32972800  0.11513200  1
  Si  Si0  1  0.48644800  0.66457600  0.82416300  1
  Si  Si1  1  0.84552600  0.85294300  0.11540700  1
  Si  Si2  1  0.51355200  0.33542400  0.17583700  1
  Si  Si3  1  0.15447400  0.14705700  0.88459300  1
  Si  Si4  1  0.14425400  0.62786000  0.37962100  1
  Si  Si5  1  0.85574600  0.37214000  0.62037900  1
  Si  Si6  1  0.62188300  0.27483100  0.40580300  1
  Si  Si7  1  0.37811700  0.72516900  0.59419700  1
  O  O0  1  0.28603200  0.57654800  0.48841500  1
  O  O1  1  0.23458300  0.08517200  0.00391600  1
  O  O2  1  0.40094300  0.56806600  0.69352000  1
  O  O3  1  0.03813700  0.22770700  0.57776000  1
  O  O4  1  0.38437200  0.13799900  0.21063000  1
  O  O5  1  0.65385800  0.78969000  0.18623800  1
  O  O6  1  0.00166300  0.98274200  0.81572100  1
  O  O7  1  0.00122500  0.66931300  0.08130600  1
  O  O8  1  0.70140900  0.29684100  0.09506700  1
  O  O9  1  0.34614200  0.21031000  0.81376200  1
  O  O10  1  0.07583500  0.41828000  0.31122600  1
  O  O11  1  0.22776400  0.90362800  0.62343800  1
  O  O12  1  0.64355200  0.51013400  0.87269400  1
  O  O13  1  0.58700400  0.82616600  0.55308700  1
  O  O14  1  0.76541700  0.91482800  0.99608500  1
  O  O15  1  0.99833700  0.01725800  0.18427900  1
  O  O16  1  0.92416500  0.58172000  0.68877400  1
  O  O17  1  0.96186300  0.77229300  0.42224000  1
  O  O18  1  0.77223600  0.09637200  0.37656200  1
  O  O19  1  0.59905700  0.43193400  0.30648000  1
  O  O20  1  0.41299600  0.17383400  0.44691300  1
  O  O21  1  0.61562800  0.86200100  0.78937000  1
  O  O22  1  0.71245300  0.21626200  0.68703700  1
  O  O23  1  0.71396800  0.42345200  0.51158500  1
  O  O24  1  0.28754700  0.78373800  0.31296300  1
  O  O25  1  0.35644800  0.48986600  0.12730600  1
  O  O26  1  0.29859100  0.70315900  0.90493300  1
  O  O27  1  0.99877500  0.33068700  0.91869400  1
loop_
_geom_bond_atom_site_label_1
_geom_bond_atom_site_label_2
_geom_bond_distance
_geom_bond_site_symmetry_2
O0 Si7 1.661248 1_555
O0 Si4 1.676629 1_555
O1 Si3 1.627627 1_554
O1 Y1 2.320111 1_545
O1 Y7 2.424220 1_555
O2 Si7 1.674302 1_555
O2 Si0 1.748136 1_555
O2 Y5 2.413589 1_555
O3 Si5 1.648080 1_455
O3 Y5 2.305396 1_555
O3 Y3 2.541898 1_445
O3 Y0 2.837187 1_555
O4 Si2 1.645467 1_555
O4 Y1 2.357673 1_545
O4 Y0 2.580863 1_555
O5 Si1 1.621478 1_555
O5 Y2 2.209350 1_555
O5 Y1 2.376405 1_555
O6 Si3 1.644880 1_565
O6 Y3 2.244126 1_455
O6 Y6 2.340296 1_455
O6 Y4 2.728009 1_465
O7 Si1 1.671436 1_455
O7 Y7 2.381468 1_555
O7 Y1 2.406038 1_555
O7 Y6 2.412955 1_454
O8 Si2 1.625000 1_555
O8 Y7 2.345191 1_655
O8 Y4 2.552972 1_554
O9 Si3 1.621478 1_555
O9 Y5 2.209350 1_555
O9 Y4 2.376405 1_555
O10 Si4 1.625060 1_555
O10 Y0 2.323534 1_555
O10 Y7 2.417824 1_555
O11 Si7 1.611150 1_555
O11 Y5 2.271569 1_565
O11 Y3 2.312835 1_455
O12 Si0 1.632321 1_555
O12 Y6 2.265706 1_555
O12 Y4 2.310325 1_555
O13 Si7 1.635120 1_555
O13 Y3 2.273345 1_555
O13 Y2 2.295632 1_555
O14 Si1 1.627616 1_556
O14 Y4 2.320119 1_565
O14 Y6 2.424227 1_555
O15 Si1 1.644880 1_545
O15 Y0 2.244126 1_655
O15 Y7 2.340296 1_655
O15 Y1 2.728009 1_645
O16 Si5 1.625060 1_555
O16 Y3 2.323534 1_555
O16 Y6 2.417824 1_555
O17 Si4 1.648080 1_655
O17 Y2 2.305396 1_555
O17 Y0 2.541898 1_665
O17 Y3 2.837187 1_555
O18 Si6 1.611150 1_555
O18 Y2 2.271569 1_545
O18 Y0 2.312835 1_655
O19 Si6 1.674302 1_555
O19 Si2 1.748136 1_555
O19 Y2 2.413589 1_555
O20 Si6 1.635120 1_555
O20 Y0 2.273345 1_555
O20 Y5 2.295632 1_555
O21 Si0 1.645467 1_555
O21 Y4 2.357673 1_565
O21 Y3 2.580863 1_555
O22 Si5 1.664091 1_555
O22 Y5 2.364830 1_555
O22 Y3 2.426841 1_545
O22 Y4 2.556157 1_555
O23 Si6 1.661248 1_555
O23 Si5 1.676629 1_555
O24 Si4 1.664091 1_555
O24 Y2 2.364830 1_555
O24 Y0 2.426841 1_565
O24 Y1 2.556157 1_555
O25 Si2 1.632321 1_555
O25 Y7 2.265706 1_555
O25 Y1 2.310325 1_555
O26 Si0 1.625000 1_555
O26 Y6 2.345191 1_455
O26 Y1 2.552972 1_556
O27 Si3 1.671436 1_655
O27 Y6 2.381468 1_555
O27 Y4 2.406038 1_555
O27 Y7 2.412955 1_656
