# generated using pymatgen
data_Ca3Al4ZnO10
_symmetry_space_group_name_H-M   'P 1'
_cell_length_a   5.18865600
_cell_length_b   10.81394500
_cell_length_c   16.92960600
_cell_angle_alpha   90.00000000
_cell_angle_beta   90.00000000
_cell_angle_gamma   90.00000000
_symmetry_Int_Tables_number   1
_chemical_formula_structural   Ca3Al4ZnO10
_chemical_formula_sum   'Ca12 Al16 Zn4 O40'
_cell_volume   949.91749421
_cell_formula_units_Z   4
loop_
 _symmetry_equiv_pos_site_id
 _symmetry_equiv_pos_as_xyz
  1  'x, y, z'
loop_
 _atom_site_type_symbol
 _atom_site_label
 _atom_site_symmetry_multiplicity
 _atom_site_fract_x
 _atom_site_fract_y
 _atom_site_fract_z
 _atom_site_occupancy
  Ca  Ca0  1  0.29617100  0.07753900  0.39347300  1
  Ca  Ca1  1  0.70382900  0.07753900  0.89347300  1
  Ca  Ca2  1  0.70404600  0.93013400  0.60953900  1
  Ca  Ca3  1  0.72761000  0.73979400  0.79067300  1
  Ca  Ca4  1  0.29595400  0.93013400  0.10953900  1
  Ca  Ca5  1  0.29617100  0.57753900  0.10652700  1
  Ca  Ca6  1  0.29595400  0.43013400  0.39046100  1
  Ca  Ca7  1  0.72761000  0.23979400  0.70932700  1
  Ca  Ca8  1  0.70382900  0.57753900  0.60652700  1
  Ca  Ca9  1  0.27239000  0.73979400  0.29067300  1
  Ca  Ca10  1  0.27239000  0.23979400  0.20932700  1
  Ca  Ca11  1  0.70404600  0.43013400  0.89046100  1
  Al  Al0  1  0.80167800  0.00030800  0.25135500  1
  Al  Al1  1  0.36892500  0.75258400  0.46958100  1
  Al  Al2  1  0.80167800  0.50030800  0.24864500  1
  Al  Al3  1  0.63107500  0.25258400  0.53041900  1
  Al  Al4  1  0.25852000  0.25084700  0.83569100  1
  Al  Al5  1  0.36892500  0.25258400  0.03041900  1
  Al  Al6  1  0.19832200  0.00030800  0.75135500  1
  Al  Al7  1  0.25852000  0.75084700  0.66430900  1
  Al  Al8  1  0.19832200  0.50030800  0.74864500  1
  Al  Al9  1  0.12884200  0.89854200  0.92318100  1
  Al  Al10  1  0.87115800  0.89854200  0.42318100  1
  Al  Al11  1  0.74148000  0.75084700  0.16430900  1
  Al  Al12  1  0.87115800  0.39854200  0.07681900  1
  Al  Al13  1  0.63107500  0.75258400  0.96958100  1
  Al  Al14  1  0.12884200  0.39854200  0.57681900  1
  Al  Al15  1  0.74148000  0.25084700  0.33569100  1
  Zn  Zn0  1  0.85696900  0.10046800  0.07897000  1
  Zn  Zn1  1  0.85696900  0.60046800  0.42103000  1
  Zn  Zn2  1  0.14303100  0.60046800  0.92103000  1
  Zn  Zn3  1  0.14303100  0.10046800  0.57897000  1
  O  O0  1  0.46830000  0.88351700  0.92668100  1
  O  O1  1  0.40523500  0.12024500  0.78767100  1
  O  O2  1  0.59889600  0.38062900  0.28654900  1
  O  O3  1  0.99132200  0.00195900  0.49365700  1
  O  O4  1  0.00867800  0.50195900  0.50634300  1
  O  O5  1  0.40110400  0.88062900  0.71345100  1
  O  O6  1  0.99639600  0.94138200  0.32935200  1
  O  O7  1  0.53170000  0.88351700  0.42668100  1
  O  O8  1  0.59476500  0.62024500  0.21232900  1
  O  O9  1  0.99639600  0.44138200  0.17064800  1
  O  O10  1  0.53170000  0.38351700  0.07331900  1
  O  O11  1  0.51069800  0.12230300  0.58206000  1
  O  O12  1  0.00360400  0.44138200  0.67064800  1
  O  O13  1  0.57389900  0.75136200  0.07175600  1
  O  O14  1  0.02142000  0.55829200  0.31921800  1
  O  O15  1  0.97858000  0.05829200  0.68078200  1
  O  O16  1  0.48930200  0.62230300  0.41794000  1
  O  O17  1  0.07759900  0.24959100  0.33445800  1
  O  O18  1  0.51069800  0.62230300  0.91794000  1
  O  O19  1  0.48930200  0.12230300  0.08206000  1
  O  O20  1  0.95771500  0.75950400  0.93953300  1
  O  O21  1  0.42610100  0.25136200  0.92824400  1
  O  O22  1  0.97858000  0.55829200  0.81921800  1
  O  O23  1  0.99132200  0.50195900  0.00634300  1
  O  O24  1  0.42610100  0.75136200  0.57175600  1
  O  O25  1  0.00360400  0.94138200  0.82935200  1
  O  O26  1  0.95771500  0.25950400  0.56046700  1
  O  O27  1  0.46830000  0.38351700  0.57331900  1
  O  O28  1  0.57389900  0.25136200  0.42824400  1
  O  O29  1  0.40110400  0.38062900  0.78654900  1
  O  O30  1  0.92240100  0.74959100  0.66554200  1
  O  O31  1  0.04228500  0.25950400  0.06046700  1
  O  O32  1  0.92240100  0.24959100  0.83445800  1
  O  O33  1  0.59889600  0.88062900  0.21345100  1
  O  O34  1  0.40523500  0.62024500  0.71232900  1
  O  O35  1  0.02142000  0.05829200  0.18078200  1
  O  O36  1  0.04228500  0.75950400  0.43953300  1
  O  O37  1  0.00867800  0.00195900  0.99365700  1
  O  O38  1  0.59476500  0.12024500  0.28767100  1
  O  O39  1  0.07759900  0.74959100  0.16554200  1
loop_
_geom_bond_atom_site_label_1
_geom_bond_atom_site_label_2
_geom_bond_distance
_geom_bond_site_symmetry_2
Ca0 O17 2.397094 1_555
Ca0 O6 2.401189 1_445
Ca0 O38 2.412874 1_555
Ca0 O28 2.440578 1_555
Ca0 O3 2.458991 1_455
Ca0 O7 2.492338 1_545
Ca1 O32 2.397094 1_555
Ca1 O25 2.401189 1_645
Ca1 O1 2.412874 1_555
Ca1 O21 2.440578 1_555
Ca1 O37 2.458991 1_655
Ca1 O0 2.492338 1_545
Ca2 O15 2.324760 1_565
Ca2 O11 2.354014 1_565
Ca2 O5 2.419109 1_555
Ca2 O30 2.448331 1_555
Ca2 O24 2.495268 1_555
Ca2 O3 2.583390 1_565
Ca3 O30 2.349562 1_555
Ca3 O22 2.404506 1_555
Ca3 O34 2.495673 1_555
Ca3 O5 2.626533 1_555
Ca3 O25 2.689192 1_655
Ca3 O18 2.742845 1_555
Ca3 O20 2.796788 1_555
Ca4 O35 2.324760 1_565
Ca4 O19 2.354014 1_565
Ca4 O33 2.419109 1_555
Ca4 O39 2.448331 1_555
Ca4 O13 2.495268 1_555
Ca4 O37 2.583390 1_564
Ca5 O39 2.397094 1_555
Ca5 O9 2.401189 1_455
Ca5 O8 2.412874 1_555
Ca5 O13 2.440578 1_555
Ca5 O23 2.458991 1_455
Ca5 O10 2.492338 1_555
Ca6 O14 2.324760 1_555
Ca6 O16 2.354014 1_555
Ca6 O2 2.419109 1_555
Ca6 O17 2.448331 1_555
Ca6 O28 2.495268 1_555
Ca6 O4 2.583390 1_555
Ca7 O32 2.349562 1_555
Ca7 O15 2.404506 1_555
Ca7 O1 2.495673 1_555
Ca7 O29 2.626533 1_555
Ca7 O12 2.689192 1_655
Ca7 O11 2.742845 1_555
Ca7 O26 2.796788 1_555
Ca8 O30 2.397094 1_555
Ca8 O12 2.401189 1_655
Ca8 O34 2.412874 1_555
Ca8 O24 2.440578 1_555
Ca8 O4 2.458991 1_655
Ca8 O27 2.492338 1_555
Ca9 O39 2.349562 1_555
Ca9 O14 2.404506 1_555
Ca9 O8 2.495673 1_555
Ca9 O33 2.626533 1_555
Ca9 O6 2.689192 1_455
Ca9 O16 2.742845 1_555
Ca9 O36 2.796788 1_555
Ca10 O17 2.349562 1_555
Ca10 O35 2.404506 1_555
Ca10 O38 2.495673 1_555
Ca10 O2 2.626533 1_555
Ca10 O9 2.689192 1_455
Ca10 O19 2.742845 1_555
Ca10 O31 2.796788 1_555
Ca11 O22 2.324760 1_555
Ca11 O18 2.354014 1_555
Ca11 O29 2.419109 1_555
Ca11 O32 2.448331 1_555
Ca11 O21 2.495268 1_555
Ca11 O23 2.583390 1_556
Al0 O35 1.766532 1_655
Al0 O6 1.780567 1_545
Al0 O33 1.787118 1_545
Al0 O38 1.792430 1_555
Al1 O24 1.755088 1_555
Al1 O36 1.771101 1_555
Al1 O16 1.771811 1_555
Al1 O7 1.801550 1_555
Al2 O14 1.766532 1_655
Al2 O9 1.780567 1_555
Al2 O2 1.787118 1_555
Al2 O8 1.792430 1_555
Al3 O28 1.755088 1_555
Al3 O26 1.771101 1_555
Al3 O11 1.771811 1_555
Al3 O27 1.801550 1_555
Al4 O32 1.744184 1_455
Al4 O29 1.791415 1_555
Al4 O21 1.791990 1_555
Al4 O1 1.798629 1_555
Al5 O21 1.755088 1_554
Al5 O31 1.771101 1_555
Al5 O19 1.771811 1_555
Al5 O10 1.801550 1_555
Al6 O15 1.766532 1_455
Al6 O25 1.780567 1_545
Al6 O5 1.787118 1_545
Al6 O1 1.792430 1_555
Al7 O30 1.744184 1_455
Al7 O5 1.791415 1_555
Al7 O24 1.791990 1_555
Al7 O34 1.798629 1_555
Al8 O22 1.766532 1_455
Al8 O12 1.780567 1_555
Al8 O29 1.787118 1_555
Al8 O34 1.792430 1_555
Al9 O37 1.750142 1_565
Al9 O20 1.767964 1_455
Al9 O0 1.769801 1_555
Al9 O25 1.777688 1_555
Al10 O3 1.750142 1_565
Al10 O36 1.767964 1_655
Al10 O7 1.769801 1_555
Al10 O6 1.777688 1_555
Al11 O39 1.744184 1_655
Al11 O33 1.791415 1_555
Al11 O13 1.791990 1_555
Al11 O8 1.798629 1_555
Al12 O23 1.750142 1_555
Al12 O31 1.767964 1_655
Al12 O10 1.769801 1_555
Al12 O9 1.777688 1_555
Al13 O13 1.755088 1_556
Al13 O20 1.771101 1_555
Al13 O18 1.771811 1_555
Al13 O0 1.801550 1_555
Al14 O4 1.750142 1_555
Al14 O26 1.767964 1_455
Al14 O27 1.769801 1_555
Al14 O12 1.777688 1_555
Al15 O17 1.744184 1_655
Al15 O2 1.791415 1_555
Al15 O28 1.791990 1_555
Al15 O38 1.798629 1_555
O3 Zn3 1.959714 1_655
O4 Zn1 1.959714 1_455
O11 Zn3 1.922967 1_555
O14 Zn1 1.976620 1_455
O15 Zn3 1.976620 1_655
O16 Zn1 1.922967 1_555
O18 Zn2 1.922967 1_555
O19 Zn0 1.922967 1_555
O20 Zn2 1.995099 1_655
O22 Zn2 1.976620 1_655
O23 Zn2 1.959714 1_654
O26 Zn3 1.995099 1_655
O31 Zn0 1.995099 1_455
O35 Zn0 1.976620 1_455
O36 Zn1 1.995099 1_455
O37 Zn0 1.959714 1_456
