# generated using pymatgen
data_Se2S(NCl)2
_symmetry_space_group_name_H-M   'P 1'
_cell_length_a   7.60387200
_cell_length_b   10.87700200
_cell_length_c   17.22362900
_cell_angle_alpha   90.00000000
_cell_angle_beta   90.00000000
_cell_angle_gamma   90.00000000
_symmetry_Int_Tables_number   1
_chemical_formula_structural   Se2S(NCl)2
_chemical_formula_sum   'Se16 S8 N16 Cl16'
_cell_volume   1424.52038389
_cell_formula_units_Z   8
loop_
 _symmetry_equiv_pos_site_id
 _symmetry_equiv_pos_as_xyz
  1  'x, y, z'
loop_
 _atom_site_type_symbol
 _atom_site_label
 _atom_site_symmetry_multiplicity
 _atom_site_fract_x
 _atom_site_fract_y
 _atom_site_fract_z
 _atom_site_occupancy
  Se  Se0  1  0.71606700  0.14488000  0.07365700  1
  Se  Se1  1  0.86227000  0.45009600  0.39803700  1
  Se  Se2  1  0.63773000  0.45009600  0.89803700  1
  Se  Se3  1  0.28393300  0.85512000  0.92634300  1
  Se  Se4  1  0.71606700  0.64488000  0.42634300  1
  Se  Se5  1  0.78393300  0.64488000  0.92634300  1
  Se  Se6  1  0.36227000  0.04990400  0.39803700  1
  Se  Se7  1  0.13773000  0.54990400  0.60196300  1
  Se  Se8  1  0.21606700  0.35512000  0.07365700  1
  Se  Se9  1  0.86227000  0.95009600  0.10196300  1
  Se  Se10  1  0.78393300  0.14488000  0.57365700  1
  Se  Se11  1  0.28393300  0.35512000  0.57365700  1
  Se  Se12  1  0.36227000  0.54990400  0.10196300  1
  Se  Se13  1  0.63773000  0.95009600  0.60196300  1
  Se  Se14  1  0.21606700  0.85512000  0.42634300  1
  Se  Se15  1  0.13773000  0.04990400  0.89803700  1
  S  S0  1  0.79026100  0.60539200  0.26188600  1
  S  S1  1  0.20973900  0.89460800  0.76188600  1
  S  S2  1  0.29026100  0.39460800  0.23811400  1
  S  S3  1  0.70973900  0.10539200  0.73811400  1
  S  S4  1  0.70973900  0.60539200  0.76188600  1
  S  S5  1  0.79026100  0.10539200  0.23811400  1
  S  S6  1  0.29026100  0.89460800  0.26188600  1
  S  S7  1  0.20973900  0.39460800  0.73811400  1
  N  N0  1  0.37774200  0.01569200  0.29508000  1
  N  N1  1  0.87774200  0.98430800  0.20492000  1
  N  N2  1  0.20604700  0.31194700  0.17433700  1
  N  N3  1  0.29395300  0.81194700  0.82566300  1
  N  N4  1  0.70604700  0.18805300  0.17433700  1
  N  N5  1  0.70604700  0.68805300  0.32566300  1
  N  N6  1  0.79395300  0.68805300  0.82566300  1
  N  N7  1  0.29395300  0.31194700  0.67433700  1
  N  N8  1  0.20604700  0.81194700  0.32566300  1
  N  N9  1  0.62225800  0.48430800  0.79508000  1
  N  N10  1  0.12225800  0.01569200  0.79508000  1
  N  N11  1  0.79395300  0.18805300  0.67433700  1
  N  N12  1  0.12225800  0.51569200  0.70492000  1
  N  N13  1  0.87774200  0.48430800  0.29508000  1
  N  N14  1  0.62225800  0.98430800  0.70492000  1
  N  N15  1  0.37774200  0.51569200  0.20492000  1
  Cl  Cl0  1  0.32021100  0.53781900  0.93348700  1
  Cl  Cl1  1  0.89565900  0.82141200  0.61254000  1
  Cl  Cl2  1  0.67978900  0.96218100  0.43348700  1
  Cl  Cl3  1  0.39565900  0.17858800  0.88746000  1
  Cl  Cl4  1  0.17978900  0.53781900  0.43348700  1
  Cl  Cl5  1  0.17978900  0.03781900  0.06651300  1
  Cl  Cl6  1  0.60434100  0.82141200  0.11254000  1
  Cl  Cl7  1  0.32021100  0.03781900  0.56651300  1
  Cl  Cl8  1  0.82021100  0.46218100  0.56651300  1
  Cl  Cl9  1  0.39565900  0.67858800  0.61254000  1
  Cl  Cl10  1  0.10434100  0.67858800  0.11254000  1
  Cl  Cl11  1  0.60434100  0.32141200  0.38746000  1
  Cl  Cl12  1  0.82021100  0.96218100  0.93348700  1
  Cl  Cl13  1  0.10434100  0.17858800  0.38746000  1
  Cl  Cl14  1  0.67978900  0.46218100  0.06651300  1
  Cl  Cl15  1  0.89565900  0.32141200  0.88746000  1
loop_
_geom_bond_atom_site_label_1
_geom_bond_atom_site_label_2
_geom_bond_distance
_geom_bond_site_symmetry_2
Se0 Se9 2.441788 1_545
Se1 Se4 2.441788 1_555
Se2 Se5 2.441788 1_555
Se10 Se13 2.441788 1_545
Se11 Se7 2.441788 1_555
Se12 Se8 2.441788 1_555
Se14 Se6 2.441788 1_565
Se15 Se3 2.441788 1_545
N0 S6 1.582378 1_545
N0 Se6 1.815733 1_555
N1 S5 1.582378 1_565
N1 Se9 1.815733 1_555
N2 S2 1.557266 1_555
N2 Se8 1.798149 1_555
N3 S1 1.557266 1_555
N3 Se3 1.798149 1_555
N4 S5 1.557266 1_555
N4 Se0 1.798149 1_555
N5 S0 1.557266 1_555
N5 Se4 1.798149 1_555
N6 S4 1.557266 1_555
N6 Se5 1.798149 1_555
N7 S7 1.557266 1_555
N7 Se11 1.798149 1_555
N8 S6 1.557266 1_555
N8 Se14 1.798149 1_555
N9 S4 1.582378 1_555
N9 Se2 1.815733 1_555
N10 S1 1.582378 1_545
N10 Se15 1.815733 1_555
N11 S3 1.557266 1_555
N11 Se10 1.798149 1_555
N12 S7 1.582378 1_555
N12 Se7 1.815733 1_555
N13 S0 1.582378 1_555
N13 Se1 1.815733 1_555
N14 S3 1.582378 1_565
N14 Se13 1.815733 1_555
N15 S2 1.582378 1_555
N15 Se12 1.815733 1_555
Cl0 Se2 2.666915 1_555
Cl0 Se12 2.922296 1_556
Cl1 Se13 2.416376 1_555
Cl2 Se6 2.666915 1_565
Cl2 Se13 2.922296 1_555
Cl3 Se15 2.416376 1_555
Cl4 Se1 2.666915 1_455
Cl4 Se7 2.922296 1_555
Cl5 Se9 2.666915 1_445
Cl5 Se15 2.922296 1_554
Cl6 Se9 2.416376 1_555
Cl7 Se13 2.666915 1_545
Cl7 Se6 2.922296 1_555
Cl8 Se7 2.666915 1_655
Cl8 Se1 2.922296 1_555
Cl9 Se7 2.416376 1_555
Cl10 Se12 2.416376 1_555
Cl11 Se1 2.416376 1_555
Cl12 Se15 2.666915 1_665
Cl12 Se9 2.922296 1_556
Cl13 Se6 2.416376 1_555
Cl14 Se12 2.666915 1_555
Cl14 Se2 2.922296 1_554
Cl15 Se2 2.416376 1_555
