# generated using pymatgen
data_ScOs2
_symmetry_space_group_name_H-M   'P 1'
_cell_length_a   5.17677481
_cell_length_b   5.17677408
_cell_length_c   8.59708894
_cell_angle_alpha   90.00000000
_cell_angle_beta   90.00000000
_cell_angle_gamma   119.99999823
_symmetry_Int_Tables_number   1
_chemical_formula_structural   ScOs2
_chemical_formula_sum   'Sc4 Os8'
_cell_volume   199.52648176
_cell_formula_units_Z   4
loop_
 _symmetry_equiv_pos_site_id
 _symmetry_equiv_pos_as_xyz
  1  'x, y, z'
loop_
 _atom_site_type_symbol
 _atom_site_label
 _atom_site_symmetry_multiplicity
 _atom_site_fract_x
 _atom_site_fract_y
 _atom_site_fract_z
 _atom_site_occupancy
  Sc  Sc0  1  0.33333300  0.66666700  0.43298152  1
  Sc  Sc1  1  0.66666700  0.33333300  0.56701848  1
  Sc  Sc2  1  0.66666700  0.33333300  0.93298152  1
  Sc  Sc3  1  0.33333300  0.66666700  0.06701848  1
  Os  Os0  1  0.17276652  0.34553204  0.75000000  1
  Os  Os1  1  0.17276652  0.82723348  0.75000000  1
  Os  Os2  1  0.34553204  0.17276652  0.25000000  1
  Os  Os3  1  0.82723348  0.65446796  0.25000000  1
  Os  Os4  1  0.65446796  0.82723348  0.75000000  1
  Os  Os5  1  0.00000000  0.00000000  -0.00000000  1
  Os  Os6  1  0.82723348  0.17276652  0.25000000  1
  Os  Os7  1  0.00000000  0.00000000  0.50000000  1
loop_
_geom_bond_atom_site_label_1
_geom_bond_atom_site_label_2
_geom_bond_distance
_geom_bond_site_symmetry_2
Sc0 Sc3 3.146217 1_555
Sc0 Sc1 3.203254 1_565
Sc0 Sc1 3.203255 1_455
Sc0 Sc1 3.203263 1_555
Sc1 Sc2 3.146217 1_555
Sc2 Sc3 3.203254 1_546
Sc2 Sc3 3.203255 1_656
Sc2 Sc3 3.203263 1_556
Os0 Os1 2.493660 1_555
Os0 Os4 2.493660 1_555
Os0 Os7 2.649352 1_555
Os0 Os5 2.649352 1_556
Os0 Os1 2.683115 1_545
Os0 Os4 2.683115 1_445
Os0 Sc2 3.029424 1_555
Os0 Sc1 3.029424 1_555
Os0 Sc1 3.029424 1_455
Os0 Sc2 3.029424 1_455
Os0 Sc0 3.082335 1_555
Os0 Sc3 3.082335 1_556
Os1 Os4 2.493660 1_555
Os1 Os5 2.649355 1_566
Os1 Os7 2.649355 1_565
Os1 Os4 2.683115 1_455
Os1 Sc2 3.029424 1_565
Os1 Sc1 3.029424 1_565
Os1 Sc2 3.029424 1_455
Os1 Sc1 3.029424 1_455
Os1 Sc0 3.082331 1_555
Os1 Sc3 3.082331 1_556
Os2 Os3 2.493660 1_555
Os2 Os6 2.493660 1_555
Os2 Os7 2.649352 1_555
Os2 Os5 2.649352 1_555
Os2 Os3 2.683115 1_445
Os2 Os6 2.683115 1_455
Os2 Sc0 3.029424 1_545
Os2 Sc3 3.029424 1_545
Os2 Sc0 3.029424 1_555
Os2 Sc3 3.029424 1_555
Os2 Sc2 3.082335 1_554
Os2 Sc1 3.082335 1_555
Os3 Os6 2.493660 1_555
Os3 Os5 2.649352 1_665
Os3 Os7 2.649352 1_665
Os3 Os6 2.683115 1_565
Os3 Sc0 3.029424 1_555
Os3 Sc3 3.029424 1_555
Os3 Sc3 3.029424 1_655
Os3 Sc0 3.029424 1_655
Os3 Sc1 3.082335 1_555
Os3 Sc2 3.082335 1_554
Os4 Os7 2.649352 1_665
Os4 Os5 2.649352 1_666
Os4 Sc1 3.029424 1_565
Os4 Sc2 3.029424 1_565
Os4 Sc2 3.029424 1_555
Os4 Sc1 3.029424 1_555
Os4 Sc0 3.082335 1_555
Os4 Sc3 3.082335 1_556
Os5 Os6 2.649355 1_455
Os5 Sc2 3.043837 1_454
Os5 Sc3 3.043837 1_545
Os5 Sc3 3.043841 1_555
Os5 Sc2 3.043841 1_444
Os5 Sc2 3.043842 1_554
Os5 Sc3 3.043842 1_445
Os6 Os7 2.649355 1_655
Os6 Sc3 3.029424 1_545
Os6 Sc0 3.029424 1_545
Os6 Sc3 3.029424 1_655
Os6 Sc0 3.029424 1_655
Os6 Sc2 3.082331 1_554
Os6 Sc1 3.082331 1_555
Os7 Sc1 3.043837 1_455
Os7 Sc0 3.043837 1_545
Os7 Sc1 3.043841 1_445
Os7 Sc0 3.043841 1_555
Os7 Sc1 3.043842 1_555
Os7 Sc0 3.043842 1_445
