# generated using pymatgen
data_U8FeS17
_symmetry_space_group_name_H-M   'P 1'
_cell_length_a   7.86981195
_cell_length_b   7.86981195
_cell_length_c   10.32933358
_cell_angle_alpha   80.70610047
_cell_angle_beta   80.70610047
_cell_angle_gamma   64.92199225
_symmetry_Int_Tables_number   1
_chemical_formula_structural   U8FeS17
_chemical_formula_sum   'U8 Fe1 S17'
_cell_volume   568.71646824
_cell_formula_units_Z   1
loop_
 _symmetry_equiv_pos_site_id
 _symmetry_equiv_pos_as_xyz
  1  'x, y, z'
loop_
 _atom_site_type_symbol
 _atom_site_label
 _atom_site_symmetry_multiplicity
 _atom_site_fract_x
 _atom_site_fract_y
 _atom_site_fract_z
 _atom_site_occupancy
  U  U0  1  0.79489541  0.79489541  0.45497062  1
  U  U1  1  0.81326102  0.29981740  0.29057374  1
  U  U2  1  0.68363514  0.68363514  0.97978610  1
  U  U3  1  0.20510459  0.20510459  0.54502938  1
  U  U4  1  0.18673898  0.70018260  0.70942626  1
  U  U5  1  0.31636486  0.31636486  0.02021390  1
  U  U6  1  0.70018260  0.18673898  0.70942626  1
  U  U7  1  0.29981740  0.81326102  0.29057374  1
  Fe  Fe0  1  0.00000000  -0.00000000  0.00000000  1
  S  S0  1  0.52014089  0.52014089  0.83189249  1
  S  S1  1  0.94376810  0.31785200  0.02352347  1
  S  S2  1  0.20861040  0.20861040  0.27757780  1
  S  S3  1  0.43069304  0.82411695  0.53429711  1
  S  S4  1  0.79138960  0.79138960  0.72242220  1
  S  S5  1  0.05623190  0.68214800  0.97647653  1
  S  S6  1  0.82411695  0.43069304  0.53429711  1
  S  S7  1  0.69664035  0.69664035  0.24434349  1
  S  S8  1  0.05532127  0.05532127  0.77921121  1
  S  S9  1  0.68214800  0.05623190  0.97647653  1
  S  S10  1  0.94467873  0.94467873  0.22078879  1
  S  S11  1  0.31785200  0.94376810  0.02352347  1
  S  S12  1  0.47985911  0.47985911  0.16810751  1
  S  S13  1  0.56930696  0.17588305  0.46570289  1
  S  S14  1  0.00000000  -0.00000000  0.50000000  1
  S  S15  1  0.17588305  0.56930696  0.46570289  1
  S  S16  1  0.30335965  0.30335965  0.75565651  1
loop_
_geom_bond_atom_site_label_1
_geom_bond_atom_site_label_2
_geom_bond_distance
_geom_bond_site_symmetry_2
Fe0 S8 2.258208 1_554
Fe0 S10 2.258208 1_445
Fe0 S11 2.394840 1_545
Fe0 S1 2.394840 1_455
Fe0 S5 2.394840 1_544
Fe0 S9 2.394840 1_454
S0 U6 2.798900 1_555
S0 U4 2.798900 1_555
S0 U2 2.884070 1_555
S0 U5 3.015364 1_556
S1 U2 2.750407 1_554
S1 U1 2.786770 1_555
S1 U5 2.922012 1_655
S2 U3 2.754064 1_555
S2 U5 2.767420 1_555
S2 U7 2.866471 1_545
S2 U1 2.866471 1_455
S3 U0 2.771814 1_555
S3 U3 2.772254 1_565
S3 U4 2.793790 1_555
S3 U7 2.896120 1_555
S4 U0 2.754064 1_555
S4 U2 2.767420 1_555
S4 U6 2.866471 1_565
S4 U4 2.866471 1_655
S5 U5 2.750407 1_556
S5 U4 2.786770 1_555
S5 U2 2.922012 1_455
S6 U0 2.771814 1_555
S6 U3 2.772254 1_655
S6 U6 2.793790 1_555
S6 U1 2.896120 1_555
S7 U0 2.742781 1_555
S7 U2 2.770950 1_554
S7 U7 2.837820 1_555
S7 U1 2.837820 1_555
S8 U4 2.712960 1_545
S8 U6 2.712960 1_455
S8 U3 2.822440 1_555
S9 U5 2.750407 1_556
S9 U6 2.786770 1_555
S9 U2 2.922012 1_545
S10 U7 2.712960 1_655
S10 U1 2.712960 1_565
S10 U0 2.822440 1_555
S11 U2 2.750407 1_554
S11 U7 2.786770 1_555
S11 U5 2.922012 1_565
S12 U7 2.798900 1_555
S12 U1 2.798900 1_555
S12 U5 2.884070 1_555
S12 U2 3.015364 1_554
S13 U3 2.771814 1_555
S13 U0 2.772254 1_545
S13 U1 2.793790 1_555
S13 U6 2.896120 1_555
S14 U3 2.849707 1_555
S14 U0 2.849707 1_445
S14 U1 2.974112 1_455
S14 U7 2.974112 1_545
S14 U6 2.974112 1_455
S14 U4 2.974112 1_545
S15 U3 2.771814 1_555
S15 U0 2.772254 1_455
S15 U7 2.793790 1_555
S15 U4 2.896120 1_555
S16 U3 2.742781 1_555
S16 U5 2.770950 1_556
S16 U4 2.837820 1_555
S16 U6 2.837820 1_555
