# generated using pymatgen
data_Li3CrF6
_symmetry_space_group_name_H-M   'P 1'
_cell_length_a   8.27017105
_cell_length_b   8.27017105
_cell_length_c   9.89060431
_cell_angle_alpha   85.14975195
_cell_angle_beta   85.14975195
_cell_angle_gamma   62.17981203
_symmetry_Int_Tables_number   1
_chemical_formula_structural   Li3CrF6
_chemical_formula_sum   'Li18 Cr6 F36'
_cell_volume   595.36248399
_cell_formula_units_Z   6
loop_
 _symmetry_equiv_pos_site_id
 _symmetry_equiv_pos_as_xyz
  1  'x, y, z'
loop_
 _atom_site_type_symbol
 _atom_site_label
 _atom_site_symmetry_multiplicity
 _atom_site_fract_x
 _atom_site_fract_y
 _atom_site_fract_z
 _atom_site_occupancy
  Li  Li0  1  0.70706004  0.00714083  0.77064634  1
  Li  Li1  1  0.99285917  0.29293996  0.72935366  1
  Li  Li2  1  0.29293996  0.99285917  0.22935366  1
  Li  Li3  1  0.00714083  0.70706004  0.27064634  1
  Li  Li4  1  0.32750039  0.63263803  0.03168391  1
  Li  Li5  1  0.36736197  0.67249961  0.46831609  1
  Li  Li6  1  0.86817903  0.46779390  0.45225123  1
  Li  Li7  1  0.53220610  0.13182097  0.04774877  1
  Li  Li8  1  0.13182097  0.53220610  0.54774877  1
  Li  Li9  1  0.46779390  0.86817903  0.95225123  1
  Li  Li10  1  0.05888398  0.34512885  0.06682033  1
  Li  Li11  1  0.65487115  0.94111602  0.43317967  1
  Li  Li12  1  0.94111602  0.65487115  0.93317967  1
  Li  Li13  1  0.34512885  0.05888398  0.56682033  1
  Li  Li14  1  0.18554720  0.81445280  0.75000000  1
  Li  Li15  1  0.81445280  0.18554720  0.25000000  1
  Li  Li16  1  0.67249961  0.36736197  0.96831609  1
  Li  Li17  1  0.63263803  0.32750039  0.53168391  1
  Cr  Cr0  1  0.66440365  0.65991537  0.20818675  1
  Cr  Cr1  1  0.34008463  0.33559635  0.29181325  1
  Cr  Cr2  1  0.33559635  0.34008463  0.79181325  1
  Cr  Cr3  1  0.65991537  0.66440365  0.70818675  1
  Cr  Cr4  1  -0.00000000  0.00000000  0.50000000  1
  Cr  Cr5  1  -0.00000000  0.00000000  0.00000000  1
  F  F0  1  0.24325718  0.56430547  0.19187287  1
  F  F1  1  0.22928988  0.27258720  0.65387932  1
  F  F2  1  0.27258720  0.22928988  0.15387932  1
  F  F3  1  0.77071012  0.72741280  0.34612068  1
  F  F4  1  0.75860775  0.08522271  0.93714466  1
  F  F5  1  0.91477729  0.24139225  0.56285534  1
  F  F6  1  0.24139225  0.91477729  0.06285534  1
  F  F7  1  0.08522271  0.75860775  0.43714466  1
  F  F8  1  0.72741280  0.77071012  0.84612068  1
  F  F9  1  0.75947738  0.09453608  0.43357487  1
  F  F10  1  0.09453608  0.75947738  0.93357487  1
  F  F11  1  0.24052262  0.90546392  0.56642513  1
  F  F12  1  0.43569453  0.75674282  0.30812713  1
  F  F13  1  0.42874188  0.40866375  0.93591210  1
  F  F14  1  0.40866375  0.42874188  0.43591210  1
  F  F15  1  0.57125812  0.59133625  0.06408790  1
  F  F16  1  0.58335716  0.89902799  0.61150903  1
  F  F17  1  0.10097201  0.41664284  0.88849097  1
  F  F18  1  0.41664284  0.10097201  0.38849097  1
  F  F19  1  0.89902799  0.58335716  0.11150903  1
  F  F20  1  0.91930631  0.93187095  0.17050847  1
  F  F21  1  0.06812905  0.08069369  0.32949153  1
  F  F22  1  0.08069369  0.06812905  0.82949153  1
  F  F23  1  0.93187095  0.91930631  0.67050847  1
  F  F24  1  0.75674282  0.43569453  0.80812713  1
  F  F25  1  0.56430547  0.24325718  0.69187287  1
  F  F26  1  0.10371975  0.42976873  0.38471452  1
  F  F27  1  0.59133625  0.57125812  0.56408790  1
  F  F28  1  0.89628025  0.57023127  0.61528548  1
  F  F29  1  0.42976873  0.10371975  0.88471452  1
  F  F30  1  0.24954138  0.57102749  0.69172947  1
  F  F31  1  0.42897251  0.75045862  0.80827053  1
  F  F32  1  0.75045862  0.42897251  0.30827053  1
  F  F33  1  0.57102749  0.24954138  0.19172947  1
  F  F34  1  0.90546392  0.24052262  0.06642513  1
  F  F35  1  0.57023127  0.89628025  0.11528548  1
loop_
_geom_bond_atom_site_label_1
_geom_bond_atom_site_label_2
_geom_bond_distance
_geom_bond_site_symmetry_2
Cr0 F12 1.897335 1_555
Cr0 F32 1.914396 1_555
Cr0 F35 1.915270 1_555
Cr0 F15 1.917419 1_555
Cr0 F19 1.929296 1_555
Cr0 F3 1.932721 1_555
Cr1 F0 1.897335 1_555
Cr1 F33 1.914396 1_555
Cr1 F26 1.915270 1_555
Cr1 F14 1.917419 1_555
Cr1 F18 1.929296 1_555
Cr1 F2 1.932721 1_555
Cr2 F25 1.897335 1_555
Cr2 F30 1.914396 1_555
Cr2 F29 1.915270 1_555
Cr2 F13 1.917419 1_555
Cr2 F17 1.929296 1_555
Cr2 F1 1.932721 1_555
Cr3 F24 1.897335 1_555
Cr3 F31 1.914396 1_555
Cr3 F28 1.915270 1_555
Cr3 F27 1.917419 1_555
Cr3 F16 1.929296 1_555
Cr3 F8 1.932721 1_555
Cr4 F21 1.899169 1_555
Cr4 F23 1.899169 1_445
Cr4 F11 1.918902 1_545
Cr4 F9 1.918902 1_455
Cr4 F7 1.921228 1_545
Cr4 F5 1.921228 1_455
Cr5 F22 1.899169 1_554
Cr5 F20 1.899169 1_445
Cr5 F34 1.918902 1_455
Cr5 F10 1.918902 1_544
Cr5 F4 1.921228 1_454
Cr5 F6 1.921228 1_545
F0 Li4 1.828772 1_555
F0 Li3 1.886903 1_555
F1 Li13 1.822157 1_555
F1 Li1 1.968776 1_455
F1 Li8 2.123237 1_555
F2 Li10 1.822157 1_555
F2 Li2 1.968776 1_545
F2 Li7 2.123237 1_555
F3 Li11 1.822157 1_555
F3 Li3 1.968776 1_655
F3 Li6 2.123237 1_555
F4 Li0 1.966234 1_555
F4 Li7 1.975459 1_556
F4 Li16 2.140142 1_555
F5 Li1 1.966234 1_555
F5 Li6 1.975459 1_555
F5 Li17 2.140142 1_555
F6 Li2 1.966234 1_555
F6 Li9 1.975459 1_554
F6 Li4 2.140142 1_555
F7 Li3 1.966234 1_555
F7 Li8 1.975459 1_555
F7 Li5 2.140142 1_555
F8 Li12 1.822157 1_555
F8 Li0 1.968776 1_565
F8 Li9 2.123237 1_555
F9 Li11 1.839640 1_545
F9 Li17 2.002887 1_555
F9 Li15 2.004645 1_555
F10 Li12 1.839640 1_455
F10 Li4 2.002887 1_556
F10 Li14 2.004645 1_555
F11 Li13 1.839640 1_565
F11 Li5 2.002887 1_555
F11 Li14 2.004645 1_555
F12 Li5 1.828772 1_555
F12 Li2 1.886903 1_555
F13 Li16 1.931667 1_555
F13 Li4 1.935026 1_556
F13 Li7 2.258510 1_556
F14 Li5 1.931667 1_555
F14 Li17 1.935026 1_555
F14 Li8 2.258510 1_555
F15 Li4 1.931667 1_555
F15 Li16 1.935026 1_554
F15 Li9 2.258510 1_554
F16 Li13 1.855276 1_565
F16 Li11 1.869176 1_555
F16 Li0 2.384845 1_565
F17 Li12 1.855276 1_455
F17 Li10 1.869176 1_556
F17 Li1 2.384845 1_455
F18 Li11 1.855276 1_545
F18 Li13 1.869176 1_555
F18 Li2 2.384845 1_545
F19 Li10 1.855276 1_655
F19 Li12 1.869176 1_554
F19 Li3 2.384845 1_655
F20 Li3 1.874831 1_655
F20 Li15 2.058406 1_565
F21 Li2 1.874831 1_545
F21 Li15 2.058406 1_455
F22 Li1 1.874831 1_455
F22 Li14 2.058406 1_545
F23 Li0 1.874831 1_565
F23 Li14 2.058406 1_655
F24 Li16 1.828772 1_555
F24 Li1 1.886903 1_555
F25 Li17 1.828772 1_555
F25 Li0 1.886903 1_555
F26 Li6 1.892973 1_455
F26 Li8 1.962153 1_555
F26 Li3 2.274858 1_555
F27 Li17 1.931667 1_555
F27 Li5 1.935026 1_555
F27 Li6 2.258510 1_555
F28 Li8 1.892973 1_655
F28 Li6 1.962153 1_555
F28 Li1 2.274858 1_555
F29 Li9 1.892973 1_545
F29 Li7 1.962153 1_556
F29 Li0 2.274858 1_555
F30 Li8 1.918950 1_555
F30 Li14 1.953263 1_555
F31 Li9 1.918950 1_555
F31 Li14 1.953263 1_555
F32 Li6 1.918950 1_555
F32 Li15 1.953263 1_555
F33 Li7 1.918950 1_555
F33 Li15 1.953263 1_555
F34 Li10 1.839640 1_655
F34 Li16 2.002887 1_554
F34 Li15 2.004645 1_555
F35 Li7 1.892973 1_565
F35 Li9 1.962153 1_554
F35 Li2 2.274858 1_555
