# generated using pymatgen
data_Ba5P9
_symmetry_space_group_name_H-M   'P 1'
_cell_length_a   9.44716079
_cell_length_b   9.44710574
_cell_length_c   10.90495685
_cell_angle_alpha   105.17044774
_cell_angle_beta   105.16992387
_cell_angle_gamma   113.31681860
_symmetry_Int_Tables_number   1
_chemical_formula_structural   Ba5P9
_chemical_formula_sum   'Ba10 P18'
_cell_volume   785.96082413
_cell_formula_units_Z   2
loop_
 _symmetry_equiv_pos_site_id
 _symmetry_equiv_pos_as_xyz
  1  'x, y, z'
loop_
 _atom_site_type_symbol
 _atom_site_label
 _atom_site_symmetry_multiplicity
 _atom_site_fract_x
 _atom_site_fract_y
 _atom_site_fract_z
 _atom_site_occupancy
  Ba  Ba0  1  0.01049299  0.98342051  0.63487500  1
  Ba  Ba1  1  0.66174658  0.16174889  0.50010863  1
  Ba  Ba2  1  0.62558655  0.09854343  0.86513942  1
  Ba  Ba3  1  0.34855351  0.37558390  0.36523250  1
  Ba  Ba4  1  0.68190185  0.64999842  0.78170111  1
  Ba  Ba5  1  0.41167748  0.41169411  -0.00005423  1
  Ba  Ba6  1  0.15015840  0.61822558  0.71831445  1
  Ba  Ba7  1  0.90004074  0.43191969  0.28171550  1
  Ba  Ba8  1  0.86827795  0.90018026  0.21831612  1
  Ba  Ba9  1  0.23332226  0.76040698  0.13478879  1
  P  P0  1  0.61290940  0.03704607  0.14512395  1
  P  P1  1  0.53061446  0.80470864  0.55587126  1
  P  P2  1  0.76753802  0.55759028  0.51970466  1
  P  P3  1  0.02668654  0.02667837  0.99986613  1
  P  P4  1  0.22485909  0.99896440  0.94407403  1
  P  P5  1  0.27666880  0.77672293  0.49992236  1
  P  P6  1  0.03795655  0.24787781  0.48041981  1
  P  P7  1  0.05471421  0.28063150  0.05581688  1
  P  P8  1  0.24897486  0.97489618  0.44412037  1
  P  P9  1  0.39085311  0.19324208  0.64700848  1
  P  P10  1  0.28712048  0.36295680  0.64518408  1
  P  P11  1  0.80755427  0.51748790  0.01963676  1
  P  P12  1  0.89186561  0.46772331  0.85484653  1
  P  P13  1  0.71776882  0.64192069  0.35492684  1
  P  P14  1  0.49784657  0.78790240  0.98033617  1
  P  P15  1  0.44322245  0.14082562  0.14694164  1
  P  P16  1  0.54624138  0.74385363  0.35305736  1
  P  P17  1  0.99384706  0.29624963  0.85300442  1
loop_
_geom_bond_atom_site_label_1
_geom_bond_atom_site_label_2
_geom_bond_distance
_geom_bond_site_symmetry_2
Ba0 P13 3.277132 1_455
Ba0 P9 3.291499 1_565
Ba0 P6 3.326267 1_565
Ba0 P17 3.361736 1_465
Ba0 P4 3.379872 1_555
Ba0 P2 3.400942 1_455
Ba0 P10 3.451912 1_565
Ba0 P8 3.452281 1_555
Ba0 P1 3.909048 1_455
Ba1 P8 3.381672 1_545
Ba1 P1 3.382523 1_545
Ba1 P2 3.397076 1_555
Ba1 P6 3.397265 1_655
Ba1 P9 3.420965 1_555
Ba1 P16 3.421783 1_545
Ba1 P12 3.580177 1_555
Ba1 P0 3.582487 1_555
Ba1 P17 3.772704 1_555
Ba1 P15 3.775005 1_555
Ba2 P0 3.276997 1_556
Ba2 P17 3.291794 1_555
Ba2 P11 3.326585 1_556
Ba2 P9 3.361516 1_555
Ba2 P1 3.380768 1_545
Ba2 P14 3.400877 1_545
Ba2 P12 3.451366 1_555
Ba2 P7 3.451581 1_656
Ba2 P4 3.907394 1_545
Ba3 P10 3.276293 1_555
Ba3 P16 3.292029 1_555
Ba3 P2 3.326890 1_555
Ba3 P15 3.362483 1_555
Ba3 P7 3.382020 1_555
Ba3 P6 3.400437 1_555
Ba3 P1 3.451488 1_555
Ba3 P13 3.451872 1_555
Ba3 P8 3.906756 1_545
Ba4 P2 3.169040 1_555
Ba4 P12 3.182874 1_555
Ba4 P10 3.233328 1_555
Ba4 P11 3.312547 1_556
Ba4 P3 3.357134 1_665
Ba4 P14 3.420559 1_555
Ba4 P1 3.455284 1_555
Ba4 P9 3.676125 1_555
Ba5 P4 3.381613 1_544
Ba5 P7 3.382506 1_555
Ba5 P14 3.396825 1_554
Ba5 P11 3.397107 1_555
Ba5 P17 3.421313 1_454
Ba5 P15 3.421549 1_555
Ba5 P10 3.580433 1_554
Ba5 P13 3.582391 1_555
Ba5 P9 3.773048 1_554
Ba5 P16 3.774445 1_555
Ba6 P14 3.169482 1_555
Ba6 P10 3.182666 1_555
Ba6 P12 3.233485 1_455
Ba6 P6 3.311967 1_555
Ba6 P5 3.358816 1_555
Ba6 P2 3.420388 1_455
Ba6 P4 3.455887 1_555
Ba6 P17 3.675300 1_455
Ba7 P11 3.169574 1_555
Ba7 P13 3.183276 1_555
Ba7 P0 3.234096 1_555
Ba7 P2 3.312992 1_555
Ba7 P5 3.357044 1_655
Ba7 P6 3.421017 1_655
Ba7 P7 3.455540 1_655
Ba7 P15 3.676584 1_555
Ba8 P6 3.169952 1_665
Ba8 P0 3.182890 1_565
Ba8 P13 3.233942 1_555
Ba8 P14 3.312749 1_554
Ba8 P3 3.358943 1_664
Ba8 P11 3.420803 1_555
Ba8 P8 3.455749 1_655
Ba8 P16 3.676179 1_555
Ba9 P12 3.276865 1_454
Ba9 P15 3.291982 1_565
Ba9 P14 3.326763 1_554
Ba9 P16 3.362610 1_555
Ba9 P8 3.380957 1_555
Ba9 P11 3.400469 1_455
Ba9 P0 3.452186 1_565
Ba9 P4 3.452462 1_554
Ba9 P7 3.908262 1_555
P0 P14 2.165471 1_544
P0 P15 2.186789 1_555
P1 P16 2.194633 1_555
P1 P5 2.201151 1_555
P3 P4 2.201027 1_545
P3 P7 2.201047 1_556
P5 P8 2.201007 1_555
P8 P9 2.194808 1_565
P10 P6 2.165491 1_555
P10 P9 2.186705 1_555
P11 P12 2.165209 1_554
P12 P17 2.186636 1_555
P13 P2 2.165225 1_555
P13 P16 2.186746 1_555
P15 P4 2.194761 1_544
P17 P7 2.194591 1_656
