# generated using pymatgen
data_Eu3Sb5O12
_symmetry_space_group_name_H-M   'P 1'
_cell_length_a   9.56791275
_cell_length_b   9.56791275
_cell_length_c   9.56791275
_cell_angle_alpha   109.47122063
_cell_angle_beta   109.47122063
_cell_angle_gamma   109.47122063
_symmetry_Int_Tables_number   1
_chemical_formula_structural   Eu3Sb5O12
_chemical_formula_sum   'Eu6 Sb10 O24'
_cell_volume   674.26361986
_cell_formula_units_Z   2
loop_
 _symmetry_equiv_pos_site_id
 _symmetry_equiv_pos_as_xyz
  1  'x, y, z'
loop_
 _atom_site_type_symbol
 _atom_site_label
 _atom_site_symmetry_multiplicity
 _atom_site_fract_x
 _atom_site_fract_y
 _atom_site_fract_z
 _atom_site_occupancy
  Eu  Eu0  1  0.25000000  0.75000000  0.50000000  1
  Eu  Eu1  1  0.50000000  0.25000000  0.75000000  1
  Eu  Eu2  1  0.50000000  0.75000000  0.25000000  1
  Eu  Eu3  1  0.25000000  0.50000000  0.75000000  1
  Eu  Eu4  1  0.75000000  0.50000000  0.25000000  1
  Eu  Eu5  1  0.75000000  0.25000000  0.50000000  1
  Sb  Sb0  1  0.27673700  0.00000000  0.27673700  1
  Sb  Sb1  1  0.72326300  0.00000000  0.72326300  1
  Sb  Sb2  1  0.72326300  0.72326300  0.00000000  1
  Sb  Sb3  1  0.27673700  0.27673700  0.00000000  1
  Sb  Sb4  1  0.00000000  0.27673700  0.27673700  1
  Sb  Sb5  1  0.00000000  0.72326300  0.72326300  1
  Sb  Sb6  1  0.50255400  0.50255400  0.50255400  1
  Sb  Sb7  1  0.00000000  0.00000000  0.49744600  1
  Sb  Sb8  1  0.49744600  0.00000000  0.00000000  1
  Sb  Sb9  1  0.00000000  0.49744600  0.00000000  1
  O  O0  1  0.51317400  0.51317400  0.79639200  1
  O  O1  1  0.00000000  0.28321800  0.48682600  1
  O  O2  1  0.20360800  0.71678200  0.71678200  1
  O  O3  1  0.71678200  0.20360800  0.71678200  1
  O  O4  1  0.28321800  0.00000000  0.48682600  1
  O  O5  1  0.48682600  0.28321800  0.00000000  1
  O  O6  1  0.28321800  0.48682600  0.00000000  1
  O  O7  1  0.48682600  0.00000000  0.28321800  1
  O  O8  1  0.00000000  0.48682600  0.28321800  1
  O  O9  1  0.79639200  0.51317400  0.51317400  1
  O  O10  1  0.51317400  0.79639200  0.51317400  1
  O  O11  1  0.71678200  0.71678200  0.20360800  1
  O  O12  1  0.47012900  0.27255400  0.47012900  1
  O  O13  1  0.80242400  0.00000000  0.52987100  1
  O  O14  1  0.52987100  0.00000000  0.80242400  1
  O  O15  1  0.80242400  0.52987100  0.00000000  1
  O  O16  1  0.19757600  0.19757600  0.72744600  1
  O  O17  1  0.72744600  0.19757600  0.19757600  1
  O  O18  1  0.00000000  0.52987100  0.80242400  1
  O  O19  1  0.00000000  0.80242400  0.52987100  1
  O  O20  1  0.52987100  0.80242400  0.00000000  1
  O  O21  1  0.47012900  0.47012900  0.27255400  1
  O  O22  1  0.27255400  0.47012900  0.47012900  1
  O  O23  1  0.19757600  0.72744600  0.19757600  1
loop_
_geom_bond_atom_site_label_1
_geom_bond_atom_site_label_2
_geom_bond_distance
_geom_bond_site_symmetry_2
Eu0 O4 2.357827 1_565
Eu0 O8 2.357827 1_555
Eu0 O10 2.357827 1_555
Eu0 O2 2.357827 1_555
Eu0 O23 2.686049 1_555
Eu0 O14 2.686053 1_565
Eu0 O19 2.686053 1_555
Eu0 O22 2.686057 1_555
Eu1 O3 2.357827 1_555
Eu1 O5 2.357827 1_556
Eu1 O0 2.357827 1_555
Eu1 O4 2.357827 1_555
Eu1 O16 2.686049 1_555
Eu1 O14 2.686053 1_555
Eu1 O15 2.686053 1_556
Eu1 O12 2.686057 1_555
Eu2 O10 2.357827 1_555
Eu2 O6 2.357827 1_555
Eu2 O11 2.357827 1_555
Eu2 O7 2.357827 1_565
Eu2 O23 2.686049 1_555
Eu2 O20 2.686053 1_555
Eu2 O13 2.686053 1_565
Eu2 O21 2.686057 1_555
Eu3 O6 2.357827 1_556
Eu3 O0 2.357827 1_555
Eu3 O2 2.357827 1_555
Eu3 O1 2.357827 1_555
Eu3 O16 2.686049 1_555
Eu3 O20 2.686053 1_556
Eu3 O18 2.686053 1_555
Eu3 O22 2.686057 1_555
Eu4 O5 2.357827 1_555
Eu4 O8 2.357827 1_655
Eu4 O9 2.357827 1_555
Eu4 O11 2.357827 1_555
Eu4 O17 2.686049 1_555
Eu4 O15 2.686053 1_555
Eu4 O19 2.686053 1_655
Eu4 O21 2.686057 1_555
Eu5 O1 2.357827 1_655
Eu5 O7 2.357827 1_555
Eu5 O9 2.357827 1_555
Eu5 O3 2.357827 1_555
Eu5 O17 2.686049 1_555
Eu5 O13 2.686053 1_555
Eu5 O18 2.686053 1_655
Eu5 O12 2.686057 1_555
O0 Sb2 1.990302 1_556
O1 Sb4 1.990302 1_555
O2 Sb5 1.990302 1_555
O3 Sb1 1.990302 1_555
O4 Sb0 1.990302 1_555
O5 Sb3 1.990302 1_555
O6 Sb3 1.990302 1_555
O7 Sb0 1.990302 1_555
O8 Sb4 1.990302 1_555
O9 Sb5 1.990302 1_655
O10 Sb1 1.990302 1_565
O11 Sb2 1.990302 1_555
O12 Sb6 2.015134 1_555
O12 Sb0 2.220772 1_555
O13 Sb7 2.015144 1_655
O13 Sb1 2.220766 1_555
O14 Sb8 2.015144 1_556
O14 Sb1 2.220766 1_555
O15 Sb9 2.015144 1_655
O15 Sb2 2.220766 1_555
O16 Sb7 2.015139 1_555
O16 Sb3 2.220775 1_556
O17 Sb8 2.015139 1_555
O17 Sb4 2.220775 1_655
O18 Sb9 2.015144 1_556
O18 Sb5 2.220766 1_555
O19 Sb7 2.015144 1_565
O19 Sb5 2.220766 1_555
O20 Sb8 2.015144 1_565
O20 Sb2 2.220766 1_555
O21 Sb6 2.015134 1_555
O21 Sb3 2.220772 1_555
O22 Sb6 2.015134 1_555
O22 Sb4 2.220772 1_555
O23 Sb9 2.015139 1_555
O23 Sb0 2.220775 1_565
