# generated using pymatgen
data_Y2Ni7
_symmetry_space_group_name_H-M   'P 1'
_cell_length_a   12.36865305
_cell_length_b   12.36865305
_cell_length_c   12.36865364
_cell_angle_alpha   23.02863988
_cell_angle_beta   23.02863988
_cell_angle_gamma   23.02864013
_symmetry_Int_Tables_number   1
_chemical_formula_structural   Y2Ni7
_chemical_formula_sum   'Y4 Ni14'
_cell_volume   254.14447659
_cell_formula_units_Z   2
loop_
 _symmetry_equiv_pos_site_id
 _symmetry_equiv_pos_as_xyz
  1  'x, y, z'
loop_
 _atom_site_type_symbol
 _atom_site_label
 _atom_site_symmetry_multiplicity
 _atom_site_fract_x
 _atom_site_fract_y
 _atom_site_fract_z
 _atom_site_occupancy
  Y  Y0  1  0.94956400  0.94956400  0.94956400  1
  Y  Y1  1  0.14716200  0.14716200  0.14716200  1
  Y  Y2  1  0.05043600  0.05043600  0.05043600  1
  Y  Y3  1  0.85283800  0.85283800  0.85283800  1
  Ni  Ni0  1  0.72181900  0.72181900  0.72181900  1
  Ni  Ni1  1  0.38826500  0.38826500  0.38826500  1
  Ni  Ni2  1  0.38998800  0.89113400  0.38998800  1
  Ni  Ni3  1  0.61173500  0.61173500  0.61173500  1
  Ni  Ni4  1  0.00000000  0.50000000  0.50000000  1
  Ni  Ni5  1  0.61001200  0.61001200  0.10886600  1
  Ni  Ni6  1  0.50000000  0.50000000  0.50000000  1
  Ni  Ni7  1  0.38998800  0.38998800  0.89113400  1
  Ni  Ni8  1  0.27818100  0.27818100  0.27818100  1
  Ni  Ni9  1  0.61001200  0.10886600  0.61001200  1
  Ni  Ni10  1  0.89113400  0.38998800  0.38998800  1
  Ni  Ni11  1  0.50000000  0.00000000  0.50000000  1
  Ni  Ni12  1  0.50000000  0.50000000  0.00000000  1
  Ni  Ni13  1  0.10886600  0.61001200  0.61001200  1
loop_
_geom_bond_atom_site_label_1
_geom_bond_atom_site_label_2
_geom_bond_distance
_geom_bond_site_symmetry_2
Ni0 Ni9 2.427291 1_565
Ni0 Ni13 2.427291 1_655
Ni0 Ni5 2.427291 1_556
Ni0 Ni12 2.448974 1_556
Ni0 Ni4 2.448974 1_655
Ni0 Ni11 2.448974 1_565
Ni0 Y2 2.855970 1_656
Ni0 Y2 2.855970 1_566
Ni0 Y2 2.855970 1_665
Ni1 Ni5 2.437576 1_555
Ni1 Ni9 2.437577 1_555
Ni1 Ni13 2.437577 1_555
Ni1 Ni4 2.442499 1_555
Ni1 Ni11 2.442499 1_555
Ni1 Ni12 2.442500 1_555
Ni1 Y2 2.855506 1_565
Ni1 Y2 2.855506 1_655
Ni1 Y2 2.855506 1_556
Ni2 Ni8 2.427291 1_565
Ni2 Ni3 2.437577 1_555
Ni2 Ni7 2.463283 1_564
Ni2 Ni7 2.474601 1_555
Ni2 Ni6 2.506472 1_555
Ni2 Y3 2.816407 1_455
Ni2 Y3 2.816407 1_554
Ni2 Y1 3.108125 1_565
Ni2 Y0 3.265543 1_554
Ni2 Y0 3.265543 1_455
Ni3 Ni7 2.437576 1_555
Ni3 Ni4 2.442499 1_655
Ni3 Y0 2.855506 1_545
Ni3 Y0 2.855506 1_455
Ni3 Y0 2.855506 1_554
Ni4 Ni8 2.448974 1_555
Ni4 Y2 3.067902 1_565
Ni4 Y0 3.067902 1_445
Ni4 Y2 3.067902 1_556
Ni4 Y0 3.067902 1_454
Ni5 Ni9 2.463283 1_564
Ni5 Ni9 2.474601 1_555
Ni5 Ni6 2.506472 1_555
Ni5 Y1 2.816407 1_565
Ni5 Y1 2.816407 1_655
Ni5 Y3 3.108124 1_554
Ni5 Y2 3.265543 1_565
Ni5 Y2 3.265543 1_655
Ni6 Ni9 2.506472 1_555
Ni6 Ni7 2.506472 1_555
Ni6 Y3 2.936586 1_554
Ni6 Y1 2.936586 1_556
Ni6 Y3 2.936586 1_455
Ni6 Y1 2.936586 1_655
Ni6 Y3 2.936586 1_545
Ni6 Y1 2.936586 1_565
Ni7 Ni8 2.427291 1_556
Ni7 Y3 2.816407 1_545
Ni7 Y3 2.816407 1_455
Ni7 Y1 3.108124 1_556
Ni7 Y0 3.265543 1_545
Ni7 Y0 3.265543 1_455
Ni8 Y0 2.855970 1_544
Ni8 Y0 2.855970 1_454
Ni8 Y0 2.855970 1_445
Ni9 Y1 2.816407 1_655
Ni9 Y1 2.816407 1_556
Ni9 Y3 3.108125 1_545
Ni9 Y2 3.265543 1_556
Ni9 Y2 3.265543 1_655
Ni10 Ni8 2.427291 1_655
Ni10 Ni3 2.437577 1_555
Ni10 Ni2 2.463283 1_645
Ni10 Ni7 2.463283 1_654
Ni10 Ni2 2.474601 1_555
Ni10 Ni7 2.474601 1_555
Ni10 Ni6 2.506472 1_555
Ni10 Y3 2.816407 1_545
Ni10 Y3 2.816407 1_554
Ni10 Y1 3.108125 1_655
Ni10 Y0 3.265543 1_554
Ni10 Y0 3.265543 1_545
Ni11 Ni3 2.442499 1_545
Ni11 Ni8 2.448974 1_555
Ni11 Ni4 2.468942 1_555
Ni11 Ni4 2.468942 1_645
Ni11 Ni12 2.468942 1_546
Ni11 Ni12 2.468942 1_555
Ni11 Y2 3.067902 1_655
Ni11 Y0 3.067902 1_445
Ni11 Y2 3.067902 1_556
Ni11 Y0 3.067902 1_544
Ni12 Ni3 2.442500 1_554
Ni12 Ni8 2.448974 1_555
Ni12 Ni4 2.468942 1_654
Ni12 Ni4 2.468942 1_555
Ni12 Y2 3.067902 1_655
Ni12 Y2 3.067902 1_565
Ni12 Y0 3.067902 1_454
Ni12 Y0 3.067902 1_544
Ni13 Ni9 2.463283 1_465
Ni13 Ni5 2.463283 1_456
Ni13 Ni9 2.474601 1_555
Ni13 Ni5 2.474601 1_555
Ni13 Ni6 2.506472 1_555
Ni13 Y1 2.816407 1_565
Ni13 Y1 2.816407 1_556
Ni13 Y3 3.108125 1_455
Ni13 Y2 3.265543 1_556
Ni13 Y2 3.265543 1_565
