# generated using pymatgen
data_Ba3Na2(CN2)4
_symmetry_space_group_name_H-M   'P 1'
_cell_length_a   10.13680500
_cell_length_b   6.41935600
_cell_length_c   17.96158507
_cell_angle_alpha   69.52514357
_cell_angle_beta   90.00000000
_cell_angle_gamma   90.00000000
_symmetry_Int_Tables_number   1
_chemical_formula_structural   Ba3Na2(CN2)4
_chemical_formula_sum   'Ba12 Na8 C16 N32'
_cell_volume   1094.95443658
_cell_formula_units_Z   4
loop_
 _symmetry_equiv_pos_site_id
 _symmetry_equiv_pos_as_xyz
  1  'x, y, z'
loop_
 _atom_site_type_symbol
 _atom_site_label
 _atom_site_symmetry_multiplicity
 _atom_site_fract_x
 _atom_site_fract_y
 _atom_site_fract_z
 _atom_site_occupancy
  Ba  Ba0  1  0.68022000  0.58595700  0.65364200  1
  Ba  Ba1  1  0.87364800  0.89351100  0.85720000  1
  Ba  Ba2  1  0.69068600  0.23209000  0.00659300  1
  Ba  Ba3  1  0.31978000  0.41404300  0.34635800  1
  Ba  Ba4  1  0.80931400  0.23209000  0.50659300  1
  Ba  Ba5  1  0.37364800  0.10648900  0.64280000  1
  Ba  Ba6  1  0.30931400  0.76791000  0.99340700  1
  Ba  Ba7  1  0.19068600  0.76791000  0.49340700  1
  Ba  Ba8  1  0.12635200  0.10648900  0.14280000  1
  Ba  Ba9  1  0.18022000  0.41404300  0.84635800  1
  Ba  Ba10  1  0.81978000  0.58595700  0.15364200  1
  Ba  Ba11  1  0.62635200  0.89351100  0.35720000  1
  Na  Na0  1  0.52150000  0.61265500  0.83119500  1
  Na  Na1  1  0.02150000  0.38734500  0.66880500  1
  Na  Na2  1  0.47674800  0.89005300  0.17002000  1
  Na  Na3  1  0.02325200  0.89005300  0.67002000  1
  Na  Na4  1  0.97850000  0.61265500  0.33119500  1
  Na  Na5  1  0.52325200  0.10994700  0.82998000  1
  Na  Na6  1  0.97674800  0.10994700  0.32998000  1
  Na  Na7  1  0.47850000  0.38734500  0.16880500  1
  C  C0  1  0.67333100  0.43964400  0.30917400  1
  C  C1  1  0.17333100  0.56035600  0.19082600  1
  C  C2  1  0.50000000  0.00000000  0.50000000  1
  C  C3  1  0.32666900  0.56035600  0.69082600  1
  C  C4  1  0.10430700  0.25785500  0.49759800  1
  C  C5  1  0.77744600  0.04307800  0.20046400  1
  C  C6  1  0.72255400  0.04307800  0.70046400  1
  C  C7  1  0.89569300  0.74214500  0.50240200  1
  C  C8  1  0.39569300  0.25785500  0.99759800  1
  C  C9  1  0.60430700  0.74214500  0.00240200  1
  C  C10  1  0.00000000  0.50000000  0.00000000  1
  C  C11  1  0.27744600  0.95692200  0.29953600  1
  C  C12  1  0.00000000  0.00000000  0.00000000  1
  C  C13  1  0.22255400  0.95692200  0.79953600  1
  C  C14  1  0.82666900  0.43964400  0.80917400  1
  C  C15  1  0.50000000  0.50000000  0.50000000  1
  N  N0  1  0.62182300  0.72757900  0.93607000  1
  N  N1  1  0.82557100  0.15043700  0.67600300  1
  N  N2  1  0.61591700  0.93590100  0.51157000  1
  N  N3  1  0.92250400  0.39482700  0.05317300  1
  N  N4  1  0.38408300  0.06409900  0.48843000  1
  N  N5  1  0.37831600  0.06702200  0.27250400  1
  N  N6  1  0.88408300  0.93590100  0.01157000  1
  N  N7  1  0.07627900  0.44590200  0.22297500  1
  N  N8  1  0.22655600  0.67155700  0.66211100  1
  N  N9  1  0.92372100  0.55409800  0.77702500  1
  N  N10  1  0.58070700  0.75740100  0.06833900  1
  N  N11  1  0.87831600  0.93297800  0.22749600  1
  N  N12  1  0.57627900  0.55409800  0.27702500  1
  N  N13  1  0.57749600  0.39482700  0.55317300  1
  N  N14  1  0.12168400  0.06702200  0.77250400  1
  N  N15  1  0.11591700  0.06409900  0.98843000  1
  N  N16  1  0.17442900  0.84956300  0.32399700  1
  N  N17  1  0.37817700  0.27242100  0.06393000  1
  N  N18  1  0.42372100  0.44590200  0.72297500  1
  N  N19  1  0.77344400  0.32844300  0.33788900  1
  N  N20  1  0.62168400  0.93297800  0.72749600  1
  N  N21  1  0.07749600  0.60517300  0.94682700  1
  N  N22  1  0.27344400  0.67155700  0.16211100  1
  N  N23  1  0.72655600  0.32844300  0.83788900  1
  N  N24  1  0.91929300  0.75740100  0.56833900  1
  N  N25  1  0.41929300  0.24259900  0.93166100  1
  N  N26  1  0.42250400  0.60517300  0.44682700  1
  N  N27  1  0.67442900  0.15043700  0.17600300  1
  N  N28  1  0.12182300  0.27242100  0.56393000  1
  N  N29  1  0.87817700  0.72757900  0.43607000  1
  N  N30  1  0.08070700  0.24259900  0.43166100  1
  N  N31  1  0.32557100  0.84956300  0.82399700  1
loop_
_geom_bond_atom_site_label_1
_geom_bond_atom_site_label_2
_geom_bond_distance
_geom_bond_site_symmetry_2
Ba0 N13 2.719400 1_555
Ba0 N2 2.823603 1_555
Ba0 N24 2.872656 1_555
Ba0 N18 2.887264 1_555
Ba0 C14 3.009080 1_555
Ba0 N20 3.023499 1_555
Ba0 N1 3.059887 1_555
Ba1 N21 2.864065 1_655
Ba1 N6 2.881165 1_556
Ba1 N0 2.932928 1_555
Ba1 N14 2.948074 1_665
Ba1 N9 3.045281 1_555
Ba1 C6 3.049950 1_565
Ba1 N23 3.075905 1_565
Ba1 N1 3.129658 1_565
Ba1 C12 3.148520 1_666
Ba1 C10 3.172943 1_656
Ba1 C14 3.338560 1_565
Ba1 C14 3.349306 1_555
Ba1 N20 3.406200 1_555
Ba2 N6 2.710620 1_545
Ba2 N3 2.815097 1_555
Ba2 N23 2.895796 1_554
Ba2 N27 2.906055 1_555
Ba2 C8 2.996094 1_554
Ba2 N25 3.052997 1_554
Ba2 N0 3.064330 1_554
Ba2 N10 3.064963 1_545
Ba3 N26 2.719400 1_555
Ba3 N4 2.823603 1_555
Ba3 N30 2.872656 1_555
Ba3 N12 2.887264 1_555
Ba3 C1 3.009080 1_555
Ba3 N5 3.023499 1_555
Ba3 N16 3.059887 1_555
Ba4 N2 2.710620 1_545
Ba4 N13 2.815097 1_555
Ba4 N19 2.895796 1_555
Ba4 N1 2.906055 1_555
Ba4 C4 2.996094 1_655
Ba4 N30 3.052997 1_655
Ba4 N29 3.064330 1_555
Ba4 N24 3.064963 1_545
Ba5 N13 2.864065 1_555
Ba5 N4 2.881165 1_555
Ba5 N28 2.932928 1_555
Ba5 N20 2.948074 1_545
Ba5 N18 3.045281 1_555
Ba5 C13 3.049950 1_545
Ba5 N8 3.075905 1_545
Ba5 N31 3.129658 1_545
Ba5 C2 3.148520 1_555
Ba5 C15 3.172943 1_555
Ba5 C3 3.338560 1_545
Ba5 C3 3.349306 1_555
Ba5 N14 3.406200 1_555
Ba6 N15 2.710620 1_565
Ba6 N21 2.815097 1_555
Ba6 N22 2.895796 1_556
Ba6 N31 2.906055 1_555
Ba6 C9 2.996094 1_556
Ba6 N10 3.052997 1_556
Ba6 N17 3.064330 1_556
Ba6 N25 3.064963 1_565
Ba7 N4 2.710620 1_565
Ba7 N26 2.815097 1_555
Ba7 N8 2.895796 1_555
Ba7 N16 2.906055 1_555
Ba7 C7 2.996094 1_455
Ba7 N24 3.052997 1_455
Ba7 N28 3.064330 1_555
Ba7 N30 3.064963 1_565
Ba8 N3 2.864065 1_455
Ba8 N15 2.881165 1_554
Ba8 N17 2.932928 1_555
Ba8 N11 2.948074 1_445
Ba8 N7 3.045281 1_555
Ba8 C11 3.049950 1_545
Ba8 N22 3.075905 1_545
Ba8 N16 3.129658 1_545
Ba8 C12 3.148520 1_555
Ba8 C10 3.172943 1_555
Ba8 C1 3.338560 1_545
Ba8 C1 3.349306 1_555
Ba8 N5 3.406200 1_555
Ba9 N21 2.719400 1_555
Ba9 N15 2.823603 1_555
Ba9 N25 2.872656 1_555
Ba9 N9 2.887264 1_455
Ba9 C3 3.009080 1_555
Ba9 N14 3.023499 1_555
Ba9 N31 3.059887 1_555
Ba10 N3 2.719400 1_555
Ba10 N6 2.823603 1_555
Ba10 N10 2.872656 1_555
Ba10 N7 2.887264 1_655
Ba10 C0 3.009080 1_555
Ba10 N11 3.023499 1_555
Ba10 N27 3.059887 1_555
Ba11 N26 2.864065 1_555
Ba11 N2 2.881165 1_555
Ba11 N29 2.932928 1_555
Ba11 N5 2.948074 1_565
Ba11 N12 3.045281 1_555
Ba11 C5 3.049950 1_565
Ba11 N19 3.075905 1_565
Ba11 N27 3.129658 1_565
Ba11 C2 3.148520 1_565
Ba11 C15 3.172943 1_555
Ba11 C0 3.338560 1_565
Ba11 C0 3.349306 1_555
Ba11 N11 3.406200 1_555
C0 N12 1.242701 1_555
C0 N19 1.244139 1_555
C1 N7 1.242701 1_555
C1 N22 1.244139 1_555
C2 N4 1.238292 1_555
C2 N2 1.238292 1_545
C3 N18 1.242701 1_555
C3 N8 1.244139 1_555
C4 N28 1.240043 1_555
C4 N30 1.245235 1_555
C5 N11 1.241250 1_545
C5 N27 1.243644 1_555
C6 N20 1.241250 1_545
C6 N1 1.243644 1_555
C7 N29 1.240043 1_555
C7 N24 1.245235 1_555
C8 N17 1.240043 1_556
C8 N25 1.245235 1_555
C9 N0 1.240043 1_554
C9 N10 1.245235 1_555
C10 N3 1.238541 1_455
C10 N21 1.238541 1_554
C11 N5 1.241250 1_565
C11 N16 1.243644 1_555
C12 N15 1.238292 1_554
C12 N6 1.238292 1_445
C13 N14 1.241250 1_565
C13 N31 1.243644 1_555
C14 N9 1.242701 1_555
C14 N23 1.244139 1_555
C15 N26 1.238541 1_555
C15 N13 1.238541 1_555
N0 Na0 2.469631 1_555
N0 Na5 2.717012 1_565
N1 Na1 2.477207 1_655
N1 Na3 2.635630 1_645
N5 Na7 2.459553 1_555
N5 Na2 2.671620 1_545
N7 Na6 2.542270 1_455
N7 Na4 2.713357 1_455
N8 Na3 2.524676 1_555
N8 Na1 2.740487 1_555
N9 Na3 2.542270 1_655
N9 Na1 2.713357 1_655
N10 Na2 2.501843 1_555
N10 Na7 2.640812 1_555
N11 Na4 2.459553 1_555
N11 Na6 2.671620 1_565
N12 Na2 2.542270 1_555
N12 Na7 2.713357 1_555
N14 Na1 2.459553 1_555
N14 Na3 2.671620 1_545
N16 Na4 2.477207 1_455
N16 Na6 2.635630 1_465
N17 Na7 2.469631 1_555
N17 Na2 2.717012 1_545
N18 Na5 2.542270 1_555
N18 Na0 2.713357 1_555
N19 Na6 2.524676 1_555
N19 Na4 2.740487 1_555
N20 Na0 2.459553 1_555
N20 Na5 2.671620 1_565
N22 Na2 2.524676 1_555
N22 Na7 2.740487 1_555
N23 Na5 2.524676 1_555
N23 Na0 2.740487 1_555
N24 Na3 2.501843 1_655
N24 Na1 2.640812 1_655
N25 Na5 2.501843 1_555
N25 Na0 2.640812 1_555
N27 Na7 2.477207 1_555
N27 Na2 2.635630 1_545
N28 Na1 2.469631 1_555
N28 Na3 2.717012 1_545
N29 Na4 2.469631 1_555
N29 Na6 2.717012 1_565
N30 Na6 2.501843 1_455
N30 Na4 2.640812 1_455
N31 Na0 2.477207 1_555
N31 Na5 2.635630 1_565
