# generated using pymatgen
data_Rb2(ReS2)3
_symmetry_space_group_name_H-M   'P 1'
_cell_length_a   9.84401768
_cell_length_b   9.84400838
_cell_length_c   12.06767192
_cell_angle_alpha   88.86432108
_cell_angle_beta   88.86427132
_cell_angle_gamma   60.26323318
_symmetry_Int_Tables_number   1
_chemical_formula_structural   Rb2(ReS2)3
_chemical_formula_sum   'Rb8 Re12 S24'
_cell_volume   1015.15014769
_cell_formula_units_Z   4
loop_
 _symmetry_equiv_pos_site_id
 _symmetry_equiv_pos_as_xyz
  1  'x, y, z'
loop_
 _atom_site_type_symbol
 _atom_site_label
 _atom_site_symmetry_multiplicity
 _atom_site_fract_x
 _atom_site_fract_y
 _atom_site_fract_z
 _atom_site_occupancy
  Rb  Rb0  1  0.61918102  0.38081922  0.24999997  1
  Rb  Rb1  1  0.86090500  0.36696245  0.48026462  1
  Rb  Rb2  1  0.21621304  0.78378686  0.24999968  1
  Rb  Rb3  1  0.13910164  0.63302862  0.51977355  1
  Rb  Rb4  1  0.78379141  0.21620892  0.74999966  1
  Rb  Rb5  1  0.36696804  0.86090299  0.98022624  1
  Rb  Rb6  1  0.38080821  0.61919174  0.74999978  1
  Rb  Rb7  1  0.63303801  0.13909376  0.01973409  1
  Re  Re0  1  0.99732234  0.68807158  0.97817896  1
  Re  Re1  1  0.53861493  0.88043283  0.37340377  1
  Re  Re2  1  0.11956732  0.46138378  0.12659593  1
  Re  Re3  1  0.88043307  0.53861215  0.87339540  1
  Re  Re4  1  0.00267544  0.31192073  0.02179424  1
  Re  Re5  1  0.39917713  0.18131090  0.41351814  1
  Re  Re6  1  0.18130920  0.39917055  0.91350900  1
  Re  Re7  1  0.81868838  0.60082390  0.08648109  1
  Re  Re8  1  0.31192943  0.00267566  0.52182149  1
  Re  Re9  1  0.68808051  0.99732451  0.47820568  1
  Re  Re10  1  0.46138830  0.11956718  0.62660398  1
  Re  Re11  1  0.60083011  0.81869023  0.58649051  1
  S  S0  1  0.73160395  0.93711227  0.67241249  1
  S  S1  1  0.06288667  0.26839637  0.82758649  1
  S  S2  1  0.94940918  0.38217088  0.21424823  1
  S  S3  1  0.20090055  0.27798217  0.55947305  1
  S  S4  1  0.72727906  0.57718601  0.70289594  1
  S  S5  1  0.57719186  0.72727899  0.20290125  1
  S  S6  1  0.72201694  0.79909931  0.94052645  1
  S  S7  1  0.54482997  0.27741364  0.51775854  1
  S  S8  1  0.27797667  0.20089490  0.05944658  1
  S  S9  1  0.93508677  0.00224804  0.42974284  1
  S  S10  1  0.99775327  0.06491512  0.07025961  1
  S  S11  1  0.61782922  0.05059048  0.28575202  1
  S  S12  1  0.79910497  0.72202380  0.44055448  1
  S  S13  1  0.38216500  0.94941311  0.71427280  1
  S  S14  1  0.26839614  0.06289027  0.32761707  1
  S  S15  1  0.06490634  0.99775194  0.57027792  1
  S  S16  1  0.00224878  0.93509236  0.92972474  1
  S  S17  1  0.27271944  0.42280943  0.29709853  1
  S  S18  1  0.42281481  0.27272217  0.79710550  1
  S  S19  1  0.27740791  0.54483111  0.01773697  1
  S  S20  1  0.05058671  0.61783516  0.78572621  1
  S  S21  1  0.93710952  0.73160391  0.17238282  1
  S  S22  1  0.72258703  0.45516895  0.98224133  1
  S  S23  1  0.45516972  0.72259106  0.48226236  1
loop_
_geom_bond_atom_site_label_1
_geom_bond_atom_site_label_2
_geom_bond_distance
_geom_bond_site_symmetry_2
Rb0 S5 3.264927 1_555
Rb0 S17 3.264943 1_555
Rb0 S2 3.277334 1_555
Rb0 S11 3.277338 1_555
Rb0 S22 3.539437 1_554
Rb0 S7 3.539439 1_555
Rb1 S3 3.173034 1_655
Rb1 S4 3.257417 1_555
Rb1 S12 3.263756 1_555
Rb1 S2 3.329612 1_555
Rb1 S15 3.333435 1_645
Rb1 S9 3.356057 1_555
Rb1 S7 3.648594 1_555
Rb1 S23 3.786461 1_555
Rb2 S14 3.195490 1_565
Rb2 S21 3.195491 1_455
Rb2 S10 3.321315 1_465
Rb2 S9 3.321330 1_465
Rb2 S17 3.351296 1_555
Rb2 S5 3.351306 1_555
Rb2 S19 3.541312 1_555
Rb2 S23 3.541319 1_555
Rb3 S12 3.173048 1_455
Rb3 S17 3.257829 1_555
Rb3 S3 3.263600 1_555
Rb3 S20 3.328880 1_555
Rb3 S9 3.333579 1_465
Rb3 S15 3.356058 1_555
Rb3 S23 3.648638 1_555
Rb3 S7 3.786368 1_555
Rb4 S1 3.195326 1_655
Rb4 S0 3.195338 1_545
Rb4 S15 3.321097 1_645
Rb4 S16 3.321134 1_645
Rb4 S18 3.351279 1_555
Rb4 S4 3.351280 1_555
Rb4 S22 3.541117 1_555
Rb4 S7 3.541123 1_555
Rb5 S8 3.173015 1_566
Rb5 S5 3.257857 1_556
Rb5 S6 3.263611 1_555
Rb5 S13 3.328882 1_555
Rb5 S10 3.333552 1_466
Rb5 S16 3.356035 1_555
Rb5 S19 3.648656 1_556
Rb5 S22 3.786416 1_555
Rb6 S18 3.264968 1_555
Rb6 S4 3.264983 1_555
Rb6 S13 3.277257 1_555
Rb6 S20 3.277259 1_555
Rb6 S19 3.539218 1_556
Rb6 S23 3.539220 1_555
Rb7 S6 3.173020 1_544
Rb7 S18 3.257393 1_554
Rb7 S8 3.263758 1_555
Rb7 S11 3.329628 1_555
Rb7 S16 3.333423 1_644
Rb7 S10 3.356088 1_555
Rb7 S22 3.648593 1_554
Rb7 S19 3.786479 1_555
Re0 S21 2.400030 1_556
Re0 S20 2.408841 1_655
Re0 S6 2.415867 1_555
Re0 S19 2.446799 1_656
Re0 S16 2.513325 1_655
Re1 S11 2.392797 1_565
Re1 S12 2.393593 1_555
Re1 S14 2.426188 1_565
Re1 S23 2.440748 1_555
Re1 S5 2.484919 1_555
Re2 S2 2.392795 1_455
Re2 S8 2.393576 1_555
Re2 S21 2.426197 1_455
Re2 S19 2.440755 1_555
Re2 S17 2.484917 1_555
Re3 S20 2.392909 1_655
Re3 S6 2.393494 1_555
Re3 S1 2.426220 1_655
Re3 S22 2.440690 1_555
Re3 S4 2.484896 1_555
Re4 S1 2.400068 1_554
Re4 S2 2.408883 1_455
Re4 S8 2.415832 1_555
Re4 S22 2.446811 1_454
Re4 S10 2.513187 1_455
Re5 S14 2.383397 1_555
Re5 S11 2.421869 1_555
Re5 S3 2.430043 1_555
Re5 S7 2.448980 1_555
Re5 S17 2.485190 1_555
Re6 S1 2.383476 1_555
Re6 S20 2.422074 1_555
Re6 S8 2.429888 1_556
Re6 S19 2.448932 1_556
Re6 S18 2.485127 1_555
Re7 S21 2.383396 1_555
Re7 S2 2.421884 1_555
Re7 S6 2.430035 1_554
Re7 S22 2.448982 1_554
Re7 S5 2.485179 1_555
Re8 S14 2.400040 1_555
Re8 S13 2.408823 1_545
Re8 S3 2.415870 1_555
Re8 S23 2.446791 1_545
Re8 S15 2.513341 1_545
Re9 S0 2.400058 1_555
Re9 S11 2.408883 1_565
Re9 S12 2.415823 1_555
Re9 S7 2.446814 1_565
Re9 S9 2.513196 1_565
Re10 S13 2.392912 1_545
Re10 S3 2.393500 1_555
Re10 S0 2.426223 1_545
Re10 S7 2.440680 1_555
Re10 S18 2.484921 1_555
Re11 S0 2.383467 1_555
Re11 S13 2.422073 1_555
Re11 S12 2.429869 1_555
Re11 S23 2.448936 1_555
Re11 S4 2.485131 1_555
S10 S16 2.130303 1_644
S15 S9 2.130286 1_465
