# generated using pymatgen
data_K2LiInAs2
_symmetry_space_group_name_H-M   'P 1'
_cell_length_a   10.23677411
_cell_length_b   10.23677411
_cell_length_c   6.45444500
_cell_angle_alpha   90.00000000
_cell_angle_beta   90.00000000
_cell_angle_gamma   100.99963817
_symmetry_Int_Tables_number   1
_chemical_formula_structural   K2LiInAs2
_chemical_formula_sum   'K8 Li4 In4 As8'
_cell_volume   663.94522865
_cell_formula_units_Z   4
loop_
 _symmetry_equiv_pos_site_id
 _symmetry_equiv_pos_as_xyz
  1  'x, y, z'
loop_
 _atom_site_type_symbol
 _atom_site_label
 _atom_site_symmetry_multiplicity
 _atom_site_fract_x
 _atom_site_fract_y
 _atom_site_fract_z
 _atom_site_occupancy
  K  K0  1  0.57370100  0.92629900  0.75000000  1
  K  K1  1  0.92629900  0.57370100  0.25000000  1
  K  K2  1  0.42629900  0.07370100  0.25000000  1
  K  K3  1  0.07370100  0.42629900  0.75000000  1
  K  K4  1  0.67326900  0.32673100  0.77569300  1
  K  K5  1  0.82673100  0.17326900  0.27569300  1
  K  K6  1  0.32673100  0.67326900  0.22430700  1
  K  K7  1  0.17326900  0.82673100  0.72430700  1
  Li  Li0  1  0.62034100  0.62034100  0.00000000  1
  Li  Li1  1  0.87965900  0.87965900  0.50000000  1
  Li  Li2  1  0.37965900  0.37965900  0.00000000  1
  Li  Li3  1  0.12034100  0.12034100  0.50000000  1
  In  In0  1  0.86847300  0.86847300  0.00000000  1
  In  In1  1  0.63152700  0.63152700  0.50000000  1
  In  In2  1  0.13152700  0.13152700  0.00000000  1
  In  In3  1  0.36847300  0.36847300  0.50000000  1
  As  As0  1  0.35090900  0.14909100  0.75000000  1
  As  As1  1  0.14909100  0.35090900  0.25000000  1
  As  As2  1  0.64909100  0.85090900  0.25000000  1
  As  As3  1  0.85090900  0.64909100  0.75000000  1
  As  As4  1  0.90199300  0.09800700  0.76928900  1
  As  As5  1  0.59800700  0.40199300  0.26928900  1
  As  As6  1  0.09800700  0.90199300  0.23071100  1
  As  As7  1  0.40199300  0.59800700  0.73071100  1
loop_
_geom_bond_atom_site_label_1
_geom_bond_atom_site_label_2
_geom_bond_distance
_geom_bond_site_symmetry_2
As0 In2 2.743253 1_556
As0 In3 2.743253 1_555
As0 Li2 2.827749 1_556
As0 Li3 2.827749 1_555
As0 K2 3.439978 1_556
As0 K2 3.439978 1_555
As0 K4 3.454545 1_555
As0 K7 3.454545 1_545
As0 K0 3.519635 1_545
As1 In3 2.743253 1_555
As1 In2 2.743253 1_555
As1 Li2 2.827749 1_555
As1 Li3 2.827749 1_555
As1 K3 3.439978 1_555
As1 K3 3.439978 1_554
As1 K5 3.454545 1_455
As1 K6 3.454545 1_555
As1 K1 3.519635 1_455
As2 In1 2.743253 1_555
As2 In0 2.743253 1_555
As2 Li1 2.827749 1_555
As2 Li0 2.827749 1_555
As2 K0 3.439978 1_554
As2 K0 3.439978 1_555
As2 K5 3.454545 1_565
As2 K6 3.454545 1_555
As2 K2 3.519635 1_565
As3 In0 2.743253 1_556
As3 In1 2.743253 1_555
As3 Li0 2.827749 1_556
As3 Li1 2.827749 1_555
As3 K1 3.439978 1_556
As3 K1 3.439978 1_555
As3 K7 3.454545 1_655
As3 K4 3.454545 1_555
As3 K3 3.519635 1_655
As4 In2 2.747463 1_656
As4 In0 2.747463 1_546
As4 Li3 2.806121 1_655
As4 Li1 2.806121 1_545
As4 K5 3.400522 1_555
As4 K5 3.478093 1_556
As4 K3 3.484956 1_655
As4 K0 3.484956 1_545
As4 K4 3.613584 1_555
As5 In1 2.747463 1_555
As5 In3 2.747463 1_555
As5 Li2 2.806121 1_555
As5 Li0 2.806121 1_555
As5 K4 3.400522 1_554
As5 K4 3.478093 1_555
As5 K2 3.484956 1_555
As5 K1 3.484956 1_555
As5 K5 3.613584 1_555
As6 In2 2.747463 1_565
As6 In0 2.747463 1_455
As6 Li3 2.806121 1_565
As6 Li1 2.806121 1_455
As6 K7 3.400522 1_555
As6 K7 3.478093 1_554
As6 K2 3.484956 1_565
As6 K1 3.484956 1_455
As6 K6 3.613584 1_555
As7 In1 2.747463 1_555
As7 In3 2.747463 1_555
As7 Li2 2.806121 1_556
As7 Li0 2.806121 1_556
As7 K6 3.400522 1_556
As7 K6 3.478093 1_555
As7 K3 3.484956 1_555
As7 K0 3.484956 1_555
As7 K7 3.613584 1_555
