# generated using pymatgen
data_Ti5Fe7O18
_symmetry_space_group_name_H-M   'P 1'
_cell_length_a   5.59400800
_cell_length_b   9.18792103
_cell_length_c   12.76763704
_cell_angle_alpha   87.98147208
_cell_angle_beta   87.14904051
_cell_angle_gamma   84.47975927
_symmetry_Int_Tables_number   1
_chemical_formula_structural   Ti5Fe7O18
_chemical_formula_sum   'Ti10 Fe14 O36'
_cell_volume   652.06444797
_cell_formula_units_Z   2
loop_
 _symmetry_equiv_pos_site_id
 _symmetry_equiv_pos_as_xyz
  1  'x, y, z'
loop_
 _atom_site_type_symbol
 _atom_site_label
 _atom_site_symmetry_multiplicity
 _atom_site_fract_x
 _atom_site_fract_y
 _atom_site_fract_z
 _atom_site_occupancy
  Ti  Ti0  1  0.70611500  0.24172300  0.11574700  1
  Ti  Ti1  1  0.28907300  0.76251200  0.38450000  1
  Ti  Ti2  1  0.70247200  0.56851400  0.29157100  1
  Ti  Ti3  1  0.79305300  0.93248100  0.71513400  1
  Ti  Ti4  1  0.22021600  0.06733600  0.28172700  1
  Ti  Ti5  1  0.20927500  0.73476300  0.61888700  1
  Ti  Ti6  1  0.29565600  0.42797200  0.71511500  1
  Ti  Ti7  1  0.70703900  0.23558000  0.61513400  1
  Ti  Ti8  1  0.20292100  0.41044200  0.94819200  1
  Ti  Ti9  1  0.70218200  0.89968600  0.95082700  1
  Fe  Fe0  1  0.28656600  0.09425800  0.04961200  1
  Fe  Fe1  1  0.79513600  0.60017700  0.04759300  1
  Fe  Fe2  1  0.21335700  0.73607100  0.11771900  1
  Fe  Fe3  1  0.29014600  0.42978100  0.21450800  1
  Fe  Fe4  1  0.71256000  0.90920200  0.45235200  1
  Fe  Fe5  1  0.79144000  0.59502300  0.55152500  1
  Fe  Fe6  1  0.79978400  0.92541200  0.21372100  1
  Fe  Fe7  1  0.79540700  0.26649200  0.38159600  1
  Fe  Fe8  1  0.20968600  0.07041000  0.78716400  1
  Fe  Fe9  1  0.20630400  0.40229700  0.45027300  1
  Fe  Fe10  1  0.28726900  0.09667200  0.54860800  1
  Fe  Fe11  1  0.71272000  0.57295500  0.78497200  1
  Fe  Fe12  1  0.78540600  0.26021800  0.88256600  1
  Fe  Fe13  1  0.29008400  0.76481400  0.88159000  1
  O  O0  1  0.67004000  0.44054200  0.14406600  1
  O  O1  1  0.98730000  0.22764500  0.02902700  1
  O  O2  1  0.97845200  0.44477300  0.31675800  1
  O  O3  1  0.15640700  0.51362400  0.07558700  1
  O  O4  1  0.15519500  0.62882100  0.47539700  1
  O  O5  1  0.14326800  0.95615500  0.15241400  1
  O  O6  1  0.35738900  0.20142000  0.18835400  1
  O  O7  1  0.35254400  0.65927100  0.25946400  1
  O  O8  1  0.51396800  0.40345500  0.34659000  1
  O  O9  1  0.51434700  0.73273900  0.01200600  1
  O  O10  1  0.49744800  0.94218700  0.31047600  1
  O  O11  1  0.65030800  0.68445700  0.41023600  1
  O  O12  1  0.65806500  0.01078500  0.08020600  1
  O  O13  1  0.64926400  0.12663300  0.48024200  1
  O  O14  1  0.82769200  0.71024100  0.19154700  1
  O  O15  1  0.85108300  0.81890100  0.59320600  1
  O  O16  1  0.83843100  0.15644600  0.24338000  1
  O  O17  1  0.02118300  0.89649400  0.34581200  1
  O  O18  1  0.98312500  0.10750600  0.65129300  1
  O  O19  1  0.15604200  0.84437800  0.74081800  1
  O  O20  1  0.14702300  0.17539000  0.40195900  1
  O  O21  1  0.16435600  0.29540000  0.81440800  1
  O  O22  1  0.34018600  0.86931000  0.51927000  1
  O  O23  1  0.35457400  0.98830300  0.92261800  1
  O  O24  1  0.34608900  0.31993800  0.59197500  1
  O  O25  1  0.52393300  0.05841900  0.68295000  1
  O  O26  1  0.47693600  0.60651900  0.65148900  1
  O  O27  1  0.47248700  0.27116500  0.99262000  1
  O  O28  1  0.64975500  0.34747500  0.73883700  1
  O  O29  1  0.66613800  0.79532700  0.80987400  1
  O  O30  1  0.83912400  0.03957000  0.85637900  1
  O  O31  1  0.84290100  0.37191300  0.52404000  1
  O  O32  1  0.86015400  0.47888600  0.92157700  1
  O  O33  1  0.02764200  0.55996000  0.68198100  1
  O  O34  1  0.97643300  0.77487900  0.98540200  1
  O  O35  1  0.34685100  0.53628200  0.85711300  1
loop_
_geom_bond_atom_site_label_1
_geom_bond_atom_site_label_2
_geom_bond_distance
_geom_bond_site_symmetry_2
Fe0 O23 1.923540 1_544
Fe0 O5 1.987234 1_545
Fe0 O1 1.999997 1_455
Fe0 O27 2.102323 1_554
Fe0 O6 2.128850 1_555
Fe0 O12 2.193756 1_555
Fe1 O9 1.954749 1_555
Fe1 O32 1.988205 1_554
Fe1 O0 2.035333 1_555
Fe1 O34 2.092570 1_554
Fe1 O3 2.141736 1_655
Fe1 O14 2.152567 1_555
Fe2 O7 2.079388 1_555
Fe2 O5 2.081390 1_555
Fe2 O9 2.103462 1_555
Fe2 O3 2.188115 1_555
Fe2 O34 2.197059 1_454
Fe2 O14 2.340880 1_455
Fe3 O3 2.055235 1_555
Fe3 O2 2.122148 1_455
Fe3 O6 2.130799 1_555
Fe3 O8 2.143143 1_555
Fe3 O7 2.268040 1_555
Fe3 O0 2.275712 1_555
Fe4 O13 2.035832 1_565
Fe4 O15 2.105422 1_555
Fe4 O17 2.140873 1_655
Fe4 O11 2.215758 1_555
Fe4 O10 2.220161 1_555
Fe4 O22 2.269638 1_555
Fe5 O31 2.082130 1_555
Fe5 O11 2.113078 1_555
Fe5 O26 2.117960 1_555
Fe5 O33 2.173284 1_655
Fe5 O15 2.202834 1_555
Fe5 O4 2.255069 1_655
Fe6 O14 1.997148 1_555
Fe6 O12 2.017494 1_565
Fe6 O10 2.040986 1_555
Fe6 O5 2.079348 1_655
Fe6 O17 2.135801 1_655
Fe6 O16 2.202077 1_565
Fe7 O13 1.972705 1_555
Fe7 O8 1.977674 1_555
Fe7 O16 2.056939 1_555
Fe7 O20 2.087072 1_655
Fe7 O31 2.130262 1_555
Fe7 O2 2.135365 1_555
Fe8 O23 2.036378 1_545
Fe8 O21 2.097522 1_555
Fe8 O25 2.147824 1_555
Fe8 O18 2.196757 1_455
Fe8 O19 2.230981 1_545
Fe8 O30 2.251978 1_455
Fe9 O24 2.094687 1_555
Fe9 O4 2.107085 1_555
Fe9 O8 2.119083 1_555
Fe9 O2 2.180918 1_455
Fe9 O31 2.235572 1_455
Fe9 O20 2.254073 1_555
Fe10 O18 2.092409 1_455
Fe10 O22 2.125302 1_545
Fe10 O20 2.141469 1_555
Fe10 O24 2.202472 1_555
Fe10 O13 2.202910 1_555
Fe10 O25 2.216338 1_555
Fe11 O29 2.068449 1_555
Fe11 O32 2.090201 1_555
Fe11 O33 2.141731 1_655
Fe11 O26 2.201736 1_555
Fe11 O28 2.238287 1_555
Fe11 O35 2.252570 1_555
Fe12 O30 2.057320 1_555
Fe12 O28 2.122244 1_555
Fe12 O32 2.170775 1_555
Fe12 O27 2.186335 1_555
Fe12 O1 2.228787 1_556
Fe12 O21 2.298704 1_655
Fe13 O19 2.064721 1_555
Fe13 O35 2.124961 1_555
Fe13 O9 2.129639 1_556
Fe13 O34 2.142407 1_455
Fe13 O23 2.204107 1_555
Fe13 O29 2.290439 1_555
O0 Ti0 1.864606 1_555
O0 Ti2 2.278863 1_555
O1 Ti0 1.874705 1_555
O1 Ti8 2.341937 1_654
O2 Ti2 1.861549 1_555
O3 Ti8 1.905554 1_554
O4 Ti1 1.845713 1_555
O4 Ti5 2.152380 1_555
O5 Ti4 2.056397 1_565
O6 Ti4 1.874880 1_555
O6 Ti0 2.176447 1_555
O7 Ti1 1.886765 1_555
O7 Ti2 2.106391 1_555
O8 Ti2 2.016004 1_555
O9 Ti9 2.052094 1_554
O10 Ti4 1.883033 1_565
O10 Ti1 2.264503 1_555
O11 Ti2 1.877582 1_555
O11 Ti1 2.115741 1_555
O12 Ti9 1.965017 1_544
O12 Ti0 2.229362 1_555
O13 Ti7 2.076454 1_555
O14 Ti2 1.945920 1_555
O15 Ti3 1.901793 1_555
O15 Ti5 2.114127 1_655
O16 Ti0 1.932804 1_555
O16 Ti4 2.282684 1_655
O17 Ti1 1.918594 1_555
O17 Ti4 2.127949 1_565
O18 Ti7 1.914705 1_555
O18 Ti3 2.128701 1_545
O19 Ti5 1.879671 1_555
O19 Ti3 2.148786 1_455
O20 Ti4 1.864504 1_555
O21 Ti6 1.897638 1_555
O21 Ti8 2.071020 1_555
O22 Ti5 1.911261 1_555
O22 Ti1 2.056030 1_555
O23 Ti9 2.078032 1_555
O24 Ti6 1.883782 1_555
O24 Ti7 2.123044 1_555
O25 Ti3 1.862002 1_545
O25 Ti7 2.140488 1_555
O26 Ti5 1.868571 1_555
O26 Ti6 2.126894 1_555
O27 Ti8 1.973811 1_555
O27 Ti0 2.087803 1_556
O28 Ti7 1.911749 1_555
O28 Ti6 2.079537 1_555
O29 Ti3 1.880032 1_555
O29 Ti9 2.096086 1_555
O30 Ti9 1.918641 1_545
O30 Ti3 2.122892 1_545
O31 Ti7 1.868681 1_555
O32 Ti8 2.001321 1_655
O33 Ti6 1.890651 1_555
O33 Ti5 2.098137 1_555
O34 Ti9 1.885928 1_555
O35 Ti8 1.824440 1_555
O35 Ti6 2.143081 1_555
