# generated using pymatgen
data_Ba2Fe2S2OF2
_symmetry_space_group_name_H-M   'P 1'
_cell_length_a   4.19027264
_cell_length_b   4.18999905
_cell_length_c   19.42657381
_cell_angle_alpha   90.00171524
_cell_angle_beta   90.00266415
_cell_angle_gamma   89.99353392
_symmetry_Int_Tables_number   1
_chemical_formula_structural   Ba2Fe2S2OF2
_chemical_formula_sum   'Ba4 Fe4 S4 O2 F4'
_cell_volume   341.07698479
_cell_formula_units_Z   2
loop_
 _symmetry_equiv_pos_site_id
 _symmetry_equiv_pos_as_xyz
  1  'x, y, z'
loop_
 _atom_site_type_symbol
 _atom_site_label
 _atom_site_symmetry_multiplicity
 _atom_site_fract_x
 _atom_site_fract_y
 _atom_site_fract_z
 _atom_site_occupancy
  Ba  Ba0  1  0.99999900  0.99999700  0.33336800  1
  Ba  Ba1  1  0.49999800  0.49999700  0.83336800  1
  Ba  Ba2  1  0.49999300  0.49999800  0.16663300  1
  Ba  Ba3  1  0.99999200  0.99999800  0.66663300  1
  Fe  Fe0  1  0.50003500  0.00000000  0.99999200  1
  Fe  Fe1  1  0.49999700  0.00001500  0.50000300  1
  Fe  Fe2  1  0.00003600  0.50000000  0.49999200  1
  Fe  Fe3  1  0.99999600  0.50001600  0.00000300  1
  S  S0  1  0.50006000  0.50006600  0.41263300  1
  S  S1  1  0.00005900  0.00006600  0.91263400  1
  S  S2  1  0.99993400  0.99993200  0.08736700  1
  S  S3  1  0.49993300  0.49993200  0.58736700  1
  O  O0  1  0.49999300  0.49999900  0.99999900  1
  O  O1  1  0.99999300  0.99999900  0.49999900  1
  F  F0  1  0.49998400  0.00000900  0.25000900  1
  F  F1  1  0.99998400  0.50000800  0.75000900  1
  F  F2  1  0.00000700  0.49998600  0.24999600  1
  F  F3  1  0.50000700  0.99998600  0.74999600  1
loop_
_geom_bond_atom_site_label_1
_geom_bond_atom_site_label_2
_geom_bond_distance
_geom_bond_site_symmetry_2
Ba0 F0 2.648006 1_565
Ba0 F0 2.648026 1_665
Ba0 F2 2.648060 1_655
Ba0 F2 2.648064 1_665
Ba0 O1 3.237069 1_555
Ba0 S0 3.338939 1_655
Ba0 S0 3.339004 1_555
Ba0 S0 3.339013 1_565
Ba0 S0 3.339540 1_665
Ba1 F1 2.648003 1_455
Ba1 F1 2.648029 1_555
Ba1 F3 2.648060 1_545
Ba1 F3 2.648064 1_555
Ba1 O0 3.237069 1_555
Ba1 S1 3.338948 1_655
Ba1 S1 3.339013 1_555
Ba1 S1 3.339022 1_565
Ba1 S1 3.339549 1_665
Ba2 F2 2.648050 1_655
Ba2 F2 2.648076 1_555
Ba2 F0 2.648108 1_565
Ba2 F0 2.648111 1_555
Ba2 O0 3.237128 1_554
Ba2 S2 3.338950 1_455
Ba2 S2 3.339019 1_545
Ba2 S2 3.339027 1_555
Ba2 S2 3.339536 1_445
Ba3 F3 2.648053 1_655
Ba3 F3 2.648073 1_555
Ba3 F1 2.648104 1_565
Ba3 F1 2.648115 1_555
Ba3 O1 3.237128 1_555
Ba3 S3 3.338950 1_565
Ba3 S3 3.339019 1_655
Ba3 S3 3.339027 1_665
Ba3 S3 3.339536 1_555
Fe0 O0 2.094995 1_555
Fe0 O0 2.095004 1_545
Fe0 S2 2.696043 1_546
Fe0 S1 2.696086 1_555
Fe0 S1 2.696365 1_655
Fe0 S2 2.696824 1_446
Fe1 O1 2.095120 1_545
Fe1 O1 2.095153 1_445
Fe1 S3 2.695883 1_555
Fe1 S0 2.696060 1_545
Fe1 S0 2.696471 1_555
Fe1 S3 2.696502 1_545
Fe2 O1 2.094995 1_455
Fe2 O1 2.095004 1_445
Fe2 S3 2.696037 1_555
Fe2 S0 2.696098 1_455
Fe2 S0 2.696377 1_555
Fe2 S3 2.696830 1_455
Fe3 O0 2.095124 1_654
Fe3 O0 2.095149 1_554
Fe3 S2 2.695880 1_555
Fe3 S1 2.696051 1_654
Fe3 S1 2.696456 1_664
Fe3 S2 2.696505 1_545
