# generated using pymatgen
data_K4Si23
_symmetry_space_group_name_H-M   'P 1'
_cell_length_a   10.28548661
_cell_length_b   10.28548661
_cell_length_c   10.28548661
_cell_angle_alpha   90.00000000
_cell_angle_beta   90.00000000
_cell_angle_gamma   90.00000000
_symmetry_Int_Tables_number   1
_chemical_formula_structural   K4Si23
_chemical_formula_sum   'K8 Si46'
_cell_volume   1088.11432904
_cell_formula_units_Z   2
loop_
 _symmetry_equiv_pos_site_id
 _symmetry_equiv_pos_as_xyz
  1  'x, y, z'
loop_
 _atom_site_type_symbol
 _atom_site_label
 _atom_site_symmetry_multiplicity
 _atom_site_fract_x
 _atom_site_fract_y
 _atom_site_fract_z
 _atom_site_occupancy
  K  K0  1  0.00000000  -0.00000000  0.00000000  1
  K  K1  1  0.50000000  0.50000000  0.50000000  1
  K  K2  1  0.25000000  0.50000000  0.00000000  1
  K  K3  1  0.75000000  0.50000000  0.00000000  1
  K  K4  1  0.50000000  -0.00000000  0.25000000  1
  K  K5  1  0.50000000  -0.00000000  0.75000000  1
  K  K6  1  0.00000000  0.75000000  0.50000000  1
  K  K7  1  0.00000000  0.25000000  0.50000000  1
  Si  Si0  1  0.25000000  -0.00000000  0.50000000  1
  Si  Si1  1  0.75000000  -0.00000000  0.50000000  1
  Si  Si2  1  0.00000000  0.50000000  0.25000000  1
  Si  Si3  1  0.00000000  0.50000000  0.75000000  1
  Si  Si4  1  0.50000000  0.75000000  0.00000000  1
  Si  Si5  1  0.50000000  0.25000000  0.00000000  1
  Si  Si6  1  0.18496019  0.18496019  0.18496019  1
  Si  Si7  1  0.68496019  0.31503981  0.68496019  1
  Si  Si8  1  0.68496019  0.68496019  0.31503981  1
  Si  Si9  1  0.31503981  0.68496019  0.68496019  1
  Si  Si10  1  0.81503981  0.81503981  0.18496019  1
  Si  Si11  1  0.18496019  0.81503981  0.81503981  1
  Si  Si12  1  0.81503981  0.18496019  0.81503981  1
  Si  Si13  1  0.31503981  0.31503981  0.31503981  1
  Si  Si14  1  0.81503981  0.81503981  0.81503981  1
  Si  Si15  1  0.31503981  0.68496019  0.31503981  1
  Si  Si16  1  0.31503981  0.31503981  0.68496019  1
  Si  Si17  1  0.68496019  0.31503981  0.31503981  1
  Si  Si18  1  0.18496019  0.18496019  0.81503981  1
  Si  Si19  1  0.81503981  0.18496019  0.18496019  1
  Si  Si20  1  0.18496019  0.81503981  0.18496019  1
  Si  Si21  1  0.68496019  0.68496019  0.68496019  1
  Si  Si22  1  0.00000000  0.30658861  0.11840900  1
  Si  Si23  1  0.50000000  0.38159100  0.80658861  1
  Si  Si24  1  0.50000000  0.61840900  0.19341139  1
  Si  Si25  1  0.61840900  0.80658861  0.50000000  1
  Si  Si26  1  0.38159100  0.80658861  0.50000000  1
  Si  Si27  1  0.19341139  0.50000000  0.61840900  1
  Si  Si28  1  0.80658861  0.50000000  0.61840900  1
  Si  Si29  1  0.11840900  -0.00000000  0.30658861  1
  Si  Si30  1  0.30658861  0.11840900  0.00000000  1
  Si  Si31  1  0.69341139  0.88159100  0.00000000  1
  Si  Si32  1  0.11840900  -0.00000000  0.69341139  1
  Si  Si33  1  0.69341139  0.11840900  0.00000000  1
  Si  Si34  1  0.88159100  -0.00000000  0.30658861  1
  Si  Si35  1  0.88159100  -0.00000000  0.69341139  1
  Si  Si36  1  0.30658861  0.88159100  0.00000000  1
  Si  Si37  1  0.00000000  0.69341139  0.88159100  1
  Si  Si38  1  0.00000000  0.30658861  0.88159100  1
  Si  Si39  1  0.00000000  0.69341139  0.11840900  1
  Si  Si40  1  0.80658861  0.50000000  0.38159100  1
  Si  Si41  1  0.19341139  0.50000000  0.38159100  1
  Si  Si42  1  0.61840900  0.19341139  0.50000000  1
  Si  Si43  1  0.38159100  0.19341139  0.50000000  1
  Si  Si44  1  0.50000000  0.61840900  0.80658861  1
  Si  Si45  1  0.50000000  0.38159100  0.19341139  1
loop_
_geom_bond_atom_site_label_1
_geom_bond_atom_site_label_2
_geom_bond_distance
_geom_bond_site_symmetry_2
K0 Si14 3.295063 1_444
K0 Si10 3.295063 1_445
K0 Si11 3.295063 1_544
K0 Si12 3.295063 1_454
K0 Si19 3.295063 1_455
K0 Si20 3.295063 1_545
K0 Si18 3.295063 1_554
K0 Si6 3.295063 1_555
K0 Si30 3.380426 1_555
K0 Si29 3.380426 1_555
K0 Si22 3.380426 1_555
K0 Si36 3.380426 1_545
K0 Si34 3.380426 1_455
K0 Si38 3.380426 1_554
K0 Si37 3.380426 1_544
K0 Si32 3.380426 1_554
K0 Si35 3.380426 1_454
K0 Si33 3.380426 1_455
K0 Si39 3.380426 1_545
K0 Si31 3.380426 1_445
K1 Si21 3.295063 1_555
K1 Si8 3.295063 1_555
K1 Si16 3.295063 1_555
K1 Si9 3.295063 1_555
K1 Si17 3.295063 1_555
K1 Si7 3.295063 1_555
K1 Si15 3.295063 1_555
K1 Si13 3.295063 1_555
K1 Si43 3.380426 1_555
K1 Si45 3.380426 1_555
K1 Si23 3.380426 1_555
K1 Si27 3.380426 1_555
K1 Si41 3.380426 1_555
K1 Si42 3.380426 1_555
K1 Si26 3.380426 1_555
K1 Si44 3.380426 1_555
K1 Si28 3.380426 1_555
K1 Si40 3.380426 1_555
K1 Si24 3.380426 1_555
K1 Si25 3.380426 1_555
K2 Si37 3.471693 1_554
K2 Si23 3.471693 1_554
K2 Si45 3.471693 1_555
K2 Si44 3.471693 1_554
K2 Si38 3.471693 1_554
K2 Si39 3.471693 1_555
K2 Si24 3.471693 1_555
K2 Si22 3.471693 1_555
K2 Si2 3.636469 1_555
K2 Si5 3.636469 1_555
K2 Si4 3.636469 1_555
K2 Si3 3.636469 1_554
K3 Si38 3.471693 1_654
K3 Si23 3.471693 1_554
K3 Si37 3.471693 1_654
K3 Si45 3.471693 1_555
K3 Si39 3.471693 1_655
K3 Si44 3.471693 1_554
K3 Si24 3.471693 1_555
K3 Si22 3.471693 1_655
K3 Si2 3.636469 1_655
K3 Si3 3.636469 1_654
K3 Si5 3.636469 1_555
K3 Si4 3.636469 1_555
K4 Si25 3.471693 1_545
K4 Si31 3.471693 1_545
K4 Si42 3.471693 1_555
K4 Si36 3.471693 1_545
K4 Si26 3.471693 1_545
K4 Si33 3.471693 1_555
K4 Si43 3.471693 1_555
K4 Si30 3.471693 1_555
K4 Si4 3.636469 1_545
K4 Si0 3.636469 1_555
K4 Si5 3.636469 1_555
K4 Si1 3.636469 1_555
K5 Si25 3.471693 1_545
K5 Si42 3.471693 1_555
K5 Si26 3.471693 1_545
K5 Si33 3.471693 1_556
K5 Si31 3.471693 1_546
K5 Si43 3.471693 1_555
K5 Si36 3.471693 1_546
K5 Si30 3.471693 1_556
K5 Si4 3.636469 1_546
K5 Si5 3.636469 1_556
K5 Si0 3.636469 1_555
K5 Si1 3.636469 1_555
K6 Si28 3.471693 1_455
K6 Si34 3.471693 1_465
K6 Si41 3.471693 1_555
K6 Si35 3.471693 1_465
K6 Si32 3.471693 1_565
K6 Si27 3.471693 1_555
K6 Si40 3.471693 1_455
K6 Si29 3.471693 1_565
K6 Si3 3.636469 1_555
K6 Si2 3.636469 1_555
K6 Si0 3.636469 1_565
K6 Si1 3.636469 1_465
K7 Si28 3.471693 1_455
K7 Si41 3.471693 1_555
K7 Si32 3.471693 1_555
K7 Si27 3.471693 1_555
K7 Si40 3.471693 1_455
K7 Si34 3.471693 1_455
K7 Si35 3.471693 1_455
K7 Si29 3.471693 1_555
K7 Si3 3.636469 1_555
K7 Si2 3.636469 1_555
K7 Si0 3.636469 1_555
K7 Si1 3.636469 1_455
Si0 Si43 2.406104 1_555
Si0 Si26 2.406104 1_545
Si0 Si32 2.406104 1_555
Si0 Si29 2.406104 1_555
Si1 Si35 2.406104 1_555
Si1 Si25 2.406104 1_545
Si1 Si42 2.406104 1_555
Si1 Si34 2.406104 1_555
Si2 Si39 2.406104 1_555
Si2 Si41 2.406104 1_555
Si2 Si40 2.406104 1_455
Si2 Si22 2.406104 1_555
Si3 Si37 2.406104 1_555
Si3 Si38 2.406104 1_555
Si4 Si44 2.406104 1_554
Si10 Si8 2.317367 1_555
Si10 Si34 2.377545 1_565
Si10 Si39 2.377545 1_655
Si10 Si31 2.377545 1_555
Si11 Si9 2.317367 1_555
Si11 Si36 2.377545 1_556
Si11 Si32 2.377545 1_565
Si11 Si37 2.377545 1_555
Si12 Si7 2.317367 1_555
Si12 Si38 2.377545 1_655
Si12 Si33 2.377545 1_556
Si12 Si35 2.377545 1_555
Si13 Si6 2.317367 1_555
Si13 Si43 2.377545 1_555
Si13 Si45 2.377545 1_555
Si13 Si41 2.377545 1_555
Si14 Si21 2.317367 1_555
Si14 Si31 2.377545 1_556
Si14 Si37 2.377545 1_655
Si14 Si35 2.377545 1_565
Si15 Si20 2.317367 1_555
Si15 Si24 2.377545 1_555
Si15 Si41 2.377545 1_555
Si15 Si26 2.377545 1_555
Si16 Si18 2.317367 1_555
Si16 Si43 2.377545 1_555
Si16 Si27 2.377545 1_555
Si16 Si23 2.377545 1_555
Si17 Si19 2.317367 1_555
Si17 Si45 2.377545 1_555
Si17 Si42 2.377545 1_555
Si17 Si40 2.377545 1_555
Si18 Si30 2.377545 1_556
Si18 Si38 2.377545 1_555
Si18 Si32 2.377545 1_555
Si19 Si22 2.377545 1_655
Si19 Si34 2.377545 1_555
Si19 Si33 2.377545 1_555
Si20 Si29 2.377545 1_565
Si20 Si36 2.377545 1_555
Si20 Si39 2.377545 1_555
Si21 Si44 2.377545 1_555
Si21 Si28 2.377545 1_555
Si21 Si25 2.377545 1_555
Si22 Si6 2.377545 1_555
Si22 Si38 2.435788 1_554
Si23 Si7 2.377545 1_555
Si23 Si5 2.406104 1_556
Si23 Si44 2.435788 1_555
Si24 Si8 2.377545 1_555
Si24 Si4 2.406104 1_555
Si24 Si45 2.435788 1_555
Si25 Si8 2.377545 1_555
Si25 Si26 2.435788 1_555
Si26 Si9 2.377545 1_555
Si27 Si9 2.377545 1_555
Si27 Si3 2.406104 1_555
Si27 Si41 2.435788 1_555
Si28 Si7 2.377545 1_555
Si28 Si3 2.406104 1_655
Si28 Si40 2.435788 1_555
Si29 Si6 2.377545 1_555
Si29 Si34 2.435788 1_455
Si30 Si6 2.377545 1_555
Si30 Si5 2.406104 1_555
Si30 Si36 2.435788 1_545
Si31 Si4 2.406104 1_555
Si31 Si33 2.435788 1_565
Si32 Si35 2.435788 1_455
Si33 Si5 2.406104 1_555
Si36 Si4 2.406104 1_555
Si37 Si39 2.435788 1_556
Si40 Si8 2.377545 1_555
Si42 Si7 2.377545 1_555
Si42 Si43 2.435788 1_555
Si44 Si9 2.377545 1_555
Si45 Si5 2.406104 1_555
