# generated using pymatgen
data_Sr2FeBrO3
_symmetry_space_group_name_H-M   'P 1'
_cell_length_a   5.62050004
_cell_length_b   5.62038534
_cell_length_c   16.10173072
_cell_angle_alpha   79.93977338
_cell_angle_beta   79.96992268
_cell_angle_gamma   89.97616969
_symmetry_Int_Tables_number   1
_chemical_formula_structural   Sr2FeBrO3
_chemical_formula_sum   'Sr8 Fe4 Br4 O12'
_cell_volume   492.93246651
_cell_formula_units_Z   4
loop_
 _symmetry_equiv_pos_site_id
 _symmetry_equiv_pos_as_xyz
  1  'x, y, z'
loop_
 _atom_site_type_symbol
 _atom_site_label
 _atom_site_symmetry_multiplicity
 _atom_site_fract_x
 _atom_site_fract_y
 _atom_site_fract_z
 _atom_site_occupancy
  Sr  Sr0  1  0.15860500  0.40894600  0.68196300  1
  Sr  Sr1  1  0.65861200  0.90891100  0.68196300  1
  Sr  Sr2  1  0.34139200  0.09105200  0.31803600  1
  Sr  Sr3  1  0.84138800  0.59108400  0.31803500  1
  Sr  Sr4  1  0.45567200  0.20579200  0.08854400  1
  Sr  Sr5  1  0.95567100  0.70582000  0.08853800  1
  Sr  Sr6  1  0.04432900  0.29421300  0.91145600  1
  Sr  Sr7  1  0.54433500  0.79418200  0.91146000  1
  Fe  Fe0  1  0.09598400  0.84607100  0.80787600  1
  Fe  Fe1  1  0.40402400  0.65394000  0.19212700  1
  Fe  Fe2  1  0.59592300  0.34593300  0.80792600  1
  Fe  Fe3  1  0.90406600  0.15406000  0.19209000  1
  Br  Br0  1  0.29602200  0.54543600  0.40912100  1
  Br  Br1  1  0.79602500  0.04543600  0.40912500  1
  Br  Br2  1  0.20397500  0.95456000  0.59087200  1
  Br  Br3  1  0.70397300  0.45456200  0.59087300  1
  O  O0  1  0.46542800  0.71547700  0.06913700  1
  O  O1  1  0.96542500  0.21548600  0.06914200  1
  O  O2  1  0.03457500  0.78452700  0.93086200  1
  O  O3  1  0.53457400  0.28451300  0.93086000  1
  O  O4  1  0.85654700  0.60661600  0.78653100  1
  O  O5  1  0.35657800  0.10665000  0.78653100  1
  O  O6  1  0.35656700  0.60662600  0.78649900  1
  O  O7  1  0.85653800  0.10665500  0.78649900  1
  O  O8  1  0.14343400  0.89337500  0.21349900  1
  O  O9  1  0.64346400  0.39334500  0.21350000  1
  O  O10  1  0.64345300  0.89338300  0.21346800  1
  O  O11  1  0.14342200  0.39335000  0.21346700  1
loop_
_geom_bond_atom_site_label_1
_geom_bond_atom_site_label_2
_geom_bond_distance
_geom_bond_site_symmetry_2
Fe0 O2 1.919120 1_555
Fe0 O7 2.014515 1_465
Fe0 O5 2.014666 1_565
Fe0 O6 2.014758 1_555
Fe0 O4 2.016099 1_455
Fe1 O0 1.919182 1_555
Fe1 O9 2.014524 1_555
Fe1 O8 2.014733 1_555
Fe1 O11 2.014747 1_555
Fe1 O10 2.015995 1_555
Fe2 O3 1.918308 1_555
Fe2 O7 2.014358 1_555
Fe2 O6 2.014719 1_555
Fe2 O4 2.015125 1_555
Fe2 O5 2.015389 1_555
Fe3 O1 1.918527 1_555
Fe3 O9 2.014291 1_555
Fe3 O8 2.014688 1_645
Fe3 O10 2.015081 1_545
Fe3 O11 2.015343 1_655
Br0 Sr2 3.148923 1_555
Br0 Sr3 3.148926 1_555
Br0 Sr2 3.149441 1_565
Br0 Sr3 3.149554 1_455
Br1 Sr3 3.148810 1_545
Br1 Sr2 3.148945 1_655
Br1 Sr2 3.149578 1_555
Br1 Sr3 3.149624 1_555
Br2 Sr1 3.148934 1_455
Br2 Sr0 3.148990 1_565
Br2 Sr0 3.149458 1_555
Br2 Sr1 3.149617 1_555
Br3 Sr1 3.148795 1_555
Br3 Sr0 3.148954 1_555
Br3 Sr0 3.149582 1_655
Br3 Sr1 3.149639 1_545
O0 Sr7 2.460452 1_554
O0 Sr5 2.826058 1_555
O0 Sr4 2.826334 1_555
O0 Sr4 2.826592 1_565
O0 Sr5 2.826961 1_455
O1 Sr6 2.460592 1_654
O1 Sr4 2.826085 1_655
O1 Sr5 2.826240 1_545
O1 Sr5 2.826649 1_555
O1 Sr4 2.826938 1_555
O2 Sr5 2.460436 1_456
O2 Sr7 2.826046 1_455
O2 Sr6 2.826340 1_565
O2 Sr6 2.826582 1_555
O2 Sr7 2.826977 1_555
O3 Sr4 2.460561 1_556
O3 Sr6 2.826082 1_555
O3 Sr7 2.826252 1_555
O3 Sr7 2.826650 1_545
O3 Sr6 2.826947 1_655
O4 Sr0 2.570546 1_655
O4 Sr1 2.571128 1_555
O4 Sr7 2.783305 1_555
O4 Sr6 2.783356 1_655
O5 Sr1 2.570685 1_545
O5 Sr0 2.571248 1_555
O5 Sr6 2.783358 1_555
O5 Sr7 2.783513 1_545
O6 Sr1 2.570917 1_555
O6 Sr0 2.571444 1_555
O6 Sr6 2.783793 1_555
O6 Sr7 2.784793 1_555
O7 Sr0 2.571003 1_655
O7 Sr1 2.571530 1_545
O7 Sr7 2.783896 1_545
O7 Sr6 2.784809 1_655
O8 Sr3 2.570939 1_455
O8 Sr2 2.571435 1_565
O8 Sr4 2.783788 1_565
O8 Sr5 2.784776 1_455
O9 Sr2 2.571025 1_555
O9 Sr3 2.571495 1_555
O9 Sr5 2.783922 1_555
O9 Sr4 2.784783 1_555
O10 Sr2 2.570553 1_565
O10 Sr3 2.571130 1_555
O10 Sr5 2.783324 1_555
O10 Sr4 2.783359 1_565
O11 Sr3 2.570669 1_455
O11 Sr2 2.571254 1_555
O11 Sr4 2.783325 1_555
O11 Sr5 2.783502 1_455
