# generated using pymatgen
data_P2O2F3
_symmetry_space_group_name_H-M   'P 1'
_cell_length_a   13.23493618
_cell_length_b   13.23493618
_cell_length_c   9.54030000
_cell_angle_alpha   90.00000000
_cell_angle_beta   90.00000000
_cell_angle_gamma   120.00000089
_symmetry_Int_Tables_number   1
_chemical_formula_structural   P2O2F3
_chemical_formula_sum   'P24 O24 F36'
_cell_volume   1447.22601977
_cell_formula_units_Z   12
loop_
 _symmetry_equiv_pos_site_id
 _symmetry_equiv_pos_as_xyz
  1  'x, y, z'
loop_
 _atom_site_type_symbol
 _atom_site_label
 _atom_site_symmetry_multiplicity
 _atom_site_fract_x
 _atom_site_fract_y
 _atom_site_fract_z
 _atom_site_occupancy
  P  P0  1  0.33333300  0.66666700  0.96695200  1
  P  P1  1  0.88339300  0.43549300  0.35232600  1
  P  P2  1  0.00000000  0.00000000  0.42145900  1
  P  P3  1  0.55120900  0.76305300  0.78574400  1
  P  P4  1  0.93908400  0.78806400  0.09954300  1
  P  P5  1  0.21184400  0.76305300  0.28574400  1
  P  P6  1  0.21184400  0.44879100  0.78574400  1
  P  P7  1  0.88339300  0.44790000  0.85232600  1
  P  P8  1  0.66666700  0.33333300  0.53227200  1
  P  P9  1  0.66666700  0.33333300  0.03227200  1
  P  P10  1  0.93908400  0.15102000  0.59954300  1
  P  P11  1  0.55210000  0.11660700  0.35232600  1
  P  P12  1  0.84898000  0.78806400  0.59954300  1
  P  P13  1  0.55210000  0.43549300  0.85232600  1
  P  P14  1  0.56450700  0.11660700  0.85232600  1
  P  P15  1  0.21193600  0.06091600  0.59954300  1
  P  P16  1  0.21193600  0.15102000  0.09954300  1
  P  P17  1  0.84898000  0.06091600  0.09954300  1
  P  P18  1  0.33333300  0.66666700  0.46695200  1
  P  P19  1  0.55120900  0.78815600  0.28574400  1
  P  P20  1  0.23694700  0.44879100  0.28574400  1
  P  P21  1  0.56450700  0.44790000  0.35232600  1
  P  P22  1  0.00000000  0.00000000  0.92145900  1
  P  P23  1  0.23694700  0.78815600  0.78574400  1
  O  O0  1  0.64407300  0.21318300  0.46902600  1
  O  O1  1  0.56911000  0.35592700  0.46902600  1
  O  O2  1  0.92132000  0.04772300  0.48499300  1
  O  O3  1  0.30243300  0.54393800  0.90410600  1
  O  O4  1  0.78681700  0.35592700  0.96902600  1
  O  O5  1  0.12640300  0.04772300  0.98499300  1
  O  O6  1  0.30243300  0.75849400  0.40410600  1
  O  O7  1  0.24150600  0.54393800  0.40410600  1
  O  O8  1  0.64407300  0.43089000  0.96902600  1
  O  O9  1  0.45606200  0.69756700  0.40410600  1
  O  O10  1  0.92132000  0.87359700  0.98499300  1
  O  O11  1  0.78681700  0.43089000  0.46902600  1
  O  O12  1  0.33333300  0.66666700  0.12173200  1
  O  O13  1  0.45606200  0.75849400  0.90410600  1
  O  O14  1  0.12640300  0.07868000  0.48499300  1
  O  O15  1  0.95227700  0.07868000  0.98499300  1
  O  O16  1  0.00000000  0.00000000  0.76677500  1
  O  O17  1  0.66666700  0.33333300  0.18703900  1
  O  O18  1  0.24150600  0.69756700  0.90410600  1
  O  O19  1  0.33333300  0.66666700  0.62173200  1
  O  O20  1  0.00000000  0.00000000  0.26677500  1
  O  O21  1  0.56911000  0.21318300  0.96902600  1
  O  O22  1  0.66666700  0.33333300  0.68703900  1
  O  O23  1  0.95227700  0.87359700  0.48499300  1
  F  F0  1  0.45122300  0.09956900  0.77039800  1
  F  F1  1  0.82022300  0.74709600  0.18225300  1
  F  F2  1  0.51010500  0.00568700  0.45366500  1
  F  F3  1  0.99431300  0.50441800  0.45366500  1
  F  F4  1  0.92687300  0.17977700  0.18225300  1
  F  F5  1  0.16964200  0.83267200  0.88615400  1
  F  F6  1  0.12394500  0.43218400  0.20479800  1
  F  F7  1  0.66303000  0.83035800  0.88615400  1
  F  F8  1  0.66303000  0.83267200  0.38615400  1
  F  F9  1  0.51010500  0.50441800  0.95366500  1
  F  F10  1  0.32311400  0.10987700  0.49768600  1
  F  F11  1  0.45122300  0.35165400  0.27039800  1
  F  F12  1  0.64834600  0.09956900  0.27039800  1
  F  F13  1  0.89012300  0.21323700  0.49768600  1
  F  F14  1  0.32311400  0.21323700  0.99768600  1
  F  F15  1  0.49558200  0.00568700  0.95366500  1
  F  F16  1  0.49558200  0.48989500  0.45366500  1
  F  F17  1  0.99431300  0.48989500  0.95366500  1
  F  F18  1  0.56781600  0.69176200  0.20479800  1
  F  F19  1  0.89012300  0.67688600  0.99768600  1
  F  F20  1  0.25290400  0.17977700  0.68225300  1
  F  F21  1  0.78676300  0.10987700  0.99768600  1
  F  F22  1  0.16732800  0.33697000  0.88615400  1
  F  F23  1  0.16964200  0.33697000  0.38615400  1
  F  F24  1  0.25290400  0.07312700  0.18225300  1
  F  F25  1  0.92687300  0.74709600  0.68225300  1
  F  F26  1  0.90043100  0.35165400  0.77039800  1
  F  F27  1  0.12394500  0.69176200  0.70479800  1
  F  F28  1  0.16732800  0.83035800  0.38615400  1
  F  F29  1  0.56781600  0.87605500  0.70479800  1
  F  F30  1  0.30823800  0.87605500  0.20479800  1
  F  F31  1  0.64834600  0.54877700  0.77039800  1
  F  F32  1  0.78676300  0.67688600  0.49768600  1
  F  F33  1  0.82022300  0.07312700  0.68225300  1
  F  F34  1  0.90043100  0.54877700  0.27039800  1
  F  F35  1  0.30823800  0.43218400  0.70479800  1
loop_
_geom_bond_atom_site_label_1
_geom_bond_atom_site_label_2
_geom_bond_distance
_geom_bond_site_symmetry_2
O0 P8 1.583239 1_555
O0 P11 1.673062 1_555
O1 P8 1.583252 1_555
O1 P21 1.673062 1_555
O2 P2 1.583793 1_655
O2 P10 1.672483 1_555
O3 P0 1.581404 1_555
O3 P6 1.669890 1_555
O4 P9 1.583239 1_556
O4 P7 1.673062 1_555
O5 P22 1.583793 1_555
O5 P16 1.672483 1_556
O6 P18 1.581380 1_555
O6 P5 1.669896 1_555
O7 P18 1.581397 1_555
O7 P20 1.669886 1_555
O8 P9 1.583252 1_556
O8 P13 1.673062 1_555
O9 P18 1.581404 1_555
O9 P19 1.669890 1_555
O10 P22 1.583793 1_665
O10 P4 1.672483 1_556
O11 P8 1.583244 1_555
O11 P1 1.673062 1_555
O12 P0 1.476648 1_554
O13 P0 1.581397 1_555
O13 P3 1.669886 1_555
O14 P2 1.583793 1_555
O14 P15 1.672483 1_555
O15 P22 1.583793 1_655
O15 P17 1.672483 1_556
O16 P22 1.475732 1_555
O17 P9 1.476524 1_555
O18 P0 1.581380 1_555
O18 P23 1.669896 1_555
O19 P18 1.476648 1_555
O20 P2 1.475732 1_555
O21 P9 1.583244 1_556
O21 P14 1.673062 1_555
O22 P8 1.476524 1_555
O23 P2 1.583793 1_665
O23 P12 1.672483 1_555
F0 P14 1.603623 1_555
F1 P4 1.593228 1_555
F2 P11 1.607103 1_555
F3 P1 1.607103 1_555
F4 P17 1.593228 1_555
F5 P23 1.607193 1_555
F6 P20 1.597718 1_555
F7 P3 1.607193 1_555
F8 P19 1.607193 1_555
F9 P13 1.607103 1_555
F10 P15 1.604937 1_555
F11 P21 1.603623 1_555
F12 P11 1.603623 1_555
F13 P10 1.604937 1_555
F14 P16 1.604937 1_556
F15 P14 1.607103 1_555
F16 P21 1.607103 1_555
F17 P7 1.607103 1_555
F18 P19 1.597707 1_555
F19 P4 1.604937 1_556
F20 P15 1.593228 1_555
F21 P17 1.604937 1_556
F22 P6 1.607193 1_555
F23 P20 1.607193 1_555
F24 P16 1.593228 1_555
F25 P12 1.593228 1_555
F26 P7 1.603623 1_555
F27 P23 1.597714 1_555
F28 P5 1.607193 1_555
F29 P3 1.597718 1_555
F30 P5 1.597714 1_555
F31 P13 1.603623 1_555
F32 P12 1.604937 1_555
F33 P10 1.593228 1_555
F34 P1 1.603623 1_555
F35 P6 1.597707 1_555
