# generated using pymatgen
data_Cs3ClO
_symmetry_space_group_name_H-M   'P 1'
_cell_length_a   4.44156614
_cell_length_b   9.55407043
_cell_length_c   16.43001581
_cell_angle_alpha   90.00000000
_cell_angle_beta   90.00000000
_cell_angle_gamma   90.00000000
_symmetry_Int_Tables_number   1
_chemical_formula_structural   Cs3ClO
_chemical_formula_sum   'Cs12 Cl4 O4'
_cell_volume   697.20830779
_cell_formula_units_Z   4
loop_
 _symmetry_equiv_pos_site_id
 _symmetry_equiv_pos_as_xyz
  1  'x, y, z'
loop_
 _atom_site_type_symbol
 _atom_site_label
 _atom_site_symmetry_multiplicity
 _atom_site_fract_x
 _atom_site_fract_y
 _atom_site_fract_z
 _atom_site_occupancy
  Cs  Cs0  1  0.75000000  0.71217225  0.29108285  1
  Cs  Cs1  1  0.25000000  0.02695931  0.40099670  1
  Cs  Cs2  1  0.25000000  0.52695931  0.09900330  1
  Cs  Cs3  1  0.25000000  0.78782775  0.79108285  1
  Cs  Cs4  1  0.75000000  0.82878135  0.00129930  1
  Cs  Cs5  1  0.25000000  0.28782775  0.70891715  1
  Cs  Cs6  1  0.25000000  0.17121865  0.99870070  1
  Cs  Cs7  1  0.75000000  0.47304069  0.90099670  1
  Cs  Cs8  1  0.25000000  0.67121865  0.50129930  1
  Cs  Cs9  1  0.75000000  0.32878135  0.49870070  1
  Cs  Cs10  1  0.75000000  0.21217225  0.20891715  1
  Cs  Cs11  1  0.75000000  0.97304069  0.59900330  1
  Cl  Cl0  1  0.75000000  0.57685398  0.67220423  1
  Cl  Cl1  1  0.25000000  0.42314602  0.32779577  1
  Cl  Cl2  1  0.25000000  0.92314602  0.17220423  1
  Cl  Cl3  1  0.75000000  0.07685398  0.82779577  1
  O  O0  1  0.25000000  0.16593124  0.56126810  1
  O  O1  1  0.75000000  0.83406876  0.43873190  1
  O  O2  1  0.75000000  0.33406876  0.06126810  1
  O  O3  1  0.25000000  0.66593124  0.93873190  1
loop_
_geom_bond_atom_site_label_1
_geom_bond_atom_site_label_2
_geom_bond_distance
_geom_bond_site_symmetry_2
Cs0 O1 2.690945 1_555
Cs1 O0 2.949064 1_555
Cs1 O1 2.951696 1_445
Cs1 O1 2.951696 1_545
Cs2 O3 2.949064 1_554
Cs2 O2 2.951696 1_555
Cs2 O2 2.951696 1_455
Cs3 O3 2.690945 1_555
Cs4 O3 2.899896 1_554
Cs4 O3 2.899896 1_654
Cs5 O0 2.690945 1_555
Cs6 O2 2.899896 1_456
Cs6 O2 2.899896 1_556
Cs7 O2 2.949064 1_556
Cs7 O3 2.951696 1_555
Cs7 O3 2.951696 1_655
Cs8 O1 2.899896 1_455
Cs8 O1 2.899896 1_555
Cs9 O0 2.899896 1_555
Cs9 O0 2.899896 1_655
Cs10 O2 2.690945 1_555
Cs11 O1 2.949064 1_555
Cs11 O0 2.951696 1_565
Cs11 O0 2.951696 1_665
Cl0 Cs3 3.579058 1_655
Cl0 Cs3 3.579058 1_555
Cl0 Cs5 3.594569 1_655
Cl0 Cs5 3.594569 1_555
Cl0 Cs8 3.691802 1_655
Cl0 Cs8 3.691802 1_555
Cl0 Cs9 3.707248 1_555
Cl0 Cs7 3.887712 1_555
Cl0 Cs11 3.971672 1_555
Cl1 Cs10 3.579058 1_555
Cl1 Cs10 3.579058 1_455
Cl1 Cs0 3.594569 1_455
Cl1 Cs0 3.594569 1_555
Cl1 Cs9 3.691802 1_455
Cl1 Cs9 3.691802 1_555
Cl1 Cs8 3.707248 1_555
Cl1 Cs2 3.887712 1_555
Cl1 Cs1 3.971672 1_555
Cl2 Cs0 3.579058 1_555
Cl2 Cs0 3.579058 1_455
Cl2 Cs10 3.594569 1_565
Cl2 Cs10 3.594569 1_465
Cl2 Cs4 3.691802 1_555
Cl2 Cs4 3.691802 1_455
Cl2 Cs6 3.707248 1_564
Cl2 Cs1 3.887712 1_565
Cl2 Cs2 3.971672 1_555
Cl3 Cs5 3.579058 1_555
Cl3 Cs5 3.579058 1_655
Cl3 Cs3 3.594569 1_645
Cl3 Cs3 3.594569 1_545
Cl3 Cs6 3.691802 1_555
Cl3 Cs6 3.691802 1_655
Cl3 Cs4 3.707248 1_546
Cl3 Cs11 3.887712 1_545
Cl3 Cs7 3.971672 1_555
