# generated using pymatgen
data_Cs4Ba(PO3)6
_symmetry_space_group_name_H-M   'P 1'
_cell_length_a   11.74606862
_cell_length_b   11.74606862
_cell_length_c   9.26490800
_cell_angle_alpha   90.00000000
_cell_angle_beta   90.00000000
_cell_angle_gamma   120.00000350
_symmetry_Int_Tables_number   1
_chemical_formula_structural   Cs4Ba(PO3)6
_chemical_formula_sum   'Cs8 Ba2 P12 O36'
_cell_volume   1107.02338453
_cell_formula_units_Z   2
loop_
 _symmetry_equiv_pos_site_id
 _symmetry_equiv_pos_as_xyz
  1  'x, y, z'
loop_
 _atom_site_type_symbol
 _atom_site_label
 _atom_site_symmetry_multiplicity
 _atom_site_fract_x
 _atom_site_fract_y
 _atom_site_fract_z
 _atom_site_occupancy
  Cs  Cs0  1  0.00758500  0.23693400  0.00917800  1
  Cs  Cs1  1  0.23693400  0.00758500  0.50917800  1
  Cs  Cs2  1  0.99241500  0.22935000  0.50917800  1
  Cs  Cs3  1  0.76306600  0.77065000  0.00917800  1
  Cs  Cs4  1  0.77065000  0.76306600  0.50917800  1
  Cs  Cs5  1  0.22935000  0.99241500  0.00917800  1
  Cs  Cs6  1  0.66666700  0.33333300  0.74983200  1
  Cs  Cs7  1  0.33333300  0.66666700  0.24983200  1
  Ba  Ba0  1  0.33333300  0.66666700  0.75936600  1
  Ba  Ba1  1  0.66666700  0.33333300  0.25936600  1
  P  P0  1  0.54496200  0.99661000  0.49434900  1
  P  P1  1  0.28571900  0.30879300  0.74625600  1
  P  P2  1  0.45503800  0.45164700  0.99434900  1
  P  P3  1  0.30879300  0.28571900  0.24625600  1
  P  P4  1  0.99661000  0.54496200  0.99434900  1
  P  P5  1  0.69120700  0.97692600  0.74625600  1
  P  P6  1  0.71428100  0.02307400  0.24625600  1
  P  P7  1  0.00339000  0.54835300  0.49434900  1
  P  P8  1  0.02307400  0.71428100  0.74625600  1
  P  P9  1  0.45164700  0.45503800  0.49434900  1
  P  P10  1  0.54835300  0.00339000  0.99434900  1
  P  P11  1  0.97692600  0.69120700  0.24625600  1
  O  O0  1  0.67582400  0.02289700  0.58481600  1
  O  O1  1  0.02289700  0.67582400  0.08481600  1
  O  O2  1  0.95246700  0.57691000  0.83919400  1
  O  O3  1  0.37555700  0.42309000  0.33919400  1
  O  O4  1  0.34707300  0.32417600  0.58481600  1
  O  O5  1  0.32417600  0.34707300  0.08481600  1
  O  O6  1  0.57691000  0.95246700  0.33919400  1
  O  O7  1  0.57677900  0.45500100  0.04912800  1
  O  O8  1  0.42322100  0.87822200  0.54912800  1
  O  O9  1  0.95372800  0.78977900  0.77456200  1
  O  O10  1  0.97710300  0.65292700  0.58481600  1
  O  O11  1  0.12593200  0.54890200  0.98073100  1
  O  O12  1  0.12177800  0.54499900  0.54912800  1
  O  O13  1  0.78977900  0.95372800  0.27456200  1
  O  O14  1  0.16394900  0.21022100  0.27456200  1
  O  O15  1  0.87406800  0.42297000  0.48073100  1
  O  O16  1  0.38898900  0.21941700  0.26198700  1
  O  O17  1  0.65292700  0.97710300  0.08481600  1
  O  O18  1  0.45109800  0.57703000  0.98073100  1
  O  O19  1  0.87822200  0.42322100  0.04912800  1
  O  O20  1  0.57703000  0.45109800  0.48073100  1
  O  O21  1  0.45500100  0.57677900  0.54912800  1
  O  O22  1  0.21022100  0.16394900  0.77456200  1
  O  O23  1  0.04753300  0.62444300  0.33919400  1
  O  O24  1  0.61101100  0.83042800  0.76198700  1
  O  O25  1  0.54890200  0.12593200  0.48073100  1
  O  O26  1  0.54499900  0.12177800  0.04912800  1
  O  O27  1  0.78058300  0.16957200  0.26198700  1
  O  O28  1  0.16957200  0.78058300  0.76198700  1
  O  O29  1  0.62444300  0.04753300  0.83919400  1
  O  O30  1  0.83042800  0.61101100  0.26198700  1
  O  O31  1  0.42297000  0.87406800  0.98073100  1
  O  O32  1  0.42309000  0.37555700  0.83919400  1
  O  O33  1  0.21941700  0.38898900  0.76198700  1
  O  O34  1  0.04627200  0.83605100  0.27456200  1
  O  O35  1  0.83605100  0.04627200  0.77456200  1
loop_
_geom_bond_atom_site_label_1
_geom_bond_atom_site_label_2
_geom_bond_distance
_geom_bond_site_symmetry_2
Cs0 O35 3.047581 1_454
Cs0 O14 3.177038 1_555
Cs0 O33 3.190935 1_554
Cs0 O11 3.214928 1_554
Cs0 O19 3.249423 1_455
Cs0 O27 3.333474 1_455
Cs0 O5 3.344039 1_555
Cs0 O22 3.628447 1_554
Cs1 O34 3.047581 1_545
Cs1 O22 3.177038 1_555
Cs1 O16 3.190935 1_555
Cs1 O25 3.214928 1_555
Cs1 O8 3.249423 1_545
Cs1 O28 3.333474 1_545
Cs1 O4 3.344039 1_555
Cs1 O14 3.628447 1_555
Cs2 O14 3.047586 1_655
Cs2 O35 3.177042 1_555
Cs2 O27 3.190933 1_555
Cs2 O15 3.214917 1_555
Cs2 O12 3.249412 1_655
Cs2 O33 3.333472 1_655
Cs2 O0 3.344041 1_555
Cs2 O13 3.628453 1_545
Cs3 O9 3.047577 1_554
Cs3 O13 3.177045 1_555
Cs3 O24 3.190941 1_554
Cs3 O18 3.214926 1_554
Cs3 O7 3.249413 1_555
Cs3 O30 3.333466 1_555
Cs3 O17 3.344050 1_555
Cs3 O35 3.628456 1_564
Cs4 O13 3.047577 1_555
Cs4 O9 3.177045 1_555
Cs4 O30 3.190941 1_555
Cs4 O20 3.214926 1_555
Cs4 O21 3.249413 1_555
Cs4 O24 3.333466 1_555
Cs4 O10 3.344050 1_555
Cs4 O34 3.628456 1_655
Cs5 O22 3.047586 1_564
Cs5 O34 3.177042 1_555
Cs5 O28 3.190933 1_554
Cs5 O31 3.214917 1_554
Cs5 O26 3.249412 1_565
Cs5 O16 3.333472 1_565
Cs5 O1 3.344041 1_555
Cs5 O9 3.628453 1_454
Cs6 O29 3.245937 1_555
Cs6 O2 3.245941 1_555
Cs6 O32 3.245948 1_555
Cs6 O15 3.270233 1_555
Cs6 O25 3.270233 1_555
Cs6 O20 3.270239 1_555
Cs6 O19 3.515008 1_556
Cs6 O26 3.515008 1_556
Cs6 O7 3.515014 1_556
Cs7 O23 3.245937 1_555
Cs7 O6 3.245941 1_555
Cs7 O3 3.245948 1_555
Cs7 O31 3.270233 1_554
Cs7 O11 3.270233 1_554
Cs7 O18 3.270239 1_554
Cs7 O8 3.515008 1_555
Cs7 O12 3.515008 1_555
Cs7 O21 3.515014 1_555
Ba0 O28 2.839873 1_555
Ba0 O24 2.839882 1_555
Ba0 O33 2.839883 1_555
Ba0 O8 2.908624 1_555
Ba0 O12 2.908624 1_555
Ba0 O21 2.908632 1_555
Ba0 O31 2.946980 1_555
Ba0 O11 2.946981 1_555
Ba0 O18 2.946988 1_555
Ba1 O27 2.839873 1_555
Ba1 O30 2.839882 1_555
Ba1 O16 2.839883 1_555
Ba1 O19 2.908624 1_555
Ba1 O26 2.908624 1_555
Ba1 O7 2.908632 1_555
Ba1 O15 2.946980 1_555
Ba1 O25 2.946981 1_555
Ba1 O20 2.946988 1_555
O0 P5 1.630642 1_545
O0 P0 1.638893 1_545
O1 P11 1.630642 1_455
O1 P4 1.638893 1_454
O2 P4 1.634211 1_555
O2 P8 1.641536 1_655
O3 P9 1.634206 1_555
O3 P3 1.641536 1_555
O4 P1 1.630642 1_555
O4 P9 1.638890 1_555
O5 P3 1.630642 1_555
O5 P2 1.638890 1_554
O6 P0 1.634211 1_555
O6 P6 1.641536 1_565
O7 P2 1.499211 1_554
O8 P0 1.499216 1_555
O9 P8 1.497004 1_655
O10 P8 1.630642 1_655
O10 P7 1.638883 1_655
O11 P4 1.501732 1_455
O12 P7 1.499222 1_555
O13 P6 1.497004 1_565
O14 P3 1.497003 1_555
O15 P7 1.501737 1_655
O16 P3 1.499567 1_555
O17 P6 1.630642 1_565
O17 P10 1.638883 1_564
O18 P2 1.501743 1_555
O19 P4 1.499216 1_554
O20 P9 1.501743 1_555
O21 P9 1.499211 1_555
O22 P1 1.497003 1_555
O23 P7 1.634206 1_555
O23 P11 1.641536 1_455
O24 P5 1.499567 1_555
O25 P0 1.501732 1_545
O26 P10 1.499222 1_554
O27 P6 1.499567 1_555
O28 P8 1.499567 1_555
O29 P10 1.634206 1_555
O29 P5 1.641536 1_545
O30 P11 1.499567 1_555
O31 P10 1.501737 1_565
O32 P2 1.634206 1_555
O32 P1 1.641536 1_555
O33 P1 1.499567 1_555
O34 P11 1.497003 1_455
O35 P5 1.497003 1_545
