# generated using pymatgen
data_AlSb2(TeCl2)2
_symmetry_space_group_name_H-M   'P 1'
_cell_length_a   9.85488000
_cell_length_b   13.72276755
_cell_length_c   18.56542872
_cell_angle_alpha   77.62708848
_cell_angle_beta   88.09447922
_cell_angle_gamma   87.96360144
_symmetry_Int_Tables_number   1
_chemical_formula_structural   AlSb2(TeCl2)2
_chemical_formula_sum   'Al8 Sb16 Te16 Cl32'
_cell_volume   2450.00959887
_cell_formula_units_Z   8
loop_
 _symmetry_equiv_pos_site_id
 _symmetry_equiv_pos_as_xyz
  1  'x, y, z'
loop_
 _atom_site_type_symbol
 _atom_site_label
 _atom_site_symmetry_multiplicity
 _atom_site_fract_x
 _atom_site_fract_y
 _atom_site_fract_z
 _atom_site_occupancy
  Al  Al0  1  0.00659500  0.25197800  0.18509300  1
  Al  Al1  1  0.52940100  0.51733700  0.33149200  1
  Al  Al2  1  0.52353900  0.99617700  0.33797000  1
  Al  Al3  1  0.47059900  0.48266300  0.66850800  1
  Al  Al4  1  0.99340500  0.74802200  0.81490700  1
  Al  Al5  1  0.47646100  0.00382300  0.66203000  1
  Al  Al6  1  0.02123400  0.75808700  0.14027300  1
  Al  Al7  1  0.97876600  0.24191300  0.85972700  1
  Sb  Sb0  1  0.88139300  0.26374800  0.41674400  1
  Sb  Sb1  1  0.68355600  0.24295900  0.05220600  1
  Sb  Sb2  1  0.31644400  0.75704100  0.94779400  1
  Sb  Sb3  1  0.66341700  0.98328800  0.93709300  1
  Sb  Sb4  1  0.11860700  0.73625200  0.58325600  1
  Sb  Sb5  1  0.81394900  0.04704000  0.46494000  1
  Sb  Sb6  1  0.70471800  0.76384500  0.99578900  1
  Sb  Sb7  1  0.29528200  0.23615500  0.00421100  1
  Sb  Sb8  1  0.80782000  0.51434700  0.53234500  1
  Sb  Sb9  1  0.56646800  0.50650600  0.89586200  1
  Sb  Sb10  1  0.18605100  0.95296000  0.53506000  1
  Sb  Sb11  1  0.19218000  0.48565300  0.46765500  1
  Sb  Sb12  1  0.33658300  0.01671200  0.06290700  1
  Sb  Sb13  1  0.03774200  0.22342500  0.61611400  1
  Sb  Sb14  1  0.96225800  0.77657500  0.38388600  1
  Sb  Sb15  1  0.43353200  0.49349400  0.10413800  1
  Te  Te0  1  0.62407300  0.01787900  0.08426200  1
  Te  Te1  1  0.30465500  0.51456800  0.96435200  1
  Te  Te2  1  0.37592700  0.98212100  0.91573800  1
  Te  Te3  1  0.05580900  0.46820900  0.60951200  1
  Te  Te4  1  0.94300900  0.01546800  0.60591600  1
  Te  Te5  1  0.94419100  0.53179100  0.39048800  1
  Te  Te6  1  0.05699100  0.98453200  0.39408400  1
  Te  Te7  1  0.84774700  0.75226900  0.53023900  1
  Te  Te8  1  0.15225300  0.24773100  0.46976100  1
  Te  Te9  1  0.69534500  0.48543200  0.03564800  1
  Te  Te10  1  0.43476000  0.25887400  0.13388500  1
  Te  Te11  1  0.77531300  0.28635600  0.55879400  1
  Te  Te12  1  0.56524000  0.74112600  0.86611500  1
  Te  Te13  1  0.45810800  0.73181400  0.08315600  1
  Te  Te14  1  0.22468700  0.71364400  0.44120600  1
  Te  Te15  1  0.54189200  0.26818600  0.91684400  1
  Cl  Cl0  1  0.79275800  0.25135400  0.21582800  1
  Cl  Cl1  1  0.73249700  0.97010900  0.30256600  1
  Cl  Cl2  1  0.51302600  0.10359500  0.55649400  1
  Cl  Cl3  1  0.31729600  0.53857100  0.30197300  1
  Cl  Cl4  1  0.20724200  0.74864600  0.78417200  1
  Cl  Cl5  1  0.12180900  0.28261700  0.27416600  1
  Cl  Cl6  1  0.38624800  0.96604500  0.25821700  1
  Cl  Cl7  1  0.54617500  0.38625600  0.41947700  1
  Cl  Cl8  1  0.06639400  0.10911800  0.16196700  1
  Cl  Cl9  1  0.59882300  0.64342400  0.37031300  1
  Cl  Cl10  1  0.50179800  0.14798300  0.35000400  1
  Cl  Cl11  1  0.35393300  0.50290100  0.76493700  1
  Cl  Cl12  1  0.40117700  0.35657600  0.62968700  1
  Cl  Cl13  1  0.45382500  0.61374400  0.58052300  1
  Cl  Cl14  1  0.90653200  0.38371700  0.87985500  1
  Cl  Cl15  1  0.05256800  0.86943100  0.03901900  1
  Cl  Cl16  1  0.09346800  0.61628300  0.12014500  1
  Cl  Cl17  1  0.19323200  0.24297800  0.83184600  1
  Cl  Cl18  1  0.04169800  0.36526700  0.08683800  1
  Cl  Cl19  1  0.95830200  0.63473300  0.91316200  1
  Cl  Cl20  1  0.26750300  0.02989100  0.69743400  1
  Cl  Cl21  1  0.86625200  0.20395800  0.77219100  1
  Cl  Cl22  1  0.68270400  0.46142900  0.69802700  1
  Cl  Cl23  1  0.61375200  0.03395500  0.74178300  1
  Cl  Cl24  1  0.64606700  0.49709900  0.23506300  1
  Cl  Cl25  1  0.93360600  0.89088200  0.83803300  1
  Cl  Cl26  1  0.94743200  0.13056900  0.96098100  1
  Cl  Cl27  1  0.87819100  0.71738300  0.72583400  1
  Cl  Cl28  1  0.49820200  0.85201700  0.64999600  1
  Cl  Cl29  1  0.13374800  0.79604200  0.22780900  1
  Cl  Cl30  1  0.80676800  0.75702200  0.16815400  1
  Cl  Cl31  1  0.48697400  0.89640500  0.44350600  1
loop_
_geom_bond_atom_site_label_1
_geom_bond_atom_site_label_2
_geom_bond_distance
_geom_bond_site_symmetry_2
Al0 Cl8 2.153301 1_555
Al0 Cl18 2.155232 1_555
Al0 Cl5 2.158094 1_555
Al0 Cl0 2.164662 1_455
Al1 Cl9 2.152360 1_555
Al1 Cl24 2.158120 1_555
Al1 Cl7 2.160757 1_555
Al1 Cl3 2.172311 1_555
Al2 Cl10 2.144781 1_565
Al2 Cl6 2.151564 1_555
Al2 Cl31 2.163756 1_555
Al2 Cl1 2.181497 1_555
Al3 Cl12 2.152360 1_555
Al3 Cl11 2.158120 1_555
Al3 Cl13 2.160757 1_555
Al3 Cl22 2.172311 1_555
Al4 Cl25 2.153301 1_555
Al4 Cl19 2.155232 1_555
Al4 Cl27 2.158094 1_555
Al4 Cl4 2.164662 1_655
Al5 Cl28 2.144781 1_545
Al5 Cl23 2.151564 1_555
Al5 Cl2 2.163756 1_555
Al5 Cl20 2.181497 1_555
Al6 Cl16 2.151410 1_555
Al6 Cl30 2.159023 1_455
Al6 Cl29 2.159968 1_555
Al6 Cl15 2.174337 1_555
Al7 Cl14 2.151410 1_555
Al7 Cl17 2.159023 1_655
Al7 Cl21 2.159968 1_555
Al7 Cl26 2.174337 1_555
Sb0 Te8 2.860518 1_655
Sb0 Te11 2.878938 1_555
Sb0 Sb5 3.007768 1_555
Sb1 Te15 2.865392 1_554
Sb1 Te10 2.866250 1_555
Sb1 Te0 3.091234 1_555
Sb1 Te9 3.281211 1_555
Sb2 Te13 2.865392 1_556
Sb2 Te12 2.866250 1_555
Sb2 Te2 3.091234 1_555
Sb2 Te1 3.281211 1_555
Sb3 Te2 2.874890 1_555
Sb3 Te0 2.883254 1_566
Sb3 Sb6 2.992919 1_555
Sb4 Te7 2.860518 1_455
Sb4 Te14 2.878938 1_555
Sb5 Te6 2.886351 1_645
Sb5 Te4 2.889945 1_555
Sb6 Te13 2.870323 1_556
Sb6 Te12 2.890426 1_555
Sb7 Te15 2.870323 1_554
Sb7 Te10 2.890426 1_555
Sb8 Te3 2.856595 1_655
Sb8 Te5 2.883881 1_555
Sb8 Te11 3.087831 1_555
Sb8 Te7 3.294209 1_555
Sb9 Te1 2.847453 1_555
Sb9 Te9 2.881521 1_556
Sb9 Te12 3.147519 1_555
Sb9 Te15 3.226461 1_555
Sb10 Te4 2.886351 1_465
Sb10 Te6 2.889945 1_555
Sb10 Sb4 3.007768 1_555
Sb11 Te5 2.856595 1_455
Sb11 Te3 2.883881 1_555
Sb11 Te14 3.087831 1_555
Sb11 Te8 3.294209 1_555
Sb12 Te0 2.874890 1_555
Sb12 Te2 2.883254 1_544
Sb12 Sb7 2.992919 1_555
Sb13 Te11 2.863070 1_455
Sb13 Te8 2.863890 1_555
Sb13 Te4 3.079598 1_455
Sb13 Te3 3.345890 1_555
Sb14 Te14 2.863070 1_655
Sb14 Te7 2.863890 1_555
Sb14 Te6 3.079598 1_655
Sb14 Te5 3.345890 1_555
Sb15 Te9 2.847453 1_555
Sb15 Te1 2.881521 1_554
Sb15 Te10 3.147519 1_555
Sb15 Te13 3.226461 1_555
Cl3 Sb11 3.219210 1_555
Cl22 Sb8 3.219210 1_555
