# generated using pymatgen
data_NdCu3Se2ClO8
_symmetry_space_group_name_H-M   'P 1'
_cell_length_a   6.44002000
_cell_length_b   7.18149800
_cell_length_c   9.72641300
_cell_angle_alpha   90.00000000
_cell_angle_beta   90.00000000
_cell_angle_gamma   90.00000000
_symmetry_Int_Tables_number   1
_chemical_formula_structural   NdCu3Se2ClO8
_chemical_formula_sum   'Nd2 Cu6 Se4 Cl2 O16'
_cell_volume   449.83678487
_cell_formula_units_Z   2
loop_
 _symmetry_equiv_pos_site_id
 _symmetry_equiv_pos_as_xyz
  1  'x, y, z'
loop_
 _atom_site_type_symbol
 _atom_site_label
 _atom_site_symmetry_multiplicity
 _atom_site_fract_x
 _atom_site_fract_y
 _atom_site_fract_z
 _atom_site_occupancy
  Nd  Nd0  1  0.25000000  0.26318200  0.25000000  1
  Nd  Nd1  1  0.75000000  0.73681800  0.75000000  1
  Cu  Cu0  1  0.50000000  0.00000000  0.50000000  1
  Cu  Cu1  1  0.25000000  0.79459300  0.25000000  1
  Cu  Cu2  1  0.00000000  0.00000000  0.00000000  1
  Cu  Cu3  1  0.75000000  0.20540700  0.75000000  1
  Cu  Cu4  1  0.00000000  0.00000000  0.50000000  1
  Cu  Cu5  1  0.50000000  0.00000000  0.00000000  1
  Se  Se0  1  0.75000000  0.40146400  0.44285400  1
  Se  Se1  1  0.25000000  0.59853600  0.55714600  1
  Se  Se2  1  0.25000000  0.59853600  0.94285400  1
  Se  Se3  1  0.75000000  0.40146400  0.05714600  1
  Cl  Cl0  1  0.25000000  0.15945100  0.75000000  1
  Cl  Cl1  1  0.75000000  0.84054900  0.25000000  1
  O  O0  1  0.75000000  0.42268800  0.87962700  1
  O  O1  1  0.03937800  0.74543100  0.58445200  1
  O  O2  1  0.46062200  0.74543100  0.58445200  1
  O  O3  1  0.53937800  0.25456900  0.41554800  1
  O  O4  1  0.96062200  0.25456900  0.08445200  1
  O  O5  1  0.75000000  0.42268800  0.62037300  1
  O  O6  1  0.03937800  0.74543100  0.91554800  1
  O  O7  1  0.75000000  0.01179400  0.61053400  1
  O  O8  1  0.75000000  0.01179400  0.88946600  1
  O  O9  1  0.96062200  0.25456900  0.41554800  1
  O  O10  1  0.25000000  0.57731200  0.37962700  1
  O  O11  1  0.53937800  0.25456900  0.08445200  1
  O  O12  1  0.46062200  0.74543100  0.91554800  1
  O  O13  1  0.25000000  0.57731200  0.12037300  1
  O  O14  1  0.25000000  0.98820600  0.38946600  1
  O  O15  1  0.25000000  0.98820600  0.11053400  1
loop_
_geom_bond_atom_site_label_1
_geom_bond_atom_site_label_2
_geom_bond_distance
_geom_bond_site_symmetry_2
Nd0 O14 2.395767 1_545
Nd0 O15 2.395767 1_545
Nd0 O9 2.463643 1_455
Nd0 O3 2.463643 1_555
Nd0 O4 2.463643 1_455
Nd0 O11 2.463643 1_555
Nd0 O10 2.584342 1_555
Nd0 O13 2.584342 1_555
Nd1 O7 2.395767 1_565
Nd1 O8 2.395767 1_565
Nd1 O6 2.463643 1_655
Nd1 O1 2.463643 1_655
Nd1 O12 2.463643 1_555
Nd1 O2 2.463643 1_555
Nd1 O0 2.584342 1_555
Nd1 O5 2.584342 1_555
Cu0 O14 1.937815 1_545
Cu0 O7 1.937815 1_555
Cu0 O3 2.020223 1_555
Cu0 O2 2.020223 1_545
Cu1 O14 1.942525 1_555
Cu1 O15 1.942525 1_555
Cu1 O13 2.006113 1_555
Cu1 O10 2.006113 1_555
Cu2 O15 1.937815 1_545
Cu2 O8 1.937815 1_454
Cu2 O4 2.020223 1_455
Cu2 O6 2.020223 1_544
Cu3 O7 1.942525 1_555
Cu3 O8 1.942525 1_555
Cu3 O0 2.006113 1_555
Cu3 O5 2.006113 1_555
Cu4 O14 1.937815 1_545
Cu4 O7 1.937815 1_455
Cu4 O9 2.020223 1_455
Cu4 O1 2.020223 1_545
Cu5 O15 1.937815 1_545
Cu5 O8 1.937815 1_554
Cu5 O11 2.020223 1_555
Cu5 O12 2.020223 1_544
O0 Se3 1.733338 1_556
O1 Se1 1.738751 1_555
O2 Se1 1.738751 1_555
O3 Se0 1.738751 1_555
O4 Se3 1.738751 1_555
O5 Se0 1.733338 1_555
O6 Se2 1.738751 1_555
O9 Se0 1.738751 1_555
O10 Se1 1.733338 1_555
O11 Se3 1.738751 1_555
O12 Se2 1.738751 1_555
O13 Se2 1.733338 1_554
