# generated using pymatgen
data_Co3(AsO4)2
_symmetry_space_group_name_H-M   'P 1'
_cell_length_a   9.65987516
_cell_length_b   5.82764369
_cell_length_c   10.27500743
_cell_angle_alpha   86.56334077
_cell_angle_beta   90.00000000
_cell_angle_gamma   90.00000000
_symmetry_Int_Tables_number   1
_chemical_formula_structural   Co3(AsO4)2
_chemical_formula_sum   'Co12 As8 O32'
_cell_volume   577.38426549
_cell_formula_units_Z   4
loop_
 _symmetry_equiv_pos_site_id
 _symmetry_equiv_pos_as_xyz
  1  'x, y, z'
loop_
 _atom_site_type_symbol
 _atom_site_label
 _atom_site_symmetry_multiplicity
 _atom_site_fract_x
 _atom_site_fract_y
 _atom_site_fract_z
 _atom_site_occupancy
  Co  Co0  1  0.13426603  0.88930610  0.46381151  1
  Co  Co1  1  0.87824002  0.64429078  0.05737991  1
  Co  Co2  1  0.62175998  0.64429078  0.55737991  1
  Co  Co3  1  0.63924797  0.35082443  0.28399217  1
  Co  Co4  1  0.63426603  0.11069390  0.03618849  1
  Co  Co5  1  0.36573397  0.88930610  0.96381151  1
  Co  Co6  1  0.86075203  0.35082443  0.78399217  1
  Co  Co7  1  0.86573397  0.11069390  0.53618849  1
  Co  Co8  1  0.37824002  0.35570922  0.44262009  1
  Co  Co9  1  0.36075203  0.64917557  0.71600783  1
  Co  Co10  1  0.13924797  0.64917557  0.21600783  1
  Co  Co11  1  0.12175998  0.35570922  0.94262009  1
  As  As0  1  0.55476782  0.12707279  0.70501950  1
  As  As1  1  0.34477245  0.36780935  0.11877335  1
  As  As2  1  0.94523218  0.12707279  0.20501950  1
  As  As3  1  0.44523218  0.87292721  0.29498050  1
  As  As4  1  0.65522755  0.63219065  0.88122665  1
  As  As5  1  0.84477245  0.63219065  0.38122665  1
  As  As6  1  0.05476782  0.87292721  0.79498050  1
  As  As7  1  0.15522755  0.36780935  0.61877335  1
  O  O0  1  0.76863320  0.13138293  0.19439902  1
  O  O1  1  0.51244598  0.62651728  0.37588273  1
  O  O2  1  0.50690297  0.10968953  0.36707487  1
  O  O3  1  0.00690297  0.89031047  0.13292513  1
  O  O4  1  0.47977207  0.63266063  0.88127814  1
  O  O5  1  0.26863320  0.86861707  0.30560098  1
  O  O6  1  0.97977207  0.36733937  0.61872186  1
  O  O7  1  0.25675417  0.60289084  0.04729590  1
  O  O8  1  0.48755402  0.37348272  0.62411727  1
  O  O9  1  0.75675417  0.39710916  0.45270410  1
  O  O10  1  0.01244598  0.37348272  0.12411727  1
  O  O11  1  0.27788473  0.38561292  0.27182294  1
  O  O12  1  0.98755402  0.62651728  0.87588273  1
  O  O13  1  0.49273220  0.88203335  0.13489176  1
  O  O14  1  0.23096700  0.15684548  0.53454817  1
  O  O15  1  0.76903300  0.84315452  0.46545183  1
  O  O16  1  0.77788473  0.61438708  0.22817706  1
  O  O17  1  0.52022793  0.36733937  0.11872186  1
  O  O18  1  0.26903300  0.15684548  0.03454817  1
  O  O19  1  0.02022793  0.63266063  0.38127814  1
  O  O20  1  0.50726780  0.11796665  0.86510824  1
  O  O21  1  0.23136680  0.86861707  0.80560098  1
  O  O22  1  0.99273220  0.11796665  0.36510824  1
  O  O23  1  0.22211527  0.38561292  0.77182294  1
  O  O24  1  0.49309703  0.89031047  0.63292513  1
  O  O25  1  0.73096700  0.84315452  0.96545183  1
  O  O26  1  0.72211527  0.61438708  0.72817706  1
  O  O27  1  0.73136680  0.13138293  0.69439902  1
  O  O28  1  0.99309703  0.10968953  0.86707487  1
  O  O29  1  0.00726780  0.88203335  0.63489176  1
  O  O30  1  0.24324583  0.60289084  0.54729590  1
  O  O31  1  0.74324583  0.39710916  0.95270410  1
loop_
_geom_bond_atom_site_label_1
_geom_bond_atom_site_label_2
_geom_bond_distance
_geom_bond_site_symmetry_2
Co0 O14 1.991877 1_565
Co0 O19 2.078861 1_555
Co0 O5 2.089350 1_555
Co0 O30 2.111491 1_555
Co0 O22 2.124019 1_465
Co0 O29 2.141941 1_555
Co1 O16 2.003322 1_555
Co1 O25 2.031730 1_554
Co1 O3 2.082358 1_655
Co1 O10 2.124098 1_655
Co1 O12 2.150984 1_554
Co1 O31 2.262306 1_554
Co2 O26 2.003322 1_555
Co2 O15 2.031730 1_555
Co2 O24 2.082358 1_555
Co2 O8 2.124098 1_555
Co2 O1 2.150984 1_555
Co2 O9 2.262306 1_555
Co3 O0 2.045996 1_555
Co3 O2 2.047940 1_555
Co3 O17 2.048230 1_555
Co3 O16 2.091872 1_555
Co3 O9 2.102934 1_555
Co3 O1 2.270459 1_555
Co4 O25 1.991877 1_544
Co4 O17 2.078861 1_555
Co4 O0 2.089350 1_555
Co4 O31 2.111491 1_554
Co4 O13 2.124019 1_545
Co4 O20 2.141941 1_554
Co5 O18 1.991877 1_566
Co5 O4 2.078861 1_555
Co5 O21 2.089350 1_555
Co5 O7 2.111491 1_556
Co5 O20 2.124019 1_565
Co5 O13 2.141941 1_556
Co6 O27 2.045996 1_555
Co6 O28 2.047940 1_555
Co6 O6 2.048230 1_555
Co6 O26 2.091872 1_555
Co6 O31 2.102934 1_555
Co6 O12 2.270459 1_555
Co7 O15 1.991877 1_545
Co7 O6 2.078861 1_555
Co7 O27 2.089350 1_555
Co7 O9 2.111491 1_555
Co7 O29 2.124019 1_645
Co7 O22 2.141941 1_555
Co8 O11 2.003322 1_555
Co8 O14 2.031730 1_555
Co8 O2 2.082358 1_555
Co8 O1 2.124098 1_555
Co8 O8 2.150984 1_555
Co8 O30 2.262306 1_555
Co9 O21 2.045996 1_555
Co9 O24 2.047940 1_555
Co9 O4 2.048230 1_555
Co9 O23 2.091872 1_555
Co9 O30 2.102934 1_555
Co9 O8 2.270459 1_555
Co10 O5 2.045996 1_555
Co10 O3 2.047940 1_555
Co10 O19 2.048230 1_555
Co10 O11 2.091872 1_555
Co10 O7 2.102934 1_555
Co10 O10 2.270459 1_555
Co11 O23 2.003322 1_555
Co11 O18 2.031730 1_556
Co11 O28 2.082358 1_455
Co11 O12 2.124098 1_455
Co11 O10 2.150984 1_556
Co11 O7 2.262306 1_556
As0 O20 1.705470 1_555
As0 O27 1.709499 1_555
As0 O24 1.711704 1_545
As0 O8 1.741127 1_555
As1 O17 1.694880 1_555
As1 O11 1.709044 1_555
As1 O18 1.709756 1_555
As1 O7 1.737383 1_555
As2 O22 1.705470 1_555
As2 O0 1.709499 1_555
As2 O3 1.711704 1_645
As2 O10 1.741127 1_655
As3 O13 1.705470 1_555
As3 O5 1.709499 1_555
As3 O2 1.711704 1_565
As3 O1 1.741127 1_555
As4 O4 1.694880 1_555
As4 O26 1.709044 1_555
As4 O25 1.709756 1_555
As4 O31 1.737383 1_555
As5 O19 1.694880 1_655
As5 O16 1.709044 1_555
As5 O15 1.709756 1_555
As5 O9 1.737383 1_555
As6 O29 1.705470 1_555
As6 O21 1.709499 1_555
As6 O28 1.711704 1_465
As6 O12 1.741127 1_455
As7 O6 1.694880 1_455
As7 O23 1.709044 1_555
As7 O14 1.709756 1_555
As7 O30 1.737383 1_555
