# generated using pymatgen
data_CdHg4(AsI2)2
_symmetry_space_group_name_H-M   'P 1'
_cell_length_a   13.42812600
_cell_length_b   8.22331300
_cell_length_c   8.31548347
_cell_angle_alpha   62.85842184
_cell_angle_beta   90.00000000
_cell_angle_gamma   90.00000000
_symmetry_Int_Tables_number   1
_chemical_formula_structural   CdHg4(AsI2)2
_chemical_formula_sum   'Cd2 Hg8 As4 I8'
_cell_volume   817.11305979
_cell_formula_units_Z   2
loop_
 _symmetry_equiv_pos_site_id
 _symmetry_equiv_pos_as_xyz
  1  'x, y, z'
loop_
 _atom_site_type_symbol
 _atom_site_label
 _atom_site_symmetry_multiplicity
 _atom_site_fract_x
 _atom_site_fract_y
 _atom_site_fract_z
 _atom_site_occupancy
  Cd  Cd0  1  0.83582200  0.00063100  0.00203400  1
  Cd  Cd1  1  0.33582200  0.99936900  0.99796600  1
  Hg  Hg0  1  0.79070100  0.67382700  0.66781700  1
  Hg  Hg1  1  0.54977300  0.02739800  0.57411600  1
  Hg  Hg2  1  0.04977300  0.97260200  0.42588400  1
  Hg  Hg3  1  0.55507600  0.51330100  0.05399400  1
  Hg  Hg4  1  0.29070100  0.32617300  0.33218300  1
  Hg  Hg5  1  0.02154700  0.47472300  0.44772900  1
  Hg  Hg6  1  0.52154700  0.52527700  0.55227100  1
  Hg  Hg7  1  0.05507600  0.48669900  0.94600600  1
  As  As0  1  0.47940800  0.34866300  0.37330800  1
  As  As1  1  0.60262900  0.68979500  0.71773700  1
  As  As2  1  0.97940800  0.65133700  0.62669200  1
  As  As3  1  0.10262900  0.31020500  0.28226300  1
  I  I0  1  0.24260100  0.32396000  0.74394300  1
  I  I1  1  0.31272500  0.70840800  0.91159500  1
  I  I2  1  0.04028600  0.88596000  0.06457400  1
  I  I3  1  0.74260100  0.67604000  0.25605700  1
  I  I4  1  0.54028600  0.11404000  0.93542600  1
  I  I5  1  0.81272500  0.29159200  0.08840500  1
  I  I6  1  0.80816200  0.11958700  0.63012700  1
  I  I7  1  0.30816200  0.88041300  0.36987300  1
loop_
_geom_bond_atom_site_label_1
_geom_bond_atom_site_label_2
_geom_bond_distance
_geom_bond_site_symmetry_2
Cd0 I6 2.810481 1_554
Cd0 I5 2.811538 1_555
Cd0 I3 2.830079 1_545
Cd0 I2 2.872346 1_645
Cd1 I7 2.810481 1_556
Cd1 I1 2.811538 1_555
Cd1 I0 2.830079 1_565
Cd1 I4 2.872346 1_565
Hg1 I4 3.391720 1_555
Hg2 I2 3.391720 1_555
As0 Hg6 2.572180 1_555
As0 Hg4 2.574862 1_555
As0 Hg1 2.575966 1_555
As0 Hg3 2.576014 1_555
As1 Hg6 2.570465 1_555
As1 Hg1 2.571451 1_565
As1 Hg0 2.572394 1_555
As1 Hg3 2.574870 1_556
As2 Hg5 2.572180 1_655
As2 Hg0 2.574862 1_555
As2 Hg2 2.575966 1_655
As2 Hg7 2.576014 1_655
As3 Hg5 2.570465 1_555
As3 Hg2 2.571451 1_545
As3 Hg4 2.572394 1_555
As3 Hg7 2.574870 1_554
