# generated using pymatgen
data_TmCoO3
_symmetry_space_group_name_H-M   'P 1'
_cell_length_a   5.13606200
_cell_length_b   5.70876600
_cell_length_c   7.36092400
_cell_angle_alpha   90.00000000
_cell_angle_beta   90.00000000
_cell_angle_gamma   90.00000000
_symmetry_Int_Tables_number   1
_chemical_formula_structural   TmCoO3
_chemical_formula_sum   'Tm4 Co4 O12'
_cell_volume   215.82653245
_cell_formula_units_Z   4
loop_
 _symmetry_equiv_pos_site_id
 _symmetry_equiv_pos_as_xyz
  1  'x, y, z'
loop_
 _atom_site_type_symbol
 _atom_site_label
 _atom_site_symmetry_multiplicity
 _atom_site_fract_x
 _atom_site_fract_y
 _atom_site_fract_z
 _atom_site_occupancy
  Tm  Tm0  1  0.02488900  0.91064400  0.75000000  1
  Tm  Tm1  1  0.97511100  0.08935600  0.25000000  1
  Tm  Tm2  1  0.47511100  0.41064400  0.75000000  1
  Tm  Tm3  1  0.52488900  0.58935600  0.25000000  1
  Co  Co0  1  0.50000000  0.00000000  0.50000000  1
  Co  Co1  1  0.00000000  0.50000000  0.00000000  1
  Co  Co2  1  0.00000000  0.50000000  0.50000000  1
  Co  Co3  1  0.50000000  0.00000000  0.00000000  1
  O  O0  1  0.61565300  0.03582700  0.75000000  1
  O  O1  1  0.80463100  0.82035900  0.05583300  1
  O  O2  1  0.38434700  0.96417300  0.25000000  1
  O  O3  1  0.69536900  0.32035900  0.05583300  1
  O  O4  1  0.30463100  0.67964100  0.55583300  1
  O  O5  1  0.19536900  0.17964100  0.94416700  1
  O  O6  1  0.30463100  0.67964100  0.94416700  1
  O  O7  1  0.88434700  0.53582700  0.75000000  1
  O  O8  1  0.80463100  0.82035900  0.44416700  1
  O  O9  1  0.19536900  0.17964100  0.55583300  1
  O  O10  1  0.11565300  0.46417300  0.25000000  1
  O  O11  1  0.69536900  0.32035900  0.44416700  1
loop_
_geom_bond_atom_site_label_1
_geom_bond_atom_site_label_2
_geom_bond_distance
_geom_bond_site_symmetry_2
Co0 O9 1.915359 1_555
Co0 O8 1.915359 1_545
Co0 O0 1.944510 1_555
Co0 O2 1.944510 1_545
Co0 O11 2.126143 1_555
Co0 O4 2.126143 1_545
Co1 O6 1.915359 1_554
Co1 O3 1.915359 1_455
Co1 O10 1.944510 1_555
Co1 O7 1.944510 1_454
Co1 O5 2.126143 1_554
Co1 O1 2.126143 1_455
Co2 O4 1.915359 1_555
Co2 O11 1.915359 1_455
Co2 O10 1.944510 1_555
Co2 O7 1.944510 1_455
Co2 O9 2.126143 1_555
Co2 O8 2.126143 1_455
Co3 O5 1.915359 1_554
Co3 O1 1.915359 1_545
Co3 O0 1.944510 1_554
Co3 O2 1.944510 1_545
Co3 O3 2.126143 1_555
Co3 O6 2.126143 1_544
O0 Tm0 2.220030 1_645
O0 Tm2 2.258216 1_555
O1 Tm1 2.273238 1_565
O1 Tm3 2.417881 1_555
O1 Tm0 2.571646 1_654
O2 Tm1 2.220030 1_465
O2 Tm3 2.258216 1_555
O3 Tm3 2.273238 1_555
O3 Tm1 2.417881 1_555
O3 Tm2 2.571646 1_554
O4 Tm2 2.273238 1_555
O4 Tm0 2.417881 1_555
O4 Tm3 2.571646 1_555
O5 Tm0 2.273238 1_545
O5 Tm2 2.417881 1_555
O5 Tm1 2.571646 1_456
O6 Tm2 2.273238 1_555
O6 Tm0 2.417881 1_555
O6 Tm3 2.571646 1_556
O7 Tm2 2.220030 1_555
O7 Tm0 2.258216 1_655
O8 Tm1 2.273238 1_565
O8 Tm3 2.417881 1_555
O8 Tm0 2.571646 1_655
O9 Tm0 2.273238 1_545
O9 Tm2 2.417881 1_555
O9 Tm1 2.571646 1_455
O10 Tm3 2.220030 1_555
O10 Tm1 2.258216 1_455
O11 Tm3 2.273238 1_555
O11 Tm1 2.417881 1_555
O11 Tm2 2.571646 1_555
