# generated using pymatgen
data_Ca14AlSb11
_symmetry_space_group_name_H-M   'P 1'
_cell_length_a   16.32875125
_cell_length_b   16.32875125
_cell_length_c   16.32875125
_cell_angle_alpha   118.33509049
_cell_angle_beta   118.33509049
_cell_angle_gamma   92.90873924
_symmetry_Int_Tables_number   1
_chemical_formula_structural   Ca14AlSb11
_chemical_formula_sum   'Ca56 Al4 Sb44'
_cell_volume   3151.61203456
_cell_formula_units_Z   4
loop_
 _symmetry_equiv_pos_site_id
 _symmetry_equiv_pos_as_xyz
  1  'x, y, z'
loop_
 _atom_site_type_symbol
 _atom_site_label
 _atom_site_symmetry_multiplicity
 _atom_site_fract_x
 _atom_site_fract_y
 _atom_site_fract_z
 _atom_site_occupancy
  Ca  Ca0  1  0.49141800  0.09594200  0.35009800  1
  Ca  Ca1  1  0.00415600  0.10868000  0.85009800  1
  Ca  Ca2  1  0.35206400  0.37472200  0.66081900  1
  Ca  Ca3  1  0.85868000  0.50858200  0.60452400  1
  Ca  Ca4  1  0.40405800  0.00858200  0.64990200  1
  Ca  Ca5  1  0.12500000  0.72953600  0.10453600  1
  Ca  Ca6  1  0.25858200  0.15405800  0.14990200  1
  Ca  Ca7  1  0.47236700  0.25218100  0.13290300  1
  Ca  Ca8  1  0.27763300  0.99781900  0.36709700  1
  Ca  Ca9  1  0.62527800  0.28609600  0.97734200  1
  Ca  Ca10  1  0.08946400  0.72236700  0.72018700  1
  Ca  Ca11  1  0.44124600  0.60206400  0.47734200  1
  Ca  Ca12  1  0.21390400  0.87472200  0.02265800  1
  Ca  Ca13  1  0.12527800  0.14793600  0.33918100  1
  Ca  Ca14  1  0.24584400  0.59594200  0.60452400  1
  Ca  Ca15  1  0.50415600  0.65405800  0.89547600  1
  Ca  Ca16  1  0.77046400  0.37500000  0.89546400  1
  Ca  Ca17  1  0.39793600  0.87527800  0.83918100  1
  Ca  Ca18  1  0.63072300  0.91053600  0.63290300  1
  Ca  Ca19  1  0.47953600  0.87500000  0.10453600  1
  Ca  Ca20  1  0.12500000  0.22953600  0.60453600  1
  Ca  Ca21  1  0.62500000  0.02046400  0.89546400  1
  Ca  Ca22  1  0.34594200  0.24141800  0.85009800  1
  Ca  Ca23  1  0.35868000  0.75415600  0.35009800  1
  Ca  Ca24  1  0.24781900  0.02763300  0.86709700  1
  Ca  Ca25  1  0.94124600  0.46390400  0.83918100  1
  Ca  Ca26  1  0.74781900  0.88072300  0.22018700  1
  Ca  Ca27  1  0.03609600  0.55875400  0.16081900  1
  Ca  Ca28  1  0.77763300  0.41053600  0.27981300  1
  Ca  Ca29  1  0.16053600  0.38072300  0.13290300  1
  Ca  Ca30  1  0.30875400  0.64793600  0.02265800  1
  Ca  Ca31  1  0.00218100  0.36927700  0.27981300  1
  Ca  Ca32  1  0.61927700  0.75218100  0.77981300  1
  Ca  Ca33  1  0.66053600  0.52763300  0.77981300  1
  Ca  Ca34  1  0.27046400  0.37500000  0.39546400  1
  Ca  Ca35  1  0.75858200  0.60868000  0.10452400  1
  Ca  Ca36  1  0.99141800  0.64132000  0.39547600  1
  Ca  Ca37  1  0.85206400  0.19124600  0.97734200  1
  Ca  Ca38  1  0.89793600  0.05875400  0.52265800  1
  Ca  Ca39  1  0.71390400  0.69124600  0.33918100  1
  Ca  Ca40  1  0.84594200  0.99584400  0.10452400  1
  Ca  Ca41  1  0.11927700  0.33946400  0.86709700  1
  Ca  Ca42  1  0.90405800  0.25415600  0.39547600  1
  Ca  Ca43  1  0.89132000  0.74141800  0.89547600  1
  Ca  Ca44  1  0.50218100  0.22236700  0.63290300  1
  Ca  Ca45  1  0.62500000  0.52046400  0.39546400  1
  Ca  Ca46  1  0.62472200  0.10206400  0.16081900  1
  Ca  Ca47  1  0.58946400  0.86927700  0.36709700  1
  Ca  Ca48  1  0.13072300  0.49781900  0.72018700  1
  Ca  Ca49  1  0.97953600  0.87500000  0.60453600  1
  Ca  Ca50  1  0.39132000  0.49584400  0.14990200  1
  Ca  Ca51  1  0.53609600  0.37527800  0.47734200  1
  Ca  Ca52  1  0.12472200  0.96390400  0.52265800  1
  Ca  Ca53  1  0.97236700  0.83946400  0.22018700  1
  Ca  Ca54  1  0.80875400  0.78609600  0.66081900  1
  Ca  Ca55  1  0.74584400  0.14132000  0.64990200  1
  Al  Al0  1  0.50000000  0.50000000  0.00000000  1
  Al  Al1  1  0.75000000  0.25000000  0.50000000  1
  Al  Al2  1  0.00000000  0.00000000  0.00000000  1
  Al  Al3  1  0.25000000  0.75000000  0.50000000  1
  Sb  Sb0  1  0.79661400  0.93770700  0.86660900  1
  Sb  Sb1  1  0.44734900  0.54202200  0.64453400  1
  Sb  Sb2  1  0.38537100  0.38537100  0.27074200  1
  Sb  Sb3  1  0.86462900  0.63537100  0.50000000  1
  Sb  Sb4  1  0.29202200  0.14748800  0.59467300  1
  Sb  Sb5  1  0.57109700  0.43770700  0.14109200  1
  Sb  Sb6  1  0.95338600  0.31229300  0.63339100  1
  Sb  Sb7  1  0.56229300  0.70338600  0.13339100  1
  Sb  Sb8  1  0.68770700  0.32109700  0.64109200  1
  Sb  Sb9  1  0.18770700  0.54661400  0.36660900  1
  Sb  Sb10  1  0.45338600  0.81999500  0.64109200  1
  Sb  Sb11  1  0.30265100  0.70797800  0.85546600  1
  Sb  Sb12  1  0.79202200  0.19734900  0.14453400  1
  Sb  Sb13  1  0.55281500  0.69734900  0.40532700  1
  Sb  Sb14  1  0.06229300  0.92890300  0.85890800  1
  Sb  Sb15  1  0.94734900  0.30281500  0.90532700  1
  Sb  Sb16  1  0.75000000  0.75000000  0.00000000  1
  Sb  Sb17  1  0.85251200  0.44718500  0.14453400  1
  Sb  Sb18  1  0.63537100  0.13537100  0.77074200  1
  Sb  Sb19  1  0.69718500  0.60251200  0.64453400  1
  Sb  Sb20  1  0.95797800  0.05265100  0.35546600  1
  Sb  Sb21  1  0.80265100  0.94718500  0.59467300  1
  Sb  Sb22  1  0.50000000  0.00000000  0.50000000  1
  Sb  Sb23  1  0.11462900  0.11462900  0.72925800  1
  Sb  Sb24  1  0.05281500  0.64748800  0.85546600  1
  Sb  Sb25  1  0.06999500  0.20338600  0.14109200  1
  Sb  Sb26  1  0.29661400  0.43000500  0.85890800  1
  Sb  Sb27  1  0.39748800  0.04202200  0.09467300  1
  Sb  Sb28  1  0.89748800  0.80281500  0.35546600  1
  Sb  Sb29  1  0.18000500  0.82109700  0.63339100  1
  Sb  Sb30  1  0.00000000  0.50000000  0.50000000  1
  Sb  Sb31  1  0.19718500  0.55265100  0.09467300  1
  Sb  Sb32  1  0.13537100  0.36462900  0.50000000  1
  Sb  Sb33  1  0.17890300  0.81229300  0.35890800  1
  Sb  Sb34  1  0.45797800  0.10251200  0.90532700  1
  Sb  Sb35  1  0.07109700  0.93000500  0.13339100  1
  Sb  Sb36  1  0.67890300  0.31999500  0.36660900  1
  Sb  Sb37  1  0.35251200  0.20797800  0.40532700  1
  Sb  Sb38  1  0.25000000  0.25000000  0.00000000  1
  Sb  Sb39  1  0.56999500  0.42890300  0.86660900  1
  Sb  Sb40  1  0.68000500  0.04661400  0.35890800  1
  Sb  Sb41  1  0.88537100  0.61462900  0.00000000  1
  Sb  Sb42  1  0.61462900  0.88537100  0.00000000  1
  Sb  Sb43  1  0.36462900  0.86462900  0.22925800  1
loop_
_geom_bond_atom_site_label_1
_geom_bond_atom_site_label_2
_geom_bond_distance
_geom_bond_site_symmetry_2
Ca0 Sb40 3.176999 1_555
Ca0 Sb37 3.178253 1_555
Ca0 Sb43 3.271045 1_545
Ca0 Sb27 3.290554 1_555
Ca0 Sb22 3.435392 1_555
Ca0 Sb8 3.759226 1_555
Ca1 Sb14 3.176994 1_545
Ca1 Sb15 3.178253 1_455
Ca1 Sb23 3.271045 1_555
Ca1 Sb21 3.290554 1_445
Ca1 Sb38 3.435392 1_556
Ca1 Sb25 3.759223 1_556
Ca2 Sb32 3.186315 1_555
Ca2 Sb39 3.200783 1_555
Ca2 Sb1 3.256554 1_555
Ca2 Sb4 3.273621 1_555
Ca2 Sb26 3.491173 1_555
Ca2 Sb37 3.750506 1_555
Ca3 Sb36 3.176999 1_555
Ca3 Sb24 3.178253 1_655
Ca3 Sb3 3.271045 1_555
Ca3 Sb19 3.290554 1_555
Ca3 Sb30 3.435392 1_655
Ca3 Sb6 3.759238 1_555
Ca4 Sb10 3.176999 1_545
Ca4 Sb4 3.178253 1_555
Ca4 Sb18 3.271045 1_555
Ca4 Sb34 3.290554 1_555
Ca4 Sb22 3.435392 1_555
Ca4 Sb33 3.759226 1_545
Ca5 Sb31 3.137156 1_555
Ca5 Sb24 3.137156 1_554
Ca5 Sb35 3.306647 1_555
Ca5 Sb33 3.306650 1_555
Ca5 Sb41 3.408677 1_455
Ca5 Sb43 3.408677 1_555
Ca6 Sb25 3.176999 1_555
Ca6 Sb27 3.178253 1_555
Ca6 Sb2 3.271045 1_555
Ca6 Sb37 3.290554 1_555
Ca6 Sb38 3.435392 1_555
Ca6 Sb14 3.759226 1_544
Ca7 Sb38 3.213784 1_555
Ca7 Sb34 3.213864 1_554
Ca7 Sb27 3.236804 1_555
Ca7 Sb2 3.242777 1_555
Ca7 Sb36 3.248941 1_555
Ca7 Sb5 3.272516 1_555
Ca8 Sb22 3.213784 1_565
Ca8 Sb4 3.213864 1_565
Ca8 Sb37 3.236804 1_565
Ca8 Sb43 3.242777 1_555
Ca8 Sb35 3.248941 1_555
Ca8 Sb33 3.272516 1_555
Ca9 Sb18 3.186311 1_555
Ca9 Sb5 3.200796 1_556
Ca9 Sb34 3.256543 1_555
Ca9 Sb17 3.273627 1_556
Ca9 Sb39 3.491188 1_555
Ca9 Sb12 3.750494 1_556
Ca10 Sb30 3.213790 1_555
Ca10 Sb11 3.213861 1_555
Ca10 Sb24 3.236789 1_555
Ca10 Sb3 3.242783 1_455
Ca10 Sb14 3.248945 1_555
Ca10 Sb29 3.272516 1_555
Ca11 Sb2 3.186311 1_555
Ca11 Sb10 3.200790 1_555
Ca11 Sb13 3.256543 1_555
Ca11 Sb1 3.273627 1_555
Ca11 Sb9 3.491173 1_555
Ca11 Sb19 3.750494 1_555
Ca12 Sb43 3.186311 1_555
Ca12 Sb14 3.200796 1_554
Ca12 Sb27 3.256543 1_565
Ca12 Sb24 3.273627 1_554
Ca12 Sb35 3.491188 1_555
Ca12 Sb11 3.750494 1_554
Ca13 Sb32 3.186315 1_555
Ca13 Sb35 3.200783 1_545
Ca13 Sb20 3.256554 1_455
Ca13 Sb37 3.273621 1_555
Ca13 Sb25 3.491173 1_555
Ca13 Sb4 3.750506 1_555
Ca14 Sb9 3.177004 1_555
Ca14 Sb11 3.178253 1_555
Ca14 Sb32 3.271045 1_555
Ca14 Sb1 3.290554 1_555
Ca14 Sb30 3.435392 1_555
Ca14 Sb29 3.759223 1_555
Ca15 Sb7 3.177004 1_556
Ca15 Sb1 3.178253 1_555
Ca15 Sb42 3.271045 1_556
Ca15 Sb11 3.290554 1_555
Ca15 Sb16 3.435392 1_556
Ca15 Sb39 3.759223 1_555
Ca16 Sb17 3.137156 1_556
Ca16 Sb15 3.137156 1_555
Ca16 Sb39 3.306647 1_555
Ca16 Sb8 3.306650 1_555
Ca16 Sb41 3.408677 1_556
Ca16 Sb18 3.408677 1_555
Ca17 Sb42 3.186315 1_556
Ca17 Sb29 3.200783 1_555
Ca17 Sb11 3.256554 1_555
Ca17 Sb34 3.273621 1_565
Ca17 Sb10 3.491173 1_555
Ca17 Sb27 3.750506 1_566
Ca18 Sb22 3.213790 1_565
Ca18 Sb13 3.213861 1_555
Ca18 Sb21 3.236789 1_555
Ca18 Sb18 3.242783 1_565
Ca18 Sb0 3.248929 1_555
Ca18 Sb10 3.272516 1_555
Ca19 Sb27 3.137156 1_565
Ca19 Sb11 3.137156 1_554
Ca19 Sb7 3.306641 1_555
Ca19 Sb40 3.306647 1_565
Ca19 Sb42 3.408677 1_555
Ca19 Sb43 3.408677 1_555
Ca20 Sb4 3.137156 1_555
Ca20 Sb20 3.137156 1_455
Ca20 Sb6 3.306641 1_455
Ca20 Sb26 3.306647 1_555
Ca20 Sb32 3.408677 1_555
Ca20 Sb23 3.408677 1_555
Ca21 Sb12 3.137156 1_556
Ca21 Sb34 3.137156 1_555
Ca21 Sb0 3.306641 1_545
Ca21 Sb10 3.306647 1_545
Ca21 Sb42 3.408677 1_546
Ca21 Sb18 3.408677 1_555
Ca22 Sb26 3.176999 1_555
Ca22 Sb34 3.178253 1_555
Ca22 Sb23 3.271045 1_555
Ca22 Sb4 3.290554 1_555
Ca22 Sb38 3.435392 1_556
Ca22 Sb5 3.759226 1_556
Ca23 Sb33 3.176994 1_555
Ca23 Sb13 3.178253 1_555
Ca23 Sb43 3.271045 1_555
Ca23 Sb31 3.290554 1_555
Ca23 Sb22 3.435392 1_565
Ca23 Sb10 3.759223 1_555
Ca24 Sb38 3.213784 1_556
Ca24 Sb27 3.213864 1_556
Ca24 Sb34 3.236804 1_555
Ca24 Sb23 3.242777 1_555
Ca24 Sb29 3.248941 1_545
Ca24 Sb14 3.272516 1_545
Ca25 Sb41 3.186320 1_556
Ca25 Sb6 3.200783 1_555
Ca25 Sb24 3.256532 1_655
Ca25 Sb15 3.273638 1_555
Ca25 Sb8 3.491175 1_555
Ca25 Sb31 3.750500 1_656
Ca26 Sb16 3.213799 1_555
Ca26 Sb28 3.213868 1_555
Ca26 Sb20 3.236800 1_565
Ca26 Sb42 3.242781 1_555
Ca26 Sb40 3.248924 1_565
Ca26 Sb7 3.272516 1_555
Ca27 Sb41 3.186320 1_455
Ca27 Sb9 3.200783 1_555
Ca27 Sb17 3.256532 1_455
Ca27 Sb31 3.273638 1_555
Ca27 Sb33 3.491175 1_555
Ca27 Sb15 3.750500 1_454
Ca28 Sb30 3.213790 1_655
Ca28 Sb12 3.213861 1_555
Ca28 Sb17 3.236789 1_555
Ca28 Sb3 3.242783 1_555
Ca28 Sb5 3.248945 1_555
Ca28 Sb36 3.272516 1_555
Ca29 Sb38 3.213790 1_555
Ca29 Sb15 3.213861 1_454
Ca29 Sb31 3.236789 1_555
Ca29 Sb2 3.242783 1_555
Ca29 Sb9 3.248929 1_555
Ca29 Sb25 3.272516 1_555
Ca30 Sb43 3.186311 1_555
Ca30 Sb26 3.200790 1_554
Ca30 Sb31 3.256543 1_555
Ca30 Sb11 3.273627 1_554
Ca30 Sb7 3.491173 1_555
Ca30 Sb24 3.750494 1_554
Ca31 Sb30 3.213799 1_555
Ca31 Sb17 3.213868 1_455
Ca31 Sb12 3.236800 1_455
Ca31 Sb32 3.242781 1_555
Ca31 Sb25 3.248924 1_555
Ca31 Sb9 3.272516 1_555
Ca32 Sb16 3.213799 1_556
Ca32 Sb19 3.213868 1_555
Ca32 Sb1 3.236800 1_555
Ca32 Sb42 3.242781 1_556
Ca32 Sb10 3.248924 1_555
Ca32 Sb0 3.272516 1_555
Ca33 Sb16 3.213790 1_556
Ca33 Sb1 3.213861 1_555
Ca33 Sb19 3.236789 1_555
Ca33 Sb41 3.242783 1_556
Ca33 Sb8 3.248945 1_555
Ca33 Sb39 3.272516 1_555
Ca34 Sb37 3.137156 1_555
Ca34 Sb1 3.137156 1_555
Ca34 Sb9 3.306641 1_555
Ca34 Sb25 3.306647 1_555
Ca34 Sb2 3.408677 1_555
Ca34 Sb32 3.408677 1_555
Ca35 Sb39 3.176999 1_554
Ca35 Sb28 3.178253 1_555
Ca35 Sb41 3.271045 1_555
Ca35 Sb17 3.290554 1_555
Ca35 Sb16 3.435392 1_555
Ca35 Sb7 3.759238 1_555
Ca36 Sb29 3.176999 1_655
Ca36 Sb17 3.178253 1_555
Ca36 Sb3 3.271045 1_555
Ca36 Sb28 3.290554 1_555
Ca36 Sb30 3.435392 1_655
Ca36 Sb9 3.759238 1_655
Ca37 Sb18 3.186311 1_555
Ca37 Sb25 3.200790 1_656
Ca37 Sb15 3.256543 1_555
Ca37 Sb12 3.273627 1_556
Ca37 Sb0 3.491173 1_545
Ca37 Sb17 3.750494 1_556
Ca38 Sb23 3.186311 1_655
Ca38 Sb40 3.200790 1_555
Ca38 Sb21 3.256543 1_545
Ca38 Sb20 3.273627 1_555
Ca38 Sb6 3.491173 1_555
Ca38 Sb28 3.750494 1_545
Ca39 Sb3 3.186320 1_555
Ca39 Sb7 3.200783 1_555
Ca39 Sb28 3.256532 1_555
Ca39 Sb13 3.273638 1_555
Ca39 Sb5 3.491175 1_555
Ca39 Sb21 3.750500 1_555
Ca40 Sb0 3.177004 1_554
Ca40 Sb20 3.178253 1_565
Ca40 Sb42 3.271045 1_555
Ca40 Sb12 3.290554 1_565
Ca40 Sb16 3.435392 1_555
Ca40 Sb35 3.759223 1_655
Ca41 Sb38 3.213790 1_556
Ca41 Sb31 3.213861 1_556
Ca41 Sb15 3.236789 1_455
Ca41 Sb23 3.242783 1_555
Ca41 Sb6 3.248929 1_455
Ca41 Sb26 3.272516 1_555
Ca42 Sb6 3.177004 1_555
Ca42 Sb12 3.178253 1_555
Ca42 Sb32 3.271045 1_655
Ca42 Sb20 3.290554 1_555
Ca42 Sb30 3.435392 1_655
Ca42 Sb36 3.759223 1_555
Ca43 Sb35 3.176999 1_656
Ca43 Sb19 3.178253 1_555
Ca43 Sb41 3.271045 1_556
Ca43 Sb24 3.290554 1_655
Ca43 Sb16 3.435392 1_556
Ca43 Sb0 3.759238 1_555
Ca44 Sb22 3.213784 1_555
Ca44 Sb37 3.213864 1_555
Ca44 Sb4 3.236804 1_555
Ca44 Sb18 3.242777 1_555
Ca44 Sb39 3.248941 1_555
Ca44 Sb8 3.272516 1_555
Ca45 Sb13 3.137156 1_555
Ca45 Sb19 3.137156 1_555
Ca45 Sb36 3.306647 1_555
Ca45 Sb5 3.306650 1_555
Ca45 Sb3 3.408677 1_555
Ca45 Sb2 3.408677 1_555
Ca46 Sb42 3.186315 1_545
Ca46 Sb36 3.200783 1_555
Ca46 Sb12 3.256554 1_555
Ca46 Sb27 3.273621 1_555
Ca46 Sb40 3.491173 1_555
Ca46 Sb34 3.750506 1_554
Ca47 Sb22 3.213790 1_565
Ca47 Sb21 3.213861 1_555
Ca47 Sb13 3.236789 1_555
Ca47 Sb43 3.242783 1_555
Ca47 Sb7 3.248929 1_555
Ca47 Sb40 3.272516 1_565
Ca48 Sb30 3.213799 1_555
Ca48 Sb24 3.213868 1_555
Ca48 Sb11 3.236800 1_555
Ca48 Sb32 3.242781 1_555
Ca48 Sb26 3.248924 1_555
Ca48 Sb6 3.272516 1_455
Ca49 Sb28 3.137156 1_555
Ca49 Sb21 3.137156 1_555
Ca49 Sb29 3.306647 1_655
Ca49 Sb14 3.306650 1_655
Ca49 Sb3 3.408677 1_555
Ca49 Sb23 3.408677 1_665
Ca50 Sb5 3.176994 1_555
Ca50 Sb31 3.178253 1_555
Ca50 Sb2 3.271045 1_555
Ca50 Sb13 3.290554 1_555
Ca50 Sb38 3.435392 1_555
Ca50 Sb26 3.759223 1_554
Ca51 Sb2 3.186311 1_555
Ca51 Sb8 3.200796 1_555
Ca51 Sb37 3.256543 1_555
Ca51 Sb19 3.273627 1_555
Ca51 Sb36 3.491188 1_555
Ca51 Sb1 3.750494 1_555
Ca52 Sb23 3.186311 1_565
Ca52 Sb33 3.200796 1_555
Ca52 Sb4 3.256543 1_565
Ca52 Sb28 3.273627 1_455
Ca52 Sb29 3.491188 1_555
Ca52 Sb20 3.750494 1_465
Ca53 Sb16 3.213790 1_555
Ca53 Sb20 3.213861 1_565
Ca53 Sb28 3.236789 1_555
Ca53 Sb41 3.242783 1_555
Ca53 Sb33 3.248945 1_655
Ca53 Sb35 3.272516 1_655
Ca54 Sb3 3.186320 1_555
Ca54 Sb0 3.200783 1_555
Ca54 Sb19 3.256532 1_555
Ca54 Sb21 3.273638 1_555
Ca54 Sb14 3.491175 1_655
Ca54 Sb13 3.750500 1_555
Ca55 Sb8 3.176994 1_555
Ca55 Sb21 3.178253 1_545
Ca55 Sb18 3.271045 1_555
Ca55 Sb15 3.290554 1_555
Ca55 Sb22 3.435392 1_555
Ca55 Sb40 3.759223 1_555
Al0 Sb5 2.737806 1_555
Al0 Sb26 2.737819 1_554
Al0 Sb39 2.737819 1_554
Al0 Sb7 2.737820 1_555
Al1 Sb8 2.737806 1_555
Al1 Sb36 2.737819 1_555
Al1 Sb40 2.737819 1_555
Al1 Sb6 2.737820 1_555
Al2 Sb14 2.737806 1_544
Al2 Sb25 2.737819 1_555
Al2 Sb35 2.737819 1_545
Al2 Sb0 2.737820 1_444
Al3 Sb33 2.737806 1_555
Al3 Sb10 2.737819 1_555
Al3 Sb29 2.737819 1_555
Al3 Sb9 2.737820 1_555
