# generated using pymatgen
data_NdCoSb3
_symmetry_space_group_name_H-M   'P 1'
_cell_length_a   6.20255300
_cell_length_b   12.14786500
_cell_length_c   12.75695100
_cell_angle_alpha   90.00000000
_cell_angle_beta   90.00000000
_cell_angle_gamma   90.00000000
_symmetry_Int_Tables_number   1
_chemical_formula_structural   NdCoSb3
_chemical_formula_sum   'Nd8 Co8 Sb24'
_cell_volume   961.20789276
_cell_formula_units_Z   8
loop_
 _symmetry_equiv_pos_site_id
 _symmetry_equiv_pos_as_xyz
  1  'x, y, z'
loop_
 _atom_site_type_symbol
 _atom_site_label
 _atom_site_symmetry_multiplicity
 _atom_site_fract_x
 _atom_site_fract_y
 _atom_site_fract_z
 _atom_site_occupancy
  Nd  Nd0  1  0.22207600  0.25000000  0.30307900  1
  Nd  Nd1  1  0.25000000  0.00000000  0.70049200  1
  Nd  Nd2  1  0.77792400  0.75000000  0.69692100  1
  Nd  Nd3  1  0.27792400  0.75000000  0.30307900  1
  Nd  Nd4  1  0.75000000  0.50000000  0.29950800  1
  Nd  Nd5  1  0.75000000  0.00000000  0.29950800  1
  Nd  Nd6  1  0.72207600  0.25000000  0.69692100  1
  Nd  Nd7  1  0.25000000  0.50000000  0.70049200  1
  Co  Co0  1  0.03844400  0.86394600  0.09810500  1
  Co  Co1  1  0.46155600  0.13605400  0.09810500  1
  Co  Co2  1  0.96155600  0.36394600  0.90189500  1
  Co  Co3  1  0.03844400  0.63605400  0.09810500  1
  Co  Co4  1  0.53844400  0.86394600  0.90189500  1
  Co  Co5  1  0.46155600  0.36394600  0.09810500  1
  Co  Co6  1  0.96155600  0.13605400  0.90189500  1
  Co  Co7  1  0.53844400  0.63605400  0.90189500  1
  Sb  Sb0  1  0.23058000  0.25000000  0.78598900  1
  Sb  Sb1  1  0.61431100  0.25000000  0.94457100  1
  Sb  Sb2  1  0.76942000  0.75000000  0.21401100  1
  Sb  Sb3  1  0.11431100  0.25000000  0.05542900  1
  Sb  Sb4  1  0.25000000  0.00000000  0.21937300  1
  Sb  Sb5  1  0.75000000  0.00000000  0.02785400  1
  Sb  Sb6  1  0.98513900  0.12428500  0.50266900  1
  Sb  Sb7  1  0.25000000  0.50000000  0.21937300  1
  Sb  Sb8  1  0.51486100  0.62428500  0.50266900  1
  Sb  Sb9  1  0.75000000  0.00000000  0.78062700  1
  Sb  Sb10  1  0.75000000  0.50000000  0.02785400  1
  Sb  Sb11  1  0.73058000  0.25000000  0.21401100  1
  Sb  Sb12  1  0.48513900  0.37571500  0.49733100  1
  Sb  Sb13  1  0.88568900  0.75000000  0.94457100  1
  Sb  Sb14  1  0.01486100  0.62428500  0.49733100  1
  Sb  Sb15  1  0.26942000  0.75000000  0.78598900  1
  Sb  Sb16  1  0.98513900  0.37571500  0.50266900  1
  Sb  Sb17  1  0.25000000  0.00000000  0.97214600  1
  Sb  Sb18  1  0.75000000  0.50000000  0.78062700  1
  Sb  Sb19  1  0.51486100  0.87571500  0.50266900  1
  Sb  Sb20  1  0.01486100  0.87571500  0.49733100  1
  Sb  Sb21  1  0.48513900  0.12428500  0.49733100  1
  Sb  Sb22  1  0.38568900  0.75000000  0.05542900  1
  Sb  Sb23  1  0.25000000  0.50000000  0.97214600  1
loop_
_geom_bond_atom_site_label_1
_geom_bond_atom_site_label_2
_geom_bond_distance
_geom_bond_site_symmetry_2
Nd0 Sb4 3.223884 1_555
Nd0 Sb7 3.223884 1_555
Nd0 Sb3 3.229195 1_555
Nd0 Sb11 3.253393 1_455
Nd0 Sb16 3.312845 1_455
Nd0 Sb6 3.312845 1_455
Nd0 Sb21 3.336969 1_555
Nd0 Sb12 3.336969 1_555
Nd0 Sb11 3.352446 1_555
Nd1 Sb15 3.229127 1_545
Nd1 Sb0 3.229127 1_555
Nd1 Sb9 3.265420 1_455
Nd1 Sb9 3.265420 1_555
Nd1 Sb21 3.335204 1_555
Nd1 Sb20 3.335204 1_545
Nd1 Sb6 3.368527 1_455
Nd1 Sb19 3.368527 1_545
Nd1 Sb17 3.465477 1_555
Nd2 Sb9 3.223884 1_565
Nd2 Sb18 3.223884 1_555
Nd2 Sb13 3.229195 1_555
Nd2 Sb15 3.253393 1_655
Nd2 Sb14 3.312845 1_655
Nd2 Sb20 3.312845 1_655
Nd2 Sb8 3.336969 1_555
Nd2 Sb19 3.336969 1_555
Nd2 Sb15 3.352446 1_555
Nd3 Sb7 3.223884 1_555
Nd3 Sb4 3.223884 1_565
Nd3 Sb22 3.229195 1_555
Nd3 Sb2 3.253393 1_555
Nd3 Sb8 3.312845 1_555
Nd3 Sb19 3.312845 1_555
Nd3 Sb14 3.336969 1_555
Nd3 Sb20 3.336969 1_555
Nd3 Sb2 3.352446 1_455
Nd4 Sb11 3.229127 1_555
Nd4 Sb2 3.229127 1_555
Nd4 Sb7 3.265420 1_655
Nd4 Sb7 3.265420 1_555
Nd4 Sb8 3.335204 1_555
Nd4 Sb16 3.335204 1_555
Nd4 Sb12 3.368527 1_555
Nd4 Sb14 3.368527 1_655
Nd4 Sb10 3.465477 1_555
Nd5 Sb11 3.229127 1_555
Nd5 Sb2 3.229127 1_545
Nd5 Sb4 3.265420 1_555
Nd5 Sb4 3.265420 1_655
Nd5 Sb6 3.335204 1_555
Nd5 Sb19 3.335204 1_545
Nd5 Sb20 3.368527 1_645
Nd5 Sb21 3.368527 1_555
Nd5 Sb5 3.465477 1_555
Nd6 Sb9 3.223884 1_555
Nd6 Sb18 3.223884 1_555
Nd6 Sb1 3.229195 1_555
Nd6 Sb0 3.253393 1_555
Nd6 Sb12 3.312845 1_555
Nd6 Sb21 3.312845 1_555
Nd6 Sb16 3.336969 1_555
Nd6 Sb6 3.336969 1_555
Nd6 Sb0 3.352446 1_655
Nd7 Sb15 3.229127 1_555
Nd7 Sb0 3.229127 1_555
Nd7 Sb18 3.265420 1_455
Nd7 Sb18 3.265420 1_555
Nd7 Sb14 3.335204 1_555
Nd7 Sb12 3.335204 1_555
Nd7 Sb16 3.368527 1_455
Nd7 Sb8 3.368527 1_555
Nd7 Sb23 3.465477 1_555
Co0 Sb13 2.578745 1_454
Co0 Sb5 2.595309 1_465
Co0 Sb4 2.616622 1_565
Co0 Sb22 2.617495 1_555
Co0 Sb2 2.624240 1_455
Co0 Sb17 2.652441 1_564
Co0 Nd3 3.310558 1_555
Co0 Nd5 3.540299 1_465
Co1 Sb1 2.578745 1_554
Co1 Sb5 2.595309 1_555
Co1 Sb4 2.616622 1_555
Co1 Sb3 2.617495 1_555
Co1 Sb11 2.624240 1_555
Co1 Sb17 2.652441 1_554
Co1 Nd0 3.310558 1_555
Co1 Nd5 3.540299 1_555
Co2 Sb3 2.578745 1_656
Co2 Sb23 2.595309 1_655
Co2 Sb18 2.616622 1_555
Co2 Sb1 2.617495 1_555
Co2 Sb0 2.624240 1_655
Co2 Sb10 2.652441 1_556
Co2 Nd6 3.310558 1_555
Co2 Nd7 3.540299 1_655
Co3 Sb13 2.578745 1_454
Co3 Sb10 2.595309 1_455
Co3 Sb7 2.616622 1_555
Co3 Sb22 2.617495 1_555
Co3 Sb2 2.624240 1_455
Co3 Sb23 2.652441 1_554
Co3 Nd3 3.310558 1_555
Co3 Nd4 3.540299 1_455
Co4 Sb22 2.578745 1_556
Co4 Sb17 2.595309 1_565
Co4 Sb9 2.616622 1_565
Co4 Sb13 2.617495 1_555
Co4 Sb15 2.624240 1_555
Co4 Sb5 2.652441 1_566
Co4 Nd2 3.310558 1_555
Co4 Nd1 3.540299 1_565
Co5 Sb1 2.578745 1_554
Co5 Sb10 2.595309 1_555
Co5 Sb7 2.616622 1_555
Co5 Sb3 2.617495 1_555
Co5 Sb11 2.624240 1_555
Co5 Sb23 2.652441 1_554
Co5 Nd0 3.310558 1_555
Co5 Nd4 3.540299 1_555
Co6 Sb3 2.578745 1_656
Co6 Sb17 2.595309 1_655
Co6 Sb9 2.616622 1_555
Co6 Sb1 2.617495 1_555
Co6 Sb0 2.624240 1_655
Co6 Sb5 2.652441 1_556
Co6 Nd6 3.310558 1_555
Co6 Nd1 3.540299 1_655
Co7 Sb22 2.578745 1_556
Co7 Sb23 2.595309 1_555
Co7 Sb18 2.616622 1_555
Co7 Sb13 2.617495 1_555
Co7 Sb15 2.624240 1_555
Co7 Sb10 2.652441 1_556
Co7 Nd2 3.310558 1_555
Co7 Nd7 3.540299 1_555
Sb0 Sb1 3.123708 1_555
Sb2 Sb22 3.123708 1_555
Sb11 Sb3 3.123708 1_655
Sb12 Sb8 3.025983 1_555
Sb12 Sb21 3.054338 1_555
Sb12 Sb16 3.102024 1_455
Sb12 Sb16 3.102024 1_555
Sb13 Sb15 3.123708 1_655
Sb14 Sb16 3.025983 1_455
Sb14 Sb20 3.054338 1_555
Sb14 Sb8 3.102024 1_555
Sb14 Sb8 3.102024 1_455
Sb16 Sb6 3.054338 1_555
Sb19 Sb21 3.025983 1_565
Sb19 Sb8 3.054338 1_555
Sb19 Sb20 3.102024 1_555
Sb19 Sb20 3.102024 1_655
Sb20 Sb6 3.025983 1_465
Sb21 Sb6 3.102024 1_455
Sb21 Sb6 3.102024 1_555
