# generated using pymatgen
data_RbLu3F10
_symmetry_space_group_name_H-M   'P 1'
_cell_length_a   7.71446985
_cell_length_b   7.71446985
_cell_length_c   15.84934980
_cell_angle_alpha   90.00000000
_cell_angle_beta   90.00000000
_cell_angle_gamma   114.52875923
_symmetry_Int_Tables_number   1
_chemical_formula_structural   RbLu3F10
_chemical_formula_sum   'Rb4 Lu12 F40'
_cell_volume   858.11821484
_cell_formula_units_Z   4
loop_
 _symmetry_equiv_pos_site_id
 _symmetry_equiv_pos_as_xyz
  1  'x, y, z'
loop_
 _atom_site_type_symbol
 _atom_site_label
 _atom_site_symmetry_multiplicity
 _atom_site_fract_x
 _atom_site_fract_y
 _atom_site_fract_z
 _atom_site_occupancy
  Rb  Rb0  1  0.50000000  0.50000000  0.00000000  1
  Rb  Rb1  1  0.00000000  -0.00000000  0.00000000  1
  Rb  Rb2  1  0.00000000  -0.00000000  0.50000000  1
  Rb  Rb3  1  0.50000000  0.50000000  0.50000000  1
  Lu  Lu0  1  0.47999080  0.02497809  0.11290188  1
  Lu  Lu1  1  0.97502191  0.52000920  0.11290188  1
  Lu  Lu2  1  0.75210902  0.74789098  0.75000000  1
  Lu  Lu3  1  0.02497809  0.47999080  0.88709812  1
  Lu  Lu4  1  0.25210902  0.24789098  0.75000000  1
  Lu  Lu5  1  0.52000920  0.97502191  0.88709812  1
  Lu  Lu6  1  0.74789098  0.75210902  0.25000000  1
  Lu  Lu7  1  0.97999080  0.52497809  0.38709812  1
  Lu  Lu8  1  0.24789098  0.25210902  0.25000000  1
  Lu  Lu9  1  0.47502191  0.02000920  0.38709812  1
  Lu  Lu10  1  0.52497809  0.97999080  0.61290188  1
  Lu  Lu11  1  0.02000920  0.47502191  0.61290188  1
  F  F0  1  0.42937720  0.07062280  0.25000000  1
  F  F1  1  0.23904232  0.76095768  0.11422083  1
  F  F2  1  0.99323876  0.00676124  0.72619724  1
  F  F3  1  0.09422106  0.41059612  0.48673550  1
  F  F4  1  0.30058630  0.69941370  0.89680156  1
  F  F5  1  0.71108215  0.83550926  0.87368449  1
  F  F6  1  0.40577894  0.08940388  0.98673550  1
  F  F7  1  0.08940388  0.40577894  0.01326450  1
  F  F8  1  0.92937720  0.57062280  0.25000000  1
  F  F9  1  0.69941370  0.30058630  0.10319844  1
  F  F10  1  0.90577894  0.58940388  0.51326450  1
  F  F11  1  0.19941370  0.80058630  0.39680156  1
  F  F12  1  0.06514266  0.33030058  0.17393733  1
  F  F13  1  0.83030058  0.56514266  0.67393733  1
  F  F14  1  0.76095768  0.23904232  0.88577917  1
  F  F15  1  0.83550926  0.71108215  0.12631551  1
  F  F16  1  0.50676124  0.49323876  0.22619724  1
  F  F17  1  0.56514266  0.83030058  0.32606267  1
  F  F18  1  0.00676124  0.99323876  0.27380276  1
  F  F19  1  0.57062280  0.92937720  0.75000000  1
  F  F20  1  0.93485734  0.66969942  0.82606267  1
  F  F21  1  0.78891785  0.66449074  0.37368449  1
  F  F22  1  0.07062280  0.42937720  0.75000000  1
  F  F23  1  0.49323876  0.50676124  0.77380276  1
  F  F24  1  0.21108215  0.33550926  0.62631551  1
  F  F25  1  0.58940388  0.90577894  0.48673550  1
  F  F26  1  0.59422106  0.91059612  0.01326450  1
  F  F27  1  0.26095768  0.73904232  0.61422083  1
  F  F28  1  0.33550926  0.21108215  0.37368449  1
  F  F29  1  0.41059612  0.09422106  0.51326450  1
  F  F30  1  0.16449074  0.28891785  0.87368449  1
  F  F31  1  0.73904232  0.26095768  0.38577917  1
  F  F32  1  0.16969942  0.43485734  0.32606267  1
  F  F33  1  0.66969942  0.93485734  0.17393733  1
  F  F34  1  0.80058630  0.19941370  0.60319844  1
  F  F35  1  0.33030058  0.06514266  0.82606267  1
  F  F36  1  0.66449074  0.78891785  0.62631551  1
  F  F37  1  0.91059612  0.59422106  0.98673550  1
  F  F38  1  0.43485734  0.16969942  0.67393733  1
  F  F39  1  0.28891785  0.16449074  0.12631551  1
loop_
_geom_bond_atom_site_label_1
_geom_bond_atom_site_label_2
_geom_bond_distance
_geom_bond_site_symmetry_2
F0 Lu0 2.261011 1_555
F0 Lu9 2.261011 1_555
F0 Lu8 2.355407 1_555
F1 Lu1 2.111997 1_455
F1 Lu0 2.111997 1_565
F2 Lu2 2.122817 1_545
F2 Lu4 2.122817 1_655
F3 Lu7 2.166714 1_455
F3 Lu11 2.193093 1_555
F3 Rb3 2.920011 1_555
F3 Rb2 2.948581 1_555
F4 Lu5 2.102693 1_555
F4 Lu3 2.102693 1_555
F4 Rb0 3.061605 1_556
F5 Lu2 2.139516 1_555
F5 Lu5 2.166455 1_555
F5 Rb1 2.870148 1_666
F5 Rb0 3.139971 1_556
F6 Lu5 2.166714 1_545
F6 Lu0 2.193093 1_556
F6 Rb1 2.920011 1_556
F6 Rb0 2.948581 1_556
F7 Lu1 2.166714 1_455
F7 Lu3 2.193093 1_554
F7 Rb1 2.920011 1_555
F7 Rb0 2.948581 1_555
F8 Lu7 2.261011 1_555
F8 Lu1 2.261011 1_555
F8 Lu6 2.355407 1_555
F9 Lu1 2.102693 1_555
F9 Lu0 2.102693 1_555
F9 Rb0 3.061605 1_555
F10 Lu11 2.166714 1_655
F10 Lu7 2.193093 1_555
F10 Rb3 2.920011 1_555
F10 Rb2 2.948581 1_665
F11 Lu7 2.102693 1_455
F11 Lu9 2.102693 1_565
F11 Rb2 3.061605 1_565
F12 Lu1 2.099001 1_455
F12 Lu8 2.123874 1_555
F13 Lu11 2.099001 1_655
F13 Lu2 2.123874 1_555
F14 Lu3 2.111997 1_655
F14 Lu5 2.111997 1_545
F15 Lu6 2.139516 1_555
F15 Lu1 2.166455 1_555
F15 Rb1 2.870148 1_665
F15 Rb0 3.139971 1_555
F16 Lu8 2.122817 1_555
F16 Lu6 2.122817 1_555
F17 Lu9 2.099001 1_565
F17 Lu6 2.123874 1_555
F18 Lu6 2.122817 1_455
F18 Lu8 2.122817 1_565
F19 Lu5 2.261011 1_555
F19 Lu10 2.261011 1_555
F19 Lu2 2.355407 1_555
F20 Lu3 2.099001 1_655
F20 Lu2 2.123874 1_555
F21 Lu6 2.139516 1_555
F21 Lu7 2.166455 1_555
F21 Rb3 2.870148 1_555
F21 Rb2 3.139971 1_665
F22 Lu11 2.261011 1_555
F22 Lu3 2.261011 1_555
F22 Lu4 2.355407 1_555
F23 Lu2 2.122817 1_555
F23 Lu4 2.122817 1_555
F24 Lu4 2.139516 1_555
F24 Lu11 2.166455 1_555
F24 Rb3 2.870148 1_555
F24 Rb2 3.139971 1_555
F25 Lu9 2.166714 1_565
F25 Lu10 2.193093 1_555
F25 Rb3 2.920011 1_555
F25 Rb2 2.948581 1_665
F26 Lu0 2.166714 1_565
F26 Lu5 2.193093 1_554
F26 Rb1 2.920011 1_665
F26 Rb0 2.948581 1_555
F27 Lu10 2.111997 1_555
F27 Lu11 2.111997 1_555
F28 Lu8 2.139516 1_555
F28 Lu9 2.166455 1_555
F28 Rb3 2.870148 1_555
F28 Rb2 3.139971 1_555
F29 Lu10 2.166714 1_545
F29 Lu9 2.193093 1_555
F29 Rb3 2.920011 1_555
F29 Rb2 2.948581 1_555
F30 Lu4 2.139516 1_555
F30 Lu3 2.166455 1_555
F30 Rb1 2.870148 1_556
F30 Rb0 3.139971 1_556
F31 Lu7 2.111997 1_555
F31 Lu9 2.111997 1_555
F32 Lu7 2.099001 1_455
F32 Lu8 2.123874 1_555
F33 Lu0 2.099001 1_565
F33 Lu6 2.123874 1_555
F34 Lu11 2.102693 1_655
F34 Lu10 2.102693 1_545
F34 Rb2 3.061605 1_655
F35 Lu5 2.099001 1_545
F35 Lu4 2.123874 1_555
F36 Lu2 2.139516 1_555
F36 Lu10 2.166455 1_555
F36 Rb3 2.870148 1_555
F36 Rb2 3.139971 1_665
F37 Lu3 2.166714 1_655
F37 Lu1 2.193093 1_556
F37 Rb1 2.920011 1_666
F37 Rb0 2.948581 1_556
F38 Lu10 2.099001 1_545
F38 Lu4 2.123874 1_555
F39 Lu8 2.139516 1_555
F39 Lu0 2.166455 1_555
F39 Rb1 2.870148 1_555
F39 Rb0 3.139971 1_555
