# generated using pymatgen
data_Na2AlZnF7
_symmetry_space_group_name_H-M   'P 1'
_cell_length_a   7.30556307
_cell_length_b   7.30556307
_cell_length_c   7.30556307
_cell_angle_alpha   120.92069457
_cell_angle_beta   118.42418421
_cell_angle_gamma   90.58175681
_symmetry_Int_Tables_number   1
_chemical_formula_structural   Na2AlZnF7
_chemical_formula_sum   'Na4 Al2 Zn2 F14'
_cell_volume   276.89313518
_cell_formula_units_Z   2
loop_
 _symmetry_equiv_pos_site_id
 _symmetry_equiv_pos_as_xyz
  1  'x, y, z'
loop_
 _atom_site_type_symbol
 _atom_site_label
 _atom_site_symmetry_multiplicity
 _atom_site_fract_x
 _atom_site_fract_y
 _atom_site_fract_z
 _atom_site_occupancy
  Na  Na0  1  0.00000000  0.00000000  0.00000000  1
  Na  Na1  1  0.00000000  0.50000000  0.00000000  1
  Na  Na2  1  0.00000000  0.00000000  0.50000000  1
  Na  Na3  1  0.50000000  0.50000000  0.00000000  1
  Al  Al0  1  0.50000000  0.00000000  0.50000000  1
  Al  Al1  1  0.00000000  0.50000000  0.50000000  1
  Zn  Zn0  1  0.50000000  0.50000000  0.50000000  1
  Zn  Zn1  1  0.50000000  0.00000000  0.00000000  1
  F  F0  1  0.82456300  0.20367200  0.25121900  1
  F  F1  1  0.19587900  0.91715200  0.27872700  1
  F  F2  1  0.45245400  0.70367200  0.37911000  1
  F  F3  1  0.13842500  0.41715200  0.72127300  1
  F  F4  1  0.54754600  0.29632700  0.62089000  1
  F  F5  1  0.86157500  0.58284800  0.27872700  1
  F  F6  1  0.82456300  0.57334400  0.62089000  1
  F  F7  1  0.37615200  0.25000000  0.12615200  1
  F  F8  1  0.62384800  0.75000000  0.87384800  1
  F  F9  1  0.17543700  0.79632700  0.74878100  1
  F  F10  1  0.54754600  0.92665600  0.25121900  1
  F  F11  1  0.17543700  0.42665600  0.37911000  1
  F  F12  1  0.45245400  0.07334400  0.74878100  1
  F  F13  1  0.80412100  0.08284800  0.72127300  1
loop_
_geom_bond_atom_site_label_1
_geom_bond_atom_site_label_2
_geom_bond_distance
_geom_bond_site_symmetry_2
Al0 F10 1.820703 1_545
Al0 F12 1.820703 1_555
Al0 F4 1.820703 1_555
Al0 F2 1.820710 1_545
Al0 F13 1.861135 1_555
Al0 F1 1.861135 1_545
Al1 F6 1.820703 1_455
Al1 F11 1.820703 1_555
Al1 F9 1.820703 1_555
Al1 F0 1.820708 1_455
Al1 F5 1.861135 1_455
Al1 F3 1.861135 1_555
F0 Zn1 2.045381 1_555
F0 Na0 2.587763 1_655
F0 Na2 2.785723 1_655
F1 Na0 2.251805 1_565
F1 Na1 2.498307 1_555
F1 Na2 2.498307 1_565
F2 Zn0 2.045376 1_555
F2 Na3 2.587764 1_555
F2 Na1 2.785729 1_555
F3 Na3 2.251805 1_556
F3 Na1 2.498307 1_556
F3 Na2 2.498307 1_555
F4 Zn0 2.045383 1_555
F4 Na3 2.587765 1_556
F4 Na1 2.785730 1_656
F5 Na3 2.251805 1_555
F5 Na2 2.498307 1_665
F5 Na1 2.498307 1_655
F6 Zn0 2.045383 1_555
F6 Na0 2.587765 1_666
F6 Na1 2.785730 1_656
F7 Zn0 2.025148 1_555
F7 Zn1 2.025148 1_555
F7 Na3 2.737483 1_555
F7 Na0 2.737483 1_555
F8 Zn1 2.025148 1_566
F8 Zn0 2.025148 1_555
F8 Na0 2.737483 1_666
F8 Na3 2.737483 1_556
F9 Zn1 2.045383 1_566
F9 Na0 2.587765 1_566
F9 Na2 2.785730 1_565
F10 Zn1 2.045383 1_565
F10 Na3 2.587765 1_555
F10 Na2 2.785730 1_665
F11 Zn0 2.045383 1_555
F11 Na0 2.587765 1_555
F11 Na1 2.785730 1_555
F12 Zn1 2.045383 1_556
F12 Na3 2.587765 1_556
F12 Na2 2.785730 1_555
F13 Na0 2.251805 1_656
F13 Na1 2.498307 1_656
F13 Na2 2.498307 1_655
