# generated using pymatgen
data_Na2Ca(PO3)4
_symmetry_space_group_name_H-M   'P 1'
_cell_length_a   9.77702700
_cell_length_b   9.77702700
_cell_length_c   5.00971500
_cell_angle_alpha   90.00000000
_cell_angle_beta   90.00000000
_cell_angle_gamma   90.00000000
_symmetry_Int_Tables_number   1
_chemical_formula_structural   Na2Ca(PO3)4
_chemical_formula_sum   'Na4 Ca2 P8 O24'
_cell_volume   478.87994414
_cell_formula_units_Z   2
loop_
 _symmetry_equiv_pos_site_id
 _symmetry_equiv_pos_as_xyz
  1  'x, y, z'
loop_
 _atom_site_type_symbol
 _atom_site_label
 _atom_site_symmetry_multiplicity
 _atom_site_fract_x
 _atom_site_fract_y
 _atom_site_fract_z
 _atom_site_occupancy
  Na  Na0  1  0.75000000  0.75000000  0.50000000  1
  Na  Na1  1  0.75000000  0.25000000  0.50000000  1
  Na  Na2  1  0.25000000  0.75000000  0.50000000  1
  Na  Na3  1  0.25000000  0.25000000  0.50000000  1
  Ca  Ca0  1  0.00000000  0.00000000  0.50000000  1
  Ca  Ca1  1  0.50000000  0.50000000  0.50000000  1
  P  P0  1  0.00000000  0.28252800  0.00000000  1
  P  P1  1  0.28252800  0.00000000  0.00000000  1
  P  P2  1  0.71747200  0.00000000  0.00000000  1
  P  P3  1  0.00000000  0.71747200  0.00000000  1
  P  P4  1  0.50000000  0.21747200  0.00000000  1
  P  P5  1  0.21747200  0.50000000  0.00000000  1
  P  P6  1  0.78252800  0.50000000  0.00000000  1
  P  P7  1  0.50000000  0.78252800  0.00000000  1
  O  O0  1  0.11296300  0.38703700  0.12815500  1
  O  O1  1  0.38703700  0.88703700  0.12815500  1
  O  O2  1  0.61296300  0.11296300  0.12815500  1
  O  O3  1  0.88703700  0.61296300  0.12815500  1
  O  O4  1  0.88703700  0.38703700  0.87184500  1
  O  O5  1  0.11296300  0.61296300  0.87184500  1
  O  O6  1  0.38703700  0.11296300  0.87184500  1
  O  O7  1  0.61296300  0.88703700  0.87184500  1
  O  O8  1  0.79272600  0.94026000  0.23283800  1
  O  O9  1  0.94026000  0.20727400  0.23283800  1
  O  O10  1  0.05974000  0.79272600  0.23283800  1
  O  O11  1  0.20727400  0.05974000  0.23283800  1
  O  O12  1  0.20727400  0.94026000  0.76716200  1
  O  O13  1  0.79272600  0.05974000  0.76716200  1
  O  O14  1  0.94026000  0.79272600  0.76716200  1
  O  O15  1  0.05974000  0.20727400  0.76716200  1
  O  O16  1  0.70727400  0.55974000  0.76716200  1
  O  O17  1  0.55974000  0.29272600  0.76716200  1
  O  O18  1  0.44026000  0.70727400  0.76716200  1
  O  O19  1  0.29272600  0.44026000  0.76716200  1
  O  O20  1  0.29272600  0.55974000  0.23283800  1
  O  O21  1  0.70727400  0.44026000  0.23283800  1
  O  O22  1  0.55974000  0.70727400  0.23283800  1
  O  O23  1  0.44026000  0.29272600  0.23283800  1
loop_
_geom_bond_atom_site_label_1
_geom_bond_atom_site_label_2
_geom_bond_distance
_geom_bond_site_symmetry_2
Na0 O16 2.329397 1_555
Na0 O8 2.329397 1_555
Na0 O14 2.329397 1_555
Na0 O22 2.329397 1_555
Na0 O3 2.657135 1_555
Na0 O7 2.657135 1_555
Na1 O17 2.329397 1_555
Na1 O9 2.329397 1_555
Na1 O21 2.329397 1_555
Na1 O13 2.329397 1_555
Na1 O4 2.657135 1_555
Na1 O2 2.657135 1_555
Na2 O20 2.329397 1_555
Na2 O18 2.329397 1_555
Na2 O12 2.329397 1_555
Na2 O10 2.329397 1_555
Na2 O5 2.657135 1_555
Na2 O1 2.657135 1_555
Na3 O11 2.329397 1_555
Na3 O15 2.329397 1_555
Na3 O19 2.329397 1_555
Na3 O23 2.329397 1_555
Na3 O6 2.657135 1_555
Na3 O0 2.657135 1_555
Ca0 O10 2.497854 1_545
Ca0 O13 2.497854 1_455
Ca0 O14 2.497854 1_445
Ca0 O8 2.497854 1_445
Ca0 O11 2.497854 1_555
Ca0 O9 2.497854 1_455
Ca0 O15 2.497854 1_555
Ca0 O12 2.497854 1_545
Ca1 O18 2.497854 1_555
Ca1 O21 2.497854 1_555
Ca1 O22 2.497854 1_555
Ca1 O16 2.497854 1_555
Ca1 O17 2.497854 1_555
Ca1 O19 2.497854 1_555
Ca1 O23 2.497854 1_555
Ca1 O20 2.497854 1_555
O0 P5 1.635858 1_555
O0 P0 1.635858 1_555
O1 P7 1.635858 1_555
O1 P1 1.635858 1_565
O2 P2 1.635858 1_555
O2 P4 1.635858 1_555
O3 P6 1.635858 1_555
O3 P3 1.635858 1_655
O4 P6 1.635858 1_556
O4 P0 1.635858 1_656
O5 P3 1.635858 1_556
O5 P5 1.635858 1_556
O6 P4 1.635858 1_556
O6 P1 1.635858 1_556
O7 P2 1.635858 1_566
O7 P7 1.635858 1_556
O8 P2 1.497699 1_565
O9 P0 1.497699 1_655
O10 P3 1.497699 1_555
O11 P1 1.497699 1_555
O12 P1 1.497699 1_566
O13 P2 1.497699 1_556
O14 P3 1.497699 1_656
O15 P0 1.497699 1_556
O16 P6 1.497699 1_556
O17 P4 1.497699 1_556
O18 P7 1.497699 1_556
O19 P5 1.497699 1_556
O20 P5 1.497699 1_555
O21 P6 1.497699 1_555
O22 P7 1.497699 1_555
O23 P4 1.497699 1_555
