# generated using pymatgen
data_Na4Sn3O8
_symmetry_space_group_name_H-M   'P 1'
_cell_length_a   9.35391900
_cell_length_b   9.35391900
_cell_length_c   9.35391900
_cell_angle_alpha   90.00000000
_cell_angle_beta   90.00000000
_cell_angle_gamma   90.00000000
_symmetry_Int_Tables_number   1
_chemical_formula_structural   Na4Sn3O8
_chemical_formula_sum   'Na16 Sn12 O32'
_cell_volume   818.42863220
_cell_formula_units_Z   4
loop_
 _symmetry_equiv_pos_site_id
 _symmetry_equiv_pos_as_xyz
  1  'x, y, z'
loop_
 _atom_site_type_symbol
 _atom_site_label
 _atom_site_symmetry_multiplicity
 _atom_site_fract_x
 _atom_site_fract_y
 _atom_site_fract_z
 _atom_site_occupancy
  Na  Na0  1  0.10589000  0.87500000  0.64411000  1
  Na  Na1  1  0.12500000  0.14411000  0.39411000  1
  Na  Na2  1  0.12500000  0.37500000  0.62500000  1
  Na  Na3  1  0.14411000  0.39411000  0.12500000  1
  Na  Na4  1  0.35589000  0.60589000  0.62500000  1
  Na  Na5  1  0.37500000  0.62500000  0.12500000  1
  Na  Na6  1  0.37500000  0.85589000  0.89411000  1
  Na  Na7  1  0.39411000  0.12500000  0.14411000  1
  Na  Na8  1  0.60589000  0.62500000  0.35589000  1
  Na  Na9  1  0.62500000  0.12500000  0.37500000  1
  Na  Na10  1  0.62500000  0.35589000  0.60589000  1
  Na  Na11  1  0.64411000  0.10589000  0.87500000  1
  Na  Na12  1  0.85589000  0.89411000  0.37500000  1
  Na  Na13  1  0.87500000  0.64411000  0.10589000  1
  Na  Na14  1  0.87500000  0.87500000  0.87500000  1
  Na  Na15  1  0.89411000  0.37500000  0.85589000  1
  Sn  Sn0  1  0.11752800  0.63247200  0.37500000  1
  Sn  Sn1  1  0.12500000  0.88247200  0.13247200  1
  Sn  Sn2  1  0.13247200  0.12500000  0.88247200  1
  Sn  Sn3  1  0.36752800  0.87500000  0.38247200  1
  Sn  Sn4  1  0.37500000  0.11752800  0.63247200  1
  Sn  Sn5  1  0.38247200  0.36752800  0.87500000  1
  Sn  Sn6  1  0.61752800  0.86752800  0.62500000  1
  Sn  Sn7  1  0.62500000  0.61752800  0.86752800  1
  Sn  Sn8  1  0.63247200  0.37500000  0.11752800  1
  Sn  Sn9  1  0.86752800  0.62500000  0.61752800  1
  Sn  Sn10  1  0.87500000  0.38247200  0.36752800  1
  Sn  Sn11  1  0.88247200  0.13247200  0.12500000  1
  O  O0  1  0.09084700  0.63415500  0.59595600  1
  O  O1  1  0.09595600  0.40915300  0.36584500  1
  O  O2  1  0.11584500  0.65915300  0.15404400  1
  O  O3  1  0.11938700  0.11938700  0.11938700  1
  O  O4  1  0.13061300  0.86938700  0.36938700  1
  O  O5  1  0.13415500  0.90404400  0.90915300  1
  O  O6  1  0.15404400  0.11584500  0.65915300  1
  O  O7  1  0.15915300  0.34595600  0.88415500  1
  O  O8  1  0.34084700  0.65404400  0.38415500  1
  O  O9  1  0.34595600  0.88415500  0.15915300  1
  O  O10  1  0.36584500  0.09595600  0.40915300  1
  O  O11  1  0.36938700  0.13061300  0.86938700  1
  O  O12  1  0.38061300  0.88061300  0.61938700  1
  O  O13  1  0.38415500  0.34084700  0.65404400  1
  O  O14  1  0.40404400  0.59084700  0.86584500  1
  O  O15  1  0.40915300  0.36584500  0.09595600  1
  O  O16  1  0.59084700  0.86584500  0.40404400  1
  O  O17  1  0.59595600  0.09084700  0.63415500  1
  O  O18  1  0.61584500  0.84084700  0.84595600  1
  O  O19  1  0.61938700  0.38061300  0.88061300  1
  O  O20  1  0.63061300  0.63061300  0.63061300  1
  O  O21  1  0.63415500  0.59595600  0.09084700  1
  O  O22  1  0.65404400  0.38415500  0.34084700  1
  O  O23  1  0.65915300  0.15404400  0.11584500  1
  O  O24  1  0.84084700  0.84595600  0.61584500  1
  O  O25  1  0.84595600  0.61584500  0.84084700  1
  O  O26  1  0.86584500  0.40404400  0.59084700  1
  O  O27  1  0.86938700  0.36938700  0.13061300  1
  O  O28  1  0.88061300  0.61938700  0.38061300  1
  O  O29  1  0.88415500  0.15915300  0.34595600  1
  O  O30  1  0.90404400  0.90915300  0.13415500  1
  O  O31  1  0.90915300  0.13415500  0.90404400  1
loop_
_geom_bond_atom_site_label_1
_geom_bond_atom_site_label_2
_geom_bond_distance
_geom_bond_site_symmetry_2
Na0 O6 2.301737 1_565
Na0 O0 2.301737 1_555
Na0 O5 2.508006 1_555
Na0 O24 2.508006 1_455
Na0 O12 2.580656 1_555
Na0 O4 2.580656 1_555
Na1 O10 2.301737 1_555
Na1 O29 2.301737 1_455
Na1 O1 2.508006 1_555
Na1 O6 2.508006 1_555
Na1 O3 2.580656 1_555
Na1 O4 2.580656 1_545
Na2 O13 2.460122 1_555
Na2 O7 2.460122 1_555
Na2 O26 2.460122 1_455
Na2 O1 2.460122 1_555
Na2 O0 2.460122 1_555
Na2 O6 2.460122 1_555
Na3 O1 2.301737 1_555
Na3 O7 2.301737 1_554
Na3 O15 2.508006 1_555
Na3 O2 2.508006 1_555
Na3 O3 2.580656 1_555
Na3 O27 2.580656 1_455
Na4 O14 2.301737 1_555
Na4 O8 2.301737 1_555
Na4 O13 2.508006 1_555
Na4 O0 2.508006 1_555
Na4 O12 2.580656 1_555
Na4 O20 2.580656 1_555
Na5 O8 2.460122 1_555
Na5 O9 2.460122 1_555
Na5 O14 2.460122 1_554
Na5 O15 2.460122 1_555
Na5 O21 2.460122 1_555
Na5 O2 2.460122 1_555
Na6 O5 2.301737 1_555
Na6 O18 2.301737 1_555
Na6 O9 2.508006 1_556
Na6 O14 2.508006 1_555
Na6 O12 2.580656 1_555
Na6 O11 2.580656 1_565
Na7 O15 2.301737 1_555
Na7 O9 2.301737 1_545
Na7 O10 2.508006 1_555
Na7 O23 2.508006 1_555
Na7 O3 2.580656 1_555
Na7 O11 2.580656 1_554
Na8 O16 2.301737 1_555
Na8 O22 2.301737 1_555
Na8 O8 2.508006 1_555
Na8 O21 2.508006 1_555
Na8 O20 2.580656 1_555
Na8 O28 2.580656 1_555
Na9 O29 2.460122 1_555
Na9 O22 2.460122 1_555
Na9 O16 2.460122 1_545
Na9 O10 2.460122 1_555
Na9 O17 2.460122 1_555
Na9 O23 2.460122 1_555
Na10 O26 2.301737 1_555
Na10 O13 2.301737 1_555
Na10 O22 2.508006 1_555
Na10 O17 2.508006 1_555
Na10 O19 2.580656 1_555
Na10 O20 2.580656 1_555
Na11 O23 2.301737 1_556
Na11 O17 2.301737 1_555
Na11 O31 2.508006 1_555
Na11 O18 2.508006 1_545
Na11 O19 2.580656 1_555
Na11 O11 2.580656 1_555
Na12 O30 2.301737 1_555
Na12 O24 2.301737 1_555
Na12 O29 2.508006 1_565
Na12 O16 2.508006 1_555
Na12 O28 2.580656 1_555
Na12 O4 2.580656 1_655
Na13 O2 2.301737 1_655
Na13 O21 2.301737 1_555
Na13 O30 2.508006 1_555
Na13 O25 2.508006 1_554
Na13 O28 2.580656 1_555
Na13 O27 2.580656 1_555
Na14 O31 2.460122 1_565
Na14 O5 2.460122 1_655
Na14 O30 2.460122 1_556
Na14 O25 2.460122 1_555
Na14 O18 2.460122 1_555
Na14 O24 2.460122 1_555
Na15 O31 2.301737 1_555
Na15 O25 2.301737 1_555
Na15 O7 2.508006 1_655
Na15 O26 2.508006 1_555
Na15 O19 2.580656 1_555
Na15 O27 2.580656 1_556
O0 Sn0 2.081878 1_555
O0 Sn9 2.100377 1_455
O1 Sn10 2.081878 1_455
O1 Sn0 2.100377 1_555
O2 Sn0 2.081878 1_555
O2 Sn1 2.100377 1_555
O3 Sn11 2.220082 1_455
O3 Sn2 2.220082 1_554
O3 Sn1 2.220082 1_545
O4 Sn1 2.220082 1_555
O4 Sn3 2.220082 1_555
O4 Sn0 2.220082 1_555
O5 Sn2 2.081878 1_565
O5 Sn1 2.100377 1_556
O6 Sn4 2.081878 1_555
O6 Sn2 2.100377 1_555
O7 Sn2 2.081878 1_555
O7 Sn5 2.100377 1_555
O8 Sn3 2.081878 1_555
O8 Sn0 2.100377 1_555
O9 Sn1 2.081878 1_555
O9 Sn3 2.100377 1_555
O10 Sn3 2.081878 1_545
O10 Sn4 2.100377 1_555
O11 Sn2 2.220082 1_555
O11 Sn5 2.220082 1_555
O11 Sn4 2.220082 1_555
O12 Sn6 2.220082 1_555
O12 Sn4 2.220082 1_565
O12 Sn3 2.220082 1_555
O13 Sn5 2.081878 1_555
O13 Sn4 2.100377 1_555
O14 Sn7 2.081878 1_555
O14 Sn5 2.100377 1_555
O15 Sn5 2.081878 1_554
O15 Sn8 2.100377 1_555
O16 Sn6 2.081878 1_555
O16 Sn3 2.100377 1_555
O17 Sn4 2.081878 1_555
O17 Sn6 2.100377 1_545
O18 Sn6 2.081878 1_555
O18 Sn7 2.100377 1_555
O19 Sn7 2.220082 1_555
O19 Sn8 2.220082 1_556
O19 Sn5 2.220082 1_555
O20 Sn9 2.220082 1_555
O20 Sn6 2.220082 1_555
O20 Sn7 2.220082 1_555
O21 Sn8 2.081878 1_555
O21 Sn7 2.100377 1_554
O22 Sn10 2.081878 1_555
O22 Sn8 2.100377 1_555
O23 Sn8 2.081878 1_555
O23 Sn11 2.100377 1_555
O24 Sn9 2.081878 1_555
O24 Sn6 2.100377 1_555
O25 Sn7 2.081878 1_555
O25 Sn9 2.100377 1_555
O26 Sn9 2.081878 1_555
O26 Sn10 2.100377 1_555
O27 Sn11 2.220082 1_555
O27 Sn10 2.220082 1_555
O27 Sn8 2.220082 1_555
O28 Sn9 2.220082 1_555
O28 Sn0 2.220082 1_655
O28 Sn10 2.220082 1_555
O29 Sn11 2.081878 1_555
O29 Sn10 2.100377 1_555
O30 Sn1 2.081878 1_655
O30 Sn11 2.100377 1_565
O31 Sn11 2.081878 1_556
O31 Sn2 2.100377 1_655
