# generated using pymatgen
data_Li47Cu7N18
_symmetry_space_group_name_H-M   'P 1'
_cell_length_a   3.68035395
_cell_length_b   3.68035395
_cell_length_c   68.04758800
_cell_angle_alpha   90.00000000
_cell_angle_beta   90.00000000
_cell_angle_gamma   119.99999908
_symmetry_Int_Tables_number   1
_chemical_formula_structural   Li47Cu7N18
_chemical_formula_sum   'Li47 Cu7 N18'
_cell_volume   798.21989381
_cell_formula_units_Z   1
loop_
 _symmetry_equiv_pos_site_id
 _symmetry_equiv_pos_as_xyz
  1  'x, y, z'
loop_
 _atom_site_type_symbol
 _atom_site_label
 _atom_site_symmetry_multiplicity
 _atom_site_fract_x
 _atom_site_fract_y
 _atom_site_fract_z
 _atom_site_occupancy
  Li  Li0  1  0.00000000  0.00000000  0.88858400  1
  Li  Li1  1  0.00000000  0.00000000  0.94437200  1
  Li  Li2  1  0.00000000  0.00000000  0.11141600  1
  Li  Li3  1  0.00000000  0.00000000  0.22391400  1
  Li  Li4  1  0.00000000  0.00000000  0.33475800  1
  Li  Li5  1  0.66666700  0.33333300  0.63521600  1
  Li  Li6  1  0.66666700  0.33333300  0.69527400  1
  Li  Li7  1  0.66666700  0.33333300  0.74683800  1
  Li  Li8  1  0.66666700  0.33333300  0.80447300  1
  Li  Li9  1  0.66666700  0.33333300  0.86066700  1
  Li  Li10  1  0.66666700  0.33333300  0.91656500  1
  Li  Li11  1  0.66666700  0.33333300  0.97222200  1
  Li  Li12  1  0.66666700  0.33333300  0.02777800  1
  Li  Li13  1  0.66666700  0.33333300  0.08343500  1
  Li  Li14  1  0.66666700  0.33333300  0.13933300  1
  Li  Li15  1  0.66666700  0.33333300  0.19552700  1
  Li  Li16  1  0.66666700  0.33333300  0.25316200  1
  Li  Li17  1  0.66666700  0.33333300  0.30472600  1
  Li  Li18  1  0.66666700  0.33333300  0.36478400  1
  Li  Li19  1  0.66666700  0.33333300  0.41790500  1
  Li  Li20  1  0.66666700  0.33333300  0.47258300  1
  Li  Li21  1  0.66666700  0.33333300  0.52741700  1
  Li  Li22  1  0.66666700  0.33333300  0.58209500  1
  Li  Li23  1  0.33333300  0.66666700  0.63521600  1
  Li  Li24  1  0.33333300  0.66666700  0.69527400  1
  Li  Li25  1  0.33333300  0.66666700  0.74683800  1
  Li  Li26  1  0.33333300  0.66666700  0.80447300  1
  Li  Li27  1  0.33333300  0.66666700  0.86066700  1
  Li  Li28  1  0.33333300  0.66666700  0.91656500  1
  Li  Li29  1  0.33333300  0.66666700  0.97222200  1
  Li  Li30  1  0.33333300  0.66666700  0.02777800  1
  Li  Li31  1  0.00000000  0.00000000  0.66524200  1
  Li  Li32  1  0.33333300  0.66666700  0.08343500  1
  Li  Li33  1  0.33333300  0.66666700  0.13933300  1
  Li  Li34  1  0.00000000  0.00000000  0.77608600  1
  Li  Li35  1  0.33333300  0.66666700  0.19552700  1
  Li  Li36  1  0.00000000  0.00000000  0.83252700  1
  Li  Li37  1  0.33333300  0.66666700  0.25316200  1
  Li  Li38  1  0.33333300  0.66666700  0.30472600  1
  Li  Li39  1  0.33333300  0.66666700  0.36478400  1
  Li  Li40  1  0.00000000  0.00000000  0.00000000  1
  Li  Li41  1  0.00000000  0.00000000  0.05562800  1
  Li  Li42  1  0.33333300  0.66666700  0.47258300  1
  Li  Li43  1  0.33333300  0.66666700  0.41790500  1
  Li  Li44  1  0.33333300  0.66666700  0.52741700  1
  Li  Li45  1  0.00000000  0.00000000  0.16747300  1
  Li  Li46  1  0.33333300  0.66666700  0.58209500  1
  Cu  Cu0  1  0.00000000  0.00000000  0.44527400  1
  Cu  Cu1  1  0.00000000  0.00000000  0.50000000  1
  Cu  Cu2  1  0.00000000  0.00000000  0.60948700  1
  Cu  Cu3  1  0.00000000  0.00000000  0.72092900  1
  Cu  Cu4  1  0.00000000  0.00000000  0.27907100  1
  Cu  Cu5  1  0.00000000  0.00000000  0.39051300  1
  Cu  Cu6  1  0.00000000  0.00000000  0.55472600  1
  N  N0  1  0.00000000  0.00000000  0.69336100  1
  N  N1  1  0.00000000  0.00000000  0.74842100  1
  N  N2  1  0.00000000  0.00000000  0.86061000  1
  N  N3  1  0.00000000  0.00000000  0.08348200  1
  N  N4  1  0.00000000  0.00000000  0.13939000  1
  N  N5  1  0.00000000  0.00000000  0.25157900  1
  N  N6  1  0.00000000  0.00000000  0.52736800  1
  N  N7  1  0.00000000  0.00000000  0.58206200  1
  N  N8  1  0.00000000  0.00000000  0.63705300  1
  N  N9  1  0.00000000  0.00000000  0.80440500  1
  N  N10  1  0.00000000  0.00000000  0.91651800  1
  N  N11  1  0.00000000  0.00000000  0.97220100  1
  N  N12  1  0.00000000  0.00000000  0.02779900  1
  N  N13  1  0.00000000  0.00000000  0.19559500  1
  N  N14  1  0.00000000  0.00000000  0.30663900  1
  N  N15  1  0.00000000  0.00000000  0.36294700  1
  N  N16  1  0.00000000  0.00000000  0.41793800  1
  N  N17  1  0.00000000  0.00000000  0.47263200  1
loop_
_geom_bond_atom_site_label_1
_geom_bond_atom_site_label_2
_geom_bond_distance
_geom_bond_site_symmetry_2
Li0 N10 1.900841 1_555
Li0 N2 1.903563 1_555
Li1 N11 1.893696 1_555
Li1 N10 1.895398 1_555
Li2 N3 1.900841 1_555
Li2 N4 1.903563 1_555
Li3 N5 1.882537 1_555
Li3 N13 1.927040 1_555
Li4 N14 1.913430 1_555
Li4 N15 1.918193 1_555
Li5 N8 2.128525 1_655
Li5 N8 2.128528 1_555
Li5 N8 2.128528 1_665
Li6 N0 2.128835 1_655
Li6 N0 2.128838 1_555
Li6 N0 2.128838 1_665
Li7 N1 2.127580 1_655
Li7 N1 2.127583 1_665
Li7 N1 2.127583 1_555
Li8 N9 2.124856 1_655
Li8 N9 2.124859 1_665
Li8 N9 2.124859 1_555
Li9 N2 2.124855 1_655
Li9 N2 2.124858 1_555
Li9 N2 2.124858 1_665
Li10 N10 2.124854 1_655
Li10 N10 2.124857 1_555
Li10 N10 2.124857 1_665
Li11 N11 2.124852 1_655
Li11 N11 2.124855 1_555
Li11 N11 2.124855 1_665
Li12 N12 2.124852 1_655
Li12 N12 2.124855 1_665
Li12 N12 2.124855 1_555
Li13 N3 2.124854 1_655
Li13 N3 2.124857 1_665
Li13 N3 2.124857 1_555
Li14 N4 2.124855 1_655
Li14 N4 2.124858 1_555
Li14 N4 2.124858 1_665
Li15 N13 2.124856 1_655
Li15 N13 2.124859 1_665
Li15 N13 2.124859 1_555
Li16 N5 2.127580 1_655
Li16 N5 2.127583 1_665
Li16 N5 2.127583 1_555
Li17 N14 2.128835 1_655
Li17 N14 2.128838 1_555
Li17 N14 2.128838 1_665
Li18 N15 2.128525 1_655
Li18 N15 2.128528 1_665
Li18 N15 2.128528 1_555
Li19 N16 2.124852 1_655
Li19 N16 2.124856 1_555
Li19 N16 2.124856 1_665
Li20 N17 2.124854 1_655
Li20 N17 2.124857 1_665
Li20 N17 2.124857 1_555
Li21 N6 2.124854 1_655
Li21 N6 2.124857 1_665
Li21 N6 2.124857 1_555
Li22 N7 2.124852 1_655
Li22 N7 2.124856 1_555
Li22 N7 2.124856 1_665
Li23 N8 2.128525 1_565
Li23 N8 2.128528 1_555
Li23 N8 2.128528 1_665
Li24 N0 2.128835 1_565
Li24 N0 2.128838 1_555
Li24 N0 2.128838 1_665
Li25 N1 2.127580 1_565
Li25 N1 2.127583 1_665
Li25 N1 2.127583 1_555
Li26 N9 2.124856 1_565
Li26 N9 2.124859 1_665
Li26 N9 2.124859 1_555
Li27 N2 2.124855 1_565
Li27 N2 2.124858 1_555
Li27 N2 2.124858 1_665
Li28 N10 2.124854 1_565
Li28 N10 2.124857 1_555
Li28 N10 2.124857 1_665
Li29 N11 2.124852 1_565
Li29 N11 2.124855 1_555
Li29 N11 2.124855 1_665
Li30 N12 2.124852 1_565
Li30 N12 2.124855 1_555
Li30 N12 2.124855 1_665
Li31 N0 1.913430 1_555
Li31 N8 1.918193 1_555
Li32 N3 2.124854 1_565
Li32 N3 2.124857 1_665
Li32 N3 2.124857 1_555
Li33 N4 2.124855 1_565
Li33 N4 2.124858 1_665
Li33 N4 2.124858 1_555
Li34 N1 1.882537 1_555
Li34 N9 1.927040 1_555
Li35 N13 2.124856 1_565
Li35 N13 2.124859 1_665
Li35 N13 2.124859 1_555
Li36 N2 1.910980 1_555
Li36 N9 1.913634 1_555
Li37 N5 2.127580 1_565
Li37 N5 2.127583 1_665
Li37 N5 2.127583 1_555
Li38 N14 2.128835 1_565
Li38 N14 2.128838 1_555
Li38 N14 2.128838 1_665
Li39 N15 2.128525 1_565
Li39 N15 2.128528 1_555
Li39 N15 2.128528 1_665
Li40 N12 1.891655 1_555
Li40 N11 1.891655 1_554
Li41 N12 1.893696 1_555
Li41 N3 1.895398 1_555
Li42 N17 2.124854 1_565
Li42 N17 2.124857 1_665
Li42 N17 2.124857 1_555
Li43 N16 2.124852 1_565
Li43 N16 2.124856 1_555
Li43 N16 2.124856 1_665
Li44 N6 2.124854 1_565
Li44 N6 2.124857 1_665
Li44 N6 2.124857 1_555
Li45 N4 1.910980 1_555
Li45 N13 1.913634 1_555
Li46 N7 2.124852 1_565
Li46 N7 2.124856 1_555
Li46 N7 2.124856 1_665
Cu0 N16 1.860149 1_555
Cu0 N17 1.861646 1_555
Cu1 N6 1.862326 1_555
Cu1 N17 1.862326 1_555
Cu2 N7 1.866205 1_555
Cu2 N8 1.875800 1_555
Cu3 N1 1.870764 1_555
Cu3 N0 1.875936 1_555
Cu4 N5 1.870764 1_555
Cu4 N14 1.875936 1_555
Cu5 N16 1.866205 1_555
Cu5 N15 1.875800 1_555
Cu6 N7 1.860149 1_555
Cu6 N6 1.861646 1_555
