# generated using pymatgen
data_V2CuS4
_symmetry_space_group_name_H-M   'P 1'
_cell_length_a   6.98089473
_cell_length_b   6.98089473
_cell_length_c   6.98089473
_cell_angle_alpha   60.00000000
_cell_angle_beta   60.00000000
_cell_angle_gamma   60.00000000
_symmetry_Int_Tables_number   1
_chemical_formula_structural   V2CuS4
_chemical_formula_sum   'V4 Cu2 S8'
_cell_volume   240.55714932
_cell_formula_units_Z   2
loop_
 _symmetry_equiv_pos_site_id
 _symmetry_equiv_pos_as_xyz
  1  'x, y, z'
loop_
 _atom_site_type_symbol
 _atom_site_label
 _atom_site_symmetry_multiplicity
 _atom_site_fract_x
 _atom_site_fract_y
 _atom_site_fract_z
 _atom_site_occupancy
  V  V0  1  0.62500000  0.12500000  0.12500000  1
  V  V1  1  0.12500000  0.62500000  0.12500000  1
  V  V2  1  0.12500000  0.12500000  0.12500000  1
  V  V3  1  0.12500000  0.12500000  0.62500000  1
  Cu  Cu0  1  0.75000000  0.75000000  0.75000000  1
  Cu  Cu1  1  0.50000000  0.50000000  0.50000000  1
  S  S0  1  0.88107400  0.88107400  0.35677900  1
  S  S1  1  0.36892600  0.36892600  0.36892600  1
  S  S2  1  0.88107400  0.88107400  0.88107400  1
  S  S3  1  0.89322100  0.36892600  0.36892600  1
  S  S4  1  0.36892600  0.89322100  0.36892600  1
  S  S5  1  0.35677900  0.88107400  0.88107400  1
  S  S6  1  0.88107400  0.35677900  0.88107400  1
  S  S7  1  0.36892600  0.36892600  0.89322100  1
loop_
_geom_bond_atom_site_label_1
_geom_bond_atom_site_label_2
_geom_bond_distance
_geom_bond_site_symmetry_2
Cu0 S5 2.241311 1_555
Cu0 S0 2.241311 1_555
Cu0 S6 2.241311 1_555
Cu0 S2 2.241317 1_555
Cu1 S3 2.241311 1_555
Cu1 S7 2.241311 1_555
Cu1 S4 2.241311 1_555
Cu1 S1 2.241317 1_555
S0 V2 2.409646 1_665
S0 V0 2.409651 1_565
S0 V1 2.409651 1_655
S1 V0 2.409646 1_555
S1 V3 2.409646 1_555
S1 V1 2.409646 1_555
S2 V0 2.409646 1_566
S2 V3 2.409646 1_665
S2 V1 2.409646 1_656
S3 V2 2.409646 1_655
S3 V1 2.409651 1_655
S3 V3 2.409651 1_655
S4 V2 2.409646 1_565
S4 V3 2.409651 1_565
S4 V0 2.409651 1_565
S5 V2 2.409646 1_566
S5 V1 2.409651 1_556
S5 V3 2.409651 1_565
S6 V2 2.409646 1_656
S6 V0 2.409651 1_556
S6 V3 2.409651 1_655
S7 V2 2.409646 1_556
S7 V1 2.409651 1_556
S7 V0 2.409651 1_556
