# generated using pymatgen
data_RbYbI3
_symmetry_space_group_name_H-M   'P 1'
_cell_length_a   4.67126900
_cell_length_b   10.63430000
_cell_length_c   17.50834000
_cell_angle_alpha   90.00000000
_cell_angle_beta   90.00000000
_cell_angle_gamma   90.00000000
_symmetry_Int_Tables_number   1
_chemical_formula_structural   RbYbI3
_chemical_formula_sum   'Rb4 Yb4 I12'
_cell_volume   869.73862385
_cell_formula_units_Z   4
loop_
 _symmetry_equiv_pos_site_id
 _symmetry_equiv_pos_as_xyz
  1  'x, y, z'
loop_
 _atom_site_type_symbol
 _atom_site_label
 _atom_site_symmetry_multiplicity
 _atom_site_fract_x
 _atom_site_fract_y
 _atom_site_fract_z
 _atom_site_occupancy
  Rb  Rb0  1  0.75000000  0.57316000  0.17894000  1
  Rb  Rb1  1  0.25000000  0.42684000  0.82106000  1
  Rb  Rb2  1  0.25000000  0.92684000  0.67894000  1
  Rb  Rb3  1  0.75000000  0.07316000  0.32106000  1
  Yb  Yb0  1  0.75000000  0.33183000  0.55445600  1
  Yb  Yb1  1  0.75000000  0.83183000  0.94554400  1
  Yb  Yb2  1  0.25000000  0.16817000  0.05445600  1
  Yb  Yb3  1  0.25000000  0.66817000  0.44554400  1
  I  I0  1  0.25000000  0.01827500  0.89668000  1
  I  I1  1  0.75000000  0.20488800  0.71159500  1
  I  I2  1  0.75000000  0.70488800  0.78840500  1
  I  I3  1  0.25000000  0.66625500  0.01103300  1
  I  I4  1  0.25000000  0.29511200  0.21159500  1
  I  I5  1  0.75000000  0.33374500  0.98896700  1
  I  I6  1  0.25000000  0.51827500  0.60332000  1
  I  I7  1  0.75000000  0.83374500  0.51103300  1
  I  I8  1  0.75000000  0.98172500  0.10332000  1
  I  I9  1  0.75000000  0.48172500  0.39668000  1
  I  I10  1  0.25000000  0.16625500  0.48896700  1
  I  I11  1  0.25000000  0.79511200  0.28840500  1
loop_
_geom_bond_atom_site_label_1
_geom_bond_atom_site_label_2
_geom_bond_distance
_geom_bond_site_symmetry_2
I0 Yb1 3.180922 1_545
I0 Yb1 3.180922 1_445
I0 Yb2 3.189319 1_556
I0 Rb2 3.934315 1_545
I1 Yb0 3.064584 1_555
I1 Rb2 3.811169 1_645
I1 Rb2 3.811169 1_545
I1 Rb1 3.833978 1_655
I1 Rb1 3.833978 1_555
I2 Yb1 3.064584 1_555
I2 Rb1 3.811169 1_555
I2 Rb1 3.811169 1_655
I2 Rb2 3.833978 1_655
I2 Rb2 3.833978 1_555
I3 Yb1 3.141690 1_454
I3 Yb1 3.141690 1_554
I3 Rb0 3.882983 1_455
I3 Rb0 3.882983 1_555
I3 Rb1 4.188698 1_554
I4 Yb2 3.064584 1_555
I4 Rb0 3.811169 1_455
I4 Rb0 3.811169 1_555
I4 Rb3 3.833978 1_555
I4 Rb3 3.833978 1_455
I5 Yb2 3.141690 1_556
I5 Yb2 3.141690 1_656
I5 Rb1 3.882983 1_555
I5 Rb1 3.882983 1_655
I5 Rb0 4.188698 1_556
I6 Yb0 3.180922 1_555
I6 Yb0 3.180922 1_455
I6 Yb3 3.189319 1_555
I6 Rb1 3.934315 1_555
I7 Yb3 3.141690 1_555
I7 Yb3 3.141690 1_655
I7 Rb2 3.882983 1_655
I7 Rb2 3.882983 1_555
I7 Rb3 4.188698 1_565
I8 Yb2 3.180922 1_565
I8 Yb2 3.180922 1_665
I8 Yb1 3.189319 1_554
I8 Rb3 3.934315 1_565
I9 Yb3 3.180922 1_555
I9 Yb3 3.180922 1_655
I9 Yb0 3.189319 1_555
I9 Rb0 3.934315 1_555
I10 Yb0 3.141690 1_455
I10 Yb0 3.141690 1_555
I10 Rb3 3.882983 1_555
I10 Rb3 3.882983 1_455
I10 Rb2 4.188698 1_545
I11 Yb3 3.064584 1_555
I11 Rb3 3.811169 1_465
I11 Rb3 3.811169 1_565
I11 Rb0 3.833978 1_455
I11 Rb0 3.833978 1_555
