# generated using pymatgen
data_Ca3SiBr2
_symmetry_space_group_name_H-M   'P 1'
_cell_length_a   11.98536911
_cell_length_b   11.98536911
_cell_length_c   11.98536908
_cell_angle_alpha   20.59381566
_cell_angle_beta   20.59381566
_cell_angle_gamma   20.59381437
_symmetry_Int_Tables_number   1
_chemical_formula_structural   Ca3SiBr2
_chemical_formula_sum   'Ca3 Si1 Br2'
_cell_volume   186.45712542
_cell_formula_units_Z   1
loop_
 _symmetry_equiv_pos_site_id
 _symmetry_equiv_pos_as_xyz
  1  'x, y, z'
loop_
 _atom_site_type_symbol
 _atom_site_label
 _atom_site_symmetry_multiplicity
 _atom_site_fract_x
 _atom_site_fract_y
 _atom_site_fract_z
 _atom_site_occupancy
  Ca  Ca0  1  0.11945400  0.11945400  0.11945400  1
  Ca  Ca1  1  0.99618400  0.99618400  0.99618400  1
  Ca  Ca2  1  0.90453300  0.90453300  0.90453300  1
  Si  Si0  1  0.28388000  0.28388000  0.28388000  1
  Br  Br0  1  0.50028000  0.50028000  0.50028000  1
  Br  Br1  1  0.73867000  0.73867000  0.73867000  1
loop_
_geom_bond_atom_site_label_1
_geom_bond_atom_site_label_2
_geom_bond_distance
_geom_bond_site_symmetry_2
Ca1 Si0 2.949180 1_566
Ca1 Si0 2.949180 1_656
Ca1 Si0 2.949180 1_665
Ca2 Si0 2.956409 1_566
Ca2 Si0 2.956409 1_656
Ca2 Si0 2.956409 1_665
Br0 Ca0 2.985219 1_655
Br0 Ca0 2.985219 1_565
Br0 Ca0 2.985219 1_556
Br0 Ca2 3.513566 1_455
Br0 Ca2 3.513566 1_545
Br0 Ca2 3.513566 1_554
Br1 Ca0 2.984392 1_566
Br1 Ca0 2.984392 1_656
Br1 Ca0 2.984392 1_665
Br1 Ca1 3.638003 1_455
Br1 Ca1 3.638003 1_545
Br1 Ca1 3.638003 1_554
