# generated using pymatgen
data_CdI2
_symmetry_space_group_name_H-M   'P 1'
_cell_length_a   4.33749760
_cell_length_b   4.33749760
_cell_length_c   125.80690100
_cell_angle_alpha   90.00000000
_cell_angle_beta   90.00000000
_cell_angle_gamma   119.99999397
_symmetry_Int_Tables_number   1
_chemical_formula_structural   CdI2
_chemical_formula_sum   'Cd16 I32'
_cell_volume   2049.81005181
_cell_formula_units_Z   16
loop_
 _symmetry_equiv_pos_site_id
 _symmetry_equiv_pos_as_xyz
  1  'x, y, z'
loop_
 _atom_site_type_symbol
 _atom_site_label
 _atom_site_symmetry_multiplicity
 _atom_site_fract_x
 _atom_site_fract_y
 _atom_site_fract_z
 _atom_site_occupancy
  Cd  Cd0  1  0.00000000  0.00000000  0.76564300  1
  Cd  Cd1  1  0.00000000  0.00000000  0.14059600  1
  Cd  Cd2  1  0.00000000  0.00000000  0.01563000  1
  Cd  Cd3  1  0.33333300  0.66666700  0.32811700  1
  Cd  Cd4  1  0.33333300  0.66666700  0.70316200  1
  Cd  Cd5  1  0.33333300  0.66666700  0.57812400  1
  Cd  Cd6  1  0.00000000  0.00000000  0.26563800  1
  Cd  Cd7  1  0.33333300  0.66666700  0.45305200  1
  Cd  Cd8  1  0.00000000  0.00000000  0.64059300  1
  Cd  Cd9  1  0.00000000  0.00000000  0.82813600  1
  Cd  Cd10  1  0.00000000  0.00000000  0.39069100  1
  Cd  Cd11  1  0.00000000  0.00000000  0.51563300  1
  Cd  Cd12  1  0.33333300  0.66666700  0.20317200  1
  Cd  Cd13  1  0.33333300  0.66666700  0.07811300  1
  Cd  Cd14  1  0.33333300  0.66666700  0.89063400  1
  Cd  Cd15  1  0.00000000  0.00000000  0.95310900  1
  I  I0  1  0.00000000  0.00000000  0.87698300  1
  I  I1  1  0.66666700  0.33333300  0.02928700  1
  I  I2  1  0.66666700  0.33333300  0.27929900  1
  I  I3  1  0.66666700  0.33333300  0.52929200  1
  I  I4  1  0.00000000  0.00000000  0.18947600  1
  I  I5  1  0.33333300  0.66666700  0.37703600  1
  I  I6  1  0.33333300  0.66666700  0.93946300  1
  I  I7  1  0.66666700  0.33333300  0.15429400  1
  I  I8  1  0.66666700  0.33333300  0.65427800  1
  I  I9  1  0.66666700  0.33333300  0.09175400  1
  I  I10  1  0.66666700  0.33333300  0.71680800  1
  I  I11  1  0.00000000  0.00000000  0.31436500  1
  I  I12  1  0.66666700  0.33333300  0.46672500  1
  I  I13  1  0.00000000  0.00000000  0.68948700  1
  I  I14  1  0.00000000  0.00000000  0.06446400  1
  I  I15  1  0.66666700  0.33333300  0.90429400  1
  I  I16  1  0.33333300  0.66666700  0.25198500  1
  I  I17  1  0.33333300  0.66666700  0.50198300  1
  I  I18  1  0.00000000  0.00000000  0.56447700  1
  I  I19  1  0.66666700  0.33333300  0.77930100  1
  I  I20  1  0.33333300  0.66666700  0.75199100  1
  I  I21  1  0.33333300  0.66666700  0.12690400  1
  I  I22  1  0.33333300  0.66666700  0.81446400  1
  I  I23  1  0.66666700  0.33333300  0.40434200  1
  I  I24  1  0.66666700  0.33333300  0.21684700  1
  I  I25  1  0.33333300  0.66666700  0.00198500  1
  I  I26  1  0.66666700  0.33333300  0.96675000  1
  I  I27  1  0.00000000  0.00000000  0.43937200  1
  I  I28  1  0.66666700  0.33333300  0.84180600  1
  I  I29  1  0.33333300  0.66666700  0.62692500  1
  I  I30  1  0.66666700  0.33333300  0.59176400  1
  I  I31  1  0.66666700  0.33333300  0.34183700  1
loop_
_geom_bond_atom_site_label_1
_geom_bond_atom_site_label_2
_geom_bond_distance
_geom_bond_site_symmetry_2
Cd0 I20 3.036633 1_545
Cd0 I20 3.036637 1_445
Cd0 I20 3.036637 1_555
Cd0 I19 3.037060 1_455
Cd0 I19 3.037064 1_445
Cd0 I19 3.037064 1_555
Cd1 I21 3.039483 1_545
Cd1 I21 3.039486 1_445
Cd1 I21 3.039486 1_555
Cd1 I7 3.039910 1_455
Cd1 I7 3.039914 1_445
Cd1 I7 3.039914 1_555
Cd2 I25 3.036135 1_545
Cd2 I25 3.036139 1_445
Cd2 I25 3.036139 1_555
Cd2 I1 3.036989 1_455
Cd2 I1 3.036993 1_555
Cd2 I1 3.036993 1_445
Cd3 I31 3.041480 1_455
Cd3 I31 3.041480 1_565
Cd3 I31 3.041486 1_555
Cd3 I11 3.043767 1_565
Cd3 I11 3.043770 1_665
Cd3 I11 3.043770 1_555
Cd4 I10 3.036207 1_455
Cd4 I10 3.036207 1_565
Cd4 I10 3.036213 1_555
Cd4 I13 3.038271 1_565
Cd4 I13 3.038274 1_555
Cd4 I13 3.038274 1_665
Cd5 I30 3.035780 1_455
Cd5 I30 3.035780 1_565
Cd5 I30 3.035786 1_555
Cd5 I18 3.036278 1_565
Cd5 I18 3.036281 1_665
Cd5 I18 3.036281 1_555
Cd6 I16 3.036705 1_545
Cd6 I16 3.036708 1_445
Cd6 I16 3.036708 1_555
Cd6 I2 3.037274 1_455
Cd6 I2 3.037277 1_555
Cd6 I2 3.037277 1_445
Cd7 I12 3.038129 1_455
Cd7 I12 3.038129 1_565
Cd7 I12 3.038135 1_555
Cd7 I27 3.038627 1_565
Cd7 I27 3.038631 1_555
Cd7 I27 3.038631 1_665
Cd8 I29 3.037772 1_545
Cd8 I29 3.037776 1_555
Cd8 I29 3.037776 1_445
Cd8 I8 3.038984 1_455
Cd8 I8 3.038987 1_555
Cd8 I8 3.038987 1_445
Cd9 I28 3.037915 1_455
Cd9 I28 3.037918 1_555
Cd9 I28 3.037918 1_445
Cd9 I22 3.038057 1_545
Cd9 I22 3.038061 1_445
Cd9 I22 3.038061 1_555
Cd10 I23 3.036562 1_455
Cd10 I23 3.036566 1_555
Cd10 I23 3.036566 1_445
Cd10 I5 3.036847 1_545
Cd10 I5 3.036850 1_445
Cd10 I5 3.036850 1_555
Cd11 I17 3.036491 1_545
Cd11 I17 3.036494 1_445
Cd11 I17 3.036494 1_555
Cd11 I3 3.037132 1_455
Cd11 I3 3.037135 1_445
Cd11 I3 3.037135 1_555
Cd12 I24 3.038271 1_455
Cd12 I24 3.038271 1_565
Cd12 I24 3.038277 1_555
Cd12 I4 3.039768 1_565
Cd12 I4 3.039771 1_555
Cd12 I4 3.039771 1_665
Cd13 I9 3.035851 1_455
Cd13 I9 3.035851 1_565
Cd13 I9 3.035857 1_555
Cd13 I14 3.036420 1_565
Cd13 I14 3.036423 1_665
Cd13 I14 3.036423 1_555
Cd14 I0 3.036562 1_565
Cd14 I0 3.036566 1_555
Cd14 I0 3.036566 1_665
Cd14 I15 3.037203 1_455
Cd14 I15 3.037203 1_565
Cd14 I15 3.037209 1_555
Cd15 I26 3.035851 1_455
Cd15 I26 3.035854 1_555
Cd15 I26 3.035854 1_445
Cd15 I6 3.036207 1_545
Cd15 I6 3.036210 1_445
Cd15 I6 3.036210 1_555
