# generated using pymatgen
data_Cr2PIO4
_symmetry_space_group_name_H-M   'P 1'
_cell_length_a   6.43080100
_cell_length_b   6.52798448
_cell_length_c   12.79264117
_cell_angle_alpha   104.52749024
_cell_angle_beta   89.99971402
_cell_angle_gamma   90.00041885
_symmetry_Int_Tables_number   1
_chemical_formula_structural   Cr2PIO4
_chemical_formula_sum   'Cr8 P4 I4 O16'
_cell_volume   519.86676137
_cell_formula_units_Z   4
loop_
 _symmetry_equiv_pos_site_id
 _symmetry_equiv_pos_as_xyz
  1  'x, y, z'
loop_
 _atom_site_type_symbol
 _atom_site_label
 _atom_site_symmetry_multiplicity
 _atom_site_fract_x
 _atom_site_fract_y
 _atom_site_fract_z
 _atom_site_occupancy
  Cr  Cr0  1  0.35068600  0.06255500  0.60322500  1
  Cr  Cr1  1  0.85068200  0.43740400  0.89675200  1
  Cr  Cr2  1  0.01231200  0.30437700  0.39285900  1
  Cr  Cr3  1  0.51228900  0.19560600  0.10712500  1
  Cr  Cr4  1  0.14933900  0.56271800  0.10322500  1
  Cr  Cr5  1  0.64926600  0.93730900  0.39676700  1
  Cr  Cr6  1  0.98770400  0.69568600  0.60712300  1
  Cr  Cr7  1  0.48767500  0.80431900  0.89286300  1
  P  P0  1  0.36878900  0.30487100  0.87786600  1
  P  P1  1  0.86878600  0.19513500  0.62214200  1
  P  P2  1  0.13123000  0.80484800  0.37784900  1
  P  P3  1  0.63123100  0.69516000  0.12215000  1
  I  I0  1  0.52999200  0.33958100  0.34019500  1
  I  I1  1  0.47000000  0.66040500  0.65980200  1
  I  I2  1  0.02999100  0.16041500  0.15980800  1
  I  I3  1  0.96999800  0.83959100  0.84020200  1
  O  O0  1  0.17391500  0.70535900  0.26094900  1
  O  O1  1  0.67390500  0.79465600  0.23906200  1
  O  O2  1  0.82609300  0.29465100  0.73904800  1
  O  O3  1  0.32608600  0.20535400  0.76095600  1
  O  O4  1  0.33438700  0.90329800  0.43847400  1
  O  O5  1  0.66563100  0.09667800  0.56152000  1
  O  O6  1  0.83438600  0.59670800  0.06153200  1
  O  O7  1  0.16563500  0.40331200  0.93849400  1
  O  O8  1  0.53097500  0.49006100  0.89147500  1
  O  O9  1  0.96903600  0.99003200  0.39146700  1
  O  O10  1  0.46904100  0.50997400  0.10853900  1
  O  O11  1  0.03097100  0.00994400  0.60853200  1
  O  O12  1  0.96349200  0.36154900  0.56379000  1
  O  O13  1  0.03649400  0.63842400  0.43619200  1
  O  O14  1  0.53649700  0.86156700  0.06380300  1
  O  O15  1  0.46348700  0.13845400  0.93621400  1
loop_
_geom_bond_atom_site_label_1
_geom_bond_atom_site_label_2
_geom_bond_distance
_geom_bond_site_symmetry_2
Cr0 O3 2.005453 1_555
Cr0 O11 2.088416 1_555
Cr0 O4 2.105833 1_545
Cr0 O5 2.120354 1_555
Cr0 I1 2.992936 1_545
Cr1 O2 2.005077 1_555
Cr1 O8 2.088395 1_555
Cr1 O6 2.106231 1_556
Cr1 O7 2.120509 1_655
Cr1 I3 2.992995 1_555
Cr2 O9 2.066469 1_445
Cr2 O13 2.116665 1_555
Cr2 O12 2.147068 1_455
Cr2 I2 2.894625 1_555
Cr2 I0 3.194522 1_455
Cr2 I0 3.415733 1_555
Cr3 O10 2.066529 1_555
Cr3 O14 2.116628 1_545
Cr3 O15 2.146815 1_554
Cr3 I0 2.894868 1_555
Cr3 I2 3.194420 1_555
Cr3 I2 3.415922 1_655
Cr4 O0 2.005143 1_555
Cr4 O10 2.088496 1_555
Cr4 O7 2.105843 1_554
Cr4 O6 2.120223 1_455
Cr4 I2 2.993953 1_555
Cr5 O1 2.004975 1_555
Cr5 O9 2.088884 1_555
Cr5 O5 2.106054 1_565
Cr5 O4 2.119833 1_555
Cr5 I0 2.993588 1_565
Cr6 O11 2.065846 1_665
Cr6 O12 2.117245 1_555
Cr6 O13 2.146992 1_655
Cr6 I3 2.894947 1_555
Cr6 I1 3.194479 1_655
Cr6 I1 3.415983 1_555
Cr7 O8 2.065943 1_555
Cr7 O15 2.117224 1_565
Cr7 O14 2.147144 1_556
Cr7 I1 2.894725 1_555
Cr7 I3 3.194578 1_555
Cr7 I3 3.415767 1_455
O0 P2 1.498762 1_555
O1 P3 1.498895 1_555
O2 P1 1.498872 1_555
O3 P0 1.498931 1_555
O4 P2 1.572038 1_555
O5 P1 1.572026 1_555
O6 P3 1.571998 1_555
O7 P0 1.572022 1_555
O8 P0 1.572897 1_555
O9 P2 1.572903 1_655
O10 P3 1.572893 1_555
O11 P1 1.572907 1_455
O12 P1 1.585914 1_555
O13 P2 1.585967 1_555
O14 P3 1.585915 1_555
O15 P0 1.585887 1_555
