# generated using pymatgen
data_Sr3Mg(SiO4)2
_symmetry_space_group_name_H-M   'P 1'
_cell_length_a   5.52594212
_cell_length_b   5.52594212
_cell_length_c   14.03528168
_cell_angle_alpha   89.22144044
_cell_angle_beta   89.22144044
_cell_angle_gamma   59.82592248
_symmetry_Int_Tables_number   1
_chemical_formula_structural   Sr3Mg(SiO4)2
_chemical_formula_sum   'Sr6 Mg2 Si4 O16'
_cell_volume   370.46448311
_cell_formula_units_Z   2
loop_
 _symmetry_equiv_pos_site_id
 _symmetry_equiv_pos_as_xyz
  1  'x, y, z'
loop_
 _atom_site_type_symbol
 _atom_site_label
 _atom_site_symmetry_multiplicity
 _atom_site_fract_x
 _atom_site_fract_y
 _atom_site_fract_z
 _atom_site_occupancy
  Sr  Sr0  1  0.05858600  0.94141400  0.25000000  1
  Sr  Sr1  1  0.94141400  0.05858600  0.75000000  1
  Sr  Sr2  1  0.31636900  0.34294400  0.58823000  1
  Sr  Sr3  1  0.65705600  0.68363100  0.91177000  1
  Sr  Sr4  1  0.68363100  0.65705600  0.41177000  1
  Sr  Sr5  1  0.34294400  0.31636900  0.08823000  1
  Mg  Mg0  1  0.00000000  0.00000000  0.50000000  1
  Mg  Mg1  1  0.00000000  0.00000000  0.00000000  1
  Si  Si0  1  0.35467100  0.32704800  0.36542400  1
  Si  Si1  1  0.67295200  0.64532900  0.13457600  1
  Si  Si2  1  0.64532900  0.67295200  0.63457600  1
  Si  Si3  1  0.32704800  0.35467100  0.86542400  1
  O  O0  1  0.22004200  0.62964900  0.42365700  1
  O  O1  1  0.37035100  0.77995800  0.07634300  1
  O  O2  1  0.84701700  0.78366700  0.08243100  1
  O  O3  1  0.21633300  0.15298300  0.41756900  1
  O  O4  1  0.26209600  0.40115400  0.25491000  1
  O  O5  1  0.59884600  0.73790400  0.24509000  1
  O  O6  1  0.78366700  0.84701700  0.58243100  1
  O  O7  1  0.15298300  0.21633300  0.91756900  1
  O  O8  1  0.73790400  0.59884600  0.74509000  1
  O  O9  1  0.40115400  0.26209600  0.75491000  1
  O  O10  1  0.31256300  0.84622200  0.61339800  1
  O  O11  1  0.15377800  0.68743700  0.88660200  1
  O  O12  1  0.77995800  0.37035100  0.57634300  1
  O  O13  1  0.62964900  0.22004200  0.92365700  1
  O  O14  1  0.68743700  0.15377800  0.38660200  1
  O  O15  1  0.84622200  0.31256300  0.11339800  1
loop_
_geom_bond_atom_site_label_1
_geom_bond_atom_site_label_2
_geom_bond_distance
_geom_bond_site_symmetry_2
Mg0 O0 2.082682 1_545
Mg0 O12 2.082682 1_455
Mg0 O3 2.105708 1_555
Mg0 O6 2.105708 1_445
Mg0 O10 2.191109 1_545
Mg0 O14 2.191109 1_455
Mg1 O1 2.082682 1_545
Mg1 O13 2.082682 1_454
Mg1 O2 2.105708 1_445
Mg1 O7 2.105708 1_554
Mg1 O15 2.191109 1_455
Mg1 O11 2.191109 1_544
O0 Si0 1.669625 1_555
O0 Sr4 2.644075 1_555
O0 Sr2 2.686057 1_555
O0 Sr0 2.846827 1_555
O0 Sr4 2.898031 1_455
O1 Si1 1.669625 1_555
O1 Sr5 2.644075 1_555
O1 Sr3 2.686057 1_554
O1 Sr0 2.846827 1_555
O1 Sr5 2.898031 1_565
O2 Si1 1.658326 1_555
O2 Sr5 2.659209 1_655
O2 Sr3 2.798653 1_554
O2 Sr5 2.861547 1_565
O2 Sr0 2.968661 1_655
O3 Si0 1.658326 1_555
O3 Sr4 2.659209 1_545
O3 Sr2 2.798653 1_555
O3 Sr4 2.861547 1_455
O3 Sr0 2.968661 1_545
O4 Si0 1.621419 1_555
O4 Sr5 2.383876 1_555
O4 Sr0 2.608410 1_555
O4 Sr0 3.256140 1_545
O5 Si1 1.621419 1_555
O5 Sr4 2.383876 1_555
O5 Sr0 2.608410 1_555
O5 Sr0 3.256140 1_655
O6 Si2 1.658326 1_555
O6 Sr2 2.659209 1_565
O6 Sr4 2.798653 1_555
O6 Sr2 2.861547 1_655
O6 Sr1 2.968661 1_565
O7 Si3 1.658326 1_555
O7 Sr3 2.659209 1_455
O7 Sr5 2.798653 1_556
O7 Sr3 2.861547 1_545
O7 Sr1 2.968661 1_455
O8 Si2 1.621419 1_555
O8 Sr3 2.383876 1_555
O8 Sr1 2.608410 1_555
O8 Sr1 3.256140 1_565
O9 Si3 1.621419 1_555
O9 Sr2 2.383876 1_555
O9 Sr1 2.608410 1_555
O9 Sr1 3.256140 1_455
O10 Si2 1.619777 1_555
O10 Sr1 2.606563 1_465
O10 Sr2 2.773255 1_565
O10 Sr2 2.797741 1_555
O11 Si3 1.619777 1_555
O11 Sr1 2.606563 1_465
O11 Sr3 2.773255 1_455
O11 Sr3 2.797741 1_555
O12 Si2 1.669625 1_555
O12 Sr2 2.644075 1_555
O12 Sr4 2.686057 1_555
O12 Sr1 2.846827 1_555
O12 Sr2 2.898031 1_655
O13 Si3 1.669625 1_555
O13 Sr3 2.644075 1_555
O13 Sr5 2.686057 1_556
O13 Sr1 2.846827 1_555
O13 Sr3 2.898031 1_545
O14 Si0 1.619777 1_555
O14 Sr0 2.606563 1_645
O14 Sr4 2.773255 1_545
O14 Sr4 2.797741 1_555
O15 Si1 1.619777 1_555
O15 Sr0 2.606563 1_645
O15 Sr5 2.773255 1_655
O15 Sr5 2.797741 1_555
