# generated using pymatgen
data_Ce10Ga5Br4
_symmetry_space_group_name_H-M   'P 1'
_cell_length_a   16.84440080
_cell_length_b   16.84440080
_cell_length_c   16.84440080
_cell_angle_alpha   152.72842078
_cell_angle_beta   152.72842078
_cell_angle_gamma   38.95050956
_symmetry_Int_Tables_number   1
_chemical_formula_structural   Ce10Ga5Br4
_chemical_formula_sum   'Ce20 Ga10 Br8'
_cell_volume   1001.70552692
_cell_formula_units_Z   2
loop_
 _symmetry_equiv_pos_site_id
 _symmetry_equiv_pos_as_xyz
  1  'x, y, z'
loop_
 _atom_site_type_symbol
 _atom_site_label
 _atom_site_symmetry_multiplicity
 _atom_site_fract_x
 _atom_site_fract_y
 _atom_site_fract_z
 _atom_site_occupancy
  Ce  Ce0  1  0.96641400  0.12437500  0.50000000  1
  Ce  Ce1  1  0.75797200  0.59456800  0.50000000  1
  Ce  Ce2  1  0.25797200  0.75797200  0.16340400  1
  Ce  Ce3  1  0.62437500  0.46641400  0.50000000  1
  Ce  Ce4  1  0.87562500  0.37562500  0.84203900  1
  Ce  Ce5  1  0.65505600  0.65505600  0.00000000  1
  Ce  Ce6  1  0.46641400  0.96641400  0.84203900  1
  Ce  Ce7  1  0.84494400  0.84494400  0.00000000  1
  Ce  Ce8  1  0.59456800  0.09456800  0.83659600  1
  Ce  Ce9  1  0.53358600  0.03358600  0.15796100  1
  Ce  Ce10  1  0.09456800  0.25797200  0.50000000  1
  Ce  Ce11  1  0.37562500  0.53358600  0.50000000  1
  Ce  Ce12  1  0.03358600  0.87562500  0.50000000  1
  Ce  Ce13  1  0.15505600  0.15505600  0.00000000  1
  Ce  Ce14  1  0.40543200  0.90543200  0.16340400  1
  Ce  Ce15  1  0.12437500  0.62437500  0.15796100  1
  Ce  Ce16  1  0.90543200  0.74202800  0.50000000  1
  Ce  Ce17  1  0.74202800  0.24202800  0.83659600  1
  Ce  Ce18  1  0.34494400  0.34494400  0.00000000  1
  Ce  Ce19  1  0.24202800  0.40543200  0.50000000  1
  Ga  Ga0  1  0.01259100  0.51259100  0.25112300  1
  Ga  Ga1  1  0.76146800  0.01259100  0.50000000  1
  Ga  Ga2  1  0.23853200  0.98740900  0.50000000  1
  Ga  Ga3  1  0.26146800  0.76146800  0.74887700  1
  Ga  Ga4  1  0.73853200  0.23853200  0.25112300  1
  Ga  Ga5  1  0.98740900  0.48740900  0.74887700  1
  Ga  Ga6  1  0.51259100  0.26146800  0.50000000  1
  Ga  Ga7  1  0.75000000  0.75000000  0.00000000  1
  Ga  Ga8  1  0.48740900  0.73853200  0.50000000  1
  Ga  Ga9  1  0.25000000  0.25000000  0.00000000  1
  Br  Br0  1  0.94226500  0.94226500  0.00000000  1
  Br  Br1  1  0.44226500  0.44226500  0.00000000  1
  Br  Br2  1  0.35634900  0.14365100  0.50000000  1
  Br  Br3  1  0.64365100  0.85634900  0.50000000  1
  Br  Br4  1  0.55773500  0.55773500  0.00000000  1
  Br  Br5  1  0.05773500  0.05773500  0.00000000  1
  Br  Br6  1  0.14365100  0.64365100  0.78730100  1
  Br  Br7  1  0.85634900  0.35634900  0.21269900  1
loop_
_geom_bond_atom_site_label_1
_geom_bond_atom_site_label_2
_geom_bond_distance
_geom_bond_site_symmetry_2
Ce0 Ga2 3.143975 1_645
Ce0 Ga5 3.201534 1_555
Ce0 Ga4 3.201534 1_555
Ce0 Ga7 3.278770 1_545
Ce0 Ga9 3.278770 1_656
Ce1 Ga8 3.075933 1_555
Ce1 Ga5 3.093335 1_555
Ce1 Ga4 3.093335 1_555
Ce2 Ga5 3.075933 1_454
Ce2 Ga2 3.093335 1_555
Ce2 Ga8 3.093335 1_555
Ce3 Ga8 3.143975 1_555
Ce3 Ga5 3.201534 1_555
Ce3 Ga4 3.201534 1_555
Ce3 Ga7 3.278770 1_556
Ce3 Ga9 3.278770 1_555
Ce4 Ga0 3.143975 1_656
Ce4 Ga1 3.201534 1_555
Ce4 Ga6 3.201534 1_555
Ce4 Ga7 3.278770 1_556
Ce4 Ga9 3.278770 1_656
Ce5 Ga7 3.015546 1_555
Ce5 Ga1 3.193955 1_565
Ce5 Ga0 3.193955 1_655
Ce5 Ga6 3.193955 1_554
Ce5 Ga3 3.193955 1_554
Ce6 Ga4 3.143975 1_566
Ce6 Ga8 3.201534 1_555
Ce6 Ga2 3.201534 1_555
Ce6 Ga7 3.278770 1_556
Ce6 Ga9 3.278770 1_566
Ce7 Ga7 3.015546 1_555
Ce7 Ga8 3.193955 1_554
Ce7 Ga4 3.193955 1_565
Ce7 Ga2 3.193955 1_655
Ce7 Ga5 3.193955 1_554
Ce8 Ga4 3.075933 1_556
Ce8 Ga8 3.093335 1_545
Ce8 Ga2 3.093335 1_545
Ce9 Ga3 3.143975 1_544
Ce9 Ga1 3.201534 1_555
Ce9 Ga6 3.201534 1_555
Ce9 Ga9 3.278770 1_555
Ce9 Ga7 3.278770 1_545
Ce10 Ga2 3.075933 1_545
Ce10 Ga4 3.093335 1_455
Ce10 Ga5 3.093335 1_455
Ce11 Ga6 3.143975 1_555
Ce11 Ga0 3.201534 1_555
Ce11 Ga3 3.201534 1_555
Ce11 Ga7 3.278770 1_556
Ce11 Ga9 3.278770 1_555
Ce12 Ga1 3.143975 1_465
Ce12 Ga0 3.201534 1_555
Ce12 Ga3 3.201534 1_555
Ce12 Ga7 3.278770 1_455
Ce12 Ga9 3.278770 1_566
Ce13 Ga9 3.015546 1_555
Ce13 Ga3 3.193955 1_544
Ce13 Ga6 3.193955 1_555
Ce13 Ga1 3.193955 1_454
Ce13 Ga0 3.193955 1_555
Ce14 Ga3 3.075933 1_554
Ce14 Ga1 3.093335 1_565
Ce14 Ga6 3.093335 1_565
Ce15 Ga5 3.143975 1_454
Ce15 Ga8 3.201534 1_555
Ce15 Ga2 3.201534 1_555
Ce15 Ga9 3.278770 1_555
Ce15 Ga7 3.278770 1_455
Ce16 Ga1 3.075933 1_565
Ce16 Ga0 3.093335 1_655
Ce16 Ga3 3.093335 1_655
Ce17 Ga0 3.075933 1_656
Ce17 Ga6 3.093335 1_555
Ce17 Ga1 3.093335 1_555
Ce18 Ga9 3.015546 1_555
Ce18 Ga8 3.193955 1_555
Ce18 Ga2 3.193955 1_544
Ce18 Ga5 3.193955 1_454
Ce18 Ga4 3.193955 1_555
Ce19 Ga6 3.075933 1_555
Ce19 Ga3 3.093335 1_555
Ce19 Ga0 3.093335 1_555
Ga0 Ga3 2.795346 1_555
Ga1 Ga6 2.795346 1_555
Ga2 Ga8 2.795346 1_555
Ga4 Ga5 2.795346 1_555
Br0 Ce1 2.997470 1_554
Br0 Ce10 2.997470 1_665
Br0 Ce8 2.997470 1_564
Br0 Ce2 2.997470 1_655
Br0 Ce7 3.091043 1_555
Br1 Ce1 2.997470 1_555
Br1 Ce10 2.997470 1_554
Br1 Ce2 2.997470 1_555
Br1 Ce8 2.997470 1_554
Br1 Ce18 3.091043 1_555
Br2 Ce19 3.153579 1_555
Br2 Ce10 3.153579 1_555
Br2 Ce17 3.414723 1_555
Br2 Ce2 3.414723 1_545
Br2 Ce14 3.414723 1_545
Br2 Ce8 3.414723 1_555
Br3 Ce16 3.153579 1_555
Br3 Ce1 3.153579 1_555
Br3 Ce17 3.414723 1_565
Br3 Ce2 3.414723 1_555
Br3 Ce8 3.414723 1_565
Br3 Ce14 3.414723 1_555
Br4 Ce16 2.997470 1_555
Br4 Ce14 2.997470 1_555
Br4 Ce19 2.997470 1_554
Br4 Ce17 2.997470 1_554
Br4 Ce5 3.091043 1_555
Br5 Ce17 2.997470 1_454
Br5 Ce14 2.997470 1_545
Br5 Ce16 2.997470 1_444
Br5 Ce19 2.997470 1_555
Br5 Ce13 3.091043 1_555
Br6 Ce14 3.153571 1_556
Br6 Ce2 3.153595 1_556
Br6 Ce19 3.414710 1_555
Br6 Ce16 3.414710 1_455
Br6 Ce1 3.414731 1_455
Br6 Ce10 3.414731 1_555
Br7 Ce8 3.153571 1_554
Br7 Ce17 3.153595 1_554
Br7 Ce1 3.414710 1_555
Br7 Ce10 3.414710 1_655
Br7 Ce19 3.414731 1_655
Br7 Ce16 3.414731 1_555
