# generated using pymatgen
data_V4(P2O7)3
_symmetry_space_group_name_H-M   'P 1'
_cell_length_a   7.63084000
_cell_length_b   9.73022600
_cell_length_c   21.78863000
_cell_angle_alpha   90.00000000
_cell_angle_beta   90.00000000
_cell_angle_gamma   90.00000000
_symmetry_Int_Tables_number   1
_chemical_formula_structural   V4(P2O7)3
_chemical_formula_sum   'V16 P24 O84'
_cell_volume   1617.80137118
_cell_formula_units_Z   4
loop_
 _symmetry_equiv_pos_site_id
 _symmetry_equiv_pos_as_xyz
  1  'x, y, z'
loop_
 _atom_site_type_symbol
 _atom_site_label
 _atom_site_symmetry_multiplicity
 _atom_site_fract_x
 _atom_site_fract_y
 _atom_site_fract_z
 _atom_site_occupancy
  V  V0  1  0.55362100  0.76062200  0.49636000  1
  V  V1  1  0.44637900  0.23937800  0.50364000  1
  V  V2  1  0.55333100  0.22067400  0.75645200  1
  V  V3  1  0.94637900  0.76062200  0.49636000  1
  V  V4  1  0.05333100  0.72067400  0.74354800  1
  V  V5  1  0.05362100  0.26062200  0.00364000  1
  V  V6  1  0.44666900  0.77932600  0.24354800  1
  V  V7  1  0.44637900  0.26062200  0.00364000  1
  V  V8  1  0.55333100  0.27932600  0.25645200  1
  V  V9  1  0.05362100  0.23937800  0.50364000  1
  V  V10  1  0.55362100  0.73937800  0.99636000  1
  V  V11  1  0.05333100  0.77932600  0.24354800  1
  V  V12  1  0.94637900  0.73937800  0.99636000  1
  V  V13  1  0.44666900  0.72067400  0.74354800  1
  V  V14  1  0.94666900  0.27932600  0.25645200  1
  V  V15  1  0.94666900  0.22067400  0.75645200  1
  P  P0  1  0.75000000  0.46766800  0.54777300  1
  P  P1  1  0.25000000  0.44657200  0.80066600  1
  P  P2  1  0.25000000  0.53233200  0.45222700  1
  P  P3  1  0.25000000  0.97111200  0.43873800  1
  P  P4  1  0.75000000  0.49847500  0.68918200  1
  P  P5  1  0.25000000  0.50152500  0.31081800  1
  P  P6  1  0.75000000  0.00152500  0.18918200  1
  P  P7  1  0.75000000  0.55342800  0.19933400  1
  P  P8  1  0.75000000  0.94657200  0.69933400  1
  P  P9  1  0.25000000  0.66727600  0.10934500  1
  P  P10  1  0.25000000  0.34272300  0.14175300  1
  P  P11  1  0.75000000  0.16727600  0.39065500  1
  P  P12  1  0.25000000  0.99847500  0.81081800  1
  P  P13  1  0.75000000  0.84272300  0.35824700  1
  P  P14  1  0.75000000  0.33272400  0.89065500  1
  P  P15  1  0.75000000  0.47111200  0.06126200  1
  P  P16  1  0.25000000  0.05342800  0.30066600  1
  P  P17  1  0.25000000  0.15727700  0.64175300  1
  P  P18  1  0.75000000  0.03233200  0.04777300  1
  P  P19  1  0.75000000  0.65727700  0.85824700  1
  P  P20  1  0.25000000  0.52888800  0.93873800  1
  P  P21  1  0.25000000  0.96766800  0.95222700  1
  P  P22  1  0.75000000  0.02888800  0.56126200  1
  P  P23  1  0.25000000  0.83272400  0.60934500  1
  O  O0  1  0.41826900  0.60701200  0.94704000  1
  O  O1  1  0.91876700  0.19720700  0.42601300  1
  O  O2  1  0.58117400  0.92261900  0.19960700  1
  O  O3  1  0.41882600  0.42261900  0.30039300  1
  O  O4  1  0.58117400  0.57738100  0.69960700  1
  O  O5  1  0.41876700  0.69720700  0.07398700  1
  O  O6  1  0.58123300  0.19720700  0.42601300  1
  O  O7  1  0.75000000  0.04731500  0.11960700  1
  O  O8  1  0.25000000  0.26729600  0.07781100  1
  O  O9  1  0.91746000  0.39808100  0.52729800  1
  O  O10  1  0.75000000  0.60553800  0.02275900  1
  O  O11  1  0.25000000  0.58947600  0.76885100  1
  O  O12  1  0.75000000  0.35643300  0.72180300  1
  O  O13  1  0.41746000  0.89808100  0.97270200  1
  O  O14  1  0.91752000  0.69084700  0.82307100  1
  O  O15  1  0.41746000  0.60191900  0.47270200  1
  O  O16  1  0.08117400  0.07738100  0.80039300  1
  O  O17  1  0.75000000  0.45268500  0.61960700  1
  O  O18  1  0.08254000  0.89808100  0.97270200  1
  O  O19  1  0.41917600  0.37413400  0.78621000  1
  O  O20  1  0.91746000  0.10191900  0.02729800  1
  O  O21  1  0.41752000  0.30915300  0.17692900  1
  O  O22  1  0.08082400  0.12586600  0.28621000  1
  O  O23  1  0.75000000  0.41052400  0.23114900  1
  O  O24  1  0.08254000  0.60191900  0.47270200  1
  O  O25  1  0.25000000  0.54731500  0.38039300  1
  O  O26  1  0.25000000  0.75025700  0.67087000  1
  O  O27  1  0.58082400  0.62586600  0.21379000  1
  O  O28  1  0.58123300  0.30279300  0.92601300  1
  O  O29  1  0.25000000  0.02812200  0.37109600  1
  O  O30  1  0.25000000  0.47187800  0.87109600  1
  O  O31  1  0.41917600  0.12586600  0.28621000  1
  O  O32  1  0.75000000  0.00629000  0.37254400  1
  O  O33  1  0.25000000  0.95268500  0.88039300  1
  O  O34  1  0.75000000  0.87688900  0.03134900  1
  O  O35  1  0.75000000  0.52812200  0.12890400  1
  O  O36  1  0.58248000  0.69084700  0.82307100  1
  O  O37  1  0.91826900  0.39298800  0.05296000  1
  O  O38  1  0.75000000  0.62311100  0.53134900  1
  O  O39  1  0.75000000  0.73270400  0.92218900  1
  O  O40  1  0.75000000  0.97187800  0.62890400  1
  O  O41  1  0.91882600  0.57738100  0.69960700  1
  O  O42  1  0.08082400  0.37413400  0.78621000  1
  O  O43  1  0.08117400  0.42261900  0.30039300  1
  O  O44  1  0.91876700  0.30279300  0.92601300  1
  O  O45  1  0.91826900  0.10701200  0.55296000  1
  O  O46  1  0.58254000  0.39808100  0.52729800  1
  O  O47  1  0.25000000  0.99371000  0.62745600  1
  O  O48  1  0.41882600  0.07738100  0.80039300  1
  O  O49  1  0.41826900  0.89298800  0.44704000  1
  O  O50  1  0.75000000  0.24974300  0.32913000  1
  O  O51  1  0.25000000  0.85643300  0.77819700  1
  O  O52  1  0.58082400  0.87413400  0.71379000  1
  O  O53  1  0.25000000  0.50629000  0.12745600  1
  O  O54  1  0.25000000  0.64356700  0.27819700  1
  O  O55  1  0.25000000  0.12311100  0.96865100  1
  O  O56  1  0.91917600  0.87413400  0.71379000  1
  O  O57  1  0.75000000  0.25025700  0.82913000  1
  O  O58  1  0.58248000  0.80915300  0.32307100  1
  O  O59  1  0.25000000  0.10553800  0.47724100  1
  O  O60  1  0.75000000  0.14356700  0.22180300  1
  O  O61  1  0.08123300  0.80279300  0.57398700  1
  O  O62  1  0.08173100  0.89298800  0.44704000  1
  O  O63  1  0.08248000  0.19084700  0.67692900  1
  O  O64  1  0.08248000  0.30915300  0.17692900  1
  O  O65  1  0.25000000  0.74974300  0.17087000  1
  O  O66  1  0.08173100  0.60701200  0.94704000  1
  O  O67  1  0.58254000  0.10191900  0.02729800  1
  O  O68  1  0.25000000  0.91052400  0.26885100  1
  O  O69  1  0.75000000  0.49371000  0.87254400  1
  O  O70  1  0.58173100  0.10701200  0.55296000  1
  O  O71  1  0.75000000  0.08947600  0.73114900  1
  O  O72  1  0.25000000  0.39446200  0.97724100  1
  O  O73  1  0.91917600  0.62586600  0.21379000  1
  O  O74  1  0.25000000  0.23270400  0.57781100  1
  O  O75  1  0.58173100  0.39298800  0.05296000  1
  O  O76  1  0.91752000  0.80915300  0.32307100  1
  O  O77  1  0.75000000  0.89446200  0.52275900  1
  O  O78  1  0.75000000  0.76729600  0.42218900  1
  O  O79  1  0.41752000  0.19084700  0.67692900  1
  O  O80  1  0.41876700  0.80279300  0.57398700  1
  O  O81  1  0.08123300  0.69720700  0.07398700  1
  O  O82  1  0.25000000  0.37688900  0.46865100  1
  O  O83  1  0.91882600  0.92261900  0.19960700  1
loop_
_geom_bond_atom_site_label_1
_geom_bond_atom_site_label_2
_geom_bond_distance
_geom_bond_site_symmetry_2
O0 P20 1.503101 1_555
O0 V10 1.969872 1_555
O1 P11 1.528677 1_555
O1 V9 2.021906 1_655
O2 P6 1.516821 1_565
O2 V6 1.978411 1_555
O3 P5 1.516821 1_555
O3 V8 1.978411 1_555
O4 P4 1.516821 1_555
O4 V13 1.978411 1_555
O5 P9 1.528677 1_555
O5 V10 2.021906 1_554
O6 P11 1.528677 1_555
O6 V1 2.021906 1_555
O7 P18 1.571940 1_555
O7 P6 1.580063 1_555
O8 P10 1.574697 1_555
O8 V5 2.204894 1_555
O8 V7 2.204894 1_555
O9 P0 1.513411 1_555
O9 V9 1.931291 1_655
O10 P15 1.553915 1_555
O10 V12 2.066987 1_554
O10 V10 2.066987 1_554
O11 P1 1.553702 1_555
O11 V4 2.045941 1_555
O11 V13 2.045941 1_555
O12 P4 1.554153 1_555
O12 V15 2.137091 1_555
O12 V2 2.137091 1_555
O13 P21 1.513411 1_555
O13 V10 1.931291 1_555
O14 P19 1.525850 1_555
O14 V4 2.039729 1_655
O15 P2 1.513411 1_555
O15 V0 1.931291 1_555
O16 P12 1.516821 1_545
O16 V15 1.978411 1_455
O17 P0 1.571940 1_555
O17 P4 1.580063 1_555
O18 P21 1.513411 1_555
O18 V12 1.931291 1_455
O19 P1 1.504185 1_555
O19 V2 1.923030 1_555
O20 P18 1.513411 1_555
O20 V5 1.931291 1_655
O21 P10 1.525850 1_555
O21 V8 2.039729 1_555
O22 P16 1.504185 1_555
O22 V14 1.923030 1_455
O23 P7 1.553702 1_555
O23 V8 2.045941 1_555
O23 V14 2.045941 1_555
O24 P2 1.513411 1_555
O24 V3 1.931291 1_455
O25 P2 1.571940 1_555
O25 P5 1.580063 1_555
O26 P23 1.562352 1_555
O26 V13 2.200625 1_555
O26 V4 2.200625 1_555
O27 P7 1.504185 1_555
O27 V6 1.923030 1_555
O28 P14 1.528677 1_555
O28 V7 2.021906 1_556
O29 P16 1.554203 1_555
O29 P3 1.574763 1_545
O30 P1 1.554203 1_555
O30 P20 1.574763 1_555
O31 P16 1.504185 1_555
O31 V8 1.923030 1_555
O32 P11 1.615371 1_555
O32 P13 1.621743 1_545
O33 P21 1.571940 1_555
O33 P12 1.580063 1_555
O34 P18 1.554254 1_565
O34 V12 2.148741 1_554
O34 V10 2.148741 1_554
O35 P7 1.554203 1_555
O35 P15 1.574763 1_555
O36 P19 1.525850 1_555
O36 V13 2.039729 1_555
O37 P15 1.503101 1_555
O37 V5 1.969872 1_655
O38 P0 1.554254 1_555
O38 V0 2.148741 1_555
O38 V3 2.148741 1_555
O39 P19 1.574697 1_555
O39 V12 2.204894 1_555
O39 V10 2.204894 1_555
O40 P8 1.554203 1_555
O40 P22 1.574763 1_565
O41 P4 1.516821 1_555
O41 V4 1.978411 1_655
O42 P1 1.504185 1_555
O42 V15 1.923030 1_455
O43 P5 1.516821 1_555
O43 V14 1.978411 1_455
O44 P14 1.528677 1_555
O44 V5 2.021906 1_656
O45 P22 1.503101 1_555
O45 V9 1.969872 1_655
O46 P0 1.513411 1_555
O46 V1 1.931291 1_555
O47 P23 1.615371 1_555
O47 P17 1.621743 1_565
O48 P12 1.516821 1_545
O48 V2 1.978411 1_555
O49 P3 1.503101 1_555
O49 V0 1.969872 1_555
O50 P11 1.562352 1_555
O50 V8 2.200625 1_555
O50 V14 2.200625 1_555
O51 P12 1.554153 1_555
O51 V4 2.137091 1_555
O51 V13 2.137091 1_555
O52 P8 1.504185 1_555
O52 V13 1.923030 1_555
O53 P9 1.615371 1_555
O53 P10 1.621743 1_555
O54 P5 1.554153 1_555
O54 V6 2.137091 1_555
O54 V11 2.137091 1_555
O55 P21 1.554254 1_545
O55 V5 2.148741 1_556
O55 V7 2.148741 1_556
O56 P8 1.504185 1_555
O56 V4 1.923030 1_655
O57 P14 1.562352 1_555
O57 V2 2.200625 1_555
O57 V15 2.200625 1_555
O58 P13 1.525850 1_555
O58 V6 2.039729 1_555
O59 P3 1.553915 1_545
O59 V9 2.066987 1_555
O59 V1 2.066987 1_555
O60 P6 1.554153 1_555
O60 V14 2.137091 1_555
O60 V8 2.137091 1_555
O61 P23 1.528677 1_555
O61 V3 2.021906 1_455
O62 P3 1.503101 1_555
O62 V3 1.969872 1_455
O63 P17 1.525850 1_555
O63 V15 2.039729 1_455
O64 P10 1.525850 1_555
O64 V14 2.039729 1_455
O65 P9 1.562352 1_555
O65 V6 2.200625 1_555
O65 V11 2.200625 1_555
O66 P20 1.503101 1_555
O66 V12 1.969872 1_455
O67 P18 1.513411 1_555
O67 V7 1.931291 1_555
O68 P16 1.553702 1_565
O68 V6 2.045941 1_555
O68 V11 2.045941 1_555
O69 P14 1.615371 1_555
O69 P19 1.621743 1_555
O70 P22 1.503101 1_555
O70 V1 1.969872 1_555
O71 P8 1.553702 1_545
O71 V2 2.045941 1_555
O71 V15 2.045941 1_555
O72 P20 1.553915 1_555
O72 V5 2.066987 1_556
O72 V7 2.066987 1_556
O73 P7 1.504185 1_555
O73 V11 1.923030 1_655
O74 P17 1.574697 1_555
O74 V9 2.204894 1_555
O74 V1 2.204894 1_555
O75 P15 1.503101 1_555
O75 V7 1.969872 1_555
O76 P13 1.525850 1_555
O76 V11 2.039729 1_655
O77 P22 1.553915 1_565
O77 V0 2.066987 1_555
O77 V3 2.066987 1_555
O78 P13 1.574697 1_555
O78 V3 2.204894 1_555
O78 V0 2.204894 1_555
O79 P17 1.525850 1_555
O79 V2 2.039729 1_555
O80 P23 1.528677 1_555
O80 V0 2.021906 1_555
O81 P9 1.528677 1_555
O81 V12 2.021906 1_454
O82 P2 1.554254 1_555
O82 V9 2.148741 1_555
O82 V1 2.148741 1_555
O83 P6 1.516821 1_565
O83 V11 1.978411 1_655
