# generated using pymatgen
data_ErBi2IO4
_symmetry_space_group_name_H-M   'P 1'
_cell_length_a   3.93356900
_cell_length_b   3.93356900
_cell_length_c   9.70909000
_cell_angle_alpha   90.00000000
_cell_angle_beta   90.00000000
_cell_angle_gamma   90.00000000
_symmetry_Int_Tables_number   1
_chemical_formula_structural   ErBi2IO4
_chemical_formula_sum   'Er1 Bi2 I1 O4'
_cell_volume   150.22841051
_cell_formula_units_Z   1
loop_
 _symmetry_equiv_pos_site_id
 _symmetry_equiv_pos_as_xyz
  1  'x, y, z'
loop_
 _atom_site_type_symbol
 _atom_site_label
 _atom_site_symmetry_multiplicity
 _atom_site_fract_x
 _atom_site_fract_y
 _atom_site_fract_z
 _atom_site_occupancy
  Er  Er0  1  0.00000000  0.00000000  0.00000000  1
  Bi  Bi0  1  0.50000000  0.50000000  0.74468100  1
  Bi  Bi1  1  0.50000000  0.50000000  0.25531900  1
  I  I0  1  0.00000000  0.00000000  0.50000000  1
  O  O0  1  0.00000000  0.50000000  0.14021400  1
  O  O1  1  0.00000000  0.50000000  0.85978600  1
  O  O2  1  0.50000000  0.00000000  0.85978600  1
  O  O3  1  0.50000000  0.00000000  0.14021400  1
loop_
_geom_bond_atom_site_label_1
_geom_bond_atom_site_label_2
_geom_bond_distance
_geom_bond_site_symmetry_2
Er0 O0 2.391969 1_545
Er0 O3 2.391969 1_455
Er0 O3 2.391969 1_555
Er0 O0 2.391969 1_555
Er0 O1 2.391969 1_554
Er0 O2 2.391969 1_454
Er0 O1 2.391969 1_544
Er0 O2 2.391969 1_554
Bi0 O2 2.262121 1_555
Bi0 O2 2.262121 1_565
Bi0 O1 2.262121 1_555
Bi0 O1 2.262121 1_655
Bi1 O3 2.262121 1_565
Bi1 O0 2.262121 1_655
Bi1 O3 2.262121 1_555
Bi1 O0 2.262121 1_555
