# generated using pymatgen
data_AsC2N(OF3)2
_symmetry_space_group_name_H-M   'P 1'
_cell_length_a   5.41794900
_cell_length_b   8.82367700
_cell_length_c   15.39582239
_cell_angle_alpha   79.61042271
_cell_angle_beta   90.00000000
_cell_angle_gamma   90.00000000
_symmetry_Int_Tables_number   1
_chemical_formula_structural   AsC2N(OF3)2
_chemical_formula_sum   'As4 C8 N4 O8 F24'
_cell_volume   723.94874992
_cell_formula_units_Z   4
loop_
 _symmetry_equiv_pos_site_id
 _symmetry_equiv_pos_as_xyz
  1  'x, y, z'
loop_
 _atom_site_type_symbol
 _atom_site_label
 _atom_site_symmetry_multiplicity
 _atom_site_fract_x
 _atom_site_fract_y
 _atom_site_fract_z
 _atom_site_occupancy
  As  As0  1  0.76073100  0.79300300  0.90151800  1
  As  As1  1  0.73926900  0.79300300  0.40151800  1
  As  As2  1  0.23926900  0.20699700  0.09848200  1
  As  As3  1  0.26073100  0.20699700  0.59848200  1
  C  C0  1  0.35113400  0.86278100  0.64153400  1
  C  C1  1  0.85113400  0.13721900  0.85846600  1
  C  C2  1  0.64886600  0.13721900  0.35846600  1
  C  C3  1  0.14886600  0.86278100  0.14153400  1
  C  C4  1  0.41245300  0.64955000  0.16665200  1
  C  C5  1  0.91245300  0.35045000  0.33334800  1
  C  C6  1  0.58754700  0.35045000  0.83334800  1
  C  C7  1  0.08754700  0.64955000  0.66665200  1
  N  N0  1  0.20814400  0.71315100  0.15917900  1
  N  N1  1  0.70814400  0.28684900  0.34082100  1
  N  N2  1  0.29185600  0.71315100  0.65917900  1
  N  N3  1  0.79185600  0.28684900  0.84082100  1
  O  O0  1  0.58936000  0.57412600  0.17679100  1
  O  O1  1  0.70171900  0.02903000  0.87569100  1
  O  O2  1  0.91064000  0.57412600  0.67679100  1
  O  O3  1  0.79828100  0.02903000  0.37569100  1
  O  O4  1  0.20171900  0.97097000  0.62430900  1
  O  O5  1  0.41064000  0.42587400  0.82320900  1
  O  O6  1  0.08936000  0.42587400  0.32320900  1
  O  O7  1  0.29828100  0.97097000  0.12430900  1
  F  F0  1  0.42825300  0.20186100  0.00665500  1
  F  F1  1  0.94461000  0.82067200  0.80567000  1
  F  F2  1  0.50254000  0.20933800  0.16416400  1
  F  F3  1  0.99746000  0.20933800  0.66416400  1
  F  F4  1  0.59088700  0.88738500  0.64412700  1
  F  F5  1  0.44461000  0.17932800  0.69433000  1
  F  F6  1  0.20403100  0.40601300  0.07764900  1
  F  F7  1  0.07174700  0.20186100  0.50665500  1
  F  F8  1  0.55539000  0.82067200  0.30567000  1
  F  F9  1  0.40911300  0.11261500  0.35587300  1
  F  F10  1  0.29596900  0.40601300  0.57764900  1
  F  F11  1  0.57174700  0.79813900  0.99334500  1
  F  F12  1  0.01877900  0.82668500  0.96414500  1
  F  F13  1  0.51877900  0.17331500  0.53585500  1
  F  F14  1  0.05539000  0.17932800  0.19433000  1
  F  F15  1  0.49746000  0.79066200  0.83583600  1
  F  F16  1  0.70403100  0.59398700  0.42235100  1
  F  F17  1  0.48122100  0.82668500  0.46414500  1
  F  F18  1  0.98122100  0.17331500  0.03585500  1
  F  F19  1  0.00254000  0.79066200  0.33583600  1
  F  F20  1  0.79596900  0.59398700  0.92235100  1
  F  F21  1  0.92825300  0.79813900  0.49334500  1
  F  F22  1  0.90911300  0.88738500  0.14412700  1
  F  F23  1  0.09088700  0.11261500  0.85587300  1
loop_
_geom_bond_atom_site_label_1
_geom_bond_atom_site_label_2
_geom_bond_distance
_geom_bond_site_symmetry_2
As0 F20 1.737785 1_555
As0 F15 1.750751 1_555
As0 F11 1.752781 1_555
As0 F12 1.753856 1_655
As0 F1 1.760608 1_555
As0 O1 2.073398 1_565
As1 F16 1.737785 1_555
As1 F19 1.750751 1_655
As1 F21 1.752781 1_555
As1 F17 1.753856 1_555
As1 F8 1.760608 1_555
As1 O3 2.073398 1_565
As2 F6 1.737785 1_555
As2 F2 1.750751 1_555
As2 F0 1.752781 1_555
As2 F18 1.753856 1_455
As2 F14 1.760608 1_555
As2 O7 2.073398 1_545
As3 F10 1.737785 1_555
As3 F3 1.750751 1_455
As3 F7 1.752781 1_555
As3 F13 1.753856 1_555
As3 F5 1.760608 1_555
As3 O4 2.073398 1_545
C0 O4 1.243243 1_555
C0 F4 1.318777 1_555
C0 N2 1.338185 1_555
C1 O1 1.243243 1_555
C1 F23 1.318777 1_655
C1 N3 1.338185 1_555
C2 O3 1.243243 1_555
C2 F9 1.318777 1_555
C2 N1 1.338185 1_555
C3 O7 1.243243 1_555
C3 F22 1.318777 1_455
C3 N0 1.338185 1_555
C4 O0 1.161241 1_555
C4 N0 1.237011 1_555
C5 O6 1.161241 1_655
C5 N1 1.237011 1_555
C6 O5 1.161241 1_555
C6 N3 1.237011 1_555
C7 O2 1.161241 1_455
C7 N2 1.237011 1_555
