# generated using pymatgen
data_Zr2Al3C5
_symmetry_space_group_name_H-M   'P 1'
_cell_length_a   3.25582015
_cell_length_b   3.25582015
_cell_length_c   24.66225200
_cell_angle_alpha   90.00000000
_cell_angle_beta   90.00000000
_cell_angle_gamma   120.00000299
_symmetry_Int_Tables_number   1
_chemical_formula_structural   Zr2Al3C5
_chemical_formula_sum   'Zr4 Al6 C10'
_cell_volume   226.40403479
_cell_formula_units_Z   2
loop_
 _symmetry_equiv_pos_site_id
 _symmetry_equiv_pos_as_xyz
  1  'x, y, z'
loop_
 _atom_site_type_symbol
 _atom_site_label
 _atom_site_symmetry_multiplicity
 _atom_site_fract_x
 _atom_site_fract_y
 _atom_site_fract_z
 _atom_site_occupancy
  Zr  Zr0  1  0.66666700  0.33333300  0.05604100  1
  Zr  Zr1  1  0.33333300  0.66666700  0.55604100  1
  Zr  Zr2  1  0.66666700  0.33333300  0.44395900  1
  Zr  Zr3  1  0.33333300  0.66666700  0.94395900  1
  Al  Al0  1  0.00000000  0.00000000  0.65252800  1
  Al  Al1  1  0.00000000  0.00000000  0.84747200  1
  Al  Al2  1  0.33333300  0.66666700  0.25000000  1
  Al  Al3  1  0.66666700  0.33333300  0.75000000  1
  Al  Al4  1  0.00000000  0.00000000  0.34747200  1
  Al  Al5  1  0.00000000  0.00000000  0.15252800  1
  C  C0  1  0.66666700  0.33333300  0.21776300  1
  C  C1  1  0.66666700  0.33333300  0.28223700  1
  C  C2  1  0.33333300  0.66666700  0.71776300  1
  C  C3  1  0.33333300  0.66666700  0.11417800  1
  C  C4  1  0.33333300  0.66666700  0.78223700  1
  C  C5  1  0.00000000  0.00000000  0.50000000  1
  C  C6  1  0.00000000  0.00000000  0.00000000  1
  C  C7  1  0.33333300  0.66666700  0.38582200  1
  C  C8  1  0.66666700  0.33333300  0.61417800  1
  C  C9  1  0.66666700  0.33333300  0.88582200  1
loop_
_geom_bond_atom_site_label_1
_geom_bond_atom_site_label_2
_geom_bond_distance
_geom_bond_site_symmetry_2
Al0 C8 2.104277 1_455
Al0 C8 2.104279 1_445
Al0 C8 2.104279 1_555
Al0 C2 2.474231 1_545
Al0 C2 2.474233 1_445
Al0 C2 2.474233 1_555
Al1 C9 2.104277 1_455
Al1 C9 2.104279 1_445
Al1 C9 2.104279 1_555
Al1 C4 2.474231 1_545
Al1 C4 2.474233 1_445
Al1 C4 2.474233 1_555
Al2 C1 2.040963 1_565
Al2 C1 2.040963 1_455
Al2 C0 2.040963 1_455
Al2 C0 2.040963 1_565
Al2 C1 2.040969 1_555
Al2 C0 2.040969 1_555
Al3 C4 2.040963 1_545
Al3 C4 2.040963 1_655
Al3 C2 2.040963 1_545
Al3 C2 2.040963 1_655
Al3 C4 2.040969 1_555
Al3 C2 2.040969 1_555
Al4 C7 2.104277 1_545
Al4 C7 2.104279 1_445
Al4 C7 2.104279 1_555
Al4 C1 2.474231 1_455
Al4 C1 2.474233 1_555
Al4 C1 2.474233 1_445
Al5 C3 2.104277 1_545
Al5 C3 2.104279 1_555
Al5 C3 2.104279 1_445
Al5 C0 2.474231 1_455
Al5 C0 2.474233 1_555
Al5 C0 2.474233 1_445
C0 C1 1.590074 1_555
C2 C4 1.590074 1_555
C3 Zr0 2.364149 1_455
C3 Zr0 2.364149 1_565
C3 Zr0 2.364153 1_555
C5 Zr2 2.333161 1_455
C5 Zr1 2.333161 1_545
C5 Zr1 2.333163 1_445
C5 Zr2 2.333163 1_555
C5 Zr2 2.333163 1_445
C5 Zr1 2.333163 1_555
C6 Zr3 2.333161 1_544
C6 Zr0 2.333161 1_455
C6 Zr3 2.333163 1_444
C6 Zr0 2.333163 1_445
C6 Zr3 2.333163 1_554
C6 Zr0 2.333163 1_555
C7 Zr2 2.364149 1_455
C7 Zr2 2.364149 1_565
C7 Zr2 2.364153 1_555
C8 Zr1 2.364149 1_545
C8 Zr1 2.364149 1_655
C8 Zr1 2.364153 1_555
C9 Zr3 2.364149 1_545
C9 Zr3 2.364149 1_655
C9 Zr3 2.364153 1_555
