# generated using pymatgen
data_CuHgSBr
_symmetry_space_group_name_H-M   'P 1'
_cell_length_a   4.06727166
_cell_length_b   10.04312014
_cell_length_c   18.91164573
_cell_angle_alpha   90.00000000
_cell_angle_beta   90.00000000
_cell_angle_gamma   90.00000000
_symmetry_Int_Tables_number   1
_chemical_formula_structural   CuHgSBr
_chemical_formula_sum   'Cu8 Hg8 S8 Br8'
_cell_volume   772.50475667
_cell_formula_units_Z   8
loop_
 _symmetry_equiv_pos_site_id
 _symmetry_equiv_pos_as_xyz
  1  'x, y, z'
loop_
 _atom_site_type_symbol
 _atom_site_label
 _atom_site_symmetry_multiplicity
 _atom_site_fract_x
 _atom_site_fract_y
 _atom_site_fract_z
 _atom_site_occupancy
  Cu  Cu0  1  0.50000000  0.57620742  0.64561135  1
  Cu  Cu1  1  0.50000000  0.07620742  0.85438865  1
  Cu  Cu2  1  0.50000000  0.42379258  0.35438865  1
  Cu  Cu3  1  0.50000000  0.41847169  0.85700630  1
  Cu  Cu4  1  0.50000000  0.92379258  0.14561135  1
  Cu  Cu5  1  0.50000000  0.08152831  0.35700630  1
  Cu  Cu6  1  0.50000000  0.58152831  0.14299370  1
  Cu  Cu7  1  0.50000000  0.91847169  0.64299370  1
  Hg  Hg0  1  0.00000000  0.75121513  0.36061385  1
  Hg  Hg1  1  0.00000000  0.25121513  0.13938615  1
  Hg  Hg2  1  0.00000000  0.74878487  0.86061385  1
  Hg  Hg3  1  0.00000000  0.50000000  0.00000000  1
  Hg  Hg4  1  0.00000000  0.24878487  0.63938615  1
  Hg  Hg5  1  0.00000000  0.00000000  0.50000000  1
  Hg  Hg6  1  0.00000000  0.00000000  0.00000000  1
  Hg  Hg7  1  0.00000000  0.50000000  0.50000000  1
  S  S0  1  0.00000000  0.50895007  0.87268329  1
  S  S1  1  0.00000000  0.98859400  0.87252849  1
  S  S2  1  0.00000000  0.01140600  0.12747151  1
  S  S3  1  0.00000000  0.99104993  0.37268329  1
  S  S4  1  0.00000000  0.49104993  0.12731671  1
  S  S5  1  0.00000000  0.51140600  0.37252849  1
  S  S6  1  0.00000000  0.48859400  0.62747151  1
  S  S7  1  0.00000000  0.00895007  0.62731671  1
  Br  Br0  1  0.50000000  0.75085483  0.23635826  1
  Br  Br1  1  0.50000000  0.25064265  0.47152810  1
  Br  Br2  1  0.50000000  0.74914517  0.73635826  1
  Br  Br3  1  0.50000000  0.24914517  0.76364174  1
  Br  Br4  1  0.50000000  0.75064265  0.02847190  1
  Br  Br5  1  0.50000000  0.24935735  0.97152810  1
  Br  Br6  1  0.50000000  0.74935735  0.52847190  1
  Br  Br7  1  0.50000000  0.25085483  0.26364174  1
loop_
_geom_bond_atom_site_label_1
_geom_bond_atom_site_label_2
_geom_bond_distance
_geom_bond_site_symmetry_2
Cu0 S6 2.242232 1_555
Cu0 S6 2.242232 1_655
Cu1 S1 2.242232 1_645
Cu1 S1 2.242232 1_545
Cu2 S5 2.242232 1_655
Cu2 S5 2.242232 1_555
Cu3 S0 2.247061 1_555
Cu3 S0 2.247061 1_655
Cu4 S2 2.242232 1_665
Cu4 S2 2.242232 1_565
Cu5 S3 2.247061 1_645
Cu5 S3 2.247061 1_545
Cu6 S4 2.247061 1_655
Cu6 S4 2.247061 1_555
Cu7 S7 2.247061 1_665
Cu7 S7 2.247061 1_565
Hg0 S5 2.418949 1_555
Hg0 S3 2.419480 1_555
Hg1 S2 2.418949 1_555
Hg1 S4 2.419480 1_555
Hg2 S1 2.418949 1_555
Hg2 S0 2.419480 1_555
Hg3 S4 2.409446 1_555
Hg3 S0 2.409446 1_554
Hg4 S6 2.418949 1_555
Hg4 S7 2.419480 1_555
Hg5 S3 2.409446 1_545
Hg5 S7 2.409446 1_555
Hg6 S1 2.413416 1_544
Hg6 S2 2.413416 1_555
Hg7 S5 2.413416 1_555
Hg7 S6 2.413416 1_555
Br0 Cu4 2.441689 1_555
Br0 Cu6 2.451437 1_555
Br0 Hg0 3.107670 1_655
Br0 Hg0 3.107670 1_555
Br1 Cu5 2.752336 1_555
Br1 Cu2 2.816302 1_555
Br2 Cu0 2.441689 1_555
Br2 Cu7 2.451437 1_555
Br2 Hg2 3.107670 1_555
Br2 Hg2 3.107670 1_655
Br3 Cu1 2.441689 1_555
Br3 Cu3 2.451437 1_555
Br3 Hg4 3.107670 1_555
Br3 Hg4 3.107670 1_655
Br4 Cu6 2.752336 1_555
Br4 Cu4 2.816302 1_555
Br5 Cu3 2.752336 1_555
Br5 Cu1 2.816302 1_555
Br6 Cu7 2.752336 1_555
Br6 Cu0 2.816302 1_555
Br7 Cu2 2.441689 1_555
Br7 Cu5 2.451437 1_555
Br7 Hg1 3.107670 1_555
Br7 Hg1 3.107670 1_655
