# generated using pymatgen
data_Ta2Cd(P2O7)3
_symmetry_space_group_name_H-M   'P 1'
_cell_length_a   8.50379100
_cell_length_b   13.37119900
_cell_length_c   16.09796700
_cell_angle_alpha   90.00000000
_cell_angle_beta   90.00000000
_cell_angle_gamma   90.00000000
_symmetry_Int_Tables_number   1
_chemical_formula_structural   Ta2Cd(P2O7)3
_chemical_formula_sum   'Ta8 Cd4 P24 O84'
_cell_volume   1830.43353156
_cell_formula_units_Z   4
loop_
 _symmetry_equiv_pos_site_id
 _symmetry_equiv_pos_as_xyz
  1  'x, y, z'
loop_
 _atom_site_type_symbol
 _atom_site_label
 _atom_site_symmetry_multiplicity
 _atom_site_fract_x
 _atom_site_fract_y
 _atom_site_fract_z
 _atom_site_occupancy
  Ta  Ta0  1  0.33826300  0.63412400  0.91462600  1
  Ta  Ta1  1  0.66173700  0.36587600  0.41462600  1
  Ta  Ta2  1  0.66173700  0.36587600  0.08537400  1
  Ta  Ta3  1  0.16173700  0.13412400  0.58537400  1
  Ta  Ta4  1  0.33826300  0.63412400  0.58537400  1
  Ta  Ta5  1  0.83826300  0.86587600  0.41462600  1
  Ta  Ta6  1  0.16173700  0.13412400  0.91462600  1
  Ta  Ta7  1  0.83826300  0.86587600  0.08537400  1
  Cd  Cd0  1  0.67622600  0.35233100  0.75000000  1
  Cd  Cd1  1  0.82377400  0.85233100  0.75000000  1
  Cd  Cd2  1  0.32377400  0.64766900  0.25000000  1
  Cd  Cd3  1  0.17622600  0.14766900  0.25000000  1
  P  P0  1  0.29475400  0.47184700  0.41817300  1
  P  P1  1  0.20524600  0.97184700  0.08182700  1
  P  P2  1  0.94125200  0.69560900  0.92928500  1
  P  P3  1  0.29475400  0.47184700  0.08182700  1
  P  P4  1  0.71332700  0.53134700  0.25000000  1
  P  P5  1  0.94125200  0.69560900  0.57071500  1
  P  P6  1  0.91952200  0.71248300  0.25000000  1
  P  P7  1  0.05874800  0.30439100  0.07071500  1
  P  P8  1  0.41952200  0.78751700  0.75000000  1
  P  P9  1  0.55874800  0.19560900  0.57071500  1
  P  P10  1  0.78667300  0.03134700  0.25000000  1
  P  P11  1  0.70524600  0.52815300  0.58182700  1
  P  P12  1  0.44125200  0.80439100  0.42928500  1
  P  P13  1  0.20524600  0.97184700  0.41817300  1
  P  P14  1  0.79475400  0.02815300  0.91817300  1
  P  P15  1  0.21332700  0.96865300  0.75000000  1
  P  P16  1  0.55874800  0.19560900  0.92928500  1
  P  P17  1  0.79475400  0.02815300  0.58182700  1
  P  P18  1  0.44125200  0.80439100  0.07071500  1
  P  P19  1  0.28667300  0.46865300  0.75000000  1
  P  P20  1  0.58047800  0.21248300  0.25000000  1
  P  P21  1  0.05874800  0.30439100  0.42928500  1
  P  P22  1  0.70524600  0.52815300  0.91817300  1
  P  P23  1  0.08047800  0.28751700  0.75000000  1
  O  O0  1  0.11557200  0.66267800  0.56111400  1
  O  O1  1  0.42529400  0.40178900  0.75000000  1
  O  O2  1  0.77230200  0.96336300  0.32787500  1
  O  O3  1  0.65856500  0.25999000  0.17191500  1
  O  O4  1  0.10084900  0.26497500  0.34666600  1
  O  O5  1  0.09238800  0.72288600  0.25000000  1
  O  O6  1  0.16322700  0.03066400  0.00145700  1
  O  O7  1  0.34143500  0.74001000  0.67191500  1
  O  O8  1  0.22769800  0.03663700  0.67212500  1
  O  O9  1  0.60084900  0.23502500  0.65333400  1
  O  O10  1  0.89915100  0.73502500  0.65333400  1
  O  O11  1  0.34436100  0.90292400  0.45375500  1
  O  O12  1  0.93615600  0.09788200  0.60253100  1
  O  O13  1  0.33677300  0.53066400  0.00145700  1
  O  O14  1  0.38442800  0.16267800  0.93888600  1
  O  O15  1  0.73985700  0.96535000  0.65186600  1
  O  O16  1  0.90644400  0.76611100  0.49636500  1
  O  O17  1  0.66322700  0.46933600  0.50145700  1
  O  O18  1  0.12653900  0.40427400  0.75000000  1
  O  O19  1  0.09355600  0.23388900  0.50363500  1
  O  O20  1  0.90644400  0.76611100  0.00363500  1
  O  O21  1  0.06384400  0.90211800  0.39746900  1
  O  O22  1  0.40761200  0.22288600  0.25000000  1
  O  O23  1  0.26014300  0.03465000  0.34813400  1
  O  O24  1  0.60084900  0.23502500  0.84666600  1
  O  O25  1  0.06384400  0.90211800  0.10253100  1
  O  O26  1  0.59238800  0.77711400  0.75000000  1
  O  O27  1  0.27230200  0.53663700  0.67212500  1
  O  O28  1  0.09355600  0.23388900  0.99636500  1
  O  O29  1  0.27230200  0.53663700  0.82787500  1
  O  O30  1  0.66322700  0.46933600  0.99854300  1
  O  O31  1  0.15563900  0.40292400  0.45375500  1
  O  O32  1  0.73985700  0.96535000  0.84813400  1
  O  O33  1  0.65856500  0.25999000  0.32808500  1
  O  O34  1  0.93615600  0.09788200  0.89746900  1
  O  O35  1  0.89915100  0.73502500  0.84666600  1
  O  O36  1  0.22769800  0.03663700  0.82787500  1
  O  O37  1  0.92529400  0.09821100  0.25000000  1
  O  O38  1  0.77230200  0.96336300  0.17212500  1
  O  O39  1  0.43615600  0.40211800  0.10253100  1
  O  O40  1  0.34143500  0.74001000  0.82808500  1
  O  O41  1  0.37346100  0.90427400  0.75000000  1
  O  O42  1  0.11557200  0.66267800  0.93888600  1
  O  O43  1  0.56384400  0.59788200  0.60253100  1
  O  O44  1  0.15856500  0.24001000  0.82808500  1
  O  O45  1  0.76014300  0.46535000  0.65186600  1
  O  O46  1  0.59355600  0.26611100  0.49636500  1
  O  O47  1  0.39915100  0.76497500  0.15333400  1
  O  O48  1  0.15563900  0.40292400  0.04624500  1
  O  O49  1  0.40644400  0.73388900  0.99636500  1
  O  O50  1  0.65563900  0.09707600  0.95375500  1
  O  O51  1  0.56384400  0.59788200  0.89746900  1
  O  O52  1  0.88442800  0.33732200  0.43888600  1
  O  O53  1  0.61557200  0.83732200  0.43888600  1
  O  O54  1  0.84143500  0.75999000  0.17191500  1
  O  O55  1  0.72769800  0.46336300  0.17212500  1
  O  O56  1  0.39915100  0.76497500  0.34666600  1
  O  O57  1  0.83677300  0.96933600  0.50145700  1
  O  O58  1  0.84436100  0.59707600  0.95375500  1
  O  O59  1  0.07470600  0.90178900  0.75000000  1
  O  O60  1  0.61557200  0.83732200  0.06111400  1
  O  O61  1  0.87346100  0.59572600  0.25000000  1
  O  O62  1  0.23985700  0.53465000  0.34813400  1
  O  O63  1  0.16322700  0.03066400  0.49854300  1
  O  O64  1  0.62653900  0.09572600  0.25000000  1
  O  O65  1  0.72769800  0.46336300  0.32787500  1
  O  O66  1  0.84436100  0.59707600  0.54624500  1
  O  O67  1  0.83677300  0.96933600  0.99854300  1
  O  O68  1  0.57470600  0.59821100  0.25000000  1
  O  O69  1  0.23985700  0.53465000  0.15186600  1
  O  O70  1  0.90761200  0.27711400  0.75000000  1
  O  O71  1  0.59355600  0.26611100  0.00363500  1
  O  O72  1  0.43615600  0.40211800  0.39746900  1
  O  O73  1  0.10084900  0.26497500  0.15333400  1
  O  O74  1  0.65563900  0.09707600  0.54624500  1
  O  O75  1  0.40644400  0.73388900  0.50363500  1
  O  O76  1  0.33677300  0.53066400  0.49854300  1
  O  O77  1  0.84143500  0.75999000  0.32808500  1
  O  O78  1  0.76014300  0.46535000  0.84813400  1
  O  O79  1  0.38442800  0.16267800  0.56111400  1
  O  O80  1  0.15856500  0.24001000  0.67191500  1
  O  O81  1  0.88442800  0.33732200  0.06111400  1
  O  O82  1  0.26014300  0.03465000  0.15186600  1
  O  O83  1  0.34436100  0.90292400  0.04624500  1
loop_
_geom_bond_atom_site_label_1
_geom_bond_atom_site_label_2
_geom_bond_distance
_geom_bond_site_symmetry_2
Cd0 O70 2.209795 1_555
Cd0 O1 2.233999 1_555
Cd0 O45 2.299696 1_555
Cd0 O78 2.299696 1_555
Cd0 O24 2.300578 1_555
Cd0 O9 2.300578 1_555
Cd1 O26 2.209795 1_555
Cd1 O59 2.233999 1_655
Cd1 O32 2.299696 1_555
Cd1 O15 2.299696 1_555
Cd1 O10 2.300578 1_555
Cd1 O35 2.300578 1_555
Cd2 O5 2.209795 1_555
Cd2 O68 2.233999 1_555
Cd2 O62 2.299696 1_555
Cd2 O69 2.299696 1_555
Cd2 O47 2.300578 1_555
Cd2 O56 2.300578 1_555
Cd3 O22 2.209795 1_555
Cd3 O37 2.233999 1_455
Cd3 O82 2.299696 1_555
Cd3 O23 2.299696 1_555
Cd3 O4 2.300578 1_555
Cd3 O73 2.300578 1_555
O0 P5 1.554101 1_455
O0 Ta4 1.970903 1_555
O1 P19 1.479496 1_555
O2 P10 1.553336 1_565
O2 Ta5 1.990990 1_555
O3 P20 1.557090 1_555
O3 Ta2 1.986480 1_555
O4 P21 1.474734 1_555
O5 P6 1.476583 1_455
O6 P1 1.555664 1_545
O6 Ta6 1.966663 1_554
O7 P8 1.557090 1_555
O7 Ta4 1.986480 1_555
O8 P15 1.553336 1_545
O8 Ta3 1.990990 1_555
O9 P9 1.474734 1_555
O10 P5 1.474734 1_555
O11 P12 1.603080 1_555
O11 P13 1.605277 1_555
O12 P17 1.557650 1_555
O12 Ta3 1.997741 1_655
O13 P3 1.555664 1_555
O13 Ta0 1.966663 1_554
O14 P16 1.554101 1_555
O14 Ta6 1.970903 1_555
O15 P17 1.481330 1_565
O16 P5 1.552038 1_555
O16 Ta5 1.961396 1_555
O17 P11 1.555664 1_555
O17 Ta1 1.966663 1_555
O18 P23 1.609568 1_555
O18 P19 1.611016 1_555
O19 P21 1.552038 1_555
O19 Ta3 1.961396 1_555
O20 P2 1.552038 1_554
O20 Ta7 1.961396 1_555
O21 P13 1.557650 1_555
O21 Ta5 1.997741 1_455
O22 P20 1.476583 1_555
O23 P13 1.481330 1_545
O24 P16 1.474734 1_555
O25 P1 1.557650 1_555
O25 Ta7 1.997741 1_455
O26 P8 1.476583 1_555
O27 P19 1.553336 1_555
O27 Ta4 1.990990 1_555
O28 P7 1.552038 1_556
O28 Ta6 1.961396 1_555
O29 P19 1.553336 1_555
O29 Ta0 1.990990 1_555
O30 P22 1.555664 1_555
O30 Ta2 1.966663 1_556
O31 P21 1.603080 1_555
O31 P0 1.605277 1_555
O32 P14 1.481330 1_565
O33 P20 1.557090 1_555
O33 Ta1 1.986480 1_555
O34 P14 1.557650 1_555
O34 Ta6 1.997741 1_655
O35 P2 1.474734 1_555
O36 P15 1.553336 1_545
O36 Ta6 1.990990 1_555
O37 P10 1.479496 1_555
O38 P10 1.553336 1_565
O38 Ta7 1.990990 1_555
O39 P3 1.557650 1_555
O39 Ta2 1.997741 1_555
O40 P8 1.557090 1_555
O40 Ta0 1.986480 1_555
O41 P8 1.609568 1_555
O41 P15 1.611016 1_555
O42 P2 1.554101 1_455
O42 Ta0 1.970903 1_555
O43 P11 1.557650 1_555
O43 Ta4 1.997741 1_555
O44 P23 1.557090 1_555
O44 Ta6 1.986480 1_555
O45 P11 1.481330 1_555
O46 P9 1.552038 1_555
O46 Ta1 1.961396 1_555
O47 P18 1.474734 1_555
O48 P7 1.603080 1_555
O48 P3 1.605277 1_555
O49 P18 1.552038 1_556
O49 Ta0 1.961396 1_555
O50 P16 1.603080 1_555
O50 P14 1.605277 1_555
O51 P22 1.557650 1_555
O51 Ta0 1.997741 1_555
O52 P21 1.554101 1_655
O52 Ta1 1.970903 1_555
O53 P12 1.554101 1_555
O53 Ta5 1.970903 1_555
O54 P6 1.557090 1_555
O54 Ta7 1.986480 1_555
O55 P4 1.553336 1_555
O55 Ta2 1.990990 1_555
O56 P12 1.474734 1_555
O57 P17 1.555664 1_565
O57 Ta5 1.966663 1_555
O58 P2 1.603080 1_555
O58 P22 1.605277 1_555
O59 P15 1.479496 1_555
O60 P18 1.554101 1_555
O60 Ta7 1.970903 1_555
O61 P6 1.609568 1_555
O61 P4 1.611016 1_555
O62 P0 1.481330 1_555
O63 P13 1.555664 1_545
O63 Ta3 1.966663 1_555
O64 P20 1.609568 1_555
O64 P10 1.611016 1_555
O65 P4 1.553336 1_555
O65 Ta1 1.990990 1_555
O66 P5 1.603080 1_555
O66 P11 1.605277 1_555
O67 P14 1.555664 1_565
O67 Ta7 1.966663 1_556
O68 P4 1.479496 1_555
O69 P3 1.481330 1_555
O70 P23 1.476583 1_655
O71 P16 1.552038 1_554
O71 Ta2 1.961396 1_555
O72 P0 1.557650 1_555
O72 Ta1 1.997741 1_555
O73 P7 1.474734 1_555
O74 P9 1.603080 1_555
O74 P17 1.605277 1_555
O75 P12 1.552038 1_555
O75 Ta4 1.961396 1_555
O76 P0 1.555664 1_555
O76 Ta4 1.966663 1_555
O77 P6 1.557090 1_555
O77 Ta5 1.986480 1_555
O78 P22 1.481330 1_555
O79 P9 1.554101 1_555
O79 Ta3 1.970903 1_555
O80 P23 1.557090 1_555
O80 Ta3 1.986480 1_555
O81 P7 1.554101 1_655
O81 Ta2 1.970903 1_555
O82 P1 1.481330 1_545
O83 P18 1.603080 1_555
O83 P1 1.605277 1_555
