# generated using pymatgen
data_HgTe2C2(NF8)2
_symmetry_space_group_name_H-M   'P 1'
_cell_length_a   9.97804100
_cell_length_b   11.02366000
_cell_length_c   13.09967800
_cell_angle_alpha   90.00000000
_cell_angle_beta   90.00000000
_cell_angle_gamma   90.00000000
_symmetry_Int_Tables_number   1
_chemical_formula_structural   HgTe2C2(NF8)2
_chemical_formula_sum   'Hg4 Te8 C8 N8 F64'
_cell_volume   1440.89294376
_cell_formula_units_Z   4
loop_
 _symmetry_equiv_pos_site_id
 _symmetry_equiv_pos_as_xyz
  1  'x, y, z'
loop_
 _atom_site_type_symbol
 _atom_site_label
 _atom_site_symmetry_multiplicity
 _atom_site_fract_x
 _atom_site_fract_y
 _atom_site_fract_z
 _atom_site_occupancy
  Hg  Hg0  1  0.50000000  0.00000000  0.50000000  1
  Hg  Hg1  1  0.50000000  0.50000000  0.00000000  1
  Hg  Hg2  1  0.00000000  0.00000000  0.00000000  1
  Hg  Hg3  1  0.00000000  0.50000000  0.50000000  1
  Te  Te0  1  0.27332800  0.42298400  0.80611100  1
  Te  Te1  1  0.72667200  0.07701600  0.30611100  1
  Te  Te2  1  0.22667200  0.92298400  0.19388900  1
  Te  Te3  1  0.72667200  0.57701600  0.19388900  1
  Te  Te4  1  0.22667200  0.42298400  0.30611100  1
  Te  Te5  1  0.27332800  0.92298400  0.69388900  1
  Te  Te6  1  0.77332800  0.57701600  0.69388900  1
  Te  Te7  1  0.77332800  0.07701600  0.80611100  1
  C  C0  1  0.64666100  0.73780300  0.02212100  1
  C  C1  1  0.35333900  0.76219700  0.52212100  1
  C  C2  1  0.14666100  0.76219700  0.02212100  1
  C  C3  1  0.14666100  0.26219700  0.47787900  1
  C  C4  1  0.35333900  0.26219700  0.97787900  1
  C  C5  1  0.64666100  0.23780300  0.47787900  1
  C  C6  1  0.85333900  0.23780300  0.97787900  1
  C  C7  1  0.85333900  0.73780300  0.52212100  1
  N  N0  1  0.37115800  0.37686400  0.93216500  1
  N  N1  1  0.12884200  0.87686400  0.06783500  1
  N  N2  1  0.87115800  0.12313600  0.93216500  1
  N  N3  1  0.62884200  0.62313600  0.06783500  1
  N  N4  1  0.12884200  0.37686400  0.43216500  1
  N  N5  1  0.37115800  0.87686400  0.56783500  1
  N  N6  1  0.87115800  0.62313600  0.56783500  1
  N  N7  1  0.62884200  0.12313600  0.43216500  1
  F  F0  1  0.17469300  0.27839500  0.79667400  1
  F  F1  1  0.90337300  0.64142200  0.78188200  1
  F  F2  1  0.88686500  0.33263900  0.91614400  1
  F  F3  1  0.67469300  0.72160500  0.70332600  1
  F  F4  1  0.13282600  0.07162200  0.19082200  1
  F  F5  1  0.27614800  0.74043100  0.99101400  1
  F  F6  1  0.61313500  0.33263900  0.41614400  1
  F  F7  1  0.13160000  0.99576400  0.62214300  1
  F  F8  1  0.72385200  0.25956900  0.00898600  1
  F  F9  1  0.36840000  0.49576400  0.37785700  1
  F  F10  1  0.09662700  0.35857800  0.21811800  1
  F  F11  1  0.86717400  0.42837800  0.69082200  1
  F  F12  1  0.32530700  0.77839500  0.20332600  1
  F  F13  1  0.90337300  0.14142200  0.71811800  1
  F  F14  1  0.22385200  0.24043100  0.00898600  1
  F  F15  1  0.82530700  0.22160500  0.29667400  1
  F  F16  1  0.11313500  0.66736100  0.08385600  1
  F  F17  1  0.93232700  0.24383300  0.06274400  1
  F  F18  1  0.63160000  0.00423600  0.87785700  1
  F  F19  1  0.67469300  0.22160500  0.79667400  1
  F  F20  1  0.63282600  0.42837800  0.19082200  1
  F  F21  1  0.86840000  0.00423600  0.37785700  1
  F  F22  1  0.63160000  0.50423600  0.62214300  1
  F  F23  1  0.59662700  0.14142200  0.21811800  1
  F  F24  1  0.88686500  0.83263900  0.58385600  1
  F  F25  1  0.59662700  0.64142200  0.28188200  1
  F  F26  1  0.93232700  0.74383300  0.43725600  1
  F  F27  1  0.22385200  0.74043100  0.49101400  1
  F  F28  1  0.18657800  0.47804600  0.68686800  1
  F  F29  1  0.61313500  0.83263900  0.08385600  1
  F  F30  1  0.06767300  0.25616700  0.56274400  1
  F  F31  1  0.68657800  0.52195400  0.81313200  1
  F  F32  1  0.11313500  0.16736100  0.41614400  1
  F  F33  1  0.38686500  0.16736100  0.91614400  1
  F  F34  1  0.68657800  0.02195400  0.68686800  1
  F  F35  1  0.31342200  0.97804600  0.31313200  1
  F  F36  1  0.77614800  0.75956900  0.99101400  1
  F  F37  1  0.86717400  0.92837800  0.80917800  1
  F  F38  1  0.06767300  0.75616700  0.93725600  1
  F  F39  1  0.86840000  0.50423600  0.12214300  1
  F  F40  1  0.13160000  0.49576400  0.87785700  1
  F  F41  1  0.77614800  0.25956900  0.50898600  1
  F  F42  1  0.18657800  0.97804600  0.81313200  1
  F  F43  1  0.27614800  0.24043100  0.50898600  1
  F  F44  1  0.32530700  0.27839500  0.29667400  1
  F  F45  1  0.17469300  0.77839500  0.70332600  1
  F  F46  1  0.56767300  0.24383300  0.56274400  1
  F  F47  1  0.63282600  0.92837800  0.30917800  1
  F  F48  1  0.56767300  0.74383300  0.93725600  1
  F  F49  1  0.40337300  0.35857800  0.71811800  1
  F  F50  1  0.09662700  0.85857800  0.28188200  1
  F  F51  1  0.36840000  0.99576400  0.12214300  1
  F  F52  1  0.40337300  0.85857800  0.78188200  1
  F  F53  1  0.36717400  0.57162200  0.80917800  1
  F  F54  1  0.82530700  0.72160500  0.20332600  1
  F  F55  1  0.43232700  0.75616700  0.43725600  1
  F  F56  1  0.81342200  0.52195400  0.31313200  1
  F  F57  1  0.38686500  0.66736100  0.58385600  1
  F  F58  1  0.36717400  0.07162200  0.69082200  1
  F  F59  1  0.31342200  0.47804600  0.18686800  1
  F  F60  1  0.72385200  0.75956900  0.49101400  1
  F  F61  1  0.43232700  0.25616700  0.06274400  1
  F  F62  1  0.81342200  0.02195400  0.18686800  1
  F  F63  1  0.13282600  0.57162200  0.30917800  1
loop_
_geom_bond_atom_site_label_1
_geom_bond_atom_site_label_2
_geom_bond_distance
_geom_bond_site_symmetry_2
Hg0 N7 2.070010 1_555
Hg0 N5 2.070010 1_545
Hg1 N0 2.070010 1_554
Hg1 N3 2.070010 1_555
Hg2 N2 2.070010 1_454
Hg2 N1 2.070010 1_545
Hg3 N6 2.070010 1_455
Hg3 N4 2.070010 1_555
C0 F29 1.363400 1_555
C0 F48 1.364360 1_554
C0 F36 1.375847 1_554
C0 N3 1.409980 1_555
C1 F57 1.363400 1_555
C1 F55 1.364360 1_555
C1 F27 1.375847 1_555
C1 N5 1.409980 1_555
C2 F16 1.363400 1_555
C2 F38 1.364360 1_554
C2 F5 1.375847 1_554
C2 N1 1.409980 1_555
C3 F32 1.363400 1_555
C3 F30 1.364360 1_555
C3 F43 1.375847 1_555
C3 N4 1.409980 1_555
C4 F33 1.363400 1_555
C4 F61 1.364360 1_556
C4 F14 1.375847 1_556
C4 N0 1.409980 1_555
C5 F6 1.363400 1_555
C5 F46 1.364360 1_555
C5 F41 1.375847 1_555
C5 N7 1.409980 1_555
C6 F2 1.363400 1_555
C6 F17 1.364360 1_556
C6 F8 1.375847 1_556
C6 N2 1.409980 1_555
C7 F24 1.363400 1_555
C7 F26 1.364360 1_555
C7 F60 1.375847 1_555
C7 N6 1.409980 1_555
N0 Te0 1.984449 1_555
N1 Te2 1.984449 1_555
N2 Te7 1.984449 1_555
N3 Te3 1.984449 1_555
N4 Te4 1.984449 1_555
N5 Te5 1.984449 1_555
N6 Te6 1.984449 1_555
N7 Te1 1.984449 1_555
F0 Te0 1.877343 1_555
F1 Te6 1.875235 1_555
F3 Te6 1.877343 1_555
F4 Te2 1.887658 1_545
F7 Te5 1.877998 1_555
F9 Te4 1.877998 1_555
F10 Te4 1.875235 1_555
F11 Te6 1.887658 1_555
F12 Te2 1.877343 1_555
F13 Te7 1.875235 1_555
F15 Te1 1.877343 1_555
F18 Te7 1.877998 1_555
F19 Te7 1.877343 1_555
F20 Te3 1.887658 1_555
F21 Te1 1.877998 1_555
F22 Te6 1.877998 1_555
F23 Te1 1.875235 1_555
F25 Te3 1.875235 1_555
F28 Te0 1.886179 1_555
F31 Te6 1.886179 1_555
F34 Te7 1.886179 1_555
F35 Te2 1.886179 1_555
F37 Te7 1.887658 1_565
F39 Te3 1.877998 1_555
F40 Te0 1.877998 1_555
F42 Te5 1.886179 1_555
F44 Te4 1.877343 1_555
F45 Te5 1.877343 1_555
F47 Te1 1.887658 1_565
F49 Te0 1.875235 1_555
F50 Te2 1.875235 1_555
F51 Te2 1.877998 1_555
F52 Te5 1.875235 1_555
F53 Te0 1.887658 1_555
F54 Te3 1.877343 1_555
F56 Te3 1.886179 1_555
F58 Te5 1.887658 1_545
F59 Te4 1.886179 1_555
F62 Te1 1.886179 1_555
F63 Te4 1.887658 1_555
