# generated using pymatgen
data_KLi4AlO4
_symmetry_space_group_name_H-M   'P 1'
_cell_length_a   15.59877400
_cell_length_b   5.60137200
_cell_length_c   11.14799616
_cell_angle_alpha   70.38196150
_cell_angle_beta   90.00000000
_cell_angle_gamma   90.00000000
_symmetry_Int_Tables_number   1
_chemical_formula_structural   KLi4AlO4
_chemical_formula_sum   'K8 Li32 Al8 O32'
_cell_volume   917.50907986
_cell_formula_units_Z   8
loop_
 _symmetry_equiv_pos_site_id
 _symmetry_equiv_pos_as_xyz
  1  'x, y, z'
loop_
 _atom_site_type_symbol
 _atom_site_label
 _atom_site_symmetry_multiplicity
 _atom_site_fract_x
 _atom_site_fract_y
 _atom_site_fract_z
 _atom_site_occupancy
  K  K0  1  0.20287200  0.40599000  0.22834200  1
  K  K1  1  0.79712800  0.59401000  0.77165800  1
  K  K2  1  0.57192900  0.04897600  0.33373000  1
  K  K3  1  0.07192900  0.95102400  0.16627000  1
  K  K4  1  0.42807100  0.95102400  0.66627000  1
  K  K5  1  0.92807100  0.04897600  0.83373000  1
  K  K6  1  0.29712800  0.40599000  0.72834200  1
  K  K7  1  0.70287200  0.59401000  0.27165800  1
  Li  Li0  1  0.07752100  0.06058400  0.45750000  1
  Li  Li1  1  0.37723300  0.08804100  0.22968700  1
  Li  Li2  1  0.37960800  0.33046400  0.37202700  1
  Li  Li3  1  0.62039200  0.66953600  0.62797300  1
  Li  Li4  1  0.83845800  0.21523400  0.37220600  1
  Li  Li5  1  0.65332000  0.47006900  0.00765900  1
  Li  Li6  1  0.57752100  0.93941600  0.04250000  1
  Li  Li7  1  0.01987200  0.31080400  0.57690700  1
  Li  Li8  1  0.84668000  0.47006900  0.50765900  1
  Li  Li9  1  0.87960800  0.66953600  0.12797300  1
  Li  Li10  1  0.56709100  0.36011000  0.52233300  1
  Li  Li11  1  0.76144100  0.89142300  0.97642400  1
  Li  Li12  1  0.42247900  0.06058400  0.95750000  1
  Li  Li13  1  0.51987200  0.68919600  0.92309300  1
  Li  Li14  1  0.34668000  0.52993100  0.99234100  1
  Li  Li15  1  0.43290900  0.63989000  0.47766700  1
  Li  Li16  1  0.33845800  0.78476600  0.12779400  1
  Li  Li17  1  0.15332000  0.52993100  0.49234100  1
  Li  Li18  1  0.66154200  0.21523400  0.87220600  1
  Li  Li19  1  0.93290900  0.36011000  0.02233300  1
  Li  Li20  1  0.16154200  0.78476600  0.62779400  1
  Li  Li21  1  0.62276700  0.91195900  0.77031300  1
  Li  Li22  1  0.87723300  0.91195900  0.27031300  1
  Li  Li23  1  0.73855900  0.89142300  0.47642400  1
  Li  Li24  1  0.48012800  0.31080400  0.07690700  1
  Li  Li25  1  0.23855900  0.10857700  0.02357600  1
  Li  Li26  1  0.98012800  0.68919600  0.42309300  1
  Li  Li27  1  0.12039200  0.33046400  0.87202700  1
  Li  Li28  1  0.26144100  0.10857700  0.52357600  1
  Li  Li29  1  0.12276700  0.08804100  0.72968700  1
  Li  Li30  1  0.92247900  0.93941600  0.54250000  1
  Li  Li31  1  0.06709100  0.63989000  0.97766700  1
  Al  Al0  1  0.27351100  0.81169300  0.38112700  1
  Al  Al1  1  0.01627000  0.61646600  0.70314400  1
  Al  Al2  1  0.98373000  0.38353400  0.29685600  1
  Al  Al3  1  0.51627000  0.38353400  0.79685600  1
  Al  Al4  1  0.77351100  0.18830700  0.11887300  1
  Al  Al5  1  0.72648900  0.18830700  0.61887300  1
  Al  Al6  1  0.48373000  0.61646600  0.20314400  1
  Al  Al7  1  0.22648900  0.81169300  0.88112700  1
  O  O0  1  0.39087800  0.45057400  0.17504100  1
  O  O1  1  0.13437000  0.96286500  0.92236100  1
  O  O2  1  0.71507800  0.52618100  0.55082700  1
  O  O3  1  0.68222800  0.09808300  0.04897000  1
  O  O4  1  0.63437000  0.03713500  0.57763900  1
  O  O5  1  0.26299000  0.93481600  0.21115800  1
  O  O6  1  0.86563000  0.03713500  0.07763900  1
  O  O7  1  0.28492200  0.47381900  0.44917300  1
  O  O8  1  0.00296000  0.50030200  0.13214200  1
  O  O9  1  0.73701000  0.06518400  0.78884200  1
  O  O10  1  0.89087800  0.54942600  0.32495900  1
  O  O11  1  0.23701000  0.93481600  0.71115800  1
  O  O12  1  0.49704000  0.50030200  0.63214200  1
  O  O13  1  0.99704000  0.49969800  0.86785800  1
  O  O14  1  0.06373000  0.44068800  0.39795600  1
  O  O15  1  0.60912200  0.54942600  0.82495900  1
  O  O16  1  0.53611700  0.04957900  0.86006800  1
  O  O17  1  0.21507800  0.47381900  0.94917300  1
  O  O18  1  0.81777200  0.09808300  0.54897000  1
  O  O19  1  0.18222800  0.90191700  0.45103000  1
  O  O20  1  0.56373000  0.55931200  0.10204400  1
  O  O21  1  0.10912200  0.45057400  0.67504100  1
  O  O22  1  0.36563000  0.96286500  0.42236100  1
  O  O23  1  0.50296000  0.49969800  0.36785800  1
  O  O24  1  0.96388300  0.04957900  0.36006800  1
  O  O25  1  0.43627000  0.44068800  0.89795600  1
  O  O26  1  0.93627000  0.55931200  0.60204400  1
  O  O27  1  0.31777200  0.90191700  0.95103000  1
  O  O28  1  0.78492200  0.52618100  0.05082700  1
  O  O29  1  0.76299000  0.06518400  0.28884200  1
  O  O30  1  0.46388300  0.95042100  0.13993200  1
  O  O31  1  0.03611700  0.95042100  0.63993200  1
loop_
_geom_bond_atom_site_label_1
_geom_bond_atom_site_label_2
_geom_bond_distance
_geom_bond_site_symmetry_2
K0 O5 2.867245 1_545
K0 O7 2.910513 1_555
K0 O14 2.927579 1_555
K0 Li16 2.938379 1_555
K0 O0 2.986019 1_555
K0 O17 3.012016 1_554
K0 O5 3.051131 1_555
K0 O19 3.087392 1_545
K0 O8 3.282236 1_555
K1 O9 2.867245 1_565
K1 O2 2.910513 1_555
K1 O26 2.927579 1_555
K1 Li18 2.938379 1_555
K1 O15 2.986019 1_555
K1 O28 3.012016 1_556
K1 O9 3.051131 1_555
K1 O18 3.087392 1_565
K1 O13 3.282236 1_555
K2 O4 2.868007 1_555
K2 O23 2.884627 1_555
K2 O30 2.934916 1_545
K2 O29 3.018350 1_555
K2 O20 3.146595 1_555
K2 O23 3.159475 1_545
K3 O1 2.868007 1_554
K3 O8 2.884627 1_555
K3 O24 2.934916 1_465
K3 O5 3.018350 1_555
K3 O14 3.146595 1_555
K3 O8 3.159475 1_565
K4 O22 2.868007 1_555
K4 O12 2.884627 1_555
K4 O16 2.934916 1_565
K4 O11 3.018350 1_555
K4 O25 3.146595 1_555
K4 O12 3.159475 1_565
K5 O6 2.868007 1_556
K5 O13 2.884627 1_555
K5 O31 2.934916 1_645
K5 O9 3.018350 1_555
K5 O26 3.146595 1_555
K5 O13 3.159475 1_545
K6 O11 2.867245 1_545
K6 O17 2.910513 1_555
K6 O25 2.927579 1_555
K6 Li20 2.938379 1_555
K6 O21 2.986019 1_555
K6 O7 3.012016 1_555
K6 O11 3.051131 1_555
K6 O27 3.087392 1_545
K6 O12 3.282236 1_555
K7 O29 2.867245 1_565
K7 O28 2.910513 1_555
K7 O20 2.927579 1_555
K7 Li4 2.938379 1_555
K7 O10 2.986019 1_555
K7 O2 3.012016 1_555
K7 O29 3.051131 1_555
K7 O3 3.087392 1_565
K7 O23 3.282236 1_555
Li0 O19 1.872378 1_545
Li0 O14 2.017664 1_555
Li0 O31 2.022706 1_545
Li0 O24 2.090619 1_455
Li1 O0 1.925979 1_555
Li1 O30 1.985007 1_545
Li1 O5 2.018427 1_545
Li1 O22 2.031423 1_545
Li2 O22 1.956090 1_545
Li2 O7 2.007395 1_555
Li2 O0 2.076985 1_555
Li2 O23 2.138571 1_555
Li3 O4 1.956090 1_565
Li3 O2 2.007395 1_555
Li3 O15 2.076985 1_555
Li3 O12 2.138571 1_555
Li4 O29 1.865587 1_555
Li4 O18 1.884023 1_555
Li4 O10 1.946304 1_555
Li4 O24 2.188929 1_555
Li5 O20 1.913948 1_555
Li5 O3 2.027953 1_555
Li5 O15 2.052627 1_554
Li5 O28 2.155471 1_555
Li6 O3 1.872378 1_565
Li6 O20 2.017664 1_555
Li6 O16 2.022706 1_564
Li6 O30 2.090619 1_555
Li7 O31 1.918433 1_545
Li7 O26 1.994676 1_455
Li7 O14 2.000636 1_555
Li7 O21 2.079206 1_555
Li8 O26 1.913948 1_555
Li8 O18 2.027953 1_555
Li8 O10 2.052627 1_555
Li8 O2 2.155471 1_555
Li9 O6 1.956090 1_565
Li9 O28 2.007395 1_555
Li9 O10 2.076985 1_555
Li9 O8 2.138571 1_655
Li10 O23 1.916639 1_555
Li10 O12 1.988644 1_555
Li10 O4 2.001346 1_555
Li11 O28 1.966770 1_556
Li11 O9 2.024548 1_565
Li11 O3 2.037025 1_566
Li11 O6 2.280148 1_566
Li12 O27 1.872378 1_545
Li12 O25 2.017664 1_555
Li12 O30 2.022706 1_546
Li12 O16 2.090619 1_555
Li13 O16 1.918433 1_565
Li13 O25 1.994676 1_555
Li13 O20 2.000636 1_556
Li13 O15 2.079206 1_555
Li14 O25 1.913948 1_555
Li14 O27 2.027953 1_555
Li14 O0 2.052627 1_556
Li14 O17 2.155471 1_555
Li15 O12 1.916639 1_555
Li15 O23 1.988644 1_555
Li15 O22 2.001346 1_555
Li16 O5 1.865587 1_555
Li16 O27 1.884023 1_554
Li16 O0 1.946304 1_555
Li16 O30 2.188929 1_555
Li17 O14 1.913948 1_555
Li17 O19 2.027953 1_555
Li17 O21 2.052627 1_555
Li17 O7 2.155471 1_555
Li18 O9 1.865587 1_555
Li18 O3 1.884023 1_556
Li18 O15 1.946304 1_555
Li18 O16 2.188929 1_555
Li19 O13 1.916639 1_554
Li19 O8 1.988644 1_655
Li19 O6 2.001346 1_555
Li20 O11 1.865587 1_555
Li20 O19 1.884023 1_555
Li20 O21 1.946304 1_555
Li20 O31 2.188929 1_555
Li21 O15 1.925979 1_555
Li21 O16 1.985007 1_565
Li21 O9 2.018427 1_565
Li21 O4 2.031423 1_565
Li22 O10 1.925979 1_555
Li22 O24 1.985007 1_565
Li22 O29 2.018427 1_565
Li22 O6 2.031423 1_565
Li23 O2 1.966770 1_555
Li23 O29 2.024548 1_565
Li23 O18 2.037025 1_565
Li23 O4 2.280148 1_565
Li24 O30 1.918433 1_545
Li24 O20 1.994676 1_555
Li24 O25 2.000636 1_554
Li24 O0 2.079206 1_555
Li25 O17 1.966770 1_554
Li25 O5 2.024548 1_545
Li25 O27 2.037025 1_544
Li25 O1 2.280148 1_544
Li26 O24 1.918433 1_565
Li26 O14 1.994676 1_655
Li26 O26 2.000636 1_555
Li26 O10 2.079206 1_555
Li27 O1 1.956090 1_545
Li27 O17 2.007395 1_555
Li27 O21 2.076985 1_555
Li27 O13 2.138571 1_455
Li28 O7 1.966770 1_555
Li28 O11 2.024548 1_545
Li28 O19 2.037025 1_545
Li28 O22 2.280148 1_545
Li29 O21 1.925979 1_555
Li29 O31 1.985007 1_545
Li29 O11 2.018427 1_545
Li29 O1 2.031423 1_545
Li30 O18 1.872378 1_565
Li30 O26 2.017664 1_555
Li30 O24 2.022706 1_565
Li30 O31 2.090619 1_655
Li31 O8 1.916639 1_556
Li31 O13 1.988644 1_455
Li31 O1 2.001346 1_555
Al0 O19 1.776130 1_555
Al0 O5 1.793150 1_555
Al0 O7 1.795790 1_555
Al0 O22 1.804024 1_555
Al1 O13 1.755861 1_455
Al1 O26 1.781097 1_455
Al1 O31 1.790652 1_555
Al1 O21 1.804131 1_555
Al2 O8 1.755861 1_655
Al2 O14 1.781097 1_655
Al2 O24 1.790652 1_555
Al2 O10 1.804131 1_555
Al3 O12 1.755861 1_555
Al3 O25 1.781097 1_555
Al3 O16 1.790652 1_555
Al3 O15 1.804131 1_555
Al4 O3 1.776130 1_555
Al4 O29 1.793150 1_555
Al4 O28 1.795790 1_555
Al4 O6 1.804024 1_555
Al5 O18 1.776130 1_555
Al5 O9 1.793150 1_555
Al5 O2 1.795790 1_555
Al5 O4 1.804024 1_555
Al6 O23 1.755861 1_555
Al6 O20 1.781097 1_555
Al6 O30 1.790652 1_555
Al6 O0 1.804131 1_555
Al7 O27 1.776130 1_555
Al7 O11 1.793150 1_555
Al7 O17 1.795790 1_555
Al7 O1 1.804024 1_555
