# generated using pymatgen
data_Al2NiO4
_symmetry_space_group_name_H-M   'P 1'
_cell_length_a   5.75876806
_cell_length_b   5.75876806
_cell_length_c   27.97049389
_cell_angle_alpha   89.79805846
_cell_angle_beta   89.79805846
_cell_angle_gamma   60.10464101
_symmetry_Int_Tables_number   1
_chemical_formula_structural   Al2NiO4
_chemical_formula_sum   'Al24 Ni12 O48'
_cell_volume   804.16155966
_cell_formula_units_Z   12
loop_
 _symmetry_equiv_pos_site_id
 _symmetry_equiv_pos_as_xyz
  1  'x, y, z'
loop_
 _atom_site_type_symbol
 _atom_site_label
 _atom_site_symmetry_multiplicity
 _atom_site_fract_x
 _atom_site_fract_y
 _atom_site_fract_z
 _atom_site_occupancy
  Al  Al0  1  0.32577700  0.32577700  0.95908600  1
  Al  Al1  1  0.66574900  0.66574900  0.98099000  1
  Al  Al2  1  0.32654600  0.83624400  0.89612300  1
  Al  Al3  1  0.66126000  0.66126000  0.79254100  1
  Al  Al4  1  0.67466100  0.67466100  0.66635200  1
  Al  Al5  1  0.83624400  0.32654600  0.89612300  1
  Al  Al6  1  0.66675400  0.17081600  0.72806800  1
  Al  Al7  1  0.00058300  0.00058300  0.81420500  1
  Al  Al8  1  0.99578900  0.99578900  0.62327500  1
  Al  Al9  1  0.17081600  0.66675400  0.72806800  1
  Al  Al10  1  0.00061800  0.50057600  0.56195800  1
  Al  Al11  1  0.32834200  0.32834200  0.45664000  1
  Al  Al12  1  0.33849000  0.33849000  0.33464100  1
  Al  Al13  1  0.50057600  0.00061800  0.56195800  1
  Al  Al14  1  0.33342100  0.83342500  0.39563900  1
  Al  Al15  1  0.66147700  0.66147700  0.29024800  1
  Al  Al16  1  0.00549600  0.00549600  0.50095700  1
  Al  Al17  1  0.83342500  0.33342100  0.39563900  1
  Al  Al18  1  0.66618800  0.16663400  0.22916900  1
  Al  Al19  1  0.99324900  0.99324900  0.12350700  1
  Al  Al20  1  0.16663400  0.66618800  0.22916900  1
  Al  Al21  1  0.99479500  0.49948800  0.06296300  1
  Al  Al22  1  0.67096000  0.67096000  0.16885100  1
  Al  Al23  1  0.49948800  0.99479500  0.06296300  1
  Ni  Ni0  1  0.00002500  0.00002500  0.00200300  1
  Ni  Ni1  1  0.33564200  0.33564200  0.83220500  1
  Ni  Ni2  1  0.83502700  0.83502700  0.89596800  1
  Ni  Ni3  1  0.16967500  0.16967500  0.72835000  1
  Ni  Ni4  1  0.50027700  0.50027700  0.56211900  1
  Ni  Ni5  1  0.33484400  0.33484400  0.64560800  1
  Ni  Ni6  1  0.83330000  0.83330000  0.39579200  1
  Ni  Ni7  1  0.66665800  0.66665800  0.47898500  1
  Ni  Ni8  1  0.16642300  0.16642300  0.22930000  1
  Ni  Ni9  1  0.99981000  0.99981000  0.31250900  1
  Ni  Ni10  1  0.49919500  0.49919500  0.06299400  1
  Ni  Ni11  1  0.33220300  0.33220300  0.14559200  1
  O  O0  1  0.49634400  0.97855000  0.93786200  1
  O  O1  1  0.65802800  0.65802800  0.85744500  1
  O  O2  1  0.97855000  0.49634400  0.93786200  1
  O  O3  1  0.50558300  0.50558300  0.93677400  1
  O  O4  1  0.15045500  0.15045500  0.85641800  1
  O  O5  1  0.83319500  0.31323800  0.77106700  1
  O  O6  1  0.70266800  0.16633000  0.85438200  1
  O  O7  1  0.99329300  0.99329300  0.68954800  1
  O  O8  1  0.31323800  0.83319500  0.77106700  1
  O  O9  1  0.01038900  0.01038900  0.93225300  1
  O  O10  1  0.16633000  0.70266800  0.85438200  1
  O  O11  1  0.84229200  0.84229200  0.77053300  1
  O  O12  1  0.50421200  0.50421200  0.68958800  1
  O  O13  1  0.15465400  0.65846600  0.60138900  1
  O  O14  1  0.00718200  0.51693300  0.68948100  1
  O  O15  1  0.34785700  0.34785700  0.76197200  1
  O  O16  1  0.32544200  0.32544200  0.52259400  1
  O  O17  1  0.65846600  0.15465400  0.60138900  1
  O  O18  1  0.51693300  0.00718200  0.68948100  1
  O  O19  1  0.16964700  0.16964700  0.60105100  1
  O  O20  1  0.83186200  0.83186200  0.52371100  1
  O  O21  1  0.48756800  0.99099300  0.43487800  1
  O  O22  1  0.34188300  0.84634000  0.52339600  1
  O  O23  1  0.67576900  0.67576900  0.60114700  1
  O  O24  1  0.65851800  0.65851800  0.35613300  1
  O  O25  1  0.99099300  0.48756800  0.43487800  1
  O  O26  1  0.50225200  0.50225200  0.43443300  1
  O  O27  1  0.84634000  0.34188300  0.52339600  1
  O  O28  1  0.16459700  0.16459700  0.35745400  1
  O  O29  1  0.82066800  0.32423500  0.26837000  1
  O  O30  1  0.67525100  0.17912000  0.35701000  1
  O  O31  1  0.00817700  0.00817700  0.43550600  1
  O  O32  1  0.99154300  0.99154300  0.18946100  1
  O  O33  1  0.32423500  0.82066800  0.26837000  1
  O  O34  1  0.83536700  0.83536700  0.26789600  1
  O  O35  1  0.17912000  0.67525100  0.35701000  1
  O  O36  1  0.49661500  0.49661500  0.19113000  1
  O  O37  1  0.15130900  0.65746900  0.10122700  1
  O  O38  1  0.00928200  0.51156700  0.19055900  1
  O  O39  1  0.32367700  0.32367700  0.02367900  1
  O  O40  1  0.65746900  0.15130900  0.10122700  1
  O  O41  1  0.34112500  0.34112500  0.26925500  1
  O  O42  1  0.16587600  0.16587600  0.10031000  1
  O  O43  1  0.51156700  0.00928200  0.19055900  1
  O  O44  1  0.81157800  0.81157800  0.02389400  1
  O  O45  1  0.37128700  0.82877200  0.02182000  1
  O  O46  1  0.67212400  0.67212400  0.10437100  1
  O  O47  1  0.82877200  0.37128700  0.02182000  1
loop_
_geom_bond_atom_site_label_1
_geom_bond_atom_site_label_2
_geom_bond_distance
_geom_bond_site_symmetry_2
Al0 O39 1.806734 1_556
Al0 O0 1.833575 1_545
Al0 O2 1.833575 1_455
Al0 O3 1.895655 1_555
Al1 O45 1.862285 1_556
Al1 O47 1.862285 1_556
Al1 O44 1.888877 1_556
Al1 O2 1.973063 1_555
Al1 O0 1.973063 1_555
Al1 O3 2.023650 1_555
Al2 O9 1.875078 1_565
Al2 O10 1.878164 1_555
Al2 O4 1.923676 1_565
Al2 O0 1.950460 1_555
Al2 O1 1.976871 1_555
Al2 O3 2.004436 1_555
Al3 O1 1.815552 1_555
Al3 O8 1.839573 1_555
Al3 O5 1.839573 1_555
Al3 O11 1.904468 1_555
Al4 O14 1.783590 1_655
Al4 O18 1.783590 1_565
Al4 O12 1.816819 1_555
Al4 O23 1.823805 1_555
Al5 O9 1.875078 1_655
Al5 O6 1.878164 1_555
Al5 O4 1.923676 1_655
Al5 O2 1.950460 1_555
Al5 O1 1.976871 1_555
Al5 O3 2.004436 1_555
Al6 O15 1.854574 1_555
Al6 O18 1.903012 1_555
Al6 O7 1.954290 1_545
Al6 O5 1.958729 1_555
Al6 O12 1.980375 1_555
Al6 O11 2.024384 1_545
Al7 O6 1.865177 1_455
Al7 O10 1.865177 1_545
Al7 O4 1.908092 1_555
Al7 O8 1.972224 1_545
Al7 O5 1.972224 1_455
Al7 O11 1.999507 1_445
Al8 O17 1.793921 1_565
Al8 O13 1.793921 1_655
Al8 O19 1.838943 1_665
Al8 O7 1.853754 1_555
Al9 O15 1.854574 1_555
Al9 O14 1.903012 1_555
Al9 O7 1.954290 1_455
Al9 O8 1.958729 1_555
Al9 O12 1.980375 1_555
Al9 O11 2.024384 1_455
Al10 O27 1.900252 1_455
Al10 O13 1.909969 1_555
Al10 O23 1.957283 1_455
Al10 O16 1.959907 1_555
Al10 O20 1.968083 1_455
Al10 O19 1.979554 1_555
Al11 O21 1.792795 1_545
Al11 O25 1.792795 1_455
Al11 O26 1.839272 1_555
Al11 O16 1.844875 1_555
Al12 O30 1.795840 1_555
Al12 O35 1.795840 1_555
Al12 O41 1.828960 1_555
Al12 O28 1.844842 1_555
Al13 O22 1.900252 1_545
Al13 O17 1.909969 1_555
Al13 O23 1.957283 1_545
Al13 O16 1.959907 1_555
Al13 O20 1.968083 1_545
Al13 O19 1.979554 1_555
Al14 O35 1.899279 1_555
Al14 O21 1.905988 1_555
Al14 O24 1.963176 1_555
Al14 O28 1.966675 1_565
Al14 O31 1.969414 1_565
Al14 O26 1.975954 1_555
Al15 O33 1.793401 1_555
Al15 O29 1.793401 1_555
Al15 O34 1.840443 1_555
Al15 O24 1.842952 1_555
Al16 O27 1.794783 1_455
Al16 O22 1.794783 1_545
Al16 O31 1.830783 1_555
Al16 O20 1.841854 1_445
Al17 O30 1.899279 1_555
Al17 O25 1.905988 1_555
Al17 O24 1.963176 1_555
Al17 O28 1.966675 1_655
Al17 O31 1.969414 1_655
Al17 O26 1.975954 1_555
Al18 O43 1.896901 1_555
Al18 O29 1.906861 1_555
Al18 O36 1.959587 1_555
Al18 O32 1.967427 1_545
Al18 O41 1.972098 1_555
Al18 O34 1.975344 1_545
Al19 O40 1.790521 1_565
Al19 O37 1.790521 1_655
Al19 O42 1.836730 1_665
Al19 O32 1.844775 1_555
Al20 O38 1.896901 1_555
Al20 O33 1.906861 1_555
Al20 O36 1.959587 1_555
Al20 O32 1.967427 1_455
Al20 O41 1.972098 1_555
Al20 O34 1.975344 1_455
Al21 O47 1.871056 1_555
Al21 O37 1.901742 1_655
Al21 O44 1.908279 1_555
Al21 O42 1.964475 1_655
Al21 O39 1.975139 1_655
Al21 O46 1.983458 1_555
Al22 O38 1.796904 1_655
Al22 O43 1.796904 1_565
Al22 O46 1.803528 1_555
Al22 O36 1.844026 1_555
Al23 O45 1.871056 1_555
Al23 O40 1.901742 1_565
Al23 O44 1.908279 1_555
Al23 O42 1.964475 1_565
Al23 O39 1.975139 1_565
Al23 O46 1.983458 1_555
Ni0 O45 1.937418 1_545
Ni0 O47 1.937418 1_455
Ni0 O9 1.953256 1_554
Ni0 O44 1.973561 1_445
Ni1 O10 1.937395 1_555
Ni1 O6 1.937395 1_555
Ni1 O4 1.963880 1_555
Ni1 O15 1.967727 1_555
Ni2 O9 2.025036 1_665
Ni2 O10 2.028549 1_655
Ni2 O6 2.028549 1_565
Ni2 O2 2.060113 1_555
Ni2 O0 2.060113 1_555
Ni2 O1 2.071259 1_555
Ni3 O15 2.013298 1_555
Ni3 O14 2.045284 1_555
Ni3 O18 2.045284 1_555
Ni3 O5 2.063864 1_455
Ni3 O8 2.063864 1_545
Ni3 O7 2.070116 1_445
Ni4 O22 2.038736 1_555
Ni4 O27 2.038736 1_555
Ni4 O13 2.045022 1_555
Ni4 O17 2.045022 1_555
Ni4 O23 2.065920 1_555
Ni4 O16 2.067809 1_555
Ni5 O17 2.035877 1_555
Ni5 O13 2.035877 1_555
Ni5 O14 2.046054 1_555
Ni5 O18 2.046054 1_555
Ni5 O19 2.069338 1_555
Ni5 O12 2.093104 1_555
Ni6 O30 2.038633 1_565
Ni6 O35 2.038633 1_655
Ni6 O25 2.042853 1_555
Ni6 O21 2.042853 1_555
Ni6 O24 2.069382 1_555
Ni6 O31 2.071012 1_665
Ni7 O21 2.036356 1_555
Ni7 O25 2.036356 1_555
Ni7 O22 2.043358 1_555
Ni7 O27 2.043358 1_555
Ni7 O26 2.062964 1_555
Ni7 O20 2.072260 1_555
Ni8 O38 2.035300 1_555
Ni8 O43 2.035300 1_555
Ni8 O33 2.042687 1_545
Ni8 O29 2.042687 1_455
Ni8 O32 2.072926 1_445
Ni8 O41 2.073189 1_555
Ni9 O29 2.037256 1_565
Ni9 O33 2.037256 1_655
Ni9 O35 2.043953 1_655
Ni9 O30 2.043953 1_565
Ni9 O34 2.064294 1_555
Ni9 O28 2.072676 1_665
Ni10 O47 2.016953 1_555
Ni10 O45 2.016953 1_555
Ni10 O37 2.039483 1_555
Ni10 O40 2.039483 1_555
Ni10 O39 2.070421 1_555
Ni10 O46 2.080321 1_555
Ni11 O40 2.044820 1_555
Ni11 O37 2.044820 1_555
Ni11 O43 2.045721 1_555
Ni11 O38 2.045721 1_555
Ni11 O36 2.079875 1_555
Ni11 O42 2.090631 1_555
