# generated using pymatgen
data_Cs3PSe4
_symmetry_space_group_name_H-M   'P 1'
_cell_length_a   10.03057703
_cell_length_b   10.07428299
_cell_length_c   12.12989988
_cell_angle_alpha   90.00000000
_cell_angle_beta   90.00000000
_cell_angle_gamma   90.00000000
_symmetry_Int_Tables_number   1
_chemical_formula_structural   Cs3PSe4
_chemical_formula_sum   'Cs12 P4 Se16'
_cell_volume   1225.73695473
_cell_formula_units_Z   4
loop_
 _symmetry_equiv_pos_site_id
 _symmetry_equiv_pos_as_xyz
  1  'x, y, z'
loop_
 _atom_site_type_symbol
 _atom_site_label
 _atom_site_symmetry_multiplicity
 _atom_site_fract_x
 _atom_site_fract_y
 _atom_site_fract_z
 _atom_site_occupancy
  Cs  Cs0  1  0.40475652  0.84332458  0.75000000  1
  Cs  Cs1  1  0.59524348  0.15667542  0.25000000  1
  Cs  Cs2  1  0.09524348  0.34332458  0.75000000  1
  Cs  Cs3  1  0.70455031  0.53521262  0.95993834  1
  Cs  Cs4  1  0.29544969  0.46478738  0.04006166  1
  Cs  Cs5  1  0.90475652  0.65667542  0.25000000  1
  Cs  Cs6  1  0.20455031  0.96478738  0.04006166  1
  Cs  Cs7  1  0.29544969  0.46478738  0.45993834  1
  Cs  Cs8  1  0.20455031  0.96478738  0.45993834  1
  Cs  Cs9  1  0.70455031  0.53521262  0.54006166  1
  Cs  Cs10  1  0.79544969  0.03521262  0.54006166  1
  Cs  Cs11  1  0.79544969  0.03521262  0.95993834  1
  P  P0  1  0.97802889  0.77561471  0.75000000  1
  P  P1  1  0.52197111  0.27561471  0.75000000  1
  P  P2  1  0.02197111  0.22438529  0.25000000  1
  P  P3  1  0.47802889  0.72438529  0.25000000  1
  Se  Se0  1  0.56393672  0.52140152  0.25000000  1
  Se  Se1  1  0.06393672  0.97859848  0.75000000  1
  Se  Se2  1  0.45479177  0.17180072  0.90046111  1
  Se  Se3  1  0.04520823  0.67180072  0.59953889  1
  Se  Se4  1  0.43606328  0.47859848  0.75000000  1
  Se  Se5  1  0.95479177  0.32819928  0.09953889  1
  Se  Se6  1  0.54520823  0.82819928  0.40046111  1
  Se  Se7  1  0.75817574  0.78478005  0.75000000  1
  Se  Se8  1  0.04520823  0.67180072  0.90046111  1
  Se  Se9  1  0.25817574  0.71521995  0.25000000  1
  Se  Se10  1  0.54520823  0.82819928  0.09953889  1
  Se  Se11  1  0.24182426  0.21521995  0.25000000  1
  Se  Se12  1  0.74182426  0.28478005  0.75000000  1
  Se  Se13  1  0.45479177  0.17180072  0.59953889  1
  Se  Se14  1  0.93606328  0.02140152  0.25000000  1
  Se  Se15  1  0.95479177  0.32819928  0.40046111  1
loop_
_geom_bond_atom_site_label_1
_geom_bond_atom_site_label_2
_geom_bond_distance
_geom_bond_site_symmetry_2
Cs0 Se7 3.593727 1_555
Cs0 Se1 3.680237 1_555
Cs0 Se4 3.687748 1_555
Cs0 Se13 3.812263 1_565
Cs0 Se2 3.812263 1_565
Cs1 Se11 3.593727 1_555
Cs1 Se14 3.680237 1_555
Cs1 Se0 3.687748 1_555
Cs1 Se6 3.812263 1_545
Cs1 Se10 3.812263 1_545
Cs2 Se12 3.593727 1_455
Cs2 Se4 3.680237 1_555
Cs2 Se1 3.687748 1_545
Cs2 Se3 3.812263 1_555
Cs2 Se8 3.812263 1_555
Cs3 Se12 3.604133 1_555
Cs3 Se7 3.618759 1_555
Cs3 Se5 3.676573 1_556
Cs3 Se4 3.750039 1_555
Cs3 Se8 3.753639 1_655
Cs3 Se10 3.759530 1_556
Cs3 Se0 3.793146 1_556
Cs4 Se9 3.604133 1_555
Cs4 Se11 3.618759 1_555
Cs4 Se8 3.676573 1_554
Cs4 Se0 3.750039 1_555
Cs4 Se5 3.753639 1_455
Cs4 Se2 3.759530 1_554
Cs4 Se4 3.793146 1_554
Cs5 Se9 3.593727 1_655
Cs5 Se0 3.680237 1_555
Cs5 Se14 3.687748 1_565
Cs5 Se15 3.812263 1_555
Cs5 Se5 3.812263 1_555
Cs6 Se11 3.604133 1_565
Cs6 Se9 3.618759 1_555
Cs6 Se2 3.676573 1_564
Cs6 Se14 3.750039 1_465
Cs6 Se10 3.753639 1_555
Cs6 Se8 3.759530 1_554
Cs6 Se1 3.793146 1_554
Cs7 Se9 3.604133 1_555
Cs7 Se11 3.618759 1_555
Cs7 Se3 3.676573 1_555
Cs7 Se0 3.750039 1_555
Cs7 Se15 3.753639 1_455
Cs7 Se13 3.759530 1_555
Cs7 Se4 3.793146 1_555
Cs8 Se11 3.604133 1_565
Cs8 Se9 3.618759 1_555
Cs8 Se13 3.676573 1_565
Cs8 Se14 3.750039 1_465
Cs8 Se6 3.753639 1_555
Cs8 Se3 3.759530 1_555
Cs8 Se1 3.793146 1_555
Cs9 Se12 3.604133 1_555
Cs9 Se7 3.618759 1_555
Cs9 Se15 3.676573 1_555
Cs9 Se4 3.750039 1_555
Cs9 Se3 3.753639 1_655
Cs9 Se6 3.759530 1_555
Cs9 Se0 3.793146 1_555
Cs10 Se7 3.604133 1_545
Cs10 Se12 3.618759 1_555
Cs10 Se6 3.676573 1_545
Cs10 Se1 3.750039 1_645
Cs10 Se13 3.753639 1_555
Cs10 Se15 3.759530 1_555
Cs10 Se14 3.793146 1_555
Cs11 Se7 3.604133 1_545
Cs11 Se12 3.618759 1_555
Cs11 Se10 3.676573 1_546
Cs11 Se1 3.750039 1_645
Cs11 Se2 3.753639 1_555
Cs11 Se5 3.759530 1_556
Cs11 Se14 3.793146 1_556
P0 Se7 2.207186 1_555
P0 Se3 2.208797 1_655
P0 Se8 2.208797 1_655
P0 Se1 2.219058 1_655
P1 Se12 2.207186 1_555
P1 Se13 2.208797 1_555
P1 Se2 2.208797 1_555
P1 Se4 2.219058 1_555
P2 Se11 2.207186 1_555
P2 Se15 2.208797 1_455
P2 Se5 2.208797 1_455
P2 Se14 2.219058 1_455
P3 Se9 2.207186 1_555
P3 Se10 2.208797 1_555
P3 Se6 2.208797 1_555
P3 Se0 2.219058 1_555
