# generated using pymatgen
data_Cu3B7BrO13
_symmetry_space_group_name_H-M   'P 1'
_cell_length_a   8.54156142
_cell_length_b   8.54156142
_cell_length_c   8.54156142
_cell_angle_alpha   60.00000000
_cell_angle_beta   60.00000000
_cell_angle_gamma   60.00000000
_symmetry_Int_Tables_number   1
_chemical_formula_structural   Cu3B7BrO13
_chemical_formula_sum   'Cu6 B14 Br2 O26'
_cell_volume   440.65307603
_cell_formula_units_Z   2
loop_
 _symmetry_equiv_pos_site_id
 _symmetry_equiv_pos_as_xyz
  1  'x, y, z'
loop_
 _atom_site_type_symbol
 _atom_site_label
 _atom_site_symmetry_multiplicity
 _atom_site_fract_x
 _atom_site_fract_y
 _atom_site_fract_z
 _atom_site_occupancy
  Cu  Cu0  1  0.00000000  0.50000000  0.50000000  1
  Cu  Cu1  1  0.50000000  0.00000000  0.50000000  1
  Cu  Cu2  1  0.50000000  0.00000000  0.00000000  1
  Cu  Cu3  1  0.00000000  0.00000000  0.50000000  1
  Cu  Cu4  1  0.00000000  0.50000000  0.00000000  1
  Cu  Cu5  1  0.50000000  0.50000000  0.00000000  1
  B  B0  1  0.74279300  0.41906900  0.41906900  1
  B  B1  1  0.91906900  0.24279300  0.91906900  1
  B  B2  1  0.91906900  0.91906900  0.91906900  1
  B  B3  1  0.25000000  0.75000000  0.75000000  1
  B  B4  1  0.75000000  0.25000000  0.75000000  1
  B  B5  1  0.41906900  0.41906900  0.74279300  1
  B  B6  1  0.25000000  0.25000000  0.75000000  1
  B  B7  1  0.91906900  0.91906900  0.24279300  1
  B  B8  1  0.75000000  0.25000000  0.25000000  1
  B  B9  1  0.75000000  0.75000000  0.25000000  1
  B  B10  1  0.41906900  0.74279300  0.41906900  1
  B  B11  1  0.41906900  0.41906900  0.41906900  1
  B  B12  1  0.24279300  0.91906900  0.91906900  1
  B  B13  1  0.25000000  0.75000000  0.25000000  1
  Br  Br0  1  0.75000000  0.75000000  0.75000000  1
  Br  Br1  1  0.25000000  0.25000000  0.25000000  1
  O  O0  1  0.50000000  0.50000000  0.50000000  1
  O  O1  1  0.79628600  0.23932600  0.56407100  1
  O  O2  1  0.40031700  0.79628700  0.56407100  1
  O  O3  1  0.00000000  0.00000000  0.00000000  1
  O  O4  1  0.56407100  0.79628700  0.23932600  1
  O  O5  1  0.79628600  0.56407100  0.40031700  1
  O  O6  1  0.79628600  0.40031700  0.23932600  1
  O  O7  1  0.40031700  0.23932600  0.79628600  1
  O  O8  1  0.29628600  0.06407100  0.73932600  1
  O  O9  1  0.29628600  0.73932600  0.90031700  1
  O  O10  1  0.23932600  0.40031700  0.56407100  1
  O  O11  1  0.06407100  0.90031700  0.73932600  1
  O  O12  1  0.90031700  0.29628700  0.73932600  1
  O  O13  1  0.40031700  0.56407100  0.23932600  1
  O  O14  1  0.56407100  0.23932600  0.40031700  1
  O  O15  1  0.73932600  0.06407100  0.90031700  1
  O  O16  1  0.73932600  0.90031700  0.29628600  1
  O  O17  1  0.23932600  0.79628600  0.40031700  1
  O  O18  1  0.90031700  0.06407100  0.29628600  1
  O  O19  1  0.06407100  0.29628700  0.90031700  1
  O  O20  1  0.29628600  0.90031700  0.06407100  1
  O  O21  1  0.56407100  0.40031700  0.79628600  1
  O  O22  1  0.90031700  0.73932600  0.06407100  1
  O  O23  1  0.06407100  0.73932600  0.29628600  1
  O  O24  1  0.73932600  0.29628600  0.06407100  1
  O  O25  1  0.23932600  0.56407100  0.79628600  1
loop_
_geom_bond_atom_site_label_1
_geom_bond_atom_site_label_2
_geom_bond_distance
_geom_bond_site_symmetry_2
Cu0 O12 2.028667 1_455
Cu0 O10 2.028671 1_555
Cu0 O23 2.028671 1_555
Cu0 O5 2.028671 1_455
Cu1 O2 2.028663 1_545
Cu1 O14 2.028671 1_555
Cu1 O8 2.028671 1_555
Cu1 O16 2.028671 1_545
Cu2 O4 2.028670 1_545
Cu2 O15 2.028671 1_554
Cu2 O7 2.028671 1_554
Cu2 O20 2.028671 1_545
Cu3 O11 2.028671 1_545
Cu3 O1 2.028671 1_455
Cu3 O17 2.028671 1_545
Cu3 O18 2.028671 1_455
Cu4 O19 2.028663 1_554
Cu4 O22 2.028671 1_455
Cu4 O25 2.028671 1_554
Cu4 O6 2.028671 1_455
Cu5 O13 2.028671 1_555
Cu5 O24 2.028671 1_555
Cu5 O9 2.028671 1_554
Cu5 O21 2.028671 1_554
B0 O6 1.436231 1_555
B0 O1 1.436231 1_555
B0 O5 1.436231 1_555
B0 O0 1.693276 1_555
B1 O12 1.436228 1_555
B1 O24 1.436231 1_556
B1 O19 1.436237 1_655
B1 O3 1.693276 1_656
B2 O22 1.436231 1_556
B2 O15 1.436231 1_565
B2 O11 1.436231 1_655
B2 O3 1.693276 1_666
B3 O9 1.472288 1_555
B3 O11 1.472288 1_555
B3 O25 1.472288 1_555
B3 O2 1.472289 1_555
B4 O21 1.472288 1_555
B4 O15 1.472288 1_555
B4 O1 1.472288 1_555
B4 O12 1.472293 1_555
B5 O7 1.436231 1_555
B5 O25 1.436231 1_555
B5 O21 1.436231 1_555
B5 O0 1.693276 1_555
B6 O7 1.472288 1_555
B6 O10 1.472288 1_555
B6 O8 1.472288 1_555
B6 O19 1.472289 1_555
B7 O16 1.436231 1_555
B7 O23 1.436231 1_655
B7 O18 1.436231 1_565
B7 O3 1.693276 1_665
B8 O6 1.472288 1_555
B8 O18 1.472288 1_555
B8 O14 1.472288 1_555
B8 O24 1.472288 1_555
B9 O4 1.472285 1_555
B9 O16 1.472288 1_555
B9 O5 1.472288 1_555
B9 O22 1.472288 1_555
B10 O17 1.436231 1_555
B10 O4 1.436233 1_555
B10 O2 1.436237 1_555
B10 O0 1.693276 1_555
B11 O14 1.436231 1_555
B11 O13 1.436231 1_555
B11 O10 1.436231 1_555
B11 O0 1.693276 1_555
B12 O9 1.436231 1_555
B12 O8 1.436231 1_565
B12 O20 1.436231 1_556
B12 O3 1.693276 1_566
B13 O17 1.472288 1_555
B13 O20 1.472288 1_555
B13 O13 1.472288 1_555
B13 O23 1.472288 1_555
Br0 Cu0 3.019898 1_655
Br0 Cu5 3.019898 1_556
Br0 Cu1 3.019898 1_565
Br0 Cu3 3.019898 1_665
Br0 Cu4 3.019898 1_656
Br0 Cu2 3.019898 1_566
Br1 Cu4 3.019898 1_555
Br1 Cu1 3.019898 1_555
Br1 Cu5 3.019898 1_555
Br1 Cu2 3.019898 1_555
Br1 Cu3 3.019898 1_555
Br1 Cu0 3.019898 1_555
