# generated using pymatgen
data_MgSnAu
_symmetry_space_group_name_H-M   'P 1'
_cell_length_a   4.55283989
_cell_length_b   4.55283983
_cell_length_c   4.55283901
_cell_angle_alpha   60.00000603
_cell_angle_beta   60.00000646
_cell_angle_gamma   60.00001235
_symmetry_Int_Tables_number   1
_chemical_formula_structural   MgSnAu
_chemical_formula_sum   'Mg1 Sn1 Au1'
_cell_volume   66.73169052
_cell_formula_units_Z   1
loop_
 _symmetry_equiv_pos_site_id
 _symmetry_equiv_pos_as_xyz
  1  'x, y, z'
loop_
 _atom_site_type_symbol
 _atom_site_label
 _atom_site_symmetry_multiplicity
 _atom_site_fract_x
 _atom_site_fract_y
 _atom_site_fract_z
 _atom_site_occupancy
  Mg  Mg0  1  0.00000000  0.00000000  0.00000000  1
  Sn  Sn0  1  0.50000000  0.50000000  0.50000000  1
  Au  Au0  1  0.25000000  0.25000000  0.25000000  1
loop_
_geom_bond_atom_site_label_1
_geom_bond_atom_site_label_2
_geom_bond_distance
_geom_bond_site_symmetry_2
Mg0 Sn0 3.219344 1_455
Mg0 Sn0 3.219344 1_544
Mg0 Sn0 3.219344 1_454
Mg0 Sn0 3.219344 1_545
Mg0 Sn0 3.219344 1_554
Mg0 Sn0 3.219344 1_445
Au0 Sn0 2.788033 1_555
Au0 Mg0 2.788033 1_555
Au0 Mg0 2.788033 1_556
Au0 Sn0 2.788033 1_554
Au0 Mg0 2.788034 1_565
Au0 Sn0 2.788034 1_545
Au0 Mg0 2.788034 1_655
Au0 Sn0 2.788034 1_455
