# generated using pymatgen
data_Sr3Bi(ClO)3
_symmetry_space_group_name_H-M   'P 1'
_cell_length_a   6.76145400
_cell_length_b   11.57798400
_cell_length_c   11.94254200
_cell_angle_alpha   90.00000000
_cell_angle_beta   90.00000000
_cell_angle_gamma   90.00000000
_symmetry_Int_Tables_number   1
_chemical_formula_structural   Sr3Bi(ClO)3
_chemical_formula_sum   'Sr12 Bi4 Cl12 O12'
_cell_volume   934.91003231
_cell_formula_units_Z   4
loop_
 _symmetry_equiv_pos_site_id
 _symmetry_equiv_pos_as_xyz
  1  'x, y, z'
loop_
 _atom_site_type_symbol
 _atom_site_label
 _atom_site_symmetry_multiplicity
 _atom_site_fract_x
 _atom_site_fract_y
 _atom_site_fract_z
 _atom_site_occupancy
  Sr  Sr0  1  0.33328300  0.42938600  0.11009800  1
  Sr  Sr1  1  0.84440300  0.25000000  0.03257500  1
  Sr  Sr2  1  0.83328300  0.42938600  0.38990200  1
  Sr  Sr3  1  0.66671700  0.57061400  0.88990200  1
  Sr  Sr4  1  0.83328300  0.07061400  0.38990200  1
  Sr  Sr5  1  0.16671700  0.92938600  0.61009800  1
  Sr  Sr6  1  0.65559700  0.75000000  0.53257500  1
  Sr  Sr7  1  0.66671700  0.92938600  0.88990200  1
  Sr  Sr8  1  0.33328300  0.07061400  0.11009800  1
  Sr  Sr9  1  0.16671700  0.57061400  0.61009800  1
  Sr  Sr10  1  0.34440300  0.25000000  0.46742500  1
  Sr  Sr11  1  0.15559700  0.75000000  0.96742500  1
  Bi  Bi0  1  0.59954500  0.75000000  0.12659700  1
  Bi  Bi1  1  0.90045500  0.25000000  0.62659700  1
  Bi  Bi2  1  0.40045500  0.25000000  0.87340300  1
  Bi  Bi3  1  0.09954500  0.75000000  0.37340300  1
  Cl  Cl0  1  0.09348400  0.00538400  0.85416100  1
  Cl  Cl1  1  0.58575400  0.25000000  0.22772500  1
  Cl  Cl2  1  0.09348400  0.49461600  0.85416100  1
  Cl  Cl3  1  0.08575400  0.25000000  0.27227500  1
  Cl  Cl4  1  0.90651600  0.99461600  0.14583900  1
  Cl  Cl5  1  0.59348400  0.00538400  0.64583900  1
  Cl  Cl6  1  0.90651600  0.50538400  0.14583900  1
  Cl  Cl7  1  0.40651600  0.99461600  0.35416100  1
  Cl  Cl8  1  0.59348400  0.49461600  0.64583900  1
  Cl  Cl9  1  0.41424600  0.75000000  0.77227500  1
  Cl  Cl10  1  0.40651600  0.50538400  0.35416100  1
  Cl  Cl11  1  0.91424600  0.75000000  0.72772500  1
  O  O0  1  0.57875400  0.12281500  0.95166800  1
  O  O1  1  0.42124600  0.62281500  0.04833200  1
  O  O2  1  0.92124600  0.87718500  0.45166800  1
  O  O3  1  0.20430400  0.25000000  0.01033900  1
  O  O4  1  0.79569600  0.75000000  0.98966100  1
  O  O5  1  0.07875300  0.37718500  0.54833200  1
  O  O6  1  0.70430400  0.25000000  0.48966100  1
  O  O7  1  0.29569600  0.75000000  0.51033900  1
  O  O8  1  0.92124600  0.62281500  0.45166800  1
  O  O9  1  0.07875300  0.12281500  0.54833200  1
  O  O10  1  0.57875400  0.37718500  0.95166800  1
  O  O11  1  0.42124600  0.87718500  0.04833200  1
loop_
_geom_bond_atom_site_label_1
_geom_bond_atom_site_label_2
_geom_bond_distance
_geom_bond_site_symmetry_2
Bi0 O4 2.105563 1_554
Bi0 O1 2.120236 1_555
Bi0 O11 2.120236 1_555
Bi1 O6 2.105563 1_555
Bi1 O5 2.120232 1_655
Bi1 O9 2.120232 1_655
Bi2 O3 2.105563 1_556
Bi2 O0 2.120236 1_555
Bi2 O10 2.120236 1_555
Bi3 O7 2.105563 1_555
Bi3 O2 2.120236 1_455
Bi3 O8 2.120236 1_455
Cl0 Sr7 3.046787 1_445
Cl0 Sr5 3.084653 1_545
Cl0 Sr11 3.278555 1_545
Cl0 Sr8 3.541427 1_556
Cl1 Sr1 2.913776 1_555
Cl1 Sr8 3.033330 1_555
Cl1 Sr0 3.033330 1_555
Cl1 Sr10 3.295099 1_555
Cl1 Sr4 3.296357 1_555
Cl1 Sr2 3.296357 1_555
Cl2 Sr3 3.046787 1_455
Cl2 Sr9 3.084653 1_555
Cl2 Sr11 3.278555 1_555
Cl2 Sr0 3.541427 1_556
Cl3 Sr10 2.913776 1_555
Cl3 Sr4 3.033330 1_455
Cl3 Sr2 3.033330 1_455
Cl3 Sr1 3.295099 1_455
Cl3 Sr8 3.296357 1_555
Cl3 Sr0 3.296357 1_555
Cl4 Sr8 3.046787 1_665
Cl4 Sr4 3.084653 1_565
Cl4 Sr1 3.278555 1_565
Cl4 Sr7 3.541427 1_554
Cl5 Sr5 3.046787 1_545
Cl5 Sr7 3.084653 1_545
Cl5 Sr6 3.278555 1_545
Cl5 Sr4 3.541427 1_555
Cl6 Sr0 3.046787 1_655
Cl6 Sr2 3.084653 1_555
Cl6 Sr1 3.278555 1_555
Cl6 Sr3 3.541427 1_554
Cl7 Sr4 3.046787 1_565
Cl7 Sr8 3.084653 1_565
Cl7 Sr10 3.278555 1_565
Cl7 Sr5 3.541427 1_555
Cl8 Sr9 3.046787 1_555
Cl8 Sr3 3.084653 1_555
Cl8 Sr6 3.278555 1_555
Cl8 Sr2 3.541427 1_555
Cl9 Sr11 2.913776 1_555
Cl9 Sr3 3.033330 1_555
Cl9 Sr7 3.033330 1_555
Cl9 Sr6 3.295099 1_555
Cl9 Sr9 3.296357 1_555
Cl9 Sr5 3.296357 1_555
Cl10 Sr2 3.046787 1_555
Cl10 Sr0 3.084653 1_555
Cl10 Sr10 3.278555 1_555
Cl10 Sr9 3.541427 1_555
Cl11 Sr6 2.913776 1_555
Cl11 Sr5 3.033330 1_655
Cl11 Sr9 3.033330 1_655
Cl11 Sr11 3.295099 1_655
Cl11 Sr3 3.296357 1_555
Cl11 Sr7 3.296357 1_555
O0 Sr7 2.431727 1_545
O0 Sr1 2.515600 1_556
O0 Sr8 2.588416 1_556
O1 Sr0 2.431727 1_555
O1 Sr11 2.515600 1_554
O1 Sr3 2.588416 1_554
O2 Sr4 2.431727 1_565
O2 Sr6 2.515600 1_555
O2 Sr5 2.588416 1_655
O3 Sr1 2.447901 1_455
O3 Sr0 2.548243 1_555
O3 Sr8 2.548243 1_555
O4 Sr11 2.447901 1_655
O4 Sr3 2.548243 1_555
O4 Sr7 2.548243 1_555
O5 Sr9 2.431728 1_555
O5 Sr10 2.515604 1_555
O5 Sr2 2.588412 1_455
O6 Sr10 2.447901 1_555
O6 Sr4 2.548243 1_555
O6 Sr2 2.548243 1_555
O7 Sr6 2.447901 1_555
O7 Sr5 2.548243 1_555
O7 Sr9 2.548243 1_555
O8 Sr2 2.431727 1_555
O8 Sr6 2.515600 1_555
O8 Sr9 2.588416 1_655
O9 Sr5 2.431728 1_545
O9 Sr10 2.515604 1_555
O9 Sr4 2.588412 1_455
O10 Sr3 2.431727 1_555
O10 Sr1 2.515600 1_556
O10 Sr0 2.588416 1_556
O11 Sr8 2.431727 1_565
O11 Sr11 2.515600 1_554
O11 Sr7 2.588416 1_554
