# generated using pymatgen
data_LiAlB2O5
_symmetry_space_group_name_H-M   'P 1'
_cell_length_a   7.16463995
_cell_length_b   7.16463995
_cell_length_c   9.46906120
_cell_angle_alpha   69.24688494
_cell_angle_beta   69.24688494
_cell_angle_gamma   90.70907601
_symmetry_Int_Tables_number   1
_chemical_formula_structural   LiAlB2O5
_chemical_formula_sum   'Li4 Al4 B8 O20'
_cell_volume   419.71575169
_cell_formula_units_Z   4
loop_
 _symmetry_equiv_pos_site_id
 _symmetry_equiv_pos_as_xyz
  1  'x, y, z'
loop_
 _atom_site_type_symbol
 _atom_site_label
 _atom_site_symmetry_multiplicity
 _atom_site_fract_x
 _atom_site_fract_y
 _atom_site_fract_z
 _atom_site_occupancy
  Li  Li0  1  0.37670100  0.62329900  0.75000000  1
  Li  Li1  1  0.62329900  0.37670100  0.25000000  1
  Li  Li2  1  0.16028300  0.83971700  0.25000000  1
  Li  Li3  1  0.83971700  0.16028300  0.75000000  1
  Al  Al0  1  0.04384900  0.34647400  0.34789200  1
  Al  Al1  1  0.95615100  0.65352600  0.65210800  1
  Al  Al2  1  0.65352600  0.95615100  0.15210800  1
  Al  Al3  1  0.34647400  0.04384900  0.84789200  1
  B  B0  1  0.23791000  0.22796400  0.09166900  1
  B  B1  1  0.77203600  0.76209000  0.40833100  1
  B  B2  1  0.73999300  0.39630900  0.97139500  1
  B  B3  1  0.60369100  0.26000700  0.52860500  1
  B  B4  1  0.39630900  0.73999300  0.47139500  1
  B  B5  1  0.26000700  0.60369100  0.02860500  1
  B  B6  1  0.76209000  0.77203600  0.90833100  1
  B  B7  1  0.22796400  0.23791000  0.59166900  1
  O  O0  1  0.33156500  0.78104700  0.89432600  1
  O  O1  1  0.91719600  0.70679600  0.47051800  1
  O  O2  1  0.29320400  0.08280400  0.02948200  1
  O  O3  1  0.71408600  0.56633800  0.01766800  1
  O  O4  1  0.82780200  0.41506500  0.81306300  1
  O  O5  1  0.41506500  0.82780200  0.31306300  1
  O  O6  1  0.17219800  0.58493500  0.18693700  1
  O  O7  1  0.70679600  0.91719600  0.97051800  1
  O  O8  1  0.14033000  0.17518800  0.25499900  1
  O  O9  1  0.58493500  0.17219800  0.68693700  1
  O  O10  1  0.78104700  0.33156500  0.39432600  1
  O  O11  1  0.82481200  0.85967000  0.24500100  1
  O  O12  1  0.17518800  0.14033000  0.75499900  1
  O  O13  1  0.43366200  0.28591400  0.48233200  1
  O  O14  1  0.08280400  0.29320400  0.52948200  1
  O  O15  1  0.21895300  0.66843500  0.60567400  1
  O  O16  1  0.56633800  0.71408600  0.51766800  1
  O  O17  1  0.85967000  0.82481200  0.74500100  1
  O  O18  1  0.28591400  0.43366200  0.98233200  1
  O  O19  1  0.66843500  0.21895300  0.10567400  1
loop_
_geom_bond_atom_site_label_1
_geom_bond_atom_site_label_2
_geom_bond_distance
_geom_bond_site_symmetry_2
Li0 O16 1.988637 1_555
Li0 O18 1.988637 1_555
Li0 O0 2.009998 1_555
Li0 O15 2.009998 1_555
Li1 O3 1.988637 1_555
Li1 O13 1.988637 1_555
Li1 O19 2.009998 1_555
Li1 O10 2.009998 1_555
Li2 O2 2.067072 1_565
Li2 O1 2.067072 1_455
Li2 O5 2.106244 1_555
Li2 O6 2.106244 1_555
Li2 O8 2.425689 1_565
Li2 O11 2.425689 1_455
Li3 O14 2.067072 1_655
Li3 O7 2.067072 1_545
Li3 O4 2.106244 1_555
Li3 O9 2.106244 1_555
Li3 O12 2.425689 1_655
Li3 O17 2.425689 1_545
Al0 O14 1.748672 1_555
Al0 O8 1.764272 1_555
Al0 O10 1.767770 1_455
Al0 O6 1.791633 1_555
Al1 O1 1.748672 1_555
Al1 O17 1.764272 1_555
Al1 O15 1.767770 1_655
Al1 O4 1.791633 1_555
Al2 O7 1.748672 1_554
Al2 O11 1.764272 1_555
Al2 O19 1.767770 1_565
Al2 O5 1.791633 1_555
Al3 O2 1.748672 1_556
Al3 O12 1.764272 1_555
Al3 O0 1.767770 1_545
Al3 O9 1.791633 1_555
B0 O8 1.355146 1_555
B0 O2 1.365363 1_555
B0 O18 1.419829 1_554
B1 O11 1.355146 1_555
B1 O1 1.365363 1_555
B1 O16 1.419829 1_555
B2 O4 1.359525 1_555
B2 O19 1.367882 1_556
B2 O3 1.427121 1_556
B3 O9 1.359525 1_555
B3 O10 1.367882 1_555
B3 O13 1.427121 1_555
B4 O5 1.359525 1_555
B4 O15 1.367882 1_555
B4 O16 1.427121 1_555
B5 O6 1.359525 1_555
B5 O0 1.367882 1_554
B5 O18 1.427121 1_554
B6 O17 1.355146 1_555
B6 O7 1.365363 1_555
B6 O3 1.419829 1_556
B7 O12 1.355146 1_555
B7 O14 1.365363 1_555
B7 O13 1.419829 1_555
