# generated using pymatgen
data_KDy(SeO4)2
_symmetry_space_group_name_H-M   'P 1'
_cell_length_a   5.72349500
_cell_length_b   9.10603400
_cell_length_c   27.83296000
_cell_angle_alpha   90.00000000
_cell_angle_beta   90.00000000
_cell_angle_gamma   90.00000000
_symmetry_Int_Tables_number   1
_chemical_formula_structural   KDy(SeO4)2
_chemical_formula_sum   'K8 Dy8 Se16 O64'
_cell_volume   1450.60767440
_cell_formula_units_Z   8
loop_
 _symmetry_equiv_pos_site_id
 _symmetry_equiv_pos_as_xyz
  1  'x, y, z'
loop_
 _atom_site_type_symbol
 _atom_site_label
 _atom_site_symmetry_multiplicity
 _atom_site_fract_x
 _atom_site_fract_y
 _atom_site_fract_z
 _atom_site_occupancy
  K  K0  1  0.28413100  0.78291700  0.33299600  1
  K  K1  1  0.74547100  0.44938800  0.91810600  1
  K  K2  1  0.78413100  0.28291700  0.16700400  1
  K  K3  1  0.75452900  0.44938800  0.41810600  1
  K  K4  1  0.25452900  0.94938800  0.08189400  1
  K  K5  1  0.21586900  0.78291700  0.83299600  1
  K  K6  1  0.71586900  0.28291700  0.66700400  1
  K  K7  1  0.24547100  0.94938800  0.58189400  1
  Dy  Dy0  1  0.27683300  0.41806600  0.05267700  1
  Dy  Dy1  1  0.72316700  0.91806600  0.94732300  1
  Dy  Dy2  1  0.77683300  0.91806600  0.44732300  1
  Dy  Dy3  1  0.32490100  0.32248800  0.30084700  1
  Dy  Dy4  1  0.82490100  0.82248800  0.19915300  1
  Dy  Dy5  1  0.17509900  0.32248800  0.80084700  1
  Dy  Dy6  1  0.67509900  0.82248800  0.69915300  1
  Dy  Dy7  1  0.22316700  0.41806600  0.55267700  1
  Se  Se0  1  0.81031000  0.05554100  0.31707400  1
  Se  Se1  1  0.21018100  0.02108800  0.70762500  1
  Se  Se2  1  0.23655200  0.71740100  0.45619600  1
  Se  Se3  1  0.71018100  0.52108800  0.79237500  1
  Se  Se4  1  0.68969000  0.05554100  0.81707400  1
  Se  Se5  1  0.73655200  0.21740100  0.04380400  1
  Se  Se6  1  0.78981900  0.52108800  0.29237500  1
  Se  Se7  1  0.73239600  0.68834200  0.56665400  1
  Se  Se8  1  0.23239600  0.18834200  0.93334600  1
  Se  Se9  1  0.26344800  0.71740100  0.95619600  1
  Se  Se10  1  0.76344800  0.21740100  0.54380400  1
  Se  Se11  1  0.28981900  0.02108800  0.20762500  1
  Se  Se12  1  0.31031000  0.55554100  0.18292600  1
  Se  Se13  1  0.76760400  0.68834200  0.06665400  1
  Se  Se14  1  0.18969000  0.55554100  0.68292600  1
  Se  Se15  1  0.26760400  0.18834200  0.43334600  1
  O  O0  1  0.79853900  0.91903100  0.35711500  1
  O  O1  1  0.70146100  0.91903100  0.85711500  1
  O  O2  1  0.00481300  0.62274000  0.57190800  1
  O  O3  1  0.25682100  0.49247400  0.73767800  1
  O  O4  1  0.19899300  0.32347600  0.89331900  1
  O  O5  1  0.29853900  0.41903100  0.14288500  1
  O  O6  1  0.95875100  0.55344600  0.07645100  1
  O  O7  1  0.18750800  0.25155300  0.98897700  1
  O  O8  1  0.33359300  0.86148500  0.99062000  1
  O  O9  1  0.51869200  0.24220400  0.57604800  1
  O  O10  1  0.16640700  0.86148500  0.49062000  1
  O  O11  1  0.74317900  0.99247400  0.26232200  1
  O  O12  1  0.68750800  0.75155300  0.51102300  1
  O  O13  1  0.97795800  0.97831200  0.67348700  1
  O  O14  1  0.99518700  0.12274000  0.42809200  1
  O  O15  1  0.94585100  0.52579000  0.82892600  1
  O  O16  1  0.30100700  0.32347600  0.39331900  1
  O  O17  1  0.33199900  0.18849600  0.23014800  1
  O  O18  1  0.04124900  0.05344600  0.92354900  1
  O  O19  1  0.47795800  0.47831200  0.82651300  1
  O  O20  1  0.02204200  0.47831200  0.32651300  1
  O  O21  1  0.50915800  0.21622500  0.08253500  1
  O  O22  1  0.24317900  0.49247400  0.23767800  1
  O  O23  1  0.11614900  0.68444000  0.16817500  1
  O  O24  1  0.54124900  0.55344600  0.57645100  1
  O  O25  1  0.77562200  0.38582900  0.75457200  1
  O  O26  1  0.27562200  0.88582900  0.74542800  1
  O  O27  1  0.01869200  0.74220400  0.92395200  1
  O  O28  1  0.66800100  0.68849600  0.76985200  1
  O  O29  1  0.45875100  0.05344600  0.42354900  1
  O  O30  1  0.07856000  0.12795000  0.31727600  1
  O  O31  1  0.75682100  0.99247400  0.76232200  1
  O  O32  1  0.16800100  0.18849600  0.73014800  1
  O  O33  1  0.50481300  0.12274000  0.92809200  1
  O  O34  1  0.83359300  0.36148500  0.50938000  1
  O  O35  1  0.92144000  0.62795000  0.68272400  1
  O  O36  1  0.98130800  0.24220400  0.07604800  1
  O  O37  1  0.31249200  0.25155300  0.48897700  1
  O  O38  1  0.66640700  0.36148500  0.00938000  1
  O  O39  1  0.69899300  0.82347600  0.60668100  1
  O  O40  1  0.99084200  0.21622500  0.58253500  1
  O  O41  1  0.48130800  0.74220400  0.42395200  1
  O  O42  1  0.83199900  0.68849600  0.26985200  1
  O  O43  1  0.00915800  0.71622500  0.41746500  1
  O  O44  1  0.20146100  0.41903100  0.64288500  1
  O  O45  1  0.75449800  0.05421600  0.01728900  1
  O  O46  1  0.44585100  0.02579000  0.67107400  1
  O  O47  1  0.22437800  0.88582900  0.24542800  1
  O  O48  1  0.38385100  0.68444000  0.66817500  1
  O  O49  1  0.57856000  0.62795000  0.18272400  1
  O  O50  1  0.88385100  0.18444000  0.83182500  1
  O  O51  1  0.61614900  0.18444000  0.33182500  1
  O  O52  1  0.81249200  0.75155300  0.01102300  1
  O  O53  1  0.05414900  0.02579000  0.17107400  1
  O  O54  1  0.55414900  0.52579000  0.32892600  1
  O  O55  1  0.49518700  0.62274000  0.07190800  1
  O  O56  1  0.72437800  0.38582900  0.25457200  1
  O  O57  1  0.25449800  0.55421600  0.48271100  1
  O  O58  1  0.24550200  0.55421600  0.98271100  1
  O  O59  1  0.80100700  0.82347600  0.10668100  1
  O  O60  1  0.52204200  0.97831200  0.17348700  1
  O  O61  1  0.74550200  0.05421600  0.51728900  1
  O  O62  1  0.49084200  0.71622500  0.91746500  1
  O  O63  1  0.42144000  0.12795000  0.81727600  1
loop_
_geom_bond_atom_site_label_1
_geom_bond_atom_site_label_2
_geom_bond_distance
_geom_bond_site_symmetry_2
K0 O47 2.633529 1_555
K0 O41 2.796412 1_555
K0 O54 2.807744 1_555
K0 O43 2.893611 1_555
K0 O0 3.116299 1_455
K0 O20 3.158545 1_555
K0 O42 3.244162 1_455
K0 O0 3.264244 1_555
K0 O30 3.383373 1_565
K1 O38 2.701713 1_556
K1 O15 2.821415 1_555
K1 O62 2.833425 1_555
K1 O4 2.920338 1_655
K1 O19 2.985401 1_555
K1 O27 3.095404 1_655
K1 O33 3.289674 1_555
K2 O56 2.633529 1_555
K2 O36 2.796412 1_555
K2 O53 2.807744 1_655
K2 O21 2.893611 1_555
K2 O5 3.116299 1_555
K2 O60 3.158545 1_545
K2 O17 3.244162 1_555
K2 O5 3.264244 1_655
K2 O49 3.383373 1_555
K3 O34 2.701713 1_555
K3 O54 2.821415 1_555
K3 O43 2.833425 1_655
K3 O16 2.920338 1_555
K3 O20 2.985401 1_655
K3 O41 3.095404 1_555
K3 O14 3.289674 1_555
K4 O8 2.701713 1_554
K4 O53 2.821415 1_565
K4 O21 2.833425 1_565
K4 O59 2.920338 1_455
K4 O60 2.985401 1_555
K4 O36 3.095404 1_465
K4 O55 3.289674 1_555
K5 O26 2.633529 1_555
K5 O27 2.796412 1_555
K5 O15 2.807744 1_455
K5 O62 2.893611 1_555
K5 O1 3.116299 1_555
K5 O19 3.158545 1_555
K5 O28 3.244162 1_555
K5 O1 3.264244 1_455
K5 O63 3.383373 1_565
K6 O25 2.633529 1_555
K6 O9 2.796412 1_555
K6 O46 2.807744 1_555
K6 O40 2.893611 1_555
K6 O44 3.116299 1_655
K6 O13 3.158545 1_545
K6 O32 3.244162 1_655
K6 O44 3.264244 1_555
K6 O35 3.383373 1_555
K7 O10 2.701713 1_555
K7 O46 2.821415 1_565
K7 O40 2.833425 1_465
K7 O39 2.920338 1_555
K7 O13 2.985401 1_455
K7 O9 3.095404 1_565
K7 O2 3.289674 1_555
Dy0 O6 2.296073 1_455
Dy0 O55 2.306946 1_555
Dy0 O58 2.315479 1_554
Dy0 O7 2.388273 1_554
Dy0 O21 2.415966 1_555
Dy0 O36 2.418385 1_455
Dy0 O5 2.513843 1_555
Dy0 O38 2.586380 1_555
Dy1 O18 2.296073 1_665
Dy1 O33 2.306946 1_565
Dy1 O45 2.315479 1_566
Dy1 O52 2.388273 1_556
Dy1 O62 2.415966 1_555
Dy1 O27 2.418385 1_655
Dy1 O1 2.513843 1_555
Dy1 O8 2.586380 1_555
Dy2 O29 2.296073 1_565
Dy2 O14 2.306946 1_565
Dy2 O61 2.315479 1_565
Dy2 O12 2.388273 1_555
Dy2 O43 2.415966 1_655
Dy2 O41 2.418385 1_555
Dy2 O0 2.513843 1_555
Dy2 O10 2.586380 1_655
Dy3 O51 2.258843 1_555
Dy3 O30 2.309785 1_555
Dy3 O17 2.315701 1_555
Dy3 O20 2.351258 1_555
Dy3 O22 2.388716 1_555
Dy3 O54 2.399917 1_555
Dy3 O16 2.577416 1_555
Dy3 O56 2.686856 1_555
Dy4 O23 2.258843 1_655
Dy4 O49 2.309785 1_555
Dy4 O42 2.315701 1_555
Dy4 O60 2.351258 1_555
Dy4 O11 2.388716 1_555
Dy4 O53 2.399917 1_665
Dy4 O59 2.577416 1_555
Dy4 O47 2.686856 1_655
Dy5 O50 2.258843 1_455
Dy5 O63 2.309785 1_555
Dy5 O32 2.315701 1_555
Dy5 O19 2.351258 1_555
Dy5 O3 2.388716 1_555
Dy5 O15 2.399917 1_455
Dy5 O4 2.577416 1_555
Dy5 O25 2.686856 1_455
Dy6 O48 2.258843 1_555
Dy6 O35 2.309785 1_555
Dy6 O28 2.315701 1_555
Dy6 O13 2.351258 1_555
Dy6 O31 2.388716 1_555
Dy6 O46 2.399917 1_565
Dy6 O39 2.577416 1_555
Dy6 O26 2.686856 1_555
Dy7 O24 2.296073 1_555
Dy7 O2 2.306946 1_555
Dy7 O57 2.315479 1_555
Dy7 O37 2.388273 1_555
Dy7 O40 2.415966 1_455
Dy7 O9 2.418385 1_555
Dy7 O44 2.513843 1_555
Dy7 O34 2.586380 1_455
O0 Se0 1.670859 1_565
O1 Se4 1.670859 1_565
O2 Se7 1.676089 1_455
O3 Se14 1.673242 1_555
O4 Se8 1.670903 1_555
O5 Se12 1.670859 1_555
O6 Se13 1.667375 1_555
O7 Se8 1.671762 1_555
O8 Se9 1.673503 1_555
O9 Se10 1.678937 1_555
O10 Se2 1.673503 1_555
O11 Se0 1.673242 1_565
O12 Se7 1.671762 1_555
O13 Se1 1.679617 1_665
O14 Se15 1.676089 1_655
O15 Se3 1.690027 1_555
O16 Se15 1.670903 1_555
O17 Se11 1.665872 1_555
O18 Se8 1.667375 1_555
O19 Se3 1.679617 1_555
O20 Se6 1.679617 1_455
O21 Se5 1.689990 1_555
O22 Se12 1.673242 1_555
O23 Se12 1.667697 1_555
O24 Se7 1.667375 1_555
O25 Se3 1.662639 1_555
O26 Se1 1.662639 1_565
O27 Se9 1.678937 1_555
O28 Se3 1.665872 1_555
O29 Se15 1.667375 1_555
O30 Se0 1.670933 1_455
O31 Se4 1.673242 1_565
O32 Se1 1.665872 1_555
O33 Se8 1.676089 1_555
O34 Se10 1.673503 1_555
O35 Se14 1.670933 1_655
O36 Se5 1.678937 1_555
O37 Se15 1.671762 1_555
O38 Se5 1.673503 1_555
O39 Se7 1.670903 1_555
O40 Se10 1.689990 1_555
O41 Se2 1.678937 1_555
O42 Se6 1.665872 1_555
O43 Se2 1.689990 1_555
O44 Se14 1.670859 1_555
O45 Se5 1.662312 1_555
O46 Se1 1.690027 1_555
O47 Se11 1.662639 1_565
O48 Se14 1.667697 1_555
O49 Se12 1.670933 1_555
O50 Se4 1.667697 1_555
O51 Se0 1.667697 1_555
O52 Se13 1.671762 1_555
O53 Se11 1.690027 1_555
O54 Se6 1.690027 1_555
O55 Se13 1.676089 1_555
O56 Se6 1.662639 1_555
O57 Se2 1.662312 1_555
O58 Se9 1.662312 1_555
O59 Se13 1.670903 1_555
O60 Se11 1.679617 1_565
O61 Se10 1.662312 1_555
O62 Se9 1.689990 1_555
O63 Se4 1.670933 1_555
