# generated using pymatgen
data_K9Li3I2O13
_symmetry_space_group_name_H-M   'P 1'
_cell_length_a   9.52925036
_cell_length_b   9.52925036
_cell_length_c   11.75329300
_cell_angle_alpha   90.00000000
_cell_angle_beta   90.00000000
_cell_angle_gamma   120.00000253
_symmetry_Int_Tables_number   1
_chemical_formula_structural   K9Li3I2O13
_chemical_formula_sum   'K18 Li6 I4 O26'
_cell_volume   924.28873157
_cell_formula_units_Z   2
loop_
 _symmetry_equiv_pos_site_id
 _symmetry_equiv_pos_as_xyz
  1  'x, y, z'
loop_
 _atom_site_type_symbol
 _atom_site_label
 _atom_site_symmetry_multiplicity
 _atom_site_fract_x
 _atom_site_fract_y
 _atom_site_fract_z
 _atom_site_occupancy
  K  K0  1  0.54976400  0.89774500  0.25000000  1
  K  K1  1  0.45023600  0.34798100  0.75000000  1
  K  K2  1  0.65201900  0.10225500  0.75000000  1
  K  K3  1  0.77999800  0.00000000  0.00000000  1
  K  K4  1  0.89774500  0.54976400  0.75000000  1
  K  K5  1  0.00000000  0.77999800  0.00000000  1
  K  K6  1  0.37470100  0.10748700  0.25000000  1
  K  K7  1  0.34798100  0.45023600  0.25000000  1
  K  K8  1  0.77999800  0.00000000  0.50000000  1
  K  K9  1  0.73278600  0.62529900  0.25000000  1
  K  K10  1  0.89251300  0.26721400  0.25000000  1
  K  K11  1  0.10225500  0.65201900  0.25000000  1
  K  K12  1  0.62529900  0.73278600  0.75000000  1
  K  K13  1  0.00000000  0.77999800  0.50000000  1
  K  K14  1  0.26721400  0.89251300  0.75000000  1
  K  K15  1  0.10748700  0.37470100  0.75000000  1
  K  K16  1  0.22000200  0.22000200  0.50000000  1
  K  K17  1  0.22000200  0.22000200  0.00000000  1
  Li  Li0  1  0.54030900  0.54030900  0.00000000  1
  Li  Li1  1  0.45969100  0.00000000  0.00000000  1
  Li  Li2  1  0.54030900  0.54030900  0.50000000  1
  Li  Li3  1  0.00000000  0.45969100  0.50000000  1
  Li  Li4  1  0.45969100  0.00000000  0.50000000  1
  Li  Li5  1  0.00000000  0.45969100  0.00000000  1
  I  I0  1  0.33333300  0.66666700  0.99040700  1
  I  I1  1  0.66666700  0.33333300  0.00959300  1
  I  I2  1  0.66666700  0.33333300  0.49040700  1
  I  I3  1  0.33333300  0.66666700  0.50959300  1
  O  O0  1  0.30168300  0.81571700  0.08380800  1
  O  O1  1  0.48596600  0.18428300  0.91619200  1
  O  O2  1  0.18428300  0.48596600  0.41619200  1
  O  O3  1  0.15181500  0.63213200  0.60069200  1
  O  O4  1  0.48031700  0.84818500  0.89930800  1
  O  O5  1  0.51968300  0.36786800  0.10069200  1
  O  O6  1  0.81571700  0.30168300  0.58380800  1
  O  O7  1  0.36786800  0.51968300  0.60069200  1
  O  O8  1  0.69831700  0.51403400  0.91619200  1
  O  O9  1  0.30168300  0.81571700  0.41619200  1
  O  O10  1  0.18428300  0.48596600  0.08380800  1
  O  O11  1  0.51968300  0.36786800  0.39930800  1
  O  O12  1  0.84818500  0.48031700  0.10069200  1
  O  O13  1  0.48596600  0.18428300  0.58380800  1
  O  O14  1  0.15181500  0.63213200  0.89930800  1
  O  O15  1  0.63213200  0.15181500  0.10069200  1
  O  O16  1  0.36786800  0.51968300  0.89930800  1
  O  O17  1  0.51403400  0.69831700  0.41619200  1
  O  O18  1  0.00000000  0.00000000  0.25000000  1
  O  O19  1  0.48031700  0.84818500  0.60069200  1
  O  O20  1  0.69831700  0.51403400  0.58380800  1
  O  O21  1  0.81571700  0.30168300  0.91619200  1
  O  O22  1  0.51403400  0.69831700  0.08380800  1
  O  O23  1  0.63213200  0.15181500  0.39930800  1
  O  O24  1  0.00000000  0.00000000  0.75000000  1
  O  O25  1  0.84818500  0.48031700  0.39930800  1
loop_
_geom_bond_atom_site_label_1
_geom_bond_atom_site_label_2
_geom_bond_distance
_geom_bond_site_symmetry_2
K0 O17 2.625984 1_555
K0 O22 2.625984 1_555
K0 O23 2.767127 1_565
K0 O15 2.767127 1_565
K0 O9 2.857820 1_555
K0 O0 2.857820 1_555
K1 O13 2.625984 1_555
K1 O1 2.625984 1_555
K1 O16 2.767127 1_555
K1 O7 2.767127 1_555
K1 O20 2.857820 1_555
K1 O8 2.857820 1_555
K2 O21 2.625984 1_555
K2 O6 2.625984 1_555
K2 O19 2.767127 1_545
K2 O4 2.767127 1_545
K2 O1 2.857820 1_555
K2 O13 2.857820 1_555
K3 O4 2.741780 1_544
K3 O15 2.741780 1_555
K3 O22 2.893467 1_545
K3 O21 2.893467 1_554
K4 O8 2.625984 1_555
K4 O20 2.625984 1_555
K4 O3 2.767127 1_655
K4 O14 2.767127 1_655
K4 O21 2.857820 1_555
K4 O6 2.857820 1_555
K5 O12 2.741780 1_455
K5 O14 2.741780 1_554
K5 O8 2.893467 1_454
K5 O0 2.893467 1_555
K6 O11 2.777913 1_555
K6 O5 2.777913 1_555
K6 O23 2.870463 1_555
K6 O15 2.870463 1_555
K6 O0 3.177310 1_545
K6 O9 3.177310 1_545
K6 O18 3.184521 1_555
K7 O2 2.625984 1_555
K7 O10 2.625984 1_555
K7 O11 2.767127 1_555
K7 O5 2.767127 1_555
K7 O17 2.857820 1_555
K7 O22 2.857820 1_555
K8 O19 2.741780 1_545
K8 O23 2.741780 1_555
K8 O17 2.893467 1_545
K8 O6 2.893467 1_555
K9 O25 2.777913 1_555
K9 O12 2.777913 1_555
K9 O11 2.870463 1_555
K9 O5 2.870463 1_555
K9 O17 3.177310 1_555
K9 O22 3.177310 1_555
K9 O18 3.184521 1_665
K10 O23 2.777913 1_555
K10 O15 2.777913 1_555
K10 O25 2.870463 1_555
K10 O12 2.870463 1_555
K10 O2 3.177310 1_655
K10 O10 3.177310 1_655
K10 O18 3.184521 1_655
K11 O9 2.625984 1_555
K11 O0 2.625984 1_555
K11 O25 2.767127 1_455
K11 O12 2.767127 1_455
K11 O2 2.857820 1_555
K11 O10 2.857820 1_555
K12 O19 2.777913 1_555
K12 O4 2.777913 1_555
K12 O7 2.870463 1_555
K12 O16 2.870463 1_555
K12 O8 3.177310 1_555
K12 O20 3.177310 1_555
K12 O24 3.184521 1_665
K13 O25 2.741780 1_455
K13 O3 2.741780 1_555
K13 O20 2.893467 1_455
K13 O9 2.893467 1_555
K14 O14 2.777913 1_555
K14 O3 2.777913 1_555
K14 O19 2.870463 1_555
K14 O4 2.870463 1_555
K14 O13 3.177310 1_565
K14 O1 3.177310 1_565
K14 O24 3.184521 1_565
K15 O16 2.777913 1_555
K15 O7 2.777913 1_555
K15 O14 2.870463 1_555
K15 O3 2.870463 1_555
K15 O21 3.177310 1_455
K15 O6 3.177310 1_455
K15 O24 3.184521 1_555
K16 O11 2.741780 1_555
K16 O7 2.741780 1_555
K16 O13 2.893467 1_555
K16 O2 2.893467 1_555
K17 O5 2.741780 1_555
K17 O16 2.741780 1_554
K17 O1 2.893467 1_554
K17 O10 2.893467 1_555
Li0 O8 1.917571 1_554
Li0 O22 1.917571 1_555
Li0 O5 1.953575 1_555
Li0 O16 1.953575 1_554
Li1 O0 1.917571 1_545
Li1 O1 1.917571 1_554
Li1 O15 1.953575 1_555
Li1 O4 1.953575 1_544
Li2 O17 1.917571 1_555
Li2 O20 1.917571 1_555
Li2 O7 1.953575 1_555
Li2 O11 1.953575 1_555
Li3 O6 1.917571 1_455
Li3 O2 1.917571 1_555
Li3 O3 1.953575 1_555
Li3 O25 1.953575 1_455
Li4 O9 1.917571 1_545
Li4 O13 1.917571 1_555
Li4 O23 1.953575 1_555
Li4 O19 1.953575 1_545
Li5 O21 1.917571 1_454
Li5 O10 1.917571 1_555
Li5 O14 1.953575 1_554
Li5 O12 1.953575 1_455
I0 O14 1.917669 1_555
I0 O4 1.917672 1_555
I0 O16 1.917677 1_555
I0 O0 1.934370 1_556
I0 O10 1.934374 1_556
I0 O22 1.934377 1_556
I1 O15 1.917669 1_555
I1 O12 1.917672 1_555
I1 O5 1.917677 1_555
I1 O21 1.934370 1_554
I1 O1 1.934374 1_554
I1 O8 1.934377 1_554
I2 O23 1.917669 1_555
I2 O25 1.917672 1_555
I2 O11 1.917677 1_555
I2 O6 1.934370 1_555
I2 O13 1.934374 1_555
I2 O20 1.934377 1_555
I3 O3 1.917669 1_555
I3 O19 1.917672 1_555
I3 O7 1.917677 1_555
I3 O9 1.934370 1_555
I3 O2 1.934374 1_555
I3 O17 1.934377 1_555
