# generated using pymatgen
data_YH18C3S3(O2F)9
_symmetry_space_group_name_H-M   'P 1'
_cell_length_a   13.78254107
_cell_length_b   13.78254107
_cell_length_c   7.54792900
_cell_angle_alpha   90.00000000
_cell_angle_beta   90.00000000
_cell_angle_gamma   120.00000512
_symmetry_Int_Tables_number   1
_chemical_formula_structural   YH18C3S3(O2F)9
_chemical_formula_sum   'Y2 H36 C6 S6 O36 F18'
_cell_volume   1241.70092870
_cell_formula_units_Z   2
loop_
 _symmetry_equiv_pos_site_id
 _symmetry_equiv_pos_as_xyz
  1  'x, y, z'
loop_
 _atom_site_type_symbol
 _atom_site_label
 _atom_site_symmetry_multiplicity
 _atom_site_fract_x
 _atom_site_fract_y
 _atom_site_fract_z
 _atom_site_occupancy
  Y  Y0  1  0.33333300  0.66666700  0.25000000  1
  Y  Y1  1  0.66666700  0.33333300  0.75000000  1
  H  H0  1  0.35684800  0.45078000  0.14456600  1
  H  H1  1  0.90606800  0.35684800  0.64456600  1
  H  H2  1  0.45078000  0.09393200  0.64456600  1
  H  H3  1  0.54922000  0.90606800  0.14456600  1
  H  H4  1  0.09393200  0.64315200  0.14456600  1
  H  H5  1  0.64315200  0.54922000  0.64456600  1
  H  H6  1  0.64315200  0.54922000  0.85543400  1
  H  H7  1  0.09393200  0.64315200  0.35543400  1
  H  H8  1  0.54922000  0.90606800  0.35543400  1
  H  H9  1  0.45078000  0.09393200  0.85543400  1
  H  H10  1  0.90606800  0.35684800  0.85543400  1
  H  H11  1  0.35684800  0.45078000  0.35543400  1
  H  H12  1  0.23320000  0.51085500  0.56586300  1
  H  H13  1  0.72234500  0.23320000  0.06586300  1
  H  H14  1  0.51085500  0.27765500  0.06586300  1
  H  H15  1  0.48914500  0.72234500  0.56586300  1
  H  H16  1  0.27765500  0.76680000  0.56586300  1
  H  H17  1  0.76680000  0.48914500  0.06586300  1
  H  H18  1  0.76680000  0.48914500  0.43413700  1
  H  H19  1  0.27765500  0.76680000  0.93413700  1
  H  H20  1  0.48914500  0.72234500  0.93413700  1
  H  H21  1  0.51085500  0.27765500  0.43413700  1
  H  H22  1  0.72234500  0.23320000  0.43413700  1
  H  H23  1  0.23320000  0.51085500  0.93413700  1
  H  H24  1  0.13039900  0.49054300  0.44580100  1
  H  H25  1  0.63985600  0.13039900  0.94580100  1
  H  H26  1  0.49054300  0.36014400  0.94580100  1
  H  H27  1  0.50945700  0.63985600  0.44580100  1
  H  H28  1  0.36014400  0.86960100  0.44580100  1
  H  H29  1  0.86960100  0.50945700  0.94580100  1
  H  H30  1  0.86960100  0.50945700  0.55419900  1
  H  H31  1  0.36014400  0.86960100  0.05419900  1
  H  H32  1  0.50945700  0.63985600  0.05419900  1
  H  H33  1  0.49054300  0.36014400  0.55419900  1
  H  H34  1  0.63985600  0.13039900  0.55419900  1
  H  H35  1  0.13039900  0.49054300  0.05419900  1
  C  C0  1  0.20151600  0.23497600  0.75000000  1
  C  C1  1  0.96654000  0.20151600  0.25000000  1
  C  C2  1  0.23497600  0.03346000  0.25000000  1
  C  C3  1  0.76502400  0.96654000  0.75000000  1
  C  C4  1  0.03346000  0.79848400  0.75000000  1
  C  C5  1  0.79848400  0.76502400  0.25000000  1
  S  S0  1  0.31710000  0.38428900  0.75000000  1
  S  S1  1  0.93281200  0.31710000  0.25000000  1
  S  S2  1  0.38428900  0.06718800  0.25000000  1
  S  S3  1  0.61571100  0.93281200  0.75000000  1
  S  S4  1  0.06718800  0.68290000  0.75000000  1
  S  S5  1  0.68290000  0.61571100  0.25000000  1
  O  O0  1  0.35129000  0.48932300  0.25000000  1
  O  O1  1  0.86196700  0.35129000  0.75000000  1
  O  O2  1  0.48932300  0.13803300  0.75000000  1
  O  O3  1  0.51067700  0.86196700  0.25000000  1
  O  O4  1  0.13803300  0.64871000  0.25000000  1
  O  O5  1  0.64871000  0.51067700  0.75000000  1
  O  O6  1  0.20973600  0.54420300  0.47113200  1
  O  O7  1  0.66553200  0.20973600  0.97113200  1
  O  O8  1  0.54420300  0.33446800  0.97113200  1
  O  O9  1  0.45579700  0.66553200  0.47113200  1
  O  O10  1  0.33446800  0.79026400  0.47113200  1
  O  O11  1  0.79026400  0.45579700  0.97113200  1
  O  O12  1  0.79026400  0.45579700  0.52886800  1
  O  O13  1  0.33446800  0.79026400  0.02886800  1
  O  O14  1  0.45579700  0.66553200  0.02886800  1
  O  O15  1  0.54420300  0.33446800  0.52886800  1
  O  O16  1  0.66553200  0.20973600  0.52886800  1
  O  O17  1  0.20973600  0.54420300  0.02886800  1
  O  O18  1  0.25761000  0.44785200  0.75000000  1
  O  O19  1  0.80975800  0.25761000  0.25000000  1
  O  O20  1  0.44785200  0.19024200  0.25000000  1
  O  O21  1  0.55214800  0.80975800  0.75000000  1
  O  O22  1  0.19024200  0.74239000  0.75000000  1
  O  O23  1  0.74239000  0.55214800  0.25000000  1
  O  O24  1  0.37876100  0.39574800  0.58611400  1
  O  O25  1  0.98301300  0.37876100  0.08611400  1
  O  O26  1  0.39574800  0.01698700  0.08611400  1
  O  O27  1  0.60425200  0.98301300  0.58611400  1
  O  O28  1  0.01698700  0.62123900  0.58611400  1
  O  O29  1  0.62123900  0.60425200  0.08611400  1
  O  O30  1  0.62123900  0.60425200  0.41388600  1
  O  O31  1  0.01698700  0.62123900  0.91388600  1
  O  O32  1  0.60425200  0.98301300  0.91388600  1
  O  O33  1  0.39574800  0.01698700  0.41388600  1
  O  O34  1  0.98301300  0.37876100  0.41388600  1
  O  O35  1  0.37876100  0.39574800  0.91388600  1
  F  F0  1  0.24503300  0.16617100  0.75000000  1
  F  F1  1  0.07886300  0.24503300  0.25000000  1
  F  F2  1  0.16617100  0.92113700  0.25000000  1
  F  F3  1  0.83382900  0.07886300  0.75000000  1
  F  F4  1  0.92113700  0.75496700  0.75000000  1
  F  F5  1  0.75496700  0.83382900  0.25000000  1
  F  F6  1  0.13688400  0.21398300  0.60450500  1
  F  F7  1  0.92290100  0.13688400  0.10450500  1
  F  F8  1  0.21398300  0.07709900  0.10450500  1
  F  F9  1  0.78601700  0.92290100  0.60450500  1
  F  F10  1  0.07709900  0.86311600  0.60450500  1
  F  F11  1  0.86311600  0.78601700  0.10450500  1
  F  F12  1  0.86311600  0.78601700  0.39549500  1
  F  F13  1  0.07709900  0.86311600  0.89549500  1
  F  F14  1  0.78601700  0.92290100  0.89549500  1
  F  F15  1  0.21398300  0.07709900  0.39549500  1
  F  F16  1  0.92290100  0.13688400  0.39549500  1
  F  F17  1  0.13688400  0.21398300  0.89549500  1
loop_
_geom_bond_atom_site_label_1
_geom_bond_atom_site_label_2
_geom_bond_distance
_geom_bond_site_symmetry_2
H0 O0 0.980850 1_555
H1 O1 0.980850 1_555
H2 O2 0.980850 1_555
H3 O3 0.980850 1_555
H4 O4 0.980850 1_555
H5 O5 0.980850 1_555
H6 O5 0.980850 1_555
H7 O4 0.980850 1_555
H8 O3 0.980850 1_555
H9 O2 0.980850 1_555
H10 O1 0.980850 1_555
H11 O0 0.980850 1_555
H12 O6 0.987790 1_555
H13 O7 0.987799 1_554
H14 O8 0.987798 1_554
H15 O9 0.987798 1_555
H16 O10 0.987799 1_555
H17 O11 0.987790 1_554
H18 O12 0.987790 1_555
H19 O13 0.987799 1_556
H20 O14 0.987798 1_556
H21 O15 0.987798 1_555
H22 O16 0.987799 1_555
H23 O17 0.987790 1_556
H24 O6 0.985136 1_555
H25 O7 0.985139 1_555
H26 O8 0.985126 1_555
H27 O9 0.985126 1_555
H28 O10 0.985139 1_555
H29 O11 0.985136 1_555
H30 O12 0.985136 1_555
H31 O13 0.985139 1_555
H32 O14 0.985126 1_555
H33 O15 0.985126 1_555
H34 O16 0.985139 1_555
H35 O17 0.985136 1_555
C0 F17 1.351111 1_555
C0 F6 1.351111 1_555
C0 F0 1.351957 1_555
C1 F7 1.351111 1_555
C1 F16 1.351111 1_555
C1 F1 1.351970 1_655
C2 F15 1.351111 1_555
C2 F8 1.351111 1_555
C2 F2 1.351968 1_545
C3 F14 1.351111 1_555
C3 F9 1.351111 1_555
C3 F3 1.351968 1_565
C4 F13 1.351111 1_555
C4 F10 1.351111 1_555
C4 F4 1.351970 1_455
C5 F11 1.351111 1_555
C5 F12 1.351111 1_555
C5 F5 1.351957 1_555
O0 Y0 2.576927 1_555
O1 Y1 2.576913 1_555
O2 Y1 2.576919 1_555
O3 Y0 2.576919 1_555
O4 Y0 2.576913 1_555
O5 Y1 2.576927 1_555
O6 Y0 2.379358 1_555
O7 Y1 2.379349 1_555
O8 Y1 2.379368 1_555
O9 Y0 2.379368 1_555
O10 Y0 2.379349 1_555
O11 Y1 2.379358 1_555
O12 Y1 2.379358 1_555
O13 Y0 2.379349 1_555
O14 Y0 2.379368 1_555
O15 Y1 2.379368 1_555
O16 Y1 2.379349 1_555
O17 Y0 2.379358 1_555
O18 S0 1.469033 1_555
O19 S1 1.469045 1_555
O20 S2 1.469044 1_555
O21 S3 1.469044 1_555
O22 S4 1.469045 1_555
O23 S5 1.469033 1_555
O24 S0 1.463943 1_555
O25 S1 1.463941 1_555
O26 S2 1.463936 1_555
O27 S3 1.463936 1_555
O28 S4 1.463941 1_555
O29 S5 1.463943 1_555
O30 S5 1.463943 1_555
O31 S4 1.463941 1_555
O32 S3 1.463936 1_555
O33 S2 1.463936 1_555
O34 S1 1.463941 1_555
O35 S0 1.463943 1_555
