# generated using pymatgen
data_HfGa
_symmetry_space_group_name_H-M   'P 1'
_cell_length_a   5.62642034
_cell_length_b   8.48415080
_cell_length_c   9.14161825
_cell_angle_alpha   90.00000000
_cell_angle_beta   90.00000000
_cell_angle_gamma   90.00000000
_symmetry_Int_Tables_number   1
_chemical_formula_structural   HfGa
_chemical_formula_sum   'Hf12 Ga12'
_cell_volume   436.37879128
_cell_formula_units_Z   12
loop_
 _symmetry_equiv_pos_site_id
 _symmetry_equiv_pos_as_xyz
  1  'x, y, z'
loop_
 _atom_site_type_symbol
 _atom_site_label
 _atom_site_symmetry_multiplicity
 _atom_site_fract_x
 _atom_site_fract_y
 _atom_site_fract_z
 _atom_site_occupancy
  Hf  Hf0  1  -0.00000000  0.75000000  0.88827364  1
  Hf  Hf1  1  0.50000000  0.25000000  0.11172636  1
  Hf  Hf2  1  -0.00000000  0.25000000  0.11172636  1
  Hf  Hf3  1  0.50000000  0.75000000  0.88827364  1
  Hf  Hf4  1  0.75000000  0.47392151  0.38313058  1
  Hf  Hf5  1  0.25000000  0.52607849  0.61686942  1
  Hf  Hf6  1  0.75000000  0.97392151  0.61686942  1
  Hf  Hf7  1  0.25000000  0.02607849  0.38313058  1
  Hf  Hf8  1  0.75000000  0.36563596  0.80606064  1
  Hf  Hf9  1  0.25000000  0.63436404  0.19393936  1
  Hf  Hf10  1  0.75000000  0.86563596  0.19393936  1
  Hf  Hf11  1  0.25000000  0.13436404  0.80606064  1
  Ga  Ga0  1  -0.00000000  0.75000000  0.43501083  1
  Ga  Ga1  1  0.50000000  0.25000000  0.56498917  1
  Ga  Ga2  1  -0.00000000  0.25000000  0.56498917  1
  Ga  Ga3  1  0.50000000  0.75000000  0.43501083  1
  Ga  Ga4  1  0.75000000  0.04963861  0.91314438  1
  Ga  Ga5  1  0.25000000  0.95036139  0.08685562  1
  Ga  Ga6  1  0.75000000  0.54963861  0.08685562  1
  Ga  Ga7  1  0.25000000  0.45036139  0.91314438  1
  Ga  Ga8  1  0.75000000  0.13437201  0.34965835  1
  Ga  Ga9  1  0.25000000  0.86562799  0.65034165  1
  Ga  Ga10  1  0.75000000  0.63437201  0.65034165  1
  Ga  Ga11  1  0.25000000  0.36562799  0.34965835  1
loop_
_geom_bond_atom_site_label_1
_geom_bond_atom_site_label_2
_geom_bond_distance
_geom_bond_site_symmetry_2
Ga0 Ga10 2.610707 1_455
Ga0 Ga9 2.610707 1_555
Ga0 Hf7 2.773049 1_565
Ga0 Hf4 2.773049 1_455
Ga0 Hf9 2.792437 1_555
Ga0 Hf10 2.792437 1_455
Ga0 Ga3 2.813210 1_555
Ga0 Ga3 2.813210 1_455
Ga0 Hf5 2.889907 1_555
Ga0 Hf6 2.889907 1_455
Ga1 Ga11 2.610707 1_555
Ga1 Ga8 2.610707 1_555
Ga1 Hf6 2.773049 1_545
Ga1 Hf5 2.773049 1_555
Ga1 Hf11 2.792437 1_555
Ga1 Hf8 2.792437 1_555
Ga1 Ga2 2.813210 1_555
Ga1 Ga2 2.813210 1_655
Ga1 Hf7 2.889907 1_555
Ga1 Hf4 2.889907 1_555
Ga2 Ga8 2.610707 1_455
Ga2 Hf5 2.773049 1_555
Ga2 Hf6 2.773049 1_445
Ga2 Hf11 2.792437 1_555
Ga2 Hf8 2.792437 1_455
Ga2 Hf4 2.889907 1_455
Ga2 Hf7 2.889907 1_555
Ga3 Ga9 2.610707 1_555
Ga3 Hf7 2.773049 1_565
Ga3 Hf4 2.773049 1_555
Ga3 Hf10 2.792437 1_555
Ga3 Hf9 2.792437 1_555
Ga3 Hf5 2.889907 1_555
Ga3 Hf6 2.889907 1_555
Ga4 Hf6 2.783573 1_545
Ga4 Hf8 2.854098 1_555
Ga4 Hf1 2.857222 1_556
Ga4 Hf2 2.857222 1_656
Ga4 Hf0 2.914259 1_645
Ga4 Hf3 2.914259 1_545
Ga4 Hf10 3.004352 1_546
Ga4 Hf11 3.064170 1_655
Ga4 Hf11 3.064170 1_555
Ga5 Hf7 2.783573 1_565
Ga5 Hf9 2.854098 1_555
Ga5 Hf3 2.857222 1_554
Ga5 Hf0 2.857222 1_554
Ga5 Hf2 2.914259 1_565
Ga5 Hf1 2.914259 1_565
Ga5 Hf11 3.004352 1_564
Ga5 Hf10 3.064170 1_455
Ga5 Hf10 3.064170 1_555
Ga6 Hf4 2.783573 1_555
Ga6 Hf10 2.854098 1_555
Ga6 Hf0 2.857222 1_654
Ga6 Hf3 2.857222 1_554
Ga6 Hf1 2.914259 1_555
Ga6 Hf2 2.914259 1_655
Ga6 Hf8 3.004352 1_554
Ga6 Hf9 3.064170 1_555
Ga6 Hf9 3.064170 1_655
Ga7 Hf5 2.783573 1_555
Ga7 Hf11 2.854098 1_555
Ga7 Hf1 2.857222 1_556
Ga7 Hf2 2.857222 1_556
Ga7 Hf0 2.914259 1_555
Ga7 Hf3 2.914259 1_555
Ga7 Hf9 3.004352 1_556
Ga7 Hf8 3.064170 1_455
Ga7 Hf8 3.064170 1_555
Ga8 Hf10 2.687900 1_545
Ga8 Hf1 2.769819 1_555
Ga8 Hf2 2.769819 1_655
Ga8 Hf6 2.796442 1_545
Ga8 Hf4 2.896994 1_555
Ga8 Hf7 2.975220 1_555
Ga8 Hf7 2.975220 1_655
Ga9 Hf11 2.687900 1_565
Ga9 Hf3 2.769819 1_555
Ga9 Hf0 2.769819 1_555
Ga9 Hf7 2.796442 1_565
Ga9 Hf5 2.896994 1_555
Ga9 Hf6 2.975220 1_455
Ga9 Hf6 2.975220 1_555
Ga10 Ga3 2.610707 1_555
Ga10 Hf8 2.687900 1_555
Ga10 Hf0 2.769819 1_655
Ga10 Hf3 2.769819 1_555
Ga10 Hf4 2.796442 1_555
Ga10 Hf6 2.896994 1_555
Ga10 Hf5 2.975220 1_555
Ga10 Hf5 2.975220 1_655
Ga11 Ga2 2.610707 1_555
Ga11 Hf9 2.687900 1_555
Ga11 Hf1 2.769819 1_555
Ga11 Hf2 2.769819 1_555
Ga11 Hf5 2.796442 1_555
Ga11 Hf7 2.896994 1_555
Ga11 Hf4 2.975220 1_455
Ga11 Hf4 2.975220 1_555
