# generated using pymatgen
data_NaNiF3
_symmetry_space_group_name_H-M   'P 1'
_cell_length_a   5.29551073
_cell_length_b   5.52379538
_cell_length_c   7.60958255
_cell_angle_alpha   90.00064139
_cell_angle_beta   90.00141003
_cell_angle_gamma   90.00101808
_symmetry_Int_Tables_number   1
_chemical_formula_structural   NaNiF3
_chemical_formula_sum   'Na4 Ni4 F12'
_cell_volume   222.59031672
_cell_formula_units_Z   4
loop_
 _symmetry_equiv_pos_site_id
 _symmetry_equiv_pos_as_xyz
  1  'x, y, z'
loop_
 _atom_site_type_symbol
 _atom_site_label
 _atom_site_symmetry_multiplicity
 _atom_site_fract_x
 _atom_site_fract_y
 _atom_site_fract_z
 _atom_site_occupancy
  Na  Na0  1  0.01760855  0.93513746  0.75000378  1
  Na  Na1  1  0.51760491  0.56485905  0.24999765  1
  Na  Na2  1  0.48239210  0.43513445  0.75000279  1
  Na  Na3  1  0.98238934  0.06486644  0.24999946  1
  Ni  Ni0  1  0.50000367  -0.00000969  0.50000246  1
  Ni  Ni1  1  -0.00000664  0.50000795  0.50000398  1
  Ni  Ni2  1  0.00000249  0.50000421  -0.00000285  1
  Ni  Ni3  1  0.50000242  -0.00001084  -0.00000151  1
  F  F0  1  0.69340200  0.30193519  0.44367950  1
  F  F1  1  0.19337410  0.19808051  0.55630191  1
  F  F2  1  0.80658787  0.80192229  0.05631239  1
  F  F3  1  0.30660351  0.69806655  0.94365811  1
  F  F4  1  0.30660032  0.69806176  0.55631669  1
  F  F5  1  0.80661806  0.80191652  0.44369777  1
  F  F6  1  0.19342918  0.19808533  0.94368274  1
  F  F7  1  0.69340218  0.30193302  0.05634346  1
  F  F8  1  0.10884196  0.46199490  0.25001523  1
  F  F9  1  0.60886009  0.03802161  0.75000118  1
  F  F10  1  0.39113341  0.96197221  0.24999816  1
  F  F11  1  0.89114849  0.53802007  0.74998910  1
loop_
_geom_bond_atom_site_label_1
_geom_bond_atom_site_label_2
_geom_bond_distance
_geom_bond_site_symmetry_2
F0 Ni0 2.003589 1_555
F0 Ni1 2.004150 1_655
F0 Na1 2.268954 1_555
F0 Na3 2.495809 1_555
F0 Na2 2.687674 1_555
F1 Ni1 2.003440 1_555
F1 Ni0 2.004375 1_555
F1 Na0 2.269061 1_545
F1 Na2 2.495887 1_555
F1 Na3 2.687445 1_455
F2 Ni2 2.003519 1_655
F2 Ni3 2.004127 1_565
F2 Na3 2.269019 1_565
F2 Na1 2.495791 1_555
F2 Na0 2.687628 1_654
F3 Ni3 2.003498 1_566
F3 Ni2 2.004207 1_556
F3 Na2 2.268842 1_555
F3 Na0 2.495698 1_555
F3 Na1 2.687741 1_556
F4 Ni0 2.003513 1_565
F4 Ni1 2.004141 1_555
F4 Na2 2.268976 1_555
F4 Na0 2.495876 1_555
F4 Na1 2.687639 1_555
F5 Ni1 2.003352 1_655
F5 Ni0 2.004269 1_565
F5 Na3 2.269080 1_565
F5 Na1 2.495878 1_555
F5 Na0 2.687491 1_655
F6 Ni2 2.003554 1_556
F6 Ni3 2.004166 1_556
F6 Na0 2.269033 1_545
F6 Na2 2.495662 1_555
F6 Na3 2.687729 1_456
F7 Ni3 2.003605 1_555
F7 Ni2 2.004242 1_655
F7 Na1 2.268834 1_555
F7 Na3 2.495667 1_555
F7 Na2 2.687759 1_554
F8 Ni1 1.998792 1_555
F8 Ni2 1.998966 1_555
F8 Na1 2.237932 1_555
F8 Na3 2.293574 1_455
F9 Ni0 1.998858 1_555
F9 Ni3 1.998882 1_556
F9 Na0 2.237905 1_645
F9 Na2 2.293538 1_555
F10 Ni3 1.998907 1_565
F10 Ni0 1.998912 1_565
F10 Na3 2.237897 1_465
F10 Na1 2.293545 1_555
F11 Ni1 1.998760 1_655
F11 Ni2 1.998919 1_656
F11 Na2 2.237928 1_555
F11 Na0 2.293527 1_655
