# generated using pymatgen
data_MoPCl5O3
_symmetry_space_group_name_H-M   'P 1'
_cell_length_a   15.49338700
_cell_length_b   8.90008700
_cell_length_c   16.70290203
_cell_angle_alpha   64.03531422
_cell_angle_beta   90.00000000
_cell_angle_gamma   90.00000000
_symmetry_Int_Tables_number   1
_chemical_formula_structural   MoPCl5O3
_chemical_formula_sum   'Mo8 P8 Cl40 O24'
_cell_volume   2070.72866000
_cell_formula_units_Z   8
loop_
 _symmetry_equiv_pos_site_id
 _symmetry_equiv_pos_as_xyz
  1  'x, y, z'
loop_
 _atom_site_type_symbol
 _atom_site_label
 _atom_site_symmetry_multiplicity
 _atom_site_fract_x
 _atom_site_fract_y
 _atom_site_fract_z
 _atom_site_occupancy
  Mo  Mo0  1  0.44541400  0.98379900  0.75546900  1
  Mo  Mo1  1  0.30382400  0.95883500  0.26075500  1
  Mo  Mo2  1  0.94541400  0.01620100  0.74453100  1
  Mo  Mo3  1  0.80382400  0.04116500  0.23924500  1
  Mo  Mo4  1  0.19617600  0.95883500  0.76075500  1
  Mo  Mo5  1  0.69617600  0.04116500  0.73924500  1
  Mo  Mo6  1  0.05458600  0.98379900  0.25546900  1
  Mo  Mo7  1  0.55458600  0.01620100  0.24453100  1
  P  P0  1  0.17214800  0.36312800  0.55459200  1
  P  P1  1  0.43459600  0.45654800  0.66813000  1
  P  P2  1  0.06540400  0.45654800  0.16813000  1
  P  P3  1  0.32785200  0.36312800  0.05459200  1
  P  P4  1  0.56540400  0.54345200  0.33187000  1
  P  P5  1  0.67214800  0.63687200  0.94540800  1
  P  P6  1  0.93459600  0.54345200  0.83187000  1
  P  P7  1  0.82785200  0.63687200  0.44540800  1
  Cl  Cl0  1  0.67825900  0.08404800  0.86756100  1
  Cl  Cl1  1  0.17409200  0.08019200  0.85817600  1
  Cl  Cl2  1  0.96059100  0.50101200  0.22364800  1
  Cl  Cl3  1  0.06943400  0.00391300  0.11186100  1
  Cl  Cl4  1  0.07059500  0.33210300  0.49048400  1
  Cl  Cl5  1  0.82174100  0.08404800  0.36756100  1
  Cl  Cl6  1  0.17825900  0.91595200  0.63243900  1
  Cl  Cl7  1  0.46059100  0.49898800  0.27635200  1
  Cl  Cl8  1  0.22604900  0.34517100  0.98683600  1
  Cl  Cl9  1  0.43235400  0.63844300  0.54432800  1
  Cl  Cl10  1  0.33528200  0.50332100  0.72962900  1
  Cl  Cl11  1  0.42940500  0.33210300  0.99048400  1
  Cl  Cl12  1  0.06764600  0.63844300  0.04432800  1
  Cl  Cl13  1  0.27395100  0.34517100  0.48683600  1
  Cl  Cl14  1  0.43056600  0.00391300  0.61186100  1
  Cl  Cl15  1  0.57809100  0.94631900  0.12610000  1
  Cl  Cl16  1  0.93056600  0.99608700  0.88813900  1
  Cl  Cl17  1  0.83188700  0.39818900  0.46669300  1
  Cl  Cl18  1  0.83528200  0.49667900  0.77037100  1
  Cl  Cl19  1  0.33188700  0.60181100  0.03330700  1
  Cl  Cl20  1  0.82590800  0.91980800  0.14182400  1
  Cl  Cl21  1  0.07809100  0.05368100  0.37390000  1
  Cl  Cl22  1  0.32590800  0.08019200  0.35817600  1
  Cl  Cl23  1  0.77395100  0.65482900  0.01316400  1
  Cl  Cl24  1  0.66471800  0.49667900  0.27037100  1
  Cl  Cl25  1  0.92940500  0.66789700  0.50951600  1
  Cl  Cl26  1  0.32174100  0.91595200  0.13243900  1
  Cl  Cl27  1  0.03940900  0.49898800  0.77635200  1
  Cl  Cl28  1  0.57059500  0.66789700  0.00951600  1
  Cl  Cl29  1  0.66811300  0.39818900  0.96669300  1
  Cl  Cl30  1  0.92190900  0.94631900  0.62610000  1
  Cl  Cl31  1  0.16811300  0.60181100  0.53330700  1
  Cl  Cl32  1  0.56764600  0.36155700  0.45567200  1
  Cl  Cl33  1  0.93235400  0.36155700  0.95567200  1
  Cl  Cl34  1  0.67409200  0.91980800  0.64182400  1
  Cl  Cl35  1  0.72604900  0.65482900  0.51316400  1
  Cl  Cl36  1  0.53940900  0.50101200  0.72364800  1
  Cl  Cl37  1  0.56943400  0.99608700  0.38813900  1
  Cl  Cl38  1  0.16471800  0.50332100  0.22962900  1
  Cl  Cl39  1  0.42190900  0.05368100  0.87390000  1
  O  O0  1  0.19952700  0.75421500  0.83655300  1
  O  O1  1  0.30894800  0.01057200  0.74378300  1
  O  O2  1  0.67433400  0.75106200  0.84888300  1
  O  O3  1  0.56737300  0.71140800  0.32986400  1
  O  O4  1  0.69105200  0.98942800  0.25621700  1
  O  O5  1  0.55662700  0.22809400  0.18555400  1
  O  O6  1  0.69952700  0.24578500  0.66344700  1
  O  O7  1  0.32566600  0.24893800  0.15111700  1
  O  O8  1  0.05662700  0.77190600  0.31444600  1
  O  O9  1  0.80894800  0.98942800  0.75621700  1
  O  O10  1  0.06737300  0.28859200  0.17013600  1
  O  O11  1  0.80047300  0.24578500  0.16344700  1
  O  O12  1  0.43262700  0.28859200  0.67013600  1
  O  O13  1  0.05941000  0.97439300  0.75332100  1
  O  O14  1  0.19105200  0.01057200  0.24378300  1
  O  O15  1  0.17433400  0.24893800  0.65111700  1
  O  O16  1  0.93262700  0.71140800  0.82986400  1
  O  O17  1  0.94337300  0.22809400  0.68555400  1
  O  O18  1  0.44337300  0.77190600  0.81444600  1
  O  O19  1  0.82566600  0.75106200  0.34888300  1
  O  O20  1  0.94059000  0.02560700  0.24667900  1
  O  O21  1  0.44059000  0.97439300  0.25332100  1
  O  O22  1  0.30047300  0.75421500  0.33655300  1
  O  O23  1  0.55941000  0.02560700  0.74667900  1
loop_
_geom_bond_atom_site_label_1
_geom_bond_atom_site_label_2
_geom_bond_distance
_geom_bond_site_symmetry_2
Mo0 O18 1.703286 1_555
Mo0 O23 1.797660 1_565
Mo0 O1 2.127088 1_565
Mo0 O12 2.458424 1_565
Mo1 O22 1.703880 1_555
Mo1 O14 1.797462 1_565
Mo1 O21 2.123573 1_555
Mo1 O7 2.448325 1_565
Mo2 O17 1.703286 1_555
Mo2 O13 1.797660 1_645
Mo2 O9 2.127088 1_545
Mo2 O16 2.458424 1_545
Mo3 O11 1.703880 1_555
Mo3 O4 1.797462 1_545
Mo3 O20 2.123573 1_555
Mo3 O19 2.448325 1_545
Mo4 O0 1.703880 1_555
Mo4 O1 1.797462 1_565
Mo4 O13 2.123573 1_555
Mo4 O15 2.448325 1_565
Mo5 O6 1.703880 1_555
Mo5 O9 1.797462 1_545
Mo5 O23 2.123573 1_555
Mo5 O2 2.448325 1_545
Mo6 O8 1.703286 1_555
Mo6 O20 1.797660 1_465
Mo6 O14 2.127088 1_565
Mo6 O10 2.458424 1_565
Mo7 O5 1.703286 1_555
Mo7 O21 1.797660 1_545
Mo7 O4 2.127088 1_545
Mo7 O3 2.458424 1_545
Cl0 Mo5 2.352129 1_555
Cl1 Mo4 2.338897 1_545
Cl2 P2 1.993720 1_655
Cl3 Mo6 2.337218 1_545
Cl4 P0 1.989302 1_555
Cl5 Mo3 2.352129 1_555
Cl6 Mo4 2.352129 1_555
Cl7 P4 1.993720 1_555
Cl8 P3 1.988090 1_556
Cl9 P1 1.991662 1_555
Cl10 P1 1.992616 1_555
Cl11 P3 1.989302 1_556
Cl12 P2 1.991662 1_555
Cl13 P0 1.988090 1_555
Cl14 Mo0 2.337218 1_545
Cl15 Mo7 2.347297 1_565
Cl16 Mo2 2.337218 1_565
Cl17 P7 1.995406 1_555
Cl18 P6 1.992616 1_555
Cl19 P3 1.995406 1_555
Cl20 Mo3 2.338897 1_565
Cl21 Mo6 2.347297 1_545
Cl22 Mo1 2.338897 1_545
Cl23 P5 1.988090 1_554
Cl24 P4 1.992616 1_555
Cl25 P7 1.989302 1_555
Cl26 Mo1 2.352129 1_555
Cl27 P6 1.993720 1_455
Cl28 P5 1.989302 1_554
Cl29 P5 1.995406 1_555
Cl30 Mo2 2.347297 1_565
Cl31 P0 1.995406 1_555
Cl32 P4 1.991662 1_555
Cl33 P6 1.991662 1_555
Cl34 Mo5 2.338897 1_565
Cl35 P7 1.988090 1_555
Cl36 P1 1.993720 1_555
Cl37 Mo7 2.337218 1_565
Cl38 P2 1.992616 1_555
Cl39 Mo0 2.347297 1_545
O2 P5 1.482769 1_555
O3 P4 1.480774 1_555
O7 P3 1.482769 1_555
O10 P2 1.480774 1_555
O12 P1 1.480774 1_555
O15 P0 1.482769 1_555
O16 P6 1.480774 1_555
O19 P7 1.482769 1_555
