# generated using pymatgen
data_Re2(HgO2)5
_symmetry_space_group_name_H-M   'P 1'
_cell_length_a   11.68820980
_cell_length_b   6.52531945
_cell_length_c   8.07177140
_cell_angle_alpha   80.97760625
_cell_angle_beta   90.00000000
_cell_angle_gamma   90.00000000
_symmetry_Int_Tables_number   1
_chemical_formula_structural   Re2(HgO2)5
_chemical_formula_sum   'Re4 Hg10 O20'
_cell_volume   608.01128223
_cell_formula_units_Z   2
loop_
 _symmetry_equiv_pos_site_id
 _symmetry_equiv_pos_as_xyz
  1  'x, y, z'
loop_
 _atom_site_type_symbol
 _atom_site_label
 _atom_site_symmetry_multiplicity
 _atom_site_fract_x
 _atom_site_fract_y
 _atom_site_fract_z
 _atom_site_occupancy
  Re  Re0  1  0.34476202  0.61164094  0.47736921  1
  Re  Re1  1  0.84476202  0.38835906  0.02263079  1
  Re  Re2  1  0.65523798  0.38835906  0.52263079  1
  Re  Re3  1  0.15523798  0.61164094  0.97736921  1
  Hg  Hg0  1  0.08854795  -0.00385019  0.30813300  1
  Hg  Hg1  1  0.71830654  0.87779379  0.82855488  1
  Hg  Hg2  1  0.58854795  0.00385019  0.19186700  1
  Hg  Hg3  1  0.78169346  0.87779379  0.32855488  1
  Hg  Hg4  1  0.28169346  0.12220621  0.17144512  1
  Hg  Hg5  1  0.50000000  0.50000000  0.00000000  1
  Hg  Hg6  1  0.91145205  0.00385019  0.69186700  1
  Hg  Hg7  1  0.21830654  0.12220621  0.67144512  1
  Hg  Hg8  1  0.41145205  -0.00385019  0.80813300  1
  Hg  Hg9  1  -0.00000000  0.50000000  0.50000000  1
  O  O0  1  0.17556923  0.39572321  0.87870934  1
  O  O1  1  0.55067765  0.80539810  0.93981982  1
  O  O2  1  0.78983655  0.30502016  0.46694347  1
  O  O3  1  0.32443077  0.39572321  0.37870934  1
  O  O4  1  0.57458038  0.45645326  0.34099199  1
  O  O5  1  0.94932235  0.80539810  0.43981982  1
  O  O6  1  0.67556923  0.60427679  0.62129066  1
  O  O7  1  0.59035630  0.18319920  0.65504522  1
  O  O8  1  0.05067765  0.19460190  0.56018018  1
  O  O9  1  0.92541962  0.45645326  0.84099199  1
  O  O10  1  0.71016345  0.30502016  0.96694347  1
  O  O11  1  0.44932235  0.19460190  0.06018018  1
  O  O12  1  0.40964370  0.81680080  0.34495478  1
  O  O13  1  0.07458038  0.54354674  0.15900801  1
  O  O14  1  0.28983655  0.69497984  0.03305653  1
  O  O15  1  0.42541962  0.54354674  0.65900801  1
  O  O16  1  0.82443077  0.60427679  0.12129066  1
  O  O17  1  0.09035630  0.81680080  0.84495478  1
  O  O18  1  0.21016345  0.69497984  0.53305653  1
  O  O19  1  0.90964370  0.18319920  0.15504522  1
loop_
_geom_bond_atom_site_label_1
_geom_bond_atom_site_label_2
_geom_bond_distance
_geom_bond_site_symmetry_2
Hg0 O5 2.216372 1_445
Hg0 O8 2.614999 1_555
Hg1 O1 2.176115 1_555
Hg2 O11 2.216372 1_555
Hg2 O1 2.614999 1_544
Hg3 O5 2.176115 1_555
Hg4 O11 2.176115 1_555
Hg5 O1 2.062653 1_554
Hg5 O11 2.062653 1_555
Hg6 O8 2.216372 1_655
Hg6 O5 2.614999 1_545
Hg7 O8 2.176115 1_555
Hg8 O1 2.216372 1_545
Hg8 O11 2.614999 1_556
Hg9 O5 2.062653 1_455
Hg9 O8 2.062653 1_555
O0 Re3 1.740017 1_555
O2 Re2 1.746269 1_555
O3 Re0 1.740017 1_555
O4 Re2 1.741109 1_555
O6 Re2 1.740017 1_555
O7 Re2 1.749543 1_555
O9 Re1 1.741109 1_556
O10 Re1 1.746269 1_556
O12 Re0 1.749543 1_555
O13 Re3 1.741109 1_554
O14 Re3 1.746269 1_554
O15 Re0 1.741109 1_555
O16 Re1 1.740017 1_555
O17 Re3 1.749543 1_555
O18 Re0 1.746269 1_555
O19 Re1 1.749543 1_555
