# generated using pymatgen
data_Eu2SO6
_symmetry_space_group_name_H-M   'P 1'
_cell_length_a   7.25170452
_cell_length_b   7.25170452
_cell_length_c   8.12527628
_cell_angle_alpha   73.31467556
_cell_angle_beta   73.31467556
_cell_angle_gamma   33.53291336
_symmetry_Int_Tables_number   1
_chemical_formula_structural   Eu2SO6
_chemical_formula_sum   'Eu4 S2 O12'
_cell_volume   225.17742994
_cell_formula_units_Z   2
loop_
 _symmetry_equiv_pos_site_id
 _symmetry_equiv_pos_as_xyz
  1  'x, y, z'
loop_
 _atom_site_type_symbol
 _atom_site_label
 _atom_site_symmetry_multiplicity
 _atom_site_fract_x
 _atom_site_fract_y
 _atom_site_fract_z
 _atom_site_occupancy
  Eu  Eu0  1  0.67897525  0.65444984  0.91721732  1
  Eu  Eu1  1  0.34555016  0.32102475  0.58278268  1
  Eu  Eu2  1  0.32102475  0.34555016  0.08278268  1
  Eu  Eu3  1  0.65444984  0.67897525  0.41721732  1
  S  S0  1  0.94815714  0.05184286  0.75000000  1
  S  S1  1  0.05184286  0.94815714  0.25000000  1
  O  O0  1  0.26637558  0.22539440  0.87717902  1
  O  O1  1  0.77460560  0.73362442  0.62282098  1
  O  O2  1  0.73362442  0.77460560  0.12282098  1
  O  O3  1  0.22539440  0.26637558  0.37717902  1
  O  O4  1  0.73805259  0.25984456  0.89768799  1
  O  O5  1  0.74015544  0.26194741  0.60231201  1
  O  O6  1  0.26194741  0.74015544  0.10231201  1
  O  O7  1  0.25984456  0.73805259  0.39768799  1
  O  O8  1  0.23693857  0.94620356  0.70491084  1
  O  O9  1  0.05379644  0.76306143  0.79508916  1
  O  O10  1  0.76306143  0.05379644  0.29508916  1
  O  O11  1  0.94620356  0.23693857  0.20491084  1
loop_
_geom_bond_atom_site_label_1
_geom_bond_atom_site_label_2
_geom_bond_distance
_geom_bond_site_symmetry_2
Eu0 O0 2.309409 1_565
Eu0 O1 2.335608 1_555
Eu0 O2 2.344964 1_556
Eu0 O0 2.370953 1_655
Eu0 O4 2.564209 1_555
Eu0 O6 2.566176 1_556
Eu0 O11 2.672473 1_556
Eu0 O8 2.738699 1_555
Eu1 O1 2.309409 1_455
Eu1 O0 2.335608 1_555
Eu1 O3 2.344964 1_555
Eu1 O1 2.370953 1_545
Eu1 O5 2.564209 1_555
Eu1 O7 2.566176 1_555
Eu1 O10 2.672473 1_555
Eu1 O9 2.738699 1_555
Eu2 O2 2.309409 1_545
Eu2 O3 2.335608 1_555
Eu2 O0 2.344964 1_554
Eu2 O2 2.370953 1_455
Eu2 O6 2.564209 1_555
Eu2 O4 2.566176 1_554
Eu2 O9 2.672473 1_554
Eu2 O10 2.738699 1_555
Eu3 O3 2.309409 1_655
Eu3 O2 2.335608 1_555
Eu3 O1 2.344964 1_555
Eu3 O3 2.370953 1_565
Eu3 O7 2.564209 1_555
Eu3 O5 2.566176 1_555
Eu3 O8 2.672473 1_555
Eu3 O11 2.738699 1_555
O4 S0 1.481457 1_555
O5 S0 1.481457 1_555
O6 S1 1.481457 1_555
O7 S1 1.481457 1_555
O8 S0 1.467191 1_465
O9 S0 1.467191 1_465
O10 S1 1.467191 1_645
O11 S1 1.467191 1_645
