# generated using pymatgen
data_CaVBiO5
_symmetry_space_group_name_H-M   'P 1'
_cell_length_a   5.53330600
_cell_length_b   11.38240600
_cell_length_c   15.80869100
_cell_angle_alpha   90.00000000
_cell_angle_beta   90.00000000
_cell_angle_gamma   90.00000000
_symmetry_Int_Tables_number   1
_chemical_formula_structural   CaVBiO5
_chemical_formula_sum   'Ca8 V8 Bi8 O40'
_cell_volume   995.66827902
_cell_formula_units_Z   8
loop_
 _symmetry_equiv_pos_site_id
 _symmetry_equiv_pos_as_xyz
  1  'x, y, z'
loop_
 _atom_site_type_symbol
 _atom_site_label
 _atom_site_symmetry_multiplicity
 _atom_site_fract_x
 _atom_site_fract_y
 _atom_site_fract_z
 _atom_site_occupancy
  Ca  Ca0  1  0.50466500  0.35898900  0.55213400  1
  Ca  Ca1  1  0.00466500  0.14101100  0.55213400  1
  Ca  Ca2  1  0.00466500  0.64101100  0.94786600  1
  Ca  Ca3  1  0.99533500  0.35898900  0.05213400  1
  Ca  Ca4  1  0.49533500  0.14101100  0.05213400  1
  Ca  Ca5  1  0.99533500  0.85898900  0.44786600  1
  Ca  Ca6  1  0.49533500  0.64101100  0.44786600  1
  Ca  Ca7  1  0.50466500  0.85898900  0.94786600  1
  V  V0  1  0.98603900  0.40403200  0.40159300  1
  V  V1  1  0.51396100  0.90403200  0.59840700  1
  V  V2  1  0.01396100  0.59596800  0.59840700  1
  V  V3  1  0.48603900  0.09596800  0.40159300  1
  V  V4  1  0.01396100  0.09596800  0.90159300  1
  V  V5  1  0.98603900  0.90403200  0.09840700  1
  V  V6  1  0.51396100  0.40403200  0.90159300  1
  V  V7  1  0.48603900  0.59596800  0.09840700  1
  Bi  Bi0  1  0.95214600  0.84559200  0.76826800  1
  Bi  Bi1  1  0.04785400  0.15440800  0.23173200  1
  Bi  Bi2  1  0.54785400  0.34559200  0.23173200  1
  Bi  Bi3  1  0.04785400  0.65440800  0.26826800  1
  Bi  Bi4  1  0.45214600  0.15440800  0.73173200  1
  Bi  Bi5  1  0.45214600  0.65440800  0.76826800  1
  Bi  Bi6  1  0.54785400  0.84559200  0.26826800  1
  Bi  Bi7  1  0.95214600  0.34559200  0.73173200  1
  O  O0  1  0.93913100  0.32629700  0.30491300  1
  O  O1  1  0.29513300  0.04650000  0.93388700  1
  O  O2  1  0.20486700  0.54650000  0.06611300  1
  O  O3  1  0.24282200  0.76894100  0.84668200  1
  O  O4  1  0.25717800  0.26894100  0.15331800  1
  O  O5  1  0.93913100  0.82629700  0.19508700  1
  O  O6  1  0.25717800  0.76894100  0.34668200  1
  O  O7  1  0.56086900  0.82629700  0.69508700  1
  O  O8  1  0.29513300  0.54650000  0.56611300  1
  O  O9  1  0.06086900  0.67370300  0.69508700  1
  O  O10  1  0.56086900  0.32629700  0.80491300  1
  O  O11  1  0.62402500  0.18294400  0.47577200  1
  O  O12  1  0.79513300  0.95350000  0.56611300  1
  O  O13  1  0.75717800  0.73105900  0.34668200  1
  O  O14  1  0.17221000  0.02491000  0.12489000  1
  O  O15  1  0.79513300  0.45350000  0.93388700  1
  O  O16  1  0.06086900  0.17370300  0.80491300  1
  O  O17  1  0.74282200  0.23105900  0.65331800  1
  O  O18  1  0.12402500  0.81705600  0.02422800  1
  O  O19  1  0.20486700  0.04650000  0.43388700  1
  O  O20  1  0.37597500  0.81705600  0.52422800  1
  O  O21  1  0.82779000  0.97509000  0.87511000  1
  O  O22  1  0.75717800  0.23105900  0.15331800  1
  O  O23  1  0.67221000  0.97509000  0.37511000  1
  O  O24  1  0.37597500  0.31705600  0.97577200  1
  O  O25  1  0.12402500  0.31705600  0.47577200  1
  O  O26  1  0.70486700  0.45350000  0.43388700  1
  O  O27  1  0.70486700  0.95350000  0.06611300  1
  O  O28  1  0.67221000  0.47509000  0.12489000  1
  O  O29  1  0.87597500  0.68294400  0.52422800  1
  O  O30  1  0.87597500  0.18294400  0.97577200  1
  O  O31  1  0.62402500  0.68294400  0.02422800  1
  O  O32  1  0.82779000  0.47509000  0.62489000  1
  O  O33  1  0.74282200  0.73105900  0.84668200  1
  O  O34  1  0.24282200  0.26894100  0.65331800  1
  O  O35  1  0.17221000  0.52491000  0.37511000  1
  O  O36  1  0.32779000  0.52491000  0.87511000  1
  O  O37  1  0.43913100  0.17370300  0.30491300  1
  O  O38  1  0.32779000  0.02491000  0.62489000  1
  O  O39  1  0.43913100  0.67370300  0.19508700  1
loop_
_geom_bond_atom_site_label_1
_geom_bond_atom_site_label_2
_geom_bond_distance
_geom_bond_site_symmetry_2
Ca0 O34 2.389229 1_555
Ca0 O26 2.424631 1_555
Ca0 O11 2.430796 1_555
Ca0 O8 2.438935 1_555
Ca0 O25 2.474101 1_555
Ca0 O32 2.503209 1_555
Ca0 O17 2.532911 1_555
Ca1 O17 2.389229 1_455
Ca1 O19 2.424631 1_555
Ca1 O25 2.430796 1_555
Ca1 O12 2.438935 1_445
Ca1 O11 2.474101 1_455
Ca1 O38 2.503209 1_555
Ca1 O34 2.532911 1_555
Ca2 O33 2.389229 1_455
Ca2 O2 2.424631 1_556
Ca2 O18 2.430796 1_556
Ca2 O15 2.438935 1_455
Ca2 O31 2.474101 1_456
Ca2 O36 2.503209 1_555
Ca2 O3 2.532911 1_555
Ca3 O4 2.389229 1_655
Ca3 O15 2.424631 1_554
Ca3 O30 2.430796 1_554
Ca3 O2 2.438935 1_655
Ca3 O24 2.474101 1_654
Ca3 O28 2.503209 1_555
Ca3 O22 2.532911 1_555
Ca4 O22 2.389229 1_555
Ca4 O1 2.424631 1_554
Ca4 O24 2.430796 1_554
Ca4 O27 2.438935 1_545
Ca4 O30 2.474101 1_554
Ca4 O14 2.503209 1_555
Ca4 O4 2.532911 1_555
Ca5 O6 2.389229 1_655
Ca5 O12 2.424631 1_555
Ca5 O29 2.430796 1_555
Ca5 O19 2.438935 1_665
Ca5 O20 2.474101 1_655
Ca5 O23 2.503209 1_555
Ca5 O13 2.532911 1_555
Ca6 O13 2.389229 1_555
Ca6 O8 2.424631 1_555
Ca6 O20 2.430796 1_555
Ca6 O26 2.438935 1_555
Ca6 O29 2.474101 1_555
Ca6 O35 2.503209 1_555
Ca6 O6 2.532911 1_555
Ca7 O3 2.389229 1_555
Ca7 O27 2.424631 1_556
Ca7 O31 2.430796 1_556
Ca7 O1 2.438935 1_565
Ca7 O18 2.474101 1_556
Ca7 O21 2.503209 1_555
Ca7 O33 2.532911 1_555
Bi0 O33 2.139567 1_555
Bi0 O3 2.210163 1_655
Bi0 O21 2.344991 1_555
Bi0 O9 2.351225 1_655
Bi0 O7 2.464570 1_555
Bi1 O4 2.139567 1_555
Bi1 O22 2.210163 1_455
Bi1 O14 2.344991 1_555
Bi1 O0 2.351225 1_455
Bi1 O37 2.464570 1_555
Bi2 O22 2.139567 1_555
Bi2 O4 2.210163 1_555
Bi2 O28 2.344991 1_555
Bi2 O37 2.351225 1_555
Bi2 O0 2.464570 1_555
Bi3 O6 2.139567 1_555
Bi3 O13 2.210163 1_455
Bi3 O35 2.344991 1_555
Bi3 O5 2.351225 1_455
Bi3 O39 2.464570 1_555
Bi4 O34 2.139567 1_555
Bi4 O17 2.210163 1_555
Bi4 O38 2.344991 1_555
Bi4 O10 2.351225 1_555
Bi4 O16 2.464570 1_555
Bi5 O3 2.139567 1_555
Bi5 O33 2.210163 1_555
Bi5 O36 2.344991 1_555
Bi5 O7 2.351225 1_555
Bi5 O9 2.464570 1_555
Bi6 O13 2.139567 1_555
Bi6 O6 2.210163 1_555
Bi6 O23 2.344991 1_555
Bi6 O39 2.351225 1_555
Bi6 O5 2.464570 1_555
Bi7 O17 2.139567 1_555
Bi7 O34 2.210163 1_655
Bi7 O32 2.344991 1_555
Bi7 O16 2.351225 1_655
Bi7 O10 2.464570 1_555
O0 V0 1.784998 1_555
O1 V4 1.731539 1_555
O2 V7 1.731539 1_555
O5 V5 1.784998 1_555
O7 V1 1.784998 1_555
O8 V2 1.731539 1_555
O9 V2 1.784998 1_555
O10 V6 1.784998 1_555
O11 V3 1.714122 1_555
O12 V1 1.731539 1_555
O14 V5 1.769045 1_445
O15 V6 1.731539 1_555
O16 V4 1.784998 1_555
O18 V5 1.714122 1_455
O19 V3 1.731539 1_555
O20 V1 1.714122 1_555
O21 V4 1.769045 1_665
O23 V3 1.769045 1_565
O24 V6 1.714122 1_555
O25 V0 1.714122 1_455
O26 V0 1.731539 1_555
O27 V5 1.731539 1_555
O28 V7 1.769045 1_555
O29 V2 1.714122 1_655
O30 V4 1.714122 1_655
O31 V7 1.714122 1_555
O32 V2 1.769045 1_655
O35 V0 1.769045 1_455
O36 V6 1.769045 1_555
O37 V3 1.784998 1_555
O38 V1 1.769045 1_545
O39 V7 1.784998 1_555
