# generated using pymatgen
data_Mn2CuO4
_symmetry_space_group_name_H-M   'P 1'
_cell_length_a   5.84097548
_cell_length_b   5.84097619
_cell_length_c   23.70933512
_cell_angle_alpha   60.48079234
_cell_angle_beta   60.48078901
_cell_angle_gamma   59.99999551
_symmetry_Int_Tables_number   1
_chemical_formula_structural   Mn2CuO4
_chemical_formula_sum   'Mn16 Cu8 O32'
_cell_volume   576.09397146
_cell_formula_units_Z   8
loop_
 _symmetry_equiv_pos_site_id
 _symmetry_equiv_pos_as_xyz
  1  'x, y, z'
loop_
 _atom_site_type_symbol
 _atom_site_label
 _atom_site_symmetry_multiplicity
 _atom_site_fract_x
 _atom_site_fract_y
 _atom_site_fract_z
 _atom_site_occupancy
  Mn  Mn0  1  0.12619400  0.12619400  0.03035500  1
  Mn  Mn1  1  0.99543100  0.50235400  0.12496500  1
  Mn  Mn2  1  0.12376800  0.12376800  0.28217400  1
  Mn  Mn3  1  0.50235400  0.99543100  0.12496500  1
  Mn  Mn4  1  0.50235400  0.50235400  0.12496500  1
  Mn  Mn5  1  0.99287400  0.49518800  0.37918800  1
  Mn  Mn6  1  0.49518800  0.99287400  0.37918800  1
  Mn  Mn7  1  0.49518800  0.49518800  0.37918800  1
  Mn  Mn8  1  0.99971700  0.49961500  0.62526300  1
  Mn  Mn9  1  0.49619900  0.49619900  0.50285100  1
  Mn  Mn10  1  0.49961500  0.99971700  0.62526300  1
  Mn  Mn11  1  0.49961500  0.49961500  0.62526300  1
  Mn  Mn12  1  0.00133900  0.50655900  0.87138600  1
  Mn  Mn13  1  0.50231500  0.50231500  0.74826400  1
  Mn  Mn14  1  0.50655900  0.00133900  0.87138600  1
  Mn  Mn15  1  0.50655900  0.50655900  0.87138600  1
  Cu  Cu0  1  0.50277100  0.50277100  0.99792200  1
  Cu  Cu1  1  0.49675400  0.49675400  0.25243400  1
  Cu  Cu2  1  0.12417600  0.12417600  0.53186800  1
  Cu  Cu3  1  0.12771800  0.12771800  0.77921200  1
  Cu  Cu4  1  0.87320800  0.87320800  0.22009400  1
  Cu  Cu5  1  0.87090700  0.87090700  0.47182000  1
  Cu  Cu6  1  0.87676000  0.87676000  0.71743000  1
  Cu  Cu7  1  0.87804100  0.87804100  0.96647000  1
  O  O0  1  0.25330100  0.25330100  0.06960700  1
  O  O1  1  0.26189000  0.26189000  0.17858300  1
  O  O2  1  0.25330100  0.71496900  0.06960700  1
  O  O3  1  0.71496900  0.25330100  0.06960700  1
  O  O4  1  0.24425300  0.24425300  0.32485500  1
  O  O5  1  0.28918100  0.74744100  0.17898400  1
  O  O6  1  0.24425300  0.71207200  0.32485500  1
  O  O7  1  0.74744100  0.28918100  0.17898400  1
  O  O8  1  0.73972300  0.73972300  0.07020700  1
  O  O9  1  0.25933900  0.25933900  0.43049600  1
  O  O10  1  0.71207200  0.24425300  0.32485500  1
  O  O11  1  0.74744100  0.74744100  0.17898400  1
  O  O12  1  0.26145200  0.26145200  0.56722500  1
  O  O13  1  0.28707300  0.73081600  0.43782400  1
  O  O14  1  0.73281500  0.73281500  0.32538900  1
  O  O15  1  0.73081600  0.28707300  0.43782400  1
  O  O16  1  0.26145200  0.70819600  0.56722500  1
  O  O17  1  0.26435700  0.26435700  0.67673200  1
  O  O18  1  0.73081600  0.73081600  0.43782400  1
  O  O19  1  0.70819600  0.26145200  0.56722500  1
  O  O20  1  0.29176000  0.73771500  0.68320300  1
  O  O21  1  0.26861700  0.26861700  0.81274500  1
  O  O22  1  0.73497900  0.73497900  0.57376600  1
  O  O23  1  0.73771500  0.29176000  0.68320300  1
  O  O24  1  0.26653700  0.26653700  0.92509800  1
  O  O25  1  0.26861700  0.71178800  0.81274500  1
  O  O26  1  0.73771500  0.73771500  0.68320300  1
  O  O27  1  0.71178800  0.26861700  0.81274500  1
  O  O28  1  0.29325400  0.75377000  0.92480200  1
  O  O29  1  0.75377000  0.29325400  0.92480200  1
  O  O30  1  0.74173800  0.74173800  0.81869700  1
  O  O31  1  0.75377000  0.75377000  0.92480200  1
loop_
_geom_bond_atom_site_label_1
_geom_bond_atom_site_label_2
_geom_bond_distance
_geom_bond_site_symmetry_2
Mn0 O0 1.970133 1_555
Mn0 O3 1.970147 1_455
Mn0 O2 1.970147 1_545
Mn0 O24 2.052310 1_554
Mn1 O11 1.921671 1_555
Mn1 O7 1.921671 1_555
Mn1 O0 1.962093 1_655
Mn1 O2 1.962093 1_655
Mn1 O8 1.976067 1_555
Mn1 O1 2.003831 1_655
Mn2 O4 1.978222 1_555
Mn2 O10 1.978231 1_455
Mn2 O6 1.978231 1_545
Mn2 O1 2.019826 1_555
Mn3 O11 1.921671 1_555
Mn3 O5 1.921671 1_555
Mn3 O0 1.962093 1_565
Mn3 O3 1.962093 1_565
Mn3 O8 1.976067 1_555
Mn3 O1 2.003831 1_565
Mn4 O7 1.921671 1_555
Mn4 O5 1.921671 1_555
Mn4 O2 1.962093 1_555
Mn4 O3 1.962093 1_555
Mn4 O8 1.976058 1_555
Mn4 O1 2.003818 1_555
Mn5 O6 1.951461 1_655
Mn5 O4 1.951478 1_655
Mn5 O18 1.962579 1_555
Mn5 O15 1.962583 1_555
Mn5 O9 1.967300 1_655
Mn5 O14 1.979189 1_555
Mn6 O10 1.951461 1_565
Mn6 O4 1.951478 1_565
Mn6 O18 1.962579 1_555
Mn6 O13 1.962583 1_555
Mn6 O9 1.967300 1_565
Mn6 O14 1.979189 1_555
Mn7 O6 1.951479 1_555
Mn7 O10 1.951479 1_555
Mn7 O15 1.962579 1_555
Mn7 O13 1.962579 1_555
Mn7 O9 1.967304 1_555
Mn7 O14 1.979184 1_555
Mn8 O23 1.961088 1_555
Mn8 O26 1.961100 1_555
Mn8 O17 1.961894 1_655
Mn8 O22 1.962762 1_555
Mn8 O12 1.962767 1_655
Mn8 O16 1.962771 1_655
Mn9 O16 1.960902 1_555
Mn9 O19 1.960902 1_555
Mn9 O12 1.960906 1_555
Mn9 O15 1.961346 1_555
Mn9 O13 1.961346 1_555
Mn9 O18 1.961346 1_555
Mn10 O20 1.961088 1_555
Mn10 O26 1.961100 1_555
Mn10 O17 1.961894 1_565
Mn10 O22 1.962762 1_555
Mn10 O12 1.962767 1_565
Mn10 O19 1.962771 1_565
Mn11 O23 1.961101 1_555
Mn11 O20 1.961101 1_555
Mn11 O17 1.961894 1_555
Mn11 O16 1.962767 1_555
Mn11 O19 1.962767 1_555
Mn11 O22 1.962771 1_555
Mn12 O29 1.920759 1_455
Mn12 O31 1.920763 1_455
Mn12 O30 1.959449 1_455
Mn12 O21 1.974175 1_555
Mn12 O25 1.974179 1_555
Mn12 O24 1.999891 1_555
Mn13 O21 1.953001 1_555
Mn13 O25 1.953005 1_555
Mn13 O27 1.953005 1_555
Mn13 O23 1.967469 1_555
Mn13 O20 1.967469 1_555
Mn13 O26 1.967473 1_555
Mn14 O28 1.920759 1_545
Mn14 O31 1.920763 1_545
Mn14 O30 1.959449 1_545
Mn14 O21 1.974175 1_555
Mn14 O27 1.974179 1_555
Mn14 O24 1.999891 1_555
Mn15 O29 1.920763 1_555
Mn15 O28 1.920763 1_555
Mn15 O30 1.959453 1_555
Mn15 O25 1.974174 1_555
Mn15 O27 1.974174 1_555
Mn15 O24 1.999883 1_555
Cu0 O2 2.092243 1_556
Cu0 O3 2.092243 1_556
Cu0 O0 2.092250 1_556
Cu0 O29 2.108175 1_555
Cu0 O28 2.108175 1_555
Cu0 O31 2.108179 1_555
Cu1 O7 2.106945 1_555
Cu1 O5 2.106945 1_555
Cu1 O11 2.106949 1_555
Cu1 O6 2.117270 1_555
Cu1 O10 2.117270 1_555
Cu1 O4 2.117270 1_555
Cu2 O9 1.976560 1_555
Cu2 O19 1.989031 1_455
Cu2 O16 1.989032 1_545
Cu2 O12 1.989032 1_555
Cu3 O27 1.988361 1_455
Cu3 O25 1.988362 1_545
Cu3 O21 1.988362 1_555
Cu3 O17 1.998163 1_555
Cu4 O5 1.995013 1_655
Cu4 O7 1.995014 1_565
Cu4 O11 1.995018 1_555
Cu4 O14 2.053051 1_555
Cu5 O22 1.987751 1_555
Cu5 O13 1.989529 1_655
Cu5 O15 1.989530 1_565
Cu5 O18 1.989530 1_555
Cu6 O30 1.974512 1_555
Cu6 O26 1.984002 1_555
Cu6 O20 1.984011 1_655
Cu6 O23 1.984011 1_565
Cu7 O28 1.992461 1_655
Cu7 O29 1.992461 1_565
Cu7 O31 1.992466 1_555
Cu7 O8 2.022673 1_556
