# generated using pymatgen
data_Ge(PbS2)2
_symmetry_space_group_name_H-M   'P 1'
_cell_length_a   9.29315529
_cell_length_b   8.04681700
_cell_length_c   10.90404737
_cell_angle_alpha   65.47093376
_cell_angle_beta   90.00000000
_cell_angle_gamma   90.00000000
_symmetry_Int_Tables_number   1
_chemical_formula_structural   Ge(PbS2)2
_chemical_formula_sum   'Ge4 Pb8 S16'
_cell_volume   741.81820103
_cell_formula_units_Z   4
loop_
 _symmetry_equiv_pos_site_id
 _symmetry_equiv_pos_as_xyz
  1  'x, y, z'
loop_
 _atom_site_type_symbol
 _atom_site_label
 _atom_site_symmetry_multiplicity
 _atom_site_fract_x
 _atom_site_fract_y
 _atom_site_fract_z
 _atom_site_occupancy
  Ge  Ge0  1  0.81011033  0.28332624  0.00595706  1
  Ge  Ge1  1  0.31011033  0.71667376  0.49404294  1
  Ge  Ge2  1  0.18988967  0.71667376  0.99404294  1
  Ge  Ge3  1  0.68988967  0.28332624  0.50595706  1
  Pb  Pb0  1  0.54929352  0.59607513  0.15127113  1
  Pb  Pb1  1  0.32740086  0.03928544  0.66083638  1
  Pb  Pb2  1  0.82740086  0.96071456  0.83916362  1
  Pb  Pb3  1  0.67259914  0.96071456  0.33916362  1
  Pb  Pb4  1  0.45070648  0.40392487  0.84872887  1
  Pb  Pb5  1  0.95070648  0.59607513  0.65127113  1
  Pb  Pb6  1  0.04929352  0.40392487  0.34872887  1
  Pb  Pb7  1  0.17259914  0.03928544  0.16083638  1
  S  S0  1  0.20379469  0.44717014  0.59755296  1
  S  S1  1  0.08910603  0.77803995  0.79633378  1
  S  S2  1  0.02190452  0.75146415  0.12737803  1
  S  S3  1  0.86400416  0.07965714  0.55715912  1
  S  S4  1  0.70379469  0.55282986  0.90244704  1
  S  S5  1  0.79620531  0.55282986  0.40244704  1
  S  S6  1  0.58910603  0.22196005  0.70366622  1
  S  S7  1  0.29620531  0.44717014  0.09755296  1
  S  S8  1  0.52190452  0.24853585  0.37262197  1
  S  S9  1  0.97809548  0.24853585  0.87262197  1
  S  S10  1  0.41089397  0.77803995  0.29633378  1
  S  S11  1  0.36400416  0.92034286  0.94284088  1
  S  S12  1  0.63599584  0.07965714  0.05715912  1
  S  S13  1  0.91089397  0.22196005  0.20366622  1
  S  S14  1  0.47809548  0.75146415  0.62737803  1
  S  S15  1  0.13599584  0.92034286  0.44284088  1
loop_
_geom_bond_atom_site_label_1
_geom_bond_atom_site_label_2
_geom_bond_distance
_geom_bond_site_symmetry_2
Ge0 S12 2.203653 1_555
Ge0 S13 2.210147 1_555
Ge0 S4 2.218276 1_554
Ge0 S9 2.228721 1_554
Ge1 S15 2.203653 1_555
Ge1 S10 2.210147 1_555
Ge1 S0 2.218276 1_555
Ge1 S14 2.228721 1_555
Ge2 S11 2.203653 1_555
Ge2 S1 2.210147 1_555
Ge2 S7 2.218276 1_556
Ge2 S2 2.228721 1_556
Ge3 S3 2.203653 1_555
Ge3 S6 2.210147 1_555
Ge3 S5 2.218276 1_555
Ge3 S8 2.228721 1_555
Pb0 S7 2.809521 1_555
Pb0 S8 2.847233 1_555
Pb0 S10 2.867627 1_555
Pb0 S11 3.164636 1_554
Pb0 S4 3.213715 1_554
Pb1 S11 2.836132 1_545
Pb1 S14 2.856563 1_545
Pb1 S6 2.977215 1_555
Pb1 S1 2.987861 1_545
Pb2 S3 2.836132 1_565
Pb2 S9 2.856563 1_565
Pb2 S1 2.977215 1_655
Pb2 S6 2.987861 1_565
Pb3 S12 2.836132 1_565
Pb3 S8 2.856563 1_565
Pb3 S10 2.977215 1_555
Pb3 S13 2.987861 1_565
Pb4 S4 2.809521 1_555
Pb4 S14 2.847233 1_555
Pb4 S6 2.867627 1_555
Pb4 S12 3.164636 1_556
Pb4 S7 3.213715 1_556
Pb5 S0 2.809521 1_655
Pb5 S9 2.847233 1_555
Pb5 S1 2.867627 1_655
Pb5 S15 3.164636 1_655
Pb5 S5 3.213715 1_555
Pb6 S5 2.809521 1_455
Pb6 S2 2.847233 1_555
Pb6 S13 2.867627 1_455
Pb6 S3 3.164636 1_455
Pb6 S0 3.213715 1_555
Pb7 S15 2.836132 1_545
Pb7 S2 2.856563 1_545
Pb7 S13 2.977215 1_455
Pb7 S10 2.987861 1_545
