# generated using pymatgen
data_LiW6CCl18
_symmetry_space_group_name_H-M   'P 1'
_cell_length_a   9.22187163
_cell_length_b   9.22187163
_cell_length_c   17.47511800
_cell_angle_alpha   90.00000000
_cell_angle_beta   90.00000000
_cell_angle_gamma   119.99999738
_symmetry_Int_Tables_number   1
_chemical_formula_structural   LiW6CCl18
_chemical_formula_sum   'Li2 W12 C2 Cl36'
_cell_volume   1287.03069732
_cell_formula_units_Z   2
loop_
 _symmetry_equiv_pos_site_id
 _symmetry_equiv_pos_as_xyz
  1  'x, y, z'
loop_
 _atom_site_type_symbol
 _atom_site_label
 _atom_site_symmetry_multiplicity
 _atom_site_fract_x
 _atom_site_fract_y
 _atom_site_fract_z
 _atom_site_occupancy
  Li  Li0  1  0.00000000  0.00000000  0.00000000  1
  Li  Li1  1  0.00000000  0.00000000  0.50000000  1
  W  W0  1  0.52146900  0.70249100  0.16688900  1
  W  W1  1  0.70249100  0.18102200  0.66688900  1
  W  W2  1  0.47853100  0.29750900  0.66688900  1
  W  W3  1  0.47853100  0.29750900  0.83311100  1
  W  W4  1  0.81897800  0.52146900  0.66688900  1
  W  W5  1  0.18102200  0.47853100  0.16688900  1
  W  W6  1  0.29750900  0.81897800  0.33311100  1
  W  W7  1  0.29750900  0.81897800  0.16688900  1
  W  W8  1  0.81897800  0.52146900  0.83311100  1
  W  W9  1  0.18102200  0.47853100  0.33311100  1
  W  W10  1  0.70249100  0.18102200  0.83311100  1
  W  W11  1  0.52146900  0.70249100  0.33311100  1
  C  C0  1  0.66666700  0.33333300  0.75000000  1
  C  C1  1  0.33333300  0.66666700  0.25000000  1
  Cl  Cl0  1  0.37709300  0.47729100  0.42228300  1
  Cl  Cl1  1  0.22591900  0.24944900  0.59769200  1
  Cl  Cl2  1  0.75055100  0.97647000  0.90230800  1
  Cl  Cl3  1  0.20913500  0.28093100  0.25000000  1
  Cl  Cl4  1  0.37709300  0.47729100  0.07771700  1
  Cl  Cl5  1  0.57866400  0.52235700  0.25000000  1
  Cl  Cl6  1  0.52235700  0.94369300  0.75000000  1
  Cl  Cl7  1  0.62290700  0.52270900  0.57771700  1
  Cl  Cl8  1  0.77408100  0.75055100  0.40230800  1
  Cl  Cl9  1  0.89980200  0.37709300  0.92228300  1
  Cl  Cl10  1  0.42133600  0.47764300  0.75000000  1
  Cl  Cl11  1  0.92820400  0.20913500  0.75000000  1
  Cl  Cl12  1  0.10019800  0.62290700  0.42228300  1
  Cl  Cl13  1  0.52270900  0.89980200  0.07771700  1
  Cl  Cl14  1  0.05630700  0.57866400  0.75000000  1
  Cl  Cl15  1  0.24944900  0.02353000  0.40230800  1
  Cl  Cl16  1  0.02353000  0.77408100  0.90230800  1
  Cl  Cl17  1  0.79086500  0.71906900  0.75000000  1
  Cl  Cl18  1  0.24944900  0.02353000  0.09769200  1
  Cl  Cl19  1  0.07179600  0.79086500  0.25000000  1
  Cl  Cl20  1  0.47764300  0.05630700  0.25000000  1
  Cl  Cl21  1  0.89980200  0.37709300  0.57771700  1
  Cl  Cl22  1  0.47729100  0.10019800  0.57771700  1
  Cl  Cl23  1  0.02353000  0.77408100  0.59769200  1
  Cl  Cl24  1  0.71906900  0.92820400  0.25000000  1
  Cl  Cl25  1  0.62290700  0.52270900  0.92228300  1
  Cl  Cl26  1  0.97647000  0.22591900  0.09769200  1
  Cl  Cl27  1  0.47729100  0.10019800  0.92228300  1
  Cl  Cl28  1  0.94369300  0.42133600  0.25000000  1
  Cl  Cl29  1  0.75055100  0.97647000  0.59769200  1
  Cl  Cl30  1  0.22591900  0.24944900  0.90230800  1
  Cl  Cl31  1  0.97647000  0.22591900  0.40230800  1
  Cl  Cl32  1  0.77408100  0.75055100  0.09769200  1
  Cl  Cl33  1  0.28093100  0.07179600  0.75000000  1
  Cl  Cl34  1  0.52270900  0.89980200  0.42228300  1
  Cl  Cl35  1  0.10019800  0.62290700  0.07771700  1
loop_
_geom_bond_atom_site_label_1
_geom_bond_atom_site_label_2
_geom_bond_distance
_geom_bond_site_symmetry_2
C0 W1 2.157647 1_555
C0 W10 2.157647 1_555
C0 W4 2.157651 1_555
C0 W8 2.157651 1_555
C0 W3 2.157654 1_555
C0 W2 2.157654 1_555
C1 W6 2.157647 1_555
C1 W7 2.157647 1_555
C1 W5 2.157651 1_555
C1 W9 2.157651 1_555
C1 W11 2.157654 1_555
C1 W0 2.157654 1_555
Cl0 W9 2.391329 1_555
Cl0 W11 2.397677 1_555
Cl1 W2 2.460288 1_555
Cl1 Li1 2.784630 1_555
Cl2 W10 2.460288 1_565
Cl2 Li0 2.784630 1_666
Cl3 W9 2.443275 1_555
Cl3 W5 2.443275 1_555
Cl4 W5 2.391329 1_555
Cl4 W0 2.397677 1_555
Cl5 W0 2.454233 1_555
Cl5 W11 2.454233 1_555
Cl6 W10 2.454233 1_565
Cl6 W1 2.454233 1_565
Cl7 W4 2.391329 1_555
Cl7 W2 2.397677 1_555
Cl8 W11 2.460288 1_555
Cl8 Li1 2.784630 1_665
Cl9 W10 2.391329 1_555
Cl9 W8 2.397677 1_555
Cl10 W2 2.454233 1_555
Cl10 W3 2.454233 1_555
Cl11 W10 2.443275 1_555
Cl11 W1 2.443275 1_555
Cl12 W6 2.391329 1_555
Cl12 W9 2.397677 1_555
Cl13 W0 2.391329 1_555
Cl13 W7 2.397677 1_555
Cl14 W8 2.454233 1_455
Cl14 W4 2.454233 1_455
Cl15 W6 2.460288 1_545
Cl15 Li1 2.784630 1_555
Cl16 W8 2.460288 1_455
Cl16 Li0 2.784630 1_566
Cl17 W8 2.443275 1_555
Cl17 W4 2.443275 1_555
Cl18 W7 2.460288 1_545
Cl18 Li0 2.784630 1_555
Cl19 W7 2.443275 1_555
Cl19 W6 2.443275 1_555
Cl20 W6 2.454233 1_545
Cl20 W7 2.454233 1_545
Cl21 W1 2.391329 1_555
Cl21 W4 2.397677 1_555
Cl22 W2 2.391329 1_555
Cl22 W1 2.397677 1_555
Cl23 W4 2.460288 1_455
Cl23 Li1 2.784630 1_565
Cl24 W11 2.443275 1_555
Cl24 W0 2.443275 1_555
Cl25 W8 2.391329 1_555
Cl25 W3 2.397677 1_555
Cl26 W5 2.460288 1_655
Cl26 Li0 2.784630 1_655
Cl27 W3 2.391329 1_555
Cl27 W10 2.397677 1_555
Cl28 W5 2.454233 1_655
Cl28 W9 2.454233 1_655
Cl29 W1 2.460288 1_565
Cl29 Li1 2.784630 1_665
Cl30 W3 2.460288 1_555
Cl30 Li0 2.784630 1_556
Cl31 W9 2.460288 1_655
Cl31 Li1 2.784630 1_655
Cl32 W0 2.460288 1_555
Cl32 Li0 2.784630 1_665
Cl33 W2 2.443275 1_555
Cl33 W3 2.443275 1_555
Cl34 W11 2.391329 1_555
Cl34 W6 2.397677 1_555
Cl35 W7 2.391329 1_555
Cl35 W5 2.397677 1_555
