# generated using pymatgen
data_K3Bi5(AsO4)6
_symmetry_space_group_name_H-M   'P 1'
_cell_length_a   9.90484197
_cell_length_b   9.90484197
_cell_length_c   19.49083486
_cell_angle_alpha   66.61894828
_cell_angle_beta   66.61894828
_cell_angle_gamma   43.33162111
_symmetry_Int_Tables_number   1
_chemical_formula_structural   K3Bi5(AsO4)6
_chemical_formula_sum   'K6 Bi10 As12 O48'
_cell_volume   1186.52135780
_cell_formula_units_Z   2
loop_
 _symmetry_equiv_pos_site_id
 _symmetry_equiv_pos_as_xyz
  1  'x, y, z'
loop_
 _atom_site_type_symbol
 _atom_site_label
 _atom_site_symmetry_multiplicity
 _atom_site_fract_x
 _atom_site_fract_y
 _atom_site_fract_z
 _atom_site_occupancy
  K  K0  1  0.30585800  0.69414200  0.25000000  1
  K  K1  1  0.46567100  0.68538700  0.41765500  1
  K  K2  1  0.68538700  0.46567100  0.91765500  1
  K  K3  1  0.31461300  0.53432900  0.08234500  1
  K  K4  1  0.69414200  0.30585800  0.75000000  1
  K  K5  1  0.53432900  0.31461300  0.58234500  1
  Bi  Bi0  1  0.82180500  0.61502900  0.20153400  1
  Bi  Bi1  1  0.95916400  0.76735700  0.47271400  1
  Bi  Bi2  1  0.76735700  0.95916400  0.97271400  1
  Bi  Bi3  1  0.84111500  0.15888500  0.25000000  1
  Bi  Bi4  1  0.61502900  0.82180500  0.70153400  1
  Bi  Bi5  1  0.38497100  0.17819500  0.29846600  1
  Bi  Bi6  1  0.23264300  0.04083600  0.02728600  1
  Bi  Bi7  1  0.17819500  0.38497100  0.79846600  1
  Bi  Bi8  1  0.04083600  0.23264300  0.52728600  1
  Bi  Bi9  1  0.15888500  0.84111500  0.75000000  1
  As  As0  1  0.28898200  0.44948800  0.91407100  1
  As  As1  1  0.91129300  0.66302300  0.34590600  1
  As  As2  1  0.71101800  0.55051200  0.08592900  1
  As  As3  1  0.08870700  0.33697700  0.65409400  1
  As  As4  1  0.44948800  0.28898200  0.41407100  1
  As  As5  1  0.55051200  0.71101800  0.58592900  1
  As  As6  1  0.66302300  0.91129300  0.84590600  1
  As  As7  1  0.83537800  0.02330800  0.11621100  1
  As  As8  1  0.33697700  0.08870700  0.15409400  1
  As  As9  1  0.97669200  0.16462200  0.38378900  1
  As  As10  1  0.16462200  0.97669200  0.88378900  1
  As  As11  1  0.02330800  0.83537800  0.61621100  1
  O  O0  1  0.70049800  0.46383700  0.18513200  1
  O  O1  1  0.85076500  0.37071800  0.03392900  1
  O  O2  1  0.65227000  0.80471600  0.57725800  1
  O  O3  1  0.33787300  0.83321000  0.81260000  1
  O  O4  1  0.46033600  0.71722500  0.08216100  1
  O  O5  1  0.66212700  0.16679000  0.18740000  1
  O  O6  1  0.56225300  0.90658600  0.94028500  1
  O  O7  1  0.71722500  0.46033600  0.58216100  1
  O  O8  1  0.87332400  0.49252200  0.71620600  1
  O  O9  1  0.14810300  0.74363200  0.53274500  1
  O  O10  1  0.34773000  0.19528400  0.42274200  1
  O  O11  1  0.28277500  0.53966400  0.41783900  1
  O  O12  1  0.84941600  0.89790900  0.84185800  1
  O  O13  1  0.19836300  0.10545300  0.36890100  1
  O  O14  1  0.19528400  0.34773000  0.92274200  1
  O  O15  1  0.89790900  0.84941600  0.34185800  1
  O  O16  1  0.46383700  0.70049800  0.68513200  1
  O  O17  1  0.75531000  0.71601300  0.81174700  1
  O  O18  1  0.85189700  0.25636800  0.46725500  1
  O  O19  1  0.25636800  0.85189700  0.96725500  1
  O  O20  1  0.53616300  0.29950200  0.31486800  1
  O  O21  1  0.15058400  0.10209100  0.15814200  1
  O  O22  1  0.05032400  0.95223000  0.12114900  1
  O  O23  1  0.80163700  0.89454700  0.63109900  1
  O  O24  1  0.53966400  0.28277500  0.91783900  1
  O  O25  1  0.24469000  0.28398700  0.18825300  1
  O  O26  1  0.50747800  0.12667600  0.78379400  1
  O  O27  1  0.14923500  0.62928200  0.96607100  1
  O  O28  1  0.95223000  0.05032400  0.62114900  1
  O  O29  1  0.10209100  0.15058400  0.65814200  1
  O  O30  1  0.16679000  0.66212700  0.68740000  1
  O  O31  1  0.37071800  0.85076500  0.53392900  1
  O  O32  1  0.04777000  0.94967600  0.37885100  1
  O  O33  1  0.94967600  0.04777000  0.87885100  1
  O  O34  1  0.43774700  0.09341400  0.05971500  1
  O  O35  1  0.28398700  0.24469000  0.68825300  1
  O  O36  1  0.62928200  0.14923500  0.46607100  1
  O  O37  1  0.80471600  0.65227000  0.07725800  1
  O  O38  1  0.90658600  0.56225300  0.44028500  1
  O  O39  1  0.83321000  0.33787300  0.31260000  1
  O  O40  1  0.09341400  0.43774700  0.55971500  1
  O  O41  1  0.12667600  0.50747800  0.28379400  1
  O  O42  1  0.71601300  0.75531000  0.31174700  1
  O  O43  1  0.89454700  0.80163700  0.13109900  1
  O  O44  1  0.29950200  0.53616300  0.81486800  1
  O  O45  1  0.74363200  0.14810300  0.03274500  1
  O  O46  1  0.49252200  0.87332400  0.21620600  1
  O  O47  1  0.10545300  0.19836300  0.86890100  1
loop_
_geom_bond_atom_site_label_1
_geom_bond_atom_site_label_2
_geom_bond_distance
_geom_bond_site_symmetry_2
K0 O20 2.734234 1_555
K0 O0 2.734234 1_555
K0 O11 3.006252 1_555
K0 O4 3.006252 1_555
K0 O15 3.049725 1_455
K0 O21 3.049725 1_565
K0 O32 3.128097 1_555
K0 O22 3.128097 1_555
K0 O41 3.143449 1_555
K0 O46 3.143449 1_555
K1 O31 2.777988 1_555
K1 O9 2.836497 1_555
K1 O13 2.838521 1_565
K1 O42 2.861869 1_555
K1 O11 3.026494 1_555
K1 O18 3.106763 1_555
K1 O32 3.115758 1_555
K1 O39 3.277425 1_555
K2 O1 2.777988 1_556
K2 O45 2.836497 1_556
K2 O47 2.838521 1_655
K2 O17 2.861869 1_555
K2 O24 3.026494 1_555
K2 O19 3.106763 1_555
K2 O33 3.115758 1_555
K2 O3 3.277425 1_555
K3 O27 2.777988 1_554
K3 O19 2.836497 1_554
K3 O43 2.838521 1_455
K3 O25 2.861869 1_555
K3 O4 3.026494 1_555
K3 O45 3.106763 1_555
K3 O22 3.115758 1_555
K3 O5 3.277425 1_555
K4 O44 2.734234 1_555
K4 O16 2.734234 1_555
K4 O24 3.006252 1_555
K4 O7 3.006252 1_555
K4 O12 3.049725 1_545
K4 O29 3.049725 1_655
K4 O33 3.128097 1_555
K4 O28 3.128097 1_555
K4 O26 3.143449 1_555
K4 O8 3.143449 1_555
K5 O36 2.777988 1_555
K5 O18 2.836497 1_555
K5 O23 2.838521 1_545
K5 O35 2.861869 1_555
K5 O7 3.026494 1_555
K5 O9 3.106763 1_555
K5 O28 3.115758 1_555
K5 O30 3.277425 1_555
Bi0 O43 2.226759 1_555
Bi0 O46 2.228427 1_555
Bi0 O37 2.357415 1_555
Bi0 O42 2.471325 1_555
Bi0 O0 2.662884 1_555
Bi0 O39 2.694686 1_555
Bi0 O25 2.862803 1_655
Bi1 O11 2.276248 1_655
Bi1 O32 2.405703 1_655
Bi1 O9 2.409634 1_655
Bi1 O40 2.526327 1_655
Bi1 O15 2.529666 1_555
Bi1 O36 2.639559 1_565
Bi1 O2 2.752268 1_555
Bi1 O38 2.759950 1_555
Bi2 O24 2.276248 1_565
Bi2 O33 2.405703 1_565
Bi2 O45 2.409634 1_566
Bi2 O34 2.526327 1_566
Bi2 O12 2.529666 1_555
Bi2 O27 2.639559 1_655
Bi2 O37 2.752268 1_556
Bi2 O6 2.759950 1_555
Bi3 O20 2.215459 1_555
Bi3 O0 2.215459 1_555
Bi3 O5 2.465135 1_555
Bi3 O39 2.465135 1_555
Bi3 O15 2.617779 1_545
Bi3 O21 2.617779 1_655
Bi4 O23 2.226759 1_555
Bi4 O8 2.228427 1_555
Bi4 O2 2.357415 1_555
Bi4 O17 2.471325 1_555
Bi4 O16 2.662884 1_555
Bi4 O3 2.694686 1_555
Bi4 O35 2.862803 1_565
Bi5 O13 2.226759 1_555
Bi5 O41 2.228427 1_555
Bi5 O10 2.357415 1_555
Bi5 O25 2.471325 1_555
Bi5 O20 2.662884 1_555
Bi5 O5 2.694686 1_555
Bi5 O42 2.862803 1_545
Bi6 O4 2.276248 1_545
Bi6 O22 2.405703 1_545
Bi6 O19 2.409634 1_544
Bi6 O6 2.526327 1_544
Bi6 O21 2.529666 1_555
Bi6 O1 2.639559 1_455
Bi6 O14 2.752268 1_554
Bi6 O34 2.759950 1_555
Bi7 O47 2.226759 1_555
Bi7 O26 2.228427 1_555
Bi7 O14 2.357415 1_555
Bi7 O35 2.471325 1_555
Bi7 O44 2.662884 1_555
Bi7 O30 2.694686 1_555
Bi7 O17 2.862803 1_455
Bi8 O7 2.276248 1_455
Bi8 O28 2.405703 1_455
Bi8 O18 2.409634 1_455
Bi8 O38 2.526327 1_455
Bi8 O29 2.529666 1_555
Bi8 O31 2.639559 1_545
Bi8 O10 2.752268 1_555
Bi8 O40 2.759950 1_555
Bi9 O44 2.215459 1_555
Bi9 O16 2.215459 1_555
Bi9 O30 2.465135 1_555
Bi9 O3 2.465135 1_555
Bi9 O12 2.617779 1_455
Bi9 O29 2.617779 1_565
As0 O27 1.687479 1_555
As0 O24 1.726553 1_555
As0 O14 1.734023 1_555
As0 O44 1.771790 1_555
As1 O38 1.710155 1_555
As1 O15 1.723041 1_555
As1 O42 1.728283 1_555
As1 O41 1.743370 1_655
As2 O1 1.687479 1_555
As2 O4 1.726553 1_555
As2 O37 1.734023 1_555
As2 O0 1.771790 1_555
As3 O40 1.710155 1_555
As3 O29 1.723041 1_555
As3 O35 1.728283 1_555
As3 O8 1.743370 1_455
As4 O36 1.687479 1_555
As4 O11 1.726553 1_555
As4 O10 1.734023 1_555
As4 O20 1.771790 1_555
As5 O31 1.687479 1_555
As5 O7 1.726553 1_555
As5 O2 1.734023 1_555
As5 O16 1.771790 1_555
As6 O6 1.710155 1_555
As6 O12 1.723041 1_555
As6 O17 1.728283 1_555
As6 O26 1.743370 1_565
As7 O45 1.715649 1_555
As7 O22 1.722181 1_645
As7 O43 1.733705 1_545
As7 O5 1.736983 1_555
As8 O34 1.710155 1_555
As8 O21 1.723041 1_555
As8 O25 1.728283 1_555
As8 O46 1.743370 1_545
As9 O18 1.715649 1_555
As9 O32 1.722181 1_645
As9 O13 1.733705 1_655
As9 O39 1.736983 1_555
As10 O19 1.715649 1_555
As10 O33 1.722181 1_465
As10 O47 1.733705 1_565
As10 O3 1.736983 1_555
As11 O9 1.715649 1_555
As11 O28 1.722181 1_465
As11 O23 1.733705 1_455
As11 O30 1.736983 1_555
