# generated using pymatgen
data_Ba6Ru2Pt(ClO6)2
_symmetry_space_group_name_H-M   'P 1'
_cell_length_a   5.90743767
_cell_length_b   5.90743767
_cell_length_c   15.28070000
_cell_angle_alpha   90.00000000
_cell_angle_beta   90.00000000
_cell_angle_gamma   119.99999632
_symmetry_Int_Tables_number   1
_chemical_formula_structural   Ba6Ru2Pt(ClO6)2
_chemical_formula_sum   'Ba6 Ru2 Pt1 Cl2 O12'
_cell_volume   461.81942220
_cell_formula_units_Z   1
loop_
 _symmetry_equiv_pos_site_id
 _symmetry_equiv_pos_as_xyz
  1  'x, y, z'
loop_
 _atom_site_type_symbol
 _atom_site_label
 _atom_site_symmetry_multiplicity
 _atom_site_fract_x
 _atom_site_fract_y
 _atom_site_fract_z
 _atom_site_occupancy
  Ba  Ba0  1  0.66666700  0.33333300  0.21414500  1
  Ba  Ba1  1  0.33333300  0.66666700  0.08104400  1
  Ba  Ba2  1  0.66666700  0.33333300  0.63436000  1
  Ba  Ba3  1  0.66666700  0.33333300  0.91895600  1
  Ba  Ba4  1  0.33333300  0.66666700  0.36564000  1
  Ba  Ba5  1  0.33333300  0.66666700  0.78585500  1
  Ru  Ru0  1  0.00000000  0.00000000  0.81727800  1
  Ru  Ru1  1  0.00000000  0.00000000  0.18272200  1
  Pt  Pt0  1  0.00000000  0.00000000  0.00000000  1
  Cl  Cl0  1  0.66666700  0.33333300  0.42224700  1
  Cl  Cl1  1  0.33333300  0.66666700  0.57775300  1
  O  O0  1  0.30321100  0.15160600  0.08710200  1
  O  O1  1  0.69678900  0.84839400  0.91289800  1
  O  O2  1  0.16087700  0.83912300  0.24399200  1
  O  O3  1  0.67824500  0.83912300  0.24399200  1
  O  O4  1  0.83912300  0.67824500  0.75600800  1
  O  O5  1  0.32175500  0.16087700  0.75600800  1
  O  O6  1  0.16087700  0.32175500  0.24399200  1
  O  O7  1  0.84839400  0.69678900  0.08710200  1
  O  O8  1  0.15160600  0.30321100  0.91289800  1
  O  O9  1  0.83912300  0.16087700  0.75600800  1
  O  O10  1  0.84839400  0.15160600  0.08710200  1
  O  O11  1  0.15160600  0.84839400  0.91289800  1
loop_
_geom_bond_atom_site_label_1
_geom_bond_atom_site_label_2
_geom_bond_distance
_geom_bond_site_symmetry_2
Ba0 O10 2.688148 1_555
Ba0 O7 2.688155 1_555
Ba0 O0 2.688155 1_555
Ba0 O6 2.989304 1_655
Ba0 O3 2.989304 1_545
Ba0 O2 2.989311 1_655
Ba0 O2 2.989311 1_545
Ba0 O3 2.989316 1_555
Ba0 O6 2.989316 1_555
Ba0 Cl0 3.179944 1_555
Ba1 O0 2.959184 1_565
Ba1 O7 2.959184 1_455
Ba1 O7 2.959184 1_555
Ba1 O0 2.959184 1_555
Ba1 O10 2.959185 1_565
Ba1 O10 2.959185 1_455
Ba1 O2 3.051818 1_555
Ba1 O6 3.051818 1_555
Ba1 O3 3.051818 1_555
Ba1 O11 3.171629 1_554
Ba1 O1 3.171635 1_554
Ba1 O8 3.171635 1_554
Ba2 O9 2.563022 1_555
Ba2 O5 2.563022 1_555
Ba2 O4 2.563022 1_555
Ba2 Cl0 3.241235 1_555
Ba2 Cl1 3.518636 1_545
Ba2 Cl1 3.518636 1_655
Ba2 Cl1 3.518646 1_555
Ba3 O8 2.959184 1_655
Ba3 O1 2.959184 1_545
Ba3 O8 2.959184 1_555
Ba3 O1 2.959184 1_555
Ba3 O11 2.959185 1_655
Ba3 O11 2.959185 1_545
Ba3 O9 3.051818 1_555
Ba3 O4 3.051818 1_555
Ba3 O5 3.051818 1_555
Ba3 O10 3.171629 1_556
Ba3 O0 3.171635 1_556
Ba3 O7 3.171635 1_556
Ba4 O2 2.563022 1_555
Ba4 O6 2.563022 1_555
Ba4 O3 2.563022 1_555
Ba4 Cl1 3.241235 1_555
Ba4 Cl0 3.518636 1_455
Ba4 Cl0 3.518636 1_565
Ba4 Cl0 3.518646 1_555
Ba5 O11 2.688148 1_555
Ba5 O1 2.688155 1_555
Ba5 O8 2.688155 1_555
Ba5 O5 2.989304 1_565
Ba5 O4 2.989304 1_455
Ba5 O9 2.989311 1_565
Ba5 O9 2.989311 1_455
Ba5 O4 2.989316 1_555
Ba5 O5 2.989316 1_555
Ba5 Cl1 3.179944 1_555
O0 Pt0 2.043968 1_555
O0 Ru1 2.131016 1_555
O1 Pt0 2.043968 1_666
O1 Ru0 2.131016 1_665
O2 Ru1 1.893720 1_565
O3 Ru1 1.893725 1_665
O4 Ru0 1.893725 1_665
O5 Ru0 1.893725 1_555
O6 Ru1 1.893725 1_555
O7 Pt0 2.043968 1_665
O7 Ru1 2.131016 1_665
O8 Pt0 2.043968 1_556
O8 Ru0 2.131016 1_555
O9 Ru0 1.893720 1_655
O10 Pt0 2.043972 1_655
O10 Ru1 2.131020 1_655
O11 Pt0 2.043972 1_566
O11 Ru0 2.131020 1_565
