# generated using pymatgen
data_BaCeC2O6F
_symmetry_space_group_name_H-M   'P 1'
_cell_length_a   7.33928566
_cell_length_b   7.33928569
_cell_length_c   18.65597110
_cell_angle_alpha   90.00000000
_cell_angle_beta   90.00000000
_cell_angle_gamma   119.99999987
_symmetry_Int_Tables_number   1
_chemical_formula_structural   BaCeC2O6F
_chemical_formula_sum   'Ba6 Ce6 C12 O36 F6'
_cell_volume   870.27413762
_cell_formula_units_Z   6
loop_
 _symmetry_equiv_pos_site_id
 _symmetry_equiv_pos_as_xyz
  1  'x, y, z'
loop_
 _atom_site_type_symbol
 _atom_site_label
 _atom_site_symmetry_multiplicity
 _atom_site_fract_x
 _atom_site_fract_y
 _atom_site_fract_z
 _atom_site_occupancy
  Ba  Ba0  1  0.66666700  0.33333300  0.55268713  1
  Ba  Ba1  1  0.66666700  0.33333300  0.05268713  1
  Ba  Ba2  1  0.00000000  0.00000000  0.00000000  1
  Ba  Ba3  1  0.33333300  0.66666700  0.44731287  1
  Ba  Ba4  1  0.33333300  0.66666700  0.94731287  1
  Ba  Ba5  1  0.00000000  0.00000000  0.50000000  1
  Ce  Ce0  1  0.00000000  0.65556004  0.75000000  1
  Ce  Ce1  1  0.34443996  0.34443996  0.75000000  1
  Ce  Ce2  1  1.00000000  0.34443996  0.25000000  1
  Ce  Ce3  1  0.65556004  0.00000000  0.75000000  1
  Ce  Ce4  1  0.34443996  0.00000000  0.25000000  1
  Ce  Ce5  1  0.65556004  0.65556004  0.25000000  1
  C  C0  1  0.14185725  0.35935772  0.61756163  1
  C  C1  1  0.78249953  0.14185725  0.38243837  1
  C  C2  1  0.21750047  0.35935772  0.11756163  1
  C  C3  1  0.21750047  0.85814275  0.61756163  1
  C  C4  1  0.85814275  0.21750047  0.88243837  1
  C  C5  1  0.14185725  0.78249953  0.11756163  1
  C  C6  1  0.64064228  0.85814275  0.11756163  1
  C  C7  1  0.35935772  0.14185725  0.88243837  1
  C  C8  1  0.85814275  0.64064228  0.38243837  1
  C  C9  1  0.78249953  0.64064228  0.88243837  1
  C  C10  1  0.35935772  0.21750047  0.38243837  1
  C  C11  1  0.64064228  0.78249953  0.61756163  1
  O  O0  1  0.07621865  0.39164658  0.55780053  1
  O  O1  1  0.90451897  0.58781073  0.32059718  1
  O  O2  1  0.90451897  0.31670824  0.82059718  1
  O  O3  1  0.31670824  0.41218927  0.17940282  1
  O  O4  1  0.92378135  0.60835342  0.44219947  1
  O  O5  1  0.09548103  0.68329176  0.17940282  1
  O  O6  1  0.07621865  0.68457207  0.05780053  1
  O  O7  1  0.68329176  0.09548103  0.32059718  1
  O  O8  1  0.31670824  0.90451897  0.67940282  1
  O  O9  1  0.60835342  0.92378135  0.05780053  1
  O  O10  1  0.58781073  0.90451897  0.17940282  1
  O  O11  1  0.09548103  0.41218927  0.67940282  1
  O  O12  1  0.41218927  0.31670824  0.32059718  1
  O  O13  1  0.31542793  0.39164658  0.05780053  1
  O  O14  1  0.39164658  0.31542793  0.44219947  1
  O  O15  1  0.98697806  0.25471784  0.38020765  1
  O  O16  1  0.26773978  0.25471784  0.88020765  1
  O  O17  1  0.74528216  0.73226022  0.38020765  1
  O  O18  1  0.68457207  0.07621865  0.44219947  1
  O  O19  1  0.68329176  0.58781073  0.82059718  1
  O  O20  1  0.25471784  0.98697806  0.11979235  1
  O  O21  1  0.01302194  0.74528216  0.61979235  1
  O  O22  1  0.92378135  0.31542793  0.94219947  1
  O  O23  1  0.25471784  0.26773978  0.61979235  1
  O  O24  1  0.68457207  0.60835342  0.94219947  1
  O  O25  1  0.39164658  0.07621865  0.94219947  1
  O  O26  1  0.74528216  0.01302194  0.88020765  1
  O  O27  1  0.73226022  0.74528216  0.11979235  1
  O  O28  1  0.60835342  0.68457207  0.55780053  1
  O  O29  1  0.01302194  0.26773978  0.11979235  1
  O  O30  1  0.58781073  0.68329176  0.67940282  1
  O  O31  1  0.73226022  0.98697806  0.61979235  1
  O  O32  1  0.98697806  0.73226022  0.88020765  1
  O  O33  1  0.26773978  0.01302194  0.38020765  1
  O  O34  1  0.31542793  0.92378135  0.55780053  1
  O  O35  1  0.41218927  0.09548103  0.82059718  1
  F  F0  1  0.33333300  0.66666700  0.79767635  1
  F  F1  1  0.66666700  0.33333300  0.70232365  1
  F  F2  1  0.33333300  0.66666700  0.29767635  1
  F  F3  1  0.66666700  0.33333300  0.20232365  1
  F  F4  1  0.00000000  0.00000000  0.25000000  1
  F  F5  1  0.00000000  0.00000000  0.75000000  1
loop_
_geom_bond_atom_site_label_1
_geom_bond_atom_site_label_2
_geom_bond_distance
_geom_bond_site_symmetry_2
Ba0 F1 2.791615 1_555
Ba0 O0 2.817937 1_655
Ba0 O34 2.817940 1_545
Ba0 O28 2.817945 1_555
Ba0 O18 2.841640 1_555
Ba0 O4 2.841643 1_555
Ba0 O14 2.841645 1_555
Ba0 O31 3.079696 1_545
Ba0 O21 3.079700 1_655
Ba0 O23 3.079703 1_555
Ba1 F3 2.791615 1_555
Ba1 O9 2.817937 1_545
Ba1 O6 2.817940 1_655
Ba1 O13 2.817945 1_555
Ba1 O22 2.841640 1_554
Ba1 O25 2.841643 1_554
Ba1 O24 2.841645 1_554
Ba1 O29 3.079696 1_655
Ba1 O20 3.079700 1_545
Ba1 O27 3.079703 1_555
Ba2 O9 2.851315 1_445
Ba2 O25 2.851315 1_554
Ba2 O6 2.851315 1_545
Ba2 O22 2.851315 1_454
Ba2 O24 2.851315 1_444
Ba2 O13 2.851315 1_555
Ba2 O26 2.945701 1_454
Ba2 O20 2.945701 1_545
Ba2 O16 2.945701 1_554
Ba2 O27 2.945701 1_445
Ba2 O32 2.945701 1_444
Ba2 O29 2.945701 1_555
Ba3 F2 2.791615 1_555
Ba3 O4 2.817937 1_455
Ba3 O18 2.817940 1_565
Ba3 O14 2.817945 1_555
Ba3 O34 2.841640 1_555
Ba3 O0 2.841643 1_555
Ba3 O28 2.841645 1_555
Ba3 O33 3.079696 1_565
Ba3 O15 3.079700 1_455
Ba3 O17 3.079703 1_555
Ba4 F0 2.791615 1_555
Ba4 O25 2.817937 1_565
Ba4 O22 2.817940 1_455
Ba4 O24 2.817945 1_555
Ba4 O6 2.841640 1_556
Ba4 O9 2.841643 1_556
Ba4 O13 2.841645 1_556
Ba4 O32 3.079696 1_455
Ba4 O26 3.079700 1_565
Ba4 O16 3.079703 1_555
Ba5 O18 2.851315 1_455
Ba5 O34 2.851315 1_545
Ba5 O28 2.851315 1_445
Ba5 O14 2.851315 1_555
Ba5 O4 2.851315 1_445
Ba5 O0 2.851315 1_555
Ba5 O31 2.945701 1_445
Ba5 O33 2.945701 1_555
Ba5 O21 2.945701 1_545
Ba5 O15 2.945701 1_455
Ba5 O23 2.945701 1_555
Ba5 O17 2.945701 1_445
Ce0 O19 2.495797 1_455
Ce0 O8 2.495797 1_555
Ce0 O32 2.506110 1_455
Ce0 O21 2.506110 1_555
Ce0 F5 2.527943 1_565
Ce0 F0 2.565802 1_555
Ce0 F1 2.565805 1_455
Ce0 O11 2.582206 1_555
Ce0 O2 2.582206 1_455
Ce1 O11 2.495797 1_555
Ce1 O35 2.495797 1_555
Ce1 O23 2.506110 1_555
Ce1 O16 2.506110 1_555
Ce1 F5 2.527943 1_555
Ce1 F1 2.565809 1_555
Ce1 F0 2.565809 1_555
Ce1 O19 2.582206 1_555
Ce1 O30 2.582206 1_555
Ce2 O3 2.495797 1_655
Ce2 O7 2.495797 1_555
Ce2 O29 2.506110 1_655
Ce2 O15 2.506110 1_555
Ce2 F4 2.527943 1_655
Ce2 F3 2.565802 1_555
Ce2 F2 2.565805 1_655
Ce2 O1 2.582206 1_555
Ce2 O5 2.582206 1_655
Ce3 O30 2.495797 1_545
Ce3 O2 2.495797 1_555
Ce3 O26 2.506110 1_555
Ce3 O31 2.506110 1_545
Ce3 F5 2.527943 1_655
Ce3 F1 2.565802 1_555
Ce3 F0 2.565805 1_545
Ce3 O8 2.582206 1_545
Ce3 O35 2.582206 1_555
Ce4 O12 2.495797 1_555
Ce4 O5 2.495797 1_545
Ce4 O33 2.506110 1_555
Ce4 O20 2.506110 1_545
Ce4 F4 2.527943 1_555
Ce4 F2 2.565802 1_545
Ce4 F3 2.565805 1_555
Ce4 O10 2.582206 1_545
Ce4 O7 2.582206 1_555
Ce5 O1 2.495797 1_555
Ce5 O10 2.495797 1_555
Ce5 O17 2.506110 1_555
Ce5 O27 2.506110 1_555
Ce5 F4 2.527943 1_665
Ce5 F2 2.565809 1_555
Ce5 F3 2.565809 1_555
Ce5 O3 2.582206 1_555
Ce5 O12 2.582206 1_555
C0 O0 1.282731 1_555
C0 O23 1.302668 1_555
C0 O11 1.314996 1_555
C1 O18 1.282731 1_555
C1 O15 1.302668 1_555
C1 O7 1.314996 1_555
C2 O13 1.282731 1_555
C2 O29 1.302668 1_555
C2 O3 1.314996 1_555
C3 O34 1.282731 1_555
C3 O21 1.302668 1_555
C3 O8 1.314996 1_555
C4 O22 1.282731 1_555
C4 O26 1.302668 1_555
C4 O2 1.314996 1_555
C5 O6 1.282731 1_555
C5 O20 1.302668 1_555
C5 O5 1.314996 1_555
C6 O9 1.282731 1_555
C6 O27 1.302668 1_555
C6 O10 1.314996 1_555
C7 O25 1.282731 1_555
C7 O16 1.302668 1_555
C7 O35 1.314996 1_555
C8 O4 1.282731 1_555
C8 O17 1.302668 1_555
C8 O1 1.314996 1_555
C9 O24 1.282731 1_555
C9 O32 1.302668 1_555
C9 O19 1.314996 1_555
C10 O14 1.282731 1_555
C10 O33 1.302668 1_555
C10 O12 1.314996 1_555
C11 O28 1.282731 1_555
C11 O31 1.302668 1_555
C11 O30 1.314996 1_555
