# generated using pymatgen
data_K4Cr(NO5)2
_symmetry_space_group_name_H-M   'P 1'
_cell_length_a   11.33874000
_cell_length_b   9.98099900
_cell_length_c   10.34172797
_cell_angle_alpha   73.89693055
_cell_angle_beta   90.00000000
_cell_angle_gamma   90.00000000
_symmetry_Int_Tables_number   1
_chemical_formula_structural   K4Cr(NO5)2
_chemical_formula_sum   'K16 Cr4 N8 O40'
_cell_volume   1124.47233368
_cell_formula_units_Z   4
loop_
 _symmetry_equiv_pos_site_id
 _symmetry_equiv_pos_as_xyz
  1  'x, y, z'
loop_
 _atom_site_type_symbol
 _atom_site_label
 _atom_site_symmetry_multiplicity
 _atom_site_fract_x
 _atom_site_fract_y
 _atom_site_fract_z
 _atom_site_occupancy
  K  K0  1  0.62729500  0.89316700  0.08181800  1
  K  K1  1  0.62305100  0.46624600  0.35938600  1
  K  K2  1  0.11983400  0.46720400  0.36110400  1
  K  K3  1  0.37270500  0.10683300  0.91818200  1
  K  K4  1  0.87502800  0.11439200  0.90224400  1
  K  K5  1  0.87270500  0.39316700  0.08181800  1
  K  K6  1  0.37694900  0.53375400  0.64061400  1
  K  K7  1  0.12729500  0.60683300  0.91818200  1
  K  K8  1  0.87694900  0.96624600  0.35938600  1
  K  K9  1  0.38016600  0.96720400  0.36110400  1
  K  K10  1  0.88016600  0.53279600  0.63889600  1
  K  K11  1  0.61983400  0.03279600  0.63889600  1
  K  K12  1  0.12305100  0.03375400  0.64061400  1
  K  K13  1  0.62497200  0.61439200  0.90224400  1
  K  K14  1  0.12497200  0.88560800  0.09775600  1
  K  K15  1  0.37502800  0.38560800  0.09775600  1
  Cr  Cr0  1  0.88330900  0.80947100  0.79513500  1
  Cr  Cr1  1  0.11669100  0.19052900  0.20486500  1
  Cr  Cr2  1  0.38330900  0.69052900  0.20486500  1
  Cr  Cr3  1  0.61669100  0.30947100  0.79513500  1
  N  N0  1  0.14039000  0.73020500  0.50545900  1
  N  N1  1  0.64039000  0.76979500  0.49454100  1
  N  N2  1  0.12862500  0.29718100  0.84771900  1
  N  N3  1  0.85961000  0.26979500  0.49454100  1
  N  N4  1  0.35961000  0.23020500  0.50545900  1
  N  N5  1  0.62862500  0.20281900  0.15228100  1
  N  N6  1  0.87137500  0.70281900  0.15228100  1
  N  N7  1  0.37137500  0.79718100  0.84771900  1
  O  O0  1  0.62839900  0.33020000  0.15234800  1
  O  O1  1  0.10492900  0.15253500  0.37133200  1
  O  O2  1  0.88282300  0.63630300  0.85833200  1
  O  O3  1  0.72569800  0.14138500  0.14685900  1
  O  O4  1  0.22569800  0.35861500  0.85314100  1
  O  O5  1  0.60492900  0.34746500  0.62866800  1
  O  O6  1  0.12472100  0.60485100  0.57731500  1
  O  O7  1  0.27430200  0.85861500  0.85314100  1
  O  O8  1  0.96804600  0.63832600  0.15581000  1
  O  O9  1  0.71110200  0.69168400  0.45412400  1
  O  O10  1  0.11717700  0.36369700  0.14166800  1
  O  O11  1  0.49843700  0.62387600  0.14292700  1
  O  O12  1  0.24139500  0.12573500  0.16104400  1
  O  O13  1  0.39507100  0.65253500  0.37133200  1
  O  O14  1  0.74139500  0.37426500  0.83895600  1
  O  O15  1  0.53195400  0.13832600  0.15581000  1
  O  O16  1  0.25860500  0.62573500  0.16104400  1
  O  O17  1  0.37160100  0.66980000  0.84765200  1
  O  O18  1  0.61717700  0.13630300  0.85833200  1
  O  O19  1  0.46804600  0.86167400  0.84419000  1
  O  O20  1  0.12839900  0.16980000  0.84765200  1
  O  O21  1  0.58609800  0.72613400  0.60521400  1
  O  O22  1  0.41390200  0.27386600  0.39478600  1
  O  O23  1  0.37527900  0.10485100  0.57731500  1
  O  O24  1  0.91390200  0.22613400  0.60521400  1
  O  O25  1  0.21110200  0.80831600  0.54587600  1
  O  O26  1  0.38282300  0.86369700  0.14166800  1
  O  O27  1  0.87160100  0.83020000  0.15234800  1
  O  O28  1  0.00156300  0.12387600  0.14292700  1
  O  O29  1  0.75860500  0.87426500  0.83895600  1
  O  O30  1  0.62472100  0.89514900  0.42268500  1
  O  O31  1  0.99843700  0.87612400  0.85707300  1
  O  O32  1  0.50156300  0.37612400  0.85707300  1
  O  O33  1  0.08609800  0.77386600  0.39478600  1
  O  O34  1  0.87527900  0.39514900  0.42268500  1
  O  O35  1  0.78889800  0.19168400  0.45412400  1
  O  O36  1  0.03195400  0.36167400  0.84419000  1
  O  O37  1  0.89507100  0.84746500  0.62866800  1
  O  O38  1  0.77430200  0.64138500  0.14685900  1
  O  O39  1  0.28889800  0.30831600  0.54587600  1
loop_
_geom_bond_atom_site_label_1
_geom_bond_atom_site_label_2
_geom_bond_distance
_geom_bond_site_symmetry_2
K0 O26 2.837717 1_555
K0 O18 2.851782 1_564
K0 O27 2.888994 1_555
K0 O38 2.934035 1_555
K0 O3 2.959666 1_565
K0 O15 2.963167 1_565
K0 O11 2.969196 1_555
K0 O29 2.970428 1_554
K0 O19 3.134810 1_554
K1 O5 2.715070 1_555
K1 O11 2.743935 1_555
K1 O0 2.836329 1_555
K1 O9 2.870986 1_555
K1 O38 2.948960 1_555
K1 O34 2.975516 1_555
K1 O22 3.009148 1_555
K1 O13 3.206576 1_555
K1 O35 3.242928 1_555
K2 O16 2.728390 1_555
K2 O10 2.742025 1_555
K2 O39 2.856588 1_555
K2 O34 2.891013 1_455
K2 O8 2.894004 1_455
K2 O6 2.931607 1_555
K2 O1 3.117616 1_555
K2 O33 3.198054 1_555
K3 O18 2.837717 1_555
K3 O26 2.851782 1_546
K3 O20 2.888994 1_555
K3 O4 2.934035 1_555
K3 O7 2.959666 1_545
K3 O19 2.963167 1_545
K3 O32 2.969196 1_555
K3 O12 2.970428 1_556
K3 O15 3.134810 1_556
K4 O28 2.897184 1_656
K4 O31 2.906572 1_545
K4 O14 2.917244 1_555
K4 O20 2.950421 1_655
K4 O18 2.957536 1_555
K4 O29 2.964019 1_545
K4 O36 2.965828 1_655
K4 O24 2.995606 1_555
K4 O3 3.117248 1_556
K4 O27 3.266111 1_546
K5 O10 2.837717 1_655
K5 O2 2.851782 1_554
K5 O0 2.888994 1_555
K5 O3 2.934035 1_555
K5 O38 2.959666 1_555
K5 O8 2.963167 1_555
K5 O28 2.969196 1_655
K5 O14 2.970428 1_554
K5 O36 3.134810 1_654
K6 O13 2.715070 1_555
K6 O32 2.743935 1_555
K6 O17 2.836329 1_555
K6 O39 2.870986 1_555
K6 O4 2.948960 1_555
K6 O6 2.975516 1_555
K6 O21 3.009148 1_555
K6 O5 3.206576 1_555
K6 O25 3.242928 1_555
K7 O2 2.837717 1_455
K7 O10 2.851782 1_556
K7 O17 2.888994 1_555
K7 O7 2.934035 1_555
K7 O4 2.959666 1_555
K7 O36 2.963167 1_555
K7 O31 2.969196 1_455
K7 O16 2.970428 1_556
K7 O8 3.134810 1_456
K8 O37 2.715070 1_555
K8 O28 2.743935 1_665
K8 O27 2.836329 1_555
K8 O35 2.870986 1_565
K8 O3 2.948960 1_565
K8 O30 2.975516 1_555
K8 O33 3.009148 1_655
K8 O1 3.206576 1_665
K8 O9 3.242928 1_555
K9 O12 2.728390 1_565
K9 O26 2.742025 1_555
K9 O25 2.856588 1_555
K9 O30 2.891013 1_555
K9 O15 2.894004 1_565
K9 O23 2.931607 1_565
K9 O13 3.117616 1_555
K9 O22 3.198054 1_565
K10 O14 2.728390 1_555
K10 O2 2.742025 1_555
K10 O9 2.856588 1_555
K10 O6 2.891013 1_655
K10 O36 2.894004 1_655
K10 O34 2.931607 1_555
K10 O37 3.117616 1_555
K10 O24 3.198054 1_555
K11 O29 2.728390 1_545
K11 O18 2.742025 1_555
K11 O35 2.856588 1_555
K11 O23 2.891013 1_555
K11 O19 2.894004 1_545
K11 O30 2.931607 1_545
K11 O5 3.117616 1_555
K11 O21 3.198054 1_545
K12 O1 2.715070 1_555
K12 O31 2.743935 1_445
K12 O20 2.836329 1_555
K12 O25 2.870986 1_545
K12 O7 2.948960 1_545
K12 O23 2.975516 1_555
K12 O24 3.009148 1_455
K12 O37 3.206576 1_445
K12 O39 3.242928 1_555
K13 O11 2.897184 1_556
K13 O32 2.906572 1_555
K13 O29 2.917244 1_555
K13 O17 2.950421 1_555
K13 O2 2.957536 1_555
K13 O14 2.964019 1_555
K13 O19 2.965828 1_555
K13 O21 2.995606 1_555
K13 O38 3.117248 1_556
K13 O0 3.266111 1_556
K14 O31 2.897184 1_454
K14 O28 2.906572 1_565
K14 O16 2.917244 1_555
K14 O27 2.950421 1_455
K14 O26 2.957536 1_555
K14 O12 2.964019 1_565
K14 O8 2.965828 1_455
K14 O33 2.995606 1_555
K14 O7 3.117248 1_554
K14 O20 3.266111 1_564
K15 O32 2.897184 1_554
K15 O11 2.906572 1_555
K15 O12 2.917244 1_555
K15 O0 2.950421 1_555
K15 O10 2.957536 1_555
K15 O16 2.964019 1_555
K15 O15 2.965828 1_555
K15 O22 2.995606 1_555
K15 O4 3.117248 1_554
K15 O17 3.266111 1_554
Cr0 O37 1.662286 1_555
Cr0 O29 1.668996 1_555
Cr0 O2 1.669693 1_555
Cr0 O31 1.671332 1_555
Cr1 O1 1.662286 1_555
Cr1 O12 1.668996 1_555
Cr1 O10 1.669693 1_555
Cr1 O28 1.671332 1_555
Cr2 O13 1.662286 1_555
Cr2 O16 1.668996 1_555
Cr2 O26 1.669693 1_555
Cr2 O11 1.671332 1_555
Cr3 O5 1.662286 1_555
Cr3 O14 1.668996 1_555
Cr3 O18 1.669693 1_555
Cr3 O32 1.671332 1_555
N0 O33 1.265773 1_555
N0 O25 1.267341 1_555
N0 O6 1.278052 1_555
N1 O21 1.265773 1_555
N1 O9 1.267341 1_555
N1 O30 1.278052 1_555
N2 O36 1.266551 1_555
N2 O4 1.268742 1_555
N2 O20 1.271585 1_555
N3 O24 1.265773 1_555
N3 O35 1.267341 1_555
N3 O34 1.278052 1_555
N4 O22 1.265773 1_555
N4 O39 1.267341 1_555
N4 O23 1.278052 1_555
N5 O15 1.266551 1_555
N5 O3 1.268742 1_555
N5 O0 1.271585 1_555
N6 O8 1.266551 1_555
N6 O38 1.268742 1_555
N6 O27 1.271585 1_555
N7 O19 1.266551 1_555
N7 O7 1.268742 1_555
N7 O17 1.271585 1_555
