# generated using pymatgen
data_Nb6Ni6O
_symmetry_space_group_name_H-M   'P 1'
_cell_length_a   7.88489822
_cell_length_b   7.88489822
_cell_length_c   7.88489822
_cell_angle_alpha   60.00000000
_cell_angle_beta   60.00000000
_cell_angle_gamma   60.00000000
_symmetry_Int_Tables_number   1
_chemical_formula_structural   Nb6Ni6O
_chemical_formula_sum   'Nb12 Ni12 O2'
_cell_volume   346.63569093
_cell_formula_units_Z   2
loop_
 _symmetry_equiv_pos_site_id
 _symmetry_equiv_pos_as_xyz
  1  'x, y, z'
loop_
 _atom_site_type_symbol
 _atom_site_label
 _atom_site_symmetry_multiplicity
 _atom_site_fract_x
 _atom_site_fract_y
 _atom_site_fract_z
 _atom_site_occupancy
  Nb  Nb0  1  0.05023700  0.05023700  0.44976300  1
  Nb  Nb1  1  0.44976300  0.05023700  0.44976300  1
  Nb  Nb2  1  0.05023700  0.44976300  0.44976300  1
  Nb  Nb3  1  0.44976300  0.44976300  0.05023700  1
  Nb  Nb4  1  0.05023700  0.44976300  0.05023700  1
  Nb  Nb5  1  0.44976300  0.05023700  0.05023700  1
  Nb  Nb6  1  0.19976300  0.19976300  0.80023700  1
  Nb  Nb7  1  0.80023700  0.19976300  0.80023700  1
  Nb  Nb8  1  0.19976300  0.80023700  0.80023700  1
  Nb  Nb9  1  0.80023700  0.80023700  0.19976300  1
  Nb  Nb10  1  0.19976300  0.80023700  0.19976300  1
  Nb  Nb11  1  0.80023700  0.19976300  0.19976300  1
  Ni  Ni0  1  0.41889100  0.41889100  0.74332700  1
  Ni  Ni1  1  0.41889100  0.74332700  0.41889100  1
  Ni  Ni2  1  0.74332700  0.41889100  0.41889100  1
  Ni  Ni3  1  0.41889100  0.41889100  0.41889100  1
  Ni  Ni4  1  0.83110900  0.83110900  0.50667300  1
  Ni  Ni5  1  0.83110900  0.50667300  0.83110900  1
  Ni  Ni6  1  0.50667300  0.83110900  0.83110900  1
  Ni  Ni7  1  0.83110900  0.83110900  0.83110900  1
  Ni  Ni8  1  0.62500000  0.62500000  0.12500000  1
  Ni  Ni9  1  0.62500000  0.12500000  0.62500000  1
  Ni  Ni10  1  0.12500000  0.62500000  0.62500000  1
  Ni  Ni11  1  0.62500000  0.62500000  0.62500000  1
  O  O0  1  0.25000000  0.25000000  0.25000000  1
  O  O1  1  0.00000000  0.00000000  0.00000000  1
loop_
_geom_bond_atom_site_label_1
_geom_bond_atom_site_label_2
_geom_bond_distance
_geom_bond_site_symmetry_2
Nb0 O0 2.227543 1_555
Nb0 Ni1 2.685532 1_545
Nb0 Ni2 2.685532 1_455
Nb0 Ni4 2.758011 1_445
Nb0 Ni7 2.758011 1_445
Nb0 Ni10 2.775619 1_545
Nb0 Ni9 2.775619 1_455
Nb1 O0 2.227543 1_555
Nb1 Ni3 2.685532 1_555
Nb1 Ni1 2.685532 1_545
Nb1 Ni4 2.758011 1_545
Nb1 Ni6 2.758011 1_545
Nb1 Ni11 2.775619 1_545
Nb1 Ni9 2.775619 1_555
Nb2 O0 2.227543 1_555
Nb2 Ni3 2.685532 1_555
Nb2 Ni2 2.685532 1_455
Nb2 Ni5 2.758011 1_455
Nb2 Ni4 2.758011 1_455
Nb2 Ni11 2.775619 1_455
Nb2 Ni10 2.775619 1_555
Nb3 O0 2.227543 1_555
Nb3 Ni3 2.685532 1_555
Nb3 Ni0 2.685532 1_554
Nb3 Ni6 2.758011 1_554
Nb3 Ni5 2.758011 1_554
Nb3 Ni11 2.775619 1_554
Nb3 Ni8 2.775619 1_555
Nb4 O0 2.227543 1_555
Nb4 Ni0 2.685532 1_554
Nb4 Ni2 2.685532 1_455
Nb4 Ni5 2.758011 1_454
Nb4 Ni7 2.758011 1_454
Nb4 Ni8 2.775619 1_455
Nb4 Ni10 2.775619 1_554
Nb5 O0 2.227543 1_555
Nb5 Ni1 2.685532 1_545
Nb5 Ni0 2.685532 1_554
Nb5 Ni6 2.758011 1_544
Nb5 Ni7 2.758011 1_544
Nb5 Ni9 2.775619 1_554
Nb5 Ni8 2.775619 1_545
Nb6 O1 2.227543 1_556
Nb6 Ni6 2.685532 1_545
Nb6 Ni5 2.685532 1_455
Nb6 Ni0 2.758011 1_555
Nb6 Ni3 2.758011 1_555
Nb6 Ni10 2.775619 1_555
Nb6 Ni9 2.775619 1_555
Nb7 O1 2.227543 1_656
Nb7 Ni5 2.685532 1_555
Nb7 Ni7 2.685532 1_545
Nb7 Ni2 2.758011 1_555
Nb7 Ni0 2.758011 1_555
Nb7 Ni11 2.775619 1_555
Nb7 Ni9 2.775619 1_555
Nb8 O1 2.227543 1_566
Nb8 Ni6 2.685532 1_555
Nb8 Ni7 2.685532 1_455
Nb8 Ni0 2.758011 1_555
Nb8 Ni1 2.758011 1_555
Nb8 Ni10 2.775619 1_555
Nb8 Ni11 2.775619 1_555
Nb9 O1 2.227543 1_665
Nb9 Ni4 2.685532 1_555
Nb9 Ni7 2.685532 1_554
Nb9 Ni2 2.758011 1_555
Nb9 Ni1 2.758011 1_555
Nb9 Ni11 2.775619 1_555
Nb9 Ni8 2.775619 1_555
Nb10 O1 2.227543 1_565
Nb10 Ni6 2.685532 1_554
Nb10 Ni4 2.685532 1_455
Nb10 Ni1 2.758011 1_555
Nb10 Ni3 2.758011 1_555
Nb10 Ni8 2.775619 1_555
Nb10 Ni10 2.775619 1_555
Nb11 O1 2.227543 1_655
Nb11 Ni5 2.685532 1_554
Nb11 Ni4 2.685532 1_545
Nb11 Ni2 2.758011 1_555
Nb11 Ni3 2.758011 1_555
Nb11 Ni8 2.775619 1_555
Nb11 Ni9 2.775619 1_555
Ni0 Ni9 2.400269 1_555
Ni0 Ni10 2.400269 1_555
Ni0 Ni11 2.400269 1_555
Ni0 Ni1 2.558145 1_555
Ni0 Ni2 2.558145 1_555
Ni0 Ni3 2.558145 1_555
Ni1 Ni8 2.400269 1_555
Ni1 Ni10 2.400269 1_555
Ni1 Ni11 2.400269 1_555
Ni1 Ni2 2.558145 1_555
Ni1 Ni3 2.558145 1_555
Ni2 Ni8 2.400269 1_555
Ni2 Ni9 2.400269 1_555
Ni2 Ni3 2.558145 1_555
Ni3 Ni8 2.400269 1_555
Ni3 Ni9 2.400269 1_555
Ni4 Ni9 2.400269 1_565
Ni4 Ni7 2.558145 1_555
Ni4 Ni5 2.558145 1_555
Ni4 Ni6 2.558145 1_555
Ni5 Ni8 2.400269 1_556
Ni5 Ni7 2.558145 1_555
Ni5 Ni6 2.558145 1_555
Ni6 Ni8 2.400269 1_556
Ni6 Ni9 2.400269 1_565
Ni6 Ni7 2.558145 1_555
Ni7 Ni8 2.400269 1_556
Ni7 Ni9 2.400269 1_565
Ni10 Ni7 2.400269 1_455
Ni10 Ni4 2.400269 1_455
Ni10 Ni5 2.400269 1_455
Ni10 Ni3 2.400269 1_555
Ni11 Ni5 2.400269 1_555
Ni11 Ni6 2.400269 1_555
Ni11 Ni4 2.400269 1_555
Ni11 Ni2 2.400269 1_555
