# generated using pymatgen
data_La(SiNi)2
_symmetry_space_group_name_H-M   'P 1'
_cell_length_a   4.10362661
_cell_length_b   4.10362728
_cell_length_c   5.63112591
_cell_angle_alpha   111.36882761
_cell_angle_beta   111.36882256
_cell_angle_gamma   90.00000342
_symmetry_Int_Tables_number   1
_chemical_formula_structural   La(SiNi)2
_chemical_formula_sum   'La1 Si2 Ni2'
_cell_volume   81.26764154
_cell_formula_units_Z   1
loop_
 _symmetry_equiv_pos_site_id
 _symmetry_equiv_pos_as_xyz
  1  'x, y, z'
loop_
 _atom_site_type_symbol
 _atom_site_label
 _atom_site_symmetry_multiplicity
 _atom_site_fract_x
 _atom_site_fract_y
 _atom_site_fract_z
 _atom_site_occupancy
  La  La0  1  -0.00000000  0.00000000  -0.00000000  1
  Si  Si0  1  0.63508270  0.63508270  0.27016639  1
  Si  Si1  1  0.36491730  0.36491730  0.72983361  1
  Ni  Ni0  1  0.75000000  0.25000000  0.50000000  1
  Ni  Ni1  1  0.25000000  0.75000000  0.50000000  1
loop_
_geom_bond_atom_site_label_1
_geom_bond_atom_site_label_2
_geom_bond_distance
_geom_bond_site_symmetry_2
La0 Ni0 3.167390 1_555
La0 Ni1 3.167390 1_444
La0 Ni0 3.167390 1_444
La0 Ni1 3.167390 1_555
La0 Ni0 3.167391 1_455
La0 Ni1 3.167391 1_544
La0 Ni0 3.167391 1_454
La0 Ni1 3.167391 1_545
La0 Si1 3.181159 1_444
La0 Si0 3.181159 1_555
La0 Si0 3.181162 1_455
La0 Si1 3.181162 1_544
La0 Si1 3.181162 1_454
La0 Si0 3.181162 1_545
La0 Si0 3.181164 1_445
La0 Si1 3.181164 1_554
Si0 Si1 2.607614 1_554
Ni0 Si1 2.332418 1_555
Ni0 Si0 2.332418 1_555
Ni0 Si1 2.332421 1_655
Ni0 Si0 2.332421 1_545
Ni1 Si0 2.332418 1_555
Ni1 Si1 2.332418 1_555
Ni1 Si0 2.332421 1_455
Ni1 Si1 2.332421 1_565
