# generated using pymatgen
data_Ba2Co(PO4)2
_symmetry_space_group_name_H-M   'P 1'
_cell_length_a   9.01969400
_cell_length_b   5.38556900
_cell_length_c   17.09798728
_cell_angle_alpha   72.63113459
_cell_angle_beta   90.00000000
_cell_angle_gamma   90.00000000
_symmetry_Int_Tables_number   1
_chemical_formula_structural   Ba2Co(PO4)2
_chemical_formula_sum   'Ba8 Co4 P8 O32'
_cell_volume   792.68390728
_cell_formula_units_Z   4
loop_
 _symmetry_equiv_pos_site_id
 _symmetry_equiv_pos_as_xyz
  1  'x, y, z'
loop_
 _atom_site_type_symbol
 _atom_site_label
 _atom_site_symmetry_multiplicity
 _atom_site_fract_x
 _atom_site_fract_y
 _atom_site_fract_z
 _atom_site_occupancy
  Ba  Ba0  1  0.20221100  0.68951300  0.51863800  1
  Ba  Ba1  1  0.70221100  0.31048700  0.98136200  1
  Ba  Ba2  1  0.79778900  0.31048700  0.48136200  1
  Ba  Ba3  1  0.29778900  0.68951300  0.01863800  1
  Ba  Ba4  1  0.65596000  0.52115100  0.23057300  1
  Ba  Ba5  1  0.15596000  0.47884900  0.26942700  1
  Ba  Ba6  1  0.34404000  0.47884900  0.76942700  1
  Ba  Ba7  1  0.84404000  0.52115100  0.73057300  1
  Co  Co0  1  0.01711500  0.09559700  0.13554100  1
  Co  Co1  1  0.51711500  0.90440300  0.36445900  1
  Co  Co2  1  0.48288500  0.09559700  0.63554100  1
  Co  Co3  1  0.98288500  0.90440300  0.86445900  1
  P  P0  1  0.89039800  0.91792300  0.33387500  1
  P  P1  1  0.39039800  0.08207700  0.16612500  1
  P  P2  1  0.10960200  0.08207700  0.66612500  1
  P  P3  1  0.60960200  0.91792300  0.83387500  1
  P  P4  1  0.90665100  0.68537000  0.07659500  1
  P  P5  1  0.59334900  0.68537000  0.57659500  1
  P  P6  1  0.09334900  0.31463000  0.92340500  1
  P  P7  1  0.40665100  0.31463000  0.42340500  1
  O  O0  1  0.97516900  0.89372600  0.25665500  1
  O  O1  1  0.47516900  0.10627400  0.24334500  1
  O  O2  1  0.02483100  0.10627400  0.74334500  1
  O  O3  1  0.52483100  0.89372600  0.75665500  1
  O  O4  1  0.88792900  0.20676700  0.33428200  1
  O  O5  1  0.38792900  0.79323300  0.16571800  1
  O  O6  1  0.11207100  0.79323300  0.66571800  1
  O  O7  1  0.61207100  0.20676700  0.83428200  1
  O  O8  1  0.72900300  0.81379800  0.32972600  1
  O  O9  1  0.22900300  0.18620200  0.17027400  1
  O  O10  1  0.27099700  0.18620200  0.67027400  1
  O  O11  1  0.77099700  0.81379800  0.82972600  1
  O  O12  1  0.96906300  0.74153900  0.41173800  1
  O  O13  1  0.46906300  0.25846100  0.08826200  1
  O  O14  1  0.03093700  0.25846100  0.58826200  1
  O  O15  1  0.53093700  0.74153900  0.91173800  1
  O  O16  1  0.86726700  0.39559300  0.12523400  1
  O  O17  1  0.36726700  0.60440700  0.37476600  1
  O  O18  1  0.13273300  0.60440700  0.87476600  1
  O  O19  1  0.63273300  0.39559300  0.62523400  1
  O  O20  1  0.59881100  0.71689400  0.48454200  1
  O  O21  1  0.09881100  0.28310600  0.01545800  1
  O  O22  1  0.40118900  0.28310600  0.51545800  1
  O  O23  1  0.90118900  0.71689400  0.98454200  1
  O  O24  1  0.70756400  0.86653700  0.60041600  1
  O  O25  1  0.20756400  0.13346300  0.89958400  1
  O  O26  1  0.06152600  0.74982000  0.10707000  1
  O  O27  1  0.79243600  0.86653700  0.10041600  1
  O  O28  1  0.43847400  0.74982000  0.60707000  1
  O  O29  1  0.93847400  0.25018000  0.89293000  1
  O  O30  1  0.56152600  0.25018000  0.39293000  1
  O  O31  1  0.29243600  0.13346300  0.39958400  1
loop_
_geom_bond_atom_site_label_1
_geom_bond_atom_site_label_2
_geom_bond_distance
_geom_bond_site_symmetry_2
Ba0 O28 2.688141 1_555
Ba0 O12 2.745140 1_455
Ba0 O14 2.746430 1_555
Ba0 O31 2.759822 1_565
Ba0 O22 2.843516 1_555
Ba0 O6 2.852335 1_555
Ba0 O17 3.025037 1_555
Ba0 O10 3.202880 1_555
Ba1 O29 2.688141 1_555
Ba1 O13 2.745140 1_556
Ba1 O15 2.746430 1_555
Ba1 O27 2.759822 1_546
Ba1 O23 2.843516 1_555
Ba1 O7 2.852335 1_555
Ba1 O16 3.025037 1_556
Ba1 O11 3.202880 1_555
Ba2 O30 2.688141 1_555
Ba2 O14 2.745140 1_655
Ba2 O12 2.746430 1_555
Ba2 O24 2.759822 1_545
Ba2 O20 2.843516 1_555
Ba2 O4 2.852335 1_555
Ba2 O19 3.025037 1_555
Ba2 O8 3.202880 1_555
Ba3 O26 2.688141 1_555
Ba3 O15 2.745140 1_554
Ba3 O13 2.746430 1_555
Ba3 O25 2.759822 1_564
Ba3 O21 2.843516 1_555
Ba3 O5 2.852335 1_555
Ba3 O18 3.025037 1_554
Ba3 O9 3.202880 1_555
Ba4 O8 2.717980 1_555
Ba4 O1 2.721728 1_555
Ba4 O27 2.730623 1_555
Ba4 O16 2.839162 1_555
Ba4 O30 2.853513 1_555
Ba4 O5 2.872499 1_555
Ba4 O4 2.931923 1_555
Ba5 O9 2.717980 1_555
Ba5 O0 2.721728 1_455
Ba5 O31 2.730623 1_555
Ba5 O17 2.839162 1_555
Ba5 O26 2.853513 1_555
Ba5 O4 2.872499 1_455
Ba5 O5 2.931923 1_555
Ba6 O10 2.717980 1_555
Ba6 O3 2.721728 1_555
Ba6 O25 2.730623 1_555
Ba6 O18 2.839162 1_555
Ba6 O28 2.853513 1_555
Ba6 O7 2.872499 1_555
Ba6 O6 2.931923 1_555
Ba7 O11 2.717980 1_555
Ba7 O2 2.721728 1_655
Ba7 O24 2.730623 1_555
Ba7 O19 2.839162 1_555
Ba7 O29 2.853513 1_555
Ba7 O6 2.872499 1_655
Ba7 O7 2.931923 1_555
Co0 O0 2.066204 1_445
Co0 O16 2.073201 1_455
Co0 O26 2.099160 1_545
Co0 O9 2.101510 1_555
Co0 O21 2.130821 1_555
Co0 O27 2.536075 1_445
Co1 O1 2.066204 1_565
Co1 O17 2.073201 1_555
Co1 O30 2.099160 1_565
Co1 O8 2.101510 1_555
Co1 O20 2.130821 1_555
Co1 O31 2.536075 1_565
Co2 O3 2.066204 1_545
Co2 O19 2.073201 1_555
Co2 O28 2.099160 1_545
Co2 O10 2.101510 1_555
Co2 O22 2.130821 1_555
Co2 O24 2.536075 1_545
Co3 O2 2.066204 1_665
Co3 O18 2.073201 1_655
Co3 O29 2.099160 1_565
Co3 O11 2.101510 1_555
Co3 O23 2.130821 1_555
Co3 O25 2.536075 1_665
O0 P0 1.564462 1_555
O1 P1 1.564462 1_555
O2 P2 1.564462 1_555
O3 P3 1.564462 1_555
O4 P0 1.557840 1_545
O5 P1 1.557840 1_565
O6 P2 1.557840 1_565
O7 P3 1.557840 1_545
O8 P0 1.569207 1_555
O9 P1 1.569207 1_555
O10 P2 1.569207 1_555
O11 P3 1.569207 1_555
O12 P0 1.556637 1_555
O13 P1 1.556637 1_555
O14 P2 1.556637 1_555
O15 P3 1.556637 1_555
O16 P4 1.574305 1_555
O17 P7 1.574305 1_555
O18 P6 1.574305 1_555
O19 P5 1.574305 1_555
O20 P5 1.532625 1_555
O21 P6 1.532625 1_554
O22 P7 1.532625 1_555
O23 P4 1.532625 1_556
O24 P5 1.554474 1_555
O25 P6 1.554474 1_555
O26 P4 1.565683 1_455
O27 P4 1.554474 1_555
O28 P5 1.565683 1_555
O29 P6 1.565683 1_655
O30 P7 1.565683 1_555
O31 P7 1.554474 1_555
