# generated using pymatgen
data_Cs3Mo2Cl9
_symmetry_space_group_name_H-M   'P 1'
_cell_length_a   7.38763290
_cell_length_b   7.38763296
_cell_length_c   17.94127565
_cell_angle_alpha   89.99999258
_cell_angle_beta   90.00001477
_cell_angle_gamma   120.00005274
_symmetry_Int_Tables_number   1
_chemical_formula_structural   Cs3Mo2Cl9
_chemical_formula_sum   'Cs6 Mo4 Cl18'
_cell_volume   847.99704028
_cell_formula_units_Z   2
loop_
 _symmetry_equiv_pos_site_id
 _symmetry_equiv_pos_as_xyz
  1  'x, y, z'
loop_
 _atom_site_type_symbol
 _atom_site_label
 _atom_site_symmetry_multiplicity
 _atom_site_fract_x
 _atom_site_fract_y
 _atom_site_fract_z
 _atom_site_occupancy
  Cs  Cs0  1  -0.00000017  -0.00000016  0.25001093  1
  Cs  Cs1  1  0.00000005  0.00000006  0.74998878  1
  Cs  Cs2  1  0.33333323  0.66666691  0.07191694  1
  Cs  Cs3  1  0.66666668  0.33333312  0.57194401  1
  Cs  Cs4  1  0.66666661  0.33333369  0.92805614  1
  Cs  Cs5  1  0.33333315  0.66666658  0.42808575  1
  Mo  Mo0  1  0.33333326  0.66666680  0.82704574  1
  Mo  Mo1  1  0.66666678  0.33333324  0.32707897  1
  Mo  Mo2  1  0.66666636  0.33333290  0.17295296  1
  Mo  Mo3  1  0.33333313  0.66666645  0.67292352  1
  Cl  Cl0  1  0.50501660  0.00999639  0.25000535  1
  Cl  Cl1  1  0.49498695  0.50497712  0.74999475  1
  Cl  Cl2  1  0.00999000  0.50501304  0.74999470  1
  Cl  Cl3  1  0.99000353  0.49502019  0.25000539  1
  Cl  Cl4  1  0.50497980  0.49498314  0.25000537  1
  Cl  Cl5  1  0.49502302  0.99001024  0.74999471  1
  Cl  Cl6  1  0.82105461  0.64214722  0.09627264  1
  Cl  Cl7  1  0.17894612  0.82109302  0.59626377  1
  Cl  Cl8  1  0.64214702  0.82105404  0.59626385  1
  Cl  Cl9  1  0.35785300  0.17890726  0.09627272  1
  Cl  Cl10  1  0.82109247  0.17894543  0.09627262  1
  Cl  Cl11  1  0.17890054  0.35784922  0.90372296  1
  Cl  Cl12  1  0.17894870  0.82109939  0.90372311  1
  Cl  Cl13  1  0.17890697  0.35785327  0.59626387  1
  Cl  Cl14  1  0.64215083  0.82105184  0.90372300  1
  Cl  Cl15  1  0.35785243  0.17890781  0.40373980  1
  Cl  Cl16  1  0.82105555  0.64214735  0.40373975  1
  Cl  Cl17  1  0.82109175  0.17894444  0.40373991  1
loop_
_geom_bond_atom_site_label_1
_geom_bond_atom_site_label_2
_geom_bond_distance
_geom_bond_site_symmetry_2
Cl0 Mo2 2.488064 1_555
Cl0 Mo1 2.488277 1_555
Cl0 Cs0 3.694234 1_655
Cl0 Cs0 3.694507 1_555
Cl0 Cs5 3.877232 1_545
Cl0 Cs2 3.877349 1_545
Cl1 Mo0 2.488088 1_555
Cl1 Mo3 2.488288 1_555
Cl1 Cs1 3.694233 1_555
Cl1 Cs1 3.694500 1_665
Cl1 Cs3 3.876773 1_555
Cl1 Cs4 3.876927 1_555
Cl2 Mo0 2.488086 1_555
Cl2 Mo3 2.488286 1_555
Cl2 Cs1 3.694236 1_565
Cl2 Cs1 3.694502 1_555
Cl2 Cs3 3.876769 1_455
Cl2 Cs4 3.876929 1_455
Cl3 Mo2 2.488067 1_555
Cl3 Mo1 2.488276 1_555
Cl3 Cs0 3.694233 1_665
Cl3 Cs0 3.694507 1_655
Cl3 Cs5 3.877230 1_655
Cl3 Cs2 3.877351 1_655
Cl4 Mo2 2.488067 1_555
Cl4 Mo1 2.488278 1_555
Cl4 Cs0 3.694232 1_555
Cl4 Cs0 3.694503 1_665
Cl4 Cs5 3.877234 1_555
Cl4 Cs2 3.877353 1_555
Cl5 Mo0 2.488087 1_555
Cl5 Mo3 2.488290 1_555
Cl5 Cs1 3.694237 1_665
Cl5 Cs1 3.694501 1_565
Cl5 Cs3 3.876768 1_565
Cl5 Cs4 3.876928 1_565
Cl6 Mo2 2.407546 1_555
Cl6 Cs0 3.584661 1_665
Cl6 Cs4 3.607218 1_554
Cl6 Cs2 3.722742 1_555
Cl6 Cs2 3.723017 1_655
Cl7 Mo3 2.407332 1_555
Cl7 Cs1 3.584482 1_565
Cl7 Cs5 3.606642 1_555
Cl7 Cs3 3.722657 1_565
Cl7 Cs3 3.722945 1_455
Cl8 Mo3 2.407332 1_555
Cl8 Cs1 3.584478 1_665
Cl8 Cs5 3.606643 1_555
Cl8 Cs3 3.722663 1_555
Cl8 Cs3 3.722945 1_565
Cl9 Mo2 2.407540 1_555
Cl9 Cs0 3.584663 1_555
Cl9 Cs4 3.607220 1_554
Cl9 Cs2 3.722737 1_545
Cl9 Cs2 3.723023 1_555
Cl10 Mo2 2.407544 1_555
Cl10 Cs0 3.584664 1_655
Cl10 Cs4 3.607221 1_554
Cl10 Cs2 3.722738 1_655
Cl10 Cs2 3.723015 1_545
Cl11 Mo0 2.407531 1_555
Cl11 Cs1 3.584590 1_555
Cl11 Cs2 3.606895 1_556
Cl11 Cs4 3.722657 1_455
Cl11 Cs4 3.723006 1_555
Cl12 Mo0 2.407532 1_555
Cl12 Cs1 3.584594 1_565
Cl12 Cs2 3.606891 1_556
Cl12 Cs4 3.722653 1_565
Cl12 Cs4 3.723004 1_455
Cl13 Mo3 2.407328 1_555
Cl13 Cs1 3.584479 1_555
Cl13 Cs5 3.606642 1_555
Cl13 Cs3 3.722659 1_455
Cl13 Cs3 3.722950 1_555
Cl14 Mo0 2.407531 1_555
Cl14 Cs1 3.584592 1_665
Cl14 Cs2 3.606894 1_556
Cl14 Cs4 3.722656 1_555
Cl14 Cs4 3.723007 1_565
Cl15 Mo1 2.407346 1_555
Cl15 Cs0 3.584531 1_555
Cl15 Cs3 3.607036 1_555
Cl15 Cs5 3.722724 1_545
Cl15 Cs5 3.722994 1_555
Cl16 Mo1 2.407344 1_555
Cl16 Cs0 3.584530 1_665
Cl16 Cs3 3.607037 1_555
Cl16 Cs5 3.722728 1_555
Cl16 Cs5 3.722991 1_655
Cl17 Mo1 2.407345 1_555
Cl17 Cs0 3.584535 1_655
Cl17 Cs3 3.607034 1_555
Cl17 Cs5 3.722722 1_655
Cl17 Cs5 3.722990 1_545
