# generated using pymatgen
data_K3Sb5O14
_symmetry_space_group_name_H-M   'P 1'
_cell_length_a   7.27795900
_cell_length_b   7.46143300
_cell_length_c   24.68966800
_cell_angle_alpha   90.00000000
_cell_angle_beta   90.00000000
_cell_angle_gamma   90.00000000
_symmetry_Int_Tables_number   1
_chemical_formula_structural   K3Sb5O14
_chemical_formula_sum   'K12 Sb20 O56'
_cell_volume   1340.74781638
_cell_formula_units_Z   4
loop_
 _symmetry_equiv_pos_site_id
 _symmetry_equiv_pos_as_xyz
  1  'x, y, z'
loop_
 _atom_site_type_symbol
 _atom_site_label
 _atom_site_symmetry_multiplicity
 _atom_site_fract_x
 _atom_site_fract_y
 _atom_site_fract_z
 _atom_site_occupancy
  K  K0  1  0.10350400  0.01074500  0.38315900  1
  K  K1  1  0.72283100  0.96980400  0.48482300  1
  K  K2  1  0.61603200  0.49613700  0.20580700  1
  K  K3  1  0.39649600  0.01074500  0.88315900  1
  K  K4  1  0.88396800  0.49613700  0.70580700  1
  K  K5  1  0.89649600  0.01074500  0.61684100  1
  K  K6  1  0.60350400  0.01074500  0.11684100  1
  K  K7  1  0.22283100  0.96980400  0.01517700  1
  K  K8  1  0.77716900  0.96980400  0.98482300  1
  K  K9  1  0.27716900  0.96980400  0.51517700  1
  K  K10  1  0.38396800  0.49613700  0.79419300  1
  K  K11  1  0.11603200  0.49613700  0.29419300  1
  Sb  Sb0  1  0.17516100  0.98660700  0.75613800  1
  Sb  Sb1  1  0.58255300  0.48733500  0.94294700  1
  Sb  Sb2  1  0.82483900  0.98660700  0.24386200  1
  Sb  Sb3  1  0.39037900  0.75200800  0.64516600  1
  Sb  Sb4  1  0.08255300  0.48733500  0.55705300  1
  Sb  Sb5  1  0.60962100  0.75200800  0.35483400  1
  Sb  Sb6  1  0.67516100  0.98660700  0.74386200  1
  Sb  Sb7  1  0.10962100  0.75200800  0.14516600  1
  Sb  Sb8  1  0.89037900  0.75200800  0.85483400  1
  Sb  Sb9  1  0.10900300  0.22314000  0.14543600  1
  Sb  Sb10  1  0.40589500  0.48663500  0.43772200  1
  Sb  Sb11  1  0.89099700  0.22314000  0.85456400  1
  Sb  Sb12  1  0.91744700  0.48733500  0.44294700  1
  Sb  Sb13  1  0.39099700  0.22314000  0.64543600  1
  Sb  Sb14  1  0.41744700  0.48733500  0.05705300  1
  Sb  Sb15  1  0.90589500  0.48663500  0.06227800  1
  Sb  Sb16  1  0.32483900  0.98660700  0.25613800  1
  Sb  Sb17  1  0.09410500  0.48663500  0.93772200  1
  Sb  Sb18  1  0.59410500  0.48663500  0.56227800  1
  Sb  Sb19  1  0.60900300  0.22314000  0.35456400  1
  O  O0  1  0.66077100  0.48478600  0.09400800  1
  O  O1  1  0.73900700  0.21189100  0.78846100  1
  O  O2  1  0.62236700  0.17201200  0.68536500  1
  O  O3  1  0.23900700  0.21189100  0.71153900  1
  O  O4  1  0.83922900  0.48478600  0.59400800  1
  O  O5  1  0.95321600  0.23061400  0.07411200  1
  O  O6  1  0.43507100  0.98485700  0.78153800  1
  O  O7  1  0.83791300  0.68713500  0.39724800  1
  O  O8  1  0.45321600  0.23061400  0.42588800  1
  O  O9  1  0.66040600  0.48727900  0.48237300  1
  O  O10  1  0.16090000  0.29217900  0.60460500  1
  O  O11  1  0.76170300  0.76075400  0.28871000  1
  O  O12  1  0.02724800  0.48768300  0.14257800  1
  O  O13  1  0.93507100  0.98485700  0.71846200  1
  O  O14  1  0.37763300  0.17201200  0.31463500  1
  O  O15  1  0.23829700  0.76075400  0.71129000  1
  O  O16  1  0.83910000  0.29217900  0.39539500  1
  O  O17  1  0.04678400  0.23061400  0.92588800  1
  O  O18  1  0.33910000  0.29217900  0.10460500  1
  O  O19  1  0.04746300  0.74331300  0.92631300  1
  O  O20  1  0.16077100  0.48478600  0.40599200  1
  O  O21  1  0.47275200  0.48768300  0.64257800  1
  O  O22  1  0.68211500  0.98782400  0.38067700  1
  O  O23  1  0.54678400  0.23061400  0.57411200  1
  O  O24  1  0.83959400  0.48727900  0.98237300  1
  O  O25  1  0.52724800  0.48768300  0.35742200  1
  O  O26  1  0.26099300  0.21189100  0.21153900  1
  O  O27  1  0.33922900  0.48478600  0.90599200  1
  O  O28  1  0.62162900  0.80259400  0.68518500  1
  O  O29  1  0.12236700  0.17201200  0.81463500  1
  O  O30  1  0.12162900  0.80259400  0.81481500  1
  O  O31  1  0.45253700  0.74331300  0.42631300  1
  O  O32  1  0.00000000  0.30816500  0.50000000  1
  O  O33  1  0.87837100  0.80259400  0.18518500  1
  O  O34  1  0.16040600  0.48727900  0.01762700  1
  O  O35  1  0.50000000  0.66638100  0.00000000  1
  O  O36  1  0.56492900  0.98485700  0.21846200  1
  O  O37  1  0.16208700  0.68713500  0.60275200  1
  O  O38  1  0.97275200  0.48768300  0.85742200  1
  O  O39  1  0.37837100  0.80259400  0.31481500  1
  O  O40  1  0.66090000  0.29217900  0.89539500  1
  O  O41  1  0.54746300  0.74331300  0.57368700  1
  O  O42  1  0.18211500  0.98782400  0.11932300  1
  O  O43  1  0.00000000  0.66638100  0.50000000  1
  O  O44  1  0.87763300  0.17201200  0.18536500  1
  O  O45  1  0.50000000  0.30816500  0.00000000  1
  O  O46  1  0.73829700  0.76075400  0.78871000  1
  O  O47  1  0.95253700  0.74331300  0.07368700  1
  O  O48  1  0.33959400  0.48727900  0.51762700  1
  O  O49  1  0.06492900  0.98485700  0.28153800  1
  O  O50  1  0.31788500  0.98782400  0.61932300  1
  O  O51  1  0.66208700  0.68713500  0.89724800  1
  O  O52  1  0.76099300  0.21189100  0.28846100  1
  O  O53  1  0.33791300  0.68713500  0.10275200  1
  O  O54  1  0.26170300  0.76075400  0.21129000  1
  O  O55  1  0.81788500  0.98782400  0.88067700  1
loop_
_geom_bond_atom_site_label_1
_geom_bond_atom_site_label_2
_geom_bond_distance
_geom_bond_site_symmetry_2
K0 O49 2.532026 1_545
K0 O16 2.864239 1_455
K0 O14 2.879343 1_555
K0 O39 3.043239 1_545
K0 O22 3.072228 1_445
K0 O7 3.112491 1_445
K0 O8 3.206603 1_555
K1 O22 2.591839 1_555
K1 O31 2.968603 1_555
K1 O41 3.049369 1_555
K1 O43 3.055351 1_655
K1 O8 3.123246 1_565
K1 O7 3.134482 1_555
K1 O23 3.207570 1_565
K1 O32 3.253230 1_665
K2 O0 2.780709 1_555
K2 O33 3.022120 1_555
K2 O11 3.035115 1_555
K2 O44 3.119051 1_555
K2 O52 3.126606 1_555
K2 O54 3.250667 1_555
K2 O26 3.345895 1_555
K3 O6 2.532026 1_545
K3 O40 2.864239 1_555
K3 O29 2.879343 1_555
K3 O30 3.043239 1_545
K3 O55 3.072228 1_545
K3 O51 3.112491 1_545
K3 O17 3.206603 1_555
K4 O4 2.780709 1_555
K4 O28 3.022120 1_555
K4 O46 3.035115 1_555
K4 O2 3.119051 1_555
K4 O1 3.126606 1_555
K4 O15 3.250667 1_655
K4 O3 3.345895 1_655
K5 O13 2.532026 1_545
K5 O10 2.864239 1_655
K5 O2 2.879343 1_555
K5 O28 3.043239 1_545
K5 O50 3.072228 1_645
K5 O37 3.112491 1_645
K5 O23 3.206603 1_555
K6 O36 2.532026 1_545
K6 O18 2.864239 1_555
K6 O44 2.879343 1_555
K6 O33 3.043239 1_545
K6 O42 3.072228 1_545
K6 O53 3.112491 1_545
K6 O5 3.206603 1_555
K7 O42 2.591839 1_555
K7 O47 2.968603 1_455
K7 O19 3.049369 1_554
K7 O35 3.055351 1_555
K7 O5 3.123246 1_465
K7 O53 3.134482 1_555
K7 O17 3.207570 1_564
K7 O45 3.253230 1_565
K8 O55 2.591839 1_555
K8 O19 2.968603 1_655
K8 O47 3.049369 1_556
K8 O35 3.055351 1_556
K8 O17 3.123246 1_665
K8 O51 3.134482 1_555
K8 O5 3.207570 1_566
K8 O45 3.253230 1_566
K9 O50 2.591839 1_555
K9 O41 2.968603 1_555
K9 O31 3.049369 1_555
K9 O43 3.055351 1_555
K9 O23 3.123246 1_565
K9 O37 3.134482 1_555
K9 O8 3.207570 1_565
K9 O32 3.253230 1_565
K10 O27 2.780709 1_555
K10 O30 3.022120 1_555
K10 O15 3.035115 1_555
K10 O29 3.119051 1_555
K10 O3 3.126606 1_555
K10 O46 3.250667 1_555
K10 O1 3.345895 1_555
K11 O20 2.780709 1_555
K11 O39 3.022120 1_555
K11 O54 3.035115 1_555
K11 O14 3.119051 1_555
K11 O26 3.126606 1_555
K11 O11 3.250667 1_455
K11 O52 3.345895 1_455
O0 Sb15 1.948480 1_555
O0 Sb14 1.992220 1_555
O1 Sb11 1.973397 1_555
O1 Sb6 2.062517 1_545
O2 Sb13 1.988196 1_555
O2 Sb6 2.036496 1_545
O3 Sb13 1.973397 1_555
O3 Sb0 2.062517 1_545
O4 Sb18 1.948480 1_555
O4 Sb4 1.992220 1_655
O5 Sb15 1.962947 1_555
O5 Sb9 2.095147 1_655
O6 Sb6 1.979581 1_555
O6 Sb0 1.992900 1_555
O7 Sb12 1.957185 1_555
O7 Sb5 2.022742 1_555
O8 Sb10 1.962947 1_555
O8 Sb19 2.095147 1_555
O9 Sb18 2.030988 1_555
O9 Sb12 2.108834 1_555
O9 Sb10 2.155560 1_555
O10 Sb4 1.955471 1_555
O10 Sb13 2.021395 1_555
O11 Sb5 1.973495 1_555
O11 Sb2 2.068108 1_555
O12 Sb7 2.062337 1_555
O12 Sb9 2.062808 1_555
O12 Sb15 2.170422 1_455
O13 Sb0 1.979581 1_655
O13 Sb6 1.992900 1_555
O14 Sb19 1.988196 1_555
O14 Sb16 2.036496 1_545
O15 Sb3 1.973495 1_555
O15 Sb0 2.068108 1_555
O16 Sb12 1.955471 1_555
O16 Sb19 2.021395 1_555
O17 Sb17 1.962947 1_555
O17 Sb11 2.095147 1_455
O18 Sb14 1.955471 1_555
O18 Sb9 2.021395 1_555
O19 Sb17 1.965328 1_555
O19 Sb8 2.103741 1_455
O20 Sb10 1.948480 1_555
O20 Sb12 1.992220 1_455
O21 Sb3 2.062337 1_555
O21 Sb13 2.062808 1_555
O21 Sb18 2.170422 1_555
O22 Sb5 1.944586 1_555
O22 Sb19 1.944638 1_565
O23 Sb18 1.962947 1_555
O23 Sb13 2.095147 1_555
O24 Sb15 2.030988 1_556
O24 Sb1 2.108834 1_555
O24 Sb17 2.155560 1_655
O25 Sb5 2.062337 1_555
O25 Sb19 2.062808 1_555
O25 Sb10 2.170422 1_555
O26 Sb9 1.973397 1_555
O26 Sb16 2.062517 1_545
O27 Sb17 1.948480 1_555
O27 Sb1 1.992220 1_555
O28 Sb3 1.987788 1_555
O28 Sb6 2.033642 1_555
O29 Sb11 1.988196 1_455
O29 Sb0 2.036496 1_545
O30 Sb8 1.987788 1_455
O30 Sb0 2.033642 1_555
O31 Sb10 1.965328 1_555
O31 Sb5 2.103741 1_555
O32 Sb4 2.032830 1_555
O32 Sb12 2.032830 1_455
O33 Sb7 1.987788 1_655
O33 Sb2 2.033642 1_555
O34 Sb17 2.030988 1_554
O34 Sb14 2.108834 1_555
O34 Sb15 2.155560 1_455
O35 Sb1 2.032222 1_554
O35 Sb14 2.032222 1_555
O36 Sb16 1.979581 1_555
O36 Sb2 1.992900 1_555
O37 Sb4 1.957185 1_555
O37 Sb3 2.022742 1_555
O38 Sb8 2.062337 1_555
O38 Sb11 2.062808 1_555
O38 Sb17 2.170422 1_655
O39 Sb5 1.987788 1_555
O39 Sb16 2.033642 1_555
O40 Sb1 1.955471 1_555
O40 Sb11 2.021395 1_555
O41 Sb18 1.965328 1_555
O41 Sb3 2.103741 1_555
O42 Sb7 1.944586 1_555
O42 Sb9 1.944638 1_565
O43 Sb4 2.032222 1_555
O43 Sb12 2.032222 1_455
O44 Sb9 1.988196 1_655
O44 Sb2 2.036496 1_545
O45 Sb1 2.032830 1_554
O45 Sb14 2.032830 1_555
O46 Sb8 1.973495 1_555
O46 Sb6 2.068108 1_555
O47 Sb15 1.965328 1_555
O47 Sb7 2.103741 1_655
O48 Sb10 2.030988 1_555
O48 Sb4 2.108834 1_555
O48 Sb18 2.155560 1_555
O49 Sb2 1.979581 1_455
O49 Sb16 1.992900 1_555
O50 Sb3 1.944586 1_555
O50 Sb13 1.944638 1_565
O51 Sb1 1.957185 1_555
O51 Sb8 2.022742 1_555
O52 Sb19 1.973397 1_555
O52 Sb2 2.062517 1_545
O53 Sb14 1.957185 1_555
O53 Sb7 2.022742 1_555
O54 Sb7 1.973495 1_555
O54 Sb16 2.068108 1_555
O55 Sb8 1.944586 1_555
O55 Sb11 1.944638 1_565
