# generated using pymatgen
data_KZrH2OF5
_symmetry_space_group_name_H-M   'P 1'
_cell_length_a   12.36381500
_cell_length_b   7.73947200
_cell_length_c   11.21428451
_cell_angle_alpha   81.23221153
_cell_angle_beta   90.00000000
_cell_angle_gamma   90.00000000
_symmetry_Int_Tables_number   1
_chemical_formula_structural   KZrH2OF5
_chemical_formula_sum   'K8 Zr8 H16 O8 F40'
_cell_volume   1060.54829865
_cell_formula_units_Z   8
loop_
 _symmetry_equiv_pos_site_id
 _symmetry_equiv_pos_as_xyz
  1  'x, y, z'
loop_
 _atom_site_type_symbol
 _atom_site_label
 _atom_site_symmetry_multiplicity
 _atom_site_fract_x
 _atom_site_fract_y
 _atom_site_fract_z
 _atom_site_occupancy
  K  K0  1  0.96144100  0.79754000  0.14706200  1
  K  K1  1  0.47588500  0.29856300  0.87970900  1
  K  K2  1  0.46144100  0.20246000  0.35293800  1
  K  K3  1  0.03855900  0.20246000  0.85293800  1
  K  K4  1  0.52411500  0.70143700  0.12029100  1
  K  K5  1  0.97588500  0.70143700  0.62029100  1
  K  K6  1  0.53855900  0.79754000  0.64706200  1
  K  K7  1  0.02411500  0.29856300  0.37970900  1
  Zr  Zr0  1  0.73676600  0.97566000  0.87777600  1
  Zr  Zr1  1  0.76323400  0.97566000  0.37777600  1
  Zr  Zr2  1  0.24505000  0.47114900  0.60784000  1
  Zr  Zr3  1  0.26323400  0.02434000  0.12222400  1
  Zr  Zr4  1  0.74505000  0.52885100  0.89216000  1
  Zr  Zr5  1  0.25495000  0.47114900  0.10784000  1
  Zr  Zr6  1  0.23676600  0.02434000  0.62222400  1
  Zr  Zr7  1  0.75495000  0.52885100  0.39216000  1
  H  H0  1  0.85596900  0.25466200  0.04909700  1
  H  H1  1  0.14620000  0.58260000  0.87705700  1
  H  H2  1  0.64620000  0.41740000  0.62294300  1
  H  H3  1  0.33818000  0.75183600  0.79896800  1
  H  H4  1  0.35596900  0.74533800  0.45090300  1
  H  H5  1  0.16182000  0.75183600  0.29896800  1
  H  H6  1  0.65064800  0.07112900  0.14566200  1
  H  H7  1  0.15064800  0.92887100  0.35433800  1
  H  H8  1  0.34935200  0.92887100  0.85433800  1
  H  H9  1  0.64403100  0.25466200  0.54909700  1
  H  H10  1  0.83818000  0.24816400  0.70103200  1
  H  H11  1  0.84935200  0.07112900  0.64566200  1
  H  H12  1  0.85380000  0.41740000  0.12294300  1
  H  H13  1  0.35380000  0.58260000  0.37705700  1
  H  H14  1  0.66182000  0.24816400  0.20103200  1
  H  H15  1  0.14403100  0.74533800  0.95090300  1
  O  O0  1  0.65473000  0.12112600  0.22277500  1
  O  O1  1  0.84527000  0.12112600  0.72277500  1
  O  O2  1  0.85720800  0.38280400  0.04110300  1
  O  O3  1  0.35720800  0.61719600  0.45889700  1
  O  O4  1  0.64279200  0.38280400  0.54110300  1
  O  O5  1  0.15473000  0.87887400  0.27722500  1
  O  O6  1  0.14279200  0.61719600  0.95889700  1
  O  O7  1  0.34527000  0.87887400  0.77722500  1
  F  F0  1  0.38101400  0.93901500  0.24345500  1
  F  F1  1  0.14515700  0.48980900  0.75323000  1
  F  F2  1  0.72450400  0.25179800  0.88583200  1
  F  F3  1  0.37316000  0.25061800  0.11570900  1
  F  F4  1  0.37812600  0.52955900  0.70255400  1
  F  F5  1  0.86045700  0.98625000  0.52549700  1
  F  F6  1  0.20075200  0.28184300  0.00337100  1
  F  F7  1  0.77549600  0.25179800  0.38583200  1
  F  F8  1  0.79924800  0.71815700  0.99662900  1
  F  F9  1  0.37103600  0.96398200  0.52673700  1
  F  F10  1  0.62896400  0.03601800  0.47326300  1
  F  F11  1  0.35484300  0.48980900  0.25323000  1
  F  F12  1  0.36768800  0.55424100  0.97850600  1
  F  F13  1  0.87316000  0.74938200  0.38429100  1
  F  F14  1  0.13954300  0.01375000  0.47450300  1
  F  F15  1  0.36045700  0.01375000  0.97450300  1
  F  F16  1  0.87103600  0.03601800  0.97326300  1
  F  F17  1  0.61898600  0.06098500  0.75654500  1
  F  F18  1  0.29924800  0.28184300  0.50337100  1
  F  F19  1  0.87812600  0.47044100  0.79744600  1
  F  F20  1  0.13231200  0.55424100  0.47850600  1
  F  F21  1  0.63231200  0.44575900  0.02149400  1
  F  F22  1  0.62684000  0.74938200  0.88429100  1
  F  F23  1  0.85484300  0.51019100  0.24677000  1
  F  F24  1  0.12187400  0.52955900  0.20255400  1
  F  F25  1  0.12684000  0.25061800  0.61570900  1
  F  F26  1  0.22450400  0.74820200  0.61416800  1
  F  F27  1  0.70122300  0.78871900  0.27360500  1
  F  F28  1  0.79877700  0.78871900  0.77360500  1
  F  F29  1  0.70075200  0.71815700  0.49662900  1
  F  F30  1  0.88101400  0.06098500  0.25654500  1
  F  F31  1  0.12896400  0.96398200  0.02673700  1
  F  F32  1  0.86768800  0.44575900  0.52149400  1
  F  F33  1  0.62187400  0.47044100  0.29744600  1
  F  F34  1  0.11898600  0.93901500  0.74345500  1
  F  F35  1  0.63954300  0.98625000  0.02549700  1
  F  F36  1  0.20122300  0.21128100  0.22639500  1
  F  F37  1  0.29877700  0.21128100  0.72639500  1
  F  F38  1  0.27549600  0.74820200  0.11416800  1
  F  F39  1  0.64515700  0.51019100  0.74677000  1
loop_
_geom_bond_atom_site_label_1
_geom_bond_atom_site_label_2
_geom_bond_distance
_geom_bond_site_symmetry_2
K0 O5 2.918585 1_655
K2 O0 2.918585 1_555
K3 O1 2.918585 1_455
K6 O7 2.918585 1_555
H0 O2 0.982211 1_555
H1 O6 0.995339 1_555
H2 O4 0.995339 1_555
H3 O7 0.980177 1_555
H4 O3 0.982211 1_555
H5 O5 0.980177 1_555
H6 O0 1.001056 1_555
H7 O5 1.001056 1_555
H8 O7 1.001056 1_555
H9 O4 0.982211 1_555
H10 O1 0.980177 1_555
H11 O1 1.001056 1_555
H12 O2 0.995339 1_555
H13 O3 0.995339 1_555
H14 O0 0.980177 1_555
H15 O6 0.982211 1_555
O0 Zr1 2.343504 1_545
O1 Zr0 2.343504 1_545
O2 Zr4 2.326988 1_554
O3 Zr2 2.326988 1_555
O4 Zr7 2.326988 1_555
O5 Zr3 2.343504 1_565
O6 Zr5 2.326988 1_556
O7 Zr6 2.343504 1_565
F0 Zr3 2.032543 1_565
F0 K2 2.723346 1_565
F0 K4 3.032028 1_555
F1 H1 1.657778 1_555
F1 Zr2 2.067936 1_555
F1 K3 2.678628 1_555
F1 K5 2.922468 1_455
F2 Zr0 2.158117 1_545
F2 Zr4 2.171114 1_555
F2 K1 3.094652 1_555
F3 Zr3 2.209174 1_555
F3 Zr5 2.238543 1_555
F3 K2 2.847009 1_555
F3 K1 2.907873 1_554
F4 Zr2 2.045973 1_555
F4 K1 2.742469 1_555
F4 K6 2.868783 1_555
F5 H11 1.592545 1_565
F5 Zr1 2.058471 1_555
F5 K5 2.703950 1_555
F6 Zr5 2.119299 1_555
F6 Zr3 2.352716 1_555
F6 K3 2.749678 1_554
F7 Zr1 2.158117 1_545
F7 Zr7 2.171114 1_555
F7 K7 3.094652 1_655
F8 Zr4 2.119299 1_555
F8 Zr0 2.352716 1_555
F8 K0 2.749678 1_556
F9 Zr6 2.067188 1_565
F9 K6 2.690765 1_555
F9 K2 2.712563 1_565
F10 Zr1 2.067188 1_545
F10 K2 2.690765 1_555
F10 K6 2.712563 1_545
F11 H13 1.657778 1_555
F11 Zr5 2.067936 1_555
F11 K2 2.678628 1_555
F11 K4 2.922468 1_555
F12 Zr5 2.043457 1_556
F12 K1 2.757012 1_555
F12 K4 2.849330 1_556
F13 Zr1 2.209174 1_555
F13 Zr7 2.238543 1_555
F13 K0 2.847009 1_555
F13 K5 2.907873 1_555
F14 H7 1.592545 1_545
F14 Zr6 2.058471 1_555
F14 K7 2.703950 1_555
F15 H8 1.592545 1_545
F15 Zr3 2.058471 1_556
F15 K1 2.703950 1_555
F16 Zr0 2.067188 1_545
F16 K3 2.690765 1_655
F16 K0 2.712563 1_546
F17 Zr0 2.032543 1_545
F17 K6 2.723346 1_545
F17 K1 3.032028 1_555
F18 Zr2 2.119299 1_555
F18 Zr6 2.352716 1_555
F18 K2 2.749678 1_555
F19 Zr4 2.045973 1_555
F19 K5 2.742469 1_555
F19 K3 2.868783 1_655
F20 Zr2 2.043457 1_555
F20 K7 2.757012 1_555
F20 K5 2.849330 1_455
F21 Zr4 2.043457 1_554
F21 K4 2.757012 1_555
F21 K1 2.849330 1_554
F22 Zr0 2.209174 1_555
F22 Zr4 2.238543 1_555
F22 K6 2.847009 1_555
F22 K4 2.907873 1_556
F23 H12 1.657778 1_555
F23 Zr7 2.067936 1_555
F23 K0 2.678628 1_555
F23 K7 2.922468 1_655
F24 Zr5 2.045973 1_555
F24 K7 2.742469 1_555
F24 K0 2.868783 1_455
F25 Zr6 2.209174 1_555
F25 Zr2 2.238543 1_555
F25 K3 2.847009 1_555
F25 K7 2.907873 1_555
F26 Zr6 2.158117 1_565
F26 Zr2 2.171114 1_555
F26 K5 3.094652 1_455
F27 Zr1 2.135670 1_555
F27 Zr7 2.332114 1_555
F27 K4 2.925975 1_555
F28 Zr0 2.135670 1_555
F28 Zr4 2.332114 1_555
F28 K5 2.925975 1_555
F29 Zr7 2.119299 1_555
F29 Zr1 2.352716 1_555
F29 K6 2.749678 1_555
F30 Zr1 2.032543 1_545
F30 K0 2.723346 1_545
F30 K7 3.032028 1_655
F31 Zr3 2.067188 1_565
F31 K0 2.690765 1_455
F31 K3 2.712563 1_564
F32 Zr7 2.043457 1_555
F32 K5 2.757012 1_555
F32 K7 2.849330 1_655
F33 Zr7 2.045973 1_555
F33 K4 2.742469 1_555
F33 K2 2.868783 1_555
F34 Zr6 2.032543 1_565
F34 K3 2.723346 1_565
F34 K5 3.032028 1_455
F35 H6 1.592545 1_565
F35 Zr0 2.058471 1_554
F35 K4 2.703950 1_555
F36 Zr3 2.135670 1_555
F36 Zr5 2.332114 1_555
F36 K7 2.925975 1_555
F37 Zr6 2.135670 1_555
F37 Zr2 2.332114 1_555
F37 K1 2.925975 1_555
F38 Zr3 2.158117 1_565
F38 Zr5 2.171114 1_555
F38 K4 3.094652 1_555
F39 H2 1.657778 1_555
F39 Zr4 2.067936 1_555
F39 K6 2.678628 1_555
F39 K1 2.922468 1_555
