# generated using pymatgen
data_CsZr(NO3)5
_symmetry_space_group_name_H-M   'P 1'
_cell_length_a   11.96633400
_cell_length_b   7.77939000
_cell_length_c   16.01912539
_cell_angle_alpha   67.42542007
_cell_angle_beta   90.00000000
_cell_angle_gamma   90.00000000
_symmetry_Int_Tables_number   1
_chemical_formula_structural   CsZr(NO3)5
_chemical_formula_sum   'Cs4 Zr4 N20 O60'
_cell_volume   1376.97553111
_cell_formula_units_Z   4
loop_
 _symmetry_equiv_pos_site_id
 _symmetry_equiv_pos_as_xyz
  1  'x, y, z'
loop_
 _atom_site_type_symbol
 _atom_site_label
 _atom_site_symmetry_multiplicity
 _atom_site_fract_x
 _atom_site_fract_y
 _atom_site_fract_z
 _atom_site_occupancy
  Cs  Cs0  1  0.23738000  0.64304000  0.00091400  1
  Cs  Cs1  1  0.73738000  0.35696000  0.49908600  1
  Cs  Cs2  1  0.26262000  0.64304000  0.50091400  1
  Cs  Cs3  1  0.76262000  0.35696000  0.99908600  1
  Zr  Zr0  1  0.58415100  0.80635200  0.72812100  1
  Zr  Zr1  1  0.91584900  0.80635200  0.22812100  1
  Zr  Zr2  1  0.41584900  0.19364800  0.27187900  1
  Zr  Zr3  1  0.08415100  0.19364800  0.77187900  1
  N  N0  1  0.54908300  0.92515100  0.39473700  1
  N  N1  1  0.95091700  0.92515100  0.89473700  1
  N  N2  1  0.85505700  0.03340000  0.31620100  1
  N  N3  1  0.64494300  0.03340000  0.81620100  1
  N  N4  1  0.47755500  0.53385600  0.87617900  1
  N  N5  1  0.53402200  0.56909800  0.64132800  1
  N  N6  1  0.45091700  0.07484900  0.60526300  1
  N  N7  1  0.35505700  0.96660000  0.18379900  1
  N  N8  1  0.31326200  0.20245800  0.79839000  1
  N  N9  1  0.68673800  0.79754200  0.20161000  1
  N  N10  1  0.14494300  0.96660000  0.68379900  1
  N  N11  1  0.04908300  0.07484900  0.10526300  1
  N  N12  1  0.18673800  0.20245800  0.29839000  1
  N  N13  1  0.03402200  0.43090200  0.85867200  1
  N  N14  1  0.52244500  0.46614400  0.12382100  1
  N  N15  1  0.97755500  0.46614400  0.62382100  1
  N  N16  1  0.96597800  0.56909800  0.14132800  1
  N  N17  1  0.81326200  0.79754200  0.70161000  1
  N  N18  1  0.02244500  0.53385600  0.37617900  1
  N  N19  1  0.46597800  0.43090200  0.35867200  1
  O  O0  1  0.58688600  0.78175400  0.19257500  1
  O  O1  1  0.08688600  0.21824600  0.30742500  1
  O  O2  1  0.84911800  0.08267000  0.22887000  1
  O  O3  1  0.10196800  0.13101800  0.64361700  1
  O  O4  1  0.98874400  0.46984500  0.10031100  1
  O  O5  1  0.57265500  0.00497800  0.30980700  1
  O  O6  1  0.06072800  0.41264300  0.44411200  1
  O  O7  1  0.38912900  0.18434200  0.54980200  1
  O  O8  1  0.91311400  0.78175400  0.69257500  1
  O  O9  1  0.17673800  0.86972100  0.64471100  1
  O  O10  1  0.26100500  0.28866100  0.72208700  1
  O  O11  1  0.51125600  0.46984500  0.60031100  1
  O  O12  1  0.04102900  0.66390500  0.16389200  1
  O  O13  1  0.45249700  0.97530300  0.41555400  1
  O  O14  1  0.24794300  0.10089500  0.86236700  1
  O  O15  1  0.11087100  0.18434200  0.04980200  1
  O  O16  1  0.13378600  0.40898200  0.83464000  1
  O  O17  1  0.32326200  0.86972100  0.14471100  1
  O  O18  1  0.39803200  0.13101800  0.14361700  1
  O  O19  1  0.63378600  0.59101800  0.66536000  1
  O  O20  1  0.07265500  0.99502200  0.19019300  1
  O  O21  1  0.65088200  0.08267000  0.72887000  1
  O  O22  1  0.89803200  0.86898200  0.35638300  1
  O  O23  1  0.93927200  0.58735700  0.55588800  1
  O  O24  1  0.07659500  0.47986000  0.65493900  1
  O  O25  1  0.42340500  0.47986000  0.15493900  1
  O  O26  1  0.92340500  0.52014000  0.34506100  1
  O  O27  1  0.54102900  0.33609500  0.33610800  1
  O  O28  1  0.07375000  0.68483400  0.32964700  1
  O  O29  1  0.04750300  0.97530300  0.91555400  1
  O  O30  1  0.42734500  0.99502200  0.69019300  1
  O  O31  1  0.76100500  0.71133900  0.77791300  1
  O  O32  1  0.67673800  0.13027900  0.85528900  1
  O  O33  1  0.75205700  0.89910500  0.13763300  1
  O  O34  1  0.43927200  0.41264300  0.94411200  1
  O  O35  1  0.57375000  0.31516600  0.17035300  1
  O  O36  1  0.41311400  0.21824600  0.80742500  1
  O  O37  1  0.88912900  0.81565800  0.95019800  1
  O  O38  1  0.82326200  0.13027900  0.35528900  1
  O  O39  1  0.34911800  0.91733000  0.27113000  1
  O  O40  1  0.42625000  0.68483400  0.82964700  1
  O  O41  1  0.73899500  0.71133900  0.27791300  1
  O  O42  1  0.60196800  0.86898200  0.85638300  1
  O  O43  1  0.54750300  0.02469700  0.58444600  1
  O  O44  1  0.01125600  0.53015500  0.89968900  1
  O  O45  1  0.48874400  0.53015500  0.39968900  1
  O  O46  1  0.86621400  0.59101800  0.16536000  1
  O  O47  1  0.74794300  0.89910500  0.63763300  1
  O  O48  1  0.61087100  0.81565800  0.45019800  1
  O  O49  1  0.23899500  0.28866100  0.22208700  1
  O  O50  1  0.95249700  0.02469700  0.08444600  1
  O  O51  1  0.56072800  0.58735700  0.05588800  1
  O  O52  1  0.95897100  0.33609500  0.83610800  1
  O  O53  1  0.92734500  0.00497800  0.80980700  1
  O  O54  1  0.36621400  0.40898200  0.33464000  1
  O  O55  1  0.25205700  0.10089500  0.36236700  1
  O  O56  1  0.57659500  0.52014000  0.84506100  1
  O  O57  1  0.15088200  0.91733000  0.77113000  1
  O  O58  1  0.92625000  0.31516600  0.67035300  1
  O  O59  1  0.45897100  0.66390500  0.66389200  1
loop_
_geom_bond_atom_site_label_1
_geom_bond_atom_site_label_2
_geom_bond_distance
_geom_bond_site_symmetry_2
Cs0 O25 3.201522 1_555
Cs0 O29 3.316611 1_554
Cs0 O34 3.336049 1_554
Cs0 O4 3.399366 1_455
Cs0 O14 3.399858 1_564
Cs0 O44 3.437388 1_554
Cs0 O40 3.472156 1_554
Cs0 O17 3.548345 1_555
Cs0 O49 3.557277 1_555
Cs0 O12 3.562082 1_555
Cs0 O57 3.625384 1_554
Cs0 O15 3.673266 1_555
Cs1 O26 3.201522 1_555
Cs1 O43 3.316611 1_555
Cs1 O23 3.336049 1_555
Cs1 O45 3.399366 1_555
Cs1 O47 3.399858 1_545
Cs1 O11 3.437388 1_555
Cs1 O58 3.472156 1_555
Cs1 O38 3.548345 1_555
Cs1 O41 3.557277 1_555
Cs1 O27 3.562082 1_555
Cs1 O21 3.625384 1_555
Cs1 O48 3.673266 1_555
Cs2 O24 3.201522 1_555
Cs2 O13 3.316611 1_555
Cs2 O6 3.336049 1_555
Cs2 O11 3.399366 1_555
Cs2 O55 3.399858 1_565
Cs2 O45 3.437388 1_555
Cs2 O28 3.472156 1_555
Cs2 O9 3.548345 1_555
Cs2 O10 3.557277 1_555
Cs2 O59 3.562082 1_555
Cs2 O39 3.625384 1_555
Cs2 O7 3.673266 1_555
Cs3 O56 3.201522 1_555
Cs3 O50 3.316611 1_556
Cs3 O51 3.336049 1_556
Cs3 O44 3.399366 1_655
Cs3 O33 3.399858 1_546
Cs3 O4 3.437388 1_556
Cs3 O35 3.472156 1_556
Cs3 O32 3.548345 1_555
Cs3 O31 3.557277 1_555
Cs3 O52 3.562082 1_555
Cs3 O2 3.625384 1_556
Cs3 O37 3.673266 1_555
N0 O48 1.216767 1_555
N0 O5 1.291320 1_565
N0 O13 1.303510 1_555
N1 O37 1.216767 1_555
N1 O53 1.291320 1_565
N1 O29 1.303510 1_655
N2 O38 1.211259 1_555
N2 O22 1.297185 1_545
N2 O2 1.302836 1_555
N3 O32 1.211259 1_555
N3 O42 1.297185 1_545
N3 O21 1.302836 1_555
N4 O34 1.222876 1_555
N4 O40 1.280568 1_555
N4 O56 1.305863 1_555
N5 O11 1.221325 1_555
N5 O19 1.285638 1_555
N5 O59 1.298404 1_555
N6 O7 1.216767 1_555
N6 O30 1.291320 1_545
N6 O43 1.303510 1_555
N7 O17 1.211259 1_555
N7 O18 1.297185 1_565
N7 O39 1.302836 1_555
N8 O36 1.215474 1_555
N8 O14 1.289897 1_555
N8 O10 1.305928 1_555
N9 O0 1.215474 1_555
N9 O33 1.289897 1_555
N9 O41 1.305928 1_555
N10 O9 1.211259 1_555
N10 O3 1.297185 1_565
N10 O57 1.302836 1_555
N11 O15 1.216767 1_555
N11 O20 1.291320 1_545
N11 O50 1.303510 1_455
N12 O1 1.215474 1_555
N12 O55 1.289897 1_555
N12 O49 1.305928 1_555
N13 O44 1.221325 1_555
N13 O16 1.285638 1_555
N13 O52 1.298404 1_455
N14 O51 1.222876 1_555
N14 O35 1.280568 1_555
N14 O25 1.305863 1_555
N15 O23 1.222876 1_555
N15 O58 1.280568 1_555
N15 O24 1.305863 1_655
N16 O4 1.221325 1_555
N16 O46 1.285638 1_555
N16 O12 1.298404 1_655
N17 O8 1.215474 1_555
N17 O47 1.289897 1_555
N17 O31 1.305928 1_555
N18 O6 1.222876 1_555
N18 O28 1.280568 1_555
N18 O26 1.305863 1_455
N19 O45 1.221325 1_555
N19 O54 1.285638 1_555
N19 O27 1.298404 1_555
O2 Zr1 2.297457 1_545
O3 Zr3 2.296302 1_555
O5 Zr2 2.315077 1_555
O10 Zr3 2.282234 1_555
O12 Zr1 2.325048 1_455
O13 Zr2 2.318003 1_565
O14 Zr3 2.379146 1_555
O16 Zr3 2.337264 1_555
O18 Zr2 2.296302 1_555
O19 Zr0 2.337264 1_555
O20 Zr1 2.315077 1_455
O21 Zr0 2.297457 1_545
O22 Zr1 2.296302 1_555
O24 Zr3 2.296203 1_555
O25 Zr2 2.296203 1_555
O26 Zr1 2.296203 1_555
O27 Zr2 2.325048 1_555
O28 Zr1 2.434847 1_455
O29 Zr3 2.318003 1_565
O30 Zr0 2.315077 1_555
O31 Zr0 2.282234 1_555
O33 Zr1 2.379146 1_555
O35 Zr2 2.434847 1_555
O39 Zr2 2.297457 1_565
O40 Zr0 2.434847 1_555
O41 Zr1 2.282234 1_555
O42 Zr0 2.296302 1_555
O43 Zr0 2.318003 1_545
O46 Zr1 2.337264 1_555
O47 Zr0 2.379146 1_555
O49 Zr2 2.282234 1_555
O50 Zr1 2.318003 1_545
O52 Zr3 2.325048 1_655
O53 Zr3 2.315077 1_655
O54 Zr2 2.337264 1_555
O55 Zr2 2.379146 1_555
O56 Zr0 2.296203 1_555
O57 Zr3 2.297457 1_565
O58 Zr3 2.434847 1_655
O59 Zr0 2.325048 1_555
