# generated using pymatgen
data_MgCO3
_symmetry_space_group_name_H-M   'P 1'
_cell_length_a   5.16286057
_cell_length_b   5.16286057
_cell_length_c   3.64681400
_cell_angle_alpha   90.00000000
_cell_angle_beta   90.00000000
_cell_angle_gamma   110.97251163
_symmetry_Int_Tables_number   1
_chemical_formula_structural   MgCO3
_chemical_formula_sum   'Mg2 C2 O6'
_cell_volume   90.76659997
_cell_formula_units_Z   2
loop_
 _symmetry_equiv_pos_site_id
 _symmetry_equiv_pos_as_xyz
  1  'x, y, z'
loop_
 _atom_site_type_symbol
 _atom_site_label
 _atom_site_symmetry_multiplicity
 _atom_site_fract_x
 _atom_site_fract_y
 _atom_site_fract_z
 _atom_site_occupancy
  Mg  Mg0  1  0.21242700  0.78757300  0.75000000  1
  Mg  Mg1  1  0.78757300  0.21242700  0.25000000  1
  C  C0  1  0.65254800  0.65254800  0.00000000  1
  C  C1  1  0.34745200  0.34745200  0.50000000  1
  O  O0  1  0.65406000  0.89326800  0.85253100  1
  O  O1  1  0.41719200  0.58280800  0.25000000  1
  O  O2  1  0.34594000  0.10673200  0.35253100  1
  O  O3  1  0.10673200  0.34594000  0.64746900  1
  O  O4  1  0.58280800  0.41719200  0.75000000  1
  O  O5  1  0.89326800  0.65406000  0.14746900  1
loop_
_geom_bond_atom_site_label_1
_geom_bond_atom_site_label_2
_geom_bond_distance
_geom_bond_site_symmetry_2
Mg0 O2 2.116193 1_565
Mg0 O5 2.116193 1_456
Mg0 O3 2.178470 1_555
Mg0 O0 2.178470 1_555
Mg0 O1 2.521919 1_555
Mg0 O1 2.521919 1_556
Mg0 O5 2.684296 1_455
Mg0 O2 2.684296 1_566
Mg1 O0 2.116193 1_544
Mg1 O3 2.116193 1_655
Mg1 O2 2.178470 1_555
Mg1 O5 2.178470 1_555
Mg1 O4 2.521919 1_554
Mg1 O4 2.521919 1_555
Mg1 O3 2.684296 1_654
Mg1 O0 2.684296 1_545
C0 O5 1.351628 1_555
C0 O0 1.351628 1_554
C0 O4 1.457447 1_554
C0 O1 1.457447 1_555
C1 O3 1.351628 1_555
C1 O2 1.351628 1_555
C1 O4 1.457447 1_555
C1 O1 1.457447 1_555
