# generated using pymatgen
data_SrV2ZnO7
_symmetry_space_group_name_H-M   'P 1'
_cell_length_a   6.77283300
_cell_length_b   7.59732800
_cell_length_c   13.62432438
_cell_angle_alpha   62.37454010
_cell_angle_beta   90.00000000
_cell_angle_gamma   90.00000000
_symmetry_Int_Tables_number   1
_chemical_formula_structural   SrV2ZnO7
_chemical_formula_sum   'Sr4 V8 Zn4 O28'
_cell_volume   621.12466448
_cell_formula_units_Z   4
loop_
 _symmetry_equiv_pos_site_id
 _symmetry_equiv_pos_as_xyz
  1  'x, y, z'
loop_
 _atom_site_type_symbol
 _atom_site_label
 _atom_site_symmetry_multiplicity
 _atom_site_fract_x
 _atom_site_fract_y
 _atom_site_fract_z
 _atom_site_occupancy
  Sr  Sr0  1  0.35059300  0.76884800  0.97633800  1
  Sr  Sr1  1  0.14940700  0.76884800  0.47633800  1
  Sr  Sr2  1  0.85059300  0.23115200  0.52366200  1
  Sr  Sr3  1  0.64940700  0.23115200  0.02366200  1
  V  V0  1  0.41127800  0.30603500  0.27959800  1
  V  V1  1  0.84377100  0.78258500  0.96154000  1
  V  V2  1  0.58872200  0.69396500  0.72040200  1
  V  V3  1  0.65622900  0.78258500  0.46154000  1
  V  V4  1  0.91127800  0.69396500  0.22040200  1
  V  V5  1  0.15622900  0.21741500  0.03846000  1
  V  V6  1  0.34377100  0.21741500  0.53846000  1
  V  V7  1  0.08872200  0.30603500  0.77959800  1
  Zn  Zn0  1  0.39221600  0.78964400  0.23290200  1
  Zn  Zn1  1  0.60778400  0.21035600  0.76709800  1
  Zn  Zn2  1  0.10778400  0.78964400  0.73290200  1
  Zn  Zn3  1  0.89221600  0.21035600  0.26709800  1
  O  O0  1  0.91088200  0.22839400  0.71805100  1
  O  O1  1  0.41088200  0.77160600  0.78194900  1
  O  O2  1  0.30242400  0.16987200  0.80581000  1
  O  O3  1  0.97149400  0.20245300  0.12897400  1
  O  O4  1  0.17605300  0.01772200  0.58000500  1
  O  O5  1  0.86896400  0.44112600  0.30058300  1
  O  O6  1  0.19757600  0.16987200  0.30581000  1
  O  O7  1  0.69757600  0.83012800  0.19419000  1
  O  O8  1  0.49325100  0.25249000  0.41979400  1
  O  O9  1  0.13103600  0.55887400  0.69941700  1
  O  O10  1  0.08911800  0.77160600  0.28194900  1
  O  O11  1  0.67605300  0.98227800  0.91999500  1
  O  O12  1  0.52850600  0.20245300  0.62897400  1
  O  O13  1  0.32394700  0.01772200  0.08000500  1
  O  O14  1  0.00674900  0.25249000  0.91979400  1
  O  O15  1  0.69603800  0.58487900  0.99441900  1
  O  O16  1  0.99325100  0.74751000  0.08020600  1
  O  O17  1  0.80242400  0.83012800  0.69419000  1
  O  O18  1  0.80396200  0.58487900  0.49441900  1
  O  O19  1  0.63103600  0.44112600  0.80058300  1
  O  O20  1  0.02850600  0.79754700  0.87102600  1
  O  O21  1  0.47149400  0.79754700  0.37102600  1
  O  O22  1  0.36896400  0.55887400  0.19941700  1
  O  O23  1  0.30396200  0.41512100  0.00558100  1
  O  O24  1  0.19603800  0.41512100  0.50558100  1
  O  O25  1  0.50674900  0.74751000  0.58020600  1
  O  O26  1  0.58911800  0.22839400  0.21805100  1
  O  O27  1  0.82394700  0.98227800  0.41999500  1
loop_
_geom_bond_atom_site_label_1
_geom_bond_atom_site_label_2
_geom_bond_distance
_geom_bond_site_symmetry_2
O0 V7 1.720628 1_655
O0 Zn1 2.143481 1_555
O0 Sr2 2.670174 1_555
O1 V2 1.720628 1_555
O1 Zn2 2.143481 1_555
O1 Sr0 2.670174 1_555
O2 V7 1.717540 1_555
O2 Zn1 2.121224 1_555
O2 Sr0 2.867450 1_545
O3 V5 1.723118 1_655
O3 Zn3 1.984448 1_555
O3 Sr3 2.564132 1_555
O4 V6 1.765229 1_555
O4 Zn2 2.051401 1_545
O4 Sr2 2.631173 1_455
O4 Sr1 2.842367 1_545
O5 V4 1.737621 1_555
O5 Zn3 2.012094 1_555
O5 Sr2 2.702092 1_555
O6 V0 1.717540 1_555
O6 Zn3 2.121224 1_455
O6 Sr1 2.867450 1_545
O7 V4 1.717540 1_555
O7 Zn0 2.121224 1_555
O7 Sr3 2.867450 1_565
O8 V6 1.819421 1_555
O8 V0 1.844321 1_555
O8 Sr2 2.770123 1_555
O9 V7 1.737621 1_555
O9 Zn2 2.012094 1_555
O9 Sr1 2.702092 1_555
O10 V4 1.720628 1_455
O10 Zn0 2.143481 1_555
O10 Sr1 2.670174 1_555
O11 V1 1.765229 1_555
O11 Zn1 2.051401 1_565
O11 Sr0 2.631173 1_555
O11 Sr3 2.842367 1_566
O12 V6 1.723118 1_555
O12 Zn1 1.984448 1_555
O12 Sr2 2.564132 1_555
O13 V5 1.765229 1_555
O13 Zn0 2.051401 1_545
O13 Sr3 2.631173 1_555
O13 Sr0 2.842367 1_544
O14 V5 1.819421 1_556
O14 V7 1.844321 1_555
O14 Sr3 2.770123 1_456
O15 V1 1.683431 1_555
O15 Sr3 2.547067 1_556
O15 Sr0 2.677460 1_555
O16 V1 1.819421 1_554
O16 V4 1.844321 1_555
O16 Sr0 2.770123 1_654
O17 V2 1.717540 1_555
O17 Zn2 2.121224 1_655
O17 Sr2 2.867450 1_565
O18 V3 1.683431 1_555
O18 Sr2 2.547067 1_555
O18 Sr1 2.677460 1_655
O19 V2 1.737621 1_555
O19 Zn1 2.012094 1_555
O19 Sr3 2.702092 1_556
O20 V1 1.723118 1_455
O20 Zn2 1.984448 1_555
O20 Sr0 2.564132 1_555
O21 V3 1.723118 1_555
O21 Zn0 1.984448 1_555
O21 Sr1 2.564132 1_555
O22 V0 1.737621 1_555
O22 Zn0 2.012094 1_555
O22 Sr0 2.702092 1_554
O23 V5 1.683431 1_555
O23 Sr0 2.547067 1_554
O23 Sr3 2.677460 1_555
O24 V6 1.683431 1_555
O24 Sr1 2.547067 1_555
O24 Sr2 2.677460 1_455
O25 V3 1.819421 1_555
O25 V2 1.844321 1_555
O25 Sr1 2.770123 1_555
O26 V0 1.720628 1_555
O26 Zn3 2.143481 1_555
O26 Sr3 2.670174 1_555
O27 V3 1.765229 1_555
O27 Zn3 2.051401 1_565
O27 Sr1 2.631173 1_655
O27 Sr2 2.842367 1_565
