# generated using pymatgen
data_Na3LaV2O8
_symmetry_space_group_name_H-M   'P 1'
_cell_length_a   5.71183600
_cell_length_b   14.31106400
_cell_length_c   20.00066400
_cell_angle_alpha   90.00000000
_cell_angle_beta   90.00000000
_cell_angle_gamma   90.00000000
_symmetry_Int_Tables_number   1
_chemical_formula_structural   Na3LaV2O8
_chemical_formula_sum   'Na24 La8 V16 O64'
_cell_volume   1634.90328806
_cell_formula_units_Z   8
loop_
 _symmetry_equiv_pos_site_id
 _symmetry_equiv_pos_as_xyz
  1  'x, y, z'
loop_
 _atom_site_type_symbol
 _atom_site_label
 _atom_site_symmetry_multiplicity
 _atom_site_fract_x
 _atom_site_fract_y
 _atom_site_fract_z
 _atom_site_occupancy
  Na  Na0  1  0.97391600  0.78427100  0.08001700  1
  Na  Na1  1  0.45557200  0.53233600  0.18512000  1
  Na  Na2  1  0.54799700  0.70328100  0.33791700  1
  Na  Na3  1  0.02608400  0.28427100  0.08001700  1
  Na  Na4  1  0.54442800  0.03233600  0.18512000  1
  Na  Na5  1  0.54799700  0.79671900  0.83791700  1
  Na  Na6  1  0.98305700  0.36447400  0.74913400  1
  Na  Na7  1  0.51037100  0.61460500  0.52014800  1
  Na  Na8  1  0.03543900  0.95318000  0.92971600  1
  Na  Na9  1  0.96456100  0.04682000  0.42971600  1
  Na  Na10  1  0.45200300  0.29671900  0.83791700  1
  Na  Na11  1  0.51037100  0.88539500  0.02014800  1
  Na  Na12  1  0.45200300  0.20328100  0.33791700  1
  Na  Na13  1  0.48962900  0.11460500  0.52014800  1
  Na  Na14  1  0.03543900  0.54682000  0.42971600  1
  Na  Na15  1  0.45557200  0.96766400  0.68512000  1
  Na  Na16  1  0.96456100  0.45318000  0.92971600  1
  Na  Na17  1  0.54442800  0.46766400  0.68512000  1
  Na  Na18  1  0.01694300  0.63552600  0.24913400  1
  Na  Na19  1  0.02608400  0.21572900  0.58001700  1
  Na  Na20  1  0.01694300  0.86447400  0.74913400  1
  Na  Na21  1  0.97391600  0.71572900  0.58001700  1
  Na  Na22  1  0.48962900  0.38539500  0.02014800  1
  Na  Na23  1  0.98305700  0.13552600  0.24913400  1
  La  La0  1  0.92520500  0.38831400  0.26912100  1
  La  La1  1  0.07479500  0.61168600  0.76912100  1
  La  La2  1  0.56361200  0.13824800  0.00164800  1
  La  La3  1  0.43638800  0.63824800  0.00164800  1
  La  La4  1  0.56361200  0.36175200  0.50164800  1
  La  La5  1  0.07479500  0.88831400  0.26912100  1
  La  La6  1  0.43638800  0.86175200  0.50164800  1
  La  La7  1  0.92520500  0.11168600  0.76912100  1
  V  V0  1  0.47446200  0.02256400  0.84943300  1
  V  V1  1  0.01536800  0.22724400  0.92073100  1
  V  V2  1  0.96290900  0.52604100  0.09352100  1
  V  V3  1  0.03709100  0.02604100  0.09352100  1
  V  V4  1  0.01536800  0.27275600  0.42073100  1
  V  V5  1  0.52553800  0.52256400  0.84943300  1
  V  V6  1  0.54577700  0.72488400  0.67690400  1
  V  V7  1  0.98463200  0.77275600  0.42073100  1
  V  V8  1  0.52553800  0.97743600  0.34943300  1
  V  V9  1  0.98463200  0.72724400  0.92073100  1
  V  V10  1  0.96290900  0.97395900  0.59352100  1
  V  V11  1  0.03709100  0.47395900  0.59352100  1
  V  V12  1  0.45422300  0.27511600  0.17690400  1
  V  V13  1  0.45422300  0.22488400  0.67690400  1
  V  V14  1  0.54577700  0.77511600  0.17690400  1
  V  V15  1  0.47446200  0.47743600  0.34943300  1
  O  O0  1  0.30352400  0.03703900  0.30779800  1
  O  O1  1  0.53158800  0.75269400  0.09099900  1
  O  O2  1  0.79629500  0.00379500  0.31336300  1
  O  O3  1  0.54475500  0.36091900  0.34117700  1
  O  O4  1  0.60033400  0.12022400  0.69304000  1
  O  O5  1  0.46841200  0.25269400  0.09099900  1
  O  O6  1  0.98412300  0.00231800  0.17805800  1
  O  O7  1  0.10592200  0.63088300  0.07567700  1
  O  O8  1  0.54475500  0.13908100  0.84117700  1
  O  O9  1  0.90948800  0.94105100  0.04419900  1
  O  O10  1  0.46841200  0.24730600  0.59099900  1
  O  O11  1  0.01587700  0.50231800  0.17805800  1
  O  O12  1  0.15472100  0.28453900  0.19779700  1
  O  O13  1  0.46558700  0.99487100  0.93473300  1
  O  O14  1  0.28929700  0.25294500  0.95515700  1
  O  O15  1  0.33983500  0.03584300  0.07679700  1
  O  O16  1  0.09051200  0.44105100  0.04419900  1
  O  O17  1  0.30352400  0.46296100  0.80779800  1
  O  O18  1  0.01587700  0.99768200  0.67805800  1
  O  O19  1  0.28929700  0.24705500  0.45515700  1
  O  O20  1  0.94404000  0.38937600  0.42685400  1
  O  O21  1  0.84527900  0.78453900  0.19779700  1
  O  O22  1  0.79629500  0.49620500  0.81336300  1
  O  O23  1  0.98261600  0.75744800  0.83607800  1
  O  O24  1  0.66016500  0.53584300  0.07679700  1
  O  O25  1  0.79804700  0.21402100  0.46521400  1
  O  O26  1  0.09051200  0.05894900  0.54419900  1
  O  O27  1  0.53441300  0.49487100  0.93473300  1
  O  O28  1  0.71070300  0.75294500  0.95515700  1
  O  O29  1  0.45524500  0.63908100  0.84117700  1
  O  O30  1  0.60033400  0.37977600  0.19304000  1
  O  O31  1  0.20195300  0.78597900  0.96521400  1
  O  O32  1  0.05596000  0.61062400  0.92685400  1
  O  O33  1  0.05596000  0.88937600  0.42685400  1
  O  O34  1  0.33983500  0.46415700  0.57679700  1
  O  O35  1  0.53441300  0.00512900  0.43473300  1
  O  O36  1  0.89407800  0.36911700  0.57567700  1
  O  O37  1  0.98261600  0.74255200  0.33607800  1
  O  O38  1  0.20370500  0.50379500  0.31336300  1
  O  O39  1  0.66016500  0.96415700  0.57679700  1
  O  O40  1  0.58659800  0.31099500  0.72384800  1
  O  O41  1  0.69647600  0.96296100  0.80779800  1
  O  O42  1  0.39966600  0.87977600  0.19304000  1
  O  O43  1  0.46558700  0.50512900  0.43473300  1
  O  O44  1  0.79804700  0.28597900  0.96521400  1
  O  O45  1  0.53158800  0.74730600  0.59099900  1
  O  O46  1  0.89407800  0.13088300  0.07567700  1
  O  O47  1  0.45524500  0.86091900  0.34117700  1
  O  O48  1  0.20370500  0.99620500  0.81336300  1
  O  O49  1  0.90948800  0.55894900  0.54419900  1
  O  O50  1  0.01738400  0.24255200  0.33607800  1
  O  O51  1  0.41340200  0.81099500  0.72384800  1
  O  O52  1  0.58659800  0.18900500  0.22384800  1
  O  O53  1  0.69647600  0.53703900  0.30779800  1
  O  O54  1  0.41340200  0.68900500  0.22384800  1
  O  O55  1  0.20195300  0.71402100  0.46521400  1
  O  O56  1  0.94404000  0.11062400  0.92685400  1
  O  O57  1  0.98412300  0.49768200  0.67805800  1
  O  O58  1  0.15472100  0.21546100  0.69779700  1
  O  O59  1  0.39966600  0.62022400  0.69304000  1
  O  O60  1  0.01738400  0.25744800  0.83607800  1
  O  O61  1  0.71070300  0.74705500  0.45515700  1
  O  O62  1  0.10592200  0.86911700  0.57567700  1
  O  O63  1  0.84527900  0.71546100  0.69779700  1
loop_
_geom_bond_atom_site_label_1
_geom_bond_atom_site_label_2
_geom_bond_distance
_geom_bond_site_symmetry_2
Na0 O7 2.322651 1_655
Na0 O9 2.383856 1_555
Na0 O21 2.467610 1_555
Na0 O1 2.575983 1_555
Na0 O31 2.639957 1_654
Na0 O28 2.949187 1_554
Na1 O30 2.339993 1_555
Na1 O54 2.384327 1_555
Na1 O24 2.462115 1_555
Na1 O11 2.551854 1_555
Na1 O53 2.813943 1_555
Na1 O38 2.969076 1_555
Na2 O47 2.318256 1_555
Na2 O54 2.416156 1_555
Na2 O37 2.545560 1_555
Na2 O53 2.596585 1_555
Na2 O61 2.598959 1_555
Na3 O46 2.322651 1_455
Na3 O16 2.383856 1_555
Na3 O12 2.467610 1_555
Na3 O5 2.575983 1_555
Na3 O44 2.639957 1_454
Na3 O14 2.949187 1_554
Na4 O42 2.339993 1_545
Na4 O52 2.384327 1_555
Na4 O15 2.462115 1_555
Na4 O6 2.551854 1_555
Na4 O0 2.813943 1_555
Na4 O2 2.969076 1_555
Na5 O29 2.318256 1_555
Na5 O51 2.416156 1_555
Na5 O23 2.545560 1_555
Na5 O41 2.596585 1_555
Na5 O28 2.598959 1_555
Na6 O60 2.325579 1_655
Na6 O57 2.378036 1_555
Na6 O40 2.443260 1_555
Na6 O22 2.518380 1_555
Na6 O58 2.561910 1_655
Na6 O17 2.591101 1_655
Na7 O43 2.332064 1_555
Na7 O45 2.372618 1_555
Na7 O49 2.462274 1_555
Na7 O55 2.516891 1_555
Na7 O61 2.567471 1_555
Na7 O34 2.620737 1_555
Na8 O56 2.313588 1_465
Na8 O9 2.406361 1_456
Na8 O13 2.530332 1_555
Na8 O48 2.591992 1_555
Na8 O31 2.671007 1_555
Na9 O33 2.313588 1_645
Na9 O26 2.406361 1_655
Na9 O35 2.530332 1_555
Na9 O2 2.591992 1_555
Na9 O25 2.671007 1_555
Na10 O8 2.318256 1_555
Na10 O40 2.416156 1_555
Na10 O60 2.545560 1_555
Na10 O17 2.596585 1_555
Na10 O14 2.598959 1_555
Na11 O13 2.332064 1_554
Na11 O1 2.372618 1_555
Na11 O9 2.462274 1_555
Na11 O31 2.516891 1_554
Na11 O28 2.567471 1_554
Na11 O15 2.620737 1_565
Na12 O3 2.318256 1_555
Na12 O52 2.416156 1_555
Na12 O50 2.545560 1_555
Na12 O0 2.596585 1_555
Na12 O19 2.598959 1_555
Na13 O35 2.332064 1_555
Na13 O10 2.372618 1_555
Na13 O26 2.462274 1_555
Na13 O25 2.516891 1_555
Na13 O19 2.567471 1_555
Na13 O39 2.620737 1_545
Na14 O20 2.313588 1_455
Na14 O49 2.406361 1_455
Na14 O43 2.530332 1_555
Na14 O38 2.591992 1_555
Na14 O55 2.671007 1_555
Na15 O4 2.339993 1_565
Na15 O51 2.384327 1_555
Na15 O39 2.462115 1_555
Na15 O18 2.551854 1_555
Na15 O41 2.813943 1_555
Na15 O48 2.969076 1_555
Na16 O32 2.313588 1_655
Na16 O16 2.406361 1_656
Na16 O27 2.530332 1_555
Na16 O22 2.591992 1_555
Na16 O44 2.671007 1_555
Na17 O59 2.339993 1_555
Na17 O40 2.384327 1_555
Na17 O34 2.462115 1_555
Na17 O57 2.551854 1_555
Na17 O17 2.813943 1_555
Na17 O22 2.969076 1_555
Na18 O37 2.325579 1_455
Na18 O11 2.378036 1_555
Na18 O54 2.443260 1_555
Na18 O38 2.518380 1_555
Na18 O21 2.561910 1_455
Na18 O53 2.591101 1_455
Na19 O36 2.322651 1_455
Na19 O26 2.383856 1_555
Na19 O58 2.467610 1_555
Na19 O10 2.575983 1_555
Na19 O25 2.639957 1_455
Na19 O19 2.949187 1_555
Na20 O23 2.325579 1_455
Na20 O18 2.378036 1_555
Na20 O51 2.443260 1_555
Na20 O48 2.518380 1_555
Na20 O63 2.561910 1_455
Na20 O41 2.591101 1_455
Na21 O62 2.322651 1_655
Na21 O49 2.383856 1_555
Na21 O63 2.467610 1_555
Na21 O45 2.575983 1_555
Na21 O55 2.639957 1_655
Na21 O61 2.949187 1_555
Na22 O27 2.332064 1_554
Na22 O5 2.372618 1_555
Na22 O16 2.462274 1_555
Na22 O44 2.516891 1_554
Na22 O14 2.567471 1_554
Na22 O24 2.620737 1_555
Na23 O50 2.325579 1_655
Na23 O6 2.378036 1_555
Na23 O52 2.443260 1_555
Na23 O2 2.518380 1_555
Na23 O12 2.561910 1_655
Na23 O0 2.591101 1_655
La0 O30 2.402852 1_555
La0 O12 2.441148 1_655
La0 O38 2.458605 1_655
La0 O11 2.499457 1_655
La0 O50 2.534179 1_655
La0 O53 2.614458 1_555
La0 O3 2.636834 1_555
La1 O59 2.402852 1_555
La1 O63 2.441148 1_455
La1 O22 2.458605 1_455
La1 O57 2.499457 1_455
La1 O23 2.534179 1_455
La1 O17 2.614458 1_555
La1 O29 2.636834 1_555
La2 O46 2.401309 1_555
La2 O14 2.452332 1_554
La2 O15 2.457763 1_555
La2 O5 2.484324 1_555
La2 O13 2.512938 1_544
La2 O44 2.606505 1_554
La2 O56 2.667540 1_554
La3 O7 2.401309 1_555
La3 O28 2.452332 1_554
La3 O24 2.457763 1_555
La3 O1 2.484324 1_555
La3 O27 2.512938 1_554
La3 O31 2.606505 1_554
La3 O32 2.667540 1_554
La4 O36 2.401309 1_555
La4 O19 2.452332 1_555
La4 O34 2.457763 1_555
La4 O10 2.484324 1_555
La4 O43 2.512938 1_555
La4 O25 2.606505 1_555
La4 O20 2.667540 1_555
La5 O42 2.402852 1_555
La5 O21 2.441148 1_455
La5 O2 2.458605 1_465
La5 O6 2.499457 1_465
La5 O37 2.534179 1_455
La5 O0 2.614458 1_565
La5 O47 2.636834 1_555
La6 O62 2.401309 1_555
La6 O61 2.452332 1_555
La6 O39 2.457763 1_555
La6 O45 2.484324 1_555
La6 O35 2.512938 1_565
La6 O55 2.606505 1_555
La6 O33 2.667540 1_555
La7 O4 2.402852 1_555
La7 O58 2.441148 1_655
La7 O48 2.458605 1_645
La7 O18 2.499457 1_645
La7 O60 2.534179 1_655
La7 O41 2.614458 1_545
La7 O8 2.636834 1_555
O0 V8 1.740434 1_545
O1 V14 1.749742 1_555
O2 V8 1.747705 1_545
O3 V15 1.723069 1_555
O4 V13 1.744718 1_555
O5 V12 1.749742 1_555
O6 V3 1.750881 1_655
O7 V2 1.745235 1_455
O8 V0 1.723069 1_555
O9 V3 1.727347 1_665
O10 V13 1.749742 1_555
O11 V2 1.750881 1_455
O12 V12 1.766160 1_555
O13 V0 1.752217 1_565
O14 V1 1.748561 1_555
O15 V3 1.766855 1_555
O16 V2 1.727347 1_455
O17 V5 1.740434 1_555
O18 V10 1.750881 1_455
O19 V4 1.748561 1_555
O20 V4 1.722324 1_655
O21 V14 1.766160 1_555
O22 V5 1.747705 1_555
O23 V9 1.747460 1_555
O24 V2 1.766855 1_555
O25 V4 1.743250 1_655
O26 V10 1.727347 1_445
O27 V5 1.752217 1_555
O28 V9 1.748561 1_555
O29 V5 1.723069 1_555
O30 V12 1.744718 1_555
O31 V9 1.743250 1_455
O32 V9 1.722324 1_455
O33 V7 1.722324 1_455
O34 V11 1.766855 1_555
O35 V8 1.752217 1_545
O36 V11 1.745235 1_655
O37 V7 1.747460 1_555
O38 V15 1.747705 1_555
O39 V10 1.766855 1_555
O40 V13 1.723923 1_555
O41 V0 1.740434 1_565
O42 V14 1.744718 1_555
O43 V15 1.752217 1_555
O44 V1 1.743250 1_655
O45 V6 1.749742 1_555
O46 V3 1.745235 1_655
O47 V8 1.723069 1_555
O48 V0 1.747705 1_565
O49 V11 1.727347 1_655
O50 V4 1.747460 1_555
O51 V6 1.723923 1_555
O52 V12 1.723923 1_555
O53 V15 1.740434 1_555
O54 V14 1.723923 1_555
O55 V7 1.743250 1_455
O56 V1 1.722324 1_655
O57 V11 1.750881 1_655
O58 V13 1.766160 1_555
O59 V6 1.744718 1_555
O60 V1 1.747460 1_555
O61 V7 1.748561 1_555
O62 V10 1.745235 1_455
O63 V6 1.766160 1_555
