# generated using pymatgen
data_La17Mn18O54
_symmetry_space_group_name_H-M   'P 1'
_cell_length_a   9.69194000
_cell_length_b   9.72189091
_cell_length_c   12.40180624
_cell_angle_alpha   82.56483296
_cell_angle_beta   74.10859442
_cell_angle_gamma   80.50653598
_symmetry_Int_Tables_number   1
_chemical_formula_structural   La17Mn18O54
_chemical_formula_sum   'La17 Mn18 O54'
_cell_volume   1104.11643024
_cell_formula_units_Z   1
loop_
 _symmetry_equiv_pos_site_id
 _symmetry_equiv_pos_as_xyz
  1  'x, y, z'
loop_
 _atom_site_type_symbol
 _atom_site_label
 _atom_site_symmetry_multiplicity
 _atom_site_fract_x
 _atom_site_fract_y
 _atom_site_fract_z
 _atom_site_occupancy
  La  La0  1  0.86081000  0.22050800  0.80591100  1
  La  La1  1  0.30330000  0.11079300  0.02791900  1
  La  La2  1  0.37444300  0.21574500  0.30167900  1
  La  La3  1  0.53009100  0.55592900  0.14167300  1
  La  La4  1  0.80725100  0.10622100  0.51736900  1
  La  La5  1  0.97472500  0.44378500  0.36059400  1
  La  La6  1  0.24994500  0.99956800  0.74927500  1
  La  La7  1  0.41830000  0.33371700  0.58132200  1
  La  La8  1  0.02815800  0.55650800  0.63847400  1
  La  La9  1  0.19329600  0.89061000  0.46936400  1
  La  La10  1  0.47131100  0.44405600  0.86208400  1
  La  La11  1  0.63885400  0.77908500  0.69439100  1
  La  La12  1  0.90844800  0.32417500  0.09015500  1
  La  La13  1  0.08067900  0.66662000  0.91822200  1
  La  La14  1  0.69335800  0.89136700  0.98312100  1
  La  La15  1  0.12811100  0.78494200  0.19763600  1
  La  La16  1  0.58983300  0.67604700  0.40994000  1
  Mn  Mn0  1  0.99792600  0.99994200  0.00184000  1
  Mn  Mn1  1  0.66623300  0.33239100  0.33337300  1
  Mn  Mn2  1  0.11058700  0.22242900  0.55464500  1
  Mn  Mn3  1  0.55639200  0.11090700  0.77796100  1
  Mn  Mn4  1  0.33392600  0.66677500  0.66644700  1
  Mn  Mn5  1  0.61276800  0.22231800  0.05612600  1
  Mn  Mn6  1  0.77795600  0.55520300  0.88825500  1
  Mn  Mn7  1  0.05668900  0.11036000  0.27701300  1
  Mn  Mn8  1  0.22155700  0.44472400  0.11163100  1
  Mn  Mn9  1  0.50140700  0.00004300  0.49836100  1
  Mn  Mn10  1  0.27632500  0.55597800  0.38916500  1
  Mn  Mn11  1  0.44639900  0.88833300  0.22295400  1
  Mn  Mn12  1  0.72229600  0.44393500  0.60967200  1
  Mn  Mn13  1  0.88791100  0.77934700  0.44415200  1
  Mn  Mn14  1  0.16610100  0.33354600  0.83334100  1
  Mn  Mn15  1  0.94329200  0.88891900  0.72299100  1
  Mn  Mn16  1  0.38879800  0.77729000  0.94557300  1
  Mn  Mn17  1  0.83373000  0.66761700  0.16662300  1
  O  O0  1  0.31701400  0.14121500  0.53698900  1
  O  O1  1  0.05791900  0.04726200  0.65257800  1
  O  O2  1  0.76546700  0.02984000  0.75620800  1
  O  O3  1  0.12161900  0.31465300  0.68669600  1
  O  O4  1  0.05663100  0.17483400  0.90020200  1
  O  O5  1  0.79564900  0.09165900  0.00586200  1
  O  O6  1  0.56739900  0.20438500  0.90814500  1
  O  O7  1  0.98811000  0.47420200  0.86575100  1
  O  O8  1  0.49788700  0.06363800  0.12330200  1
  O  O9  1  0.72490000  0.38166700  0.98325200  1
  O  O10  1  0.64447500  0.26479500  0.19723100  1
  O  O11  1  0.03370500  0.09469900  0.12551100  1
  O  O12  1  0.42938100  0.36652600  0.08796200  1
  O  O13  1  0.79309600  0.64528500  0.02000900  1
  O  O14  1  0.17444000  0.27244700  0.21094500  1
  O  O15  1  0.72421600  0.50693300  0.23724200  1
  O  O16  1  0.10088300  0.13234900  0.42234900  1
  O  O17  1  0.45404800  0.41907200  0.35393900  1
  O  O18  1  0.87984400  0.25099400  0.31347100  1
  O  O19  1  0.23122900  0.54233300  0.24237600  1
  O  O20  1  0.64411200  0.78841200  0.19733100  1
  O  O21  1  0.59918600  0.17390300  0.44138800  1
  O  O22  1  0.16404400  0.39799300  0.45913300  1
  O  O23  1  0.38645100  0.71548000  0.32218800  1
  O  O24  1  0.53957200  0.01976300  0.64895300  1
  O  O25  1  0.90104800  0.29941900  0.57188700  1
  O  O26  1  0.31752300  0.57432000  0.53615300  1
  O  O27  1  0.67946200  0.43183800  0.46364500  1
  O  O28  1  0.09635500  0.69292300  0.42708400  1
  O  O29  1  0.43983400  0.97383100  0.36117100  1
  O  O30  1  0.60760100  0.28846800  0.67963700  1
  O  O31  1  0.83756500  0.59905700  0.54193700  1
  O  O32  1  0.38494000  0.84061300  0.57145000  1
  O  O33  1  0.34533300  0.19229000  0.79839200  1
  O  O34  1  0.76536500  0.46215700  0.75496000  1
  O  O35  1  0.12312700  0.74786100  0.68875300  1
  O  O36  1  0.54277300  0.58547300  0.64722100  1
  O  O37  1  0.89950300  0.86686900  0.57934300  1
  O  O38  1  0.28058700  0.49206500  0.76462300  1
  O  O39  1  0.83145600  0.72825200  0.79136200  1
  O  O40  1  0.21073600  0.35241600  0.97927100  1
  O  O41  1  0.56693600  0.63518200  0.91148400  1
  O  O42  1  0.98790800  0.90900500  0.86643600  1
  O  O43  1  0.34836600  0.75917700  0.79828400  1
  O  O44  1  0.27338500  0.61662200  0.01234500  1
  O  O45  1  0.50475200  0.93615700  0.87829800  1
  O  O46  1  0.01246300  0.51752500  0.13389400  1
  O  O47  1  0.42786500  0.79714400  0.09149600  1
  O  O48  1  0.21028800  0.91769500  0.97666100  1
  O  O49  1  0.95554300  0.81144200  0.08624400  1
  O  O50  1  0.87808600  0.68427300  0.31270500  1
  O  O51  1  0.23703100  0.97357100  0.23959600  1
  O  O52  1  0.96260100  0.94738700  0.35650600  1
  O  O53  1  0.67908700  0.85289700  0.48089900  1
loop_
_geom_bond_atom_site_label_1
_geom_bond_atom_site_label_2
_geom_bond_distance
_geom_bond_site_symmetry_2
La0 O2 2.417136 1_555
La0 O4 2.443274 1_655
La0 O34 2.448094 1_555
La0 O5 2.591635 1_556
La0 O9 2.766139 1_555
La0 O3 2.789168 1_655
La0 O6 2.799995 1_555
La0 O1 2.807228 1_655
La0 O25 2.840192 1_555
La1 O40 2.433360 1_554
La1 O48 2.433482 1_544
La1 O8 2.441791 1_555
La1 O11 2.582749 1_555
La1 O51 2.745303 1_545
La1 O33 2.790031 1_554
La1 O45 2.806347 1_544
La1 O14 2.811621 1_555
La1 O6 2.814674 1_554
La2 O29 2.406776 1_545
La2 O14 2.451335 1_555
La2 O17 2.455858 1_555
La2 O8 2.706584 1_555
La2 O12 2.817163 1_555
La3 O15 2.439456 1_555
La3 O12 2.460365 1_555
La3 O47 2.462057 1_555
La3 O17 2.756426 1_555
La3 O13 2.795320 1_555
La3 O23 2.799211 1_555
La3 O19 2.840732 1_555
La4 O21 2.414502 1_555
La4 O37 2.456016 1_545
La4 O25 2.457619 1_555
La4 O52 2.648927 1_545
La4 O18 2.702139 1_555
La4 O16 2.806525 1_655
La4 O24 2.854109 1_555
La4 O2 2.891730 1_555
La4 O30 2.931321 1_555
La4 O53 3.068866 1_545
La4 O1 3.250450 1_655
La4 O27 3.257558 1_555
La5 O18 2.417950 1_555
La5 O22 2.424061 1_655
La5 O50 2.432925 1_555
La5 O46 2.748437 1_655
La5 O19 2.770172 1_655
La5 O31 2.771864 1_555
La5 O25 2.774954 1_555
La5 O14 2.781181 1_655
La5 O27 2.811473 1_555
La6 O1 2.431151 1_565
La6 O33 2.431329 1_565
La6 O43 2.440420 1_555
La6 O32 2.756522 1_555
La6 O48 2.767688 1_555
La6 O0 2.769465 1_565
La6 O24 2.769844 1_565
La6 O42 2.778830 1_455
La6 O4 2.787296 1_565
La7 O30 2.422039 1_555
La7 O0 2.436450 1_555
La7 O26 2.438466 1_555
La7 O21 2.575338 1_555
La7 O17 2.777584 1_555
La7 O27 2.803547 1_555
La7 O38 2.808094 1_555
La7 O33 2.820988 1_555
La7 O3 2.839975 1_555
La8 O31 2.418174 1_455
La8 O35 2.424074 1_555
La8 O3 2.436570 1_555
La8 O28 2.740253 1_555
La8 O7 2.766821 1_455
La8 O26 2.767659 1_555
La8 O22 2.769420 1_555
La8 O39 2.794139 1_455
La8 O34 2.797887 1_455
La9 O16 2.429489 1_565
La9 O28 2.444914 1_555
La9 O32 2.473822 1_555
La9 O29 2.601029 1_555
La9 O23 2.759814 1_555
La9 O51 2.794021 1_555
La9 O1 2.794197 1_565
La9 O37 2.833709 1_455
La9 O35 2.848175 1_555
La9 O52 2.893020 1_455
La9 O0 3.181220 1_565
La9 O26 3.202600 1_555
La10 O6 2.419464 1_555
La10 O41 2.420840 1_555
La10 O38 2.426648 1_555
La10 O12 2.740745 1_556
La10 O40 2.771468 1_555
La10 O30 2.782522 1_555
La10 O44 2.785128 1_556
La10 O36 2.797449 1_555
La10 O34 2.819515 1_555
La11 O36 2.431836 1_555
La11 O24 2.435430 1_565
La11 O39 2.438501 1_555
La11 O53 2.590834 1_555
La11 O37 2.750986 1_555
La11 O43 2.784365 1_555
La11 O45 2.801136 1_555
La11 O41 2.830359 1_555
La11 O31 2.845615 1_555
La12 O11 2.405838 1_655
La12 O9 2.450826 1_554
La12 O46 2.456085 1_655
La12 O18 2.718073 1_555
La13 O44 2.415519 1_556
La13 O7 2.432317 1_455
La13 O42 2.449359 1_455
La13 O49 2.570483 1_456
La13 O13 2.757055 1_456
La13 O35 2.788570 1_555
La13 O38 2.827235 1_555
La13 O46 2.834885 1_556
La13 O43 2.839630 1_555
La14 O5 2.405435 1_566
La14 O13 2.462369 1_556
La14 O45 2.472510 1_555
La14 O20 2.657471 1_556
La14 O8 2.705492 1_566
La14 O47 2.798495 1_556
La14 O42 2.847472 1_555
La14 O2 2.910825 1_565
La14 O39 2.914540 1_555
La14 O49 3.093163 1_556
La14 O6 3.206146 1_565
La14 O41 3.266368 1_555
La15 O49 2.408981 1_455
La15 O51 2.436086 1_555
La15 O19 2.461132 1_555
La15 O50 2.719094 1_455
La16 O53 2.403720 1_555
La16 O23 2.456490 1_555
La16 O27 2.462149 1_555
La16 O20 2.665886 1_555
La16 O50 2.733004 1_555
La16 O15 2.768383 1_555
La16 O32 2.849258 1_555
La16 O36 2.893060 1_555
La16 O26 2.931151 1_555
La16 O29 3.082283 1_555
La16 O31 3.201145 1_555
La16 O17 3.238797 1_555
Mn0 O5 2.005558 1_565
Mn0 O11 2.020784 1_665
Mn0 O42 2.027991 1_554
Mn0 O49 2.034493 1_555
Mn0 O48 2.035394 1_654
Mn0 O4 2.043334 1_664
Mn1 O10 1.963391 1_555
Mn1 O21 1.977423 1_555
Mn1 O15 2.010131 1_555
Mn1 O27 2.029764 1_555
Mn1 O17 2.049646 1_555
Mn1 O18 2.050263 1_555
Mn2 O16 1.987775 1_555
Mn2 O0 1.989426 1_555
Mn2 O3 2.001200 1_555
Mn2 O22 2.004273 1_555
Mn2 O25 2.008097 1_455
Mn2 O1 2.011884 1_555
Mn3 O24 1.982147 1_555
Mn3 O6 1.987453 1_555
Mn3 O2 2.007196 1_555
Mn3 O45 2.019277 1_545
Mn3 O33 2.026998 1_555
Mn3 O30 2.029662 1_555
Mn4 O32 1.982424 1_555
Mn4 O26 2.001991 1_555
Mn4 O36 2.008838 1_555
Mn4 O38 2.011061 1_555
Mn4 O43 2.011657 1_555
Mn4 O35 2.021799 1_555
Mn5 O10 1.962321 1_555
Mn5 O5 2.000235 1_555
Mn5 O8 2.009874 1_555
Mn5 O9 2.013196 1_554
Mn5 O6 2.035151 1_554
Mn5 O12 2.053646 1_555
Mn6 O9 1.984619 1_555
Mn6 O39 1.991607 1_555
Mn6 O13 2.000615 1_556
Mn6 O7 2.015704 1_555
Mn6 O41 2.020181 1_555
Mn6 O34 2.024796 1_555
Mn7 O52 1.973280 1_445
Mn7 O11 1.979266 1_555
Mn7 O18 1.993497 1_455
Mn7 O51 1.996910 1_545
Mn7 O16 2.007641 1_555
Mn7 O14 2.050336 1_555
Mn8 O14 1.985219 1_555
Mn8 O12 1.987470 1_555
Mn8 O46 1.988718 1_555
Mn8 O44 1.991716 1_555
Mn8 O40 2.004357 1_554
Mn8 O19 2.012279 1_555
Mn9 O29 2.008542 1_545
Mn9 O21 2.026539 1_555
Mn9 O53 2.030311 1_545
Mn9 O32 2.037493 1_545
Mn9 O24 2.038608 1_555
Mn9 O0 2.049191 1_555
Mn10 O17 1.977739 1_555
Mn10 O23 1.990177 1_555
Mn10 O28 1.995724 1_555
Mn10 O22 1.996374 1_555
Mn10 O26 2.005112 1_555
Mn10 O19 2.009978 1_555
Mn11 O20 1.961870 1_555
Mn11 O29 1.981110 1_555
Mn11 O47 2.015714 1_555
Mn11 O23 2.017757 1_555
Mn11 O8 2.019578 1_565
Mn11 O51 2.026600 1_555
Mn12 O31 1.985451 1_555
Mn12 O27 1.987169 1_555
Mn12 O30 1.989877 1_555
Mn12 O34 1.992767 1_555
Mn12 O36 2.017419 1_555
Mn12 O25 2.029239 1_555
Mn13 O52 1.968251 1_555
Mn13 O53 1.979150 1_555
Mn13 O50 2.006213 1_555
Mn13 O37 2.012847 1_555
Mn13 O28 2.020888 1_655
Mn13 O31 2.046675 1_555
Mn14 O4 1.980186 1_555
Mn14 O7 1.997933 1_455
Mn14 O40 2.009232 1_555
Mn14 O38 2.009677 1_555
Mn14 O33 2.011492 1_555
Mn14 O3 2.017196 1_555
Mn15 O42 1.982146 1_555
Mn15 O37 1.985620 1_555
Mn15 O2 1.998843 1_565
Mn15 O39 2.011475 1_555
Mn15 O1 2.012829 1_665
Mn15 O35 2.013885 1_655
Mn16 O47 1.986309 1_556
Mn16 O48 1.999261 1_555
Mn16 O43 2.004799 1_555
Mn16 O41 2.008199 1_555
Mn16 O45 2.017449 1_555
Mn16 O44 2.027588 1_556
Mn17 O49 1.970265 1_555
Mn17 O20 1.980424 1_555
Mn17 O15 2.004426 1_555
Mn17 O50 2.004649 1_555
Mn17 O13 2.007707 1_555
Mn17 O46 2.056486 1_655
