# generated using pymatgen
data_AgHgSBr
_symmetry_space_group_name_H-M   'P 1'
_cell_length_a   4.67754400
_cell_length_b   9.80469500
_cell_length_c   9.96308200
_cell_angle_alpha   90.00000000
_cell_angle_beta   90.00000000
_cell_angle_gamma   90.00000000
_symmetry_Int_Tables_number   1
_chemical_formula_structural   AgHgSBr
_chemical_formula_sum   'Ag4 Hg4 S4 Br4'
_cell_volume   456.92579335
_cell_formula_units_Z   4
loop_
 _symmetry_equiv_pos_site_id
 _symmetry_equiv_pos_as_xyz
  1  'x, y, z'
loop_
 _atom_site_type_symbol
 _atom_site_label
 _atom_site_symmetry_multiplicity
 _atom_site_fract_x
 _atom_site_fract_y
 _atom_site_fract_z
 _atom_site_occupancy
  Ag  Ag0  1  0.00000000  0.20932800  0.41521200  1
  Ag  Ag1  1  0.00000000  0.79067200  0.58478800  1
  Ag  Ag2  1  0.00000000  0.20932800  0.08478800  1
  Ag  Ag3  1  0.00000000  0.79067200  0.91521200  1
  Hg  Hg0  1  0.50000000  0.22930000  0.75000000  1
  Hg  Hg1  1  0.50000000  0.77070000  0.25000000  1
  Hg  Hg2  1  0.50000000  0.50000000  0.00000000  1
  Hg  Hg3  1  0.50000000  0.50000000  0.50000000  1
  S  S0  1  0.50000000  0.25425200  0.99167100  1
  S  S1  1  0.50000000  0.74574800  0.00832900  1
  S  S2  1  0.50000000  0.74574800  0.49167100  1
  S  S3  1  0.50000000  0.25425200  0.50832900  1
  Br  Br0  1  0.00000000  0.01243300  0.75000000  1
  Br  Br1  1  0.00000000  0.53521900  0.75000000  1
  Br  Br2  1  0.00000000  0.46478100  0.25000000  1
  Br  Br3  1  0.00000000  0.98756700  0.25000000  1
loop_
_geom_bond_atom_site_label_1
_geom_bond_atom_site_label_2
_geom_bond_distance
_geom_bond_site_symmetry_2
Ag0 S3 2.554320 1_455
Ag0 S3 2.554320 1_555
Ag0 Br3 2.727079 1_545
Ag0 Br2 2.997099 1_555
Ag1 S2 2.554320 1_555
Ag1 S2 2.554320 1_455
Ag1 Br0 2.727079 1_565
Ag1 Br1 2.997099 1_555
Ag2 S0 2.554320 1_454
Ag2 S0 2.554320 1_554
Ag2 Br3 2.727079 1_545
Ag2 Br2 2.997099 1_555
Ag3 S1 2.554320 1_456
Ag3 S1 2.554320 1_556
Ag3 Br0 2.727079 1_565
Ag3 Br1 2.997099 1_555
Hg0 S3 2.420185 1_555
Hg0 S0 2.420185 1_555
Hg1 S1 2.420185 1_555
Hg1 S2 2.420185 1_555
Hg2 S1 2.410913 1_555
Hg2 S0 2.410913 1_554
Hg3 S2 2.410913 1_555
Hg3 S3 2.410913 1_555
Br0 Hg0 3.160865 1_455
Br0 Hg0 3.160865 1_555
Br3 Hg1 3.160865 1_455
Br3 Hg1 3.160865 1_555
