# generated using pymatgen
data_Rb3ZnBr5
_symmetry_space_group_name_H-M   'P 1'
_cell_length_a   9.09302171
_cell_length_b   10.53288473
_cell_length_c   13.47566604
_cell_angle_alpha   90.00000000
_cell_angle_beta   90.00000000
_cell_angle_gamma   90.00000000
_symmetry_Int_Tables_number   1
_chemical_formula_structural   Rb3ZnBr5
_chemical_formula_sum   'Rb12 Zn4 Br20'
_cell_volume   1290.64201525
_cell_formula_units_Z   4
loop_
 _symmetry_equiv_pos_site_id
 _symmetry_equiv_pos_as_xyz
  1  'x, y, z'
loop_
 _atom_site_type_symbol
 _atom_site_label
 _atom_site_symmetry_multiplicity
 _atom_site_fract_x
 _atom_site_fract_y
 _atom_site_fract_z
 _atom_site_occupancy
  Rb  Rb0  1  0.91164599  0.02003753  0.67122434  1
  Rb  Rb1  1  0.58835401  0.97996247  0.17122434  1
  Rb  Rb2  1  0.58835401  0.52003753  0.17122434  1
  Rb  Rb3  1  0.08835401  0.52003753  0.32877566  1
  Rb  Rb4  1  0.08835401  0.97996247  0.32877566  1
  Rb  Rb5  1  0.41164599  0.02003753  0.82877566  1
  Rb  Rb6  1  0.58727503  0.75000000  0.45428142  1
  Rb  Rb7  1  0.91272497  0.25000000  0.95428142  1
  Rb  Rb8  1  0.08727503  0.75000000  0.04571858  1
  Rb  Rb9  1  0.41272497  0.25000000  0.54571858  1
  Rb  Rb10  1  0.41164599  0.47996247  0.82877566  1
  Rb  Rb11  1  0.91164599  0.47996247  0.67122434  1
  Zn  Zn0  1  0.69052671  0.75000000  0.89155191  1
  Zn  Zn1  1  0.30947329  0.25000000  0.10844809  1
  Zn  Zn2  1  0.19052671  0.75000000  0.60844809  1
  Zn  Zn3  1  0.80947329  0.25000000  0.39155191  1
  Br  Br0  1  0.66093909  0.25000000  0.73480095  1
  Br  Br1  1  0.31459077  0.55745020  0.56442764  1
  Br  Br2  1  0.86530639  0.25000000  0.21745231  1
  Br  Br3  1  0.83906091  0.75000000  0.23480095  1
  Br  Br4  1  0.63469361  0.75000000  0.71745231  1
  Br  Br5  1  0.68540923  0.44254980  0.43557236  1
  Br  Br6  1  0.81459077  0.55745020  0.93557236  1
  Br  Br7  1  0.53570239  0.25000000  0.01302661  1
  Br  Br8  1  0.96429761  0.75000000  0.51302661  1
  Br  Br9  1  0.16093909  0.25000000  0.76519905  1
  Br  Br10  1  0.81459077  0.94254980  0.93557236  1
  Br  Br11  1  0.31459077  0.94254980  0.56442764  1
  Br  Br12  1  0.33906091  0.75000000  0.26519905  1
  Br  Br13  1  0.18540923  0.05745020  0.06442764  1
  Br  Br14  1  0.68540923  0.05745020  0.43557236  1
  Br  Br15  1  0.13469361  0.75000000  0.78254769  1
  Br  Br16  1  0.36530639  0.25000000  0.28254769  1
  Br  Br17  1  0.03570239  0.25000000  0.48697339  1
  Br  Br18  1  0.18540923  0.44254980  0.06442764  1
  Br  Br19  1  0.46429761  0.75000000  0.98697339  1
loop_
_geom_bond_atom_site_label_1
_geom_bond_atom_site_label_2
_geom_bond_distance
_geom_bond_site_symmetry_2
Br0 Rb9 3.403892 1_555
Br0 Rb0 3.434800 1_555
Br0 Rb11 3.434800 1_555
Br0 Rb5 3.550930 1_555
Br0 Rb10 3.550930 1_555
Br0 Rb7 3.740248 1_555
Br1 Zn2 2.395360 1_555
Br1 Rb9 3.368480 1_555
Br1 Rb6 3.530492 1_555
Br1 Rb10 3.759617 1_555
Br1 Rb3 3.804141 1_555
Br2 Zn3 2.400411 1_555
Br2 Rb7 3.572519 1_554
Br2 Rb4 3.801824 1_645
Br2 Rb3 3.801824 1_655
Br2 Rb2 3.849672 1_555
Br2 Rb1 3.849672 1_545
Br3 Rb8 3.403892 1_655
Br3 Rb2 3.434800 1_555
Br3 Rb1 3.434800 1_555
Br3 Rb3 3.550930 1_655
Br3 Rb4 3.550930 1_655
Br3 Rb6 3.740248 1_555
Br4 Zn0 2.400411 1_555
Br4 Rb6 3.572519 1_555
Br4 Rb10 3.801824 1_555
Br4 Rb5 3.801824 1_565
Br4 Rb0 3.849672 1_565
Br4 Rb11 3.849672 1_555
Br5 Zn3 2.395360 1_555
Br5 Rb6 3.368480 1_555
Br5 Rb9 3.530492 1_555
Br5 Rb2 3.759617 1_555
Br5 Rb11 3.804141 1_555
Br6 Zn0 2.395360 1_555
Br6 Rb7 3.368480 1_555
Br6 Rb8 3.530492 1_656
Br6 Rb11 3.759617 1_555
Br6 Rb2 3.804141 1_556
Br7 Zn1 2.425931 1_555
Br7 Rb7 3.518486 1_554
Br7 Rb1 3.586609 1_545
Br7 Rb2 3.586609 1_555
Br7 Rb10 3.647493 1_554
Br7 Rb5 3.647493 1_554
Br8 Zn2 2.425931 1_655
Br8 Rb6 3.518486 1_555
Br8 Rb0 3.586609 1_565
Br8 Rb11 3.586609 1_555
Br8 Rb4 3.647493 1_655
Br8 Rb3 3.647493 1_655
Br9 Rb7 3.403892 1_455
Br9 Rb10 3.434800 1_555
Br9 Rb5 3.434800 1_555
Br9 Rb11 3.550930 1_455
Br9 Rb0 3.550930 1_455
Br9 Rb9 3.740248 1_555
Br10 Zn0 2.395360 1_555
Br10 Rb7 3.368480 1_565
Br10 Rb8 3.530492 1_656
Br10 Rb0 3.759617 1_565
Br10 Rb1 3.804141 1_556
Br11 Zn2 2.395360 1_555
Br11 Rb9 3.368480 1_565
Br11 Rb6 3.530492 1_555
Br11 Rb5 3.759617 1_565
Br11 Rb4 3.804141 1_555
Br12 Rb6 3.403892 1_555
Br12 Rb4 3.434800 1_555
Br12 Rb3 3.434800 1_555
Br12 Rb1 3.550930 1_555
Br12 Rb2 3.550930 1_555
Br12 Rb8 3.740248 1_555
Br13 Zn1 2.395360 1_555
Br13 Rb8 3.368480 1_545
Br13 Rb7 3.530492 1_454
Br13 Rb4 3.759617 1_545
Br13 Rb5 3.804141 1_554
Br14 Zn3 2.395360 1_555
Br14 Rb6 3.368480 1_545
Br14 Rb9 3.530492 1_555
Br14 Rb1 3.759617 1_545
Br14 Rb0 3.804141 1_555
Br15 Zn2 2.400411 1_555
Br15 Rb8 3.572519 1_556
Br15 Rb0 3.801824 1_465
Br15 Rb11 3.801824 1_455
Br15 Rb5 3.849672 1_565
Br15 Rb10 3.849672 1_555
Br16 Zn1 2.400411 1_555
Br16 Rb9 3.572519 1_555
Br16 Rb1 3.801824 1_545
Br16 Rb2 3.801824 1_555
Br16 Rb3 3.849672 1_555
Br16 Rb4 3.849672 1_545
Br17 Zn3 2.425931 1_455
Br17 Rb9 3.518486 1_555
Br17 Rb3 3.586609 1_555
Br17 Rb4 3.586609 1_545
Br17 Rb0 3.647493 1_455
Br17 Rb11 3.647493 1_455
Br18 Zn1 2.395360 1_555
Br18 Rb8 3.368480 1_555
Br18 Rb7 3.530492 1_454
Br18 Rb3 3.759617 1_555
Br18 Rb10 3.804141 1_554
Br19 Zn0 2.425931 1_555
Br19 Rb8 3.518486 1_556
Br19 Rb5 3.586609 1_565
Br19 Rb10 3.586609 1_555
Br19 Rb1 3.647493 1_556
Br19 Rb2 3.647493 1_556
