# generated using pymatgen
data_SmOs2
_symmetry_space_group_name_H-M   'P 1'
_cell_length_a   5.30927245
_cell_length_b   5.30927224
_cell_length_c   9.06412790
_cell_angle_alpha   90.00000000
_cell_angle_beta   90.00000000
_cell_angle_gamma   119.99999500
_symmetry_Int_Tables_number   1
_chemical_formula_structural   SmOs2
_chemical_formula_sum   'Sm4 Os8'
_cell_volume   221.27211445
_cell_formula_units_Z   4
loop_
 _symmetry_equiv_pos_site_id
 _symmetry_equiv_pos_as_xyz
  1  'x, y, z'
loop_
 _atom_site_type_symbol
 _atom_site_label
 _atom_site_symmetry_multiplicity
 _atom_site_fract_x
 _atom_site_fract_y
 _atom_site_fract_z
 _atom_site_occupancy
  Sm  Sm0  1  0.33333300  0.66666700  0.43509977  1
  Sm  Sm1  1  0.66666700  0.33333300  0.56490023  1
  Sm  Sm2  1  0.66666700  0.33333300  0.93509977  1
  Sm  Sm3  1  0.33333300  0.66666700  0.06490023  1
  Os  Os0  1  0.17006712  0.34013725  0.75000000  1
  Os  Os1  1  0.17006712  0.82993288  0.75000000  1
  Os  Os2  1  0.34013725  0.17006712  0.25000000  1
  Os  Os3  1  0.82993288  0.65986275  0.25000000  1
  Os  Os4  1  0.65986275  0.82993288  0.75000000  1
  Os  Os5  1  0.00000000  0.00000000  0.00000000  1
  Os  Os6  1  0.82993288  0.17006712  0.25000000  1
  Os  Os7  1  0.00000000  0.00000000  0.50000000  1
loop_
_geom_bond_atom_site_label_1
_geom_bond_atom_site_label_2
_geom_bond_distance
_geom_bond_site_symmetry_2
Os0 Os1 2.600458 1_555
Os0 Os4 2.600459 1_555
Os0 Os1 2.708814 1_545
Os0 Os4 2.708814 1_445
Os0 Os5 2.753326 1_556
Os0 Os7 2.753326 1_555
Os0 Sm1 3.140529 1_455
Os0 Sm2 3.140529 1_455
Os0 Sm2 3.140547 1_555
Os0 Sm1 3.140547 1_555
Os0 Sm0 3.225077 1_555
Os0 Sm3 3.225077 1_556
Os1 Os4 2.600458 1_555
Os1 Os4 2.708814 1_455
Os1 Os7 2.753319 1_565
Os1 Os5 2.753319 1_566
Os1 Sm1 3.140538 1_565
Os1 Sm2 3.140538 1_565
Os1 Sm1 3.140538 1_455
Os1 Sm2 3.140538 1_455
Os1 Sm0 3.225082 1_555
Os1 Sm3 3.225082 1_556
Os2 Os6 2.600458 1_555
Os2 Os3 2.600459 1_555
Os2 Os6 2.708814 1_455
Os2 Os3 2.708814 1_445
Os2 Os7 2.753326 1_555
Os2 Os5 2.753326 1_555
Os2 Sm3 3.140529 1_545
Os2 Sm0 3.140529 1_545
Os2 Sm3 3.140547 1_555
Os2 Sm0 3.140547 1_555
Os2 Sm2 3.225077 1_554
Os2 Sm1 3.225077 1_555
Os3 Os6 2.600458 1_555
Os3 Os6 2.708814 1_565
Os3 Os7 2.753326 1_665
Os3 Os5 2.753326 1_665
Os3 Sm3 3.140529 1_655
Os3 Sm0 3.140529 1_655
Os3 Sm3 3.140547 1_555
Os3 Sm0 3.140547 1_555
Os3 Sm2 3.225077 1_554
Os3 Sm1 3.225077 1_555
Os4 Os7 2.753326 1_665
Os4 Os5 2.753326 1_666
Os4 Sm2 3.140529 1_565
Os4 Sm1 3.140529 1_565
Os4 Sm2 3.140547 1_555
Os4 Sm1 3.140547 1_555
Os4 Sm0 3.225077 1_555
Os4 Sm3 3.225077 1_556
Os5 Os6 2.753319 1_455
Os5 Sm3 3.121243 1_545
Os5 Sm2 3.121243 1_454
Os5 Sm3 3.121248 1_555
Os5 Sm2 3.121248 1_444
Os5 Sm2 3.121248 1_554
Os5 Sm3 3.121248 1_445
Os6 Os7 2.753319 1_655
Os6 Sm0 3.140538 1_545
Os6 Sm3 3.140538 1_545
Os6 Sm3 3.140538 1_655
Os6 Sm0 3.140538 1_655
Os6 Sm2 3.225082 1_554
Os6 Sm1 3.225082 1_555
Os7 Sm0 3.121243 1_545
Os7 Sm1 3.121243 1_455
Os7 Sm0 3.121248 1_555
Os7 Sm1 3.121248 1_445
Os7 Sm1 3.121248 1_555
Os7 Sm0 3.121248 1_445
