# generated using pymatgen
data_Cu2PHO5
_symmetry_space_group_name_H-M   'P 1'
_cell_length_a   5.96663400
_cell_length_b   8.13574100
_cell_length_c   8.52248800
_cell_angle_alpha   90.00000000
_cell_angle_beta   90.00000000
_cell_angle_gamma   90.00000000
_symmetry_Int_Tables_number   1
_chemical_formula_structural   Cu2PHO5
_chemical_formula_sum   'Cu8 P4 H4 O20'
_cell_volume   413.70704009
_cell_formula_units_Z   4
loop_
 _symmetry_equiv_pos_site_id
 _symmetry_equiv_pos_as_xyz
  1  'x, y, z'
loop_
 _atom_site_type_symbol
 _atom_site_label
 _atom_site_symmetry_multiplicity
 _atom_site_fract_x
 _atom_site_fract_y
 _atom_site_fract_z
 _atom_site_occupancy
  Cu  Cu0  1  0.24880400  0.00000000  0.50000000  1
  Cu  Cu1  1  0.25119600  0.50000000  0.00000000  1
  Cu  Cu2  1  0.75119600  0.00000000  0.50000000  1
  Cu  Cu3  1  0.74880400  0.50000000  0.00000000  1
  Cu  Cu4  1  0.50000000  0.63851300  0.37139900  1
  Cu  Cu5  1  0.50000000  0.36148700  0.62860100  1
  Cu  Cu6  1  0.00000000  0.13851300  0.12860100  1
  Cu  Cu7  1  0.00000000  0.86148700  0.87139900  1
  P  P0  1  0.00000000  0.76762500  0.25354500  1
  P  P1  1  0.00000000  0.23237500  0.74645500  1
  P  P2  1  0.50000000  0.26762500  0.24645500  1
  P  P3  1  0.50000000  0.73237500  0.75354500  1
  H  H0  1  0.50000000  0.92354300  0.29167000  1
  H  H1  1  0.50000000  0.07645700  0.70833000  1
  H  H2  1  0.00000000  0.42354300  0.20833000  1
  H  H3  1  0.00000000  0.57645700  0.79167000  1
  O  O0  1  0.00000000  0.86345600  0.41442100  1
  O  O1  1  0.00000000  0.13654400  0.58557900  1
  O  O2  1  0.50000000  0.36345600  0.08557900  1
  O  O3  1  0.50000000  0.63654400  0.91442100  1
  O  O4  1  0.00000000  0.89828900  0.11860500  1
  O  O5  1  0.00000000  0.10171100  0.88139500  1
  O  O6  1  0.50000000  0.39828900  0.38139500  1
  O  O7  1  0.50000000  0.60171100  0.61860500  1
  O  O8  1  0.21042200  0.65792300  0.24135400  1
  O  O9  1  0.21042200  0.34207700  0.75864600  1
  O  O10  1  0.28957800  0.15792300  0.25864600  1
  O  O11  1  0.28957800  0.84207700  0.74135400  1
  O  O12  1  0.78957800  0.34207700  0.75864600  1
  O  O13  1  0.78957800  0.65792300  0.24135400  1
  O  O14  1  0.71042200  0.84207700  0.74135400  1
  O  O15  1  0.71042200  0.15792300  0.25864600  1
  O  O16  1  0.50000000  0.87552800  0.39784600  1
  O  O17  1  0.50000000  0.12447200  0.60215400  1
  O  O18  1  0.00000000  0.37552800  0.10215400  1
  O  O19  1  0.00000000  0.62447200  0.89784600  1
loop_
_geom_bond_atom_site_label_1
_geom_bond_atom_site_label_2
_geom_bond_distance
_geom_bond_site_symmetry_2
Cu0 O1 1.992441 1_555
Cu0 O0 1.992441 1_545
Cu0 O17 2.007447 1_555
Cu0 O16 2.007447 1_545
Cu0 O10 2.437404 1_555
Cu0 O11 2.437404 1_545
Cu1 O3 1.992441 1_554
Cu1 O2 1.992441 1_555
Cu1 O19 2.007447 1_554
Cu1 O18 2.007447 1_555
Cu1 O9 2.437404 1_554
Cu1 O8 2.437404 1_555
Cu2 O0 1.992441 1_645
Cu2 O1 1.992441 1_655
Cu2 O17 2.007447 1_555
Cu2 O16 2.007447 1_545
Cu2 O15 2.437404 1_555
Cu2 O14 2.437404 1_545
Cu3 O3 1.992441 1_554
Cu3 O2 1.992441 1_555
Cu3 O18 2.007447 1_655
Cu3 O19 2.007447 1_654
Cu3 O12 2.437404 1_554
Cu3 O13 2.437404 1_555
Cu4 O16 1.941421 1_555
Cu4 O6 1.956256 1_555
Cu4 O8 2.058785 1_555
Cu4 O13 2.058785 1_555
Cu4 O7 2.127979 1_555
Cu5 O17 1.941421 1_555
Cu5 O7 1.956256 1_555
Cu5 O12 2.058785 1_555
Cu5 O9 2.058785 1_555
Cu5 O6 2.127979 1_555
Cu6 O18 1.941421 1_555
Cu6 O4 1.956256 1_545
Cu6 O15 2.058785 1_455
Cu6 O10 2.058785 1_555
Cu6 O5 2.127979 1_554
Cu7 O19 1.941421 1_555
Cu7 O5 1.956256 1_565
Cu7 O14 2.058785 1_455
Cu7 O11 2.058785 1_555
Cu7 O4 2.127979 1_556
H0 O16 0.985602 1_555
H1 O17 0.985602 1_555
H2 O18 0.985602 1_555
H3 O19 0.985602 1_555
O0 P0 1.577238 1_555
O1 P1 1.577238 1_555
O2 P2 1.577238 1_555
O3 P3 1.577238 1_555
O4 P0 1.566087 1_555
O5 P1 1.566087 1_555
O6 P2 1.566087 1_555
O7 P3 1.566087 1_555
O8 P0 1.543914 1_555
O9 P1 1.543914 1_555
O10 P2 1.543914 1_555
O11 P3 1.543914 1_555
O12 P1 1.543914 1_655
O13 P0 1.543914 1_655
O14 P3 1.543914 1_555
O15 P2 1.543914 1_555
