# generated using pymatgen
data_Ca11Si4SO18
_symmetry_space_group_name_H-M   'P 1'
_cell_length_a   8.68260299
_cell_length_b   8.68260299
_cell_length_c   8.68260299
_cell_angle_alpha   105.25586470
_cell_angle_beta   105.25586470
_cell_angle_gamma   118.27734750
_symmetry_Int_Tables_number   1
_chemical_formula_structural   Ca11Si4SO18
_chemical_formula_sum   'Ca11 Si4 S1 O18'
_cell_volume   494.82983401
_cell_formula_units_Z   1
loop_
 _symmetry_equiv_pos_site_id
 _symmetry_equiv_pos_as_xyz
  1  'x, y, z'
loop_
 _atom_site_type_symbol
 _atom_site_label
 _atom_site_symmetry_multiplicity
 _atom_site_fract_x
 _atom_site_fract_y
 _atom_site_fract_z
 _atom_site_occupancy
  Ca  Ca0  1  0.99646500  0.49646500  0.50000000  1
  Ca  Ca1  1  0.53990200  0.79440900  0.74549400  1
  Ca  Ca2  1  0.43432600  0.19201200  0.24231400  1
  Ca  Ca3  1  0.80798800  0.56567400  0.75768600  1
  Ca  Ca4  1  0.50000000  0.50000000  0.00000000  1
  Ca  Ca5  1  0.50353500  0.00353500  0.50000000  1
  Ca  Ca6  1  0.04891500  0.79440900  0.25450600  1
  Ca  Ca7  1  0.20559100  0.95108500  0.74549400  1
  Ca  Ca8  1  0.94969800  0.19201200  0.75768600  1
  Ca  Ca9  1  0.80798800  0.05030200  0.24231400  1
  Ca  Ca10  1  0.20559100  0.46009800  0.25450600  1
  Si  Si0  1  0.28909200  0.71090800  0.00000000  1
  Si  Si1  1  0.28909200  0.28909200  0.57818400  1
  Si  Si2  1  0.71090800  0.71090800  0.42181600  1
  Si  Si3  1  0.71090800  0.28909200  0.00000000  1
  S  S0  1  0.00000000  0.00000000  0.00000000  1
  O  O0  1  0.50530400  0.79469600  0.00143700  1
  O  O1  1  0.50530400  0.50386700  0.71060800  1
  O  O2  1  0.20530400  0.20674100  0.71060800  1
  O  O3  1  0.67749600  0.13136800  0.81724300  1
  O  O4  1  0.20530400  0.49469600  0.99856300  1
  O  O5  1  0.67749600  0.86025300  0.54612800  1
  O  O6  1  0.49613300  0.20674100  0.00143700  1
  O  O7  1  0.31412500  0.13136800  0.45387200  1
  O  O8  1  0.13974700  0.68587500  0.81724300  1
  O  O9  1  0.75000000  0.25000000  0.50000000  1
  O  O10  1  0.31412500  0.86025300  0.18275700  1
  O  O11  1  0.79325900  0.79469600  0.28939200  1
  O  O12  1  0.86863200  0.68587500  0.54612800  1
  O  O13  1  0.86863200  0.32250400  0.18275700  1
  O  O14  1  0.79325900  0.50386700  0.99856300  1
  O  O15  1  0.13974700  0.32250400  0.45387200  1
  O  O16  1  0.49613300  0.49469600  0.28939200  1
  O  O17  1  0.25000000  0.75000000  0.50000000  1
loop_
_geom_bond_atom_site_label_1
_geom_bond_atom_site_label_2
_geom_bond_distance
_geom_bond_site_symmetry_2
Ca0 O9 2.195434 1_555
Ca0 O17 2.258411 1_655
Ca0 O8 2.390345 1_655
Ca0 O12 2.390345 1_555
Ca0 O15 2.390345 1_655
Ca0 O13 2.390345 1_555
Ca1 O0 2.318999 1_556
Ca1 O1 2.319006 1_555
Ca1 O3 2.390073 1_565
Ca1 O5 2.390079 1_555
Ca1 O17 2.617681 1_555
Ca1 S0 3.248119 1_666
Ca2 O16 2.311893 1_555
Ca2 O6 2.311893 1_555
Ca2 O7 2.395367 1_555
Ca2 O10 2.395367 1_545
Ca2 O9 2.764814 1_555
Ca2 S0 3.073901 1_555
Ca3 O1 2.311893 1_555
Ca3 O14 2.311893 1_555
Ca3 O8 2.395367 1_655
Ca3 O12 2.395367 1_555
Ca3 O9 2.764814 1_555
Ca3 S0 3.073901 1_666
Ca4 O14 2.533894 1_554
Ca4 O4 2.533894 1_554
Ca4 O11 2.533894 1_555
Ca4 O1 2.533894 1_554
Ca4 O0 2.533894 1_555
Ca4 O2 2.533894 1_554
Ca4 O16 2.533894 1_555
Ca4 O6 2.533894 1_555
Ca5 O9 2.195434 1_555
Ca5 O17 2.258411 1_545
Ca5 O7 2.390345 1_555
Ca5 O3 2.390345 1_555
Ca5 O10 2.390345 1_545
Ca5 O5 2.390345 1_545
Ca6 O14 2.319002 1_454
Ca6 O11 2.319002 1_455
Ca6 O10 2.390074 1_555
Ca6 O7 2.390074 1_565
Ca6 O17 2.617687 1_555
Ca6 S0 3.248113 1_565
Ca7 O2 2.319002 1_565
Ca7 O6 2.319002 1_566
Ca7 O8 2.390074 1_555
Ca7 O12 2.390074 1_455
Ca7 O17 2.617687 1_555
Ca7 S0 3.248113 1_566
Ca8 O4 2.311893 1_655
Ca8 O2 2.311893 1_655
Ca8 O3 2.395367 1_555
Ca8 O5 2.395367 1_545
Ca8 O9 2.764814 1_555
Ca8 S0 3.073901 1_656
Ca9 O0 2.311893 1_545
Ca9 O11 2.311893 1_545
Ca9 O13 2.395367 1_555
Ca9 O15 2.395367 1_655
Ca9 O9 2.764814 1_555
Ca9 S0 3.073901 1_655
Ca10 O4 2.318999 1_554
Ca10 O16 2.319006 1_555
Ca10 O13 2.390073 1_455
Ca10 O15 2.390079 1_555
Ca10 O17 2.617681 1_555
Ca10 S0 3.248119 1_555
O0 Si0 1.656051 1_555
O1 Si1 1.656051 1_555
O2 Si1 1.656051 1_555
O3 Si3 1.647802 1_556
O4 Si0 1.656051 1_556
O5 Si2 1.647802 1_555
O6 Si3 1.656051 1_555
O7 Si1 1.647802 1_555
O8 Si0 1.647802 1_556
O10 Si0 1.647802 1_555
O11 Si2 1.656051 1_555
O12 Si2 1.647802 1_555
O13 Si3 1.647802 1_555
O14 Si3 1.656051 1_556
O15 Si1 1.647802 1_555
O16 Si2 1.656051 1_555
