# generated using pymatgen
data_BaLi2SiO4
_symmetry_space_group_name_H-M   'P 1'
_cell_length_a   8.18338449
_cell_length_b   8.18338449
_cell_length_c   10.76352500
_cell_angle_alpha   90.00000000
_cell_angle_beta   90.00000000
_cell_angle_gamma   120.00000397
_symmetry_Int_Tables_number   1
_chemical_formula_structural   BaLi2SiO4
_chemical_formula_sum   'Ba6 Li12 Si6 O24'
_cell_volume   624.23922051
_cell_formula_units_Z   6
loop_
 _symmetry_equiv_pos_site_id
 _symmetry_equiv_pos_as_xyz
  1  'x, y, z'
loop_
 _atom_site_type_symbol
 _atom_site_label
 _atom_site_symmetry_multiplicity
 _atom_site_fract_x
 _atom_site_fract_y
 _atom_site_fract_z
 _atom_site_occupancy
  Ba  Ba0  1  0.43023200  0.00000000  0.72642400  1
  Ba  Ba1  1  0.56976800  0.00000000  0.22642400  1
  Ba  Ba2  1  0.43023200  0.43023200  0.22642400  1
  Ba  Ba3  1  0.00000000  0.56976800  0.22642400  1
  Ba  Ba4  1  0.00000000  0.43023200  0.72642400  1
  Ba  Ba5  1  0.56976800  0.56976800  0.72642400  1
  Li  Li0  1  0.22529400  0.00000000  0.07930400  1
  Li  Li1  1  0.73281100  0.00000000  0.94078900  1
  Li  Li2  1  0.00000000  0.22529400  0.07930400  1
  Li  Li3  1  0.00000000  0.73281100  0.94078900  1
  Li  Li4  1  0.77470600  0.00000000  0.57930400  1
  Li  Li5  1  0.73281100  0.73281100  0.44078900  1
  Li  Li6  1  0.00000000  0.77470600  0.57930400  1
  Li  Li7  1  0.22529400  0.22529400  0.57930400  1
  Li  Li8  1  0.00000000  0.26718900  0.44078900  1
  Li  Li9  1  0.26718900  0.00000000  0.44078900  1
  Li  Li10  1  0.26718900  0.26718900  0.94078900  1
  Li  Li11  1  0.77470600  0.77470600  0.07930400  1
  Si  Si0  1  0.66666700  0.33333300  0.98235900  1
  Si  Si1  1  0.33333300  0.66666700  0.98235900  1
  Si  Si2  1  0.00000000  0.00000000  0.31171800  1
  Si  Si3  1  0.66666700  0.33333300  0.48235900  1
  Si  Si4  1  0.00000000  0.00000000  0.81171800  1
  Si  Si5  1  0.33333300  0.66666700  0.48235900  1
  O  O0  1  0.19278400  0.00000000  0.26509400  1
  O  O1  1  0.33333300  0.66666700  0.32956000  1
  O  O2  1  0.19278400  0.19278400  0.76509400  1
  O  O3  1  0.80721600  0.00000000  0.76509400  1
  O  O4  1  0.77533000  0.22159000  0.03336800  1
  O  O5  1  0.22159000  0.44626000  0.53336800  1
  O  O6  1  0.44626000  0.22159000  0.53336800  1
  O  O7  1  0.66666700  0.33333300  0.82956000  1
  O  O8  1  0.00000000  0.00000000  0.96929400  1
  O  O9  1  0.77533000  0.55374000  0.53336800  1
  O  O10  1  0.22467000  0.77841000  0.53336800  1
  O  O11  1  0.44626000  0.22467000  0.03336800  1
  O  O12  1  0.77841000  0.55374000  0.03336800  1
  O  O13  1  0.00000000  0.80721600  0.76509400  1
  O  O14  1  0.22159000  0.77533000  0.03336800  1
  O  O15  1  0.22467000  0.44626000  0.03336800  1
  O  O16  1  0.00000000  0.19278400  0.26509400  1
  O  O17  1  0.55374000  0.77533000  0.53336800  1
  O  O18  1  0.80721600  0.80721600  0.26509400  1
  O  O19  1  0.00000000  0.00000000  0.46929400  1
  O  O20  1  0.77841000  0.22467000  0.53336800  1
  O  O21  1  0.33333300  0.66666700  0.82956000  1
  O  O22  1  0.66666700  0.33333300  0.32956000  1
  O  O23  1  0.55374000  0.77841000  0.03336800  1
loop_
_geom_bond_atom_site_label_1
_geom_bond_atom_site_label_2
_geom_bond_distance
_geom_bond_site_symmetry_2
Ba0 O21 2.671880 1_545
Ba0 O7 2.671881 1_555
Ba0 O10 2.717637 1_545
Ba0 O6 2.717637 1_555
Ba1 O22 2.671880 1_555
Ba1 O1 2.671881 1_545
Ba1 O4 2.717637 1_555
Ba1 O23 2.717637 1_545
Ba2 O22 2.671887 1_555
Ba2 O1 2.671887 1_555
Ba2 O15 2.717637 1_555
Ba2 O11 2.717637 1_555
Ba3 O1 2.671880 1_555
Ba3 O22 2.671881 1_455
Ba3 O14 2.717637 1_555
Ba3 O12 2.717637 1_455
Ba4 O7 2.671880 1_455
Ba4 O21 2.671881 1_555
Ba4 O20 2.717637 1_455
Ba4 O5 2.717637 1_555
Ba5 O21 2.671887 1_555
Ba5 O7 2.671887 1_555
Ba5 O9 2.717637 1_555
Ba5 O17 2.717637 1_555
Li0 O11 1.889434 1_555
Li0 O14 1.889434 1_545
Li0 O0 2.017374 1_555
Li0 O8 2.191162 1_554
Li1 O23 1.941993 1_546
Li1 O4 1.941993 1_556
Li1 O3 1.986703 1_555
Li1 O8 2.207932 1_655
Li2 O15 1.889434 1_555
Li2 O4 1.889434 1_455
Li2 O16 2.017374 1_555
Li2 O8 2.191162 1_554
Li3 O12 1.941993 1_456
Li3 O14 1.941993 1_556
Li3 O13 1.986703 1_555
Li3 O8 2.207932 1_565
Li4 O17 1.889434 1_545
Li4 O20 1.889434 1_555
Li4 O3 2.017374 1_555
Li4 O19 2.191162 1_655
Li5 O17 1.941993 1_555
Li5 O9 1.941993 1_555
Li5 O18 1.986703 1_555
Li5 O19 2.207932 1_665
Li6 O9 1.889434 1_455
Li6 O10 1.889434 1_555
Li6 O13 2.017374 1_555
Li6 O19 2.191162 1_565
Li7 O6 1.889434 1_555
Li7 O5 1.889434 1_555
Li7 O2 2.017374 1_555
Li7 O19 2.191162 1_555
Li8 O5 1.941993 1_555
Li8 O20 1.941993 1_455
Li8 O16 1.986703 1_555
Li8 O19 2.207932 1_555
Li9 O6 1.941993 1_555
Li9 O10 1.941993 1_545
Li9 O0 1.986703 1_555
Li9 O19 2.207932 1_555
Li10 O15 1.941993 1_556
Li10 O11 1.941993 1_556
Li10 O2 1.986703 1_555
Li10 O8 2.207932 1_555
Li11 O12 1.889434 1_555
Li11 O23 1.889434 1_555
Li11 O18 2.017374 1_555
Li11 O8 2.191162 1_664
O0 Si2 1.655519 1_555
O1 Si5 1.644656 1_555
O2 Si4 1.655519 1_555
O3 Si4 1.655519 1_655
O4 Si0 1.655751 1_554
O5 Si5 1.655758 1_555
O6 Si3 1.655758 1_555
O7 Si0 1.644656 1_555
O8 Si4 1.696073 1_555
O9 Si3 1.655758 1_555
O10 Si5 1.655751 1_555
O11 Si0 1.655758 1_554
O12 Si0 1.655758 1_554
O13 Si4 1.655519 1_565
O14 Si1 1.655751 1_554
O15 Si1 1.655758 1_554
O16 Si2 1.655519 1_555
O17 Si5 1.655758 1_555
O18 Si2 1.655519 1_665
O19 Si2 1.696073 1_555
O20 Si3 1.655751 1_555
O21 Si1 1.644656 1_555
O22 Si3 1.644656 1_555
O23 Si1 1.655758 1_554
