# generated using pymatgen
data_Cs2DyCl5
_symmetry_space_group_name_H-M   'P 1'
_cell_length_a   7.48892965
_cell_length_b   9.56008240
_cell_length_c   15.32182926
_cell_angle_alpha   90.00000000
_cell_angle_beta   90.00000000
_cell_angle_gamma   90.00000000
_symmetry_Int_Tables_number   1
_chemical_formula_structural   Cs2DyCl5
_chemical_formula_sum   'Cs8 Dy4 Cl20'
_cell_volume   1096.96306466
_cell_formula_units_Z   4
loop_
 _symmetry_equiv_pos_site_id
 _symmetry_equiv_pos_as_xyz
  1  'x, y, z'
loop_
 _atom_site_type_symbol
 _atom_site_label
 _atom_site_symmetry_multiplicity
 _atom_site_fract_x
 _atom_site_fract_y
 _atom_site_fract_z
 _atom_site_occupancy
  Cs  Cs0  1  0.25000000  0.47381543  0.28901886  1
  Cs  Cs1  1  0.75000000  0.52618457  0.71098114  1
  Cs  Cs2  1  0.25000000  0.97381543  0.21098114  1
  Cs  Cs3  1  0.75000000  0.02618457  0.78901886  1
  Cs  Cs4  1  0.75000000  0.33398770  0.08388963  1
  Cs  Cs5  1  0.25000000  0.66601230  0.91611037  1
  Cs  Cs6  1  0.75000000  0.83398770  0.41611037  1
  Cs  Cs7  1  0.25000000  0.16601230  0.58388963  1
  Dy  Dy0  1  0.75000000  0.32032854  0.43412474  1
  Dy  Dy1  1  0.25000000  0.67967146  0.56587526  1
  Dy  Dy2  1  0.75000000  0.82032854  0.06587526  1
  Dy  Dy3  1  0.25000000  0.17967146  0.93412474  1
  Cl  Cl0  1  0.50000000  0.50000000  0.50000000  1
  Cl  Cl1  1  -0.00000000  0.50000000  0.50000000  1
  Cl  Cl2  1  -0.00000000  0.00000000  0.00000000  1
  Cl  Cl3  1  0.50000000  0.00000000  0.00000000  1
  Cl  Cl4  1  0.00560449  0.16376883  0.38090112  1
  Cl  Cl5  1  0.50560449  0.83623117  0.61909888  1
  Cl  Cl6  1  0.49439551  0.66376883  0.11909888  1
  Cl  Cl7  1  0.99439551  0.33623117  0.88090112  1
  Cl  Cl8  1  0.99439551  0.83623117  0.61909888  1
  Cl  Cl9  1  0.49439551  0.16376883  0.38090112  1
  Cl  Cl10  1  0.50560449  0.33623117  0.88090112  1
  Cl  Cl11  1  0.00560449  0.66376883  0.11909888  1
  Cl  Cl12  1  0.25000000  0.29041181  0.09188712  1
  Cl  Cl13  1  0.75000000  0.70958819  0.90811288  1
  Cl  Cl14  1  0.25000000  0.79041181  0.40811288  1
  Cl  Cl15  1  0.75000000  0.20958819  0.59188712  1
  Cl  Cl16  1  0.75000000  0.48184256  0.29831130  1
  Cl  Cl17  1  0.25000000  0.51815744  0.70168870  1
  Cl  Cl18  1  0.75000000  0.98184256  0.20168870  1
  Cl  Cl19  1  0.25000000  0.01815744  0.79831130  1
loop_
_geom_bond_atom_site_label_1
_geom_bond_atom_site_label_2
_geom_bond_distance
_geom_bond_site_symmetry_2
Cl0 Dy0 2.733936 1_555
Cl0 Dy1 2.733936 1_555
Cl0 Cs1 3.744026 1_555
Cl0 Cs0 3.744026 1_555
Cl0 Cs6 3.918200 1_555
Cl0 Cs7 3.918200 1_555
Cl1 Dy0 2.733936 1_455
Cl1 Dy1 2.733936 1_555
Cl1 Cs1 3.744026 1_455
Cl1 Cs0 3.744026 1_555
Cl1 Cs6 3.918200 1_455
Cl1 Cs7 3.918200 1_555
Cl2 Dy2 2.733936 1_445
Cl2 Dy3 2.733936 1_554
Cl2 Cs3 3.744026 1_454
Cl2 Cs2 3.744026 1_545
Cl2 Cs4 3.918200 1_455
Cl2 Cs5 3.918200 1_544
Cl3 Dy3 2.733936 1_554
Cl3 Dy2 2.733936 1_545
Cl3 Cs3 3.744026 1_554
Cl3 Cs2 3.744026 1_545
Cl3 Cs4 3.918200 1_555
Cl3 Cs5 3.918200 1_544
Cl4 Dy0 2.563079 1_455
Cl4 Cs7 3.608792 1_555
Cl4 Cs2 3.664115 1_545
Cl4 Cs6 3.727592 1_445
Cl4 Cs0 3.757324 1_555
Cl5 Dy1 2.563079 1_555
Cl5 Cs6 3.608792 1_555
Cl5 Cs3 3.664115 1_565
Cl5 Cs7 3.727592 1_565
Cl5 Cs1 3.757324 1_555
Cl6 Dy2 2.563079 1_555
Cl6 Cs5 3.608792 1_554
Cl6 Cs0 3.664115 1_555
Cl6 Cs4 3.727592 1_555
Cl6 Cs2 3.757324 1_555
Cl7 Dy3 2.563079 1_655
Cl7 Cs4 3.608792 1_556
Cl7 Cs1 3.664115 1_555
Cl7 Cs5 3.727592 1_655
Cl7 Cs3 3.757324 1_555
Cl8 Dy1 2.563079 1_655
Cl8 Cs6 3.608792 1_555
Cl8 Cs3 3.664115 1_565
Cl8 Cs7 3.727592 1_665
Cl8 Cs1 3.757324 1_555
Cl9 Dy0 2.563079 1_555
Cl9 Cs7 3.608792 1_555
Cl9 Cs2 3.664115 1_545
Cl9 Cs6 3.727592 1_545
Cl9 Cs0 3.757324 1_555
Cl10 Dy3 2.563079 1_555
Cl10 Cs4 3.608792 1_556
Cl10 Cs1 3.664115 1_555
Cl10 Cs5 3.727592 1_555
Cl10 Cs3 3.757324 1_555
Cl11 Dy2 2.563079 1_455
Cl11 Cs5 3.608792 1_554
Cl11 Cs0 3.664115 1_555
Cl11 Cs4 3.727592 1_455
Cl11 Cs2 3.757324 1_555
Cl12 Dy3 2.638885 1_554
Cl12 Cs0 3.492446 1_555
Cl12 Cs2 3.534191 1_545
Cl12 Cs4 3.769559 1_555
Cl12 Cs4 3.769559 1_455
Cl13 Dy2 2.638885 1_556
Cl13 Cs1 3.492446 1_555
Cl13 Cs3 3.534191 1_565
Cl13 Cs5 3.769559 1_555
Cl13 Cs5 3.769559 1_655
Cl14 Dy1 2.638885 1_555
Cl14 Cs2 3.492446 1_555
Cl14 Cs0 3.534191 1_555
Cl14 Cs6 3.769559 1_555
Cl14 Cs6 3.769559 1_455
Cl15 Dy0 2.638885 1_555
Cl15 Cs3 3.492446 1_555
Cl15 Cs1 3.534191 1_555
Cl15 Cs7 3.769559 1_655
Cl15 Cs7 3.769559 1_555
Cl16 Dy0 2.591215 1_555
Cl16 Cs4 3.576507 1_555
Cl16 Cs0 3.747956 1_555
Cl16 Cs0 3.747956 1_655
Cl16 Cs6 3.819846 1_555
Cl17 Dy1 2.591215 1_555
Cl17 Cs5 3.576507 1_555
Cl17 Cs1 3.747956 1_555
Cl17 Cs1 3.747956 1_455
Cl17 Cs7 3.819846 1_555
Cl18 Dy2 2.591215 1_555
Cl18 Cs6 3.576507 1_555
Cl18 Cs2 3.747956 1_555
Cl18 Cs2 3.747956 1_655
Cl18 Cs4 3.819846 1_565
Cl19 Dy3 2.591215 1_555
Cl19 Cs7 3.576507 1_555
Cl19 Cs3 3.747956 1_555
Cl19 Cs3 3.747956 1_455
Cl19 Cs5 3.819846 1_545
