# generated using pymatgen
data_Pr(IO3)3
_symmetry_space_group_name_H-M   'P 1'
_cell_length_a   5.91978850
_cell_length_b   8.87510290
_cell_length_c   16.82199214
_cell_angle_alpha   65.46730049
_cell_angle_beta   90.00000000
_cell_angle_gamma   90.00000000
_symmetry_Int_Tables_number   1
_chemical_formula_structural   Pr(IO3)3
_chemical_formula_sum   'Pr4 I12 O36'
_cell_volume   804.02005364
_cell_formula_units_Z   4
loop_
 _symmetry_equiv_pos_site_id
 _symmetry_equiv_pos_as_xyz
  1  'x, y, z'
loop_
 _atom_site_type_symbol
 _atom_site_label
 _atom_site_symmetry_multiplicity
 _atom_site_fract_x
 _atom_site_fract_y
 _atom_site_fract_z
 _atom_site_occupancy
  Pr  Pr0  1  0.76529873  0.86178684  0.09905822  1
  Pr  Pr1  1  0.26529873  0.13821316  0.40094178  1
  Pr  Pr2  1  0.73470127  0.86178684  0.59905822  1
  Pr  Pr3  1  0.23470127  0.13821316  0.90094178  1
  I  I0  1  0.63937697  0.36107618  0.47693151  1
  I  I1  1  0.81186281  0.92931866  0.34940310  1
  I  I2  1  0.40864825  0.58417393  0.80074534  1
  I  I3  1  0.09135175  0.58417393  0.30074534  1
  I  I4  1  0.36062303  0.63892382  0.52306849  1
  I  I5  1  0.68813719  0.92931866  0.84940310  1
  I  I6  1  0.90864825  0.41582607  0.69925466  1
  I  I7  1  0.86062303  0.36107618  0.97693151  1
  I  I8  1  0.13937697  0.63892382  0.02306849  1
  I  I9  1  0.59135175  0.41582607  0.19925466  1
  I  I10  1  0.31186281  0.07068134  0.15059690  1
  I  I11  1  0.18813719  0.07068134  0.65059690  1
  O  O0  1  0.90986020  0.33119861  0.61799601  1
  O  O1  1  0.11013032  0.90381625  0.17019186  1
  O  O2  1  0.91426826  0.90942521  0.45568583  1
  O  O3  1  0.18515456  0.34249729  0.74483691  1
  O  O4  1  0.68515456  0.65750271  0.75516309  1
  O  O5  1  0.81484544  0.65750271  0.25516309  1
  O  O6  1  0.08874481  0.36146988  0.05194239  1
  O  O7  1  0.58573174  0.90942521  0.95568583  1
  O  O8  1  0.41426826  0.09057479  0.04431417  1
  O  O9  1  0.08573174  0.09057479  0.54431417  1
  O  O10  1  0.38986968  0.90381625  0.67019186  1
  O  O11  1  0.44954557  0.06012933  0.79408391  1
  O  O12  1  0.05045443  0.06012933  0.29408391  1
  O  O13  1  0.91125519  0.63853012  0.94805761  1
  O  O14  1  0.46954639  0.40520829  0.37994978  1
  O  O15  1  0.41125519  0.36146988  0.55194239  1
  O  O16  1  0.61013032  0.09618375  0.32980814  1
  O  O17  1  0.40593531  0.86265595  0.49122044  1
  O  O18  1  0.94954557  0.93987067  0.70591609  1
  O  O19  1  0.55045443  0.93987067  0.20591609  1
  O  O20  1  0.88986968  0.09618375  0.82980814  1
  O  O21  1  0.03045361  0.40520829  0.87994978  1
  O  O22  1  0.59406469  0.13734405  0.50877956  1
  O  O23  1  0.00236625  0.62755550  0.63231151  1
  O  O24  1  0.53045361  0.59479171  0.62005022  1
  O  O25  1  0.59013980  0.33119861  0.11799601  1
  O  O26  1  0.58874481  0.63853012  0.44805761  1
  O  O27  1  0.50236625  0.37244450  0.86768849  1
  O  O28  1  0.96954639  0.59479171  0.12005022  1
  O  O29  1  0.99763375  0.37244450  0.36768849  1
  O  O30  1  0.90593531  0.13734405  0.00877956  1
  O  O31  1  0.31484544  0.34249729  0.24483691  1
  O  O32  1  0.40986020  0.66880139  0.88200399  1
  O  O33  1  0.49763375  0.62755550  0.13231151  1
  O  O34  1  0.09406469  0.86265595  0.99122044  1
  O  O35  1  0.09013980  0.66880139  0.38200399  1
loop_
_geom_bond_atom_site_label_1
_geom_bond_atom_site_label_2
_geom_bond_distance
_geom_bond_site_symmetry_2
I0 O14 1.815235 1_555
I0 O22 1.848880 1_555
I0 O15 1.849206 1_555
I0 O26 2.322952 1_555
I1 O12 1.819766 1_665
I1 O16 1.822805 1_565
I1 O2 1.825672 1_555
I2 O4 1.810084 1_555
I2 O32 1.812525 1_555
I2 O27 1.830234 1_555
I3 O5 1.810084 1_455
I3 O35 1.812525 1_555
I3 O29 1.830234 1_455
I4 O24 1.815235 1_555
I4 O17 1.848880 1_555
I4 O26 1.849206 1_555
I4 O15 2.322952 1_555
I5 O11 1.819766 1_565
I5 O20 1.822805 1_565
I5 O7 1.825672 1_555
I6 O3 1.810084 1_655
I6 O0 1.812525 1_555
I6 O23 1.830234 1_655
I7 O21 1.815235 1_655
I7 O30 1.848880 1_556
I7 O6 1.849206 1_656
I7 O13 2.322952 1_555
I8 O28 1.815235 1_455
I8 O34 1.848880 1_554
I8 O13 1.849206 1_454
I8 O6 2.322952 1_555
I9 O31 1.810084 1_555
I9 O25 1.812525 1_555
I9 O33 1.830234 1_555
I10 O19 1.819766 1_545
I10 O1 1.822805 1_545
I10 O8 1.825672 1_555
I11 O18 1.819766 1_445
I11 O10 1.822805 1_545
I11 O9 1.825672 1_555
O1 Pr0 2.471580 1_455
O2 Pr2 2.505745 1_555
O2 Pr1 2.781445 1_665
O3 Pr3 2.513029 1_555
O4 Pr2 2.513029 1_555
O5 Pr0 2.513029 1_555
O7 Pr0 2.505745 1_556
O7 Pr3 2.781445 1_565
O8 Pr3 2.505745 1_554
O8 Pr0 2.781445 1_545
O9 Pr1 2.505745 1_555
O9 Pr2 2.781445 1_445
O10 Pr2 2.471580 1_555
O11 Pr3 2.522600 1_555
O12 Pr1 2.522600 1_555
O14 Pr1 2.550843 1_555
O16 Pr1 2.471580 1_555
O17 Pr1 2.428206 1_565
O17 Pr2 2.658382 1_555
O18 Pr2 2.522600 1_555
O19 Pr0 2.522600 1_555
O20 Pr3 2.471580 1_655
O21 Pr3 2.550843 1_555
O22 Pr2 2.428206 1_545
O22 Pr1 2.658382 1_555
O23 Pr2 2.485853 1_455
O24 Pr2 2.550843 1_555
O27 Pr3 2.485853 1_555
O28 Pr0 2.550843 1_555
O29 Pr1 2.485853 1_655
O30 Pr0 2.428206 1_545
O30 Pr3 2.658382 1_654
O31 Pr1 2.513029 1_555
O33 Pr0 2.485853 1_555
O34 Pr3 2.428206 1_565
O34 Pr0 2.658382 1_456
