# generated using pymatgen
data_SrHg2
_symmetry_space_group_name_H-M   'P 1'
_cell_length_a   5.02226187
_cell_length_b   6.39723656
_cell_length_c   6.39723724
_cell_angle_alpha   75.98325239
_cell_angle_beta   66.88775228
_cell_angle_gamma   66.88775846
_symmetry_Int_Tables_number   1
_chemical_formula_structural   SrHg2
_chemical_formula_sum   'Sr2 Hg4'
_cell_volume   172.91899815
_cell_formula_units_Z   2
loop_
 _symmetry_equiv_pos_site_id
 _symmetry_equiv_pos_as_xyz
  1  'x, y, z'
loop_
 _atom_site_type_symbol
 _atom_site_label
 _atom_site_symmetry_multiplicity
 _atom_site_fract_x
 _atom_site_fract_y
 _atom_site_fract_z
 _atom_site_occupancy
  Sr  Sr0  1  0.48897069  0.26102931  0.76102931  1
  Sr  Sr1  1  0.51102931  0.73897069  0.23897069  1
  Hg  Hg0  1  0.83388795  0.68130754  0.65091256  1
  Hg  Hg1  1  0.16611205  0.84908744  0.81869246  1
  Hg  Hg2  1  0.83388795  0.15091256  0.18130854  1
  Hg  Hg3  1  0.16611205  0.31869246  0.34908744  1
loop_
_geom_bond_atom_site_label_1
_geom_bond_atom_site_label_2
_geom_bond_distance
_geom_bond_site_symmetry_2
Sr0 Sr1 3.942516 1_546
Sr0 Sr1 3.942516 1_555
Hg0 Hg1 2.908224 1_555
Hg0 Hg1 2.908259 1_655
Hg0 Hg3 2.914646 1_655
Hg0 Sr1 3.481981 1_555
Hg0 Sr1 3.481995 1_655
Hg0 Sr1 3.511598 1_556
Hg0 Sr0 3.536461 1_555
Hg0 Sr0 3.536476 1_655
Hg0 Sr0 3.537631 1_565
Hg1 Hg2 2.914650 1_466
Hg1 Sr0 3.481981 1_565
Hg1 Sr0 3.481996 1_465
Hg1 Sr0 3.511598 1_555
Hg1 Sr1 3.536462 1_556
Hg1 Sr1 3.536476 1_456
Hg1 Sr1 3.537631 1_555
Hg2 Hg3 2.908224 1_555
Hg2 Hg3 2.908254 1_655
Hg2 Sr1 3.481982 1_545
Hg2 Sr1 3.481994 1_645
Hg2 Sr1 3.511597 1_555
Hg2 Sr0 3.536468 1_554
Hg2 Sr0 3.536478 1_654
Hg2 Sr0 3.537626 1_555
Hg3 Sr0 3.481981 1_555
Hg3 Sr0 3.481995 1_455
Hg3 Sr0 3.511598 1_554
Hg3 Sr1 3.536461 1_555
Hg3 Sr1 3.536476 1_455
Hg3 Sr1 3.537631 1_545
