# generated using pymatgen
data_ZnS
_symmetry_space_group_name_H-M   'P 1'
_cell_length_a   3.80603204
_cell_length_b   3.80603268
_cell_length_c   74.79618053
_cell_angle_alpha   90.00000000
_cell_angle_beta   90.00000000
_cell_angle_gamma   120.00001215
_symmetry_Int_Tables_number   1
_chemical_formula_structural   ZnS
_chemical_formula_sum   'Zn24 S24'
_cell_volume   938.32859767
_cell_formula_units_Z   24
loop_
 _symmetry_equiv_pos_site_id
 _symmetry_equiv_pos_as_xyz
  1  'x, y, z'
loop_
 _atom_site_type_symbol
 _atom_site_label
 _atom_site_symmetry_multiplicity
 _atom_site_fract_x
 _atom_site_fract_y
 _atom_site_fract_z
 _atom_site_occupancy
  Zn  Zn0  1  0.00000000  -0.00000000  0.16670214  1
  Zn  Zn1  1  0.33333300  0.66666700  0.79166527  1
  Zn  Zn2  1  0.66666700  0.33333300  0.45836719  1
  Zn  Zn3  1  0.00000000  -0.00000000  0.41668870  1
  Zn  Zn4  1  0.66666700  0.33333300  0.08335579  1
  Zn  Zn5  1  0.33333300  0.66666700  0.33335550  1
  Zn  Zn6  1  0.33333300  0.66666700  0.20838770  1
  Zn  Zn7  1  0.00000000  -0.00000000  0.58336688  1
  Zn  Zn8  1  -0.00000000  0.00000000  0.70836376  1
  Zn  Zn9  1  0.66666700  0.33333300  0.75001850  1
  Zn  Zn10  1  0.66666700  0.33333300  0.91669016  1
  Zn  Zn11  1  0.66666700  0.33333300  0.62505504  1
  Zn  Zn12  1  0.00000000  -0.00000000  0.83334972  1
  Zn  Zn13  1  0.33333300  0.66666700  0.66669939  1
  Zn  Zn14  1  0.33333300  0.66666700  0.12504072  1
  Zn  Zn15  1  0.33333300  0.66666700  0.04170258  1
  Zn  Zn16  1  -0.00000000  -0.00000000  0.00002300  1
  Zn  Zn17  1  -0.00000000  0.00000000  0.29170053  1
  Zn  Zn18  1  0.33333300  0.66666700  0.87502762  1
  Zn  Zn19  1  0.33333300  0.66666700  0.95836333  1
  Zn  Zn20  1  0.66666700  0.33333300  0.54170383  1
  Zn  Zn21  1  0.66666700  0.33333300  0.25003882  1
  Zn  Zn22  1  0.66666700  0.33333300  0.37500625  1
  Zn  Zn23  1  0.33333300  0.66666700  0.50003130  1
  S  S0  1  0.00000000  -0.00000000  0.19792652  1
  S  S1  1  0.33333300  0.66666700  0.53125347  1
  S  S2  1  0.33333300  0.66666700  0.90618970  1
  S  S3  1  0.66666700  0.33333300  0.94791522  1
  S  S4  1  0.33333300  0.66666700  0.15619562  1
  S  S5  1  0.66666700  0.33333300  0.28122832  1
  S  S6  1  0.66666700  0.33333300  0.11457850  1
  S  S7  1  0.00000000  -0.00000000  0.61459468  1
  S  S8  1  0.66666700  0.33333300  0.40618191  1
  S  S9  1  0.00000000  -0.00000000  0.73955256  1
  S  S10  1  0.66666700  0.33333300  0.78120908  1
  S  S11  1  0.66666700  0.33333300  0.48952424  1
  S  S12  1  0.33333300  0.66666700  0.82283906  1
  S  S13  1  0.00000000  -0.00000000  0.32288768  1
  S  S14  1  0.66666700  0.33333300  0.65623365  1
  S  S15  1  0.00000000  -0.00000000  0.86457536  1
  S  S16  1  0.33333300  0.66666700  0.07285673  1
  S  S17  1  0.33333300  0.66666700  0.36454370  1
  S  S18  1  0.33333300  0.66666700  0.69789467  1
  S  S19  1  0.33333300  0.66666700  0.23956378  1
  S  S20  1  0.33333300  0.66666700  0.98952231  1
  S  S21  1  0.00000000  -0.00000000  0.44791322  1
  S  S22  1  0.66666700  0.33333300  0.57286518  1
  S  S23  1  0.00000000  -0.00000000  0.03125014  1
loop_
_geom_bond_atom_site_label_1
_geom_bond_atom_site_label_2
_geom_bond_distance
_geom_bond_site_symmetry_2
S0 Zn6 2.332564 1_545
S0 Zn6 2.332567 1_445
S0 Zn6 2.332567 1_555
S0 Zn0 2.335464 1_555
S1 Zn20 2.332292 1_455
S1 Zn20 2.332293 1_565
S1 Zn20 2.332299 1_555
S1 Zn23 2.335299 1_555
S2 Zn18 2.330805 1_555
S2 Zn10 2.333551 1_455
S2 Zn10 2.333551 1_565
S2 Zn10 2.333558 1_555
S3 Zn19 2.332236 1_655
S3 Zn19 2.332236 1_545
S3 Zn19 2.332243 1_555
S3 Zn10 2.335515 1_555
S4 Zn14 2.330268 1_555
S4 Zn0 2.333704 1_565
S4 Zn0 2.333707 1_665
S4 Zn0 2.333707 1_555
S5 Zn17 2.332841 1_655
S5 Zn17 2.332844 1_555
S5 Zn17 2.332844 1_665
S5 Zn21 2.332855 1_555
S6 Zn14 2.332590 1_655
S6 Zn14 2.332590 1_545
S6 Zn14 2.332597 1_555
S6 Zn4 2.335339 1_555
S7 Zn11 2.332544 1_455
S7 Zn11 2.332546 1_555
S7 Zn11 2.332547 1_445
S7 Zn7 2.335720 1_555
S8 Zn22 2.331820 1_555
S8 Zn3 2.333711 1_655
S8 Zn3 2.333713 1_555
S8 Zn3 2.333714 1_665
S9 Zn9 2.332684 1_455
S9 Zn9 2.332686 1_555
S9 Zn9 2.332687 1_445
S9 Zn8 2.332803 1_555
S10 Zn1 2.332439 1_655
S10 Zn1 2.332439 1_545
S10 Zn1 2.332445 1_555
S10 Zn9 2.332936 1_555
S11 Zn2 2.330428 1_555
S11 Zn23 2.333717 1_655
S11 Zn23 2.333717 1_545
S11 Zn23 2.333724 1_555
S12 Zn1 2.331680 1_555
S12 Zn12 2.333808 1_565
S12 Zn12 2.333811 1_665
S12 Zn12 2.333811 1_555
S13 Zn17 2.332680 1_555
S13 Zn5 2.332731 1_545
S13 Zn5 2.332734 1_445
S13 Zn5 2.332734 1_555
S14 Zn11 2.332041 1_555
S14 Zn13 2.332678 1_655
S14 Zn13 2.332679 1_545
S14 Zn13 2.332685 1_555
S15 Zn18 2.332341 1_545
S15 Zn18 2.332343 1_445
S15 Zn18 2.332343 1_555
S15 Zn12 2.335559 1_555
S16 Zn15 2.330211 1_555
S16 Zn4 2.333516 1_455
S16 Zn4 2.333516 1_565
S16 Zn4 2.333522 1_555
S17 Zn22 2.332598 1_455
S17 Zn22 2.332598 1_565
S17 Zn22 2.332605 1_555
S17 Zn5 2.332758 1_555
S18 Zn8 2.332763 1_565
S18 Zn8 2.332765 1_665
S18 Zn8 2.332766 1_555
S18 Zn13 2.333288 1_555
S19 Zn6 2.331852 1_555
S19 Zn21 2.332912 1_455
S19 Zn21 2.332912 1_565
S19 Zn21 2.332918 1_555
S20 Zn19 2.330573 1_555
S20 Zn16 2.333557 1_566
S20 Zn16 2.333560 1_666
S20 Zn16 2.333560 1_556
S21 Zn2 2.332383 1_455
S21 Zn2 2.332386 1_555
S21 Zn2 2.332386 1_445
S21 Zn3 2.335475 1_555
S22 Zn20 2.330750 1_555
S22 Zn7 2.333583 1_655
S22 Zn7 2.333585 1_555
S22 Zn7 2.333586 1_665
S23 Zn15 2.332345 1_545
S23 Zn15 2.332348 1_445
S23 Zn15 2.332348 1_555
S23 Zn16 2.335671 1_555
