# generated using pymatgen
data_Rb2NaVF6
_symmetry_space_group_name_H-M   'P 1'
_cell_length_a   5.95696126
_cell_length_b   5.95695493
_cell_length_c   5.95696154
_cell_angle_alpha   60.00003365
_cell_angle_beta   59.99992810
_cell_angle_gamma   60.00003825
_symmetry_Int_Tables_number   1
_chemical_formula_structural   Rb2NaVF6
_chemical_formula_sum   'Rb2 Na1 V1 F6'
_cell_volume   149.47167059
_cell_formula_units_Z   1
loop_
 _symmetry_equiv_pos_site_id
 _symmetry_equiv_pos_as_xyz
  1  'x, y, z'
loop_
 _atom_site_type_symbol
 _atom_site_label
 _atom_site_symmetry_multiplicity
 _atom_site_fract_x
 _atom_site_fract_y
 _atom_site_fract_z
 _atom_site_occupancy
  Rb  Rb0  1  0.75000000  0.75000000  0.75000000  1
  Rb  Rb1  1  0.25000000  0.25000000  0.25000000  1
  Na  Na0  1  0.50000000  0.50000000  0.50000000  1
  V  V0  1  -0.00000000  -0.00000000  -0.00000000  1
  F  F0  1  0.76853891  0.23146109  0.76853891  1
  F  F1  1  0.23146049  0.23146049  0.76853951  1
  F  F2  1  0.76853951  0.76853951  0.23146049  1
  F  F3  1  0.76853931  0.23146069  0.23146069  1
  F  F4  1  0.23146109  0.76853891  0.23146109  1
  F  F5  1  0.23146069  0.76853931  0.76853931  1
loop_
_geom_bond_atom_site_label_1
_geom_bond_atom_site_label_2
_geom_bond_distance
_geom_bond_site_symmetry_2
F0 V0 1.949927 1_656
F0 Na0 2.262286 1_555
F0 Rb1 2.982569 1_556
F0 Rb1 2.982569 1_655
F0 Rb0 2.982569 1_555
F0 Rb0 2.982569 1_545
F1 V0 1.949917 1_556
F1 Na0 2.262286 1_555
F1 Rb0 2.982573 1_545
F1 Rb1 2.982573 1_556
F1 Rb0 2.982573 1_455
F1 Rb1 2.982573 1_555
F2 V0 1.949917 1_665
F2 Na0 2.262286 1_555
F2 Rb1 2.982573 1_565
F2 Rb0 2.982573 1_554
F2 Rb0 2.982573 1_555
F2 Rb1 2.982573 1_655
F3 V0 1.949919 1_655
F3 Na0 2.262284 1_555
F3 Rb1 2.982573 1_555
F3 Rb0 2.982573 1_545
F3 Rb0 2.982573 1_554
F3 Rb1 2.982573 1_655
F4 V0 1.949927 1_565
F4 Na0 2.262286 1_555
F4 Rb1 2.982569 1_565
F4 Rb0 2.982569 1_455
F4 Rb0 2.982569 1_554
F4 Rb1 2.982569 1_555
F5 V0 1.949919 1_566
F5 Na0 2.262284 1_555
F5 Rb1 2.982573 1_565
F5 Rb0 2.982573 1_455
F5 Rb0 2.982573 1_555
F5 Rb1 2.982573 1_556
