# generated using pymatgen
data_K3Mn2O8
_symmetry_space_group_name_H-M   'P 1'
_cell_length_a   5.70742310
_cell_length_b   7.79110281
_cell_length_c   9.66083828
_cell_angle_alpha   111.95209150
_cell_angle_beta   90.00000000
_cell_angle_gamma   90.00000000
_symmetry_Int_Tables_number   1
_chemical_formula_structural   K3Mn2O8
_chemical_formula_sum   'K6 Mn4 O16'
_cell_volume   398.44301576
_cell_formula_units_Z   2
loop_
 _symmetry_equiv_pos_site_id
 _symmetry_equiv_pos_as_xyz
  1  'x, y, z'
loop_
 _atom_site_type_symbol
 _atom_site_label
 _atom_site_symmetry_multiplicity
 _atom_site_fract_x
 _atom_site_fract_y
 _atom_site_fract_z
 _atom_site_occupancy
  K  K0  1  0.75000000  0.15671240  0.54613812  1
  K  K1  1  0.25000000  0.84328760  0.45386188  1
  K  K2  1  0.75000000  0.34212236  0.95319199  1
  K  K3  1  0.25000000  0.65787764  0.04680801  1
  K  K4  1  0.75000000  0.75402873  0.75403809  1
  K  K5  1  0.25000000  0.24597127  0.24596191  1
  Mn  Mn0  1  0.25000000  0.06662088  0.84177154  1
  Mn  Mn1  1  0.75000000  0.93337912  0.15822846  1
  Mn  Mn2  1  0.25000000  0.43654608  0.65774630  1
  Mn  Mn3  1  0.75000000  0.56345392  0.34225370  1
  O  O0  1  0.25000000  0.59080030  0.58303949  1
  O  O1  1  0.75000000  0.40919970  0.41696051  1
  O  O2  1  0.25000000  0.23056291  0.52825037  1
  O  O3  1  0.75000000  0.76943709  0.47174963  1
  O  O4  1  0.01810093  0.46054533  0.76092135  1
  O  O5  1  0.51810093  0.53945467  0.23907865  1
  O  O6  1  0.98189907  0.53945467  0.23907865  1
  O  O7  1  0.48189907  0.46054533  0.76092135  1
  O  O8  1  0.25000000  0.27393943  0.96962014  1
  O  O9  1  0.75000000  0.72606057  0.03037986  1
  O  O10  1  0.25000000  0.91514437  0.91961797  1
  O  O11  1  0.75000000  0.08485563  0.08038203  1
  O  O12  1  0.01793078  0.04117372  0.73834055  1
  O  O13  1  0.51793078  0.95882628  0.26165945  1
  O  O14  1  0.98206922  0.95882628  0.26165945  1
  O  O15  1  0.48206922  0.04117372  0.73834055  1
loop_
_geom_bond_atom_site_label_1
_geom_bond_atom_site_label_2
_geom_bond_distance
_geom_bond_site_symmetry_2
K0 O1 2.694917 1_555
K0 O12 2.801123 1_655
K0 O15 2.801123 1_555
K0 O3 2.828311 1_545
K0 O13 2.918307 1_545
K0 O14 2.918307 1_545
K0 O4 2.928846 1_655
K0 O7 2.928846 1_555
K0 O2 2.928982 1_555
K0 O2 2.928982 1_655
K1 O0 2.694917 1_555
K1 O13 2.801123 1_555
K1 O14 2.801123 1_455
K1 O2 2.828311 1_565
K1 O15 2.918307 1_565
K1 O12 2.918307 1_565
K1 O5 2.928846 1_555
K1 O6 2.928846 1_455
K1 O3 2.928982 1_455
K1 O3 2.928982 1_555
K2 O11 2.714567 1_556
K2 O9 2.799323 1_556
K2 O4 2.815017 1_655
K2 O7 2.815017 1_555
K2 O12 2.916458 1_655
K2 O15 2.916458 1_555
K2 O8 2.917891 1_655
K2 O8 2.917891 1_555
K2 O5 2.927258 1_556
K2 O6 2.927258 1_556
K3 O10 2.714567 1_554
K3 O8 2.799323 1_554
K3 O5 2.815017 1_555
K3 O6 2.815017 1_455
K3 O14 2.916458 1_455
K3 O13 2.916458 1_555
K3 O9 2.917891 1_555
K3 O9 2.917891 1_455
K3 O7 2.927258 1_554
K3 O4 2.927258 1_554
K4 O9 2.758565 1_556
K4 O12 2.760444 1_665
K4 O15 2.760444 1_565
K4 O4 2.772700 1_655
K4 O7 2.772700 1_555
K4 O3 2.774256 1_555
K5 O8 2.758565 1_554
K5 O13 2.760444 1_545
K5 O14 2.760444 1_445
K5 O5 2.772700 1_555
K5 O6 2.772700 1_455
K5 O2 2.774256 1_555
Mn0 O10 1.619256 1_545
Mn0 O8 1.625709 1_555
Mn0 O12 1.626037 1_555
Mn0 O15 1.626037 1_555
Mn1 O11 1.619256 1_565
Mn1 O9 1.625709 1_555
Mn1 O14 1.626037 1_555
Mn1 O13 1.626037 1_555
Mn2 O0 1.616711 1_555
Mn2 O2 1.624656 1_555
Mn2 O7 1.625090 1_555
Mn2 O4 1.625090 1_555
Mn3 O1 1.616711 1_555
Mn3 O3 1.624656 1_555
Mn3 O6 1.625090 1_555
Mn3 O5 1.625090 1_555
