# generated using pymatgen
data_K4CO4
_symmetry_space_group_name_H-M   'P 1'
_cell_length_a   6.34745030
_cell_length_b   6.34745030
_cell_length_c   6.34745030
_cell_angle_alpha   128.35060227
_cell_angle_beta   128.35060227
_cell_angle_gamma   76.05775079
_symmetry_Int_Tables_number   1
_chemical_formula_structural   K4CO4
_chemical_formula_sum   'K4 C1 O4'
_cell_volume   152.90895805
_cell_formula_units_Z   1
loop_
 _symmetry_equiv_pos_site_id
 _symmetry_equiv_pos_as_xyz
  1  'x, y, z'
loop_
 _atom_site_type_symbol
 _atom_site_label
 _atom_site_symmetry_multiplicity
 _atom_site_fract_x
 _atom_site_fract_y
 _atom_site_fract_z
 _atom_site_occupancy
  K  K0  1  0.65371800  0.05916200  0.00000000  1
  K  K1  1  0.94083800  0.94083800  0.59455600  1
  K  K2  1  0.05916200  0.65371800  0.00000000  1
  K  K3  1  0.34628200  0.34628200  0.40544400  1
  C  C0  1  0.50000000  0.50000000  0.00000000  1
  O  O0  1  0.73461900  0.43667400  0.00000000  1
  O  O1  1  0.43667400  0.73461900  0.00000000  1
  O  O2  1  0.26538100  0.26538100  0.70205400  1
  O  O3  1  0.56332600  0.56332600  0.29794600  1
loop_
_geom_bond_atom_site_label_1
_geom_bond_atom_site_label_2
_geom_bond_distance
_geom_bond_site_symmetry_2
K0 O0 2.568778 1_555
K0 O3 2.664247 1_555
K0 O2 2.664249 1_554
K0 O1 2.740309 1_545
K0 O3 3.222695 1_544
K0 O2 3.222697 1_655
K1 O3 2.568781 1_555
K1 O1 2.664246 1_555
K1 O0 2.664246 1_555
K1 O2 2.740313 1_665
K1 O0 3.222700 1_566
K1 O1 3.222700 1_656
K2 O1 2.568778 1_555
K2 O3 2.664247 1_555
K2 O2 2.664249 1_554
K2 O0 2.740309 1_455
K2 O3 3.222695 1_454
K2 O2 3.222697 1_565
K3 O2 2.568772 1_555
K3 O1 2.664246 1_556
K3 O0 2.664246 1_556
K3 O3 2.740303 1_555
K3 O1 3.222700 1_545
K3 O0 3.222700 1_455
C0 O0 1.446002 1_555
C0 O1 1.446002 1_555
C0 O2 1.446002 1_554
C0 O3 1.446008 1_555
