# generated using pymatgen
data_SrZrS3
_symmetry_space_group_name_H-M   'P 1'
_cell_length_a   6.76185335
_cell_length_b   7.15875562
_cell_length_c   9.80481376
_cell_angle_alpha   90.00000000
_cell_angle_beta   90.00000000
_cell_angle_gamma   90.00000000
_symmetry_Int_Tables_number   1
_chemical_formula_structural   SrZrS3
_chemical_formula_sum   'Sr4 Zr4 S12'
_cell_volume   474.61628264
_cell_formula_units_Z   4
loop_
 _symmetry_equiv_pos_site_id
 _symmetry_equiv_pos_as_xyz
  1  'x, y, z'
loop_
 _atom_site_type_symbol
 _atom_site_label
 _atom_site_symmetry_multiplicity
 _atom_site_fract_x
 _atom_site_fract_y
 _atom_site_fract_z
 _atom_site_occupancy
  Sr  Sr0  1  0.47501398  0.07998198  0.25000000  1
  Sr  Sr1  1  0.97501398  0.42001802  0.75000000  1
  Sr  Sr2  1  0.02498602  0.57998198  0.25000000  1
  Sr  Sr3  1  0.52498602  0.92001802  0.75000000  1
  Zr  Zr0  1  -0.00000000  -0.00000000  -0.00000000  1
  Zr  Zr1  1  0.50000000  0.50000000  -0.00000000  1
  Zr  Zr2  1  0.50000000  0.50000000  0.50000000  1
  Zr  Zr3  1  0.00000000  -0.00000000  0.50000000  1
  S  S0  1  0.40192965  0.51979829  0.75000000  1
  S  S1  1  0.90192965  0.98020171  0.25000000  1
  S  S2  1  0.09807035  0.01979829  0.75000000  1
  S  S3  1  0.59807035  0.48020171  0.25000000  1
  S  S4  1  0.19226778  0.30307828  0.05029966  1
  S  S5  1  0.69226778  0.19692172  0.94970034  1
  S  S6  1  0.30773222  0.80307828  0.44970034  1
  S  S7  1  0.80773222  0.69692172  0.55029966  1
  S  S8  1  0.19226778  0.30307828  0.44970034  1
  S  S9  1  0.69226778  0.19692172  0.55029966  1
  S  S10  1  0.30773222  0.80307828  0.05029966  1
  S  S11  1  0.80773222  0.69692172  0.94970034  1
loop_
_geom_bond_atom_site_label_1
_geom_bond_atom_site_label_2
_geom_bond_distance
_geom_bond_site_symmetry_2
S0 Zr1 2.543273 1_556
S0 Zr2 2.543273 1_555
S0 Sr1 2.973803 1_455
S0 Sr3 2.983459 1_555
S1 Zr0 2.543273 1_665
S1 Zr3 2.543273 1_665
S1 Sr0 2.973803 1_565
S1 Sr2 2.983459 1_655
S2 Zr0 2.543273 1_556
S2 Zr3 2.543273 1_555
S2 Sr3 2.973803 1_545
S2 Sr1 2.983459 1_455
S3 Zr1 2.543273 1_555
S3 Zr2 2.543273 1_555
S3 Sr2 2.973803 1_655
S3 Sr0 2.983459 1_555
S4 Zr1 2.561331 1_555
S4 Zr0 2.576992 1_555
S4 Sr2 3.007122 1_555
S4 Sr0 3.168577 1_555
S4 Sr1 3.395330 1_454
S5 Zr0 2.561331 1_656
S5 Zr1 2.576992 1_556
S5 Sr3 3.007122 1_545
S5 Sr1 3.168577 1_555
S5 Sr0 3.395330 1_556
S6 Zr3 2.561331 1_565
S6 Zr2 2.576992 1_555
S6 Sr0 3.007122 1_565
S6 Sr2 3.168577 1_555
S6 Sr3 3.395330 1_555
S7 Zr2 2.561331 1_555
S7 Zr3 2.576992 1_665
S7 Sr1 3.007122 1_555
S7 Sr3 3.168577 1_555
S7 Sr2 3.395330 1_655
S8 Zr2 2.561331 1_555
S8 Zr3 2.576992 1_555
S8 Sr2 3.007122 1_555
S8 Sr0 3.168577 1_555
S8 Sr1 3.395330 1_455
S9 Zr3 2.561331 1_655
S9 Zr2 2.576992 1_555
S9 Sr3 3.007122 1_545
S9 Sr1 3.168577 1_555
S9 Sr0 3.395330 1_555
S10 Zr0 2.561331 1_565
S10 Zr1 2.576992 1_555
S10 Sr0 3.007122 1_565
S10 Sr2 3.168577 1_555
S10 Sr3 3.395330 1_554
S11 Zr1 2.561331 1_556
S11 Zr0 2.576992 1_666
S11 Sr1 3.007122 1_555
S11 Sr3 3.168577 1_555
S11 Sr2 3.395330 1_656
