# generated using pymatgen
data_UH3
_symmetry_space_group_name_H-M   'P 1'
_cell_length_a   6.66759631
_cell_length_b   6.66759631
_cell_length_c   6.66759631
_cell_angle_alpha   90.00000000
_cell_angle_beta   90.00000000
_cell_angle_gamma   90.00000000
_symmetry_Int_Tables_number   1
_chemical_formula_structural   UH3
_chemical_formula_sum   'U8 H24'
_cell_volume   296.42026603
_cell_formula_units_Z   8
loop_
 _symmetry_equiv_pos_site_id
 _symmetry_equiv_pos_as_xyz
  1  'x, y, z'
loop_
 _atom_site_type_symbol
 _atom_site_label
 _atom_site_symmetry_multiplicity
 _atom_site_fract_x
 _atom_site_fract_y
 _atom_site_fract_z
 _atom_site_occupancy
  U  U0  1  0.00000000  0.00000000  0.00000000  1
  U  U1  1  0.50000000  0.50000000  0.50000000  1
  U  U2  1  0.25000000  0.00000000  0.50000000  1
  U  U3  1  0.75000000  0.00000000  0.50000000  1
  U  U4  1  0.00000000  0.50000000  0.25000000  1
  U  U5  1  0.00000000  0.50000000  0.75000000  1
  U  U6  1  0.50000000  0.75000000  0.00000000  1
  U  U7  1  0.50000000  0.25000000  0.00000000  1
  H  H0  1  0.00000000  0.15513412  0.30405921  1
  H  H1  1  0.50000000  0.19594079  0.65513412  1
  H  H2  1  0.50000000  0.80405921  0.34486588  1
  H  H3  1  0.80405921  0.65513412  0.50000000  1
  H  H4  1  0.19594079  0.65513412  0.50000000  1
  H  H5  1  0.34486588  0.50000000  0.80405921  1
  H  H6  1  0.65513412  0.50000000  0.80405921  1
  H  H7  1  0.30405921  0.00000000  0.15513412  1
  H  H8  1  0.15513412  0.30405921  0.00000000  1
  H  H9  1  0.84486588  0.69594079  0.00000000  1
  H  H10  1  0.30405921  0.00000000  0.84486588  1
  H  H11  1  0.84486588  0.30405921  0.00000000  1
  H  H12  1  0.69594079  0.00000000  0.15513412  1
  H  H13  1  0.69594079  0.00000000  0.84486588  1
  H  H14  1  0.15513412  0.69594079  0.00000000  1
  H  H15  1  0.00000000  0.84486588  0.69594079  1
  H  H16  1  0.00000000  0.15513412  0.69594079  1
  H  H17  1  0.00000000  0.84486588  0.30405921  1
  H  H18  1  0.65513412  0.50000000  0.19594079  1
  H  H19  1  0.34486588  0.50000000  0.19594079  1
  H  H20  1  0.80405921  0.34486588  0.50000000  1
  H  H21  1  0.19594079  0.34486588  0.50000000  1
  H  H22  1  0.50000000  0.80405921  0.65513412  1
  H  H23  1  0.50000000  0.19594079  0.34486588  1
loop_
_geom_bond_atom_site_label_1
_geom_bond_atom_site_label_2
_geom_bond_distance
_geom_bond_site_symmetry_2
H0 U0 2.275972 1_555
H0 U4 2.327506 1_555
H0 U3 2.356968 1_455
H0 U2 2.356968 1_555
H1 U1 2.275972 1_555
H1 U7 2.327506 1_556
H1 U2 2.356968 1_555
H1 U3 2.356968 1_555
H2 U1 2.275972 1_555
H2 U6 2.327506 1_555
H2 U3 2.356968 1_565
H2 U2 2.356968 1_565
H3 U1 2.275972 1_555
H3 U3 2.327506 1_565
H3 U5 2.356968 1_655
H3 U4 2.356968 1_655
H4 U1 2.275972 1_555
H4 U2 2.327506 1_565
H4 U4 2.356968 1_555
H4 U5 2.356968 1_555
H5 U1 2.275972 1_555
H5 U5 2.327506 1_555
H5 U7 2.356968 1_556
H5 U6 2.356968 1_556
H6 U1 2.275972 1_555
H6 U5 2.327506 1_655
H6 U7 2.356968 1_556
H6 U6 2.356968 1_556
H7 U0 2.275972 1_555
H7 U2 2.327506 1_555
H7 U7 2.356968 1_555
H7 U6 2.356968 1_545
H8 U0 2.275972 1_555
H8 U7 2.327506 1_555
H8 U5 2.356968 1_554
H8 U4 2.356968 1_555
H9 U0 2.275972 1_665
H9 U6 2.327506 1_555
H9 U5 2.356968 1_654
H9 U4 2.356968 1_655
H10 U0 2.275972 1_556
H10 U2 2.327506 1_555
H10 U6 2.356968 1_546
H10 U7 2.356968 1_556
H11 U0 2.275972 1_655
H11 U7 2.327506 1_555
H11 U5 2.356968 1_654
H11 U4 2.356968 1_655
H12 U0 2.275972 1_655
H12 U3 2.327506 1_555
H12 U7 2.356968 1_555
H12 U6 2.356968 1_545
H13 U0 2.275972 1_656
H13 U3 2.327506 1_555
H13 U6 2.356968 1_546
H13 U7 2.356968 1_556
H14 U0 2.275972 1_565
H14 U6 2.327506 1_555
H14 U4 2.356968 1_555
H14 U5 2.356968 1_554
H15 U0 2.275972 1_566
H15 U5 2.327506 1_555
H15 U2 2.356968 1_565
H15 U3 2.356968 1_465
H16 U0 2.275972 1_556
H16 U5 2.327506 1_555
H16 U2 2.356968 1_555
H16 U3 2.356968 1_455
H17 U0 2.275972 1_565
H17 U4 2.327506 1_555
H17 U2 2.356968 1_565
H17 U3 2.356968 1_465
H18 U1 2.275972 1_555
H18 U4 2.327506 1_655
H18 U7 2.356968 1_555
H18 U6 2.356968 1_555
H19 U1 2.275972 1_555
H19 U4 2.327506 1_555
H19 U7 2.356968 1_555
H19 U6 2.356968 1_555
H20 U1 2.275972 1_555
H20 U3 2.327506 1_555
H20 U5 2.356968 1_655
H20 U4 2.356968 1_655
H21 U1 2.275972 1_555
H21 U2 2.327506 1_555
H21 U4 2.356968 1_555
H21 U5 2.356968 1_555
H22 U1 2.275972 1_555
H22 U6 2.327506 1_556
H22 U3 2.356968 1_565
H22 U2 2.356968 1_565
H23 U1 2.275972 1_555
H23 U7 2.327506 1_555
H23 U2 2.356968 1_555
H23 U3 2.356968 1_555
