# generated using pymatgen
data_La2CoO4
_symmetry_space_group_name_H-M   'P 1'
_cell_length_a   5.51368069
_cell_length_b   13.33616522
_cell_length_c   5.51412223
_cell_angle_alpha   78.03675300
_cell_angle_beta   89.99122202
_cell_angle_gamma   78.01365810
_symmetry_Int_Tables_number   1
_chemical_formula_structural   La2CoO4
_chemical_formula_sum   'La8 Co4 O16'
_cell_volume   387.61638067
_cell_formula_units_Z   4
loop_
 _symmetry_equiv_pos_site_id
 _symmetry_equiv_pos_as_xyz
  1  'x, y, z'
loop_
 _atom_site_type_symbol
 _atom_site_label
 _atom_site_symmetry_multiplicity
 _atom_site_fract_x
 _atom_site_fract_y
 _atom_site_fract_z
 _atom_site_occupancy
  La  La0  1  0.93142800  0.13777900  0.43116400  1
  La  La1  1  0.18150900  0.63779700  0.18117700  1
  La  La2  1  0.68110900  0.63778600  0.68121300  1
  La  La3  1  0.43144700  0.13778000  0.93151100  1
  La  La4  1  0.31857700  0.36221200  0.31885700  1
  La  La5  1  0.56860300  0.86222500  0.06852300  1
  La  La6  1  0.06851100  0.86222200  0.56881000  1
  La  La7  1  0.81883400  0.36220400  0.81874000  1
  Co  Co0  1  0.50000500  0.00000000  0.49999800  1
  Co  Co1  1  0.74999900  0.50000100  0.25000300  1
  Co  Co2  1  0.24999300  0.50000000  0.75001700  1
  Co  Co3  1  0.00000300  0.00000000  0.99998400  1
  O  O0  1  0.25001700  0.99997500  0.75001600  1
  O  O1  1  0.50000700  0.49999800  0.49999900  1
  O  O2  1  0.99999300  0.49999700  0.00000100  1
  O  O3  1  0.74998700  0.00001900  0.24998900  1
  O  O4  1  0.25001200  0.00001800  0.24993400  1
  O  O5  1  0.49995900  0.50000400  0.00001800  1
  O  O6  1  0.99999000  0.49999600  0.50005900  1
  O  O7  1  0.75003600  0.99998800  0.74999800  1
  O  O8  1  0.84091900  0.31819700  0.34088300  1
  O  O9  1  0.09082900  0.81818400  0.09082300  1
  O  O10  1  0.59085700  0.81819800  0.59084600  1
  O  O11  1  0.34087800  0.31818100  0.84086400  1
  O  O12  1  0.40915400  0.18179800  0.40915200  1
  O  O13  1  0.65905800  0.68180600  0.15911300  1
  O  O14  1  0.15914600  0.68181700  0.65911700  1
  O  O15  1  0.90914000  0.18181900  0.90918900  1
loop_
_geom_bond_atom_site_label_1
_geom_bond_atom_site_label_2
_geom_bond_distance
_geom_bond_site_symmetry_2
La0 O8 2.300192 1_555
La0 O0 2.621989 1_645
La0 O4 2.622912 1_655
La0 O7 2.625154 1_545
La0 O3 2.626543 1_555
La0 O12 2.812488 1_655
La0 O15 2.813112 1_554
La0 O15 2.814193 1_555
La0 O12 2.814278 1_555
La1 O9 2.299796 1_555
La1 O1 2.621611 1_555
La1 O5 2.622592 1_555
La1 O6 2.625747 1_455
La1 O2 2.627221 1_455
La1 O13 2.811479 1_555
La1 O14 2.813575 1_554
La1 O14 2.813629 1_555
La1 O13 2.815236 1_455
La2 O10 2.300116 1_555
La2 O2 2.622573 1_556
La2 O6 2.623798 1_555
La2 O5 2.624291 1_556
La2 O1 2.625993 1_555
La2 O14 2.812596 1_555
La2 O13 2.813413 1_556
La2 O13 2.813791 1_555
La2 O14 2.814231 1_655
La3 O11 2.299975 1_555
La3 O3 2.620522 1_556
La3 O4 2.623843 1_556
La3 O7 2.624013 1_545
La3 O0 2.627953 1_545
La3 O12 2.812003 1_556
La3 O15 2.812415 1_555
La3 O15 2.814454 1_455
La3 O12 2.815191 1_555
La4 O12 2.300141 1_555
La4 O2 2.621879 1_455
La4 O6 2.623036 1_455
La4 O5 2.625148 1_555
La4 O1 2.626713 1_555
La4 O8 2.812099 1_455
La4 O11 2.813287 1_555
La4 O11 2.813973 1_554
La4 O8 2.814646 1_555
La5 O13 2.300205 1_555
La5 O0 2.620677 1_554
La5 O4 2.623731 1_565
La5 O7 2.624141 1_554
La5 O3 2.627610 1_565
La5 O10 2.812245 1_554
La5 O9 2.812863 1_555
La5 O9 2.814016 1_655
La5 O10 2.814995 1_555
La6 O14 2.300026 1_555
La6 O3 2.621672 1_465
La6 O7 2.622518 1_455
La6 O4 2.625635 1_565
La6 O0 2.626742 1_555
La6 O10 2.812125 1_455
La6 O9 2.813318 1_556
La6 O9 2.813977 1_555
La6 O10 2.814667 1_555
La7 O15 2.299771 1_555
La7 O1 2.622300 1_555
La7 O6 2.624036 1_555
La7 O5 2.624226 1_556
La7 O2 2.626352 1_556
La7 O11 2.813035 1_655
La7 O8 2.813112 1_555
La7 O11 2.813751 1_555
La7 O8 2.814025 1_556
Co0 O3 1.949274 1_555
Co0 O0 1.949333 1_545
Co0 O7 1.949682 1_545
Co0 O4 1.949760 1_555
Co0 O12 2.317787 1_555
Co0 O10 2.317838 1_545
Co1 O1 1.949262 1_555
Co1 O2 1.949294 1_555
Co1 O5 1.949694 1_555
Co1 O6 1.949772 1_555
Co1 O8 2.317863 1_555
Co1 O13 2.317876 1_555
Co2 O2 1.949247 1_456
Co2 O1 1.949434 1_555
Co2 O6 1.949471 1_455
Co2 O5 1.949495 1_556
Co2 O14 2.318029 1_555
Co2 O11 2.318055 1_555
Co3 O0 1.949239 1_545
Co3 O3 1.949391 1_456
Co3 O7 1.949472 1_445
Co3 O4 1.949518 1_556
Co3 O9 2.318017 1_546
Co3 O15 2.318055 1_455
