# generated using pymatgen
data_Mn4V4O13
_symmetry_space_group_name_H-M   'P 1'
_cell_length_a   7.03049300
_cell_length_b   7.85935839
_cell_length_c   21.01462473
_cell_angle_alpha   92.30634993
_cell_angle_beta   99.41504027
_cell_angle_gamma   95.93267062
_symmetry_Int_Tables_number   1
_chemical_formula_structural   Mn4V4O13
_chemical_formula_sum   'Mn16 V16 O52'
_cell_volume   1137.45519439
_cell_formula_units_Z   4
loop_
 _symmetry_equiv_pos_site_id
 _symmetry_equiv_pos_as_xyz
  1  'x, y, z'
loop_
 _atom_site_type_symbol
 _atom_site_label
 _atom_site_symmetry_multiplicity
 _atom_site_fract_x
 _atom_site_fract_y
 _atom_site_fract_z
 _atom_site_occupancy
  Mn  Mn0  1  0.87358000  0.64023200  0.95413700  1
  Mn  Mn1  1  0.73345300  0.75402500  0.20261600  1
  Mn  Mn2  1  0.61672800  0.87750200  0.45724000  1
  Mn  Mn3  1  0.38327200  0.12249800  0.54276000  1
  Mn  Mn4  1  0.49904700  0.01439600  0.70454900  1
  Mn  Mn5  1  0.26654700  0.24597500  0.79738400  1
  Mn  Mn6  1  0.35960200  0.12846300  0.95406800  1
  Mn  Mn7  1  0.12642000  0.35976800  0.04586300  1
  Mn  Mn8  1  0.24696200  0.26798500  0.20349900  1
  Mn  Mn9  1  0.01940300  0.50442600  0.29692900  1
  Mn  Mn10  1  0.88501700  0.61040600  0.54809300  1
  Mn  Mn11  1  0.11498300  0.38959400  0.45190700  1
  Mn  Mn12  1  0.98059700  0.49557400  0.70307100  1
  Mn  Mn13  1  0.75303800  0.73201500  0.79650100  1
  Mn  Mn14  1  0.64039800  0.87153700  0.04593200  1
  Mn  Mn15  1  0.50095300  0.98560400  0.29545100  1
  V  V0  1  0.90117600  0.18944300  0.56491700  1
  V  V1  1  0.78509900  0.30601700  0.82612300  1
  V  V2  1  0.64530100  0.45431900  0.06354800  1
  V  V3  1  0.35469900  0.54568100  0.93645200  1
  V  V4  1  0.53733300  0.55964900  0.32546100  1
  V  V5  1  0.21490100  0.69398300  0.17387700  1
  V  V6  1  0.40460600  0.68035900  0.57771900  1
  V  V7  1  0.09882400  0.81055700  0.43508300  1
  V  V8  1  0.27045300  0.83196000  0.81286300  1
  V  V9  1  0.98565700  0.90826100  0.68944800  1
  V  V10  1  0.15973100  0.93312200  0.07600300  1
  V  V11  1  0.84026900  0.06687800  0.92399700  1
  V  V12  1  0.01434300  0.09173900  0.31055200  1
  V  V13  1  0.72954700  0.16804000  0.18713700  1
  V  V14  1  0.59539400  0.31964100  0.42228100  1
  V  V15  1  0.46266700  0.44035100  0.67453900  1
  O  O0  1  0.09126300  0.19413300  0.52150500  1
  O  O1  1  0.77613700  0.50564800  0.86167000  1
  O  O2  1  0.97239800  0.30716400  0.78251100  1
  O  O3  1  0.03941200  0.94724500  0.37387900  1
  O  O4  1  0.57981900  0.64530300  0.97799500  1
  O  O5  1  0.64220400  0.64469700  0.10697500  1
  O  O6  1  0.84434600  0.44237800  0.02594100  1
  O  O7  1  0.96058800  0.05275500  0.62612100  1
  O  O8  1  0.67617500  0.09932500  0.52340800  1
  O  O9  1  0.47123200  0.24366600  0.63654700  1
  O  O10  1  0.56613600  0.21227000  0.78418600  1
  O  O11  1  0.69303700  0.31424200  0.12586700  1
  O  O12  1  0.15565400  0.55762200  0.97405900  1
  O  O13  1  0.35779600  0.35530300  0.89302600  1
  O  O14  1  0.42018100  0.35469700  0.02200500  1
  O  O15  1  0.43386400  0.78773000  0.21581400  1
  O  O16  1  0.72519800  0.56301000  0.28204300  1
  O  O17  1  0.52876800  0.75633400  0.36345300  1
  O  O18  1  0.32382500  0.90067500  0.47659200  1
  O  O19  1  0.59669800  0.67728400  0.53711100  1
  O  O20  1  0.39873600  0.87583200  0.61599500  1
  O  O21  1  0.21005300  0.01315800  0.73205700  1
  O  O22  1  0.47440000  0.81658000  0.77820200  1
  O  O23  1  0.27054700  0.01881000  0.85860800  1
  O  O24  1  0.05883800  0.16250000  0.96540700  1
  O  O25  1  0.14881200  0.13252600  0.11148700  1
  O  O26  1  0.34747500  0.93500000  0.03262000  1
  O  O27  1  0.22386300  0.49435200  0.13833000  1
  O  O28  1  0.02760200  0.69283600  0.21748900  1
  O  O29  1  0.31733000  0.46536300  0.28451500  1
  O  O30  1  0.90873700  0.80586700  0.47849500  1
  O  O31  1  0.11007100  0.61691700  0.39535900  1
  O  O32  1  0.18662100  0.58311700  0.53547600  1
  O  O33  1  0.30696300  0.68575800  0.87413300  1
  O  O34  1  0.78108700  0.93191300  0.72233400  1
  O  O35  1  0.98095800  0.71950600  0.64414700  1
  O  O36  1  0.04293300  0.73148200  0.77025500  1
  O  O37  1  0.85118800  0.86747400  0.88851300  1
  O  O38  1  0.65252500  0.06500000  0.96738000  1
  O  O39  1  0.94116200  0.83750000  0.03459300  1
  O  O40  1  0.95706700  0.26851800  0.22974500  1
  O  O41  1  0.21891300  0.06808700  0.27766600  1
  O  O42  1  0.01904200  0.28049400  0.35585300  1
  O  O43  1  0.81337900  0.41688300  0.46452400  1
  O  O44  1  0.88992900  0.38308300  0.60464100  1
  O  O45  1  0.68267000  0.53463700  0.71548500  1
  O  O46  1  0.52560000  0.18342000  0.22179800  1
  O  O47  1  0.72945300  0.98119000  0.14139200  1
  O  O48  1  0.78994700  0.98684200  0.26794300  1
  O  O49  1  0.60126400  0.12416800  0.38400500  1
  O  O50  1  0.40330200  0.32271600  0.46288900  1
  O  O51  1  0.27480200  0.43699000  0.71795700  1
loop_
_geom_bond_atom_site_label_1
_geom_bond_atom_site_label_2
_geom_bond_distance
_geom_bond_site_symmetry_2
Mn0 O12 2.132132 1_655
Mn0 O1 2.147851 1_555
Mn0 O39 2.205006 1_556
Mn0 O4 2.207383 1_555
Mn0 O6 2.227423 1_556
Mn0 O37 2.302528 1_555
Mn1 O5 2.124761 1_555
Mn1 O28 2.147522 1_655
Mn1 O48 2.204479 1_555
Mn1 O15 2.209970 1_555
Mn1 O47 2.242119 1_555
Mn1 O16 2.293139 1_555
Mn2 O17 2.121835 1_555
Mn2 O8 2.147483 1_565
Mn2 O30 2.165715 1_555
Mn2 O18 2.187380 1_555
Mn2 O19 2.357398 1_555
Mn2 O49 2.523417 1_565
Mn3 O9 2.121835 1_555
Mn3 O18 2.147483 1_545
Mn3 O0 2.165715 1_555
Mn3 O8 2.187380 1_555
Mn3 O50 2.357398 1_555
Mn3 O20 2.523417 1_545
Mn4 O20 2.096458 1_545
Mn4 O34 2.129438 1_545
Mn4 O10 2.195993 1_555
Mn4 O21 2.200677 1_555
Mn4 O22 2.251339 1_545
Mn4 O9 2.348605 1_555
Mn5 O13 2.124779 1_555
Mn5 O2 2.147522 1_455
Mn5 O21 2.204479 1_555
Mn5 O10 2.209970 1_555
Mn5 O23 2.242119 1_555
Mn5 O51 2.293139 1_555
Mn6 O23 2.120697 1_555
Mn6 O38 2.145512 1_555
Mn6 O14 2.195751 1_556
Mn6 O24 2.208207 1_555
Mn6 O13 2.237750 1_555
Mn6 O26 2.294642 1_546
Mn7 O6 2.132132 1_455
Mn7 O27 2.147851 1_555
Mn7 O24 2.205006 1_554
Mn7 O14 2.207383 1_555
Mn7 O12 2.227423 1_554
Mn7 O25 2.302528 1_555
Mn8 O46 2.114330 1_555
Mn8 O25 2.143432 1_555
Mn8 O40 2.197146 1_455
Mn8 O29 2.214265 1_555
Mn8 O41 2.273752 1_555
Mn8 O27 2.291324 1_555
Mn9 O16 2.141245 1_455
Mn9 O31 2.184370 1_555
Mn9 O42 2.192323 1_555
Mn9 O29 2.203363 1_555
Mn9 O40 2.245422 1_455
Mn9 O28 2.279416 1_555
Mn10 O19 2.124929 1_555
Mn10 O35 2.135505 1_555
Mn10 O30 2.175895 1_555
Mn10 O44 2.185297 1_555
Mn10 O32 2.210401 1_655
Mn10 O43 2.233478 1_555
Mn11 O50 2.124929 1_555
Mn11 O42 2.135505 1_555
Mn11 O0 2.175895 1_555
Mn11 O31 2.185297 1_555
Mn11 O43 2.210401 1_455
Mn11 O32 2.233478 1_555
Mn12 O51 2.141245 1_655
Mn12 O44 2.184370 1_555
Mn12 O35 2.192323 1_555
Mn12 O45 2.203363 1_555
Mn12 O36 2.245422 1_655
Mn12 O2 2.279416 1_555
Mn13 O22 2.114330 1_555
Mn13 O37 2.143432 1_555
Mn13 O36 2.197146 1_655
Mn13 O45 2.214265 1_555
Mn13 O34 2.273752 1_555
Mn13 O1 2.291324 1_555
Mn14 O47 2.120697 1_555
Mn14 O26 2.145512 1_555
Mn14 O4 2.195751 1_554
Mn14 O39 2.208207 1_555
Mn14 O5 2.237763 1_555
Mn14 O38 2.294642 1_564
Mn15 O49 2.096458 1_565
Mn15 O41 2.129438 1_565
Mn15 O15 2.195993 1_555
Mn15 O48 2.200677 1_555
Mn15 O46 2.251339 1_565
Mn15 O17 2.348605 1_555
O0 V0 1.735226 1_455
O1 V1 1.721965 1_555
O2 V1 1.722516 1_555
O3 V7 1.735225 1_555
O3 V12 1.782696 1_565
O4 V3 1.765474 1_555
O4 V2 2.405524 1_556
O5 V2 1.724938 1_555
O6 V2 1.724720 1_555
O7 V0 1.735225 1_555
O7 V9 1.782696 1_545
O8 V0 1.741285 1_555
O9 V15 1.722278 1_555
O10 V1 1.720102 1_555
O11 V2 1.757370 1_555
O11 V13 1.765207 1_555
O12 V3 1.724720 1_555
O13 V3 1.724928 1_555
O14 V2 1.765474 1_555
O14 V3 2.405524 1_554
O15 V5 1.720102 1_555
O16 V4 1.722401 1_555
O17 V4 1.722278 1_555
O18 V7 1.741285 1_555
O19 V6 1.713127 1_555
O20 V6 1.712716 1_555
O21 V9 1.783216 1_445
O21 V8 2.275012 1_545
O22 V8 1.723809 1_555
O23 V8 1.722396 1_545
O24 V11 1.718865 1_455
O25 V10 1.722659 1_545
O26 V10 1.721730 1_555
O27 V5 1.721965 1_555
O28 V5 1.722516 1_555
O29 V4 1.719944 1_555
O30 V7 1.735226 1_655
O31 V7 1.721475 1_555
O32 V6 1.725976 1_555
O33 V3 1.757370 1_555
O33 V8 1.765207 1_555
O34 V9 1.717781 1_555
O35 V9 1.724537 1_555
O36 V8 1.788119 1_555
O36 V9 2.248992 1_455
O37 V11 1.722659 1_565
O38 V11 1.721730 1_555
O39 V10 1.718865 1_655
O40 V13 1.788119 1_555
O40 V12 2.248992 1_655
O41 V12 1.717781 1_555
O42 V12 1.724537 1_555
O43 V14 1.725976 1_555
O44 V0 1.721475 1_555
O45 V15 1.719944 1_555
O46 V13 1.723809 1_555
O47 V13 1.722396 1_565
O48 V12 1.783216 1_665
O48 V13 2.275012 1_565
O49 V14 1.712716 1_555
O50 V14 1.713127 1_555
O51 V15 1.722401 1_555
