# generated using pymatgen
data_Na2Al17Si11B7(H3O31)2
_symmetry_space_group_name_H-M   'P 1'
_cell_length_a   9.48462200
_cell_length_b   9.48934624
_cell_length_c   13.27223718
_cell_angle_alpha   98.59834035
_cell_angle_beta   98.76401364
_cell_angle_gamma   114.40693545
_symmetry_Int_Tables_number   1
_chemical_formula_structural   Na2Al17Si11B7(H3O31)2
_chemical_formula_sum   'Na2 Al17 Si11 B7 H6 O62'
_cell_volume   1044.69996040
_cell_formula_units_Z   1
loop_
 _symmetry_equiv_pos_site_id
 _symmetry_equiv_pos_as_xyz
  1  'x, y, z'
loop_
 _atom_site_type_symbol
 _atom_site_label
 _atom_site_symmetry_multiplicity
 _atom_site_fract_x
 _atom_site_fract_y
 _atom_site_fract_z
 _atom_site_occupancy
  Na  Na0  1  0.39716600  0.39689000  0.39690500  1
  Na  Na1  1  0.86430400  0.85759100  0.85689300  1
  Al  Al0  1  0.86649200  0.43104300  0.19262900  1
  Al  Al1  1  0.36523400  0.59104500  0.02962200  1
  Al  Al2  1  0.01366500  0.19547000  0.19391300  1
  Al  Al3  1  0.28727000  0.28484900  0.10339600  1
  Al  Al4  1  0.59850100  0.37548800  0.03081800  1
  Al  Al5  1  0.75422300  0.08607800  0.31086300  1
  Al  Al6  1  0.35902300  0.91996700  0.69789800  1
  Al  Al7  1  0.86649100  0.08049800  0.53584200  1
  Al  Al8  1  0.18371500  0.00320100  0.18872100  1
  Al  Al9  1  0.51920700  0.68912200  0.67936500  1
  Al  Al10  1  0.07928700  0.86488300  0.53408600  1
  Al  Al11  1  0.25325200  0.58810500  0.80828800  1
  Al  Al12  1  0.42510500  0.86705800  0.19559400  1
  Al  Al13  1  0.07883800  0.75247500  0.30629000  1
  Al  Al14  1  0.68860300  0.51861100  0.68036500  1
  Al  Al15  1  0.58643900  0.25292700  0.80842500  1
  Al  Al16  1  0.91983100  0.36003800  0.69856100  1
  Si  Si0  1  0.70781800  0.88254500  0.07886500  1
  Si  Si1  1  0.77335800  0.58583100  0.39054500  1
  Si  Si2  1  0.67013000  0.29040700  0.48218900  1
  Si  Si3  1  0.19610400  0.39093200  0.57842300  1
  Si  Si4  1  0.26684500  0.07841600  0.88990800  1
  Si  Si5  1  0.38893000  0.19656300  0.57854800  1
  Si  Si6  1  0.16042200  0.78260200  0.98701300  1
  Si  Si7  1  0.58585800  0.77502100  0.39050500  1
  Si  Si8  1  0.28919600  0.67236200  0.48136500  1
  Si  Si9  1  0.08179500  0.26744300  0.88795800  1
  Si  Si10  1  0.78977500  0.16927400  0.98492400  1
  B  B0  1  0.20413500  0.53313100  0.20181600  1
  B  B1  1  0.89277500  0.69586900  0.08071900  1
  B  B2  1  0.69552300  0.02448600  0.70510900  1
  B  B3  1  0.53247400  0.20371200  0.19939000  1
  B  B4  1  0.03641700  0.03735700  0.36445800  1
  B  B5  1  0.02381200  0.69516100  0.70421400  1
  B  B6  1  0.53849700  0.53860700  0.86387800  1
  H  H0  1  0.98725600  0.36220800  0.35889400  1
  H  H1  1  0.55224800  0.55271400  0.17282700  1
  H  H2  1  0.47851900  0.86201400  0.85915700  1
  H  H3  1  0.03013700  0.02810800  0.66678900  1
  H  H4  1  0.35565600  0.98722700  0.35825300  1
  H  H5  1  0.85946800  0.48031000  0.86070400  1
  O  O0  1  0.27467400  0.89837200  0.10151800  1
  O  O1  1  0.01071400  0.80406400  0.17977000  1
  O  O2  1  0.52183700  0.80194300  0.08806900  1
  O  O3  1  0.87350800  0.58586400  0.29997200  1
  O  O4  1  0.31040500  0.64140400  0.15861500  1
  O  O5  1  0.08866700  0.56670800  0.23448200  1
  O  O6  1  0.77018400  0.75217200  0.04714100  1
  O  O7  1  0.67189000  0.39896700  0.39684900  1
  O  O8  1  0.76862700  0.39254100  0.60128500  1
  O  O9  1  0.51645800  0.31161100  0.68779800  1
  O  O10  1  0.19549600  0.48034000  0.47988300  1
  O  O11  1  0.62875300  0.62997300  0.34189800  1
  O  O12  1  0.48566500  0.48640600  0.10312800  1
  O  O13  1  0.91436100  0.29449600  0.29122400  1
  O  O14  1  0.20848800  0.38894900  0.20578700  1
  O  O15  1  0.80946500  0.52949500  0.08993100  1
  O  O16  1  0.73623500  0.16610500  0.44252100  1
  O  O17  1  0.37363700  0.09068400  0.80467700  1
  O  O18  1  0.01354100  0.30295000  0.58932400  1
  O  O19  1  0.81244500  0.13498900  0.66646300  1
  O  O20  1  0.57852800  0.06768800  0.73081200  1
  O  O21  1  0.10255900  0.10468500  0.10141700  1
  O  O22  1  0.17734700  0.89648300  0.90318100  1
  O  O23  1  0.25915800  0.26049200  0.53763400  1
  O  O24  1  0.64165600  0.31175700  0.15740000  1
  O  O25  1  0.92231300  0.07216900  0.39855200  1
  O  O26  1  0.11643300  0.11572700  0.29396300  1
  O  O27  1  0.38782300  0.20577600  0.20390100  1
  O  O28  1  0.47816700  0.19596800  0.48012500  1
  O  O29  1  0.70918200  0.97808000  0.98303300  1
  O  O30  1  0.11699400  0.11620400  0.84569300  1
  O  O31  1  0.69628300  0.89106900  0.49811100  1
  O  O32  1  0.89938500  0.27431800  0.10198800  1
  O  O33  1  0.39484100  0.79646400  0.79581400  1
  O  O34  1  0.01389900  0.01341100  0.59098900  1
  O  O35  1  0.68956700  0.88496500  0.72039000  1
  O  O36  1  0.56813300  0.08821300  0.23179400  1
  O  O37  1  0.06724800  0.92008300  0.39642700  1
  O  O38  1  0.22837200  0.65642100  0.94714900  1
  O  O39  1  0.30164200  0.01391900  0.58906200  1
  O  O40  1  0.29140600  0.91333800  0.29019600  1
  O  O41  1  0.88911800  0.69584200  0.49834500  1
  O  O42  1  0.81596300  0.01815000  0.18769400  1
  O  O43  1  0.56164000  0.56149400  0.58948200  1
  O  O44  1  0.13416400  0.81153900  0.66533800  1
  O  O45  1  0.42288900  0.57234600  0.89991900  1
  O  O46  1  0.61332900  0.61351700  0.79285700  1
  O  O47  1  0.88429800  0.68917300  0.71932600  1
  O  O48  1  0.16438400  0.73794800  0.44131300  1
  O  O49  1  0.58693400  0.87564400  0.29929600  1
  O  O50  1  0.97480900  0.69764600  0.99104900  1
  O  O51  1  0.20663600  0.37464900  0.00075800  1
  O  O52  1  0.39285500  0.77017400  0.60051500  1
  O  O53  1  0.39858200  0.67485100  0.39642800  1
  O  O54  1  0.06716700  0.57854800  0.73050800  1
  O  O55  1  0.56901000  0.42083200  0.89862400  1
  O  O56  1  0.79583300  0.39689900  0.79640300  1
  O  O57  1  0.31216600  0.51866000  0.68743900  1
  O  O58  1  0.37618900  0.20711700  0.00075500  1
  O  O59  1  0.09485300  0.37473300  0.80323000  1
  O  O60  1  0.65786000  0.23020200  0.94757500  1
  O  O61  1  0.89940600  0.18499200  0.90033700  1
loop_
_geom_bond_atom_site_label_1
_geom_bond_atom_site_label_2
_geom_bond_distance
_geom_bond_site_symmetry_2
Na0 O7 2.597686 1_555
Na0 O53 2.633108 1_555
Na0 O23 2.635341 1_555
Na0 O43 2.642647 1_555
Na0 O28 2.650854 1_555
Na0 O10 2.670497 1_555
Na0 O11 2.684446 1_555
Na0 O26 2.829364 1_555
Na0 O14 2.844368 1_555
Na0 O27 2.875326 1_555
Na1 O47 2.325342 1_555
Na1 O35 2.382846 1_555
Na1 O46 2.447768 1_555
Na1 O30 2.673106 1_665
Na1 O22 2.792836 1_655
Na1 O29 2.800569 1_555
Na1 O50 2.850712 1_555
Na1 O61 2.940524 1_565
Na1 O6 2.979510 1_556
Al0 O3 1.859303 1_555
Al0 O24 1.894844 1_555
Al0 O5 1.895759 1_655
Al0 O15 1.896559 1_555
Al0 O32 1.928527 1_555
Al0 O13 2.099902 1_555
Al1 O2 1.881794 1_555
Al1 O45 1.889342 1_554
Al1 O4 1.913603 1_555
Al1 O51 1.913794 1_555
Al1 O38 1.924481 1_554
Al1 O12 2.032207 1_555
Al2 O21 1.886677 1_555
Al2 O42 1.912591 1_455
Al2 O32 1.939949 1_455
Al2 O26 1.949758 1_555
Al2 O14 1.957334 1_555
Al2 O13 2.043873 1_455
Al3 O21 1.868164 1_555
Al3 O58 1.917002 1_555
Al3 O51 1.932600 1_555
Al3 O27 1.937773 1_555
Al3 O14 1.974581 1_555
Al3 O12 2.056394 1_555
Al4 O15 1.875394 1_555
Al4 O55 1.875458 1_554
Al4 O24 1.911698 1_555
Al4 O60 1.952916 1_554
Al4 O58 1.981607 1_555
Al4 O12 2.028816 1_555
Al5 O16 1.860196 1_555
Al5 O25 1.888924 1_555
Al5 O36 1.920516 1_555
Al5 O42 1.928552 1_555
Al5 O49 1.935015 1_545
Al5 O13 2.019557 1_555
Al6 O44 1.888528 1_555
Al6 O20 1.902135 1_565
Al6 O17 1.928760 1_565
Al6 O39 1.929799 1_565
Al6 O52 1.935967 1_555
Al6 O33 1.956447 1_555
Al7 O31 1.781687 1_545
Al7 O34 1.859773 1_655
Al7 O18 1.929310 1_655
Al7 O19 1.938411 1_555
Al7 O25 1.972887 1_555
Al7 O16 2.093862 1_555
Al8 O21 1.880690 1_555
Al8 O1 1.894299 1_545
Al8 O0 1.934576 1_545
Al8 O26 1.971610 1_555
Al8 O27 2.042890 1_555
Al8 O40 2.056293 1_545
Al9 O43 1.780167 1_555
Al9 O35 1.818986 1_555
Al9 O52 1.934726 1_555
Al9 O57 1.993745 1_555
Al9 O46 2.005804 1_555
Al9 O33 2.428043 1_555
Al10 O41 1.781026 1_455
Al10 O34 1.867707 1_565
Al10 O39 1.933342 1_565
Al10 O44 1.940838 1_555
Al10 O37 1.974215 1_555
Al10 O48 2.069117 1_555
Al11 O54 1.863718 1_555
Al11 O57 1.892217 1_555
Al11 O33 1.926503 1_555
Al11 O45 1.935725 1_555
Al11 O38 1.942751 1_555
Al11 O59 1.943176 1_555
Al12 O49 1.864467 1_555
Al12 O0 1.897749 1_555
Al12 O4 1.899332 1_555
Al12 O36 1.903266 1_565
Al12 O2 1.965699 1_555
Al12 O40 2.039101 1_555
Al13 O37 1.894346 1_555
Al13 O48 1.900530 1_555
Al13 O1 1.911399 1_555
Al13 O3 1.914512 1_455
Al13 O5 1.919641 1_555
Al13 O40 2.031224 1_555
Al14 O43 1.783189 1_555
Al14 O47 1.818422 1_555
Al14 O8 1.930431 1_555
Al14 O9 1.997630 1_555
Al14 O46 2.001010 1_555
Al14 O56 2.401144 1_555
Al15 O20 1.866174 1_555
Al15 O9 1.887342 1_555
Al15 O55 1.925290 1_555
Al15 O56 1.937948 1_555
Al15 O60 1.942869 1_555
Al15 O17 1.955750 1_555
Al16 O19 1.891475 1_555
Al16 O54 1.895774 1_655
Al16 O8 1.933668 1_555
Al16 O18 1.934209 1_655
Al16 O59 1.937265 1_655
Al16 O56 1.965035 1_555
B0 O5 1.371368 1_555
B0 O4 1.377220 1_555
B0 O14 1.394280 1_555
B1 O15 1.479204 1_555
B1 O1 1.494256 1_655
B1 O6 1.504224 1_555
B1 O50 1.516373 1_554
B2 O35 1.348768 1_545
B2 O20 1.401877 1_555
B2 O19 1.401992 1_555
B3 O24 1.379643 1_555
B3 O36 1.379693 1_555
B3 O27 1.390370 1_555
B4 O37 1.369781 1_545
B4 O25 1.372991 1_455
B4 O26 1.400864 1_555
B5 O47 1.347798 1_455
B5 O44 1.400355 1_555
B5 O54 1.401140 1_555
B6 O46 1.372892 1_555
B6 O55 1.387879 1_555
B6 O45 1.392044 1_555
H0 O13 0.984173 1_555
H1 O12 0.984891 1_555
H2 O33 0.977706 1_555
H3 O34 0.973837 1_555
H4 O40 0.984197 1_555
H5 O56 0.982522 1_555
O0 Si6 1.644949 1_554
O2 Si0 1.640148 1_555
O3 Si1 1.641697 1_555
O6 Si0 1.607061 1_555
O7 Si2 1.638555 1_555
O7 Si1 1.654106 1_555
O8 Si2 1.629187 1_555
O9 Si5 1.630423 1_555
O10 Si8 1.660159 1_555
O10 Si3 1.662483 1_555
O11 Si7 1.659358 1_555
O11 Si1 1.661088 1_555
O16 Si2 1.608634 1_555
O17 Si4 1.615609 1_555
O18 Si3 1.622943 1_555
O22 Si4 1.630190 1_565
O22 Si6 1.643819 1_555
O23 Si5 1.640049 1_555
O23 Si3 1.641009 1_555
O28 Si2 1.657655 1_555
O28 Si5 1.661762 1_555
O29 Si10 1.646525 1_565
O29 Si0 1.667295 1_556
O30 Si9 1.642594 1_555
O30 Si4 1.650133 1_555
O31 Si7 1.571636 1_555
O32 Si10 1.636052 1_554
O38 Si6 1.637441 1_555
O39 Si5 1.621869 1_555
O41 Si1 1.571551 1_555
O42 Si0 1.642017 1_545
O48 Si8 1.608518 1_555
O49 Si7 1.648817 1_555
O50 Si6 1.618883 1_655
O51 Si9 1.639267 1_554
O52 Si8 1.631586 1_555
O53 Si8 1.640688 1_555
O53 Si7 1.653573 1_555
O57 Si3 1.631545 1_555
O58 Si4 1.637850 1_554
O59 Si9 1.611531 1_555
O60 Si10 1.624788 1_555
O61 Si9 1.624244 1_655
O61 Si10 1.625249 1_555
