# generated using pymatgen
data_K3Sn5Cl3F10
_symmetry_space_group_name_H-M   'P 1'
_cell_length_a   9.87034570
_cell_length_b   9.87034570
_cell_length_c   20.52697469
_cell_angle_alpha   90.00000000
_cell_angle_beta   90.00000000
_cell_angle_gamma   154.92955179
_symmetry_Int_Tables_number   1
_chemical_formula_structural   K3Sn5Cl3F10
_chemical_formula_sum   'K6 Sn10 Cl6 F20'
_cell_volume   847.38591402
_cell_formula_units_Z   2
loop_
 _symmetry_equiv_pos_site_id
 _symmetry_equiv_pos_as_xyz
  1  'x, y, z'
loop_
 _atom_site_type_symbol
 _atom_site_label
 _atom_site_symmetry_multiplicity
 _atom_site_fract_x
 _atom_site_fract_y
 _atom_site_fract_z
 _atom_site_occupancy
  K  K0  1  -0.00000000  0.00000000  -0.00000000  1
  K  K1  1  0.55973126  0.44026874  0.16327915  1
  K  K2  1  0.55973126  0.44026874  0.33672085  1
  K  K3  1  0.44026874  0.55973126  0.66327915  1
  K  K4  1  0.44026874  0.55973126  0.83672085  1
  K  K5  1  -0.00000000  0.00000000  0.50000000  1
  Sn  Sn0  1  0.20360848  0.79639152  0.25000000  1
  Sn  Sn1  1  0.79639152  0.20360848  0.75000000  1
  Sn  Sn2  1  0.87127532  0.12872468  0.14985833  1
  Sn  Sn3  1  0.12872468  0.87127532  0.85014167  1
  Sn  Sn4  1  0.67191435  0.32808565  0.50028477  1
  Sn  Sn5  1  0.32808565  0.67191435  0.00028477  1
  Sn  Sn6  1  0.87127532  0.12872468  0.35014167  1
  Sn  Sn7  1  0.67191435  0.32808565  -0.00028477  1
  Sn  Sn8  1  0.12872468  0.87127532  0.64985833  1
  Sn  Sn9  1  0.32808565  0.67191435  0.49971523  1
  Cl  Cl0  1  0.82004001  0.17995999  0.88633343  1
  Cl  Cl1  1  0.57624447  0.42375453  0.75000000  1
  Cl  Cl2  1  0.42375453  0.57624447  0.25000000  1
  Cl  Cl3  1  0.17995999  0.82004001  0.11366657  1
  Cl  Cl4  1  0.17995999  0.82004001  0.38633343  1
  Cl  Cl5  1  0.82004001  0.17995999  0.61366657  1
  F  F0  1  0.85959975  0.14040025  0.03780101  1
  F  F1  1  0.97418201  0.02581799  0.12832834  1
  F  F2  1  0.62411880  0.37588120  0.60122028  1
  F  F3  1  0.90409312  0.09590688  0.75000000  1
  F  F4  1  0.14040025  0.85959975  0.96219899  1
  F  F5  1  0.97418201  0.02581799  0.37167166  1
  F  F6  1  0.02581799  0.97418201  0.87167166  1
  F  F7  1  0.02581799  0.97418201  0.62832834  1
  F  F8  1  0.32863419  0.67136581  0.75000000  1
  F  F9  1  0.42745655  0.57254345  0.53300236  1
  F  F10  1  0.37588120  0.62411880  0.10122028  1
  F  F11  1  0.67136581  0.32863419  0.25000000  1
  F  F12  1  0.57254345  0.42745655  0.46699764  1
  F  F13  1  0.37588120  0.62411880  0.39877972  1
  F  F14  1  0.14040025  0.85959975  0.53780101  1
  F  F15  1  0.57254345  0.42745655  0.03300236  1
  F  F16  1  0.62411880  0.37588120  0.89877972  1
  F  F17  1  0.85959975  0.14040025  0.46219899  1
  F  F18  1  0.09590688  0.90409312  0.25000000  1
  F  F19  1  0.42745655  0.57254345  0.96699764  1
loop_
_geom_bond_atom_site_label_1
_geom_bond_atom_site_label_2
_geom_bond_distance
_geom_bond_site_symmetry_2
Cl0 Sn1 2.835374 1_555
Cl0 K4 3.315730 1_655
Cl0 K4 3.315730 1_545
Cl1 Sn8 3.136476 1_545
Cl1 Sn3 3.136476 1_545
Cl1 Sn8 3.136479 1_655
Cl1 Sn3 3.136479 1_655
Cl1 K3 3.167756 1_555
Cl1 K4 3.167756 1_555
Cl2 Sn2 3.136476 1_455
Cl2 Sn6 3.136476 1_455
Cl2 Sn2 3.136479 1_565
Cl2 Sn6 3.136479 1_565
Cl2 K1 3.167756 1_555
Cl2 K2 3.167756 1_555
Cl3 Sn0 2.835374 1_555
Cl3 K1 3.315730 1_455
Cl3 K1 3.315730 1_565
Cl4 Sn0 2.835374 1_555
Cl4 K2 3.315730 1_565
Cl4 K2 3.315730 1_455
Cl5 Sn1 2.835374 1_555
Cl5 K3 3.315730 1_655
Cl5 K3 3.315730 1_545
F0 Sn2 2.311175 1_555
F0 Sn5 2.356078 1_545
F0 Sn5 2.356078 1_655
F0 K0 2.814601 1_655
F1 Sn2 2.031675 1_555
F1 K0 2.680763 1_655
F1 K1 2.796727 1_545
F1 K1 2.796727 1_655
F2 Sn4 2.267391 1_555
F2 Sn8 2.365149 1_545
F2 Sn8 2.365149 1_655
F3 Sn1 2.075424 1_555
F3 K3 2.871244 1_655
F3 K3 2.871244 1_545
F3 K4 2.871244 1_655
F3 K4 2.871244 1_545
F4 Sn3 2.311175 1_555
F4 Sn7 2.356078 1_456
F4 Sn7 2.356078 1_566
F4 K0 2.814601 1_566
F5 Sn6 2.031675 1_555
F5 K5 2.680763 1_655
F5 K2 2.796727 1_545
F5 K2 2.796727 1_655
F6 Sn3 2.031675 1_555
F6 K0 2.680763 1_566
F6 K4 2.796727 1_455
F6 K4 2.796727 1_565
F7 Sn8 2.031675 1_555
F7 K5 2.680763 1_565
F7 K3 2.796727 1_565
F7 K3 2.796727 1_455
F8 Sn1 2.230540 1_565
F8 Sn1 2.230540 1_455
F8 K3 2.792226 1_555
F8 K4 2.792226 1_555
F9 Sn9 2.033146 1_555
F9 K5 2.646200 1_665
F9 K5 2.646200 1_555
F9 K3 2.685561 1_555
F10 Sn5 2.267391 1_555
F10 Sn2 2.365149 1_455
F10 Sn2 2.365149 1_565
F11 Sn0 2.230540 1_655
F11 Sn0 2.230540 1_545
F11 K1 2.792226 1_555
F11 K2 2.792226 1_555
F12 Sn4 2.033146 1_555
F12 K5 2.646200 1_665
F12 K5 2.646200 1_555
F12 K2 2.685561 1_555
F13 Sn9 2.267391 1_555
F13 Sn6 2.365149 1_455
F13 Sn6 2.365149 1_565
F14 Sn8 2.311175 1_555
F14 Sn4 2.356078 1_565
F14 Sn4 2.356078 1_455
F14 K5 2.814601 1_565
F15 Sn7 2.033146 1_555
F15 K0 2.646200 1_665
F15 K0 2.646200 1_555
F15 K1 2.685561 1_555
F16 Sn7 2.267391 1_556
F16 Sn3 2.365149 1_545
F16 Sn3 2.365149 1_655
F17 Sn6 2.311175 1_555
F17 Sn9 2.356078 1_655
F17 Sn9 2.356078 1_545
F17 K5 2.814601 1_655
F18 Sn0 2.075424 1_555
F18 K1 2.871244 1_455
F18 K2 2.871244 1_455
F18 K2 2.871244 1_565
F18 K1 2.871244 1_565
F19 Sn5 2.033146 1_556
F19 K0 2.646200 1_666
F19 K0 2.646200 1_556
F19 K4 2.685561 1_555
