# generated using pymatgen
data_Ba4Nb2(OF4)3
_symmetry_space_group_name_H-M   'P 1'
_cell_length_a   13.32919392
_cell_length_b   13.32919392
_cell_length_c   15.25237917
_cell_angle_alpha   69.20348457
_cell_angle_beta   69.20348457
_cell_angle_gamma   60.00635376
_symmetry_Int_Tables_number   1
_chemical_formula_structural   Ba4Nb2(OF4)3
_chemical_formula_sum   'Ba24 Nb12 O18 F72'
_cell_volume   2140.62982245
_cell_formula_units_Z   6
loop_
 _symmetry_equiv_pos_site_id
 _symmetry_equiv_pos_as_xyz
  1  'x, y, z'
loop_
 _atom_site_type_symbol
 _atom_site_label
 _atom_site_symmetry_multiplicity
 _atom_site_fract_x
 _atom_site_fract_y
 _atom_site_fract_z
 _atom_site_occupancy
  Ba  Ba0  1  0.08299700  0.76348300  0.38999900  1
  Ba  Ba1  1  0.59032600  0.57805700  0.11282100  1
  Ba  Ba2  1  0.91602000  0.56207300  0.16942200  1
  Ba  Ba3  1  0.42194300  0.40967400  0.38717900  1
  Ba  Ba4  1  0.91700300  0.23651700  0.61000100  1
  Ba  Ba5  1  0.56207300  0.91602000  0.66942200  1
  Ba  Ba6  1  0.24192000  0.56934400  0.15898700  1
  Ba  Ba7  1  0.91800600  0.90860300  0.64258700  1
  Ba  Ba8  1  0.76348300  0.08299700  0.88999900  1
  Ba  Ba9  1  0.91467800  0.25099500  0.11146200  1
  Ba  Ba10  1  0.74900500  0.08532200  0.38853800  1
  Ba  Ba11  1  0.40967400  0.42194300  0.88717900  1
  Ba  Ba12  1  0.56934400  0.24192000  0.65898700  1
  Ba  Ba13  1  0.57805700  0.59032600  0.61282100  1
  Ba  Ba14  1  0.90860300  0.91800600  0.14258700  1
  Ba  Ba15  1  0.75808000  0.43065600  0.84101300  1
  Ba  Ba16  1  0.43065600  0.75808000  0.34101300  1
  Ba  Ba17  1  0.09139700  0.08199400  0.85741300  1
  Ba  Ba18  1  0.43792700  0.08398000  0.33057800  1
  Ba  Ba19  1  0.08398000  0.43792700  0.83057800  1
  Ba  Ba20  1  0.25099500  0.91467800  0.61146200  1
  Ba  Ba21  1  0.08199400  0.09139700  0.35741300  1
  Ba  Ba22  1  0.08532200  0.74900500  0.88853800  1
  Ba  Ba23  1  0.23651700  0.91700300  0.11000100  1
  Nb  Nb0  1  0.28218400  0.19579600  0.61112500  1
  Nb  Nb1  1  0.80420400  0.71781600  0.88887500  1
  Nb  Nb2  1  0.40044000  0.12486600  0.91323300  1
  Nb  Nb3  1  0.27321100  0.60512700  0.60210400  1
  Nb  Nb4  1  0.72678900  0.39487300  0.39789600  1
  Nb  Nb5  1  0.71781600  0.80420400  0.38887500  1
  Nb  Nb6  1  0.39487300  0.72678900  0.89789600  1
  Nb  Nb7  1  0.59956000  0.87513400  0.08676700  1
  Nb  Nb8  1  0.87513400  0.59956000  0.58676700  1
  Nb  Nb9  1  0.12486600  0.40044000  0.41323300  1
  Nb  Nb10  1  0.19579600  0.28218400  0.11112500  1
  Nb  Nb11  1  0.60512700  0.27321100  0.10210400  1
  O  O0  1  0.17736500  0.53471300  0.65360900  1
  O  O1  1  0.57974700  0.81022500  0.39185700  1
  O  O2  1  0.71580700  0.91716900  0.06484600  1
  O  O3  1  0.67345600  0.76816200  0.99360900  1
  O  O4  1  0.23183800  0.32654400  0.50639100  1
  O  O5  1  0.46528700  0.82263500  0.84639100  1
  O  O6  1  0.42025300  0.18977500  0.60814300  1
  O  O7  1  0.18977500  0.42025300  0.10814300  1
  O  O8  1  0.53471300  0.17736500  0.15360900  1
  O  O9  1  0.32654400  0.23183800  0.00639100  1
  O  O10  1  0.76816200  0.67345600  0.49360900  1
  O  O11  1  0.00000000  0.50000000  0.50000000  1
  O  O12  1  0.81022500  0.57974700  0.89185700  1
  O  O13  1  0.08283100  0.28419400  0.43515400  1
  O  O14  1  0.82263500  0.46528700  0.34639100  1
  O  O15  1  0.91716900  0.71580600  0.56484600  1
  O  O16  1  0.50000000  0.00000000  0.00000000  1
  O  O17  1  0.28419400  0.08283100  0.93515400  1
  F  F0  1  0.03729300  0.04790100  0.04731700  1
  F  F1  1  0.04790100  0.03729300  0.54731700  1
  F  F2  1  0.52190400  0.18726700  0.38220900  1
  F  F3  1  0.29708800  0.96737200  0.40851700  1
  F  F4  1  0.65111200  0.91976100  0.47498900  1
  F  F5  1  0.18726700  0.52190400  0.88220900  1
  F  F6  1  0.62199100  0.28959800  0.46192400  1
  F  F7  1  0.95209900  0.96270700  0.45268300  1
  F  F8  1  0.96737200  0.29708800  0.90851700  1
  F  F9  1  0.87138800  0.84188300  0.35693000  1
  F  F10  1  0.45898000  0.80784700  0.13861400  1
  F  F11  1  0.70418700  0.37637900  0.54474700  1
  F  F12  1  0.15811700  0.12861200  0.14307000  1
  F  F13  1  0.11701100  0.78522600  0.19969400  1
  F  F14  1  0.12861200  0.15811700  0.64307000  1
  F  F15  1  0.19215300  0.54102000  0.36138600  1
  F  F16  1  0.78522600  0.11701100  0.69969400  1
  F  F17  1  0.54931500  0.58888900  0.93877100  1
  F  F18  1  0.95116800  0.04883200  0.25000000  1
  F  F19  1  0.47600600  0.61500100  0.80429200  1
  F  F20  1  0.03262800  0.70291200  0.09148300  1
  F  F21  1  0.71622900  0.66288100  0.68479300  1
  F  F22  1  0.70291200  0.03262800  0.59148300  1
  F  F23  1  0.05988600  0.50340900  0.29391700  1
  F  F24  1  0.84188300  0.87138800  0.85693000  1
  F  F25  1  0.71040200  0.37800900  0.03807600  1
  F  F26  1  0.08023900  0.34888800  0.02501100  1
  F  F27  1  0.38499900  0.52399400  0.69570800  1
  F  F28  1  0.88298900  0.21477400  0.80030600  1
  F  F29  1  0.31478400  0.03508800  0.71292700  1
  F  F30  1  0.86002300  0.23452700  0.45047200  1
  F  F31  1  0.80784700  0.45898000  0.63861400  1
  F  F32  1  0.23452700  0.86002300  0.95047200  1
  F  F33  1  0.96270700  0.95209900  0.95268300  1
  F  F34  1  0.04883200  0.95116800  0.75000000  1
  F  F35  1  0.13997700  0.76547300  0.54952800  1
  F  F36  1  0.54102000  0.19215300  0.86138600  1
  F  F37  1  0.37800900  0.71040200  0.53807600  1
  F  F38  1  0.66288100  0.71622900  0.18479300  1
  F  F39  1  0.20089300  0.71165300  0.69866400  1
  F  F40  1  0.28959800  0.62199100  0.96192400  1
  F  F41  1  0.28834700  0.79910700  0.80133600  1
  F  F42  1  0.73057100  0.81960300  0.77628300  1
  F  F43  1  0.68521600  0.96491200  0.28707300  1
  F  F44  1  0.18039700  0.26942900  0.72371700  1
  F  F45  1  0.29581300  0.62362100  0.45525300  1
  F  F46  1  0.79910700  0.28834700  0.30133600  1
  F  F47  1  0.41111100  0.45068500  0.56122900  1
  F  F48  1  0.81960300  0.73057100  0.27628300  1
  F  F49  1  0.47809600  0.81273300  0.61779100  1
  F  F50  1  0.52399400  0.38499900  0.19570800  1
  F  F51  1  0.61100100  0.38899900  0.75000000  1
  F  F52  1  0.62362100  0.29581300  0.95525300  1
  F  F53  1  0.76547300  0.13997700  0.04952800  1
  F  F54  1  0.33711900  0.28377100  0.81520700  1
  F  F55  1  0.71165300  0.20089300  0.19866400  1
  F  F56  1  0.61500100  0.47600600  0.30429200  1
  F  F57  1  0.28377100  0.33711900  0.31520700  1
  F  F58  1  0.34888800  0.08023900  0.52501100  1
  F  F59  1  0.91976100  0.65111200  0.97498900  1
  F  F60  1  0.94011400  0.49659100  0.70608300  1
  F  F61  1  0.45068500  0.41111100  0.06122900  1
  F  F62  1  0.96491200  0.68521600  0.78707300  1
  F  F63  1  0.03508800  0.31478400  0.21292700  1
  F  F64  1  0.58888900  0.54931500  0.43877100  1
  F  F65  1  0.21477400  0.88298900  0.30030600  1
  F  F66  1  0.38899900  0.61100100  0.25000000  1
  F  F67  1  0.50340900  0.05988600  0.79391700  1
  F  F68  1  0.37637900  0.70418700  0.04474700  1
  F  F69  1  0.81273300  0.47809600  0.11779100  1
  F  F70  1  0.49659100  0.94011400  0.20608300  1
  F  F71  1  0.26942900  0.18039700  0.22371700  1
loop_
_geom_bond_atom_site_label_1
_geom_bond_atom_site_label_2
_geom_bond_distance
_geom_bond_site_symmetry_2
Ba0 F9 2.644065 1_455
Ba0 F7 2.644982 1_455
Ba0 F65 2.652882 1_555
Ba0 F15 2.693443 1_555
Ba0 F13 2.704477 1_555
Ba0 F35 2.806462 1_555
Ba0 F45 2.812951 1_555
Ba0 O15 2.901151 1_455
Ba1 F69 2.589988 1_555
Ba1 F66 2.694272 1_555
Ba1 F25 2.750903 1_555
Ba1 F10 2.757995 1_555
Ba1 F56 2.810879 1_555
Ba1 F17 2.836611 1_554
Ba1 F68 2.847193 1_555
Ba1 F50 2.858812 1_555
Ba1 O3 3.009918 1_554
Ba1 F38 3.082620 1_555
Ba2 F69 2.589407 1_555
Ba2 O14 2.691910 1_555
Ba2 F20 2.715449 1_655
Ba2 F48 2.752920 1_555
Ba2 F59 2.767762 1_554
Ba2 F63 2.790743 1_655
Ba2 F23 2.815392 1_655
Ba2 F38 2.917270 1_555
Ba2 O7 3.114178 1_655
Ba3 F2 2.589988 1_555
Ba3 F66 2.694272 1_555
Ba3 F6 2.750903 1_555
Ba3 F15 2.757995 1_555
Ba3 F50 2.810879 1_555
Ba3 F47 2.836611 1_555
Ba3 F45 2.847193 1_555
Ba3 F56 2.858812 1_555
Ba3 O4 3.009918 1_555
Ba3 F57 3.082620 1_555
Ba4 F14 2.644065 1_655
Ba4 F1 2.644982 1_655
Ba4 F16 2.652882 1_555
Ba4 F31 2.693443 1_555
Ba4 F28 2.704477 1_555
Ba4 F30 2.806462 1_555
Ba4 F11 2.812951 1_555
Ba4 O13 2.901151 1_655
Ba5 F49 2.589407 1_555
Ba5 O5 2.691910 1_555
Ba5 F22 2.715449 1_565
Ba5 F42 2.752920 1_555
Ba5 F4 2.767762 1_555
Ba5 F29 2.790743 1_565
Ba5 F67 2.815392 1_565
Ba5 F21 2.917270 1_555
Ba5 O6 3.114178 1_565
Ba6 F13 2.679986 1_555
Ba6 F40 2.742656 1_554
Ba6 F20 2.790050 1_555
Ba6 F61 2.798899 1_555
Ba6 O7 2.809229 1_555
Ba6 F15 2.842742 1_555
Ba6 F23 2.863012 1_555
Ba6 F68 2.873651 1_555
Ba6 F57 3.090319 1_555
Ba6 F66 3.105930 1_555
Ba7 F7 2.650646 1_555
Ba7 F16 2.704770 1_565
Ba7 F1 2.732115 1_665
Ba7 F22 2.737421 1_565
Ba7 F35 2.775878 1_655
Ba7 F62 2.927612 1_555
Ba7 F24 2.993270 1_555
Ba7 F42 3.071663 1_555
Ba7 F34 3.118441 1_655
Ba7 O15 3.195613 1_555
Ba8 F24 2.644065 1_545
Ba8 F33 2.644982 1_545
Ba8 F28 2.652882 1_555
Ba8 F36 2.693443 1_555
Ba8 F16 2.704477 1_555
Ba8 F53 2.806462 1_556
Ba8 F52 2.812951 1_555
Ba8 O2 2.901147 1_546
Ba9 F69 2.649674 1_555
Ba9 F0 2.697846 1_655
Ba9 F18 2.709036 1_555
Ba9 F25 2.782552 1_555
Ba9 F26 2.811070 1_655
Ba9 F8 2.826556 1_554
Ba9 F46 2.845528 1_555
Ba9 F55 2.856322 1_555
Ba9 F12 2.946637 1_655
Ba9 F63 3.123521 1_655
Ba10 F2 2.649674 1_555
Ba10 F7 2.697846 1_545
Ba10 F18 2.709036 1_555
Ba10 F6 2.782552 1_555
Ba10 F4 2.811070 1_545
Ba10 F22 2.826556 1_555
Ba10 F55 2.845528 1_555
Ba10 F46 2.856322 1_555
Ba10 F9 2.946637 1_545
Ba10 F43 3.123521 1_545
Ba11 F5 2.589988 1_555
Ba11 F51 2.694272 1_555
Ba11 F40 2.750903 1_555
Ba11 F36 2.757995 1_555
Ba11 F27 2.810879 1_555
Ba11 F61 2.836611 1_556
Ba11 F52 2.847193 1_555
Ba11 F19 2.858812 1_555
Ba11 O9 3.009918 1_556
Ba11 F54 3.082620 1_555
Ba12 F16 2.679986 1_555
Ba12 F6 2.742656 1_555
Ba12 F22 2.790050 1_555
Ba12 F47 2.798899 1_555
Ba12 O6 2.809229 1_555
Ba12 F36 2.842742 1_555
Ba12 F67 2.863012 1_555
Ba12 F11 2.873651 1_555
Ba12 F54 3.090319 1_555
Ba12 F51 3.105930 1_555
Ba13 F49 2.589988 1_555
Ba13 F51 2.694272 1_555
Ba13 F37 2.750903 1_555
Ba13 F31 2.757995 1_555
Ba13 F19 2.810879 1_555
Ba13 F64 2.836611 1_555
Ba13 F11 2.847193 1_555
Ba13 F27 2.858812 1_555
Ba13 O10 3.009918 1_555
Ba13 F21 3.082620 1_555
Ba14 F33 2.650646 1_554
Ba14 F13 2.704770 1_655
Ba14 F0 2.732115 1_665
Ba14 F20 2.737421 1_655
Ba14 F53 2.775878 1_565
Ba14 F43 2.927612 1_555
Ba14 F9 2.993270 1_555
Ba14 F48 3.071663 1_555
Ba14 F18 3.118441 1_565
Ba14 O2 3.195600 1_555
Ba15 F28 2.679986 1_555
Ba15 F25 2.742656 1_556
Ba15 F8 2.790050 1_555
Ba15 F17 2.798899 1_555
Ba15 O12 2.809229 1_555
Ba15 F31 2.842742 1_555
Ba15 F60 2.863012 1_555
Ba15 F52 2.873651 1_555
Ba15 F21 3.090319 1_555
Ba15 F51 3.105930 1_555
Ba16 F65 2.679986 1_555
Ba16 F37 2.742656 1_555
Ba16 F3 2.790050 1_555
Ba16 F64 2.798899 1_555
Ba16 O1 2.809229 1_555
Ba16 F10 2.842742 1_555
Ba16 F70 2.863012 1_555
Ba16 F45 2.873651 1_555
Ba16 F38 3.090319 1_555
Ba16 F66 3.105930 1_555
Ba17 F0 2.650646 1_556
Ba17 F28 2.704770 1_455
Ba17 F33 2.732115 1_445
Ba17 F8 2.737421 1_455
Ba17 F32 2.775878 1_545
Ba17 F29 2.927612 1_555
Ba17 F14 2.993270 1_555
Ba17 F44 3.071663 1_555
Ba17 F34 3.118441 1_545
Ba17 O17 3.195613 1_555
Ba18 F2 2.589407 1_555
Ba18 O8 2.691910 1_555
Ba18 F3 2.715449 1_545
Ba18 F71 2.752920 1_555
Ba18 F58 2.767762 1_555
Ba18 F43 2.790743 1_545
Ba18 F70 2.815392 1_545
Ba18 F57 2.917270 1_555
Ba18 O1 3.114178 1_545
Ba19 F5 2.589407 1_555
Ba19 O0 2.691910 1_555
Ba19 F8 2.715449 1_455
Ba19 F44 2.752920 1_555
Ba19 F26 2.767762 1_556
Ba19 F62 2.790743 1_455
Ba19 F60 2.815392 1_455
Ba19 F54 2.917270 1_555
Ba19 O12 3.114178 1_455
Ba20 F49 2.649674 1_555
Ba20 F1 2.697846 1_565
Ba20 F34 2.709036 1_555
Ba20 F37 2.782552 1_555
Ba20 F58 2.811070 1_565
Ba20 F3 2.826556 1_555
Ba20 F41 2.845528 1_555
Ba20 F39 2.856322 1_555
Ba20 F14 2.946637 1_565
Ba20 F29 3.123521 1_565
Ba21 F1 2.650646 1_555
Ba21 F65 2.704770 1_545
Ba21 F7 2.732115 1_445
Ba21 F3 2.737421 1_545
Ba21 F30 2.775878 1_455
Ba21 F63 2.927612 1_555
Ba21 F12 2.993270 1_555
Ba21 F71 3.071663 1_555
Ba21 F18 3.118441 1_455
Ba21 O13 3.195613 1_555
Ba22 F5 2.649674 1_555
Ba22 F33 2.697846 1_455
Ba22 F34 2.709036 1_555
Ba22 F40 2.782552 1_555
Ba22 F59 2.811070 1_455
Ba22 F20 2.826556 1_556
Ba22 F39 2.845528 1_555
Ba22 F41 2.856322 1_555
Ba22 F24 2.946637 1_455
Ba22 F62 3.123521 1_455
Ba23 F12 2.644065 1_565
Ba23 F0 2.644982 1_565
Ba23 F13 2.652882 1_555
Ba23 F10 2.693443 1_555
Ba23 F65 2.704477 1_555
Ba23 F32 2.806462 1_554
Ba23 F68 2.812951 1_555
Ba23 O17 2.901151 1_564
Nb0 O6 1.786303 1_555
Nb0 O4 1.911655 1_555
Nb1 O12 1.786303 1_555
Nb1 O3 1.911655 1_555
Nb2 O17 1.787078 1_555
Nb2 O16 1.938379 1_556
Nb2 O9 2.015639 1_556
Nb3 O0 1.758625 1_555
Nb4 O14 1.758625 1_555
Nb5 O1 1.786303 1_555
Nb5 O10 1.911655 1_555
Nb6 O5 1.758625 1_555
Nb7 O2 1.787091 1_555
Nb7 O16 1.938379 1_565
Nb7 O3 2.015639 1_554
Nb8 O15 1.787078 1_555
Nb8 O11 1.938379 1_655
Nb8 O10 2.015639 1_555
Nb9 O13 1.787078 1_555
Nb9 O11 1.938379 1_555
Nb9 O4 2.015639 1_555
Nb10 O7 1.786303 1_555
Nb10 O9 1.911655 1_555
Nb11 O8 1.758625 1_555
F4 Nb5 2.031313 1_555
F6 Nb4 2.211785 1_555
F9 Nb5 2.196742 1_555
F10 Nb7 2.250633 1_555
F11 Nb4 2.090781 1_555
F12 Nb10 2.196742 1_555
F14 Nb0 2.196742 1_555
F15 Nb9 2.250633 1_555
F17 Nb6 2.078344 1_555
F19 Nb6 2.056984 1_555
F21 Nb8 2.072201 1_555
F23 Nb9 2.025560 1_555
F24 Nb1 2.196742 1_555
F25 Nb11 2.211785 1_555
F26 Nb10 2.031313 1_555
F27 Nb3 2.056984 1_555
F29 Nb0 2.091651 1_555
F30 Nb4 2.089068 1_555
F31 Nb8 2.250633 1_555
F32 Nb6 2.089068 1_555
F35 Nb3 2.089068 1_555
F36 Nb2 2.250633 1_555
F37 Nb3 2.211785 1_555
F38 Nb7 2.072201 1_555
F39 Nb3 2.054940 1_555
F40 Nb6 2.211785 1_555
F41 Nb6 2.054940 1_555
F42 Nb1 1.991020 1_555
F43 Nb5 2.091651 1_555
F44 Nb0 1.991020 1_555
F45 Nb3 2.090781 1_555
F46 Nb4 2.054940 1_555
F47 Nb3 2.078344 1_555
F48 Nb5 1.991020 1_555
F50 Nb11 2.056984 1_555
F52 Nb11 2.090781 1_556
F53 Nb11 2.089068 1_555
F54 Nb2 2.072201 1_555
F55 Nb11 2.054940 1_555
F56 Nb4 2.056984 1_555
F57 Nb9 2.072201 1_555
F58 Nb0 2.031313 1_555
F59 Nb1 2.031313 1_555
F60 Nb8 2.025560 1_555
F61 Nb11 2.078344 1_555
F62 Nb1 2.091651 1_555
F63 Nb10 2.091651 1_555
F64 Nb4 2.078344 1_555
F67 Nb2 2.025560 1_555
F68 Nb6 2.090781 1_554
F70 Nb7 2.025560 1_555
F71 Nb10 1.991020 1_555
