# generated using pymatgen
data_Co5Te4Cl4O11
_symmetry_space_group_name_H-M   'P 1'
_cell_length_a   8.51699700
_cell_length_b   10.35157113
_cell_length_c   10.42077648
_cell_angle_alpha   110.52693637
_cell_angle_beta   97.87379560
_cell_angle_gamma   97.23879852
_symmetry_Int_Tables_number   1
_chemical_formula_structural   Co5Te4Cl4O11
_chemical_formula_sum   'Co10 Te8 Cl8 O22'
_cell_volume   837.16201642
_cell_formula_units_Z   2
loop_
 _symmetry_equiv_pos_site_id
 _symmetry_equiv_pos_as_xyz
  1  'x, y, z'
loop_
 _atom_site_type_symbol
 _atom_site_label
 _atom_site_symmetry_multiplicity
 _atom_site_fract_x
 _atom_site_fract_y
 _atom_site_fract_z
 _atom_site_occupancy
  Co  Co0  1  0.39449400  0.70099500  0.99925900  1
  Co  Co1  1  0.60550600  0.29900500  0.00074100  1
  Co  Co2  1  0.63624800  0.07789000  0.18589500  1
  Co  Co3  1  0.59946300  0.45145000  0.76035900  1
  Co  Co4  1  0.36375200  0.92211000  0.81410500  1
  Co  Co5  1  0.41474100  0.11912900  0.59880900  1
  Co  Co6  1  0.40053700  0.54855000  0.23964100  1
  Co  Co7  1  0.59204900  0.65682400  0.56967900  1
  Co  Co8  1  0.58525900  0.88087100  0.40119100  1
  Co  Co9  1  0.40795100  0.34317600  0.43032100  1
  Te  Te0  1  0.77645100  0.21015500  0.54242100  1
  Te  Te1  1  0.71663500  0.00312500  0.78445900  1
  Te  Te2  1  0.21450300  0.55846200  0.67070100  1
  Te  Te3  1  0.28336500  0.99687500  0.21554100  1
  Te  Te4  1  0.74050200  0.67664200  0.12094300  1
  Te  Te5  1  0.22354900  0.78984500  0.45757900  1
  Te  Te6  1  0.78549700  0.44153800  0.32929900  1
  Te  Te7  1  0.25949800  0.32335800  0.87905700  1
  Cl  Cl0  1  0.81901400  0.34349500  0.87407200  1
  Cl  Cl1  1  0.80205400  0.59969100  0.70998200  1
  Cl  Cl2  1  0.81689700  0.95329000  0.06957000  1
  Cl  Cl3  1  0.19794600  0.40030900  0.29001800  1
  Cl  Cl4  1  0.18207900  0.20181500  0.51361800  1
  Cl  Cl5  1  0.18098600  0.65650500  0.12592800  1
  Cl  Cl6  1  0.18310300  0.04671000  0.93043000  1
  Cl  Cl7  1  0.81792100  0.79818500  0.48638200  1
  O  O0  1  0.15610400  0.66585400  0.55102900  1
  O  O1  1  0.44429700  0.27999500  0.79673300  1
  O  O2  1  0.41929100  0.51528000  0.61738700  1
  O  O3  1  0.40253900  0.39308600  0.05532200  1
  O  O4  1  0.36621100  0.95437900  0.38020700  1
  O  O5  1  0.59746100  0.60691400  0.94467800  1
  O  O6  1  0.72854700  0.50173800  0.14722700  1
  O  O7  1  0.55570300  0.72000500  0.20326700  1
  O  O8  1  0.29902100  0.94761000  0.62806200  1
  O  O9  1  0.57304800  0.83027300  0.72346000  1
  O  O10  1  0.27145300  0.49826200  0.85277300  1
  O  O11  1  0.69953300  0.26805400  0.17660500  1
  O  O12  1  0.30046700  0.73194600  0.82339500  1
  O  O13  1  0.63378900  0.04562100  0.61979300  1
  O  O14  1  0.70097900  0.05239000  0.37193800  1
  O  O15  1  0.42394900  0.71964400  0.43024000  1
  O  O16  1  0.84389600  0.33414600  0.44897100  1
  O  O17  1  0.58070900  0.48472000  0.38261300  1
  O  O18  1  0.42695200  0.16972700  0.27654000  1
  O  O19  1  0.43294700  0.91797400  0.10336800  1
  O  O20  1  0.56705300  0.08202600  0.89663200  1
  O  O21  1  0.57605100  0.28035600  0.56976000  1
loop_
_geom_bond_atom_site_label_1
_geom_bond_atom_site_label_2
_geom_bond_distance
_geom_bond_site_symmetry_2
Co0 O12 2.043740 1_555
Co0 O19 2.082665 1_556
Co0 O5 2.136691 1_555
Co0 O10 2.143221 1_555
Co0 O7 2.298311 1_556
Co1 O11 2.043740 1_555
Co1 O20 2.082665 1_554
Co1 O3 2.136691 1_555
Co1 O6 2.143221 1_555
Co1 O1 2.298311 1_554
Co2 O11 2.013808 1_555
Co2 O14 2.057900 1_555
Co2 O19 2.085501 1_545
Co2 O18 2.287403 1_555
Co3 O5 2.031636 1_555
Co3 O21 2.111162 1_555
Co3 O1 2.249027 1_555
Co3 O2 2.308805 1_555
Co4 O12 2.013808 1_555
Co4 O8 2.057900 1_555
Co4 O20 2.085501 1_565
Co4 O9 2.287403 1_555
Co5 O8 2.058536 1_545
Co5 O1 2.105656 1_555
Co5 O13 2.114254 1_555
Co5 O21 2.157541 1_555
Co5 O4 2.260195 1_545
Co6 O3 2.031636 1_555
Co6 O15 2.111162 1_555
Co6 O7 2.249027 1_555
Co6 O17 2.308805 1_555
Co7 O9 1.986058 1_555
Co7 O17 2.110170 1_555
Co7 O2 2.174144 1_555
Co7 O15 2.216156 1_555
Co8 O14 2.058536 1_565
Co8 O7 2.105656 1_555
Co8 O4 2.114254 1_555
Co8 O15 2.157541 1_555
Co8 O13 2.260195 1_565
Co9 O18 1.986058 1_555
Co9 O2 2.110170 1_555
Co9 O17 2.174144 1_555
Co9 O21 2.216156 1_555
Cl0 Co1 2.476720 1_556
Cl0 Co3 2.645327 1_555
Cl1 Co3 2.398637 1_555
Cl1 Co7 2.417238 1_555
Cl2 Co2 2.326994 1_565
Cl3 Co6 2.398637 1_555
Cl3 Co9 2.417238 1_555
Cl4 Co5 2.434282 1_555
Cl4 Co9 2.689686 1_555
Cl5 Co0 2.476720 1_554
Cl5 Co6 2.645327 1_555
Cl6 Co4 2.326994 1_545
Cl7 Co8 2.434282 1_555
Cl7 Co7 2.689686 1_555
O0 Te5 1.941568 1_555
O0 Te2 1.995005 1_555
O1 Te7 1.921625 1_555
O2 Te2 1.959195 1_555
O3 Te7 1.901210 1_554
O4 Te3 1.977807 1_555
O4 Te5 2.395247 1_555
O5 Te4 1.901210 1_556
O6 Te4 1.916343 1_555
O6 Te6 2.208319 1_555
O7 Te4 1.921625 1_555
O8 Te5 1.903763 1_555
O9 Te1 1.881253 1_565
O10 Te7 1.916343 1_555
O10 Te2 2.208319 1_555
O11 Te6 1.907472 1_555
O12 Te2 1.907472 1_555
O13 Te1 1.977807 1_555
O13 Te0 2.395247 1_555
O14 Te0 1.903763 1_555
O15 Te5 1.955260 1_555
O16 Te0 1.941568 1_555
O16 Te6 1.995005 1_555
O17 Te6 1.959195 1_555
O18 Te3 1.881253 1_545
O19 Te3 1.912387 1_555
O20 Te1 1.912387 1_555
O21 Te0 1.955260 1_555
