# generated using pymatgen
data_BaCaSn3
_symmetry_space_group_name_H-M   'P 1'
_cell_length_a   9.35114017
_cell_length_b   9.35114017
_cell_length_c   17.39672307
_cell_angle_alpha   90.00000000
_cell_angle_beta   90.00000000
_cell_angle_gamma   118.55420975
_symmetry_Int_Tables_number   1
_chemical_formula_structural   BaCaSn3
_chemical_formula_sum   'Ba8 Ca8 Sn24'
_cell_volume   1336.20082309
_cell_formula_units_Z   8
loop_
 _symmetry_equiv_pos_site_id
 _symmetry_equiv_pos_as_xyz
  1  'x, y, z'
loop_
 _atom_site_type_symbol
 _atom_site_label
 _atom_site_symmetry_multiplicity
 _atom_site_fract_x
 _atom_site_fract_y
 _atom_site_fract_z
 _atom_site_occupancy
  Ba  Ba0  1  0.32264136  0.32264136  0.91418298  1
  Ba  Ba1  1  0.71759500  0.28240500  0.50000000  1
  Ba  Ba2  1  0.67735864  0.67735864  0.08581702  1
  Ba  Ba3  1  0.17735864  0.17735864  0.41418298  1
  Ba  Ba4  1  0.28240500  0.71759500  0.50000000  1
  Ba  Ba5  1  0.78240500  0.21759500  0.00000000  1
  Ba  Ba6  1  0.82264136  0.82264136  0.58581702  1
  Ba  Ba7  1  0.21759500  0.78240500  0.00000000  1
  Ca  Ca0  1  0.14368409  0.87523164  0.22847210  1
  Ca  Ca1  1  0.12476836  0.85631591  0.77152790  1
  Ca  Ca2  1  0.35631591  0.62476836  0.72847210  1
  Ca  Ca3  1  0.37523164  0.64368409  0.27152790  1
  Ca  Ca4  1  0.62476836  0.35631591  0.72847210  1
  Ca  Ca5  1  0.64368409  0.37523164  0.27152790  1
  Ca  Ca6  1  0.87523164  0.14368409  0.22847210  1
  Ca  Ca7  1  0.85631591  0.12476836  0.77152790  1
  Sn  Sn0  1  0.06828673  0.30584436  0.59321669  1
  Sn  Sn1  1  0.43171327  0.19415564  0.09321669  1
  Sn  Sn2  1  0.43161309  0.43161309  0.58568848  1
  Sn  Sn3  1  0.48882752  0.03938529  0.83512237  1
  Sn  Sn4  1  0.78030431  0.78030431  0.28210568  1
  Sn  Sn5  1  0.98882752  0.53938529  0.66487763  1
  Sn  Sn6  1  0.53938529  0.98882752  0.66487763  1
  Sn  Sn7  1  0.30584436  0.06828673  0.59321669  1
  Sn  Sn8  1  0.01117248  0.46061471  0.33512237  1
  Sn  Sn9  1  0.51117248  0.96061471  0.16487763  1
  Sn  Sn10  1  0.19415564  0.43171327  0.09321669  1
  Sn  Sn11  1  0.71969569  0.71969569  0.78210568  1
  Sn  Sn12  1  0.56838691  0.56838691  0.41431152  1
  Sn  Sn13  1  0.28030431  0.28030431  0.21789432  1
  Sn  Sn14  1  0.56828673  0.80584436  0.90678331  1
  Sn  Sn15  1  0.80584436  0.56828673  0.90678331  1
  Sn  Sn16  1  0.03938529  0.48882752  0.83512237  1
  Sn  Sn17  1  0.06838691  0.06838691  0.08568848  1
  Sn  Sn18  1  0.46061471  0.01117248  0.33512237  1
  Sn  Sn19  1  0.21969569  0.21969569  0.71789432  1
  Sn  Sn20  1  0.69415564  0.93171327  0.40678331  1
  Sn  Sn21  1  0.96061471  0.51117248  0.16487763  1
  Sn  Sn22  1  0.93171327  0.69415564  0.40678331  1
  Sn  Sn23  1  0.93161309  0.93161309  0.91431152  1
loop_
_geom_bond_atom_site_label_1
_geom_bond_atom_site_label_2
_geom_bond_distance
_geom_bond_site_symmetry_2
Ba0 Sn19 3.553621 1_555
Ba0 Sn1 3.654601 1_556
Ba0 Sn10 3.654601 1_556
Ba0 Sn23 3.736175 1_445
Ba0 Sn17 3.847563 1_556
Ba0 Sn3 3.906118 1_555
Ba0 Sn16 3.906118 1_555
Ba0 Sn15 3.973351 1_555
Ba0 Sn14 3.973351 1_555
Ba1 Sn20 3.570006 1_545
Ba1 Sn0 3.570006 1_655
Ba1 Sn22 3.754188 1_555
Ba1 Sn7 3.754188 1_555
Ba1 Sn8 3.763971 1_655
Ba1 Sn6 3.763971 1_545
Ba1 Sn5 3.822086 1_555
Ba1 Sn18 3.822086 1_555
Ba1 Sn2 3.858451 1_555
Ba1 Sn12 3.858451 1_555
Ba2 Sn4 3.553621 1_555
Ba2 Sn15 3.654601 1_554
Ba2 Sn14 3.654601 1_554
Ba2 Sn17 3.736175 1_665
Ba2 Sn23 3.847563 1_554
Ba2 Sn21 3.906118 1_555
Ba2 Sn9 3.906118 1_555
Ba2 Sn10 3.973351 1_555
Ba2 Sn1 3.973351 1_555
Ba3 Sn13 3.553621 1_555
Ba3 Sn0 3.654601 1_555
Ba3 Sn7 3.654601 1_555
Ba3 Sn12 3.736175 1_555
Ba3 Sn2 3.847563 1_555
Ba3 Sn8 3.906118 1_555
Ba3 Sn18 3.906118 1_555
Ba3 Sn22 3.973351 1_445
Ba3 Sn20 3.973351 1_445
Ba4 Sn22 3.570006 1_455
Ba4 Sn7 3.570006 1_565
Ba4 Sn0 3.754188 1_555
Ba4 Sn20 3.754188 1_555
Ba4 Sn18 3.763971 1_565
Ba4 Sn5 3.763971 1_455
Ba4 Sn6 3.822086 1_555
Ba4 Sn8 3.822086 1_555
Ba4 Sn2 3.858451 1_555
Ba4 Sn12 3.858451 1_555
Ba5 Sn15 3.570006 1_554
Ba5 Sn1 3.570006 1_555
Ba5 Sn14 3.754188 1_544
Ba5 Sn10 3.754188 1_655
Ba5 Sn3 3.763971 1_554
Ba5 Sn21 3.763971 1_555
Ba5 Sn9 3.822086 1_545
Ba5 Sn16 3.822086 1_654
Ba5 Sn23 3.858451 1_544
Ba5 Sn17 3.858451 1_655
Ba6 Sn11 3.553621 1_555
Ba6 Sn20 3.654601 1_555
Ba6 Sn22 3.654601 1_555
Ba6 Sn2 3.736175 1_555
Ba6 Sn12 3.847563 1_555
Ba6 Sn5 3.906118 1_555
Ba6 Sn6 3.906118 1_555
Ba6 Sn0 3.973351 1_665
Ba6 Sn7 3.973351 1_665
Ba7 Sn14 3.570006 1_554
Ba7 Sn10 3.570006 1_555
Ba7 Sn15 3.754188 1_454
Ba7 Sn1 3.754188 1_565
Ba7 Sn16 3.763971 1_554
Ba7 Sn9 3.763971 1_555
Ba7 Sn3 3.822086 1_564
Ba7 Sn21 3.822086 1_455
Ba7 Sn23 3.858451 1_454
Ba7 Sn17 3.858451 1_565
Ca0 Sn21 3.189500 1_455
Ca0 Sn18 3.200009 1_565
Ca0 Sn4 3.212708 1_455
Ca0 Sn9 3.323791 1_555
Ca0 Sn17 3.338280 1_565
Ca0 Sn13 3.374598 1_565
Ca0 Sn22 3.634576 1_455
Ca0 Sn1 3.742487 1_565
Ca1 Sn3 3.189500 1_565
Ca1 Sn5 3.200009 1_455
Ca1 Sn19 3.212708 1_565
Ca1 Sn16 3.323791 1_555
Ca1 Sn23 3.338280 1_455
Ca1 Sn11 3.374598 1_455
Ca1 Sn7 3.634576 1_565
Ca1 Sn15 3.742487 1_455
Ca2 Sn6 3.189500 1_555
Ca2 Sn16 3.200009 1_555
Ca2 Sn11 3.212708 1_555
Ca2 Sn5 3.323791 1_455
Ca2 Sn2 3.338280 1_555
Ca2 Sn19 3.374598 1_555
Ca2 Sn14 3.634576 1_555
Ca2 Sn0 3.742487 1_555
Ca3 Sn8 3.189500 1_555
Ca3 Sn9 3.200009 1_555
Ca3 Sn13 3.212708 1_555
Ca3 Sn18 3.323791 1_565
Ca3 Sn12 3.338280 1_555
Ca3 Sn4 3.374598 1_555
Ca3 Sn10 3.634576 1_555
Ca3 Sn20 3.742487 1_555
Ca4 Sn5 3.189500 1_555
Ca4 Sn3 3.200009 1_555
Ca4 Sn11 3.212708 1_555
Ca4 Sn6 3.323791 1_545
Ca4 Sn2 3.338280 1_555
Ca4 Sn19 3.374598 1_555
Ca4 Sn15 3.634576 1_555
Ca4 Sn7 3.742487 1_555
Ca5 Sn18 3.189500 1_555
Ca5 Sn21 3.200009 1_555
Ca5 Sn13 3.212708 1_555
Ca5 Sn8 3.323791 1_655
Ca5 Sn12 3.338280 1_555
Ca5 Sn4 3.374598 1_555
Ca5 Sn1 3.634576 1_555
Ca5 Sn22 3.742487 1_555
Ca6 Sn9 3.189500 1_545
Ca6 Sn8 3.200009 1_655
Ca6 Sn4 3.212708 1_545
Ca6 Sn21 3.323791 1_555
Ca6 Sn17 3.338280 1_655
Ca6 Sn13 3.374598 1_655
Ca6 Sn20 3.634576 1_545
Ca6 Sn10 3.742487 1_655
Ca7 Sn16 3.189500 1_655
Ca7 Sn6 3.200009 1_545
Ca7 Sn19 3.212708 1_655
Ca7 Sn3 3.323791 1_555
Ca7 Sn23 3.338280 1_545
Ca7 Sn11 3.374598 1_545
Ca7 Sn0 3.634576 1_655
Ca7 Sn14 3.742487 1_545
Sn0 Sn5 2.902902 1_455
Sn0 Sn19 2.906623 1_555
Sn0 Sn2 3.020525 1_555
Sn1 Sn9 2.902902 1_545
Sn1 Sn13 2.906623 1_555
Sn1 Sn17 3.020525 1_555
Sn2 Sn7 3.020525 1_555
Sn3 Sn6 3.071217 1_545
Sn6 Sn7 2.902902 1_565
Sn10 Sn21 2.902902 1_455
Sn10 Sn13 2.906623 1_555
Sn10 Sn17 3.020525 1_555
Sn11 Sn15 2.906623 1_555
Sn11 Sn14 2.906623 1_555
Sn11 Sn23 3.064252 1_555
Sn12 Sn20 3.020525 1_555
Sn12 Sn22 3.020525 1_555
Sn12 Sn4 3.064252 1_555
Sn12 Sn2 3.255235 1_555
Sn13 Sn17 3.064252 1_555
Sn14 Sn3 2.902902 1_565
Sn14 Sn23 3.020525 1_555
Sn15 Sn16 2.902902 1_655
Sn15 Sn23 3.020525 1_555
Sn16 Sn5 3.071217 1_455
Sn17 Sn23 3.255235 1_444
Sn18 Sn20 2.902902 1_545
Sn18 Sn9 3.071217 1_545
Sn19 Sn7 2.906623 1_555
Sn19 Sn2 3.064252 1_555
Sn20 Sn4 2.906623 1_555
Sn21 Sn8 3.071217 1_655
Sn22 Sn8 2.902902 1_655
Sn22 Sn4 2.906623 1_555
