# generated using pymatgen
data_Ti6O11
_symmetry_space_group_name_H-M   'P 1'
_cell_length_a   3.75601734
_cell_length_b   5.26969772
_cell_length_c   20.94557566
_cell_angle_alpha   92.43668522
_cell_angle_beta   90.00000000
_cell_angle_gamma   110.87797294
_symmetry_Int_Tables_number   1
_chemical_formula_structural   Ti6O11
_chemical_formula_sum   'Ti12 O22'
_cell_volume   386.95564023
_cell_formula_units_Z   2
loop_
 _symmetry_equiv_pos_site_id
 _symmetry_equiv_pos_as_xyz
  1  'x, y, z'
loop_
 _atom_site_type_symbol
 _atom_site_label
 _atom_site_symmetry_multiplicity
 _atom_site_fract_x
 _atom_site_fract_y
 _atom_site_fract_z
 _atom_site_occupancy
  Ti  Ti0  1  0.96870121  0.93740442  0.35390528  1
  Ti  Ti1  1  0.14007059  0.28014117  0.47450642  1
  Ti  Ti2  1  0.85992941  0.71985883  0.52549358  1
  Ti  Ti3  1  0.21984195  0.43968290  0.10900691  1
  Ti  Ti4  1  0.09439155  0.18878411  0.79576588  1
  Ti  Ti5  1  0.05323836  0.10647872  0.93974163  1
  Ti  Ti6  1  0.94676164  0.89352128  0.06025837  1
  Ti  Ti7  1  0.03129879  0.06259558  0.64609472  1
  Ti  Ti8  1  0.78015805  0.56031710  0.89099309  1
  Ti  Ti9  1  0.90560845  0.81121589  0.20423412  1
  Ti  Ti10  1  0.24047354  0.48094808  0.29704346  1
  Ti  Ti11  1  0.75952646  0.51905192  0.70295654  1
  O  O0  1  0.66533687  0.33067275  0.79267614  1
  O  O1  1  0.23217715  0.46435430  0.87863109  1
  O  O2  1  0.42347188  0.84694275  0.34614431  1
  O  O3  1  0.40731359  0.81462618  0.06998911  1
  O  O4  1  0.59268641  0.18537382  0.93001089  1
  O  O5  1  0.84113455  0.68226910  0.62025763  1
  O  O6  1  0.33466313  0.66932725  0.20732386  1
  O  O7  1  0.86724843  0.73449486  0.97176826  1
  O  O8  1  0.15886545  0.31773090  0.37974237  1
  O  O9  1  0.13275157  0.26550514  0.02823174  1
  O  O10  1  0.79054918  0.58109936  0.29102345  1
  O  O11  1  0.32292540  0.64585179  0.51973908  1
  O  O12  1  0.20945082  0.41890064  0.70897655  1
  O  O13  1  0.95032791  0.90065582  0.44401915  1
  O  O14  1  0.76782285  0.53564570  0.12136891  1
  O  O15  1  0.94428740  0.88857581  0.73113057  1
  O  O16  1  0.05571260  0.11142419  0.26886943  1
  O  O17  1  0.67707460  0.35414821  0.48026092  1
  O  O18  1  0.04967209  0.09934418  0.55598085  1
  O  O19  1  0.95262924  0.90525847  0.85235179  1
  O  O20  1  0.57652812  0.15305725  0.65385569  1
  O  O21  1  0.04737076  0.09474153  0.14764821  1
loop_
_geom_bond_atom_site_label_1
_geom_bond_atom_site_label_2
_geom_bond_distance
_geom_bond_site_symmetry_2
O0 Ti4 2.005809 1_655
O0 Ti4 2.005816 1_555
O0 Ti11 2.133172 1_555
O0 Ti8 2.303761 1_555
O1 Ti8 1.950915 1_555
O1 Ti8 1.950918 1_455
O1 Ti4 2.153873 1_555
O1 Ti5 2.224532 1_555
O2 Ti0 1.935231 1_555
O2 Ti0 1.935242 1_455
O2 Ti10 2.033817 1_555
O3 Ti6 1.930428 1_455
O3 Ti6 1.930432 1_555
O3 Ti3 2.052636 1_555
O4 Ti5 1.930428 1_655
O4 Ti5 1.930432 1_555
O4 Ti8 2.052636 1_555
O5 Ti7 1.925440 1_665
O5 Ti11 1.942406 1_555
O5 Ti2 2.001866 1_555
O6 Ti9 2.005809 1_455
O6 Ti9 2.005816 1_555
O6 Ti10 2.133172 1_555
O6 Ti3 2.303761 1_555
O7 Ti8 1.861692 1_555
O7 Ti5 1.978972 1_665
O7 Ti6 1.978986 1_556
O8 Ti0 1.925440 1_445
O8 Ti10 1.942406 1_555
O8 Ti1 2.001866 1_555
O9 Ti3 1.861692 1_555
O9 Ti6 1.978972 1_445
O9 Ti5 1.978986 1_554
O10 Ti10 1.947212 1_555
O10 Ti10 1.947212 1_655
O10 Ti0 2.145265 1_555
O10 Ti9 2.185354 1_555
O11 Ti2 1.915782 1_455
O11 Ti2 1.915785 1_555
O11 Ti1 1.996170 1_555
O12 Ti11 1.947212 1_555
O12 Ti11 1.947212 1_455
O12 Ti7 2.145265 1_555
O12 Ti4 2.185354 1_555
O13 Ti0 1.904318 1_555
O13 Ti1 1.946889 1_665
O13 Ti2 1.960339 1_555
O14 Ti3 1.950915 1_555
O14 Ti3 1.950918 1_655
O14 Ti9 2.153873 1_555
O14 Ti6 2.224532 1_555
O15 Ti11 1.887017 1_555
O15 Ti4 1.958470 1_665
O15 Ti7 2.011326 1_665
O16 Ti10 1.887017 1_555
O16 Ti9 1.958470 1_445
O16 Ti0 2.011326 1_445
O17 Ti1 1.915782 1_655
O17 Ti1 1.915785 1_555
O17 Ti2 1.996170 1_555
O18 Ti7 1.904318 1_555
O18 Ti2 1.946889 1_445
O18 Ti1 1.960339 1_555
O19 Ti4 1.871933 1_665
O19 Ti8 1.914337 1_555
O19 Ti5 2.041327 1_665
O20 Ti7 1.935231 1_555
O20 Ti7 1.935242 1_655
O20 Ti11 2.033817 1_555
O21 Ti9 1.871933 1_445
O21 Ti3 1.914337 1_555
O21 Ti6 2.041327 1_445
