# generated using pymatgen
data_CsCoF3
_symmetry_space_group_name_H-M   'P 1'
_cell_length_a   8.25157333
_cell_length_b   8.27596530
_cell_length_c   8.27599754
_cell_angle_alpha   43.90358649
_cell_angle_beta   43.98164898
_cell_angle_gamma   43.98177423
_symmetry_Int_Tables_number   1
_chemical_formula_structural   CsCoF3
_chemical_formula_sum   'Cs3 Co3 F9'
_cell_volume   247.28429844
_cell_formula_units_Z   3
loop_
 _symmetry_equiv_pos_site_id
 _symmetry_equiv_pos_as_xyz
  1  'x, y, z'
loop_
 _atom_site_type_symbol
 _atom_site_label
 _atom_site_symmetry_multiplicity
 _atom_site_fract_x
 _atom_site_fract_y
 _atom_site_fract_z
 _atom_site_occupancy
  Cs  Cs0  1  0.21484115  0.21350558  0.21350130  1
  Cs  Cs1  1  0.78515885  0.78649442  0.78649870  1
  Cs  Cs2  1  0.00000000  0.00000000  -0.00000000  1
  Co  Co0  1  0.37917232  0.37777074  0.37776925  1
  Co  Co1  1  0.62082768  0.62222926  0.62223075  1
  Co  Co2  1  0.50000000  0.50000000  0.50000000  1
  F  F0  1  0.70130205  0.27183945  0.70409587  1
  F  F1  1  0.29869795  0.72816055  0.29590413  1
  F  F2  1  0.50000000  0.00000000  0.50000000  1
  F  F3  1  0.27139417  0.70395230  0.70395162  1
  F  F4  1  0.29869732  0.29590316  0.72816379  1
  F  F5  1  0.00000000  0.50000000  0.50000000  1
  F  F6  1  0.70130268  0.70409684  0.27183621  1
  F  F7  1  0.72860583  0.29604770  0.29604838  1
  F  F8  1  0.50000000  0.50000000  -0.00000000  1
loop_
_geom_bond_atom_site_label_1
_geom_bond_atom_site_label_2
_geom_bond_distance
_geom_bond_site_symmetry_2
Cs0 F0 3.101813 1_554
Cs0 F6 3.101829 1_545
Cs0 F3 3.115203 1_554
Cs0 F3 3.115228 1_545
Cs0 F6 3.129661 1_455
Cs0 F0 3.129673 1_455
Cs0 F4 3.132027 1_554
Cs0 F1 3.132046 1_545
Cs0 F7 3.132841 1_455
Cs0 F8 3.207642 1_555
Cs0 F2 3.207671 1_555
Cs0 F5 3.223250 1_555
Cs1 F1 3.101813 1_556
Cs1 F4 3.101829 1_565
Cs1 F7 3.115203 1_556
Cs1 F7 3.115228 1_565
Cs1 F4 3.129661 1_655
Cs1 F1 3.129673 1_655
Cs1 F6 3.132027 1_556
Cs1 F0 3.132046 1_565
Cs1 F3 3.132841 1_655
Cs1 F8 3.207642 1_556
Cs1 F2 3.207671 1_565
Cs1 F5 3.223250 1_655
Cs2 F5 3.093780 1_545
Cs2 F5 3.093780 1_554
Cs2 F2 3.094462 1_554
Cs2 F2 3.094462 1_455
Cs2 F8 3.094464 1_545
Cs2 F8 3.094464 1_455
Cs2 F3 3.143067 1_544
Cs2 F7 3.143067 1_455
Cs2 F4 3.146518 1_554
Cs2 F6 3.146518 1_445
Cs2 F1 3.146535 1_545
Cs2 F0 3.146535 1_454
Co0 F2 2.049392 1_555
Co0 F8 2.049393 1_555
Co0 F5 2.049568 1_555
Co0 F7 2.067595 1_555
Co0 F1 2.086642 1_555
Co0 F4 2.086677 1_555
Co1 F2 2.049392 1_565
Co1 F8 2.049393 1_556
Co1 F5 2.049568 1_655
Co1 F3 2.067595 1_555
Co1 F0 2.086642 1_555
Co1 F6 2.086677 1_555
Co2 F6 2.026211 1_555
Co2 F4 2.026211 1_555
Co2 F0 2.026219 1_555
Co2 F1 2.026219 1_555
Co2 F7 2.048792 1_555
Co2 F3 2.048792 1_555
