# generated using pymatgen
data_CsLaNb2O7
_symmetry_space_group_name_H-M   'P 1'
_cell_length_a   3.95210500
_cell_length_b   3.95210500
_cell_length_c   11.50383300
_cell_angle_alpha   90.00000000
_cell_angle_beta   90.00000000
_cell_angle_gamma   90.00000000
_symmetry_Int_Tables_number   1
_chemical_formula_structural   CsLaNb2O7
_chemical_formula_sum   'Cs1 La1 Nb2 O7'
_cell_volume   179.67990835
_cell_formula_units_Z   1
loop_
 _symmetry_equiv_pos_site_id
 _symmetry_equiv_pos_as_xyz
  1  'x, y, z'
loop_
 _atom_site_type_symbol
 _atom_site_label
 _atom_site_symmetry_multiplicity
 _atom_site_fract_x
 _atom_site_fract_y
 _atom_site_fract_z
 _atom_site_occupancy
  Cs  Cs0  1  0.00000000  0.00000000  0.50000000  1
  La  La0  1  0.00000000  0.00000000  0.00000000  1
  Nb  Nb0  1  0.50000000  0.50000000  0.19817700  1
  Nb  Nb1  1  0.50000000  0.50000000  0.80182300  1
  O  O0  1  0.50000000  0.50000000  0.64456800  1
  O  O1  1  0.00000000  0.50000000  0.16097000  1
  O  O2  1  0.50000000  0.00000000  0.16097000  1
  O  O3  1  0.00000000  0.50000000  0.83903000  1
  O  O4  1  0.50000000  0.00000000  0.83903000  1
  O  O5  1  0.50000000  0.50000000  0.35543200  1
  O  O6  1  0.50000000  0.50000000  0.00000000  1
loop_
_geom_bond_atom_site_label_1
_geom_bond_atom_site_label_2
_geom_bond_distance
_geom_bond_site_symmetry_2
Cs0 O5 3.251987 1_545
Cs0 O0 3.251987 1_445
Cs0 O5 3.251987 1_455
Cs0 O0 3.251987 1_545
Cs0 O5 3.251987 1_555
Cs0 O0 3.251987 1_455
Cs0 O5 3.251987 1_445
Cs0 O0 3.251987 1_555
La0 O4 2.708107 1_454
La0 O3 2.708107 1_554
La0 O3 2.708107 1_544
La0 O4 2.708107 1_554
La0 O2 2.708107 1_455
La0 O1 2.708107 1_545
La0 O2 2.708107 1_555
La0 O1 2.708107 1_555
La0 O6 2.794560 1_545
La0 O6 2.794560 1_445
La0 O6 2.794560 1_455
La0 O6 2.794560 1_555
Nb0 O5 1.809035 1_555
Nb0 O1 2.021877 1_655
Nb0 O2 2.021877 1_555
Nb0 O2 2.021877 1_565
Nb0 O1 2.021877 1_555
Nb0 O6 2.279795 1_555
Nb1 O0 1.809035 1_555
Nb1 O4 2.021877 1_555
Nb1 O3 2.021877 1_655
Nb1 O4 2.021877 1_565
Nb1 O3 2.021877 1_555
Nb1 O6 2.279795 1_556
