# generated using pymatgen
data_Fe7(AsO4)6
_symmetry_space_group_name_H-M   'P 1'
_cell_length_a   6.64070293
_cell_length_b   7.96861052
_cell_length_c   9.65017096
_cell_angle_alpha   103.88300397
_cell_angle_beta   107.97553464
_cell_angle_gamma   101.18218920
_symmetry_Int_Tables_number   1
_chemical_formula_structural   Fe7(AsO4)6
_chemical_formula_sum   'Fe7 As6 O24'
_cell_volume   451.25086131
_cell_formula_units_Z   1
loop_
 _symmetry_equiv_pos_site_id
 _symmetry_equiv_pos_as_xyz
  1  'x, y, z'
loop_
 _atom_site_type_symbol
 _atom_site_label
 _atom_site_symmetry_multiplicity
 _atom_site_fract_x
 _atom_site_fract_y
 _atom_site_fract_z
 _atom_site_occupancy
  Fe  Fe0  1  0.04744815  0.22126930  0.01994606  1
  Fe  Fe1  1  0.95255185  0.77873070  0.98005394  1
  Fe  Fe2  1  0.27641503  0.30051349  0.78320287  1
  Fe  Fe3  1  0.72358497  0.69948651  0.21679713  1
  Fe  Fe4  1  0.61917691  0.04788660  0.38747736  1
  Fe  Fe5  1  0.38082309  0.95211340  0.61252264  1
  Fe  Fe6  1  0.00000000  0.50000000  0.50000000  1
  As  As0  1  0.09418924  0.09480284  0.33202456  1
  As  As1  1  0.90581076  0.90519716  0.66797544  1
  As  As2  1  0.23451681  0.64564176  0.27421457  1
  As  As3  1  0.76548319  0.35435824  0.72578543  1
  As  As4  1  0.60493049  0.27197863  0.12342880  1
  As  As5  1  0.39506951  0.72802137  0.87657120  1
  O  O0  1  0.01006530  0.69619734  0.16578081  1
  O  O1  1  0.98993470  0.30380266  0.83421919  1
  O  O2  1  0.05752439  0.04674349  0.14233096  1
  O  O3  1  0.94247561  0.95325651  0.85766904  1
  O  O4  1  0.12914486  0.04092152  0.65470168  1
  O  O5  1  0.87085514  0.95907848  0.34529832  1
  O  O6  1  0.11372283  0.30674076  0.42196243  1
  O  O7  1  0.88627717  0.69325924  0.57803757  1
  O  O8  1  0.21932477  0.42980800  0.19955722  1
  O  O9  1  0.78067523  0.57019200  0.80044278  1
  O  O10  1  0.22782570  0.69254751  0.45591446  1
  O  O11  1  0.77217430  0.30745249  0.54408554  1
  O  O12  1  0.32106765  0.03345887  0.41657582  1
  O  O13  1  0.67893235  0.96654113  0.58342418  1
  O  O14  1  0.52249511  0.23013070  0.72131965  1
  O  O15  1  0.47750489  0.76986930  0.27868035  1
  O  O16  1  0.54692172  0.11528213  0.20477720  1
  O  O17  1  0.45307828  0.88471787  0.79522280  1
  O  O18  1  0.63887055  0.72923455  0.00780169  1
  O  O19  1  0.36112945  0.27076545  0.99219831  1
  O  O20  1  0.73230689  0.47721795  0.26763923  1
  O  O21  1  0.26769311  0.52278205  0.73236077  1
  O  O22  1  0.76746879  0.23988891  0.02314580  1
  O  O23  1  0.23253121  0.76011109  0.97685420  1
loop_
_geom_bond_atom_site_label_1
_geom_bond_atom_site_label_2
_geom_bond_distance
_geom_bond_site_symmetry_2
Fe0 O22 1.902642 1_455
Fe0 O8 1.931202 1_555
Fe0 O1 2.007812 1_454
Fe0 O2 2.027058 1_555
Fe0 O19 2.154697 1_554
Fe0 O3 2.154829 1_444
Fe1 O23 1.902642 1_655
Fe1 O9 1.931202 1_555
Fe1 O0 2.007812 1_656
Fe1 O3 2.027058 1_555
Fe1 O18 2.154697 1_556
Fe1 O2 2.154829 1_666
Fe2 O21 1.954582 1_555
Fe2 O4 2.002268 1_555
Fe2 O19 2.005286 1_555
Fe2 O14 2.034380 1_555
Fe2 O1 2.110341 1_455
Fe3 O20 1.954582 1_555
Fe3 O5 2.002268 1_555
Fe3 O18 2.005286 1_555
Fe3 O15 2.034380 1_555
Fe3 O0 2.110341 1_655
Fe4 O16 1.912932 1_555
Fe4 O5 2.049438 1_545
Fe4 O12 2.069162 1_555
Fe4 O11 2.081247 1_555
Fe4 O15 2.088351 1_545
Fe4 O13 2.092379 1_545
Fe5 O17 1.912932 1_555
Fe5 O4 2.049438 1_565
Fe5 O13 2.069162 1_555
Fe5 O10 2.081247 1_555
Fe5 O14 2.088351 1_565
Fe5 O12 2.092379 1_565
Fe6 O6 1.937692 1_555
Fe6 O7 1.937692 1_455
Fe6 O10 2.152739 1_555
Fe6 O11 2.152739 1_455
Fe6 O20 2.332433 1_455
Fe6 O21 2.332433 1_555
As0 O6 1.662668 1_555
As0 O12 1.700862 1_555
As0 O2 1.705657 1_555
As0 O5 1.716771 1_445
As1 O7 1.662668 1_555
As1 O13 1.700862 1_555
As1 O3 1.705657 1_555
As1 O4 1.716771 1_665
As2 O8 1.667480 1_555
As2 O15 1.703703 1_555
As2 O0 1.717968 1_555
As2 O10 1.719371 1_555
As3 O9 1.667480 1_555
As3 O14 1.703703 1_555
As3 O1 1.717968 1_555
As3 O11 1.719371 1_555
As4 O16 1.671609 1_555
As4 O22 1.673315 1_555
As4 O19 1.716860 1_554
As4 O20 1.723840 1_555
As5 O17 1.671609 1_555
As5 O23 1.673315 1_555
As5 O18 1.716860 1_556
As5 O21 1.723840 1_555
