# generated using pymatgen
data_Sr8Mn2FeN8
_symmetry_space_group_name_H-M   'P 1'
_cell_length_a   9.80522000
_cell_length_b   9.80522000
_cell_length_c   7.56477980
_cell_angle_alpha   74.45140605
_cell_angle_beta   74.45140605
_cell_angle_gamma   31.58746921
_symmetry_Int_Tables_number   1
_chemical_formula_structural   Sr8Mn2FeN8
_chemical_formula_sum   'Sr8 Mn2 Fe1 N8'
_cell_volume   365.87708223
_cell_formula_units_Z   1
loop_
 _symmetry_equiv_pos_site_id
 _symmetry_equiv_pos_as_xyz
  1  'x, y, z'
loop_
 _atom_site_type_symbol
 _atom_site_label
 _atom_site_symmetry_multiplicity
 _atom_site_fract_x
 _atom_site_fract_y
 _atom_site_fract_z
 _atom_site_occupancy
  Sr  Sr0  1  0.40383000  0.40383000  0.96572000  1
  Sr  Sr1  1  0.33285800  0.33285800  0.46655200  1
  Sr  Sr2  1  0.97094100  0.97094100  0.25858900  1
  Sr  Sr3  1  0.19930600  0.19930600  0.19349200  1
  Sr  Sr4  1  0.80069400  0.80069400  0.80650800  1
  Sr  Sr5  1  0.02905900  0.02905900  0.74141100  1
  Sr  Sr6  1  0.66714200  0.66714200  0.53344800  1
  Sr  Sr7  1  0.59617000  0.59617000  0.03428000  1
  Mn  Mn0  1  0.81221100  0.81221100  0.20633700  1
  Mn  Mn1  1  0.18778900  0.18778900  0.79366300  1
  Fe  Fe0  1  0.50000000  0.50000000  0.50000000  1
  N  N0  1  0.27569100  0.27569100  0.82796400  1
  N  N1  1  0.82223700  0.82223700  0.42642400  1
  N  N2  1  0.10775300  0.10775300  0.98504400  1
  N  N3  1  0.89224700  0.89224700  0.01495600  1
  N  N4  1  0.17776300  0.17776300  0.57357600  1
  N  N5  1  0.47464300  0.47464300  0.28249200  1
  N  N6  1  0.72430900  0.72430900  0.17203600  1
  N  N7  1  0.52535700  0.52535700  0.71750800  1
loop_
_geom_bond_atom_site_label_1
_geom_bond_atom_site_label_2
_geom_bond_distance
_geom_bond_site_symmetry_2
Mn0 N1 1.727197 1_555
Mn0 N6 1.748850 1_555
Mn0 N3 1.777288 1_555
Mn1 N4 1.727197 1_555
Mn1 N0 1.748850 1_555
Mn1 N2 1.777288 1_555
Fe0 N7 1.837100 1_555
Fe0 N5 1.837100 1_555
N0 Sr1 2.644859 1_555
N0 Sr4 2.707108 1_455
N0 Sr4 2.707108 1_545
N0 Sr3 2.739164 1_556
N0 Sr0 2.887308 1_555
N1 Sr1 2.699697 1_655
N1 Sr1 2.699697 1_565
N1 Sr2 2.738799 1_555
N1 Sr4 2.789465 1_555
N1 Sr6 2.810813 1_555
N2 Sr3 2.643658 1_556
N2 Sr5 2.669586 1_555
N2 Sr7 2.695050 1_456
N2 Sr7 2.695050 1_546
N2 Sr2 2.823222 1_446
N3 Sr4 2.643658 1_554
N3 Sr2 2.669586 1_555
N3 Sr0 2.695050 1_654
N3 Sr0 2.695050 1_564
N3 Sr5 2.823222 1_664
N4 Sr6 2.699697 1_545
N4 Sr6 2.699697 1_455
N4 Sr5 2.738799 1_555
N4 Sr3 2.789465 1_555
N4 Sr1 2.810813 1_555
N5 Sr7 2.526957 1_555
N5 Sr1 2.649805 1_555
N5 Sr2 2.677082 1_455
N5 Sr2 2.677082 1_545
N5 Sr0 3.051537 1_554
N6 Sr6 2.644859 1_555
N6 Sr3 2.707108 1_655
N6 Sr3 2.707108 1_565
N6 Sr4 2.739164 1_554
N6 Sr7 2.887308 1_555
N7 Sr0 2.526957 1_555
N7 Sr6 2.649805 1_555
N7 Sr5 2.677082 1_565
N7 Sr5 2.677082 1_655
N7 Sr7 3.051537 1_556
