# generated using pymatgen
data_RbMnH2OF4
_symmetry_space_group_name_H-M   'P 1'
_cell_length_a   7.74934167
_cell_length_b   7.74934167
_cell_length_c   10.87382671
_cell_angle_alpha   77.17654049
_cell_angle_beta   77.17654049
_cell_angle_gamma   51.08342836
_symmetry_Int_Tables_number   1
_chemical_formula_structural   RbMnH2OF4
_chemical_formula_sum   'Rb4 Mn4 H8 O4 F16'
_cell_volume   492.46121984
_cell_formula_units_Z   4
loop_
 _symmetry_equiv_pos_site_id
 _symmetry_equiv_pos_as_xyz
  1  'x, y, z'
loop_
 _atom_site_type_symbol
 _atom_site_label
 _atom_site_symmetry_multiplicity
 _atom_site_fract_x
 _atom_site_fract_y
 _atom_site_fract_z
 _atom_site_occupancy
  Rb  Rb0  1  0.17686300  0.66470200  0.44025400  1
  Rb  Rb1  1  0.33529800  0.82313700  0.05974600  1
  Rb  Rb2  1  0.82313700  0.33529800  0.55974600  1
  Rb  Rb3  1  0.66470200  0.17686300  0.94025400  1
  Mn  Mn0  1  0.50000000  0.00000000  0.50000000  1
  Mn  Mn1  1  0.00000000  0.50000000  0.00000000  1
  Mn  Mn2  1  0.75695100  0.24304900  0.25000000  1
  Mn  Mn3  1  0.24304900  0.75695100  0.75000000  1
  H  H0  1  0.26405700  0.09593200  0.30166300  1
  H  H1  1  0.90406800  0.73594300  0.19833700  1
  H  H2  1  0.73594300  0.90406800  0.69833700  1
  H  H3  1  0.09593200  0.26405700  0.80166300  1
  H  H4  1  0.40594800  0.18412000  0.25222900  1
  H  H5  1  0.81588000  0.59405200  0.24777100  1
  H  H6  1  0.59405200  0.81588000  0.74777100  1
  H  H7  1  0.18412000  0.40594800  0.75222900  1
  O  O0  1  0.40922700  0.06129100  0.30533400  1
  O  O1  1  0.93870900  0.59077300  0.19466600  1
  O  O2  1  0.59077300  0.93870900  0.69466600  1
  O  O3  1  0.06129100  0.40922700  0.80533400  1
  F  F0  1  0.64422500  0.14454200  0.43529200  1
  F  F1  1  0.85545800  0.35577500  0.06470800  1
  F  F2  1  0.35577500  0.85545800  0.56470800  1
  F  F3  1  0.14454200  0.64422500  0.93529200  1
  F  F4  1  0.76908800  0.72809000  0.46403700  1
  F  F5  1  0.27191000  0.23091200  0.03596300  1
  F  F6  1  0.23091200  0.27191000  0.53596300  1
  F  F7  1  0.72809000  0.76908800  0.96403700  1
  F  F8  1  0.89037700  0.97155200  0.18550900  1
  F  F9  1  0.02844800  0.10962300  0.31449100  1
  F  F10  1  0.10962300  0.02844800  0.81449100  1
  F  F11  1  0.97155200  0.89037700  0.68550900  1
  F  F12  1  0.48413400  0.37091100  0.19075900  1
  F  F13  1  0.62908900  0.51586600  0.30924100  1
  F  F14  1  0.51586600  0.62908900  0.80924100  1
  F  F15  1  0.37091100  0.48413400  0.69075900  1
loop_
_geom_bond_atom_site_label_1
_geom_bond_atom_site_label_2
_geom_bond_distance
_geom_bond_site_symmetry_2
Mn0 O2 2.235175 1_545
Mn0 O0 2.235175 1_555
Mn1 O1 2.235175 1_455
Mn1 O3 2.235175 1_554
H0 O0 0.987410 1_555
H1 O1 0.987410 1_555
H2 O2 0.987410 1_555
H3 O3 0.987410 1_555
H4 O0 0.986026 1_555
H5 O1 0.986026 1_555
H6 O2 0.986026 1_555
H7 O3 0.986026 1_555
F0 Mn0 1.967935 1_555
F0 Mn2 2.186128 1_555
F0 Rb2 3.199160 1_555
F0 Rb0 3.322078 1_555
F0 Rb0 3.404911 1_645
F1 Mn1 1.967935 1_655
F1 Mn2 2.186128 1_555
F1 Rb3 3.199160 1_554
F1 Rb1 3.322078 1_555
F1 Rb1 3.404911 1_645
F2 Mn0 1.967935 1_565
F2 Mn3 2.186128 1_555
F2 Rb0 3.199160 1_555
F2 Rb2 3.322078 1_555
F2 Rb2 3.404911 1_465
F3 Mn1 1.967935 1_556
F3 Mn3 2.186128 1_555
F3 Rb1 3.199160 1_556
F3 Rb3 3.322078 1_555
F3 Rb3 3.404911 1_465
F4 Mn0 1.850567 1_565
F4 Rb2 2.776558 1_555
F4 Rb0 2.834985 1_655
F5 Mn1 1.850567 1_555
F5 Rb3 2.776558 1_554
F5 Rb1 2.834985 1_545
F6 Mn0 1.850567 1_555
F6 Rb0 2.776558 1_555
F6 Rb2 2.834985 1_455
F7 Mn1 1.850567 1_656
F7 Rb1 2.776558 1_556
F7 Rb3 2.834985 1_565
F8 Mn2 1.894021 1_565
F8 Rb1 2.950195 1_655
F8 Rb3 3.064792 1_564
F8 Rb0 3.380786 1_655
F9 Mn2 1.894021 1_455
F9 Rb0 2.950195 1_545
F9 Rb2 3.064792 1_455
F9 Rb1 3.380786 1_545
F10 Mn3 1.894021 1_545
F10 Rb3 2.950195 1_455
F10 Rb1 3.064792 1_546
F10 Rb2 3.380786 1_455
F11 Mn3 1.894021 1_655
F11 Rb2 2.950195 1_565
F11 Rb0 3.064792 1_655
F11 Rb3 3.380786 1_565
F12 Mn2 1.885664 1_555
F12 Rb1 3.012640 1_555
F12 Rb3 3.020235 1_554
F12 Rb0 3.358061 1_555
F13 Mn2 1.885664 1_555
F13 Rb0 3.012640 1_555
F13 Rb2 3.020235 1_555
F13 Rb1 3.358061 1_555
F14 Mn3 1.885664 1_555
F14 Rb3 3.012640 1_555
F14 Rb1 3.020235 1_556
F14 Rb2 3.358061 1_555
F15 Mn3 1.885664 1_555
F15 Rb2 3.012640 1_555
F15 Rb0 3.020235 1_555
F15 Rb3 3.358061 1_555
