# generated using pymatgen
data_Sb(PO3)4
_symmetry_space_group_name_H-M   'P 1'
_cell_length_a   14.05847200
_cell_length_b   5.38504200
_cell_length_c   7.38693575
_cell_angle_alpha   80.80770855
_cell_angle_beta   90.00000000
_cell_angle_gamma   90.00000000
_symmetry_Int_Tables_number   1
_chemical_formula_structural   Sb(PO3)4
_chemical_formula_sum   'Sb2 P8 O24'
_cell_volume   552.04960527
_cell_formula_units_Z   2
loop_
 _symmetry_equiv_pos_site_id
 _symmetry_equiv_pos_as_xyz
  1  'x, y, z'
loop_
 _atom_site_type_symbol
 _atom_site_label
 _atom_site_symmetry_multiplicity
 _atom_site_fract_x
 _atom_site_fract_y
 _atom_site_fract_z
 _atom_site_occupancy
  Sb  Sb0  1  0.73760000  0.51400100  0.48658200  1
  Sb  Sb1  1  0.23760000  0.48599900  0.51341800  1
  P  P0  1  0.88114900  0.99961600  0.55976900  1
  P  P1  1  0.09782700  0.97296200  0.56410800  1
  P  P2  1  0.38114900  0.00038400  0.44023100  1
  P  P3  1  0.66880700  0.87914300  0.08340700  1
  P  P4  1  0.32056700  0.77363900  0.11182700  1
  P  P5  1  0.59782700  0.02703800  0.43589200  1
  P  P6  1  0.16880700  0.12085700  0.91659300  1
  P  P7  1  0.82056700  0.22636100  0.88817300  1
  O  O0  1  0.76387700  0.04727100  0.04562700  1
  O  O1  1  0.32729100  0.79669100  0.56638900  1
  O  O2  1  0.36694400  0.26652600  0.47856500  1
  O  O3  1  0.74412800  0.37894000  0.76516000  1
  O  O4  1  0.15928100  0.17502100  0.45316100  1
  O  O5  1  0.36073800  0.98782800  0.23234800  1
  O  O6  1  0.10898300  0.71246900  0.51308400  1
  O  O7  1  0.86694400  0.73347400  0.52143500  1
  O  O8  1  0.82729100  0.20330900  0.43361100  1
  O  O9  1  0.70282300  0.63248200  0.20263800  1
  O  O10  1  0.86073800  0.01217200  0.76765200  1
  O  O11  1  0.26387700  0.95272900  0.95437300  1
  O  O12  1  0.61380800  0.04175100  0.22348000  1
  O  O13  1  0.20282300  0.36751800  0.79736200  1
  O  O14  1  0.11380800  0.95824900  0.77652000  1
  O  O15  1  0.60996400  0.86271400  0.92305600  1
  O  O16  1  0.89792100  0.35785000  0.96436800  1
  O  O17  1  0.65928100  0.82497900  0.54683900  1
  O  O18  1  0.60898300  0.28753100  0.48691600  1
  O  O19  1  0.10996400  0.13728600  0.07694400  1
  O  O20  1  0.24412800  0.62106000  0.23484000  1
  O  O21  1  0.99128900  0.06616600  0.52992600  1
  O  O22  1  0.49128900  0.93383400  0.47007400  1
  O  O23  1  0.39792100  0.64215000  0.03563200  1
loop_
_geom_bond_atom_site_label_1
_geom_bond_atom_site_label_2
_geom_bond_distance
_geom_bond_site_symmetry_2
O0 P7 1.599899 1_554
O0 P3 1.613443 1_545
O1 P2 1.522614 1_565
O1 Sb1 2.179775 1_555
O2 P2 1.517811 1_555
O2 Sb1 2.206088 1_555
O3 P7 1.554693 1_555
O3 Sb0 2.072176 1_555
O4 P1 1.522210 1_545
O4 Sb1 2.110205 1_555
O5 P2 1.574232 1_565
O5 P4 1.664327 1_555
O6 P1 1.517674 1_555
O6 Sb1 2.180776 1_555
O7 P0 1.517811 1_555
O7 Sb0 2.206088 1_555
O8 P0 1.522614 1_545
O8 Sb0 2.179775 1_555
O9 P3 1.547567 1_555
O9 Sb0 2.148942 1_555
O10 P0 1.574232 1_545
O10 P7 1.664327 1_555
O11 P4 1.599899 1_556
O11 P6 1.613443 1_565
O12 P5 1.574493 1_555
O12 P3 1.650669 1_545
O13 P6 1.547567 1_555
O13 Sb1 2.148942 1_555
O14 P1 1.574493 1_555
O14 P6 1.650669 1_565
O15 P3 1.459001 1_556
O16 P7 1.458804 1_555
O17 P5 1.522210 1_565
O17 Sb0 2.110205 1_555
O18 P5 1.517674 1_555
O18 Sb0 2.180776 1_555
O19 P6 1.459001 1_554
O20 P4 1.554693 1_555
O20 Sb1 2.072176 1_555
O21 P1 1.586968 1_645
O21 P0 1.596663 1_545
O22 P5 1.586968 1_565
O22 P2 1.596663 1_565
O23 P4 1.458804 1_555
