# generated using pymatgen
data_VCuSe2O7
_symmetry_space_group_name_H-M   'P 1'
_cell_length_a   8.98988900
_cell_length_b   8.28670500
_cell_length_c   8.65652338
_cell_angle_alpha   79.90491557
_cell_angle_beta   90.00000000
_cell_angle_gamma   90.00000000
_symmetry_Int_Tables_number   1
_chemical_formula_structural   VCuSe2O7
_chemical_formula_sum   'V4 Cu4 Se8 O28'
_cell_volume   634.89728911
_cell_formula_units_Z   4
loop_
 _symmetry_equiv_pos_site_id
 _symmetry_equiv_pos_as_xyz
  1  'x, y, z'
loop_
 _atom_site_type_symbol
 _atom_site_label
 _atom_site_symmetry_multiplicity
 _atom_site_fract_x
 _atom_site_fract_y
 _atom_site_fract_z
 _atom_site_occupancy
  V  V0  1  0.99262600  0.69362300  0.55378100  1
  V  V1  1  0.49262600  0.30637700  0.94621900  1
  V  V2  1  0.50737400  0.69362300  0.05378100  1
  V  V3  1  0.00737400  0.30637700  0.44621900  1
  Cu  Cu0  1  0.61898900  0.37025200  0.48664300  1
  Cu  Cu1  1  0.88101100  0.37025200  0.98664300  1
  Cu  Cu2  1  0.11898900  0.62974800  0.01335700  1
  Cu  Cu3  1  0.38101100  0.62974800  0.51335700  1
  Se  Se0  1  0.26819900  0.86765000  0.75244000  1
  Se  Se1  1  0.76819900  0.13235000  0.74756000  1
  Se  Se2  1  0.73180100  0.13235000  0.24756000  1
  Se  Se3  1  0.66965700  0.67115400  0.71783300  1
  Se  Se4  1  0.16965700  0.32884600  0.78216700  1
  Se  Se5  1  0.83034300  0.67115400  0.21783300  1
  Se  Se6  1  0.23180100  0.86765000  0.25244000  1
  Se  Se7  1  0.33034300  0.32884600  0.28216700  1
  O  O0  1  0.89226700  0.85467600  0.47708600  1
  O  O1  1  0.15573300  0.41221800  0.27622300  1
  O  O2  1  0.59156100  0.57962900  0.56764000  1
  O  O3  1  0.09317900  0.44515900  0.61103500  1
  O  O4  1  0.59317900  0.55484100  0.88896500  1
  O  O5  1  0.65573300  0.58778200  0.22377700  1
  O  O6  1  0.09156100  0.42037100  0.93236000  1
  O  O7  1  0.84426700  0.58778200  0.72377700  1
  O  O8  1  0.39840100  0.77083300  0.22943900  1
  O  O9  1  0.90682100  0.55484100  0.38896500  1
  O  O10  1  0.89840100  0.22916700  0.27056100  1
  O  O11  1  0.68643300  0.27700600  0.07584400  1
  O  O12  1  0.39226700  0.14532400  0.02291400  1
  O  O13  1  0.60773300  0.85467600  0.97708600  1
  O  O14  1  0.40682100  0.44515900  0.11103500  1
  O  O15  1  0.10159900  0.77083300  0.72943900  1
  O  O16  1  0.31356700  0.72299400  0.92415600  1
  O  O17  1  0.90843900  0.57962900  0.06764000  1
  O  O18  1  0.39318900  0.82022700  0.61837800  1
  O  O19  1  0.60681100  0.17977300  0.38162200  1
  O  O20  1  0.34426700  0.41221800  0.77622300  1
  O  O21  1  0.10681100  0.82022700  0.11837800  1
  O  O22  1  0.89318900  0.17977300  0.88162200  1
  O  O23  1  0.18643300  0.72299400  0.42415600  1
  O  O24  1  0.10773300  0.14532400  0.52291400  1
  O  O25  1  0.81356700  0.27700600  0.57584400  1
  O  O26  1  0.40843900  0.42037100  0.43236000  1
  O  O27  1  0.60159900  0.22916700  0.77056100  1
loop_
_geom_bond_atom_site_label_1
_geom_bond_atom_site_label_2
_geom_bond_distance
_geom_bond_site_symmetry_2
Cu0 O19 1.957810 1_555
Cu0 O26 1.976779 1_555
Cu0 O2 1.997315 1_555
Cu0 O25 2.010963 1_555
Cu0 O27 2.534657 1_555
Cu1 O22 1.957810 1_555
Cu1 O6 1.976779 1_655
Cu1 O17 1.997315 1_556
Cu1 O11 2.010963 1_556
Cu1 O10 2.534657 1_556
Cu2 O21 1.957810 1_555
Cu2 O17 1.976779 1_455
Cu2 O6 1.997315 1_554
Cu2 O16 2.010963 1_554
Cu2 O15 2.534657 1_554
Cu3 O18 1.957810 1_555
Cu3 O2 1.976779 1_555
Cu3 O26 1.997315 1_555
Cu3 O23 2.010963 1_555
Cu3 O8 2.534657 1_555
O0 V0 1.650850 1_555
O1 Se7 1.712172 1_555
O1 V3 2.064258 1_555
O2 Se3 1.761878 1_555
O3 Se4 1.759466 1_555
O3 V3 2.128005 1_555
O3 V0 2.223581 1_455
O4 Se3 1.759466 1_555
O4 V2 2.128005 1_556
O4 V1 2.223581 1_555
O5 Se5 1.712172 1_555
O5 V2 2.064258 1_555
O6 Se4 1.761878 1_555
O7 Se3 1.712172 1_555
O7 V0 2.064258 1_555
O8 Se6 1.726984 1_555
O8 V2 2.005577 1_555
O9 Se5 1.759466 1_555
O9 V0 2.128005 1_555
O9 V3 2.223581 1_655
O10 Se2 1.726984 1_555
O10 V3 2.005577 1_655
O11 Se2 1.785552 1_555
O11 V1 2.063548 1_554
O12 V1 1.650850 1_554
O13 V2 1.650850 1_556
O14 Se7 1.759466 1_555
O14 V1 2.128005 1_554
O14 V2 2.223581 1_555
O15 Se0 1.726984 1_555
O15 V0 2.005577 1_455
O16 Se0 1.785552 1_555
O16 V2 2.063548 1_556
O17 Se5 1.761878 1_555
O18 Se0 1.709876 1_555
O19 Se2 1.709876 1_555
O20 Se4 1.712172 1_555
O20 V1 2.064258 1_555
O21 Se6 1.709876 1_555
O22 Se1 1.709876 1_555
O23 Se6 1.785552 1_555
O23 V0 2.063548 1_455
O24 V3 1.650850 1_555
O25 Se1 1.785552 1_555
O25 V3 2.063548 1_655
O26 Se7 1.761878 1_555
O27 Se1 1.726984 1_555
O27 V1 2.005577 1_555
