# generated using pymatgen
data_CsNb4Cl11
_symmetry_space_group_name_H-M   'P 1'
_cell_length_a   7.00060562
_cell_length_b   6.92156682
_cell_length_c   16.29411193
_cell_angle_alpha   90.00000000
_cell_angle_beta   90.00000000
_cell_angle_gamma   90.00000000
_symmetry_Int_Tables_number   1
_chemical_formula_structural   CsNb4Cl11
_chemical_formula_sum   'Cs2 Nb8 Cl22'
_cell_volume   789.53379377
_cell_formula_units_Z   2
loop_
 _symmetry_equiv_pos_site_id
 _symmetry_equiv_pos_as_xyz
  1  'x, y, z'
loop_
 _atom_site_type_symbol
 _atom_site_label
 _atom_site_symmetry_multiplicity
 _atom_site_fract_x
 _atom_site_fract_y
 _atom_site_fract_z
 _atom_site_occupancy
  Cs  Cs0  1  0.50000000  0.52103084  0.75000000  1
  Cs  Cs1  1  0.50000000  0.47896916  0.25000000  1
  Nb  Nb0  1  -0.00000000  0.88019937  0.35949679  1
  Nb  Nb1  1  0.78723793  -0.00000000  0.00000000  1
  Nb  Nb2  1  0.21276207  -0.00000000  0.00000000  1
  Nb  Nb3  1  -0.00000000  0.88019937  0.14050321  1
  Nb  Nb4  1  -0.00000000  0.11980063  0.64050321  1
  Nb  Nb5  1  0.21276207  -0.00000000  0.50000000  1
  Nb  Nb6  1  0.78723793  -0.00000000  0.50000000  1
  Nb  Nb7  1  -0.00000000  0.11980063  0.85949679  1
  Cl  Cl0  1  0.50000000  0.13479527  0.08288443  1
  Cl  Cl1  1  0.25080706  0.68828418  0.07766106  1
  Cl  Cl2  1  0.76734209  0.01337537  0.25000000  1
  Cl  Cl3  1  -0.00000000  0.78893437  0.91359143  1
  Cl  Cl4  1  -0.00000000  0.21106563  0.08640857  1
  Cl  Cl5  1  0.50000000  0.86520473  0.91711557  1
  Cl  Cl6  1  0.76734209  0.98662463  0.75000000  1
  Cl  Cl7  1  -0.00000000  0.78893437  0.58640857  1
  Cl  Cl8  1  0.74919294  0.68828418  0.07766106  1
  Cl  Cl9  1  -0.00000000  0.59948930  0.25000000  1
  Cl  Cl10  1  -0.00000000  0.21106563  0.41359143  1
  Cl  Cl11  1  -0.00000000  0.40051070  0.75000000  1
  Cl  Cl12  1  0.23265791  0.98662463  0.75000000  1
  Cl  Cl13  1  0.74919294  0.68828418  0.42233894  1
  Cl  Cl14  1  0.74919294  0.31171582  0.57766106  1
  Cl  Cl15  1  0.25080706  0.31171582  0.92233894  1
  Cl  Cl16  1  0.74919294  0.31171582  0.92233894  1
  Cl  Cl17  1  0.25080706  0.68828418  0.42233894  1
  Cl  Cl18  1  0.50000000  0.13479527  0.41711557  1
  Cl  Cl19  1  0.25080706  0.31171582  0.57766106  1
  Cl  Cl20  1  0.23265791  0.01337537  0.25000000  1
  Cl  Cl21  1  0.50000000  0.86520473  0.58288443  1
loop_
_geom_bond_atom_site_label_1
_geom_bond_atom_site_label_2
_geom_bond_distance
_geom_bond_site_symmetry_2
Cl0 Nb1 2.595743 1_555
Cl0 Nb2 2.595743 1_555
Cl0 Cs1 3.617971 1_555
Cl1 Nb3 2.428137 1_555
Cl1 Nb2 2.515411 1_565
Cl1 Cs1 3.609398 1_555
Cl2 Nb3 2.585673 1_645
Cl2 Nb0 2.585673 1_645
Cl2 Cs1 3.726677 1_555
Cl3 Nb7 2.453880 1_565
Cl3 Nb1 2.516956 1_466
Cl3 Nb2 2.516956 1_566
Cl4 Nb3 2.453880 1_545
Cl4 Nb1 2.516956 1_455
Cl4 Nb2 2.516956 1_555
Cl5 Nb2 2.595743 1_566
Cl5 Nb1 2.595743 1_566
Cl5 Cs0 3.617971 1_555
Cl6 Nb7 2.585673 1_665
Cl6 Nb4 2.585673 1_665
Cl6 Cs0 3.726677 1_555
Cl7 Nb4 2.453880 1_565
Cl7 Nb6 2.516956 1_465
Cl7 Nb5 2.516956 1_565
Cl8 Nb3 2.428137 1_655
Cl8 Nb1 2.515411 1_565
Cl8 Cs1 3.609398 1_555
Cl9 Nb0 2.637853 1_555
Cl9 Nb3 2.637853 1_555
Cl9 Cs1 3.598332 1_455
Cl9 Cs1 3.598332 1_555
Cl10 Nb0 2.453880 1_545
Cl10 Nb5 2.516956 1_555
Cl10 Nb6 2.516956 1_455
Cl11 Nb7 2.637853 1_555
Cl11 Nb4 2.637853 1_555
Cl11 Cs0 3.598332 1_555
Cl11 Cs0 3.598332 1_455
Cl12 Nb7 2.585673 1_565
Cl12 Nb4 2.585673 1_565
Cl12 Cs0 3.726677 1_555
Cl13 Nb0 2.428137 1_655
Cl13 Nb6 2.515411 1_565
Cl13 Cs1 3.609398 1_555
Cl14 Nb4 2.428137 1_655
Cl14 Nb6 2.515411 1_555
Cl14 Cs0 3.609398 1_555
Cl15 Nb7 2.428137 1_555
Cl15 Nb2 2.515411 1_556
Cl15 Cs0 3.609398 1_555
Cl16 Nb7 2.428137 1_655
Cl16 Nb1 2.515411 1_556
Cl16 Cs0 3.609398 1_555
Cl17 Nb0 2.428137 1_555
Cl17 Nb5 2.515411 1_565
Cl17 Cs1 3.609398 1_555
Cl18 Nb6 2.595743 1_555
Cl18 Nb5 2.595743 1_555
Cl18 Cs1 3.617971 1_555
Cl19 Nb4 2.428137 1_555
Cl19 Nb5 2.515411 1_555
Cl19 Cs0 3.609398 1_555
Cl20 Nb3 2.585673 1_545
Cl20 Nb0 2.585673 1_545
Cl20 Cs1 3.726677 1_555
Cl21 Nb5 2.595743 1_565
Cl21 Nb6 2.595743 1_565
Cl21 Cs0 3.617971 1_555
