# generated using pymatgen
data_Dy3Ni13B2
_symmetry_space_group_name_H-M   'P 1'
_cell_length_a   4.92826329
_cell_length_b   4.92826329
_cell_length_c   10.90637400
_cell_angle_alpha   90.00000000
_cell_angle_beta   90.00000000
_cell_angle_gamma   119.99999046
_symmetry_Int_Tables_number   1
_chemical_formula_structural   Dy3Ni13B2
_chemical_formula_sum   'Dy3 Ni13 B2'
_cell_volume   229.40287858
_cell_formula_units_Z   1
loop_
 _symmetry_equiv_pos_site_id
 _symmetry_equiv_pos_as_xyz
  1  'x, y, z'
loop_
 _atom_site_type_symbol
 _atom_site_label
 _atom_site_symmetry_multiplicity
 _atom_site_fract_x
 _atom_site_fract_y
 _atom_site_fract_z
 _atom_site_occupancy
  Dy  Dy0  1  0.00000000  0.00000000  0.00000000  1
  Dy  Dy1  1  0.00000000  0.00000000  0.32770800  1
  Dy  Dy2  1  0.00000000  0.00000000  0.67229200  1
  Ni  Ni0  1  0.50000000  0.00000000  0.50000000  1
  Ni  Ni1  1  0.50000000  0.50000000  0.50000000  1
  Ni  Ni2  1  0.00000000  0.50000000  0.50000000  1
  Ni  Ni3  1  0.33333300  0.66666700  0.31892400  1
  Ni  Ni4  1  0.66666700  0.33333300  0.31892400  1
  Ni  Ni5  1  0.66666700  0.33333300  0.68107600  1
  Ni  Ni6  1  0.33333300  0.66666700  0.68107600  1
  Ni  Ni7  1  0.50000000  0.00000000  0.13344900  1
  Ni  Ni8  1  0.50000000  0.50000000  0.13344900  1
  Ni  Ni9  1  0.00000000  0.50000000  0.13344900  1
  Ni  Ni10  1  0.50000000  0.00000000  0.86655100  1
  Ni  Ni11  1  0.50000000  0.50000000  0.86655100  1
  Ni  Ni12  1  0.00000000  0.50000000  0.86655100  1
  B  B0  1  0.33333300  0.66666700  0.00000000  1
  B  B1  1  0.66666700  0.33333300  0.00000000  1
loop_
_geom_bond_atom_site_label_1
_geom_bond_atom_site_label_2
_geom_bond_distance
_geom_bond_site_symmetry_2
Dy0 Ni12 2.861864 1_554
Dy0 Ni10 2.861864 1_554
Dy0 Ni7 2.861864 1_455
Dy0 Ni12 2.861864 1_544
Dy0 Ni9 2.861864 1_545
Dy0 Ni9 2.861864 1_555
Dy0 Ni10 2.861864 1_454
Dy0 Ni7 2.861864 1_555
Dy0 Ni11 2.861864 1_444
Dy0 Ni8 2.861864 1_555
Dy0 Ni8 2.861864 1_445
Dy0 Ni11 2.861864 1_554
Dy1 Ni4 2.846944 1_455
Dy1 Ni3 2.846944 1_545
Dy1 Ni3 2.846948 1_555
Dy1 Ni4 2.846948 1_555
Dy1 Ni4 2.846948 1_445
Dy1 Ni3 2.846948 1_445
Dy1 Ni0 3.098853 1_455
Dy1 Ni2 3.098853 1_555
Dy1 Ni0 3.098853 1_555
Dy1 Ni2 3.098853 1_545
Dy1 Ni1 3.098853 1_555
Dy1 Ni1 3.098853 1_445
Dy1 Ni7 3.249719 1_555
Dy1 Ni7 3.249719 1_455
Dy1 Ni9 3.249719 1_545
Dy1 Ni9 3.249719 1_555
Dy1 Ni8 3.249719 1_555
Dy1 Ni8 3.249719 1_445
Dy2 Ni6 2.846944 1_545
Dy2 Ni5 2.846944 1_455
Dy2 Ni5 2.846948 1_555
Dy2 Ni5 2.846948 1_445
Dy2 Ni6 2.846948 1_445
Dy2 Ni6 2.846948 1_555
Dy2 Ni0 3.098853 1_555
Dy2 Ni0 3.098853 1_455
Dy2 Ni2 3.098853 1_555
Dy2 Ni2 3.098853 1_545
Dy2 Ni1 3.098853 1_445
Dy2 Ni1 3.098853 1_555
Dy2 Ni10 3.249719 1_555
Dy2 Ni12 3.249719 1_555
Dy2 Ni12 3.249719 1_545
Dy2 Ni10 3.249719 1_455
Dy2 Ni11 3.249719 1_445
Dy2 Ni11 3.249719 1_555
Ni0 Ni5 2.433955 1_555
Ni0 Ni3 2.433955 1_545
Ni0 Ni6 2.433955 1_545
Ni0 Ni4 2.433955 1_555
Ni0 Ni1 2.464132 1_555
Ni0 Ni1 2.464132 1_545
Ni0 Ni2 2.464132 1_545
Ni0 Ni2 2.464132 1_655
Ni1 Ni3 2.433958 1_555
Ni1 Ni5 2.433958 1_555
Ni1 Ni6 2.433958 1_555
Ni1 Ni4 2.433958 1_555
Ni1 Ni2 2.464132 1_555
Ni1 Ni2 2.464132 1_655
Ni2 Ni5 2.433955 1_455
Ni2 Ni6 2.433955 1_555
Ni2 Ni4 2.433955 1_455
Ni2 Ni3 2.433955 1_555
Ni3 Ni9 2.473043 1_555
Ni3 Ni7 2.473043 1_565
Ni3 Ni8 2.473045 1_555
Ni3 Ni4 2.845332 1_455
Ni3 Ni4 2.845332 1_565
Ni3 Ni4 2.845340 1_555
Ni4 Ni7 2.473043 1_555
Ni4 Ni9 2.473043 1_655
Ni4 Ni8 2.473045 1_555
Ni5 Ni6 2.845332 1_545
Ni5 Ni6 2.845332 1_655
Ni5 Ni6 2.845340 1_555
Ni10 Ni6 2.473043 1_545
Ni10 Ni5 2.473043 1_555
Ni11 Ni5 2.473045 1_555
Ni11 Ni6 2.473045 1_555
Ni12 Ni5 2.473043 1_455
Ni12 Ni6 2.473043 1_555
B0 Ni7 2.035263 1_565
B0 Ni10 2.035263 1_564
B0 Ni12 2.035263 1_554
B0 Ni9 2.035263 1_555
B0 Ni11 2.035266 1_554
B0 Ni8 2.035266 1_555
B0 Dy0 2.845331 1_565
B0 Dy0 2.845336 1_665
B0 Dy0 2.845336 1_555
B1 Ni7 2.035263 1_555
B1 Ni9 2.035263 1_655
B1 Ni10 2.035263 1_554
B1 Ni12 2.035263 1_654
B1 Ni11 2.035266 1_554
B1 Ni8 2.035266 1_555
B1 Dy0 2.845331 1_655
B1 Dy0 2.845336 1_665
B1 Dy0 2.845336 1_555
