# generated using pymatgen
data_PuGa
_symmetry_space_group_name_H-M   'P 1'
_cell_length_a   5.92445635
_cell_length_b   5.92445635
_cell_length_c   5.92445635
_cell_angle_alpha   115.02353026
_cell_angle_beta   115.02353026
_cell_angle_gamma   98.85991414
_symmetry_Int_Tables_number   1
_chemical_formula_structural   PuGa
_chemical_formula_sum   'Pu4 Ga4'
_cell_volume   156.07156869
_cell_formula_units_Z   4
loop_
 _symmetry_equiv_pos_site_id
 _symmetry_equiv_pos_as_xyz
  1  'x, y, z'
loop_
 _atom_site_type_symbol
 _atom_site_label
 _atom_site_symmetry_multiplicity
 _atom_site_fract_x
 _atom_site_fract_y
 _atom_site_fract_z
 _atom_site_occupancy
  Pu  Pu0  1  0.14828500  0.14828500  0.00000000  1
  Pu  Pu1  1  0.85171500  0.85171500  0.00000000  1
  Pu  Pu2  1  0.25000000  0.75000000  0.50000000  1
  Pu  Pu3  1  0.75000000  0.25000000  0.50000000  1
  Ga  Ga0  1  0.70016900  0.29983100  0.00000000  1
  Ga  Ga1  1  0.29983100  0.29983100  0.59966200  1
  Ga  Ga2  1  0.29983100  0.70016900  0.00000000  1
  Ga  Ga3  1  0.70016900  0.70016900  0.40033800  1
loop_
_geom_bond_atom_site_label_1
_geom_bond_atom_site_label_2
_geom_bond_distance
_geom_bond_site_symmetry_2
Pu0 Pu1 2.285446 1_445
Pu0 Pu3 3.277299 1_454
Pu0 Pu2 3.277299 1_544
Pu0 Pu3 3.277299 1_555
Pu0 Pu2 3.277299 1_555
Pu1 Pu2 3.277299 1_655
Pu1 Pu3 3.277299 1_554
Pu1 Pu3 3.277299 1_565
Pu1 Pu2 3.277299 1_554
Ga0 Ga3 2.547897 1_555
Ga0 Ga1 2.547897 1_554
Ga0 Pu1 2.930619 1_545
Ga0 Pu0 2.930619 1_655
Ga0 Pu2 2.995990 1_544
Ga0 Pu3 2.995990 1_555
Ga0 Pu2 2.995990 1_655
Ga0 Pu3 2.995990 1_554
Ga0 Pu0 3.254566 1_555
Ga0 Pu1 3.254566 1_555
Ga1 Ga2 2.547897 1_556
Ga1 Pu0 2.930619 1_555
Ga1 Pu1 2.930619 1_445
Ga1 Pu3 2.995990 1_455
Ga1 Pu2 2.995990 1_555
Ga1 Pu3 2.995990 1_555
Ga1 Pu2 2.995990 1_545
Ga1 Pu0 3.254566 1_556
Ga1 Pu1 3.254566 1_556
Ga2 Ga3 2.547897 1_555
Ga2 Pu1 2.930619 1_455
Ga2 Pu0 2.930619 1_565
Ga2 Pu3 2.995990 1_454
Ga2 Pu2 2.995990 1_555
Ga2 Pu2 2.995990 1_554
Ga2 Pu3 2.995990 1_565
Ga2 Pu0 3.254566 1_555
Ga2 Pu1 3.254566 1_555
Ga3 Pu1 2.930619 1_556
Ga3 Pu0 2.930619 1_666
Ga3 Pu2 2.995990 1_555
Ga3 Pu3 2.995990 1_555
Ga3 Pu2 2.995990 1_655
Ga3 Pu3 2.995990 1_565
Ga3 Pu0 3.254566 1_555
Ga3 Pu1 3.254566 1_555
