# generated using pymatgen
data_Zn(GaO2)2
_symmetry_space_group_name_H-M   'P 1'
_cell_length_a   5.89895224
_cell_length_b   5.89895254
_cell_length_c   5.89895211
_cell_angle_alpha   59.99999127
_cell_angle_beta   59.99998958
_cell_angle_gamma   59.99999147
_symmetry_Int_Tables_number   1
_chemical_formula_structural   Zn(GaO2)2
_chemical_formula_sum   'Zn2 Ga4 O8'
_cell_volume   145.14750134
_cell_formula_units_Z   2
loop_
 _symmetry_equiv_pos_site_id
 _symmetry_equiv_pos_as_xyz
  1  'x, y, z'
loop_
 _atom_site_type_symbol
 _atom_site_label
 _atom_site_symmetry_multiplicity
 _atom_site_fract_x
 _atom_site_fract_y
 _atom_site_fract_z
 _atom_site_occupancy
  Zn  Zn0  1  0.12500000  0.12500000  0.12500000  1
  Zn  Zn1  1  0.87500000  0.87500000  0.87500000  1
  Ga  Ga0  1  0.50000000  0.50000000  -0.00000000  1
  Ga  Ga1  1  0.50000000  0.50000000  0.50000000  1
  Ga  Ga2  1  -0.00000000  0.50000000  0.50000000  1
  Ga  Ga3  1  0.50000000  0.00000000  0.50000000  1
  O  O0  1  0.73849449  0.73849449  0.73849449  1
  O  O1  1  0.26150551  0.26150551  0.71548448  1
  O  O2  1  0.26150551  0.71548448  0.26150551  1
  O  O3  1  0.71548448  0.26150551  0.26150551  1
  O  O4  1  0.73849449  0.28451552  0.73849449  1
  O  O5  1  0.28451552  0.73849449  0.73849449  1
  O  O6  1  0.26150551  0.26150551  0.26150551  1
  O  O7  1  0.73849449  0.73849449  0.28451552  1
loop_
_geom_bond_atom_site_label_1
_geom_bond_atom_site_label_2
_geom_bond_distance
_geom_bond_site_symmetry_2
Ga0 O0 1.994236 1_554
Ga0 O6 1.994236 1_555
Ga0 O2 1.994240 1_555
Ga0 O4 1.994240 1_554
Ga0 O3 1.994240 1_555
Ga0 O5 1.994240 1_554
Ga1 O4 1.994236 1_555
Ga1 O2 1.994236 1_555
Ga1 O3 1.994236 1_555
Ga1 O5 1.994236 1_555
Ga1 O1 1.994236 1_555
Ga1 O7 1.994236 1_555
Ga2 O0 1.994236 1_455
Ga2 O6 1.994236 1_555
Ga2 O7 1.994240 1_455
Ga2 O1 1.994240 1_555
Ga2 O4 1.994240 1_455
Ga2 O2 1.994240 1_555
Ga3 O0 1.994236 1_545
Ga3 O6 1.994236 1_555
Ga3 O1 1.994240 1_555
Ga3 O7 1.994240 1_545
Ga3 O3 1.994240 1_555
Ga3 O5 1.994240 1_545
O0 Zn1 1.972426 1_555
O1 Zn0 1.972421 1_556
O2 Zn0 1.972421 1_565
O3 Zn0 1.972421 1_655
O4 Zn1 1.972421 1_545
O5 Zn1 1.972421 1_455
O6 Zn0 1.972426 1_555
O7 Zn1 1.972421 1_554
