# generated using pymatgen
data_BaGd2CoO5
_symmetry_space_group_name_H-M   'P 1'
_cell_length_a   6.77423250
_cell_length_b   6.77423250
_cell_length_c   6.77423250
_cell_angle_alpha   147.57291770
_cell_angle_beta   128.58206116
_cell_angle_gamma   62.11428639
_symmetry_Int_Tables_number   1
_chemical_formula_structural   BaGd2CoO5
_chemical_formula_sum   'Ba1 Gd2 Co1 O5'
_cell_volume   129.02637920
_cell_formula_units_Z   1
loop_
 _symmetry_equiv_pos_site_id
 _symmetry_equiv_pos_as_xyz
  1  'x, y, z'
loop_
 _atom_site_type_symbol
 _atom_site_label
 _atom_site_symmetry_multiplicity
 _atom_site_fract_x
 _atom_site_fract_y
 _atom_site_fract_z
 _atom_site_occupancy
  Ba  Ba0  1  0.00000000  0.50000000  0.50000000  1
  Gd  Gd0  1  0.70271800  0.70271800  0.00000000  1
  Gd  Gd1  1  0.29728200  0.29728200  0.00000000  1
  Co  Co0  1  0.50000000  0.00000000  0.50000000  1
  O  O0  1  0.40663000  0.14739500  0.25923400  1
  O  O1  1  0.59337000  0.85260500  0.74076600  1
  O  O2  1  0.11183900  0.85260500  0.25923400  1
  O  O3  1  0.88816100  0.14739500  0.74076600  1
  O  O4  1  0.50000000  0.50000000  0.00000000  1
loop_
_geom_bond_atom_site_label_1
_geom_bond_atom_site_label_2
_geom_bond_distance
_geom_bond_site_symmetry_2
Ba0 O4 2.938663 1_455
Ba0 O4 2.938663 1_556
Ba0 O2 2.970798 1_556
Ba0 O2 2.970798 1_545
Ba0 O3 2.970798 1_465
Ba0 O3 2.970798 1_454
Ba0 O1 2.970802 1_444
Ba0 O0 2.970802 1_566
Ba0 O1 2.970804 1_455
Ba0 O0 2.970804 1_555
Gd0 O1 2.312509 1_554
Gd0 O2 2.312511 1_655
Gd0 O4 2.352813 1_555
Gd0 O0 2.447936 1_565
Gd0 O0 2.447938 1_554
Gd0 O3 2.447940 1_565
Gd0 O3 2.447940 1_554
Gd1 O0 2.312509 1_555
Gd1 O3 2.312511 1_454
Gd1 O4 2.352813 1_555
Gd1 O1 2.447936 1_544
Gd1 O1 2.447938 1_555
Gd1 O2 2.447940 1_555
Gd1 O2 2.447940 1_544
Co0 O4 1.891488 1_545
Co0 O4 1.891488 1_556
Co0 O2 2.220123 1_545
Co0 O3 2.220123 1_555
Co0 O1 2.220125 1_545
Co0 O0 2.220125 1_555
