# generated using pymatgen
data_K2Sr(PO3)4
_symmetry_space_group_name_H-M   'P 1'
_cell_length_a   7.42547063
_cell_length_b   7.42547063
_cell_length_c   7.42547063
_cell_angle_alpha   118.74077303
_cell_angle_beta   118.74077303
_cell_angle_gamma   92.19524343
_symmetry_Int_Tables_number   1
_chemical_formula_structural   K2Sr(PO3)4
_chemical_formula_sum   'K2 Sr1 P4 O12'
_cell_volume   294.78172304
_cell_formula_units_Z   1
loop_
 _symmetry_equiv_pos_site_id
 _symmetry_equiv_pos_as_xyz
  1  'x, y, z'
loop_
 _atom_site_type_symbol
 _atom_site_label
 _atom_site_symmetry_multiplicity
 _atom_site_fract_x
 _atom_site_fract_y
 _atom_site_fract_z
 _atom_site_occupancy
  K  K0  1  0.32589600  0.32589600  0.00000000  1
  K  K1  1  0.67410400  0.67410400  0.00000000  1
  Sr  Sr0  1  0.25000000  0.75000000  0.50000000  1
  P  P0  1  0.81479700  0.87543800  0.62445100  1
  P  P1  1  0.12456200  0.74901300  0.93935900  1
  P  P2  1  0.80965400  0.18520300  0.06064100  1
  P  P3  1  0.25098700  0.19034600  0.37554900  1
  O  O0  1  0.98738300  0.12872900  0.24672300  1
  O  O1  1  0.88200500  0.74066000  0.75327700  1
  O  O2  1  0.25934000  0.01261700  0.14134500  1
  O  O3  1  0.85408400  0.42657900  0.19329400  1
  O  O4  1  0.23328600  0.66079000  0.80670600  1
  O  O5  1  0.97148700  0.91325600  0.56247200  1
  O  O6  1  0.35078400  0.40901600  0.43752800  1
  O  O7  1  0.08674400  0.64921600  0.05823200  1
  O  O8  1  0.57342100  0.76671400  0.42750500  1
  O  O9  1  0.59098400  0.02851300  0.94176800  1
  O  O10  1  0.87127100  0.11799500  0.85865500  1
  O  O11  1  0.33921000  0.14591600  0.57249500  1
loop_
_geom_bond_atom_site_label_1
_geom_bond_atom_site_label_2
_geom_bond_distance
_geom_bond_site_symmetry_2
K0 O8 2.846895 1_555
K0 O11 2.846899 1_554
K0 O6 2.907849 1_555
K0 O5 2.907852 1_444
K0 O9 3.028373 1_554
K0 O7 3.028378 1_555
K0 O2 3.084796 1_555
K0 O10 3.084803 1_454
K1 O4 2.846893 1_554
K1 O3 2.846899 1_555
K1 O7 2.907849 1_655
K1 O9 2.907857 1_564
K1 O5 3.028378 1_555
K1 O6 3.028378 1_554
K1 O1 3.084796 1_554
K1 O0 3.084802 1_565
O0 P3 1.632649 1_655
O0 P2 1.634840 1_555
O1 P0 1.632649 1_555
O1 P1 1.634845 1_655
O2 P1 1.632649 1_544
O2 P3 1.634845 1_555
O3 P2 1.495285 1_555
O3 Sr0 2.712438 1_655
O4 P1 1.495292 1_555
O4 Sr0 2.712434 1_555
O5 P0 1.502865 1_555
O5 Sr0 2.556483 1_655
O6 P3 1.502872 1_555
O6 Sr0 2.556477 1_555
O7 P1 1.502872 1_554
O7 Sr0 2.556477 1_555
O8 P0 1.495285 1_555
O8 Sr0 2.712437 1_555
O9 P2 1.502868 1_556
O9 Sr0 2.556478 1_545
O10 P2 1.632643 1_556
O10 P0 1.634847 1_545
O11 P3 1.495285 1_555
O11 Sr0 2.712438 1_545
