# generated using pymatgen
data_U3Co7B2
_symmetry_space_group_name_H-M   'P 1'
_cell_length_a   4.93767295
_cell_length_b   4.93766867
_cell_length_c   13.79000668
_cell_angle_alpha   89.99979939
_cell_angle_beta   89.99993506
_cell_angle_gamma   119.99991945
_symmetry_Int_Tables_number   1
_chemical_formula_structural   U3Co7B2
_chemical_formula_sum   'U6 Co14 B4'
_cell_volume   291.16537335
_cell_formula_units_Z   2
loop_
 _symmetry_equiv_pos_site_id
 _symmetry_equiv_pos_as_xyz
  1  'x, y, z'
loop_
 _atom_site_type_symbol
 _atom_site_label
 _atom_site_symmetry_multiplicity
 _atom_site_fract_x
 _atom_site_fract_y
 _atom_site_fract_z
 _atom_site_occupancy
  U  U0  1  0.33333435  0.66666777  0.24993565  1
  U  U1  1  0.66666632  0.33333426  0.75006271  1
  U  U2  1  0.33333083  0.66666622  0.02938698  1
  U  U3  1  0.66666649  0.33332710  0.52940413  1
  U  U4  1  0.66666920  0.33333454  0.97065001  1
  U  U5  1  0.33333083  0.66666857  0.47054844  1
  Co  Co0  1  -0.00000199  -0.00000005  0.00000468  1
  Co  Co1  1  0.99999375  0.99999380  0.49998967  1
  Co  Co2  1  0.83458515  0.66916323  0.14684672  1
  Co  Co3  1  0.16540437  0.83459764  0.64690967  1
  Co  Co4  1  0.66919345  0.83460355  0.64691477  1
  Co  Co5  1  0.33083727  0.16541769  0.14684679  1
  Co  Co6  1  0.83458015  0.16541619  0.14684734  1
  Co  Co7  1  0.16544455  0.33089880  0.85318902  1
  Co  Co8  1  0.16544602  0.83455213  0.85318837  1
  Co  Co9  1  0.16540188  0.33080739  0.64691451  1
  Co  Co10  1  0.66910449  0.83455616  0.85318837  1
  Co  Co11  1  0.33087964  0.16543646  0.35306435  1
  Co  Co12  1  0.83456121  0.66911997  0.35306301  1
  Co  Co13  1  0.83456704  0.16543377  0.35306220  1
  B  B0  1  0.00000562  -0.00000389  0.24995528  1
  B  B1  1  -0.00000116  0.00000583  0.75002019  1
  B  B2  1  0.33332949  0.66667229  0.75004084  1
  B  B3  1  0.66666906  0.33333058  0.24996629  1
loop_
_geom_bond_atom_site_label_1
_geom_bond_atom_site_label_2
_geom_bond_distance
_geom_bond_site_symmetry_2
U0 U2 3.041368 1_555
U0 U5 3.042252 1_555
U1 U4 3.041900 1_555
U1 U3 3.042883 1_555
U2 U4 2.963587 1_454
U2 U4 2.963606 1_564
U2 U4 2.963616 1_554
U3 U5 2.964021 1_545
U3 U5 2.964041 1_655
U3 U5 2.964091 1_555
Co0 Co7 2.470037 1_554
Co0 Co10 2.470041 1_444
Co0 Co8 2.470043 1_544
Co0 Co2 2.470183 1_445
Co0 Co6 2.470190 1_455
Co0 Co5 2.470200 1_555
Co0 U4 2.879347 1_454
Co0 U4 2.879360 1_444
Co0 U4 2.879384 1_554
Co0 U2 2.879414 1_545
Co0 U2 2.879417 1_555
Co0 U2 2.879420 1_445
Co1 Co3 2.470994 1_655
Co1 Co4 2.471035 1_555
Co1 Co9 2.471073 1_665
Co1 Co13 2.471225 1_565
Co1 Co12 2.471241 1_555
Co1 Co11 2.471247 1_665
Co1 U3 2.879452 1_565
Co1 U3 2.879478 1_555
Co1 U3 2.879509 1_665
Co1 U5 2.879511 1_655
Co1 U5 2.879520 1_555
Co1 U5 2.879564 1_665
Co2 U4 2.822408 1_554
Co2 U0 2.848884 1_655
Co2 U0 2.848907 1_555
Co2 U2 2.952757 1_655
Co2 U2 2.952808 1_555
Co3 U5 2.824415 1_555
Co3 U1 2.849336 1_455
Co3 U1 2.849342 1_565
Co3 U3 2.953108 1_565
Co3 U3 2.953155 1_455
Co4 U5 2.824495 1_555
Co4 U1 2.849280 1_565
Co4 U1 2.849320 1_555
Co4 U3 2.953108 1_565
Co4 U3 2.953225 1_555
Co5 U4 2.822407 1_554
Co5 U0 2.848882 1_545
Co5 U0 2.848904 1_555
Co5 U2 2.952779 1_545
Co5 U2 2.952784 1_555
Co6 U4 2.822409 1_554
Co6 U0 2.848875 1_545
Co6 U0 2.848911 1_655
Co6 U2 2.952784 1_655
Co6 U2 2.952794 1_545
Co7 U2 2.822290 1_556
Co7 U1 2.849136 1_455
Co7 U1 2.849168 1_555
Co7 U4 2.952761 1_455
Co7 U4 2.952821 1_555
Co8 U2 2.822296 1_556
Co8 U1 2.849149 1_565
Co8 U1 2.849150 1_455
Co8 U4 2.952780 1_455
Co8 U4 2.952815 1_565
Co9 U5 2.824478 1_555
Co9 U1 2.849298 1_455
Co9 U1 2.849310 1_555
Co9 U3 2.953148 1_455
Co9 U3 2.953184 1_555
Co10 U2 2.822302 1_556
Co10 U1 2.849129 1_565
Co10 U1 2.849162 1_555
Co10 U4 2.952782 1_565
Co10 U4 2.952806 1_555
Co11 U3 2.824015 1_555
Co11 U0 2.849154 1_545
Co11 U0 2.849179 1_555
Co11 U5 2.952933 1_545
Co11 U5 2.952996 1_555
Co12 U3 2.824033 1_555
Co12 U0 2.849155 1_655
Co12 U0 2.849164 1_555
Co12 U5 2.952958 1_655
Co12 U5 2.952994 1_555
Co13 U3 2.824052 1_555
Co13 U0 2.849153 1_655
Co13 U0 2.849159 1_545
Co13 U5 2.952981 1_545
Co13 U5 2.952988 1_655
B0 Co5 2.005749 1_555
B0 Co2 2.005761 1_445
B0 Co6 2.005786 1_455
B0 Co13 2.005872 1_455
B0 Co12 2.005874 1_445
B0 Co11 2.005890 1_555
B0 U0 2.850723 1_545
B0 U0 2.850788 1_555
B0 U0 2.850789 1_445
B1 Co9 2.005629 1_555
B1 Co4 2.005647 1_445
B1 Co3 2.005718 1_545
B1 Co10 2.006522 1_445
B1 Co7 2.006532 1_555
B1 Co8 2.006542 1_545
B1 U1 2.850740 1_455
B1 U1 2.850773 1_555
B1 U1 2.850788 1_445
B2 Co8 2.021061 1_555
B2 Co7 2.021093 1_555
B2 Co10 2.021100 1_555
B2 Co4 2.021155 1_555
B2 Co3 2.021164 1_555
B2 Co9 2.021168 1_555
B2 U1 2.850747 1_565
B2 U1 2.850754 1_455
B2 U1 2.850799 1_555
B3 Co12 2.020651 1_555
B3 Co13 2.020653 1_555
B3 Co11 2.020657 1_555
B3 Co6 2.020972 1_555
B3 Co2 2.020995 1_555
B3 Co5 2.021000 1_555
B3 U0 2.850750 1_545
B3 U0 2.850763 1_655
B3 U0 2.850787 1_555
