# generated using pymatgen
data_Sr(AsRh)2
_symmetry_space_group_name_H-M   'P 1'
_cell_length_a   4.03238481
_cell_length_b   4.03243588
_cell_length_c   6.79247901
_cell_angle_alpha   107.42910381
_cell_angle_beta   107.43266012
_cell_angle_gamma   90.00321937
_symmetry_Int_Tables_number   1
_chemical_formula_structural   Sr(AsRh)2
_chemical_formula_sum   'Sr1 As2 Rh2'
_cell_volume   100.04680812
_cell_formula_units_Z   1
loop_
 _symmetry_equiv_pos_site_id
 _symmetry_equiv_pos_as_xyz
  1  'x, y, z'
loop_
 _atom_site_type_symbol
 _atom_site_label
 _atom_site_symmetry_multiplicity
 _atom_site_fract_x
 _atom_site_fract_y
 _atom_site_fract_z
 _atom_site_occupancy
  Sr  Sr0  1  -0.00000000  -0.00000000  0.00000000  1
  As  As0  1  0.36494641  0.36489074  0.72623089  1
  As  As1  1  0.63505359  0.63510926  0.27376911  1
  Rh  Rh0  1  0.75030305  0.24970414  0.50000171  1
  Rh  Rh1  1  0.24969695  0.75029586  0.49999829  1
loop_
_geom_bond_atom_site_label_1
_geom_bond_atom_site_label_2
_geom_bond_distance
_geom_bond_site_symmetry_2
As0 Rh0 2.448449 1_555
As0 Rh1 2.448569 1_555
As0 Rh1 2.451524 1_545
As0 Rh0 2.451578 1_455
As0 Sr0 3.296608 1_666
As0 Sr0 3.311635 1_656
As0 Sr0 3.312051 1_566
As0 Sr0 3.326734 1_556
As1 Rh1 2.448449 1_555
As1 Rh0 2.448569 1_555
As1 Rh0 2.451524 1_565
As1 Rh1 2.451578 1_655
As1 Sr0 3.296608 1_555
As1 Sr0 3.311635 1_565
As1 Sr0 3.312051 1_655
As1 Sr0 3.326734 1_665
