# generated using pymatgen
data_Ti3Mn3O
_symmetry_space_group_name_H-M   'P 1'
_cell_length_a   8.40956579
_cell_length_b   8.40956579
_cell_length_c   8.40956579
_cell_angle_alpha   60.00000000
_cell_angle_beta   60.00000000
_cell_angle_gamma   60.00000000
_symmetry_Int_Tables_number   1
_chemical_formula_structural   Ti3Mn3O
_chemical_formula_sum   'Ti12 Mn12 O4'
_cell_volume   420.53846035
_cell_formula_units_Z   4
loop_
 _symmetry_equiv_pos_site_id
 _symmetry_equiv_pos_as_xyz
  1  'x, y, z'
loop_
 _atom_site_type_symbol
 _atom_site_label
 _atom_site_symmetry_multiplicity
 _atom_site_fract_x
 _atom_site_fract_y
 _atom_site_fract_z
 _atom_site_occupancy
  Ti  Ti0  1  0.93203500  0.93203500  0.56796500  1
  Ti  Ti1  1  0.68203500  0.31796500  0.31796500  1
  Ti  Ti2  1  0.31796500  0.68203500  0.68203500  1
  Ti  Ti3  1  0.68203500  0.68203500  0.31796500  1
  Ti  Ti4  1  0.68203500  0.31796500  0.68203500  1
  Ti  Ti5  1  0.31796500  0.68203500  0.31796500  1
  Ti  Ti6  1  0.56796500  0.93203500  0.56796500  1
  Ti  Ti7  1  0.56796500  0.93203500  0.93203500  1
  Ti  Ti8  1  0.93203500  0.56796500  0.56796500  1
  Ti  Ti9  1  0.93203500  0.56796500  0.93203500  1
  Ti  Ti10  1  0.31796500  0.31796500  0.68203500  1
  Ti  Ti11  1  0.56796500  0.56796500  0.93203500  1
  Mn  Mn0  1  0.12500000  0.62500000  0.12500000  1
  Mn  Mn1  1  0.12500000  0.12500000  0.62500000  1
  Mn  Mn2  1  0.62500000  0.12500000  0.12500000  1
  Mn  Mn3  1  0.12500000  0.12500000  0.12500000  1
  Mn  Mn4  1  0.91129000  0.26613000  0.91129000  1
  Mn  Mn5  1  0.33871000  0.33871000  0.98387000  1
  Mn  Mn6  1  0.98387000  0.33871000  0.33871000  1
  Mn  Mn7  1  0.33871000  0.33871000  0.33871000  1
  Mn  Mn8  1  0.26613000  0.91129000  0.91129000  1
  Mn  Mn9  1  0.91129000  0.91129000  0.91129000  1
  Mn  Mn10  1  0.91129000  0.91129000  0.26613000  1
  Mn  Mn11  1  0.33871000  0.98387000  0.33871000  1
  O  O0  1  0.62500000  0.12500000  0.62500000  1
  O  O1  1  0.62500000  0.62500000  0.12500000  1
  O  O2  1  0.12500000  0.62500000  0.62500000  1
  O  O3  1  0.62500000  0.62500000  0.62500000  1
loop_
_geom_bond_atom_site_label_1
_geom_bond_atom_site_label_2
_geom_bond_distance
_geom_bond_site_symmetry_2
Mn0 Mn9 2.613898 1_454
Mn0 Mn6 2.613898 1_455
Mn0 Mn10 2.613898 1_455
Mn0 Mn8 2.613898 1_554
Mn0 Mn5 2.613898 1_554
Mn0 Mn7 2.613898 1_555
Mn0 Ti5 3.112346 1_555
Mn0 Ti8 3.112346 1_455
Mn0 Ti2 3.112346 1_554
Mn0 Ti9 3.112346 1_454
Mn0 Ti3 3.112346 1_455
Mn0 Ti11 3.112346 1_554
Mn1 Mn9 2.613898 1_445
Mn1 Mn11 2.613898 1_545
Mn1 Mn6 2.613898 1_455
Mn1 Mn4 2.613898 1_455
Mn1 Mn8 2.613898 1_545
Mn1 Mn7 2.613898 1_555
Mn1 Ti10 3.112346 1_555
Mn1 Ti6 3.112346 1_545
Mn1 Ti8 3.112346 1_455
Mn1 Ti0 3.112346 1_445
Mn1 Ti2 3.112346 1_545
Mn1 Ti4 3.112346 1_455
Mn2 Mn4 2.613898 1_554
Mn2 Mn9 2.613898 1_544
Mn2 Mn5 2.613898 1_554
Mn2 Mn7 2.613898 1_555
Mn2 Ti1 3.112346 1_555
Mn2 Ti6 3.112346 1_545
Mn2 Ti3 3.112346 1_545
Mn2 Ti7 3.112346 1_544
Mn2 Ti4 3.112346 1_554
Mn2 Ti11 3.112346 1_554
Mn3 Mn4 2.613898 1_454
Mn3 Mn8 2.613898 1_544
Mn3 Mn6 2.613898 1_455
Mn3 Mn5 2.613898 1_554
Mn3 Ti7 3.112346 1_544
Mn3 Ti1 3.112346 1_455
Mn3 Ti0 3.112346 1_445
Mn3 Ti10 3.112346 1_554
Mn3 Ti9 3.112346 1_454
Mn3 Ti5 3.112346 1_545
Mn4 Ti9 2.723954 1_555
Mn4 Ti11 2.723954 1_555
Mn4 Ti8 2.723954 1_555
Mn4 Mn9 2.984050 1_545
Mn4 Mn8 2.984050 1_645
Mn4 Ti1 3.108055 1_556
Mn4 Ti10 3.108055 1_655
Mn4 Ti4 3.108055 1_555
Mn5 Ti4 2.723954 1_555
Mn5 Ti2 2.723954 1_555
Mn5 Ti10 2.723954 1_555
Mn5 Mn6 2.984050 1_456
Mn5 Mn7 2.984050 1_556
Mn5 Ti11 3.108055 1_555
Mn5 Ti7 3.108055 1_545
Mn5 Ti9 3.108055 1_455
Mn6 Ti4 2.723954 1_555
Mn6 Ti3 2.723954 1_555
Mn6 Ti1 2.723954 1_555
Mn6 Mn7 2.984050 1_655
Mn6 Ti8 3.108055 1_555
Mn6 Ti0 3.108055 1_545
Mn6 Ti9 3.108055 1_554
Mn7 Ti5 2.723954 1_555
Mn7 Ti1 2.723954 1_555
Mn7 Ti10 2.723954 1_555
Mn7 Ti8 3.108055 1_455
Mn7 Ti6 3.108055 1_545
Mn7 Ti11 3.108055 1_554
Mn8 Ti7 2.723954 1_555
Mn8 Ti6 2.723954 1_555
Mn8 Ti11 2.723954 1_555
Mn8 Mn9 2.984050 1_455
Mn8 Ti10 3.108055 1_565
Mn8 Ti5 3.108055 1_556
Mn8 Ti2 3.108055 1_555
Mn9 Ti0 2.723954 1_555
Mn9 Ti9 2.723954 1_555
Mn9 Ti7 2.723954 1_555
Mn9 Ti3 3.108055 1_556
Mn9 Ti4 3.108055 1_565
Mn9 Ti2 3.108055 1_655
Mn10 Mn3 2.613898 1_665
Mn10 Mn2 2.613898 1_565
Mn10 Ti0 2.723954 1_555
Mn10 Ti6 2.723954 1_555
Mn10 Ti8 2.723954 1_555
Mn10 Mn8 2.984050 1_654
Mn10 Mn9 2.984050 1_554
Mn10 Mn4 2.984050 1_564
Mn10 Ti1 3.108055 1_565
Mn10 Ti5 3.108055 1_655
Mn10 Ti3 3.108055 1_555
Mn11 Mn2 2.613898 1_565
Mn11 Mn3 2.613898 1_565
Mn11 Ti3 2.723954 1_555
Mn11 Ti2 2.723954 1_555
Mn11 Ti5 2.723954 1_555
Mn11 Mn6 2.984050 1_465
Mn11 Mn5 2.984050 1_564
Mn11 Mn7 2.984050 1_565
Mn11 Ti6 3.108055 1_555
Mn11 Ti0 3.108055 1_455
Mn11 Ti7 3.108055 1_554
O0 Ti4 2.209108 1_555
O0 Ti10 2.209108 1_555
O0 Ti6 2.209108 1_545
O0 Ti0 2.209108 1_545
O0 Ti7 2.209108 1_545
O0 Ti1 2.209108 1_555
O1 Ti3 2.209108 1_555
O1 Ti7 2.209108 1_554
O1 Ti11 2.209108 1_554
O1 Ti9 2.209108 1_554
O1 Ti1 2.209108 1_555
O1 Ti5 2.209108 1_555
O2 Ti2 2.209108 1_555
O2 Ti9 2.209108 1_455
O2 Ti8 2.209108 1_455
O2 Ti10 2.209108 1_555
O2 Ti0 2.209108 1_455
O2 Ti5 2.209108 1_555
O3 Ti6 2.209108 1_555
O3 Ti11 2.209108 1_555
O3 Ti8 2.209108 1_555
O3 Ti3 2.209108 1_555
O3 Ti4 2.209108 1_555
O3 Ti2 2.209108 1_555
