# generated using pymatgen
data_SiO2
_symmetry_space_group_name_H-M   'P 1'
_cell_length_a   10.10498100
_cell_length_b   12.95531077
_cell_length_c   13.10221222
_cell_angle_alpha   93.70148580
_cell_angle_beta   95.66514904
_cell_angle_gamma   91.60611657
_symmetry_Int_Tables_number   1
_chemical_formula_structural   SiO2
_chemical_formula_sum   'Si16 O32'
_cell_volume   1702.29148348
_cell_formula_units_Z   16
loop_
 _symmetry_equiv_pos_site_id
 _symmetry_equiv_pos_as_xyz
  1  'x, y, z'
loop_
 _atom_site_type_symbol
 _atom_site_label
 _atom_site_symmetry_multiplicity
 _atom_site_fract_x
 _atom_site_fract_y
 _atom_site_fract_z
 _atom_site_occupancy
  Si  Si0  1  0.23443800  0.89899600  0.43041500  1
  Si  Si1  1  0.43617400  0.60230000  0.69884700  1
  Si  Si2  1  0.39588200  0.73913500  0.35999600  1
  Si  Si3  1  0.56382600  0.39770000  0.30115300  1
  Si  Si4  1  0.32827300  0.25089700  0.56680500  1
  Si  Si5  1  0.67208200  0.24973200  0.43324500  1
  Si  Si6  1  0.56377000  0.57898800  0.30117800  1
  Si  Si7  1  0.67172700  0.74910300  0.43319500  1
  Si  Si8  1  0.60388700  0.76199500  0.63991800  1
  Si  Si9  1  0.60411800  0.26086500  0.64000400  1
  Si  Si10  1  0.43623000  0.42101200  0.69882200  1
  Si  Si11  1  0.23470800  0.08015800  0.43047800  1
  Si  Si12  1  0.39611300  0.23800500  0.36008200  1
  Si  Si13  1  0.76556200  0.10100400  0.56958500  1
  Si  Si14  1  0.76529200  0.91984200  0.56952200  1
  Si  Si15  1  0.32791800  0.75026800  0.56675500  1
  O  O0  1  0.27653700  0.82049000  0.33470700  1
  O  O1  1  0.53517500  0.49325200  0.38637200  1
  O  O2  1  0.21110000  0.83013100  0.53000000  1
  O  O3  1  0.78890000  0.16986900  0.47000000  1
  O  O4  1  0.53601600  0.80691000  0.39085100  1
  O  O5  1  0.72346300  0.17951000  0.66529300  1
  O  O6  1  0.46398400  0.19309000  0.60914900  1
  O  O7  1  0.53632200  0.18046200  0.39095500  1
  O  O8  1  0.69247600  0.65803800  0.34302000  1
  O  O9  1  0.69264400  0.32987600  0.34300400  1
  O  O10  1  0.72320500  0.85188000  0.66518500  1
  O  O11  1  0.46367800  0.81953800  0.60904500  1
  O  O12  1  0.27679500  0.14812000  0.33481500  1
  O  O13  1  0.21164200  0.16106200  0.53001300  1
  O  O14  1  0.40772900  0.51673800  0.78623600  1
  O  O15  1  0.35469200  0.30724500  0.46119400  1
  O  O16  1  0.43181600  0.31829800  0.27335300  1
  O  O17  1  0.46482500  0.50674800  0.61362800  1
  O  O18  1  0.64530800  0.69275500  0.53880600  1
  O  O19  1  0.59227100  0.48326200  0.21376400  1
  O  O20  1  0.88173300  0.01493300  0.60125100  1
  O  O21  1  0.30752400  0.34196200  0.65698000  1
  O  O22  1  0.11826700  0.98506700  0.39874900  1
  O  O23  1  0.56818400  0.68170200  0.72664700  1
  O  O24  1  0.65184700  0.00600500  0.53802300  1
  O  O25  1  0.78835800  0.83893800  0.46998700  1
  O  O26  1  0.30735600  0.67012400  0.65699600  1
  O  O27  1  0.56827200  0.35104900  0.72653200  1
  O  O28  1  0.64579500  0.31863600  0.53891200  1
  O  O29  1  0.43172800  0.64895100  0.27346800  1
  O  O30  1  0.34815300  0.99399500  0.46197700  1
  O  O31  1  0.35420500  0.68136400  0.46108800  1
loop_
_geom_bond_atom_site_label_1
_geom_bond_atom_site_label_2
_geom_bond_distance
_geom_bond_site_symmetry_2
O0 Si2 1.646966 1_555
O0 Si0 1.659152 1_555
O1 Si3 1.663845 1_555
O1 Si6 1.664022 1_555
O2 Si15 1.648158 1_555
O2 Si0 1.659306 1_555
O3 Si5 1.648158 1_555
O3 Si13 1.659306 1_555
O4 Si7 1.646297 1_555
O4 Si2 1.646526 1_555
O5 Si9 1.646966 1_555
O5 Si13 1.659152 1_555
O6 Si4 1.646297 1_555
O6 Si9 1.646526 1_555
O7 Si5 1.646530 1_555
O7 Si12 1.646730 1_555
O8 Si7 1.647590 1_555
O8 Si6 1.659195 1_555
O9 Si5 1.647453 1_555
O9 Si3 1.659095 1_555
O10 Si8 1.646837 1_555
O10 Si14 1.659470 1_555
O11 Si15 1.646530 1_555
O11 Si8 1.646730 1_555
O12 Si12 1.646837 1_555
O12 Si11 1.659470 1_555
O13 Si4 1.647543 1_555
O13 Si11 1.658579 1_555
O14 Si1 1.683254 1_555
O14 Si10 1.683580 1_555
O15 Si4 1.646615 1_555
O15 Si12 1.646815 1_555
O16 Si12 1.648034 1_555
O16 Si3 1.658031 1_555
O17 Si1 1.663845 1_555
O17 Si10 1.664022 1_555
O18 Si7 1.646615 1_555
O18 Si8 1.646815 1_555
O19 Si3 1.683254 1_555
O19 Si6 1.683580 1_555
O20 Si13 1.682422 1_555
O20 Si14 1.682557 1_545
O21 Si4 1.647590 1_555
O21 Si10 1.659195 1_555
O22 Si0 1.682422 1_555
O22 Si11 1.682557 1_565
O23 Si8 1.648034 1_555
O23 Si1 1.658031 1_555
O24 Si13 1.663529 1_555
O24 Si14 1.663831 1_545
O25 Si7 1.647543 1_555
O25 Si14 1.658579 1_555
O26 Si15 1.647453 1_555
O26 Si1 1.659095 1_555
O27 Si9 1.647830 1_555
O27 Si10 1.657804 1_555
O28 Si5 1.646363 1_555
O28 Si9 1.646925 1_555
O29 Si2 1.647830 1_555
O29 Si6 1.657804 1_555
O30 Si0 1.663529 1_555
O30 Si11 1.663831 1_565
O31 Si15 1.646363 1_555
O31 Si2 1.646925 1_555
