# generated using pymatgen
data_La14C14Cl9
_symmetry_space_group_name_H-M   'P 1'
_cell_length_a   30.03131600
_cell_length_b   6.97897800
_cell_length_c   7.82545428
_cell_angle_alpha   75.58430912
_cell_angle_beta   90.00000000
_cell_angle_gamma   90.00000000
_symmetry_Int_Tables_number   1
_chemical_formula_structural   La14C14Cl9
_chemical_formula_sum   'La28 C28 Cl18'
_cell_volume   1588.48131732
_cell_formula_units_Z   2
loop_
 _symmetry_equiv_pos_site_id
 _symmetry_equiv_pos_as_xyz
  1  'x, y, z'
loop_
 _atom_site_type_symbol
 _atom_site_label
 _atom_site_symmetry_multiplicity
 _atom_site_fract_x
 _atom_site_fract_y
 _atom_site_fract_z
 _atom_site_occupancy
  La  La0  1  0.67124600  0.71353200  0.15686600  1
  La  La1  1  0.82907000  0.73190900  0.22532700  1
  La  La2  1  0.04376200  0.50486800  0.74572500  1
  La  La3  1  0.18123700  0.48735500  0.60379200  1
  La  La4  1  0.61115000  0.47447900  0.61338500  1
  La  La5  1  0.53066000  0.71927900  0.30696900  1
  La  La6  1  0.88579900  0.49581300  0.67394200  1
  La  La7  1  0.45700700  0.48695800  0.68756600  1
  La  La8  1  0.68456800  0.98453900  0.53879500  1
  La  La9  1  0.25292800  0.98754700  0.53291500  1
  La  La10  1  0.24259600  0.72026300  0.15412000  1
  La  La11  1  0.32875400  0.21353200  0.15686600  1
  La  La12  1  0.54299300  0.98695800  0.68756600  1
  La  La13  1  0.81876300  0.98735500  0.60379200  1
  La  La14  1  0.74707200  0.48754700  0.53291500  1
  La  La15  1  0.31543200  0.48453900  0.53879500  1
  La  La16  1  0.38885000  0.97447900  0.61338500  1
  La  La17  1  0.10319200  0.73528100  0.29487700  1
  La  La18  1  0.96786200  0.73919100  0.36603700  1
  La  La19  1  0.11420100  0.99581300  0.67394200  1
  La  La20  1  0.46934000  0.21927900  0.30696900  1
  La  La21  1  0.60381700  0.22556200  0.23270600  1
  La  La22  1  0.17093000  0.23190900  0.22532700  1
  La  La23  1  0.75740400  0.22026300  0.15412000  1
  La  La24  1  0.89680800  0.23528100  0.29487700  1
  La  La25  1  0.39618300  0.72556200  0.23270600  1
  La  La26  1  0.95623800  0.00486800  0.74572500  1
  La  La27  1  0.03213800  0.23919100  0.36603700  1
  C  C0  1  0.73463200  0.83042300  0.30162500  1
  C  C1  1  0.30453700  0.82896700  0.30766100  1
  C  C2  1  0.66430900  0.37712700  0.41603600  1
  C  C3  1  0.94863400  0.34562100  0.49349700  1
  C  C4  1  0.01951600  0.89535100  0.59661200  1
  C  C5  1  0.83560100  0.39218900  0.47009400  1
  C  C6  1  0.37923000  0.32148300  0.36512300  1
  C  C7  1  0.59494200  0.87913900  0.48249800  1
  C  C8  1  0.05136600  0.84562100  0.49349700  1
  C  C9  1  0.80866500  0.33192500  0.35444900  1
  C  C10  1  0.26536800  0.33042300  0.30162500  1
  C  C11  1  0.19133500  0.83192500  0.35444900  1
  C  C12  1  0.44907800  0.82355200  0.42902600  1
  C  C13  1  0.87960600  0.83291400  0.42702000  1
  C  C14  1  0.90658200  0.89158300  0.54448100  1
  C  C15  1  0.12039400  0.33291400  0.42702000  1
  C  C16  1  0.48033100  0.87308100  0.53698400  1
  C  C17  1  0.55092200  0.32355200  0.42902600  1
  C  C18  1  0.33569100  0.87712700  0.41603600  1
  C  C19  1  0.09341800  0.39158300  0.54448100  1
  C  C20  1  0.40505800  0.37913900  0.48249800  1
  C  C21  1  0.76609000  0.88153500  0.40645500  1
  C  C22  1  0.98048400  0.39535100  0.59661200  1
  C  C23  1  0.23391000  0.38153500  0.40645500  1
  C  C24  1  0.51966900  0.37308100  0.53698400  1
  C  C25  1  0.62077000  0.82148300  0.36512300  1
  C  C26  1  0.69546300  0.32896700  0.30766100  1
  C  C27  1  0.16439900  0.89218900  0.47009400  1
  Cl  Cl0  1  0.74413200  0.09158500  0.80506600  1
  Cl  Cl1  1  0.68946700  0.58750700  0.80587200  1
  Cl  Cl2  1  0.41664700  0.11205700  0.97305400  1
  Cl  Cl3  1  0.52728300  0.11597900  0.03883900  1
  Cl  Cl4  1  0.19703200  0.09067600  0.86441100  1
  Cl  Cl5  1  0.31053300  0.08750700  0.80587200  1
  Cl  Cl6  1  0.14164200  0.61217000  0.94885100  1
  Cl  Cl7  1  0.36733300  0.58918800  0.87058100  1
  Cl  Cl8  1  0.80296800  0.59067600  0.86441100  1
  Cl  Cl9  1  0.25586800  0.59158500  0.80506600  1
  Cl  Cl10  1  0.97307300  0.13672900  0.09295700  1
  Cl  Cl11  1  0.91272100  0.63464300  0.03720800  1
  Cl  Cl12  1  0.47271700  0.61597900  0.03883900  1
  Cl  Cl13  1  0.58335300  0.61205700  0.97305400  1
  Cl  Cl14  1  0.08727900  0.13464300  0.03720800  1
  Cl  Cl15  1  0.63266700  0.08918800  0.87058100  1
  Cl  Cl16  1  0.02692700  0.63672900  0.09295700  1
  Cl  Cl17  1  0.85835800  0.11217000  0.94885100  1
loop_
_geom_bond_atom_site_label_1
_geom_bond_atom_site_label_2
_geom_bond_distance
_geom_bond_site_symmetry_2
C0 C21 1.355880 1_555
C0 La0 2.456101 1_555
C0 La14 2.642931 1_555
C0 La23 2.763789 1_565
C0 La8 2.802832 1_555
C0 La1 3.012810 1_555
C1 C18 1.359956 1_555
C1 La10 2.435837 1_555
C1 La15 2.644203 1_555
C1 La11 2.747300 1_565
C1 La9 2.775878 1_555
C1 La25 2.941171 1_555
C2 C26 1.359956 1_555
C2 La4 2.432622 1_555
C2 La21 2.689403 1_555
C2 La0 2.701453 1_555
C2 La8 2.736663 1_545
C2 La14 2.821164 1_555
C3 La24 2.455026 1_555
C3 La26 2.695604 1_555
C3 La6 2.718532 1_555
C3 La18 2.740192 1_555
C3 La27 2.864298 1_655
C4 C8 1.351261 1_555
C4 La26 2.449709 1_465
C4 La27 2.646100 1_565
C4 La2 2.781192 1_555
C4 La18 2.798016 1_455
C4 La19 3.025657 1_555
C5 C9 1.356369 1_555
C5 La6 2.432011 1_555
C5 La1 2.658439 1_555
C5 La24 2.684311 1_555
C5 La13 2.803746 1_545
C5 La14 2.813511 1_555
C6 La11 2.476429 1_555
C6 La16 2.716614 1_545
C6 La15 2.753703 1_555
C6 La25 2.798338 1_555
C6 La20 2.863666 1_555
C7 La12 2.485270 1_555
C7 La21 2.717372 1_565
C7 La5 2.760654 1_555
C7 La4 2.796672 1_555
C7 La8 2.853272 1_555
C8 La17 2.455026 1_555
C8 La2 2.695604 1_555
C8 La19 2.718532 1_555
C8 La27 2.740192 1_565
C8 La18 2.864298 1_455
C9 La23 2.458252 1_555
C9 La14 2.703090 1_555
C9 La13 2.710304 1_545
C9 La1 2.790061 1_555
C9 La24 2.799227 1_555
C10 C23 1.355880 1_555
C10 La11 2.456101 1_555
C10 La9 2.642931 1_545
C10 La10 2.763789 1_555
C10 La15 2.802832 1_555
C10 La22 3.012810 1_555
C11 C27 1.356369 1_555
C11 La10 2.458252 1_555
C11 La9 2.703090 1_555
C11 La3 2.710304 1_555
C11 La22 2.790061 1_565
C11 La17 2.799227 1_555
C12 C16 1.363641 1_555
C12 La25 2.423705 1_555
C12 La16 2.686812 1_555
C12 La7 2.702185 1_555
C12 La20 2.756177 1_565
C12 La5 2.791156 1_555
C13 C14 1.362442 1_555
C13 La1 2.417711 1_555
C13 La6 2.653234 1_555
C13 La13 2.675134 1_555
C13 La24 2.788520 1_565
C13 La18 2.799258 1_555
C14 La26 2.439030 1_565
C14 La18 2.684642 1_555
C14 La24 2.705948 1_565
C14 La6 2.766165 1_555
C14 La13 2.787847 1_555
C15 C19 1.362442 1_555
C15 La22 2.417711 1_555
C15 La19 2.653234 1_545
C15 La3 2.675134 1_555
C15 La17 2.788520 1_555
C15 La27 2.799258 1_555
C16 La12 2.455144 1_555
C16 La20 2.649727 1_565
C16 La7 2.749503 1_555
C16 La5 2.763784 1_555
C16 La16 2.935390 1_555
C17 C24 1.363641 1_555
C17 La21 2.423705 1_555
C17 La4 2.686812 1_555
C17 La12 2.702185 1_545
C17 La5 2.756177 1_555
C17 La20 2.791156 1_555
C18 La16 2.432622 1_555
C18 La25 2.689403 1_555
C18 La11 2.701453 1_565
C18 La15 2.736663 1_555
C18 La9 2.821164 1_555
C19 La2 2.439030 1_555
C19 La27 2.684642 1_555
C19 La17 2.705948 1_555
C19 La19 2.766165 1_545
C19 La3 2.787847 1_555
C20 C6 1.338368 1_555
C20 La7 2.485270 1_555
C20 La25 2.717372 1_555
C20 La20 2.760654 1_555
C20 La16 2.796672 1_545
C20 La15 2.853272 1_555
C21 La13 2.449526 1_555
C21 La23 2.689121 1_565
C21 La1 2.722816 1_555
C21 La14 2.740650 1_555
C21 La8 2.820230 1_555
C22 C3 1.351261 1_555
C22 La2 2.449709 1_655
C22 La18 2.646100 1_555
C22 La26 2.781192 1_555
C22 La27 2.798016 1_655
C22 La6 3.025657 1_555
C23 La3 2.449526 1_555
C23 La10 2.689121 1_555
C23 La22 2.722816 1_555
C23 La9 2.740650 1_545
C23 La15 2.820230 1_555
C24 La7 2.455144 1_555
C24 La5 2.649727 1_555
C24 La12 2.749503 1_545
C24 La20 2.763784 1_555
C24 La4 2.935390 1_555
C25 C7 1.338368 1_555
C25 La0 2.476429 1_555
C25 La4 2.716614 1_555
C25 La8 2.753703 1_555
C25 La21 2.798338 1_565
C25 La5 2.863666 1_555
C26 La23 2.435837 1_555
C26 La8 2.644203 1_545
C26 La0 2.747300 1_555
C26 La14 2.775878 1_555
C26 La21 2.941171 1_555
C27 La19 2.432011 1_555
C27 La22 2.658439 1_565
C27 La17 2.684311 1_555
C27 La3 2.803746 1_555
C27 La9 2.813511 1_555
Cl0 La13 2.933207 1_545
Cl0 La8 2.979047 1_545
Cl0 La14 3.041307 1_555
Cl0 La23 3.106098 1_556
Cl1 La14 2.963766 1_555
Cl1 La4 3.002418 1_555
Cl1 La8 3.030518 1_555
Cl1 La0 3.133708 1_556
Cl2 La25 3.008824 1_546
Cl2 La11 3.169378 1_556
Cl2 La7 3.224196 1_555
Cl2 La20 3.296303 1_556
Cl2 La16 3.299415 1_545
Cl3 La20 2.950167 1_555
Cl3 La21 2.957513 1_555
Cl3 La5 3.030744 1_545
Cl3 La12 3.134019 1_544
Cl4 La3 3.039290 1_555
Cl4 La19 3.055981 1_545
Cl4 La10 3.282803 1_546
Cl4 La22 3.308919 1_556
Cl4 La9 3.315847 1_545
Cl5 La9 2.963766 1_545
Cl5 La16 3.002418 1_545
Cl5 La15 3.030518 1_555
Cl5 La11 3.133708 1_556
Cl6 La19 3.099661 1_555
Cl6 La22 3.104601 1_556
Cl6 La17 3.249951 1_556
Cl6 La3 3.261163 1_555
Cl6 La2 3.510073 1_555
Cl6 La10 3.597835 1_556
Cl7 La16 3.000688 1_555
Cl7 La11 3.210942 1_556
Cl7 La7 3.212681 1_555
Cl7 La15 3.263148 1_555
Cl7 La25 3.321109 1_556
Cl8 La13 3.039290 1_555
Cl8 La6 3.055981 1_555
Cl8 La23 3.282803 1_556
Cl8 La1 3.308919 1_556
Cl8 La14 3.315847 1_555
Cl9 La3 2.933207 1_555
Cl9 La15 2.979047 1_555
Cl9 La9 3.041307 1_555
Cl9 La10 3.106098 1_556
Cl10 La24 2.959155 1_555
Cl10 La27 2.997537 1_655
Cl10 La18 3.055563 1_545
Cl10 La26 3.119450 1_554
Cl11 La24 3.043695 1_555
Cl11 La1 3.071869 1_555
Cl11 La26 3.263789 1_564
Cl11 La18 3.291041 1_555
Cl11 La6 3.323384 1_554
Cl12 La5 2.950167 1_555
Cl12 La25 2.957513 1_555
Cl12 La20 3.030744 1_555
Cl12 La7 3.134019 1_554
Cl13 La21 3.008824 1_556
Cl13 La0 3.169378 1_556
Cl13 La12 3.224196 1_555
Cl13 La5 3.296303 1_556
Cl13 La4 3.299415 1_555
Cl14 La17 3.043695 1_545
Cl14 La22 3.071869 1_555
Cl14 La2 3.263789 1_554
Cl14 La27 3.291041 1_555
Cl14 La19 3.323384 1_544
Cl15 La4 3.000688 1_555
Cl15 La0 3.210942 1_546
Cl15 La12 3.212681 1_545
Cl15 La8 3.263148 1_545
Cl15 La21 3.321109 1_556
Cl16 La17 2.959155 1_555
Cl16 La18 2.997537 1_455
Cl16 La27 3.055563 1_555
Cl16 La2 3.119450 1_554
Cl17 La6 3.099661 1_555
Cl17 La1 3.104601 1_546
Cl17 La24 3.249951 1_556
Cl17 La13 3.261163 1_545
Cl17 La26 3.510073 1_555
Cl17 La23 3.597835 1_556
