# generated using pymatgen
data_K2In(PSe4)2
_symmetry_space_group_name_H-M   'P 1'
_cell_length_a   12.92466420
_cell_length_b   12.92466420
_cell_length_c   13.03766797
_cell_angle_alpha   81.72957251
_cell_angle_beta   81.72957251
_cell_angle_gamma   127.69200568
_symmetry_Int_Tables_number   1
_chemical_formula_structural   K2In(PSe4)2
_chemical_formula_sum   'K8 In4 P8 Se32'
_cell_volume   1629.04260820
_cell_formula_units_Z   4
loop_
 _symmetry_equiv_pos_site_id
 _symmetry_equiv_pos_as_xyz
  1  'x, y, z'
loop_
 _atom_site_type_symbol
 _atom_site_label
 _atom_site_symmetry_multiplicity
 _atom_site_fract_x
 _atom_site_fract_y
 _atom_site_fract_z
 _atom_site_occupancy
  K  K0  1  0.12759500  0.24633200  0.07176800  1
  K  K1  1  0.95821000  0.35847700  0.34670800  1
  K  K2  1  0.39407700  0.79286200  0.32207700  1
  K  K3  1  0.35847700  0.95821000  0.84670800  1
  K  K4  1  0.24633200  0.12759500  0.57176800  1
  K  K5  1  0.74218100  0.85078900  0.01734100  1
  K  K6  1  0.85078900  0.74218100  0.51734100  1
  K  K7  1  0.79286200  0.39407700  0.82207700  1
  In  In0  1  0.37666200  0.13353800  0.19012100  1
  In  In1  1  0.49986800  0.73538900  0.68368900  1
  In  In2  1  0.13353800  0.37666200  0.69012100  1
  In  In3  1  0.73538900  0.49986800  0.18368900  1
  P  P0  1  0.40311800  0.45509000  0.20493400  1
  P  P1  1  0.03698800  0.87154400  0.13354200  1
  P  P2  1  0.70675800  0.17455400  0.16958800  1
  P  P3  1  0.75151500  0.07761400  0.74209100  1
  P  P4  1  0.17455400  0.70675800  0.66958800  1
  P  P5  1  0.45509000  0.40311800  0.70493400  1
  P  P6  1  0.87154400  0.03698800  0.63354200  1
  P  P7  1  0.07761400  0.75151500  0.24209100  1
  Se  Se0  1  0.25579200  0.22927500  0.28698500  1
  Se  Se1  1  0.13170200  0.62091400  0.85091300  1
  Se  Se2  1  0.86155000  0.39959100  0.09639700  1
  Se  Se3  1  0.49206900  0.47857100  0.52236800  1
  Se  Se4  1  0.87995200  0.18157900  0.84986800  1
  Se  Se5  1  0.06973700  0.53302000  0.59887200  1
  Se  Se6  1  0.23536700  0.52053100  0.84282500  1
  Se  Se7  1  0.24438100  0.06328700  0.03160800  1
  Se  Se8  1  0.58592600  0.39504000  0.03231100  1
  Se  Se9  1  0.22927500  0.25579200  0.78698500  1
  Se  Se10  1  0.18157900  0.87995200  0.34986800  1
  Se  Se11  1  0.90424900  0.91662900  0.73370700  1
  Se  Se12  1  0.78904600  0.06932400  0.18676100  1
  Se  Se13  1  0.47857100  0.49206900  0.02236800  1
  Se  Se14  1  0.19237200  0.71335000  0.14294300  1
  Se  Se15  1  0.94109400  0.74699100  0.02241700  1
  Se  Se16  1  0.86756900  0.56488900  0.34591000  1
  Se  Se17  1  0.53860900  0.29857200  0.69815300  1
  Se  Se18  1  0.58527100  0.59179200  0.75610400  1
  Se  Se19  1  0.56488900  0.86756900  0.84591000  1
  Se  Se20  1  0.06932400  0.78904600  0.68676100  1
  Se  Se21  1  0.62091400  0.13170200  0.35091300  1
  Se  Se22  1  0.29857200  0.53860900  0.19815300  1
  Se  Se23  1  0.91662900  0.90424900  0.23370700  1
  Se  Se24  1  0.74699100  0.94109400  0.52241700  1
  Se  Se25  1  0.06328700  0.24438100  0.53160800  1
  Se  Se26  1  0.39504000  0.58592600  0.53231100  1
  Se  Se27  1  0.59179200  0.58527100  0.25610400  1
  Se  Se28  1  0.52053100  0.23536700  0.34282500  1
  Se  Se29  1  0.71335000  0.19237200  0.64294300  1
  Se  Se30  1  0.53302000  0.06973700  0.09887200  1
  Se  Se31  1  0.39959100  0.86155000  0.59639700  1
loop_
_geom_bond_atom_site_label_1
_geom_bond_atom_site_label_2
_geom_bond_distance
_geom_bond_site_symmetry_2
K0 Se12 3.393026 1_455
K0 Se13 3.468841 1_555
K0 Se0 3.503339 1_555
K0 Se23 3.515224 1_445
K0 Se7 3.556008 1_555
K0 Se6 3.624004 1_554
K0 Se9 3.714409 1_554
K0 Se22 3.807747 1_555
K1 Se21 3.443647 1_555
K1 Se25 3.492625 1_655
K1 Se22 3.500143 1_655
K1 Se16 3.508136 1_555
K1 Se2 3.738874 1_555
K1 Se14 3.802783 1_655
K1 Se29 3.915506 1_555
K2 Se22 3.474736 1_555
K2 Se30 3.484471 1_565
K2 Se14 3.531702 1_555
K2 Se10 3.542981 1_555
K2 Se26 3.550757 1_555
K2 Se21 3.606393 1_565
K2 Se31 3.807089 1_555
K2 Se12 3.902542 1_565
K3 Se1 3.443647 1_555
K3 Se7 3.492625 1_566
K3 Se17 3.500143 1_565
K3 Se19 3.508136 1_555
K3 Se31 3.738874 1_555
K3 Se29 3.802783 1_565
K3 Se14 3.915506 1_556
K4 Se20 3.393026 1_545
K4 Se3 3.468841 1_555
K4 Se9 3.503339 1_555
K4 Se11 3.515224 1_445
K4 Se25 3.556008 1_555
K4 Se28 3.624004 1_555
K4 Se0 3.714409 1_555
K4 Se17 3.807747 1_555
K5 Se19 3.497839 1_554
K5 Se27 3.503473 1_555
K5 Se15 3.557320 1_555
K5 Se4 3.619859 1_564
K5 Se12 3.648469 1_565
K5 Se11 3.670562 1_554
K5 Se13 3.693251 1_555
K5 Se23 3.742196 1_555
K6 Se16 3.497839 1_555
K6 Se18 3.503473 1_555
K6 Se24 3.557320 1_555
K6 Se10 3.619859 1_655
K6 Se20 3.648469 1_655
K6 Se23 3.670562 1_555
K6 Se3 3.693251 1_555
K6 Se11 3.742196 1_555
K7 Se17 3.474736 1_555
K7 Se5 3.484471 1_655
K7 Se29 3.531702 1_555
K7 Se4 3.542981 1_555
K7 Se8 3.550757 1_556
K7 Se1 3.606393 1_655
K7 Se2 3.807089 1_556
K7 Se20 3.902542 1_655
In0 Se7 2.770653 1_555
In0 Se30 2.794202 1_555
In0 Se0 2.795027 1_555
In0 Se10 2.803087 1_545
In0 Se28 2.824836 1_555
In0 Se8 2.862140 1_555
In1 Se24 2.786889 1_555
In1 Se18 2.802692 1_555
In1 Se19 2.809480 1_555
In1 Se31 2.847542 1_555
In1 Se26 2.850990 1_555
In1 Se6 2.897607 1_555
In2 Se25 2.770653 1_555
In2 Se5 2.794202 1_555
In2 Se9 2.795027 1_555
In2 Se4 2.803087 1_455
In2 Se6 2.824836 1_555
In2 Se26 2.862140 1_555
In3 Se15 2.786889 1_555
In3 Se27 2.802692 1_555
In3 Se16 2.809480 1_555
In3 Se2 2.847542 1_555
In3 Se8 2.850990 1_555
In3 Se28 2.897607 1_555
P0 Se22 2.188460 1_555
P0 Se27 2.235232 1_555
P0 Se0 2.237913 1_555
P0 Se13 2.297813 1_555
P1 Se23 2.163894 1_455
P1 Se15 2.230342 1_455
P1 Se7 2.235470 1_565
P1 P7 2.294222 1_555
P2 Se12 2.186490 1_555
P2 Se2 2.215718 1_555
P2 Se30 2.227696 1_555
P2 Se21 2.289935 1_555
P3 Se29 2.154228 1_555
P3 Se19 2.239725 1_545
P3 Se4 2.241049 1_555
P3 P6 2.294222 1_555
P4 Se20 2.186490 1_555
P4 Se31 2.215718 1_555
P4 Se5 2.227696 1_555
P4 Se1 2.289935 1_555
P5 Se17 2.188460 1_555
P5 Se18 2.235232 1_555
P5 Se9 2.237913 1_555
P5 Se3 2.297813 1_555
P6 Se11 2.163894 1_545
P6 Se24 2.230342 1_545
P6 Se25 2.235470 1_655
P7 Se14 2.154228 1_555
P7 Se16 2.239725 1_455
P7 Se10 2.241049 1_555
Se1 Se6 2.369380 1_555
Se13 Se8 2.376445 1_555
Se21 Se28 2.369380 1_555
Se26 Se3 2.376445 1_555
