# generated using pymatgen
data_Bi20(PtBr12)3
_symmetry_space_group_name_H-M   'P 1'
_cell_length_a   11.58888240
_cell_length_b   11.58888240
_cell_length_c   18.74191172
_cell_angle_alpha   74.16928044
_cell_angle_beta   74.16928044
_cell_angle_gamma   86.47863259
_symmetry_Int_Tables_number   1
_chemical_formula_structural   Bi20(PtBr12)3
_chemical_formula_sum   'Bi20 Pt3 Br36'
_cell_volume   2329.53485293
_cell_formula_units_Z   1
loop_
 _symmetry_equiv_pos_site_id
 _symmetry_equiv_pos_as_xyz
  1  'x, y, z'
loop_
 _atom_site_type_symbol
 _atom_site_label
 _atom_site_symmetry_multiplicity
 _atom_site_fract_x
 _atom_site_fract_y
 _atom_site_fract_z
 _atom_site_occupancy
  Bi  Bi0  1  0.52834100  0.27558900  0.23512800  1
  Bi  Bi1  1  0.20907400  0.95896300  0.89654500  1
  Bi  Bi2  1  0.47165900  0.72441100  0.76487200  1
  Bi  Bi3  1  0.34192500  0.34192500  0.83100100  1
  Bi  Bi4  1  0.27558900  0.52834100  0.23512800  1
  Bi  Bi5  1  0.80816400  0.80816400  0.71630500  1
  Bi  Bi6  1  0.19183600  0.19183600  0.28369500  1
  Bi  Bi7  1  0.04103700  0.79092600  0.10345500  1
  Bi  Bi8  1  0.11322900  0.35739300  0.44393400  1
  Bi  Bi9  1  0.55385200  0.55385200  0.59754600  1
  Bi  Bi10  1  0.95896300  0.20907400  0.89654500  1
  Bi  Bi11  1  0.65807500  0.65807500  0.16899900  1
  Bi  Bi12  1  0.87623100  0.87623100  0.93664000  1
  Bi  Bi13  1  0.35739300  0.11322900  0.44393400  1
  Bi  Bi14  1  0.72441100  0.47165900  0.76487200  1
  Bi  Bi15  1  0.79092600  0.04103700  0.10345500  1
  Bi  Bi16  1  0.12376900  0.12376900  0.06336000  1
  Bi  Bi17  1  0.44614800  0.44614800  0.40245400  1
  Bi  Bi18  1  0.64260700  0.88677100  0.55606600  1
  Bi  Bi19  1  0.88677100  0.64260700  0.55606600  1
  Pt  Pt0  1  0.67662400  0.67662400  0.66184700  1
  Pt  Pt1  1  0.00000000  0.00000000  0.00000000  1
  Pt  Pt2  1  0.32337700  0.32337700  0.33815300  1
  Br  Br0  1  0.26034500  0.73965500  0.00000000  1
  Br  Br1  1  0.14561500  0.14561500  0.55964200  1
  Br  Br2  1  0.41444000  0.15185500  0.16205900  1
  Br  Br3  1  0.50473300  0.24389200  0.50843600  1
  Br  Br4  1  0.76930800  0.03254600  0.61389600  1
  Br  Br5  1  0.10959000  0.36599200  0.94694300  1
  Br  Br6  1  0.15185500  0.41444000  0.16205900  1
  Br  Br7  1  0.85438500  0.85438500  0.44035800  1
  Br  Br8  1  0.96745400  0.23069200  0.38610400  1
  Br  Br9  1  0.24389200  0.50473300  0.50843600  1
  Br  Br10  1  0.03254600  0.76930800  0.61389600  1
  Br  Br11  1  0.08854800  0.82863600  0.82620900  1
  Br  Br12  1  0.52834700  0.52834700  0.10707600  1
  Br  Br13  1  0.93282800  0.40870500  0.66516600  1
  Br  Br14  1  0.19650700  0.19650700  0.77585500  1
  Br  Br15  1  0.58556000  0.84814500  0.83794100  1
  Br  Br16  1  0.91145200  0.17136400  0.17379100  1
  Br  Br17  1  0.89041000  0.63400800  0.05305700  1
  Br  Br18  1  0.47165300  0.47165300  0.89292400  1
  Br  Br19  1  0.36599200  0.10959000  0.94694300  1
  Br  Br20  1  0.69960600  0.44494200  0.27514100  1
  Br  Br21  1  0.75610800  0.49526700  0.49156400  1
  Br  Br22  1  0.23069200  0.96745400  0.38610400  1
  Br  Br23  1  0.80349300  0.80349300  0.22414500  1
  Br  Br24  1  0.44494200  0.69960600  0.27514100  1
  Br  Br25  1  0.82863600  0.08854800  0.82620900  1
  Br  Br26  1  0.55505800  0.30039400  0.72485900  1
  Br  Br27  1  0.17136400  0.91145200  0.17379100  1
  Br  Br28  1  0.06717200  0.59129500  0.33483400  1
  Br  Br29  1  0.30039400  0.55505800  0.72485900  1
  Br  Br30  1  0.84814500  0.58556000  0.83794100  1
  Br  Br31  1  0.73965500  0.26034500  0.00000000  1
  Br  Br32  1  0.49526700  0.75610800  0.49156400  1
  Br  Br33  1  0.40870500  0.93282800  0.66516600  1
  Br  Br34  1  0.63400800  0.89041000  0.05305700  1
  Br  Br35  1  0.59129500  0.06717200  0.33483400  1
loop_
_geom_bond_atom_site_label_1
_geom_bond_atom_site_label_2
_geom_bond_distance
_geom_bond_site_symmetry_2
Bi0 Pt2 2.756192 1_555
Bi0 Br35 2.814757 1_555
Bi0 Br2 2.822071 1_555
Bi0 Br20 3.232201 1_555
Bi0 Br12 3.241036 1_555
Bi1 Pt1 2.766708 1_566
Bi1 Br11 2.884406 1_555
Bi1 Br0 2.885547 1_556
Bi1 Br14 3.073941 1_565
Bi1 Br19 3.077813 1_565
Bi2 Pt0 2.756196 1_555
Bi2 Br33 2.814757 1_555
Bi2 Br15 2.822071 1_555
Bi2 Br29 3.232201 1_555
Bi2 Br18 3.241036 1_555
Bi3 Br26 2.825828 1_555
Bi3 Br29 2.825828 1_555
Bi3 Br18 2.837050 1_555
Bi3 Br14 2.999612 1_555
Bi3 Br19 3.015871 1_555
Bi3 Br5 3.015871 1_555
Bi4 Pt2 2.756192 1_555
Bi4 Br28 2.814757 1_555
Bi4 Br6 2.822071 1_555
Bi4 Br24 3.232201 1_555
Bi4 Br12 3.241036 1_555
Bi5 Pt0 2.769933 1_555
Bi5 Br10 2.872817 1_655
Bi5 Br4 2.872817 1_565
Bi5 Br30 3.047543 1_555
Bi5 Br15 3.047543 1_555
Bi6 Pt2 2.769949 1_555
Bi6 Br22 2.872817 1_545
Bi6 Br8 2.872817 1_455
Bi6 Br2 3.047543 1_555
Bi6 Br6 3.047543 1_555
Bi7 Pt1 2.766708 1_565
Bi7 Br27 2.884406 1_555
Bi7 Br0 2.885547 1_555
Bi7 Br23 3.073941 1_455
Bi7 Br17 3.077813 1_455
Bi8 Pt2 2.773293 1_555
Bi8 Br1 2.879963 1_555
Bi8 Br8 2.890785 1_455
Bi8 Br9 3.018686 1_555
Bi8 Br28 3.034348 1_555
Bi9 Pt0 2.760552 1_555
Bi9 Br21 2.810778 1_555
Bi9 Br32 2.810778 1_555
Bi9 Br29 3.242006 1_555
Bi9 Br26 3.242006 1_555
Bi10 Pt1 2.766708 1_656
Bi10 Br25 2.884406 1_555
Bi10 Br31 2.885547 1_556
Bi10 Br14 3.073941 1_655
Bi10 Br5 3.077813 1_655
Bi11 Br20 2.825828 1_555
Bi11 Br24 2.825828 1_555
Bi11 Br12 2.837050 1_555
Bi11 Br23 2.999612 1_555
Bi11 Br17 3.015871 1_555
Bi11 Br34 3.015871 1_555
Bi12 Pt1 2.763353 1_666
Bi12 Br11 2.884385 1_655
Bi12 Br25 2.884385 1_565
Bi12 Br34 3.076476 1_556
Bi12 Br17 3.076476 1_556
Bi13 Pt2 2.773293 1_555
Bi13 Br1 2.879963 1_555
Bi13 Br22 2.890785 1_545
Bi13 Br3 3.018686 1_555
Bi13 Br35 3.034348 1_555
Bi14 Pt0 2.756196 1_555
Bi14 Br13 2.814757 1_555
Bi14 Br30 2.822071 1_555
Bi14 Br26 3.232201 1_555
Bi14 Br18 3.241036 1_555
Bi15 Pt1 2.766708 1_655
Bi15 Br16 2.884406 1_555
Bi15 Br31 2.885547 1_555
Bi15 Br23 3.073941 1_545
Bi15 Br34 3.077813 1_545
Bi16 Pt1 2.763353 1_555
Bi16 Br27 2.884385 1_545
Bi16 Br16 2.884385 1_455
Bi16 Br19 3.076476 1_554
Bi16 Br5 3.076476 1_554
Bi17 Pt2 2.760536 1_555
Bi17 Br9 2.810778 1_555
Bi17 Br3 2.810778 1_555
Bi17 Br24 3.242006 1_555
Bi17 Br20 3.242006 1_555
Bi18 Pt0 2.773288 1_555
Bi18 Br7 2.879963 1_555
Bi18 Br4 2.890785 1_565
Bi18 Br32 3.018686 1_555
Bi18 Br33 3.034348 1_555
Bi19 Pt0 2.773288 1_555
Bi19 Br7 2.879963 1_555
Bi19 Br10 2.890785 1_655
Bi19 Br21 3.018686 1_555
Bi19 Br13 3.034348 1_555
