# generated using pymatgen
data_SrNi9P5
_symmetry_space_group_name_H-M   'P 1'
_cell_length_a   6.45364487
_cell_length_b   6.45364522
_cell_length_c   10.69743328
_cell_angle_alpha   90.00020590
_cell_angle_beta   89.99979280
_cell_angle_gamma   119.99645661
_symmetry_Int_Tables_number   1
_chemical_formula_structural   SrNi9P5
_chemical_formula_sum   'Sr2 Ni18 P10'
_cell_volume   385.86543259
_cell_formula_units_Z   2
loop_
 _symmetry_equiv_pos_site_id
 _symmetry_equiv_pos_as_xyz
  1  'x, y, z'
loop_
 _atom_site_type_symbol
 _atom_site_label
 _atom_site_symmetry_multiplicity
 _atom_site_fract_x
 _atom_site_fract_y
 _atom_site_fract_z
 _atom_site_occupancy
  Sr  Sr0  1  0.00000043  -0.00000024  0.00000977  1
  Sr  Sr1  1  1.00000007  -0.00000052  0.49998982  1
  Ni  Ni0  1  0.53570359  0.07140652  0.10745813  1
  Ni  Ni1  1  0.46425606  0.53574143  0.60742416  1
  Ni  Ni2  1  0.07144209  0.53572402  0.60740973  1
  Ni  Ni3  1  0.92859273  0.46429610  0.10745795  1
  Ni  Ni4  1  0.53572583  0.46427370  0.10747472  1
  Ni  Ni5  1  0.46428804  0.92857956  0.89257928  1
  Ni  Ni6  1  0.46426903  0.53573264  0.89256424  1
  Ni  Ni7  1  0.46427685  0.92855815  0.60740980  1
  Ni  Ni8  1  0.07141937  0.53571174  0.89257906  1
  Ni  Ni9  1  0.92857180  0.46428567  0.39255293  1
  Ni  Ni10  1  0.53571522  0.07142835  0.39255332  1
  Ni  Ni11  1  0.53573718  0.46426381  0.39253671  1
  Ni  Ni12  1  0.20289776  0.40585381  0.25003025  1
  Ni  Ni13  1  0.79708496  0.20291423  0.74996978  1
  Ni  Ni14  1  0.40584730  0.20289121  0.74997025  1
  Ni  Ni15  1  0.59414655  0.79710285  0.25003043  1
  Ni  Ni16  1  0.20291799  0.79708277  0.25003056  1
  Ni  Ni17  1  0.79710883  0.59415261  0.74996992  1
  P  P0  1  0.82604858  0.65209235  0.25003706  1
  P  P1  1  0.17396687  0.82603300  0.74996356  1
  P  P2  1  0.65205908  0.82603058  0.74996261  1
  P  P3  1  0.34790774  0.17395153  0.25003709  1
  P  P4  1  0.82604301  0.17395727  0.25003704  1
  P  P5  1  0.17396916  0.34794082  0.74996274  1
  P  P6  1  0.33333448  0.66666546  0.06113608  1
  P  P7  1  0.66666758  0.33333256  0.56108506  1
  P  P8  1  0.66666737  0.33333247  0.93889853  1
  P  P9  1  0.33333445  0.66666556  0.43887942  1
loop_
_geom_bond_atom_site_label_1
_geom_bond_atom_site_label_2
_geom_bond_distance
_geom_bond_site_symmetry_2
Ni0 P3 2.243906 1_555
Ni0 P4 2.243951 1_555
Ni0 P6 2.315822 1_545
Ni0 P8 2.322620 1_554
Ni0 Sr0 3.448574 1_655
Ni0 Sr0 3.448625 1_555
Ni1 P5 2.243496 1_555
Ni1 P2 2.243505 1_555
Ni1 P7 2.316175 1_555
Ni1 P9 2.322167 1_555
Ni1 Sr1 3.448754 1_455
Ni1 Sr1 3.448766 1_565
Ni2 P5 2.243605 1_555
Ni2 P1 2.243648 1_555
Ni2 P7 2.316013 1_455
Ni2 P9 2.322254 1_555
Ni2 Sr1 3.448481 1_465
Ni2 Sr1 3.448562 1_455
Ni3 P0 2.243906 1_555
Ni3 P4 2.243951 1_555
Ni3 P6 2.315825 1_655
Ni3 P8 2.322616 1_554
Ni3 Sr0 3.448574 1_655
Ni3 Sr0 3.448625 1_665
Ni4 P3 2.243814 1_555
Ni4 P0 2.243817 1_555
Ni4 P6 2.315974 1_555
Ni4 P8 2.322549 1_554
Ni4 Sr0 3.448846 1_555
Ni4 Sr0 3.448850 1_665
Ni5 P2 2.244085 1_555
Ni5 P1 2.244141 1_555
Ni5 P8 2.315880 1_565
Ni5 P6 2.322555 1_556
Ni5 Sr0 3.448504 1_566
Ni5 Sr0 3.448585 1_666
Ni6 P2 2.243989 1_555
Ni6 P5 2.243997 1_555
Ni6 P8 2.316048 1_555
Ni6 P6 2.322459 1_556
Ni6 Sr0 3.448782 1_666
Ni6 Sr0 3.448791 1_556
Ni7 P2 2.243601 1_555
Ni7 P1 2.243652 1_555
Ni7 P7 2.316012 1_565
Ni7 P9 2.322255 1_555
Ni7 Sr1 3.448487 1_465
Ni7 Sr1 3.448556 1_565
Ni8 P5 2.244085 1_555
Ni8 P1 2.244139 1_555
Ni8 P8 2.315876 1_455
Ni8 P6 2.322560 1_556
Ni8 Sr0 3.448502 1_566
Ni8 Sr0 3.448587 1_556
Ni9 P0 2.243425 1_555
Ni9 P4 2.243455 1_555
Ni9 P9 2.315952 1_655
Ni9 P7 2.322310 1_555
Ni9 Sr1 3.448556 1_555
Ni9 Sr1 3.448591 1_565
Ni10 P3 2.243431 1_555
Ni10 P4 2.243455 1_555
Ni10 P9 2.315952 1_545
Ni10 P7 2.322307 1_555
Ni10 Sr1 3.448549 1_555
Ni10 Sr1 3.448596 1_455
Ni11 P0 2.243324 1_555
Ni11 P3 2.243328 1_555
Ni11 P9 2.316096 1_555
Ni11 P7 2.322253 1_555
Ni11 Sr1 3.448814 1_565
Ni11 Sr1 3.448822 1_455
Ni12 P4 2.124941 1_455
Ni12 P3 2.125113 1_555
Ni12 P9 2.491223 1_555
Ni12 P6 2.491618 1_555
Ni12 Sr1 3.506506 1_455
Ni12 Sr0 3.506995 1_555
Ni13 P2 2.125021 1_545
Ni13 P5 2.125024 1_655
Ni13 P7 2.491571 1_555
Ni13 P8 2.491944 1_555
Ni13 Sr1 3.506495 1_555
Ni13 Sr0 3.506999 1_656
Ni14 P1 2.124945 1_545
Ni14 P5 2.125172 1_555
Ni14 P7 2.491563 1_555
Ni14 P8 2.491941 1_555
Ni14 Sr1 3.506651 1_455
Ni14 Sr0 3.507124 1_556
Ni15 P4 2.124939 1_565
Ni15 P0 2.125114 1_555
Ni15 P9 2.491222 1_555
Ni15 P6 2.491621 1_555
Ni15 Sr1 3.506502 1_565
Ni15 Sr0 3.506996 1_665
Ni16 P3 2.124963 1_565
Ni16 P0 2.124967 1_455
Ni16 P9 2.491253 1_555
Ni16 P6 2.491640 1_555
Ni16 Sr1 3.506343 1_465
Ni16 Sr0 3.506859 1_565
Ni17 P1 2.124944 1_655
Ni17 P2 2.125171 1_555
Ni17 P7 2.491560 1_555
Ni17 P8 2.491944 1_555
Ni17 Sr1 3.506647 1_565
Ni17 Sr0 3.507128 1_666
P0 Sr1 3.306155 1_565
P0 Sr0 3.306808 1_665
P1 Sr1 3.306371 1_465
P1 Sr0 3.306985 1_566
P2 Sr1 3.306440 1_565
P2 Sr0 3.307091 1_666
P3 Sr1 3.306157 1_455
P3 Sr0 3.306808 1_555
P4 Sr1 3.306129 1_555
P4 Sr0 3.306761 1_655
P5 Sr1 3.306442 1_455
P5 Sr0 3.307089 1_556
