# generated using pymatgen
data_Li13In3
_symmetry_space_group_name_H-M   'P 1'
_cell_length_a   9.34496821
_cell_length_b   9.34496789
_cell_length_c   9.34496979
_cell_angle_alpha   60.00000049
_cell_angle_beta   60.00000166
_cell_angle_gamma   59.99999791
_symmetry_Int_Tables_number   1
_chemical_formula_structural   Li13In3
_chemical_formula_sum   'Li26 In6'
_cell_volume   577.05677753
_cell_formula_units_Z   2
loop_
 _symmetry_equiv_pos_site_id
 _symmetry_equiv_pos_as_xyz
  1  'x, y, z'
loop_
 _atom_site_type_symbol
 _atom_site_label
 _atom_site_symmetry_multiplicity
 _atom_site_fract_x
 _atom_site_fract_y
 _atom_site_fract_z
 _atom_site_occupancy
  Li  Li0  1  0.87500000  0.87500000  0.87500000  1
  Li  Li1  1  0.12500000  0.12500000  0.12500000  1
  Li  Li2  1  0.50000000  0.50000000  0.50000000  1
  Li  Li3  1  0.50000000  0.50000000  0.00000000  1
  Li  Li4  1  -0.00000000  0.50000000  0.50000000  1
  Li  Li5  1  0.50000000  0.00000000  0.50000000  1
  Li  Li6  1  0.24427176  0.24427176  0.24427176  1
  Li  Li7  1  0.75572824  0.75572824  0.23281728  1
  Li  Li8  1  0.23281728  0.75572824  0.75572824  1
  Li  Li9  1  0.75572824  0.23281728  0.75572824  1
  Li  Li10  1  0.76718272  0.24427176  0.24427176  1
  Li  Li11  1  0.24427176  0.76718272  0.24427176  1
  Li  Li12  1  0.24427176  0.24427176  0.76718272  1
  Li  Li13  1  0.75572824  0.75572824  0.75572824  1
  Li  Li14  1  0.62183863  0.12816137  0.12816137  1
  Li  Li15  1  0.87183863  0.87183863  0.37816137  1
  Li  Li16  1  0.37816137  0.37816137  0.87183863  1
  Li  Li17  1  0.87183863  0.37816137  0.37816137  1
  Li  Li18  1  0.87183863  0.37816137  0.87183863  1
  Li  Li19  1  0.37816137  0.87183863  0.37816137  1
  Li  Li20  1  0.12816137  0.62183863  0.12816137  1
  Li  Li21  1  0.12816137  0.12816137  0.62183863  1
  Li  Li22  1  0.62183863  0.62183863  0.12816137  1
  Li  Li23  1  0.62183863  0.12816137  0.62183863  1
  Li  Li24  1  0.37816137  0.87183863  0.87183863  1
  Li  Li25  1  0.12816137  0.62183863  0.62183863  1
  In  In0  1  0.37500000  0.37500000  0.37500000  1
  In  In1  1  0.62500000  0.62500000  0.62500000  1
  In  In2  1  -0.00000000  0.00000000  0.00000000  1
  In  In3  1  -0.00000000  0.00000000  0.50000000  1
  In  In4  1  0.50000000  0.00000000  0.00000000  1
  In  In5  1  -0.00000000  0.50000000  0.00000000  1
loop_
_geom_bond_atom_site_label_1
_geom_bond_atom_site_label_2
_geom_bond_distance
_geom_bond_site_symmetry_2
Li0 Li13 2.730179 1_555
Li0 Li9 2.730194 1_565
Li0 Li8 2.730194 1_655
Li0 Li7 2.730195 1_556
Li1 Li6 2.730179 1_555
Li1 Li11 2.730194 1_545
Li1 Li10 2.730194 1_455
Li1 Li12 2.730195 1_554
Li10 Li15 2.846088 1_545
Li10 Li18 2.846089 1_554
Li10 Li17 2.846104 1_555
Li10 Li14 2.885185 1_555
Li10 Li22 2.885200 1_555
Li10 Li23 2.885201 1_555
Li11 Li15 2.846088 1_455
Li11 Li24 2.846089 1_554
Li11 Li19 2.846104 1_555
Li11 Li20 2.885185 1_555
Li11 Li22 2.885200 1_555
Li11 Li25 2.885201 1_555
Li12 Li24 2.846088 1_545
Li12 Li18 2.846088 1_455
Li12 Li16 2.846104 1_555
Li12 Li21 2.885185 1_555
Li12 Li25 2.885200 1_555
Li12 Li23 2.885200 1_555
Li13 Li23 2.846089 1_565
Li13 Li25 2.846089 1_655
Li13 Li22 2.846090 1_556
Li13 Li18 2.885201 1_555
Li13 Li24 2.885201 1_555
Li13 Li15 2.885202 1_555
Li14 Li7 2.846088 1_545
Li14 Li9 2.846089 1_554
Li14 Li6 2.885201 1_555
Li15 Li7 2.885185 1_555
Li16 Li6 2.846090 1_556
Li16 Li8 2.885200 1_555
Li16 Li9 2.885200 1_555
Li17 Li6 2.846089 1_655
Li17 Li7 2.885200 1_555
Li17 Li9 2.885201 1_555
Li18 Li9 2.885185 1_555
Li19 Li6 2.846089 1_565
Li19 Li7 2.885200 1_555
Li19 Li8 2.885201 1_555
Li20 Li7 2.846088 1_455
Li20 Li8 2.846089 1_554
Li20 Li6 2.885201 1_555
Li21 Li8 2.846088 1_545
Li21 Li9 2.846088 1_455
Li21 Li6 2.885202 1_555
Li22 Li7 2.846104 1_555
Li23 Li9 2.846104 1_555
Li24 Li8 2.885185 1_555
Li25 Li8 2.846104 1_555
In0 Li5 2.861300 1_555
In0 Li4 2.861300 1_555
In0 Li2 2.861301 1_555
In0 Li3 2.861301 1_555
In0 Li11 2.992407 1_555
In0 Li10 2.992407 1_555
In0 Li12 2.992408 1_555
In0 Li6 2.992422 1_555
In0 Li21 3.262165 1_555
In0 Li22 3.262165 1_555
In0 Li20 3.262165 1_555
In0 Li23 3.262165 1_555
In0 Li14 3.262165 1_555
In0 Li25 3.262165 1_555
In1 Li5 2.861300 1_565
In1 Li4 2.861300 1_655
In1 Li2 2.861301 1_555
In1 Li3 2.861301 1_556
In1 Li9 2.992407 1_555
In1 Li8 2.992407 1_555
In1 Li7 2.992408 1_555
In1 Li13 2.992422 1_555
In1 Li16 3.262165 1_555
In1 Li15 3.262165 1_555
In1 Li19 3.262165 1_555
In1 Li18 3.262165 1_555
In1 Li17 3.262165 1_555
In1 Li24 3.262165 1_555
In2 Li1 2.861301 1_555
In2 Li0 2.861301 1_444
In2 Li20 2.885624 1_545
In2 Li18 2.885624 1_454
In2 Li14 2.885624 1_455
In2 Li24 2.885624 1_544
In2 Li15 2.885624 1_445
In2 Li21 2.885624 1_554
In2 Li7 3.230016 1_445
In2 Li12 3.230016 1_554
In2 Li8 3.230016 1_544
In2 Li10 3.230016 1_455
In2 Li9 3.230016 1_454
In2 Li11 3.230016 1_545
In3 Li1 2.861301 1_555
In3 Li0 2.861301 1_445
In3 Li25 2.885624 1_545
In3 Li17 2.885624 1_455
In3 Li23 2.885624 1_455
In3 Li19 2.885624 1_545
In3 Li15 2.885624 1_445
In3 Li21 2.885624 1_555
In3 Li13 3.230017 1_445
In3 Li6 3.230017 1_555
In3 Li10 3.230030 1_455
In3 Li8 3.230030 1_545
In3 Li11 3.230030 1_545
In3 Li9 3.230030 1_455
In4 Li1 2.861300 1_555
In4 Li0 2.861300 1_544
In4 Li22 2.885624 1_545
In4 Li16 2.885624 1_554
In4 Li24 2.885624 1_544
In4 Li14 2.885624 1_555
In4 Li23 2.885624 1_554
In4 Li19 2.885624 1_545
In4 Li13 3.230017 1_544
In4 Li6 3.230017 1_555
In4 Li11 3.230030 1_545
In4 Li9 3.230030 1_554
In4 Li12 3.230030 1_554
In4 Li7 3.230030 1_545
In5 Li1 2.861300 1_555
In5 Li0 2.861300 1_454
In5 Li22 2.885624 1_455
In5 Li16 2.885624 1_554
In5 Li18 2.885624 1_454
In5 Li20 2.885624 1_555
In5 Li25 2.885624 1_554
In5 Li17 2.885624 1_455
In5 Li13 3.230017 1_454
In5 Li6 3.230017 1_555
In5 Li10 3.230030 1_455
In5 Li8 3.230030 1_554
In5 Li12 3.230030 1_554
In5 Li7 3.230030 1_455
