# generated using pymatgen
data_AlV4C3
_symmetry_space_group_name_H-M   'P 1'
_cell_length_a   5.84544040
_cell_length_b   5.84544040
_cell_length_c   45.62922800
_cell_angle_alpha   90.00000000
_cell_angle_beta   90.00000000
_cell_angle_gamma   120.00000455
_symmetry_Int_Tables_number   1
_chemical_formula_structural   AlV4C3
_chemical_formula_sum   'Al16 V64 C48'
_cell_volume   1350.23141018
_cell_formula_units_Z   16
loop_
 _symmetry_equiv_pos_site_id
 _symmetry_equiv_pos_as_xyz
  1  'x, y, z'
loop_
 _atom_site_type_symbol
 _atom_site_label
 _atom_site_symmetry_multiplicity
 _atom_site_fract_x
 _atom_site_fract_y
 _atom_site_fract_z
 _atom_site_occupancy
  Al  Al0_0  1  0.33333350  0.16666650  0.37500000  1
  Al  Al0_1  1  0.33333350  0.16666650  0.87500000  1
  Al  Al0_2  1  0.33333350  0.66666650  0.37500000  1
  Al  Al0_3  1  0.33333350  0.66666650  0.87500000  1
  Al  Al0_4  1  0.83333350  0.16666650  0.37500000  1
  Al  Al0_5  1  0.83333350  0.16666650  0.87500000  1
  Al  Al0_6  1  0.83333350  0.66666650  0.37500000  1
  Al  Al0_7  1  0.83333350  0.66666650  0.87500000  1
  Al  Al1_0  1  0.16666650  0.33333350  0.12500000  1
  Al  Al1_1  1  0.16666650  0.33333350  0.62500000  1
  Al  Al1_2  1  0.16666650  0.83333350  0.12500000  1
  Al  Al1_3  1  0.16666650  0.83333350  0.62500000  1
  Al  Al1_4  1  0.66666650  0.33333350  0.12500000  1
  Al  Al1_5  1  0.66666650  0.33333350  0.62500000  1
  Al  Al1_6  1  0.66666650  0.83333350  0.12500000  1
  Al  Al1_7  1  0.66666650  0.83333350  0.62500000  1
  V  V0_0  1  0.00000000  0.00000000  0.17277800  1
  V  V0_1  1  0.00000000  0.00000000  0.67277800  1
  V  V0_2  1  0.00000000  0.50000000  0.17277800  1
  V  V0_3  1  0.00000000  0.50000000  0.67277800  1
  V  V0_4  1  0.50000000  0.00000000  0.17277800  1
  V  V0_5  1  0.50000000  0.00000000  0.67277800  1
  V  V0_6  1  0.50000000  0.50000000  0.17277800  1
  V  V0_7  1  0.50000000  0.50000000  0.67277800  1
  V  V1_0  1  0.00000000  0.00000000  0.32722200  1
  V  V1_1  1  0.00000000  0.00000000  0.82722200  1
  V  V1_2  1  0.00000000  0.50000000  0.32722200  1
  V  V1_3  1  0.00000000  0.50000000  0.82722200  1
  V  V1_4  1  0.50000000  0.00000000  0.32722200  1
  V  V1_5  1  0.50000000  0.00000000  0.82722200  1
  V  V1_6  1  0.50000000  0.50000000  0.32722200  1
  V  V1_7  1  0.50000000  0.50000000  0.82722200  1
  V  V2_0  1  0.00000000  0.00000000  0.07722200  1
  V  V2_1  1  0.00000000  0.00000000  0.57722200  1
  V  V2_2  1  0.00000000  0.50000000  0.07722200  1
  V  V2_3  1  0.00000000  0.50000000  0.57722200  1
  V  V2_4  1  0.50000000  0.00000000  0.07722200  1
  V  V2_5  1  0.50000000  0.00000000  0.57722200  1
  V  V2_6  1  0.50000000  0.50000000  0.07722200  1
  V  V2_7  1  0.50000000  0.50000000  0.57722200  1
  V  V3_0  1  0.16666650  0.33333350  0.22278300  1
  V  V3_1  1  0.16666650  0.33333350  0.72278300  1
  V  V3_2  1  0.16666650  0.83333350  0.22278300  1
  V  V3_3  1  0.16666650  0.83333350  0.72278300  1
  V  V3_4  1  0.66666650  0.33333350  0.22278300  1
  V  V3_5  1  0.66666650  0.33333350  0.72278300  1
  V  V3_6  1  0.66666650  0.83333350  0.22278300  1
  V  V3_7  1  0.66666650  0.83333350  0.72278300  1
  V  V4_0  1  0.33333350  0.16666650  0.47278300  1
  V  V4_1  1  0.33333350  0.16666650  0.97278300  1
  V  V4_2  1  0.33333350  0.66666650  0.47278300  1
  V  V4_3  1  0.33333350  0.66666650  0.97278300  1
  V  V4_4  1  0.83333350  0.16666650  0.47278300  1
  V  V4_5  1  0.83333350  0.16666650  0.97278300  1
  V  V4_6  1  0.83333350  0.66666650  0.47278300  1
  V  V4_7  1  0.83333350  0.66666650  0.97278300  1
  V  V5_0  1  0.00000000  0.00000000  0.42277800  1
  V  V5_1  1  0.00000000  0.00000000  0.92277800  1
  V  V5_2  1  0.00000000  0.50000000  0.42277800  1
  V  V5_3  1  0.00000000  0.50000000  0.92277800  1
  V  V5_4  1  0.50000000  0.00000000  0.42277800  1
  V  V5_5  1  0.50000000  0.00000000  0.92277800  1
  V  V5_6  1  0.50000000  0.50000000  0.42277800  1
  V  V5_7  1  0.50000000  0.50000000  0.92277800  1
  V  V6_0  1  0.33333350  0.16666650  0.27721700  1
  V  V6_1  1  0.33333350  0.16666650  0.77721700  1
  V  V6_2  1  0.33333350  0.66666650  0.27721700  1
  V  V6_3  1  0.33333350  0.66666650  0.77721700  1
  V  V6_4  1  0.83333350  0.16666650  0.27721700  1
  V  V6_5  1  0.83333350  0.16666650  0.77721700  1
  V  V6_6  1  0.83333350  0.66666650  0.27721700  1
  V  V6_7  1  0.83333350  0.66666650  0.77721700  1
  V  V7_0  1  0.16666650  0.33333350  0.02721700  1
  V  V7_1  1  0.16666650  0.33333350  0.52721700  1
  V  V7_2  1  0.16666650  0.83333350  0.02721700  1
  V  V7_3  1  0.16666650  0.83333350  0.52721700  1
  V  V7_4  1  0.66666650  0.33333350  0.02721700  1
  V  V7_5  1  0.66666650  0.33333350  0.52721700  1
  V  V7_6  1  0.66666650  0.83333350  0.02721700  1
  V  V7_7  1  0.66666650  0.83333350  0.52721700  1
  C  C0_0  1  0.16666650  0.33333350  0.44618900  1
  C  C0_1  1  0.16666650  0.33333350  0.94618900  1
  C  C0_2  1  0.16666650  0.83333350  0.44618900  1
  C  C0_3  1  0.16666650  0.83333350  0.94618900  1
  C  C0_4  1  0.66666650  0.33333350  0.44618900  1
  C  C0_5  1  0.66666650  0.33333350  0.94618900  1
  C  C0_6  1  0.66666650  0.83333350  0.44618900  1
  C  C0_7  1  0.66666650  0.83333350  0.94618900  1
  C  C1_0  1  0.33333350  0.16666650  0.19618900  1
  C  C1_1  1  0.33333350  0.16666650  0.69618900  1
  C  C1_2  1  0.33333350  0.66666650  0.19618900  1
  C  C1_3  1  0.33333350  0.66666650  0.69618900  1
  C  C1_4  1  0.83333350  0.16666650  0.19618900  1
  C  C1_5  1  0.83333350  0.16666650  0.69618900  1
  C  C1_6  1  0.83333350  0.66666650  0.19618900  1
  C  C1_7  1  0.83333350  0.66666650  0.69618900  1
  C  C2_0  1  0.00000000  0.00000000  0.00000000  1
  C  C2_1  1  0.00000000  0.00000000  0.50000000  1
  C  C2_2  1  0.00000000  0.50000000  0.00000000  1
  C  C2_3  1  0.00000000  0.50000000  0.50000000  1
  C  C2_4  1  0.50000000  0.00000000  0.00000000  1
  C  C2_5  1  0.50000000  0.00000000  0.50000000  1
  C  C2_6  1  0.50000000  0.50000000  0.00000000  1
  C  C2_7  1  0.50000000  0.50000000  0.50000000  1
  C  C3_0  1  0.16666650  0.33333350  0.30381100  1
  C  C3_1  1  0.16666650  0.33333350  0.80381100  1
  C  C3_2  1  0.16666650  0.83333350  0.30381100  1
  C  C3_3  1  0.16666650  0.83333350  0.80381100  1
  C  C3_4  1  0.66666650  0.33333350  0.30381100  1
  C  C3_5  1  0.66666650  0.33333350  0.80381100  1
  C  C3_6  1  0.66666650  0.83333350  0.30381100  1
  C  C3_7  1  0.66666650  0.83333350  0.80381100  1
  C  C4_0  1  0.33333350  0.16666650  0.05381100  1
  C  C4_1  1  0.33333350  0.16666650  0.55381100  1
  C  C4_2  1  0.33333350  0.66666650  0.05381100  1
  C  C4_3  1  0.33333350  0.66666650  0.55381100  1
  C  C4_4  1  0.83333350  0.16666650  0.05381100  1
  C  C4_5  1  0.83333350  0.16666650  0.55381100  1
  C  C4_6  1  0.83333350  0.66666650  0.05381100  1
  C  C4_7  1  0.83333350  0.66666650  0.55381100  1
  C  C5_0  1  0.00000000  0.00000000  0.25000000  1
  C  C5_1  1  0.00000000  0.00000000  0.75000000  1
  C  C5_2  1  0.00000000  0.50000000  0.25000000  1
  C  C5_3  1  0.00000000  0.50000000  0.75000000  1
  C  C5_4  1  0.50000000  0.00000000  0.25000000  1
  C  C5_5  1  0.50000000  0.00000000  0.75000000  1
  C  C5_6  1  0.50000000  0.50000000  0.25000000  1
  C  C5_7  1  0.50000000  0.50000000  0.75000000  1
loop_
_geom_bond_atom_site_label_1
_geom_bond_atom_site_label_2
_geom_bond_distance
_geom_bond_site_symmetry_2
Al0_0 V1_4 2.756836 1_555
Al0_0 V5_4 2.756836 1_555
Al0_0 V1_6 2.756838 1_555
Al0_0 V1_0 2.756838 1_555
Al0_0 V5_6 2.756838 1_555
Al0_0 V5_0 2.756838 1_555
Al0_0 Al0_6 2.922720 1_445
Al0_0 Al0_6 2.922720 1_555
Al0_0 Al0_4 2.922720 1_555
Al0_0 Al0_2 2.922720 1_545
Al0_0 Al0_2 2.922720 1_555
Al0_0 Al0_4 2.922720 1_455
Al0_1 V1_5 2.756836 1_555
Al0_1 V5_5 2.756836 1_555
Al0_1 V1_7 2.756838 1_555
Al0_1 V1_1 2.756838 1_555
Al0_1 V5_7 2.756838 1_555
Al0_1 V5_1 2.756838 1_555
Al0_1 Al0_7 2.922720 1_445
Al0_1 Al0_7 2.922720 1_555
Al0_1 Al0_5 2.922720 1_555
Al0_1 Al0_3 2.922720 1_545
Al0_1 Al0_5 2.922720 1_455
Al0_1 Al0_3 2.922720 1_555
Al0_2 V1_6 2.756836 1_555
Al0_2 V5_6 2.756836 1_555
Al0_2 V1_4 2.756838 1_565
Al0_2 V1_2 2.756838 1_555
Al0_2 V5_2 2.756838 1_555
Al0_2 V5_4 2.756838 1_565
Al0_2 Al0_4 2.922720 1_455
Al0_2 Al0_4 2.922720 1_565
Al0_2 Al0_6 2.922720 1_555
Al0_2 Al0_6 2.922720 1_455
Al0_3 V1_7 2.756836 1_555
Al0_3 V5_7 2.756836 1_555
Al0_3 V1_3 2.756838 1_555
Al0_3 V1_5 2.756838 1_565
Al0_3 V5_5 2.756838 1_565
Al0_3 V5_3 2.756838 1_555
Al0_3 Al0_5 2.922720 1_455
Al0_3 Al0_5 2.922720 1_565
Al0_3 Al0_7 2.922720 1_555
Al0_3 Al0_7 2.922720 1_455
Al0_4 V1_0 2.756836 1_655
Al0_4 V5_0 2.756836 1_655
Al0_4 V1_4 2.756838 1_555
Al0_4 V1_2 2.756838 1_655
Al0_4 V5_2 2.756838 1_655
Al0_4 V5_4 2.756838 1_555
Al0_4 Al0_6 2.922720 1_545
Al0_4 Al0_6 2.922720 1_555
Al0_5 V1_1 2.756836 1_655
Al0_5 V5_1 2.756836 1_655
Al0_5 V1_5 2.756838 1_555
Al0_5 V1_3 2.756838 1_655
Al0_5 V5_5 2.756838 1_555
Al0_5 V5_3 2.756838 1_655
Al0_5 Al0_7 2.922720 1_545
Al0_5 Al0_7 2.922720 1_555
Al0_6 V1_2 2.756836 1_655
Al0_6 V5_2 2.756836 1_655
Al0_6 V1_0 2.756838 1_665
Al0_6 V1_6 2.756838 1_555
Al0_6 V5_0 2.756838 1_665
Al0_6 V5_6 2.756838 1_555
Al0_7 V1_3 2.756836 1_655
Al0_7 V5_3 2.756836 1_655
Al0_7 V1_7 2.756838 1_555
Al0_7 V1_1 2.756838 1_665
Al0_7 V5_1 2.756838 1_665
Al0_7 V5_7 2.756838 1_555
Al1_0 V0_2 2.756836 1_555
Al1_0 V2_2 2.756836 1_555
Al1_0 V0_6 2.756838 1_555
Al1_0 V0_0 2.756838 1_555
Al1_0 V2_0 2.756838 1_555
Al1_0 V2_6 2.756838 1_555
Al1_0 Al1_6 2.922720 1_445
Al1_0 Al1_6 2.922720 1_555
Al1_0 Al1_2 2.922720 1_555
Al1_0 Al1_4 2.922720 1_455
Al1_0 Al1_4 2.922720 1_555
Al1_0 Al1_2 2.922720 1_545
Al1_1 V0_3 2.756836 1_555
Al1_1 V2_3 2.756836 1_555
Al1_1 V0_1 2.756838 1_555
Al1_1 V0_7 2.756838 1_555
Al1_1 V2_1 2.756838 1_555
Al1_1 V2_7 2.756838 1_555
Al1_1 Al1_7 2.922720 1_555
Al1_1 Al1_7 2.922720 1_445
Al1_1 Al1_5 2.922720 1_455
Al1_1 Al1_3 2.922720 1_555
Al1_1 Al1_3 2.922720 1_545
Al1_1 Al1_5 2.922720 1_555
Al1_2 V0_0 2.756836 1_565
Al1_2 V2_0 2.756836 1_565
Al1_2 V0_2 2.756838 1_555
Al1_2 V0_4 2.756838 1_565
Al1_2 V2_2 2.756838 1_555
Al1_2 V2_4 2.756838 1_565
Al1_2 Al1_4 2.922720 1_455
Al1_2 Al1_4 2.922720 1_565
Al1_2 Al1_6 2.922720 1_455
Al1_2 Al1_6 2.922720 1_555
Al1_3 V0_1 2.756836 1_565
Al1_3 V2_1 2.756836 1_565
Al1_3 V0_5 2.756838 1_565
Al1_3 V0_3 2.756838 1_555
Al1_3 V2_3 2.756838 1_555
Al1_3 V2_5 2.756838 1_565
Al1_3 Al1_5 2.922720 1_455
Al1_3 Al1_5 2.922720 1_565
Al1_3 Al1_7 2.922720 1_455
Al1_3 Al1_7 2.922720 1_555
Al1_4 V0_6 2.756836 1_555
Al1_4 V2_6 2.756836 1_555
Al1_4 V0_4 2.756838 1_555
Al1_4 V0_2 2.756838 1_655
Al1_4 V2_2 2.756838 1_655
Al1_4 V2_4 2.756838 1_555
Al1_4 Al1_6 2.922720 1_555
Al1_4 Al1_6 2.922720 1_545
Al1_5 V0_7 2.756836 1_555
Al1_5 V2_7 2.756836 1_555
Al1_5 V0_5 2.756838 1_555
Al1_5 V0_3 2.756838 1_655
Al1_5 V2_3 2.756838 1_655
Al1_5 V2_5 2.756838 1_555
Al1_5 Al1_7 2.922720 1_555
Al1_5 Al1_7 2.922720 1_545
Al1_6 V0_4 2.756836 1_565
Al1_6 V2_4 2.756836 1_565
Al1_6 V0_6 2.756838 1_555
Al1_6 V0_0 2.756838 1_665
Al1_6 V2_6 2.756838 1_555
Al1_6 V2_0 2.756838 1_665
Al1_7 V0_5 2.756836 1_565
Al1_7 V2_5 2.756836 1_565
Al1_7 V0_7 2.756838 1_555
Al1_7 V0_1 2.756838 1_665
Al1_7 V2_1 2.756838 1_665
Al1_7 V2_7 2.756838 1_555
C0_0 V5_2 1.997131 1_555
C0_0 V5_0 1.997133 1_555
C0_0 V5_6 1.997133 1_555
C0_0 V4_2 2.078442 1_555
C0_0 V4_4 2.078442 1_455
C0_0 V4_0 2.078446 1_555
C0_1 V5_3 1.997131 1_555
C0_1 V5_7 1.997133 1_555
C0_1 V5_1 1.997133 1_555
C0_1 V4_5 2.078442 1_455
C0_1 V4_3 2.078442 1_555
C0_1 V4_1 2.078446 1_555
C0_2 V5_0 1.997131 1_565
C0_2 V5_2 1.997133 1_555
C0_2 V5_4 1.997133 1_565
C0_2 V4_6 2.078442 1_455
C0_2 V4_0 2.078442 1_565
C0_2 V4_2 2.078446 1_555
C0_3 V5_1 1.997131 1_565
C0_3 V5_3 1.997133 1_555
C0_3 V5_5 1.997133 1_565
C0_3 V4_7 2.078442 1_455
C0_3 V4_1 2.078442 1_565
C0_3 V4_3 2.078446 1_555
C0_4 V5_6 1.997131 1_555
C0_4 V5_2 1.997133 1_655
C0_4 V5_4 1.997133 1_555
C0_4 V4_6 2.078442 1_555
C0_4 V4_0 2.078442 1_555
C0_4 V4_4 2.078446 1_555
C0_5 V5_7 1.997131 1_555
C0_5 V5_3 1.997133 1_655
C0_5 V5_5 1.997133 1_555
C0_5 V4_7 2.078442 1_555
C0_5 V4_1 2.078442 1_555
C0_5 V4_5 2.078446 1_555
C0_6 V5_4 1.997131 1_565
C0_6 V5_6 1.997133 1_555
C0_6 V5_0 1.997133 1_665
C0_6 V4_2 2.078442 1_555
C0_6 V4_4 2.078442 1_565
C0_6 V4_6 2.078446 1_555
C0_7 V5_5 1.997131 1_565
C0_7 V5_7 1.997133 1_555
C0_7 V5_1 1.997133 1_665
C0_7 V4_3 2.078442 1_555
C0_7 V4_5 2.078442 1_565
C0_7 V4_7 2.078446 1_555
C1_0 V0_4 1.997131 1_555
C1_0 V0_6 1.997133 1_555
C1_0 V0_0 1.997133 1_555
C1_0 V3_2 2.078442 1_545
C1_0 V3_4 2.078442 1_555
C1_0 V3_0 2.078446 1_555
C1_1 V0_5 1.997131 1_555
C1_1 V0_7 1.997133 1_555
C1_1 V0_1 1.997133 1_555
C1_1 V3_5 2.078442 1_555
C1_1 V3_3 2.078442 1_545
C1_1 V3_1 2.078446 1_555
C1_2 V0_6 1.997131 1_555
C1_2 V0_4 1.997133 1_565
C1_2 V0_2 1.997133 1_555
C1_2 V3_6 2.078442 1_555
C1_2 V3_0 2.078442 1_555
C1_2 V3_2 2.078446 1_555
C1_3 V0_7 1.997131 1_555
C1_3 V0_5 1.997133 1_565
C1_3 V0_3 1.997133 1_555
C1_3 V3_7 2.078442 1_555
C1_3 V3_1 2.078442 1_555
C1_3 V3_3 2.078446 1_555
C1_4 V0_0 1.997131 1_655
C1_4 V0_4 1.997133 1_555
C1_4 V0_2 1.997133 1_655
C1_4 V3_6 2.078442 1_545
C1_4 V3_0 2.078442 1_655
C1_4 V3_4 2.078446 1_555
C1_5 V0_1 1.997131 1_655
C1_5 V0_5 1.997133 1_555
C1_5 V0_3 1.997133 1_655
C1_5 V3_7 2.078442 1_545
C1_5 V3_1 2.078442 1_655
C1_5 V3_5 2.078446 1_555
C1_6 V0_2 1.997131 1_655
C1_6 V0_6 1.997133 1_555
C1_6 V0_0 1.997133 1_665
C1_6 V3_4 2.078442 1_555
C1_6 V3_2 2.078442 1_655
C1_6 V3_6 2.078446 1_555
C1_7 V0_3 1.997131 1_655
C1_7 V0_1 1.997133 1_665
C1_7 V0_7 1.997133 1_555
C1_7 V3_5 2.078442 1_555
C1_7 V3_3 2.078442 1_655
C1_7 V3_7 2.078446 1_555
C2_0 V4_5 2.095165 1_454
C2_0 V7_2 2.095165 1_545
C2_0 V4_7 2.095167 1_444
C2_0 V4_1 2.095167 1_554
C2_0 V7_0 2.095167 1_555
C2_0 V7_6 2.095167 1_445
C2_1 V4_4 2.095165 1_455
C2_1 V7_3 2.095165 1_545
C2_1 V4_0 2.095167 1_555
C2_1 V4_6 2.095167 1_445
C2_1 V7_7 2.095167 1_445
C2_1 V7_1 2.095167 1_555
C2_2 V4_7 2.095165 1_454
C2_2 V7_0 2.095165 1_555
C2_2 V4_3 2.095167 1_554
C2_2 V4_5 2.095167 1_454
C2_2 V7_4 2.095167 1_455
C2_2 V7_2 2.095167 1_555
C2_3 V4_6 2.095165 1_455
C2_3 V7_1 2.095165 1_555
C2_3 V4_4 2.095167 1_455
C2_3 V4_2 2.095167 1_555
C2_3 V7_3 2.095167 1_555
C2_3 V7_5 2.095167 1_455
C2_4 V4_1 2.095165 1_554
C2_4 V7_6 2.095165 1_545
C2_4 V4_3 2.095167 1_544
C2_4 V4_5 2.095167 1_554
C2_4 V7_2 2.095167 1_545
C2_4 V7_4 2.095167 1_555
C2_5 V4_0 2.095165 1_555
C2_5 V7_7 2.095165 1_545
C2_5 V4_2 2.095167 1_545
C2_5 V4_4 2.095167 1_555
C2_5 V7_3 2.095167 1_545
C2_5 V7_5 2.095167 1_555
C2_6 V4_3 2.095165 1_554
C2_6 V7_4 2.095165 1_555
C2_6 V4_7 2.095167 1_554
C2_6 V4_1 2.095167 1_554
C2_6 V7_0 2.095167 1_555
C2_6 V7_6 2.095167 1_555
C2_7 V4_2 2.095165 1_555
C2_7 V7_5 2.095165 1_555
C2_7 V4_0 2.095167 1_555
C2_7 V4_6 2.095167 1_555
C2_7 V7_7 2.095167 1_555
C2_7 V7_1 2.095167 1_555
C3_0 V1_2 1.997131 1_555
C3_0 V1_6 1.997133 1_555
C3_0 V1_0 1.997133 1_555
C3_0 V6_2 2.078442 1_555
C3_0 V6_4 2.078442 1_455
C3_0 V6_0 2.078446 1_555
C3_1 V1_3 1.997131 1_555
C3_1 V1_7 1.997133 1_555
C3_1 V1_1 1.997133 1_555
C3_1 V6_3 2.078442 1_555
C3_1 V6_5 2.078442 1_455
C3_1 V6_1 2.078446 1_555
C3_2 V1_0 1.997131 1_565
C3_2 V1_2 1.997133 1_555
C3_2 V1_4 1.997133 1_565
C3_2 V6_6 2.078442 1_455
C3_2 V6_0 2.078442 1_565
C3_2 V6_2 2.078446 1_555
C3_3 V1_1 1.997131 1_565
C3_3 V1_3 1.997133 1_555
C3_3 V1_5 1.997133 1_565
C3_3 V6_7 2.078442 1_455
C3_3 V6_1 2.078442 1_565
C3_3 V6_3 2.078446 1_555
C3_4 V1_6 1.997131 1_555
C3_4 V1_2 1.997133 1_655
C3_4 V1_4 1.997133 1_555
C3_4 V6_6 2.078442 1_555
C3_4 V6_0 2.078442 1_555
C3_4 V6_4 2.078446 1_555
C3_5 V1_7 1.997131 1_555
C3_5 V1_3 1.997133 1_655
C3_5 V1_5 1.997133 1_555
C3_5 V6_7 2.078442 1_555
C3_5 V6_1 2.078442 1_555
C3_5 V6_5 2.078446 1_555
C3_6 V1_4 1.997131 1_565
C3_6 V1_0 1.997133 1_665
C3_6 V1_6 1.997133 1_555
C3_6 V6_2 2.078442 1_555
C3_6 V6_4 2.078442 1_565
C3_6 V6_6 2.078446 1_555
C3_7 V1_5 1.997131 1_565
C3_7 V1_1 1.997133 1_665
C3_7 V1_7 1.997133 1_555
C3_7 V6_3 2.078442 1_555
C3_7 V6_5 2.078442 1_565
C3_7 V6_7 2.078446 1_555
C4_0 V2_4 1.997131 1_555
C4_0 V2_6 1.997133 1_555
C4_0 V2_0 1.997133 1_555
C4_0 V7_4 2.078442 1_555
C4_0 V7_2 2.078442 1_545
C4_0 V7_0 2.078446 1_555
C4_1 V2_5 1.997131 1_555
C4_1 V2_7 1.997133 1_555
C4_1 V2_1 1.997133 1_555
C4_1 V7_5 2.078442 1_555
C4_1 V7_3 2.078442 1_545
C4_1 V7_1 2.078446 1_555
C4_2 V2_6 1.997131 1_555
C4_2 V2_4 1.997133 1_565
C4_2 V2_2 1.997133 1_555
C4_2 V7_0 2.078442 1_555
C4_2 V7_6 2.078442 1_555
C4_2 V7_2 2.078446 1_555
C4_3 V2_7 1.997131 1_555
C4_3 V2_5 1.997133 1_565
C4_3 V2_3 1.997133 1_555
C4_3 V7_7 2.078442 1_555
C4_3 V7_1 2.078442 1_555
C4_3 V7_3 2.078446 1_555
C4_4 V2_0 1.997131 1_655
C4_4 V2_4 1.997133 1_555
C4_4 V2_2 1.997133 1_655
C4_4 V7_6 2.078442 1_545
C4_4 V7_0 2.078442 1_655
C4_4 V7_4 2.078446 1_555
C4_5 V2_1 1.997131 1_655
C4_5 V2_5 1.997133 1_555
C4_5 V2_3 1.997133 1_655
C4_5 V7_7 2.078442 1_545
C4_5 V7_1 2.078442 1_655
C4_5 V7_5 2.078446 1_555
C4_6 V2_2 1.997131 1_655
C4_6 V2_0 1.997133 1_665
C4_6 V2_6 1.997133 1_555
C4_6 V7_4 2.078442 1_555
C4_6 V7_2 2.078442 1_655
C4_6 V7_6 2.078446 1_555
C4_7 V2_3 1.997131 1_655
C4_7 V2_1 1.997133 1_665
C4_7 V2_7 1.997133 1_555
C4_7 V7_5 2.078442 1_555
C4_7 V7_3 2.078442 1_655
C4_7 V7_7 2.078446 1_555
C5_0 V3_2 2.095165 1_545
C5_0 V6_4 2.095165 1_455
C5_0 V3_6 2.095167 1_445
C5_0 V3_0 2.095167 1_555
C5_0 V6_6 2.095167 1_445
C5_0 V6_0 2.095167 1_555
C5_1 V3_3 2.095165 1_545
C5_1 V6_5 2.095165 1_455
C5_1 V3_7 2.095167 1_445
C5_1 V6_7 2.095167 1_445
C5_1 V6_1 2.095167 1_555
C5_1 V3_1 2.095167 1_555
C5_2 V3_0 2.095165 1_555
C5_2 V6_6 2.095165 1_455
C5_2 V3_2 2.095167 1_555
C5_2 V3_4 2.095167 1_455
C5_2 V6_2 2.095167 1_555
C5_2 V6_4 2.095167 1_455
C5_3 V3_1 2.095165 1_555
C5_3 V6_7 2.095165 1_455
C5_3 V3_3 2.095167 1_555
C5_3 V3_5 2.095167 1_455
C5_3 V6_3 2.095167 1_555
C5_3 V6_5 2.095167 1_455
C5_4 V3_6 2.095165 1_545
C5_4 V6_0 2.095165 1_555
C5_4 V3_2 2.095167 1_545
C5_4 V3_4 2.095167 1_555
C5_4 V6_4 2.095167 1_555
C5_4 V6_2 2.095167 1_545
C5_5 V3_7 2.095165 1_545
C5_5 V6_1 2.095165 1_555
C5_5 V6_3 2.095167 1_545
C5_5 V6_5 2.095167 1_555
C5_5 V3_5 2.095167 1_555
C5_5 V3_3 2.095167 1_545
C5_6 V3_4 2.095165 1_555
C5_6 V6_2 2.095165 1_555
C5_6 V3_6 2.095167 1_555
C5_6 V3_0 2.095167 1_555
C5_6 V6_6 2.095167 1_555
C5_6 V6_0 2.095167 1_555
C5_7 V6_3 2.095165 1_555
C5_7 V3_5 2.095165 1_555
C5_7 V3_7 2.095167 1_555
C5_7 V6_7 2.095167 1_555
C5_7 V6_1 2.095167 1_555
C5_7 V3_1 2.095167 1_555
