# generated using pymatgen
data_CrHg3O5
_symmetry_space_group_name_H-M   'P 1'
_cell_length_a   9.63826800
_cell_length_b   10.68019500
_cell_length_c   11.81986500
_cell_angle_alpha   90.00000000
_cell_angle_beta   90.00000000
_cell_angle_gamma   90.00000000
_symmetry_Int_Tables_number   1
_chemical_formula_structural   CrHg3O5
_chemical_formula_sum   'Cr8 Hg24 O40'
_cell_volume   1216.72013901
_cell_formula_units_Z   8
loop_
 _symmetry_equiv_pos_site_id
 _symmetry_equiv_pos_as_xyz
  1  'x, y, z'
loop_
 _atom_site_type_symbol
 _atom_site_label
 _atom_site_symmetry_multiplicity
 _atom_site_fract_x
 _atom_site_fract_y
 _atom_site_fract_z
 _atom_site_occupancy
  Cr  Cr0  1  0.94747900  0.57878700  0.86366900  1
  Cr  Cr1  1  0.44838500  0.57923500  0.85643000  1
  Cr  Cr2  1  0.55161500  0.07923500  0.14357000  1
  Cr  Cr3  1  0.44838500  0.07923500  0.64357000  1
  Cr  Cr4  1  0.05252100  0.07878700  0.13633100  1
  Cr  Cr5  1  0.55161500  0.57923500  0.35643000  1
  Cr  Cr6  1  0.94747900  0.07878700  0.63633100  1
  Cr  Cr7  1  0.05252100  0.57878700  0.36366900  1
  Hg  Hg0  1  0.26470100  0.82888500  0.25236400  1
  Hg  Hg1  1  0.73529900  0.32888500  0.74763600  1
  Hg  Hg2  1  0.42539200  0.91083700  0.90610800  1
  Hg  Hg3  1  0.73529900  0.82888500  0.75236400  1
  Hg  Hg4  1  0.24517400  0.57848400  0.09037400  1
  Hg  Hg5  1  0.06819900  0.25988500  0.87854500  1
  Hg  Hg6  1  0.75482600  0.07848400  0.90962600  1
  Hg  Hg7  1  0.33898300  0.24762700  0.90256100  1
  Hg  Hg8  1  0.15532600  0.40266800  0.61454000  1
  Hg  Hg9  1  0.42539200  0.41083700  0.59389200  1
  Hg  Hg10  1  0.84467400  0.90266800  0.38546000  1
  Hg  Hg11  1  0.66101700  0.74762700  0.09743900  1
  Hg  Hg12  1  0.75482600  0.57848400  0.59037400  1
  Hg  Hg13  1  0.57460800  0.91083700  0.40610800  1
  Hg  Hg14  1  0.26470100  0.32888500  0.24763600  1
  Hg  Hg15  1  0.24517400  0.07848400  0.40962600  1
  Hg  Hg16  1  0.93180100  0.75988500  0.12145500  1
  Hg  Hg17  1  0.93180100  0.25988500  0.37854500  1
  Hg  Hg18  1  0.06819900  0.75988500  0.62145500  1
  Hg  Hg19  1  0.33898300  0.74762700  0.59743900  1
  Hg  Hg20  1  0.15532600  0.90266800  0.88546000  1
  Hg  Hg21  1  0.57460800  0.41083700  0.09389200  1
  Hg  Hg22  1  0.84467400  0.40266800  0.11454000  1
  Hg  Hg23  1  0.66101700  0.24762700  0.40256100  1
  O  O0  1  0.99854600  0.72970400  0.86029200  1
  O  O1  1  0.99482100  0.00492500  0.01849500  1
  O  O2  1  0.16368800  0.25844700  0.39089800  1
  O  O3  1  0.65784800  0.40257900  0.59660200  1
  O  O4  1  0.50117800  0.42792400  0.86254400  1
  O  O5  1  0.99482100  0.50492500  0.48150500  1
  O  O6  1  0.49882200  0.42792400  0.36254400  1
  O  O7  1  0.00517900  0.00492500  0.51849500  1
  O  O8  1  0.34215200  0.90257900  0.40339800  1
  O  O9  1  0.83631200  0.75844700  0.60910200  1
  O  O10  1  0.00145400  0.72970400  0.36029200  1
  O  O11  1  0.22248800  0.57823700  0.36625300  1
  O  O12  1  0.99854600  0.22970400  0.63970800  1
  O  O13  1  0.00517900  0.50492500  0.98150500  1
  O  O14  1  0.50117800  0.92792400  0.63745600  1
  O  O15  1  0.49363600  0.65045100  0.23855500  1
  O  O16  1  0.77751200  0.57823700  0.86625300  1
  O  O17  1  0.72066900  0.07974100  0.14774400  1
  O  O18  1  0.49882200  0.92792400  0.13745600  1
  O  O19  1  0.65784800  0.90257900  0.90339800  1
  O  O20  1  0.49466000  0.65866000  0.97533900  1
  O  O21  1  0.27933100  0.07974100  0.64774400  1
  O  O22  1  0.34215200  0.40257900  0.09660200  1
  O  O23  1  0.72066900  0.57974100  0.35225600  1
  O  O24  1  0.50534000  0.15866000  0.02466100  1
  O  O25  1  0.50636400  0.65045100  0.73855500  1
  O  O26  1  0.99497900  0.50095400  0.74592000  1
  O  O27  1  0.00502100  0.50095400  0.24592000  1
  O  O28  1  0.99497900  0.00095400  0.75408000  1
  O  O29  1  0.49363600  0.15045100  0.26144500  1
  O  O30  1  0.00502100  0.00095400  0.25408000  1
  O  O31  1  0.50534000  0.65866000  0.47533900  1
  O  O32  1  0.00145400  0.22970400  0.13970800  1
  O  O33  1  0.27933100  0.57974100  0.85225600  1
  O  O34  1  0.22248800  0.07823700  0.13374700  1
  O  O35  1  0.16368800  0.75844700  0.10910200  1
  O  O36  1  0.77751200  0.07823700  0.63374700  1
  O  O37  1  0.83631200  0.25844700  0.89089800  1
  O  O38  1  0.49466000  0.15866000  0.52466100  1
  O  O39  1  0.50636400  0.15045100  0.76144500  1
loop_
_geom_bond_atom_site_label_1
_geom_bond_atom_site_label_2
_geom_bond_distance
_geom_bond_site_symmetry_2
Cr0 O16 1.638483 1_555
Cr0 O26 1.684534 1_555
Cr0 O0 1.685771 1_555
Cr0 O13 1.694546 1_655
Cr1 O33 1.630143 1_555
Cr1 O25 1.682849 1_555
Cr1 O4 1.695786 1_555
Cr1 O20 1.701145 1_555
Cr2 O17 1.630143 1_555
Cr2 O29 1.682849 1_555
Cr2 O18 1.695786 1_545
Cr2 O24 1.701145 1_555
Cr3 O21 1.630143 1_555
Cr3 O39 1.682849 1_555
Cr3 O14 1.695786 1_545
Cr3 O38 1.701145 1_555
Cr4 O34 1.638483 1_555
Cr4 O30 1.684534 1_555
Cr4 O32 1.685771 1_555
Cr4 O1 1.694546 1_455
Cr5 O23 1.630143 1_555
Cr5 O15 1.682849 1_555
Cr5 O6 1.695786 1_555
Cr5 O31 1.701145 1_555
Cr6 O36 1.638483 1_555
Cr6 O28 1.684534 1_555
Cr6 O12 1.685771 1_555
Cr6 O7 1.694546 1_655
Cr7 O11 1.638483 1_555
Cr7 O27 1.684534 1_555
Cr7 O10 1.685771 1_555
Cr7 O5 1.694546 1_455
Hg0 O8 2.088940 1_555
Hg0 O35 2.093135 1_555
Hg1 O3 2.088940 1_555
Hg1 O37 2.093135 1_555
Hg2 O19 2.242437 1_555
Hg3 O19 2.088940 1_555
Hg3 O9 2.093135 1_555
Hg4 O35 2.088077 1_555
Hg4 O22 2.099666 1_555
Hg5 O37 2.239806 1_455
Hg6 O37 2.088077 1_555
Hg6 O19 2.099666 1_545
Hg7 O24 2.357236 1_556
Hg7 O4 2.524981 1_555
Hg7 O39 2.542026 1_555
Hg8 O12 2.405069 1_455
Hg8 O26 2.429372 1_455
Hg8 O5 2.461409 1_455
Hg9 O3 2.242437 1_555
Hg10 O10 2.405069 1_655
Hg10 O30 2.429372 1_665
Hg10 O7 2.461409 1_665
Hg11 O20 2.357236 1_554
Hg11 O18 2.524981 1_555
Hg11 O15 2.542026 1_555
Hg12 O9 2.088077 1_555
Hg12 O3 2.099666 1_555
Hg13 O8 2.242437 1_555
Hg14 O22 2.088940 1_555
Hg14 O2 2.093135 1_555
Hg15 O2 2.088077 1_555
Hg15 O8 2.099666 1_545
Hg16 O35 2.239806 1_655
Hg17 O2 2.239806 1_655
Hg18 O9 2.239806 1_455
Hg19 O31 2.357236 1_555
Hg19 O14 2.524981 1_555
Hg19 O25 2.542026 1_555
Hg20 O0 2.405069 1_455
Hg20 O28 2.429372 1_465
Hg20 O1 2.461409 1_466
Hg21 O22 2.242437 1_555
Hg22 O32 2.405069 1_655
Hg22 O27 2.429372 1_655
Hg22 O13 2.461409 1_654
Hg23 O38 2.357236 1_555
Hg23 O6 2.524981 1_555
Hg23 O29 2.542026 1_555
