# generated using pymatgen
data_Cs2Te3As
_symmetry_space_group_name_H-M   'P 1'
_cell_length_a   9.58837828
_cell_length_b   10.95178606
_cell_length_c   11.58839620
_cell_angle_alpha   60.98583069
_cell_angle_beta   90.00000000
_cell_angle_gamma   90.00000000
_symmetry_Int_Tables_number   1
_chemical_formula_structural   Cs2Te3As
_chemical_formula_sum   'Cs8 Te12 As4'
_cell_volume   1064.17524895
_cell_formula_units_Z   4
loop_
 _symmetry_equiv_pos_site_id
 _symmetry_equiv_pos_as_xyz
  1  'x, y, z'
loop_
 _atom_site_type_symbol
 _atom_site_label
 _atom_site_symmetry_multiplicity
 _atom_site_fract_x
 _atom_site_fract_y
 _atom_site_fract_z
 _atom_site_occupancy
  Cs  Cs0  1  0.39195964  0.73346846  0.96862011  1
  Cs  Cs1  1  0.60804036  0.26653154  0.03137989  1
  Cs  Cs2  1  0.90945308  0.74454431  0.80106643  1
  Cs  Cs3  1  0.59054692  0.74454431  0.30106643  1
  Cs  Cs4  1  0.09054692  0.25545569  0.19893357  1
  Cs  Cs5  1  0.10804036  0.73346846  0.46862011  1
  Cs  Cs6  1  0.89195964  0.26653154  0.53137989  1
  Cs  Cs7  1  0.40945308  0.25545569  0.69893357  1
  Te  Te0  1  0.78170528  0.99824231  0.39257489  1
  Te  Te1  1  0.50346079  0.30653103  0.34873613  1
  Te  Te2  1  0.28170528  0.00175769  0.10742511  1
  Te  Te3  1  0.21829472  0.00175769  0.60742511  1
  Te  Te4  1  0.71829472  0.99824231  0.89257489  1
  Te  Te5  1  0.00346079  0.69346897  0.15126387  1
  Te  Te6  1  0.99653921  0.30653103  0.84873613  1
  Te  Te7  1  0.72247539  0.52808052  0.66673482  1
  Te  Te8  1  0.27752461  0.47191948  0.33326518  1
  Te  Te9  1  0.22247539  0.47191948  0.83326518  1
  Te  Te10  1  0.49653921  0.69346897  0.65126387  1
  Te  Te11  1  0.77752461  0.52808052  0.16673482  1
  As  As0  1  0.60113131  0.95481824  0.57228848  1
  As  As1  1  0.89886869  0.95481824  0.07228848  1
  As  As2  1  0.10113131  0.04518176  0.92771152  1
  As  As3  1  0.39886869  0.04518176  0.42771152  1
loop_
_geom_bond_atom_site_label_1
_geom_bond_atom_site_label_2
_geom_bond_distance
_geom_bond_site_symmetry_2
Cs0 Te8 3.939981 1_556
Cs0 Te10 4.035507 1_555
Cs0 Te4 4.061657 1_555
Cs0 Te2 4.113751 1_566
Cs0 Te3 4.122583 1_565
Cs0 Te5 4.201004 1_556
Cs0 Te9 4.202928 1_555
Cs0 Te11 4.357564 1_556
Cs1 Te7 3.939981 1_554
Cs1 Te1 4.035507 1_555
Cs1 Te2 4.061657 1_555
Cs1 Te4 4.113751 1_544
Cs1 Te0 4.122583 1_545
Cs1 Te6 4.201004 1_554
Cs1 Te11 4.202928 1_555
Cs1 Te9 4.357564 1_554
Cs2 Te7 3.851931 1_555
Cs2 Te4 3.880971 1_555
Cs2 Te5 3.923332 1_656
Cs2 Te11 3.928340 1_556
Cs2 Te3 3.950700 1_665
Cs2 Te9 4.120844 1_655
Cs2 Te0 4.343964 1_555
Cs3 Te11 3.851931 1_555
Cs3 Te0 3.880971 1_555
Cs3 Te10 3.923332 1_555
Cs3 Te7 3.928340 1_555
Cs3 Te2 3.950700 1_565
Cs3 Te8 4.120844 1_555
Cs3 Te4 4.343964 1_554
Cs4 Te8 3.851931 1_555
Cs4 Te2 3.880971 1_555
Cs4 Te6 3.923332 1_454
Cs4 Te9 3.928340 1_554
Cs4 Te0 3.950700 1_445
Cs4 Te11 4.120844 1_455
Cs4 Te3 4.343964 1_555
Cs5 Te9 3.939981 1_555
Cs5 Te5 4.035507 1_555
Cs5 Te0 4.061657 1_455
Cs5 Te3 4.113751 1_565
Cs5 Te2 4.122583 1_565
Cs5 Te10 4.201004 1_555
Cs5 Te8 4.202928 1_555
Cs5 Te7 4.357564 1_455
Cs6 Te11 3.939981 1_555
Cs6 Te6 4.035507 1_555
Cs6 Te3 4.061657 1_655
Cs6 Te0 4.113751 1_545
Cs6 Te4 4.122583 1_545
Cs6 Te1 4.201004 1_555
Cs6 Te7 4.202928 1_555
Cs6 Te8 4.357564 1_655
Cs7 Te9 3.851931 1_555
Cs7 Te3 3.880971 1_555
Cs7 Te1 3.923332 1_555
Cs7 Te8 3.928340 1_555
Cs7 Te4 3.950700 1_545
Cs7 Te7 4.120844 1_555
Cs7 Te2 4.343964 1_556
Te1 Te8 2.773276 1_555
Te6 Te9 2.773276 1_655
Te10 Te7 2.773276 1_555
Te11 Te5 2.773276 1_655
As0 As3 2.437039 1_565
As0 Te0 2.569121 1_555
As0 Te10 2.737643 1_555
As0 Cs2 3.892198 1_555
As0 Cs6 4.252660 1_565
As1 As2 2.437039 1_664
As1 Te4 2.569121 1_554
As1 Te5 2.737643 1_655
As1 Cs3 3.892198 1_555
As1 Cs1 4.252660 1_565
As2 Te2 2.569121 1_556
As2 Te6 2.737643 1_455
As2 Cs7 3.892198 1_555
As2 Cs0 4.252660 1_545
As3 Te3 2.569121 1_555
As3 Te1 2.737643 1_555
As3 Cs4 3.892198 1_555
As3 Cs5 4.252660 1_545
