# generated using pymatgen
data_Ca3SiO5
_symmetry_space_group_name_H-M   'P 1'
_cell_length_a   9.59467217
_cell_length_b   9.59467217
_cell_length_c   9.59467172
_cell_angle_alpha   43.81302179
_cell_angle_beta   43.81302179
_cell_angle_gamma   43.81302049
_symmetry_Int_Tables_number   1
_chemical_formula_structural   Ca3SiO5
_chemical_formula_sum   'Ca9 Si3 O15'
_cell_volume   384.35728854
_cell_formula_units_Z   3
loop_
 _symmetry_equiv_pos_site_id
 _symmetry_equiv_pos_as_xyz
  1  'x, y, z'
loop_
 _atom_site_type_symbol
 _atom_site_label
 _atom_site_symmetry_multiplicity
 _atom_site_fract_x
 _atom_site_fract_y
 _atom_site_fract_z
 _atom_site_occupancy
  Ca  Ca0  1  0.98659200  0.50358900  0.50358900  1
  Ca  Ca1  1  0.28356900  0.28356900  0.76020700  1
  Ca  Ca2  1  0.71285200  0.25959900  0.71285200  1
  Ca  Ca3  1  0.71285200  0.71285200  0.25959900  1
  Ca  Ca4  1  0.25959900  0.71285200  0.71285200  1
  Ca  Ca5  1  0.28356900  0.76020700  0.28356900  1
  Ca  Ca6  1  0.50358900  0.98659200  0.50358900  1
  Ca  Ca7  1  0.76020700  0.28356900  0.28356900  1
  Ca  Ca8  1  0.50358900  0.50358900  0.98659200  1
  Si  Si0  1  0.22077600  0.22077600  0.22077600  1
  Si  Si1  1  0.78617200  0.78617200  0.78617200  1
  Si  Si2  1  0.00139300  0.00139300  0.00139300  1
  O  O0  1  0.85078400  0.85078400  0.85078400  1
  O  O1  1  0.23101900  0.85476600  0.85476600  1
  O  O2  1  0.37124500  0.37124500  0.37124500  1
  O  O3  1  0.63906600  0.01294400  0.63906600  1
  O  O4  1  0.49973400  0.49973400  0.49973400  1
  O  O5  1  0.61848900  0.61848900  0.61848900  1
  O  O6  1  0.85476600  0.85476600  0.23101900  1
  O  O7  1  0.36656600  0.36656600  0.99005300  1
  O  O8  1  0.06406900  0.06406900  0.06406900  1
  O  O9  1  0.36656600  0.99005300  0.36656600  1
  O  O10  1  0.99005300  0.36656600  0.36656600  1
  O  O11  1  0.63906600  0.63906600  0.01294400  1
  O  O12  1  0.01294400  0.63906600  0.63906600  1
  O  O13  1  0.15792000  0.15792000  0.15792000  1
  O  O14  1  0.85476600  0.23101900  0.85476600  1
loop_
_geom_bond_atom_site_label_1
_geom_bond_atom_site_label_2
_geom_bond_distance
_geom_bond_site_symmetry_2
Ca0 O5 2.328091 1_555
Ca0 O2 2.376077 1_655
Ca0 O6 2.387098 1_555
Ca0 O14 2.387098 1_555
Ca0 O10 2.413787 1_555
Ca0 O12 2.613484 1_655
Ca1 O12 2.362068 1_555
Ca1 O3 2.362068 1_555
Ca1 O8 2.459487 1_556
Ca1 O4 2.468985 1_555
Ca1 O13 2.507412 1_556
Ca1 O2 2.702317 1_555
Ca2 O14 2.319740 1_555
Ca2 O7 2.330474 1_555
Ca2 O10 2.330474 1_555
Ca2 O5 2.383472 1_555
Ca2 O4 2.471156 1_555
Ca2 O0 2.536273 1_545
Ca3 O6 2.319740 1_555
Ca3 O10 2.330474 1_555
Ca3 O9 2.330474 1_555
Ca3 O5 2.383472 1_555
Ca3 O4 2.471156 1_555
Ca3 O0 2.536273 1_554
Ca4 O1 2.319740 1_555
Ca4 O7 2.330474 1_555
Ca4 O9 2.330474 1_555
Ca4 O5 2.383472 1_555
Ca4 O4 2.471156 1_555
Ca4 O0 2.536273 1_455
Ca5 O11 2.362068 1_555
Ca5 O12 2.362068 1_555
Ca5 O8 2.459487 1_565
Ca5 O4 2.468985 1_555
Ca5 O13 2.507413 1_565
Ca5 O2 2.702317 1_555
Ca6 O5 2.328091 1_555
Ca6 O2 2.376077 1_565
Ca6 O6 2.387098 1_555
Ca6 O1 2.387098 1_555
Ca6 O9 2.413787 1_555
Ca6 O3 2.613484 1_565
Ca7 O11 2.362068 1_555
Ca7 O3 2.362068 1_555
Ca7 O8 2.459487 1_655
Ca7 O4 2.468985 1_555
Ca7 O13 2.507413 1_655
Ca7 O2 2.702317 1_555
Ca8 O5 2.328091 1_555
Ca8 O2 2.376077 1_556
Ca8 O14 2.387098 1_555
Ca8 O1 2.387098 1_555
Ca8 O7 2.413787 1_555
Ca8 O11 2.613484 1_556
O0 Si1 1.678356 1_555
O1 Si2 1.649937 1_566
O3 Si1 1.652062 1_545
O6 Si2 1.649937 1_665
O7 Si0 1.643099 1_556
O8 Si2 1.628066 1_555
O9 Si0 1.643099 1_565
O10 Si0 1.643099 1_655
O11 Si1 1.652062 1_554
O12 Si1 1.652062 1_455
O13 Si0 1.632742 1_555
O14 Si2 1.649937 1_656
