# generated using pymatgen
data_Rb2LiNbS4
_symmetry_space_group_name_H-M   'P 1'
_cell_length_a   7.18801600
_cell_length_b   11.56855368
_cell_length_c   12.07045779
_cell_angle_alpha   71.52783038
_cell_angle_beta   87.68498852
_cell_angle_gamma   83.71963324
_symmetry_Int_Tables_number   1
_chemical_formula_structural   Rb2LiNbS4
_chemical_formula_sum   'Rb8 Li4 Nb4 S16'
_cell_volume   946.27344433
_cell_formula_units_Z   4
loop_
 _symmetry_equiv_pos_site_id
 _symmetry_equiv_pos_as_xyz
  1  'x, y, z'
loop_
 _atom_site_type_symbol
 _atom_site_label
 _atom_site_symmetry_multiplicity
 _atom_site_fract_x
 _atom_site_fract_y
 _atom_site_fract_z
 _atom_site_occupancy
  Rb  Rb0  1  0.26388400  0.37607900  0.27668800  1
  Rb  Rb1  1  0.73611600  0.62392100  0.72331200  1
  Rb  Rb2  1  0.75207500  0.15461000  0.85728000  1
  Rb  Rb3  1  0.75148000  0.65037700  0.34918900  1
  Rb  Rb4  1  0.24792500  0.84539000  0.14272000  1
  Rb  Rb5  1  0.68438000  0.09728000  0.24961500  1
  Rb  Rb6  1  0.31562000  0.90272000  0.75038500  1
  Rb  Rb7  1  0.24852000  0.34962300  0.65081100  1
  Li  Li0  1  0.17678400  0.01130300  0.41529800  1
  Li  Li1  1  0.77821000  0.47818800  0.07093900  1
  Li  Li2  1  0.82321600  0.98869700  0.58470200  1
  Li  Li3  1  0.22179000  0.52181200  0.92906100  1
  Nb  Nb0  1  0.21776000  0.23082900  0.01435900  1
  Nb  Nb1  1  0.78224000  0.76917100  0.98564100  1
  Nb  Nb2  1  0.77568500  0.27261400  0.48558500  1
  Nb  Nb3  1  0.22431500  0.72738600  0.51441500  1
  S  S0  1  0.76196700  0.37878800  0.28969200  1
  S  S1  1  0.25273000  0.59973000  0.40293100  1
  S  S2  1  0.74727000  0.40027000  0.59706900  1
  S  S3  1  0.94713000  0.85345700  0.46774300  1
  S  S4  1  0.23803300  0.62121200  0.71030800  1
  S  S5  1  0.54552600  0.14375300  0.53142800  1
  S  S6  1  0.03194700  0.62631500  0.05969000  1
  S  S7  1  0.73215000  0.89463800  0.09905400  1
  S  S8  1  0.53196500  0.65992700  0.99421700  1
  S  S9  1  0.96805300  0.37368500  0.94031000  1
  S  S10  1  0.05287000  0.14654300  0.53225700  1
  S  S11  1  0.17084500  0.11752200  0.20532800  1
  S  S12  1  0.45447400  0.85624700  0.46857200  1
  S  S13  1  0.26785000  0.10536200  0.90094600  1
  S  S14  1  0.46803500  0.34007300  0.00578300  1
  S  S15  1  0.82915500  0.88247800  0.79467200  1
loop_
_geom_bond_atom_site_label_1
_geom_bond_atom_site_label_2
_geom_bond_distance
_geom_bond_site_symmetry_2
Rb0 S1 3.386113 1_555
Rb0 S11 3.500408 1_555
Rb0 S6 3.537262 1_555
Rb0 S0 3.593984 1_555
Rb0 S0 3.601997 1_455
Rb0 S14 3.655294 1_555
Rb0 S10 3.765675 1_555
Rb0 S5 3.853845 1_555
Rb1 S2 3.386113 1_555
Rb1 S15 3.500408 1_555
Rb1 S9 3.537262 1_555
Rb1 S4 3.593984 1_555
Rb1 S4 3.601997 1_655
Rb1 S8 3.655294 1_555
Rb1 S3 3.765675 1_555
Rb1 S12 3.853845 1_555
Rb2 S15 3.446915 1_545
Rb2 S7 3.475754 1_546
Rb2 S2 3.503386 1_555
Rb2 S9 3.526145 1_555
Rb2 S13 3.579448 1_555
Rb2 S14 3.628759 1_556
Rb2 S13 3.721915 1_655
Rb3 S7 3.414907 1_555
Rb3 S0 3.430242 1_555
Rb3 S2 3.442488 1_555
Rb3 S3 3.544122 1_555
Rb3 S12 3.622176 1_555
Rb3 S1 3.637547 1_655
Rb3 S1 3.694228 1_555
Rb4 S11 3.446915 1_565
Rb4 S13 3.475754 1_564
Rb4 S1 3.503386 1_555
Rb4 S6 3.526145 1_555
Rb4 S7 3.579448 1_555
Rb4 S8 3.628759 1_554
Rb4 S7 3.721915 1_455
Rb5 S7 3.374827 1_545
Rb5 S11 3.537859 1_655
Rb5 S0 3.545167 1_555
Rb5 S3 3.603536 1_545
Rb5 S14 3.625647 1_555
Rb5 S12 3.671038 1_545
Rb5 S5 3.690987 1_555
Rb5 S11 3.722532 1_555
Rb6 S13 3.374827 1_565
Rb6 S15 3.537859 1_455
Rb6 S4 3.545167 1_555
Rb6 S10 3.603536 1_565
Rb6 S8 3.625647 1_555
Rb6 S5 3.671038 1_565
Rb6 S12 3.690987 1_555
Rb6 S15 3.722532 1_555
Rb7 S13 3.414907 1_555
Rb7 S4 3.430242 1_555
Rb7 S1 3.442488 1_555
Rb7 S10 3.544122 1_555
Rb7 S5 3.622176 1_555
Rb7 S2 3.637547 1_455
Rb7 S2 3.694228 1_555
Li0 S11 2.441084 1_555
Li0 S12 2.490923 1_545
Li0 S10 2.495457 1_555
Li0 S3 2.510530 1_445
Li1 S0 2.527511 1_555
Li1 S9 2.546174 1_554
Li1 S8 2.548589 1_554
Li1 S6 2.607249 1_655
Li2 S15 2.441084 1_555
Li2 S5 2.490923 1_565
Li2 S3 2.495457 1_555
Li2 S10 2.510530 1_665
Li3 S4 2.527511 1_555
Li3 S6 2.546174 1_556
Li3 S14 2.548589 1_556
Li3 S9 2.607249 1_455
Nb0 S13 2.283724 1_554
Nb0 S14 2.289913 1_555
Nb0 S11 2.294460 1_555
Nb0 S9 2.301375 1_454
Nb1 S7 2.283724 1_556
Nb1 S8 2.289913 1_555
Nb1 S15 2.294460 1_555
Nb1 S6 2.301375 1_656
Nb2 S2 2.281351 1_555
Nb2 S5 2.282188 1_555
Nb2 S0 2.293745 1_555
Nb2 S10 2.312667 1_655
Nb3 S1 2.281351 1_555
Nb3 S12 2.282188 1_555
Nb3 S4 2.293745 1_555
Nb3 S3 2.312667 1_455
