# generated using pymatgen
data_Mg10B16Ir19
_symmetry_space_group_name_H-M   'P 1'
_cell_length_a   9.16796945
_cell_length_b   9.16797030
_cell_length_c   9.16798020
_cell_angle_alpha   109.47160671
_cell_angle_beta   109.47153274
_cell_angle_gamma   109.47157466
_symmetry_Int_Tables_number   1
_chemical_formula_structural   Mg10B16Ir19
_chemical_formula_sum   'Mg10 B16 Ir19'
_cell_volume   593.18818419
_cell_formula_units_Z   1
loop_
 _symmetry_equiv_pos_site_id
 _symmetry_equiv_pos_as_xyz
  1  'x, y, z'
loop_
 _atom_site_type_symbol
 _atom_site_label
 _atom_site_symmetry_multiplicity
 _atom_site_fract_x
 _atom_site_fract_y
 _atom_site_fract_z
 _atom_site_occupancy
  Mg  Mg0  1  0.34723703  0.34724231  -0.00006452  1
  Mg  Mg1  1  -0.00002887  -0.00003338  0.33361265  1
  Mg  Mg2  1  -0.00007065  0.34723864  0.34722818  1
  Mg  Mg3  1  0.65275637  0.65275626  0.00002731  1
  Mg  Mg4  1  0.66657707  0.66657964  0.66658427  1
  Mg  Mg5  1  -0.00002514  0.33364653  -0.00001945  1
  Mg  Mg6  1  0.00003562  0.65275318  0.65276254  1
  Mg  Mg7  1  0.33363086  -0.00003482  -0.00002594  1
  Mg  Mg8  1  0.65274615  0.00002712  0.65275704  1
  Mg  Mg9  1  0.34722701  0.99991535  0.34722326  1
  B  B0  1  -0.00000249  0.75170877  0.42442115  1
  B  B1  1  0.32727870  0.57557447  0.57557451  1
  B  B2  1  -0.00000244  0.42442517  0.75171203  1
  B  B3  1  -0.00000333  0.77737475  -0.00000281  1
  B  B4  1  0.22261108  0.22260961  0.22261180  1
  B  B5  1  0.24827730  0.67270930  0.24827769  1
  B  B6  1  0.42442374  -0.00000345  0.75171082  1
  B  B7  1  0.42442205  0.75170998  -0.00000233  1
  B  B8  1  0.77737493  -0.00000477  -0.00000384  1
  B  B9  1  0.24827856  0.24827913  0.67271125  1
  B  B10  1  0.57557547  0.32727956  0.57557584  1
  B  B11  1  -0.00000403  -0.00000467  0.77737655  1
  B  B12  1  0.75170865  -0.00000349  0.42442121  1
  B  B13  1  0.57557278  0.57557289  0.32727808  1
  B  B14  1  0.67271080  0.24827787  0.24827771  1
  B  B15  1  0.75171108  0.42442336  -0.00000246  1
  Ir  Ir0  1  0.67849020  -0.00000815  0.18224052  1
  Ir  Ir1  1  -0.00000229  0.18225163  0.67850121  1
  Ir  Ir2  1  0.50001154  0.24999207  0.75002142  1
  Ir  Ir3  1  0.50376720  0.32148984  0.32148946  1
  Ir  Ir4  1  0.67849816  0.18224583  -0.00000361  1
  Ir  Ir5  1  0.81775650  0.81775686  0.49623067  1
  Ir  Ir6  1  -0.00000104  0.67849266  0.18224240  1
  Ir  Ir7  1  0.49623300  0.81776139  0.81776116  1
  Ir  Ir8  1  0.18224434  0.67849646  -0.00000148  1
  Ir  Ir9  1  0.32148657  0.50376961  0.32148781  1
  Ir  Ir10  1  0.49999625  0.75001415  0.24998339  1
  Ir  Ir11  1  0.18224872  -0.00000785  0.67849619  1
  Ir  Ir12  1  0.75001974  0.50000311  0.24998408  1
  Ir  Ir13  1  0.32149289  0.32149404  0.50376960  1
  Ir  Ir14  1  0.24998864  0.75001336  0.50000039  1
  Ir  Ir15  1  0.81776725  0.49623817  0.81776751  1
  Ir  Ir16  1  0.75001634  0.24999029  0.50000510  1
  Ir  Ir17  1  -0.00002352  -0.00002521  -0.00002046  1
  Ir  Ir18  1  0.24999119  0.50001343  0.75002309  1
loop_
_geom_bond_atom_site_label_1
_geom_bond_atom_site_label_2
_geom_bond_distance
_geom_bond_site_symmetry_2
B0 Ir6 2.094443 1_555
B0 Ir14 2.169196 1_555
B0 Ir12 2.169199 1_455
B0 Ir5 2.175687 1_455
B0 Ir11 2.175737 1_565
B0 Mg6 2.543891 1_555
B0 Mg1 2.671492 1_565
B1 Ir7 2.094473 1_555
B1 Ir14 2.169485 1_555
B1 Ir18 2.169505 1_555
B1 Ir13 2.175848 1_555
B1 Ir9 2.175880 1_555
B1 Mg2 2.544203 1_555
B1 Mg4 2.672808 1_555
B2 Ir1 2.094391 1_555
B2 Ir18 2.169187 1_555
B2 Ir16 2.169220 1_455
B2 Ir15 2.175637 1_455
B2 Ir8 2.175731 1_556
B2 Mg6 2.543739 1_555
B2 Mg5 2.671419 1_556
B3 Ir17 2.040906 1_565
B3 Ir15 2.150167 1_454
B3 Ir8 2.150174 1_555
B3 Ir6 2.150178 1_555
B4 Ir17 2.041066 1_555
B4 Ir3 2.150409 1_555
B4 Ir13 2.150416 1_555
B4 Ir9 2.150448 1_555
B5 Ir9 2.094190 1_555
B5 Ir10 2.169427 1_555
B5 Ir14 2.169438 1_555
B5 Ir6 2.175686 1_555
B5 Ir8 2.175714 1_555
B5 Mg9 2.543161 1_555
B5 Mg5 2.671521 1_555
B6 Ir11 2.094385 1_555
B6 Ir2 2.169206 1_555
B6 Ir14 2.169242 1_545
B6 Ir7 2.175645 1_545
B6 Ir4 2.175743 1_556
B6 Mg8 2.543725 1_555
B6 Mg7 2.671463 1_556
B7 Ir8 2.094430 1_555
B7 Ir18 2.169146 1_554
B7 Ir10 2.169154 1_555
B7 Ir7 2.175669 1_554
B7 Ir0 2.175696 1_565
B7 Mg3 2.543829 1_555
B7 Mg7 2.671369 1_565
B8 Ir17 2.040917 1_655
B8 Ir4 2.150190 1_555
B8 Ir0 2.150192 1_555
B8 Ir7 2.150212 1_544
B9 Ir13 2.094249 1_555
B9 Ir2 2.169518 1_555
B9 Ir18 2.169529 1_555
B9 Ir1 2.175740 1_555
B9 Ir11 2.175772 1_555
B9 Mg0 2.543284 1_556
B9 Mg1 2.671752 1_555
B10 Ir15 2.094516 1_555
B10 Ir16 2.169484 1_555
B10 Ir2 2.169491 1_555
B10 Ir13 2.175867 1_555
B10 Ir3 2.175886 1_555
B10 Mg9 2.544315 1_545
B10 Mg4 2.672830 1_555
B11 Ir17 2.040942 1_556
B11 Ir1 2.150229 1_555
B11 Ir11 2.150235 1_555
B11 Ir5 2.150248 1_445
B12 Ir0 2.094434 1_555
B12 Ir16 2.169204 1_555
B12 Ir10 2.169247 1_545
B12 Ir5 2.175675 1_545
B12 Ir1 2.175784 1_655
B12 Mg8 2.543893 1_555
B12 Mg1 2.671538 1_655
B13 Ir5 2.094447 1_555
B13 Ir10 2.169536 1_555
B13 Ir12 2.169553 1_555
B13 Ir3 2.175859 1_555
B13 Ir9 2.175882 1_555
B13 Mg0 2.544143 1_555
B13 Mg4 2.672886 1_555
B14 Ir3 2.094241 1_555
B14 Ir16 2.169475 1_555
B14 Ir12 2.169478 1_555
B14 Ir4 2.175733 1_555
B14 Ir0 2.175735 1_555
B14 Mg2 2.543247 1_655
B14 Mg7 2.671643 1_555
B15 Ir4 2.094421 1_555
B15 Ir12 2.169140 1_555
B15 Ir2 2.169166 1_554
B15 Ir15 2.175647 1_554
B15 Ir6 2.175726 1_655
B15 Mg3 2.543822 1_555
B15 Mg5 2.671355 1_655
Ir0 Mg1 2.808286 1_655
Ir1 Mg5 2.808293 1_556
Ir3 Mg7 2.808471 1_555
Ir4 Mg5 2.808244 1_655
Ir5 Mg4 2.808338 1_555
Ir6 Mg1 2.808237 1_565
Ir7 Mg4 2.808269 1_555
Ir8 Mg7 2.808201 1_565
Ir9 Mg5 2.808390 1_555
Ir11 Mg7 2.808285 1_556
Ir13 Mg1 2.808485 1_555
Ir15 Mg4 2.808319 1_555
