# generated using pymatgen
data_La3CuSnSe7
_symmetry_space_group_name_H-M   'P 1'
_cell_length_a   10.77975770
_cell_length_b   10.77975770
_cell_length_c   6.34984319
_cell_angle_alpha   90.00000000
_cell_angle_beta   90.00000000
_cell_angle_gamma   119.99999814
_symmetry_Int_Tables_number   1
_chemical_formula_structural   La3CuSnSe7
_chemical_formula_sum   'La6 Cu2 Sn2 Se14'
_cell_volume   639.01586181
_cell_formula_units_Z   2
loop_
 _symmetry_equiv_pos_site_id
 _symmetry_equiv_pos_as_xyz
  1  'x, y, z'
loop_
 _atom_site_type_symbol
 _atom_site_label
 _atom_site_symmetry_multiplicity
 _atom_site_fract_x
 _atom_site_fract_y
 _atom_site_fract_z
 _atom_site_occupancy
  La  La0  1  0.13483217  0.77948934  0.96327540  1
  La  La1  1  0.35534284  0.13483217  0.46327540  1
  La  La2  1  0.86516783  0.22051066  0.46327540  1
  La  La3  1  0.22051066  0.35534284  0.96327540  1
  La  La4  1  0.77948934  0.64465716  0.46327540  1
  La  La5  1  0.64465716  0.86516783  0.96327540  1
  Cu  Cu0  1  0.00000000  0.00000000  0.49854456  1
  Cu  Cu1  1  0.00000000  0.00000000  0.99854456  1
  Sn  Sn0  1  0.33333300  0.66666700  0.38325829  1
  Sn  Sn1  1  0.66666700  0.33333300  0.88325829  1
  Se  Se0  1  0.74793089  0.90271629  0.48810032  1
  Se  Se1  1  0.25206911  0.09728371  0.98810032  1
  Se  Se2  1  0.42747450  0.91219396  0.21683241  1
  Se  Se3  1  0.84521460  0.74793089  0.98810032  1
  Se  Se4  1  0.66666700  0.33333300  0.27567373  1
  Se  Se5  1  0.48471946  0.57252550  0.21683241  1
  Se  Se6  1  0.51528054  0.42747450  0.71683241  1
  Se  Se7  1  0.90271629  0.15478540  0.98810032  1
  Se  Se8  1  0.57252550  0.08780604  0.71683241  1
  Se  Se9  1  0.08780604  0.51528054  0.21683241  1
  Se  Se10  1  0.91219396  0.48471946  0.71683241  1
  Se  Se11  1  0.15478540  0.25206911  0.48810032  1
  Se  Se12  1  0.33333300  0.66666700  0.77567373  1
  Se  Se13  1  0.09728371  0.84521460  0.48810032  1
loop_
_geom_bond_atom_site_label_1
_geom_bond_atom_site_label_2
_geom_bond_distance
_geom_bond_site_symmetry_2
La0 Se3 2.970762 1_455
La0 Se1 3.004718 1_565
La0 Se9 3.084988 1_556
La0 Se13 3.171215 1_555
La0 Se2 3.174506 1_556
La0 Se12 3.174792 1_555
La0 Se10 3.267951 1_455
La0 Se13 3.472537 1_556
La1 Se13 2.970762 1_545
La1 Se11 3.004718 1_555
La1 Se8 3.084988 1_555
La1 Se1 3.171215 1_554
La1 Se6 3.174506 1_555
La1 Se4 3.174800 1_555
La1 Se2 3.267951 1_545
La1 Se1 3.472537 1_555
La2 Se11 2.970762 1_655
La2 Se0 3.004718 1_545
La2 Se10 3.084988 1_555
La2 Se7 3.171215 1_554
La2 Se8 3.174506 1_555
La2 Se4 3.174792 1_555
La2 Se9 3.267951 1_655
La2 Se7 3.472537 1_555
La3 Se1 2.970762 1_555
La3 Se7 3.004718 1_455
La3 Se5 3.084988 1_556
La3 Se11 3.171215 1_555
La3 Se9 3.174506 1_556
La3 Se12 3.174801 1_555
La3 Se6 3.267951 1_555
La3 Se11 3.472537 1_556
La4 Se0 2.970762 1_555
La4 Se13 3.004718 1_655
La4 Se6 3.084988 1_555
La4 Se3 3.171215 1_554
La4 Se10 3.174506 1_555
La4 Se4 3.174801 1_555
La4 Se5 3.267951 1_555
La4 Se3 3.472537 1_555
La5 Se7 2.970762 1_565
La5 Se3 3.004718 1_555
La5 Se2 3.084988 1_556
La5 Se0 3.171215 1_555
La5 Se5 3.174506 1_556
La5 Se12 3.174800 1_555
La5 Se8 3.267951 1_565
La5 Se0 3.472537 1_556
Cu0 Se13 2.374450 1_545
Cu0 Se0 2.374450 1_445
Cu0 Se11 2.374450 1_555
Cu1 Se7 2.374450 1_455
Cu1 Se1 2.374450 1_555
Cu1 Se3 2.374450 1_445
Se2 Sn0 2.542799 1_555
Se4 Sn1 2.491777 1_554
Se5 Sn0 2.542808 1_555
Se6 Sn1 2.542808 1_555
Se8 Sn1 2.542799 1_555
Se9 Sn0 2.542800 1_555
Se10 Sn1 2.542800 1_555
Se12 Sn0 2.491777 1_555
