# generated using pymatgen
data_Cu3WO6
_symmetry_space_group_name_H-M   'P 1'
_cell_length_a   9.91842600
_cell_length_b   9.91842600
_cell_length_c   9.91842600
_cell_angle_alpha   90.00000000
_cell_angle_beta   90.00000000
_cell_angle_gamma   90.00000000
_symmetry_Int_Tables_number   1
_chemical_formula_structural   Cu3WO6
_chemical_formula_sum   'Cu24 W8 O48'
_cell_volume   975.72688670
_cell_formula_units_Z   8
loop_
 _symmetry_equiv_pos_site_id
 _symmetry_equiv_pos_as_xyz
  1  'x, y, z'
loop_
 _atom_site_type_symbol
 _atom_site_label
 _atom_site_symmetry_multiplicity
 _atom_site_fract_x
 _atom_site_fract_y
 _atom_site_fract_z
 _atom_site_occupancy
  Cu  Cu0  1  0.59495700  0.74340300  0.36403700  1
  Cu  Cu1  1  0.63596300  0.09495700  0.75659700  1
  Cu  Cu2  1  0.36403700  0.59495700  0.74340300  1
  Cu  Cu3  1  0.25659700  0.63596300  0.40504300  1
  Cu  Cu4  1  0.40504300  0.24340300  0.13596300  1
  Cu  Cu5  1  0.86403700  0.59495700  0.75659700  1
  Cu  Cu6  1  0.25659700  0.86403700  0.90504300  1
  Cu  Cu7  1  0.90504300  0.24340300  0.36403700  1
  Cu  Cu8  1  0.24340300  0.13596300  0.40504300  1
  Cu  Cu9  1  0.24340300  0.36403700  0.90504300  1
  Cu  Cu10  1  0.75659700  0.86403700  0.59495700  1
  Cu  Cu11  1  0.13596300  0.40504300  0.24340300  1
  Cu  Cu12  1  0.86403700  0.90504300  0.25659700  1
  Cu  Cu13  1  0.59495700  0.75659700  0.86403700  1
  Cu  Cu14  1  0.36403700  0.90504300  0.24340300  1
  Cu  Cu15  1  0.74340300  0.36403700  0.59495700  1
  Cu  Cu16  1  0.63596300  0.40504300  0.25659700  1
  Cu  Cu17  1  0.09495700  0.75659700  0.63596300  1
  Cu  Cu18  1  0.40504300  0.25659700  0.63596300  1
  Cu  Cu19  1  0.09495700  0.74340300  0.13596300  1
  Cu  Cu20  1  0.75659700  0.63596300  0.09495700  1
  Cu  Cu21  1  0.13596300  0.09495700  0.74340300  1
  Cu  Cu22  1  0.74340300  0.13596300  0.09495700  1
  Cu  Cu23  1  0.90504300  0.25659700  0.86403700  1
  W  W0  1  0.61701100  0.11701100  0.38298900  1
  W  W1  1  0.88298900  0.61701100  0.38298900  1
  W  W2  1  0.11701100  0.38298900  0.61701100  1
  W  W3  1  0.11701100  0.11701100  0.11701100  1
  W  W4  1  0.38298900  0.88298900  0.61701100  1
  W  W5  1  0.61701100  0.38298900  0.88298900  1
  W  W6  1  0.88298900  0.88298900  0.88298900  1
  W  W7  1  0.38298900  0.61701100  0.11701100  1
  O  O0  1  0.94724400  0.46270100  0.30286200  1
  O  O1  1  0.44724400  0.03729900  0.69713800  1
  O  O2  1  0.55275600  0.53729900  0.80286200  1
  O  O3  1  0.90820600  0.72109900  0.19568300  1
  O  O4  1  0.46270100  0.19713800  0.44724400  1
  O  O5  1  0.44724400  0.46270100  0.19713800  1
  O  O6  1  0.69713800  0.44724400  0.03729900  1
  O  O7  1  0.80431700  0.09179400  0.27890100  1
  O  O8  1  0.40820600  0.77890100  0.80431700  1
  O  O9  1  0.96270100  0.19713800  0.05275600  1
  O  O10  1  0.55275600  0.96270100  0.30286200  1
  O  O11  1  0.80431700  0.40820600  0.77890100  1
  O  O12  1  0.69568300  0.90820600  0.77890100  1
  O  O13  1  0.94724400  0.03729900  0.80286200  1
  O  O14  1  0.09179400  0.22109900  0.30431700  1
  O  O15  1  0.19568300  0.90820600  0.72109900  1
  O  O16  1  0.46270100  0.30286200  0.94724400  1
  O  O17  1  0.40820600  0.72109900  0.30431700  1
  O  O18  1  0.53729900  0.69713800  0.05275600  1
  O  O19  1  0.03729900  0.80286200  0.94724400  1
  O  O20  1  0.19713800  0.05275600  0.96270100  1
  O  O21  1  0.69713800  0.05275600  0.53729900  1
  O  O22  1  0.22109900  0.30431700  0.09179400  1
  O  O23  1  0.53729900  0.80286200  0.55275600  1
  O  O24  1  0.19713800  0.44724400  0.46270100  1
  O  O25  1  0.59179400  0.22109900  0.19568300  1
  O  O26  1  0.27890100  0.69568300  0.59179400  1
  O  O27  1  0.09179400  0.27890100  0.80431700  1
  O  O28  1  0.69568300  0.59179400  0.27890100  1
  O  O29  1  0.77890100  0.69568300  0.90820600  1
  O  O30  1  0.72109900  0.30431700  0.40820600  1
  O  O31  1  0.05275600  0.53729900  0.69713800  1
  O  O32  1  0.05275600  0.96270100  0.19713800  1
  O  O33  1  0.77890100  0.80431700  0.40820600  1
  O  O34  1  0.90820600  0.77890100  0.69568300  1
  O  O35  1  0.27890100  0.80431700  0.09179400  1
  O  O36  1  0.30431700  0.09179400  0.22109900  1
  O  O37  1  0.80286200  0.55275600  0.53729900  1
  O  O38  1  0.30286200  0.55275600  0.96270100  1
  O  O39  1  0.30286200  0.94724400  0.46270100  1
  O  O40  1  0.03729900  0.69713800  0.44724400  1
  O  O41  1  0.96270100  0.30286200  0.55275600  1
  O  O42  1  0.22109900  0.19568300  0.59179400  1
  O  O43  1  0.30431700  0.40820600  0.72109900  1
  O  O44  1  0.19568300  0.59179400  0.22109900  1
  O  O45  1  0.59179400  0.27890100  0.69568300  1
  O  O46  1  0.80286200  0.94724400  0.03729900  1
  O  O47  1  0.72109900  0.19568300  0.90820600  1
loop_
_geom_bond_atom_site_label_1
_geom_bond_atom_site_label_2
_geom_bond_distance
_geom_bond_site_symmetry_2
Cu0 O17 1.957222 1_555
Cu0 O33 1.971169 1_555
Cu0 O28 1.993065 1_555
Cu0 O23 2.044127 1_555
Cu0 O10 2.296601 1_555
Cu1 O12 1.957222 1_545
Cu1 O45 1.971169 1_555
Cu1 O47 1.993065 1_555
Cu1 O1 2.044127 1_555
Cu1 O21 2.296601 1_555
Cu2 O43 1.957222 1_555
Cu2 O8 1.971169 1_555
Cu2 O26 1.993065 1_555
Cu2 O2 2.044127 1_555
Cu2 O38 2.296601 1_555
Cu3 O26 1.957222 1_555
Cu3 O44 1.971169 1_555
Cu3 O17 1.993065 1_555
Cu3 O24 2.044127 1_555
Cu3 O40 2.296601 1_555
Cu4 O25 1.957222 1_555
Cu4 O22 1.971169 1_555
Cu4 O36 1.993065 1_555
Cu4 O16 2.044127 1_554
Cu4 O5 2.296601 1_555
Cu5 O11 1.957222 1_555
Cu5 O34 1.971169 1_555
Cu5 O29 1.993065 1_555
Cu5 O31 2.044127 1_655
Cu5 O37 2.296601 1_555
Cu6 O35 1.957222 1_556
Cu6 O15 1.971169 1_555
Cu6 O8 1.993065 1_555
Cu6 O20 2.044127 1_565
Cu6 O19 2.296601 1_555
Cu7 O14 1.957222 1_655
Cu7 O30 1.971169 1_555
Cu7 O7 1.993065 1_555
Cu7 O41 2.044127 1_555
Cu7 O0 2.296601 1_555
Cu8 O42 1.957222 1_555
Cu8 O36 1.971169 1_555
Cu8 O14 1.993065 1_555
Cu8 O39 2.044127 1_545
Cu8 O4 2.296601 1_555
Cu9 O22 1.957222 1_556
Cu9 O43 1.971169 1_555
Cu9 O27 1.993065 1_555
Cu9 O38 2.044127 1_555
Cu9 O16 2.296601 1_555
Cu10 O33 1.957222 1_555
Cu10 O12 1.971169 1_555
Cu10 O34 1.993065 1_555
Cu10 O21 2.044127 1_565
Cu10 O23 2.296601 1_555
Cu11 O44 1.957222 1_555
Cu11 O14 1.971169 1_555
Cu11 O22 1.993065 1_555
Cu11 O0 2.044127 1_455
Cu11 O24 2.296601 1_555
Cu12 O7 1.957222 1_565
Cu12 O3 1.971169 1_555
Cu12 O33 1.993065 1_555
Cu12 O32 2.044127 1_655
Cu12 O46 2.296601 1_555
Cu13 O8 1.957222 1_555
Cu13 O29 1.971169 1_555
Cu13 O12 1.993065 1_555
Cu13 O18 2.044127 1_556
Cu13 O2 2.296601 1_555
Cu14 O36 1.957222 1_565
Cu14 O17 1.971169 1_555
Cu14 O35 1.993065 1_555
Cu14 O10 2.044127 1_555
Cu14 O39 2.296601 1_555
Cu15 O30 1.957222 1_555
Cu15 O11 1.971169 1_555
Cu15 O45 1.993065 1_555
Cu15 O37 2.044127 1_555
Cu15 O41 2.296601 1_555
Cu16 O28 1.957222 1_555
Cu16 O25 1.971169 1_555
Cu16 O30 1.993065 1_555
Cu16 O5 2.044127 1_555
Cu16 O6 2.296601 1_555
Cu17 O34 1.957222 1_455
Cu17 O26 1.971169 1_555
Cu17 O15 1.993065 1_555
Cu17 O40 2.044127 1_555
Cu17 O31 2.296601 1_555
Cu18 O45 1.957222 1_555
Cu18 O42 1.971169 1_555
Cu18 O43 1.993065 1_555
Cu18 O4 2.044127 1_555
Cu18 O1 2.296601 1_555
Cu19 O3 1.957222 1_455
Cu19 O35 1.971169 1_555
Cu19 O44 1.993065 1_555
Cu19 O19 2.044127 1_554
Cu19 O32 2.296601 1_555
Cu20 O29 1.957222 1_554
Cu20 O28 1.971169 1_555
Cu20 O3 1.993065 1_555
Cu20 O6 2.044127 1_555
Cu20 O18 2.296601 1_555
Cu21 O15 1.957222 1_545
Cu21 O27 1.971169 1_555
Cu21 O42 1.993065 1_555
Cu21 O13 2.044127 1_455
Cu21 O20 2.296601 1_555
Cu22 O47 1.957222 1_554
Cu22 O7 1.971169 1_555
Cu22 O25 1.993065 1_555
Cu22 O46 2.044127 1_545
Cu22 O9 2.296601 1_555
Cu23 O27 1.957222 1_655
Cu23 O47 1.971169 1_555
Cu23 O11 1.993065 1_555
Cu23 O9 2.044127 1_556
Cu23 O13 2.296601 1_555
O0 W1 1.838541 1_555
O1 W4 1.838541 1_545
O2 W5 1.838541 1_555
O3 W1 2.140031 1_555
O4 W0 1.838541 1_555
O5 W7 1.838541 1_555
O6 W5 1.838541 1_554
O7 W0 2.140031 1_555
O8 W4 2.140031 1_555
O9 W3 1.838541 1_655
O10 W0 1.838541 1_565
O11 W5 2.140031 1_555
O12 W6 2.140031 1_555
O13 W6 1.838541 1_545
O14 W3 2.140031 1_555
O15 W4 2.140031 1_555
O16 W5 1.838541 1_555
O17 W7 2.140031 1_555
O18 W7 1.838541 1_555
O19 W6 1.838541 1_455
O20 W3 1.838541 1_556
O21 W0 1.838541 1_555
O22 W3 2.140031 1_555
O23 W4 1.838541 1_555
O24 W2 1.838541 1_555
O25 W0 2.140031 1_555
O26 W4 2.140031 1_555
O27 W2 2.140031 1_555
O28 W1 2.140031 1_555
O29 W6 2.140031 1_555
O30 W0 2.140031 1_555
O31 W2 1.838541 1_555
O32 W3 1.838541 1_565
O33 W1 2.140031 1_555
O34 W6 2.140031 1_555
O35 W7 2.140031 1_555
O36 W3 2.140031 1_555
O37 W1 1.838541 1_555
O38 W7 1.838541 1_556
O39 W4 1.838541 1_555
O40 W1 1.838541 1_455
O41 W2 1.838541 1_655
O42 W2 2.140031 1_555
O43 W2 2.140031 1_555
O44 W7 2.140031 1_555
O45 W5 2.140031 1_555
O46 W6 1.838541 1_554
O47 W5 2.140031 1_555
