# generated using pymatgen
data_Cr3IrN
_symmetry_space_group_name_H-M   'P 1'
_cell_length_a   3.89412981
_cell_length_b   3.87556191
_cell_length_c   3.87562293
_cell_angle_alpha   90.00000000
_cell_angle_beta   90.00000000
_cell_angle_gamma   90.00000000
_symmetry_Int_Tables_number   1
_chemical_formula_structural   Cr3IrN
_chemical_formula_sum   'Cr3 Ir1 N1'
_cell_volume   58.49067323
_cell_formula_units_Z   1
loop_
 _symmetry_equiv_pos_site_id
 _symmetry_equiv_pos_as_xyz
  1  'x, y, z'
loop_
 _atom_site_type_symbol
 _atom_site_label
 _atom_site_symmetry_multiplicity
 _atom_site_fract_x
 _atom_site_fract_y
 _atom_site_fract_z
 _atom_site_occupancy
  Cr  Cr0  1  -0.00000000  0.50000000  0.50000000  1
  Cr  Cr1  1  0.50000000  0.00000000  0.50000000  1
  Cr  Cr2  1  0.50000000  0.50000000  -0.00000000  1
  Ir  Ir0  1  0.00000000  0.00000000  0.00000000  1
  N  N0  1  0.50000000  0.50000000  0.50000000  1
loop_
_geom_bond_atom_site_label_1
_geom_bond_atom_site_label_2
_geom_bond_distance
_geom_bond_site_symmetry_2
Cr0 N0 1.947065 1_555
Cr0 N0 1.947065 1_455
Cr0 Ir0 2.740458 1_565
Cr0 Ir0 2.740458 1_566
Cr0 Ir0 2.740458 1_555
Cr0 Ir0 2.740458 1_556
Cr1 N0 1.937781 1_555
Cr1 N0 1.937781 1_545
Cr1 Ir0 2.747030 1_556
Cr1 Ir0 2.747030 1_656
Cr1 Ir0 2.747030 1_655
Cr1 Ir0 2.747030 1_555
Cr2 N0 1.937811 1_554
Cr2 N0 1.937811 1_555
Cr2 Ir0 2.747009 1_665
Cr2 Ir0 2.747009 1_655
Cr2 Ir0 2.747009 1_555
Cr2 Ir0 2.747009 1_565
