# generated using pymatgen
data_K5Nb(CN)8
_symmetry_space_group_name_H-M   'P 1'
_cell_length_a   8.04445556
_cell_length_b   8.04445556
_cell_length_c   8.04445556
_cell_angle_alpha   109.05042128
_cell_angle_beta   109.05042128
_cell_angle_gamma   110.31613759
_symmetry_Int_Tables_number   1
_chemical_formula_structural   K5Nb(CN)8
_chemical_formula_sum   'K5 Nb1 C8 N8'
_cell_volume   400.67949851
_cell_formula_units_Z   1
loop_
 _symmetry_equiv_pos_site_id
 _symmetry_equiv_pos_as_xyz
  1  'x, y, z'
loop_
 _atom_site_type_symbol
 _atom_site_label
 _atom_site_symmetry_multiplicity
 _atom_site_fract_x
 _atom_site_fract_y
 _atom_site_fract_z
 _atom_site_occupancy
  K  K0  1  0.87349700  0.47830700  0.14455200  1
  K  K1  1  0.52169300  0.66624500  0.39519000  1
  K  K2  1  0.33375500  0.72894400  0.85544800  1
  K  K3  1  0.27105600  0.12650300  0.60481000  1
  K  K4  1  0.75000000  0.25000000  0.50000000  1
  Nb  Nb0  1  0.00000000  0.00000000  0.00000000  1
  C  C0  1  0.83184600  0.93366400  0.16787800  1
  C  C1  1  0.71916600  0.00693900  0.84088500  1
  C  C2  1  0.76578500  0.66396700  0.83212200  1
  C  C3  1  0.12171900  0.28083400  0.28777300  1
  C  C4  1  0.06633600  0.23421500  0.89818200  1
  C  C5  1  0.99306100  0.83394600  0.71222700  1
  C  C6  1  0.33603300  0.16815400  0.10181800  1
  C  C7  1  0.16605400  0.87828100  0.15911500  1
  N  N0  1  0.18053500  0.42399400  0.44283900  1
  N  N1  1  0.57600600  0.01884500  0.75654100  1
  N  N2  1  0.73687400  0.89433100  0.24840700  1
  N  N3  1  0.64592300  0.48846600  0.75159300  1
  N  N4  1  0.26230400  0.81946500  0.24345900  1
  N  N5  1  0.51153400  0.26312600  0.15745700  1
  N  N6  1  0.98115500  0.73769600  0.55716100  1
  N  N7  1  0.10566900  0.35407700  0.84254300  1
loop_
_geom_bond_atom_site_label_1
_geom_bond_atom_site_label_2
_geom_bond_distance
_geom_bond_site_symmetry_2
K0 N5 2.881034 1_555
K0 N6 2.910083 1_555
K0 N4 2.989493 1_655
K0 N0 3.100678 1_655
K0 N3 3.137783 1_554
K0 N1 3.252914 1_554
K1 N2 2.881041 1_555
K1 N4 2.910083 1_555
K1 N0 2.989493 1_555
K1 N1 3.100678 1_565
K1 N5 3.137790 1_555
K1 N6 3.252914 1_555
K2 N7 2.881027 1_555
K2 N0 2.910081 1_555
K2 N1 2.989498 1_565
K2 N6 3.100683 1_455
K2 N2 3.137783 1_556
K2 N4 3.252913 1_556
K3 N3 2.881027 1_555
K3 N1 2.910077 1_555
K3 N6 2.989496 1_445
K3 N4 3.100674 1_545
K3 N7 3.137796 1_555
K3 N0 3.252916 1_555
K4 N7 2.857297 1_655
K4 N5 2.857297 1_555
K4 N2 2.857300 1_545
K4 N3 2.857302 1_555
C0 N2 1.180044 1_555
C0 Nb0 2.258350 1_665
C0 K2 3.350481 1_554
C0 K3 3.431029 1_665
C1 N1 1.185219 1_555
C1 Nb0 2.234232 1_656
C1 K1 3.119908 1_545
C1 K2 3.197023 1_545
C1 K0 3.254472 1_556
C2 N3 1.180044 1_555
C2 Nb0 2.258357 1_666
C2 K0 3.350478 1_556
C2 K1 3.431027 1_555
C3 N0 1.185219 1_555
C3 Nb0 2.234232 1_555
C3 K0 3.119908 1_455
C3 K1 3.197020 1_555
C3 K3 3.254474 1_555
C4 N7 1.180044 1_555
C4 Nb0 2.258357 1_556
C4 K3 3.350491 1_555
C4 K0 3.431020 1_456
C5 N6 1.185219 1_555
C5 Nb0 2.234232 1_666
C5 K2 3.119914 1_655
C5 K3 3.197024 1_665
C5 K1 3.254472 1_555
C6 N5 1.180044 1_555
C6 Nb0 2.258357 1_555
C6 K1 3.350484 1_555
C6 K2 3.431027 1_544
C7 N4 1.185219 1_555
C7 Nb0 2.234232 1_565
C7 K3 3.119906 1_565
C7 K0 3.197020 1_455
C7 K2 3.254474 1_554
