# generated using pymatgen
data_Ti4Te9I4O
_symmetry_space_group_name_H-M   'P 1'
_cell_length_a   11.84551749
_cell_length_b   11.84551749
_cell_length_c   19.83125159
_cell_angle_alpha   57.86058900
_cell_angle_beta   57.86058900
_cell_angle_gamma   30.98934110
_symmetry_Int_Tables_number   1
_chemical_formula_structural   Ti4Te9I4O
_chemical_formula_sum   'Ti8 Te18 I8 O2'
_cell_volume   1194.62713684
_cell_formula_units_Z   2
loop_
 _symmetry_equiv_pos_site_id
 _symmetry_equiv_pos_as_xyz
  1  'x, y, z'
loop_
 _atom_site_type_symbol
 _atom_site_label
 _atom_site_symmetry_multiplicity
 _atom_site_fract_x
 _atom_site_fract_y
 _atom_site_fract_z
 _atom_site_occupancy
  Ti  Ti0  1  0.00647874  0.12481503  0.13782946  1
  Ti  Ti1  1  0.59266604  0.25875687  0.23343771  1
  Ti  Ti2  1  0.12481503  0.00647874  0.63782946  1
  Ti  Ti3  1  0.40733396  0.74124313  0.76656229  1
  Ti  Ti4  1  0.25875687  0.59266604  0.73343771  1
  Ti  Ti5  1  0.87518497  0.99352126  0.36217054  1
  Ti  Ti6  1  0.74124313  0.40733396  0.26656229  1
  Ti  Ti7  1  0.99352126  0.87518497  0.86217054  1
  Te  Te0  1  0.69544973  0.30455027  0.75000000  1
  Te  Te1  1  0.40248528  0.65969041  0.56632035  1
  Te  Te2  1  0.80979681  0.84779790  0.32966931  1
  Te  Te3  1  0.45922503  0.20992375  0.40268851  1
  Te  Te4  1  0.06838494  0.03260911  0.87697163  1
  Te  Te5  1  0.19020319  0.15220210  0.67033069  1
  Te  Te6  1  0.59751472  0.34030959  0.43367965  1
  Te  Te7  1  0.84779790  0.80979681  0.82966931  1
  Te  Te8  1  0.15220210  0.19020319  0.17033069  1
  Te  Te9  1  0.30455027  0.69544973  0.25000000  1
  Te  Te10  1  0.96739089  0.93161506  0.62302837  1
  Te  Te11  1  0.20992375  0.45922503  0.90268851  1
  Te  Te12  1  0.65969041  0.40248528  0.06632035  1
  Te  Te13  1  0.93161506  0.96739089  0.12302837  1
  Te  Te14  1  0.79007625  0.54077497  0.09731149  1
  Te  Te15  1  0.54077497  0.79007625  0.59731149  1
  Te  Te16  1  0.03260911  0.06838494  0.37697163  1
  Te  Te17  1  0.34030959  0.59751472  0.93367965  1
  I  I0  1  0.72750497  0.60187148  0.78683577  1
  I  I1  1  0.27249503  0.39812752  0.21316423  1
  I  I2  1  0.39812852  0.27249503  0.71316423  1
  I  I3  1  0.60187248  0.72750497  0.28683577  1
  I  I4  1  0.97654011  0.31570727  0.49833870  1
  I  I5  1  0.02345989  0.68429273  0.50166130  1
  I  I6  1  0.68429273  0.02345989  0.00166130  1
  I  I7  1  0.31570727  0.97654011  0.99833870  1
  O  O0  1  0.80358955  0.19641045  0.25000000  1
  O  O1  1  0.19641045  0.80358955  0.75000000  1
loop_
_geom_bond_atom_site_label_1
_geom_bond_atom_site_label_2
_geom_bond_distance
_geom_bond_site_symmetry_2
Te0 Ti2 2.968622 1_655
Te0 Ti7 2.968622 1_545
Te0 Ti3 2.976621 1_555
Te0 Ti4 2.976621 1_555
Te1 Ti2 2.788168 1_565
Te1 Ti4 2.833230 1_555
Te2 Ti1 2.797492 1_565
Te2 Ti5 2.828832 1_555
Te3 Ti5 2.796117 1_545
Te3 Ti1 2.820648 1_555
Te4 Ti3 2.784726 1_545
Te4 Ti7 2.836286 1_445
Te5 Ti3 2.797492 1_545
Te5 Ti2 2.828832 1_555
Te6 Ti5 2.788168 1_545
Te6 Ti6 2.833230 1_555
Te7 Ti4 2.797492 1_655
Te7 Ti7 2.828832 1_555
Te8 Ti6 2.797492 1_455
Te8 Ti0 2.828832 1_555
Te9 Ti5 2.968622 1_455
Te9 Ti0 2.968622 1_565
Te9 Ti6 2.976621 1_555
Te9 Ti1 2.976621 1_555
Te10 Ti4 2.784726 1_655
Te10 Ti2 2.836286 1_665
Te11 Ti7 2.796117 1_455
Te11 Ti4 2.820648 1_555
Te12 Ti0 2.788168 1_655
Te12 Ti1 2.833230 1_555
Te13 Ti1 2.784726 1_565
Te13 Ti0 2.836286 1_665
Te14 Ti0 2.796117 1_655
Te14 Ti6 2.820648 1_555
Te15 Ti2 2.796117 1_565
Te15 Ti3 2.820648 1_555
Te16 Ti6 2.784726 1_455
Te16 Ti5 2.836286 1_445
Te17 Ti7 2.788168 1_455
Te17 Ti3 2.833230 1_555
I0 Ti3 2.729821 1_555
I1 Ti1 2.729829 1_555
I2 Ti4 2.729821 1_555
I3 Ti6 2.729829 1_555
I4 Ti2 2.740892 1_655
I5 Ti5 2.740892 1_455
I6 Ti7 2.740892 1_544
I7 Ti0 2.740892 1_566
O0 Ti5 2.065930 1_545
O0 Ti0 2.065930 1_655
O0 Ti6 2.084989 1_555
O0 Ti1 2.084989 1_555
O1 Ti7 2.065930 1_455
O1 Ti2 2.065930 1_565
O1 Ti4 2.084989 1_555
O1 Ti3 2.084989 1_555
