# generated using pymatgen
data_Yb(CuSi)2
_symmetry_space_group_name_H-M   'P 1'
_cell_length_a   4.03660200
_cell_length_b   4.03660200
_cell_length_c   5.67210457
_cell_angle_alpha   110.84427884
_cell_angle_beta   110.84427884
_cell_angle_gamma   90.00000000
_symmetry_Int_Tables_number   1
_chemical_formula_structural   Yb(CuSi)2
_chemical_formula_sum   'Yb1 Cu2 Si2'
_cell_volume   79.86744990
_cell_formula_units_Z   1
loop_
 _symmetry_equiv_pos_site_id
 _symmetry_equiv_pos_as_xyz
  1  'x, y, z'
loop_
 _atom_site_type_symbol
 _atom_site_label
 _atom_site_symmetry_multiplicity
 _atom_site_fract_x
 _atom_site_fract_y
 _atom_site_fract_z
 _atom_site_occupancy
  Yb  Yb0  1  0.00000000  0.00000000  0.00000000  1
  Cu  Cu0  1  0.25000000  0.75000000  0.50000000  1
  Cu  Cu1  1  0.75000000  0.25000000  0.50000000  1
  Si  Si0  1  0.61924000  0.61924000  0.23848000  1
  Si  Si1  1  0.38076000  0.38076000  0.76152000  1
loop_
_geom_bond_atom_site_label_1
_geom_bond_atom_site_label_2
_geom_bond_distance
_geom_bond_site_symmetry_2
Cu0 Si0 2.390967 1_455
Cu0 Si0 2.390967 1_555
Cu0 Si1 2.390967 1_555
Cu0 Si1 2.390967 1_565
Cu0 Cu1 2.854309 1_565
Cu0 Cu1 2.854309 1_555
Cu0 Cu1 2.854309 1_455
Cu0 Cu1 2.854309 1_465
Cu0 Yb0 3.174896 1_555
Cu0 Yb0 3.174896 1_566
Cu0 Yb0 3.174896 1_666
Cu0 Yb0 3.174896 1_565
Cu1 Si0 2.390967 1_555
Cu1 Si0 2.390967 1_545
Cu1 Si1 2.390967 1_555
Cu1 Si1 2.390967 1_655
Cu1 Yb0 3.174896 1_555
Cu1 Yb0 3.174896 1_666
Cu1 Yb0 3.174896 1_655
Cu1 Yb0 3.174896 1_656
Si0 Si1 2.337868 1_554
Si0 Yb0 3.084394 1_655
Si0 Yb0 3.084394 1_565
Si0 Yb0 3.084394 1_665
Si0 Yb0 3.084394 1_555
Si1 Yb0 3.084394 1_556
Si1 Yb0 3.084394 1_566
Si1 Yb0 3.084394 1_656
Si1 Yb0 3.084394 1_666
