# generated using pymatgen
data_Yb(GaS2)2
_symmetry_space_group_name_H-M   'P 1'
_cell_length_a   14.24112509
_cell_length_b   11.77823353
_cell_length_c   11.76846148
_cell_angle_alpha   74.42940279
_cell_angle_beta   52.81660848
_cell_angle_gamma   52.75398873
_symmetry_Int_Tables_number   1
_chemical_formula_structural   Yb(GaS2)2
_chemical_formula_sum   'Yb8 Ga16 S32'
_cell_volume   1237.08671968
_cell_formula_units_Z   8
loop_
 _symmetry_equiv_pos_site_id
 _symmetry_equiv_pos_as_xyz
  1  'x, y, z'
loop_
 _atom_site_type_symbol
 _atom_site_label
 _atom_site_symmetry_multiplicity
 _atom_site_fract_x
 _atom_site_fract_y
 _atom_site_fract_z
 _atom_site_occupancy
  Yb  Yb0  1  0.75191600  0.75191600  0.24808400  1
  Yb  Yb1  1  0.49808400  0.49808400  0.00191600  1
  Yb  Yb2  1  0.00191600  0.00191600  0.49808400  1
  Yb  Yb3  1  0.00000000  0.00000000  0.00000000  1
  Yb  Yb4  1  0.75000000  0.75000000  0.75000000  1
  Yb  Yb5  1  0.50000000  0.50000000  0.50000000  1
  Yb  Yb6  1  0.24808400  0.24808400  0.75191600  1
  Yb  Yb7  1  0.25000000  0.25000000  0.25000000  1
  Ga  Ga0  1  0.48899000  0.76127400  0.23772600  1
  Ga  Ga1  1  0.98348300  0.26493700  0.65765000  1
  Ga  Ga2  1  0.76127400  0.48899000  0.51201100  1
  Ga  Ga3  1  0.26651700  0.98506300  0.59235000  1
  Ga  Ga4  1  0.59235000  0.15607000  0.26651700  1
  Ga  Ga5  1  0.01227400  0.73798900  0.76101000  1
  Ga  Ga6  1  0.48872600  0.76101000  0.73798900  1
  Ga  Ga7  1  0.73798900  0.01227400  0.48872600  1
  Ga  Ga8  1  0.26493700  0.98348300  0.09393000  1
  Ga  Ga9  1  0.15607000  0.59235000  0.98506300  1
  Ga  Ga10  1  0.51201100  0.23772600  0.76127400  1
  Ga  Ga11  1  0.09393000  0.65765000  0.26493700  1
  Ga  Ga12  1  0.98506300  0.26651700  0.15607000  1
  Ga  Ga13  1  0.76101000  0.48872600  0.01227400  1
  Ga  Ga14  1  0.23772600  0.51201100  0.48899000  1
  Ga  Ga15  1  0.65765000  0.09393000  0.98348300  1
  S  S0  1  0.70960300  0.21243000  0.53935600  1
  S  S1  1  0.46652200  0.28247300  0.97091000  1
  S  S2  1  0.21387300  0.20933400  0.03690000  1
  S  S3  1  0.97091000  0.28009400  0.46652200  1
  S  S4  1  0.30702000  0.43974000  0.77716300  1
  S  S5  1  0.28247300  0.46652200  0.28009400  1
  S  S6  1  0.71010700  0.21310000  0.04066600  1
  S  S7  1  0.43974000  0.30702000  0.47607700  1
  S  S8  1  0.03757000  0.54039700  0.71138900  1
  S  S9  1  0.54039700  0.03757000  0.71064400  1
  S  S10  1  0.21310000  0.71010700  0.03612700  1
  S  S11  1  0.47283700  0.77392300  0.94298000  1
  S  S12  1  0.71064400  0.71138900  0.54039700  1
  S  S13  1  0.28009400  0.97091000  0.28247300  1
  S  S14  1  0.71138900  0.71064400  0.03757000  1
  S  S15  1  0.04066600  0.03612700  0.71010700  1
  S  S16  1  0.53861100  0.53935600  0.21243000  1
  S  S17  1  0.53935600  0.53861100  0.70960300  1
  S  S18  1  0.27909000  0.96990600  0.78347800  1
  S  S19  1  0.96752700  0.78347800  0.96990600  1
  S  S20  1  0.03690000  0.53989300  0.21387300  1
  S  S21  1  0.21243000  0.70960300  0.53861100  1
  S  S22  1  0.77716300  0.47607700  0.30702000  1
  S  S23  1  0.94298000  0.81026000  0.47283700  1
  S  S24  1  0.77392300  0.47283700  0.81026000  1
  S  S25  1  0.78347800  0.96752700  0.27909000  1
  S  S26  1  0.53989300  0.03690000  0.20933400  1
  S  S27  1  0.96990600  0.27909000  0.96752700  1
  S  S28  1  0.81026000  0.94298000  0.77392300  1
  S  S29  1  0.20933400  0.21387300  0.53989300  1
  S  S30  1  0.03612700  0.04066600  0.21310000  1
  S  S31  1  0.47607700  0.77716300  0.43974000  1
loop_
_geom_bond_atom_site_label_1
_geom_bond_atom_site_label_2
_geom_bond_distance
_geom_bond_site_symmetry_2
Ga0 S13 2.266491 1_555
Ga0 S16 2.312481 1_555
Ga0 S14 2.320666 1_555
Ga0 S31 2.321548 1_555
Ga1 S24 2.272549 1_555
Ga1 S29 2.312012 1_655
Ga1 S3 2.314249 1_555
Ga1 S15 2.316268 1_655
Ga2 S3 2.266485 1_555
Ga2 S17 2.312479 1_555
Ga2 S12 2.320663 1_555
Ga2 S22 2.321560 1_555
Ga3 S31 2.272549 1_555
Ga3 S15 2.312012 1_565
Ga3 S18 2.314249 1_555
Ga3 S29 2.316268 1_565
Ga4 S7 2.272549 1_555
Ga4 S6 2.312012 1_555
Ga4 S25 2.314246 1_545
Ga4 S26 2.316268 1_555
Ga5 S19 2.266500 1_455
Ga5 S8 2.312470 1_555
Ga5 S21 2.320670 1_555
Ga5 S28 2.321552 1_455
Ga6 S18 2.266485 1_555
Ga6 S12 2.312479 1_555
Ga6 S17 2.320663 1_555
Ga6 S11 2.321560 1_555
Ga7 S25 2.266477 1_545
Ga7 S9 2.312475 1_555
Ga7 S0 2.320675 1_555
Ga7 S23 2.321557 1_545
Ga8 S11 2.272549 1_554
Ga8 S2 2.312012 1_565
Ga8 S13 2.314237 1_555
Ga8 S30 2.316268 1_565
Ga9 S4 2.272549 1_555
Ga9 S10 2.312012 1_556
Ga9 S19 2.314240 1_455
Ga9 S20 2.316268 1_556
Ga10 S1 2.266477 1_555
Ga10 S0 2.312475 1_555
Ga10 S9 2.320675 1_555
Ga10 S4 2.321557 1_555
Ga11 S23 2.272549 1_455
Ga11 S20 2.312012 1_555
Ga11 S5 2.314240 1_555
Ga11 S10 2.316268 1_555
Ga12 S22 2.272549 1_555
Ga12 S30 2.312012 1_655
Ga12 S27 2.314237 1_554
Ga12 S2 2.316268 1_655
Ga13 S27 2.266491 1_554
Ga13 S14 2.312481 1_555
Ga13 S16 2.320666 1_555
Ga13 S24 2.321548 1_554
Ga14 S5 2.266500 1_555
Ga14 S21 2.312470 1_555
Ga14 S8 2.320670 1_555
Ga14 S7 2.321552 1_555
Ga15 S28 2.272549 1_545
Ga15 S26 2.312012 1_556
Ga15 S1 2.314246 1_555
Ga15 S6 2.316268 1_556
S0 Yb5 3.031080 1_555
S0 Yb2 3.069445 1_655
S1 Yb1 2.976869 1_556
S1 Yb7 2.992245 1_556
S2 Yb6 3.027563 1_554
S2 Yb7 3.047330 1_555
S3 Yb2 2.976858 1_655
S3 Yb7 2.992250 1_655
S4 Yb6 2.973780 1_555
S4 Yb5 2.996466 1_555
S5 Yb1 2.976864 1_555
S5 Yb7 2.992239 1_555
S6 Yb1 3.027563 1_555
S6 Yb3 3.047330 1_655
S7 Yb6 2.973780 1_555
S7 Yb5 2.996466 1_555
S8 Yb4 3.031080 1_455
S8 Yb6 3.069445 1_555
S9 Yb4 3.031080 1_545
S9 Yb6 3.069445 1_555
S10 Yb1 3.027563 1_555
S10 Yb3 3.047330 1_565
S11 Yb1 2.973780 1_556
S11 Yb4 2.996466 1_555
S12 Yb4 3.031080 1_555
S12 Yb0 3.069445 1_555
S13 Yb2 2.976859 1_565
S13 Yb7 2.992251 1_565
S14 Yb4 3.031080 1_554
S14 Yb0 3.069445 1_555
S15 Yb2 3.027563 1_555
S15 Yb3 3.047330 1_556
S16 Yb5 3.031080 1_555
S16 Yb1 3.069445 1_555
S17 Yb5 3.031080 1_555
S17 Yb1 3.069445 1_556
S18 Yb6 2.976858 1_565
S18 Yb3 2.992250 1_566
S19 Yb0 2.976864 1_556
S19 Yb3 2.992239 1_666
S20 Yb0 3.027563 1_455
S20 Yb7 3.047330 1_555
S21 Yb5 3.031080 1_555
S21 Yb2 3.069445 1_565
S22 Yb0 2.973780 1_555
S22 Yb5 2.996466 1_555
S23 Yb2 2.973780 1_665
S23 Yb4 2.996466 1_555
S24 Yb1 2.973780 1_556
S24 Yb4 2.996466 1_555
S25 Yb0 2.976869 1_555
S25 Yb3 2.992245 1_665
S26 Yb0 3.027563 1_545
S26 Yb7 3.047330 1_555
S27 Yb6 2.976859 1_655
S27 Yb3 2.992251 1_656
S28 Yb2 2.973780 1_665
S28 Yb4 2.996466 1_555
S29 Yb6 3.027563 1_555
S29 Yb7 3.047330 1_555
S30 Yb2 3.027563 1_555
S30 Yb3 3.047330 1_555
S31 Yb0 2.973780 1_555
S31 Yb5 2.996466 1_555
