# generated using pymatgen
data_Ba5(FeS2)9
_symmetry_space_group_name_H-M   'P 1'
_cell_length_a   7.87195042
_cell_length_b   7.87195042
_cell_length_c   48.31585921
_cell_angle_alpha   90.00000000
_cell_angle_beta   90.00000000
_cell_angle_gamma   90.00000000
_symmetry_Int_Tables_number   1
_chemical_formula_structural   Ba5(FeS2)9
_chemical_formula_sum   'Ba20 Fe36 S72'
_cell_volume   2994.01800218
_cell_formula_units_Z   4
loop_
 _symmetry_equiv_pos_site_id
 _symmetry_equiv_pos_as_xyz
  1  'x, y, z'
loop_
 _atom_site_type_symbol
 _atom_site_label
 _atom_site_symmetry_multiplicity
 _atom_site_fract_x
 _atom_site_fract_y
 _atom_site_fract_z
 _atom_site_occupancy
  Ba  Ba0  1  0.75000000  0.75000000  0.77365820  1
  Ba  Ba1  1  0.75000000  0.75000000  0.87349644  1
  Ba  Ba2  1  0.25000000  0.25000000  0.12650356  1
  Ba  Ba3  1  0.75000000  0.75000000  0.46767201  1
  Ba  Ba4  1  0.25000000  0.25000000  0.43125505  1
  Ba  Ba5  1  0.75000000  0.75000000  0.27365820  1
  Ba  Ba6  1  0.25000000  0.25000000  0.62650356  1
  Ba  Ba7  1  0.75000000  0.75000000  0.37349644  1
  Ba  Ba8  1  0.25000000  0.25000000  0.03232799  1
  Ba  Ba9  1  0.25000000  0.25000000  0.72634180  1
  Ba  Ba10  1  0.25000000  0.25000000  0.53232799  1
  Ba  Ba11  1  0.25000000  0.25000000  0.22634180  1
  Ba  Ba12  1  0.75000000  0.75000000  0.67206300  1
  Ba  Ba13  1  0.25000000  0.25000000  0.93125505  1
  Ba  Ba14  1  0.75000000  0.75000000  0.06874495  1
  Ba  Ba15  1  0.25000000  0.25000000  0.32793700  1
  Ba  Ba16  1  0.75000000  0.75000000  0.17206300  1
  Ba  Ba17  1  0.75000000  0.75000000  0.96767201  1
  Ba  Ba18  1  0.75000000  0.75000000  0.56874495  1
  Ba  Ba19  1  0.25000000  0.25000000  0.82793700  1
  Fe  Fe0  1  0.25000000  0.75000000  0.39132481  1
  Fe  Fe1  1  0.25000000  0.75000000  0.44530445  1
  Fe  Fe2  1  0.75000000  0.25000000  0.55469555  1
  Fe  Fe3  1  0.75000000  0.25000000  0.78011819  1
  Fe  Fe4  1  0.75000000  0.25000000  0.10867519  1
  Fe  Fe5  1  0.75000000  0.25000000  0.60867519  1
  Fe  Fe6  1  0.25000000  0.75000000  0.33632504  1
  Fe  Fe7  1  0.75000000  0.25000000  0.21988181  1
  Fe  Fe8  1  0.75000000  0.25000000  0.44530445  1
  Fe  Fe9  1  0.25000000  0.75000000  0.55469555  1
  Fe  Fe10  1  0.75000000  0.25000000  0.89132481  1
  Fe  Fe11  1  0.25000000  0.75000000  0.89132481  1
  Fe  Fe12  1  0.25000000  0.75000000  0.94530445  1
  Fe  Fe13  1  0.75000000  0.25000000  0.16367496  1
  Fe  Fe14  1  0.25000000  0.75000000  0.83632504  1
  Fe  Fe15  1  0.25000000  0.75000000  0.50000000  1
  Fe  Fe16  1  0.75000000  0.25000000  0.39132481  1
  Fe  Fe17  1  0.25000000  0.75000000  0.10867519  1
  Fe  Fe18  1  0.75000000  0.25000000  0.66367496  1
  Fe  Fe19  1  0.25000000  0.75000000  0.60867519  1
  Fe  Fe20  1  0.75000000  0.25000000  0.94530445  1
  Fe  Fe21  1  0.25000000  0.75000000  0.16367496  1
  Fe  Fe22  1  0.75000000  0.25000000  0.28011819  1
  Fe  Fe23  1  0.75000000  0.25000000  0.71988181  1
  Fe  Fe24  1  0.75000000  0.25000000  0.33632504  1
  Fe  Fe25  1  0.75000000  0.25000000  0.50000000  1
  Fe  Fe26  1  0.25000000  0.75000000  0.28011819  1
  Fe  Fe27  1  0.25000000  0.75000000  0.00000000  1
  Fe  Fe28  1  0.75000000  0.25000000  0.05469555  1
  Fe  Fe29  1  0.25000000  0.75000000  0.66367496  1
  Fe  Fe30  1  0.25000000  0.75000000  0.05469555  1
  Fe  Fe31  1  0.25000000  0.75000000  0.78011819  1
  Fe  Fe32  1  0.25000000  0.75000000  0.71988181  1
  Fe  Fe33  1  0.25000000  0.75000000  0.21988181  1
  Fe  Fe34  1  0.75000000  0.25000000  0.00000000  1
  Fe  Fe35  1  0.75000000  0.25000000  0.83632504  1
  S  S0  1  0.43748664  0.86559396  0.91789765  1
  S  S1  1  0.59674256  0.40325744  0.25000000  1
  S  S2  1  0.60755047  0.07953384  0.30808635  1
  S  S3  1  0.86559396  0.06251336  0.91789765  1
  S  S4  1  0.57953384  0.10755047  0.19191365  1
  S  S5  1  0.56251336  0.13440604  0.08210235  1
  S  S6  1  0.62272176  0.07255502  0.63556131  1
  S  S7  1  0.56331139  0.37715767  0.47275094  1
  S  S8  1  0.87715767  0.43668861  0.52724906  1
  S  S9  1  0.12272176  0.57255502  0.36443869  1
  S  S10  1  0.43668861  0.87715767  0.02724906  1
  S  S11  1  0.37727824  0.57255502  0.86443869  1
  S  S12  1  0.87727824  0.07255502  0.13556131  1
  S  S13  1  0.62272176  0.42744498  0.13556131  1
  S  S14  1  0.09674256  0.59674256  0.25000000  1
  S  S15  1  0.92046616  0.10755047  0.69191365  1
  S  S16  1  0.37727824  0.92744498  0.36443869  1
  S  S17  1  0.39244953  0.57953384  0.19191365  1
  S  S18  1  0.57255502  0.12272176  0.86443869  1
  S  S19  1  0.63440604  0.06251336  0.41789765  1
  S  S20  1  0.12284233  0.56331139  0.47275094  1
  S  S21  1  0.06331139  0.87715767  0.52724906  1
  S  S22  1  0.60755047  0.42046616  0.80808635  1
  S  S23  1  0.39244953  0.92046616  0.69191365  1
  S  S24  1  0.63440604  0.43748664  0.91789765  1
  S  S25  1  0.13440604  0.93748664  0.08210235  1
  S  S26  1  0.07953384  0.60755047  0.80808635  1
  S  S27  1  0.56251336  0.36559396  0.58210235  1
  S  S28  1  0.06251336  0.86559396  0.41789765  1
  S  S29  1  0.59674256  0.09674256  0.75000000  1
  S  S30  1  0.36559396  0.93748664  0.58210235  1
  S  S31  1  0.12272176  0.92744498  0.86443869  1
  S  S32  1  0.07953384  0.89244953  0.30808635  1
  S  S33  1  0.42046616  0.60755047  0.30808635  1
  S  S34  1  0.09674256  0.90325744  0.75000000  1
  S  S35  1  0.92046616  0.39244953  0.19191365  1
  S  S36  1  0.92744498  0.37727824  0.86443869  1
  S  S37  1  0.07255502  0.87727824  0.63556131  1
  S  S38  1  0.93748664  0.13440604  0.58210235  1
  S  S39  1  0.57255502  0.37727824  0.36443869  1
  S  S40  1  0.56331139  0.12284233  0.97275094  1
  S  S41  1  0.13440604  0.56251336  0.58210235  1
  S  S42  1  0.57953384  0.39244953  0.69191365  1
  S  S43  1  0.87715767  0.06331139  0.02724906  1
  S  S44  1  0.93748664  0.36559396  0.08210235  1
  S  S45  1  0.42744498  0.62272176  0.63556131  1
  S  S46  1  0.40325744  0.90325744  0.25000000  1
  S  S47  1  0.89244953  0.07953384  0.80808635  1
  S  S48  1  0.42744498  0.87727824  0.13556131  1
  S  S49  1  0.12284233  0.93668861  0.97275094  1
  S  S50  1  0.86559396  0.43748664  0.41789765  1
  S  S51  1  0.37715767  0.93668861  0.47275094  1
  S  S52  1  0.89244953  0.42046616  0.30808635  1
  S  S53  1  0.37715767  0.56331139  0.97275094  1
  S  S54  1  0.90325744  0.09674256  0.25000000  1
  S  S55  1  0.92744498  0.12272176  0.36443869  1
  S  S56  1  0.06251336  0.63440604  0.91789765  1
  S  S57  1  0.43668861  0.62284233  0.52724906  1
  S  S58  1  0.93668861  0.12284233  0.47275094  1
  S  S59  1  0.62284233  0.06331139  0.52724906  1
  S  S60  1  0.62284233  0.43668861  0.02724906  1
  S  S61  1  0.36559396  0.56251336  0.08210235  1
  S  S62  1  0.42046616  0.89244953  0.80808635  1
  S  S63  1  0.93668861  0.37715767  0.97275094  1
  S  S64  1  0.07255502  0.62272176  0.13556131  1
  S  S65  1  0.90325744  0.40325744  0.75000000  1
  S  S66  1  0.40325744  0.59674256  0.75000000  1
  S  S67  1  0.06331139  0.62284233  0.02724906  1
  S  S68  1  0.43748664  0.63440604  0.41789765  1
  S  S69  1  0.87727824  0.42744498  0.63556131  1
  S  S70  1  0.10755047  0.92046616  0.19191365  1
  S  S71  1  0.10755047  0.57953384  0.69191365  1
loop_
_geom_bond_atom_site_label_1
_geom_bond_atom_site_label_2
_geom_bond_distance
_geom_bond_site_symmetry_2
Ba0 S65 3.195696 1_555
Ba0 S29 3.195696 1_565
Ba0 S66 3.195696 1_555
Ba0 S34 3.195696 1_655
Ba0 S62 3.279275 1_555
Ba0 S22 3.279275 1_555
Ba0 S26 3.279275 1_655
Ba0 S47 3.279275 1_565
Ba1 S18 3.278919 1_565
Ba1 S31 3.278919 1_655
Ba1 S11 3.278919 1_555
Ba1 S36 3.278919 1_555
Ba1 S0 3.388552 1_555
Ba1 S24 3.388552 1_555
Ba1 S3 3.388552 1_565
Ba1 S56 3.388552 1_655
Ba2 S48 3.278919 1_545
Ba2 S13 3.278919 1_555
Ba2 S64 3.278919 1_555
Ba2 S12 3.278919 1_455
Ba2 S61 3.388552 1_555
Ba2 S25 3.388552 1_545
Ba2 S44 3.388552 1_455
Ba2 S5 3.388552 1_555
Ba3 S51 3.291528 1_555
Ba3 S7 3.291528 1_555
Ba3 S20 3.291528 1_655
Ba3 S58 3.291528 1_565
Ba3 S28 3.558588 1_655
Ba3 S68 3.558588 1_555
Ba3 S50 3.558588 1_555
Ba3 S19 3.558588 1_565
Ba4 S58 3.332358 1_455
Ba4 S7 3.332358 1_555
Ba4 S20 3.332358 1_555
Ba4 S51 3.332358 1_545
Ba4 S68 3.428057 1_555
Ba4 S50 3.428057 1_455
Ba4 S19 3.428057 1_555
Ba4 S28 3.428057 1_545
Ba5 S46 3.195696 1_555
Ba5 S1 3.195696 1_555
Ba5 S54 3.195696 1_565
Ba5 S14 3.195696 1_655
Ba5 S33 3.279275 1_555
Ba5 S52 3.279275 1_555
Ba5 S32 3.279275 1_655
Ba5 S2 3.279275 1_565
Ba6 S37 3.278919 1_545
Ba6 S6 3.278919 1_555
Ba6 S45 3.278919 1_555
Ba6 S69 3.278919 1_455
Ba6 S27 3.388552 1_555
Ba6 S38 3.388552 1_455
Ba6 S30 3.388552 1_545
Ba6 S41 3.388552 1_555
Ba7 S55 3.278919 1_565
Ba7 S9 3.278919 1_655
Ba7 S16 3.278919 1_555
Ba7 S39 3.278919 1_555
Ba7 S68 3.388552 1_555
Ba7 S50 3.388552 1_555
Ba7 S28 3.388552 1_655
Ba7 S19 3.388552 1_565
Ba8 S10 3.291528 1_545
Ba8 S67 3.291528 1_555
Ba8 S43 3.291528 1_455
Ba8 S60 3.291528 1_555
Ba8 S61 3.558588 1_555
Ba8 S44 3.558588 1_455
Ba8 S25 3.558588 1_545
Ba8 S5 3.558588 1_555
Ba9 S29 3.195696 1_555
Ba9 S34 3.195696 1_545
Ba9 S66 3.195696 1_555
Ba9 S65 3.195696 1_455
Ba9 S42 3.279275 1_555
Ba9 S71 3.279275 1_555
Ba9 S23 3.279275 1_545
Ba9 S15 3.279275 1_455
Ba10 S57 3.291528 1_555
Ba10 S21 3.291528 1_545
Ba10 S8 3.291528 1_455
Ba10 S59 3.291528 1_555
Ba10 S27 3.558588 1_555
Ba10 S38 3.558588 1_455
Ba10 S30 3.558588 1_545
Ba10 S41 3.558588 1_555
Ba11 S14 3.195696 1_555
Ba11 S1 3.195696 1_555
Ba11 S54 3.195696 1_455
Ba11 S46 3.195696 1_545
Ba11 S70 3.279275 1_545
Ba11 S17 3.279275 1_555
Ba11 S35 3.279275 1_455
Ba11 S4 3.279275 1_555
Ba12 S69 3.249831 1_555
Ba12 S45 3.249831 1_555
Ba12 S6 3.249831 1_565
Ba12 S37 3.249831 1_655
Ba12 S42 3.262309 1_555
Ba12 S23 3.262309 1_555
Ba12 S71 3.262309 1_655
Ba12 S15 3.262309 1_565
Ba13 S49 3.332358 1_545
Ba13 S40 3.332358 1_555
Ba13 S63 3.332358 1_455
Ba13 S53 3.332358 1_555
Ba13 S24 3.428057 1_555
Ba13 S3 3.428057 1_455
Ba13 S56 3.428057 1_555
Ba13 S0 3.428057 1_545
Ba14 S60 3.332358 1_555
Ba14 S10 3.332358 1_555
Ba14 S43 3.332358 1_565
Ba14 S67 3.332358 1_655
Ba14 S44 3.428057 1_555
Ba14 S5 3.428057 1_565
Ba14 S61 3.428057 1_555
Ba14 S25 3.428057 1_655
Ba15 S16 3.249831 1_545
Ba15 S9 3.249831 1_555
Ba15 S39 3.249831 1_555
Ba15 S55 3.249831 1_455
Ba15 S52 3.262309 1_455
Ba15 S33 3.262309 1_555
Ba15 S32 3.262309 1_545
Ba15 S2 3.262309 1_555
Ba16 S12 3.249831 1_565
Ba16 S13 3.249831 1_555
Ba16 S48 3.249831 1_555
Ba16 S64 3.249831 1_655
Ba16 S17 3.262309 1_555
Ba16 S35 3.262309 1_555
Ba16 S70 3.262309 1_655
Ba16 S4 3.262309 1_565
Ba17 S63 3.291528 1_555
Ba17 S53 3.291528 1_555
Ba17 S40 3.291528 1_565
Ba17 S49 3.291528 1_655
Ba17 S0 3.558588 1_555
Ba17 S24 3.558588 1_555
Ba17 S3 3.558588 1_565
Ba17 S56 3.558588 1_655
Ba18 S57 3.332358 1_555
Ba18 S8 3.332358 1_555
Ba18 S59 3.332358 1_565
Ba18 S21 3.332358 1_655
Ba18 S41 3.428057 1_655
Ba18 S30 3.428057 1_555
Ba18 S27 3.428057 1_555
Ba18 S38 3.428057 1_565
Ba19 S36 3.249831 1_455
Ba19 S31 3.249831 1_545
Ba19 S11 3.249831 1_555
Ba19 S18 3.249831 1_555
Ba19 S62 3.262309 1_545
Ba19 S47 3.262309 1_455
Ba19 S22 3.262309 1_555
Ba19 S26 3.262309 1_555
Fe0 S9 2.154643 1_555
Fe0 S16 2.154643 1_555
Fe0 S28 2.157457 1_555
Fe0 S68 2.157457 1_555
Fe1 S68 2.181675 1_555
Fe1 S28 2.181675 1_555
Fe1 S20 2.218161 1_555
Fe1 S51 2.218161 1_555
Fe2 S27 2.181675 1_555
Fe2 S38 2.181675 1_555
Fe2 S59 2.218161 1_555
Fe2 S8 2.218161 1_555
Fe3 S22 2.210015 1_555
Fe3 S47 2.210015 1_555
Fe3 S29 2.242440 1_555
Fe3 S65 2.242440 1_555
Fe4 S12 2.154643 1_555
Fe4 S13 2.154643 1_555
Fe4 S5 2.157457 1_555
Fe4 S44 2.157457 1_555
Fe5 S6 2.154643 1_555
Fe5 S69 2.154643 1_555
Fe5 S27 2.157457 1_555
Fe5 S38 2.157457 1_555
Fe6 S16 2.190911 1_555
Fe6 S9 2.190911 1_555
Fe6 S32 2.218031 1_555
Fe6 S33 2.218031 1_555
Fe7 S35 2.210015 1_555
Fe7 S4 2.210015 1_555
Fe7 S54 2.242440 1_555
Fe7 S1 2.242440 1_555
Fe8 S50 2.181675 1_555
Fe8 S19 2.181675 1_555
Fe8 S7 2.218161 1_555
Fe8 S58 2.218161 1_555
Fe9 S41 2.181675 1_555
Fe9 S30 2.181675 1_555
Fe9 S21 2.218161 1_555
Fe9 S57 2.218161 1_555
Fe10 S18 2.154643 1_555
Fe10 S36 2.154643 1_555
Fe10 S24 2.157457 1_555
Fe10 S3 2.157457 1_555
Fe11 S11 2.154643 1_555
Fe11 S31 2.154643 1_555
Fe11 S56 2.157457 1_555
Fe11 S0 2.157457 1_555
Fe12 S0 2.181675 1_555
Fe12 S56 2.181675 1_555
Fe12 S53 2.218161 1_555
Fe12 S49 2.218161 1_555
Fe13 S12 2.190911 1_555
Fe13 S13 2.190911 1_555
Fe13 S35 2.218031 1_555
Fe13 S4 2.218031 1_555
Fe14 S11 2.190911 1_555
Fe14 S31 2.190911 1_555
Fe14 S26 2.218031 1_555
Fe14 S62 2.218031 1_555
Fe15 S20 2.212471 1_555
Fe15 S51 2.212471 1_555
Fe15 S57 2.212471 1_555
Fe15 S21 2.212471 1_555
Fe16 S39 2.154643 1_555
Fe16 S55 2.154643 1_555
Fe16 S19 2.157457 1_555
Fe16 S50 2.157457 1_555
Fe17 S48 2.154643 1_555
Fe17 S64 2.154643 1_555
Fe17 S61 2.157457 1_555
Fe17 S25 2.157457 1_555
Fe18 S6 2.190911 1_555
Fe18 S69 2.190911 1_555
Fe18 S42 2.218031 1_555
Fe18 S15 2.218031 1_555
Fe19 S37 2.154643 1_555
Fe19 S45 2.154643 1_555
Fe19 S41 2.157457 1_555
Fe19 S30 2.157457 1_555
Fe20 S3 2.181675 1_555
Fe20 S24 2.181675 1_555
Fe20 S40 2.218161 1_555
Fe20 S63 2.218161 1_555
Fe21 S48 2.190911 1_555
Fe21 S64 2.190911 1_555
Fe21 S70 2.218031 1_555
Fe21 S17 2.218031 1_555
Fe22 S52 2.210015 1_555
Fe22 S2 2.210015 1_555
Fe22 S1 2.242440 1_555
Fe22 S54 2.242440 1_555
Fe23 S15 2.210015 1_555
Fe23 S42 2.210015 1_555
Fe23 S29 2.242440 1_555
Fe23 S65 2.242440 1_555
Fe24 S55 2.190911 1_555
Fe24 S39 2.190911 1_555
Fe24 S52 2.218031 1_555
Fe24 S2 2.218031 1_555
Fe25 S58 2.212471 1_555
Fe25 S7 2.212471 1_555
Fe25 S59 2.212471 1_555
Fe25 S8 2.212471 1_555
Fe26 S33 2.210015 1_555
Fe26 S32 2.210015 1_555
Fe26 S14 2.242440 1_555
Fe26 S46 2.242440 1_555
Fe27 S67 2.212471 1_555
Fe27 S10 2.212471 1_555
Fe27 S53 2.212471 1_554
Fe27 S49 2.212471 1_554
Fe28 S5 2.181675 1_555
Fe28 S44 2.181675 1_555
Fe28 S43 2.218161 1_555
Fe28 S60 2.218161 1_555
Fe29 S37 2.190911 1_555
Fe29 S45 2.190911 1_555
Fe29 S23 2.218031 1_555
Fe29 S71 2.218031 1_555
Fe30 S61 2.181675 1_555
Fe30 S25 2.181675 1_555
Fe30 S67 2.218161 1_555
Fe30 S10 2.218161 1_555
Fe31 S62 2.210015 1_555
Fe31 S26 2.210015 1_555
Fe31 S66 2.242440 1_555
Fe31 S34 2.242440 1_555
Fe32 S71 2.210015 1_555
Fe32 S23 2.210015 1_555
Fe32 S66 2.242440 1_555
Fe32 S34 2.242440 1_555
Fe33 S17 2.210015 1_555
Fe33 S70 2.210015 1_555
Fe33 S14 2.242440 1_555
Fe33 S46 2.242440 1_555
Fe34 S60 2.212471 1_555
Fe34 S43 2.212471 1_555
Fe34 S63 2.212471 1_554
Fe34 S40 2.212471 1_554
Fe35 S18 2.190911 1_555
Fe35 S36 2.190911 1_555
Fe35 S47 2.218031 1_555
Fe35 S22 2.218031 1_555
