# generated using pymatgen
data_Na2MnO2
_symmetry_space_group_name_H-M   'P 1'
_cell_length_a   6.08424265
_cell_length_b   8.57745375
_cell_length_c   8.57745958
_cell_angle_alpha   86.89090410
_cell_angle_beta   69.58521292
_cell_angle_gamma   69.58505080
_symmetry_Int_Tables_number   1
_chemical_formula_structural   Na2MnO2
_chemical_formula_sum   'Na12 Mn6 O12'
_cell_volume   392.00941189
_cell_formula_units_Z   6
loop_
 _symmetry_equiv_pos_site_id
 _symmetry_equiv_pos_as_xyz
  1  'x, y, z'
loop_
 _atom_site_type_symbol
 _atom_site_label
 _atom_site_symmetry_multiplicity
 _atom_site_fract_x
 _atom_site_fract_y
 _atom_site_fract_z
 _atom_site_occupancy
  Na  Na0  1  0.24999970  0.93795348  0.06204800  1
  Na  Na1  1  0.75000027  0.06204800  0.93795234  1
  Na  Na2  1  0.74999957  0.80092960  0.19907099  1
  Na  Na3  1  0.25000221  0.19907211  0.80092824  1
  Na  Na4  1  0.73641428  0.40228843  -0.00403477  1
  Na  Na5  1  0.76358613  0.00403521  0.59771152  1
  Na  Na6  1  0.26358278  0.59771225  0.00403635  1
  Na  Na7  1  0.23641607  -0.00403638  0.40228840  1
  Na  Na8  1  0.22807453  0.32361508  0.46884806  1
  Na  Na9  1  0.77192614  0.67638503  0.53115228  1
  Na  Na10  1  0.72807140  0.46884929  0.32361432  1
  Na  Na11  1  0.27192742  0.53115235  0.67638737  1
  Mn  Mn0  1  0.25000189  0.67906319  0.32093026  1
  Mn  Mn1  1  0.25682271  0.28922646  0.13192170  1
  Mn  Mn2  1  0.24317702  0.86807676  0.71077390  1
  Mn  Mn3  1  0.75000023  0.32093236  0.67906849  1
  Mn  Mn4  1  0.74317526  0.71077419  0.86807836  1
  Mn  Mn5  1  0.75682548  0.13192107  0.28922633  1
  O  O0  1  0.46844562  0.32687743  0.89918460  1
  O  O1  1  0.03155734  0.10081511  0.67312369  1
  O  O2  1  0.53155621  0.67312241  0.10081488  1
  O  O3  1  0.96844675  0.89918434  0.32687614  1
  O  O4  1  0.51293210  0.89361146  0.78039367  1
  O  O5  1  0.98706635  0.21960761  0.10638893  1
  O  O6  1  0.01293188  0.78039412  0.89361217  1
  O  O7  1  0.48707003  0.10638920  0.21960587  1
  O  O8  1  0.59589244  0.27992091  0.51623421  1
  O  O9  1  0.90410684  0.48376706  0.72008062  1
  O  O10  1  0.09589165  0.51623169  0.27991905  1
  O  O11  1  0.40410267  0.72008018  0.48376503  1
loop_
_geom_bond_atom_site_label_1
_geom_bond_atom_site_label_2
_geom_bond_distance
_geom_bond_site_symmetry_2
Na0 O5 2.349320 1_465
Na0 O4 2.349325 1_554
Na0 O3 2.409534 1_455
Na0 O2 2.409548 1_555
Na1 O6 2.349316 1_645
Na1 O7 2.349316 1_556
Na1 O0 2.409536 1_555
Na1 O1 2.409542 1_655
Na2 O2 2.361479 1_555
Na2 O3 2.361480 1_555
Na2 O7 2.526723 1_565
Na2 O6 2.526727 1_654
Na2 O10 2.849958 1_655
Na2 O11 2.849967 1_555
Na3 O0 2.361469 1_555
Na3 O1 2.361475 1_555
Na3 O4 2.526731 1_545
Na3 O5 2.526746 1_456
Na3 O8 2.849943 1_555
Na3 O9 2.849952 1_455
Na4 O5 2.204022 1_555
Na4 O2 2.276757 1_555
Na4 O0 2.346025 1_554
Na4 O9 2.400607 1_554
Na5 O4 2.204039 1_545
Na5 O3 2.276774 1_545
Na5 O1 2.346041 1_655
Na5 O8 2.400607 1_555
Na6 O6 2.204024 1_554
Na6 O0 2.276769 1_554
Na6 O2 2.346036 1_555
Na6 O10 2.400599 1_555
Na7 O7 2.204050 1_555
Na7 O1 2.276774 1_555
Na7 O3 2.346027 1_445
Na7 O11 2.400581 1_545
Na8 O8 2.312303 1_555
Na8 O10 2.386287 1_555
Na8 O9 2.425885 1_455
Na8 O7 2.561027 1_555
Na8 O1 2.814452 1_555
Na9 O11 2.312339 1_555
Na9 O9 2.386284 1_555
Na9 O10 2.425889 1_655
Na9 O4 2.561025 1_555
Na9 O3 2.814459 1_555
Na10 O10 2.312301 1_655
Na10 O8 2.386292 1_555
Na10 O11 2.425872 1_555
Na10 O5 2.561021 1_555
Na10 O2 2.814430 1_555
Na11 O9 2.312319 1_455
Na11 O11 2.386293 1_555
Na11 O8 2.425875 1_555
Na11 O6 2.561019 1_555
Na11 O0 2.814430 1_555
Mn0 O11 2.037311 1_555
Mn0 O10 2.037313 1_555
Mn0 O2 2.048168 1_555
Mn0 O3 2.048188 1_455
Mn1 O5 2.011712 1_455
Mn1 O7 2.015448 1_555
Mn1 O0 2.043112 1_554
Mn1 O10 2.105339 1_555
Mn2 O4 2.011715 1_555
Mn2 O6 2.015442 1_555
Mn2 O1 2.043107 1_565
Mn2 O11 2.105365 1_555
Mn3 O8 2.037322 1_555
Mn3 O9 2.037323 1_555
Mn3 O0 2.048165 1_555
Mn3 O1 2.048175 1_655
Mn4 O6 2.011723 1_655
Mn4 O4 2.015437 1_555
Mn4 O2 2.043103 1_556
Mn4 O9 2.105354 1_555
Mn5 O7 2.011711 1_555
Mn5 O5 2.015443 1_555
Mn5 O3 2.043099 1_545
Mn5 O8 2.105368 1_555
