# generated using pymatgen
data_Cs2PSe5
_symmetry_space_group_name_H-M   'P 1'
_cell_length_a   7.49743235
_cell_length_b   7.62401682
_cell_length_c   10.34572784
_cell_angle_alpha   85.54579802
_cell_angle_beta   87.86179773
_cell_angle_gamma   85.26511229
_symmetry_Int_Tables_number   1
_chemical_formula_structural   Cs2PSe5
_chemical_formula_sum   'Cs4 P2 Se10'
_cell_volume   587.28514444
_cell_formula_units_Z   2
loop_
 _symmetry_equiv_pos_site_id
 _symmetry_equiv_pos_as_xyz
  1  'x, y, z'
loop_
 _atom_site_type_symbol
 _atom_site_label
 _atom_site_symmetry_multiplicity
 _atom_site_fract_x
 _atom_site_fract_y
 _atom_site_fract_z
 _atom_site_occupancy
  Cs  Cs0  1  0.80046999  0.14174271  0.63529005  1
  Cs  Cs1  1  0.19953001  0.85825729  0.36470995  1
  Cs  Cs2  1  0.22169823  0.27780057  0.96883991  1
  Cs  Cs3  1  0.77830177  0.72219943  0.03116009  1
  P  P0  1  0.24923845  0.79028321  0.77903424  1
  P  P1  1  0.75076155  0.20971679  0.22096576  1
  Se  Se0  1  0.97896892  0.32622761  0.29090735  1
  Se  Se1  1  0.50440486  0.59453820  0.75810761  1
  Se  Se2  1  0.30218688  0.03930228  0.67590400  1
  Se  Se3  1  0.02103108  0.67377239  0.70909265  1
  Se  Se4  1  0.59450136  0.60471136  0.54134198  1
  Se  Se5  1  0.40549864  0.39528864  0.45865802  1
  Se  Se6  1  0.26924542  0.77320892  0.99048734  1
  Se  Se7  1  0.69781312  0.96069772  0.32409600  1
  Se  Se8  1  0.73075458  0.22679108  0.00951266  1
  Se  Se9  1  0.49559514  0.40546180  0.24189239  1
loop_
_geom_bond_atom_site_label_1
_geom_bond_atom_site_label_2
_geom_bond_distance
_geom_bond_site_symmetry_2
Cs0 Se7 3.730078 1_545
Cs0 Se4 3.803589 1_555
Cs0 Se2 3.810254 1_655
Cs0 Se3 3.839777 1_645
Cs0 Se5 3.841252 1_555
Cs0 Se2 3.880288 1_555
Cs0 Se0 3.954751 1_555
Cs0 Se8 3.983206 1_556
Cs0 Se1 4.202933 1_555
Cs1 Se2 3.730078 1_565
Cs1 Se5 3.803589 1_555
Cs1 Se7 3.810254 1_455
Cs1 Se0 3.839777 1_465
Cs1 Se4 3.841252 1_555
Cs1 Se7 3.880288 1_555
Cs1 Se3 3.954751 1_555
Cs1 Se6 3.983206 1_554
Cs1 Se9 4.202933 1_555
Cs2 Se2 3.659713 1_555
Cs2 Se8 3.737920 1_456
Cs2 Se0 3.765396 1_456
Cs2 Se9 3.786075 1_556
Cs2 Se6 3.823937 1_545
Cs2 Se8 3.839823 1_556
Cs2 Se1 3.841813 1_555
Cs2 Se6 3.847416 1_555
Cs2 Se3 4.109798 1_555
Cs3 Se7 3.659713 1_555
Cs3 Se6 3.737920 1_654
Cs3 Se3 3.765396 1_654
Cs3 Se1 3.786075 1_554
Cs3 Se8 3.823937 1_565
Cs3 Se6 3.839823 1_554
Cs3 Se9 3.841813 1_555
Cs3 Se8 3.847416 1_555
Cs3 Se0 4.109798 1_555
P0 Se2 2.163001 1_565
P0 Se3 2.164065 1_555
P0 Se6 2.191399 1_555
P0 Se1 2.341343 1_555
P1 Se7 2.163001 1_545
P1 Se0 2.164065 1_555
P1 Se8 2.191399 1_555
P1 Se9 2.341343 1_555
Se1 Se4 2.315199 1_555
Se4 Se5 2.442360 1_555
Se5 Se9 2.315199 1_555
