# generated using pymatgen
data_NbPO5
_symmetry_space_group_name_H-M   'P 1'
_cell_length_a   5.40268790
_cell_length_b   6.76391688
_cell_length_c   11.38959398
_cell_angle_alpha   90.00000000
_cell_angle_beta   90.00000000
_cell_angle_gamma   90.00000000
_symmetry_Int_Tables_number   1
_chemical_formula_structural   NbPO5
_chemical_formula_sum   'Nb4 P4 O20'
_cell_volume   416.21371284
_cell_formula_units_Z   4
loop_
 _symmetry_equiv_pos_site_id
 _symmetry_equiv_pos_as_xyz
  1  'x, y, z'
loop_
 _atom_site_type_symbol
 _atom_site_label
 _atom_site_symmetry_multiplicity
 _atom_site_fract_x
 _atom_site_fract_y
 _atom_site_fract_z
 _atom_site_occupancy
  Nb  Nb0  1  0.25000000  0.16935509  0.93683521  1
  Nb  Nb1  1  0.75000000  0.83064491  0.06316479  1
  Nb  Nb2  1  0.75000000  0.66935509  0.56316479  1
  Nb  Nb3  1  0.25000000  0.33064491  0.43683521  1
  P  P0  1  0.25000000  0.97266206  0.65382218  1
  P  P1  1  0.75000000  0.02733794  0.34617782  1
  P  P2  1  0.75000000  0.47266206  0.84617782  1
  P  P3  1  0.25000000  0.52733794  0.15382218  1
  O  O0  1  0.25000000  0.03002035  0.78382371  1
  O  O1  1  0.75000000  0.96997965  0.21617629  1
  O  O2  1  0.75000000  0.53002035  0.71617629  1
  O  O3  1  0.25000000  0.46997965  0.28382371  1
  O  O4  1  0.51767337  0.14562203  0.37184170  1
  O  O5  1  0.01767337  0.85437797  0.62815830  1
  O  O6  1  0.48232663  0.64562203  0.12815830  1
  O  O7  1  0.98232663  0.35437797  0.87184170  1
  O  O8  1  0.00000000  -0.00000000  -0.00000000  1
  O  O9  1  0.50000000  -0.00000000  -0.00000000  1
  O  O10  1  0.00000000  0.50000000  0.50000000  1
  O  O11  1  0.50000000  0.50000000  0.50000000  1
  O  O12  1  0.25000000  0.33683009  0.08155877  1
  O  O13  1  0.75000000  0.66316991  0.91844123  1
  O  O14  1  0.75000000  0.83683009  0.41844123  1
  O  O15  1  0.25000000  0.16316991  0.58155877  1
  O  O16  1  0.01767337  0.64562203  0.12815830  1
  O  O17  1  0.51767337  0.35437797  0.87184170  1
  O  O18  1  0.98232663  0.14562203  0.37184170  1
  O  O19  1  0.48232663  0.85437797  0.62815830  1
loop_
_geom_bond_atom_site_label_1
_geom_bond_atom_site_label_2
_geom_bond_distance
_geom_bond_site_symmetry_2
Nb0 O9 1.911560 1_556
Nb0 O8 1.911560 1_556
Nb0 O0 1.981249 1_555
Nb0 O12 2.000060 1_556
Nb0 O17 2.050740 1_555
Nb0 O7 2.050740 1_455
Nb1 O9 1.911560 1_565
Nb1 O8 1.911560 1_665
Nb1 O1 1.981249 1_555
Nb1 O13 2.000060 1_554
Nb1 O6 2.050740 1_555
Nb1 O16 2.050740 1_655
Nb2 O10 1.911560 1_655
Nb2 O11 1.911560 1_555
Nb2 O2 1.981249 1_555
Nb2 O14 2.000060 1_555
Nb2 O19 2.050740 1_555
Nb2 O5 2.050740 1_655
Nb3 O10 1.911560 1_555
Nb3 O11 1.911560 1_555
Nb3 O3 1.981249 1_555
Nb3 O15 2.000060 1_555
Nb3 O4 2.050740 1_555
Nb3 O18 2.050740 1_455
O0 P0 1.530649 1_545
O1 P1 1.530649 1_565
O2 P2 1.530649 1_555
O3 P3 1.530649 1_555
O4 P1 1.516918 1_555
O5 P0 1.516918 1_555
O6 P3 1.516918 1_555
O7 P2 1.516918 1_555
O12 P3 1.529003 1_555
O13 P2 1.529003 1_555
O14 P1 1.529003 1_565
O15 P0 1.529003 1_545
O16 P3 1.516918 1_555
O17 P2 1.516918 1_555
O18 P1 1.516918 1_555
O19 P0 1.516918 1_555
