# generated using pymatgen
data_SbS8Cl5O
_symmetry_space_group_name_H-M   'P 1'
_cell_length_a   9.47358400
_cell_length_b   11.05111100
_cell_length_c   17.60945500
_cell_angle_alpha   90.00000000
_cell_angle_beta   90.00000000
_cell_angle_gamma   90.00000000
_symmetry_Int_Tables_number   1
_chemical_formula_structural   SbS8Cl5O
_chemical_formula_sum   'Sb4 S32 Cl20 O4'
_cell_volume   1843.59773725
_cell_formula_units_Z   4
loop_
 _symmetry_equiv_pos_site_id
 _symmetry_equiv_pos_as_xyz
  1  'x, y, z'
loop_
 _atom_site_type_symbol
 _atom_site_label
 _atom_site_symmetry_multiplicity
 _atom_site_fract_x
 _atom_site_fract_y
 _atom_site_fract_z
 _atom_site_occupancy
  Sb  Sb0  1  0.75000000  0.69870800  0.97428200  1
  Sb  Sb1  1  0.25000000  0.30129200  0.02571800  1
  Sb  Sb2  1  0.25000000  0.19870800  0.52571800  1
  Sb  Sb3  1  0.75000000  0.80129200  0.47428200  1
  S  S0  1  0.92519900  0.27220700  0.78097400  1
  S  S1  1  0.25000000  0.77648900  0.78779900  1
  S  S2  1  0.75000000  0.27648900  0.71220100  1
  S  S3  1  0.07480100  0.77220700  0.71902600  1
  S  S4  1  0.50341100  0.90454600  0.21775100  1
  S  S5  1  0.99658900  0.90454600  0.21775100  1
  S  S6  1  0.49658900  0.40454600  0.28224900  1
  S  S7  1  0.43141200  0.51359100  0.62233900  1
  S  S8  1  0.07480100  0.72779300  0.21902600  1
  S  S9  1  0.00341100  0.40454600  0.28224900  1
  S  S10  1  0.75000000  0.92025300  0.83019300  1
  S  S11  1  0.57480100  0.22779300  0.28097400  1
  S  S12  1  0.50341100  0.59545400  0.71775100  1
  S  S13  1  0.42519900  0.72779300  0.21902600  1
  S  S14  1  0.00341100  0.09545400  0.78224900  1
  S  S15  1  0.92519900  0.22779300  0.28097400  1
  S  S16  1  0.06858800  0.98640900  0.12233900  1
  S  S17  1  0.43141200  0.98640900  0.12233900  1
  S  S18  1  0.75000000  0.22351100  0.21220100  1
  S  S19  1  0.49658900  0.09545400  0.78224900  1
  S  S20  1  0.75000000  0.57974700  0.33019300  1
  S  S21  1  0.57480100  0.27220700  0.78097400  1
  S  S22  1  0.06858800  0.51359100  0.62233900  1
  S  S23  1  0.56858800  0.01359100  0.87766100  1
  S  S24  1  0.56858800  0.48640900  0.37766100  1
  S  S25  1  0.93141200  0.48640900  0.37766100  1
  S  S26  1  0.42519900  0.77220700  0.71902600  1
  S  S27  1  0.25000000  0.72351100  0.28779900  1
  S  S28  1  0.99658900  0.59545400  0.71775100  1
  S  S29  1  0.93141200  0.01359100  0.87766100  1
  S  S30  1  0.25000000  0.07974700  0.16980700  1
  S  S31  1  0.25000000  0.42025300  0.66980700  1
  Cl  Cl0  1  0.25000000  0.10432400  0.40529900  1
  Cl  Cl1  1  0.75000000  0.60432400  0.09470100  1
  Cl  Cl2  1  0.75000000  0.51947700  0.90048000  1
  Cl  Cl3  1  0.99938800  0.20847900  0.53325700  1
  Cl  Cl4  1  0.25000000  0.09714200  0.97453000  1
  Cl  Cl5  1  0.25000000  0.40285800  0.47453000  1
  Cl  Cl6  1  0.49938800  0.70847900  0.96674300  1
  Cl  Cl7  1  0.75000000  0.98052300  0.40048000  1
  Cl  Cl8  1  0.50061200  0.20847900  0.53325700  1
  Cl  Cl9  1  0.99938800  0.29152100  0.03325700  1
  Cl  Cl10  1  0.25000000  0.39567600  0.90529900  1
  Cl  Cl11  1  0.75000000  0.89567600  0.59470100  1
  Cl  Cl12  1  0.00061200  0.70847900  0.96674300  1
  Cl  Cl13  1  0.75000000  0.59714200  0.52547000  1
  Cl  Cl14  1  0.75000000  0.90285800  0.02547000  1
  Cl  Cl15  1  0.50061200  0.29152100  0.03325700  1
  Cl  Cl16  1  0.49938800  0.79152100  0.46674300  1
  Cl  Cl17  1  0.00061200  0.79152100  0.46674300  1
  Cl  Cl18  1  0.25000000  0.48052300  0.09952000  1
  Cl  Cl19  1  0.25000000  0.01947700  0.59952000  1
  O  O0  1  0.25000000  0.28965800  0.64034200  1
  O  O1  1  0.75000000  0.78965800  0.85965800  1
  O  O2  1  0.25000000  0.21034200  0.14034300  1
  O  O3  1  0.75000000  0.71034200  0.35965800  1
loop_
_geom_bond_atom_site_label_1
_geom_bond_atom_site_label_2
_geom_bond_distance
_geom_bond_site_symmetry_2
S0 S2 2.055165 1_555
S0 S14 2.089248 1_655
S1 S26 2.055165 1_555
S1 S3 2.055165 1_555
S2 S21 2.055165 1_555
S5 S8 2.089248 1_655
S10 S29 2.171712 1_565
S10 S23 2.171712 1_565
S11 S18 2.055165 1_555
S11 S6 2.089248 1_555
S12 S7 2.026475 1_555
S12 S26 2.089248 1_555
S13 S27 2.055165 1_555
S13 S4 2.089248 1_555
S14 S29 2.026475 1_455
S15 S18 2.055165 1_555
S15 S9 2.089248 1_655
S16 S5 2.026475 1_455
S16 S30 2.171712 1_565
S17 S4 2.026475 1_555
S17 S30 2.171712 1_565
S19 S23 2.026475 1_555
S19 S21 2.089248 1_555
S20 S25 2.171712 1_555
S20 S24 2.171712 1_555
S22 S28 2.026475 1_455
S22 S31 2.171712 1_555
S24 S6 2.026475 1_555
S25 S9 2.026475 1_655
S27 S8 2.055165 1_555
S28 S3 2.089248 1_655
S31 S7 2.171712 1_555
Cl0 Sb2 2.363160 1_555
Cl1 Sb0 2.363160 1_554
Cl2 Sb0 2.369003 1_555
Cl3 Sb2 2.380353 1_655
Cl4 Sb1 2.429491 1_556
Cl5 Sb2 2.429491 1_555
Cl6 Sb0 2.380353 1_555
Cl7 Sb3 2.369003 1_555
Cl8 Sb2 2.380353 1_555
Cl9 Sb1 2.380353 1_655
Cl10 Sb1 2.363160 1_556
Cl11 Sb3 2.363160 1_555
Cl12 Sb0 2.380353 1_455
Cl13 Sb3 2.429491 1_555
Cl14 Sb0 2.429491 1_554
Cl15 Sb1 2.380353 1_555
Cl16 Sb3 2.380353 1_555
Cl17 Sb3 2.380353 1_455
Cl18 Sb1 2.369003 1_555
Cl19 Sb2 2.369003 1_555
O0 S31 1.533656 1_555
O0 Sb2 2.254868 1_555
O1 S10 1.533656 1_555
O1 Sb0 2.254868 1_555
O2 S30 1.533650 1_555
O2 Sb1 2.254884 1_555
O3 S20 1.533656 1_555
O3 Sb3 2.254868 1_555
