# generated using pymatgen
data_AgHg2PO4
_symmetry_space_group_name_H-M   'P 1'
_cell_length_a   6.27168500
_cell_length_b   8.84929300
_cell_length_c   9.49439200
_cell_angle_alpha   90.00000000
_cell_angle_beta   90.00000000
_cell_angle_gamma   90.00000000
_symmetry_Int_Tables_number   1
_chemical_formula_structural   AgHg2PO4
_chemical_formula_sum   'Ag4 Hg8 P4 O16'
_cell_volume   526.93854873
_cell_formula_units_Z   4
loop_
 _symmetry_equiv_pos_site_id
 _symmetry_equiv_pos_as_xyz
  1  'x, y, z'
loop_
 _atom_site_type_symbol
 _atom_site_label
 _atom_site_symmetry_multiplicity
 _atom_site_fract_x
 _atom_site_fract_y
 _atom_site_fract_z
 _atom_site_occupancy
  Ag  Ag0  1  0.00000000  0.52882600  0.14884600  1
  Ag  Ag1  1  0.00000000  0.02882600  0.35115400  1
  Ag  Ag2  1  0.00000000  0.97117400  0.64884600  1
  Ag  Ag3  1  0.00000000  0.47117400  0.85115400  1
  Hg  Hg0  1  0.21379800  0.75297500  0.46794300  1
  Hg  Hg1  1  0.78620200  0.74702500  0.96794300  1
  Hg  Hg2  1  0.78620200  0.25297500  0.03205700  1
  Hg  Hg3  1  0.78620200  0.24702500  0.53205700  1
  Hg  Hg4  1  0.21379800  0.24702500  0.53205700  1
  Hg  Hg5  1  0.21379800  0.25297500  0.03205700  1
  Hg  Hg6  1  0.21379800  0.74702500  0.96794300  1
  Hg  Hg7  1  0.78620200  0.75297500  0.46794300  1
  P  P0  1  0.50000000  0.45618800  0.28590600  1
  P  P1  1  0.50000000  0.54381200  0.71409400  1
  P  P2  1  0.50000000  0.04381200  0.78590600  1
  P  P3  1  0.50000000  0.95618800  0.21409400  1
  O  O0  1  0.29071000  0.04862400  0.19728100  1
  O  O1  1  0.50000000  0.11618900  0.63577500  1
  O  O2  1  0.50000000  0.82876900  0.09788400  1
  O  O3  1  0.50000000  0.17123100  0.90211600  1
  O  O4  1  0.70929000  0.45137600  0.69728100  1
  O  O5  1  0.50000000  0.32876900  0.40211600  1
  O  O6  1  0.29071000  0.95137600  0.80271900  1
  O  O7  1  0.50000000  0.88381100  0.36422500  1
  O  O8  1  0.70929000  0.95137600  0.80271900  1
  O  O9  1  0.50000000  0.61618900  0.86422500  1
  O  O10  1  0.29071000  0.54862400  0.30271900  1
  O  O11  1  0.70929000  0.04862400  0.19728100  1
  O  O12  1  0.50000000  0.38381100  0.13577500  1
  O  O13  1  0.50000000  0.67123100  0.59788400  1
  O  O14  1  0.70929000  0.54862400  0.30271900  1
  O  O15  1  0.29071000  0.45137600  0.69728100  1
loop_
_geom_bond_atom_site_label_1
_geom_bond_atom_site_label_2
_geom_bond_distance
_geom_bond_site_symmetry_2
Ag0 O14 2.342909 1_455
Ag0 O10 2.342909 1_555
Ag1 O11 2.342909 1_455
Ag1 O0 2.342909 1_555
Ag2 O8 2.342909 1_455
Ag2 O6 2.342909 1_555
Ag3 O15 2.342909 1_555
Ag3 O4 2.342909 1_455
Hg0 O13 2.295044 1_555
Hg0 O7 2.352050 1_555
Hg0 O10 2.442064 1_555
Hg1 O2 2.295044 1_556
Hg1 O9 2.352050 1_555
Hg1 O8 2.442064 1_555
Hg2 O3 2.295044 1_554
Hg2 O12 2.352050 1_555
Hg2 O11 2.442064 1_555
Hg3 O5 2.295044 1_555
Hg3 O1 2.352050 1_555
Hg3 O4 2.442064 1_555
Hg4 O5 2.295044 1_555
Hg4 O1 2.352050 1_555
Hg4 O15 2.442064 1_555
Hg5 O3 2.295044 1_554
Hg5 O12 2.352050 1_555
Hg5 O0 2.442064 1_555
Hg6 O2 2.295044 1_556
Hg6 O9 2.352050 1_555
Hg6 O6 2.442064 1_555
Hg7 O13 2.295044 1_555
Hg7 O7 2.352050 1_555
Hg7 O14 2.442064 1_555
O0 P3 1.554836 1_545
O1 P2 1.562688 1_555
O2 P3 1.577586 1_555
O3 P2 1.577586 1_555
O4 P1 1.554836 1_555
O5 P0 1.577586 1_555
O6 P2 1.554836 1_565
O7 P3 1.562688 1_555
O8 P2 1.554836 1_565
O9 P1 1.562688 1_555
O10 P0 1.554836 1_555
O11 P3 1.554836 1_545
O12 P0 1.562688 1_555
O13 P1 1.577586 1_555
O14 P0 1.554836 1_555
O15 P1 1.554836 1_555
