# generated using pymatgen
data_KMoPClO5
_symmetry_space_group_name_H-M   'P 1'
_cell_length_a   6.55381400
_cell_length_b   6.55381400
_cell_length_c   7.43011900
_cell_angle_alpha   90.00000000
_cell_angle_beta   90.00000000
_cell_angle_gamma   90.00000000
_symmetry_Int_Tables_number   1
_chemical_formula_structural   KMoPClO5
_chemical_formula_sum   'K2 Mo2 P2 Cl2 O10'
_cell_volume   319.14202249
_cell_formula_units_Z   2
loop_
 _symmetry_equiv_pos_site_id
 _symmetry_equiv_pos_as_xyz
  1  'x, y, z'
loop_
 _atom_site_type_symbol
 _atom_site_label
 _atom_site_symmetry_multiplicity
 _atom_site_fract_x
 _atom_site_fract_y
 _atom_site_fract_z
 _atom_site_occupancy
  K  K0  1  0.00000000  0.00000000  0.50000000  1
  K  K1  1  0.50000000  0.50000000  0.50000000  1
  Mo  Mo0  1  0.50000000  0.00000000  0.09527300  1
  Mo  Mo1  1  0.00000000  0.50000000  0.90472700  1
  P  P0  1  0.50000000  0.50000000  0.00000000  1
  P  P1  1  0.00000000  0.00000000  0.00000000  1
  Cl  Cl0  1  0.00000000  0.50000000  0.55495500  1
  Cl  Cl1  1  0.50000000  0.00000000  0.44504500  1
  O  O0  1  0.50000000  0.31372700  0.12844300  1
  O  O1  1  0.00000000  0.81372700  0.87155700  1
  O  O2  1  0.68627300  0.50000000  0.87155700  1
  O  O3  1  0.00000000  0.50000000  0.13377000  1
  O  O4  1  0.81372700  0.00000000  0.12844300  1
  O  O5  1  0.18627300  0.00000000  0.12844300  1
  O  O6  1  0.00000000  0.18627300  0.87155700  1
  O  O7  1  0.31372700  0.50000000  0.87155700  1
  O  O8  1  0.50000000  0.00000000  0.86623000  1
  O  O9  1  0.50000000  0.68627300  0.12844300  1
loop_
_geom_bond_atom_site_label_1
_geom_bond_atom_site_label_2
_geom_bond_distance
_geom_bond_site_symmetry_2
K0 O5 3.018590 1_555
K0 O1 3.018590 1_545
K0 O6 3.018590 1_555
K0 O4 3.018590 1_455
K1 O2 3.018590 1_555
K1 O9 3.018590 1_555
K1 O0 3.018590 1_555
K1 O7 3.018590 1_555
Mo0 O8 1.701817 1_554
Mo0 O9 2.070827 1_545
Mo0 O5 2.070827 1_555
Mo0 O0 2.070827 1_555
Mo0 O4 2.070827 1_555
Mo1 O3 1.701817 1_556
Mo1 O2 2.070827 1_455
Mo1 O6 2.070827 1_555
Mo1 O1 2.070827 1_555
Mo1 O7 2.070827 1_555
Cl0 Mo1 2.598848 1_555
Cl0 K0 3.302249 1_565
Cl0 K1 3.302249 1_455
Cl0 K0 3.302249 1_555
Cl0 K1 3.302249 1_555
Cl1 Mo0 2.598848 1_555
Cl1 K0 3.302249 1_655
Cl1 K1 3.302249 1_545
Cl1 K0 3.302249 1_555
Cl1 K1 3.302249 1_555
O0 P0 1.549557 1_555
O1 P1 1.549557 1_566
O2 P0 1.549557 1_556
O4 P1 1.549557 1_655
O5 P1 1.549557 1_555
O6 P1 1.549557 1_556
O7 P0 1.549557 1_556
O9 P0 1.549557 1_555
