# generated using pymatgen
data_Fe3(CuS5)2
_symmetry_space_group_name_H-M   'P 1'
_cell_length_a   5.55228400
_cell_length_b   5.56515594
_cell_length_c   27.84838257
_cell_angle_alpha   89.80706789
_cell_angle_beta   89.87065204
_cell_angle_gamma   89.92364893
_symmetry_Int_Tables_number   1
_chemical_formula_structural   Fe3(CuS5)2
_chemical_formula_sum   'Fe12 Cu8 S40'
_cell_volume   860.48843300
_cell_formula_units_Z   4
loop_
 _symmetry_equiv_pos_site_id
 _symmetry_equiv_pos_as_xyz
  1  'x, y, z'
loop_
 _atom_site_type_symbol
 _atom_site_label
 _atom_site_symmetry_multiplicity
 _atom_site_fract_x
 _atom_site_fract_y
 _atom_site_fract_z
 _atom_site_occupancy
  Fe  Fe0  1  0.99856300  0.99080000  0.19899400  1
  Fe  Fe1  1  0.99779200  0.00923500  0.39999100  1
  Fe  Fe2  1  0.50003800  0.99934300  0.70094800  1
  Fe  Fe3  1  0.00249200  0.99467400  0.79933000  1
  Fe  Fe4  1  0.00258500  0.49483400  0.10016700  1
  Fe  Fe5  1  0.50391100  0.49766500  0.00162900  1
  Fe  Fe6  1  0.99762400  0.50771100  0.49919400  1
  Fe  Fe7  1  0.00275400  0.49409100  0.70071600  1
  Fe  Fe8  1  0.49531800  0.99363500  0.09995700  1
  Fe  Fe9  1  0.49838800  0.99995600  0.29947100  1
  Fe  Fe10  1  0.50022100  0.00189400  0.49874600  1
  Fe  Fe11  1  0.50638300  0.00445600  0.90113700  1
  Cu  Cu0  1  0.00161400  0.00714500  0.00181000  1
  Cu  Cu1  1  0.49778100  0.49467500  0.19834300  1
  Cu  Cu2  1  0.50035700  0.50058500  0.59982200  1
  Cu  Cu3  1  0.99853500  0.49999400  0.29940500  1
  Cu  Cu4  1  0.49960200  0.50334000  0.40062600  1
  Cu  Cu5  1  0.49816900  0.50181400  0.79982000  1
  Cu  Cu6  1  0.99784400  0.50699200  0.89997900  1
  Cu  Cu7  1  0.00026400  0.00018800  0.59984200  1
  S  S0  1  0.12036600  0.11825000  0.08088800  1
  S  S1  1  0.38267400  0.09025700  0.17586400  1
  S  S2  1  0.11799300  0.09316200  0.27492700  1
  S  S3  1  0.12478900  0.12043400  0.68106500  1
  S  S4  1  0.37560400  0.09710200  0.37531700  1
  S  S5  1  0.11347700  0.11796400  0.47642300  1
  S  S6  1  0.40056200  0.10134500  0.57517200  1
  S  S7  1  0.38514300  0.09293800  0.77656600  1
  S  S8  1  0.40522800  0.11856600  0.97677100  1
  S  S9  1  0.11996300  0.09463700  0.87602100  1
  S  S10  1  0.61434600  0.38087000  0.07795600  1
  S  S11  1  0.90546400  0.37894700  0.17597000  1
  S  S12  1  0.89539700  0.38055000  0.37945100  1
  S  S13  1  0.59850100  0.37848700  0.27958900  1
  S  S14  1  0.90239100  0.40014600  0.57515100  1
  S  S15  1  0.61645600  0.38395800  0.48047800  1
  S  S16  1  0.91045100  0.38221700  0.77696900  1
  S  S17  1  0.62447800  0.37792500  0.68187200  1
  S  S18  1  0.60107300  0.37814400  0.88020800  1
  S  S19  1  0.87862900  0.40512500  0.98035400  1
  S  S20  1  0.37770400  0.61641200  0.11953000  1
  S  S21  1  0.39819000  0.62114100  0.31939200  1
  S  S22  1  0.11572900  0.59332900  0.02462500  1
  S  S23  1  0.37578500  0.62337700  0.51795000  1
  S  S24  1  0.09968000  0.61897600  0.21946200  1
  S  S25  1  0.38361300  0.61757300  0.71915000  1
  S  S26  1  0.08968700  0.62044900  0.42278100  1
  S  S27  1  0.09793800  0.60050200  0.62452400  1
  S  S28  1  0.40816900  0.61754500  0.92499000  1
  S  S29  1  0.10454900  0.62282400  0.82047100  1
  S  S30  1  0.88213100  0.88111500  0.12271300  1
  S  S31  1  0.59452800  0.87817400  0.02488400  1
  S  S32  1  0.62095300  0.90241700  0.22367200  1
  S  S33  1  0.87887900  0.90683400  0.32403500  1
  S  S34  1  0.87543400  0.88093600  0.51859500  1
  S  S35  1  0.88694500  0.88351000  0.72325100  1
  S  S36  1  0.59963900  0.89983600  0.62449300  1
  S  S37  1  0.61416800  0.90997200  0.42304500  1
  S  S38  1  0.88067100  0.90553500  0.92138200  1
  S  S39  1  0.62238500  0.90549000  0.82411600  1
loop_
_geom_bond_atom_site_label_1
_geom_bond_atom_site_label_2
_geom_bond_distance
_geom_bond_site_symmetry_2
Fe0 S24 2.216380 1_655
Fe0 S32 2.259186 1_555
Fe0 S2 2.291562 1_665
Fe0 S1 2.294381 1_665
Fe0 S30 2.306332 1_555
Fe0 S11 2.309444 1_565
Fe1 S12 2.216056 1_555
Fe1 S4 2.259569 1_655
Fe1 S37 2.291020 1_545
Fe1 S33 2.291373 1_545
Fe1 S5 2.307625 1_655
Fe1 S26 2.309503 1_645
Fe2 S3 2.258451 1_565
Fe2 S7 2.261251 1_565
Fe2 S36 2.268825 1_555
Fe2 S25 2.276775 1_555
Fe2 S17 2.278852 1_565
Fe2 S35 2.327185 1_555
Fe3 S29 2.222682 1_555
Fe3 S39 2.273926 1_455
Fe3 S7 2.282429 1_565
Fe3 S16 2.299980 1_465
Fe3 S35 2.301982 1_455
Fe3 S9 2.304658 1_565
Fe4 S20 2.257822 1_555
Fe4 S22 2.260074 1_555
Fe4 S0 2.260621 1_555
Fe4 S11 2.269277 1_455
Fe4 S10 2.333198 1_455
Fe4 S30 2.337978 1_455
Fe5 S19 2.222281 1_554
Fe5 S31 2.273827 1_555
Fe5 S8 2.290214 1_554
Fe5 S28 2.297255 1_554
Fe5 S10 2.304794 1_555
Fe5 S22 2.309082 1_555
Fe6 S34 2.251330 1_555
Fe6 S14 2.258230 1_555
Fe6 S23 2.259768 1_655
Fe6 S26 2.273800 1_655
Fe6 S15 2.288276 1_555
Fe6 S5 2.350356 1_655
Fe7 S3 2.254988 1_555
Fe7 S17 2.261736 1_455
Fe7 S27 2.262618 1_555
Fe7 S16 2.268624 1_455
Fe7 S25 2.284429 1_555
Fe7 S35 2.346822 1_455
Fe8 S31 2.256120 1_555
Fe8 S0 2.257359 1_565
Fe8 S20 2.263840 1_555
Fe8 S1 2.269276 1_565
Fe8 S30 2.325123 1_555
Fe8 S10 2.334384 1_565
Fe9 S13 2.246578 1_565
Fe9 S21 2.248440 1_555
Fe9 S2 2.279968 1_565
Fe9 S33 2.280525 1_555
Fe9 S32 2.283378 1_555
Fe9 S4 2.284423 1_565
Fe10 S34 2.257815 1_545
Fe10 S37 2.259787 1_545
Fe10 S6 2.268068 1_555
Fe10 S15 2.278404 1_555
Fe10 S23 2.279331 1_545
Fe10 S5 2.326862 1_555
Fe11 S18 2.221339 1_555
Fe11 S38 2.222565 1_545
Fe11 S8 2.271094 1_555
Fe11 S39 2.306423 1_545
Fe11 S9 2.312112 1_555
Fe11 S28 2.316643 1_545
Cu0 S0 2.384014 1_555
Cu0 S19 2.391158 1_454
Cu0 S38 2.409083 1_444
Cu0 S8 2.426199 1_554
Cu0 S31 2.455907 1_445
Cu0 S22 2.469167 1_545
Cu1 S24 2.388085 1_555
Cu1 S20 2.390832 1_555
Cu1 S13 2.417633 1_555
Cu1 S1 2.425054 1_555
Cu1 S11 2.432939 1_555
Cu1 S32 2.476161 1_555
Cu2 S36 2.393318 1_555
Cu2 S6 2.393754 1_555
Cu2 S14 2.399907 1_555
Cu2 S27 2.401466 1_555
Cu2 S23 2.477731 1_555
Cu2 S17 2.481391 1_555
Cu3 S24 2.386542 1_655
Cu3 S21 2.387551 1_655
Cu3 S13 2.388960 1_555
Cu3 S12 2.392525 1_555
Cu3 S2 2.456628 1_655
Cu3 S33 2.458153 1_555
Cu4 S12 2.374206 1_555
Cu4 S15 2.408905 1_555
Cu4 S21 2.420603 1_555
Cu4 S37 2.435282 1_555
Cu4 S26 2.444963 1_555
Cu4 S4 2.469604 1_555
Cu5 S29 2.356615 1_555
Cu5 S18 2.409594 1_555
Cu5 S25 2.421173 1_555
Cu5 S39 2.448832 1_555
Cu5 S7 2.450809 1_555
Cu5 S16 2.465801 1_555
Cu6 S29 2.377934 1_655
Cu6 S18 2.383865 1_555
Cu6 S38 2.387706 1_555
Cu6 S19 2.399026 1_555
Cu6 S28 2.463296 1_655
Cu6 S9 2.484995 1_655
Cu7 S27 2.387951 1_545
Cu7 S14 2.389681 1_455
Cu7 S6 2.392187 1_555
Cu7 S36 2.392672 1_445
Cu7 S34 2.461419 1_445
Cu7 S3 2.461840 1_555
S0 S30 2.198923 1_445
S1 S32 2.147217 1_545
S2 S33 2.166574 1_445
S3 S35 2.202227 1_445
S10 S20 2.187191 1_555
S11 S24 2.105890 1_655
S12 S26 2.103034 1_655
S13 S21 2.071165 1_555
S14 S27 2.081555 1_655
S15 S23 2.155972 1_555
S16 S29 2.107765 1_655
S17 S25 2.154815 1_555
S18 S28 2.116324 1_555
S19 S22 2.090389 1_656
S31 S8 2.163388 1_564
S34 S5 2.203029 1_665
S36 S6 2.087839 1_565
S37 S4 2.144904 1_565
S38 S9 2.110848 1_665
S39 S7 2.138158 1_565
