# generated using pymatgen
data_K4Cu4Cl10O
_symmetry_space_group_name_H-M   'P 1'
_cell_length_a   10.44791895
_cell_length_b   10.44787867
_cell_length_c   8.91236968
_cell_angle_alpha   80.20857478
_cell_angle_beta   80.20817912
_cell_angle_gamma   90.86900578
_symmetry_Int_Tables_number   1
_chemical_formula_structural   K4Cu4Cl10O
_chemical_formula_sum   'K8 Cu8 Cl20 O2'
_cell_volume   943.75016071
_cell_formula_units_Z   2
loop_
 _symmetry_equiv_pos_site_id
 _symmetry_equiv_pos_as_xyz
  1  'x, y, z'
loop_
 _atom_site_type_symbol
 _atom_site_label
 _atom_site_symmetry_multiplicity
 _atom_site_fract_x
 _atom_site_fract_y
 _atom_site_fract_z
 _atom_site_occupancy
  K  K0  1  0.29353462  0.44585121  0.13280845  1
  K  K1  1  0.71168085  0.97014260  0.87676105  1
  K  K2  1  0.97014779  0.71168517  0.37675852  1
  K  K3  1  0.55417284  0.70647845  0.36719185  1
  K  K4  1  0.44582716  0.29352155  0.63280815  1
  K  K5  1  0.02985221  0.28831483  0.62324148  1
  K  K6  1  0.70646538  0.55414879  0.86719155  1
  K  K7  1  0.28831915  0.02985740  0.12323895  1
  Cu  Cu0  1  0.95046134  0.23308552  0.11601832  1
  Cu  Cu1  1  0.04953866  0.76691448  0.88398168  1
  Cu  Cu2  1  0.64461190  0.23229948  0.13140856  1
  Cu  Cu3  1  0.76770152  0.35539110  0.36859008  1
  Cu  Cu4  1  0.23229848  0.64460890  0.63140992  1
  Cu  Cu5  1  0.35538810  0.76770052  0.86859144  1
  Cu  Cu6  1  0.76691397  0.04953980  0.38398490  1
  Cu  Cu7  1  0.23308603  0.95046020  0.61601510  1
  Cl  Cl0  1  0.14443363  0.26498140  0.95842144  1
  Cl  Cl1  1  0.97910397  0.02089656  0.24999969  1
  Cl  Cl2  1  0.73501777  0.85556983  0.54157966  1
  Cl  Cl3  1  0.40083722  0.99029546  0.77478685  1
  Cl  Cl4  1  0.26203275  0.49438649  0.47807796  1
  Cl  Cl5  1  0.00970422  0.59916313  0.72521407  1
  Cl  Cl6  1  0.82581268  0.27491179  0.91720271  1
  Cl  Cl7  1  0.41526753  0.58473188  0.74999837  1
  Cl  Cl8  1  0.49439196  0.26204142  0.97807851  1
  Cl  Cl9  1  0.02089603  0.97910344  0.75000031  1
  Cl  Cl10  1  0.27491422  0.82581014  0.41720109  1
  Cl  Cl11  1  0.99029578  0.40083687  0.27478593  1
  Cl  Cl12  1  0.85556637  0.73501860  0.04157856  1
  Cl  Cl13  1  0.73796725  0.50561351  0.52192204  1
  Cl  Cl14  1  0.59916278  0.00970454  0.22521315  1
  Cl  Cl15  1  0.72508578  0.17418986  0.58279891  1
  Cl  Cl16  1  0.17418732  0.72508821  0.08279729  1
  Cl  Cl17  1  0.58473247  0.41526812  0.25000163  1
  Cl  Cl18  1  0.26498223  0.14443017  0.45842034  1
  Cl  Cl19  1  0.50560804  0.73795858  0.02192149  1
  O  O0  1  0.21720534  0.78279364  0.75000008  1
  O  O1  1  0.78279466  0.21720636  0.24999992  1
loop_
_geom_bond_atom_site_label_1
_geom_bond_atom_site_label_2
_geom_bond_distance
_geom_bond_site_symmetry_2
Cu0 O1 1.932456 1_555
Cu1 O0 1.932456 1_555
Cu2 O1 1.922379 1_555
Cu3 O1 1.922378 1_555
Cu4 O0 1.922378 1_555
Cu5 O0 1.922379 1_555
Cu6 O1 1.932470 1_555
Cu7 O0 1.932470 1_555
Cl0 Cu0 2.245684 1_456
Cl0 K7 3.176169 1_556
Cl0 K0 3.185344 1_556
Cl0 K5 3.375464 1_555
Cl1 Cu0 2.381481 1_555
Cl1 Cu6 2.381502 1_555
Cl1 K2 3.230380 1_545
Cl1 K7 3.230422 1_655
Cl2 Cu6 2.245657 1_565
Cl2 K2 3.176213 1_555
Cl2 K3 3.185121 1_555
Cl2 K1 3.375417 1_555
Cl3 Cu5 2.345892 1_555
Cl3 Cu7 2.503810 1_555
Cl3 K4 3.201219 1_565
Cl3 K7 3.225947 1_566
Cl3 K1 3.518134 1_555
Cl4 Cu4 2.242144 1_555
Cl4 K5 3.165512 1_555
Cl4 K0 3.166346 1_555
Cl4 K4 3.167319 1_555
Cl4 K3 3.636921 1_555
Cl5 Cu4 2.345884 1_555
Cl5 Cu1 2.503772 1_555
Cl5 K6 3.201360 1_455
Cl5 K2 3.225977 1_455
Cl5 K5 3.518155 1_555
Cl6 Cu0 2.359130 1_556
Cl6 Cu2 2.425473 1_556
Cl6 K5 3.065035 1_655
Cl6 K6 3.181514 1_555
Cl6 K1 3.480269 1_545
Cl7 Cu4 2.379372 1_555
Cl7 Cu5 2.379381 1_555
Cl7 K6 3.383211 1_555
Cl7 K4 3.383291 1_555
Cl7 K0 3.485305 1_556
Cl7 K3 3.485368 1_555
Cl8 Cu2 2.242128 1_556
Cl8 K7 3.165539 1_556
Cl8 K4 3.166474 1_555
Cl8 K0 3.167369 1_556
Cl8 K6 3.636544 1_555
Cl9 Cu1 2.381481 1_555
Cl9 Cu7 2.381502 1_555
Cl9 K5 3.230380 1_565
Cl9 K1 3.230422 1_455
Cl10 Cu7 2.359118 1_555
Cl10 Cu4 2.425497 1_555
Cl10 K7 3.065090 1_565
Cl10 K3 3.181650 1_555
Cl10 K2 3.480231 1_455
Cl11 Cu3 2.345884 1_555
Cl11 Cu0 2.503772 1_555
Cl11 K0 3.201360 1_655
Cl11 K5 3.225977 1_655
Cl11 K2 3.518155 1_555
Cl12 Cu1 2.245684 1_654
Cl12 K1 3.176169 1_554
Cl12 K6 3.185344 1_554
Cl12 K2 3.375464 1_555
Cl13 Cu3 2.242144 1_555
Cl13 K2 3.165512 1_555
Cl13 K6 3.166346 1_555
Cl13 K3 3.167319 1_555
Cl13 K4 3.636921 1_555
Cl14 Cu2 2.345892 1_555
Cl14 Cu6 2.503810 1_555
Cl14 K3 3.201219 1_545
Cl14 K1 3.225947 1_544
Cl14 K7 3.518134 1_555
Cl15 Cu6 2.359118 1_555
Cl15 Cu3 2.425497 1_555
Cl15 K1 3.065090 1_545
Cl15 K4 3.181650 1_555
Cl15 K5 3.480231 1_655
Cl16 Cu1 2.359130 1_554
Cl16 Cu5 2.425473 1_554
Cl16 K2 3.065035 1_455
Cl16 K0 3.181514 1_555
Cl16 K7 3.480269 1_565
Cl17 Cu3 2.379372 1_555
Cl17 Cu2 2.379381 1_555
Cl17 K0 3.383211 1_555
Cl17 K3 3.383291 1_555
Cl17 K6 3.485305 1_554
Cl17 K4 3.485368 1_555
Cl18 Cu7 2.245657 1_545
Cl18 K5 3.176213 1_555
Cl18 K4 3.185121 1_555
Cl18 K7 3.375417 1_555
Cl19 Cu5 2.242128 1_554
Cl19 K1 3.165539 1_554
Cl19 K3 3.166474 1_555
Cl19 K6 3.167369 1_554
Cl19 K0 3.636544 1_555
