# generated using pymatgen
data_CuBi3PbS6
_symmetry_space_group_name_H-M   'P 1'
_cell_length_a   4.04192200
_cell_length_b   11.15923500
_cell_length_c   11.80751300
_cell_angle_alpha   90.00000000
_cell_angle_beta   90.00000000
_cell_angle_gamma   90.00000000
_symmetry_Int_Tables_number   1
_chemical_formula_structural   CuBi3PbS6
_chemical_formula_sum   'Cu2 Bi6 Pb2 S12'
_cell_volume   532.57500995
_cell_formula_units_Z   2
loop_
 _symmetry_equiv_pos_site_id
 _symmetry_equiv_pos_as_xyz
  1  'x, y, z'
loop_
 _atom_site_type_symbol
 _atom_site_label
 _atom_site_symmetry_multiplicity
 _atom_site_fract_x
 _atom_site_fract_y
 _atom_site_fract_z
 _atom_site_occupancy
  Cu  Cu0  1  0.00000000  0.46085100  0.63924200  1
  Cu  Cu1  1  0.00000000  0.53914900  0.13924200  1
  Bi  Bi0  1  0.00000000  0.92186800  0.42721200  1
  Bi  Bi1  1  0.00000000  0.07813200  0.92721200  1
  Bi  Bi2  1  0.50000000  0.56499900  0.39367400  1
  Bi  Bi3  1  0.50000000  0.43500100  0.89367400  1
  Bi  Bi4  1  0.50000000  0.21295900  0.56220900  1
  Bi  Bi5  1  0.50000000  0.78704100  0.06220900  1
  Pb  Pb0  1  0.00000000  0.25314600  0.23425800  1
  Pb  Pb1  1  0.00000000  0.74685400  0.73425800  1
  S  S0  1  0.50000000  0.79869700  0.52873200  1
  S  S1  1  0.50000000  0.20130300  0.02873200  1
  S  S2  1  0.50000000  0.10714000  0.36358500  1
  S  S3  1  0.50000000  0.89286000  0.86358500  1
  S  S4  1  0.50000000  0.44869800  0.19298200  1
  S  S5  1  0.50000000  0.55130200  0.69298200  1
  S  S6  1  0.00000000  0.68902200  0.28853000  1
  S  S7  1  0.00000000  0.31097800  0.78853000  1
  S  S8  1  0.00000000  0.37807400  0.45909700  1
  S  S9  1  0.00000000  0.62192600  0.95909700  1
  S  S10  1  0.00000000  0.05580700  0.62143000  1
  S  S11  1  0.00000000  0.94419400  0.12143000  1
loop_
_geom_bond_atom_site_label_1
_geom_bond_atom_site_label_2
_geom_bond_distance
_geom_bond_site_symmetry_2
Cu0 S8 2.318982 1_555
Cu0 S5 2.346430 1_455
Cu0 S5 2.346430 1_555
Cu0 S7 2.429883 1_555
Cu0 Pb1 3.383019 1_555
Cu1 S9 2.318982 1_554
Cu1 S4 2.346430 1_555
Cu1 S4 2.346430 1_455
Cu1 S6 2.429883 1_555
Cu1 Pb0 3.383019 1_555
Bi0 S0 2.722204 1_455
Bi0 S0 2.722204 1_555
Bi0 S10 2.737318 1_565
Bi0 S2 2.987178 1_465
Bi0 S2 2.987178 1_565
Bi0 S6 3.071314 1_555
Bi1 S1 2.722204 1_456
Bi1 S1 2.722204 1_556
Bi1 S11 2.737312 1_546
Bi1 S3 2.987178 1_445
Bi1 S3 2.987178 1_545
Bi1 S7 3.071314 1_555
Bi2 S4 2.701799 1_555
Bi2 S6 2.746095 1_555
Bi2 S6 2.746095 1_655
Bi2 S8 3.005355 1_655
Bi2 S8 3.005355 1_555
Bi2 S0 3.056822 1_555
Bi3 S5 2.701799 1_555
Bi3 S7 2.746095 1_555
Bi3 S7 2.746095 1_655
Bi3 S9 3.005355 1_655
Bi3 S9 3.005355 1_555
Bi3 S1 3.056822 1_556
Bi4 S2 2.625767 1_555
Bi4 S10 2.765626 1_655
Bi4 S10 2.765626 1_555
Bi4 S8 2.993593 1_655
Bi4 S8 2.993593 1_555
Bi5 S3 2.625767 1_554
Bi5 S11 2.765633 1_555
Bi5 S11 2.765633 1_655
Bi5 S9 2.993593 1_654
Bi5 S9 2.993593 1_554
Pb0 S8 2.998570 1_555
Pb0 S2 3.011772 1_555
Pb0 S2 3.011772 1_455
Pb0 S4 3.013943 1_555
Pb0 S4 3.013943 1_455
Pb0 S1 3.210623 1_455
Pb0 S1 3.210623 1_555
Pb1 S9 2.998570 1_555
Pb1 S3 3.011772 1_455
Pb1 S3 3.011772 1_555
Pb1 S5 3.013943 1_455
Pb1 S5 3.013943 1_555
Pb1 S0 3.210623 1_555
Pb1 S0 3.210623 1_455
