# generated using pymatgen
data_Sm2Tc2O7
_symmetry_space_group_name_H-M   'P 1'
_cell_length_a   7.32985885
_cell_length_b   7.32985885
_cell_length_c   7.32985885
_cell_angle_alpha   60.00000000
_cell_angle_beta   60.00000000
_cell_angle_gamma   60.00000000
_symmetry_Int_Tables_number   1
_chemical_formula_structural   Sm2Tc2O7
_chemical_formula_sum   'Sm4 Tc4 O14'
_cell_volume   278.46578259
_cell_formula_units_Z   2
loop_
 _symmetry_equiv_pos_site_id
 _symmetry_equiv_pos_as_xyz
  1  'x, y, z'
loop_
 _atom_site_type_symbol
 _atom_site_label
 _atom_site_symmetry_multiplicity
 _atom_site_fract_x
 _atom_site_fract_y
 _atom_site_fract_z
 _atom_site_occupancy
  Sm  Sm0  1  0.62500000  0.12500000  0.62500000  1
  Sm  Sm1  1  0.62500000  0.62500000  0.62500000  1
  Sm  Sm2  1  0.12500000  0.62500000  0.62500000  1
  Sm  Sm3  1  0.62500000  0.62500000  0.12500000  1
  Tc  Tc0  1  0.12500000  0.62500000  0.12500000  1
  Tc  Tc1  1  0.62500000  0.12500000  0.12500000  1
  Tc  Tc2  1  0.12500000  0.12500000  0.62500000  1
  Tc  Tc3  1  0.12500000  0.12500000  0.12500000  1
  O  O0  1  0.20841346  0.20841346  0.79158654  1
  O  O1  1  0.20841346  0.79158654  0.20841346  1
  O  O2  1  0.79158654  0.79158654  0.20841346  1
  O  O3  1  0.04158654  0.45841346  0.04158654  1
  O  O4  1  0.45841346  0.04158654  0.04158654  1
  O  O5  1  0.20841346  0.79158654  0.79158654  1
  O  O6  1  0.75000000  0.75000000  0.75000000  1
  O  O7  1  0.79158654  0.20841346  0.20841346  1
  O  O8  1  0.04158654  0.45841346  0.45841346  1
  O  O9  1  0.50000000  0.50000000  0.50000000  1
  O  O10  1  0.45841346  0.04158654  0.45841346  1
  O  O11  1  0.04158654  0.04158654  0.45841346  1
  O  O12  1  0.45841346  0.45841346  0.04158654  1
  O  O13  1  0.79158654  0.20841346  0.79158654  1
loop_
_geom_bond_atom_site_label_1
_geom_bond_atom_site_label_2
_geom_bond_distance
_geom_bond_site_symmetry_2
O0 Tc2 2.026220 1_555
O0 Tc3 2.026220 1_556
O0 Sm2 2.517912 1_555
O0 Sm0 2.517912 1_555
O1 Tc0 2.026220 1_555
O1 Tc3 2.026220 1_565
O1 Sm2 2.517912 1_555
O1 Sm3 2.517912 1_555
O2 Tc1 2.026220 1_565
O2 Tc0 2.026220 1_655
O2 Sm3 2.517912 1_555
O2 Sm1 2.517912 1_555
O3 Tc3 2.026220 1_555
O3 Tc0 2.026220 1_555
O3 Sm2 2.517912 1_554
O3 Sm3 2.517912 1_455
O4 Tc3 2.026220 1_555
O4 Tc1 2.026220 1_555
O4 Sm0 2.517912 1_554
O4 Sm3 2.517912 1_545
O5 Tc2 2.026220 1_565
O5 Tc0 2.026220 1_556
O5 Sm2 2.517912 1_555
O5 Sm1 2.517912 1_555
O6 Sm3 2.244302 1_556
O6 Sm1 2.244302 1_555
O6 Sm2 2.244302 1_655
O6 Sm0 2.244302 1_565
O7 Tc1 2.026220 1_555
O7 Tc3 2.026220 1_655
O7 Sm3 2.517912 1_555
O7 Sm0 2.517912 1_555
O8 Tc0 2.026220 1_555
O8 Tc2 2.026220 1_555
O8 Sm2 2.517912 1_555
O8 Sm1 2.517912 1_455
O9 Sm2 2.244302 1_555
O9 Sm1 2.244302 1_555
O9 Sm0 2.244302 1_555
O9 Sm3 2.244302 1_555
O10 Tc1 2.026220 1_555
O10 Tc2 2.026220 1_555
O10 Sm1 2.517912 1_545
O10 Sm0 2.517912 1_555
O11 Tc3 2.026220 1_555
O11 Tc2 2.026220 1_555
O11 Sm0 2.517912 1_455
O11 Sm2 2.517912 1_545
O12 Tc1 2.026220 1_555
O12 Tc0 2.026220 1_555
O12 Sm3 2.517912 1_555
O12 Sm1 2.517912 1_554
O13 Tc1 2.026220 1_556
O13 Tc2 2.026220 1_655
O13 Sm0 2.517912 1_555
O13 Sm1 2.517912 1_555
