# generated using pymatgen
data_Al(HO)3
_symmetry_space_group_name_H-M   'P 1'
_cell_length_a   8.76280600
_cell_length_b   5.12345800
_cell_length_c   10.77875214
_cell_angle_alpha   61.89795914
_cell_angle_beta   90.00000000
_cell_angle_gamma   90.00000000
_symmetry_Int_Tables_number   1
_chemical_formula_structural   Al(HO)3
_chemical_formula_sum   'Al8 H24 O24'
_cell_volume   426.87198294
_cell_formula_units_Z   8
loop_
 _symmetry_equiv_pos_site_id
 _symmetry_equiv_pos_as_xyz
  1  'x, y, z'
loop_
 _atom_site_type_symbol
 _atom_site_label
 _atom_site_symmetry_multiplicity
 _atom_site_fract_x
 _atom_site_fract_y
 _atom_site_fract_z
 _atom_site_occupancy
  Al  Al0  1  0.83218100  0.03509600  0.49648100  1
  Al  Al1  1  0.33447900  0.47116400  0.50355400  1
  Al  Al2  1  0.66781900  0.03509600  0.99648100  1
  Al  Al3  1  0.16552100  0.47116400  0.00355400  1
  Al  Al4  1  0.33218100  0.96490400  0.00351900  1
  Al  Al5  1  0.66552100  0.52883600  0.49644600  1
  Al  Al6  1  0.83447900  0.52883600  0.99644600  1
  Al  Al7  1  0.16781900  0.96490400  0.50351900  1
  H  H0  1  0.91661800  0.82865500  0.11422300  1
  H  H1  1  0.72930900  0.46684400  0.28865200  1
  H  H2  1  0.46229400  0.43408200  0.87394900  1
  H  H3  1  0.09610400  0.21006600  0.64563600  1
  H  H4  1  0.22930900  0.53315600  0.21134800  1
  H  H5  1  0.49421400  0.75336600  0.29304600  1
  H  H6  1  0.53770600  0.56591800  0.12605100  1
  H  H7  1  0.79349100  0.11242000  0.70521400  1
  H  H8  1  0.27069100  0.53315600  0.71134800  1
  H  H9  1  0.03770600  0.43408200  0.37394900  1
  H  H10  1  0.08338200  0.17134500  0.88577700  1
  H  H11  1  0.90389600  0.78993400  0.35436400  1
  H  H12  1  0.96229400  0.56591800  0.62605100  1
  H  H13  1  0.40389600  0.21006600  0.14563600  1
  H  H14  1  0.20650900  0.88758000  0.29478600  1
  H  H15  1  0.59610400  0.78993400  0.85436400  1
  H  H16  1  0.50578600  0.24663400  0.70695400  1
  H  H17  1  0.99421400  0.24663400  0.20695400  1
  H  H18  1  0.00578600  0.75336600  0.79304600  1
  H  H19  1  0.77069100  0.46684400  0.78865200  1
  H  H20  1  0.58338200  0.82865500  0.61422300  1
  H  H21  1  0.29349100  0.88758000  0.79478600  1
  H  H22  1  0.41661800  0.17134500  0.38577700  1
  H  H23  1  0.70650900  0.11242000  0.20521400  1
  O  O0  1  0.82098500  0.74396400  0.10260500  1
  O  O1  1  0.98870900  0.76504500  0.61007700  1
  O  O2  1  0.00915400  0.73494500  0.88824900  1
  O  O3  1  0.99084600  0.26505500  0.11175100  1
  O  O4  1  0.69228700  0.83782000  0.88404100  1
  O  O5  1  0.50915400  0.26505500  0.61175100  1
  O  O6  1  0.80461100  0.33566000  0.88533100  1
  O  O7  1  0.19228700  0.16218000  0.61595900  1
  O  O8  1  0.19538900  0.66434000  0.11466900  1
  O  O9  1  0.48870900  0.23495500  0.88992300  1
  O  O10  1  0.17901500  0.25603600  0.89739500  1
  O  O11  1  0.51129100  0.76504500  0.11007700  1
  O  O12  1  0.32098500  0.25603600  0.39739500  1
  O  O13  1  0.67901500  0.74396400  0.60260500  1
  O  O14  1  0.30771300  0.16218000  0.11595900  1
  O  O15  1  0.30461100  0.66434000  0.61466900  1
  O  O16  1  0.80771300  0.83782000  0.38404100  1
  O  O17  1  0.69538900  0.33566000  0.38533100  1
  O  O18  1  0.67441000  0.24353600  0.10736200  1
  O  O19  1  0.17441000  0.75646400  0.39263800  1
  O  O20  1  0.01129100  0.23495500  0.38992300  1
  O  O21  1  0.82559000  0.24353600  0.60736200  1
  O  O22  1  0.49084600  0.73494500  0.38824900  1
  O  O23  1  0.32559000  0.75646400  0.89263800  1
loop_
_geom_bond_atom_site_label_1
_geom_bond_atom_site_label_2
_geom_bond_distance
_geom_bond_site_symmetry_2
Al0 O17 1.872293 1_555
Al0 O16 1.921052 1_545
Al0 O1 1.923254 1_545
Al0 O20 1.929528 1_655
Al0 O13 1.930634 1_545
Al0 O21 1.942847 1_555
Al1 O15 1.897165 1_555
Al1 O5 1.912556 1_555
Al1 O22 1.914740 1_555
Al1 O7 1.928631 1_555
Al1 O12 1.930369 1_555
Al1 O19 1.971558 1_555
Al2 O6 1.872293 1_555
Al2 O4 1.921052 1_545
Al2 O11 1.923254 1_546
Al2 O9 1.929528 1_555
Al2 O0 1.930634 1_546
Al2 O18 1.942847 1_556
Al3 O8 1.897165 1_555
Al3 O3 1.912556 1_455
Al3 O2 1.914740 1_554
Al3 O14 1.928631 1_555
Al3 O10 1.930369 1_554
Al3 O23 1.971558 1_554
Al4 O8 1.872293 1_555
Al4 O14 1.921052 1_565
Al4 O9 1.923254 1_564
Al4 O11 1.929528 1_555
Al4 O10 1.930634 1_564
Al4 O23 1.942847 1_554
Al5 O17 1.897165 1_555
Al5 O22 1.912556 1_555
Al5 O5 1.914740 1_555
Al5 O16 1.928631 1_555
Al5 O13 1.930369 1_555
Al5 O21 1.971558 1_555
Al6 O6 1.897165 1_555
Al6 O2 1.912556 1_655
Al6 O3 1.914740 1_556
Al6 O4 1.928631 1_555
Al6 O0 1.930369 1_556
Al6 O18 1.971558 1_556
Al7 O15 1.872293 1_555
Al7 O7 1.921052 1_565
Al7 O20 1.923254 1_565
Al7 O1 1.929528 1_455
Al7 O12 1.930634 1_565
Al7 O19 1.942847 1_555
H0 O0 0.978477 1_555
H1 O17 0.982945 1_555
H2 O9 0.979072 1_555
H3 O7 0.973046 1_555
H4 O8 0.982945 1_555
H5 O22 0.985679 1_555
H6 O11 0.979072 1_555
H7 O21 0.987589 1_555
H8 O15 0.982945 1_555
H9 O20 0.979072 1_555
H10 O10 0.978477 1_555
H11 O16 0.973046 1_555
H12 O1 0.979072 1_555
H13 O14 0.973046 1_555
H14 O19 0.987589 1_555
H15 O4 0.973046 1_555
H16 O5 0.985679 1_555
H17 O3 0.985679 1_555
H18 O2 0.985679 1_555
H19 O6 0.982945 1_555
H20 O13 0.978477 1_555
H21 O23 0.987589 1_555
H22 O12 0.978477 1_555
H23 O18 0.987589 1_555
