# generated using pymatgen
data_K2V8O21
_symmetry_space_group_name_H-M   'P 1'
_cell_length_a   7.72510253
_cell_length_b   7.72510253
_cell_length_c   14.81556600
_cell_angle_alpha   88.91381431
_cell_angle_beta   88.91381431
_cell_angle_gamma   26.68250319
_symmetry_Int_Tables_number   1
_chemical_formula_structural   K2V8O21
_chemical_formula_sum   'K2 V8 O21'
_cell_volume   396.94954375
_cell_formula_units_Z   1
loop_
 _symmetry_equiv_pos_site_id
 _symmetry_equiv_pos_as_xyz
  1  'x, y, z'
loop_
 _atom_site_type_symbol
 _atom_site_label
 _atom_site_symmetry_multiplicity
 _atom_site_fract_x
 _atom_site_fract_y
 _atom_site_fract_z
 _atom_site_occupancy
  K  K0  1  0.52702123  0.52702123  0.68810856  1
  K  K1  1  0.47297877  0.47297877  0.31189144  1
  V  V0  1  0.68783236  0.68783236  0.92819348  1
  V  V1  1  0.09018644  0.09018644  0.07634462  1
  V  V2  1  0.83185123  0.83185123  0.52102099  1
  V  V3  1  0.18855065  0.18855065  0.27112150  1
  V  V4  1  0.90981356  0.90981356  0.92365538  1
  V  V5  1  0.16814877  0.16814877  0.47897901  1
  V  V6  1  0.31216764  0.31216764  0.07180652  1
  V  V7  1  0.81144935  0.81144935  0.72887850  1
  O  O0  1  0.78671562  0.78671562  0.85885994  1
  O  O1  1  0.29127308  0.29127308  0.52773740  1
  O  O2  1  0.38286555  0.38286555  0.95043264  1
  O  O3  1  0.95597104  0.95597104  0.82364252  1
  O  O4  1  0.04402896  0.04402896  0.17635748  1
  O  O5  1  0.88826478  0.88826478  0.62275813  1
  O  O6  1  0.28556792  0.28556792  0.31472542  1
  O  O7  1  0.33844432  0.33844432  0.73933006  1
  O  O8  1  0.90696079  0.90696079  0.44159431  1
  O  O9  1  0.19409896  0.19409896  0.96646830  1
  O  O10  1  0.38954229  0.38954229  0.14432222  1
  O  O11  1  0.11173522  0.11173522  0.37724187  1
  O  O12  1  0.70872692  0.70872692  0.47226260  1
  O  O13  1  0.71443208  0.71443208  0.68527458  1
  O  O14  1  -0.00000000  -0.00000000  -0.00000000  1
  O  O15  1  0.61713445  0.61713445  0.04956736  1
  O  O16  1  0.21328438  0.21328438  0.14114006  1
  O  O17  1  0.66155568  0.66155568  0.26066994  1
  O  O18  1  0.09303921  0.09303921  0.55840569  1
  O  O19  1  0.61045771  0.61045771  0.85567778  1
  O  O20  1  0.80590104  0.80590104  0.03353170  1
loop_
_geom_bond_atom_site_label_1
_geom_bond_atom_site_label_2
_geom_bond_distance
_geom_bond_site_symmetry_2
K0 O18 2.789419 1_655
K0 O18 2.789419 1_565
K0 O19 2.803235 1_555
K0 O13 2.816889 1_555
K0 O3 2.875234 1_455
K0 O3 2.875234 1_545
K0 O7 2.920421 1_555
K0 O5 2.923166 1_455
K0 O5 2.923166 1_545
K1 O8 2.789419 1_545
K1 O8 2.789419 1_455
K1 O10 2.803235 1_555
K1 O6 2.816889 1_555
K1 O4 2.875234 1_565
K1 O4 2.875234 1_655
K1 O17 2.920421 1_555
K1 O11 2.923166 1_655
K1 O11 2.923166 1_565
O0 V0 1.790381 1_555
O0 V7 1.954191 1_555
O0 V4 2.101277 1_555
O1 V2 1.886059 1_455
O1 V2 1.886059 1_545
O1 V5 1.999996 1_555
O2 V4 1.868903 1_545
O2 V4 1.868903 1_455
O2 V6 2.070923 1_556
O3 V4 1.623886 1_555
O4 V1 1.623886 1_555
O5 V2 1.743840 1_555
O5 V7 1.932538 1_555
O6 V3 1.606620 1_555
O7 V7 1.835395 1_455
O7 V7 1.835395 1_545
O8 V2 1.614909 1_555
O9 V0 1.873519 1_545
O9 V0 1.873519 1_455
O9 V1 2.234099 1_556
O9 V6 2.386214 1_556
O10 V6 1.598738 1_555
O11 V5 1.743840 1_555
O11 V3 1.932538 1_555
O12 V5 1.886059 1_655
O12 V5 1.886059 1_565
O12 V2 1.999996 1_555
O13 V7 1.606620 1_555
O14 V4 1.782497 1_444
O14 V1 1.782497 1_555
O15 V1 1.868903 1_655
O15 V1 1.868903 1_565
O15 V0 2.070923 1_554
O16 V6 1.790381 1_555
O16 V3 1.954191 1_555
O16 V1 2.101277 1_555
O17 V3 1.835395 1_655
O17 V3 1.835395 1_565
O18 V5 1.614909 1_555
O19 V0 1.598738 1_555
O20 V6 1.873519 1_565
O20 V6 1.873519 1_655
O20 V4 2.234099 1_554
O20 V0 2.386214 1_554
