# generated using pymatgen
data_Cs2MnSe2
_symmetry_space_group_name_H-M   'P 1'
_cell_length_a   8.85700304
_cell_length_b   8.85701927
_cell_length_c   8.85692808
_cell_angle_alpha   134.94190576
_cell_angle_beta   129.17726424
_cell_angle_gamma   70.23778015
_symmetry_Int_Tables_number   1
_chemical_formula_structural   Cs2MnSe2
_chemical_formula_sum   'Cs4 Mn2 Se4'
_cell_volume   373.76056427
_cell_formula_units_Z   2
loop_
 _symmetry_equiv_pos_site_id
 _symmetry_equiv_pos_as_xyz
  1  'x, y, z'
loop_
 _atom_site_type_symbol
 _atom_site_label
 _atom_site_symmetry_multiplicity
 _atom_site_fract_x
 _atom_site_fract_y
 _atom_site_fract_z
 _atom_site_occupancy
  Cs  Cs0  1  0.51701605  0.85239141  0.66462439  1
  Cs  Cs1  1  0.48297463  0.14760773  0.33536776  1
  Cs  Cs2  1  0.81222612  0.64760179  0.16461538  1
  Cs  Cs3  1  0.18776337  0.35239618  0.83537535  1
  Mn  Mn0  1  0.00000644  0.25001851  0.25001553  1
  Mn  Mn1  1  -0.00000683  0.74998776  0.74997924  1
  Se  Se0  1  0.08091103  0.90334308  0.17758386  1
  Se  Se1  1  0.72576959  0.40333861  0.32242934  1
  Se  Se2  1  0.91909546  0.09665214  0.82241826  1
  Se  Se3  1  0.27424514  0.59666279  0.67759190  1
loop_
_geom_bond_atom_site_label_1
_geom_bond_atom_site_label_2
_geom_bond_distance
_geom_bond_site_symmetry_2
Cs0 Se1 3.674244 1_555
Cs0 Se1 3.674257 1_566
Cs0 Se3 3.706725 1_555
Cs0 Mn1 3.735275 1_655
Cs0 Mn0 3.735391 1_666
Cs0 Se2 3.737120 1_565
Cs0 Se0 3.775062 1_555
Cs0 Se0 3.968361 1_656
Cs1 Se3 3.674175 1_544
Cs1 Se3 3.674207 1_555
Cs1 Se1 3.706699 1_555
Cs1 Mn0 3.735209 1_555
Cs1 Mn1 3.735322 1_544
Cs1 Se0 3.737071 1_545
Cs1 Se2 3.775170 1_555
Cs1 Se2 3.968248 1_454
Cs2 Se2 3.674178 1_565
Cs2 Se2 3.674301 1_554
Cs2 Se0 3.706658 1_655
Cs2 Mn1 3.735165 1_655
Cs2 Mn0 3.735184 1_655
Cs2 Se1 3.737016 1_555
Cs2 Se3 3.774975 1_554
Cs2 Se3 3.968475 1_655
Cs3 Se0 3.674169 1_545
Cs3 Se0 3.674241 1_556
Cs3 Se2 3.706634 1_455
Cs3 Mn0 3.735206 1_555
Cs3 Mn1 3.735232 1_555
Cs3 Se3 3.736940 1_555
Cs3 Se1 3.775167 1_556
Cs3 Se1 3.968277 1_455
Mn0 Se1 2.581148 1_455
Mn0 Se3 2.581164 1_555
Mn0 Se2 2.581269 1_454
Mn0 Se0 2.581296 1_545
Mn1 Se1 2.581121 1_455
Mn1 Se3 2.581162 1_555
Mn1 Se2 2.581177 1_465
Mn1 Se0 2.581341 1_556
