# generated using pymatgen
data_Ba4Fe3(S3F2)2
_symmetry_space_group_name_H-M   'P 1'
_cell_length_a   6.25158700
_cell_length_b   12.81374300
_cell_length_c   19.11516200
_cell_angle_alpha   90.00000000
_cell_angle_beta   90.00000000
_cell_angle_gamma   90.00000000
_symmetry_Int_Tables_number   1
_chemical_formula_structural   Ba4Fe3(S3F2)2
_chemical_formula_sum   'Ba16 Fe12 S24 F16'
_cell_volume   1531.24354761
_cell_formula_units_Z   4
loop_
 _symmetry_equiv_pos_site_id
 _symmetry_equiv_pos_as_xyz
  1  'x, y, z'
loop_
 _atom_site_type_symbol
 _atom_site_label
 _atom_site_symmetry_multiplicity
 _atom_site_fract_x
 _atom_site_fract_y
 _atom_site_fract_z
 _atom_site_occupancy
  Ba  Ba0  1  0.24529100  0.00063100  0.42127100  1
  Ba  Ba1  1  0.74529100  0.49936900  0.57872900  1
  Ba  Ba2  1  0.26366900  0.75040400  0.92138900  1
  Ba  Ba3  1  0.25470900  0.50063100  0.42127100  1
  Ba  Ba4  1  0.76366900  0.74959600  0.07861100  1
  Ba  Ba5  1  0.25470900  0.50063100  0.07872900  1
  Ba  Ba6  1  0.76366900  0.74959600  0.42138900  1
  Ba  Ba7  1  0.23633100  0.25040400  0.57861100  1
  Ba  Ba8  1  0.75470900  0.99936900  0.92127100  1
  Ba  Ba9  1  0.75470900  0.99936900  0.57872900  1
  Ba  Ba10  1  0.23633100  0.25040400  0.92138900  1
  Ba  Ba11  1  0.24529100  0.00063100  0.07872900  1
  Ba  Ba12  1  0.73633100  0.24959600  0.42138900  1
  Ba  Ba13  1  0.73633100  0.24959600  0.07861100  1
  Ba  Ba14  1  0.26366900  0.75040400  0.57861100  1
  Ba  Ba15  1  0.74529100  0.49936900  0.92127100  1
  Fe  Fe0  1  0.85726900  0.04879900  0.25000000  1
  Fe  Fe1  1  0.64273100  0.54879800  0.25000000  1
  Fe  Fe2  1  0.50331000  0.87517800  0.25000000  1
  Fe  Fe3  1  0.14649400  0.70231000  0.25000000  1
  Fe  Fe4  1  0.49669000  0.12482200  0.75000000  1
  Fe  Fe5  1  0.14273100  0.95120200  0.75000000  1
  Fe  Fe6  1  0.64649400  0.79769000  0.75000000  1
  Fe  Fe7  1  0.85350600  0.29769000  0.75000000  1
  Fe  Fe8  1  0.00331000  0.62482200  0.75000000  1
  Fe  Fe9  1  0.99669000  0.37517800  0.25000000  1
  Fe  Fe10  1  0.35726900  0.45120100  0.75000000  1
  Fe  Fe11  1  0.35350600  0.20231000  0.25000000  1
  S  S0  1  0.78135900  0.72815300  0.84915300  1
  S  S1  1  0.76649000  0.97265200  0.75000000  1
  S  S2  1  0.72465400  0.97816400  0.15088400  1
  S  S3  1  0.22465400  0.52183600  0.84911600  1
  S  S4  1  0.27534600  0.02183600  0.84911600  1
  S  S5  1  0.78135900  0.72815300  0.65084700  1
  S  S6  1  0.72465400  0.97816400  0.34911600  1
  S  S7  1  0.71864100  0.22815300  0.65084700  1
  S  S8  1  0.28135900  0.77184700  0.15084700  1
  S  S9  1  0.77534600  0.47816400  0.34911600  1
  S  S10  1  0.28135900  0.77184700  0.34915300  1
  S  S11  1  0.23351000  0.02734800  0.25000000  1
  S  S12  1  0.77534600  0.47816400  0.15088400  1
  S  S13  1  0.26649000  0.52734800  0.25000000  1
  S  S14  1  0.21864100  0.27184700  0.15084700  1
  S  S15  1  0.71864100  0.22815300  0.84915300  1
  S  S16  1  0.27038800  0.77723300  0.75000000  1
  S  S17  1  0.21864100  0.27184700  0.34915300  1
  S  S18  1  0.27534600  0.02183600  0.65088400  1
  S  S19  1  0.22961200  0.27723300  0.75000000  1
  S  S20  1  0.22465400  0.52183600  0.65088400  1
  S  S21  1  0.73351000  0.47265200  0.75000000  1
  S  S22  1  0.72961200  0.22276700  0.25000000  1
  S  S23  1  0.77038800  0.72276700  0.25000000  1
  F  F0  1  0.49077700  0.12503500  0.49872400  1
  F  F1  1  0.99077700  0.37496500  0.50127600  1
  F  F2  1  0.50916200  0.62506100  0.49787400  1
  F  F3  1  0.00916200  0.87493900  0.99787400  1
  F  F4  1  0.99083800  0.12506100  0.49787400  1
  F  F5  1  0.00916200  0.87493900  0.50212600  1
  F  F6  1  0.99083800  0.12506100  0.00212600  1
  F  F7  1  0.49083800  0.37493900  0.50212600  1
  F  F8  1  0.49083800  0.37493900  0.99787400  1
  F  F9  1  0.50922300  0.87496500  0.50127600  1
  F  F10  1  0.00922300  0.62503500  0.00127600  1
  F  F11  1  0.50922300  0.87496500  0.99872400  1
  F  F12  1  0.50916200  0.62506100  0.00212600  1
  F  F13  1  0.49077700  0.12503500  0.00127600  1
  F  F14  1  0.99077700  0.37496500  0.99872400  1
  F  F15  1  0.00922300  0.62503500  0.49872400  1
loop_
_geom_bond_atom_site_label_1
_geom_bond_atom_site_label_2
_geom_bond_distance
_geom_bond_site_symmetry_2
Ba0 F0 2.662384 1_555
Ba0 F5 2.676161 1_545
Ba0 F4 2.686393 1_455
Ba0 F9 2.766618 1_545
Ba0 S10 3.247367 1_545
Ba0 S11 3.292547 1_555
Ba0 S6 3.311481 1_545
Ba0 S6 3.546688 1_445
Ba0 S17 3.742433 1_555
Ba1 F1 2.662384 1_555
Ba1 F2 2.676161 1_555
Ba1 F7 2.686393 1_555
Ba1 F15 2.766618 1_655
Ba1 S5 3.247367 1_555
Ba1 S21 3.292547 1_555
Ba1 S20 3.311481 1_655
Ba1 S20 3.546688 1_555
Ba1 S7 3.742433 1_555
Ba2 F11 2.662581 1_555
Ba2 F3 2.686163 1_555
Ba2 F12 2.704948 1_556
Ba2 F10 2.728160 1_556
Ba2 S3 3.247460 1_555
Ba2 S16 3.294384 1_555
Ba2 S0 3.328567 1_455
Ba2 S0 3.530169 1_555
Ba2 S4 3.743100 1_565
Ba3 F15 2.662384 1_555
Ba3 F7 2.676161 1_555
Ba3 F2 2.686393 1_555
Ba3 F1 2.766618 1_455
Ba3 S17 3.247367 1_555
Ba3 S13 3.292547 1_555
Ba3 S9 3.311481 1_455
Ba3 S9 3.546688 1_555
Ba3 S10 3.742433 1_555
Ba4 F10 2.662581 1_655
Ba4 F12 2.686163 1_555
Ba4 F3 2.704948 1_654
Ba4 F11 2.728160 1_554
Ba4 S2 3.247460 1_555
Ba4 S23 3.294384 1_555
Ba4 S8 3.328567 1_555
Ba4 S8 3.530169 1_655
Ba4 S12 3.743100 1_555
Ba5 F10 2.662384 1_555
Ba5 F8 2.676161 1_554
Ba5 F12 2.686393 1_555
Ba5 F14 2.766618 1_454
Ba5 S14 3.247367 1_555
Ba5 S13 3.292547 1_555
Ba5 S12 3.311481 1_455
Ba5 S12 3.546688 1_555
Ba5 S8 3.742433 1_555
Ba6 F15 2.662581 1_655
Ba6 F2 2.686163 1_555
Ba6 F5 2.704948 1_655
Ba6 F9 2.728160 1_555
Ba6 S6 3.247460 1_555
Ba6 S23 3.294384 1_555
Ba6 S10 3.328567 1_555
Ba6 S10 3.530169 1_655
Ba6 S9 3.743100 1_555
Ba7 F1 2.662581 1_455
Ba7 F7 2.686163 1_555
Ba7 F4 2.704948 1_455
Ba7 F0 2.728160 1_555
Ba7 S18 3.247460 1_555
Ba7 S19 3.294384 1_555
Ba7 S7 3.328567 1_555
Ba7 S7 3.530169 1_455
Ba7 S20 3.743100 1_555
Ba8 F11 2.662384 1_555
Ba8 F6 2.676161 1_566
Ba8 F3 2.686393 1_655
Ba8 F13 2.766618 1_566
Ba8 S15 3.247367 1_565
Ba8 S1 3.292547 1_555
Ba8 S4 3.311481 1_565
Ba8 S4 3.546688 1_665
Ba8 S0 3.742433 1_555
Ba9 F9 2.662384 1_555
Ba9 F4 2.676161 1_565
Ba9 F5 2.686393 1_655
Ba9 F0 2.766618 1_565
Ba9 S7 3.247367 1_565
Ba9 S1 3.292547 1_555
Ba9 S18 3.311481 1_565
Ba9 S18 3.546688 1_665
Ba9 S5 3.742433 1_555
Ba10 F14 2.662581 1_455
Ba10 F8 2.686163 1_555
Ba10 F6 2.704948 1_456
Ba10 F13 2.728160 1_556
Ba10 S4 3.247460 1_555
Ba10 S19 3.294384 1_555
Ba10 S15 3.328567 1_555
Ba10 S15 3.530169 1_455
Ba10 S3 3.743100 1_555
Ba11 F13 2.662384 1_555
Ba11 F3 2.676161 1_544
Ba11 F6 2.686393 1_455
Ba11 F11 2.766618 1_544
Ba11 S8 3.247367 1_545
Ba11 S11 3.292547 1_555
Ba11 S2 3.311481 1_545
Ba11 S2 3.546688 1_445
Ba11 S14 3.742433 1_555
Ba12 F0 2.662581 1_555
Ba12 F4 2.686163 1_555
Ba12 F7 2.704948 1_555
Ba12 F1 2.728160 1_555
Ba12 S9 3.247460 1_555
Ba12 S22 3.294384 1_555
Ba12 S17 3.328567 1_655
Ba12 S17 3.530169 1_555
Ba12 S6 3.743100 1_545
Ba13 F13 2.662581 1_555
Ba13 F6 2.686163 1_555
Ba13 F8 2.704948 1_554
Ba13 F14 2.728160 1_554
Ba13 S12 3.247460 1_555
Ba13 S22 3.294384 1_555
Ba13 S14 3.328567 1_655
Ba13 S14 3.530169 1_555
Ba13 S2 3.743100 1_545
Ba14 F9 2.662581 1_555
Ba14 F5 2.686163 1_555
Ba14 F2 2.704948 1_555
Ba14 F15 2.728160 1_555
Ba14 S20 3.247460 1_555
Ba14 S16 3.294384 1_555
Ba14 S5 3.328567 1_455
Ba14 S5 3.530169 1_555
Ba14 S18 3.743100 1_565
Ba15 F14 2.662384 1_555
Ba15 F12 2.676161 1_556
Ba15 F8 2.686393 1_555
Ba15 F10 2.766618 1_656
Ba15 S0 3.247367 1_555
Ba15 S21 3.292547 1_555
Ba15 S3 3.311481 1_655
Ba15 S3 3.546688 1_555
Ba15 S15 3.742433 1_555
Fe0 S6 2.257457 1_545
Fe0 S2 2.257457 1_545
Fe0 S22 2.367730 1_555
Fe0 S11 2.368109 1_655
Fe1 S9 2.257452 1_555
Fe1 S12 2.257452 1_555
Fe1 S23 2.367742 1_555
Fe1 S13 2.368108 1_555
Fe2 S23 2.569398 1_555
Fe2 S11 2.578152 1_565
Fe2 S2 2.691800 1_555
Fe2 S6 2.691800 1_555
Fe2 S10 2.696418 1_555
Fe2 S8 2.696418 1_555
Fe3 S8 2.257663 1_555
Fe3 S10 2.257663 1_555
Fe3 S13 2.364095 1_555
Fe3 S23 2.365826 1_455
Fe4 S19 2.569398 1_555
Fe4 S1 2.578152 1_545
Fe4 S4 2.691800 1_555
Fe4 S18 2.691800 1_555
Fe4 S7 2.696418 1_555
Fe4 S15 2.696418 1_555
Fe5 S4 2.257452 1_565
Fe5 S18 2.257452 1_565
Fe5 S16 2.367742 1_555
Fe5 S1 2.368108 1_455
Fe6 S0 2.257663 1_555
Fe6 S5 2.257663 1_555
Fe6 S1 2.364095 1_555
Fe6 S16 2.365826 1_555
Fe7 S15 2.257663 1_555
Fe7 S7 2.257663 1_555
Fe7 S21 2.364095 1_555
Fe7 S19 2.365826 1_655
Fe8 S16 2.569398 1_555
Fe8 S21 2.578152 1_455
Fe8 S3 2.691800 1_555
Fe8 S20 2.691800 1_555
Fe8 S0 2.696418 1_455
Fe8 S5 2.696418 1_455
Fe9 S22 2.569398 1_555
Fe9 S13 2.578152 1_655
Fe9 S9 2.691800 1_555
Fe9 S12 2.691800 1_555
Fe9 S17 2.696418 1_655
Fe9 S14 2.696418 1_655
Fe10 S20 2.257457 1_555
Fe10 S3 2.257457 1_555
Fe10 S19 2.367730 1_555
Fe10 S21 2.368109 1_555
Fe11 S14 2.257663 1_555
Fe11 S17 2.257663 1_555
Fe11 S11 2.364095 1_555
Fe11 S22 2.365826 1_555
