# generated using pymatgen
data_K6PdSe20
_symmetry_space_group_name_H-M   'P 1'
_cell_length_a   12.80182213
_cell_length_b   14.27438412
_cell_length_c   19.44707302
_cell_angle_alpha   90.00000000
_cell_angle_beta   90.00000000
_cell_angle_gamma   90.00000000
_symmetry_Int_Tables_number   1
_chemical_formula_structural   K6PdSe20
_chemical_formula_sum   'K24 Pd4 Se80'
_cell_volume   3553.72168996
_cell_formula_units_Z   4
loop_
 _symmetry_equiv_pos_site_id
 _symmetry_equiv_pos_as_xyz
  1  'x, y, z'
loop_
 _atom_site_type_symbol
 _atom_site_label
 _atom_site_symmetry_multiplicity
 _atom_site_fract_x
 _atom_site_fract_y
 _atom_site_fract_z
 _atom_site_occupancy
  K  K0  1  0.00000000  0.98742245  0.75000000  1
  K  K1  1  0.00000000  0.01257755  0.25000000  1
  K  K2  1  0.50000000  0.48742245  0.75000000  1
  K  K3  1  0.50000000  0.80424716  0.75000000  1
  K  K4  1  0.35316474  0.20627461  0.99898677  1
  K  K5  1  0.00000000  0.69575284  0.25000000  1
  K  K6  1  0.00000000  0.30424716  0.75000000  1
  K  K7  1  0.00000000  0.00000000  0.00000000  1
  K  K8  1  0.14683526  0.70627461  0.99898677  1
  K  K9  1  0.50000000  0.51257755  0.25000000  1
  K  K10  1  0.50000000  0.50000000  0.00000000  1
  K  K11  1  0.85316474  0.29372539  0.00101323  1
  K  K12  1  0.50000000  0.16511519  0.75000000  1
  K  K13  1  0.00000000  0.00000000  0.50000000  1
  K  K14  1  0.50000000  0.83488481  0.25000000  1
  K  K15  1  0.50000000  0.50000000  0.50000000  1
  K  K16  1  0.14683526  0.29372539  0.49898677  1
  K  K17  1  0.64683526  0.79372539  0.00101323  1
  K  K18  1  0.00000000  0.33488481  0.25000000  1
  K  K19  1  0.00000000  0.66511519  0.75000000  1
  K  K20  1  0.64683526  0.20627461  0.50101323  1
  K  K21  1  0.85316474  0.70627461  0.50101323  1
  K  K22  1  0.50000000  0.19575284  0.25000000  1
  K  K23  1  0.35316474  0.79372539  0.49898677  1
  Pd  Pd0  1  0.50000000  0.00000000  0.50000000  1
  Pd  Pd1  1  0.50000000  0.00000000  0.00000000  1
  Pd  Pd2  1  0.00000000  0.50000000  0.50000000  1
  Pd  Pd3  1  0.00000000  0.50000000  0.00000000  1
  Se  Se0  1  0.25519302  0.95055640  0.87782129  1
  Se  Se1  1  0.18959275  0.48720487  0.16063606  1
  Se  Se2  1  0.25688699  0.36888957  0.70960122  1
  Se  Se3  1  0.61293820  0.69499133  0.60417420  1
  Se  Se4  1  0.56174051  0.65036209  0.87391390  1
  Se  Se5  1  0.24480698  0.45055640  0.87782129  1
  Se  Se6  1  0.34235229  0.72868355  0.12681632  1
  Se  Se7  1  0.88706180  0.19499133  0.60417420  1
  Se  Se8  1  0.93825949  0.15036209  0.87391390  1
  Se  Se9  1  0.24480698  0.54944360  0.37782129  1
  Se  Se10  1  0.68959275  0.01279513  0.83936394  1
  Se  Se11  1  0.98642300  0.48443091  0.87367397  1
  Se  Se12  1  0.48363610  0.32770364  0.87859993  1
  Se  Se13  1  0.98363610  0.82770364  0.62140007  1
  Se  Se14  1  0.01357700  0.48443091  0.62632603  1
  Se  Se15  1  0.75519302  0.54944360  0.12217871  1
  Se  Se16  1  0.19106157  0.53044037  0.49328749  1
  Se  Se17  1  0.31040725  0.01279513  0.66063606  1
  Se  Se18  1  0.81040725  0.48720487  0.33936394  1
  Se  Se19  1  0.18959275  0.51279513  0.66063606  1
  Se  Se20  1  0.69106157  0.03044037  0.00671251  1
  Se  Se21  1  0.75519302  0.45055640  0.62217871  1
  Se  Se22  1  0.31040725  0.98720487  0.16063606  1
  Se  Se23  1  0.38706180  0.69499133  0.89582580  1
  Se  Se24  1  0.80893843  0.46955963  0.50671251  1
  Se  Se25  1  0.51357700  0.98443091  0.87367397  1
  Se  Se26  1  0.25519302  0.04944360  0.37782129  1
  Se  Se27  1  0.43825949  0.65036209  0.62608610  1
  Se  Se28  1  0.80893843  0.53044037  0.00671251  1
  Se  Se29  1  0.51636390  0.32770364  0.62140007  1
  Se  Se30  1  0.19106157  0.46955963  0.99328749  1
  Se  Se31  1  0.72808320  0.39419588  0.17324756  1
  Se  Se32  1  0.22808320  0.10580412  0.82675244  1
  Se  Se33  1  0.43825949  0.34963791  0.12608610  1
  Se  Se34  1  0.48642300  0.01556909  0.12632603  1
  Se  Se35  1  0.77191680  0.10580412  0.67324756  1
  Se  Se36  1  0.24311301  0.13111043  0.20960122  1
  Se  Se37  1  0.72808320  0.60580412  0.67324756  1
  Se  Se38  1  0.34235229  0.27131645  0.62681632  1
  Se  Se39  1  0.27191680  0.60580412  0.82675244  1
  Se  Se40  1  0.48642300  0.98443091  0.62632603  1
  Se  Se41  1  0.84235229  0.22868355  0.37318368  1
  Se  Se42  1  0.01636390  0.17229636  0.37859993  1
  Se  Se43  1  0.68959275  0.98720487  0.33936394  1
  Se  Se44  1  0.98642300  0.51556909  0.37367397  1
  Se  Se45  1  0.06174051  0.84963791  0.12608610  1
  Se  Se46  1  0.75688699  0.13111043  0.29039878  1
  Se  Se47  1  0.01636390  0.82770364  0.87859993  1
  Se  Se48  1  0.74480698  0.04944360  0.12217871  1
  Se  Se49  1  0.69106157  0.96955963  0.50671251  1
  Se  Se50  1  0.65764771  0.72868355  0.37318368  1
  Se  Se51  1  0.15764771  0.77131645  0.62681632  1
  Se  Se52  1  0.11293820  0.80500867  0.39582580  1
  Se  Se53  1  0.01357700  0.51556909  0.12632603  1
  Se  Se54  1  0.27191680  0.39419588  0.32675244  1
  Se  Se55  1  0.93825949  0.84963791  0.37391390  1
  Se  Se56  1  0.30893843  0.03044037  0.49328749  1
  Se  Se57  1  0.81040725  0.51279513  0.83936394  1
  Se  Se58  1  0.06174051  0.15036209  0.62608610  1
  Se  Se59  1  0.77191680  0.89419588  0.17324756  1
  Se  Se60  1  0.22808320  0.89419588  0.32675244  1
  Se  Se61  1  0.11293820  0.19499133  0.89582580  1
  Se  Se62  1  0.98363610  0.17229636  0.12140007  1
  Se  Se63  1  0.74480698  0.95055640  0.62217871  1
  Se  Se64  1  0.75688699  0.86888957  0.79039878  1
  Se  Se65  1  0.88706180  0.80500867  0.10417420  1
  Se  Se66  1  0.61293820  0.30500867  0.10417420  1
  Se  Se67  1  0.56174051  0.34963791  0.37391390  1
  Se  Se68  1  0.65764771  0.27131645  0.87318368  1
  Se  Se69  1  0.24311301  0.86888957  0.70960122  1
  Se  Se70  1  0.84235229  0.77131645  0.87318368  1
  Se  Se71  1  0.51357700  0.01556909  0.37367397  1
  Se  Se72  1  0.48363610  0.67229636  0.37859993  1
  Se  Se73  1  0.51636390  0.67229636  0.12140007  1
  Se  Se74  1  0.15764771  0.22868355  0.12681632  1
  Se  Se75  1  0.25688699  0.63111043  0.20960122  1
  Se  Se76  1  0.30893843  0.96955963  0.99328749  1
  Se  Se77  1  0.74311301  0.63111043  0.29039878  1
  Se  Se78  1  0.74311301  0.36888957  0.79039878  1
  Se  Se79  1  0.38706180  0.30500867  0.39582580  1
loop_
_geom_bond_atom_site_label_1
_geom_bond_atom_site_label_2
_geom_bond_distance
_geom_bond_site_symmetry_2
K0 Se13 3.390610 1_455
K0 Se47 3.390610 1_555
K0 Se58 3.441121 1_565
K0 Se8 3.441121 1_465
K0 Se64 3.628551 1_455
K0 Se69 3.628551 1_555
K0 Se32 3.689051 1_565
K0 Se35 3.689051 1_465
K1 Se42 3.390610 1_555
K1 Se62 3.390610 1_455
K1 Se55 3.441121 1_445
K1 Se45 3.441121 1_545
K1 Se46 3.628551 1_455
K1 Se36 3.628551 1_555
K1 Se60 3.689051 1_545
K1 Se59 3.689051 1_445
K2 Se12 3.390610 1_555
K2 Se29 3.390610 1_555
K2 Se4 3.441121 1_555
K2 Se27 3.441121 1_555
K2 Se78 3.628551 1_555
K2 Se2 3.628551 1_555
K2 Se37 3.689051 1_555
K2 Se39 3.689051 1_555
K3 Se4 3.355114 1_555
K3 Se27 3.355114 1_555
K3 Se69 3.504810 1_555
K3 Se64 3.504810 1_555
K3 Se40 3.525613 1_555
K3 Se25 3.525613 1_555
K3 Se3 3.544693 1_555
K3 Se23 3.544693 1_555
K4 Se12 3.357872 1_555
K4 Se33 3.388793 1_556
K4 Se76 3.427859 1_545
K4 Pd1 3.493369 1_556
K4 Se74 3.542168 1_556
K4 Se61 3.675377 1_555
K5 Se45 3.355114 1_555
K5 Se55 3.355114 1_455
K5 Se75 3.504810 1_555
K5 Se77 3.504810 1_455
K5 Se44 3.525613 1_455
K5 Se53 3.525613 1_555
K5 Se65 3.544693 1_455
K5 Se52 3.544693 1_555
K6 Se58 3.355114 1_555
K6 Se8 3.355114 1_455
K6 Se2 3.504810 1_555
K6 Se78 3.504810 1_455
K6 Se11 3.525613 1_455
K6 Se14 3.525613 1_555
K6 Se7 3.544693 1_455
K6 Se61 3.544693 1_555
K7 Se45 3.353172 1_545
K7 Se8 3.353172 1_454
K7 Se47 3.415610 1_544
K7 Se62 3.415610 1_455
K7 Se61 3.733871 1_554
K7 Se65 3.733871 1_445
K8 Se47 3.357872 1_555
K8 Se45 3.388793 1_556
K8 Se30 3.427859 1_555
K8 Pd3 3.493369 1_556
K8 Se6 3.542168 1_556
K8 Se23 3.675377 1_555
K9 Se73 3.390610 1_555
K9 Se72 3.390610 1_555
K9 Se33 3.441121 1_555
K9 Se67 3.441121 1_555
K9 Se77 3.628551 1_555
K9 Se75 3.628551 1_555
K9 Se54 3.689051 1_555
K9 Se31 3.689051 1_555
K10 Se4 3.353172 1_554
K10 Se33 3.353172 1_555
K10 Se12 3.415610 1_554
K10 Se73 3.415610 1_555
K10 Se23 3.733871 1_554
K10 Se66 3.733871 1_555
K11 Se62 3.357872 1_555
K11 Se8 3.388793 1_554
K11 Se28 3.427859 1_555
K11 Pd3 3.493369 1_655
K11 Se68 3.542168 1_554
K11 Se66 3.675377 1_555
K12 Se12 3.418288 1_555
K12 Se29 3.418288 1_555
K12 Se38 3.479926 1_555
K12 Se68 3.479926 1_555
K12 Se40 3.530829 1_545
K12 Se25 3.530829 1_545
K12 Se10 3.693051 1_555
K12 Se17 3.693051 1_555
K12 Se35 3.881010 1_555
K12 Se32 3.881010 1_555
K13 Se58 3.353172 1_555
K13 Se55 3.353172 1_445
K13 Se13 3.415610 1_445
K13 Se42 3.415610 1_555
K13 Se7 3.733871 1_455
K13 Se52 3.733871 1_545
K14 Se72 3.418288 1_555
K14 Se73 3.418288 1_555
K14 Se6 3.479926 1_555
K14 Se50 3.479926 1_555
K14 Se34 3.530829 1_565
K14 Se71 3.530829 1_565
K14 Se22 3.693051 1_555
K14 Se43 3.693051 1_555
K14 Se60 3.881010 1_555
K14 Se59 3.881010 1_555
K15 Se67 3.353172 1_555
K15 Se27 3.353172 1_555
K15 Se29 3.415610 1_555
K15 Se72 3.415610 1_555
K15 Se79 3.733871 1_555
K15 Se3 3.733871 1_555
K16 Se42 3.357872 1_555
K16 Se58 3.388793 1_555
K16 Se16 3.427859 1_555
K16 Pd2 3.493369 1_555
K16 Se38 3.542168 1_555
K16 Se79 3.675377 1_555
K17 Se73 3.357872 1_555
K17 Se4 3.388793 1_554
K17 Se20 3.427859 1_565
K17 Pd1 3.493369 1_565
K17 Se70 3.542168 1_554
K17 Se65 3.675377 1_555
K18 Se42 3.418288 1_555
K18 Se62 3.418288 1_455
K18 Se74 3.479926 1_555
K18 Se41 3.479926 1_455
K18 Se53 3.530829 1_555
K18 Se44 3.530829 1_455
K18 Se18 3.693051 1_455
K18 Se1 3.693051 1_555
K18 Se31 3.881010 1_455
K18 Se54 3.881010 1_555
K19 Se47 3.418288 1_555
K19 Se13 3.418288 1_455
K19 Se70 3.479926 1_455
K19 Se51 3.479926 1_555
K19 Se11 3.530829 1_455
K19 Se14 3.530829 1_555
K19 Se57 3.693051 1_455
K19 Se19 3.693051 1_555
K19 Se37 3.881010 1_455
K19 Se39 3.881010 1_555
K20 Se29 3.357872 1_555
K20 Se67 3.388793 1_555
K20 Se49 3.427859 1_545
K20 Pd0 3.493369 1_555
K20 Se41 3.542168 1_555
K20 Se7 3.675377 1_555
K21 Se13 3.357872 1_555
K21 Se55 3.388793 1_555
K21 Se24 3.427859 1_555
K21 Pd2 3.493369 1_655
K21 Se50 3.542168 1_555
K21 Se3 3.675377 1_555
K22 Se33 3.355114 1_555
K22 Se67 3.355114 1_555
K22 Se36 3.504810 1_555
K22 Se46 3.504810 1_555
K22 Se34 3.525613 1_555
K22 Se71 3.525613 1_555
K22 Se79 3.544693 1_555
K22 Se66 3.544693 1_555
K23 Se72 3.357872 1_555
K23 Se27 3.388793 1_555
K23 Se56 3.427859 1_565
K23 Pd0 3.493369 1_565
K23 Se51 3.542168 1_555
K23 Se52 3.675377 1_555
Pd0 Se40 2.472819 1_545
Pd0 Se71 2.472819 1_555
Pd0 Se49 2.487660 1_545
Pd0 Se56 2.487660 1_555
Pd1 Se25 2.472819 1_544
Pd1 Se34 2.472819 1_555
Pd1 Se20 2.487660 1_555
Pd1 Se76 2.487660 1_544
Pd2 Se14 2.472819 1_555
Pd2 Se44 2.472819 1_455
Pd2 Se16 2.487660 1_555
Pd2 Se24 2.487660 1_455
Pd3 Se11 2.472819 1_454
Pd3 Se53 2.472819 1_555
Pd3 Se30 2.487660 1_554
Pd3 Se28 2.487660 1_455
Se0 Se76 2.364140 1_555
Se0 Se32 2.453104 1_565
Se1 Se53 2.384656 1_555
Se1 Se75 2.422497 1_555
Se2 Se38 2.393495 1_555
Se3 Se37 2.366014 1_555
Se6 Se73 2.370958 1_555
Se6 Se75 2.393495 1_555
Se10 Se25 2.384656 1_545
Se10 Se64 2.422497 1_545
Se11 Se57 2.384656 1_555
Se12 Se68 2.370958 1_555
Se13 Se51 2.370958 1_655
Se14 Se19 2.384656 1_555
Se15 Se28 2.364140 1_555
Se15 Se31 2.453104 1_555
Se16 Se9 2.364140 1_555
Se17 Se40 2.384656 1_545
Se17 Se69 2.422497 1_545
Se18 Se44 2.384656 1_555
Se18 Se77 2.422497 1_555
Se19 Se2 2.422497 1_555
Se20 Se48 2.364140 1_555
Se21 Se24 2.364140 1_555
Se21 Se37 2.453104 1_555
Se22 Se34 2.384656 1_565
Se22 Se36 2.422497 1_565
Se23 Se4 2.363903 1_555
Se23 Se39 2.366014 1_555
Se26 Se56 2.364140 1_555
Se26 Se60 2.453104 1_545
Se27 Se3 2.363903 1_555
Se29 Se38 2.370958 1_555
Se30 Se5 2.364140 1_555
Se31 Se66 2.366014 1_555
Se32 Se61 2.366014 1_555
Se33 Se66 2.363903 1_555
Se35 Se7 2.366014 1_555
Se35 Se63 2.453104 1_545
Se36 Se74 2.393495 1_555
Se39 Se5 2.453104 1_555
Se41 Se42 2.370958 1_655
Se41 Se46 2.393495 1_555
Se43 Se71 2.384656 1_565
Se43 Se46 2.422497 1_565
Se45 Se65 2.363903 1_455
Se47 Se70 2.370958 1_455
Se48 Se59 2.453104 1_545
Se49 Se63 2.364140 1_555
Se50 Se72 2.370958 1_555
Se50 Se77 2.393495 1_555
Se51 Se69 2.393495 1_555
Se52 Se55 2.363903 1_455
Se52 Se60 2.366014 1_555
Se54 Se79 2.366014 1_555
Se54 Se9 2.453104 1_555
Se57 Se78 2.422497 1_555
Se58 Se7 2.363903 1_455
Se59 Se65 2.366014 1_555
Se61 Se8 2.363903 1_455
Se62 Se74 2.370958 1_655
Se64 Se70 2.393495 1_555
Se67 Se79 2.363903 1_555
Se68 Se78 2.393495 1_555
