# generated using pymatgen
data_K5B19O31
_symmetry_space_group_name_H-M   'P 1'
_cell_length_a   10.64843954
_cell_length_b   10.64843954
_cell_length_c   12.94698905
_cell_angle_alpha   85.26207790
_cell_angle_beta   85.26207790
_cell_angle_gamma   65.45277675
_symmetry_Int_Tables_number   1
_chemical_formula_structural   K5B19O31
_chemical_formula_sum   'K10 B38 O62'
_cell_volume   1328.91396457
_cell_formula_units_Z   2
loop_
 _symmetry_equiv_pos_site_id
 _symmetry_equiv_pos_as_xyz
  1  'x, y, z'
loop_
 _atom_site_type_symbol
 _atom_site_label
 _atom_site_symmetry_multiplicity
 _atom_site_fract_x
 _atom_site_fract_y
 _atom_site_fract_z
 _atom_site_occupancy
  K  K0  1  0.94436023  0.40747381  0.83224327  1
  K  K1  1  0.29494721  0.37682969  0.69823947  1
  K  K2  1  0.40747381  0.94436023  0.33224327  1
  K  K3  1  0.62317031  0.70505279  0.80176053  1
  K  K4  1  -0.00000000  0.00000000  0.50000000  1
  K  K5  1  0.59252619  0.05563977  0.66775673  1
  K  K6  1  -0.00000000  0.00000000  -0.00000000  1
  K  K7  1  0.37682969  0.29494721  0.19823947  1
  K  K8  1  0.70505279  0.62317031  0.30176053  1
  K  K9  1  0.05563977  0.59252619  0.16775673  1
  B  B0  1  0.46506948  0.56677569  0.61728070  1
  B  B1  1  0.11541660  0.23759683  0.35697948  1
  B  B2  1  0.91089400  0.95383121  0.24121703  1
  B  B3  1  0.71254572  0.76420276  0.52209479  1
  B  B4  1  0.30814936  0.72052795  0.49513028  1
  B  B5  1  0.95383121  0.91089400  0.74121703  1
  B  B6  1  0.67782622  0.17022342  0.86297199  1
  B  B7  1  0.23579724  0.28745428  0.97790521  1
  B  B8  1  0.32494638  0.98445858  0.69793101  1
  B  B9  1  0.79664943  0.46761279  0.07111138  1
  B  B10  1  0.88458340  0.76240317  0.64302052  1
  B  B11  1  0.69185064  0.27947205  0.50486972  1
  B  B12  1  0.23759683  0.11541660  0.85697948  1
  B  B13  1  0.01554142  0.67505362  0.80206899  1
  B  B14  1  0.17022342  0.67782622  0.36297199  1
  B  B15  1  0.72052795  0.30814936  0.99513028  1
  B  B16  1  0.04616879  0.08910600  0.25878297  1
  B  B17  1  0.46761279  0.79664943  0.57111138  1
  B  B18  1  0.28745428  0.23579724  0.47790521  1
  B  B19  1  0.53493052  0.43322431  0.38271930  1
  B  B20  1  0.27947205  0.69185064  0.00486972  1
  B  B21  1  0.32217378  0.82977658  0.13702801  1
  B  B22  1  0.08910600  0.04616879  0.75878297  1
  B  B23  1  0.76420276  0.71254572  0.02209479  1
  B  B24  1  0.60871500  0.39128500  0.75000000  1
  B  B25  1  0.05166960  0.29443650  0.54130617  1
  B  B26  1  0.70556350  0.94833040  0.95869383  1
  B  B27  1  0.43322431  0.53493052  0.88271930  1
  B  B28  1  0.53238721  0.20335057  0.42888862  1
  B  B29  1  0.56677569  0.46506948  0.11728070  1
  B  B30  1  0.67505362  0.01554142  0.30206899  1
  B  B31  1  0.98445858  0.32494638  0.19793101  1
  B  B32  1  0.29443650  0.05166960  0.04130617  1
  B  B33  1  0.20335057  0.53238721  0.92888862  1
  B  B34  1  0.76240317  0.88458340  0.14302052  1
  B  B35  1  0.39128500  0.60871500  0.25000000  1
  B  B36  1  0.94833040  0.70556350  0.45869383  1
  B  B37  1  0.82977658  0.32217378  0.63702801  1
  O  O0  1  0.33307426  0.49321292  0.86484976  1
  O  O1  1  0.98427581  0.71716599  0.55346552  1
  O  O2  1  0.82137933  0.35005204  0.00865528  1
  O  O3  1  0.01572419  0.28283401  0.44653448  1
  O  O4  1  0.78632060  0.58440056  0.99687344  1
  O  O5  1  0.35005204  0.82137933  0.50865528  1
  O  O6  1  0.12293583  0.09976964  0.33265371  1
  O  O7  1  0.19800772  0.97667972  0.69019561  1
  O  O8  1  0.20281242  0.75128830  0.43017087  1
  O  O9  1  0.28283401  0.01572419  0.94653448  1
  O  O10  1  0.43810691  0.91034956  0.63884466  1
  O  O11  1  0.79718758  0.24871170  0.56982913  1
  O  O12  1  0.33652365  0.06772018  0.76840074  1
  O  O13  1  0.24871170  0.79718758  0.06982913  1
  O  O14  1  0.50678708  0.66692574  0.63515024  1
  O  O15  1  0.56118757  0.48478455  0.83509854  1
  O  O16  1  0.58440056  0.78632060  0.49687344  1
  O  O17  1  0.51521545  0.43881243  0.66490146  1
  O  O18  1  0.71716599  0.98427581  0.05346552  1
  O  O19  1  0.27529068  0.18499146  0.05893158  1
  O  O20  1  0.02332028  0.80199228  0.80980439  1
  O  O21  1  0.25364256  0.22047484  0.38166224  1
  O  O22  1  0.93227982  0.66347635  0.73159926  1
  O  O23  1  0.09976964  0.12293583  0.83265371  1
  O  O24  1  0.22047484  0.25364256  0.88166224  1
  O  O25  1  0.32360127  0.96033243  0.12695231  1
  O  O26  1  0.64994796  0.17862067  0.49134472  1
  O  O27  1  0.38603200  0.74736921  0.21794191  1
  O  O28  1  0.40584034  0.64053560  0.95019114  1
  O  O29  1  0.61396800  0.25263079  0.78205809  1
  O  O30  1  0.96657733  0.03342267  0.75000000  1
  O  O31  1  0.74736921  0.38603200  0.71794191  1
  O  O32  1  0.03966757  0.67639873  0.37304769  1
  O  O33  1  0.77952516  0.74635744  0.11833776  1
  O  O34  1  0.66692574  0.50678708  0.13515024  1
  O  O35  1  0.59415966  0.35946440  0.04980886  1
  O  O36  1  0.49321292  0.33307426  0.36484976  1
  O  O37  1  0.75128830  0.20281242  0.93017087  1
  O  O38  1  0.67639873  0.03966757  0.87304769  1
  O  O39  1  0.90023036  0.87706417  0.16734629  1
  O  O40  1  0.74635744  0.77952516  0.61833776  1
  O  O41  1  0.97667972  0.19800772  0.19019561  1
  O  O42  1  0.64053560  0.40584034  0.45019114  1
  O  O43  1  0.91034956  0.43810691  0.13884466  1
  O  O44  1  0.96033243  0.32360127  0.62695231  1
  O  O45  1  0.08965044  0.56189309  0.86115534  1
  O  O46  1  0.41559944  0.21367940  0.50312656  1
  O  O47  1  0.25263079  0.61396800  0.28205809  1
  O  O48  1  0.03342267  0.96657733  0.25000000  1
  O  O49  1  0.17862067  0.64994796  0.99134472  1
  O  O50  1  0.80199228  0.02332028  0.30980439  1
  O  O51  1  0.43881243  0.51521545  0.16490146  1
  O  O52  1  0.66347635  0.93227982  0.23159926  1
  O  O53  1  0.21367940  0.41559944  0.00312656  1
  O  O54  1  0.06772018  0.33652365  0.26840074  1
  O  O55  1  0.35946440  0.59415966  0.54980886  1
  O  O56  1  0.18499146  0.27529068  0.55893158  1
  O  O57  1  0.56189309  0.08965044  0.36115534  1
  O  O58  1  0.72470932  0.81500854  0.94106842  1
  O  O59  1  0.48478455  0.56118757  0.33509854  1
  O  O60  1  0.87706417  0.90023036  0.66734629  1
  O  O61  1  0.81500854  0.72470932  0.44106842  1
loop_
_geom_bond_atom_site_label_1
_geom_bond_atom_site_label_2
_geom_bond_distance
_geom_bond_site_symmetry_2
K0 O2 2.691837 1_556
K0 O45 2.747466 1_655
K0 O31 2.758406 1_555
K0 O23 2.784152 1_655
K0 O24 2.805931 1_655
K0 O44 2.842932 1_555
K0 O22 2.880140 1_555
K0 O4 2.891559 1_555
K1 O17 2.682412 1_555
K1 O0 2.712588 1_555
K1 O56 2.741513 1_555
K1 O24 2.833323 1_555
K1 O46 3.063399 1_555
K1 O45 3.075207 1_555
K1 O55 3.144662 1_555
K1 O12 3.196413 1_555
K2 O5 2.691837 1_555
K2 O57 2.747466 1_565
K2 O27 2.758406 1_555
K2 O6 2.784152 1_565
K2 O21 2.805931 1_565
K2 O25 2.842932 1_555
K2 O52 2.880140 1_555
K2 O16 2.891559 1_555
K3 O15 2.682412 1_555
K3 O14 2.712588 1_555
K3 O58 2.741513 1_555
K3 O40 2.833323 1_555
K3 O4 3.063399 1_555
K3 O10 3.075207 1_555
K3 O28 3.144662 1_555
K3 O22 3.196413 1_555
K4 O8 2.795720 1_545
K4 O11 2.795720 1_455
K4 O60 2.800607 1_445
K4 O6 2.800607 1_555
K5 O26 2.691837 1_555
K5 O10 2.747466 1_545
K5 O29 2.758406 1_555
K5 O60 2.784152 1_545
K5 O40 2.805931 1_545
K5 O38 2.842932 1_555
K5 O12 2.880140 1_555
K5 O46 2.891559 1_555
K6 O13 2.795720 1_545
K6 O37 2.795720 1_454
K6 O23 2.800607 1_554
K6 O39 2.800607 1_445
K7 O51 2.682412 1_555
K7 O36 2.712588 1_555
K7 O19 2.741513 1_555
K7 O21 2.833323 1_555
K7 O53 3.063399 1_555
K7 O57 3.075207 1_555
K7 O35 3.144662 1_555
K7 O54 3.196413 1_555
K8 O59 2.682412 1_555
K8 O34 2.712588 1_555
K8 O61 2.741513 1_555
K8 O33 2.833323 1_555
K8 O16 3.063399 1_555
K8 O43 3.075207 1_555
K8 O42 3.144662 1_555
K8 O52 3.196413 1_555
K9 O49 2.691837 1_554
K9 O43 2.747466 1_455
K9 O47 2.758406 1_555
K9 O39 2.784152 1_455
K9 O33 2.805931 1_455
K9 O32 2.842932 1_555
K9 O54 2.880140 1_555
K9 O53 2.891559 1_555
B0 O17 1.353888 1_555
B0 O14 1.356291 1_555
B0 O55 1.400158 1_555
B1 O54 1.461151 1_555
B1 O21 1.465241 1_555
B1 O3 1.472203 1_555
B1 O6 1.494703 1_555
B2 O39 1.349090 1_555
B2 O50 1.380686 1_565
B2 O48 1.381266 1_655
B3 O16 1.348317 1_555
B3 O40 1.365802 1_555
B3 O61 1.403689 1_555
B4 O5 1.350982 1_555
B4 O8 1.370340 1_555
B4 O55 1.380595 1_555
B5 O60 1.349090 1_555
B5 O20 1.380686 1_655
B5 O30 1.381266 1_565
B6 O29 1.341599 1_555
B6 O37 1.370090 1_555
B6 O38 1.391841 1_555
B7 O53 1.348317 1_556
B7 O24 1.365802 1_555
B7 O19 1.403689 1_556
B8 O10 1.348072 1_555
B8 O12 1.369933 1_565
B8 O7 1.400266 1_555
B9 O43 1.465407 1_555
B9 O2 1.465759 1_555
B9 O34 1.469263 1_555
B9 O4 1.479472 1_554
B10 O22 1.461151 1_555
B10 O40 1.465241 1_555
B10 O1 1.472203 1_555
B10 O60 1.494703 1_555
B11 O26 1.350982 1_555
B11 O11 1.370340 1_555
B11 O42 1.380595 1_555
B12 O12 1.461151 1_555
B12 O24 1.465241 1_555
B12 O9 1.472203 1_555
B12 O23 1.494703 1_555
B13 O45 1.348072 1_555
B13 O22 1.369933 1_455
B13 O20 1.400266 1_555
B14 O47 1.341599 1_555
B14 O8 1.370090 1_555
B14 O32 1.391841 1_555
B15 O2 1.350982 1_556
B15 O37 1.370340 1_555
B15 O35 1.380595 1_556
B16 O6 1.349090 1_555
B16 O41 1.380686 1_455
B16 O48 1.381266 1_545
B17 O10 1.465407 1_555
B17 O5 1.465759 1_555
B17 O14 1.469263 1_555
B17 O16 1.479472 1_555
B18 O46 1.348317 1_555
B18 O21 1.365802 1_555
B18 O56 1.403689 1_555
B19 O59 1.353888 1_555
B19 O36 1.356291 1_555
B19 O42 1.400158 1_555
B20 O49 1.350982 1_554
B20 O13 1.370340 1_555
B20 O28 1.380595 1_554
B21 O27 1.341599 1_555
B21 O13 1.370090 1_555
B21 O25 1.391841 1_555
B22 O23 1.349090 1_555
B22 O7 1.380686 1_545
B22 O30 1.381266 1_455
B23 O4 1.348317 1_554
B23 O33 1.365802 1_555
B23 O58 1.403689 1_554
B24 O15 1.460044 1_555
B24 O17 1.460044 1_555
B24 O31 1.479624 1_555
B24 O29 1.479624 1_555
B25 O3 1.345080 1_555
B25 O44 1.378305 1_455
B25 O56 1.383635 1_555
B26 O18 1.345080 1_556
B26 O38 1.378305 1_565
B26 O58 1.383635 1_555
B27 O15 1.353888 1_555
B27 O0 1.356291 1_555
B27 O28 1.400158 1_555
B28 O57 1.465407 1_555
B28 O26 1.465759 1_555
B28 O36 1.469263 1_555
B28 O46 1.479472 1_555
B29 O51 1.353888 1_555
B29 O34 1.356291 1_555
B29 O35 1.400158 1_555
B30 O57 1.348072 1_555
B30 O52 1.369933 1_545
B30 O50 1.400266 1_555
B31 O43 1.348072 1_555
B31 O54 1.369933 1_655
B31 O41 1.400266 1_555
B32 O9 1.345080 1_554
B32 O25 1.378305 1_545
B32 O19 1.383635 1_555
B33 O45 1.465407 1_555
B33 O49 1.465759 1_555
B33 O0 1.469263 1_555
B33 O53 1.479472 1_556
B34 O52 1.461151 1_555
B34 O33 1.465241 1_555
B34 O18 1.472203 1_555
B34 O39 1.494703 1_555
B35 O51 1.460044 1_555
B35 O59 1.460044 1_555
B35 O27 1.479624 1_555
B35 O47 1.479624 1_555
B36 O1 1.345080 1_555
B36 O32 1.378305 1_655
B36 O61 1.383635 1_555
B37 O31 1.341599 1_555
B37 O11 1.370090 1_555
B37 O44 1.391841 1_555
