# generated using pymatgen
data_Te3W2Se4(Cl4O)2
_symmetry_space_group_name_H-M   'P 1'
_cell_length_a   8.25105657
_cell_length_b   8.25105657
_cell_length_c   15.59007735
_cell_angle_alpha   81.19819306
_cell_angle_beta   81.19819306
_cell_angle_gamma   83.38981663
_symmetry_Int_Tables_number   1
_chemical_formula_structural   Te3W2Se4(Cl4O)2
_chemical_formula_sum   'Te6 W4 Se8 Cl16 O4'
_cell_volume   1031.94074363
_cell_formula_units_Z   2
loop_
 _symmetry_equiv_pos_site_id
 _symmetry_equiv_pos_as_xyz
  1  'x, y, z'
loop_
 _atom_site_type_symbol
 _atom_site_label
 _atom_site_symmetry_multiplicity
 _atom_site_fract_x
 _atom_site_fract_y
 _atom_site_fract_z
 _atom_site_occupancy
  Te  Te0  1  0.86479422  0.03165600  0.15544321  1
  Te  Te1  1  0.87409939  0.14938347  0.84925870  1
  Te  Te2  1  0.03025570  0.75286638  0.95973635  1
  Te  Te3  1  0.03165600  0.86479422  0.65544321  1
  Te  Te4  1  0.14938347  0.87409939  0.34925870  1
  Te  Te5  1  0.75286638  0.03025570  0.45973635  1
  W  W0  1  0.46447959  0.44523764  0.29475657  1
  W  W1  1  0.45680433  0.43696394  0.04584409  1
  W  W2  1  0.43696394  0.45680433  0.54584409  1
  W  W3  1  0.44523764  0.46447959  0.79475657  1
  Se  Se0  1  0.86795071  0.76955014  0.38457126  1
  Se  Se1  1  0.13129425  0.03603733  0.92709439  1
  Se  Se2  1  0.02566904  0.15085342  0.68952817  1
  Se  Se3  1  0.03603733  0.13129425  0.42709439  1
  Se  Se4  1  0.76955014  0.86795071  0.88457126  1
  Se  Se5  1  0.74502777  0.88146325  0.62011885  1
  Se  Se6  1  0.15085342  0.02566904  0.18952817  1
  Se  Se7  1  0.88146325  0.74502777  0.12011885  1
  Cl  Cl0  1  0.42938296  0.15836281  0.31020915  1
  Cl  Cl1  1  0.47383684  0.73959289  0.49555455  1
  Cl  Cl2  1  0.73959289  0.47383684  0.99555455  1
  Cl  Cl3  1  0.74941554  0.37822320  0.26400323  1
  Cl  Cl4  1  0.39473047  0.17820748  0.55576152  1
  Cl  Cl5  1  0.50751684  0.72268365  0.25038746  1
  Cl  Cl6  1  0.38436473  0.72477860  0.01583422  1
  Cl  Cl7  1  0.15836281  0.42938296  0.81020915  1
  Cl  Cl8  1  0.52274825  0.15473823  0.03924406  1
  Cl  Cl9  1  0.17820748  0.39473047  0.05576152  1
  Cl  Cl10  1  0.72268365  0.50751684  0.75038746  1
  Cl  Cl11  1  0.72477860  0.38436473  0.51583422  1
  Cl  Cl12  1  0.37822320  0.74941554  0.76400323  1
  Cl  Cl13  1  0.17873986  0.51853802  0.29123808  1
  Cl  Cl14  1  0.51853802  0.17873986  0.79123808  1
  Cl  Cl15  1  0.15473823  0.52274825  0.53924406  1
  O  O0  1  0.46452189  0.43452124  0.15790517  1
  O  O1  1  0.45351852  0.44871039  0.40763398  1
  O  O2  1  0.43452124  0.46452189  0.65790517  1
  O  O3  1  0.44871039  0.45351852  0.90763398  1
loop_
_geom_bond_atom_site_label_1
_geom_bond_atom_site_label_2
_geom_bond_distance
_geom_bond_site_symmetry_2
Se0 Te4 2.522712 1_655
Se0 Te5 2.619677 1_565
Se1 Te2 2.523443 1_545
Se1 Te1 2.614272 1_455
Se2 Te3 2.490932 1_545
Se2 Te1 2.608926 1_455
Se3 Te5 2.523443 1_455
Se3 Te4 2.614272 1_545
Se4 Te1 2.522712 1_565
Se4 Te2 2.619677 1_655
Se5 Te3 2.493165 1_655
Se5 Te5 2.606272 1_565
Se6 Te0 2.490932 1_455
Se6 Te4 2.608926 1_545
Se7 Te0 2.493165 1_565
Se7 Te2 2.606272 1_654
Cl0 W0 2.388856 1_555
Cl1 W2 2.383726 1_555
Cl2 W1 2.383726 1_556
Cl3 W0 2.345166 1_555
Cl4 W2 2.342778 1_555
Cl5 W0 2.339336 1_555
Cl6 W1 2.373703 1_555
Cl7 W3 2.388856 1_555
Cl8 W1 2.343883 1_555
Cl9 W1 2.342778 1_555
Cl10 W3 2.339336 1_555
Cl11 W2 2.373703 1_555
Cl12 W3 2.345166 1_555
Cl13 W0 2.372440 1_555
Cl14 W3 2.372440 1_555
Cl15 W2 2.343883 1_555
O0 W1 1.754875 1_555
O0 W0 2.148777 1_555
O1 W0 1.752687 1_555
O1 W2 2.148894 1_555
O2 W2 1.754875 1_555
O2 W3 2.148777 1_555
O3 W3 1.752687 1_555
O3 W1 2.148894 1_556
