# generated using pymatgen
data_Sb4PdC4(O2F11)2
_symmetry_space_group_name_H-M   'P 1'
_cell_length_a   10.10776000
_cell_length_b   12.87373600
_cell_length_c   18.38980829
_cell_angle_alpha   76.60576987
_cell_angle_beta   90.00000000
_cell_angle_gamma   90.00000000
_symmetry_Int_Tables_number   1
_chemical_formula_structural   Sb4PdC4(O2F11)2
_chemical_formula_sum   'Sb16 Pd4 C16 O16 F88'
_cell_volume   2327.87647755
_cell_formula_units_Z   4
loop_
 _symmetry_equiv_pos_site_id
 _symmetry_equiv_pos_as_xyz
  1  'x, y, z'
loop_
 _atom_site_type_symbol
 _atom_site_label
 _atom_site_symmetry_multiplicity
 _atom_site_fract_x
 _atom_site_fract_y
 _atom_site_fract_z
 _atom_site_occupancy
  Sb  Sb0  1  0.25525600  0.55274900  0.16877100  1
  Sb  Sb1  1  0.73954200  0.98988300  0.32410000  1
  Sb  Sb2  1  0.23954200  0.01011700  0.17590000  1
  Sb  Sb3  1  0.24126700  0.43437000  0.48488600  1
  Sb  Sb4  1  0.75518100  0.87913000  0.13421000  1
  Sb  Sb5  1  0.74126700  0.56563000  0.01511400  1
  Sb  Sb6  1  0.74481900  0.87913000  0.63421000  1
  Sb  Sb7  1  0.26045800  0.01011700  0.67590000  1
  Sb  Sb8  1  0.75873300  0.56563000  0.51511400  1
  Sb  Sb9  1  0.74474400  0.44725100  0.83122900  1
  Sb  Sb10  1  0.24474400  0.55274900  0.66877100  1
  Sb  Sb11  1  0.76045800  0.98988300  0.82410000  1
  Sb  Sb12  1  0.24481900  0.12087000  0.86579000  1
  Sb  Sb13  1  0.25518100  0.12087000  0.36579000  1
  Sb  Sb14  1  0.75525600  0.44725100  0.33122900  1
  Sb  Sb15  1  0.25873300  0.43437000  0.98488600  1
  Pd  Pd0  1  0.75835800  0.22810500  0.58852800  1
  Pd  Pd1  1  0.24164200  0.77189500  0.41147200  1
  Pd  Pd2  1  0.74164200  0.22810500  0.08852800  1
  Pd  Pd3  1  0.25835800  0.77189500  0.91147200  1
  C  C0  1  0.87826500  0.27509400  0.15300400  1
  C  C1  1  0.12173500  0.72490600  0.84699600  1
  C  C2  1  0.11358100  0.80384500  0.97659200  1
  C  C3  1  0.11213300  0.82097700  0.47831300  1
  C  C4  1  0.38641900  0.80384500  0.47659200  1
  C  C5  1  0.62173500  0.27509400  0.65300400  1
  C  C6  1  0.09196800  0.73631500  0.35039100  1
  C  C7  1  0.90803200  0.26368500  0.64960900  1
  C  C8  1  0.38786700  0.82097700  0.97831300  1
  C  C9  1  0.61358100  0.19615500  0.52340800  1
  C  C10  1  0.61213300  0.17902300  0.02168700  1
  C  C11  1  0.37826500  0.72490600  0.34699600  1
  C  C12  1  0.88641900  0.19615500  0.02340800  1
  C  C13  1  0.59196800  0.26368500  0.14960900  1
  C  C14  1  0.88786700  0.17902300  0.52168700  1
  C  C15  1  0.40803200  0.73631500  0.85039100  1
  O  O0  1  0.03361300  0.81955700  0.01573400  1
  O  O1  1  0.53361300  0.18044300  0.48426600  1
  O  O2  1  0.54036000  0.30275500  0.68635400  1
  O  O3  1  0.50398200  0.28544100  0.18110900  1
  O  O4  1  0.04036000  0.69724500  0.81364600  1
  O  O5  1  0.95964000  0.30275500  0.18635400  1
  O  O6  1  0.45964000  0.69724500  0.31364600  1
  O  O7  1  0.04324000  0.84956000  0.51811100  1
  O  O8  1  0.99601800  0.28544100  0.68110900  1
  O  O9  1  0.00398200  0.71455900  0.31889100  1
  O  O10  1  0.49601800  0.71455900  0.81889100  1
  O  O11  1  0.54324000  0.15044000  0.98188900  1
  O  O12  1  0.95676000  0.15044000  0.48188900  1
  O  O13  1  0.45676000  0.84956000  0.01811100  1
  O  O14  1  0.96638700  0.18044300  0.98426600  1
  O  O15  1  0.46638700  0.81955700  0.51573400  1
  F  F0  1  0.44061200  0.55897500  0.18190500  1
  F  F1  1  0.73219900  0.31848000  0.90942400  1
  F  F2  1  0.12052200  0.00522600  0.89258600  1
  F  F3  1  0.11201100  0.53879400  0.44040700  1
  F  F4  1  0.36938300  0.34234700  0.54196300  1
  F  F5  1  0.39010800  0.11504100  0.63666800  1
  F  F6  1  0.92387400  0.45650700  0.85945200  1
  F  F7  1  0.75019400  0.85706300  0.53594300  1
  F  F8  1  0.26201300  0.09349300  0.25873700  1
  F  F9  1  0.60342600  0.78411400  0.66757200  1
  F  F10  1  0.24980600  0.14293700  0.46405700  1
  F  F11  1  0.71904000  0.60408000  0.60539200  1
  F  F12  1  0.07612600  0.54349300  0.14054800  1
  F  F13  1  0.36771500  0.91331500  0.22998100  1
  F  F14  1  0.10497700  0.33118600  0.51448700  1
  F  F15  1  0.36362400  0.55176400  0.46816600  1
  F  F16  1  0.57612600  0.45650700  0.35945200  1
  F  F17  1  0.87589600  0.89794600  0.37279100  1
  F  F18  1  0.60929100  0.07327000  0.26131000  1
  F  F19  1  0.26780100  0.68152000  0.09057600  1
  F  F20  1  0.13061700  0.34234700  0.04196300  1
  F  F21  1  0.13637600  0.55176400  0.96816600  1
  F  F22  1  0.19529000  0.47636600  0.58334300  1
  F  F23  1  0.76201300  0.90650700  0.24126300  1
  F  F24  1  0.28181400  0.62818700  0.74432500  1
  F  F25  1  0.10342600  0.21588600  0.83242800  1
  F  F26  1  0.86771500  0.08668500  0.27001900  1
  F  F27  1  0.39502300  0.33118600  0.01448700  1
  F  F28  1  0.30471000  0.47636600  0.08334300  1
  F  F29  1  0.39657400  0.21588600  0.33242800  1
  F  F30  1  0.62222300  0.77833000  0.17256900  1
  F  F31  1  0.60989200  0.88495900  0.36333200  1
  F  F32  1  0.62286800  0.98931000  0.11377900  1
  F  F33  1  0.89070900  0.07327000  0.76131000  1
  F  F34  1  0.87777700  0.77833000  0.67256900  1
  F  F35  1  0.62410400  0.89794600  0.87279100  1
  F  F36  1  0.87713200  0.98931000  0.61377900  1
  F  F37  1  0.12286800  0.01069000  0.38622100  1
  F  F38  1  0.86362400  0.44823600  0.03183400  1
  F  F39  1  0.05938800  0.55897500  0.68190500  1
  F  F40  1  0.86938300  0.65765300  0.95803700  1
  F  F41  1  0.74780200  0.58645400  0.26969700  1
  F  F42  1  0.89502300  0.66881400  0.48551300  1
  F  F43  1  0.12410400  0.10205400  0.62720900  1
  F  F44  1  0.37777700  0.22167000  0.82743100  1
  F  F45  1  0.71818600  0.37181300  0.25567500  1
  F  F46  1  0.10929100  0.92673000  0.23869000  1
  F  F47  1  0.22302700  0.93599500  0.09828600  1
  F  F48  1  0.63061700  0.65765300  0.45803700  1
  F  F49  1  0.77697300  0.06400500  0.90171400  1
  F  F50  1  0.25219800  0.41354600  0.73030300  1
  F  F51  1  0.25019400  0.14293700  0.96405700  1
  F  F52  1  0.61201100  0.46120600  0.05959300  1
  F  F53  1  0.72302700  0.06400500  0.40171400  1
  F  F54  1  0.63637600  0.44823600  0.53183400  1
  F  F55  1  0.55938800  0.44102500  0.81809500  1
  F  F56  1  0.38798900  0.53879400  0.94040700  1
  F  F57  1  0.21818600  0.62818700  0.24432500  1
  F  F58  1  0.23219900  0.68152000  0.59057600  1
  F  F59  1  0.89657400  0.78411400  0.16757200  1
  F  F60  1  0.88798900  0.46120600  0.55959300  1
  F  F61  1  0.75219800  0.58645400  0.76969700  1
  F  F62  1  0.89010800  0.88495900  0.86333200  1
  F  F63  1  0.62052200  0.99477400  0.60741400  1
  F  F64  1  0.80471000  0.52363400  0.41665700  1
  F  F65  1  0.87947800  0.99477400  0.10741400  1
  F  F66  1  0.28096000  0.39592000  0.39460800  1
  F  F67  1  0.13228500  0.91331500  0.72998100  1
  F  F68  1  0.60497700  0.66881400  0.98551300  1
  F  F69  1  0.69529000  0.52363400  0.91665700  1
  F  F70  1  0.78096000  0.60408000  0.10539200  1
  F  F71  1  0.23798700  0.09349300  0.75873700  1
  F  F72  1  0.39070900  0.92673000  0.73869000  1
  F  F73  1  0.63228500  0.08668500  0.77001900  1
  F  F74  1  0.73798700  0.90650700  0.74126300  1
  F  F75  1  0.21904000  0.39592000  0.89460800  1
  F  F76  1  0.76780100  0.31848000  0.40942400  1
  F  F77  1  0.74980600  0.85706300  0.03594300  1
  F  F78  1  0.37947800  0.00522600  0.39258600  1
  F  F79  1  0.37589600  0.10205400  0.12720900  1
  F  F80  1  0.24780200  0.41354600  0.23030300  1
  F  F81  1  0.78181400  0.37181300  0.75567500  1
  F  F82  1  0.10989200  0.11504100  0.13666800  1
  F  F83  1  0.37713200  0.01069000  0.88622100  1
  F  F84  1  0.94061200  0.44102500  0.31809500  1
  F  F85  1  0.12222300  0.22167000  0.32743100  1
  F  F86  1  0.27697300  0.93599500  0.59828600  1
  F  F87  1  0.42387400  0.54349300  0.64054800  1
loop_
_geom_bond_atom_site_label_1
_geom_bond_atom_site_label_2
_geom_bond_distance
_geom_bond_site_symmetry_2
C0 O5 1.131665 1_555
C0 Pd2 2.002787 1_555
C1 O4 1.131665 1_555
C1 Pd3 2.002787 1_555
C2 O0 1.131303 1_556
C2 Pd3 1.993227 1_555
C3 O7 1.131692 1_555
C3 Pd1 1.995900 1_555
C4 O15 1.131303 1_555
C4 Pd1 1.993227 1_555
C5 O2 1.131665 1_555
C5 Pd0 2.002787 1_555
C6 O9 1.131418 1_555
C6 Pd1 1.999671 1_555
C7 O8 1.131418 1_555
C7 Pd0 1.999671 1_555
C8 O13 1.131692 1_556
C8 Pd3 1.995900 1_555
C9 O1 1.131303 1_555
C9 Pd0 1.993227 1_555
C10 O11 1.131692 1_554
C10 Pd2 1.995900 1_555
C11 O6 1.131665 1_555
C11 Pd1 2.002787 1_555
C12 O14 1.131303 1_554
C12 Pd2 1.993227 1_555
C13 O3 1.131418 1_555
C13 Pd2 1.999671 1_555
C14 O12 1.131692 1_555
C14 Pd0 1.995900 1_555
C15 O10 1.131418 1_555
C15 Pd3 1.999671 1_555
F0 Sb0 1.893109 1_555
F1 Sb9 1.930710 1_555
F2 Sb12 1.922973 1_555
F3 Sb3 1.916700 1_555
F4 Sb3 1.898955 1_555
F5 Sb7 1.900240 1_555
F6 Sb9 1.894865 1_555
F7 Sb6 1.893978 1_555
F8 Sb2 2.069264 1_555
F8 Sb13 2.079943 1_555
F9 Sb6 1.888777 1_555
F10 Sb13 1.893978 1_555
F11 Sb8 1.882278 1_555
F12 Sb0 1.894865 1_555
F13 Sb2 1.909541 1_565
F14 Sb3 1.903577 1_555
F15 Sb3 1.921676 1_555
F16 Sb14 1.894865 1_555
F17 Sb1 1.900301 1_555
F18 Sb1 1.909118 1_545
F19 Sb0 1.930710 1_555
F20 Sb15 1.898955 1_554
F21 Sb15 1.921676 1_555
F22 Sb3 2.059146 1_555
F22 Sb10 2.097758 1_555
F23 Sb1 2.069264 1_555
F23 Sb4 2.079943 1_555
F24 Sb10 1.907675 1_555
F25 Sb12 1.888777 1_555
F26 Sb1 1.909541 1_545
F27 Sb15 1.903577 1_554
F28 Sb15 2.059146 1_554
F28 Sb0 2.097758 1_555
F29 Sb13 1.888777 1_555
F30 Sb4 1.887736 1_555
F31 Sb1 1.900240 1_555
F32 Sb4 1.922187 1_555
F33 Sb11 1.909118 1_545
F34 Sb6 1.887736 1_555
F35 Sb11 1.900301 1_555
F36 Sb6 1.922187 1_555
F37 Sb13 1.922187 1_555
F38 Sb5 1.921676 1_555
F39 Sb10 1.893109 1_555
F40 Sb5 1.898955 1_556
F41 Sb14 1.886294 1_555
F42 Sb8 1.903577 1_555
F43 Sb7 1.900301 1_555
F44 Sb12 1.887736 1_555
F45 Sb14 1.907675 1_555
F46 Sb2 1.909118 1_565
F47 Sb2 1.899111 1_565
F48 Sb8 1.898955 1_555
F49 Sb11 1.899111 1_545
F50 Sb10 1.886294 1_555
F51 Sb12 1.893978 1_555
F52 Sb5 1.916700 1_555
F53 Sb1 1.899111 1_545
F54 Sb8 1.921676 1_555
F55 Sb9 1.893109 1_555
F56 Sb15 1.916700 1_555
F57 Sb0 1.907675 1_555
F58 Sb10 1.930710 1_555
F59 Sb4 1.888777 1_555
F60 Sb8 1.916700 1_555
F61 Sb9 1.886294 1_555
F62 Sb11 1.900240 1_555
F63 Sb6 1.922973 1_555
F64 Sb8 2.059146 1_555
F64 Sb14 2.097758 1_555
F65 Sb4 1.922973 1_555
F66 Sb3 1.882278 1_555
F67 Sb7 1.909541 1_565
F68 Sb5 1.903577 1_556
F69 Sb5 2.059146 1_556
F69 Sb9 2.097758 1_555
F70 Sb5 1.882278 1_555
F71 Sb7 2.069264 1_555
F71 Sb12 2.079943 1_555
F72 Sb7 1.909118 1_565
F73 Sb11 1.909541 1_545
F74 Sb11 2.069264 1_555
F74 Sb6 2.079943 1_555
F75 Sb15 1.882278 1_555
F76 Sb14 1.930710 1_555
F77 Sb4 1.893978 1_555
F78 Sb13 1.922973 1_555
F79 Sb2 1.900301 1_555
F80 Sb0 1.886294 1_555
F81 Sb9 1.907675 1_555
F82 Sb2 1.900240 1_555
F83 Sb12 1.922187 1_555
F84 Sb14 1.893109 1_555
F85 Sb13 1.887736 1_555
F86 Sb7 1.899111 1_565
F87 Sb10 1.894865 1_555
