# generated using pymatgen
data_InGaSe3
_symmetry_space_group_name_H-M   'P 1'
_cell_length_a   7.05857974
_cell_length_b   7.05947248
_cell_length_c   18.97877713
_cell_angle_alpha   90.00022760
_cell_angle_beta   89.99945352
_cell_angle_gamma   119.92912925
_symmetry_Int_Tables_number   1
_chemical_formula_structural   InGaSe3
_chemical_formula_sum   'In6 Ga6 Se18'
_cell_volume   819.59280468
_cell_formula_units_Z   6
loop_
 _symmetry_equiv_pos_site_id
 _symmetry_equiv_pos_as_xyz
  1  'x, y, z'
loop_
 _atom_site_type_symbol
 _atom_site_label
 _atom_site_symmetry_multiplicity
 _atom_site_fract_x
 _atom_site_fract_y
 _atom_site_fract_z
 _atom_site_occupancy
  In  In0  1  0.32900074  0.32865178  0.00355755  1
  In  In1  1  0.00171858  0.32950883  0.17044221  1
  In  In2  1  0.32860607  -0.00091900  0.83694276  1
  In  In3  1  0.67136345  0.00090330  0.33693057  1
  In  In4  1  -0.00172239  0.67045485  0.67044910  1
  In  In5  1  0.67101803  0.67135032  0.50356797  1
  Ga  Ga0  1  0.66586861  0.68211586  0.14134791  1
  Ga  Ga1  1  0.98352853  0.66511174  0.30821581  1
  Ga  Ga2  1  0.68184427  0.01640507  0.97501022  1
  Ga  Ga3  1  0.31815538  0.98359202  0.47501708  1
  Ga  Ga4  1  0.01646193  0.33492542  0.80826194  1
  Ga  Ga5  1  0.33413060  0.31788796  0.64136271  1
  Se  Se0  1  0.36431751  0.31705028  0.15336796  1
  Se  Se1  1  0.04655225  0.36298144  0.32043054  1
  Se  Se2  1  0.31663638  0.95348546  0.98676403  1
  Se  Se3  1  0.68337827  0.04651674  0.48677404  1
  Se  Se4  1  0.95341835  0.63702247  0.82045155  1
  Se  Se5  1  0.63569284  0.68296915  0.65338531  1
  Se  Se6  1  0.97011001  0.34966122  0.02156274  1
  Se  Se7  1  0.62194804  0.97146007  0.18790497  1
  Se  Se8  1  0.34974714  0.37888852  0.85460222  1
  Se  Se9  1  0.65023012  0.62109653  0.35459731  1
  Se  Se10  1  0.37806845  0.02853368  0.68790193  1
  Se  Se11  1  0.02990112  0.65029864  0.52154576  1
  Se  Se12  1  0.00891515  0.71155802  0.18002165  1
  Se  Se13  1  0.29645729  0.00801055  0.34666048  1
  Se  Se14  1  0.71160622  0.70258497  0.01311242  1
  Se  Se15  1  0.28839870  0.29742594  0.51311631  1
  Se  Se16  1  0.70354056  0.99201418  0.84665488  1
  Se  Se17  1  0.99110780  0.28845402  0.68004408  1
loop_
_geom_bond_atom_site_label_1
_geom_bond_atom_site_label_2
_geom_bond_distance
_geom_bond_site_symmetry_2
In0 Se2 2.625447 1_544
In0 Se6 2.632692 1_455
In0 Se14 2.679734 1_555
In0 Se8 2.843812 1_554
In0 Se0 2.858869 1_555
In1 Se0 2.624509 1_555
In1 Se7 2.631244 1_445
In1 Se12 2.678261 1_555
In1 Se6 2.843491 1_455
In1 Se1 2.860853 1_555
In2 Se4 2.624859 1_445
In2 Se8 2.631424 1_555
In2 Se16 2.678098 1_545
In2 Se10 2.844947 1_555
In2 Se2 2.858089 1_545
In3 Se1 2.624945 1_655
In3 Se9 2.631463 1_545
In3 Se13 2.678064 1_555
In3 Se7 2.844635 1_545
In3 Se3 2.858511 1_555
In4 Se5 2.624596 1_455
In4 Se10 2.631397 1_565
In4 Se17 2.678033 1_455
In4 Se11 2.843949 1_555
In4 Se4 2.861121 1_455
In5 Se3 2.625464 1_565
In5 Se11 2.632738 1_655
In5 Se15 2.679744 1_555
In5 Se9 2.844110 1_555
In5 Se5 2.859009 1_555
Ga0 Se7 2.383486 1_555
Ga0 Se0 2.398050 1_555
Ga0 Se12 2.437834 1_655
Ga0 Se14 2.449836 1_555
Ga1 Se9 2.382587 1_555
Ga1 Se1 2.397419 1_655
Ga1 Se13 2.436310 1_665
Ga1 Se12 2.449556 1_655
Ga2 Se6 2.383039 1_556
Ga2 Se2 2.397870 1_545
Ga2 Se14 2.437108 1_546
Ga2 Se16 2.452271 1_545
Ga3 Se11 2.382982 1_555
Ga3 Se3 2.397971 1_565
Ga3 Se15 2.437157 1_565
Ga3 Se13 2.452320 1_565
Ga4 Se8 2.382361 1_555
Ga4 Se4 2.397229 1_455
Ga4 Se16 2.436036 1_445
Ga4 Se17 2.450019 1_455
Ga5 Se10 2.383503 1_555
Ga5 Se5 2.398154 1_555
Ga5 Se17 2.437729 1_455
Ga5 Se15 2.450043 1_555
