# generated using pymatgen
data_Ba14Na21CaN6
_symmetry_space_group_name_H-M   'P 1'
_cell_length_a   12.42119100
_cell_length_b   12.42119100
_cell_length_c   16.26411257
_cell_angle_alpha   56.73110950
_cell_angle_beta   56.73110950
_cell_angle_gamma   60.91037128
_symmetry_Int_Tables_number   1
_chemical_formula_structural   Ba14Na21CaN6
_chemical_formula_sum   'Ba14 Na21 Ca1 N6'
_cell_volume   1691.48682785
_cell_formula_units_Z   1
loop_
 _symmetry_equiv_pos_site_id
 _symmetry_equiv_pos_as_xyz
  1  'x, y, z'
loop_
 _atom_site_type_symbol
 _atom_site_label
 _atom_site_symmetry_multiplicity
 _atom_site_fract_x
 _atom_site_fract_y
 _atom_site_fract_z
 _atom_site_occupancy
  Ba  Ba0  1  0.77889800  0.20426900  0.72721200  1
  Ba  Ba1  1  0.79573100  0.22110200  0.27278800  1
  Ba  Ba2  1  0.22110200  0.79573100  0.27278800  1
  Ba  Ba3  1  0.59650700  0.17016200  0.59359500  1
  Ba  Ba4  1  0.40349300  0.82983800  0.40640500  1
  Ba  Ba5  1  0.37217400  0.37217400  0.76673100  1
  Ba  Ba6  1  0.17016200  0.59650700  0.59359500  1
  Ba  Ba7  1  0.20426900  0.77889800  0.72721200  1
  Ba  Ba8  1  0.39827500  0.39827500  0.41107700  1
  Ba  Ba9  1  0.60172500  0.60172500  0.58892300  1
  Ba  Ba10  1  0.80815000  0.80815000  0.26833200  1
  Ba  Ba11  1  0.62782600  0.62782600  0.23326900  1
  Ba  Ba12  1  0.19185000  0.19185000  0.73166800  1
  Ba  Ba13  1  0.82983800  0.40349300  0.40640500  1
  Na  Na0  1  0.50066900  0.20324700  0.21958000  1
  Na  Na1  1  0.17586600  0.17586600  0.47832400  1
  Na  Na2  1  0.19443000  0.19443000  0.21062400  1
  Na  Na3  1  0.44623100  0.44623100  0.94973900  1
  Na  Na4  1  0.79675300  0.49933100  0.78042000  1
  Na  Na5  1  0.81959600  0.18040400  0.00000000  1
  Na  Na6  1  0.80557000  0.80557000  0.78937600  1
  Na  Na7  1  0.93226600  0.47118100  0.94392800  1
  Na  Na8  1  0.82413400  0.82413400  0.52167600  1
  Na  Na9  1  0.52881900  0.06773400  0.05607200  1
  Na  Na10  1  0.20324700  0.50066900  0.21958000  1
  Na  Na11  1  0.86886900  0.86886900  0.96846700  1
  Na  Na12  1  0.47118100  0.93226600  0.94392800  1
  Na  Na13  1  0.06773400  0.52881900  0.05607200  1
  Na  Na14  1  0.50000000  0.00000000  0.50000000  1
  Na  Na15  1  0.13113100  0.13113100  0.03153300  1
  Na  Na16  1  0.49933100  0.79675300  0.78042000  1
  Na  Na17  1  0.18040400  0.81959600  0.00000000  1
  Na  Na18  1  0.55376900  0.55376900  0.05026100  1
  Na  Na19  1  0.00000000  0.00000000  0.50000000  1
  Na  Na20  1  0.00000000  0.50000000  0.50000000  1
  Ca  Ca0  1  0.50000000  0.50000000  0.50000000  1
  N  N0  1  0.34408300  0.34408300  0.62124000  1
  N  N1  1  0.65156400  0.36306000  0.38217600  1
  N  N2  1  0.34843600  0.63694000  0.61782400  1
  N  N3  1  0.63694000  0.34843600  0.61782400  1
  N  N4  1  0.65591700  0.65591700  0.37876000  1
  N  N5  1  0.36306000  0.65156400  0.38217600  1
loop_
_geom_bond_atom_site_label_1
_geom_bond_atom_site_label_2
_geom_bond_distance
_geom_bond_site_symmetry_2
Ba0 N3 2.521358 1_555
Ba0 Na11 4.043567 1_545
Ba0 Na9 4.251477 1_556
Ba0 Na20 4.298072 1_655
Ba0 Na4 4.325633 1_555
Ba0 Na1 4.335907 1_655
Ba0 Na6 4.351573 1_545
Ba0 Na19 4.473573 1_655
Ba1 N1 2.521358 1_555
Ba1 Na15 4.043567 1_655
Ba1 Na7 4.251477 1_554
Ba1 Na14 4.298072 1_555
Ba1 Na0 4.325633 1_555
Ba1 Na8 4.335907 1_545
Ba1 Na2 4.351573 1_655
Ba1 Na19 4.473573 1_655
Ba2 N5 2.521358 1_555
Ba2 Na15 4.043567 1_565
Ba2 Na12 4.251477 1_554
Ba2 Na20 4.298072 1_555
Ba2 Na10 4.325633 1_555
Ba2 Na8 4.335907 1_455
Ba2 Na2 4.351573 1_565
Ba2 Na19 4.473573 1_565
Ba3 N3 2.750790 1_555
Ba3 N0 2.762727 1_555
Ba3 N1 2.829555 1_555
Ba3 Na14 4.027049 1_555
Ba3 Na19 4.094225 1_655
Ba3 Na8 4.231643 1_545
Ba3 Na16 4.261446 1_545
Ba3 Na6 4.382633 1_545
Ba3 Na12 4.459773 1_545
Ba4 N5 2.750790 1_555
Ba4 N4 2.762727 1_555
Ba4 N2 2.829555 1_555
Ba4 Na14 4.027049 1_565
Ba4 Na19 4.094225 1_565
Ba4 Na1 4.231643 1_565
Ba4 Na0 4.261446 1_565
Ba4 Na2 4.382633 1_565
Ba4 Na9 4.459773 1_565
Ba5 N0 2.787988 1_555
Ba5 N3 2.805356 1_555
Ba5 N2 2.805356 1_555
Ba5 Na15 4.110825 1_556
Ba5 Na3 4.169212 1_555
Ba5 Na7 4.444386 1_455
Ba5 Na12 4.444386 1_545
Ba6 N2 2.750790 1_555
Ba6 N0 2.762727 1_555
Ba6 N5 2.829555 1_555
Ba6 Na20 4.027049 1_555
Ba6 Na19 4.094225 1_565
Ba6 Na8 4.231643 1_455
Ba6 Na4 4.261446 1_455
Ba6 Na6 4.382633 1_455
Ba6 Na7 4.459773 1_455
Ba7 N2 2.521358 1_555
Ba7 Na11 4.043567 1_455
Ba7 Na13 4.251477 1_556
Ba7 Na14 4.298072 1_565
Ba7 Na16 4.325633 1_555
Ba7 Na1 4.335907 1_565
Ba7 Na6 4.351573 1_455
Ba7 Na19 4.473573 1_565
Ba8 N1 2.752363 1_555
Ba8 N5 2.752363 1_555
Ba8 N0 2.825178 1_555
Ba8 Na20 4.029730 1_555
Ba8 Na14 4.029730 1_555
Ba8 Na1 4.153420 1_555
Ba8 Na0 4.257019 1_555
Ba8 Na10 4.257019 1_555
Ba9 N3 2.752363 1_555
Ba9 N2 2.752363 1_555
Ba9 N4 2.825178 1_555
Ba9 Na20 4.029730 1_655
Ba9 Na14 4.029730 1_565
Ba9 Na8 4.153420 1_555
Ba9 Na16 4.257019 1_555
Ba9 Na4 4.257019 1_555
Ba10 N4 2.530118 1_555
Ba10 Na11 4.171941 1_554
Ba10 Na5 4.273781 1_565
Ba10 Na17 4.273781 1_655
Ba10 Na8 4.346269 1_555
Ba10 Na20 4.436811 1_655
Ba10 Na14 4.436811 1_565
Ba10 Na10 4.486416 1_655
Ba10 Na0 4.486416 1_565
Ba11 N4 2.787988 1_555
Ba11 N1 2.805356 1_555
Ba11 N5 2.805356 1_555
Ba11 Na11 4.110825 1_554
Ba11 Na18 4.169212 1_555
Ba11 Na9 4.444386 1_565
Ba11 Na13 4.444386 1_655
Ba12 N0 2.530118 1_555
Ba12 Na15 4.171941 1_556
Ba12 Na17 4.273781 1_546
Ba12 Na5 4.273781 1_456
Ba12 Na1 4.346269 1_555
Ba12 Na14 4.436811 1_555
Ba12 Na20 4.436811 1_555
Ba12 Na16 4.486416 1_545
Ba12 Na4 4.486416 1_455
Ba13 N1 2.750790 1_555
Ba13 N4 2.762727 1_555
Ba13 N3 2.829555 1_555
Ba13 Na20 4.027049 1_655
Ba13 Na19 4.094225 1_655
Ba13 Na1 4.231643 1_655
Ba13 Na10 4.261446 1_655
Ba13 Na2 4.382633 1_655
Ba13 Na13 4.459773 1_655
Na0 Na5 3.608978 1_555
Na0 Na9 3.653229 1_555
Na0 Na10 3.745053 1_555
Na0 Na14 3.810593 1_555
Na0 Na18 3.823612 1_555
Na0 Na1 3.903653 1_555
Na0 Na2 3.941190 1_555
Na0 Na3 3.945416 1_554
Na1 Na19 3.552209 1_555
Na1 Na20 3.642311 1_555
Na1 Na14 3.642311 1_555
Na1 Na10 3.903653 1_555
Na2 Na9 3.546310 1_555
Na3 Na9 3.805614 1_556
Na3 Na4 3.823612 1_555
Na4 Na5 3.608978 1_556
Na4 Na7 3.653229 1_555
Na4 Na8 3.903653 1_555
Na4 Na6 3.941190 1_555
Na5 Na9 3.966895 1_555
Na5 Na7 3.966895 1_554
Na6 Na7 3.546310 1_555
Na10 Na17 3.608978 1_555
Na10 Na13 3.653229 1_555
Na10 Na20 3.810593 1_555
Na10 Na18 3.823612 1_555
Na10 Na2 3.941190 1_555
Na10 Na3 3.945416 1_554
Na11 Na13 3.617458 1_656
Na11 Na9 3.617458 1_566
Na11 Na17 3.891246 1_656
Na11 Na5 3.891246 1_566
Na11 Na6 3.917505 1_555
Na12 Na6 3.546310 1_555
Na12 Na9 3.555539 1_566
Na12 Na15 3.617458 1_566
Na12 Na16 3.653229 1_555
Na12 Na18 3.805614 1_556
Na12 Na17 3.966895 1_556
Na13 Na2 3.546310 1_555
Na13 Na7 3.555539 1_454
Na13 Na3 3.805614 1_554
Na13 Na17 3.966895 1_555
Na14 Na8 3.642311 1_545
Na14 Na16 3.810593 1_545
Na15 Na7 3.617458 1_454
Na15 Na5 3.891246 1_455
Na15 Na17 3.891246 1_545
Na15 Na2 3.917505 1_555
Na16 Na17 3.608978 1_556
Na16 Na4 3.745053 1_555
Na16 Na3 3.823612 1_555
Na16 Na8 3.903653 1_555
Na16 Na6 3.941190 1_555
Na16 Na18 3.945416 1_556
Na18 Na3 3.573256 1_554
Na18 Na7 3.805614 1_554
Na18 Na4 3.945416 1_554
Na19 Na8 3.552209 1_445
Na19 Na2 3.813921 1_555
Na19 Na6 3.813921 1_445
Na20 Na8 3.642311 1_455
Na20 Na4 3.810593 1_455
Ca0 N5 2.571783 1_555
Ca0 N1 2.571783 1_555
Ca0 N2 2.571783 1_555
Ca0 N3 2.571783 1_555
Ca0 N0 2.580127 1_555
Ca0 N4 2.580127 1_555
