# generated using pymatgen
data_Cs3NdCl6
_symmetry_space_group_name_H-M   'P 1'
_cell_length_a   8.39529800
_cell_length_b   13.57909500
_cell_length_c   27.09991200
_cell_angle_alpha   90.00000000
_cell_angle_beta   90.00000000
_cell_angle_gamma   90.00000000
_symmetry_Int_Tables_number   1
_chemical_formula_structural   Cs3NdCl6
_chemical_formula_sum   'Cs24 Nd8 Cl48'
_cell_volume   3089.40484843
_cell_formula_units_Z   8
loop_
 _symmetry_equiv_pos_site_id
 _symmetry_equiv_pos_as_xyz
  1  'x, y, z'
loop_
 _atom_site_type_symbol
 _atom_site_label
 _atom_site_symmetry_multiplicity
 _atom_site_fract_x
 _atom_site_fract_y
 _atom_site_fract_z
 _atom_site_occupancy
  Cs  Cs0  1  0.18271700  0.75560700  0.83734200  1
  Cs  Cs1  1  0.26062800  0.08562800  0.55029200  1
  Cs  Cs2  1  0.73937200  0.91437200  0.05029200  1
  Cs  Cs3  1  0.81728300  0.25560700  0.66265800  1
  Cs  Cs4  1  0.73937200  0.58562800  0.94970800  1
  Cs  Cs5  1  0.73937200  0.91437200  0.44970800  1
  Cs  Cs6  1  0.30944800  0.40929300  0.65318200  1
  Cs  Cs7  1  0.69055200  0.90929300  0.65318200  1
  Cs  Cs8  1  0.26062800  0.41437200  0.44970800  1
  Cs  Cs9  1  0.81728300  0.24439300  0.33734200  1
  Cs  Cs10  1  0.26062800  0.41437200  0.05029200  1
  Cs  Cs11  1  0.69055200  0.59070700  0.15318200  1
  Cs  Cs12  1  0.69055200  0.90929300  0.84681800  1
  Cs  Cs13  1  0.30944800  0.40929300  0.84681800  1
  Cs  Cs14  1  0.30944800  0.09070700  0.15318200  1
  Cs  Cs15  1  0.30944800  0.09070700  0.34681800  1
  Cs  Cs16  1  0.18271700  0.74439300  0.33734200  1
  Cs  Cs17  1  0.69055200  0.59070700  0.34681800  1
  Cs  Cs18  1  0.73937200  0.58562800  0.55029200  1
  Cs  Cs19  1  0.81728300  0.25560700  0.83734200  1
  Cs  Cs20  1  0.81728300  0.24439300  0.16265800  1
  Cs  Cs21  1  0.26062800  0.08562800  0.94970800  1
  Cs  Cs22  1  0.18271700  0.75560700  0.66265800  1
  Cs  Cs23  1  0.18271700  0.74439300  0.16265800  1
  Nd  Nd0  1  0.25862400  0.08224000  0.75000000  1
  Nd  Nd1  1  0.74137600  0.58224000  0.75000000  1
  Nd  Nd2  1  0.78790500  0.25000000  0.00000000  1
  Nd  Nd3  1  0.21209500  0.75000000  0.00000000  1
  Nd  Nd4  1  0.74137600  0.91776000  0.25000000  1
  Nd  Nd5  1  0.25862400  0.41776000  0.25000000  1
  Nd  Nd6  1  0.78790500  0.25000000  0.50000000  1
  Nd  Nd7  1  0.21209500  0.75000000  0.50000000  1
  Cl  Cl0  1  0.45746600  0.36345100  0.32650100  1
  Cl  Cl1  1  0.03273900  0.31996600  0.94147800  1
  Cl  Cl2  1  0.43695800  0.84015800  0.55869100  1
  Cl  Cl3  1  0.77686100  0.41560600  0.44308300  1
  Cl  Cl4  1  0.77686100  0.08439400  0.55691700  1
  Cl  Cl5  1  0.22313900  0.58439400  0.94308300  1
  Cl  Cl6  1  0.56304200  0.34015800  0.94130900  1
  Cl  Cl7  1  0.45746600  0.13654900  0.82650100  1
  Cl  Cl8  1  0.43695800  0.65984200  0.05869100  1
  Cl  Cl9  1  0.94846600  0.52566400  0.82331300  1
  Cl  Cl10  1  0.59957900  0.39845900  0.75000000  1
  Cl  Cl11  1  0.03273900  0.31996600  0.55852200  1
  Cl  Cl12  1  0.03273900  0.18003400  0.05852200  1
  Cl  Cl13  1  0.22313900  0.58439400  0.55691700  1
  Cl  Cl14  1  0.03273900  0.18003400  0.44147800  1
  Cl  Cl15  1  0.56304200  0.15984200  0.05869100  1
  Cl  Cl16  1  0.54253400  0.63654900  0.82650100  1
  Cl  Cl17  1  0.54253400  0.86345100  0.32650100  1
  Cl  Cl18  1  0.56304200  0.34015800  0.55869100  1
  Cl  Cl19  1  0.12514300  0.26866300  0.75000000  1
  Cl  Cl20  1  0.96726100  0.68003400  0.05852200  1
  Cl  Cl21  1  0.43695800  0.65984200  0.44130900  1
  Cl  Cl22  1  0.77686100  0.08439400  0.94308300  1
  Cl  Cl23  1  0.59957900  0.10154100  0.25000000  1
  Cl  Cl24  1  0.05153400  0.02566400  0.67668700  1
  Cl  Cl25  1  0.56304200  0.15984200  0.44130900  1
  Cl  Cl26  1  0.96726100  0.68003400  0.44147800  1
  Cl  Cl27  1  0.94846600  0.97433600  0.32331300  1
  Cl  Cl28  1  0.22313900  0.91560600  0.05691700  1
  Cl  Cl29  1  0.05153400  0.47433600  0.17668700  1
  Cl  Cl30  1  0.40042100  0.89845900  0.75000000  1
  Cl  Cl31  1  0.96726100  0.81996600  0.94147800  1
  Cl  Cl32  1  0.45746600  0.36345100  0.17349900  1
  Cl  Cl33  1  0.12514300  0.23133700  0.25000000  1
  Cl  Cl34  1  0.96726100  0.81996600  0.55852200  1
  Cl  Cl35  1  0.05153400  0.47433600  0.32331300  1
  Cl  Cl36  1  0.94846600  0.52566400  0.67668700  1
  Cl  Cl37  1  0.77686100  0.41560600  0.05691700  1
  Cl  Cl38  1  0.87485700  0.73133700  0.25000000  1
  Cl  Cl39  1  0.45746600  0.13654900  0.67349900  1
  Cl  Cl40  1  0.87485700  0.76866300  0.75000000  1
  Cl  Cl41  1  0.22313900  0.91560600  0.44308300  1
  Cl  Cl42  1  0.54253400  0.86345100  0.17349900  1
  Cl  Cl43  1  0.05153400  0.02566400  0.82331300  1
  Cl  Cl44  1  0.43695800  0.84015800  0.94130900  1
  Cl  Cl45  1  0.40042100  0.60154100  0.25000000  1
  Cl  Cl46  1  0.94846600  0.97433600  0.17668700  1
  Cl  Cl47  1  0.54253400  0.63654900  0.67349900  1
loop_
_geom_bond_atom_site_label_1
_geom_bond_atom_site_label_2
_geom_bond_distance
_geom_bond_site_symmetry_2
Cl0 Nd5 2.761989 1_555
Cl0 Cs9 3.438763 1_555
Cl0 Cs17 3.695306 1_555
Cl0 Cs8 3.789085 1_555
Cl0 Cs15 3.945138 1_555
Cl1 Nd2 2.764551 1_456
Cl1 Cs19 3.464059 1_455
Cl1 Cs13 3.667227 1_555
Cl1 Cs21 3.719652 1_555
Cl1 Cs10 3.741581 1_556
Cl2 Nd7 2.755420 1_555
Cl2 Cs7 3.459932 1_555
Cl2 Cs1 3.654292 1_565
Cl2 Cs22 3.716486 1_555
Cl2 Cs5 4.022948 1_555
Cl3 Nd6 2.728506 1_555
Cl3 Cs17 3.603366 1_555
Cl3 Cs9 3.705659 1_555
Cl3 Cs18 3.724304 1_555
Cl3 Cs8 4.065369 1_655
Cl4 Nd6 2.728506 1_555
Cl4 Cs7 3.603366 1_545
Cl4 Cs3 3.705659 1_555
Cl4 Cs5 3.724304 1_545
Cl4 Cs1 4.065369 1_655
Cl5 Nd3 2.728506 1_556
Cl5 Cs13 3.603366 1_555
Cl5 Cs0 3.705659 1_555
Cl5 Cs10 3.724304 1_556
Cl5 Cs4 4.065369 1_455
Cl6 Nd2 2.755420 1_556
Cl6 Cs13 3.459932 1_555
Cl6 Cs4 3.654292 1_555
Cl6 Cs19 3.716486 1_555
Cl6 Cs10 4.022948 1_556
Cl7 Nd0 2.761989 1_555
Cl7 Cs19 3.438763 1_555
Cl7 Cs12 3.695306 1_545
Cl7 Cs21 3.789085 1_555
Cl7 Cs13 3.945138 1_555
Cl8 Nd3 2.755420 1_555
Cl8 Cs11 3.459932 1_555
Cl8 Cs10 3.654292 1_555
Cl8 Cs23 3.716486 1_555
Cl8 Cs4 4.022948 1_554
Cl9 Nd1 2.749574 1_555
Cl9 Cs13 3.476645 1_655
Cl9 Cs0 3.709660 1_655
Cl9 Cs19 3.847764 1_555
Cl9 Cs4 3.934095 1_555
Cl10 Nd1 2.764966 1_555
Cl10 Cs19 3.564517 1_555
Cl10 Cs3 3.564517 1_555
Cl10 Cs13 3.583095 1_555
Cl10 Cs6 3.583095 1_555
Cl11 Nd6 2.764551 1_455
Cl11 Cs3 3.464059 1_455
Cl11 Cs6 3.667227 1_555
Cl11 Cs1 3.719652 1_555
Cl11 Cs8 3.741581 1_555
Cl12 Nd2 2.764551 1_455
Cl12 Cs20 3.464059 1_455
Cl12 Cs14 3.667227 1_555
Cl12 Cs10 3.719652 1_555
Cl12 Cs21 3.741581 1_554
Cl13 Nd7 2.728506 1_555
Cl13 Cs6 3.603366 1_555
Cl13 Cs22 3.705659 1_555
Cl13 Cs8 3.724304 1_555
Cl13 Cs18 4.065369 1_455
Cl14 Nd6 2.764551 1_455
Cl14 Cs9 3.464059 1_455
Cl14 Cs15 3.667227 1_555
Cl14 Cs8 3.719652 1_555
Cl14 Cs1 3.741581 1_555
Cl15 Nd2 2.755420 1_555
Cl15 Cs14 3.459932 1_555
Cl15 Cs2 3.654292 1_545
Cl15 Cs20 3.716486 1_555
Cl15 Cs21 4.022948 1_554
Cl16 Nd1 2.761989 1_555
Cl16 Cs0 3.438763 1_555
Cl16 Cs13 3.695306 1_555
Cl16 Cs4 3.789085 1_555
Cl16 Cs12 3.945138 1_555
Cl17 Nd4 2.761989 1_555
Cl17 Cs16 3.438763 1_555
Cl17 Cs15 3.695306 1_565
Cl17 Cs5 3.789085 1_555
Cl17 Cs17 3.945138 1_555
Cl18 Nd6 2.755420 1_555
Cl18 Cs6 3.459932 1_555
Cl18 Cs18 3.654292 1_555
Cl18 Cs3 3.716486 1_555
Cl18 Cs8 4.022948 1_555
Cl19 Nd0 2.768400 1_555
Cl19 Cs19 3.509126 1_455
Cl19 Cs3 3.509126 1_455
Cl19 Cs13 3.595124 1_555
Cl19 Cs6 3.595124 1_555
Cl20 Nd3 2.764551 1_655
Cl20 Cs23 3.464059 1_655
Cl20 Cs11 3.667227 1_555
Cl20 Cs2 3.719652 1_555
Cl20 Cs4 3.741581 1_554
Cl21 Nd7 2.755420 1_555
Cl21 Cs17 3.459932 1_555
Cl21 Cs8 3.654292 1_555
Cl21 Cs16 3.716486 1_555
Cl21 Cs18 4.022948 1_555
Cl22 Nd2 2.728506 1_556
Cl22 Cs12 3.603366 1_545
Cl22 Cs19 3.705659 1_555
Cl22 Cs2 3.724304 1_546
Cl22 Cs21 4.065369 1_655
Cl23 Nd4 2.764966 1_545
Cl23 Cs20 3.564517 1_555
Cl23 Cs9 3.564517 1_555
Cl23 Cs15 3.583095 1_555
Cl23 Cs14 3.583095 1_555
Cl24 Nd0 2.749574 1_555
Cl24 Cs7 3.476645 1_445
Cl24 Cs3 3.709660 1_455
Cl24 Cs22 3.847764 1_545
Cl24 Cs1 3.934095 1_555
Cl25 Nd6 2.755420 1_555
Cl25 Cs15 3.459932 1_555
Cl25 Cs5 3.654292 1_545
Cl25 Cs9 3.716486 1_555
Cl25 Cs1 4.022948 1_555
Cl26 Nd7 2.764551 1_655
Cl26 Cs16 3.464059 1_655
Cl26 Cs17 3.667227 1_555
Cl26 Cs5 3.719652 1_555
Cl26 Cs18 3.741581 1_555
Cl27 Nd4 2.749574 1_555
Cl27 Cs15 3.476645 1_665
Cl27 Cs16 3.709660 1_655
Cl27 Cs9 3.847764 1_565
Cl27 Cs5 3.934095 1_555
Cl28 Nd3 2.728506 1_555
Cl28 Cs14 3.603366 1_565
Cl28 Cs23 3.705659 1_555
Cl28 Cs21 3.724304 1_564
Cl28 Cs2 4.065369 1_455
Cl29 Nd5 2.749574 1_555
Cl29 Cs11 3.476645 1_455
Cl29 Cs20 3.709660 1_455
Cl29 Cs23 3.847764 1_555
Cl29 Cs10 3.934095 1_555
Cl30 Nd0 2.764966 1_565
Cl30 Cs0 3.564517 1_555
Cl30 Cs22 3.564517 1_555
Cl30 Cs12 3.583095 1_555
Cl30 Cs7 3.583095 1_555
Cl31 Nd3 2.764551 1_656
Cl31 Cs0 3.464059 1_655
Cl31 Cs12 3.667227 1_555
Cl31 Cs4 3.719652 1_555
Cl31 Cs2 3.741581 1_556
Cl32 Nd5 2.761989 1_555
Cl32 Cs20 3.438763 1_555
Cl32 Cs11 3.695306 1_555
Cl32 Cs10 3.789085 1_555
Cl32 Cs14 3.945138 1_555
Cl33 Nd5 2.768400 1_555
Cl33 Cs9 3.509126 1_455
Cl33 Cs20 3.509126 1_455
Cl33 Cs15 3.595124 1_555
Cl33 Cs14 3.595124 1_555
Cl34 Nd7 2.764551 1_655
Cl34 Cs22 3.464059 1_655
Cl34 Cs7 3.667227 1_555
Cl34 Cs18 3.719652 1_555
Cl34 Cs5 3.741581 1_555
Cl35 Nd5 2.749574 1_555
Cl35 Cs17 3.476645 1_455
Cl35 Cs9 3.709660 1_455
Cl35 Cs16 3.847764 1_555
Cl35 Cs8 3.934095 1_555
Cl36 Nd1 2.749574 1_555
Cl36 Cs6 3.476645 1_655
Cl36 Cs22 3.709660 1_655
Cl36 Cs3 3.847764 1_555
Cl36 Cs18 3.934095 1_555
Cl37 Nd2 2.728506 1_555
Cl37 Cs11 3.603366 1_555
Cl37 Cs20 3.705659 1_555
Cl37 Cs4 3.724304 1_554
Cl37 Cs10 4.065369 1_655
Cl38 Nd4 2.768400 1_555
Cl38 Cs16 3.509126 1_655
Cl38 Cs23 3.509126 1_655
Cl38 Cs17 3.595124 1_555
Cl38 Cs11 3.595124 1_555
Cl39 Nd0 2.761989 1_555
Cl39 Cs3 3.438763 1_555
Cl39 Cs7 3.695306 1_545
Cl39 Cs1 3.789085 1_555
Cl39 Cs6 3.945138 1_555
Cl40 Nd1 2.768400 1_555
Cl40 Cs0 3.509126 1_655
Cl40 Cs22 3.509126 1_655
Cl40 Cs12 3.595124 1_555
Cl40 Cs7 3.595124 1_555
Cl41 Nd7 2.728506 1_555
Cl41 Cs15 3.603366 1_565
Cl41 Cs16 3.705659 1_555
Cl41 Cs1 3.724304 1_565
Cl41 Cs5 4.065369 1_455
Cl42 Nd4 2.761989 1_555
Cl42 Cs23 3.438763 1_555
Cl42 Cs14 3.695306 1_565
Cl42 Cs2 3.789085 1_555
Cl42 Cs11 3.945138 1_555
Cl43 Nd0 2.749574 1_555
Cl43 Cs12 3.476645 1_445
Cl43 Cs19 3.709660 1_455
Cl43 Cs0 3.847764 1_545
Cl43 Cs21 3.934095 1_555
Cl44 Nd3 2.755420 1_556
Cl44 Cs12 3.459932 1_555
Cl44 Cs21 3.654292 1_565
Cl44 Cs0 3.716486 1_555
Cl44 Cs2 4.022948 1_556
Cl45 Nd5 2.764966 1_555
Cl45 Cs16 3.564517 1_555
Cl45 Cs23 3.564517 1_555
Cl45 Cs17 3.583095 1_555
Cl45 Cs11 3.583095 1_555
Cl46 Nd4 2.749574 1_555
Cl46 Cs14 3.476645 1_665
Cl46 Cs23 3.709660 1_655
Cl46 Cs20 3.847764 1_565
Cl46 Cs2 3.934095 1_555
Cl47 Nd1 2.761989 1_555
Cl47 Cs22 3.438763 1_555
Cl47 Cs6 3.695306 1_555
Cl47 Cs18 3.789085 1_555
Cl47 Cs7 3.945138 1_555
