# generated using pymatgen
data_MgAl2O4
_symmetry_space_group_name_H-M   'P 1'
_cell_length_a   5.78452937
_cell_length_b   5.78452937
_cell_length_c   33.17801425
_cell_angle_alpha   84.81009908
_cell_angle_beta   84.81009908
_cell_angle_gamma   59.73024688
_symmetry_Int_Tables_number   1
_chemical_formula_structural   MgAl2O4
_chemical_formula_sum   'Mg14 Al28 O56'
_cell_volume   953.57431412
_cell_formula_units_Z   14
loop_
 _symmetry_equiv_pos_site_id
 _symmetry_equiv_pos_as_xyz
  1  'x, y, z'
loop_
 _atom_site_type_symbol
 _atom_site_label
 _atom_site_symmetry_multiplicity
 _atom_site_fract_x
 _atom_site_fract_y
 _atom_site_fract_z
 _atom_site_occupancy
  Mg  Mg0  1  0.65652800  0.65652800  0.02030100  1
  Mg  Mg1  1  0.14252900  0.14252900  0.07171400  1
  Mg  Mg2  1  0.63007300  0.63007300  0.12515800  1
  Mg  Mg3  1  0.43026400  0.43026400  0.21437300  1
  Mg  Mg4  1  0.91569900  0.91569900  0.26871600  1
  Mg  Mg5  1  0.80347000  0.80347000  0.58680900  1
  Mg  Mg6  1  0.71629300  0.71629300  0.35702600  1
  Mg  Mg7  1  0.09006600  0.09006600  0.73158900  1
  Mg  Mg8  1  0.20132000  0.20132000  0.41165100  1
  Mg  Mg9  1  0.00205400  0.00205400  0.49970700  1
  Mg  Mg10  1  0.48619600  0.48619600  0.55408600  1
  Mg  Mg11  1  0.37584400  0.37584400  0.87448000  1
  Mg  Mg12  1  0.76763200  0.76763200  0.69550700  1
  Mg  Mg13  1  0.05299400  0.05299400  0.83936000  1
  Al  Al0  1  0.94002200  0.94002200  0.16097800  1
  Al  Al1  1  0.64303700  0.14268300  0.07236100  1
  Al  Al2  1  0.28564100  0.28564100  0.14119500  1
  Al  Al3  1  0.22530400  0.22530400  0.30270100  1
  Al  Al4  1  0.14268300  0.64303700  0.07236100  1
  Al  Al5  1  0.91897900  0.43363600  0.21493300  1
  Al  Al6  1  0.57106700  0.57106700  0.28427200  1
  Al  Al7  1  0.51107400  0.51107400  0.44435700  1
  Al  Al8  1  0.43363600  0.91897900  0.21493300  1
  Al  Al9  1  0.20391100  0.71932300  0.35762500  1
  Al  Al10  1  0.85679900  0.85679900  0.42676000  1
  Al  Al11  1  0.00401800  0.49274900  0.50017100  1
  Al  Al12  1  0.71932300  0.20391100  0.35762500  1
  Al  Al13  1  0.49274900  0.00401800  0.50017100  1
  Al  Al14  1  0.14539700  0.14539700  0.57124900  1
  Al  Al15  1  0.28539800  0.78713400  0.64258000  1
  Al  Al16  1  0.78713400  0.28539800  0.64258000  1
  Al  Al17  1  0.57109000  0.57109000  0.78536600  1
  Al  Al18  1  0.42906300  0.42906300  0.71366900  1
  Al  Al19  1  0.57113800  0.07254900  0.78536700  1
  Al  Al20  1  0.07254900  0.57113800  0.78536700  1
  Al  Al21  1  0.85397100  0.85397100  0.92857400  1
  Al  Al22  1  0.28599000  0.28599000  0.64287900  1
  Al  Al23  1  0.71430900  0.71430900  0.85636400  1
  Al  Al24  1  0.36239100  0.85485700  0.92882700  1
  Al  Al25  1  0.85485700  0.36239100  0.92882700  1
  Al  Al26  1  0.99564700  0.99564700  0.00354400  1
  Al  Al27  1  0.33981900  0.33981900  0.98291500  1
  O  O0  1  0.28065500  0.82360900  0.03617100  1
  O  O1  1  0.82360900  0.28065500  0.03617100  1
  O  O2  1  0.95826200  0.95826200  0.10594100  1
  O  O3  1  0.83576400  0.83576400  0.03840500  1
  O  O4  1  0.58466100  0.10742200  0.17750500  1
  O  O5  1  0.45139900  0.45139900  0.10349900  1
  O  O6  1  0.32684600  0.32684600  0.03606600  1
  O  O7  1  0.10742200  0.58466100  0.17750500  1
  O  O8  1  0.46079600  0.00399100  0.10515000  1
  O  O9  1  0.24285800  0.24285800  0.24639200  1
  O  O10  1  0.11359500  0.11359500  0.17832300  1
  O  O11  1  0.00399100  0.46079600  0.10515000  1
  O  O12  1  0.87171400  0.39229600  0.32016400  1
  O  O13  1  0.73832200  0.73832200  0.24765400  1
  O  O14  1  0.61593000  0.61593000  0.18332300  1
  O  O15  1  0.52846100  0.52846100  0.38840600  1
  O  O16  1  0.39229600  0.87171400  0.32016400  1
  O  O17  1  0.74698600  0.28715700  0.24877300  1
  O  O18  1  0.39817900  0.39817900  0.32071100  1
  O  O19  1  0.28715700  0.74698600  0.24877300  1
  O  O20  1  0.16047600  0.67679600  0.46259400  1
  O  O21  1  0.02390200  0.02390200  0.39069800  1
  O  O22  1  0.67679600  0.16047600  0.46259400  1
  O  O23  1  0.03277700  0.57219000  0.39170800  1
  O  O24  1  0.90150600  0.90150600  0.32655600  1
  O  O25  1  0.81385000  0.81385000  0.52721900  1
  O  O26  1  0.68133700  0.68133700  0.46293400  1
  O  O27  1  0.57219000  0.03277700  0.39170800  1
  O  O28  1  0.43055800  0.98228900  0.61041400  1
  O  O29  1  0.30917900  0.30917900  0.53452000  1
  O  O30  1  0.98228900  0.43055800  0.61041400  1
  O  O31  1  0.31836400  0.86007800  0.53657900  1
  O  O32  1  0.10844500  0.10844500  0.67320500  1
  O  O33  1  0.18660800  0.18660800  0.47014700  1
  O  O34  1  0.98064800  0.98064800  0.60970800  1
  O  O35  1  0.86007800  0.31836400  0.53657900  1
  O  O36  1  0.71438200  0.26642200  0.75301500  1
  O  O37  1  0.58872900  0.58872900  0.67777100  1
  O  O38  1  0.58911700  0.14468400  0.67788300  1
  O  O39  1  0.46261800  0.46261800  0.61408800  1
  O  O40  1  0.39458900  0.39458900  0.81613300  1
  O  O41  1  0.26642200  0.71438200  0.75301500  1
  O  O42  1  0.26673100  0.26673100  0.75301200  1
  O  O43  1  0.14468400  0.58911700  0.67788300  1
  O  O44  1  0.99920400  0.55231000  0.89560600  1
  O  O45  1  0.87463000  0.87463000  0.82061900  1
  O  O46  1  0.87485800  0.42939400  0.82063800  1
  O  O47  1  0.55231000  0.99920400  0.89560600  1
  O  O48  1  0.74785400  0.74785400  0.75649100  1
  O  O49  1  0.67967700  0.67967700  0.95935900  1
  O  O50  1  0.55269500  0.55269500  0.89579400  1
  O  O51  1  0.42939400  0.87485800  0.82063800  1
  O  O52  1  0.16974000  0.16974000  0.96384100  1
  O  O53  1  0.03332600  0.03332600  0.90130200  1
  O  O54  1  0.16677300  0.69645300  0.96323100  1
  O  O55  1  0.69645300  0.16677300  0.96323100  1
loop_
_geom_bond_atom_site_label_1
_geom_bond_atom_site_label_2
_geom_bond_distance
_geom_bond_site_symmetry_2
Mg0 O0 1.924876 1_555
Mg0 O1 1.924876 1_555
Mg0 O3 1.954407 1_555
Mg0 O49 2.011018 1_554
Mg1 O8 1.995870 1_555
Mg1 O11 1.995870 1_555
Mg1 O0 2.041919 1_545
Mg1 O1 2.041919 1_455
Mg1 O2 2.066218 1_445
Mg1 O6 2.088565 1_555
Mg2 O14 1.920191 1_555
Mg2 O8 1.949473 1_565
Mg2 O11 1.949473 1_655
Mg2 O5 1.999617 1_555
Mg3 O17 2.005699 1_555
Mg3 O19 2.005699 1_555
Mg3 O14 2.032412 1_555
Mg3 O9 2.060813 1_555
Mg3 O7 2.077394 1_555
Mg3 O4 2.077394 1_555
Mg4 O24 1.909422 1_555
Mg4 O17 1.937200 1_565
Mg4 O19 1.937200 1_655
Mg4 O13 1.978536 1_555
Mg5 O25 1.968941 1_555
Mg5 O28 1.981901 1_555
Mg5 O30 1.981901 1_555
Mg5 O34 2.004672 1_555
Mg6 O27 2.009859 1_565
Mg6 O23 2.009859 1_655
Mg6 O24 2.020630 1_555
Mg6 O15 2.055683 1_555
Mg6 O12 2.081734 1_555
Mg6 O16 2.081734 1_555
Mg7 O32 1.926579 1_555
Mg7 O36 1.971133 1_455
Mg7 O41 1.971133 1_545
Mg7 O42 1.977246 1_555
Mg8 O33 1.930973 1_555
Mg8 O23 1.934421 1_555
Mg8 O27 1.934421 1_555
Mg8 O21 1.977308 1_555
Mg9 O33 2.002834 1_555
Mg9 O25 2.009702 1_445
Mg9 O35 2.055999 1_455
Mg9 O31 2.055999 1_545
Mg9 O22 2.091089 1_455
Mg9 O20 2.091089 1_545
Mg10 O35 1.927514 1_555
Mg10 O31 1.927514 1_555
Mg10 O29 1.953444 1_555
Mg10 O39 1.980098 1_555
Mg11 O40 1.925327 1_555
Mg11 O44 1.972574 1_455
Mg11 O47 1.972574 1_545
Mg11 O50 1.977355 1_555
Mg12 O38 1.942479 1_565
Mg12 O43 1.942479 1_655
Mg12 O37 1.946329 1_555
Mg12 O48 2.012330 1_555
Mg13 O46 1.948728 1_455
Mg13 O51 1.948728 1_545
Mg13 O45 1.954725 1_445
Mg13 O53 2.043973 1_555
Al0 O2 1.816073 1_555
Al0 O4 1.830094 1_565
Al0 O7 1.830094 1_655
Al0 O10 1.890164 1_665
Al1 O8 1.850850 1_555
Al1 O1 1.899966 1_555
Al1 O5 1.901578 1_555
Al1 O3 1.950206 1_545
Al1 O2 1.973738 1_545
Al1 O6 2.032809 1_555
Al2 O11 1.892143 1_555
Al2 O8 1.892143 1_555
Al2 O4 1.964818 1_555
Al2 O7 1.964818 1_555
Al2 O5 1.973793 1_555
Al2 O10 2.013257 1_555
Al3 O12 1.829556 1_455
Al3 O16 1.829556 1_545
Al3 O9 1.858124 1_555
Al3 O18 1.892459 1_555
Al4 O11 1.850850 1_555
Al4 O0 1.899966 1_555
Al4 O5 1.901578 1_555
Al4 O3 1.950206 1_455
Al4 O2 1.973738 1_455
Al4 O6 2.032809 1_555
Al5 O17 1.855796 1_555
Al5 O14 1.885151 1_555
Al5 O13 1.913378 1_555
Al5 O9 1.969327 1_655
Al5 O7 2.003080 1_655
Al5 O10 2.056288 1_655
Al6 O19 1.888942 1_555
Al6 O17 1.888942 1_555
Al6 O16 1.962329 1_555
Al6 O12 1.962329 1_555
Al6 O13 1.966330 1_555
Al6 O18 2.008169 1_555
Al7 O20 1.822362 1_555
Al7 O22 1.822362 1_555
Al7 O15 1.846316 1_555
Al7 O26 1.875489 1_555
Al8 O19 1.855796 1_555
Al8 O14 1.885151 1_555
Al8 O13 1.913378 1_555
Al8 O9 1.969327 1_565
Al8 O4 2.003080 1_565
Al8 O10 2.056288 1_565
Al9 O23 1.858977 1_555
Al9 O24 1.871982 1_455
Al9 O21 1.919884 1_565
Al9 O15 1.959512 1_555
Al9 O16 2.008602 1_555
Al9 O18 2.066827 1_555
Al10 O27 1.881958 1_565
Al10 O23 1.881958 1_655
Al10 O21 1.955427 1_665
Al10 O20 1.973148 1_655
Al10 O22 1.973148 1_565
Al10 O26 2.024482 1_555
Al11 O33 1.867358 1_555
Al11 O25 1.878431 1_455
Al11 O35 1.901126 1_455
Al11 O29 1.948750 1_555
Al11 O20 2.008473 1_555
Al11 O26 2.078700 1_455
Al12 O27 1.858977 1_555
Al12 O24 1.871982 1_545
Al12 O21 1.919884 1_655
Al12 O15 1.959512 1_555
Al12 O12 2.008602 1_555
Al12 O18 2.066827 1_555
Al13 O33 1.867358 1_555
Al13 O25 1.878431 1_545
Al13 O31 1.901126 1_545
Al13 O29 1.948750 1_555
Al13 O22 2.008473 1_555
Al13 O26 2.078700 1_545
Al14 O35 1.875803 1_455
Al14 O31 1.875803 1_545
Al14 O29 1.940944 1_555
Al14 O28 1.973975 1_545
Al14 O30 1.973975 1_455
Al14 O34 1.979941 1_445
Al15 O39 1.916761 1_555
Al15 O34 1.920333 1_455
Al15 O28 1.921954 1_555
Al15 O32 1.941699 1_565
Al15 O37 1.963964 1_555
Al15 O43 1.967537 1_555
Al16 O39 1.916761 1_555
Al16 O34 1.920333 1_545
Al16 O30 1.921954 1_555
Al16 O32 1.941699 1_655
Al16 O37 1.963964 1_555
Al16 O38 1.967537 1_555
Al17 O41 1.911441 1_555
Al17 O36 1.911441 1_555
Al17 O48 1.925713 1_555
Al17 O40 1.949505 1_555
Al17 O51 1.968609 1_555
Al17 O46 1.968609 1_555
Al18 O37 1.893816 1_555
Al18 O38 1.895249 1_555
Al18 O43 1.895249 1_555
Al18 O42 1.978078 1_555
Al18 O36 1.978735 1_555
Al18 O41 1.978735 1_555
Al19 O42 1.909052 1_555
Al19 O36 1.911681 1_555
Al19 O48 1.924381 1_545
Al19 O40 1.947458 1_555
Al19 O45 1.965610 1_545
Al19 O51 1.969510 1_545
Al20 O42 1.909052 1_555
Al20 O41 1.911681 1_555
Al20 O48 1.924381 1_455
Al20 O40 1.947458 1_555
Al20 O45 1.965610 1_455
Al20 O46 1.969510 1_455
Al21 O47 1.910047 1_555
Al21 O44 1.910047 1_555
Al21 O53 1.927937 1_665
Al21 O49 1.930896 1_555
Al21 O55 1.987739 1_565
Al21 O54 1.987739 1_655
Al22 O28 1.908942 1_545
Al22 O30 1.908942 1_455
Al22 O39 1.923409 1_555
Al22 O32 1.952261 1_555
Al22 O38 1.960413 1_555
Al22 O43 1.960413 1_555
Al23 O51 1.896024 1_555
Al23 O46 1.896024 1_555
Al23 O45 1.896217 1_555
Al23 O50 1.974312 1_555
Al23 O44 1.974761 1_555
Al23 O47 1.974761 1_555
Al24 O50 1.912204 1_555
Al24 O47 1.912633 1_555
Al24 O53 1.919855 1_565
Al24 O49 1.922807 1_555
Al24 O52 2.002835 1_565
Al24 O54 2.011300 1_555
Al25 O50 1.912204 1_555
Al25 O44 1.912633 1_555
Al25 O53 1.919855 1_655
Al25 O49 1.922807 1_555
Al25 O52 2.002835 1_655
Al25 O55 2.011300 1_555
Al26 O0 1.831423 1_655
Al26 O1 1.831423 1_565
Al26 O3 1.877157 1_555
Al26 O54 2.053343 1_654
Al26 O55 2.053343 1_564
Al26 O52 2.075065 1_664
Al27 O6 1.754650 1_556
Al27 O54 1.864672 1_555
Al27 O55 1.864672 1_555
Al27 O52 1.880794 1_555
