# generated using pymatgen
data_Mn3V6(FeO6)4
_symmetry_space_group_name_H-M   'P 1'
_cell_length_a   6.78847700
_cell_length_b   8.30979009
_cell_length_c   10.01128120
_cell_angle_alpha   105.87908096
_cell_angle_beta   105.48435972
_cell_angle_gamma   102.76738850
_symmetry_Int_Tables_number   1
_chemical_formula_structural   Mn3V6(FeO6)4
_chemical_formula_sum   'Mn3 V6 Fe4 O24'
_cell_volume   496.44198266
_cell_formula_units_Z   1
loop_
 _symmetry_equiv_pos_site_id
 _symmetry_equiv_pos_as_xyz
  1  'x, y, z'
loop_
 _atom_site_type_symbol
 _atom_site_label
 _atom_site_symmetry_multiplicity
 _atom_site_fract_x
 _atom_site_fract_y
 _atom_site_fract_z
 _atom_site_occupancy
  Mn  Mn0  1  0.78344100  0.79577400  0.29702600  1
  Mn  Mn1  1  0.50000000  0.00000000  0.00000000  1
  Mn  Mn2  1  0.21655900  0.20422600  0.70297400  1
  V  V0  1  0.60928900  0.59827200  0.83411600  1
  V  V1  1  0.90037200  0.23492300  0.36823600  1
  V  V2  1  0.09962800  0.76507700  0.63176400  1
  V  V3  1  0.71867000  0.15795700  0.76619600  1
  V  V4  1  0.28133000  0.84204300  0.23380400  1
  V  V5  1  0.39071100  0.40172800  0.16588400  1
  Fe  Fe0  1  0.54295700  0.70642600  0.51828500  1
  Fe  Fe1  1  0.12303500  0.54640800  0.89550400  1
  Fe  Fe2  1  0.45704300  0.29357400  0.48171500  1
  Fe  Fe3  1  0.87696500  0.45359200  0.10449600  1
  O  O0  1  0.02948500  0.72377100  0.22955300  1
  O  O1  1  0.06353000  0.63576500  0.73797800  1
  O  O2  1  0.32123600  0.05912800  0.31818800  1
  O  O3  1  0.93647000  0.36423500  0.26202200  1
  O  O4  1  0.63883400  0.81065200  0.91654000  1
  O  O5  1  0.15058600  0.25031100  0.49714700  1
  O  O6  1  0.67876400  0.94087200  0.68181200  1
  O  O7  1  0.97051500  0.27622900  0.77044700  1
  O  O8  1  0.71032500  0.20332800  0.94901400  1
  O  O9  1  0.51392000  0.21763500  0.65885600  1
  O  O10  1  0.26190300  0.70462200  0.53474300  1
  O  O11  1  0.48608000  0.78236600  0.34114400  1
  O  O12  1  0.37364800  0.47739500  0.84943100  1
  O  O13  1  0.73809700  0.29537800  0.46525700  1
  O  O14  1  0.42386600  0.44582700  0.35607800  1
  O  O15  1  0.62635200  0.52260500  0.15056900  1
  O  O16  1  0.84941400  0.74968900  0.50285300  1
  O  O17  1  0.28967500  0.79667200  0.05098600  1
  O  O18  1  0.23458100  0.98036600  0.75608100  1
  O  O19  1  0.36116600  0.18934800  0.08346000  1
  O  O20  1  0.57613400  0.55417300  0.64392200  1
  O  O21  1  0.83468000  0.54004900  0.92606700  1
  O  O22  1  0.76541900  0.01963400  0.24391900  1
  O  O23  1  0.16532000  0.45995100  0.07393300  1
loop_
_geom_bond_atom_site_label_1
_geom_bond_atom_site_label_2
_geom_bond_distance
_geom_bond_site_symmetry_2
Mn0 O22 2.089297 1_565
Mn0 O0 2.104053 1_655
Mn0 O16 2.146657 1_555
Mn0 O11 2.164702 1_555
Mn0 O15 2.171111 1_555
Mn1 O19 2.102046 1_555
Mn1 O4 2.102046 1_544
Mn1 O8 2.224576 1_554
Mn1 O17 2.224576 1_545
Mn1 O22 2.557125 1_555
Mn1 O18 2.557125 1_544
Mn2 O18 2.089297 1_545
Mn2 O7 2.104053 1_455
Mn2 O5 2.146657 1_555
Mn2 O9 2.164701 1_555
Mn2 O12 2.171111 1_555
Fe0 O10 1.955538 1_555
Fe0 O6 1.995124 1_555
Fe0 O11 2.011652 1_555
Fe0 O20 2.019642 1_555
Fe0 O16 2.086270 1_555
Fe0 O14 2.140329 1_555
Fe1 O1 1.906516 1_555
Fe1 O12 2.035060 1_555
Fe1 O21 2.052101 1_455
Fe1 O17 2.067876 1_556
Fe1 O23 2.075828 1_556
Fe1 O7 2.102940 1_455
Fe2 O13 1.955538 1_555
Fe2 O2 1.995124 1_555
Fe2 O9 2.011647 1_555
Fe2 O14 2.019642 1_555
Fe2 O5 2.086270 1_555
Fe2 O20 2.140329 1_555
Fe3 O3 1.906516 1_555
Fe3 O15 2.035060 1_555
Fe3 O23 2.052101 1_655
Fe3 O8 2.067876 1_554
Fe3 O21 2.075828 1_554
Fe3 O0 2.102940 1_655
O0 V4 1.756766 1_555
O1 V2 1.730148 1_555
O2 V4 1.693844 1_545
O3 V1 1.730148 1_555
O4 V0 1.671540 1_555
O5 V1 1.791722 1_455
O6 V3 1.693844 1_565
O7 V3 1.756766 1_555
O8 V3 1.783912 1_555
O9 V3 1.769574 1_555
O10 V2 1.719952 1_555
O11 V4 1.769569 1_555
O12 V0 1.759650 1_555
O13 V1 1.719952 1_555
O14 V5 1.778589 1_555
O15 V5 1.759650 1_555
O16 V2 1.791722 1_655
O17 V4 1.783912 1_555
O18 V2 1.742753 1_555
O19 V5 1.671540 1_555
O20 V0 1.778589 1_555
O21 V0 1.800395 1_555
O22 V1 1.742753 1_555
O23 V5 1.800395 1_555
