# generated using pymatgen
data_CaRh2
_symmetry_space_group_name_H-M   'P 1'
_cell_length_a   5.31333425
_cell_length_b   5.31341407
_cell_length_c   5.31298517
_cell_angle_alpha   60.00310268
_cell_angle_beta   60.01180004
_cell_angle_gamma   60.00357676
_symmetry_Int_Tables_number   1
_chemical_formula_structural   CaRh2
_chemical_formula_sum   'Ca2 Rh4'
_cell_volume   106.07793194
_cell_formula_units_Z   2
loop_
 _symmetry_equiv_pos_site_id
 _symmetry_equiv_pos_as_xyz
  1  'x, y, z'
loop_
 _atom_site_type_symbol
 _atom_site_label
 _atom_site_symmetry_multiplicity
 _atom_site_fract_x
 _atom_site_fract_y
 _atom_site_fract_z
 _atom_site_occupancy
  Ca  Ca0  1  0.37498391  0.37500988  0.37496235  1
  Ca  Ca1  1  0.62501709  0.62499012  0.62503765  1
  Rh  Rh0  1  -0.00000000  0.50000000  0.00000000  1
  Rh  Rh1  1  0.50000000  0.00000000  0.00000000  1
  Rh  Rh2  1  -0.00000000  -0.00000000  0.00000000  1
  Rh  Rh3  1  -0.00000000  0.00000000  0.50000000  1
loop_
_geom_bond_atom_site_label_1
_geom_bond_atom_site_label_2
_geom_bond_distance
_geom_bond_site_symmetry_2
Ca0 Rh0 3.114697 1_555
Ca0 Rh1 3.115009 1_555
Ca0 Rh2 3.115027 1_565
Ca0 Rh3 3.115176 1_555
Ca0 Rh1 3.115236 1_556
Ca0 Rh3 3.115366 1_655
Ca0 Rh1 3.115390 1_565
Ca0 Rh3 3.115440 1_565
Ca0 Rh0 3.115553 1_556
Ca0 Rh2 3.115583 1_655
Ca0 Rh2 3.115619 1_556
Ca0 Rh0 3.115634 1_655
Ca0 Ca1 3.253536 1_554
Ca0 Ca1 3.253918 1_555
Ca0 Ca1 3.253942 1_545
Ca0 Ca1 3.253948 1_455
Ca1 Rh0 3.114692 1_656
Ca1 Rh1 3.115007 1_566
Ca1 Rh2 3.115025 1_656
Ca1 Rh3 3.115171 1_665
Ca1 Rh1 3.115238 1_565
Ca1 Rh3 3.115371 1_565
Ca1 Rh1 3.115392 1_556
Ca1 Rh3 3.115440 1_655
Ca1 Rh0 3.115553 1_655
Ca1 Rh2 3.115585 1_566
Ca1 Rh2 3.115617 1_665
Ca1 Rh0 3.115638 1_556
Rh0 Rh2 2.656707 1_565
Rh0 Rh2 2.656707 1_555
Rh0 Rh3 2.656724 1_555
Rh0 Rh3 2.656724 1_564
Rh0 Rh1 2.656831 1_555
Rh0 Rh1 2.656831 1_465
Rh1 Rh2 2.656667 1_655
Rh1 Rh2 2.656667 1_555
Rh1 Rh3 2.657054 1_555
Rh1 Rh3 2.657054 1_654
Rh2 Rh3 2.656493 1_555
Rh2 Rh3 2.656493 1_554
