# generated using pymatgen
data_Ca4P6O19
_symmetry_space_group_name_H-M   'P 1'
_cell_length_a   6.86513985
_cell_length_b   9.16714681
_cell_length_c   12.82163717
_cell_angle_alpha   109.68823124
_cell_angle_beta   99.91005579
_cell_angle_gamma   91.70037708
_symmetry_Int_Tables_number   1
_chemical_formula_structural   Ca4P6O19
_chemical_formula_sum   'Ca8 P12 O38'
_cell_volume   745.05557918
_cell_formula_units_Z   2
loop_
 _symmetry_equiv_pos_site_id
 _symmetry_equiv_pos_as_xyz
  1  'x, y, z'
loop_
 _atom_site_type_symbol
 _atom_site_label
 _atom_site_symmetry_multiplicity
 _atom_site_fract_x
 _atom_site_fract_y
 _atom_site_fract_z
 _atom_site_occupancy
  Ca  Ca0  1  0.81102281  0.99186777  0.36541304  1
  Ca  Ca1  1  0.64722350  0.12904931  0.87808617  1
  Ca  Ca2  1  0.35277650  0.87095069  0.12191383  1
  Ca  Ca3  1  0.90176947  0.35059285  0.66658335  1
  Ca  Ca4  1  0.97393643  0.81650492  0.85184667  1
  Ca  Ca5  1  0.09823053  0.64940715  0.33341665  1
  Ca  Ca6  1  0.02606357  0.18349508  0.14815333  1
  Ca  Ca7  1  0.18897719  0.00813223  0.63458696  1
  P  P0  1  0.12597524  0.18706040  0.88099982  1
  P  P1  1  0.87402476  0.81293960  0.11900018  1
  P  P2  1  0.79625838  0.36962580  0.37938245  1
  P  P3  1  0.72721108  0.94770751  0.62456907  1
  P  P4  1  0.62700884  0.66875579  0.41646000  1
  P  P5  1  0.28775087  0.46170715  0.09320165  1
  P  P6  1  0.20374162  0.63037420  0.62061755  1
  P  P7  1  0.27278892  0.05229249  0.37543093  1
  P  P8  1  0.37299116  0.33124421  0.58354000  1
  P  P9  1  0.46435334  0.75932479  0.84873378  1
  P  P10  1  0.71224913  0.53829285  0.90679835  1
  P  P11  1  0.53564666  0.24067521  0.15126622  1
  O  O0  1  0.24418485  0.34763874  0.96706906  1
  O  O1  1  0.21983423  0.26746343  0.63102829  1
  O  O2  1  0.00572320  0.77370585  0.21003209  1
  O  O3  1  0.99427680  0.22629415  0.78996791  1
  O  O4  1  0.57558219  0.38069196  0.65053661  1
  O  O5  1  0.15967522  0.72277098  0.54499166  1
  O  O6  1  0.69237650  0.18627746  0.08358018  1
  O  O7  1  0.61278245  0.78463900  0.53620798  1
  O  O8  1  0.66132025  0.38095024  0.90556204  1
  O  O9  1  0.61294170  0.27322676  0.28207928  1
  O  O10  1  0.28913347  0.47696826  0.55159025  1
  O  O11  1  0.11098006  0.09495051  0.29760282  1
  O  O12  1  0.88901994  0.90504949  0.70239718  1
  O  O13  1  0.71086653  0.52303174  0.44840975  1
  O  O14  1  0.78016577  0.73253657  0.36897171  1
  O  O15  1  0.35085354  0.13360170  0.12145710  1
  O  O16  1  0.28827729  0.08797979  0.83672783  1
  O  O17  1  0.49041166  0.40471890  0.14464447  1
  O  O18  1  0.87098246  0.56680878  0.84756330  1
  O  O19  1  0.17984242  0.96665903  0.44097958  1
  O  O20  1  0.00330925  0.11668187  0.94433115  1
  O  O21  1  0.64914646  0.86639830  0.87854290  1
  O  O22  1  0.75581515  0.65236126  0.03293094  1
  O  O23  1  0.95226580  0.40586532  0.32169988  1
  O  O24  1  0.38705830  0.72677324  0.71792072  1
  O  O25  1  0.71172271  0.91202021  0.16327217  1
  O  O26  1  0.43811870  0.97331296  0.32033135  1
  O  O27  1  0.56188130  0.02668704  0.67966865  1
  O  O28  1  0.33867975  0.61904976  0.09443796  1
  O  O29  1  0.42441781  0.61930804  0.34946339  1
  O  O30  1  0.99669075  0.88331813  0.05566885  1
  O  O31  1  0.84032478  0.27722902  0.45500834  1
  O  O32  1  0.04773420  0.59413468  0.67830012  1
  O  O33  1  0.82015758  0.03334097  0.55902042  1
  O  O34  1  0.38721755  0.21536100  0.46379202  1
  O  O35  1  0.12901754  0.43319122  0.15243670  1
  O  O36  1  0.50958834  0.59528110  0.85535553  1
  O  O37  1  0.30762350  0.81372254  0.91641982  1
loop_
_geom_bond_atom_site_label_1
_geom_bond_atom_site_label_2
_geom_bond_distance
_geom_bond_site_symmetry_2
Ca0 O33 2.370589 1_565
Ca0 O14 2.396909 1_555
Ca0 O25 2.408687 1_555
Ca0 O31 2.463267 1_565
Ca0 O26 2.513048 1_555
Ca0 O19 2.596987 1_655
Ca0 O11 2.635104 1_665
Ca0 O2 2.854102 1_655
Ca1 O8 2.211967 1_555
Ca1 O27 2.354086 1_555
Ca1 O21 2.410162 1_545
Ca1 O16 2.419905 1_555
Ca1 O20 2.465135 1_655
Ca1 O6 2.468033 1_556
Ca2 O28 2.211967 1_555
Ca2 O26 2.354086 1_555
Ca2 O15 2.410162 1_565
Ca2 O25 2.419905 1_555
Ca2 O30 2.465135 1_455
Ca2 O37 2.468033 1_554
Ca3 O4 2.247078 1_555
Ca3 O3 2.261889 1_555
Ca3 O32 2.366551 1_655
Ca3 O1 2.400789 1_655
Ca3 O31 2.519758 1_555
Ca3 O18 2.540173 1_555
Ca3 O33 2.758415 1_555
Ca4 O37 2.301911 1_655
Ca4 O12 2.315616 1_555
Ca4 O21 2.348570 1_555
Ca4 O18 2.355424 1_555
Ca4 O30 2.450378 1_556
Ca4 O20 2.589424 1_665
Ca4 O32 2.599313 1_655
Ca5 O29 2.247078 1_555
Ca5 O2 2.261889 1_555
Ca5 O23 2.366551 1_455
Ca5 O14 2.400789 1_455
Ca5 O5 2.519758 1_555
Ca5 O35 2.540173 1_555
Ca5 O19 2.758415 1_555
Ca6 O6 2.301911 1_455
Ca6 O11 2.315616 1_555
Ca6 O15 2.348570 1_555
Ca6 O35 2.355424 1_555
Ca6 O20 2.450378 1_554
Ca6 O30 2.589424 1_445
Ca6 O23 2.599313 1_455
Ca7 O19 2.370589 1_545
Ca7 O1 2.396909 1_555
Ca7 O16 2.408687 1_555
Ca7 O5 2.463267 1_545
Ca7 O27 2.513048 1_555
Ca7 O33 2.596987 1_455
Ca7 O12 2.635104 1_445
Ca7 O3 2.854102 1_455
O0 P5 1.572833 1_556
O0 P0 1.602993 1_555
O1 P8 1.497290 1_555
O2 P1 1.499344 1_455
O3 P0 1.499344 1_655
O4 P8 1.471981 1_555
O5 P6 1.488895 1_555
O6 P11 1.490368 1_555
O7 P4 1.566580 1_555
O7 P3 1.618061 1_555
O8 P10 1.468238 1_555
O9 P11 1.590840 1_555
O9 P2 1.603720 1_555
O10 P6 1.579082 1_555
O10 P8 1.617712 1_555
O11 P7 1.513218 1_555
O12 P3 1.513218 1_555
O13 P2 1.579082 1_555
O13 P4 1.617712 1_555
O14 P4 1.497290 1_555
O15 P11 1.491772 1_555
O16 P0 1.522847 1_555
O17 P11 1.571549 1_555
O17 P5 1.613418 1_555
O18 P10 1.494794 1_555
O19 P7 1.526158 1_565
O20 P0 1.529998 1_555
O21 P9 1.491772 1_555
O22 P10 1.572833 1_554
O22 P1 1.602993 1_555
O23 P2 1.490471 1_555
O24 P9 1.590840 1_555
O24 P6 1.603720 1_555
O25 P1 1.522847 1_555
O26 P7 1.513826 1_565
O27 P3 1.513826 1_545
O28 P5 1.468238 1_555
O29 P4 1.471981 1_555
O30 P1 1.529998 1_555
O31 P2 1.488895 1_555
O32 P6 1.490471 1_555
O33 P3 1.526158 1_545
O34 P8 1.566580 1_555
O34 P7 1.618061 1_555
O35 P5 1.494794 1_555
O36 P9 1.571549 1_555
O36 P10 1.613418 1_555
O37 P9 1.490368 1_555
