# generated using pymatgen
data_Ca(BH4)2
_symmetry_space_group_name_H-M   'P 1'
_cell_length_a   7.35432200
_cell_length_b   8.76523200
_cell_length_c   13.35253500
_cell_angle_alpha   90.00000000
_cell_angle_beta   90.00000000
_cell_angle_gamma   90.00000000
_symmetry_Int_Tables_number   1
_chemical_formula_structural   Ca(BH4)2
_chemical_formula_sum   'Ca8 B16 H64'
_cell_volume   860.73563144
_cell_formula_units_Z   8
loop_
 _symmetry_equiv_pos_site_id
 _symmetry_equiv_pos_as_xyz
  1  'x, y, z'
loop_
 _atom_site_type_symbol
 _atom_site_label
 _atom_site_symmetry_multiplicity
 _atom_site_fract_x
 _atom_site_fract_y
 _atom_site_fract_z
 _atom_site_occupancy
  Ca  Ca0  1  0.68657800  0.43159700  0.11462000  1
  Ca  Ca1  1  0.31342200  0.06840300  0.61462000  1
  Ca  Ca2  1  0.81342200  0.93159700  0.88538000  1
  Ca  Ca3  1  0.18657800  0.56840300  0.38538000  1
  Ca  Ca4  1  0.31342200  0.56840300  0.88538000  1
  Ca  Ca5  1  0.68657800  0.93159700  0.38538000  1
  Ca  Ca6  1  0.81342200  0.43159700  0.61462000  1
  Ca  Ca7  1  0.18657800  0.06840300  0.11462000  1
  B  B0  1  0.53951400  0.05385600  0.78109400  1
  B  B1  1  0.46048600  0.44614400  0.28109400  1
  B  B2  1  0.85634200  0.68708400  0.48492000  1
  B  B3  1  0.96048600  0.55385600  0.21890600  1
  B  B4  1  0.35634200  0.81291600  0.48492000  1
  B  B5  1  0.03951400  0.94614400  0.71890600  1
  B  B6  1  0.64365800  0.18708400  0.51508000  1
  B  B7  1  0.14365800  0.31291600  0.51508000  1
  B  B8  1  0.53951400  0.55385600  0.71890600  1
  B  B9  1  0.46048600  0.94614400  0.21890600  1
  B  B10  1  0.03951400  0.44614400  0.78109400  1
  B  B11  1  0.85634200  0.18708400  0.01508000  1
  B  B12  1  0.64365800  0.68708400  0.98492000  1
  B  B13  1  0.14365800  0.81291600  0.98492000  1
  B  B14  1  0.96048600  0.05385600  0.28109400  1
  B  B15  1  0.35634200  0.31291600  0.01508000  1
  H  H0  1  0.99415400  0.48387200  0.14137900  1
  H  H1  1  0.27466700  0.89916200  0.98623100  1
  H  H2  1  0.51245000  0.63584100  0.03110400  1
  H  H3  1  0.49415400  0.01612800  0.14137900  1
  H  H4  1  0.72533300  0.10083800  0.01376900  1
  H  H5  1  0.50584600  0.98387200  0.85862100  1
  H  H6  1  0.91963200  0.35034800  0.77026800  1
  H  H7  1  0.08036800  0.64965200  0.22973200  1
  H  H8  1  0.98755000  0.63584100  0.53110400  1
  H  H9  1  0.31443700  0.37826400  0.28646700  1
  H  H10  1  0.81970500  0.80823300  0.52532900  1
  H  H11  1  0.81970500  0.30823300  0.97467100  1
  H  H12  1  0.45139200  0.53839800  0.21164100  1
  H  H13  1  0.99415400  0.98387200  0.35862100  1
  H  H14  1  0.77466700  0.10083800  0.51376900  1
  H  H15  1  0.45139200  0.03839800  0.28835900  1
  H  H16  1  0.60237400  0.70629200  0.89648600  1
  H  H17  1  0.95139200  0.46160200  0.28835900  1
  H  H18  1  0.54860800  0.46160200  0.78835900  1
  H  H19  1  0.48755000  0.86415900  0.53110400  1
  H  H20  1  0.27466700  0.39916200  0.51376900  1
  H  H21  1  0.77466700  0.60083800  0.98623100  1
  H  H22  1  0.39762600  0.29370800  0.10351400  1
  H  H23  1  0.95139200  0.96160200  0.21164100  1
  H  H24  1  0.54860800  0.96160200  0.71164100  1
  H  H25  1  0.18029500  0.69176700  0.02532900  1
  H  H26  1  0.31443700  0.87826400  0.21353300  1
  H  H27  1  0.58036800  0.35034800  0.27026800  1
  H  H28  1  0.31970500  0.19176700  0.97467100  1
  H  H29  1  0.08036800  0.14965200  0.27026800  1
  H  H30  1  0.41963200  0.14965200  0.77026800  1
  H  H31  1  0.41963200  0.64965200  0.72973200  1
  H  H32  1  0.98755000  0.13584100  0.96889600  1
  H  H33  1  0.18029500  0.19176700  0.47467100  1
  H  H34  1  0.68029500  0.30823300  0.47467100  1
  H  H35  1  0.00584600  0.01612800  0.64137900  1
  H  H36  1  0.89762600  0.70629200  0.39648600  1
  H  H37  1  0.04860800  0.53839800  0.71164100  1
  H  H38  1  0.51245000  0.13584100  0.46889600  1
  H  H39  1  0.58036800  0.85034800  0.22973200  1
  H  H40  1  0.72533300  0.60083800  0.48623100  1
  H  H41  1  0.81443700  0.12173600  0.28646700  1
  H  H42  1  0.68029500  0.80823300  0.02532900  1
  H  H43  1  0.10237400  0.29370800  0.60351400  1
  H  H44  1  0.10237400  0.79370800  0.89648600  1
  H  H45  1  0.60237400  0.20629200  0.60351400  1
  H  H46  1  0.50584600  0.48387200  0.64137900  1
  H  H47  1  0.48755000  0.36415900  0.96889600  1
  H  H48  1  0.91963200  0.85034800  0.72973200  1
  H  H49  1  0.49415400  0.51612800  0.35862100  1
  H  H50  1  0.31970500  0.69176700  0.52532900  1
  H  H51  1  0.01245000  0.86415900  0.03110400  1
  H  H52  1  0.18556300  0.87826400  0.71353300  1
  H  H53  1  0.68556300  0.12173600  0.78646700  1
  H  H54  1  0.04860800  0.03839800  0.78835900  1
  H  H55  1  0.01245000  0.36415900  0.46889600  1
  H  H56  1  0.18556300  0.37826400  0.78646700  1
  H  H57  1  0.39762600  0.79370800  0.39648600  1
  H  H58  1  0.22533300  0.89916200  0.48623100  1
  H  H59  1  0.81443700  0.62173600  0.21353300  1
  H  H60  1  0.00584600  0.51612800  0.85862100  1
  H  H61  1  0.22533300  0.39916200  0.01376900  1
  H  H62  1  0.89762600  0.20629200  0.10351400  1
  H  H63  1  0.68556300  0.62173600  0.71353300  1
loop_
_geom_bond_atom_site_label_1
_geom_bond_atom_site_label_2
_geom_bond_distance
_geom_bond_site_symmetry_2
Ca0 H59 2.325112 1_555
Ca0 H27 2.331655 1_555
Ca0 H0 2.335448 1_555
Ca0 H12 2.355046 1_555
Ca0 H21 2.357788 1_554
Ca0 H11 2.370599 1_554
Ca0 H22 2.449203 1_555
Ca0 H2 2.467481 1_555
Ca0 H47 2.505585 1_554
Ca0 H62 2.516165 1_555
Ca1 H52 2.325112 1_545
Ca1 H30 2.331655 1_555
Ca1 H35 2.335448 1_555
Ca1 H24 2.355046 1_545
Ca1 H58 2.357788 1_545
Ca1 H33 2.370599 1_555
Ca1 H45 2.449203 1_555
Ca1 H19 2.467481 1_545
Ca1 H38 2.505585 1_555
Ca1 H43 2.516165 1_555
Ca2 H53 2.325112 1_565
Ca2 H48 2.331655 1_555
Ca2 H5 2.335448 1_555
Ca2 H54 2.355046 1_665
Ca2 H4 2.357788 1_566
Ca2 H42 2.370599 1_556
Ca2 H44 2.449203 1_655
Ca2 H32 2.467481 1_565
Ca2 H51 2.505585 1_656
Ca2 H16 2.516165 1_555
Ca3 H9 2.325112 1_555
Ca3 H7 2.331655 1_555
Ca3 H49 2.335448 1_555
Ca3 H17 2.355046 1_455
Ca3 H20 2.357788 1_555
Ca3 H50 2.370599 1_555
Ca3 H36 2.449203 1_455
Ca3 H55 2.467481 1_555
Ca3 H8 2.505585 1_455
Ca3 H57 2.516165 1_555
Ca4 H56 2.325112 1_555
Ca4 H31 2.331655 1_555
Ca4 H60 2.335448 1_555
Ca4 H18 2.355046 1_555
Ca4 H61 2.357788 1_556
Ca4 H25 2.370599 1_556
Ca4 H16 2.449203 1_555
Ca4 H47 2.467481 1_555
Ca4 H2 2.505585 1_556
Ca4 H44 2.516165 1_555
Ca5 H41 2.325112 1_565
Ca5 H39 2.331655 1_555
Ca5 H13 2.335448 1_555
Ca5 H15 2.355046 1_565
Ca5 H14 2.357788 1_565
Ca5 H10 2.370599 1_555
Ca5 H57 2.449203 1_555
Ca5 H38 2.467481 1_565
Ca5 H19 2.505585 1_555
Ca5 H36 2.516165 1_555
Ca6 H63 2.325112 1_555
Ca6 H6 2.331655 1_555
Ca6 H46 2.335448 1_555
Ca6 H37 2.355046 1_655
Ca6 H40 2.357788 1_555
Ca6 H34 2.370599 1_555
Ca6 H43 2.449203 1_655
Ca6 H8 2.467481 1_555
Ca6 H55 2.505585 1_655
Ca6 H45 2.516165 1_555
Ca7 H26 2.325112 1_545
Ca7 H29 2.331655 1_555
Ca7 H3 2.335448 1_555
Ca7 H23 2.355046 1_445
Ca7 H1 2.357788 1_544
Ca7 H28 2.370599 1_554
Ca7 H62 2.449203 1_455
Ca7 H51 2.467481 1_545
Ca7 H32 2.505585 1_454
Ca7 H22 2.516165 1_555
B0 H30 1.226074 1_555
B0 H5 1.228496 1_545
B0 H53 1.229970 1_555
B0 H24 1.232223 1_545
B1 H27 1.226074 1_555
B1 H49 1.228496 1_555
B1 H9 1.229970 1_555
B1 H12 1.232223 1_555
B2 H10 1.221211 1_555
B2 H40 1.224781 1_555
B2 H8 1.230101 1_555
B2 H36 1.230796 1_555
B3 H7 1.226074 1_655
B3 H0 1.228496 1_555
B3 H59 1.229970 1_555
B3 H17 1.232223 1_555
B4 H50 1.221211 1_555
B4 H58 1.224781 1_555
B4 H19 1.230101 1_555
B4 H57 1.230796 1_555
B5 H48 1.226074 1_455
B5 H35 1.228496 1_565
B5 H52 1.229970 1_555
B5 H54 1.232223 1_565
B6 H34 1.221211 1_555
B6 H14 1.224781 1_555
B6 H38 1.230101 1_555
B6 H45 1.230796 1_555
B7 H33 1.221211 1_555
B7 H20 1.224781 1_555
B7 H55 1.230101 1_555
B7 H43 1.230796 1_555
B8 H31 1.226074 1_555
B8 H46 1.228496 1_555
B8 H63 1.229970 1_555
B8 H18 1.232223 1_555
B9 H39 1.226074 1_555
B9 H3 1.228496 1_565
B9 H26 1.229970 1_555
B9 H15 1.232223 1_565
B10 H6 1.226074 1_455
B10 H60 1.228496 1_555
B10 H56 1.229970 1_555
B10 H37 1.232223 1_555
B11 H11 1.221211 1_554
B11 H4 1.224781 1_555
B11 H32 1.230101 1_554
B11 H62 1.230796 1_555
B12 H42 1.221211 1_556
B12 H21 1.224781 1_555
B12 H2 1.230101 1_556
B12 H16 1.230796 1_555
B13 H25 1.221211 1_556
B13 H1 1.224781 1_555
B13 H51 1.230101 1_556
B13 H44 1.230796 1_555
B14 H29 1.226074 1_655
B14 H13 1.228496 1_545
B14 H41 1.229970 1_555
B14 H23 1.232223 1_545
B15 H28 1.221211 1_554
B15 H61 1.224781 1_555
B15 H47 1.230101 1_554
B15 H22 1.230796 1_555
