# generated using pymatgen
data_NaAsH4O5
_symmetry_space_group_name_H-M   'P 1'
_cell_length_a   5.31001700
_cell_length_b   8.59267300
_cell_length_c   10.53027600
_cell_angle_alpha   90.00000000
_cell_angle_beta   90.00000000
_cell_angle_gamma   90.00000000
_symmetry_Int_Tables_number   1
_chemical_formula_structural   NaAsH4O5
_chemical_formula_sum   'Na4 As4 H16 O20'
_cell_volume   480.46742722
_cell_formula_units_Z   4
loop_
 _symmetry_equiv_pos_site_id
 _symmetry_equiv_pos_as_xyz
  1  'x, y, z'
loop_
 _atom_site_type_symbol
 _atom_site_label
 _atom_site_symmetry_multiplicity
 _atom_site_fract_x
 _atom_site_fract_y
 _atom_site_fract_z
 _atom_site_occupancy
  Na  Na0  1  0.42391600  0.59253100  0.90677900  1
  Na  Na1  1  0.57608400  0.09253100  0.59322100  1
  Na  Na2  1  0.92391600  0.90746900  0.09322100  1
  Na  Na3  1  0.07608400  0.40746900  0.40677900  1
  As  As0  1  0.08218400  0.19436900  0.84224400  1
  As  As1  1  0.91781600  0.69436900  0.65775600  1
  As  As2  1  0.41781600  0.80563100  0.34224400  1
  As  As3  1  0.58218400  0.30563100  0.15775600  1
  H  H0  1  0.96182900  0.48900100  0.79694000  1
  H  H1  1  0.46182900  0.01099900  0.20306000  1
  H  H2  1  0.44591300  0.94509900  0.95072700  1
  H  H3  1  0.18706800  0.23270000  0.10531100  1
  H  H4  1  0.64200500  0.88171400  0.85251100  1
  H  H5  1  0.35799500  0.38171400  0.64748900  1
  H  H6  1  0.03817100  0.98900100  0.70306000  1
  H  H7  1  0.85799500  0.11828600  0.35251100  1
  H  H8  1  0.55408700  0.44509900  0.54927300  1
  H  H9  1  0.14200500  0.61828600  0.14748900  1
  H  H10  1  0.81293200  0.73270000  0.39468900  1
  H  H11  1  0.31293200  0.76730000  0.60531100  1
  H  H12  1  0.68706800  0.26730000  0.89468900  1
  H  H13  1  0.05408700  0.05490100  0.45072700  1
  H  H14  1  0.53817100  0.51099900  0.29694000  1
  H  H15  1  0.94591300  0.55490100  0.04927300  1
  O  O0  1  0.67111700  0.42405200  0.28699700  1
  O  O1  1  0.17250500  0.11023700  0.98051300  1
  O  O2  1  0.74978300  0.19591300  0.82650200  1
  O  O3  1  0.17111700  0.07594800  0.71300300  1
  O  O4  1  0.57196600  0.86299000  0.93807100  1
  O  O5  1  0.42803400  0.36299000  0.56192900  1
  O  O6  1  0.24978300  0.30408700  0.17349800  1
  O  O7  1  0.80762100  0.87593000  0.69051600  1
  O  O8  1  0.19237900  0.37593000  0.80948400  1
  O  O9  1  0.75021700  0.80408700  0.32650200  1
  O  O10  1  0.69237900  0.12407000  0.19051600  1
  O  O11  1  0.92803400  0.13701000  0.43807100  1
  O  O12  1  0.82888300  0.57594800  0.78699700  1
  O  O13  1  0.82749500  0.61023700  0.51948700  1
  O  O14  1  0.25021700  0.69591300  0.67349800  1
  O  O15  1  0.67250500  0.38976300  0.01948700  1
  O  O16  1  0.07196600  0.63701000  0.06192900  1
  O  O17  1  0.32888300  0.92405200  0.21300300  1
  O  O18  1  0.30762100  0.62407000  0.30948400  1
  O  O19  1  0.32749500  0.88976300  0.48051300  1
loop_
_geom_bond_atom_site_label_1
_geom_bond_atom_site_label_2
_geom_bond_distance
_geom_bond_site_symmetry_2
Na0 O8 2.454643 1_555
Na0 O4 2.475364 1_555
Na0 O15 2.487310 1_556
Na0 O12 2.497082 1_555
Na0 O16 2.511558 1_556
Na0 O14 2.770253 1_555
Na1 O7 2.454643 1_545
Na1 O5 2.475364 1_555
Na1 O19 2.487310 1_545
Na1 O3 2.497082 1_555
Na1 O11 2.511558 1_555
Na1 O2 2.770253 1_555
Na2 O10 2.454643 1_565
Na2 O16 2.475364 1_655
Na2 O1 2.487310 1_664
Na2 O17 2.497082 1_655
Na2 O4 2.511558 1_554
Na2 O9 2.770253 1_555
Na3 O18 2.454643 1_555
Na3 O11 2.475364 1_455
Na3 O13 2.487310 1_455
Na3 O0 2.497082 1_455
Na3 O5 2.511558 1_555
Na3 O6 2.770253 1_555
As0 O1 1.694875 1_555
As0 O8 1.701554 1_555
As0 O3 1.763686 1_555
As0 O2 1.772872 1_455
As1 O13 1.694875 1_555
As1 O7 1.701554 1_555
As1 O12 1.763686 1_555
As1 O14 1.772872 1_655
As2 O19 1.694875 1_555
As2 O18 1.701554 1_555
As2 O17 1.763686 1_555
As2 O9 1.772872 1_555
As3 O15 1.694875 1_555
As3 O10 1.701554 1_555
As3 O0 1.763686 1_555
As3 O6 1.772872 1_555
H0 O12 1.033194 1_555
H0 O8 1.568485 1_655
H1 O17 1.033194 1_545
H1 O10 1.568485 1_555
H2 O4 0.981612 1_555
H3 O6 1.001364 1_555
H3 O1 1.685317 1_554
H4 O4 0.987901 1_555
H5 O5 0.987901 1_555
H6 O3 1.033194 1_565
H6 O7 1.568485 1_455
H7 O11 0.987901 1_555
H8 O5 0.981612 1_555
H9 O16 0.987901 1_555
H10 O9 1.001364 1_555
H10 O13 1.685317 1_555
H11 O14 1.001364 1_555
H11 O19 1.685317 1_555
H12 O2 1.001364 1_555
H12 O15 1.685317 1_556
H13 O11 0.981612 1_455
H14 O0 1.033194 1_555
H14 O18 1.568485 1_555
H15 O16 0.981612 1_655
