# generated using pymatgen
data_LiCa9Mn(PO4)7
_symmetry_space_group_name_H-M   'P 1'
_cell_length_a   13.90664939
_cell_length_b   13.90664939
_cell_length_c   13.90664872
_cell_angle_alpha   44.09217819
_cell_angle_beta   44.09217819
_cell_angle_gamma   44.09217907
_symmetry_Int_Tables_number   1
_chemical_formula_structural   LiCa9Mn(PO4)7
_chemical_formula_sum   'Li2 Ca18 Mn2 P14 O56'
_cell_volume   1182.91560499
_cell_formula_units_Z   2
loop_
 _symmetry_equiv_pos_site_id
 _symmetry_equiv_pos_as_xyz
  1  'x, y, z'
loop_
 _atom_site_type_symbol
 _atom_site_label
 _atom_site_symmetry_multiplicity
 _atom_site_fract_x
 _atom_site_fract_y
 _atom_site_fract_z
 _atom_site_occupancy
  Li  Li0  1  0.17804000  0.17804000  0.17804000  1
  Li  Li1  1  0.67804000  0.67804000  0.67804000  1
  Ca  Ca0  1  0.16007700  0.56502800  0.57669200  1
  Ca  Ca1  1  0.35329800  0.90678400  0.93440500  1
  Ca  Ca2  1  0.90678400  0.93440500  0.35329800  1
  Ca  Ca3  1  0.96963200  0.94994100  0.55873700  1
  Ca  Ca4  1  0.66007700  0.07669200  0.06502800  1
  Ca  Ca5  1  0.55873700  0.96963200  0.94994100  1
  Ca  Ca6  1  0.46963200  0.05873700  0.44994100  1
  Ca  Ca7  1  0.93440500  0.35329800  0.90678400  1
  Ca  Ca8  1  0.40678400  0.85329800  0.43440500  1
  Ca  Ca9  1  0.57669200  0.16007700  0.56502800  1
  Ca  Ca10  1  0.56502800  0.57669200  0.16007700  1
  Ca  Ca11  1  0.43440500  0.40678400  0.85329800  1
  Ca  Ca12  1  0.44994100  0.46963200  0.05873700  1
  Ca  Ca13  1  0.05873700  0.44994100  0.46963200  1
  Ca  Ca14  1  0.07669200  0.06502800  0.66007700  1
  Ca  Ca15  1  0.85329800  0.43440500  0.40678400  1
  Ca  Ca16  1  0.06502800  0.66007700  0.07669200  1
  Ca  Ca17  1  0.94994100  0.55873700  0.96963200  1
  Mn  Mn0  1  0.00204600  0.00204600  0.00204600  1
  Mn  Mn1  1  0.50204600  0.50204600  0.50204600  1
  P  P0  1  0.18617300  0.68633200  0.72564100  1
  P  P1  1  0.22564100  0.18633200  0.68617300  1
  P  P2  1  0.26872700  0.83069100  0.30554400  1
  P  P3  1  0.33069100  0.76872700  0.80554400  1
  P  P4  1  0.72564100  0.18617300  0.68633200  1
  P  P5  1  0.18633200  0.68617300  0.22564100  1
  P  P6  1  0.68633200  0.72564100  0.18617300  1
  P  P7  1  0.68617300  0.22564100  0.18633200  1
  P  P8  1  0.76686800  0.76686800  0.76686800  1
  P  P9  1  0.30554400  0.26872700  0.83069100  1
  P  P10  1  0.76872700  0.80554400  0.33069100  1
  P  P11  1  0.26686800  0.26686800  0.26686800  1
  P  P12  1  0.83069100  0.30554400  0.26872700  1
  P  P13  1  0.80554400  0.33069100  0.76872700  1
  O  O0  1  0.17256600  0.61516100  0.18916700  1
  O  O1  1  0.11516100  0.67256600  0.68916700  1
  O  O2  1  0.39851000  0.08955500  0.64619400  1
  O  O3  1  0.15569900  0.86914000  0.87576900  1
  O  O4  1  0.37576900  0.36914000  0.65569900  1
  O  O5  1  0.08955500  0.64619400  0.39851000  1
  O  O6  1  0.36309100  0.62196500  0.63807500  1
  O  O7  1  0.65569900  0.37576900  0.36914000  1
  O  O8  1  0.13259800  0.34532500  0.88149900  1
  O  O9  1  0.33724500  0.24870100  0.93283200  1
  O  O10  1  0.25492000  0.11170700  0.39440900  1
  O  O11  1  0.39440900  0.25492000  0.11170700  1
  O  O12  1  0.33823100  0.60773100  0.89279400  1
  O  O13  1  0.38149900  0.84532500  0.63259800  1
  O  O14  1  0.93283200  0.33724500  0.24870100  1
  O  O15  1  0.74870100  0.83724500  0.43283200  1
  O  O16  1  0.89851000  0.14619400  0.58955500  1
  O  O17  1  0.14619400  0.58955500  0.89851000  1
  O  O18  1  0.84532500  0.63259800  0.38149900  1
  O  O19  1  0.67204200  0.12498700  0.85713800  1
  O  O20  1  0.60773100  0.89279400  0.33823100  1
  O  O21  1  0.30819400  0.30819400  0.30819400  1
  O  O22  1  0.10773100  0.83823100  0.39279400  1
  O  O23  1  0.35713800  0.62498700  0.17204200  1
  O  O24  1  0.63259800  0.38149900  0.84532500  1
  O  O25  1  0.83724500  0.43283200  0.74870100  1
  O  O26  1  0.13807500  0.12196500  0.86309100  1
  O  O27  1  0.75492000  0.89440900  0.61170700  1
  O  O28  1  0.39279400  0.10773100  0.83823100  1
  O  O29  1  0.67256600  0.68916700  0.11516100  1
  O  O30  1  0.34532500  0.88149900  0.13259800  1
  O  O31  1  0.36914000  0.65569900  0.37576900  1
  O  O32  1  0.58955500  0.89851000  0.14619400  1
  O  O33  1  0.89279400  0.33823100  0.60773100  1
  O  O34  1  0.64619400  0.39851000  0.08955500  1
  O  O35  1  0.11170700  0.39440900  0.25492000  1
  O  O36  1  0.63807500  0.36309100  0.62196500  1
  O  O37  1  0.88149900  0.13259800  0.34532500  1
  O  O38  1  0.62498700  0.17204200  0.35713800  1
  O  O39  1  0.61516100  0.18916700  0.17256600  1
  O  O40  1  0.18916700  0.17256600  0.61516100  1
  O  O41  1  0.12498700  0.85713800  0.67204200  1
  O  O42  1  0.87576900  0.15569900  0.86914000  1
  O  O43  1  0.68916700  0.11516100  0.67256600  1
  O  O44  1  0.86914000  0.87576900  0.15569900  1
  O  O45  1  0.61170700  0.75492000  0.89440900  1
  O  O46  1  0.43283200  0.74870100  0.83724500  1
  O  O47  1  0.89440900  0.61170700  0.75492000  1
  O  O48  1  0.62196500  0.63807500  0.36309100  1
  O  O49  1  0.83823100  0.39279400  0.10773100  1
  O  O50  1  0.17204200  0.35713800  0.62498700  1
  O  O51  1  0.85713800  0.67204200  0.12498700  1
  O  O52  1  0.24870100  0.93283200  0.33724500  1
  O  O53  1  0.86309100  0.13807500  0.12196500  1
  O  O54  1  0.12196500  0.86309100  0.13807500  1
  O  O55  1  0.80819400  0.80819400  0.80819400  1
loop_
_geom_bond_atom_site_label_1
_geom_bond_atom_site_label_2
_geom_bond_distance
_geom_bond_site_symmetry_2
Li0 O9 2.227691 1_554
Li0 O52 2.227691 1_545
Li0 O14 2.227691 1_455
Li1 O15 2.227691 1_555
Li1 O46 2.227691 1_555
Li1 O25 2.227691 1_555
Ca0 O50 2.348903 1_555
Ca0 O1 2.384967 1_555
Ca0 O47 2.434491 1_455
Ca0 O22 2.499889 1_555
Ca0 O5 2.501790 1_555
Ca0 O4 2.514489 1_555
Ca0 O31 2.527042 1_555
Ca0 O8 2.862822 1_555
Ca1 O45 2.366011 1_555
Ca1 O28 2.383387 1_565
Ca1 O30 2.440790 1_556
Ca1 O54 2.447051 1_556
Ca1 O26 2.455987 1_565
Ca1 O46 2.551341 1_555
Ca1 O2 2.638611 1_565
Ca1 O23 2.762496 1_556
Ca2 O27 2.366011 1_555
Ca2 O22 2.383387 1_655
Ca2 O37 2.440791 1_565
Ca2 O53 2.447051 1_565
Ca2 O54 2.455987 1_655
Ca2 O15 2.551341 1_555
Ca2 O5 2.638611 1_655
Ca2 O38 2.762496 1_565
Ca3 O16 2.409221 1_565
Ca3 O22 2.434148 1_655
Ca3 O1 2.504816 1_655
Ca3 O55 2.511426 1_555
Ca3 O43 2.545686 1_565
Ca3 O37 2.585850 1_565
Ca3 O41 2.603796 1_655
Ca3 O52 2.675979 1_655
Ca4 O19 2.348903 1_554
Ca4 O39 2.384967 1_555
Ca4 O11 2.434491 1_555
Ca4 O20 2.499889 1_545
Ca4 O32 2.501791 1_545
Ca4 O42 2.514489 1_554
Ca4 O44 2.527042 1_545
Ca4 O24 2.862822 1_554
Ca5 O32 2.409221 1_556
Ca5 O28 2.434148 1_565
Ca5 O43 2.504816 1_565
Ca5 O55 2.511426 1_555
Ca5 O29 2.545686 1_556
Ca5 O30 2.585850 1_556
Ca5 O19 2.603796 1_565
Ca5 O9 2.675979 1_565
Ca6 O2 2.409221 1_555
Ca6 O20 2.434148 1_545
Ca6 O39 2.504816 1_555
Ca6 O21 2.511426 1_555
Ca6 O40 2.545686 1_555
Ca6 O13 2.585850 1_545
Ca6 O38 2.603796 1_555
Ca6 O15 2.675979 1_545
Ca7 O47 2.366011 1_555
Ca7 O49 2.383387 1_556
Ca7 O8 2.440791 1_655
Ca7 O26 2.447051 1_655
Ca7 O53 2.455987 1_556
Ca7 O25 2.551340 1_555
Ca7 O34 2.638611 1_556
Ca7 O50 2.762496 1_655
Ca8 O10 2.366011 1_565
Ca8 O20 2.383387 1_555
Ca8 O13 2.440790 1_555
Ca8 O6 2.447051 1_555
Ca8 O48 2.455987 1_555
Ca8 O52 2.551341 1_555
Ca8 O32 2.638611 1_555
Ca8 O41 2.762496 1_555
Ca9 O38 2.348903 1_555
Ca9 O43 2.384967 1_555
Ca9 O27 2.434491 1_545
Ca9 O28 2.499889 1_555
Ca9 O2 2.501791 1_555
Ca9 O7 2.514489 1_555
Ca9 O4 2.527042 1_555
Ca9 O37 2.862822 1_555
Ca10 O23 2.348903 1_555
Ca10 O29 2.384967 1_555
Ca10 O45 2.434491 1_554
Ca10 O49 2.499889 1_555
Ca10 O34 2.501790 1_555
Ca10 O31 2.514489 1_555
Ca10 O7 2.527042 1_555
Ca10 O30 2.862822 1_555
Ca11 O11 2.366011 1_556
Ca11 O12 2.383387 1_555
Ca11 O24 2.440791 1_555
Ca11 O36 2.447051 1_555
Ca11 O6 2.455987 1_555
Ca11 O9 2.551341 1_555
Ca11 O17 2.638611 1_555
Ca11 O19 2.762496 1_555
Ca12 O34 2.409221 1_555
Ca12 O12 2.434148 1_554
Ca12 O0 2.504816 1_555
Ca12 O21 2.511426 1_555
Ca12 O39 2.545686 1_555
Ca12 O24 2.585850 1_554
Ca12 O23 2.603796 1_555
Ca12 O46 2.675979 1_554
Ca13 O5 2.409221 1_555
Ca13 O33 2.434148 1_455
Ca13 O40 2.504816 1_555
Ca13 O21 2.511426 1_555
Ca13 O0 2.545686 1_555
Ca13 O18 2.585850 1_455
Ca13 O50 2.603796 1_555
Ca13 O25 2.675979 1_455
Ca14 O41 2.348903 1_545
Ca14 O40 2.384967 1_555
Ca14 O10 2.434491 1_555
Ca14 O33 2.499889 1_455
Ca14 O16 2.501790 1_455
Ca14 O3 2.514489 1_545
Ca14 O42 2.527042 1_455
Ca14 O13 2.862822 1_545
Ca15 O35 2.366011 1_655
Ca15 O33 2.383387 1_555
Ca15 O18 2.440791 1_555
Ca15 O48 2.447051 1_555
Ca15 O36 2.455987 1_555
Ca15 O14 2.551340 1_555
Ca15 O16 2.638611 1_555
Ca15 O51 2.762496 1_555
Ca16 O51 2.348903 1_455
Ca16 O0 2.384967 1_555
Ca16 O35 2.434491 1_555
Ca16 O12 2.499889 1_554
Ca16 O17 2.501790 1_554
Ca16 O44 2.514489 1_455
Ca16 O3 2.527042 1_554
Ca16 O18 2.862822 1_455
Ca17 O17 2.409221 1_655
Ca17 O49 2.434148 1_556
Ca17 O29 2.504816 1_556
Ca17 O55 2.511426 1_555
Ca17 O1 2.545686 1_655
Ca17 O8 2.585850 1_655
Ca17 O51 2.603796 1_556
Ca17 O14 2.675979 1_556
Mn0 O42 2.159863 1_454
Mn0 O3 2.159863 1_544
Mn0 O44 2.159863 1_445
Mn0 O54 2.178396 1_545
Mn0 O53 2.178396 1_455
Mn0 O26 2.178396 1_554
Mn1 O7 2.159863 1_555
Mn1 O31 2.159863 1_555
Mn1 O4 2.159863 1_555
Mn1 O6 2.178396 1_555
Mn1 O36 2.178396 1_555
Mn1 O48 2.178396 1_555
O0 P5 1.549110 1_555
O1 P0 1.549110 1_555
O2 P1 1.551493 1_555
O3 P3 1.577839 1_555
O4 P9 1.577839 1_555
O5 P5 1.551493 1_555
O6 P0 1.560775 1_555
O7 P12 1.577839 1_555
O8 P9 1.542214 1_555
O9 P9 1.563482 1_555
O10 P11 1.556806 1_555
O11 P11 1.556806 1_555
O12 P3 1.561812 1_555
O13 P3 1.542213 1_555
O14 P12 1.563482 1_555
O15 P10 1.563482 1_555
O16 P4 1.551493 1_555
O17 P0 1.551493 1_555
O18 P10 1.542214 1_555
O19 P4 1.544781 1_555
O20 P10 1.561812 1_555
O21 P11 1.553762 1_555
O22 P2 1.561812 1_555
O23 P5 1.544781 1_555
O24 P13 1.542214 1_555
O25 P13 1.563482 1_555
O26 P1 1.560775 1_555
O27 P8 1.556806 1_555
O28 P9 1.561812 1_555
O29 P6 1.549110 1_555
O30 P2 1.542213 1_555
O31 P2 1.577839 1_555
O32 P6 1.551493 1_555
O33 P13 1.561812 1_555
O34 P7 1.551493 1_555
O35 P11 1.556806 1_555
O36 P4 1.560775 1_555
O37 P12 1.542214 1_555
O38 P7 1.544781 1_555
O39 P7 1.549110 1_555
O40 P1 1.549110 1_555
O41 P0 1.544781 1_555
O42 P13 1.577839 1_555
O43 P4 1.549110 1_555
O44 P10 1.577839 1_555
O45 P8 1.556806 1_555
O46 P3 1.563482 1_555
O47 P8 1.556806 1_555
O48 P6 1.560775 1_555
O49 P12 1.561812 1_555
O50 P1 1.544781 1_555
O51 P6 1.544781 1_555
O52 P2 1.563482 1_555
O53 P7 1.560775 1_555
O54 P5 1.560775 1_555
O55 P8 1.553762 1_555
