# generated using pymatgen
data_Cs2AgI3
_symmetry_space_group_name_H-M   'P 1'
_cell_length_a   5.00041521
_cell_length_b   14.75867640
_cell_length_c   15.49226888
_cell_angle_alpha   90.00000000
_cell_angle_beta   90.00000000
_cell_angle_gamma   90.00000000
_symmetry_Int_Tables_number   1
_chemical_formula_structural   Cs2AgI3
_chemical_formula_sum   'Cs8 Ag4 I12'
_cell_volume   1143.32185136
_cell_formula_units_Z   4
loop_
 _symmetry_equiv_pos_site_id
 _symmetry_equiv_pos_as_xyz
  1  'x, y, z'
loop_
 _atom_site_type_symbol
 _atom_site_label
 _atom_site_symmetry_multiplicity
 _atom_site_fract_x
 _atom_site_fract_y
 _atom_site_fract_z
 _atom_site_occupancy
  Cs  Cs0  1  0.75000000  0.17560998  0.48247292  1
  Cs  Cs1  1  0.25000000  0.82439002  0.51752708  1
  Cs  Cs2  1  0.75000000  0.67560998  0.01752708  1
  Cs  Cs3  1  0.25000000  0.32439002  0.98247292  1
  Cs  Cs4  1  0.75000000  0.51363786  0.67554230  1
  Cs  Cs5  1  0.25000000  0.48636214  0.32445770  1
  Cs  Cs6  1  0.75000000  0.01363786  0.82445770  1
  Cs  Cs7  1  0.25000000  0.98636214  0.17554230  1
  Ag  Ag0  1  0.75000000  0.25541915  0.19454019  1
  Ag  Ag1  1  0.25000000  0.74458085  0.80545981  1
  Ag  Ag2  1  0.75000000  0.75541915  0.30545981  1
  Ag  Ag3  1  0.25000000  0.24458085  0.69454019  1
  I  I0  1  0.75000000  0.13486882  0.05056673  1
  I  I1  1  0.25000000  0.86513118  0.94943327  1
  I  I2  1  0.75000000  0.63486882  0.44943327  1
  I  I3  1  0.25000000  0.36513118  0.55056673  1
  I  I4  1  0.75000000  0.44046364  0.13919073  1
  I  I5  1  0.25000000  0.55953636  0.86080927  1
  I  I6  1  0.75000000  0.94046364  0.36080927  1
  I  I7  1  0.25000000  0.05953636  0.63919073  1
  I  I8  1  0.75000000  0.27605749  0.78717048  1
  I  I9  1  0.25000000  0.72394251  0.21282952  1
  I  I10  1  0.75000000  0.77605749  0.71282952  1
  I  I11  1  0.25000000  0.22394251  0.28717048  1
loop_
_geom_bond_atom_site_label_1
_geom_bond_atom_site_label_2
_geom_bond_distance
_geom_bond_site_symmetry_2
Cs0 I7 3.883361 1_655
Cs0 I7 3.883361 1_555
Cs0 I3 3.897124 1_555
Cs0 I3 3.897124 1_655
Cs0 I6 3.949261 1_545
Cs0 I11 3.989310 1_555
Cs0 I11 3.989310 1_655
Cs1 I6 3.883361 1_455
Cs1 I6 3.883361 1_555
Cs1 I2 3.897124 1_455
Cs1 I2 3.897124 1_555
Cs1 I7 3.949261 1_565
Cs1 I10 3.989310 1_555
Cs1 I10 3.989310 1_455
Cs2 I5 3.883361 1_654
Cs2 I5 3.883361 1_554
Cs2 I1 3.897124 1_654
Cs2 I1 3.897124 1_554
Cs2 I4 3.949261 1_555
Cs2 I9 3.989310 1_655
Cs2 I9 3.989310 1_555
Cs3 I4 3.883361 1_556
Cs3 I4 3.883361 1_456
Cs3 I0 3.897124 1_456
Cs3 I0 3.897124 1_556
Cs3 I5 3.949261 1_555
Cs3 I8 3.989310 1_555
Cs3 I8 3.989310 1_455
Cs4 I3 3.847539 1_555
Cs4 I3 3.847539 1_655
Cs4 I5 3.866263 1_655
Cs4 I5 3.866263 1_555
Cs4 I8 3.909652 1_555
Cs4 I10 3.915809 1_555
Cs4 I2 3.933430 1_555
Cs5 I2 3.847539 1_455
Cs5 I2 3.847539 1_555
Cs5 I4 3.866263 1_455
Cs5 I4 3.866263 1_555
Cs5 I9 3.909652 1_555
Cs5 I11 3.915809 1_555
Cs5 I3 3.933430 1_555
Cs6 I1 3.847539 1_645
Cs6 I1 3.847539 1_545
Cs6 I7 3.866263 1_655
Cs6 I7 3.866263 1_555
Cs6 I10 3.909652 1_545
Cs6 I8 3.915809 1_555
Cs6 I0 3.933430 1_556
Cs7 I0 3.847539 1_565
Cs7 I0 3.847539 1_465
Cs7 I6 3.866263 1_455
Cs7 I6 3.866263 1_555
Cs7 I11 3.909652 1_565
Cs7 I9 3.915809 1_555
Cs7 I1 3.933430 1_554
Ag0 I0 2.853146 1_555
Ag0 I4 2.862466 1_555
Ag0 I11 2.919970 1_555
Ag0 I11 2.919970 1_655
Ag1 I1 2.853146 1_555
Ag1 I5 2.862466 1_555
Ag1 I10 2.919970 1_455
Ag1 I10 2.919970 1_555
Ag2 I2 2.853146 1_555
Ag2 I6 2.862466 1_555
Ag2 I9 2.919970 1_655
Ag2 I9 2.919970 1_555
Ag3 I3 2.853146 1_555
Ag3 I7 2.862466 1_555
Ag3 I8 2.919970 1_555
Ag3 I8 2.919970 1_455
