# generated using pymatgen
data_Cs2Hg27
_symmetry_space_group_name_H-M   'P 1'
_cell_length_a   14.83327798
_cell_length_b   14.83327763
_cell_length_c   14.83327753
_cell_angle_alpha   109.47122048
_cell_angle_beta   109.47122001
_cell_angle_gamma   109.47122172
_symmetry_Int_Tables_number   1
_chemical_formula_structural   Cs2Hg27
_chemical_formula_sum   'Cs6 Hg81'
_cell_volume   2512.40408661
_cell_formula_units_Z   3
loop_
 _symmetry_equiv_pos_site_id
 _symmetry_equiv_pos_as_xyz
  1  'x, y, z'
loop_
 _atom_site_type_symbol
 _atom_site_label
 _atom_site_symmetry_multiplicity
 _atom_site_fract_x
 _atom_site_fract_y
 _atom_site_fract_z
 _atom_site_occupancy
  Cs  Cs0  1  0.50000000  0.30440231  0.80440231  1
  Cs  Cs1  1  0.80440231  0.50000000  0.30440231  1
  Cs  Cs2  1  0.69559769  0.19559769  0.50000000  1
  Cs  Cs3  1  0.30440231  0.80440231  0.50000000  1
  Cs  Cs4  1  0.50000000  0.69559769  0.19559769  1
  Cs  Cs5  1  0.19559769  0.50000000  0.69559769  1
  Hg  Hg0  1  0.49329471  0.58778778  0.90550793  1
  Hg  Hg1  1  0.45838985  0.72491029  0.73347956  1
  Hg  Hg2  1  0.90550793  0.49329471  0.58778778  1
  Hg  Hg3  1  0.72491029  0.26652044  0.99143073  1
  Hg  Hg4  1  0.31772015  0.41221222  0.90550793  1
  Hg  Hg5  1  0.06300136  0.16876566  0.89423570  1
  Hg  Hg6  1  0.16876566  0.10576430  0.27452996  1
  Hg  Hg7  1  0.54161015  0.27508971  0.26652044  1
  Hg  Hg8  1  0.28526071  0.38627410  0.10101339  1
  Hg  Hg9  1  0.00856927  0.27508971  0.73347956  1
  Hg  Hg10  1  0.83123434  0.10576430  0.93699864  1
  Hg  Hg11  1  0.96605492  0.17496144  0.49488146  1
  Hg  Hg12  1  0.50511854  0.68007998  0.47117346  1
  Hg  Hg13  1  0.31992002  0.82503856  0.79109348  1
  Hg  Hg14  1  0.68007998  0.17496144  0.20890652  1
  Hg  Hg15  1  0.50511854  0.03394508  0.82503856  1
  Hg  Hg16  1  -0.00000000  -0.00000000  0.64874486  1
  Hg  Hg17  1  0.90550793  0.31772015  0.41221222  1
  Hg  Hg18  1  0.10101339  0.28526071  0.38627410  1
  Hg  Hg19  1  0.49488146  0.31992002  0.52882654  1
  Hg  Hg20  1  0.09449207  0.50670529  0.41221222  1
  Hg  Hg21  1  0.26652044  0.99143073  0.72491029  1
  Hg  Hg22  1  0.49488146  0.96605492  0.17496144  1
  Hg  Hg23  1  0.00000000  0.35125514  0.00000000  1
  Hg  Hg24  1  0.58778778  0.90550793  0.49329471  1
  Hg  Hg25  1  0.26652044  0.54161015  0.27508971  1
  Hg  Hg26  1  0.20890652  0.68007998  0.17496144  1
  Hg  Hg27  1  1.00000000  0.64874486  1.00000000  1
  Hg  Hg28  1  0.73347956  0.45838985  0.72491029  1
  Hg  Hg29  1  0.52882654  0.20890652  0.03394508  1
  Hg  Hg30  1  0.27508971  0.73347956  0.00856927  1
  Hg  Hg31  1  0.71473929  0.81575367  0.10101339  1
  Hg  Hg32  1  0.96605492  0.47117346  0.79109348  1
  Hg  Hg33  1  0.64874486  0.64874486  0.64874486  1
  Hg  Hg34  1  0.38627410  0.10101339  0.28526071  1
  Hg  Hg35  1  0.35125514  -0.00000000  1.00000000  1
  Hg  Hg36  1  0.10576430  0.93699864  0.83123434  1
  Hg  Hg37  1  0.68227985  0.58778778  0.09449207  1
  Hg  Hg38  1  0.41221222  0.09449207  0.50670529  1
  Hg  Hg39  1  0.79109348  0.31992002  0.82503856  1
  Hg  Hg40  1  0.73347956  0.00856927  0.27508971  1
  Hg  Hg41  1  0.89423570  0.06300136  0.16876566  1
  Hg  Hg42  1  0.47117346  0.79109348  0.96605492  1
  Hg  Hg43  1  0.58778778  0.09449207  0.68227985  1
  Hg  Hg44  1  0.72491029  0.73347956  0.45838985  1
  Hg  Hg45  1  0.16876566  0.89423570  0.06300136  1
  Hg  Hg46  1  0.20890652  0.03394508  0.52882654  1
  Hg  Hg47  1  0.79109348  0.96605492  0.47117346  1
  Hg  Hg48  1  0.72547004  0.83123434  0.89423570  1
  Hg  Hg49  1  0.89423570  0.72547004  0.83123434  1
  Hg  Hg50  1  0.52882654  0.49488146  0.31992002  1
  Hg  Hg51  1  0.35125514  0.35125514  0.35125514  1
  Hg  Hg52  1  0.28526071  0.18424633  0.89898661  1
  Hg  Hg53  1  0.61372590  0.89898661  0.71473929  1
  Hg  Hg54  1  0.81575367  0.10101339  0.71473929  1
  Hg  Hg55  1  0.64874486  -0.00000000  0.00000000  1
  Hg  Hg56  1  0.89898661  0.71473929  0.61372590  1
  Hg  Hg57  1  0.93699864  0.83123434  0.10576430  1
  Hg  Hg58  1  0.83123434  0.89423570  0.72547004  1
  Hg  Hg59  1  0.68007998  0.47117346  0.50511854  1
  Hg  Hg60  1  0.82503856  0.50511854  0.03394508  1
  Hg  Hg61  1  0.50670529  0.41221222  0.09449207  1
  Hg  Hg62  1  0.31992002  0.52882654  0.49488146  1
  Hg  Hg63  1  0.99143073  0.72491029  0.26652044  1
  Hg  Hg64  1  0.82503856  0.79109348  0.31992002  1
  Hg  Hg65  1  0.03394508  0.82503856  0.50511854  1
  Hg  Hg66  1  -0.00000000  -0.00000000  0.35125514  1
  Hg  Hg67  1  0.71473929  0.61372590  0.89898661  1
  Hg  Hg68  1  0.89898661  0.28526071  0.18424633  1
  Hg  Hg69  1  0.09449207  0.68227985  0.58778778  1
  Hg  Hg70  1  0.47117346  0.50511854  0.68007998  1
  Hg  Hg71  1  0.03394508  0.52882654  0.20890652  1
  Hg  Hg72  1  0.17496144  0.49488146  0.96605492  1
  Hg  Hg73  1  -0.00000000  -0.00000000  -0.00000000  1
  Hg  Hg74  1  0.10576430  0.27452996  0.16876566  1
  Hg  Hg75  1  0.41221222  0.90550793  0.31772015  1
  Hg  Hg76  1  0.17496144  0.20890652  0.68007998  1
  Hg  Hg77  1  0.27508971  0.26652044  0.54161015  1
  Hg  Hg78  1  0.18424633  0.89898661  0.28526071  1
  Hg  Hg79  1  0.10101339  0.71473929  0.81575367  1
  Hg  Hg80  1  0.27452996  0.16876566  0.10576430  1
loop_
_geom_bond_atom_site_label_1
_geom_bond_atom_site_label_2
_geom_bond_distance
_geom_bond_site_symmetry_2
Cs0 Hg38 3.897087 1_555
Cs0 Hg43 3.897099 1_555
Cs0 Hg77 3.906522 1_555
Cs0 Hg3 3.906522 1_555
Cs0 Hg61 4.012987 1_556
Cs0 Hg37 4.012994 1_556
Cs0 Hg4 4.012994 1_555
Cs0 Hg0 4.013002 1_555
Cs0 Hg67 4.019030 1_555
Cs0 Hg52 4.019034 1_555
Cs0 Hg29 4.053525 1_556
Cs0 Hg70 4.053525 1_555
Cs0 Hg60 4.053525 1_556
Cs0 Hg76 4.053525 1_555
Cs0 Hg19 4.147286 1_555
Cs0 Hg15 4.147286 1_555
Cs0 Hg46 4.147286 1_555
Cs0 Hg39 4.147286 1_555
Cs0 Hg21 4.224462 1_545
Cs0 Hg28 4.224462 1_555
Cs1 Hg61 3.897087 1_555
Cs1 Hg37 3.897099 1_555
Cs1 Hg63 3.906522 1_555
Cs1 Hg7 3.906522 1_555
Cs1 Hg20 4.012988 1_655
Cs1 Hg17 4.012994 1_555
Cs1 Hg69 4.012994 1_655
Cs1 Hg2 4.013002 1_555
Cs1 Hg56 4.019030 1_555
Cs1 Hg68 4.019034 1_555
Cs1 Hg14 4.053525 1_555
Cs1 Hg65 4.053525 1_655
Cs1 Hg59 4.053525 1_555
Cs1 Hg71 4.053525 1_655
Cs1 Hg60 4.147286 1_555
Cs1 Hg64 4.147286 1_555
Cs1 Hg29 4.147286 1_555
Cs1 Hg50 4.147286 1_555
Cs1 Hg3 4.224462 1_554
Cs1 Hg44 4.224462 1_555
Cs2 Hg2 3.897087 1_555
Cs2 Hg17 3.897099 1_555
Cs2 Hg28 3.906522 1_555
Cs2 Hg40 3.906522 1_555
Cs2 Hg24 4.012987 1_545
Cs2 Hg43 4.012994 1_555
Cs2 Hg75 4.012994 1_545
Cs2 Hg38 4.013002 1_555
Cs2 Hg34 4.019030 1_555
Cs2 Hg54 4.019034 1_555
Cs2 Hg39 4.053525 1_555
Cs2 Hg22 4.053525 1_545
Cs2 Hg47 4.053525 1_545
Cs2 Hg19 4.053525 1_555
Cs2 Hg14 4.147286 1_555
Cs2 Hg32 4.147286 1_555
Cs2 Hg59 4.147286 1_555
Cs2 Hg11 4.147286 1_555
Cs2 Hg7 4.224462 1_555
Cs2 Hg9 4.224462 1_655
Cs3 Hg20 3.897087 1_555
Cs3 Hg69 3.897099 1_555
Cs3 Hg25 3.906522 1_555
Cs3 Hg21 3.906522 1_555
Cs3 Hg38 4.012987 1_565
Cs3 Hg75 4.012994 1_555
Cs3 Hg43 4.012994 1_565
Cs3 Hg24 4.013002 1_555
Cs3 Hg53 4.019030 1_555
Cs3 Hg78 4.019034 1_555
Cs3 Hg26 4.053525 1_555
Cs3 Hg15 4.053525 1_565
Cs3 Hg46 4.053525 1_565
Cs3 Hg12 4.053525 1_555
Cs3 Hg13 4.147286 1_555
Cs3 Hg71 4.147286 1_555
Cs3 Hg62 4.147286 1_555
Cs3 Hg65 4.147286 1_555
Cs3 Hg1 4.224462 1_555
Cs3 Hg63 4.224462 1_455
Cs4 Hg24 3.897087 1_555
Cs4 Hg75 3.897099 1_555
Cs4 Hg44 3.906522 1_555
Cs4 Hg30 3.906522 1_555
Cs4 Hg0 4.012987 1_554
Cs4 Hg4 4.012994 1_554
Cs4 Hg37 4.012994 1_555
Cs4 Hg61 4.013002 1_555
Cs4 Hg8 4.019030 1_555
Cs4 Hg31 4.019034 1_555
Cs4 Hg42 4.053525 1_554
Cs4 Hg50 4.053525 1_555
Cs4 Hg72 4.053525 1_554
Cs4 Hg64 4.053525 1_555
Cs4 Hg12 4.147286 1_555
Cs4 Hg22 4.147286 1_555
Cs4 Hg47 4.147286 1_555
Cs4 Hg26 4.147286 1_555
Cs4 Hg40 4.224462 1_565
Cs4 Hg25 4.224462 1_555
Cs5 Hg0 3.897087 1_555
Cs5 Hg4 3.897099 1_555
Cs5 Hg9 3.906522 1_555
Cs5 Hg1 3.906522 1_555
Cs5 Hg2 4.012988 1_455
Cs5 Hg69 4.012994 1_555
Cs5 Hg17 4.012994 1_455
Cs5 Hg20 4.013002 1_555
Cs5 Hg18 4.019030 1_555
Cs5 Hg79 4.019034 1_555
Cs5 Hg13 4.053525 1_555
Cs5 Hg11 4.053525 1_455
Cs5 Hg62 4.053525 1_555
Cs5 Hg32 4.053525 1_455
Cs5 Hg72 4.147286 1_555
Cs5 Hg76 4.147286 1_555
Cs5 Hg42 4.147286 1_555
Cs5 Hg70 4.147286 1_555
Cs5 Hg30 4.224462 1_556
Cs5 Hg77 4.224462 1_555
Hg0 Hg4 3.007249 1_555
Hg0 Hg42 3.009851 1_555
Hg0 Hg70 3.009865 1_555
Hg0 Hg31 3.215750 1_556
Hg0 Hg67 3.215754 1_555
Hg0 Hg37 3.236928 1_556
Hg1 Hg53 2.998806 1_555
Hg1 Hg62 3.084279 1_555
Hg1 Hg13 3.084279 1_555
Hg1 Hg42 3.175398 1_555
Hg1 Hg70 3.175398 1_555
Hg1 Hg48 3.301189 1_555
Hg2 Hg32 3.009851 1_555
Hg2 Hg59 3.009865 1_555
Hg2 Hg79 3.215750 1_655
Hg2 Hg56 3.215754 1_555
Hg2 Hg69 3.236928 1_655
Hg3 Hg68 2.998797 1_556
Hg3 Hg60 3.084279 1_556
Hg3 Hg39 3.175398 1_555
Hg4 Hg76 3.009859 1_555
Hg4 Hg72 3.009859 1_555
Hg4 Hg8 3.215739 1_556
Hg4 Hg52 3.215753 1_555
Hg4 Hg61 3.236928 1_556
Hg5 Hg8 3.202563 1_556
Hg5 Hg52 3.202567 1_555
Hg5 Hg54 3.286125 1_455
Hg5 Hg9 3.301189 1_555
Hg5 Hg73 3.411350 1_556
Hg6 Hg78 3.202558 1_545
Hg6 Hg66 3.239546 1_555
Hg6 Hg77 3.301189 1_555
Hg6 Hg73 3.411350 1_555
Hg7 Hg80 3.301189 1_555
Hg8 Hg80 3.202563 1_555
Hg10 Hg53 3.202563 1_545
Hg10 Hg54 3.202567 1_555
Hg10 Hg23 3.239546 1_656
Hg10 Hg55 3.239546 1_556
Hg10 Hg68 3.286124 1_556
Hg10 Hg3 3.301189 1_555
Hg10 Hg73 3.411350 1_656
Hg11 Hg17 3.009859 1_555
Hg11 Hg66 3.070497 1_655
Hg11 Hg9 3.084279 1_655
Hg11 Hg47 3.124907 1_545
Hg11 Hg76 3.124907 1_655
Hg11 Hg40 3.175398 1_555
Hg11 Hg18 3.317129 1_655
Hg12 Hg24 3.009865 1_555
Hg12 Hg33 3.070497 1_555
Hg12 Hg25 3.084279 1_555
Hg12 Hg62 3.124907 1_555
Hg12 Hg50 3.124907 1_555
Hg12 Hg44 3.175398 1_555
Hg12 Hg53 3.317129 1_555
Hg13 Hg69 3.009859 1_555
Hg13 Hg35 3.070497 1_565
Hg13 Hg15 3.124907 1_565
Hg13 Hg42 3.124907 1_555
Hg13 Hg21 3.175398 1_555
Hg13 Hg79 3.317138 1_555
Hg14 Hg17 3.009859 1_555
Hg14 Hg55 3.070497 1_555
Hg14 Hg7 3.084279 1_555
Hg14 Hg22 3.124907 1_545
Hg14 Hg29 3.124907 1_555
Hg14 Hg40 3.175398 1_555
Hg14 Hg68 3.317138 1_555
Hg15 Hg43 3.009859 1_555
Hg15 Hg55 3.070497 1_556
Hg15 Hg21 3.084279 1_545
Hg15 Hg29 3.124907 1_556
Hg15 Hg3 3.175398 1_555
Hg15 Hg53 3.317129 1_545
Hg16 Hg76 3.070497 1_555
Hg16 Hg65 3.070497 1_545
Hg16 Hg47 3.070497 1_445
Hg16 Hg5 3.239546 1_555
Hg16 Hg58 3.239546 1_445
Hg16 Hg36 3.239546 1_545
Hg17 Hg2 3.007249 1_555
Hg17 Hg18 3.215739 1_655
Hg17 Hg68 3.215753 1_555
Hg17 Hg20 3.236928 1_655
Hg18 Hg77 2.998806 1_555
Hg18 Hg74 3.202563 1_555
Hg18 Hg41 3.202563 1_455
Hg18 Hg20 3.215754 1_555
Hg18 Hg6 3.286135 1_555
Hg18 Hg62 3.317129 1_555
Hg19 Hg38 3.009865 1_555
Hg19 Hg51 3.070497 1_555
Hg19 Hg28 3.084279 1_555
Hg19 Hg59 3.124907 1_555
Hg19 Hg70 3.124907 1_555
Hg19 Hg77 3.175398 1_555
Hg19 Hg34 3.317129 1_555
Hg20 Hg69 3.007249 1_555
Hg20 Hg71 3.009851 1_555
Hg20 Hg62 3.009865 1_555
Hg20 Hg68 3.215750 1_455
Hg21 Hg52 2.998797 1_565
Hg21 Hg46 3.084279 1_565
Hg21 Hg65 3.175398 1_555
Hg21 Hg36 3.301189 1_555
Hg22 Hg75 3.009859 1_555
Hg22 Hg35 3.070497 1_564
Hg22 Hg40 3.084279 1_565
Hg22 Hg42 3.124907 1_554
Hg22 Hg30 3.175398 1_555
Hg22 Hg34 3.317129 1_565
Hg23 Hg71 3.070497 1_555
Hg23 Hg72 3.070497 1_554
Hg23 Hg39 3.070497 1_454
Hg23 Hg74 3.239546 1_555
Hg23 Hg5 3.239546 1_554
Hg24 Hg75 3.007249 1_555
Hg24 Hg47 3.009851 1_555
Hg24 Hg54 3.215750 1_565
Hg24 Hg53 3.215754 1_555
Hg24 Hg43 3.236928 1_565
Hg25 Hg8 2.998806 1_555
Hg25 Hg26 3.084279 1_555
Hg25 Hg62 3.175398 1_555
Hg25 Hg71 3.175398 1_555
Hg25 Hg74 3.301189 1_555
Hg26 Hg75 3.009859 1_555
Hg26 Hg27 3.070497 1_454
Hg26 Hg72 3.124907 1_554
Hg26 Hg71 3.124907 1_555
Hg26 Hg30 3.175398 1_555
Hg26 Hg78 3.317138 1_555
Hg27 Hg32 3.070497 1_555
Hg27 Hg60 3.070497 1_556
Hg27 Hg45 3.239546 1_656
Hg27 Hg49 3.239546 1_555
Hg27 Hg57 3.239546 1_556
Hg28 Hg67 2.998806 1_555
Hg28 Hg39 3.084279 1_555
Hg28 Hg59 3.175398 1_555
Hg28 Hg32 3.175398 1_555
Hg28 Hg49 3.301189 1_555
Hg29 Hg61 3.009851 1_555
Hg29 Hg35 3.070497 1_554
Hg29 Hg3 3.084279 1_554
Hg29 Hg7 3.175398 1_555
Hg29 Hg52 3.317122 1_554
Hg30 Hg79 2.998797 1_554
Hg30 Hg72 3.084279 1_554
Hg30 Hg42 3.084279 1_554
Hg30 Hg45 3.301189 1_555
Hg31 Hg40 2.998797 1_565
Hg31 Hg48 3.202558 1_554
Hg31 Hg57 3.202567 1_555
Hg31 Hg37 3.215753 1_555
Hg31 Hg41 3.286124 1_565
Hg31 Hg42 3.317122 1_554
Hg31 Hg64 3.317138 1_555
Hg32 Hg9 3.084279 1_655
Hg32 Hg39 3.124907 1_555
Hg32 Hg72 3.124907 1_655
Hg32 Hg79 3.317122 1_655
Hg33 Hg70 3.070497 1_555
Hg33 Hg59 3.070497 1_555
Hg33 Hg48 3.239546 1_555
Hg33 Hg58 3.239546 1_555
Hg33 Hg49 3.239547 1_555
Hg34 Hg7 2.998806 1_555
Hg34 Hg45 3.202563 1_545
Hg34 Hg6 3.202563 1_555
Hg34 Hg75 3.215739 1_545
Hg34 Hg38 3.215754 1_555
Hg34 Hg80 3.286135 1_555
Hg35 Hg45 3.239546 1_546
Hg35 Hg80 3.239546 1_556
Hg35 Hg36 3.239547 1_545
Hg36 Hg56 3.202563 1_455
Hg36 Hg79 3.202567 1_555
Hg36 Hg52 3.286124 1_565
Hg36 Hg73 3.411350 1_566
Hg37 Hg61 3.007249 1_555
Hg37 Hg64 3.009859 1_555
Hg37 Hg60 3.009859 1_555
Hg37 Hg67 3.215739 1_554
Hg38 Hg43 3.007249 1_555
Hg38 Hg46 3.009851 1_555
Hg38 Hg78 3.215750 1_545
Hg38 Hg75 3.236928 1_545
Hg39 Hg43 3.009859 1_555
Hg39 Hg60 3.124907 1_556
Hg39 Hg54 3.317138 1_555
Hg40 Hg47 3.084279 1_545
Hg40 Hg41 3.301189 1_555
Hg41 Hg68 3.202567 1_555
Hg41 Hg66 3.239546 1_655
Hg41 Hg55 3.239547 1_555
Hg41 Hg73 3.411350 1_655
Hg42 Hg55 3.070497 1_566
Hg43 Hg53 3.215739 1_545
Hg43 Hg54 3.215753 1_555
Hg44 Hg56 2.998806 1_555
Hg44 Hg64 3.084279 1_555
Hg44 Hg50 3.084279 1_555
Hg44 Hg47 3.175398 1_555
Hg44 Hg58 3.301189 1_555
Hg45 Hg78 3.202567 1_555
Hg45 Hg79 3.286124 1_554
Hg45 Hg73 3.411350 1_565
Hg46 Hg66 3.070497 1_555
Hg46 Hg65 3.124907 1_545
Hg46 Hg76 3.124907 1_555
Hg46 Hg77 3.175398 1_555
Hg46 Hg78 3.317122 1_545
Hg47 Hg64 3.124907 1_555
Hg47 Hg54 3.317122 1_565
Hg48 Hg67 3.202563 1_555
Hg48 Hg55 3.239546 1_566
Hg48 Hg53 3.286135 1_555
Hg48 Hg73 3.411350 1_666
Hg49 Hg79 3.202558 1_655
Hg49 Hg56 3.202563 1_555
Hg49 Hg67 3.286135 1_555
Hg49 Hg73 3.411350 1_666
Hg50 Hg61 3.009865 1_555
Hg50 Hg51 3.070497 1_555
Hg50 Hg59 3.124907 1_555
Hg50 Hg7 3.175398 1_555
Hg50 Hg8 3.317129 1_555
Hg51 Hg62 3.070497 1_555
Hg51 Hg80 3.239546 1_555
Hg51 Hg6 3.239546 1_555
Hg51 Hg74 3.239547 1_555
Hg52 Hg80 3.202558 1_556
Hg52 Hg61 3.215750 1_556
Hg52 Hg76 3.317138 1_555
Hg53 Hg58 3.202563 1_555
Hg54 Hg9 2.998797 1_655
Hg54 Hg58 3.202558 1_545
Hg56 Hg69 3.215739 1_655
Hg56 Hg58 3.286135 1_555
Hg56 Hg65 3.317129 1_655
Hg56 Hg59 3.317129 1_555
Hg57 Hg67 3.202563 1_554
Hg57 Hg66 3.239546 1_665
Hg57 Hg78 3.286125 1_655
Hg57 Hg63 3.301189 1_555
Hg57 Hg73 3.411350 1_665
Hg58 Hg73 3.411350 1_666
Hg59 Hg7 3.084279 1_555
Hg60 Hg71 3.124907 1_655
Hg60 Hg63 3.175398 1_555
Hg60 Hg67 3.317129 1_554
Hg61 Hg8 3.215754 1_555
Hg62 Hg70 3.124907 1_555
Hg63 Hg78 2.998797 1_655
Hg63 Hg65 3.084279 1_655
Hg63 Hg71 3.084279 1_655
Hg63 Hg64 3.175398 1_555
Hg64 Hg66 3.070497 1_665
Hg64 Hg65 3.124907 1_655
Hg65 Hg69 3.009859 1_555
Hg67 Hg70 3.317129 1_555
Hg68 Hg74 3.202558 1_655
Hg68 Hg71 3.317122 1_655
Hg69 Hg79 3.215753 1_555
Hg70 Hg77 3.084279 1_555
Hg72 Hg9 3.175398 1_555
Hg72 Hg8 3.317129 1_556
Hg73 Hg74 3.411350 1_555
Hg73 Hg80 3.411350 1_555
Hg74 Hg8 3.286135 1_555
Hg75 Hg78 3.215753 1_555
Hg76 Hg77 3.084279 1_555
Hg76 Hg9 3.175398 1_555
