# generated using pymatgen
data_Ba3WCl2O5
_symmetry_space_group_name_H-M   'P 1'
_cell_length_a   7.61342178
_cell_length_b   7.61342178
_cell_length_c   11.71430400
_cell_angle_alpha   90.00000000
_cell_angle_beta   90.00000000
_cell_angle_gamma   134.25526526
_symmetry_Int_Tables_number   1
_chemical_formula_structural   Ba3WCl2O5
_chemical_formula_sum   'Ba6 W2 Cl4 O10'
_cell_volume   486.33275170
_cell_formula_units_Z   2
loop_
 _symmetry_equiv_pos_site_id
 _symmetry_equiv_pos_as_xyz
  1  'x, y, z'
loop_
 _atom_site_type_symbol
 _atom_site_label
 _atom_site_symmetry_multiplicity
 _atom_site_fract_x
 _atom_site_fract_y
 _atom_site_fract_z
 _atom_site_occupancy
  Ba  Ba0  1  0.34610400  0.65389600  0.95561500  1
  Ba  Ba1  1  0.65389600  0.34610400  0.45561500  1
  Ba  Ba2  1  0.34610400  0.65389600  0.54438500  1
  Ba  Ba3  1  0.09134000  0.90866000  0.75000000  1
  Ba  Ba4  1  0.65389600  0.34610400  0.04438500  1
  Ba  Ba5  1  0.90866000  0.09134000  0.25000000  1
  W  W0  1  0.24621800  0.75378200  0.25000000  1
  W  W1  1  0.75378200  0.24621800  0.75000000  1
  Cl  Cl0  1  0.50442200  0.49557800  0.75000000  1
  Cl  Cl1  1  0.00000000  0.00000000  0.00000000  1
  Cl  Cl2  1  0.00000000  0.00000000  0.50000000  1
  Cl  Cl3  1  0.49557800  0.50442200  0.25000000  1
  O  O0  1  0.50457100  0.94338000  0.13636300  1
  O  O1  1  0.88097900  0.11902100  0.75000000  1
  O  O2  1  0.94338000  0.50457100  0.63636300  1
  O  O3  1  0.49542900  0.05662000  0.86363700  1
  O  O4  1  0.11902100  0.88097900  0.25000000  1
  O  O5  1  0.49542900  0.05662000  0.63636300  1
  O  O6  1  0.94338000  0.50457100  0.86363700  1
  O  O7  1  0.05662000  0.49542900  0.13636300  1
  O  O8  1  0.50457100  0.94338000  0.36363700  1
  O  O9  1  0.05662000  0.49542900  0.36363700  1
loop_
_geom_bond_atom_site_label_1
_geom_bond_atom_site_label_2
_geom_bond_distance
_geom_bond_site_symmetry_2
Ba0 O6 2.643723 1_455
Ba0 O3 2.643723 1_565
Ba0 O7 2.661751 1_556
Ba0 O0 2.661751 1_556
Ba0 Cl0 3.276429 1_555
Ba0 Cl1 3.699839 1_556
Ba0 Cl1 3.699839 1_666
Ba1 O8 2.643723 1_545
Ba1 O9 2.643723 1_655
Ba1 O5 2.661751 1_555
Ba1 O2 2.661751 1_555
Ba1 Cl3 3.276429 1_555
Ba1 Cl2 3.699839 1_555
Ba1 Cl2 3.699839 1_665
Ba2 O2 2.643723 1_455
Ba2 O5 2.643723 1_565
Ba2 O9 2.661751 1_555
Ba2 O8 2.661751 1_555
Ba2 Cl0 3.276429 1_555
Ba2 Cl2 3.699839 1_555
Ba2 Cl2 3.699839 1_665
Ba3 O3 2.769267 1_565
Ba3 O5 2.769267 1_565
Ba3 O2 2.769267 1_455
Ba3 O6 2.769267 1_455
Ba3 O1 2.951281 1_465
Ba3 Cl1 3.196671 1_566
Ba3 Cl2 3.196671 1_565
Ba3 Cl0 3.200587 1_565
Ba3 Cl0 3.200587 1_455
Ba4 O0 2.643723 1_545
Ba4 O7 2.643723 1_655
Ba4 O3 2.661751 1_554
Ba4 O6 2.661751 1_554
Ba4 Cl3 3.276429 1_555
Ba4 Cl1 3.699839 1_555
Ba4 Cl1 3.699839 1_665
Ba5 O9 2.769267 1_655
Ba5 O7 2.769267 1_655
Ba5 O8 2.769267 1_545
Ba5 O0 2.769267 1_545
Ba5 O4 2.951281 1_645
Ba5 Cl2 3.196671 1_655
Ba5 Cl1 3.196671 1_655
Ba5 Cl3 3.200587 1_655
Ba5 Cl3 3.200587 1_545
O0 W0 1.939532 1_555
O1 W1 1.784523 1_555
O2 W1 1.939532 1_555
O3 W1 1.939532 1_555
O4 W0 1.784523 1_555
O5 W1 1.939532 1_555
O6 W1 1.939532 1_555
O7 W0 1.939532 1_555
O8 W0 1.939532 1_555
O9 W0 1.939532 1_555
