# generated using pymatgen
data_KZrF5
_symmetry_space_group_name_H-M   'P 1'
_cell_length_a   7.33256874
_cell_length_b   8.44674839
_cell_length_c   10.67954756
_cell_angle_alpha   75.55491384
_cell_angle_beta   71.99877257
_cell_angle_gamma   66.47102632
_symmetry_Int_Tables_number   1
_chemical_formula_structural   KZrF5
_chemical_formula_sum   'K6 Zr6 F30'
_cell_volume   570.71087127
_cell_formula_units_Z   6
loop_
 _symmetry_equiv_pos_site_id
 _symmetry_equiv_pos_as_xyz
  1  'x, y, z'
loop_
 _atom_site_type_symbol
 _atom_site_label
 _atom_site_symmetry_multiplicity
 _atom_site_fract_x
 _atom_site_fract_y
 _atom_site_fract_z
 _atom_site_occupancy
  K  K0  1  0.71154245  0.50654547  0.76951977  1
  K  K1  1  0.74382898  0.15450341  0.07045485  1
  K  K2  1  0.22277182  0.17997611  0.57563432  1
  K  K3  1  0.77722818  0.82002389  0.42436568  1
  K  K4  1  0.25617102  0.84549659  0.92954515  1
  K  K5  1  0.28845755  0.49345453  0.23048023  1
  Zr  Zr0  1  0.76632512  0.65967189  0.08118448  1
  Zr  Zr1  1  0.74064448  0.33365458  0.43100518  1
  Zr  Zr2  1  0.25935552  0.66634542  0.56899482  1
  Zr  Zr3  1  0.28122687  0.97249723  0.25564447  1
  Zr  Zr4  1  0.23367488  0.34032811  0.91881552  1
  Zr  Zr5  1  0.71877313  0.02750277  0.74435553  1
  F  F0  1  0.62846349  0.12654535  0.55457162  1
  F  F1  1  0.98302600  0.72064230  0.11327082  1
  F  F2  1  0.32989073  0.12635504  0.06088184  1
  F  F3  1  0.81914312  0.24260407  0.62362701  1
  F  F4  1  0.03214077  0.57667636  0.59887446  1
  F  F5  1  0.38775090  0.11455435  0.80057363  1
  F  F6  1  0.00866488  0.11061865  0.38906075  1
  F  F7  1  0.66403081  0.50582878  0.02755454  1
  F  F8  1  0.57848436  0.23581563  0.86183969  1
  F  F9  1  0.68649948  0.24613434  0.29573302  1
  F  F10  1  0.98965834  0.59831713  0.89660438  1
  F  F11  1  0.05805152  0.99360424  0.17604613  1
  F  F12  1  0.61224910  0.88544565  0.19942637  1
  F  F13  1  0.59350080  0.55910493  0.53595451  1
  F  F14  1  0.34545493  0.16709147  0.28522933  1
  F  F15  1  0.40649920  0.44089507  0.46404549  1
  F  F16  1  0.67010927  0.87364496  0.93911816  1
  F  F17  1  0.01697400  0.27935770  0.88672918  1
  F  F18  1  0.01034166  0.40168287  0.10339562  1
  F  F19  1  0.18085688  0.75739593  0.37637299  1
  F  F20  1  0.65454507  0.83290853  0.71477067  1
  F  F21  1  0.68247556  0.55453330  0.27853436  1
  F  F22  1  0.99133512  0.88938135  0.61093925  1
  F  F23  1  0.42151564  0.76418437  0.13816031  1
  F  F24  1  0.31752444  0.44546670  0.72146564  1
  F  F25  1  0.96785923  0.42332364  0.40112554  1
  F  F26  1  0.94194848  0.00639576  0.82395387  1
  F  F27  1  0.33596919  0.49417122  0.97244546  1
  F  F28  1  0.31350052  0.75386566  0.70426698  1
  F  F29  1  0.37153651  0.87345465  0.44542838  1
loop_
_geom_bond_atom_site_label_1
_geom_bond_atom_site_label_2
_geom_bond_distance
_geom_bond_site_symmetry_2
F0 Zr5 2.188064 1_555
F0 Zr1 2.191970 1_555
F0 K2 2.769229 1_555
F0 K3 2.903565 1_545
F1 Zr0 1.996356 1_555
F1 K4 2.683035 1_654
F1 K5 2.714415 1_655
F2 Zr4 2.083671 1_554
F2 Zr3 2.169218 1_545
F2 K1 3.171707 1_555
F3 Zr1 2.177981 1_555
F3 Zr5 2.194901 1_555
F3 K2 2.692511 1_655
F3 K0 2.754866 1_555
F4 Zr2 2.002408 1_555
F4 K0 2.669036 1_455
F4 K3 2.892474 1_455
F4 K2 3.115176 1_555
F5 Zr5 2.164991 1_555
F5 Zr4 2.259926 1_555
F5 K4 2.713049 1_545
F5 K2 2.853020 1_555
F6 Zr1 2.129071 1_455
F6 Zr3 2.143171 1_545
F7 Zr0 1.998591 1_555
F7 K0 2.667442 1_554
F7 K1 2.731240 1_555
F8 Zr5 2.141728 1_555
F8 Zr4 2.253243 1_555
F8 K1 2.673290 1_556
F8 K0 2.686143 1_555
F9 Zr1 1.978077 1_555
F9 K1 2.570624 1_555
F10 Zr0 2.161699 1_556
F10 Zr4 2.213098 1_655
F11 Zr3 1.995902 1_555
F11 K1 2.601634 1_465
F11 K4 2.904122 1_554
F12 Zr3 2.164991 1_555
F12 Zr0 2.259926 1_555
F12 K1 2.713049 1_565
F12 K3 2.853020 1_555
F13 Zr1 2.173410 1_555
F13 Zr2 2.191189 1_555
F13 K0 2.764651 1_555
F13 K3 2.856629 1_555
F14 Zr3 1.998116 1_545
F14 K5 2.557923 1_555
F14 K2 2.967417 1_555
F14 K1 3.088318 1_555
F15 Zr2 2.173410 1_555
F15 Zr1 2.191189 1_555
F15 K5 2.764651 1_555
F15 K2 2.856629 1_555
F16 Zr0 2.083671 1_556
F16 Zr5 2.169218 1_565
F16 K4 3.171707 1_555
F17 Zr4 1.996356 1_555
F17 K1 2.683035 1_456
F17 K0 2.714415 1_455
F18 Zr4 2.161699 1_554
F18 Zr0 2.213098 1_455
F19 Zr2 2.177981 1_555
F19 Zr3 2.194901 1_555
F19 K3 2.692511 1_455
F19 K5 2.754866 1_555
F20 Zr5 1.998116 1_565
F20 K0 2.557923 1_555
F20 K3 2.967417 1_555
F20 K4 3.088318 1_555
F21 Zr0 2.076040 1_555
F21 Zr1 2.143002 1_555
F22 Zr2 2.129071 1_655
F22 Zr5 2.143171 1_565
F23 Zr3 2.141728 1_555
F23 Zr0 2.253243 1_555
F23 K4 2.673290 1_554
F23 K5 2.686143 1_555
F24 Zr4 2.076040 1_555
F24 Zr2 2.143002 1_555
F25 Zr1 2.002408 1_555
F25 K5 2.669036 1_655
F25 K2 2.892474 1_655
F25 K3 3.115176 1_555
F26 Zr5 1.995902 1_555
F26 K4 2.601634 1_645
F26 K1 2.904122 1_556
F27 Zr4 1.998591 1_555
F27 K5 2.667442 1_556
F27 K4 2.731240 1_555
F28 Zr2 1.978077 1_555
F28 K4 2.570624 1_555
F29 Zr3 2.188064 1_555
F29 Zr2 2.191970 1_555
F29 K3 2.769229 1_555
F29 K2 2.903565 1_565
