# generated using pymatgen
data_CsTiAsO5
_symmetry_space_group_name_H-M   'P 1'
_cell_length_a   6.95745700
_cell_length_b   10.86187100
_cell_length_c   13.68671000
_cell_angle_alpha   90.00000000
_cell_angle_beta   90.00000000
_cell_angle_gamma   90.00000000
_symmetry_Int_Tables_number   1
_chemical_formula_structural   CsTiAsO5
_chemical_formula_sum   'Cs8 Ti8 As8 O40'
_cell_volume   1034.31836719
_cell_formula_units_Z   8
loop_
 _symmetry_equiv_pos_site_id
 _symmetry_equiv_pos_as_xyz
  1  'x, y, z'
loop_
 _atom_site_type_symbol
 _atom_site_label
 _atom_site_symmetry_multiplicity
 _atom_site_fract_x
 _atom_site_fract_y
 _atom_site_fract_z
 _atom_site_occupancy
  Cs  Cs0  1  0.21499500  0.37300700  0.61389300  1
  Cs  Cs1  1  0.78500500  0.87300700  0.38610700  1
  Cs  Cs2  1  0.28500500  0.37300700  0.11389300  1
  Cs  Cs3  1  0.71499500  0.87300700  0.88610700  1
  Cs  Cs4  1  0.30411800  0.11611300  0.88912300  1
  Cs  Cs5  1  0.69588200  0.61611300  0.11087700  1
  Cs  Cs6  1  0.19588200  0.11611300  0.38912300  1
  Cs  Cs7  1  0.80411800  0.61611300  0.61087700  1
  Ti  Ti0  1  0.49760500  0.02839700  0.62952700  1
  Ti  Ti1  1  0.50239500  0.52839700  0.37047300  1
  Ti  Ti2  1  0.00239500  0.02839700  0.12952700  1
  Ti  Ti3  1  0.99760500  0.52839700  0.87047300  1
  Ti  Ti4  1  0.73680600  0.27895100  0.75041400  1
  Ti  Ti5  1  0.26319400  0.77895100  0.24958600  1
  Ti  Ti6  1  0.76319400  0.27895100  0.25041400  1
  Ti  Ti7  1  0.23680600  0.77895100  0.74958600  1
  As  As0  1  0.67197900  0.28341600  0.49897000  1
  As  As1  1  0.32802100  0.78341600  0.50103000  1
  As  As2  1  0.82802100  0.28341600  0.99897000  1
  As  As3  1  0.17197900  0.78341600  0.00103000  1
  As  As4  1  0.49681000  0.53697500  0.82241500  1
  As  As5  1  0.50319000  0.03697500  0.17758500  1
  As  As6  1  0.00319000  0.53697500  0.32241500  1
  As  As7  1  0.99681000  0.03697500  0.67758500  1
  O  O0  1  0.51926700  0.16274600  0.51410900  1
  O  O1  1  0.48073300  0.66274600  0.48589100  1
  O  O2  1  0.98073300  0.16274600  0.01410900  1
  O  O3  1  0.01926700  0.66274600  0.98589100  1
  O  O4  1  0.53860400  0.41643000  0.48406800  1
  O  O5  1  0.46139600  0.91643000  0.51593200  1
  O  O6  1  0.96139600  0.41643000  0.98406800  1
  O  O7  1  0.03860400  0.91643000  0.01593200  1
  O  O8  1  0.80686300  0.30917700  0.60319500  1
  O  O9  1  0.19313700  0.80917700  0.39680500  1
  O  O10  1  0.69313700  0.30917700  0.10319500  1
  O  O11  1  0.30686300  0.80917700  0.89680500  1
  O  O12  1  0.81525800  0.26092900  0.39691900  1
  O  O13  1  0.18474200  0.76092900  0.60308100  1
  O  O14  1  0.68474200  0.26092900  0.89691900  1
  O  O15  1  0.31525800  0.76092900  0.10308100  1
  O  O16  1  0.56059500  0.16379400  0.71529400  1
  O  O17  1  0.43940500  0.66379400  0.28470600  1
  O  O18  1  0.93940500  0.16379400  0.21529400  1
  O  O19  1  0.06059500  0.66379400  0.78470600  1
  O  O20  1  0.93690500  0.41551600  0.78298800  1
  O  O21  1  0.06309500  0.91551600  0.21701200  1
  O  O22  1  0.56309500  0.41551600  0.28298800  1
  O  O23  1  0.43690500  0.91551600  0.71701200  1
  O  O24  1  0.69872000  0.57613600  0.88810100  1
  O  O25  1  0.30128000  0.07613600  0.11189900  1
  O  O26  1  0.80128000  0.57613600  0.38810100  1
  O  O27  1  0.19872000  0.07613600  0.61189900  1
  O  O28  1  0.29670400  0.49962000  0.89009900  1
  O  O29  1  0.70329600  0.99962000  0.10990100  1
  O  O30  1  0.20329600  0.49962000  0.39009900  1
  O  O31  1  0.79670400  0.99962000  0.60990100  1
  O  O32  1  0.45211400  0.66097100  0.74542200  1
  O  O33  1  0.54788600  0.16097100  0.25457800  1
  O  O34  1  0.04788600  0.66097100  0.24542200  1
  O  O35  1  0.95211400  0.16097100  0.75457800  1
  O  O36  1  0.54693900  0.41582100  0.74471800  1
  O  O37  1  0.45306100  0.91582100  0.25528200  1
  O  O38  1  0.95306100  0.41582100  0.24471800  1
  O  O39  1  0.04693900  0.91582100  0.75528200  1
loop_
_geom_bond_atom_site_label_1
_geom_bond_atom_site_label_2
_geom_bond_distance
_geom_bond_site_symmetry_2
Cs0 O4 2.906714 1_555
Cs0 O8 2.926641 1_455
Cs0 O36 2.959072 1_555
Cs0 O20 3.051700 1_455
Cs0 O27 3.226677 1_555
Cs0 O30 3.358562 1_555
Cs0 O0 3.400377 1_555
Cs0 O35 3.515266 1_455
Cs0 O16 3.587719 1_555
Cs1 O5 2.906714 1_555
Cs1 O9 2.926641 1_655
Cs1 O37 2.959072 1_555
Cs1 O21 3.051700 1_655
Cs1 O26 3.226677 1_555
Cs1 O31 3.358562 1_555
Cs1 O1 3.400377 1_555
Cs1 O34 3.515266 1_655
Cs1 O17 3.587719 1_555
Cs2 O6 2.906714 1_454
Cs2 O10 2.926641 1_555
Cs2 O38 2.959072 1_455
Cs2 O22 3.051700 1_555
Cs2 O25 3.226677 1_555
Cs2 O28 3.358562 1_554
Cs2 O2 3.400377 1_455
Cs2 O33 3.515266 1_555
Cs2 O18 3.587719 1_455
Cs3 O7 2.906714 1_656
Cs3 O11 2.926641 1_555
Cs3 O39 2.959072 1_655
Cs3 O23 3.051700 1_555
Cs3 O24 3.226677 1_555
Cs3 O29 3.358562 1_556
Cs3 O3 3.400377 1_655
Cs3 O32 3.515266 1_555
Cs3 O19 3.587719 1_655
Cs4 O2 2.871427 1_456
Cs4 O16 3.018733 1_555
Cs4 O25 3.079898 1_556
Cs4 O14 3.081957 1_555
Cs4 O35 3.102629 1_455
Cs4 O11 3.335611 1_545
Cs4 O7 3.336029 1_546
Cs4 O23 3.339154 1_545
Cs4 O39 3.360102 1_545
Cs5 O3 2.871427 1_654
Cs5 O17 3.018733 1_555
Cs5 O24 3.079898 1_554
Cs5 O15 3.081957 1_555
Cs5 O34 3.102629 1_655
Cs5 O10 3.335611 1_555
Cs5 O6 3.336029 1_554
Cs5 O22 3.339154 1_555
Cs5 O38 3.360102 1_555
Cs6 O0 2.871427 1_555
Cs6 O18 3.018733 1_455
Cs6 O27 3.079898 1_555
Cs6 O12 3.081957 1_455
Cs6 O33 3.102629 1_555
Cs6 O9 3.335611 1_545
Cs6 O5 3.336029 1_545
Cs6 O21 3.339154 1_545
Cs6 O37 3.360102 1_545
Cs7 O1 2.871427 1_555
Cs7 O19 3.018733 1_655
Cs7 O26 3.079898 1_555
Cs7 O13 3.081957 1_655
Cs7 O32 3.102629 1_555
Cs7 O8 3.335611 1_555
Cs7 O4 3.336029 1_555
Cs7 O20 3.339154 1_555
Cs7 O36 3.360102 1_555
As0 O0 1.699927 1_555
As0 O4 1.729186 1_555
As0 O8 1.730282 1_555
As0 O12 1.733284 1_555
As1 O1 1.699927 1_555
As1 O5 1.729186 1_555
As1 O9 1.730282 1_555
As1 O13 1.733284 1_555
As2 O2 1.699927 1_556
As2 O6 1.729186 1_555
As2 O10 1.730282 1_556
As2 O14 1.733284 1_555
As3 O3 1.699927 1_554
As3 O7 1.729186 1_555
As3 O11 1.730282 1_554
As3 O15 1.733284 1_555
As4 O28 1.720783 1_555
As4 O24 1.721216 1_555
As4 O36 1.727496 1_555
As4 O32 1.738132 1_555
As5 O29 1.720783 1_545
As5 O25 1.721216 1_555
As5 O37 1.727496 1_545
As5 O33 1.738132 1_555
As6 O30 1.720783 1_555
As6 O26 1.721216 1_455
As6 O38 1.727496 1_455
As6 O34 1.738132 1_555
As7 O31 1.720783 1_545
As7 O27 1.721216 1_655
As7 O39 1.727496 1_645
As7 O35 1.738132 1_555
O0 Ti0 2.155840 1_555
O1 Ti1 2.155840 1_555
O2 Ti2 2.155840 1_655
O3 Ti3 2.155840 1_455
O4 Ti1 1.989914 1_555
O5 Ti0 1.989914 1_565
O6 Ti3 1.989914 1_555
O7 Ti2 1.989914 1_565
O8 Ti4 2.098896 1_555
O9 Ti5 2.098896 1_555
O10 Ti6 2.098896 1_555
O11 Ti7 2.098896 1_555
O12 Ti6 2.047009 1_555
O13 Ti7 2.047009 1_555
O14 Ti4 2.047009 1_555
O15 Ti5 2.047009 1_555
O16 Ti4 1.816213 1_555
O16 Ti0 1.932067 1_555
O17 Ti5 1.816213 1_555
O17 Ti1 1.932067 1_555
O18 Ti6 1.816213 1_555
O18 Ti2 1.932067 1_655
O19 Ti7 1.816213 1_555
O19 Ti3 1.932067 1_455
O20 Ti3 1.765048 1_555
O20 Ti4 2.082609 1_555
O21 Ti2 1.765048 1_565
O21 Ti5 2.082609 1_555
O22 Ti1 1.765048 1_555
O22 Ti6 2.082609 1_555
O23 Ti0 1.765048 1_565
O23 Ti7 2.082609 1_555
O24 Ti3 2.156693 1_555
O25 Ti2 2.156693 1_555
O26 Ti1 2.156693 1_555
O27 Ti0 2.156693 1_555
O28 Ti3 2.121388 1_455
O29 Ti2 2.121388 1_665
O30 Ti1 2.121388 1_555
O31 Ti0 2.121388 1_565
O32 Ti7 1.972166 1_555
O33 Ti6 1.972166 1_555
O34 Ti5 1.972166 1_555
O35 Ti4 1.972166 1_555
O36 Ti4 1.990293 1_555
O37 Ti5 1.990293 1_555
O38 Ti6 1.990293 1_555
O39 Ti7 1.990293 1_555
