# generated using pymatgen
data_NdTlSe2
_symmetry_space_group_name_H-M   'P 1'
_cell_length_a   8.10337658
_cell_length_b   8.10337658
_cell_length_c   8.10337592
_cell_angle_alpha   30.88223981
_cell_angle_beta   30.88223981
_cell_angle_gamma   30.88223608
_symmetry_Int_Tables_number   1
_chemical_formula_structural   NdTlSe2
_chemical_formula_sum   'Nd1 Tl1 Se2'
_cell_volume   124.33725447
_cell_formula_units_Z   1
loop_
 _symmetry_equiv_pos_site_id
 _symmetry_equiv_pos_as_xyz
  1  'x, y, z'
loop_
 _atom_site_type_symbol
 _atom_site_label
 _atom_site_symmetry_multiplicity
 _atom_site_fract_x
 _atom_site_fract_y
 _atom_site_fract_z
 _atom_site_occupancy
  Nd  Nd0  1  0.00000000  0.00000000  0.00000000  1
  Tl  Tl0  1  0.50000000  0.50000000  0.50000000  1
  Se  Se0  1  0.73711197  0.73711197  0.73711197  1
  Se  Se1  1  0.26288803  0.26288803  0.26288803  1
loop_
_geom_bond_atom_site_label_1
_geom_bond_atom_site_label_2
_geom_bond_distance
_geom_bond_site_symmetry_2
Nd0 Se1 2.976915 1_554
Nd0 Se0 2.976915 1_445
Nd0 Se1 2.976916 1_545
Nd0 Se1 2.976916 1_455
Nd0 Se0 2.976916 1_544
Nd0 Se0 2.976916 1_454
Se0 Tl0 3.340797 1_556
Se0 Tl0 3.340797 1_565
Se0 Tl0 3.340797 1_655
Se1 Tl0 3.340797 1_554
Se1 Tl0 3.340797 1_545
Se1 Tl0 3.340797 1_455
