# generated using pymatgen
data_Rb2ZrS4
_symmetry_space_group_name_H-M   'P 1'
_cell_length_a   6.79563800
_cell_length_b   9.83448163
_cell_length_c   23.99174662
_cell_angle_alpha   90.00000000
_cell_angle_beta   90.00000000
_cell_angle_gamma   90.00000000
_symmetry_Int_Tables_number   1
_chemical_formula_structural   Rb2ZrS4
_chemical_formula_sum   'Rb16 Zr8 S32'
_cell_volume   1603.40626340
_cell_formula_units_Z   8
loop_
 _symmetry_equiv_pos_site_id
 _symmetry_equiv_pos_as_xyz
  1  'x, y, z'
loop_
 _atom_site_type_symbol
 _atom_site_label
 _atom_site_symmetry_multiplicity
 _atom_site_fract_x
 _atom_site_fract_y
 _atom_site_fract_z
 _atom_site_occupancy
  Rb  Rb0  1  0.44922108  0.56834585  0.80026467  1
  Rb  Rb1  1  0.30562890  0.35879919  0.03410313  1
  Rb  Rb2  1  0.05077892  0.06834585  0.19973533  1
  Rb  Rb3  1  0.80562890  0.64120081  0.46589687  1
  Rb  Rb4  1  0.94922108  0.43165415  0.69973533  1
  Rb  Rb5  1  0.19437110  0.85879919  0.96589687  1
  Rb  Rb6  1  0.55077892  0.43165415  0.19973533  1
  Rb  Rb7  1  0.19437110  0.35879919  0.53410313  1
  Rb  Rb8  1  0.44922108  0.06834585  0.69973533  1
  Rb  Rb9  1  0.05077892  0.56834585  0.30026467  1
  Rb  Rb10  1  0.69437110  0.64120081  0.96589687  1
  Rb  Rb11  1  0.30562890  0.85879919  0.46589687  1
  Rb  Rb12  1  0.80562890  0.14120081  0.03410313  1
  Rb  Rb13  1  0.94922108  0.93165415  0.80026467  1
  Rb  Rb14  1  0.55077892  0.93165415  0.30026467  1
  Rb  Rb15  1  0.69437110  0.14120081  0.53410313  1
  Zr  Zr0  1  0.03867932  0.67278966  0.13074663  1
  Zr  Zr1  1  0.53867932  0.32721034  0.36925337  1
  Zr  Zr2  1  0.96132068  0.32721034  0.86925337  1
  Zr  Zr3  1  0.96132068  0.82721034  0.63074663  1
  Zr  Zr4  1  0.46132068  0.67278966  0.63074663  1
  Zr  Zr5  1  0.03867932  0.17278966  0.36925337  1
  Zr  Zr6  1  0.53867932  0.82721034  0.13074663  1
  Zr  Zr7  1  0.46132068  0.17278966  0.86925337  1
  S  S0  1  0.71983714  0.23601001  0.79828660  1
  S  S1  1  0.05466606  0.41763213  0.15883118  1
  S  S2  1  0.84911100  0.82773842  0.06736591  1
  S  S3  1  0.37488421  0.54282595  0.41042314  1
  S  S4  1  0.28016286  0.76398999  0.20171340  1
  S  S5  1  0.55466606  0.08236787  0.15883118  1
  S  S6  1  0.15088900  0.17226158  0.93263409  1
  S  S7  1  0.78016286  0.73601001  0.20171340  1
  S  S8  1  0.62511579  0.95717405  0.91042314  1
  S  S9  1  0.37488421  0.04282595  0.08957686  1
  S  S10  1  0.44533394  0.41763213  0.65883118  1
  S  S11  1  0.34911100  0.67226158  0.06736591  1
  S  S12  1  0.62511579  0.45717405  0.58957686  1
  S  S13  1  0.21983714  0.76398999  0.70171340  1
  S  S14  1  0.94533394  0.08236787  0.65883118  1
  S  S15  1  0.12511579  0.54282595  0.91042314  1
  S  S16  1  0.55466606  0.58236787  0.34116882  1
  S  S17  1  0.21983714  0.26398999  0.79828660  1
  S  S18  1  0.84911100  0.32773842  0.43263409  1
  S  S19  1  0.94533394  0.58236787  0.84116882  1
  S  S20  1  0.87488421  0.95717405  0.41042314  1
  S  S21  1  0.34911100  0.17226158  0.43263409  1
  S  S22  1  0.87488421  0.45717405  0.08957686  1
  S  S23  1  0.78016286  0.23601001  0.29828660  1
  S  S24  1  0.15088900  0.67226158  0.56736591  1
  S  S25  1  0.65088900  0.32773842  0.93263409  1
  S  S26  1  0.71983714  0.73601001  0.70171340  1
  S  S27  1  0.12511579  0.04282595  0.58957686  1
  S  S28  1  0.44533394  0.91763213  0.84116882  1
  S  S29  1  0.05466606  0.91763213  0.34116882  1
  S  S30  1  0.65088900  0.82773842  0.56736591  1
  S  S31  1  0.28016286  0.26398999  0.29828660  1
loop_
_geom_bond_atom_site_label_1
_geom_bond_atom_site_label_2
_geom_bond_distance
_geom_bond_site_symmetry_2
Rb0 S17 3.375097 1_555
Rb0 S26 3.419248 1_555
Rb0 S13 3.423793 1_555
Rb0 S15 3.449477 1_555
Rb0 S19 3.514036 1_555
Rb0 S19 3.564754 1_455
Rb0 S28 3.572581 1_555
Rb0 S10 3.702924 1_555
Rb0 S0 3.750510 1_555
Rb1 S11 3.198039 1_555
Rb1 S6 3.224525 1_554
Rb1 S22 3.357935 1_455
Rb1 S25 3.394798 1_554
Rb1 S9 3.413058 1_555
Rb1 S1 3.492572 1_555
Rb1 S15 3.685792 1_554
Rb2 S4 3.375097 1_545
Rb2 S23 3.419248 1_455
Rb2 S31 3.423793 1_555
Rb2 S9 3.449477 1_555
Rb2 S5 3.514036 1_455
Rb2 S5 3.564754 1_555
Rb2 S1 3.572581 1_555
Rb2 S29 3.702924 1_545
Rb2 S7 3.750510 1_445
Rb3 S18 3.198039 1_555
Rb3 S30 3.224525 1_555
Rb3 S3 3.357935 1_555
Rb3 S24 3.394798 1_655
Rb3 S20 3.413058 1_555
Rb3 S16 3.492572 1_555
Rb3 S12 3.685792 1_555
Rb4 S26 3.375097 1_555
Rb4 S17 3.419248 1_655
Rb4 S0 3.423793 1_555
Rb4 S12 3.449477 1_555
Rb4 S10 3.514036 1_655
Rb4 S10 3.564754 1_555
Rb4 S14 3.572581 1_555
Rb4 S19 3.702924 1_555
Rb4 S13 3.750510 1_655
Rb5 S6 3.198039 1_565
Rb5 S11 3.224525 1_556
Rb5 S8 3.357935 1_555
Rb5 S2 3.394798 1_456
Rb5 S15 3.413058 1_555
Rb5 S28 3.492572 1_555
Rb5 S9 3.685792 1_566
Rb6 S7 3.375097 1_555
Rb6 S31 3.419248 1_555
Rb6 S23 3.423793 1_555
Rb6 S22 3.449477 1_555
Rb6 S1 3.514036 1_555
Rb6 S1 3.564754 1_655
Rb6 S5 3.572581 1_555
Rb6 S16 3.702924 1_555
Rb6 S4 3.750510 1_555
Rb7 S24 3.198039 1_555
Rb7 S21 3.224525 1_555
Rb7 S12 3.357935 1_555
Rb7 S18 3.394798 1_455
Rb7 S27 3.413058 1_555
Rb7 S10 3.492572 1_555
Rb7 S3 3.685792 1_555
Rb8 S13 3.375097 1_545
Rb8 S0 3.419248 1_555
Rb8 S17 3.423793 1_555
Rb8 S27 3.449477 1_555
Rb8 S14 3.514036 1_555
Rb8 S14 3.564754 1_455
Rb8 S10 3.572581 1_555
Rb8 S28 3.702924 1_545
Rb8 S26 3.750510 1_545
Rb9 S31 3.375097 1_555
Rb9 S7 3.419248 1_455
Rb9 S4 3.423793 1_555
Rb9 S3 3.449477 1_555
Rb9 S16 3.514036 1_455
Rb9 S16 3.564754 1_555
Rb9 S29 3.572581 1_555
Rb9 S1 3.702924 1_555
Rb9 S23 3.750510 1_455
Rb10 S25 3.198039 1_555
Rb10 S2 3.224525 1_556
Rb10 S15 3.357935 1_655
Rb10 S11 3.394798 1_556
Rb10 S8 3.413058 1_555
Rb10 S19 3.492572 1_555
Rb10 S22 3.685792 1_556
Rb11 S21 3.198039 1_565
Rb11 S24 3.224525 1_555
Rb11 S20 3.357935 1_455
Rb11 S30 3.394798 1_555
Rb11 S3 3.413058 1_555
Rb11 S29 3.492572 1_555
Rb11 S27 3.685792 1_565
Rb12 S2 3.198039 1_545
Rb12 S25 3.224525 1_554
Rb12 S9 3.357935 1_555
Rb12 S6 3.394798 1_654
Rb12 S22 3.413058 1_555
Rb12 S5 3.492572 1_555
Rb12 S8 3.685792 1_544
Rb13 S0 3.375097 1_565
Rb13 S13 3.419248 1_655
Rb13 S26 3.423793 1_555
Rb13 S8 3.449477 1_555
Rb13 S28 3.514036 1_655
Rb13 S28 3.564754 1_555
Rb13 S19 3.572581 1_555
Rb13 S14 3.702924 1_565
Rb13 S17 3.750510 1_665
Rb14 S23 3.375097 1_565
Rb14 S4 3.419248 1_555
Rb14 S7 3.423793 1_555
Rb14 S20 3.449477 1_555
Rb14 S29 3.514036 1_555
Rb14 S29 3.564754 1_655
Rb14 S16 3.572581 1_555
Rb14 S5 3.702924 1_565
Rb14 S31 3.750510 1_565
Rb15 S30 3.198039 1_545
Rb15 S18 3.224525 1_555
Rb15 S27 3.357935 1_655
Rb15 S21 3.394798 1_555
Rb15 S12 3.413058 1_555
Rb15 S14 3.492572 1_555
Rb15 S20 3.685792 1_545
S0 Zr7 2.524233 1_555
S0 Zr2 2.529099 1_555
S1 S22 2.098700 1_455
S1 Zr0 2.600501 1_555
S2 Zr0 2.508767 1_655
S2 Zr6 2.600505 1_555
S3 Zr1 2.590555 1_555
S4 Zr6 2.524233 1_555
S4 Zr0 2.529099 1_555
S5 S9 2.098700 1_555
S5 Zr6 2.600501 1_545
S6 Zr2 2.508767 1_455
S6 Zr7 2.600505 1_555
S7 Zr0 2.524233 1_655
S7 Zr6 2.529099 1_555
S8 Zr7 2.590555 1_565
S9 Zr6 2.590555 1_545
S10 S12 2.098700 1_555
S10 Zr4 2.600501 1_555
S11 Zr6 2.508767 1_555
S11 Zr0 2.600505 1_555
S12 Zr4 2.590555 1_555
S13 Zr3 2.524233 1_455
S13 Zr4 2.529099 1_555
S14 S27 2.098700 1_655
S14 Zr3 2.600501 1_545
S15 S19 2.098700 1_455
S15 Zr2 2.590555 1_455
S16 S3 2.098700 1_555
S16 Zr1 2.600501 1_555
S17 Zr2 2.524233 1_455
S17 Zr7 2.529099 1_555
S18 Zr5 2.508767 1_655
S18 Zr1 2.600505 1_555
S19 Zr2 2.600501 1_555
S20 S29 2.098700 1_655
S20 Zr5 2.590555 1_665
S21 Zr1 2.508767 1_555
S21 Zr5 2.600505 1_555
S22 Zr0 2.590555 1_655
S23 Zr5 2.524233 1_655
S23 Zr1 2.529099 1_555
S24 Zr3 2.508767 1_455
S24 Zr4 2.600505 1_555
S25 Zr7 2.508767 1_555
S25 Zr2 2.600505 1_555
S26 Zr4 2.524233 1_555
S26 Zr3 2.529099 1_555
S27 Zr3 2.590555 1_445
S28 S8 2.098700 1_555
S28 Zr7 2.600501 1_565
S29 Zr5 2.600501 1_565
S30 Zr4 2.508767 1_555
S30 Zr3 2.600505 1_555
S31 Zr1 2.524233 1_555
S31 Zr5 2.529099 1_555
