# generated using pymatgen
data_Cs2Al2Sb2O7
_symmetry_space_group_name_H-M   'P 1'
_cell_length_a   5.78785348
_cell_length_b   5.78785348
_cell_length_c   9.11824100
_cell_angle_alpha   90.00000000
_cell_angle_beta   90.00000000
_cell_angle_gamma   119.99999409
_symmetry_Int_Tables_number   1
_chemical_formula_structural   Cs2Al2Sb2O7
_chemical_formula_sum   'Cs2 Al2 Sb2 O7'
_cell_volume   264.53112652
_cell_formula_units_Z   1
loop_
 _symmetry_equiv_pos_site_id
 _symmetry_equiv_pos_as_xyz
  1  'x, y, z'
loop_
 _atom_site_type_symbol
 _atom_site_label
 _atom_site_symmetry_multiplicity
 _atom_site_fract_x
 _atom_site_fract_y
 _atom_site_fract_z
 _atom_site_occupancy
  Cs  Cs0  1  0.33333300  0.66666700  0.59746400  1
  Cs  Cs1  1  0.66666700  0.33333300  0.40253600  1
  Al  Al0  1  0.00000000  0.00000000  0.18948100  1
  Al  Al1  1  0.00000000  0.00000000  0.81051900  1
  Sb  Sb0  1  0.33333300  0.66666700  0.14703900  1
  Sb  Sb1  1  0.66666700  0.33333300  0.85296100  1
  O  O0  1  0.33260800  0.16630400  0.73665900  1
  O  O1  1  0.16630400  0.83369600  0.26334100  1
  O  O2  1  0.83369600  0.16630400  0.73665900  1
  O  O3  1  0.66739200  0.83369600  0.26334100  1
  O  O4  1  0.00000000  0.00000000  0.00000000  1
  O  O5  1  0.16630400  0.33260800  0.26334100  1
  O  O6  1  0.83369600  0.66739200  0.73665900  1
loop_
_geom_bond_atom_site_label_1
_geom_bond_atom_site_label_2
_geom_bond_distance
_geom_bond_site_symmetry_2
Cs0 O0 3.160018 1_565
Cs0 O6 3.160018 1_455
Cs0 O2 3.160021 1_565
Cs0 O2 3.160021 1_455
Cs0 O6 3.160023 1_555
Cs0 O0 3.160023 1_555
Cs0 O1 3.476437 1_555
Cs0 O3 3.476439 1_555
Cs0 O5 3.476439 1_555
Cs1 O5 3.160018 1_655
Cs1 O3 3.160018 1_545
Cs1 O1 3.160021 1_655
Cs1 O1 3.160021 1_545
Cs1 O3 3.160023 1_555
Cs1 O5 3.160023 1_555
Cs1 O2 3.476437 1_555
Cs1 O6 3.476439 1_555
Cs1 O0 3.476439 1_555
Al0 O4 1.727733 1_555
Al0 O1 1.798064 1_545
Al0 O5 1.798064 1_555
Al0 O3 1.798064 1_445
Al1 O4 1.727733 1_556
Al1 O2 1.798064 1_455
Al1 O0 1.798064 1_555
Al1 O6 1.798064 1_445
O0 Sb1 1.982011 1_555
O1 Sb0 1.982007 1_555
O2 Sb1 1.982007 1_555
O3 Sb0 1.982011 1_555
O5 Sb0 1.982011 1_555
O6 Sb1 1.982011 1_555
