# generated using pymatgen
data_K2Ga3
_symmetry_space_group_name_H-M   'P 1'
_cell_length_a   6.09307125
_cell_length_b   6.09307119
_cell_length_c   8.51475242
_cell_angle_alpha   110.96359062
_cell_angle_beta   110.96359171
_cell_angle_gamma   90.00186275
_symmetry_Int_Tables_number   1
_chemical_formula_structural   K2Ga3
_chemical_formula_sum   'K4 Ga6'
_cell_volume   272.66349932
_cell_formula_units_Z   2
loop_
 _symmetry_equiv_pos_site_id
 _symmetry_equiv_pos_as_xyz
  1  'x, y, z'
loop_
 _atom_site_type_symbol
 _atom_site_label
 _atom_site_symmetry_multiplicity
 _atom_site_fract_x
 _atom_site_fract_y
 _atom_site_fract_z
 _atom_site_occupancy
  K  K0  1  0.39056346  0.39056346  0.78116018  1
  K  K1  1  0.25000197  0.74999803  0.50000000  1
  K  K2  1  0.60943654  0.60943654  0.21883982  1
  K  K3  1  0.74999803  0.25000197  0.50000000  1
  Ga  Ga0  1  0.00000847  0.29443821  0.99997771  1
  Ga  Ga1  1  0.13861035  0.13861035  0.27714881  1
  Ga  Ga2  1  0.29443821  0.00000847  0.99997771  1
  Ga  Ga3  1  0.99999153  0.70556179  0.00002229  1
  Ga  Ga4  1  0.86138965  0.86138965  0.72285119  1
  Ga  Ga5  1  0.70556179  0.99999153  0.00002229  1
loop_
_geom_bond_atom_site_label_1
_geom_bond_atom_site_label_2
_geom_bond_distance
_geom_bond_site_symmetry_2
K0 K2 3.214481 1_556
K0 K3 3.680347 1_455
K0 K1 3.680347 1_545
K0 K1 3.680461 1_555
K0 K3 3.680461 1_555
K1 K2 3.680347 1_455
K1 K2 3.680461 1_555
K2 K3 3.680347 1_565
K2 K3 3.680461 1_555
Ga0 Ga3 2.504869 1_456
Ga0 Ga2 2.537114 1_555
Ga0 Ga5 2.537370 1_446
Ga0 Ga1 2.713263 1_556
Ga0 Ga4 2.713334 1_445
Ga0 K0 3.664789 1_555
Ga0 K2 3.665209 1_556
Ga0 K0 3.665251 1_455
Ga0 K2 3.665280 1_456
Ga1 Ga2 2.713263 1_554
Ga1 Ga5 2.713334 1_445
Ga1 Ga3 2.713334 1_445
Ga1 K1 3.458159 1_555
Ga1 K3 3.458159 1_555
Ga1 K1 3.458537 1_545
Ga1 K3 3.458537 1_455
Ga1 K0 3.701646 1_555
Ga2 Ga5 2.504869 1_546
Ga2 Ga3 2.537370 1_446
Ga2 Ga4 2.713334 1_445
Ga2 K0 3.664789 1_555
Ga2 K2 3.665209 1_556
Ga2 K0 3.665251 1_545
Ga2 K2 3.665280 1_546
Ga3 Ga5 2.537114 1_555
Ga3 Ga4 2.713263 1_554
Ga3 K2 3.664789 1_555
Ga3 K0 3.665209 1_554
Ga3 K2 3.665251 1_655
Ga3 K0 3.665280 1_654
Ga4 Ga5 2.713263 1_556
Ga4 K3 3.458159 1_555
Ga4 K1 3.458159 1_555
Ga4 K3 3.458537 1_565
Ga4 K1 3.458537 1_655
Ga4 K2 3.701646 1_555
Ga5 K2 3.664789 1_555
Ga5 K0 3.665209 1_554
Ga5 K2 3.665251 1_565
Ga5 K0 3.665280 1_564
