# generated using pymatgen
data_CsHoZnSe3
_symmetry_space_group_name_H-M   'P 1'
_cell_length_a   8.28448384
_cell_length_b   8.28448384
_cell_length_c   10.92566093
_cell_angle_alpha   90.00000000
_cell_angle_beta   90.00000000
_cell_angle_gamma   151.10575998
_symmetry_Int_Tables_number   1
_chemical_formula_structural   CsHoZnSe3
_chemical_formula_sum   'Cs2 Ho2 Zn2 Se6'
_cell_volume   362.32682958
_cell_formula_units_Z   2
loop_
 _symmetry_equiv_pos_site_id
 _symmetry_equiv_pos_as_xyz
  1  'x, y, z'
loop_
 _atom_site_type_symbol
 _atom_site_label
 _atom_site_symmetry_multiplicity
 _atom_site_fract_x
 _atom_site_fract_y
 _atom_site_fract_z
 _atom_site_occupancy
  Cs  Cs0  1  0.25761970  0.74238030  0.75000000  1
  Cs  Cs1  1  0.74238030  0.25761970  0.25000000  1
  Ho  Ho0  1  0.00000000  -0.00000000  0.00000000  1
  Ho  Ho1  1  0.00000000  -0.00000000  0.50000000  1
  Zn  Zn0  1  0.53909132  0.46090868  0.75000000  1
  Zn  Zn1  1  0.46090868  0.53909132  0.25000000  1
  Se  Se0  1  0.61632841  0.38367159  0.94152689  1
  Se  Se1  1  0.38367159  0.61632841  0.05847311  1
  Se  Se2  1  0.38367159  0.61632841  0.44152689  1
  Se  Se3  1  0.61632841  0.38367159  0.55847311  1
  Se  Se4  1  0.94606387  0.05393613  0.75000000  1
  Se  Se5  1  0.05393613  0.94606387  0.25000000  1
loop_
_geom_bond_atom_site_label_1
_geom_bond_atom_site_label_2
_geom_bond_distance
_geom_bond_site_symmetry_2
Cs0 Se4 3.662519 1_565
Cs0 Se4 3.662519 1_455
Cs0 Se3 3.713506 1_455
Cs0 Se0 3.713506 1_455
Cs0 Se3 3.713506 1_565
Cs0 Se0 3.713506 1_565
Cs0 Se1 3.930556 1_556
Cs0 Se2 3.930556 1_555
Cs1 Se5 3.662519 1_655
Cs1 Se5 3.662519 1_545
Cs1 Se2 3.713506 1_655
Cs1 Se2 3.713506 1_545
Cs1 Se1 3.713506 1_545
Cs1 Se1 3.713506 1_655
Cs1 Se3 3.930556 1_555
Cs1 Se0 3.930556 1_554
Ho0 Se0 2.857248 1_444
Ho0 Se1 2.857248 1_445
Ho0 Se0 2.857248 1_554
Ho0 Se1 2.857248 1_555
Ho0 Se5 2.865233 1_545
Ho0 Se4 2.865233 1_454
Ho1 Se3 2.857248 1_445
Ho1 Se2 2.857248 1_445
Ho1 Se2 2.857248 1_555
Ho1 Se3 2.857248 1_555
Ho1 Se5 2.865233 1_545
Ho1 Se4 2.865233 1_455
Se0 Zn0 2.431993 1_555
Se1 Zn1 2.431993 1_555
Se2 Zn1 2.431993 1_555
Se3 Zn0 2.431993 1_555
Se4 Zn0 2.549485 1_545
Se4 Zn0 2.549485 1_655
Se5 Zn1 2.549485 1_565
Se5 Zn1 2.549485 1_455
