# generated using pymatgen
data_MgH6(CO3)2
_symmetry_space_group_name_H-M   'P 1'
_cell_length_a   7.20379100
_cell_length_b   8.72493800
_cell_length_c   9.45934954
_cell_angle_alpha   81.94406009
_cell_angle_beta   90.00000000
_cell_angle_gamma   90.00000000
_symmetry_Int_Tables_number   1
_chemical_formula_structural   MgH6(CO3)2
_chemical_formula_sum   'Mg4 H24 C8 O24'
_cell_volume   588.67785679
_cell_formula_units_Z   4
loop_
 _symmetry_equiv_pos_site_id
 _symmetry_equiv_pos_as_xyz
  1  'x, y, z'
loop_
 _atom_site_type_symbol
 _atom_site_label
 _atom_site_symmetry_multiplicity
 _atom_site_fract_x
 _atom_site_fract_y
 _atom_site_fract_z
 _atom_site_occupancy
  Mg  Mg0  1  0.00000000  0.00000000  0.00000000  1
  Mg  Mg1  1  0.50000000  0.00000000  0.50000000  1
  Mg  Mg2  1  0.50000000  0.50000000  0.00000000  1
  Mg  Mg3  1  0.00000000  0.50000000  0.50000000  1
  H  H0  1  0.60961600  0.20862100  0.99244600  1
  H  H1  1  0.10961600  0.79137900  0.50755400  1
  H  H2  1  0.39038400  0.79137900  0.00755400  1
  H  H3  1  0.89038400  0.20862100  0.49244600  1
  H  H4  1  0.39368800  0.23346600  0.95468200  1
  H  H5  1  0.89368800  0.76653400  0.54531800  1
  H  H6  1  0.60631200  0.76653400  0.04531800  1
  H  H7  1  0.10631200  0.23346600  0.45468200  1
  H  H8  1  0.52517100  0.32991200  0.61312700  1
  H  H9  1  0.02517100  0.67008800  0.88687300  1
  H  H10  1  0.47482900  0.67008800  0.38687300  1
  H  H11  1  0.97482900  0.32991200  0.11312700  1
  H  H12  1  0.70755400  0.92678400  0.77572600  1
  H  H13  1  0.20755400  0.07321600  0.72427400  1
  H  H14  1  0.29244600  0.07321600  0.22427400  1
  H  H15  1  0.79244600  0.92678400  0.27572600  1
  H  H16  1  0.84762500  0.46814700  0.77726700  1
  H  H17  1  0.34762500  0.53185300  0.72273300  1
  H  H18  1  0.15237500  0.53185300  0.22273300  1
  H  H19  1  0.65237500  0.46814700  0.27726700  1
  H  H20  1  0.89861100  0.30185600  0.73691600  1
  H  H21  1  0.39861100  0.69814400  0.76308400  1
  H  H22  1  0.10138900  0.69814400  0.26308400  1
  H  H23  1  0.60138900  0.30185600  0.23691600  1
  C  C0  1  0.77485300  0.03476300  0.72616500  1
  C  C1  1  0.27485300  0.96523700  0.77383500  1
  C  C2  1  0.22514700  0.96523700  0.27383500  1
  C  C3  1  0.72514700  0.03476300  0.22616500  1
  C  C4  1  0.38493400  0.32552000  0.56590900  1
  C  C5  1  0.88493400  0.67448000  0.93409100  1
  C  C6  1  0.61506600  0.67448000  0.43409100  1
  C  C7  1  0.11506600  0.32552000  0.06590900  1
  O  O0  1  0.89250500  0.09776400  0.79959000  1
  O  O1  1  0.39250500  0.90223600  0.70041000  1
  O  O2  1  0.10749500  0.90223600  0.20041000  1
  O  O3  1  0.60749500  0.09776400  0.29959000  1
  O  O4  1  0.72833600  0.08767500  0.59894700  1
  O  O5  1  0.22833600  0.91232500  0.90105300  1
  O  O6  1  0.27166400  0.91232500  0.40105300  1
  O  O7  1  0.77166400  0.08767500  0.09894700  1
  O  O8  1  0.27560200  0.43663500  0.57918700  1
  O  O9  1  0.77560200  0.56336500  0.92081300  1
  O  O10  1  0.72439800  0.56336500  0.42081300  1
  O  O11  1  0.22439800  0.43663500  0.07918700  1
  O  O12  1  0.34532900  0.20883200  0.50391500  1
  O  O13  1  0.84532900  0.79116800  0.99608500  1
  O  O14  1  0.65467100  0.79116800  0.49608500  1
  O  O15  1  0.15467100  0.20883200  0.00391500  1
  O  O16  1  0.51962900  0.27915800  0.93653100  1
  O  O17  1  0.01962900  0.72084200  0.56346900  1
  O  O18  1  0.48037100  0.72084200  0.06346900  1
  O  O19  1  0.98037100  0.27915800  0.43653100  1
  O  O20  1  0.89078000  0.41315100  0.69822300  1
  O  O21  1  0.39078000  0.58684900  0.80177700  1
  O  O22  1  0.10922000  0.58684900  0.30177700  1
  O  O23  1  0.60922000  0.41315100  0.19822300  1
loop_
_geom_bond_atom_site_label_1
_geom_bond_atom_site_label_2
_geom_bond_distance
_geom_bond_site_symmetry_2
Mg0 O5 2.089864 1_544
Mg0 O7 2.089864 1_455
Mg0 O0 2.113734 1_454
Mg0 O2 2.113734 1_545
Mg0 O13 2.140471 1_444
Mg0 O15 2.140471 1_555
Mg1 O4 2.089864 1_555
Mg1 O6 2.089864 1_545
Mg1 O3 2.113734 1_555
Mg1 O1 2.113734 1_545
Mg1 O14 2.140471 1_545
Mg1 O12 2.140471 1_555
Mg2 O23 2.076261 1_555
Mg2 O21 2.076261 1_554
Mg2 O18 2.101753 1_555
Mg2 O16 2.101753 1_554
Mg2 O9 2.166194 1_554
Mg2 O11 2.166194 1_555
Mg3 O20 2.076261 1_455
Mg3 O22 2.076261 1_555
Mg3 O17 2.101753 1_555
Mg3 O19 2.101753 1_455
Mg3 O8 2.166194 1_555
Mg3 O10 2.166194 1_455
H0 O16 0.993731 1_555
H1 O17 0.993731 1_555
H2 O18 0.993731 1_555
H3 O19 0.993731 1_555
H4 O16 0.996159 1_555
H5 O17 0.996159 1_655
H6 O18 0.996159 1_555
H7 O19 0.996159 1_455
H16 O20 0.993232 1_555
H17 O21 0.993232 1_555
H18 O22 0.993232 1_555
H19 O23 0.993232 1_555
H20 O20 0.990179 1_555
H21 O21 0.990179 1_555
H22 O22 0.990179 1_555
H23 O23 0.990179 1_555
C0 H12 1.103904 1_545
C0 O0 1.268811 1_555
C0 O4 1.271957 1_555
C1 H13 1.103904 1_565
C1 O1 1.268811 1_555
C1 O5 1.271957 1_555
C2 H14 1.103904 1_565
C2 O2 1.268811 1_555
C2 O6 1.271957 1_555
C3 H15 1.103904 1_545
C3 O3 1.268811 1_555
C3 O7 1.271957 1_555
C4 H8 1.107404 1_555
C4 O8 1.268897 1_555
C4 O12 1.276380 1_555
C5 H9 1.107404 1_655
C5 O9 1.268897 1_555
C5 O13 1.276380 1_555
C6 H10 1.107404 1_555
C6 O10 1.268897 1_555
C6 O14 1.276380 1_555
C7 H11 1.107404 1_455
C7 O11 1.268897 1_555
C7 O15 1.276380 1_555
