# generated using pymatgen
data_GaP(H2O3)2
_symmetry_space_group_name_H-M   'P 1'
_cell_length_a   8.68908600
_cell_length_b   9.83454700
_cell_length_c   10.13449000
_cell_angle_alpha   90.00000000
_cell_angle_beta   90.00000000
_cell_angle_gamma   90.00000000
_symmetry_Int_Tables_number   1
_chemical_formula_structural   GaP(H2O3)2
_chemical_formula_sum   'Ga8 P8 H32 O48'
_cell_volume   866.02485072
_cell_formula_units_Z   8
loop_
 _symmetry_equiv_pos_site_id
 _symmetry_equiv_pos_as_xyz
  1  'x, y, z'
loop_
 _atom_site_type_symbol
 _atom_site_label
 _atom_site_symmetry_multiplicity
 _atom_site_fract_x
 _atom_site_fract_y
 _atom_site_fract_z
 _atom_site_occupancy
  Ga  Ga0  1  0.15197500  0.17134800  0.13237600  1
  Ga  Ga1  1  0.65197500  0.32865200  0.86762400  1
  Ga  Ga2  1  0.84802500  0.67134800  0.36762400  1
  Ga  Ga3  1  0.34802500  0.82865200  0.63237600  1
  Ga  Ga4  1  0.84802500  0.82865200  0.86762400  1
  Ga  Ga5  1  0.34802500  0.67134800  0.13237600  1
  Ga  Ga6  1  0.15197500  0.32865200  0.63237600  1
  Ga  Ga7  1  0.65197500  0.17134800  0.36762400  1
  P  P0  1  0.47006300  0.35585600  0.14876700  1
  P  P1  1  0.97006300  0.14414400  0.85123300  1
  P  P2  1  0.52993700  0.85585600  0.35123300  1
  P  P3  1  0.02993700  0.64414400  0.64876700  1
  P  P4  1  0.52993700  0.64414400  0.85123300  1
  P  P5  1  0.02993700  0.85585600  0.14876700  1
  P  P6  1  0.47006300  0.14414400  0.64876700  1
  P  P7  1  0.97006300  0.35585600  0.35123300  1
  H  H0  1  0.29345300  0.95857500  0.07014500  1
  H  H1  1  0.79345300  0.54142500  0.92985500  1
  H  H2  1  0.70654700  0.45857500  0.42985500  1
  H  H3  1  0.20654700  0.04142500  0.57014500  1
  H  H4  1  0.70654700  0.04142500  0.92985500  1
  H  H5  1  0.20654700  0.45857500  0.07014500  1
  H  H6  1  0.29345300  0.54142500  0.57014500  1
  H  H7  1  0.79345300  0.95857500  0.42985500  1
  H  H8  1  0.35452300  0.07282600  0.96702500  1
  H  H9  1  0.85452300  0.42717400  0.03297500  1
  H  H10  1  0.64547700  0.57282600  0.53297500  1
  H  H11  1  0.14547700  0.92717400  0.46702500  1
  H  H12  1  0.64547700  0.92717400  0.03297500  1
  H  H13  1  0.14547700  0.57282600  0.96702500  1
  H  H14  1  0.35452300  0.42717400  0.46702500  1
  H  H15  1  0.85452300  0.07282600  0.53297500  1
  H  H16  1  0.33720400  0.08171400  0.32255100  1
  H  H17  1  0.83720400  0.41828600  0.67744900  1
  H  H18  1  0.66279600  0.58171400  0.17744900  1
  H  H19  1  0.16279600  0.91828600  0.82255100  1
  H  H20  1  0.66279600  0.91828600  0.67744900  1
  H  H21  1  0.16279600  0.58171400  0.32255100  1
  H  H22  1  0.33720400  0.41828600  0.82255100  1
  H  H23  1  0.83720400  0.08171400  0.17744900  1
  H  H24  1  0.19021400  0.17484400  0.37690900  1
  H  H25  1  0.69021400  0.32515600  0.62309100  1
  H  H26  1  0.80978600  0.67484400  0.12309100  1
  H  H27  1  0.30978600  0.82515600  0.87690900  1
  H  H28  1  0.80978600  0.82515600  0.62309100  1
  H  H29  1  0.30978600  0.67484400  0.37690900  1
  H  H30  1  0.19021400  0.32515600  0.87690900  1
  H  H31  1  0.69021400  0.17484400  0.12309100  1
  O  O0  1  0.29893300  0.32759100  0.11123300  1
  O  O1  1  0.79893300  0.17240900  0.88876700  1
  O  O2  1  0.70106700  0.82759100  0.38876700  1
  O  O3  1  0.20106700  0.67240900  0.61123300  1
  O  O4  1  0.70106700  0.67240900  0.88876700  1
  O  O5  1  0.20106700  0.82759100  0.11123300  1
  O  O6  1  0.29893300  0.17240900  0.61123300  1
  O  O7  1  0.79893300  0.32759100  0.38876700  1
  O  O8  1  0.58253600  0.28773700  0.04807700  1
  O  O9  1  0.08253600  0.21226300  0.95192300  1
  O  O10  1  0.41746400  0.78773700  0.45192300  1
  O  O11  1  0.91746400  0.71226300  0.54807700  1
  O  O12  1  0.41746400  0.71226300  0.95192300  1
  O  O13  1  0.91746400  0.78773700  0.04807700  1
  O  O14  1  0.58253600  0.21226300  0.54807700  1
  O  O15  1  0.08253600  0.28773700  0.45192300  1
  O  O16  1  0.50380200  0.29632800  0.28671100  1
  O  O17  1  0.00380200  0.20367200  0.71328900  1
  O  O18  1  0.49619800  0.79632800  0.21328900  1
  O  O19  1  0.99619800  0.70367200  0.78671100  1
  O  O20  1  0.49619800  0.70367200  0.71328900  1
  O  O21  1  0.99619800  0.79632800  0.28671100  1
  O  O22  1  0.50380200  0.20367200  0.78671100  1
  O  O23  1  0.00380200  0.29632800  0.21328900  1
  O  O24  1  0.49370200  0.51258000  0.14488800  1
  O  O25  1  0.99370200  0.98742000  0.85511200  1
  O  O26  1  0.50629800  0.01258000  0.35511200  1
  O  O27  1  0.00629800  0.48742000  0.64488800  1
  O  O28  1  0.50629800  0.48742000  0.85511200  1
  O  O29  1  0.00629800  0.01258000  0.14488800  1
  O  O30  1  0.49370200  0.98742000  0.64488800  1
  O  O31  1  0.99370200  0.51258000  0.35511200  1
  O  O32  1  0.32876000  0.05634600  0.05967800  1
  O  O33  1  0.82876000  0.44365400  0.94032200  1
  O  O34  1  0.67124000  0.55634600  0.44032200  1
  O  O35  1  0.17124000  0.94365400  0.55967800  1
  O  O36  1  0.67124000  0.94365400  0.94032200  1
  O  O37  1  0.17124000  0.55634600  0.05967800  1
  O  O38  1  0.32876000  0.44365400  0.55967800  1
  O  O39  1  0.82876000  0.05634600  0.44032200  1
  O  O40  1  0.22641000  0.10760500  0.30891800  1
  O  O41  1  0.72641000  0.39239500  0.69108200  1
  O  O42  1  0.77359000  0.60760500  0.19108200  1
  O  O43  1  0.27359000  0.89239500  0.80891800  1
  O  O44  1  0.77359000  0.89239500  0.69108200  1
  O  O45  1  0.27359000  0.60760500  0.30891800  1
  O  O46  1  0.22641000  0.39239500  0.80891800  1
  O  O47  1  0.72641000  0.10760500  0.19108200  1
loop_
_geom_bond_atom_site_label_1
_geom_bond_atom_site_label_2
_geom_bond_distance
_geom_bond_site_symmetry_2
Ga0 O23 1.959792 1_555
Ga0 O9 1.967349 1_554
Ga0 O40 2.003098 1_555
Ga0 O0 2.009363 1_555
Ga0 O29 2.014034 1_555
Ga0 O32 2.044886 1_555
Ga1 O22 1.959792 1_555
Ga1 O8 1.967349 1_556
Ga1 O41 2.003098 1_555
Ga1 O1 2.009363 1_555
Ga1 O28 2.014034 1_555
Ga1 O33 2.044886 1_555
Ga2 O21 1.959792 1_555
Ga2 O11 1.967349 1_555
Ga2 O42 2.003098 1_555
Ga2 O2 2.009363 1_555
Ga2 O31 2.014034 1_555
Ga2 O34 2.044886 1_555
Ga3 O20 1.959792 1_555
Ga3 O10 1.967349 1_555
Ga3 O43 2.003098 1_555
Ga3 O3 2.009363 1_555
Ga3 O30 2.014034 1_555
Ga3 O35 2.044886 1_555
Ga4 O19 1.959792 1_555
Ga4 O13 1.967349 1_556
Ga4 O44 2.003098 1_555
Ga4 O4 2.009363 1_555
Ga4 O25 2.014034 1_555
Ga4 O36 2.044886 1_555
Ga5 O18 1.959792 1_555
Ga5 O12 1.967349 1_554
Ga5 O45 2.003098 1_555
Ga5 O5 2.009363 1_555
Ga5 O24 2.014034 1_555
Ga5 O37 2.044886 1_555
Ga6 O17 1.959792 1_555
Ga6 O15 1.967349 1_555
Ga6 O46 2.003098 1_555
Ga6 O6 2.009363 1_555
Ga6 O27 2.014034 1_555
Ga6 O38 2.044886 1_555
Ga7 O16 1.959792 1_555
Ga7 O14 1.967349 1_555
Ga7 O47 2.003098 1_555
Ga7 O7 2.009363 1_555
Ga7 O26 2.014034 1_555
Ga7 O39 2.044886 1_555
H0 O32 1.014848 1_565
H0 O5 1.573906 1_555
H1 O33 1.014848 1_555
H1 O4 1.573906 1_555
H2 O34 1.014848 1_555
H2 O7 1.573906 1_555
H3 O35 1.014848 1_545
H3 O6 1.573906 1_555
H4 O36 1.014848 1_545
H4 O1 1.573906 1_555
H5 O37 1.014848 1_555
H5 O0 1.573906 1_555
H6 O38 1.014848 1_555
H6 O3 1.573906 1_555
H7 O39 1.014848 1_565
H7 O2 1.573906 1_555
H8 O32 0.978817 1_556
H9 O33 0.978817 1_554
H10 O34 0.978817 1_555
H11 O35 0.978817 1_555
H12 O36 0.978817 1_554
H13 O37 0.978817 1_556
H14 O38 0.978817 1_555
H15 O39 0.978817 1_555
H16 O40 1.005342 1_555
H16 O26 1.652247 1_555
H17 O41 1.005342 1_555
H17 O27 1.652247 1_655
H18 O42 1.005342 1_555
H18 O24 1.652247 1_555
H19 O43 1.005342 1_555
H19 O25 1.652247 1_455
H20 O44 1.005342 1_555
H20 O30 1.652247 1_555
H21 O45 1.005342 1_555
H21 O31 1.652247 1_455
H22 O46 1.005342 1_555
H22 O28 1.652247 1_555
H23 O47 1.005342 1_555
H23 O29 1.652247 1_655
H24 O40 1.005477 1_555
H24 O15 1.638901 1_555
H25 O41 1.005477 1_555
H25 O14 1.638901 1_555
H26 O42 1.005477 1_555
H26 O13 1.638901 1_555
H27 O43 1.005477 1_555
H27 O12 1.638901 1_555
H28 O44 1.005477 1_555
H28 O11 1.638901 1_555
H29 O45 1.005477 1_555
H29 O10 1.638901 1_555
H30 O46 1.005477 1_555
H30 O9 1.638901 1_555
H31 O47 1.005477 1_555
H31 O8 1.638901 1_555
O0 P0 1.559815 1_555
O1 P1 1.559815 1_555
O2 P2 1.559815 1_555
O3 P3 1.559815 1_555
O4 P4 1.559815 1_555
O5 P5 1.559815 1_555
O6 P6 1.559815 1_555
O7 P7 1.559815 1_555
O8 P0 1.563709 1_555
O9 P1 1.563709 1_455
O10 P2 1.563709 1_555
O11 P3 1.563709 1_655
O12 P4 1.563709 1_555
O13 P5 1.563709 1_655
O14 P6 1.563709 1_555
O15 P7 1.563709 1_455
O16 P0 1.543715 1_555
O17 P1 1.543715 1_455
O18 P2 1.543715 1_555
O19 P3 1.543715 1_655
O20 P4 1.543715 1_555
O21 P5 1.543715 1_655
O22 P6 1.543715 1_555
O23 P7 1.543715 1_455
O24 P0 1.555432 1_555
O25 P1 1.555432 1_565
O26 P2 1.555432 1_545
O27 P3 1.555432 1_555
O28 P4 1.555432 1_555
O29 P5 1.555432 1_545
O30 P6 1.555432 1_565
O31 P7 1.555432 1_555
