# generated using pymatgen
data_Ca6Hf19O44
_symmetry_space_group_name_H-M   'P 1'
_cell_length_a   12.09144371
_cell_length_b   12.09144371
_cell_length_c   12.09144429
_cell_angle_alpha   98.07670119
_cell_angle_beta   98.07670119
_cell_angle_gamma   98.07670022
_symmetry_Int_Tables_number   1
_chemical_formula_structural   Ca6Hf19O44
_chemical_formula_sum   'Ca12 Hf38 O88'
_cell_volume   1709.60010745
_cell_formula_units_Z   2
loop_
 _symmetry_equiv_pos_site_id
 _symmetry_equiv_pos_as_xyz
  1  'x, y, z'
loop_
 _atom_site_type_symbol
 _atom_site_label
 _atom_site_symmetry_multiplicity
 _atom_site_fract_x
 _atom_site_fract_y
 _atom_site_fract_z
 _atom_site_occupancy
  Ca  Ca0  1  0.04966700  0.45033300  0.25000000  1
  Ca  Ca1  1  0.33390200  0.16609800  0.75000000  1
  Ca  Ca2  1  0.16609800  0.75000000  0.33390200  1
  Ca  Ca3  1  0.75000000  0.33390200  0.16609800  1
  Ca  Ca4  1  0.25000000  0.04966700  0.45033300  1
  Ca  Ca5  1  0.95033300  0.54966700  0.75000000  1
  Ca  Ca6  1  0.54966700  0.75000000  0.95033300  1
  Ca  Ca7  1  0.25000000  0.66609800  0.83390200  1
  Ca  Ca8  1  0.83390200  0.25000000  0.66609800  1
  Ca  Ca9  1  0.45033300  0.25000000  0.04966700  1
  Ca  Ca10  1  0.75000000  0.95033300  0.54966700  1
  Ca  Ca11  1  0.66609800  0.83390200  0.25000000  1
  Hf  Hf0  1  0.35737000  0.75000000  0.14263000  1
  Hf  Hf1  1  0.85776400  0.42394400  0.44932600  1
  Hf  Hf2  1  0.44831700  0.62115100  0.65768800  1
  Hf  Hf3  1  0.05067400  0.07605600  0.64223600  1
  Hf  Hf4  1  0.15768800  0.12115100  0.94831700  1
  Hf  Hf5  1  0.06200200  0.25000000  0.43799800  1
  Hf  Hf6  1  0.34231200  0.55168300  0.37884900  1
  Hf  Hf7  1  0.44932600  0.85776400  0.42394400  1
  Hf  Hf8  1  0.56200200  0.93799800  0.75000000  1
  Hf  Hf9  1  0.14263000  0.35737000  0.75000000  1
  Hf  Hf10  1  0.43799800  0.06200200  0.25000000  1
  Hf  Hf11  1  0.55168300  0.37884900  0.34231200  1
  Hf  Hf12  1  0.25000000  0.85737000  0.64263000  1
  Hf  Hf13  1  0.05168300  0.84231200  0.87884900  1
  Hf  Hf14  1  0.64263000  0.25000000  0.85737000  1
  Hf  Hf15  1  0.37884900  0.34231200  0.55168300  1
  Hf  Hf16  1  0.25000000  0.25000000  0.25000000  1
  Hf  Hf17  1  0.12115100  0.94831700  0.15768800  1
  Hf  Hf18  1  0.35776400  0.94932600  0.92394400  1
  Hf  Hf19  1  0.94831700  0.15768800  0.12115100  1
  Hf  Hf20  1  0.57605600  0.55067400  0.14223600  1
  Hf  Hf21  1  0.65768800  0.44831700  0.62115100  1
  Hf  Hf22  1  0.62115100  0.65768800  0.44831700  1
  Hf  Hf23  1  0.87884900  0.05168300  0.84231200  1
  Hf  Hf24  1  0.75000000  0.14263000  0.35737000  1
  Hf  Hf25  1  0.42394400  0.44932600  0.85776400  1
  Hf  Hf26  1  0.64223600  0.05067400  0.07605600  1
  Hf  Hf27  1  0.75000000  0.56200200  0.93799800  1
  Hf  Hf28  1  0.93799800  0.75000000  0.56200200  1
  Hf  Hf29  1  0.85737000  0.64263000  0.25000000  1
  Hf  Hf30  1  0.94932600  0.92394400  0.35776400  1
  Hf  Hf31  1  0.55067400  0.14223600  0.57605600  1
  Hf  Hf32  1  0.75000000  0.75000000  0.75000000  1
  Hf  Hf33  1  0.25000000  0.43799800  0.06200200  1
  Hf  Hf34  1  0.92394400  0.35776400  0.94932600  1
  Hf  Hf35  1  0.14223600  0.57605600  0.55067400  1
  Hf  Hf36  1  0.07605600  0.64223600  0.05067400  1
  Hf  Hf37  1  0.84231200  0.87884900  0.05168300  1
  O  O0  1  0.10875400  0.74502400  0.56653600  1
  O  O1  1  0.39287900  0.39287900  0.39287900  1
  O  O2  1  0.45617800  0.68546700  0.49464400  1
  O  O3  1  0.20063400  0.84798200  0.80137100  1
  O  O4  1  0.10684000  0.91462700  0.31786500  1
  O  O5  1  0.92963000  0.74796700  0.73426000  1
  O  O6  1  0.68546700  0.49464400  0.45617800  1
  O  O7  1  0.95902200  0.92018000  0.54914500  1
  O  O8  1  0.25497600  0.43346400  0.89124600  1
  O  O9  1  0.65201800  0.29936600  0.69862900  1
  O  O10  1  0.80142000  0.98536000  0.36890700  1
  O  O11  1  0.30137100  0.34798200  0.70063400  1
  O  O12  1  0.07037000  0.25203300  0.26574000  1
  O  O13  1  0.84798200  0.80137100  0.20063400  1
  O  O14  1  0.49464400  0.45617800  0.68546700  1
  O  O15  1  0.95617800  0.99464400  0.18546700  1
  O  O16  1  0.30142000  0.86890700  0.48536000  1
  O  O17  1  0.60684000  0.81786500  0.41462700  1
  O  O18  1  0.19862900  0.79936600  0.15201800  1
  O  O19  1  0.75203300  0.57037000  0.76574000  1
  O  O20  1  0.43346400  0.89124600  0.25497600  1
  O  O21  1  0.26574000  0.07037000  0.25203300  1
  O  O22  1  0.19858000  0.01464000  0.63109300  1
  O  O23  1  0.51464000  0.69858000  0.13109300  1
  O  O24  1  0.36890700  0.80142000  0.98536000  1
  O  O25  1  0.92018000  0.54914500  0.95902200  1
  O  O26  1  0.06653600  0.24502400  0.60875400  1
  O  O27  1  0.24796700  0.42963000  0.23426000  1
  O  O28  1  0.70063400  0.30137100  0.34798200  1
  O  O29  1  0.18546700  0.95617800  0.99464400  1
  O  O30  1  0.89287900  0.89287900  0.89287900  1
  O  O31  1  0.75497600  0.39124600  0.93346400  1
  O  O32  1  0.89316000  0.08537300  0.68213500  1
  O  O33  1  0.34798200  0.70063400  0.30137100  1
  O  O34  1  0.23426000  0.24796700  0.42963000  1
  O  O35  1  0.39316000  0.18213500  0.58537300  1
  O  O36  1  0.98536000  0.36890700  0.80142000  1
  O  O37  1  0.95085500  0.57982000  0.54097800  1
  O  O38  1  0.04097800  0.07982000  0.45085500  1
  O  O39  1  0.56653600  0.10875400  0.74502400  1
  O  O40  1  0.41462700  0.60684000  0.81786500  1
  O  O41  1  0.45085500  0.04097800  0.07982000  1
  O  O42  1  0.04914500  0.42018000  0.45902200  1
  O  O43  1  0.99464400  0.18546700  0.95617800  1
  O  O44  1  0.81453300  0.04382200  0.00535600  1
  O  O45  1  0.93346400  0.75497600  0.39124600  1
  O  O46  1  0.89124600  0.25497600  0.43346400  1
  O  O47  1  0.60875400  0.06653600  0.24502400  1
  O  O48  1  0.13109300  0.51464000  0.69858000  1
  O  O49  1  0.63109300  0.19858000  0.01464000  1
  O  O50  1  0.76574000  0.75203300  0.57037000  1
  O  O51  1  0.31786500  0.10684000  0.91462700  1
  O  O52  1  0.81786500  0.41462700  0.60684000  1
  O  O53  1  0.18213500  0.58537300  0.39316000  1
  O  O54  1  0.45902200  0.04914500  0.42018000  1
  O  O55  1  0.69858000  0.13109300  0.51464000  1
  O  O56  1  0.50535600  0.54382200  0.31453300  1
  O  O57  1  0.79936600  0.15201800  0.19862900  1
  O  O58  1  0.74502400  0.56653600  0.10875400  1
  O  O59  1  0.91462700  0.31786500  0.10684000  1
  O  O60  1  0.08537300  0.68213500  0.89316000  1
  O  O61  1  0.86890700  0.48536000  0.30142000  1
  O  O62  1  0.00535600  0.81453300  0.04382200  1
  O  O63  1  0.54382200  0.31453300  0.50535600  1
  O  O64  1  0.48536000  0.30142000  0.86890700  1
  O  O65  1  0.60712100  0.60712100  0.60712100  1
  O  O66  1  0.04382200  0.00535600  0.81453300  1
  O  O67  1  0.73426000  0.92963000  0.74796700  1
  O  O68  1  0.42963000  0.23426000  0.24796700  1
  O  O69  1  0.68213500  0.89316000  0.08537300  1
  O  O70  1  0.10712100  0.10712100  0.10712100  1
  O  O71  1  0.25203300  0.26574000  0.07037000  1
  O  O72  1  0.07982000  0.45085500  0.04097800  1
  O  O73  1  0.57037000  0.76574000  0.75203300  1
  O  O74  1  0.74796700  0.73426000  0.92963000  1
  O  O75  1  0.54914500  0.95902200  0.92018000  1
  O  O76  1  0.42018000  0.45902200  0.04914500  1
  O  O77  1  0.69862900  0.65201800  0.29936600  1
  O  O78  1  0.80137100  0.20063400  0.84798200  1
  O  O79  1  0.29936600  0.69862900  0.65201800  1
  O  O80  1  0.39124600  0.93346400  0.75497600  1
  O  O81  1  0.57982000  0.54097800  0.95085500  1
  O  O82  1  0.24502400  0.60875400  0.06653600  1
  O  O83  1  0.15201800  0.19862900  0.79936600  1
  O  O84  1  0.54097800  0.95085500  0.57982000  1
  O  O85  1  0.01464000  0.63109300  0.19858000  1
  O  O86  1  0.58537300  0.39316000  0.18213500  1
  O  O87  1  0.31453300  0.50535600  0.54382200  1
loop_
_geom_bond_atom_site_label_1
_geom_bond_atom_site_label_2
_geom_bond_distance
_geom_bond_site_symmetry_2
Ca0 O85 2.431249 1_555
Ca0 O61 2.431249 1_455
Ca0 O53 2.433072 1_555
Ca0 O59 2.433072 1_455
Ca0 O27 2.476189 1_555
Ca0 O12 2.476189 1_555
Ca0 O42 2.604491 1_555
Ca0 O72 2.604491 1_555
Ca1 O51 2.232397 1_555
Ca1 O35 2.232397 1_555
Ca1 O22 2.419775 1_555
Ca1 O64 2.419775 1_555
Ca1 O11 2.427686 1_555
Ca1 O83 2.427686 1_555
Ca2 O4 2.232397 1_555
Ca2 O53 2.232397 1_555
Ca2 O85 2.419775 1_555
Ca2 O16 2.419775 1_555
Ca2 O33 2.427686 1_555
Ca2 O18 2.427686 1_555
Ca3 O86 2.232397 1_555
Ca3 O59 2.232397 1_555
Ca3 O61 2.419775 1_555
Ca3 O49 2.419775 1_555
Ca3 O57 2.427686 1_555
Ca3 O28 2.427686 1_555
Ca4 O16 2.431249 1_545
Ca4 O22 2.431249 1_555
Ca4 O4 2.433072 1_545
Ca4 O35 2.433072 1_555
Ca4 O34 2.476189 1_555
Ca4 O21 2.476189 1_555
Ca4 O38 2.604491 1_555
Ca4 O54 2.604491 1_555
Ca5 O48 2.431249 1_655
Ca5 O36 2.431249 1_555
Ca5 O60 2.433072 1_655
Ca5 O52 2.433072 1_555
Ca5 O5 2.476189 1_555
Ca5 O19 2.476189 1_555
Ca5 O25 2.604491 1_555
Ca5 O37 2.604491 1_555
Ca6 O24 2.431249 1_555
Ca6 O23 2.431249 1_556
Ca6 O40 2.433072 1_555
Ca6 O69 2.433072 1_556
Ca6 O74 2.476189 1_555
Ca6 O73 2.476189 1_555
Ca6 O81 2.604491 1_555
Ca6 O75 2.604491 1_555
Ca7 O40 2.232397 1_555
Ca7 O60 2.232397 1_555
Ca7 O48 2.419775 1_555
Ca7 O24 2.419775 1_555
Ca7 O3 2.427686 1_555
Ca7 O79 2.427686 1_555
Ca8 O32 2.232397 1_555
Ca8 O52 2.232397 1_555
Ca8 O36 2.419775 1_555
Ca8 O55 2.419775 1_555
Ca8 O9 2.427686 1_555
Ca8 O78 2.427686 1_555
Ca9 O49 2.431249 1_555
Ca9 O64 2.431249 1_554
Ca9 O86 2.433072 1_555
Ca9 O51 2.433072 1_554
Ca9 O71 2.476189 1_555
Ca9 O68 2.476189 1_555
Ca9 O76 2.604491 1_555
Ca9 O41 2.604491 1_555
Ca10 O55 2.431249 1_565
Ca10 O10 2.431249 1_555
Ca10 O32 2.433072 1_565
Ca10 O17 2.433072 1_555
Ca10 O50 2.476189 1_555
Ca10 O67 2.476189 1_555
Ca10 O7 2.604491 1_555
Ca10 O84 2.604491 1_555
Ca11 O69 2.232397 1_555
Ca11 O17 2.232397 1_555
Ca11 O23 2.419775 1_555
Ca11 O10 2.419775 1_555
Ca11 O77 2.427686 1_555
Ca11 O13 2.427686 1_555
Hf0 O82 2.040591 1_555
Hf0 O20 2.040591 1_555
Hf0 O23 2.098710 1_555
Hf0 O24 2.098710 1_554
Hf0 O18 2.101769 1_555
Hf0 O33 2.101769 1_555
Hf1 O52 2.043536 1_555
Hf1 O61 2.044692 1_555
Hf1 O37 2.124588 1_555
Hf1 O46 2.125780 1_555
Hf1 O42 2.307728 1_655
Hf1 O28 2.313463 1_555
Hf1 O6 2.367894 1_555
Hf2 O40 2.059862 1_555
Hf2 O65 2.117065 1_555
Hf2 O79 2.140914 1_555
Hf2 O87 2.160734 1_555
Hf2 O73 2.185715 1_555
Hf2 O14 2.203420 1_555
Hf2 O2 2.227794 1_555
Hf3 O32 2.043536 1_455
Hf3 O22 2.044692 1_555
Hf3 O7 2.124588 1_445
Hf3 O26 2.125780 1_555
Hf3 O38 2.307728 1_555
Hf3 O83 2.313463 1_555
Hf3 O66 2.367894 1_555
Hf4 O51 2.059862 1_555
Hf4 O70 2.117065 1_556
Hf4 O83 2.140915 1_555
Hf4 O66 2.160734 1_555
Hf4 O71 2.185715 1_556
Hf4 O29 2.203420 1_545
Hf4 O43 2.227794 1_455
Hf5 O46 2.067265 1_455
Hf5 O26 2.067265 1_555
Hf5 O42 2.068095 1_555
Hf5 O38 2.068095 1_555
Hf5 O34 2.102856 1_555
Hf5 O12 2.102856 1_555
Hf6 O53 2.059862 1_555
Hf6 O1 2.117065 1_555
Hf6 O33 2.140914 1_555
Hf6 O2 2.160734 1_555
Hf6 O27 2.185715 1_555
Hf6 O87 2.203420 1_555
Hf6 O56 2.227794 1_555
Hf7 O17 2.043536 1_555
Hf7 O16 2.044692 1_555
Hf7 O84 2.124588 1_555
Hf7 O20 2.125780 1_555
Hf7 O54 2.307728 1_565
Hf7 O33 2.313463 1_555
Hf7 O2 2.367894 1_555
Hf8 O80 2.067265 1_555
Hf8 O39 2.067265 1_565
Hf8 O75 2.068095 1_555
Hf8 O84 2.068095 1_555
Hf8 O73 2.102856 1_555
Hf8 O67 2.102856 1_555
Hf9 O8 2.040591 1_555
Hf9 O26 2.040591 1_555
Hf9 O48 2.098710 1_555
Hf9 O36 2.098710 1_455
Hf9 O83 2.101769 1_555
Hf9 O11 2.101769 1_555
Hf10 O20 2.067265 1_545
Hf10 O47 2.067265 1_555
Hf10 O41 2.068095 1_555
Hf10 O54 2.068095 1_555
Hf10 O68 2.102856 1_555
Hf10 O21 2.102856 1_555
Hf11 O86 2.059862 1_555
Hf11 O1 2.117065 1_555
Hf11 O28 2.140914 1_555
Hf11 O6 2.160734 1_555
Hf11 O68 2.185715 1_555
Hf11 O56 2.203420 1_555
Hf11 O63 2.227794 1_555
Hf12 O0 2.040591 1_555
Hf12 O80 2.040591 1_555
Hf12 O22 2.098710 1_565
Hf12 O16 2.098710 1_555
Hf12 O79 2.101769 1_555
Hf12 O3 2.101769 1_555
Hf13 O60 2.059862 1_555
Hf13 O30 2.117065 1_455
Hf13 O3 2.140914 1_555
Hf13 O29 2.160734 1_555
Hf13 O5 2.185715 1_455
Hf13 O62 2.203420 1_556
Hf13 O66 2.227794 1_565
Hf14 O31 2.040591 1_555
Hf14 O39 2.040591 1_555
Hf14 O64 2.098710 1_555
Hf14 O49 2.098710 1_556
Hf14 O78 2.101769 1_555
Hf14 O9 2.101769 1_555
Hf15 O35 2.059862 1_555
Hf15 O1 2.117065 1_555
Hf15 O11 2.140915 1_555
Hf15 O14 2.160734 1_555
Hf15 O34 2.185715 1_555
Hf15 O63 2.203420 1_555
Hf15 O87 2.227794 1_555
Hf16 O21 2.210021 1_555
Hf16 O68 2.210021 1_555
Hf16 O27 2.210021 1_555
Hf16 O12 2.210021 1_555
Hf16 O71 2.210021 1_555
Hf16 O34 2.210021 1_555
Hf16 O1 2.537304 1_555
Hf16 O70 2.537304 1_555
Hf17 O4 2.059862 1_555
Hf17 O70 2.117065 1_565
Hf17 O18 2.140914 1_555
Hf17 O62 2.160734 1_555
Hf17 O21 2.185715 1_565
Hf17 O15 2.203420 1_455
Hf17 O29 2.227794 1_554
Hf18 O51 2.043536 1_565
Hf18 O24 2.044692 1_555
Hf18 O41 2.124588 1_566
Hf18 O80 2.125780 1_555
Hf18 O75 2.307728 1_555
Hf18 O3 2.313463 1_555
Hf18 O29 2.367894 1_555
Hf19 O59 2.059862 1_555
Hf19 O70 2.117065 1_655
Hf19 O57 2.140914 1_555
Hf19 O44 2.160734 1_555
Hf19 O12 2.185715 1_655
Hf19 O43 2.203420 1_554
Hf19 O15 2.227794 1_545
Hf20 O86 2.043536 1_555
Hf20 O23 2.044692 1_555
Hf20 O76 2.124588 1_555
Hf20 O58 2.125780 1_555
Hf20 O81 2.307728 1_554
Hf20 O77 2.313463 1_555
Hf20 O56 2.367894 1_555
Hf21 O52 2.059862 1_555
Hf21 O65 2.117065 1_555
Hf21 O9 2.140914 1_555
Hf21 O63 2.160734 1_555
Hf21 O19 2.185715 1_555
Hf21 O6 2.203420 1_555
Hf21 O14 2.227794 1_555
Hf22 O17 2.059862 1_555
Hf22 O65 2.117065 1_555
Hf22 O77 2.140915 1_555
Hf22 O56 2.160734 1_555
Hf22 O50 2.185715 1_555
Hf22 O2 2.203420 1_555
Hf22 O6 2.227794 1_555
Hf23 O32 2.059862 1_555
Hf23 O30 2.117065 1_545
Hf23 O78 2.140914 1_555
Hf23 O43 2.160734 1_555
Hf23 O67 2.185715 1_545
Hf23 O66 2.203420 1_655
Hf23 O44 2.227794 1_556
Hf24 O46 2.040591 1_555
Hf24 O47 2.040591 1_555
Hf24 O10 2.098710 1_545
Hf24 O55 2.098710 1_555
Hf24 O28 2.101769 1_555
Hf24 O57 2.101769 1_555
Hf25 O40 2.043536 1_555
Hf25 O64 2.044692 1_555
Hf25 O81 2.124588 1_555
Hf25 O8 2.125780 1_555
Hf25 O76 2.307728 1_556
Hf25 O11 2.313463 1_555
Hf25 O14 2.367894 1_555
Hf26 O69 2.043536 1_545
Hf26 O49 2.044692 1_555
Hf26 O75 2.124588 1_544
Hf26 O47 2.125780 1_555
Hf26 O41 2.307728 1_555
Hf26 O57 2.313463 1_555
Hf26 O44 2.367894 1_555
Hf27 O31 2.067265 1_555
Hf27 O58 2.067265 1_556
Hf27 O25 2.068095 1_555
Hf27 O81 2.068095 1_555
Hf27 O74 2.102856 1_555
Hf27 O19 2.102856 1_555
Hf28 O0 2.067265 1_655
Hf28 O45 2.067265 1_555
Hf28 O37 2.068095 1_555
Hf28 O7 2.068095 1_555
Hf28 O50 2.102856 1_555
Hf28 O5 2.102856 1_555
Hf29 O45 2.040591 1_555
Hf29 O58 2.040591 1_555
Hf29 O85 2.098710 1_655
Hf29 O61 2.098710 1_555
Hf29 O77 2.101769 1_555
Hf29 O13 2.101769 1_555
Hf30 O4 2.043536 1_655
Hf30 O10 2.044692 1_555
Hf30 O38 2.124588 1_665
Hf30 O45 2.125780 1_555
Hf30 O7 2.307728 1_555
Hf30 O13 2.313463 1_555
Hf30 O15 2.367894 1_555
Hf31 O35 2.043536 1_555
Hf31 O55 2.044692 1_555
Hf31 O54 2.124588 1_555
Hf31 O39 2.125780 1_555
Hf31 O84 2.307728 1_545
Hf31 O9 2.313463 1_555
Hf31 O63 2.367894 1_555
Hf32 O73 2.210021 1_555
Hf32 O67 2.210021 1_555
Hf32 O19 2.210021 1_555
Hf32 O5 2.210021 1_555
Hf32 O74 2.210021 1_555
Hf32 O50 2.210021 1_555
Hf32 O30 2.537304 1_555
Hf32 O65 2.537304 1_555
Hf33 O82 2.067265 1_555
Hf33 O8 2.067265 1_554
Hf33 O72 2.068095 1_555
Hf33 O76 2.068095 1_555
Hf33 O71 2.102856 1_555
Hf33 O27 2.102856 1_555
Hf34 O59 2.043536 1_556
Hf34 O36 2.044692 1_555
Hf34 O72 2.124588 1_656
Hf34 O31 2.125780 1_555
Hf34 O25 2.307728 1_555
Hf34 O78 2.313463 1_555
Hf34 O43 2.367894 1_555
Hf35 O53 2.043536 1_555
Hf35 O48 2.044692 1_555
Hf35 O42 2.124588 1_555
Hf35 O0 2.125780 1_555
Hf35 O37 2.307728 1_455
Hf35 O79 2.313463 1_555
Hf35 O87 2.367894 1_555
Hf36 O60 2.043536 1_554
Hf36 O85 2.044692 1_555
Hf36 O25 2.124588 1_454
Hf36 O82 2.125780 1_555
Hf36 O72 2.307728 1_555
Hf36 O18 2.313463 1_555
Hf36 O62 2.367894 1_555
Hf37 O69 2.059862 1_555
Hf37 O30 2.117065 1_554
Hf37 O13 2.140915 1_555
Hf37 O15 2.160734 1_555
Hf37 O74 2.185715 1_554
Hf37 O44 2.203420 1_565
Hf37 O62 2.227794 1_655
