# generated using pymatgen
data_TaCo2
_symmetry_space_group_name_H-M   'P 1'
_cell_length_a   4.75240349
_cell_length_b   4.75240349
_cell_length_c   15.47540000
_cell_angle_alpha   90.00000000
_cell_angle_beta   90.00000000
_cell_angle_gamma   119.99999285
_symmetry_Int_Tables_number   1
_chemical_formula_structural   TaCo2
_chemical_formula_sum   'Ta8 Co16'
_cell_volume   302.69075586
_cell_formula_units_Z   8
loop_
 _symmetry_equiv_pos_site_id
 _symmetry_equiv_pos_as_xyz
  1  'x, y, z'
loop_
 _atom_site_type_symbol
 _atom_site_label
 _atom_site_symmetry_multiplicity
 _atom_site_fract_x
 _atom_site_fract_y
 _atom_site_fract_z
 _atom_site_occupancy
  Ta  Ta0  1  0.33333300  0.66666700  0.84417800  1
  Ta  Ta1  1  0.00000000  0.00000000  0.09236600  1
  Ta  Ta2  1  0.66666700  0.33333300  0.15582200  1
  Ta  Ta3  1  0.00000000  0.00000000  0.90763400  1
  Ta  Ta4  1  0.00000000  0.00000000  0.59236600  1
  Ta  Ta5  1  0.00000000  0.00000000  0.40763400  1
  Ta  Ta6  1  0.66666700  0.33333300  0.34417800  1
  Ta  Ta7  1  0.33333300  0.66666700  0.65582200  1
  Co  Co0  1  0.50000000  0.00000000  0.00000000  1
  Co  Co1  1  0.83485600  0.16514400  0.75000000  1
  Co  Co2  1  0.66666700  0.33333300  0.87412300  1
  Co  Co3  1  0.16514400  0.33028800  0.25000000  1
  Co  Co4  1  0.33028800  0.16514400  0.75000000  1
  Co  Co5  1  0.83485600  0.66971200  0.75000000  1
  Co  Co6  1  0.00000000  0.50000000  0.00000000  1
  Co  Co7  1  0.66971200  0.83485600  0.25000000  1
  Co  Co8  1  0.50000000  0.00000000  0.50000000  1
  Co  Co9  1  0.16514400  0.83485600  0.25000000  1
  Co  Co10  1  0.33333300  0.66666700  0.12587700  1
  Co  Co11  1  0.50000000  0.50000000  0.00000000  1
  Co  Co12  1  0.66666700  0.33333300  0.62587700  1
  Co  Co13  1  0.00000000  0.50000000  0.50000000  1
  Co  Co14  1  0.33333300  0.66666700  0.37412300  1
  Co  Co15  1  0.50000000  0.50000000  0.50000000  1
loop_
_geom_bond_atom_site_label_1
_geom_bond_atom_site_label_2
_geom_bond_distance
_geom_bond_site_symmetry_2
Ta0 Ta3 2.914235 1_565
Ta0 Ta3 2.914240 1_555
Ta0 Ta3 2.914240 1_665
Ta0 Ta7 2.914884 1_555
Ta1 Ta3 2.858802 1_554
Ta1 Ta2 2.914235 1_455
Ta1 Ta2 2.914240 1_445
Ta1 Ta2 2.914240 1_555
Ta2 Ta6 2.914884 1_555
Ta4 Ta5 2.858802 1_555
Ta4 Ta7 2.914235 1_545
Ta4 Ta7 2.914240 1_555
Ta4 Ta7 2.914240 1_445
Ta5 Ta6 2.914235 1_455
Ta5 Ta6 2.914240 1_555
Ta5 Ta6 2.914240 1_445
Co0 Co11 2.376202 1_545
Co0 Co11 2.376202 1_555
Co0 Co6 2.376202 1_655
Co0 Co6 2.376202 1_545
Co0 Co10 2.382604 1_545
Co0 Co2 2.382604 1_554
Co0 Ta3 2.772999 1_654
Co0 Ta3 2.772999 1_554
Co0 Ta1 2.772999 1_555
Co0 Ta1 2.772999 1_655
Co0 Ta2 2.774346 1_555
Co0 Ta0 2.774346 1_544
Co1 Co4 2.354493 1_655
Co1 Co5 2.354493 1_545
Co1 Co2 2.367768 1_555
Co1 Co12 2.367768 1_555
Co1 Co5 2.397911 1_555
Co1 Co4 2.397911 1_555
Co1 Ta7 2.787585 1_655
Co1 Ta0 2.787585 1_655
Co1 Ta0 2.787585 1_545
Co1 Ta7 2.787585 1_545
Co1 Ta3 2.792632 1_655
Co1 Ta4 2.792632 1_655
Co2 Co5 2.367771 1_555
Co2 Co4 2.367771 1_555
Co2 Co6 2.382604 1_656
Co2 Ta0 2.782657 1_545
Co2 Ta0 2.782657 1_655
Co2 Ta0 2.782665 1_555
Co2 Ta3 2.792378 1_655
Co2 Ta3 2.792382 1_555
Co2 Ta3 2.792382 1_665
Co3 Co9 2.354493 1_545
Co3 Co7 2.354493 1_445
Co3 Co9 2.397911 1_555
Co3 Co7 2.397911 1_555
Co3 Ta2 2.787583 1_455
Co3 Ta6 2.787583 1_455
Co3 Ta2 2.787587 1_555
Co3 Ta6 2.787587 1_555
Co3 Ta5 2.792632 1_555
Co3 Ta1 2.792632 1_555
Co4 Co5 2.354493 1_445
Co4 Co5 2.397911 1_555
Co4 Ta0 2.787583 1_545
Co4 Ta7 2.787583 1_545
Co4 Ta0 2.787587 1_555
Co4 Ta7 2.787587 1_555
Co4 Ta3 2.792632 1_555
Co4 Ta4 2.792632 1_555
Co5 Ta7 2.787583 1_655
Co5 Ta0 2.787583 1_655
Co5 Ta7 2.787587 1_555
Co5 Ta0 2.787587 1_555
Co5 Ta4 2.792632 1_665
Co5 Ta3 2.792632 1_665
Co6 Ta3 2.772999 1_564
Co6 Ta3 2.772999 1_554
Co6 Ta1 2.772999 1_555
Co6 Ta1 2.772999 1_565
Co6 Ta2 2.774346 1_455
Co6 Ta0 2.774346 1_554
Co7 Co9 2.354493 1_655
Co7 Co9 2.397911 1_555
Co7 Ta6 2.787583 1_565
Co7 Ta2 2.787583 1_565
Co7 Ta6 2.787587 1_555
Co7 Ta2 2.787587 1_555
Co7 Ta1 2.792632 1_665
Co7 Ta5 2.792632 1_665
Co8 Ta4 2.772999 1_655
Co8 Ta4 2.772999 1_555
Co8 Ta5 2.772999 1_655
Co8 Ta5 2.772999 1_555
Co8 Ta6 2.774346 1_555
Co8 Ta7 2.774346 1_545
Co9 Ta2 2.787585 1_455
Co9 Ta6 2.787585 1_455
Co9 Ta2 2.787585 1_565
Co9 Ta6 2.787585 1_565
Co9 Ta1 2.792632 1_565
Co9 Ta5 2.792632 1_565
Co10 Co9 2.367768 1_555
Co10 Co7 2.367771 1_555
Co10 Co3 2.367771 1_555
Co10 Co6 2.382604 1_555
Co10 Co11 2.382606 1_555
Co10 Ta2 2.782657 1_455
Co10 Ta2 2.782657 1_565
Co10 Ta2 2.782665 1_555
Co10 Ta1 2.792378 1_565
Co10 Ta1 2.792382 1_555
Co10 Ta1 2.792382 1_665
Co11 Co6 2.376202 1_555
Co11 Co6 2.376202 1_655
Co11 Co2 2.382606 1_554
Co11 Ta3 2.772999 1_664
Co11 Ta3 2.772999 1_554
Co11 Ta1 2.772999 1_555
Co11 Ta1 2.772999 1_665
Co11 Ta2 2.774348 1_555
Co11 Ta0 2.774348 1_554
Co12 Co5 2.367771 1_555
Co12 Co4 2.367771 1_555
Co12 Co8 2.382604 1_555
Co12 Co13 2.382604 1_655
Co12 Co15 2.382606 1_555
Co12 Ta7 2.782657 1_545
Co12 Ta7 2.782657 1_655
Co12 Ta7 2.782665 1_555
Co12 Ta4 2.792378 1_655
Co12 Ta4 2.792382 1_665
Co12 Ta4 2.792382 1_555
Co13 Co15 2.376202 1_455
Co13 Co15 2.376202 1_555
Co13 Co8 2.376202 1_455
Co13 Co8 2.376202 1_565
Co13 Co14 2.382604 1_555
Co13 Ta4 2.772999 1_565
Co13 Ta4 2.772999 1_555
Co13 Ta5 2.772999 1_565
Co13 Ta5 2.772999 1_555
Co13 Ta7 2.774346 1_555
Co13 Ta6 2.774346 1_455
Co14 Co9 2.367768 1_555
Co14 Co3 2.367771 1_555
Co14 Co7 2.367771 1_555
Co14 Co8 2.382604 1_565
Co14 Co15 2.382606 1_555
Co14 Ta6 2.782657 1_455
Co14 Ta6 2.782657 1_565
Co14 Ta6 2.782665 1_555
Co14 Ta5 2.792378 1_565
Co14 Ta5 2.792382 1_555
Co14 Ta5 2.792382 1_665
Co15 Co8 2.376202 1_565
Co15 Co8 2.376202 1_555
Co15 Ta4 2.772999 1_555
Co15 Ta4 2.772999 1_665
Co15 Ta5 2.772999 1_555
Co15 Ta5 2.772999 1_665
Co15 Ta6 2.774348 1_555
Co15 Ta7 2.774348 1_555
