# generated using pymatgen
data_Sm3Ge5
_symmetry_space_group_name_H-M   'P 1'
_cell_length_a   5.86915079
_cell_length_b   7.58012788
_cell_length_c   9.27179431
_cell_angle_alpha   83.01105094
_cell_angle_beta   71.66467362
_cell_angle_gamma   67.23711161
_symmetry_Int_Tables_number   1
_chemical_formula_structural   Sm3Ge5
_chemical_formula_sum   'Sm6 Ge10'
_cell_volume   361.05421437
_cell_formula_units_Z   2
loop_
 _symmetry_equiv_pos_site_id
 _symmetry_equiv_pos_as_xyz
  1  'x, y, z'
loop_
 _atom_site_type_symbol
 _atom_site_label
 _atom_site_symmetry_multiplicity
 _atom_site_fract_x
 _atom_site_fract_y
 _atom_site_fract_z
 _atom_site_occupancy
  Sm  Sm0  1  0.25003105  0.49997316  0.49996808  1
  Sm  Sm1  1  0.66982282  0.98775539  0.66386610  1
  Sm  Sm2  1  -0.00001689  0.00020074  0.00007257  1
  Sm  Sm3  1  0.58371842  0.48763468  0.83637550  1
  Sm  Sm4  1  0.34241395  0.98753785  0.33620549  1
  Sm  Sm5  1  0.92860868  0.48758491  0.16354178  1
  Ge  Ge0  1  0.37745256  0.68252194  0.14223148  1
  Ge  Ge1  1  0.93991377  0.68266393  0.85766062  1
  Ge  Ge2  1  0.91165983  0.82654001  0.32603565  1
  Ge  Ge3  1  0.04693115  0.18265806  0.64175114  1
  Ge  Ge4  1  0.48814838  0.32654432  0.17410409  1
  Ge  Ge5  1  0.44407899  0.11192470  0.99998579  1
  Ge  Ge6  1  0.26177337  0.82645687  0.67405304  1
  Ge  Ge7  1  0.77046564  0.18272903  0.35833633  1
  Ge  Ge8  1  0.18544287  0.32663968  0.82578242  1
  Ge  Ge9  1  0.69425541  0.61123072  0.50002994  1
loop_
_geom_bond_atom_site_label_1
_geom_bond_atom_site_label_2
_geom_bond_distance
_geom_bond_site_symmetry_2
Ge0 Ge4 2.522039 1_555
Ge0 Ge2 2.604194 1_455
Ge0 Sm4 3.005622 1_555
Ge0 Sm3 3.027453 1_554
Ge0 Sm5 3.052659 1_555
Ge0 Sm2 3.062773 1_565
Ge0 Sm0 3.405705 1_555
Ge0 Sm5 3.431605 1_455
Ge1 Ge8 2.522642 1_655
Ge1 Ge6 2.602515 1_655
Ge1 Sm1 3.005601 1_555
Ge1 Sm5 3.028409 1_556
Ge1 Sm3 3.052391 1_555
Ge1 Sm2 3.063377 1_666
Ge1 Sm0 3.405700 1_655
Ge1 Sm3 3.432391 1_655
Ge2 Ge7 2.524960 1_565
Ge2 Ge9 2.563202 1_555
Ge2 Sm4 3.055337 1_555
Ge2 Sm5 3.087254 1_555
Ge2 Sm2 3.116058 1_665
Ge2 Sm0 3.148279 1_655
Ge2 Sm1 3.179838 1_555
Ge2 Sm4 3.233474 1_655
Ge3 Ge6 2.525103 1_545
Ge3 Ge8 2.603073 1_555
Ge3 Sm3 3.009452 1_455
Ge3 Sm4 3.027292 1_545
Ge3 Sm1 3.048699 1_445
Ge3 Sm0 3.065584 1_555
Ge3 Sm2 3.409849 1_556
Ge3 Sm1 3.436314 1_545
Ge4 Ge5 2.558758 1_554
Ge4 Ge7 2.604137 1_555
Ge4 Sm5 3.058691 1_455
Ge4 Sm4 3.089679 1_545
Ge4 Sm0 3.114183 1_555
Ge4 Sm2 3.149347 1_655
Ge4 Sm3 3.178912 1_554
Ge4 Sm5 3.230514 1_555
Ge5 Ge8 2.559883 1_555
Ge5 Sm2 3.036039 1_556
Ge5 Sm2 3.037370 1_656
Ge5 Sm1 3.082933 1_545
Ge5 Sm4 3.084276 1_546
Ge5 Sm3 3.325087 1_555
Ge5 Sm5 3.325497 1_456
Ge6 Ge9 2.562675 1_555
Ge6 Sm1 3.055305 1_555
Ge6 Sm3 3.086236 1_555
Ge6 Sm2 3.116621 1_566
Ge6 Sm0 3.147799 1_555
Ge6 Sm4 3.179748 1_555
Ge6 Sm1 3.235033 1_455
Ge7 Sm5 3.008801 1_555
Ge7 Sm1 3.026865 1_545
Ge7 Sm4 3.049063 1_645
Ge7 Sm0 3.065628 1_555
Ge7 Sm2 3.409378 1_655
Ge7 Sm4 3.437668 1_545
Ge8 Sm3 3.056815 1_555
Ge8 Sm1 3.088142 1_545
Ge8 Sm0 3.113645 1_555
Ge8 Sm2 3.150175 1_556
Ge8 Sm5 3.178744 1_456
Ge8 Sm3 3.232187 1_455
Ge9 Sm0 3.035027 1_555
Ge9 Sm0 3.036707 1_655
Ge9 Sm3 3.083874 1_555
Ge9 Sm5 3.085115 1_555
Ge9 Sm4 3.326987 1_555
Ge9 Sm1 3.327961 1_555
