# generated using pymatgen
data_CaCdSn
_symmetry_space_group_name_H-M   'P 1'
_cell_length_a   7.67839806
_cell_length_b   7.67839726
_cell_length_c   4.68637409
_cell_angle_alpha   90.00000000
_cell_angle_beta   90.00000000
_cell_angle_gamma   119.99999460
_symmetry_Int_Tables_number   1
_chemical_formula_structural   CaCdSn
_chemical_formula_sum   'Ca3 Cd3 Sn3'
_cell_volume   239.28132711
_cell_formula_units_Z   3
loop_
 _symmetry_equiv_pos_site_id
 _symmetry_equiv_pos_as_xyz
  1  'x, y, z'
loop_
 _atom_site_type_symbol
 _atom_site_label
 _atom_site_symmetry_multiplicity
 _atom_site_fract_x
 _atom_site_fract_y
 _atom_site_fract_z
 _atom_site_occupancy
  Ca  Ca0  1  1.00000000  0.57511937  0.50000000  1
  Ca  Ca1  1  0.57511937  1.00000000  0.50000000  1
  Ca  Ca2  1  0.42488063  0.42488063  0.50000000  1
  Cd  Cd0  1  0.25208617  0.00000000  -0.00000000  1
  Cd  Cd1  1  0.74791383  0.74791383  0.00000000  1
  Cd  Cd2  1  0.00000000  0.25208617  -0.00000000  1
  Sn  Sn0  1  0.00000000  -0.00000000  0.50000000  1
  Sn  Sn1  1  0.66666700  0.33333300  -0.00000000  1
  Sn  Sn2  1  0.33333300  0.66666700  0.00000000  1
loop_
_geom_bond_atom_site_label_1
_geom_bond_atom_site_label_2
_geom_bond_distance
_geom_bond_site_symmetry_2
Ca0 Sn0 3.262402 1_665
Ca0 Sn2 3.276638 1_655
Ca0 Sn2 3.276638 1_656
Ca0 Sn1 3.276639 1_556
Ca0 Sn1 3.276639 1_555
Ca0 Cd2 3.412154 1_655
Ca0 Cd2 3.412154 1_656
Ca0 Cd1 3.683157 1_555
Ca0 Cd1 3.683157 1_556
Ca0 Cd0 3.683157 1_665
Ca0 Cd0 3.683157 1_666
Ca0 Ca2 3.967056 1_655
Ca0 Ca1 3.967056 1_545
Ca0 Ca2 3.967056 1_555
Ca0 Ca1 3.967056 1_655
Ca1 Sn0 3.262403 1_665
Ca1 Sn1 3.276638 1_565
Ca1 Sn1 3.276638 1_566
Ca1 Sn2 3.276639 1_556
Ca1 Sn2 3.276639 1_555
Ca1 Cd0 3.412154 1_566
Ca1 Cd0 3.412154 1_565
Ca1 Cd1 3.683157 1_556
Ca1 Cd1 3.683157 1_555
Ca1 Cd2 3.683157 1_665
Ca1 Cd2 3.683157 1_666
Ca1 Ca2 3.967055 1_565
Ca1 Ca2 3.967055 1_555
Ca2 Sn0 3.262403 1_555
Ca2 Sn2 3.276643 1_556
Ca2 Sn2 3.276643 1_555
Ca2 Sn1 3.276643 1_555
Ca2 Sn1 3.276643 1_556
Ca2 Cd1 3.412155 1_555
Ca2 Cd1 3.412155 1_556
Ca2 Cd0 3.683157 1_556
Ca2 Cd0 3.683157 1_555
Ca2 Cd2 3.683157 1_555
Ca2 Cd2 3.683157 1_556
Cd0 Sn2 2.921771 1_545
Cd0 Sn1 2.921776 1_555
Cd0 Sn0 3.039267 1_555
Cd0 Sn0 3.039267 1_554
Cd0 Cd2 3.352588 1_555
Cd0 Cd1 3.352589 1_445
Cd1 Sn1 2.921778 1_555
Cd1 Sn2 2.921779 1_555
Cd1 Sn0 3.039267 1_664
Cd1 Sn0 3.039267 1_665
Cd1 Cd2 3.352588 1_665
Cd2 Sn1 2.921771 1_455
Cd2 Sn2 2.921776 1_555
Cd2 Sn0 3.039267 1_555
Cd2 Sn0 3.039267 1_554
