# generated using pymatgen
data_Zr2Al4C5
_symmetry_space_group_name_H-M   'P 1'
_cell_length_a   13.87383771
_cell_length_b   13.87383771
_cell_length_c   13.87383764
_cell_angle_alpha   13.90344802
_cell_angle_beta   13.90344802
_cell_angle_gamma   13.90344570
_symmetry_Int_Tables_number   1
_chemical_formula_structural   Zr2Al4C5
_chemical_formula_sum   'Zr2 Al4 C5'
_cell_volume   134.18524272
_cell_formula_units_Z   1
loop_
 _symmetry_equiv_pos_site_id
 _symmetry_equiv_pos_as_xyz
  1  'x, y, z'
loop_
 _atom_site_type_symbol
 _atom_site_label
 _atom_site_symmetry_multiplicity
 _atom_site_fract_x
 _atom_site_fract_y
 _atom_site_fract_z
 _atom_site_occupancy
  Zr  Zr0  1  0.86633100  0.86633100  0.86633100  1
  Zr  Zr1  1  0.13366900  0.13366900  0.13366900  1
  Al  Al0  1  0.31047300  0.31047300  0.31047300  1
  Al  Al1  1  0.41105400  0.41105400  0.41105400  1
  Al  Al2  1  0.58894600  0.58894600  0.58894600  1
  Al  Al3  1  0.68952700  0.68952700  0.68952700  1
  C  C0  1  0.23384000  0.23384000  0.23384000  1
  C  C1  1  0.36369100  0.36369100  0.36369100  1
  C  C2  1  0.50000000  0.50000000  0.50000000  1
  C  C3  1  0.63630900  0.63630900  0.63630900  1
  C  C4  1  0.76616000  0.76616000  0.76616000  1
loop_
_geom_bond_atom_site_label_1
_geom_bond_atom_site_label_2
_geom_bond_distance
_geom_bond_site_symmetry_2
Al0 C3 1.963429 1_545
Al0 C3 1.963429 1_455
Al0 C3 1.963430 1_554
Al0 C1 2.193275 1_555
Al1 C1 1.951973 1_555
Al1 C4 2.136530 1_455
Al1 C4 2.136530 1_545
Al1 C4 2.136530 1_554
Al2 C3 1.951973 1_555
Al2 C0 2.136530 1_655
Al2 C0 2.136530 1_565
Al2 C0 2.136530 1_556
Al3 C1 1.963429 1_655
Al3 C1 1.963429 1_565
Al3 C1 1.963430 1_556
Al3 C3 2.193275 1_555
C0 Zr0 2.396540 1_544
C0 Zr0 2.396540 1_454
C0 Zr0 2.396541 1_445
C2 Zr0 2.368333 1_545
C2 Zr0 2.368333 1_455
C2 Zr1 2.368333 1_565
C2 Zr1 2.368333 1_655
C2 Zr0 2.368333 1_554
C2 Zr1 2.368333 1_556
C4 Zr1 2.396540 1_656
C4 Zr1 2.396540 1_566
C4 Zr1 2.396541 1_665
