# generated using pymatgen
data_LuB4
_symmetry_space_group_name_H-M   'P 1'
_cell_length_a   3.95838420
_cell_length_b   7.01047624
_cell_length_c   7.01047624
_cell_angle_alpha   90.00000000
_cell_angle_beta   90.00000000
_cell_angle_gamma   90.00000000
_symmetry_Int_Tables_number   1
_chemical_formula_structural   LuB4
_chemical_formula_sum   'Lu4 B16'
_cell_volume   194.54182600
_cell_formula_units_Z   4
loop_
 _symmetry_equiv_pos_site_id
 _symmetry_equiv_pos_as_xyz
  1  'x, y, z'
loop_
 _atom_site_type_symbol
 _atom_site_label
 _atom_site_symmetry_multiplicity
 _atom_site_fract_x
 _atom_site_fract_y
 _atom_site_fract_z
 _atom_site_occupancy
  Lu  Lu0  1  0.00000000  0.31926684  0.81926684  1
  Lu  Lu1  1  0.00000000  0.81926684  0.68073316  1
  Lu  Lu2  1  0.00000000  0.68073316  0.18073316  1
  Lu  Lu3  1  0.00000000  0.18073316  0.31926684  1
  B  B0  1  0.50000000  0.82310786  0.96163372  1
  B  B1  1  0.50000000  0.41332236  0.08667764  1
  B  B2  1  0.50000000  0.53836628  0.67689214  1
  B  B3  1  0.50000000  0.91332236  0.41332236  1
  B  B4  1  0.50000000  0.32310786  0.53836628  1
  B  B5  1  0.50000000  0.08667764  0.58667764  1
  B  B6  1  0.50000000  0.67689214  0.46163372  1
  B  B7  1  0.50000000  0.03836628  0.82310786  1
  B  B8  1  0.20193604  -0.00000000  -0.00000000  1
  B  B9  1  0.20193604  0.50000000  0.50000000  1
  B  B10  1  0.79806396  -0.00000000  -0.00000000  1
  B  B11  1  0.50000000  0.96163372  0.17689214  1
  B  B12  1  0.50000000  0.17689214  0.03836628  1
  B  B13  1  0.50000000  0.58667764  0.91332236  1
  B  B14  1  0.79806396  0.50000000  0.50000000  1
  B  B15  1  0.50000000  0.46163372  0.32310786  1
loop_
_geom_bond_atom_site_label_1
_geom_bond_atom_site_label_2
_geom_bond_distance
_geom_bond_site_symmetry_2
B0 B13 1.691738 1_555
B0 B8 1.732696 1_566
B0 B10 1.732696 1_566
B0 B7 1.794540 1_565
B0 B11 1.794540 1_556
B0 Lu2 2.696795 1_556
B0 Lu2 2.696795 1_656
B0 Lu1 2.792107 1_655
B0 Lu1 2.792107 1_555
B1 B12 1.691738 1_555
B1 B15 1.691738 1_555
B1 B13 1.718698 1_554
B1 Lu0 2.804708 1_554
B1 Lu0 2.804708 1_654
B1 Lu2 2.804708 1_555
B1 Lu2 2.804708 1_655
B1 Lu3 3.038858 1_555
B1 Lu3 3.038858 1_655
B2 B9 1.732696 1_555
B2 B6 1.794540 1_555
B2 B4 1.794540 1_555
B2 Lu0 2.696795 1_555
B2 Lu0 2.696795 1_655
B2 Lu1 2.792107 1_555
B2 Lu1 2.792107 1_655
B3 B6 1.691738 1_555
B3 B5 1.718698 1_565
B3 Lu3 2.804708 1_665
B3 Lu3 2.804708 1_565
B3 Lu1 2.804708 1_655
B3 Lu1 2.804708 1_555
B3 Lu2 3.038858 1_555
B3 Lu2 3.038858 1_655
B4 B5 1.691738 1_555
B4 B9 1.732696 1_555
B4 Lu3 2.696795 1_555
B4 Lu3 2.696795 1_655
B4 Lu0 2.792107 1_655
B4 Lu0 2.792107 1_555
B5 B7 1.691738 1_555
B5 Lu3 2.804708 1_555
B5 Lu1 2.804708 1_645
B5 Lu3 2.804708 1_655
B5 Lu1 2.804708 1_545
B5 Lu0 3.038858 1_555
B5 Lu0 3.038858 1_655
B6 B9 1.732696 1_555
B6 Lu1 2.696795 1_655
B6 Lu1 2.696795 1_555
B6 Lu2 2.792107 1_555
B6 Lu2 2.792107 1_655
B7 B8 1.732696 1_556
B7 Lu1 2.696795 1_545
B7 Lu1 2.696795 1_645
B7 Lu0 2.792107 1_555
B7 Lu0 2.792107 1_655
B8 Lu2 2.693305 1_545
B8 Lu1 2.693305 1_544
B8 Lu0 2.693305 1_554
B8 Lu3 2.693305 1_555
B9 Lu1 2.693305 1_555
B9 Lu2 2.693305 1_555
B9 Lu3 2.693305 1_555
B9 Lu0 2.693305 1_555
B10 B8 1.598681 1_655
B10 B7 1.732696 1_554
B10 B11 1.732696 1_545
B10 B12 1.732696 1_555
B10 Lu1 2.693305 1_644
B10 Lu2 2.693305 1_645
B10 Lu0 2.693305 1_654
B10 Lu3 2.693305 1_655
B11 B3 1.691738 1_555
B11 B8 1.732696 1_565
B11 B12 1.794540 1_565
B11 Lu3 2.696795 1_665
B11 Lu3 2.696795 1_565
B11 Lu2 2.792107 1_555
B11 Lu2 2.792107 1_655
B12 B8 1.732696 1_555
B12 B7 1.794540 1_554
B12 Lu0 2.696795 1_654
B12 Lu0 2.696795 1_554
B12 Lu3 2.792107 1_655
B12 Lu3 2.792107 1_555
B13 B2 1.691738 1_555
B13 Lu0 2.804708 1_555
B13 Lu2 2.804708 1_656
B13 Lu0 2.804708 1_655
B13 Lu2 2.804708 1_556
B13 Lu1 3.038858 1_655
B13 Lu1 3.038858 1_555
B14 B9 1.598681 1_655
B14 B6 1.732696 1_555
B14 B4 1.732696 1_555
B14 B2 1.732696 1_555
B14 B15 1.732696 1_555
B14 Lu3 2.693305 1_655
B14 Lu1 2.693305 1_655
B14 Lu2 2.693305 1_655
B14 Lu0 2.693305 1_655
B15 B9 1.732696 1_555
B15 B6 1.794540 1_555
B15 B4 1.794540 1_555
B15 Lu2 2.696795 1_555
B15 Lu2 2.696795 1_655
B15 Lu3 2.792107 1_555
B15 Lu3 2.792107 1_655
