# generated using pymatgen
data_Ca3Co(SeO3)4
_symmetry_space_group_name_H-M   'P 1'
_cell_length_a   12.64725199
_cell_length_b   12.64725199
_cell_length_c   12.64725199
_cell_angle_alpha   144.53397681
_cell_angle_beta   144.53397681
_cell_angle_gamma   51.02955192
_symmetry_Int_Tables_number   1
_chemical_formula_structural   Ca3Co(SeO3)4
_chemical_formula_sum   'Ca6 Co2 Se8 O24'
_cell_volume   677.47221739
_cell_formula_units_Z   2
loop_
 _symmetry_equiv_pos_site_id
 _symmetry_equiv_pos_as_xyz
  1  'x, y, z'
loop_
 _atom_site_type_symbol
 _atom_site_label
 _atom_site_symmetry_multiplicity
 _atom_site_fract_x
 _atom_site_fract_y
 _atom_site_fract_z
 _atom_site_occupancy
  Ca  Ca0  1  0.07360200  0.57360200  0.50000000  1
  Ca  Ca1  1  0.50000000  0.50000000  0.00000000  1
  Ca  Ca2  1  0.67639800  0.67639800  0.00000000  1
  Ca  Ca3  1  0.42639800  0.92639800  0.50000000  1
  Ca  Ca4  1  0.32360200  0.32360200  0.00000000  1
  Ca  Ca5  1  0.25000000  0.75000000  0.50000000  1
  Co  Co0  1  0.75000000  0.25000000  0.50000000  1
  Co  Co1  1  0.00000000  0.00000000  0.00000000  1
  Se  Se0  1  0.38747000  0.23562500  0.48981700  1
  Se  Se1  1  0.76437500  0.25419200  0.15184500  1
  Se  Se2  1  0.98562500  0.99580800  0.34815500  1
  Se  Se3  1  0.10234700  0.61253000  0.84815500  1
  Se  Se4  1  0.64765300  0.63747000  0.65184500  1
  Se  Se5  1  0.00419200  0.35234700  0.98981700  1
  Se  Se6  1  0.74580800  0.89765300  0.51018300  1
  Se  Se7  1  0.36253000  0.01437500  0.01018300  1
  O  O0  1  0.00949900  0.52680000  0.22633500  1
  O  O1  1  0.76212100  0.04958600  0.91071200  1
  O  O2  1  0.53316400  0.25949900  0.98269800  1
  O  O3  1  0.94656200  0.82966700  0.27605400  1
  O  O4  1  0.60140900  0.01212100  0.21253500  1
  O  O5  1  0.30046500  0.78316400  0.77366500  1
  O  O6  1  0.55361400  0.67050900  0.72394600  1
  O  O7  1  0.98787900  0.20041400  0.58928800  1
  O  O8  1  0.21683600  0.99050100  0.51730200  1
  O  O9  1  0.42050900  0.19656200  0.61689500  1
  O  O10  1  0.57966700  0.80361400  0.38310500  1
  O  O11  1  0.44953500  0.46683600  0.72633500  1
  O  O12  1  0.17033300  0.44638600  0.11689500  1
  O  O13  1  0.47320000  0.69953500  0.48269800  1
  O  O14  1  0.79958600  0.38887400  0.78746500  1
  O  O15  1  0.95041400  0.86112600  0.71253500  1
  O  O16  1  0.32949100  0.05343800  0.88310500  1
  O  O17  1  0.80343800  0.42033300  0.22394600  1
  O  O18  1  0.61112600  0.39859100  0.41071200  1
  O  O19  1  0.13887400  0.85140900  0.08928800  1
  O  O20  1  0.74050100  0.72320000  0.27366500  1
  O  O21  1  0.14859100  0.23787900  0.28746500  1
  O  O22  1  0.19638600  0.57949100  0.77605400  1
  O  O23  1  0.27680000  0.55046500  0.01730200  1
loop_
_geom_bond_atom_site_label_1
_geom_bond_atom_site_label_2
_geom_bond_distance
_geom_bond_site_symmetry_2
Ca0 O17 2.344525 1_455
Ca0 O22 2.344541 1_555
Ca0 O5 2.383825 1_555
Ca0 O0 2.383825 1_555
Ca0 O21 2.578641 1_555
Ca0 O15 2.578641 1_455
Ca0 O11 2.945195 1_555
Ca0 O20 2.945195 1_455
Ca1 O17 2.417473 1_555
Ca1 O22 2.417473 1_554
Ca1 O10 2.417476 1_555
Ca1 O9 2.417476 1_554
Ca1 O2 2.633665 1_554
Ca1 O20 2.633675 1_555
Ca1 O11 2.633675 1_554
Ca1 O23 2.633684 1_555
Ca2 O3 2.344525 1_555
Ca2 O6 2.344541 1_554
Ca2 O11 2.383825 1_554
Ca2 O20 2.383825 1_555
Ca2 O14 2.578641 1_554
Ca2 O4 2.578641 1_565
Ca2 O0 2.945195 1_655
Ca2 O5 2.945195 1_554
Ca3 O9 2.344530 1_565
Ca3 O10 2.344530 1_555
Ca3 O13 2.383816 1_555
Ca3 O8 2.383834 1_555
Ca3 O19 2.578641 1_555
Ca3 O1 2.578641 1_565
Ca3 O2 2.945189 1_565
Ca3 O23 2.945192 1_555
Ca4 O12 2.344530 1_555
Ca4 O16 2.344530 1_554
Ca4 O23 2.383816 1_555
Ca4 O2 2.383834 1_554
Ca4 O7 2.578641 1_454
Ca4 O18 2.578641 1_555
Ca4 O8 2.945189 1_544
Ca4 O13 2.945192 1_555
Ca5 O3 2.417473 1_455
Ca5 O6 2.417473 1_555
Ca5 O16 2.417476 1_565
Ca5 O12 2.417476 1_555
Ca5 O8 2.633665 1_555
Ca5 O0 2.633675 1_555
Ca5 O5 2.633675 1_555
Ca5 O13 2.633684 1_555
Co0 O18 1.991484 1_555
Co0 O14 1.991484 1_555
Co0 O7 1.991484 1_555
Co0 O4 1.991484 1_555
Co1 O15 1.991484 1_444
Co1 O1 1.991484 1_454
Co1 O21 1.991484 1_555
Co1 O19 1.991484 1_545
O0 Se5 1.711421 1_554
O1 Se1 1.758930 1_556
O2 Se1 1.711420 1_556
O3 Se2 1.715095 1_555
O4 Se7 1.758930 1_555
O5 Se7 1.711421 1_566
O6 Se4 1.715075 1_555
O7 Se2 1.758930 1_545
O8 Se2 1.711420 1_455
O9 Se0 1.715086 1_555
O10 Se6 1.715086 1_555
O11 Se0 1.711421 1_555
O12 Se5 1.715086 1_554
O13 Se4 1.711428 1_555
O14 Se5 1.758930 1_655
O15 Se6 1.758930 1_555
O16 Se7 1.715086 1_556
O17 Se1 1.715095 1_555
O18 Se4 1.758930 1_555
O19 Se3 1.758930 1_554
O20 Se6 1.711421 1_555
O21 Se0 1.758930 1_555
O22 Se3 1.715075 1_555
O23 Se3 1.711428 1_554
