# generated using pymatgen
data_Na2B2Se7
_symmetry_space_group_name_H-M   'P 1'
_cell_length_a   8.21193191
_cell_length_b   8.21193191
_cell_length_c   11.93002760
_cell_angle_alpha   63.64082363
_cell_angle_beta   63.64082363
_cell_angle_gamma   48.57720600
_symmetry_Int_Tables_number   1
_chemical_formula_structural   Na2B2Se7
_chemical_formula_sum   'Na4 B4 Se14'
_cell_volume   526.85118668
_cell_formula_units_Z   2
loop_
 _symmetry_equiv_pos_site_id
 _symmetry_equiv_pos_as_xyz
  1  'x, y, z'
loop_
 _atom_site_type_symbol
 _atom_site_label
 _atom_site_symmetry_multiplicity
 _atom_site_fract_x
 _atom_site_fract_y
 _atom_site_fract_z
 _atom_site_occupancy
  Na  Na0  1  0.89117693  0.32621461  0.95883921  1
  Na  Na1  1  0.67378539  0.10882307  0.54116079  1
  Na  Na2  1  0.10882307  0.67378539  0.04116079  1
  Na  Na3  1  0.32621461  0.89117693  0.45883921  1
  B  B0  1  0.60091455  0.16379920  0.85006371  1
  B  B1  1  0.83620080  0.39908545  0.64993629  1
  B  B2  1  0.39908545  0.83620080  0.14993629  1
  B  B3  1  0.16379920  0.60091455  0.35006371  1
  Se  Se0  1  0.52133026  0.47866974  0.75000000  1
  Se  Se1  1  0.47866974  0.52133026  0.25000000  1
  Se  Se2  1  0.44052116  0.80410845  0.97786977  1
  Se  Se3  1  0.19589155  0.55947884  0.52213023  1
  Se  Se4  1  0.55947884  0.19589155  0.02213023  1
  Se  Se5  1  0.80410845  0.44052116  0.47786977  1
  Se  Se6  1  0.37521455  0.14892042  0.83172188  1
  Se  Se7  1  0.85107958  0.62478545  0.66827812  1
  Se  Se8  1  0.62478545  0.85107958  0.16827812  1
  Se  Se9  1  0.14892042  0.37521455  0.33172188  1
  Se  Se10  1  0.91182276  0.91434649  0.77558439  1
  Se  Se11  1  0.08565351  0.08817724  0.72441561  1
  Se  Se12  1  0.08817724  0.08565351  0.22441561  1
  Se  Se13  1  0.91434649  0.91182276  0.27558439  1
loop_
_geom_bond_atom_site_label_1
_geom_bond_atom_site_label_2
_geom_bond_distance
_geom_bond_site_symmetry_2
Na0 Se6 3.028103 1_655
Na0 Se2 3.158446 1_555
Na0 Se4 3.232402 1_556
Na0 Se7 3.245621 1_555
Na0 Se11 3.309156 1_655
Na0 Se12 3.364929 1_656
Na1 Se7 3.028103 1_545
Na1 Se3 3.158446 1_555
Na1 Se5 3.232402 1_555
Na1 Se6 3.245621 1_555
Na1 Se10 3.309156 1_545
Na1 Se13 3.364929 1_545
Na2 Se8 3.028103 1_455
Na2 Se4 3.158446 1_555
Na2 Se2 3.232402 1_554
Na2 Se9 3.245621 1_555
Na2 Se13 3.309156 1_455
Na2 Se10 3.364929 1_454
Na3 Se9 3.028103 1_565
Na3 Se5 3.158446 1_555
Na3 Se3 3.232402 1_555
Na3 Se8 3.245621 1_555
Na3 Se12 3.309156 1_565
Na3 Se11 3.364929 1_565
B0 Se4 2.034830 1_556
B0 Se6 2.044886 1_555
B0 Se10 2.045883 1_545
B0 Se0 2.062466 1_555
B1 Se5 2.034830 1_555
B1 Se7 2.044886 1_555
B1 Se11 2.045883 1_655
B1 Se0 2.062466 1_555
B2 Se2 2.034830 1_554
B2 Se8 2.044886 1_555
B2 Se12 2.045883 1_565
B2 Se1 2.062466 1_555
B3 Se3 2.034830 1_555
B3 Se9 2.044886 1_555
B3 Se13 2.045883 1_455
B3 Se1 2.062466 1_555
Se2 Se6 2.404642 1_565
Se3 Se7 2.404642 1_455
Se4 Se8 2.404642 1_545
Se5 Se9 2.404642 1_655
