# generated using pymatgen
data_CdI2
_symmetry_space_group_name_H-M   'P 1'
_cell_length_a   4.28688391
_cell_length_b   4.28688335
_cell_length_c   71.51157708
_cell_angle_alpha   90.00000000
_cell_angle_beta   90.00000000
_cell_angle_gamma   120.00000440
_symmetry_Int_Tables_number   1
_chemical_formula_structural   CdI2
_chemical_formula_sum   'Cd10 I20'
_cell_volume   1138.12603302
_cell_formula_units_Z   10
loop_
 _symmetry_equiv_pos_site_id
 _symmetry_equiv_pos_as_xyz
  1  'x, y, z'
loop_
 _atom_site_type_symbol
 _atom_site_label
 _atom_site_symmetry_multiplicity
 _atom_site_fract_x
 _atom_site_fract_y
 _atom_site_fract_z
 _atom_site_occupancy
  Cd  Cd0  1  0.33333300  0.66666700  0.32415420  1
  Cd  Cd1  1  0.00000000  -0.00000000  0.92498812  1
  Cd  Cd2  1  0.00000000  -0.00000000  0.82556810  1
  Cd  Cd3  1  0.00000000  -0.00000000  0.52509374  1
  Cd  Cd4  1  0.33333300  0.66666700  0.02497663  1
  Cd  Cd5  1  0.00000000  0.00000000  0.12433371  1
  Cd  Cd6  1  0.33333300  0.66666700  0.42486880  1
  Cd  Cd7  1  0.33333300  0.66666700  0.72599437  1
  Cd  Cd8  1  0.33333300  0.66666700  0.22434459  1
  Cd  Cd9  1  0.00000000  -0.00000000  0.62557846  1
  I  I0  1  0.00000000  -0.00000000  0.40074515  1
  I  I1  1  0.66666700  0.33333300  0.44901605  1
  I  I2  1  0.33333300  0.66666700  0.80147381  1
  I  I3  1  0.66666700  0.33333300  0.54924997  1
  I  I4  1  0.66666700  0.33333300  0.64972664  1
  I  I5  1  0.00000000  -0.00000000  0.30019191  1
  I  I6  1  0.66666700  0.33333300  0.34813953  1
  I  I7  1  0.00000000  0.00000000  0.20022694  1
  I  I8  1  0.66666700  0.33333300  0.75012283  1
  I  I9  1  0.66666700  0.33333300  0.94905893  1
  I  I10  1  0.66666700  0.33333300  0.04905918  1
  I  I11  1  0.66666700  0.33333300  0.14845600  1
  I  I12  1  0.33333300  0.66666700  0.10023322  1
  I  I13  1  0.66666700  0.33333300  0.84972259  1
  I  I14  1  0.33333300  0.66666700  0.90092650  1
  I  I15  1  0.00000000  0.00000000  0.00092441  1
  I  I16  1  0.00000000  -0.00000000  0.70189252  1
  I  I17  1  0.66666700  0.33333300  0.24847827  1
  I  I18  1  0.33333300  0.66666700  0.60147337  1
  I  I19  1  0.33333300  0.66666700  0.50098245  1
loop_
_geom_bond_atom_site_label_1
_geom_bond_atom_site_label_2
_geom_bond_distance
_geom_bond_site_symmetry_2
Cd0 I5 3.010339 1_565
Cd0 I5 3.010341 1_555
Cd0 I5 3.010342 1_665
Cd0 I6 3.011277 1_565
Cd0 I6 3.011277 1_455
Cd0 I6 3.011283 1_555
Cd1 I14 3.014388 1_545
Cd1 I14 3.014390 1_555
Cd1 I14 3.014391 1_445
Cd1 I9 3.014763 1_455
Cd1 I9 3.014766 1_445
Cd1 I9 3.014766 1_555
Cd2 I2 3.015722 1_545
Cd2 I2 3.015725 1_555
Cd2 I2 3.015725 1_445
Cd2 I13 3.018184 1_455
Cd2 I13 3.018186 1_445
Cd2 I13 3.018187 1_555
Cd3 I19 3.016417 1_545
Cd3 I19 3.016419 1_555
Cd3 I19 3.016420 1_445
Cd3 I3 3.018255 1_455
Cd3 I3 3.018258 1_445
Cd3 I3 3.018258 1_555
Cd4 I15 3.014004 1_565
Cd4 I15 3.014007 1_555
Cd4 I15 3.014007 1_665
Cd4 I10 3.015242 1_565
Cd4 I10 3.015242 1_455
Cd4 I10 3.015248 1_555
Cd5 I12 3.015975 1_545
Cd5 I12 3.015978 1_555
Cd5 I12 3.015978 1_445
Cd5 I11 3.016866 1_455
Cd5 I11 3.016869 1_445
Cd5 I11 3.016869 1_555
Cd6 I0 3.016922 1_565
Cd6 I0 3.016925 1_555
Cd6 I0 3.016925 1_665
Cd6 I1 3.017887 1_565
Cd6 I1 3.017887 1_455
Cd6 I1 3.017893 1_555
Cd7 I16 3.016031 1_565
Cd7 I16 3.016034 1_555
Cd7 I16 3.016034 1_665
Cd7 I8 3.017118 1_565
Cd7 I8 3.017119 1_455
Cd7 I8 3.017125 1_555
Cd8 I7 3.016677 1_565
Cd8 I7 3.016679 1_555
Cd8 I7 3.016680 1_665
Cd8 I17 3.017332 1_565
Cd8 I17 3.017332 1_455
Cd8 I17 3.017338 1_555
Cd9 I18 3.016163 1_545
Cd9 I18 3.016166 1_555
Cd9 I18 3.016166 1_445
Cd9 I4 3.017925 1_455
Cd9 I4 3.017928 1_445
Cd9 I4 3.017928 1_555
