# generated using pymatgen
data_Ca2Zn2CuP3
_symmetry_space_group_name_H-M   'P 1'
_cell_length_a   4.04433984
_cell_length_b   4.04433984
_cell_length_c   21.53438300
_cell_angle_alpha   90.00000000
_cell_angle_beta   90.00000000
_cell_angle_gamma   119.99999743
_symmetry_Int_Tables_number   1
_chemical_formula_structural   Ca2Zn2CuP3
_chemical_formula_sum   'Ca4 Zn4 Cu2 P6'
_cell_volume   305.04110091
_cell_formula_units_Z   2
loop_
 _symmetry_equiv_pos_site_id
 _symmetry_equiv_pos_as_xyz
  1  'x, y, z'
loop_
 _atom_site_type_symbol
 _atom_site_label
 _atom_site_symmetry_multiplicity
 _atom_site_fract_x
 _atom_site_fract_y
 _atom_site_fract_z
 _atom_site_occupancy
  Ca  Ca0  1  0.00000000  0.00000000  0.65864700  1
  Ca  Ca1  1  0.00000000  0.00000000  0.34135300  1
  Ca  Ca2  1  0.00000000  0.00000000  0.15864700  1
  Ca  Ca3  1  0.00000000  0.00000000  0.84135300  1
  Zn  Zn0  1  0.33333300  0.66666700  0.95772100  1
  Zn  Zn1  1  0.66666700  0.33333300  0.45772100  1
  Zn  Zn2  1  0.66666700  0.33333300  0.04227900  1
  Zn  Zn3  1  0.33333300  0.66666700  0.54227900  1
  Cu  Cu0  1  0.66666700  0.33333300  0.75000000  1
  Cu  Cu1  1  0.33333300  0.66666700  0.25000000  1
  P  P0  1  0.66666700  0.33333300  0.57556400  1
  P  P1  1  0.33333300  0.66666700  0.42443600  1
  P  P2  1  0.33333300  0.66666700  0.75000000  1
  P  P3  1  0.66666700  0.33333300  0.92443600  1
  P  P4  1  0.33333300  0.66666700  0.07556400  1
  P  P5  1  0.66666700  0.33333300  0.25000000  1
loop_
_geom_bond_atom_site_label_1
_geom_bond_atom_site_label_2
_geom_bond_distance
_geom_bond_site_symmetry_2
Ca0 P0 2.941640 1_455
Ca0 P0 2.941642 1_445
Ca0 P0 2.941642 1_555
Ca0 Cu0 3.053230 1_455
Ca0 P2 3.053230 1_545
Ca0 Cu0 3.053233 1_555
Ca0 Cu0 3.053233 1_445
Ca0 P2 3.053233 1_445
Ca0 P2 3.053233 1_555
Ca1 P1 2.941640 1_545
Ca1 P1 2.941642 1_445
Ca1 P1 2.941642 1_555
Ca1 P5 3.053230 1_455
Ca1 Cu1 3.053230 1_545
Ca1 P5 3.053233 1_445
Ca1 P5 3.053233 1_555
Ca1 Cu1 3.053233 1_445
Ca1 Cu1 3.053233 1_555
Ca2 P4 2.941640 1_545
Ca2 P4 2.941642 1_555
Ca2 P4 2.941642 1_445
Ca2 Cu1 3.053230 1_545
Ca2 P5 3.053230 1_455
Ca2 P5 3.053233 1_445
Ca2 P5 3.053233 1_555
Ca2 Cu1 3.053233 1_445
Ca2 Cu1 3.053233 1_555
Ca3 P3 2.941640 1_455
Ca3 P3 2.941642 1_555
Ca3 P3 2.941642 1_445
Ca3 Cu0 3.053230 1_455
Ca3 P2 3.053230 1_545
Ca3 Cu0 3.053233 1_445
Ca3 Cu0 3.053233 1_555
Ca3 P2 3.053233 1_445
Ca3 P2 3.053233 1_555
Cu0 P2 2.334998 1_545
Cu0 P2 2.334998 1_655
Cu0 P2 2.335005 1_555
Cu1 P5 2.334998 1_455
Cu1 P5 2.334998 1_565
Cu1 P5 2.335005 1_555
P0 Zn3 2.442535 1_545
P0 Zn3 2.442535 1_655
P0 Zn3 2.442542 1_555
P0 Zn1 2.537676 1_555
P1 Zn1 2.442535 1_455
P1 Zn1 2.442535 1_565
P1 Zn1 2.442542 1_555
P1 Zn3 2.537676 1_555
P3 Zn0 2.442535 1_545
P3 Zn0 2.442535 1_655
P3 Zn0 2.442542 1_555
P3 Zn2 2.537676 1_556
P4 Zn2 2.442535 1_455
P4 Zn2 2.442535 1_565
P4 Zn2 2.442542 1_555
P4 Zn0 2.537676 1_554
