# generated using pymatgen
data_Li2MnSiO4
_symmetry_space_group_name_H-M   'P 1'
_cell_length_a   5.04872200
_cell_length_b   5.44145500
_cell_length_c   12.75411500
_cell_angle_alpha   89.99784783
_cell_angle_beta   90.00022131
_cell_angle_gamma   90.00045862
_symmetry_Int_Tables_number   1
_chemical_formula_structural   Li2MnSiO4
_chemical_formula_sum   'Li8 Mn4 Si4 O16'
_cell_volume   350.38606679
_cell_formula_units_Z   4
loop_
 _symmetry_equiv_pos_site_id
 _symmetry_equiv_pos_as_xyz
  1  'x, y, z'
loop_
 _atom_site_type_symbol
 _atom_site_label
 _atom_site_symmetry_multiplicity
 _atom_site_fract_x
 _atom_site_fract_y
 _atom_site_fract_z
 _atom_site_occupancy
  Li  Li0  1  0.55672500  0.33107300  0.37453700  1
  Li  Li1  1  0.55672100  0.33107500  0.87453600  1
  Li  Li2  1  0.55672700  0.33107300  0.12546800  1
  Li  Li3  1  0.55672800  0.33107300  0.62546300  1
  Li  Li4  1  0.05672400  0.66895000  0.12453900  1
  Li  Li5  1  0.05672300  0.66894500  0.62453300  1
  Li  Li6  1  0.05672600  0.66894700  0.37546500  1
  Li  Li7  1  0.05672300  0.66894200  0.87546700  1
  Mn  Mn0  1  0.55933200  0.83369100  0.99997600  1
  Mn  Mn1  1  0.05957000  0.16599700  0.74999500  1
  Mn  Mn2  1  0.55928400  0.83402000  0.50002300  1
  Mn  Mn3  1  0.05935100  0.16600700  0.24997900  1
  Si  Si0  1  0.04991000  0.17944100  0.00000200  1
  Si  Si1  1  0.04991500  0.17942800  0.49999800  1
  Si  Si2  1  0.54991400  0.82059700  0.25000500  1
  Si  Si3  1  0.54991100  0.82058000  0.74999900  1
  O  O0  1  0.72261400  0.18782000  0.50000500  1
  O  O1  1  0.72261300  0.18789400  0.00001600  1
  O  O2  1  0.22261300  0.81220400  0.24999800  1
  O  O3  1  0.22261800  0.81211400  0.74998700  1
  O  O4  1  0.14428600  0.88654400  0.49999600  1
  O  O5  1  0.14421800  0.88653900  0.00000800  1
  O  O6  1  0.64428900  0.11348100  0.25000700  1
  O  O7  1  0.64422300  0.11348200  0.74999300  1
  O  O8  1  0.16270200  0.32056700  0.39407500  1
  O  O9  1  0.16271600  0.32058600  0.89408900  1
  O  O10  1  0.66272500  0.67942400  0.14409200  1
  O  O11  1  0.66270600  0.67946900  0.64407900  1
  O  O12  1  0.66270200  0.67945700  0.35593000  1
  O  O13  1  0.66271600  0.67943200  0.85591100  1
  O  O14  1  0.16271000  0.32055500  0.10592300  1
  O  O15  1  0.16272700  0.32059600  0.60590900  1
loop_
_geom_bond_atom_site_label_1
_geom_bond_atom_site_label_2
_geom_bond_distance
_geom_bond_site_symmetry_2
Li0 O0 1.967164 1_555
Li0 O12 1.984007 1_555
Li0 O8 2.005674 1_555
Li0 O6 2.029801 1_555
Li1 O1 1.967139 1_556
Li1 O13 1.983919 1_555
Li1 O9 2.005605 1_555
Li1 O7 2.029866 1_555
Li2 O1 1.966885 1_555
Li2 O10 1.983907 1_555
Li2 O14 2.005656 1_555
Li2 O6 2.029817 1_555
Li3 O0 1.967106 1_555
Li3 O11 1.984101 1_555
Li3 O15 2.005584 1_555
Li3 O7 2.029650 1_555
Li4 O2 1.967115 1_555
Li4 O14 1.984116 1_555
Li4 O10 2.005574 1_455
Li4 O5 2.029651 1_555
Li5 O3 1.966893 1_555
Li5 O15 1.983913 1_555
Li5 O11 2.005661 1_455
Li5 O4 2.029819 1_555
Li6 O2 1.967158 1_555
Li6 O8 1.983997 1_555
Li6 O12 2.005674 1_455
Li6 O4 2.029816 1_555
Li7 O3 1.967126 1_555
Li7 O9 1.983914 1_555
Li7 O13 2.005619 1_455
Li7 O5 2.029844 1_556
Mn0 O13 2.086449 1_555
Mn0 O10 2.086991 1_556
Mn0 O1 2.096267 1_566
Mn0 O5 2.115435 1_556
Mn1 O15 2.087084 1_555
Mn1 O9 2.087191 1_555
Mn1 O3 2.094216 1_545
Mn1 O7 2.116350 1_455
Mn2 O11 2.086976 1_555
Mn2 O12 2.087472 1_555
Mn2 O0 2.094349 1_565
Mn2 O4 2.114615 1_555
Mn3 O14 2.086890 1_555
Mn3 O8 2.087408 1_555
Mn3 O2 2.094241 1_545
Mn3 O6 2.114933 1_455
O0 Si1 1.653083 1_655
O1 Si0 1.653072 1_655
O2 Si2 1.653082 1_555
O3 Si3 1.653053 1_555
O4 Si1 1.663414 1_565
O5 Si0 1.663417 1_565
O6 Si2 1.663413 1_545
O7 Si3 1.663416 1_545
O8 Si1 1.655015 1_555
O9 Si0 1.654959 1_556
O10 Si2 1.655090 1_555
O11 Si3 1.654978 1_555
O12 Si2 1.655041 1_555
O13 Si3 1.654955 1_555
O14 Si0 1.654997 1_555
O15 Si1 1.655050 1_555
