# generated using pymatgen
data_ZnS
_symmetry_space_group_name_H-M   'P 1'
_cell_length_a   3.80810664
_cell_length_b   3.80810744
_cell_length_c   56.03647352
_cell_angle_alpha   90.00000000
_cell_angle_beta   90.00000000
_cell_angle_gamma   119.99999308
_symmetry_Int_Tables_number   1
_chemical_formula_structural   ZnS
_chemical_formula_sum   'Zn18 S18'
_cell_volume   703.75217893
_cell_formula_units_Z   18
loop_
 _symmetry_equiv_pos_site_id
 _symmetry_equiv_pos_as_xyz
  1  'x, y, z'
loop_
 _atom_site_type_symbol
 _atom_site_label
 _atom_site_symmetry_multiplicity
 _atom_site_fract_x
 _atom_site_fract_y
 _atom_site_fract_z
 _atom_site_occupancy
  Zn  Zn0  1  -0.00000000  0.00000000  0.16658497  1
  Zn  Zn1  1  -0.00000000  -0.00000000  0.44447244  1
  Zn  Zn2  1  0.66666700  0.33333300  0.33332608  1
  Zn  Zn3  1  -0.00000000  -0.00000000  0.55557938  1
  Zn  Zn4  1  -0.00000000  -0.00000000  0.72222335  1
  Zn  Zn5  1  0.33333300  0.66666700  0.05556928  1
  Zn  Zn6  1  0.33333300  0.66666700  0.61113636  1
  Zn  Zn7  1  0.66666700  0.33333300  0.11106241  1
  Zn  Zn8  1  0.00000000  0.00000000  0.00007346  1
  Zn  Zn9  1  0.33333300  0.66666700  0.22223039  1
  Zn  Zn10  1  0.00000000  0.00000000  0.27787849  1
  Zn  Zn11  1  0.66666700  0.33333300  0.77784279  1
  Zn  Zn12  1  0.66666700  0.33333300  0.94446201  1
  Zn  Zn13  1  0.33333300  0.66666700  0.38889098  1
  Zn  Zn14  1  0.33333300  0.66666700  0.83339748  1
  Zn  Zn15  1  0.66666700  0.33333300  0.66670240  1
  Zn  Zn16  1  0.66666700  0.33333300  0.49997306  1
  Zn  Zn17  1  0.00000000  0.00000000  0.88886579  1
  S  S0  1  0.00000000  0.00000000  0.93047568  1
  S  S1  1  -0.00000000  0.00000000  0.04168741  1
  S  S2  1  0.66666700  0.33333300  0.70829134  1
  S  S3  1  0.00000000  0.00000000  0.59720200  1
  S  S4  1  0.33333300  0.66666700  0.43054540  1
  S  S5  1  0.00000000  0.00000000  0.31947925  1
  S  S6  1  0.66666700  0.33333300  0.15269156  1
  S  S7  1  0.66666700  0.33333300  0.37497406  1
  S  S8  1  0.33333300  0.66666700  0.09718772  1
  S  S9  1  0.66666700  0.33333300  0.98615467  1
  S  S10  1  0.66666700  0.33333300  0.81946625  1
  S  S11  1  0.00000000  0.00000000  0.76391050  1
  S  S12  1  0.33333300  0.66666700  0.65277541  1
  S  S13  1  -0.00000000  0.00000000  0.48606352  1
  S  S14  1  0.66666700  0.33333300  0.54166644  1
  S  S15  1  0.33333300  0.66666700  0.26394779  1
  S  S16  1  0.00000000  0.00000000  0.20823446  1
  S  S17  1  0.33333300  0.66666700  0.87500542  1
loop_
_geom_bond_atom_site_label_1
_geom_bond_atom_site_label_2
_geom_bond_distance
_geom_bond_site_symmetry_2
S0 Zn17 2.331671 1_555
S0 Zn12 2.334125 1_455
S0 Zn12 2.334128 1_555
S0 Zn12 2.334128 1_445
S1 Zn8 2.331899 1_555
S1 Zn5 2.332166 1_545
S1 Zn5 2.332169 1_445
S1 Zn5 2.332169 1_555
S2 Zn15 2.330498 1_555
S2 Zn4 2.333105 1_655
S2 Zn4 2.333108 1_555
S2 Zn4 2.333108 1_665
S3 Zn3 2.332385 1_555
S3 Zn6 2.333149 1_545
S3 Zn6 2.333152 1_445
S3 Zn6 2.333152 1_555
S4 Zn1 2.333011 1_565
S4 Zn1 2.333014 1_665
S4 Zn1 2.333015 1_555
S4 Zn13 2.334167 1_555
S5 Zn10 2.331160 1_555
S5 Zn2 2.331512 1_455
S5 Zn2 2.331515 1_555
S5 Zn2 2.331515 1_445
S6 Zn0 2.332382 1_655
S6 Zn0 2.332385 1_555
S6 Zn0 2.332385 1_665
S6 Zn7 2.332751 1_555
S7 Zn13 2.332822 1_655
S7 Zn13 2.332822 1_545
S7 Zn13 2.332828 1_555
S7 Zn2 2.333806 1_555
S8 Zn7 2.332032 1_455
S8 Zn7 2.332032 1_565
S8 Zn7 2.332038 1_555
S8 Zn5 2.332151 1_555
S9 Zn8 2.332857 1_656
S9 Zn8 2.332860 1_556
S9 Zn8 2.332860 1_666
S9 Zn12 2.336310 1_555
S10 Zn11 2.332432 1_555
S10 Zn14 2.333090 1_655
S10 Zn14 2.333090 1_545
S10 Zn14 2.333096 1_555
S11 Zn11 2.333110 1_455
S11 Zn11 2.333113 1_555
S11 Zn11 2.333113 1_445
S11 Zn4 2.336001 1_555
S12 Zn15 2.333010 1_455
S12 Zn15 2.333011 1_565
S12 Zn15 2.333017 1_555
S12 Zn6 2.333306 1_555
S13 Zn1 2.330617 1_555
S13 Zn16 2.332683 1_455
S13 Zn16 2.332687 1_555
S13 Zn16 2.332687 1_445
S14 Zn3 2.332747 1_655
S14 Zn3 2.332750 1_555
S14 Zn3 2.332751 1_665
S14 Zn16 2.336350 1_555
S15 Zn10 2.333080 1_565
S15 Zn10 2.333083 1_665
S15 Zn10 2.333083 1_555
S15 Zn9 2.337696 1_555
S16 Zn0 2.333891 1_555
S16 Zn9 2.334306 1_545
S16 Zn9 2.334309 1_445
S16 Zn9 2.334309 1_555
S17 Zn14 2.331562 1_555
S17 Zn17 2.331764 1_565
S17 Zn17 2.331767 1_665
S17 Zn17 2.331768 1_555
