# generated using pymatgen
data_Cd4P2I3
_symmetry_space_group_name_H-M   'P 1'
_cell_length_a   12.82355600
_cell_length_b   12.92772200
_cell_length_c   13.21954800
_cell_angle_alpha   90.00000000
_cell_angle_beta   90.00000000
_cell_angle_gamma   90.00000000
_symmetry_Int_Tables_number   1
_chemical_formula_structural   Cd4P2I3
_chemical_formula_sum   'Cd32 P16 I24'
_cell_volume   2191.52829972
_cell_formula_units_Z   8
loop_
 _symmetry_equiv_pos_site_id
 _symmetry_equiv_pos_as_xyz
  1  'x, y, z'
loop_
 _atom_site_type_symbol
 _atom_site_label
 _atom_site_symmetry_multiplicity
 _atom_site_fract_x
 _atom_site_fract_y
 _atom_site_fract_z
 _atom_site_occupancy
  Cd  Cd0  1  0.79747500  0.42374000  0.90891600  1
  Cd  Cd1  1  0.79747500  0.92374000  0.59108400  1
  Cd  Cd2  1  0.58706400  0.20842600  0.93919300  1
  Cd  Cd3  1  0.59461100  0.56881200  0.01733400  1
  Cd  Cd4  1  0.09461100  0.93118800  0.01733400  1
  Cd  Cd5  1  0.91293600  0.70842600  0.06080700  1
  Cd  Cd6  1  0.95752200  0.42906100  0.21398600  1
  Cd  Cd7  1  0.95752200  0.92906100  0.28601400  1
  Cd  Cd8  1  0.45752200  0.07093900  0.21398600  1
  Cd  Cd9  1  0.04247800  0.57093900  0.78601400  1
  Cd  Cd10  1  0.08706400  0.29157400  0.93919300  1
  Cd  Cd11  1  0.04247800  0.07093900  0.71398600  1
  Cd  Cd12  1  0.70252500  0.92374000  0.09108400  1
  Cd  Cd13  1  0.54247800  0.42906100  0.71398600  1
  Cd  Cd14  1  0.59461100  0.06881200  0.48266600  1
  Cd  Cd15  1  0.45752200  0.57093900  0.28601400  1
  Cd  Cd16  1  0.40538900  0.43118800  0.98266600  1
  Cd  Cd17  1  0.91293600  0.20842600  0.43919300  1
  Cd  Cd18  1  0.58706400  0.70842600  0.56080700  1
  Cd  Cd19  1  0.90538900  0.56881200  0.51733400  1
  Cd  Cd20  1  0.20252500  0.57626000  0.09108400  1
  Cd  Cd21  1  0.09461100  0.43118800  0.48266600  1
  Cd  Cd22  1  0.41293600  0.79157400  0.06080700  1
  Cd  Cd23  1  0.70252500  0.42374000  0.40891600  1
  Cd  Cd24  1  0.40538900  0.93118800  0.51733400  1
  Cd  Cd25  1  0.41293600  0.29157400  0.43919300  1
  Cd  Cd26  1  0.54247800  0.92906100  0.78601400  1
  Cd  Cd27  1  0.90538900  0.06881200  0.98266600  1
  Cd  Cd28  1  0.29747500  0.07626000  0.90891600  1
  Cd  Cd29  1  0.20252500  0.07626000  0.40891600  1
  Cd  Cd30  1  0.08706400  0.79157400  0.56080700  1
  Cd  Cd31  1  0.29747500  0.57626000  0.59108400  1
  P  P0  1  0.55221600  0.54766500  0.45344800  1
  P  P1  1  0.09585700  0.09787500  0.89681500  1
  P  P2  1  0.55221600  0.04766500  0.04655200  1
  P  P3  1  0.90414300  0.40212500  0.39681500  1
  P  P4  1  0.44778400  0.45233500  0.54655200  1
  P  P5  1  0.59585700  0.40212500  0.89681500  1
  P  P6  1  0.09585700  0.59787500  0.60318500  1
  P  P7  1  0.59585700  0.90212500  0.60318500  1
  P  P8  1  0.94778400  0.04766500  0.54655200  1
  P  P9  1  0.40414300  0.59787500  0.10318500  1
  P  P10  1  0.44778400  0.95233500  0.95344800  1
  P  P11  1  0.40414300  0.09787500  0.39681500  1
  P  P12  1  0.94778400  0.54766500  0.95344800  1
  P  P13  1  0.05221600  0.95233500  0.45344800  1
  P  P14  1  0.05221600  0.45233500  0.04655200  1
  P  P15  1  0.90414300  0.90212500  0.10318500  1
  I  I0  1  0.68239300  0.25287600  0.57344700  1
  I  I1  1  0.24797700  0.43042200  0.32117100  1
  I  I2  1  0.18239300  0.24712400  0.57344700  1
  I  I3  1  0.25202300  0.93042200  0.67882900  1
  I  I4  1  0.81760700  0.75287600  0.42655300  1
  I  I5  1  0.06174200  0.17508500  0.25685800  1
  I  I6  1  0.31760700  0.24712400  0.07344700  1
  I  I7  1  0.74797700  0.06957800  0.32117100  1
  I  I8  1  0.06174200  0.67508500  0.24314200  1
  I  I9  1  0.56174200  0.32491500  0.25685800  1
  I  I10  1  0.18239300  0.74712400  0.92655300  1
  I  I11  1  0.93825800  0.82491500  0.74314200  1
  I  I12  1  0.31760700  0.74712400  0.42655300  1
  I  I13  1  0.93825800  0.32491500  0.75685800  1
  I  I14  1  0.25202300  0.43042200  0.82117100  1
  I  I15  1  0.75202300  0.06957800  0.82117100  1
  I  I16  1  0.43825800  0.17508500  0.75685800  1
  I  I17  1  0.81760700  0.25287600  0.07344700  1
  I  I18  1  0.75202300  0.56957800  0.67882900  1
  I  I19  1  0.43825800  0.67508500  0.74314200  1
  I  I20  1  0.24797700  0.93042200  0.17882900  1
  I  I21  1  0.68239300  0.75287600  0.92655300  1
  I  I22  1  0.56174200  0.82491500  0.24314200  1
  I  I23  1  0.74797700  0.56957800  0.17882900  1
loop_
_geom_bond_atom_site_label_1
_geom_bond_atom_site_label_2
_geom_bond_distance
_geom_bond_site_symmetry_2
Cd0 P12 2.574572 1_555
Cd0 P5 2.605432 1_555
Cd0 I13 2.988665 1_555
Cd0 I17 3.110715 1_556
Cd1 P8 2.574572 1_565
Cd1 P7 2.605432 1_555
Cd1 I11 2.988665 1_555
Cd1 I4 3.110715 1_555
Cd2 P2 2.556003 1_556
Cd2 P5 2.568464 1_555
Cd2 I16 3.104361 1_555
Cd2 I15 3.182916 1_555
Cd2 I17 3.495745 1_556
Cd3 P5 2.679941 1_554
Cd3 P9 2.719353 1_555
Cd3 I21 2.893010 1_554
Cd3 I23 2.902715 1_555
Cd4 P1 2.679941 1_564
Cd4 P15 2.719353 1_455
Cd4 I10 2.893010 1_554
Cd4 I20 2.902715 1_555
Cd5 P12 2.556003 1_554
Cd5 P15 2.568464 1_555
Cd5 I8 3.104361 1_655
Cd5 I23 3.182916 1_555
Cd5 I21 3.495745 1_554
Cd6 P3 2.536000 1_555
Cd6 P14 2.542486 1_655
Cd6 I23 3.276657 1_555
Cd6 I17 3.443634 1_555
Cd6 I8 3.471380 1_655
Cd6 I5 3.589933 1_655
Cd7 P15 2.536000 1_555
Cd7 P13 2.542486 1_655
Cd7 I7 3.276657 1_565
Cd7 I4 3.443634 1_555
Cd7 I5 3.471380 1_665
Cd7 I8 3.589933 1_655
Cd8 P11 2.536000 1_555
Cd8 P2 2.542486 1_555
Cd8 I20 3.276657 1_545
Cd8 I6 3.443634 1_555
Cd8 I22 3.471380 1_545
Cd8 I9 3.589933 1_555
Cd9 P6 2.536000 1_555
Cd9 P12 2.542486 1_455
Cd9 I14 3.276657 1_555
Cd9 I10 3.443634 1_555
Cd9 I13 3.471380 1_455
Cd9 I11 3.589933 1_455
Cd10 P14 2.556003 1_556
Cd10 P1 2.568464 1_555
Cd10 I13 3.104361 1_455
Cd10 I14 3.182916 1_555
Cd10 I6 3.495745 1_556
Cd11 P1 2.536000 1_555
Cd11 P8 2.542486 1_455
Cd11 I3 3.276657 1_545
Cd11 I2 3.443634 1_555
Cd11 I11 3.471380 1_445
Cd11 I13 3.589933 1_455
Cd12 P2 2.574572 1_565
Cd12 P15 2.605432 1_555
Cd12 I22 2.988665 1_555
Cd12 I21 3.110715 1_554
Cd13 P5 2.536000 1_555
Cd13 P4 2.542486 1_555
Cd13 I18 3.276657 1_555
Cd13 I0 3.443634 1_555
Cd13 I19 3.471380 1_555
Cd13 I16 3.589933 1_555
Cd14 P7 2.679941 1_545
Cd14 P11 2.719353 1_555
Cd14 I0 2.893010 1_555
Cd14 I7 2.902715 1_555
Cd15 P9 2.536000 1_555
Cd15 P0 2.542486 1_555
Cd15 I1 3.276657 1_555
Cd15 I12 3.443634 1_555
Cd15 I9 3.471380 1_555
Cd15 I22 3.589933 1_555
Cd16 P9 2.679941 1_556
Cd16 P5 2.719353 1_555
Cd16 I6 2.893010 1_556
Cd16 I14 2.902715 1_555
Cd17 P8 2.556003 1_555
Cd17 P3 2.568464 1_555
Cd17 I5 3.104361 1_655
Cd17 I7 3.182916 1_555
Cd17 I0 3.495745 1_555
Cd18 P0 2.556003 1_555
Cd18 P7 2.568464 1_555
Cd18 I19 3.104361 1_555
Cd18 I18 3.182916 1_555
Cd18 I4 3.495745 1_555
Cd19 P3 2.679941 1_555
Cd19 P6 2.719353 1_655
Cd19 I4 2.893010 1_555
Cd19 I18 2.902715 1_555
Cd20 P14 2.574572 1_555
Cd20 P9 2.605432 1_555
Cd20 I8 2.988665 1_555
Cd20 I10 3.110715 1_554
Cd21 P6 2.679941 1_555
Cd21 P3 2.719353 1_455
Cd21 I2 2.893010 1_555
Cd21 I1 2.902715 1_555
Cd22 P10 2.556003 1_554
Cd22 P9 2.568464 1_555
Cd22 I22 3.104361 1_555
Cd22 I20 3.182916 1_555
Cd22 I10 3.495745 1_554
Cd23 P0 2.574572 1_555
Cd23 P3 2.605432 1_555
Cd23 I9 2.988665 1_555
Cd23 I0 3.110715 1_555
Cd24 P11 2.679941 1_565
Cd24 P7 2.719353 1_555
Cd24 I12 2.893010 1_555
Cd24 I3 2.902715 1_555
Cd25 P4 2.556003 1_555
Cd25 P11 2.568464 1_555
Cd25 I9 3.104361 1_555
Cd25 I1 3.182916 1_555
Cd25 I2 3.495745 1_555
Cd26 P7 2.536000 1_555
Cd26 P10 2.542486 1_555
Cd26 I15 3.276657 1_565
Cd26 I21 3.443634 1_555
Cd26 I16 3.471380 1_565
Cd26 I19 3.589933 1_555
Cd27 P15 2.679941 1_546
Cd27 P1 2.719353 1_655
Cd27 I17 2.893010 1_556
Cd27 I15 2.902715 1_555
Cd28 P10 2.574572 1_545
Cd28 P1 2.605432 1_555
Cd28 I16 2.988665 1_555
Cd28 I6 3.110715 1_556
Cd29 P13 2.574572 1_545
Cd29 P11 2.605432 1_555
Cd29 I5 2.988665 1_555
Cd29 I2 3.110715 1_555
Cd30 P13 2.556003 1_555
Cd30 P6 2.568464 1_555
Cd30 I11 3.104361 1_455
Cd30 I3 3.182916 1_555
Cd30 I12 3.495745 1_555
Cd31 P4 2.574572 1_555
Cd31 P6 2.605432 1_555
Cd31 I19 2.988665 1_555
Cd31 I12 3.110715 1_555
P0 P4 2.197064 1_555
P10 P2 2.197064 1_566
P12 P14 2.197064 1_656
P13 P8 2.197064 1_465
