# generated using pymatgen
data_Ba5Ga5Sn
_symmetry_space_group_name_H-M   'P 1'
_cell_length_a   6.01221173
_cell_length_b   6.01221040
_cell_length_c   11.04894336
_cell_angle_alpha   90.00000000
_cell_angle_beta   90.00000000
_cell_angle_gamma   120.00000165
_symmetry_Int_Tables_number   1
_chemical_formula_structural   Ba5Ga5Sn
_chemical_formula_sum   'Ba5 Ga5 Sn1'
_cell_volume   345.87550721
_cell_formula_units_Z   1
loop_
 _symmetry_equiv_pos_site_id
 _symmetry_equiv_pos_as_xyz
  1  'x, y, z'
loop_
 _atom_site_type_symbol
 _atom_site_label
 _atom_site_symmetry_multiplicity
 _atom_site_fract_x
 _atom_site_fract_y
 _atom_site_fract_z
 _atom_site_occupancy
  Ba  Ba0  1  -0.00000000  -0.00000000  0.66933994  1
  Ba  Ba1  1  0.66666700  0.33333300  0.79661621  1
  Ba  Ba2  1  0.66666700  0.33333300  0.20338379  1
  Ba  Ba3  1  0.33333300  0.66666700  -0.00000000  1
  Ba  Ba4  1  -0.00000000  -0.00000000  0.33066006  1
  Ga  Ga0  1  0.51398485  0.48601515  0.50000000  1
  Ga  Ga1  1  0.97202930  0.48601515  0.50000000  1
  Ga  Ga2  1  0.51398485  0.02797070  0.50000000  1
  Ga  Ga3  1  0.33333300  0.66666700  0.67123387  1
  Ga  Ga4  1  0.33333300  0.66666700  0.32876613  1
  Sn  Sn0  1  -0.00000000  -0.00000000  -0.00000000  1
loop_
_geom_bond_atom_site_label_1
_geom_bond_atom_site_label_2
_geom_bond_distance
_geom_bond_site_symmetry_2
Ba0 Ga3 3.471211 1_545
Ba0 Ga3 3.471216 1_555
Ba0 Ga3 3.471217 1_445
Ba0 Ga1 3.543812 1_445
Ba0 Ga2 3.543813 1_555
Ba0 Ga0 3.543815 1_445
Ba0 Ga0 3.543815 1_555
Ba0 Ga1 3.543817 1_455
Ba0 Ga2 3.543818 1_455
Ba0 Sn0 3.653444 1_556
Ba1 Ga2 3.642605 1_555
Ba1 Ga1 3.642605 1_555
Ba1 Ga0 3.642610 1_555
Ba1 Ga3 3.737384 1_545
Ba1 Ga3 3.737385 1_655
Ba1 Ga3 3.737394 1_555
Ba1 Sn0 4.135054 1_656
Ba1 Sn0 4.135058 1_666
Ba1 Sn0 4.135058 1_556
Ba2 Ga2 3.642605 1_555
Ba2 Ga1 3.642605 1_555
Ba2 Ga0 3.642610 1_555
Ba2 Ga4 3.737384 1_545
Ba2 Ga4 3.737385 1_655
Ba2 Ga4 3.737394 1_555
Ba2 Sn0 4.135054 1_655
Ba2 Sn0 4.135058 1_665
Ba2 Sn0 4.135058 1_555
Ba3 Sn0 3.471148 1_565
Ba3 Sn0 3.471153 1_555
Ba3 Sn0 3.471154 1_665
Ba3 Ga4 3.632518 1_555
Ba3 Ga3 3.632518 1_554
Ba4 Ga4 3.471211 1_545
Ba4 Ga4 3.471216 1_555
Ba4 Ga4 3.471217 1_445
Ba4 Ga1 3.543812 1_445
Ba4 Ga2 3.543813 1_555
Ba4 Ga0 3.543815 1_445
Ba4 Ga0 3.543815 1_555
Ba4 Ga1 3.543817 1_455
Ba4 Ga2 3.543818 1_455
Ba4 Sn0 3.653444 1_555
Ga0 Ga4 2.668040 1_555
Ga0 Ga3 2.668040 1_555
Ga0 Ga2 2.753860 1_555
Ga0 Ga1 2.753860 1_555
Ga1 Ga3 2.668040 1_655
Ga1 Ga4 2.668040 1_655
Ga1 Ga2 2.753860 1_555
Ga2 Ga3 2.668040 1_545
Ga2 Ga4 2.668040 1_545
