# generated using pymatgen
data_K2P2WO9
_symmetry_space_group_name_H-M   'P 1'
_cell_length_a   8.17484708
_cell_length_b   8.17484708
_cell_length_c   15.75990841
_cell_angle_alpha   82.36293365
_cell_angle_beta   82.36293365
_cell_angle_gamma   60.50531888
_symmetry_Int_Tables_number   1
_chemical_formula_structural   K2P2WO9
_chemical_formula_sum   'K8 P8 W4 O36'
_cell_volume   905.79703626
_cell_formula_units_Z   4
loop_
 _symmetry_equiv_pos_site_id
 _symmetry_equiv_pos_as_xyz
  1  'x, y, z'
loop_
 _atom_site_type_symbol
 _atom_site_label
 _atom_site_symmetry_multiplicity
 _atom_site_fract_x
 _atom_site_fract_y
 _atom_site_fract_z
 _atom_site_occupancy
  K  K0  1  0.27529700  0.42620300  0.47351000  1
  K  K1  1  0.42620300  0.27529700  0.97351000  1
  K  K2  1  0.79795600  0.49394800  0.26184100  1
  K  K3  1  0.50605200  0.20204400  0.23815900  1
  K  K4  1  0.20204400  0.50605200  0.73815900  1
  K  K5  1  0.72470300  0.57379700  0.52649000  1
  K  K6  1  0.49394800  0.79795600  0.76184100  1
  K  K7  1  0.57379700  0.72470300  0.02649000  1
  P  P0  1  0.95391000  0.79119300  0.34497600  1
  P  P1  1  0.84237800  0.23168100  0.07761400  1
  P  P2  1  0.76831900  0.15762200  0.42238600  1
  P  P3  1  0.20880700  0.04609000  0.15502400  1
  P  P4  1  0.04609000  0.20880700  0.65502400  1
  P  P5  1  0.79119300  0.95391000  0.84497600  1
  P  P6  1  0.15762200  0.76831900  0.92238600  1
  P  P7  1  0.23168100  0.84237800  0.57761400  1
  W  W0  1  0.25457700  0.96988600  0.36437500  1
  W  W1  1  0.96988600  0.25457700  0.86437500  1
  W  W2  1  0.74542300  0.03011400  0.63562500  1
  W  W3  1  0.03011400  0.74542300  0.13562500  1
  O  O0  1  0.67930900  0.37177200  0.13095100  1
  O  O1  1  0.47480700  0.81159400  0.31506000  1
  O  O2  1  0.13780500  0.96611600  0.91550300  1
  O  O3  1  0.52519300  0.18840600  0.68494000  1
  O  O4  1  0.09870500  0.14209300  0.75063400  1
  O  O5  1  0.83011200  0.31286400  0.98174600  1
  O  O6  1  0.94366900  0.61659900  0.37963800  1
  O  O7  1  0.03611500  0.21413400  0.10347300  1
  O  O8  1  0.78586600  0.96388500  0.39652700  1
  O  O9  1  0.62822800  0.32069100  0.36904900  1
  O  O10  1  0.85952400  0.21490100  0.64354300  1
  O  O11  1  0.21413400  0.03611500  0.60347300  1
  O  O12  1  0.85790700  0.90129500  0.74936600  1
  O  O13  1  0.14047600  0.78509900  0.35645700  1
  O  O14  1  0.31286400  0.83011200  0.48174600  1
  O  O15  1  0.68713600  0.16988800  0.51825400  1
  O  O16  1  0.38340100  0.05633100  0.12036200  1
  O  O17  1  0.18840600  0.52519300  0.18494000  1
  O  O18  1  0.86219500  0.03388400  0.08449700  1
  O  O19  1  0.15284500  0.29704000  0.88597600  1
  O  O20  1  0.29704000  0.15284500  0.38597600  1
  O  O21  1  0.96388500  0.78586600  0.89652700  1
  O  O22  1  0.37177200  0.67930900  0.63095100  1
  O  O23  1  0.84715500  0.70296000  0.11402400  1
  O  O24  1  0.70296000  0.84715500  0.61402400  1
  O  O25  1  0.16988800  0.68713600  0.01825400  1
  O  O26  1  0.78509900  0.14047600  0.85645700  1
  O  O27  1  0.61659900  0.94366900  0.87963800  1
  O  O28  1  0.03388400  0.86219500  0.58449700  1
  O  O29  1  0.90129500  0.85790700  0.24936600  1
  O  O30  1  0.05633100  0.38340100  0.62036200  1
  O  O31  1  0.96611600  0.13780500  0.41550300  1
  O  O32  1  0.32069100  0.62822800  0.86904900  1
  O  O33  1  0.14209300  0.09870500  0.25063400  1
  O  O34  1  0.81159400  0.47480700  0.81506000  1
  O  O35  1  0.21490000  0.85952400  0.14354300  1
loop_
_geom_bond_atom_site_label_1
_geom_bond_atom_site_label_2
_geom_bond_distance
_geom_bond_site_symmetry_2
K0 O20 2.700276 1_555
K0 O30 2.825469 1_555
K0 O6 2.873993 1_455
K0 O9 2.905665 1_555
K0 O13 3.023813 1_555
K0 O15 3.084544 1_555
K1 O19 2.700276 1_555
K1 O16 2.825469 1_556
K1 O27 2.873993 1_545
K1 O32 2.905665 1_555
K1 O26 3.023813 1_555
K1 O25 3.084544 1_556
K2 O9 2.731636 1_555
K2 O1 2.767709 1_555
K2 O23 2.806749 1_555
K2 O6 2.851190 1_555
K2 O0 2.868238 1_555
K2 O33 3.074796 1_655
K3 O0 2.731636 1_555
K3 O17 2.767709 1_555
K3 O20 2.806749 1_555
K3 O16 2.851190 1_555
K3 O9 2.868238 1_555
K3 O29 3.074796 1_545
K4 O22 2.731636 1_555
K4 O3 2.767709 1_555
K4 O19 2.806749 1_555
K4 O30 2.851190 1_555
K4 O32 2.868238 1_555
K4 O12 3.074796 1_455
K5 O24 2.700276 1_555
K5 O6 2.825469 1_555
K5 O30 2.873993 1_655
K5 O22 2.905665 1_555
K5 O10 3.023813 1_555
K5 O14 3.084544 1_555
K6 O32 2.731636 1_555
K6 O34 2.767709 1_555
K6 O24 2.806749 1_555
K6 O27 2.851190 1_555
K6 O22 2.868238 1_555
K6 O4 3.074796 1_565
K7 O23 2.700276 1_555
K7 O27 2.825469 1_554
K7 O16 2.873993 1_565
K7 O0 2.905665 1_555
K7 O35 3.023819 1_555
K7 O5 3.084544 1_554
O0 P1 1.499979 1_555
O1 W0 1.766682 1_555
O2 P6 1.533846 1_555
O2 W1 2.166993 1_465
O3 W2 1.766682 1_555
O4 P4 1.573453 1_555
O4 W1 2.037305 1_455
O5 P1 1.562516 1_556
O5 W1 2.022528 1_555
O6 P0 1.496935 1_555
O7 P1 1.620896 1_455
O7 P3 1.624423 1_555
O8 P2 1.620896 1_565
O8 P0 1.624423 1_555
O9 P2 1.499979 1_555
O10 P4 1.535394 1_655
O10 W2 2.153144 1_555
O11 P7 1.620896 1_545
O11 P4 1.624423 1_555
O12 P5 1.573453 1_555
O12 W2 2.037305 1_565
O13 P0 1.535394 1_455
O13 W0 2.153144 1_555
O14 P7 1.562516 1_555
O14 W0 2.022528 1_555
O15 P2 1.562516 1_555
O15 W2 2.022528 1_555
O16 P3 1.496935 1_555
O17 W3 1.766682 1_555
O18 P1 1.533846 1_555
O18 W3 2.166993 1_645
O19 W1 1.775211 1_455
O20 W0 1.775211 1_545
O21 P6 1.620896 1_655
O21 P5 1.624423 1_555
O22 P7 1.499979 1_555
O23 W3 1.775211 1_655
O24 W2 1.775211 1_565
O25 P6 1.562516 1_554
O25 W3 2.022528 1_555
O26 P5 1.535394 1_545
O26 W1 2.153144 1_555
O27 P5 1.496935 1_555
O28 P7 1.533846 1_555
O28 W2 2.166993 1_465
O29 P0 1.573453 1_555
O29 W3 2.037305 1_655
O30 P4 1.496935 1_555
O31 P2 1.533846 1_555
O31 W0 2.166993 1_645
O32 P6 1.499979 1_555
O33 P3 1.573453 1_555
O33 W0 2.037305 1_545
O34 W1 1.766682 1_555
O35 P3 1.535398 1_565
O35 W3 2.153137 1_555
