# generated using pymatgen
data_Co(PO3)3
_symmetry_space_group_name_H-M   'P 1'
_cell_length_a   4.86743603
_cell_length_b   11.60135577
_cell_length_c   12.67920863
_cell_angle_alpha   90.00000000
_cell_angle_beta   90.00000000
_cell_angle_gamma   90.00000000
_symmetry_Int_Tables_number   1
_chemical_formula_structural   Co(PO3)3
_chemical_formula_sum   'Co4 P12 O36'
_cell_volume   715.98041991
_cell_formula_units_Z   4
loop_
 _symmetry_equiv_pos_site_id
 _symmetry_equiv_pos_as_xyz
  1  'x, y, z'
loop_
 _atom_site_type_symbol
 _atom_site_label
 _atom_site_symmetry_multiplicity
 _atom_site_fract_x
 _atom_site_fract_y
 _atom_site_fract_z
 _atom_site_occupancy
  Co  Co0  1  0.00000000  0.00000000  -0.00000000  1
  Co  Co1  1  0.00000000  0.00000000  0.50000000  1
  Co  Co2  1  0.00000000  0.50000000  -0.00000000  1
  Co  Co3  1  0.00000000  0.50000000  0.50000000  1
  P  P0  1  0.23295607  0.75000000  -0.00000000  1
  P  P1  1  0.23295607  0.75000000  0.50000000  1
  P  P2  1  0.49099040  0.07928117  0.63042333  1
  P  P3  1  0.49099040  0.07928117  0.86957667  1
  P  P4  1  0.49099040  0.42071883  0.13042333  1
  P  P5  1  0.49099040  0.42071883  0.36957667  1
  P  P6  1  0.50900960  0.57928117  0.63042333  1
  P  P7  1  0.50900960  0.57928117  0.86957667  1
  P  P8  1  0.50900960  0.92071883  0.13042333  1
  P  P9  1  0.50900960  0.92071883  0.36957667  1
  P  P10  1  0.76704393  0.25000000  -0.00000000  1
  P  P11  1  0.76704393  0.25000000  0.50000000  1
  O  O0  1  0.07757898  0.65203042  0.04667985  1
  O  O1  1  0.07757898  0.65203042  0.45332015  1
  O  O2  1  0.07757898  0.84796958  0.54667985  1
  O  O3  1  0.07757898  0.84796958  0.95332015  1
  O  O4  1  0.18902714  0.05943142  0.62117377  1
  O  O5  1  0.18902714  0.05943142  0.87882623  1
  O  O6  1  0.18902714  0.44056858  0.12117377  1
  O  O7  1  0.18902714  0.44056858  0.37882623  1
  O  O8  1  0.32255514  0.00968726  0.08449354  1
  O  O9  1  0.32255514  0.00968726  0.41550646  1
  O  O10  1  0.32255514  0.49031274  0.58449354  1
  O  O11  1  0.32255514  0.49031274  0.91550646  1
  O  O12  1  0.43678719  0.70424314  0.58787891  1
  O  O13  1  0.43678719  0.70424314  0.91212109  1
  O  O14  1  0.43678719  0.79575686  0.08787891  1
  O  O15  1  0.43678719  0.79575686  0.41212109  1
  O  O16  1  0.43709727  0.59666000  0.75000000  1
  O  O17  1  0.43709727  0.90334000  0.25000000  1
  O  O18  1  0.56290273  0.09666000  0.75000000  1
  O  O19  1  0.56290273  0.40334000  0.25000000  1
  O  O20  1  0.56321281  0.20424314  0.58787891  1
  O  O21  1  0.56321281  0.20424314  0.91212109  1
  O  O22  1  0.56321281  0.29575686  0.08787891  1
  O  O23  1  0.56321281  0.29575686  0.41212109  1
  O  O24  1  0.67744486  0.99031274  0.58449354  1
  O  O25  1  0.67744486  0.99031274  0.91550646  1
  O  O26  1  0.67744486  0.50968726  0.08449354  1
  O  O27  1  0.67744486  0.50968726  0.41550646  1
  O  O28  1  0.81097286  0.55943142  0.62117377  1
  O  O29  1  0.81097286  0.55943142  0.87882623  1
  O  O30  1  0.81097286  0.94056858  0.12117377  1
  O  O31  1  0.81097286  0.94056858  0.37882623  1
  O  O32  1  0.92242102  0.15203042  0.04667985  1
  O  O33  1  0.92242102  0.15203042  0.45332015  1
  O  O34  1  0.92242102  0.34796958  0.54667985  1
  O  O35  1  0.92242102  0.34796958  0.95332015  1
loop_
_geom_bond_atom_site_label_1
_geom_bond_atom_site_label_2
_geom_bond_distance
_geom_bond_site_symmetry_2
Co0 O3 1.898351 1_544
Co0 O32 1.898351 1_455
Co0 O25 1.904019 1_444
Co0 O8 1.904019 1_555
Co0 O5 1.918963 1_554
Co0 O30 1.918963 1_445
Co1 O2 1.898351 1_545
Co1 O33 1.898351 1_455
Co1 O24 1.904019 1_445
Co1 O9 1.904019 1_555
Co1 O4 1.918963 1_555
Co1 O31 1.918963 1_445
Co2 O35 1.898351 1_454
Co2 O0 1.898351 1_555
Co2 O11 1.904019 1_554
Co2 O26 1.904019 1_455
Co2 O29 1.918963 1_454
Co2 O6 1.918963 1_555
Co3 O34 1.898351 1_455
Co3 O1 1.898351 1_555
Co3 O27 1.904019 1_455
Co3 O10 1.904019 1_555
Co3 O28 1.918963 1_455
Co3 O7 1.918963 1_555
O0 P0 1.487981 1_555
O1 P1 1.487981 1_555
O2 P1 1.487981 1_555
O3 P0 1.487981 1_556
O4 P2 1.492333 1_555
O5 P3 1.492333 1_555
O6 P4 1.492333 1_555
O7 P5 1.492333 1_555
O8 P8 1.492694 1_545
O9 P9 1.492694 1_545
O10 P6 1.492694 1_555
O11 P7 1.492694 1_555
O12 P1 1.583554 1_555
O12 P6 1.586277 1_555
O13 P0 1.583554 1_556
O13 P7 1.586277 1_555
O14 P0 1.583554 1_555
O14 P8 1.586277 1_555
O15 P1 1.583554 1_555
O15 P9 1.586277 1_555
O16 P6 1.569026 1_555
O16 P7 1.569026 1_555
O17 P8 1.569026 1_555
O17 P9 1.569026 1_555
O18 P2 1.569026 1_555
O18 P3 1.569026 1_555
O19 P5 1.569026 1_555
O19 P4 1.569026 1_555
O20 P11 1.583554 1_555
O20 P2 1.586277 1_555
O21 P10 1.583554 1_556
O21 P3 1.586277 1_555
O22 P10 1.583554 1_555
O22 P4 1.586277 1_555
O23 P11 1.583554 1_555
O23 P5 1.586277 1_555
O24 P2 1.492694 1_565
O25 P3 1.492694 1_565
O26 P4 1.492694 1_555
O27 P5 1.492694 1_555
O28 P6 1.492333 1_555
O29 P7 1.492333 1_555
O30 P8 1.492333 1_555
O31 P9 1.492333 1_555
O32 P10 1.487981 1_555
O33 P11 1.487981 1_555
O34 P11 1.487981 1_555
O35 P10 1.487981 1_556
