# generated using pymatgen
data_Cs2SiO3
_symmetry_space_group_name_H-M   'P 1'
_cell_length_a   13.89768069
_cell_length_b   6.87784533
_cell_length_c   17.13067884
_cell_angle_alpha   71.58809516
_cell_angle_beta   90.00000000
_cell_angle_gamma   90.00000000
_symmetry_Int_Tables_number   1
_chemical_formula_structural   Cs2SiO3
_chemical_formula_sum   'Cs24 Si12 O36'
_cell_volume   1553.63410603
_cell_formula_units_Z   12
loop_
 _symmetry_equiv_pos_site_id
 _symmetry_equiv_pos_as_xyz
  1  'x, y, z'
loop_
 _atom_site_type_symbol
 _atom_site_label
 _atom_site_symmetry_multiplicity
 _atom_site_fract_x
 _atom_site_fract_y
 _atom_site_fract_z
 _atom_site_occupancy
  Cs  Cs0  1  0.65635592  0.45248357  0.50852979  1
  Cs  Cs1  1  0.15635592  0.54751643  0.99147021  1
  Cs  Cs2  1  0.19075890  0.86631969  0.30796901  1
  Cs  Cs3  1  0.58649003  0.28270837  0.96737749  1
  Cs  Cs4  1  0.89251030  0.01478775  0.91430496  1
  Cs  Cs5  1  0.60748970  0.01478775  0.41430496  1
  Cs  Cs6  1  0.69075890  0.13368031  0.19203099  1
  Cs  Cs7  1  0.62231425  0.88099680  0.86462096  1
  Cs  Cs8  1  0.41350997  0.71729163  0.03262251  1
  Cs  Cs9  1  0.87768575  0.88099680  0.36462096  1
  Cs  Cs10  1  0.30924110  0.86631969  0.80796901  1
  Cs  Cs11  1  0.98764773  0.34363965  0.21793653  1
  Cs  Cs12  1  0.91350997  0.28270837  0.46737749  1
  Cs  Cs13  1  0.01235227  0.65636035  0.78206347  1
  Cs  Cs14  1  0.12231425  0.11900320  0.63537904  1
  Cs  Cs15  1  0.10748970  0.98521225  0.08569504  1
  Cs  Cs16  1  0.39251030  0.98521225  0.58569504  1
  Cs  Cs17  1  0.37768575  0.11900320  0.13537904  1
  Cs  Cs18  1  0.84364408  0.45248357  0.00852979  1
  Cs  Cs19  1  0.08649003  0.71729163  0.53262251  1
  Cs  Cs20  1  0.51235227  0.34363965  0.71793653  1
  Cs  Cs21  1  0.48764773  0.65636035  0.28206347  1
  Cs  Cs22  1  0.80924110  0.13368031  0.69203099  1
  Cs  Cs23  1  0.34364408  0.54751643  0.49147021  1
  Si  Si0  1  0.65464847  0.72392043  0.10613253  1
  Si  Si1  1  0.25375072  0.45269100  0.72134729  1
  Si  Si2  1  0.15464847  0.27607957  0.39386747  1
  Si  Si3  1  0.86586976  0.83032343  0.13438034  1
  Si  Si4  1  0.75375072  0.54730900  0.77865271  1
  Si  Si5  1  0.74624928  0.54730900  0.27865271  1
  Si  Si6  1  0.24624928  0.45269100  0.22134729  1
  Si  Si7  1  0.84535153  0.72392043  0.60613253  1
  Si  Si8  1  0.63413024  0.83032343  0.63438034  1
  Si  Si9  1  0.13413024  0.16967657  0.86561966  1
  Si  Si10  1  0.34535153  0.27607957  0.89386747  1
  Si  Si11  1  0.36586976  0.16967657  0.36561966  1
  O  O0  1  0.22660890  0.68824515  0.67443625  1
  O  O1  1  0.29838566  0.32349483  0.66615584  1
  O  O2  1  0.86188501  0.59471409  0.54375795  1
  O  O3  1  0.84410854  0.67192495  0.22961931  1
  O  O4  1  0.27339110  0.68824515  0.17443625  1
  O  O5  1  0.34410854  0.32807505  0.27038069  1
  O  O6  1  0.75910157  0.85349027  0.08582073  1
  O  O7  1  0.65589146  0.67192495  0.72961931  1
  O  O8  1  0.15589146  0.32807505  0.77038069  1
  O  O9  1  0.17126318  0.44204650  0.29920382  1
  O  O10  1  0.57067162  0.88354558  0.10824600  1
  O  O11  1  0.07067162  0.11645442  0.39175400  1
  O  O12  1  0.44081336  0.27331830  0.41215422  1
  O  O13  1  0.10295295  0.94976537  0.85975351  1
  O  O14  1  0.82873682  0.55795350  0.70079618  1
  O  O15  1  0.77339110  0.31175485  0.32556375  1
  O  O16  1  0.74089843  0.85349027  0.58582073  1
  O  O17  1  0.24089843  0.14650973  0.91417927  1
  O  O18  1  0.13811499  0.40528591  0.45624205  1
  O  O19  1  0.20161434  0.32349483  0.16615584  1
  O  O20  1  0.60295295  0.05023463  0.64024649  1
  O  O21  1  0.32873682  0.44204650  0.79920382  1
  O  O22  1  0.39704705  0.94976537  0.35975351  1
  O  O23  1  0.72660890  0.31175485  0.82556375  1
  O  O24  1  0.25910157  0.14650973  0.41417927  1
  O  O25  1  0.79838566  0.67650517  0.83384416  1
  O  O26  1  0.67126318  0.55795350  0.20079618  1
  O  O27  1  0.70161434  0.67650517  0.33384416  1
  O  O28  1  0.36188501  0.40528591  0.95624205  1
  O  O29  1  0.55918664  0.72668170  0.58784578  1
  O  O30  1  0.63811499  0.59471409  0.04375795  1
  O  O31  1  0.89704705  0.05023463  0.14024649  1
  O  O32  1  0.92932838  0.88354558  0.60824600  1
  O  O33  1  0.05918664  0.27331830  0.91215422  1
  O  O34  1  0.94081336  0.72668170  0.08784578  1
  O  O35  1  0.42932838  0.11645442  0.89175400  1
loop_
_geom_bond_atom_site_label_1
_geom_bond_atom_site_label_2
_geom_bond_distance
_geom_bond_site_symmetry_2
Cs0 O27 2.968503 1_555
Cs0 O29 2.974068 1_555
Cs0 O20 3.058248 1_555
Cs0 O2 3.138942 1_555
Cs1 O19 2.968503 1_556
Cs1 O33 2.974068 1_555
Cs1 O13 3.058248 1_555
Cs1 O28 3.138942 1_555
Cs2 O9 2.981269 1_555
Cs2 O11 3.060222 1_565
Cs2 O22 3.107608 1_555
Cs2 O4 3.133904 1_555
Cs2 O24 3.184518 1_565
Cs2 O19 3.314555 1_565
Cs2 O18 3.457445 1_555
Cs3 O30 2.933512 1_556
Cs3 O35 2.948254 1_555
Cs3 O10 3.037077 1_546
Cs3 O23 3.070380 1_555
Cs3 O28 3.223237 1_555
Cs4 O33 2.913333 1_655
Cs4 O34 3.081220 1_546
Cs4 O23 3.136459 1_555
Cs4 O13 3.144990 1_645
Cs4 O25 3.324174 1_545
Cs4 O6 3.352936 1_546
Cs5 O12 2.913333 1_555
Cs5 O29 3.081220 1_545
Cs5 O15 3.136459 1_555
Cs5 O22 3.144990 1_545
Cs5 O27 3.324174 1_545
Cs5 O16 3.352936 1_545
Cs6 O26 2.981269 1_555
Cs6 O10 3.060222 1_545
Cs6 O31 3.107608 1_555
Cs6 O15 3.133904 1_555
Cs6 O6 3.184518 1_545
Cs6 O27 3.314555 1_545
Cs6 O30 3.457445 1_555
Cs7 O25 2.951652 1_555
Cs7 O30 3.086333 1_556
Cs7 O7 3.120041 1_555
Cs7 O23 3.173943 1_565
Cs7 O35 3.241536 1_565
Cs8 O28 2.933512 1_554
Cs8 O10 2.948254 1_555
Cs8 O35 3.037077 1_564
Cs8 O4 3.070380 1_555
Cs8 O30 3.223237 1_555
Cs9 O27 2.951652 1_555
Cs9 O2 3.086333 1_555
Cs9 O3 3.120041 1_555
Cs9 O15 3.173943 1_565
Cs9 O11 3.241536 1_665
Cs10 O21 2.981269 1_555
Cs10 O35 3.060222 1_565
Cs10 O13 3.107608 1_555
Cs10 O0 3.133904 1_555
Cs10 O17 3.184518 1_565
Cs10 O1 3.314555 1_565
Cs10 O28 3.457445 1_555
Cs11 O34 2.936314 1_555
Cs11 O31 3.020849 1_555
Cs11 O3 3.066443 1_555
Cs11 O9 3.082736 1_655
Cs11 O11 3.114485 1_655
Cs11 O19 3.118686 1_655
Cs11 O15 3.472540 1_555
Cs12 O2 2.933512 1_555
Cs12 O11 2.948254 1_655
Cs12 O32 3.037077 1_545
Cs12 O15 3.070380 1_555
Cs12 O18 3.223237 1_655
Cs13 O33 2.936314 1_555
Cs13 O13 3.020849 1_555
Cs13 O8 3.066443 1_555
Cs13 O14 3.082736 1_455
Cs13 O32 3.114485 1_455
Cs13 O25 3.118686 1_455
Cs13 O0 3.472540 1_555
Cs14 O1 2.951652 1_555
Cs14 O18 3.086333 1_555
Cs14 O8 3.120041 1_555
Cs14 O0 3.173943 1_545
Cs14 O32 3.241536 1_445
Cs15 O34 2.913333 1_455
Cs15 O33 3.081220 1_564
Cs15 O4 3.136459 1_555
Cs15 O31 3.144990 1_465
Cs15 O19 3.324174 1_565
Cs15 O17 3.352936 1_564
Cs16 O29 2.913333 1_555
Cs16 O12 3.081220 1_565
Cs16 O0 3.136459 1_555
Cs16 O20 3.144990 1_565
Cs16 O1 3.324174 1_565
Cs16 O24 3.352936 1_565
Cs17 O19 2.951652 1_555
Cs17 O28 3.086333 1_554
Cs17 O5 3.120041 1_555
Cs17 O4 3.173943 1_545
Cs17 O10 3.241536 1_545
Cs18 O25 2.968503 1_554
Cs18 O34 2.974068 1_555
Cs18 O31 3.058248 1_555
Cs18 O30 3.138942 1_555
Cs19 O18 2.933512 1_555
Cs19 O32 2.948254 1_455
Cs19 O11 3.037077 1_565
Cs19 O0 3.070380 1_555
Cs19 O2 3.223237 1_455
Cs20 O29 2.936314 1_555
Cs20 O20 3.020849 1_555
Cs20 O7 3.066443 1_555
Cs20 O21 3.082736 1_555
Cs20 O35 3.114485 1_555
Cs20 O1 3.118686 1_555
Cs20 O23 3.472540 1_555
Cs21 O12 2.936314 1_555
Cs21 O22 3.020849 1_555
Cs21 O5 3.066443 1_555
Cs21 O26 3.082736 1_555
Cs21 O10 3.114485 1_555
Cs21 O27 3.118686 1_555
Cs21 O4 3.472540 1_555
Cs22 O14 2.981269 1_555
Cs22 O32 3.060222 1_545
Cs22 O20 3.107608 1_555
Cs22 O23 3.133904 1_555
Cs22 O16 3.184518 1_545
Cs22 O25 3.314555 1_545
Cs22 O2 3.457445 1_555
Cs23 O1 2.968503 1_555
Cs23 O12 2.974068 1_555
Cs23 O22 3.058248 1_555
Cs23 O18 3.138942 1_555
O0 Si1 1.609472 1_555
O1 Si1 1.612144 1_555
O2 Si7 1.607505 1_555
O3 Si3 1.678503 1_555
O3 Si5 1.683755 1_555
O4 Si6 1.609472 1_555
O5 Si11 1.678503 1_555
O5 Si6 1.683755 1_555
O6 Si0 1.681270 1_555
O6 Si3 1.683865 1_555
O7 Si8 1.678503 1_555
O7 Si4 1.683755 1_555
O8 Si9 1.678503 1_555
O8 Si1 1.683755 1_555
O9 Si6 1.675879 1_555
O9 Si2 1.678319 1_555
O10 Si0 1.610540 1_555
O11 Si2 1.610540 1_555
O12 Si11 1.608532 1_555
O13 Si9 1.606722 1_565
O14 Si4 1.675879 1_555
O14 Si7 1.678319 1_555
O15 Si5 1.609472 1_555
O16 Si7 1.681270 1_555
O16 Si8 1.683865 1_555
O17 Si10 1.681270 1_555
O17 Si9 1.683865 1_555
O18 Si2 1.607505 1_555
O19 Si6 1.612144 1_555
O20 Si8 1.606722 1_545
O21 Si1 1.675879 1_555
O21 Si10 1.678319 1_555
O22 Si11 1.606722 1_565
O23 Si4 1.609472 1_555
O24 Si2 1.681270 1_555
O24 Si11 1.683865 1_555
O25 Si4 1.612144 1_555
O26 Si5 1.675879 1_555
O26 Si0 1.678319 1_555
O27 Si5 1.612144 1_555
O28 Si10 1.607505 1_555
O29 Si8 1.608532 1_555
O30 Si0 1.607505 1_555
O31 Si3 1.606722 1_545
O32 Si7 1.610540 1_555
O33 Si9 1.608532 1_555
O34 Si3 1.608532 1_555
O35 Si10 1.610540 1_555
