# generated using pymatgen
data_TaNi3
_symmetry_space_group_name_H-M   'P 1'
_cell_length_a   3.60450472
_cell_length_b   3.60450561
_cell_length_c   4.49823467
_cell_angle_alpha   113.67016019
_cell_angle_beta   113.67015661
_cell_angle_gamma   89.89303116
_symmetry_Int_Tables_number   1
_chemical_formula_structural   TaNi3
_chemical_formula_sum   'Ta1 Ni3'
_cell_volume   48.13105055
_cell_formula_units_Z   1
loop_
 _symmetry_equiv_pos_site_id
 _symmetry_equiv_pos_as_xyz
  1  'x, y, z'
loop_
 _atom_site_type_symbol
 _atom_site_label
 _atom_site_symmetry_multiplicity
 _atom_site_fract_x
 _atom_site_fract_y
 _atom_site_fract_z
 _atom_site_occupancy
  Ta  Ta0  1  0.00000000  0.00000000  0.00000000  1
  Ni  Ni0  1  0.50000000  0.50000000  0.00000000  1
  Ni  Ni1  1  0.75001402  0.24998598  0.50000000  1
  Ni  Ni2  1  0.24998598  0.75001402  0.50000000  1
loop_
_geom_bond_atom_site_label_1
_geom_bond_atom_site_label_2
_geom_bond_distance
_geom_bond_site_symmetry_2
Ni0 Ta0 2.546390 1_655
Ni0 Ta0 2.546390 1_565
Ni0 Ta0 2.551148 1_555
Ni0 Ta0 2.551148 1_665
Ni0 Ni2 2.584244 1_655
Ni0 Ni1 2.584244 1_454
Ni0 Ni1 2.584244 1_565
Ni0 Ni2 2.584244 1_544
Ni0 Ni2 2.584518 1_555
Ni0 Ni1 2.584518 1_554
Ni0 Ni2 2.584519 1_554
Ni0 Ni1 2.584519 1_555
Ni1 Ni2 2.546247 1_645
Ni1 Ni2 2.546533 1_555
Ni1 Ni2 2.551148 1_545
Ni1 Ni2 2.551148 1_655
Ni1 Ta0 2.584314 1_555
Ni1 Ta0 2.584315 1_666
Ni1 Ta0 2.584448 1_655
Ni1 Ta0 2.584448 1_656
Ni2 Ta0 2.584314 1_666
Ni2 Ta0 2.584315 1_555
Ni2 Ta0 2.584448 1_566
Ni2 Ta0 2.584448 1_565
