# generated using pymatgen
data_CdBiClO2
_symmetry_space_group_name_H-M   'P 1'
_cell_length_a   4.24651300
_cell_length_b   6.29125100
_cell_length_c   7.66067700
_cell_angle_alpha   81.83589302
_cell_angle_beta   90.00000000
_cell_angle_gamma   90.00000000
_symmetry_Int_Tables_number   1
_chemical_formula_structural   CdBiClO2
_chemical_formula_sum   'Cd2 Bi2 Cl2 O4'
_cell_volume   202.58755357
_cell_formula_units_Z   2
loop_
 _symmetry_equiv_pos_site_id
 _symmetry_equiv_pos_as_xyz
  1  'x, y, z'
loop_
 _atom_site_type_symbol
 _atom_site_label
 _atom_site_symmetry_multiplicity
 _atom_site_fract_x
 _atom_site_fract_y
 _atom_site_fract_z
 _atom_site_occupancy
  Cd  Cd0  1  0.75000000  0.84688800  0.89619200  1
  Cd  Cd1  1  0.25000000  0.15311200  0.10380800  1
  Bi  Bi0  1  0.25000000  0.18577700  0.60193900  1
  Bi  Bi1  1  0.75000000  0.81422300  0.39806100  1
  Cl  Cl0  1  0.25000000  0.52240800  0.20257600  1
  Cl  Cl1  1  0.75000000  0.47759200  0.79742400  1
  O  O0  1  0.25000000  0.99001400  0.85565800  1
  O  O1  1  0.75000000  0.00998600  0.14434200  1
  O  O2  1  0.75000000  0.04606800  0.59374800  1
  O  O3  1  0.25000000  0.95393200  0.40625200  1
loop_
_geom_bond_atom_site_label_1
_geom_bond_atom_site_label_2
_geom_bond_distance
_geom_bond_site_symmetry_2
Cd0 O1 2.284875 1_566
Cd0 O0 2.309983 1_555
Cd0 O0 2.309983 1_655
Cd0 O2 2.472608 1_565
Cd0 Cl1 2.543550 1_555
Cd1 O0 2.284875 1_544
Cd1 O1 2.309983 1_555
Cd1 O1 2.309983 1_455
Cd1 O3 2.472608 1_545
Cd1 Cl0 2.543550 1_555
Bi0 O0 2.148198 1_545
Bi0 O3 2.235131 1_545
Bi0 O2 2.302252 1_555
Bi0 O2 2.302252 1_455
Bi1 O1 2.148198 1_565
Bi1 O2 2.235131 1_565
Bi1 O3 2.302252 1_555
Bi1 O3 2.302252 1_655
