# generated using pymatgen
data_Li(CuO)2
_symmetry_space_group_name_H-M   'P 1'
_cell_length_a   5.67570384
_cell_length_b   5.67570384
_cell_length_c   12.36554590
_cell_angle_alpha   90.00000000
_cell_angle_beta   90.00000000
_cell_angle_gamma   90.00000000
_symmetry_Int_Tables_number   1
_chemical_formula_structural   Li(CuO)2
_chemical_formula_sum   'Li8 Cu16 O16'
_cell_volume   398.33892350
_cell_formula_units_Z   8
loop_
 _symmetry_equiv_pos_site_id
 _symmetry_equiv_pos_as_xyz
  1  'x, y, z'
loop_
 _atom_site_type_symbol
 _atom_site_label
 _atom_site_symmetry_multiplicity
 _atom_site_fract_x
 _atom_site_fract_y
 _atom_site_fract_z
 _atom_site_occupancy
  Li  Li0  1  0.75485429  0.50000000  0.42788119  1
  Li  Li1  1  0.74514571  -0.00000000  0.07211881  1
  Li  Li2  1  0.00000000  0.74514571  0.92788119  1
  Li  Li3  1  0.00000000  0.25485429  0.92788119  1
  Li  Li4  1  0.25485429  -0.00000000  0.07211881  1
  Li  Li5  1  0.50000000  0.24514571  0.57211881  1
  Li  Li6  1  0.50000000  0.75485429  0.57211881  1
  Li  Li7  1  0.24514571  0.50000000  0.42788119  1
  Cu  Cu0  1  0.74576407  0.50000000  0.74334727  1
  Cu  Cu1  1  0.75204105  -0.00000000  0.40286331  1
  Cu  Cu2  1  0.50000000  0.25423593  0.25665273  1
  Cu  Cu3  1  0.25204105  0.50000000  0.09713669  1
  Cu  Cu4  1  0.00000000  0.24576407  0.24334727  1
  Cu  Cu5  1  0.50000000  0.74795895  0.90286331  1
  Cu  Cu6  1  0.50000000  0.74576407  0.25665273  1
  Cu  Cu7  1  0.24795895  -0.00000000  0.40286331  1
  Cu  Cu8  1  0.75423593  -0.00000000  0.75665273  1
  Cu  Cu9  1  0.25423593  0.50000000  0.74334727  1
  Cu  Cu10  1  0.74795895  0.50000000  0.09713669  1
  Cu  Cu11  1  0.50000000  0.25204105  0.90286331  1
  Cu  Cu12  1  0.24576407  -0.00000000  0.75665273  1
  Cu  Cu13  1  0.00000000  0.75423593  0.24334727  1
  Cu  Cu14  1  0.00000000  0.24795895  0.59713669  1
  Cu  Cu15  1  0.00000000  0.75204105  0.59713669  1
  O  O0  1  0.00000000  0.75946549  0.39304499  1
  O  O1  1  0.50000000  0.74053451  0.10695501  1
  O  O2  1  0.25932649  -0.00000000  0.90730414  1
  O  O3  1  0.75946549  -0.00000000  0.60695501  1
  O  O4  1  0.00000000  0.25932649  0.09269586  1
  O  O5  1  0.50000000  0.25946549  0.10695501  1
  O  O6  1  0.25946549  0.50000000  0.89304499  1
  O  O7  1  0.74053451  0.50000000  0.89304499  1
  O  O8  1  0.00000000  0.74067351  0.09269586  1
  O  O9  1  0.75932649  0.50000000  0.59269586  1
  O  O10  1  0.24053451  -0.00000000  0.60695501  1
  O  O11  1  0.74067351  -0.00000000  0.90730414  1
  O  O12  1  0.50000000  0.24067351  0.40730414  1
  O  O13  1  0.50000000  0.75932649  0.40730414  1
  O  O14  1  0.24067351  0.50000000  0.59269586  1
  O  O15  1  0.00000000  0.24053451  0.39304499  1
loop_
_geom_bond_atom_site_label_1
_geom_bond_atom_site_label_2
_geom_bond_distance
_geom_bond_site_symmetry_2
Li0 O9 2.038181 1_555
Li0 O15 2.071275 1_655
Li0 O0 2.071275 1_655
Li0 O13 2.079282 1_555
Li0 O12 2.079282 1_555
Li1 O11 2.038181 1_554
Li1 O1 2.071275 1_545
Li1 O5 2.071275 1_555
Li1 O8 2.079282 1_645
Li1 O4 2.079282 1_655
Li2 O8 2.038181 1_556
Li2 O7 2.071275 1_455
Li2 O6 2.071275 1_555
Li2 O11 2.079282 1_465
Li2 O2 2.079282 1_565
Li3 O4 2.038181 1_556
Li3 O7 2.071275 1_455
Li3 O6 2.071275 1_555
Li3 O11 2.079282 1_455
Li3 O2 2.079282 1_555
Li4 O2 2.038181 1_554
Li4 O1 2.071275 1_545
Li4 O5 2.071275 1_555
Li4 O8 2.079282 1_545
Li4 O4 2.079282 1_555
Li5 O12 2.038181 1_555
Li5 O3 2.071275 1_555
Li5 O10 2.071275 1_555
Li5 O14 2.079282 1_555
Li5 O9 2.079282 1_555
Li6 O13 2.038181 1_555
Li6 O3 2.071275 1_565
Li6 O10 2.071275 1_565
Li6 O14 2.079282 1_555
Li6 O9 2.079282 1_555
Li7 O14 2.038181 1_555
Li7 O15 2.071275 1_555
Li7 O0 2.071275 1_555
Li7 O13 2.079282 1_555
Li7 O12 2.079282 1_555
Cu0 O7 1.851332 1_555
Cu0 O9 1.864477 1_555
Cu1 O15 1.964467 1_655
Cu1 O0 1.964467 1_645
Cu1 O12 1.978714 1_555
Cu1 O13 1.978714 1_545
Cu1 O3 2.524057 1_555
Cu2 O5 1.851332 1_555
Cu2 O12 1.864477 1_555
Cu3 O1 1.964467 1_555
Cu3 O5 1.964467 1_555
Cu3 O4 1.978714 1_555
Cu3 O8 1.978714 1_555
Cu3 O6 2.524057 1_554
Cu4 O15 1.851332 1_555
Cu4 O4 1.864477 1_555
Cu5 O6 1.964467 1_555
Cu5 O7 1.964467 1_555
Cu5 O2 1.978714 1_565
Cu5 O11 1.978714 1_565
Cu5 O1 2.524057 1_556
Cu6 O1 1.851332 1_555
Cu6 O13 1.864477 1_555
Cu7 O0 1.964467 1_545
Cu7 O15 1.964467 1_555
Cu7 O12 1.978714 1_555
Cu7 O13 1.978714 1_545
Cu7 O10 2.524057 1_555
Cu8 O3 1.851332 1_555
Cu8 O11 1.864477 1_555
Cu9 O6 1.851332 1_555
Cu9 O14 1.864477 1_555
Cu10 O1 1.964467 1_555
Cu10 O5 1.964467 1_555
Cu10 O4 1.978714 1_655
Cu10 O8 1.978714 1_655
Cu10 O7 2.524057 1_554
Cu11 O6 1.964467 1_555
Cu11 O7 1.964467 1_555
Cu11 O2 1.978714 1_555
Cu11 O11 1.978714 1_555
Cu11 O5 2.524057 1_556
Cu12 O10 1.851332 1_555
Cu12 O2 1.864477 1_555
Cu13 O0 1.851332 1_555
Cu13 O8 1.864477 1_555
Cu14 O10 1.964467 1_555
Cu14 O3 1.964467 1_455
Cu14 O9 1.978714 1_455
Cu14 O14 1.978714 1_555
Cu14 O15 2.524057 1_555
Cu15 O10 1.964467 1_565
Cu15 O3 1.964467 1_465
Cu15 O9 1.978714 1_455
Cu15 O14 1.978714 1_555
Cu15 O0 2.524057 1_555
