# generated using pymatgen
data_LiCr6P7O24
_symmetry_space_group_name_H-M   'P 1'
_cell_length_a   27.92118300
_cell_length_b   5.43891300
_cell_length_c   6.48120637
_cell_angle_alpha   72.65775412
_cell_angle_beta   90.00000000
_cell_angle_gamma   90.00000000
_symmetry_Int_Tables_number   1
_chemical_formula_structural   LiCr6P7O24
_chemical_formula_sum   'Li2 Cr12 P14 O48'
_cell_volume   939.49936326
_cell_formula_units_Z   2
loop_
 _symmetry_equiv_pos_site_id
 _symmetry_equiv_pos_as_xyz
  1  'x, y, z'
loop_
 _atom_site_type_symbol
 _atom_site_label
 _atom_site_symmetry_multiplicity
 _atom_site_fract_x
 _atom_site_fract_y
 _atom_site_fract_z
 _atom_site_occupancy
  Li  Li0  1  0.25000000  0.06796100  0.55435100  1
  Li  Li1  1  0.75000000  0.93203900  0.44564900  1
  Cr  Cr0  1  0.18075900  0.85933800  0.28349200  1
  Cr  Cr1  1  0.68075900  0.14066200  0.71650800  1
  Cr  Cr2  1  0.59684200  0.80414800  0.07831700  1
  Cr  Cr3  1  0.54593400  0.19793100  0.30704000  1
  Cr  Cr4  1  0.09684200  0.19585200  0.92168300  1
  Cr  Cr5  1  0.90315800  0.80414800  0.07831700  1
  Cr  Cr6  1  0.04593400  0.80206900  0.69296000  1
  Cr  Cr7  1  0.95406600  0.19793100  0.30704000  1
  Cr  Cr8  1  0.45406600  0.80206900  0.69296000  1
  Cr  Cr9  1  0.31924100  0.85933800  0.28349200  1
  Cr  Cr10  1  0.40315800  0.19585200  0.92168300  1
  Cr  Cr11  1  0.81924100  0.14066200  0.71650800  1
  P  P0  1  0.10914700  0.29919300  0.38897000  1
  P  P1  1  0.75000000  0.54796000  0.89291300  1
  P  P2  1  0.16935600  0.71955400  0.82278100  1
  P  P3  1  0.83064400  0.28044600  0.17721900  1
  P  P4  1  0.47239600  0.69215200  0.21030700  1
  P  P5  1  0.60914700  0.70080700  0.61103000  1
  P  P6  1  0.02760400  0.69215200  0.21030700  1
  P  P7  1  0.66935600  0.28044600  0.17721900  1
  P  P8  1  0.25000000  0.45204000  0.10708700  1
  P  P9  1  0.39085300  0.29919300  0.38897000  1
  P  P10  1  0.89085300  0.70080700  0.61103000  1
  P  P11  1  0.33064400  0.71955400  0.82278100  1
  P  P12  1  0.97239600  0.30784800  0.78969300  1
  P  P13  1  0.52760400  0.30784800  0.78969300  1
  O  O0  1  0.16721300  0.90488600  0.96024500  1
  O  O1  1  0.75000000  0.82734700  0.75694500  1
  O  O2  1  0.29427900  0.48543700  0.94597300  1
  O  O3  1  0.90827600  0.86961300  0.38635500  1
  O  O4  1  0.69243700  0.14330100  0.39681700  1
  O  O5  1  0.59172400  0.86961300  0.38635500  1
  O  O6  1  0.87700300  0.42255900  0.18889200  1
  O  O7  1  0.37848800  0.13079700  0.24102100  1
  O  O8  1  0.45121700  0.86815300  0.99592300  1
  O  O9  1  0.75000000  0.34763400  0.77213300  1
  O  O10  1  0.62151200  0.86920300  0.75897900  1
  O  O11  1  0.62299700  0.42255900  0.18889200  1
  O  O12  1  0.02774800  0.83317100  0.38048600  1
  O  O13  1  0.52774800  0.16682900  0.61951400  1
  O  O14  1  0.85198700  0.51622900  0.59924500  1
  O  O15  1  0.64801300  0.51622900  0.59924500  1
  O  O16  1  0.33278700  0.90488600  0.96024500  1
  O  O17  1  0.37700300  0.57744100  0.81110800  1
  O  O18  1  0.30756300  0.85669900  0.60318300  1
  O  O19  1  0.56130200  0.55760200  0.72306500  1
  O  O20  1  0.93869800  0.55760200  0.72306500  1
  O  O21  1  0.79427900  0.51456300  0.05402700  1
  O  O22  1  0.20572100  0.48543700  0.94597300  1
  O  O23  1  0.47225200  0.83317100  0.38048600  1
  O  O24  1  0.83278700  0.09511400  0.03975500  1
  O  O25  1  0.25000000  0.17265300  0.24305500  1
  O  O26  1  0.14801300  0.48377100  0.40075500  1
  O  O27  1  0.54878300  0.13184700  0.00407700  1
  O  O28  1  0.66721300  0.09511400  0.03975500  1
  O  O29  1  0.09172400  0.13038700  0.61364500  1
  O  O30  1  0.97225200  0.16682900  0.61951400  1
  O  O31  1  0.47890900  0.42257100  0.81880500  1
  O  O32  1  0.12151200  0.13079700  0.24102100  1
  O  O33  1  0.04878300  0.86815300  0.99592300  1
  O  O34  1  0.02109100  0.42257100  0.81880500  1
  O  O35  1  0.12299700  0.57744100  0.81110800  1
  O  O36  1  0.80756300  0.14330100  0.39681700  1
  O  O37  1  0.87848800  0.86920300  0.75897900  1
  O  O38  1  0.52109100  0.57742900  0.18119500  1
  O  O39  1  0.95121700  0.13184700  0.00407700  1
  O  O40  1  0.25000000  0.65236600  0.22786700  1
  O  O41  1  0.70572100  0.51456300  0.05402700  1
  O  O42  1  0.19243700  0.85669900  0.60318300  1
  O  O43  1  0.06130200  0.44239800  0.27693500  1
  O  O44  1  0.43869800  0.44239800  0.27693500  1
  O  O45  1  0.40827600  0.13038700  0.61364500  1
  O  O46  1  0.35198700  0.48377100  0.40075500  1
  O  O47  1  0.97890900  0.57742900  0.18119500  1
loop_
_geom_bond_atom_site_label_1
_geom_bond_atom_site_label_2
_geom_bond_distance
_geom_bond_site_symmetry_2
Li0 O25 1.926123 1_555
Li0 O18 1.945978 1_545
Li0 O42 1.945978 1_545
Li1 O1 1.926123 1_555
Li1 O4 1.945978 1_565
Li1 O36 1.945978 1_565
Cr0 O0 2.069823 1_554
Cr0 O42 2.093301 1_555
Cr0 O26 2.158840 1_555
Cr0 O32 2.179426 1_565
Cr0 O40 2.318778 1_555
Cr0 O25 2.538500 1_565
Cr1 O28 2.069823 1_556
Cr1 O4 2.093301 1_555
Cr1 O15 2.158840 1_555
Cr1 O10 2.179426 1_545
Cr1 O9 2.318778 1_555
Cr1 O1 2.538500 1_545
Cr2 O10 2.108726 1_554
Cr2 O11 2.113671 1_555
Cr2 O5 2.134672 1_555
Cr2 O27 2.167382 1_565
Cr2 O38 2.438943 1_555
Cr2 O28 2.488313 1_565
Cr3 O13 2.045406 1_555
Cr3 O38 2.098354 1_555
Cr3 O27 2.100439 1_555
Cr3 O5 2.130799 1_545
Cr3 O11 2.480128 1_555
Cr4 O32 2.108726 1_556
Cr4 O35 2.113671 1_555
Cr4 O29 2.134672 1_555
Cr4 O33 2.167382 1_545
Cr4 O34 2.438943 1_555
Cr4 O0 2.488313 1_545
Cr5 O37 2.108726 1_554
Cr5 O6 2.113671 1_555
Cr5 O3 2.134672 1_555
Cr5 O39 2.167382 1_565
Cr5 O47 2.438943 1_555
Cr5 O24 2.488313 1_565
Cr6 O12 2.045406 1_555
Cr6 O34 2.098354 1_555
Cr6 O33 2.100439 1_555
Cr6 O29 2.130799 1_565
Cr6 O35 2.480128 1_555
Cr7 O30 2.045406 1_555
Cr7 O47 2.098354 1_555
Cr7 O39 2.100439 1_555
Cr7 O3 2.130799 1_545
Cr7 O6 2.480128 1_555
Cr8 O23 2.045406 1_555
Cr8 O31 2.098354 1_555
Cr8 O8 2.100439 1_555
Cr8 O45 2.130799 1_565
Cr8 O17 2.480128 1_555
Cr9 O16 2.069823 1_554
Cr9 O18 2.093301 1_555
Cr9 O46 2.158840 1_555
Cr9 O7 2.179426 1_565
Cr9 O40 2.318778 1_555
Cr9 O25 2.538500 1_565
Cr10 O7 2.108726 1_556
Cr10 O17 2.113671 1_555
Cr10 O45 2.134672 1_555
Cr10 O8 2.167382 1_545
Cr10 O31 2.438943 1_555
Cr10 O16 2.488313 1_545
Cr11 O24 2.069823 1_556
Cr11 O36 2.093301 1_555
Cr11 O14 2.158840 1_555
Cr11 O37 2.179426 1_545
Cr11 O9 2.318778 1_555
Cr11 O1 2.538500 1_545
O0 P2 1.532580 1_555
O1 P1 1.512394 1_555
O2 P8 1.593359 1_556
O2 P11 1.638212 1_555
O3 P10 1.550159 1_555
O4 P7 1.537685 1_555
O5 P5 1.550159 1_555
O6 P3 1.521016 1_555
O7 P9 1.549543 1_555
O8 P4 1.550389 1_556
O9 P1 1.519333 1_555
O10 P5 1.549543 1_555
O11 P7 1.521016 1_555
O12 P6 1.519589 1_555
O13 P13 1.519589 1_555
O14 P10 1.495659 1_555
O15 P5 1.495659 1_555
O16 P11 1.532580 1_555
O17 P11 1.521016 1_555
O18 P11 1.537685 1_555
O19 P13 1.602270 1_555
O19 P5 1.606656 1_555
O20 P12 1.602270 1_555
O20 P10 1.606656 1_555
O21 P1 1.593359 1_554
O21 P3 1.638212 1_555
O22 P8 1.593359 1_556
O22 P2 1.638212 1_555
O23 P4 1.519589 1_555
O24 P3 1.532580 1_555
O25 P8 1.512394 1_555
O26 P0 1.495659 1_555
O27 P13 1.550389 1_554
O28 P7 1.532580 1_555
O29 P0 1.550159 1_555
O30 P12 1.519589 1_555
O31 P13 1.530913 1_555
O32 P0 1.549543 1_555
O33 P6 1.550389 1_556
O34 P12 1.530913 1_455
O35 P2 1.521016 1_555
O36 P3 1.537685 1_555
O37 P10 1.549543 1_555
O38 P4 1.530913 1_555
O39 P12 1.550389 1_554
O40 P8 1.519333 1_555
O41 P1 1.593359 1_554
O41 P7 1.638212 1_555
O42 P2 1.537685 1_555
O43 P6 1.602270 1_555
O43 P0 1.606656 1_555
O44 P4 1.602270 1_555
O44 P9 1.606656 1_555
O45 P9 1.550159 1_555
O46 P9 1.495659 1_555
O47 P6 1.530913 1_655
