# generated using pymatgen
data_RbZnSClO4
_symmetry_space_group_name_H-M   'P 1'
_cell_length_a   9.81872400
_cell_length_b   7.36784400
_cell_length_c   8.50137236
_cell_angle_alpha   84.31060096
_cell_angle_beta   90.00000000
_cell_angle_gamma   90.00000000
_symmetry_Int_Tables_number   1
_chemical_formula_structural   RbZnSClO4
_chemical_formula_sum   'Rb4 Zn4 S4 Cl4 O16'
_cell_volume   611.98370851
_cell_formula_units_Z   4
loop_
 _symmetry_equiv_pos_site_id
 _symmetry_equiv_pos_as_xyz
  1  'x, y, z'
loop_
 _atom_site_type_symbol
 _atom_site_label
 _atom_site_symmetry_multiplicity
 _atom_site_fract_x
 _atom_site_fract_y
 _atom_site_fract_z
 _atom_site_occupancy
  Rb  Rb0  1  0.41872800  0.63718100  0.69897900  1
  Rb  Rb1  1  0.91872800  0.36281900  0.80102100  1
  Rb  Rb2  1  0.08127200  0.63718100  0.19897900  1
  Rb  Rb3  1  0.58127200  0.36281900  0.30102100  1
  Zn  Zn0  1  0.69590600  0.90554200  0.04408300  1
  Zn  Zn1  1  0.80409400  0.90554200  0.54408300  1
  Zn  Zn2  1  0.19590600  0.09445800  0.45591700  1
  Zn  Zn3  1  0.30409400  0.09445800  0.95591700  1
  S  S0  1  0.92932800  0.10531600  0.23425900  1
  S  S1  1  0.07067200  0.89468400  0.76574100  1
  S  S2  1  0.42932800  0.89468400  0.26574100  1
  S  S3  1  0.57067200  0.10531600  0.73425900  1
  Cl  Cl0  1  0.18320400  0.37318300  0.52911200  1
  Cl  Cl1  1  0.81679600  0.62681700  0.47088800  1
  Cl  Cl2  1  0.68320400  0.62681700  0.97088800  1
  Cl  Cl3  1  0.31679600  0.37318300  0.02911200  1
  O  O0  1  0.62393200  0.96651300  0.63147900  1
  O  O1  1  0.83853500  0.11203400  0.37686600  1
  O  O2  1  0.66146500  0.11203400  0.87686600  1
  O  O3  1  0.43296600  0.03268600  0.78645000  1
  O  O4  1  0.43648100  0.71285600  0.35038300  1
  O  O5  1  0.56351900  0.28714400  0.64961700  1
  O  O6  1  0.16146500  0.88796600  0.62313400  1
  O  O7  1  0.33853500  0.88796600  0.12313400  1
  O  O8  1  0.37606800  0.03348700  0.36852100  1
  O  O9  1  0.12393200  0.03348700  0.86852100  1
  O  O10  1  0.87606800  0.96651300  0.13147900  1
  O  O11  1  0.56703400  0.96731400  0.21355000  1
  O  O12  1  0.93296600  0.96731400  0.71355000  1
  O  O13  1  0.06351900  0.71285600  0.85038300  1
  O  O14  1  0.93648100  0.28714400  0.14961700  1
  O  O15  1  0.06703400  0.03268600  0.28645000  1
loop_
_geom_bond_atom_site_label_1
_geom_bond_atom_site_label_2
_geom_bond_distance
_geom_bond_site_symmetry_2
Cl0 Zn2 2.207579 1_555
Cl0 Rb2 3.402884 1_555
Cl0 Rb0 3.431271 1_555
Cl0 Rb1 3.472432 1_455
Cl1 Zn1 2.207579 1_555
Cl1 Rb1 3.402884 1_555
Cl1 Rb3 3.431271 1_555
Cl1 Rb2 3.472432 1_655
Cl2 Zn0 2.207579 1_556
Cl2 Rb3 3.402884 1_556
Cl2 Rb1 3.431271 1_555
Cl2 Rb0 3.472432 1_555
Cl3 Zn3 2.207579 1_554
Cl3 Rb0 3.402884 1_554
Cl3 Rb2 3.431271 1_555
Cl3 Rb3 3.472432 1_555
O0 S3 1.503327 1_565
O0 Zn1 1.987267 1_555
O0 Rb0 3.162364 1_555
O1 S0 1.509594 1_555
O1 Zn1 2.005261 1_545
O1 Rb3 3.158217 1_555
O2 S3 1.509594 1_555
O2 Zn0 2.005261 1_546
O2 Rb1 3.158217 1_555
O3 S3 1.504765 1_555
O3 Zn3 2.003472 1_555
O3 Rb0 3.081180 1_545
O4 S2 1.458194 1_555
O4 Rb0 2.965846 1_555
O4 Rb3 3.010506 1_555
O5 S3 1.458194 1_555
O5 Rb3 2.965846 1_555
O5 Rb0 3.010506 1_555
O6 S1 1.509594 1_555
O6 Zn2 2.005261 1_565
O6 Rb0 3.158217 1_555
O7 S2 1.509594 1_555
O7 Zn3 2.005261 1_564
O7 Rb2 3.158217 1_555
O8 S2 1.503327 1_545
O8 Zn2 1.987267 1_555
O8 Rb3 3.162364 1_555
O9 S1 1.503327 1_545
O9 Zn3 1.987267 1_555
O9 Rb1 3.162364 1_455
O10 S0 1.503327 1_565
O10 Zn0 1.987267 1_555
O10 Rb2 3.162364 1_655
O11 S2 1.504765 1_555
O11 Zn0 2.003472 1_555
O11 Rb3 3.081180 1_565
O12 S1 1.504765 1_655
O12 Zn1 2.003472 1_555
O12 Rb1 3.081180 1_565
O13 S1 1.458194 1_555
O13 Rb2 2.965846 1_556
O13 Rb1 3.010506 1_455
O14 S0 1.458194 1_555
O14 Rb1 2.965846 1_554
O14 Rb2 3.010506 1_655
O15 S0 1.504765 1_455
O15 Zn2 2.003472 1_555
O15 Rb2 3.081180 1_545
