# generated using pymatgen
data_NaLaMgWO6
_symmetry_space_group_name_H-M   'P 1'
_cell_length_a   5.60353200
_cell_length_b   5.60353200
_cell_length_c   8.01979900
_cell_angle_alpha   90.00000000
_cell_angle_beta   90.00000000
_cell_angle_gamma   90.00000000
_symmetry_Int_Tables_number   1
_chemical_formula_structural   NaLaMgWO6
_chemical_formula_sum   'Na2 La2 Mg2 W2 O12'
_cell_volume   251.81824710
_cell_formula_units_Z   2
loop_
 _symmetry_equiv_pos_site_id
 _symmetry_equiv_pos_as_xyz
  1  'x, y, z'
loop_
 _atom_site_type_symbol
 _atom_site_label
 _atom_site_symmetry_multiplicity
 _atom_site_fract_x
 _atom_site_fract_y
 _atom_site_fract_z
 _atom_site_occupancy
  Na  Na0  1  0.00000000  0.00000000  0.50000000  1
  Na  Na1  1  0.50000000  0.50000000  0.50000000  1
  La  La0  1  0.00000000  0.00000000  0.00000000  1
  La  La1  1  0.50000000  0.50000000  0.00000000  1
  Mg  Mg0  1  0.00000000  0.50000000  0.25520400  1
  Mg  Mg1  1  0.50000000  0.00000000  0.74479600  1
  W  W0  1  0.00000000  0.50000000  0.74305500  1
  W  W1  1  0.50000000  0.00000000  0.25694500  1
  O  O0  1  0.24345400  0.25654600  0.77042300  1
  O  O1  1  0.25654600  0.24345400  0.22957700  1
  O  O2  1  0.00000000  0.50000000  0.99646000  1
  O  O3  1  0.24345400  0.74345400  0.77042300  1
  O  O4  1  0.00000000  0.50000000  0.50992600  1
  O  O5  1  0.50000000  0.00000000  0.00354000  1
  O  O6  1  0.25654600  0.75654600  0.22957700  1
  O  O7  1  0.75654600  0.25654600  0.77042300  1
  O  O8  1  0.50000000  0.00000000  0.49007400  1
  O  O9  1  0.75654600  0.74345400  0.77042300  1
  O  O10  1  0.74345400  0.75654600  0.22957700  1
  O  O11  1  0.74345400  0.24345400  0.22957700  1
loop_
_geom_bond_atom_site_label_1
_geom_bond_atom_site_label_2
_geom_bond_distance
_geom_bond_site_symmetry_2
Na0 O8 2.802897 1_455
Na0 O8 2.802897 1_555
Na0 O4 2.802897 1_545
Na0 O4 2.802897 1_555
Na0 O0 2.937867 1_555
Na0 O1 2.937867 1_555
Na0 O11 2.937867 1_455
Na0 O3 2.937867 1_545
Na0 O7 2.937867 1_455
Na0 O6 2.937867 1_545
Na0 O10 2.937867 1_445
Na0 O9 2.937867 1_445
Na1 O4 2.802897 1_655
Na1 O8 2.802897 1_555
Na1 O8 2.802897 1_565
Na1 O4 2.802897 1_555
Na1 O10 2.937867 1_555
Na1 O9 2.937867 1_555
Na1 O6 2.937867 1_555
Na1 O7 2.937867 1_555
Na1 O3 2.937867 1_555
Na1 O11 2.937867 1_555
Na1 O0 2.937867 1_555
Na1 O1 2.937867 1_555
La0 O1 2.705090 1_555
La0 O0 2.705090 1_554
La0 O3 2.705090 1_544
La0 O11 2.705090 1_455
La0 O6 2.705090 1_545
La0 O9 2.705090 1_444
La0 O10 2.705090 1_445
La0 O7 2.705090 1_454
La0 O2 2.801910 1_554
La0 O5 2.801910 1_555
La0 O5 2.801910 1_455
La0 O2 2.801910 1_544
La1 O9 2.705090 1_554
La1 O10 2.705090 1_555
La1 O6 2.705090 1_555
La1 O7 2.705090 1_554
La1 O11 2.705090 1_555
La1 O0 2.705090 1_554
La1 O3 2.705090 1_554
La1 O1 2.705090 1_555
La1 O2 2.801910 1_554
La1 O2 2.801910 1_654
La1 O5 2.801910 1_555
La1 O5 2.801910 1_565
Mg0 O4 2.042819 1_555
Mg0 O6 2.043384 1_555
Mg0 O10 2.043384 1_455
Mg0 O1 2.043384 1_555
Mg0 O11 2.043384 1_455
Mg0 O2 2.075075 1_554
Mg1 O8 2.042819 1_555
Mg1 O7 2.043384 1_555
Mg1 O9 2.043384 1_545
Mg1 O0 2.043384 1_555
Mg1 O3 2.043384 1_545
Mg1 O5 2.075075 1_556
O0 W0 1.941718 1_555
O1 W1 1.941718 1_555
O2 W0 2.032257 1_555
O3 W0 1.941718 1_555
O4 W0 1.869648 1_555
O5 W1 2.032257 1_555
O6 W1 1.941718 1_565
O7 W0 1.941718 1_655
O8 W1 1.869648 1_555
O9 W0 1.941718 1_655
O10 W1 1.941718 1_565
O11 W1 1.941718 1_555
