# generated using pymatgen
data_Nd3CuGeSe7
_symmetry_space_group_name_H-M   'P 1'
_cell_length_a   10.64326313
_cell_length_b   10.64326313
_cell_length_c   6.16035200
_cell_angle_alpha   90.00000000
_cell_angle_beta   90.00000000
_cell_angle_gamma   119.99999460
_symmetry_Int_Tables_number   1
_chemical_formula_structural   Nd3CuGeSe7
_chemical_formula_sum   'Nd6 Cu2 Ge2 Se14'
_cell_volume   604.34618111
_cell_formula_units_Z   2
loop_
 _symmetry_equiv_pos_site_id
 _symmetry_equiv_pos_as_xyz
  1  'x, y, z'
loop_
 _atom_site_type_symbol
 _atom_site_label
 _atom_site_symmetry_multiplicity
 _atom_site_fract_x
 _atom_site_fract_y
 _atom_site_fract_z
 _atom_site_occupancy
  Nd  Nd0  1  0.35530900  0.13080800  0.24870100  1
  Nd  Nd1  1  0.86919200  0.22450000  0.24870100  1
  Nd  Nd2  1  0.77550000  0.64469100  0.24870100  1
  Nd  Nd3  1  0.64469100  0.86919200  0.74870100  1
  Nd  Nd4  1  0.22450000  0.35530900  0.74870100  1
  Nd  Nd5  1  0.13080800  0.77550000  0.74870100  1
  Cu  Cu0  1  0.00000000  0.00000000  0.71558800  1
  Cu  Cu1  1  0.00000000  0.00000000  0.21558800  1
  Ge  Ge0  1  0.66666700  0.33333300  0.83230100  1
  Ge  Ge1  1  0.33333300  0.66666700  0.33230100  1
  Se  Se0  1  0.66666700  0.33333300  0.44929700  1
  Se  Se1  1  0.48130400  0.57919000  0.49163400  1
  Se  Se2  1  0.16161200  0.25671700  0.22880400  1
  Se  Se3  1  0.90489500  0.16161200  0.72880400  1
  Se  Se4  1  0.57919000  0.09788600  0.99163400  1
  Se  Se5  1  0.33333300  0.66666700  0.94929700  1
  Se  Se6  1  0.25671700  0.09510500  0.72880400  1
  Se  Se7  1  0.42081000  0.90211400  0.49163400  1
  Se  Se8  1  0.09510500  0.83838800  0.22880400  1
  Se  Se9  1  0.51869600  0.42081000  0.99163400  1
  Se  Se10  1  0.90211400  0.48130400  0.99163400  1
  Se  Se11  1  0.09788600  0.51869600  0.49163400  1
  Se  Se12  1  0.74328300  0.90489500  0.22880400  1
  Se  Se13  1  0.83838800  0.74328300  0.72880400  1
loop_
_geom_bond_atom_site_label_1
_geom_bond_atom_site_label_2
_geom_bond_distance
_geom_bond_site_symmetry_2
Nd0 Se8 2.958356 1_545
Nd0 Se2 2.970451 1_555
Nd0 Se4 3.023810 1_554
Nd0 Se6 3.097448 1_555
Nd0 Se9 3.113090 1_554
Nd0 Se0 3.164164 1_555
Nd0 Se7 3.216701 1_545
Nd0 Se6 3.332321 1_554
Nd1 Se2 2.958351 1_655
Nd1 Se12 2.970442 1_545
Nd1 Se10 3.023819 1_554
Nd1 Se3 3.097445 1_555
Nd1 Se4 3.113091 1_554
Nd1 Se0 3.164163 1_555
Nd1 Se11 3.216708 1_655
Nd1 Se3 3.332319 1_554
Nd2 Se12 2.958361 1_555
Nd2 Se8 2.970443 1_655
Nd2 Se9 3.023816 1_554
Nd2 Se13 3.097448 1_555
Nd2 Se10 3.113083 1_554
Nd2 Se0 3.164164 1_555
Nd2 Se1 3.216710 1_555
Nd2 Se13 3.332321 1_554
Nd3 Se3 2.958356 1_565
Nd3 Se13 2.970451 1_555
Nd3 Se7 3.023810 1_555
Nd3 Se12 3.097448 1_556
Nd3 Se1 3.113090 1_555
Nd3 Se5 3.164164 1_555
Nd3 Se4 3.216701 1_565
Nd3 Se12 3.332321 1_555
Nd4 Se6 2.958361 1_555
Nd4 Se3 2.970443 1_455
Nd4 Se1 3.023816 1_555
Nd4 Se2 3.097448 1_556
Nd4 Se11 3.113083 1_555
Nd4 Se5 3.164164 1_555
Nd4 Se9 3.216710 1_555
Nd4 Se2 3.332321 1_555
Nd5 Se13 2.958351 1_455
Nd5 Se6 2.970442 1_565
Nd5 Se11 3.023819 1_555
Nd5 Se8 3.097445 1_556
Nd5 Se7 3.113091 1_555
Nd5 Se5 3.164163 1_555
Nd5 Se10 3.216708 1_455
Nd5 Se8 3.332319 1_555
Cu0 Se3 2.393954 1_455
Cu0 Se6 2.393954 1_555
Cu0 Se13 2.393954 1_445
Cu1 Se8 2.393954 1_545
Cu1 Se12 2.393954 1_445
Cu1 Se2 2.393954 1_555
Ge0 Se0 2.359439 1_555
Ge0 Se4 2.403500 1_555
Ge0 Se10 2.403501 1_555
Ge0 Se9 2.403509 1_555
Ge1 Se5 2.359439 1_554
Ge1 Se7 2.403500 1_555
Ge1 Se11 2.403501 1_555
Ge1 Se1 2.403509 1_555
