# generated using pymatgen
data_Li9Mn22O48
_symmetry_space_group_name_H-M   'P 1'
_cell_length_a   5.88669293
_cell_length_b   5.88669293
_cell_length_c   28.72216516
_cell_angle_alpha   88.99609455
_cell_angle_beta   88.99609455
_cell_angle_gamma   59.89291245
_symmetry_Int_Tables_number   1
_chemical_formula_structural   Li9Mn22O48
_chemical_formula_sum   'Li9 Mn22 O48'
_cell_volume   860.85918882
_cell_formula_units_Z   1
loop_
 _symmetry_equiv_pos_site_id
 _symmetry_equiv_pos_as_xyz
  1  'x, y, z'
loop_
 _atom_site_type_symbol
 _atom_site_label
 _atom_site_symmetry_multiplicity
 _atom_site_fract_x
 _atom_site_fract_y
 _atom_site_fract_z
 _atom_site_occupancy
  Li  Li0  1  0.83952600  0.83952600  0.97740100  1
  Li  Li1  1  0.49961700  0.49961700  0.81617900  1
  Li  Li2  1  0.17250900  0.17250900  0.64401600  1
  Li  Li3  1  0.82732500  0.82732500  0.85585100  1
  Li  Li4  1  0.83407800  0.83407800  0.48217900  1
  Li  Li5  1  0.50020300  0.50020300  0.68370300  1
  Li  Li6  1  0.16006300  0.16006300  0.52260300  1
  Li  Li7  1  0.49581600  0.49581600  0.18763300  1
  Li  Li8  1  0.16801300  0.16801300  0.01757700  1
  Mn  Mn0  1  0.50092800  0.50092800  0.99751800  1
  Mn  Mn1  1  0.33344000  0.83356200  0.91670200  1
  Mn  Mn2  1  0.99989500  0.99989500  0.74989300  1
  Mn  Mn3  1  0.83356200  0.33344000  0.91670200  1
  Mn  Mn4  1  0.16643100  0.16643100  0.83582800  1
  Mn  Mn5  1  0.99992200  0.49987300  0.74990500  1
  Mn  Mn6  1  0.49987300  0.99992200  0.74990500  1
  Mn  Mn7  1  0.83323900  0.83323900  0.66398700  1
  Mn  Mn8  1  0.66648700  0.16601400  0.58312500  1
  Mn  Mn9  1  0.16601400  0.66648700  0.58312500  1
  Mn  Mn10  1  0.50004700  0.50004700  0.50251700  1
  Mn  Mn11  1  0.99952900  0.99952900  0.25084900  1
  Mn  Mn12  1  0.33402200  0.83336300  0.41647500  1
  Mn  Mn13  1  0.83336300  0.33402200  0.41647500  1
  Mn  Mn14  1  0.17112600  0.17112600  0.33333300  1
  Mn  Mn15  1  0.33439200  0.33439200  0.41629600  1
  Mn  Mn16  1  0.99984900  0.49836500  0.25060200  1
  Mn  Mn17  1  0.49836500  0.99984900  0.25060200  1
  Mn  Mn18  1  0.82902700  0.82902700  0.16609800  1
  Mn  Mn19  1  0.66711000  0.16649100  0.08323700  1
  Mn  Mn20  1  0.16649100  0.66711000  0.08323700  1
  Mn  Mn21  1  0.66659300  0.66659300  0.08341800  1
  O  O0  1  0.67720000  0.20861200  0.96216700  1
  O  O1  1  0.20861200  0.67720000  0.96216700  1
  O  O2  1  0.51499900  0.51499900  0.88302300  1
  O  O3  1  0.65303300  0.65303300  0.95556400  1
  O  O4  1  0.01404400  0.01404400  0.87777600  1
  O  O5  1  0.31228900  0.86687000  0.78796400  1
  O  O6  1  0.45837500  0.98985800  0.87128100  1
  O  O7  1  0.15186000  0.15186000  0.95048400  1
  O  O8  1  0.86687000  0.31228900  0.78796400  1
  O  O9  1  0.16401100  0.16401100  0.71426000  1
  O  O10  1  0.98985800  0.45837500  0.87128100  1
  O  O11  1  0.31322900  0.31322900  0.78896200  1
  O  O12  1  0.00980200  0.54135400  0.62846100  1
  O  O13  1  0.68656700  0.68656700  0.71082000  1
  O  O14  1  0.54135400  0.00980200  0.62846100  1
  O  O15  1  0.83578200  0.83578200  0.78552100  1
  O  O16  1  0.13286200  0.68750100  0.71180400  1
  O  O17  1  0.84810600  0.84810600  0.54927000  1
  O  O18  1  0.98568800  0.98568800  0.62201400  1
  O  O19  1  0.68750100  0.13286200  0.71180400  1
  O  O20  1  0.34714900  0.34714900  0.54400400  1
  O  O21  1  0.64678900  0.20091300  0.45453500  1
  O  O22  1  0.20091300  0.64678900  0.45453500  1
  O  O23  1  0.79183000  0.32311800  0.53778300  1
  O  O24  1  0.50293500  0.50293500  0.38285400  1
  O  O25  1  0.48451200  0.48451200  0.61683400  1
  O  O26  1  0.64724500  0.64724500  0.45558800  1
  O  O27  1  0.32311800  0.79183000  0.53778300  1
  O  O28  1  0.32898200  0.87758500  0.29299500  1
  O  O29  1  0.02355800  0.02355800  0.37839400  1
  O  O30  1  0.46166100  0.02206300  0.37849700  1
  O  O31  1  0.16620400  0.16620400  0.21748900  1
  O  O32  1  0.87758500  0.32898200  0.29299500  1
  O  O33  1  0.16569600  0.16569600  0.45143900  1
  O  O34  1  0.31646900  0.31646900  0.28792700  1
  O  O35  1  0.02206300  0.46166100  0.37849700  1
  O  O36  1  0.97598500  0.53917000  0.12229900  1
  O  O37  1  0.68122900  0.68122900  0.21162200  1
  O  O38  1  0.53917000  0.97598500  0.12229900  1
  O  O39  1  0.12580300  0.67165400  0.20727800  1
  O  O40  1  0.83223100  0.83223100  0.28305000  1
  O  O41  1  0.83033400  0.83033400  0.04761900  1
  O  O42  1  0.97593800  0.97593800  0.12203400  1
  O  O43  1  0.67165400  0.12580300  0.20727800  1
  O  O44  1  0.35404600  0.35404600  0.04445600  1
  O  O45  1  0.80027400  0.35575800  0.04528700  1
  O  O46  1  0.50204900  0.50204900  0.11882600  1
  O  O47  1  0.35575800  0.80027400  0.04528700  1
loop_
_geom_bond_atom_site_label_1
_geom_bond_atom_site_label_2
_geom_bond_distance
_geom_bond_site_symmetry_2
Li0 O1 1.929672 1_655
Li0 O0 1.929672 1_565
Li0 O3 2.015246 1_555
Li0 O41 2.017097 1_556
Li1 O2 1.929466 1_555
Li1 O5 2.030961 1_555
Li1 O8 2.030961 1_555
Li1 O11 2.070438 1_555
Li2 O12 1.930299 1_555
Li2 O14 1.930299 1_555
Li2 O9 2.017669 1_555
Li2 O18 2.019994 1_445
Li3 O6 1.930116 1_555
Li3 O10 1.930116 1_555
Li3 O4 2.018272 1_665
Li3 O15 2.020128 1_555
Li4 O17 1.935189 1_555
Li4 O22 2.022682 1_655
Li4 O21 2.022682 1_565
Li4 O26 2.067599 1_555
Li5 O25 1.930504 1_555
Li5 O19 2.030091 1_555
Li5 O16 2.030091 1_555
Li5 O13 2.069075 1_555
Li6 O27 1.924680 1_545
Li6 O23 1.924680 1_455
Li6 O20 2.016905 1_555
Li6 O33 2.043630 1_555
Li7 O43 1.962054 1_555
Li7 O39 1.962054 1_555
Li7 O46 1.976023 1_555
Li7 O37 2.026134 1_555
Li8 O7 1.937406 1_554
Li8 O47 2.027642 1_545
Li8 O45 2.027642 1_455
Li8 O44 2.063252 1_555
Mn0 O1 1.817059 1_555
Mn0 O0 1.817059 1_555
Mn0 O3 1.945309 1_555
Mn0 O44 1.995274 1_556
Mn0 O45 2.061754 1_556
Mn0 O47 2.061754 1_556
Mn1 O2 1.900342 1_555
Mn1 O7 1.900767 1_565
Mn1 O6 1.921599 1_555
Mn1 O1 1.922310 1_555
Mn1 O3 1.985182 1_555
Mn1 O4 1.985417 1_565
Mn2 O15 1.944442 1_555
Mn2 O9 1.944541 1_665
Mn2 O8 1.945883 1_565
Mn2 O5 1.945883 1_655
Mn2 O16 1.946206 1_655
Mn2 O19 1.946206 1_565
Mn3 O2 1.900342 1_555
Mn3 O7 1.900767 1_655
Mn3 O10 1.921599 1_555
Mn3 O0 1.922310 1_555
Mn3 O3 1.985182 1_555
Mn3 O4 1.985417 1_655
Mn4 O10 1.817405 1_455
Mn4 O6 1.817405 1_545
Mn4 O4 1.947464 1_555
Mn4 O11 1.993276 1_555
Mn4 O5 2.064322 1_545
Mn4 O8 2.064322 1_455
Mn5 O8 1.955291 1_555
Mn5 O16 1.955696 1_655
Mn5 O11 1.965594 1_655
Mn5 O13 1.966270 1_555
Mn5 O15 2.002397 1_555
Mn5 O9 2.002628 1_655
Mn6 O5 1.955291 1_555
Mn6 O19 1.955696 1_565
Mn6 O11 1.965594 1_565
Mn6 O13 1.966270 1_555
Mn6 O15 2.002397 1_555
Mn6 O9 2.002628 1_565
Mn7 O12 1.818357 1_655
Mn7 O14 1.818357 1_565
Mn7 O18 1.948394 1_555
Mn7 O13 1.991703 1_555
Mn7 O16 2.063671 1_655
Mn7 O19 2.063671 1_565
Mn8 O17 1.900232 1_545
Mn8 O25 1.900659 1_555
Mn8 O14 1.920366 1_555
Mn8 O23 1.924704 1_555
Mn8 O18 1.983974 1_545
Mn8 O20 1.988578 1_555
Mn9 O17 1.900232 1_455
Mn9 O25 1.900659 1_555
Mn9 O12 1.920366 1_555
Mn9 O27 1.924704 1_555
Mn9 O18 1.983974 1_455
Mn9 O20 1.988578 1_555
Mn10 O27 1.813918 1_555
Mn10 O23 1.813918 1_555
Mn10 O20 1.943631 1_555
Mn10 O26 1.997481 1_555
Mn10 O21 2.064841 1_555
Mn10 O22 2.064841 1_555
Mn11 O40 1.924680 1_555
Mn11 O31 1.934780 1_665
Mn11 O28 2.096909 1_655
Mn11 O32 2.096909 1_565
Mn11 O43 2.111079 1_565
Mn11 O39 2.111079 1_655
Mn12 O30 1.937654 1_565
Mn12 O29 1.940184 1_565
Mn12 O24 1.948473 1_555
Mn12 O22 1.951042 1_555
Mn12 O26 1.965952 1_555
Mn12 O33 1.976568 1_565
Mn13 O35 1.937654 1_655
Mn13 O29 1.940184 1_655
Mn13 O24 1.948473 1_555
Mn13 O21 1.951042 1_555
Mn13 O26 1.965952 1_555
Mn13 O33 1.976568 1_655
Mn14 O32 1.900864 1_455
Mn14 O28 1.900864 1_545
Mn14 O34 1.954763 1_555
Mn14 O29 1.965346 1_555
Mn14 O30 1.977389 1_555
Mn14 O35 1.977389 1_555
Mn15 O35 1.944195 1_555
Mn15 O30 1.944195 1_555
Mn15 O21 1.948442 1_555
Mn15 O22 1.948442 1_555
Mn15 O24 1.952475 1_555
Mn15 O33 1.977450 1_555
Mn16 O32 1.908283 1_555
Mn16 O40 1.947122 1_555
Mn16 O34 1.948680 1_655
Mn16 O31 1.948941 1_655
Mn16 O39 1.954680 1_655
Mn16 O37 1.983931 1_555
Mn17 O28 1.908283 1_555
Mn17 O40 1.947122 1_555
Mn17 O34 1.948680 1_565
Mn17 O31 1.948941 1_565
Mn17 O43 1.954680 1_565
Mn17 O37 1.983931 1_555
Mn18 O39 1.928632 1_655
Mn18 O43 1.928632 1_565
Mn18 O42 1.941966 1_555
Mn18 O38 1.949002 1_555
Mn18 O36 1.949002 1_555
Mn18 O37 1.975682 1_555
Mn19 O42 1.945858 1_545
Mn19 O44 1.960501 1_555
Mn19 O45 1.961546 1_555
Mn19 O38 1.963997 1_545
Mn19 O46 2.000328 1_555
Mn19 O41 2.003655 1_545
Mn20 O42 1.945858 1_455
Mn20 O44 1.960501 1_555
Mn20 O47 1.961546 1_555
Mn20 O36 1.963997 1_455
Mn20 O46 2.000328 1_555
Mn20 O41 2.003655 1_455
Mn21 O45 1.939667 1_555
Mn21 O47 1.939667 1_555
Mn21 O41 1.943724 1_555
Mn21 O46 1.944981 1_555
Mn21 O36 1.948906 1_555
Mn21 O38 1.948906 1_555
