# generated using pymatgen
data_Yb2Tl
_symmetry_space_group_name_H-M   'P 1'
_cell_length_a   4.87038162
_cell_length_b   6.78911746
_cell_length_c   9.74151945
_cell_angle_alpha   90.00000000
_cell_angle_beta   90.00000000
_cell_angle_gamma   90.00000000
_symmetry_Int_Tables_number   1
_chemical_formula_structural   Yb2Tl
_chemical_formula_sum   'Yb8 Tl4'
_cell_volume   322.10911631
_cell_formula_units_Z   4
loop_
 _symmetry_equiv_pos_site_id
 _symmetry_equiv_pos_as_xyz
  1  'x, y, z'
loop_
 _atom_site_type_symbol
 _atom_site_label
 _atom_site_symmetry_multiplicity
 _atom_site_fract_x
 _atom_site_fract_y
 _atom_site_fract_z
 _atom_site_occupancy
  Yb  Yb0  1  0.25000000  0.15900962  0.94293258  1
  Yb  Yb1  1  0.75000000  0.84099038  0.05706742  1
  Yb  Yb2  1  0.75000000  0.44507395  0.79935728  1
  Yb  Yb3  1  0.25000000  0.55492605  0.20064272  1
  Yb  Yb4  1  0.25000000  0.65900962  0.55706742  1
  Yb  Yb5  1  0.75000000  0.34099038  0.44293258  1
  Yb  Yb6  1  0.75000000  0.94507395  0.70064272  1
  Yb  Yb7  1  0.25000000  0.05492605  0.29935728  1
  Tl  Tl0  1  0.25000000  0.70693534  0.87531445  1
  Tl  Tl1  1  0.75000000  0.79306466  0.37531445  1
  Tl  Tl2  1  0.25000000  0.20693534  0.62468555  1
  Tl  Tl3  1  0.75000000  0.29306466  0.12468555  1
loop_
_geom_bond_atom_site_label_1
_geom_bond_atom_site_label_2
_geom_bond_distance
_geom_bond_site_symmetry_2
Tl0 Yb2 3.104555 1_555
Tl0 Yb2 3.104555 1_455
Tl0 Yb4 3.117237 1_555
Tl0 Yb0 3.139075 1_565
Tl0 Yb1 3.145364 1_456
Tl0 Yb1 3.145364 1_556
Tl0 Yb3 3.332989 1_556
Tl0 Yb6 3.382214 1_455
Tl0 Yb6 3.382214 1_555
Tl0 Yb0 3.777802 1_555
Tl1 Yb7 3.104555 1_565
Tl1 Yb7 3.104555 1_665
Tl1 Yb1 3.117237 1_555
Tl1 Yb5 3.139075 1_555
Tl1 Yb4 3.145364 1_555
Tl1 Yb4 3.145364 1_655
Tl1 Yb6 3.332989 1_555
Tl1 Yb3 3.382214 1_555
Tl1 Yb3 3.382214 1_655
Tl1 Yb5 3.777802 1_565
Tl2 Yb6 3.104555 1_545
Tl2 Yb6 3.104555 1_445
Tl2 Yb0 3.117237 1_555
Tl2 Yb4 3.139075 1_555
Tl2 Yb5 3.145364 1_555
Tl2 Yb5 3.145364 1_455
Tl2 Yb7 3.332989 1_555
Tl2 Yb2 3.382214 1_555
Tl2 Yb2 3.382214 1_455
Tl2 Yb4 3.777802 1_545
Tl3 Yb3 3.104555 1_555
Tl3 Yb3 3.104555 1_655
Tl3 Yb5 3.117237 1_555
Tl3 Yb1 3.139075 1_545
Tl3 Yb0 3.145364 1_654
Tl3 Yb0 3.145364 1_554
Tl3 Yb2 3.332989 1_554
Tl3 Yb7 3.382214 1_655
Tl3 Yb7 3.382214 1_555
Tl3 Yb1 3.777802 1_555
