# generated using pymatgen
data_CeTl2P2S7
_symmetry_space_group_name_H-M   'P 1'
_cell_length_a   6.78721845
_cell_length_b   9.39871351
_cell_length_c   19.94837811
_cell_angle_alpha   97.56144034
_cell_angle_beta   90.00000000
_cell_angle_gamma   90.00000000
_symmetry_Int_Tables_number   1
_chemical_formula_structural   CeTl2P2S7
_chemical_formula_sum   'Ce4 Tl8 P8 S28'
_cell_volume   1261.46391186
_cell_formula_units_Z   4
loop_
 _symmetry_equiv_pos_site_id
 _symmetry_equiv_pos_as_xyz
  1  'x, y, z'
loop_
 _atom_site_type_symbol
 _atom_site_label
 _atom_site_symmetry_multiplicity
 _atom_site_fract_x
 _atom_site_fract_y
 _atom_site_fract_z
 _atom_site_occupancy
  Ce  Ce0  1  0.52420684  0.68618897  0.34780083  1
  Ce  Ce1  1  0.02420684  0.81381103  0.15219917  1
  Ce  Ce2  1  0.47579316  0.31381103  0.65219917  1
  Ce  Ce3  1  0.97579316  0.18618897  0.84780083  1
  Tl  Tl0  1  0.00858413  0.63649231  0.81408732  1
  Tl  Tl1  1  0.51366529  0.74446768  0.99021824  1
  Tl  Tl2  1  0.98633471  0.24446768  0.49021824  1
  Tl  Tl3  1  0.49141587  0.13649231  0.31408732  1
  Tl  Tl4  1  0.48633471  0.25553232  0.00978176  1
  Tl  Tl5  1  0.99141587  0.36350769  0.18591268  1
  Tl  Tl6  1  0.50858413  0.86350769  0.68591268  1
  Tl  Tl7  1  0.01366529  0.75553232  0.50978176  1
  P  P0  1  0.48904492  0.59775758  0.16606835  1
  P  P1  1  0.99310513  0.07991458  0.04693920  1
  P  P2  1  0.98904492  0.90224242  0.33393165  1
  P  P3  1  0.01095508  0.09775758  0.66606835  1
  P  P4  1  0.50689487  0.57991458  0.54693920  1
  P  P5  1  0.49310513  0.42008542  0.45306080  1
  P  P6  1  0.51095508  0.40224242  0.83393165  1
  P  P7  1  0.00689487  0.92008542  0.95306080  1
  S  S0  1  0.75639838  0.02498392  0.09942669  1
  S  S1  1  0.74360162  0.52498392  0.59942669  1
  S  S2  1  0.25639838  0.47501608  0.40057331  1
  S  S3  1  0.49868575  0.54221977  0.76516765  1
  S  S4  1  0.44233538  0.80379026  0.21672962  1
  S  S5  1  0.73808139  0.58257752  0.10719930  1
  S  S6  1  0.74047179  0.45323567  0.39968367  1
  S  S7  1  0.23808139  0.91742248  0.39280070  1
  S  S8  1  0.75952821  0.95323567  0.89968367  1
  S  S9  1  0.47931391  0.23099404  0.48852599  1
  S  S10  1  0.94233538  0.69620974  0.28327038  1
  S  S11  1  0.97931391  0.26900596  0.01147401  1
  S  S12  1  0.26191861  0.41742248  0.89280070  1
  S  S13  1  0.24047179  0.04676433  0.10031633  1
  S  S14  1  0.24689096  0.05347055  0.60209225  1
  S  S15  1  0.75310904  0.94652945  0.39790775  1
  S  S16  1  0.25310904  0.55347055  0.10209225  1
  S  S17  1  0.25952821  0.54676433  0.60031633  1
  S  S18  1  0.99868575  0.95778023  0.73483235  1
  S  S19  1  0.76191861  0.08257752  0.60719930  1
  S  S20  1  0.05766462  0.30379026  0.71672962  1
  S  S21  1  0.52068609  0.76900596  0.51147401  1
  S  S22  1  0.00131425  0.04221977  0.26516765  1
  S  S23  1  0.02068609  0.73099404  0.98852599  1
  S  S24  1  0.55766462  0.19620974  0.78327038  1
  S  S25  1  0.50131425  0.45778023  0.23483235  1
  S  S26  1  0.74689096  0.44652945  0.89790775  1
  S  S27  1  0.24360162  0.97501608  0.90057331  1
loop_
_geom_bond_atom_site_label_1
_geom_bond_atom_site_label_2
_geom_bond_distance
_geom_bond_site_symmetry_2
Ce0 S25 2.904807 1_555
Ce0 S6 2.935276 1_555
Ce0 S15 2.959102 1_555
Ce0 S7 2.964279 1_555
Ce0 S2 2.983505 1_555
Ce0 S4 3.021173 1_555
Ce0 S10 3.122772 1_555
Ce0 S21 3.255444 1_555
Ce1 S22 2.904807 1_565
Ce1 S13 2.935276 1_565
Ce1 S16 2.959102 1_555
Ce1 S5 2.964279 1_455
Ce1 S0 2.983505 1_465
Ce1 S10 3.021173 1_455
Ce1 S4 3.122772 1_555
Ce1 S23 3.255444 1_554
Ce2 S3 2.904807 1_555
Ce2 S17 2.935276 1_555
Ce2 S14 2.959102 1_555
Ce2 S19 2.964279 1_555
Ce2 S1 2.983505 1_555
Ce2 S24 3.021173 1_555
Ce2 S20 3.122772 1_555
Ce2 S9 3.255444 1_555
Ce3 S18 2.904807 1_545
Ce3 S8 2.935276 1_545
Ce3 S26 2.959102 1_555
Ce3 S12 2.964279 1_655
Ce3 S27 2.983505 1_645
Ce3 S20 3.021173 1_655
Ce3 S24 3.122772 1_555
Ce3 S11 3.255444 1_556
P0 S25 2.023449 1_555
P0 S5 2.052398 1_555
P0 S16 2.055847 1_555
P0 S4 2.087249 1_555
P1 S11 1.999670 1_555
P1 S0 2.021435 1_555
P1 S13 2.033954 1_655
P2 S22 2.023449 1_665
P2 S7 2.052398 1_655
P2 S15 2.055847 1_555
P2 S10 2.087249 1_555
P3 S18 2.023449 1_445
P3 S19 2.052398 1_455
P3 S14 2.055847 1_555
P3 S20 2.087249 1_555
P4 S21 1.999670 1_555
P4 S1 2.021435 1_555
P4 S17 2.033954 1_555
P5 S9 1.999670 1_555
P5 S2 2.021435 1_555
P5 S6 2.033954 1_555
P6 S3 2.023449 1_555
P6 S12 2.052398 1_555
P6 S26 2.055847 1_555
P6 S24 2.087249 1_555
P7 S23 1.999670 1_555
P7 S27 2.021435 1_555
P7 S8 2.033954 1_455
S5 Tl5 3.242258 1_555
S7 Tl3 3.242258 1_565
S12 Tl0 3.242258 1_555
S14 Tl6 3.150236 1_545
S15 Tl3 3.150236 1_565
S16 Tl5 3.150236 1_455
S19 Tl6 3.242258 1_545
S26 Tl0 3.150236 1_655
