# generated using pymatgen
data_Na4V2O7
_symmetry_space_group_name_H-M   'P 1'
_cell_length_a   5.84112822
_cell_length_b   8.32643050
_cell_length_c   32.97887191
_cell_angle_alpha   94.71246635
_cell_angle_beta   90.05102544
_cell_angle_gamma   110.58446903
_symmetry_Int_Tables_number   1
_chemical_formula_structural   Na4V2O7
_chemical_formula_sum   'Na32 V16 O56'
_cell_volume   1495.70938367
_cell_formula_units_Z   8
loop_
 _symmetry_equiv_pos_site_id
 _symmetry_equiv_pos_as_xyz
  1  'x, y, z'
loop_
 _atom_site_type_symbol
 _atom_site_label
 _atom_site_symmetry_multiplicity
 _atom_site_fract_x
 _atom_site_fract_y
 _atom_site_fract_z
 _atom_site_occupancy
  Na  Na0  1  0.81104532  0.99622320  0.25072793  1
  Na  Na1  1  0.91304921  0.47746347  0.10398096  1
  Na  Na2  1  0.09122365  0.52732789  0.89597438  1
  Na  Na3  1  0.67853525  0.71720849  0.97721616  1
  Na  Na4  1  0.80939552  0.01463882  0.35000628  1
  Na  Na5  1  0.32084435  0.28489771  0.02269451  1
  Na  Na6  1  0.03623906  0.61580082  0.68885096  1
  Na  Na7  1  0.12103434  0.79404743  0.37214760  1
  Na  Na8  1  0.41864923  0.38623060  0.81147764  1
  Na  Na9  1  0.56418413  0.47923369  0.60515239  1
  Na  Na10  1  0.96221561  0.28511517  0.52256461  1
  Na  Na11  1  0.03775668  0.71921513  0.47772979  1
  Na  Na12  1  0.29737283  0.13618389  0.43944109  1
  Na  Na13  1  0.15668847  0.86077025  0.05994457  1
  Na  Na14  1  0.32788575  0.20700651  0.12834833  1
  Na  Na15  1  0.87714035  0.20355720  0.62758387  1
  Na  Na16  1  0.59449016  0.76055746  0.76909919  1
  Na  Na17  1  0.84319646  0.13983091  0.93942167  1
  Na  Na18  1  0.80009008  0.98712965  0.15072978  1
  Na  Na19  1  0.49823923  0.49917857  0.49973491  1
  Na  Na20  1  0.99861534  0.49914888  0.00035736  1
  Na  Na21  1  0.41188316  0.24617388  0.23170969  1
  Na  Na22  1  0.58075355  0.61528915  0.18906947  1
  Na  Na23  1  0.18448731  0.98536306  0.64946513  1
  Na  Na24  1  0.82824699  0.24189349  0.73101643  1
  Na  Na25  1  0.19705858  0.01430646  0.85016610  1
  Na  Na26  1  0.43586890  0.52784093  0.39594912  1
  Na  Na27  1  0.96788700  0.38102281  0.31092689  1
  Na  Na28  1  0.16315363  0.75155958  0.26868419  1
  Na  Na29  1  0.69112599  0.85863713  0.56037314  1
  Na  Na30  1  0.67407160  0.79180289  0.87216422  1
  Na  Na31  1  0.19130633  0.00371147  0.74942520  1
  V  V0  1  0.65355656  0.89833268  0.44617685  1
  V  V1  1  0.39080771  0.18688406  0.32348179  1
  V  V2  1  0.44328778  0.39134888  0.69589463  1
  V  V3  1  0.79388343  0.18397501  0.82314751  1
  V  V4  1  0.89674965  0.34183103  0.42952416  1
  V  V5  1  0.20536171  0.81454531  0.17675656  1
  V  V6  1  0.24750300  0.89954541  0.94596289  1
  V  V7  1  0.60983476  0.81396911  0.67678184  1
  V  V8  1  0.95211287  0.39452940  0.19601152  1
  V  V9  1  0.55805309  0.60782917  0.30469600  1
  V  V10  1  0.09860853  0.65817457  0.57041275  1
  V  V11  1  0.55687098  0.65876397  0.07061410  1
  V  V12  1  0.34784627  0.10143405  0.55369984  1
  V  V13  1  0.44290998  0.34343528  0.92987580  1
  V  V14  1  0.75537125  0.10213654  0.05407702  1
  V  V15  1  0.04855563  0.60766450  0.80466303  1
  O  O0  1  0.33353496  0.58101880  0.56270139  1
  O  O1  1  0.68954649  0.86829839  0.04935222  1
  O  O2  1  0.77926611  0.81657474  0.40639700  1
  O  O3  1  0.07050967  0.23159310  0.19041803  1
  O  O4  1  0.43002702  0.91151398  0.70214846  1
  O  O5  1  0.83851942  0.77263762  0.30983278  1
  O  O6  1  0.92726948  0.76908108  0.81082887  1
  O  O7  1  0.53393925  0.43845112  0.74566594  1
  O  O8  1  0.33387611  0.66446790  0.32986964  1
  O  O9  1  0.42847936  0.57954457  0.67064311  1
  O  O10  1  0.66933252  0.33636203  0.17138763  1
  O  O11  1  0.01473428  0.15903744  0.79181410  1
  O  O12  1  0.23093955  0.18452003  0.59440351  1
  O  O13  1  0.19753760  0.90249907  0.13184333  1
  O  O14  1  0.66395697  0.42060340  0.43764893  1
  O  O15  1  0.31527671  0.13376304  0.95123751  1
  O  O16  1  0.46570811  0.55753563  0.25505253  1
  O  O17  1  0.95884365  0.18679082  0.09433997  1
  O  O18  1  0.88789711  0.18928637  0.01067133  1
  O  O19  1  0.75492731  0.42302863  0.93799324  1
  O  O20  1  0.24550951  0.58270289  0.06190384  1
  O  O21  1  0.91290004  0.44581176  0.24577190  1
  O  O22  1  0.16234034  0.22764207  0.69031725  1
  O  O23  1  0.64158697  0.66996150  0.12057970  1
  O  O24  1  0.18055769  0.86683973  0.54838202  1
  O  O25  1  0.08724485  0.55936146  0.75479933  1
  O  O26  1  0.29895148  0.09739151  0.36835416  1
  O  O27  1  0.14269872  0.16336965  0.29275703  1
  O  O28  1  0.35283180  0.32980001  0.88009057  1
  O  O29  1  0.33116634  0.66623521  0.82943052  1
  O  O30  1  0.48508284  0.91170180  0.20155651  1
  O  O31  1  0.80108570  0.09399828  0.86774953  1
  O  O32  1  0.66750636  0.33508723  0.67061045  1
  O  O33  1  0.51377630  0.08807763  0.79830924  1
  O  O34  1  0.15298700  0.58053565  0.16993049  1
  O  O35  1  0.97002667  0.32624822  0.37959409  1
  O  O36  1  0.11510984  0.81068840  0.98913691  1
  O  O37  1  0.84261457  0.52853405  0.54252108  1
  O  O38  1  0.57199364  0.09090678  0.29798991  1
  O  O39  1  0.81552528  0.13271450  0.45120443  1
  O  O40  1  0.69647391  0.81089862  0.48959414  1
  O  O41  1  0.86003855  0.83876958  0.70709557  1
  O  O42  1  0.65223121  0.13844622  0.56360710  1
  O  O43  1  0.34856064  0.85505263  0.43516155  1
  O  O44  1  0.31312919  0.47031980  0.95790588  1
  O  O45  1  0.98199502  0.83709950  0.20790776  1
  O  O46  1  0.15334168  0.46897408  0.45760096  1
  O  O47  1  0.02305220  0.67276833  0.62021782  1
  O  O48  1  0.85031328  0.41861379  0.83013791  1
  O  O49  1  0.30399481  0.19194975  0.51075244  1
  O  O50  1  0.68577505  0.53103905  0.04263634  1
  O  O51  1  0.57269846  0.42108342  0.33039645  1
  O  O52  1  0.04278367  0.81583517  0.90588841  1
  O  O53  1  0.69926437  0.90169730  0.63167710  1
  O  O54  1  0.48957145  0.14093558  0.06411638  1
  O  O55  1  0.51254465  0.86032857  0.93538085  1
loop_
_geom_bond_atom_site_label_1
_geom_bond_atom_site_label_2
_geom_bond_distance
_geom_bond_site_symmetry_2
Na0 O45 2.317781 1_555
Na0 O27 2.322369 1_665
Na0 O38 2.361506 1_565
Na0 O30 2.369569 1_555
Na0 O5 2.845482 1_555
Na0 O3 2.941245 1_665
Na1 O20 2.339360 1_655
Na1 O34 2.504641 1_655
Na1 O17 2.521760 1_555
Na1 O50 2.571793 1_555
Na1 O23 2.650938 1_555
Na1 O10 2.758135 1_555
Na2 O19 2.352901 1_455
Na2 O48 2.507919 1_455
Na2 O52 2.511325 1_555
Na2 O44 2.581499 1_555
Na2 O28 2.634694 1_555
Na2 O29 2.720426 1_555
Na3 O55 2.311692 1_555
Na3 O36 2.411547 1_655
Na3 O44 2.425745 1_555
Na3 O1 2.587925 1_556
Na3 O50 2.766743 1_556
Na3 O19 2.849772 1_555
Na4 O5 2.376400 1_545
Na4 O38 2.462299 1_555
Na4 O35 2.536720 1_555
Na4 O2 2.551401 1_545
Na4 O26 2.749710 1_655
Na4 O27 2.753887 1_655
Na5 O54 2.317679 1_555
Na5 O18 2.391026 1_455
Na5 O50 2.425018 1_555
Na5 O15 2.573306 1_554
Na5 O44 2.746225 1_554
Na5 O20 2.873293 1_555
Na6 O25 2.303268 1_555
Na6 O47 2.357095 1_555
Na6 O41 2.455439 1_455
Na6 O9 2.481931 1_555
Na6 O32 2.586637 1_455
Na6 O4 2.717350 1_555
Na7 O8 2.313629 1_555
Na7 O2 2.351327 1_455
Na7 O26 2.383610 1_565
Na7 O43 2.385339 1_555
Na7 O5 2.589438 1_455
Na8 O7 2.303246 1_555
Na8 O28 2.353287 1_555
Na8 O11 2.494556 1_555
Na8 O48 2.510141 1_555
Na8 O29 2.580453 1_555
Na8 O33 2.730140 1_555
Na9 O0 2.342605 1_555
Na9 O9 2.482520 1_555
Na9 O12 2.536406 1_555
Na9 O37 2.599173 1_555
Na9 O47 2.618512 1_655
Na9 O32 2.719864 1_555
Na10 O42 2.307168 1_555
Na10 O49 2.404110 1_655
Na10 O37 2.409659 1_555
Na10 O39 2.573708 1_555
Na10 O46 2.742506 1_655
Na10 O0 2.868467 1_655
Na11 O43 2.316781 1_555
Na11 O40 2.394207 1_455
Na11 O46 2.449624 1_555
Na11 O24 2.537850 1_555
Na11 O37 2.770361 1_455
Na11 O14 2.886867 1_455
Na12 O26 2.340552 1_555
Na12 O49 2.357052 1_555
Na12 O43 2.454933 1_545
Na12 O14 2.579600 1_555
Na12 O39 2.831880 1_455
Na13 O36 2.335296 1_554
Na13 O13 2.367549 1_555
Na13 O54 2.449241 1_565
Na13 O20 2.550135 1_555
Na13 O1 2.773731 1_455
Na14 O10 2.320721 1_555
Na14 O17 2.375387 1_455
Na14 O13 2.390036 1_545
Na14 O54 2.420579 1_555
Na14 O3 2.577833 1_555
Na15 O32 2.324439 1_555
Na15 O53 2.373752 1_545
Na15 O12 2.387292 1_655
Na15 O42 2.403681 1_555
Na15 O22 2.605077 1_655
Na16 O6 2.357864 1_555
Na16 O29 2.520735 1_555
Na16 O41 2.554490 1_555
Na16 O7 2.628184 1_555
Na16 O25 2.860940 1_555
Na16 O4 2.946030 1_555
Na16 O33 3.010053 1_565
Na17 O18 2.350172 1_556
Na17 O31 2.361737 1_555
Na17 O55 2.439682 1_545
Na17 O19 2.588717 1_555
Na17 O15 2.803103 1_655
Na18 O3 2.376793 1_665
Na18 O30 2.440407 1_555
Na18 O17 2.551293 1_565
Na18 O23 2.582189 1_555
Na18 O13 2.711985 1_655
Na18 O45 2.749922 1_555
Na19 O46 2.373593 1_555
Na19 O37 2.385291 1_555
Na19 O14 2.405437 1_555
Na19 O0 2.435995 1_555
Na19 O49 2.464923 1_555
Na19 O40 2.493855 1_555
Na20 O50 2.374592 1_555
Na20 O44 2.377409 1_654
Na20 O20 2.396009 1_655
Na20 O19 2.409157 1_554
Na20 O18 2.482315 1_555
Na20 O36 2.499166 1_654
Na21 O3 2.375488 1_555
Na21 O10 2.497912 1_555
Na21 O27 2.544072 1_555
Na21 O16 2.551702 1_555
Na21 O21 2.827164 1_555
Na21 O38 2.938510 1_555
Na21 O30 3.051345 1_545
Na22 O16 2.316315 1_555
Na22 O23 2.343485 1_555
Na22 O45 2.460701 1_555
Na22 O34 2.486782 1_555
Na22 O10 2.573825 1_555
Na22 O30 2.715958 1_555
Na23 O22 2.374586 1_565
Na23 O4 2.499007 1_555
Na23 O12 2.510003 1_565
Na23 O47 2.540497 1_555
Na23 O53 2.721014 1_455
Na23 O41 2.730325 1_455
Na24 O22 2.401089 1_655
Na24 O32 2.493030 1_555
Na24 O11 2.536638 1_655
Na24 O25 2.595480 1_655
Na24 O7 2.777978 1_555
Na24 O33 2.959630 1_555
Na24 O4 2.991751 1_545
Na25 O6 2.373610 1_445
Na25 O33 2.470559 1_555
Na25 O52 2.524830 1_545
Na25 O28 2.567936 1_555
Na25 O31 2.672930 1_455
Na25 O11 2.751278 1_555
Na26 O14 2.344887 1_555
Na26 O51 2.507877 1_555
Na26 O2 2.528564 1_555
Na26 O46 2.588153 1_555
Na26 O35 2.673848 1_455
Na26 O8 2.698096 1_555
Na27 O21 2.307016 1_555
Na27 O35 2.347357 1_555
Na27 O27 2.410380 1_655
Na27 O51 2.522078 1_555
Na27 O8 2.595766 1_655
Na27 O38 2.695498 1_555
Na28 O5 2.380651 1_455
Na28 O21 2.500790 1_455
Na28 O8 2.517391 1_555
Na28 O45 2.530838 1_455
Na28 O16 2.797306 1_555
Na29 O40 2.337505 1_555
Na29 O53 2.347288 1_555
Na29 O42 2.412969 1_565
Na29 O0 2.519206 1_555
Na29 O24 2.864111 1_655
Na30 O29 2.317632 1_555
Na30 O52 2.360407 1_655
Na30 O31 2.377106 1_565
Na30 O55 2.397663 1_555
Na30 O6 2.540457 1_555
Na31 O11 2.309565 1_555
Na31 O41 2.321764 1_445
Na31 O33 2.349141 1_555
Na31 O4 2.350423 1_545
Na31 O22 2.850160 1_555
Na31 O6 2.972023 1_445
O0 V10 1.718749 1_555
O1 V14 1.840299 1_565
O1 V11 1.840482 1_555
O2 V0 1.711763 1_555
O3 V8 1.723870 1_455
O4 V7 1.718241 1_555
O5 V9 1.725149 1_555
O6 V15 1.724686 1_655
O7 V2 1.695595 1_555
O8 V9 1.731509 1_555
O9 V7 1.858457 1_555
O9 V2 1.861737 1_555
O10 V8 1.729965 1_555
O11 V3 1.711878 1_455
O12 V12 1.711162 1_555
O13 V5 1.712885 1_555
O14 V4 1.717521 1_555
O15 V13 1.840598 1_555
O15 V6 1.841604 1_545
O16 V9 1.695180 1_555
O17 V14 1.710801 1_555
O18 V14 1.718302 1_555
O19 V13 1.718474 1_555
O20 V11 1.717711 1_555
O21 V8 1.697679 1_555
O22 V2 1.723436 1_555
O23 V11 1.705782 1_555
O24 V10 1.843614 1_555
O24 V12 1.844545 1_565
O25 V15 1.694976 1_555
O26 V1 1.713046 1_555
O27 V1 1.711898 1_555
O28 V13 1.706243 1_555
O29 V15 1.730920 1_555
O30 V5 1.718258 1_555
O31 V3 1.711662 1_555
O32 V2 1.731826 1_555
O33 V3 1.719597 1_555
O34 V5 1.857266 1_555
O34 V8 1.859585 1_455
O35 V4 1.707821 1_555
O36 V6 1.716231 1_555
O37 V10 1.716571 1_655
O38 V1 1.717958 1_555
O39 V0 1.838319 1_545
O39 V4 1.841829 1_555
O40 V0 1.715232 1_555
O41 V7 1.711500 1_555
O42 V12 1.720456 1_555
O43 V0 1.720913 1_555
O44 V13 1.717355 1_555
O45 V5 1.713457 1_655
O46 V4 1.716161 1_455
O47 V10 1.706928 1_555
O48 V3 1.857898 1_555
O48 V15 1.860603 1_655
O49 V12 1.717613 1_555
O50 V11 1.718240 1_555
O51 V1 1.858257 1_555
O51 V9 1.858344 1_555
O52 V6 1.709427 1_555
O53 V7 1.711934 1_555
O54 V14 1.720608 1_555
O55 V6 1.721299 1_555
