# generated using pymatgen
data_Sr(H8O5)2
_symmetry_space_group_name_H-M   'P 1'
_cell_length_a   6.48935706
_cell_length_b   6.48935706
_cell_length_c   11.71760720
_cell_angle_alpha   89.26618706
_cell_angle_beta   89.26618706
_cell_angle_gamma   93.02513537
_symmetry_Int_Tables_number   1
_chemical_formula_structural   Sr(H8O5)2
_chemical_formula_sum   'Sr2 H32 O20'
_cell_volume   492.67603802
_cell_formula_units_Z   2
loop_
 _symmetry_equiv_pos_site_id
 _symmetry_equiv_pos_as_xyz
  1  'x, y, z'
loop_
 _atom_site_type_symbol
 _atom_site_label
 _atom_site_symmetry_multiplicity
 _atom_site_fract_x
 _atom_site_fract_y
 _atom_site_fract_z
 _atom_site_occupancy
  Sr  Sr0  1  0.97335600  0.99728500  0.74307800  1
  Sr  Sr1  1  0.99728500  0.97335600  0.24307800  1
  H  H0  1  0.41791000  0.92559000  0.63940600  1
  H  H1  1  0.26997100  0.83817000  0.54540100  1
  H  H2  1  0.62010100  0.26597900  0.64960300  1
  H  H3  1  0.70143800  0.14830700  0.54088200  1
  H  H4  1  0.07165300  0.39523700  0.58769200  1
  H  H5  1  0.28761600  0.40299000  0.65179300  1
  H  H6  1  0.95786900  0.62526800  0.64100400  1
  H  H7  1  0.68656000  0.59008600  0.65262300  1
  H  H8  1  0.39523700  0.07165300  0.08769200  1
  H  H9  1  0.40299000  0.28761600  0.15179300  1
  H  H10  1  0.59008600  0.68656000  0.15262300  1
  H  H11  1  0.62526800  0.95786900  0.14100400  1
  H  H12  1  0.26597900  0.62010100  0.14960300  1
  H  H13  1  0.14830700  0.70143800  0.04088200  1
  H  H14  1  0.92559000  0.41791000  0.13940600  1
  H  H15  1  0.83817000  0.26997100  0.04540100  1
  H  H16  1  0.61538000  0.05251300  0.37474100  1
  H  H17  1  0.62537100  0.29291300  0.34491000  1
  H  H18  1  0.36520300  0.73450000  0.35841200  1
  H  H19  1  0.32112200  0.97946600  0.38825300  1
  H  H20  1  0.69254200  0.63639700  0.35513900  1
  H  H21  1  0.81928700  0.70535800  0.46902800  1
  H  H22  1  0.08335900  0.34593100  0.40163700  1
  H  H23  1  0.30252700  0.36860200  0.33808000  1
  H  H24  1  0.63639700  0.69254200  0.85513900  1
  H  H25  1  0.70535800  0.81928700  0.96902800  1
  H  H26  1  0.34593100  0.08335900  0.90163700  1
  H  H27  1  0.36860200  0.30252700  0.83808000  1
  H  H28  1  0.97946600  0.32112200  0.88825300  1
  H  H29  1  0.73450000  0.36520300  0.85841200  1
  H  H30  1  0.05251300  0.61538000  0.87474100  1
  H  H31  1  0.29291300  0.62537100  0.84491000  1
  O  O0  1  0.53473000  0.47349100  0.68061000  1
  O  O1  1  0.47349100  0.53473000  0.18061000  1
  O  O2  1  0.47876200  0.52289000  0.30742400  1
  O  O3  1  0.52289000  0.47876200  0.80742400  1
  O  O4  1  0.27757000  0.86617100  0.62837000  1
  O  O5  1  0.68124000  0.12946800  0.62401200  1
  O  O6  1  0.13738500  0.35166600  0.65750400  1
  O  O7  1  0.83388100  0.69581400  0.62048200  1
  O  O8  1  0.35166600  0.13738500  0.15750400  1
  O  O9  1  0.69581400  0.83388100  0.12048200  1
  O  O10  1  0.12946800  0.68124000  0.12401200  1
  O  O11  1  0.86617100  0.27757000  0.12837000  1
  O  O12  1  0.70398800  0.17822700  0.37882300  1
  O  O13  1  0.26965000  0.83575300  0.39495200  1
  O  O14  1  0.81533600  0.72077700  0.38411900  1
  O  O15  1  0.18600500  0.26234100  0.36515200  1
  O  O16  1  0.72077700  0.81533600  0.88411900  1
  O  O17  1  0.26234100  0.18600500  0.86515200  1
  O  O18  1  0.83575300  0.26965000  0.89495200  1
  O  O19  1  0.17822700  0.70398800  0.87882300  1
loop_
_geom_bond_atom_site_label_1
_geom_bond_atom_site_label_2
_geom_bond_distance
_geom_bond_site_symmetry_2
H0 O4 0.980835 1_555
H1 O4 0.992686 1_555
H2 O5 1.035833 1_555
H2 O0 1.529192 1_555
H3 O5 0.986385 1_555
H4 O6 0.973044 1_555
H5 O6 1.014558 1_555
H5 O0 1.683832 1_555
H6 O7 0.977652 1_555
H6 Sr0 2.705591 1_555
H7 O7 1.200616 1_555
H7 O0 1.247993 1_555
H8 O8 0.973044 1_555
H9 O8 1.014558 1_555
H9 O1 1.683832 1_555
H10 O9 1.200616 1_555
H10 O1 1.247993 1_555
H11 O9 0.977652 1_555
H11 Sr1 2.705591 1_555
H12 O10 1.035833 1_555
H12 O1 1.529192 1_555
H13 O10 0.986385 1_555
H14 O11 0.980835 1_555
H15 O11 0.992686 1_555
H16 O12 0.975013 1_555
H17 O12 1.004874 1_555
H18 O13 1.021256 1_555
H18 O2 1.703606 1_555
H19 O13 0.975734 1_555
H19 Sr1 2.719578 1_455
H20 O14 1.007851 1_555
H20 O2 1.643870 1_555
H21 O14 0.999465 1_555
H22 O15 0.978519 1_555
H23 O15 1.039766 1_555
H23 O2 1.516193 1_555
H24 O16 1.007851 1_555
H24 O3 1.643870 1_555
H25 O16 0.999465 1_555
H26 O17 0.978519 1_555
H27 O17 1.039766 1_555
H27 O3 1.516193 1_555
H28 O18 0.975734 1_555
H28 Sr0 2.719578 1_545
H29 O18 1.021256 1_555
H29 O3 1.703606 1_555
H30 O19 0.975013 1_555
H31 O19 1.004874 1_555
O0 O3 1.487883 1_555
O1 O2 1.487883 1_555
O4 Sr0 2.562508 1_455
O5 Sr0 2.546463 1_545
O6 Sr0 2.661270 1_445
O7 Sr0 2.574596 1_555
O8 Sr1 2.661270 1_445
O9 Sr1 2.574596 1_555
O10 Sr1 2.546463 1_455
O11 Sr1 2.562508 1_545
O12 Sr1 2.857243 1_545
O13 Sr1 2.700880 1_455
O14 Sr1 2.547225 1_555
O15 Sr1 2.633236 1_445
O16 Sr0 2.547225 1_555
O17 Sr0 2.633236 1_445
O18 Sr0 2.700880 1_545
O19 Sr0 2.857243 1_455
