# generated using pymatgen
data_Na6Mg2C4SO16
_symmetry_space_group_name_H-M   'P 1'
_cell_length_a   9.93960486
_cell_length_b   9.93960486
_cell_length_c   9.93960486
_cell_angle_alpha   60.00000000
_cell_angle_beta   60.00000000
_cell_angle_gamma   60.00000000
_symmetry_Int_Tables_number   1
_chemical_formula_structural   Na6Mg2C4SO16
_chemical_formula_sum   'Na12 Mg4 C8 S2 O32'
_cell_volume   694.37225856
_cell_formula_units_Z   2
loop_
 _symmetry_equiv_pos_site_id
 _symmetry_equiv_pos_as_xyz
  1  'x, y, z'
loop_
 _atom_site_type_symbol
 _atom_site_label
 _atom_site_symmetry_multiplicity
 _atom_site_fract_x
 _atom_site_fract_y
 _atom_site_fract_z
 _atom_site_occupancy
  Na  Na0  1  0.71805400  0.28194600  0.71805400  1
  Na  Na1  1  0.71805400  0.71805400  0.28194600  1
  Na  Na2  1  0.28194600  0.71805400  0.71805400  1
  Na  Na3  1  0.71805400  0.28194600  0.28194600  1
  Na  Na4  1  0.28194600  0.28194600  0.71805400  1
  Na  Na5  1  0.28194600  0.71805400  0.28194600  1
  Na  Na6  1  0.53194600  0.96805400  0.53194600  1
  Na  Na7  1  0.53194600  0.53194600  0.96805400  1
  Na  Na8  1  0.96805400  0.53194600  0.53194600  1
  Na  Na9  1  0.53194600  0.96805400  0.96805400  1
  Na  Na10  1  0.96805400  0.96805400  0.53194600  1
  Na  Na11  1  0.96805400  0.53194600  0.96805400  1
  Mg  Mg0  1  0.62500000  0.12500000  0.12500000  1
  Mg  Mg1  1  0.12500000  0.12500000  0.62500000  1
  Mg  Mg2  1  0.12500000  0.62500000  0.12500000  1
  Mg  Mg3  1  0.12500000  0.12500000  0.12500000  1
  C  C0  1  0.34272900  0.34272900  0.97181200  1
  C  C1  1  0.90727100  0.90727100  0.90727100  1
  C  C2  1  0.90727100  0.27818800  0.90727100  1
  C  C3  1  0.27818800  0.90727100  0.90727100  1
  C  C4  1  0.90727100  0.90727100  0.27818800  1
  C  C5  1  0.34272900  0.34272900  0.34272900  1
  C  C6  1  0.34272900  0.97181200  0.34272900  1
  C  C7  1  0.97181200  0.34272900  0.34272900  1
  S  S0  1  0.50000000  0.50000000  0.50000000  1
  S  S1  1  0.75000000  0.75000000  0.75000000  1
  O  O0  1  0.31536600  0.56154500  0.56154500  1
  O  O1  1  0.68845500  0.68845500  0.93463400  1
  O  O2  1  0.93463400  0.68845500  0.68845500  1
  O  O3  1  0.56154500  0.56154500  0.56154500  1
  O  O4  1  0.56154500  0.31536600  0.56154500  1
  O  O5  1  0.56154500  0.56154500  0.31536600  1
  O  O6  1  0.68845500  0.93463400  0.68845500  1
  O  O7  1  0.68845500  0.68845500  0.68845500  1
  O  O8  1  0.97015300  0.22975600  0.31393500  1
  O  O9  1  0.22975600  0.97015300  0.48615600  1
  O  O10  1  0.31393500  0.48615600  0.97015300  1
  O  O11  1  0.22975600  0.31393500  0.97015300  1
  O  O12  1  0.97015300  0.31393500  0.48615600  1
  O  O13  1  0.97015300  0.48615600  0.22975600  1
  O  O14  1  0.31393500  0.97015300  0.22975600  1
  O  O15  1  0.48615600  0.22975600  0.97015300  1
  O  O16  1  0.48615600  0.97015300  0.31393500  1
  O  O17  1  0.31393500  0.22975600  0.48615600  1
  O  O18  1  0.76384400  0.93606500  0.02024400  1
  O  O19  1  0.02024400  0.76384400  0.93606500  1
  O  O20  1  0.93606500  0.02024400  0.76384400  1
  O  O21  1  0.76384400  0.27984700  0.93606500  1
  O  O22  1  0.76384400  0.02024400  0.27984700  1
  O  O23  1  0.93606500  0.27984700  0.02024400  1
  O  O24  1  0.27984700  0.76384400  0.02024400  1
  O  O25  1  0.27984700  0.93606500  0.76384400  1
  O  O26  1  0.02024400  0.93606500  0.27984700  1
  O  O27  1  0.93606500  0.76384400  0.27984700  1
  O  O28  1  0.02024400  0.27984700  0.76384400  1
  O  O29  1  0.27984700  0.02024400  0.93606500  1
  O  O30  1  0.48615600  0.31393500  0.22975600  1
  O  O31  1  0.22975600  0.48615600  0.31393500  1
loop_
_geom_bond_atom_site_label_1
_geom_bond_atom_site_label_2
_geom_bond_distance
_geom_bond_site_symmetry_2
Na0 O21 2.415527 1_555
Na0 O20 2.415527 1_555
Na0 O12 2.445604 1_555
Na0 O15 2.445604 1_555
Na0 O4 2.517312 1_555
Na0 O3 2.517317 1_555
Na1 O27 2.415527 1_555
Na1 O18 2.415527 1_555
Na1 O16 2.445604 1_555
Na1 O13 2.445604 1_555
Na1 O5 2.517312 1_555
Na1 O3 2.517317 1_555
Na2 O25 2.415527 1_555
Na2 O19 2.415527 1_555
Na2 O10 2.445604 1_555
Na2 O9 2.445604 1_555
Na2 O0 2.517312 1_555
Na2 O3 2.517317 1_555
Na3 O23 2.415527 1_555
Na3 O22 2.415527 1_555
Na3 O8 2.445604 1_555
Na3 O30 2.445604 1_555
Na3 O4 2.517321 1_555
Na3 O5 2.517321 1_555
Na4 O29 2.415527 1_555
Na4 O28 2.415527 1_555
Na4 O11 2.445604 1_555
Na4 O17 2.445604 1_555
Na4 O4 2.517321 1_555
Na4 O0 2.517321 1_555
Na5 O26 2.415527 1_555
Na5 O24 2.415527 1_555
Na5 O14 2.445604 1_555
Na5 O31 2.445604 1_555
Na5 O5 2.517321 1_555
Na5 O0 2.517321 1_555
Na6 O17 2.415527 1_565
Na6 O16 2.415527 1_555
Na6 O22 2.445604 1_565
Na6 O25 2.445604 1_555
Na6 O6 2.517312 1_555
Na6 O7 2.517317 1_555
Na7 O30 2.415527 1_556
Na7 O10 2.415527 1_555
Na7 O24 2.445604 1_556
Na7 O21 2.445604 1_555
Na7 O1 2.517312 1_555
Na7 O7 2.517317 1_555
Na8 O31 2.415527 1_655
Na8 O12 2.415527 1_555
Na8 O28 2.445604 1_655
Na8 O27 2.445604 1_555
Na8 O2 2.517312 1_555
Na8 O7 2.517317 1_555
Na9 O15 2.415527 1_565
Na9 O14 2.415527 1_556
Na9 O18 2.445604 1_556
Na9 O29 2.445604 1_565
Na9 O6 2.517321 1_555
Na9 O1 2.517321 1_555
Na10 O9 2.415527 1_655
Na10 O8 2.415527 1_565
Na10 O20 2.445604 1_565
Na10 O26 2.445604 1_655
Na10 O2 2.517321 1_555
Na10 O6 2.517321 1_555
Na11 O13 2.415527 1_556
Na11 O11 2.415527 1_655
Na11 O19 2.445604 1_655
Na11 O23 2.445604 1_556
Na11 O2 2.517321 1_555
Na11 O1 2.517321 1_555
Mg0 O30 2.107636 1_555
Mg0 O22 2.107636 1_555
Mg0 O21 2.107636 1_554
Mg0 O16 2.107636 1_545
Mg0 O15 2.107636 1_554
Mg0 O18 2.107636 1_545
Mg1 O17 2.107636 1_555
Mg1 O28 2.107636 1_555
Mg1 O25 2.107636 1_545
Mg1 O12 2.107636 1_455
Mg1 O9 2.107636 1_545
Mg1 O20 2.107636 1_455
Mg2 O31 2.107636 1_555
Mg2 O24 2.107636 1_555
Mg2 O27 2.107636 1_455
Mg2 O10 2.107636 1_554
Mg2 O13 2.107636 1_455
Mg2 O19 2.107636 1_554
Mg3 O8 2.107636 1_455
Mg3 O14 2.107636 1_545
Mg3 O11 2.107636 1_554
Mg3 O29 2.107636 1_554
Mg3 O23 2.107636 1_455
Mg3 O26 2.107636 1_545
C0 O11 1.299121 1_555
C0 O15 1.299128 1_555
C0 O10 1.299131 1_555
C1 O19 1.299127 1_655
C1 O20 1.299127 1_565
C1 O18 1.299127 1_556
C2 O23 1.299121 1_556
C2 O28 1.299128 1_655
C2 O21 1.299131 1_555
C3 O29 1.299121 1_565
C3 O24 1.299128 1_556
C3 O25 1.299131 1_555
C4 O26 1.299121 1_655
C4 O22 1.299128 1_565
C4 O27 1.299131 1_555
C5 O30 1.299127 1_555
C5 O31 1.299127 1_555
C5 O17 1.299127 1_555
C6 O14 1.299121 1_555
C6 O9 1.299128 1_555
C6 O16 1.299131 1_555
C7 O8 1.299121 1_555
C7 O13 1.299128 1_555
C7 O12 1.299131 1_555
O0 S0 1.498426 1_555
O1 S1 1.498426 1_555
O2 S1 1.498426 1_555
O3 S0 1.498434 1_555
O4 S0 1.498426 1_555
O5 S0 1.498426 1_555
O6 S1 1.498426 1_555
O7 S1 1.498434 1_555
