# generated using pymatgen
data_SrLiAlF6
_symmetry_space_group_name_H-M   'P 1'
_cell_length_a   5.04037593
_cell_length_b   5.04037565
_cell_length_c   10.24660224
_cell_angle_alpha   90.00000000
_cell_angle_beta   90.00000000
_cell_angle_gamma   120.00000807
_symmetry_Int_Tables_number   1
_chemical_formula_structural   SrLiAlF6
_chemical_formula_sum   'Sr2 Li2 Al2 F12'
_cell_volume   225.44276805
_cell_formula_units_Z   2
loop_
 _symmetry_equiv_pos_site_id
 _symmetry_equiv_pos_as_xyz
  1  'x, y, z'
loop_
 _atom_site_type_symbol
 _atom_site_label
 _atom_site_symmetry_multiplicity
 _atom_site_fract_x
 _atom_site_fract_y
 _atom_site_fract_z
 _atom_site_occupancy
  Sr  Sr0  1  0.00000000  -0.00000000  0.00000000  1
  Sr  Sr1  1  0.00000000  -0.00000000  0.50000000  1
  Li  Li0  1  0.33333300  0.66666700  0.25000000  1
  Li  Li1  1  0.66666700  0.33333300  0.75000000  1
  Al  Al0  1  0.66666700  0.33333300  0.25000000  1
  Al  Al1  1  0.33333300  0.66666700  0.75000000  1
  F  F0  1  0.38606777  0.02793611  0.14895323  1
  F  F1  1  0.61393223  0.64186833  0.64895323  1
  F  F2  1  0.35813167  0.97206389  0.64895323  1
  F  F3  1  0.02793611  0.38606777  0.64895323  1
  F  F4  1  0.97206389  0.61393223  0.35104677  1
  F  F5  1  0.97206389  0.35813167  0.14895323  1
  F  F6  1  0.64186833  0.61393223  0.14895323  1
  F  F7  1  0.64186833  0.02793611  0.35104677  1
  F  F8  1  0.02793611  0.64186833  0.85104677  1
  F  F9  1  0.38606777  0.35813167  0.35104677  1
  F  F10  1  0.61393223  0.97206389  0.85104677  1
  F  F11  1  0.35813167  0.38606777  0.85104677  1
loop_
_geom_bond_atom_site_label_1
_geom_bond_atom_site_label_2
_geom_bond_distance
_geom_bond_site_symmetry_2
Al0 F7 1.806857 1_555
Al0 F5 1.806857 1_555
Al0 F0 1.806859 1_555
Al0 F4 1.806859 1_555
Al0 F6 1.806861 1_555
Al0 F9 1.806861 1_555
Al1 F2 1.806857 1_555
Al1 F8 1.806857 1_555
Al1 F10 1.806859 1_555
Al1 F3 1.806859 1_555
Al1 F11 1.806861 1_555
Al1 F1 1.806861 1_555
F0 Li0 1.993605 1_545
F0 Sr0 2.421144 1_555
F1 Li1 1.993609 1_555
F1 Sr1 2.421144 1_665
F2 Li1 1.993606 1_565
F2 Sr1 2.421144 1_565
F3 Li1 1.993605 1_455
F3 Sr1 2.421144 1_555
F4 Li0 1.993605 1_655
F4 Sr1 2.421144 1_665
F5 Li0 1.993606 1_655
F5 Sr0 2.421144 1_655
F6 Li0 1.993609 1_555
F6 Sr0 2.421144 1_665
F7 Li0 1.993606 1_545
F7 Sr1 2.421144 1_655
F8 Li1 1.993606 1_455
F8 Sr0 2.421144 1_566
F9 Li0 1.993609 1_555
F9 Sr1 2.421144 1_555
F10 Li1 1.993605 1_565
F10 Sr0 2.421144 1_666
F11 Li1 1.993609 1_555
F11 Sr0 2.421144 1_556
