# generated using pymatgen
data_KCo2H3(SeO5)2
_symmetry_space_group_name_H-M   'P 1'
_cell_length_a   7.79949609
_cell_length_b   7.79949609
_cell_length_c   7.08282900
_cell_angle_alpha   67.68745464
_cell_angle_beta   67.68745464
_cell_angle_gamma   54.50178796
_symmetry_Int_Tables_number   1
_chemical_formula_structural   KCo2H3(SeO5)2
_chemical_formula_sum   'K1 Co2 H3 Se2 O10'
_cell_volume   317.18432294
_cell_formula_units_Z   1
loop_
 _symmetry_equiv_pos_site_id
 _symmetry_equiv_pos_as_xyz
  1  'x, y, z'
loop_
 _atom_site_type_symbol
 _atom_site_label
 _atom_site_symmetry_multiplicity
 _atom_site_fract_x
 _atom_site_fract_y
 _atom_site_fract_z
 _atom_site_occupancy
  K  K0  1  0.48339200  0.48339200  0.42023400  1
  Co  Co0  1  0.50145700  0.95682300  0.58746800  1
  Co  Co1  1  0.95682300  0.50145700  0.58746800  1
  H  H0  1  0.02745900  0.02745900  0.49761500  1
  H  H1  1  0.50640700  0.50640700  0.91455700  1
  H  H2  1  0.98186500  0.98186500  0.46699400  1
  Se  Se0  1  0.11789900  0.11789900  0.88041300  1
  Se  Se1  1  0.82355300  0.82355300  0.22323900  1
  O  O0  1  0.72506800  0.72506800  0.75915100  1
  O  O1  1  0.37063900  0.37063900  0.91930800  1
  O  O2  1  0.69011500  0.69011500  0.41514400  1
  O  O3  1  0.05334900  0.67022700  0.32627700  1
  O  O4  1  0.27285600  0.88751500  0.78219600  1
  O  O5  1  0.67022700  0.05334900  0.32627700  1
  O  O6  1  0.88751500  0.27285600  0.78219600  1
  O  O7  1  0.25225200  0.25225200  0.68228100  1
  O  O8  1  0.69099100  0.69099100  0.96633100  1
  O  O9  1  0.43213400  0.43213400  0.02285300  1
loop_
_geom_bond_atom_site_label_1
_geom_bond_atom_site_label_2
_geom_bond_distance
_geom_bond_site_symmetry_2
K0 O2 2.851554 1_555
K0 O7 2.939029 1_555
K0 O5 3.016397 1_555
K0 O3 3.016397 1_555
K0 O9 3.183703 1_555
K0 O1 3.196759 1_555
K0 O8 3.273926 1_554
Co0 O5 1.991527 1_565
Co0 O4 2.014802 1_555
Co0 O0 2.016897 1_555
Co0 O7 2.126205 1_565
Co0 O2 2.234157 1_555
Co1 O3 1.991527 1_655
Co1 O6 2.014802 1_555
Co1 O0 2.016897 1_555
Co1 O7 2.126205 1_655
Co1 O2 2.234157 1_555
H0 H2 0.750963 1_445
H1 O9 0.987140 1_556
O0 O8 1.335796 1_555
O1 O9 1.341382 1_556
O2 Se1 1.767334 1_555
O3 Se1 1.736763 1_455
O4 Se0 1.721059 1_565
O5 Se1 1.736763 1_545
O6 Se0 1.721059 1_655
O7 Se0 1.790954 1_555
