# generated using pymatgen
data_SnHg2(SBr)2
_symmetry_space_group_name_H-M   'P 1'
_cell_length_a   8.24090400
_cell_length_b   9.60794700
_cell_length_c   12.90337503
_cell_angle_alpha   56.42028076
_cell_angle_beta   90.00000000
_cell_angle_gamma   90.00000000
_symmetry_Int_Tables_number   1
_chemical_formula_structural   SnHg2(SBr)2
_chemical_formula_sum   'Sn4 Hg8 S8 Br8'
_cell_volume   851.16705721
_cell_formula_units_Z   4
loop_
 _symmetry_equiv_pos_site_id
 _symmetry_equiv_pos_as_xyz
  1  'x, y, z'
loop_
 _atom_site_type_symbol
 _atom_site_label
 _atom_site_symmetry_multiplicity
 _atom_site_fract_x
 _atom_site_fract_y
 _atom_site_fract_z
 _atom_site_occupancy
  Sn  Sn0  1  0.41520700  0.14280900  0.57482900  1
  Sn  Sn1  1  0.08479300  0.14280900  0.07482900  1
  Sn  Sn2  1  0.58479300  0.85719100  0.42517100  1
  Sn  Sn3  1  0.91520700  0.85719100  0.92517100  1
  Hg  Hg0  1  0.55275100  0.24530400  0.88378400  1
  Hg  Hg1  1  0.94724900  0.24530400  0.38378400  1
  Hg  Hg2  1  0.44724900  0.75469600  0.11621600  1
  Hg  Hg3  1  0.05275100  0.75469600  0.61621600  1
  Hg  Hg4  1  0.81662800  0.41331600  0.62390600  1
  Hg  Hg5  1  0.68337200  0.41331600  0.12390600  1
  Hg  Hg6  1  0.18337200  0.58668400  0.37609400  1
  Hg  Hg7  1  0.31662800  0.58668400  0.87609400  1
  S  S0  1  0.68272000  0.15274000  0.76560700  1
  S  S1  1  0.81728000  0.15274000  0.26560700  1
  S  S2  1  0.31728000  0.84726000  0.23439300  1
  S  S3  1  0.18272000  0.84726000  0.73439300  1
  S  S4  1  0.41343500  0.30480300  0.01825900  1
  S  S5  1  0.08656500  0.30480300  0.51825900  1
  S  S6  1  0.58656500  0.69519700  0.98174100  1
  S  S7  1  0.91343500  0.69519700  0.48174100  1
  Br  Br0  1  0.60113600  0.43231200  0.38666300  1
  Br  Br1  1  0.89886400  0.43231200  0.88666300  1
  Br  Br2  1  0.39886400  0.56768800  0.61333700  1
  Br  Br3  1  0.10113600  0.56768800  0.11333700  1
  Br  Br4  1  0.32599200  0.09743900  0.38273600  1
  Br  Br5  1  0.17400800  0.09743900  0.88273600  1
  Br  Br6  1  0.67400800  0.90256100  0.61726400  1
  Br  Br7  1  0.82599200  0.90256100  0.11726400  1
loop_
_geom_bond_atom_site_label_1
_geom_bond_atom_site_label_2
_geom_bond_distance
_geom_bond_site_symmetry_2
Hg0 S4 2.398550 1_556
Hg0 S0 2.400740 1_555
Hg1 S5 2.398550 1_655
Hg1 S1 2.400740 1_555
Hg2 S6 2.398550 1_554
Hg2 S2 2.400740 1_555
Hg3 S7 2.398550 1_455
Hg3 S3 2.400740 1_555
Hg4 S0 2.401073 1_555
Hg4 S7 2.416748 1_555
Hg4 S5 3.076688 1_655
Hg5 S1 2.401073 1_555
Hg5 S6 2.416748 1_554
Hg5 S4 3.076688 1_555
Hg6 S2 2.401073 1_555
Hg6 S5 2.416748 1_555
Hg6 S7 3.076688 1_455
Hg7 S3 2.401073 1_555
Hg7 S4 2.416748 1_556
Hg7 S6 3.076688 1_555
S0 Sn3 3.083156 1_545
S1 Sn2 3.083156 1_545
S2 Sn1 3.083156 1_565
S3 Sn0 3.083156 1_565
S4 Sn1 3.005573 1_555
S5 Sn0 3.005573 1_555
S6 Sn3 3.005573 1_555
S7 Sn2 3.005573 1_555
Br0 Sn0 2.917022 1_555
Br1 Sn1 2.917022 1_656
Br2 Sn2 2.917022 1_555
Br3 Sn3 2.917022 1_454
Br4 Sn0 2.840681 1_555
Br4 Sn2 2.962858 1_545
Br5 Sn1 2.840681 1_556
Br5 Sn3 2.962858 1_445
Br6 Sn2 2.840681 1_555
Br6 Sn0 2.962858 1_565
Br7 Sn3 2.840681 1_554
Br7 Sn1 2.962858 1_665
