# generated using pymatgen
data_Gd2CdSe4
_symmetry_space_group_name_H-M   'P 1'
_cell_length_a   7.64788193
_cell_length_b   7.64788193
_cell_length_c   7.64788193
_cell_angle_alpha   110.62690829
_cell_angle_beta   110.62690829
_cell_angle_gamma   107.18377735
_symmetry_Int_Tables_number   1
_chemical_formula_structural   Gd2CdSe4
_chemical_formula_sum   'Gd4 Cd2 Se8'
_cell_volume   343.94163805
_cell_formula_units_Z   2
loop_
 _symmetry_equiv_pos_site_id
 _symmetry_equiv_pos_as_xyz
  1  'x, y, z'
loop_
 _atom_site_type_symbol
 _atom_site_label
 _atom_site_symmetry_multiplicity
 _atom_site_fract_x
 _atom_site_fract_y
 _atom_site_fract_z
 _atom_site_occupancy
  Gd  Gd0  1  0.01021100  0.62500000  0.88521100  1
  Gd  Gd1  1  0.87500000  0.98978900  0.61478900  1
  Gd  Gd2  1  0.73978900  0.12500000  0.11478900  1
  Gd  Gd3  1  0.37500000  0.26021100  0.38521100  1
  Cd  Cd0  1  0.50000000  0.50000000  0.00000000  1
  Cd  Cd1  1  0.25000000  0.75000000  0.50000000  1
  Se  Se0  1  0.63231300  0.25574000  0.76031900  1
  Se  Se1  1  0.00574000  0.88231300  0.26031900  1
  Se  Se2  1  0.74426000  0.50457900  0.37657300  1
  Se  Se3  1  0.49542100  0.87199400  0.23968100  1
  Se  Se4  1  0.62199400  0.74542100  0.73968100  1
  Se  Se5  1  0.11768700  0.37800600  0.12342700  1
  Se  Se6  1  0.25457900  0.99426000  0.87657300  1
  Se  Se7  1  0.12800600  0.36768700  0.62342700  1
loop_
_geom_bond_atom_site_label_1
_geom_bond_atom_site_label_2
_geom_bond_distance
_geom_bond_site_symmetry_2
Gd0 Se7 2.869667 1_555
Gd0 Se1 2.869667 1_556
Gd0 Se0 2.927851 1_455
Gd0 Se6 2.927851 1_555
Gd0 Se3 3.138482 1_556
Gd0 Se5 3.138482 1_556
Gd0 Se2 3.303294 1_455
Gd0 Se4 3.303294 1_455
Gd1 Se6 2.869667 1_655
Gd1 Se3 2.869667 1_555
Gd1 Se4 2.927851 1_555
Gd1 Se7 2.927851 1_665
Gd1 Se2 3.138482 1_555
Gd1 Se1 3.138482 1_655
Gd1 Se5 3.303294 1_666
Gd1 Se0 3.303294 1_565
Gd2 Se2 2.869667 1_555
Gd2 Se4 2.869667 1_544
Gd2 Se3 2.927851 1_545
Gd2 Se5 2.927851 1_655
Gd2 Se6 3.138482 1_544
Gd2 Se0 3.138482 1_554
Gd2 Se1 3.303294 1_645
Gd2 Se7 3.303294 1_655
Gd3 Se5 2.869667 1_555
Gd3 Se0 2.869667 1_555
Gd3 Se1 2.927851 1_545
Gd3 Se2 2.927851 1_555
Gd3 Se4 3.138482 1_555
Gd3 Se7 3.138482 1_555
Gd3 Se6 3.303294 1_544
Gd3 Se3 3.303294 1_545
Cd0 Se3 2.808018 1_555
Cd0 Se2 2.808018 1_555
Cd0 Se0 2.808018 1_554
Cd0 Se7 2.808018 1_554
Cd0 Se6 3.356167 1_544
Cd0 Se5 3.356167 1_555
Cd0 Se1 3.356167 1_655
Cd0 Se4 3.356167 1_554
Cd1 Se4 2.808018 1_555
Cd1 Se6 2.808018 1_555
Cd1 Se5 2.808018 1_555
Cd1 Se1 2.808018 1_555
Cd1 Se2 3.356167 1_455
Cd1 Se0 3.356167 1_565
Cd1 Se7 3.356167 1_555
Cd1 Se3 3.356167 1_555
