# generated using pymatgen
data_Zr6Ni16Ge7
_symmetry_space_group_name_H-M   'P 1'
_cell_length_a   8.17814916
_cell_length_b   8.17816392
_cell_length_c   8.17815930
_cell_angle_alpha   60.00589956
_cell_angle_beta   60.00584231
_cell_angle_gamma   60.00584357
_symmetry_Int_Tables_number   1
_chemical_formula_structural   Zr6Ni16Ge7
_chemical_formula_sum   'Zr6 Ni16 Ge7'
_cell_volume   386.82017650
_cell_formula_units_Z   1
loop_
 _symmetry_equiv_pos_site_id
 _symmetry_equiv_pos_as_xyz
  1  'x, y, z'
loop_
 _atom_site_type_symbol
 _atom_site_label
 _atom_site_symmetry_multiplicity
 _atom_site_fract_x
 _atom_site_fract_y
 _atom_site_fract_z
 _atom_site_occupancy
  Zr  Zr0  1  0.20750708  0.79249250  0.79249699  1
  Zr  Zr1  1  0.20750610  0.79249560  0.20750321  1
  Zr  Zr2  1  0.79249586  0.20750575  0.20750475  1
  Zr  Zr3  1  0.79249341  0.20750692  0.79249477  1
  Zr  Zr4  1  0.79249560  0.79249310  0.20750691  1
  Zr  Zr5  1  0.20750623  0.20750379  0.79249708  1
  Ni  Ni0  1  0.38117407  0.38119548  0.38118186  1
  Ni  Ni1  1  0.50807919  0.83062428  0.83064442  1
  Ni  Ni2  1  0.61880918  0.61878859  0.14357763  1
  Ni  Ni3  1  0.16935211  0.16938034  0.49191443  1
  Ni  Ni4  1  0.83064903  0.83062321  0.50807703  1
  Ni  Ni5  1  0.16935698  0.16938541  0.16936237  1
  Ni  Ni6  1  0.83064513  0.83061911  0.83063967  1
  Ni  Ni7  1  0.38118648  0.38121008  0.85643169  1
  Ni  Ni8  1  0.83064259  0.50807449  0.83063797  1
  Ni  Ni9  1  0.61882233  0.61880187  0.61881562  1
  Ni  Ni10  1  0.38119472  0.85642195  0.38120430  1
  Ni  Ni11  1  0.14357391  0.61879183  0.61880551  1
  Ni  Ni12  1  0.61880139  0.14358839  0.61879352  1
  Ni  Ni13  1  0.16935895  0.49191691  0.16936393  1
  Ni  Ni14  1  0.85643572  0.38120476  0.38119181  1
  Ni  Ni15  1  0.49191247  0.16937949  0.16935627  1
  Ge  Ge0  1  0.00000014  0.00000246  0.49999773  1
  Ge  Ge1  1  0.50000331  -0.00000580  0.50000286  1
  Ge  Ge2  1  0.50000157  0.49999977  0.50000170  1
  Ge  Ge3  1  0.00000204  0.49999600  0.00000348  1
  Ge  Ge4  1  0.50000105  0.50000107  -0.00000417  1
  Ge  Ge5  1  0.49999872  0.00000068  -0.00000047  1
  Ge  Ge6  1  -0.00000436  0.50000098  0.50000015  1
loop_
_geom_bond_atom_site_label_1
_geom_bond_atom_site_label_2
_geom_bond_distance
_geom_bond_site_symmetry_2
Ni0 Ni3 2.585552 1_555
Ni0 Ni13 2.585553 1_555
Ni0 Ni15 2.585568 1_555
Ni0 Ni11 2.748238 1_555
Ni0 Ni2 2.748286 1_555
Ni0 Ni12 2.748348 1_555
Ni0 Zr1 2.795106 1_555
Ni0 Zr5 2.795208 1_555
Ni0 Zr2 2.795250 1_555
Ni1 Ni9 2.585621 1_555
Ni1 Ni2 2.585858 1_556
Ni1 Ni12 2.586037 1_565
Ni1 Ni6 2.637952 1_555
Ni1 Ni8 2.638151 1_555
Ni1 Ni4 2.638249 1_555
Ni1 Zr0 2.804886 1_555
Ni1 Zr1 2.805224 1_556
Ni1 Zr5 2.805327 1_565
Ni2 Ni8 2.585834 1_554
Ni2 Ni6 2.585959 1_554
Ni2 Zr4 2.794926 1_555
Ni2 Zr2 2.794964 1_555
Ni2 Zr1 2.795102 1_555
Ni3 Ni5 2.637841 1_555
Ni3 Zr5 2.804966 1_555
Ni3 Zr3 2.805245 1_455
Ni3 Zr0 2.805402 1_545
Ni4 Ni9 2.585610 1_555
Ni4 Ni6 2.637936 1_555
Ni4 Ni8 2.638141 1_555
Ni4 Zr4 2.804894 1_555
Ni4 Zr1 2.805216 1_655
Ni4 Zr2 2.805343 1_565
Ni5 Ni7 2.585888 1_554
Ni5 Zr2 2.805125 1_455
Ni5 Zr5 2.805147 1_554
Ni5 Zr1 2.805277 1_545
Ni6 Ni8 2.637840 1_555
Ni6 Zr0 2.805111 1_655
Ni6 Zr4 2.805138 1_556
Ni6 Zr3 2.805240 1_565
Ni7 Ni9 2.748283 1_555
Ni7 Zr5 2.794926 1_555
Ni7 Zr0 2.794951 1_555
Ni7 Zr3 2.795114 1_555
Ni8 Ni9 2.585602 1_555
Ni8 Zr3 2.804918 1_555
Ni8 Zr5 2.805240 1_655
Ni8 Zr2 2.805254 1_556
Ni9 Zr3 2.795081 1_555
Ni9 Zr4 2.795177 1_555
Ni9 Zr0 2.795219 1_555
Ni10 Ni3 2.585946 1_565
Ni10 Ni15 2.585974 1_565
Ni10 Ni5 2.586081 1_565
Ni10 Ni9 2.748348 1_555
Ni10 Ni11 2.748418 1_555
Ni10 Ni2 2.748470 1_555
Ni10 Zr1 2.794900 1_555
Ni10 Zr0 2.795028 1_555
Ni10 Zr4 2.795082 1_555
Ni11 Ni8 2.585790 1_455
Ni11 Ni4 2.585793 1_455
Ni11 Ni6 2.585911 1_455
Ni11 Ni7 2.748347 1_555
Ni11 Zr0 2.794957 1_555
Ni11 Zr5 2.794995 1_555
Ni11 Zr1 2.795093 1_555
Ni12 Ni4 2.586019 1_545
Ni12 Ni6 2.586138 1_545
Ni12 Ni14 2.748416 1_555
Ni12 Ni7 2.748469 1_555
Ni12 Zr3 2.794881 1_555
Ni12 Zr2 2.795017 1_555
Ni12 Zr5 2.795060 1_555
Ni13 Ni14 2.585713 1_455
Ni13 Ni7 2.585754 1_554
Ni13 Ni5 2.637730 1_555
Ni13 Ni3 2.638048 1_555
Ni13 Ni15 2.638060 1_555
Ni13 Zr1 2.804979 1_555
Ni13 Zr4 2.805255 1_455
Ni13 Zr0 2.805276 1_554
Ni14 Ni3 2.585710 1_655
Ni14 Ni5 2.585839 1_655
Ni14 Ni9 2.748244 1_555
Ni14 Ni2 2.748358 1_555
Ni14 Zr2 2.794953 1_555
Ni14 Zr4 2.794987 1_555
Ni14 Zr3 2.795085 1_555
Ni15 Ni7 2.585783 1_554
Ni15 Ni5 2.637858 1_555
Ni15 Ni3 2.638172 1_555
Ni15 Zr2 2.804955 1_555
Ni15 Zr3 2.805262 1_554
Ni15 Zr4 2.805393 1_545
Ge0 Ni3 2.361437 1_555
Ge0 Ni4 2.361459 1_445
Ge0 Ni5 2.361686 1_555
Ge0 Ni6 2.361712 1_445
Ge0 Ni10 2.548279 1_545
Ge0 Ni12 2.548308 1_455
Ge0 Ni14 2.548330 1_455
Ge0 Ni11 2.548388 1_545
Ge0 Zr2 2.932960 1_455
Ge0 Zr1 2.932983 1_545
Ge0 Zr3 2.932985 1_455
Ge0 Zr0 2.933011 1_545
Ge1 Ni1 2.361587 1_545
Ge1 Ni4 2.361607 1_545
Ge1 Ni15 2.361660 1_555
Ge1 Ni3 2.361682 1_555
Ge1 Ni10 2.547875 1_545
Ge1 Ni12 2.547905 1_555
Ge1 Ni9 2.548248 1_545
Ge1 Ni0 2.548304 1_555
Ge1 Zr4 2.933045 1_545
Ge1 Zr0 2.933052 1_545
Ge1 Zr5 2.933080 1_555
Ge1 Zr2 2.933082 1_555
Ge2 Ni9 2.379979 1_555
Ge2 Ni0 2.380078 1_555
Ge2 Ni12 2.380093 1_555
Ge2 Ni10 2.380165 1_555
Ge2 Ni2 2.380176 1_555
Ge2 Ni11 2.380196 1_555
Ge2 Ni7 2.380216 1_555
Ge2 Ni14 2.380239 1_555
Ge3 Ni13 2.361367 1_555
Ge3 Ni8 2.361423 1_454
Ge3 Ni5 2.361508 1_555
Ge3 Ni6 2.361582 1_454
Ge3 Ni7 2.548209 1_554
Ge3 Ni14 2.548237 1_455
Ge3 Ni2 2.548265 1_455
Ge3 Ni11 2.548303 1_554
Ge3 Zr2 2.932956 1_455
Ge3 Zr5 2.932967 1_554
Ge3 Zr4 2.932980 1_455
Ge3 Zr0 2.932986 1_554
Ge4 Ni1 2.361464 1_554
Ge4 Ni15 2.361478 1_555
Ge4 Ni8 2.361576 1_554
Ge4 Ni13 2.361607 1_555
Ge4 Ni7 2.547809 1_554
Ge4 Ni2 2.547865 1_555
Ge4 Ni9 2.548167 1_554
Ge4 Ni0 2.548203 1_555
Ge4 Zr0 2.933023 1_554
Ge4 Zr3 2.933035 1_554
Ge4 Zr1 2.933070 1_555
Ge4 Zr2 2.933079 1_555
Ge5 Ni1 2.361462 1_544
Ge5 Ni15 2.361464 1_555
Ge5 Ni5 2.361731 1_555
Ge5 Ni6 2.361737 1_544
Ge5 Ni10 2.548350 1_545
Ge5 Ni12 2.548361 1_554
Ge5 Ni7 2.548378 1_554
Ge5 Ni2 2.548399 1_545
Ge5 Zr5 2.932945 1_554
Ge5 Zr1 2.932961 1_545
Ge5 Zr3 2.932981 1_554
Ge5 Zr4 2.932998 1_545
Ge6 Ni4 2.361452 1_455
Ge6 Ni3 2.361463 1_555
Ge6 Ni8 2.361553 1_455
Ge6 Ni13 2.361568 1_555
Ge6 Ni14 2.547773 1_455
Ge6 Ni11 2.547844 1_555
Ge6 Ni9 2.548116 1_455
Ge6 Ni0 2.548149 1_555
Ge6 Zr4 2.933026 1_455
Ge6 Zr3 2.933044 1_455
Ge6 Zr1 2.933089 1_555
Ge6 Zr5 2.933102 1_555
