# generated using pymatgen
data_Rb2CuCl3
_symmetry_space_group_name_H-M   'P 1'
_cell_length_a   4.20110588
_cell_length_b   12.55221055
_cell_length_c   12.98827930
_cell_angle_alpha   90.00000000
_cell_angle_beta   90.00000000
_cell_angle_gamma   90.00000000
_symmetry_Int_Tables_number   1
_chemical_formula_structural   Rb2CuCl3
_chemical_formula_sum   'Rb8 Cu4 Cl12'
_cell_volume   684.91308252
_cell_formula_units_Z   4
loop_
 _symmetry_equiv_pos_site_id
 _symmetry_equiv_pos_as_xyz
  1  'x, y, z'
loop_
 _atom_site_type_symbol
 _atom_site_label
 _atom_site_symmetry_multiplicity
 _atom_site_fract_x
 _atom_site_fract_y
 _atom_site_fract_z
 _atom_site_occupancy
  Rb  Rb0  1  0.75000000  0.32744692  0.02562512  1
  Rb  Rb1  1  0.25000000  0.17255308  0.52562512  1
  Rb  Rb2  1  0.75000000  0.82744692  0.47437488  1
  Rb  Rb3  1  0.25000000  0.51317809  0.32672326  1
  Rb  Rb4  1  0.75000000  0.98682191  0.82672326  1
  Rb  Rb5  1  0.25000000  0.67255308  0.97437488  1
  Rb  Rb6  1  0.75000000  0.48682191  0.67327674  1
  Rb  Rb7  1  0.25000000  0.01317809  0.17327674  1
  Cu  Cu0  1  0.75000000  0.24365239  0.30861996  1
  Cu  Cu1  1  0.25000000  0.75634761  0.69138004  1
  Cu  Cu2  1  0.75000000  0.74365239  0.19138004  1
  Cu  Cu3  1  0.25000000  0.25634761  0.80861996  1
  Cl  Cl0  1  0.25000000  0.93396160  0.64029928  1
  Cl  Cl1  1  0.75000000  0.35981052  0.44766192  1
  Cl  Cl2  1  0.25000000  0.64018948  0.55233808  1
  Cl  Cl3  1  0.25000000  0.77239380  0.27754129  1
  Cl  Cl4  1  0.25000000  0.43396160  0.85970072  1
  Cl  Cl5  1  0.75000000  0.85981052  0.05233808  1
  Cl  Cl6  1  0.75000000  0.06603840  0.35970072  1
  Cl  Cl7  1  0.25000000  0.27239380  0.22245871  1
  Cl  Cl8  1  0.75000000  0.72760620  0.77754129  1
  Cl  Cl9  1  0.75000000  0.22760620  0.72245871  1
  Cl  Cl10  1  0.25000000  0.14018948  0.94766192  1
  Cl  Cl11  1  0.75000000  0.56603840  0.14029928  1
loop_
_geom_bond_atom_site_label_1
_geom_bond_atom_site_label_2
_geom_bond_distance
_geom_bond_site_symmetry_2
Cl0 Cu1 2.326071 1_555
Cl0 Rb4 3.273438 1_455
Cl0 Rb4 3.273438 1_555
Cl0 Rb2 3.293056 1_555
Cl0 Rb2 3.293056 1_455
Cl0 Rb1 3.344772 1_565
Cl1 Cu0 2.321038 1_555
Cl1 Rb3 3.253568 1_555
Cl1 Rb3 3.253568 1_655
Cl1 Rb1 3.310970 1_555
Cl1 Rb1 3.310970 1_655
Cl1 Rb6 3.335963 1_555
Cl2 Cu1 2.321038 1_555
Cl2 Rb6 3.253568 1_455
Cl2 Rb6 3.253568 1_555
Cl2 Rb2 3.310970 1_555
Cl2 Rb2 3.310970 1_455
Cl2 Rb3 3.335963 1_555
Cl3 Cu2 2.407245 1_555
Cl3 Cu2 2.407245 1_455
Cl3 Rb7 3.311896 1_565
Cl3 Rb3 3.315843 1_555
Cl3 Rb2 3.380192 1_455
Cl3 Rb2 3.380192 1_555
Cl4 Cu3 2.326071 1_555
Cl4 Rb6 3.273438 1_555
Cl4 Rb6 3.273438 1_455
Cl4 Rb0 3.293056 1_456
Cl4 Rb0 3.293056 1_556
Cl4 Rb5 3.344772 1_555
Cl5 Cu2 2.321038 1_555
Cl5 Rb7 3.253568 1_565
Cl5 Rb7 3.253568 1_665
Cl5 Rb5 3.310970 1_654
Cl5 Rb5 3.310970 1_554
Cl5 Rb4 3.335963 1_554
Cl6 Cu0 2.326071 1_555
Cl6 Rb7 3.273438 1_655
Cl6 Rb7 3.273438 1_555
Cl6 Rb1 3.293056 1_655
Cl6 Rb1 3.293056 1_555
Cl6 Rb2 3.344772 1_545
Cl7 Cu0 2.407245 1_455
Cl7 Cu0 2.407245 1_555
Cl7 Rb3 3.311896 1_555
Cl7 Rb7 3.315843 1_555
Cl7 Rb0 3.380192 1_455
Cl7 Rb0 3.380192 1_555
Cl8 Cu1 2.407245 1_655
Cl8 Cu1 2.407245 1_555
Cl8 Rb6 3.311896 1_555
Cl8 Rb4 3.315843 1_555
Cl8 Rb5 3.380192 1_555
Cl8 Rb5 3.380192 1_655
Cl9 Cu3 2.407245 1_555
Cl9 Cu3 2.407245 1_655
Cl9 Rb4 3.311896 1_545
Cl9 Rb6 3.315843 1_555
Cl9 Rb1 3.380192 1_655
Cl9 Rb1 3.380192 1_555
Cl10 Cu3 2.321038 1_555
Cl10 Rb4 3.253568 1_545
Cl10 Rb4 3.253568 1_445
Cl10 Rb0 3.310970 1_456
Cl10 Rb0 3.310970 1_556
Cl10 Rb7 3.335963 1_556
Cl11 Cu2 2.326071 1_555
Cl11 Rb3 3.273438 1_555
Cl11 Rb3 3.273438 1_655
Cl11 Rb5 3.293056 1_654
Cl11 Rb5 3.293056 1_554
Cl11 Rb0 3.344772 1_555
