# generated using pymatgen
data_Cr6PbO18
_symmetry_space_group_name_H-M   'P 1'
_cell_length_a   6.42765890
_cell_length_b   6.42765890
_cell_length_c   8.27882417
_cell_angle_alpha   74.90263163
_cell_angle_beta   74.90263163
_cell_angle_gamma   70.31021814
_symmetry_Int_Tables_number   1
_chemical_formula_structural   Cr6PbO18
_chemical_formula_sum   'Cr6 Pb1 O18'
_cell_volume   305.26095820
_cell_formula_units_Z   1
loop_
 _symmetry_equiv_pos_site_id
 _symmetry_equiv_pos_as_xyz
  1  'x, y, z'
loop_
 _atom_site_type_symbol
 _atom_site_label
 _atom_site_symmetry_multiplicity
 _atom_site_fract_x
 _atom_site_fract_y
 _atom_site_fract_z
 _atom_site_occupancy
  Cr  Cr0  1  0.83000500  0.34194000  0.15602400  1
  Cr  Cr1  1  0.50000000  0.00000000  0.50000000  1
  Cr  Cr2  1  0.16999500  0.65806000  0.84397600  1
  Cr  Cr3  1  0.34194000  0.83000500  0.15602400  1
  Cr  Cr4  1  0.00000000  0.50000000  0.50000000  1
  Cr  Cr5  1  0.65806000  0.16999500  0.84397600  1
  Pb  Pb0  1  0.00000000  0.00000000  0.50000000  1
  O  O0  1  0.74938500  0.25061500  0.00000000  1
  O  O1  1  0.40908600  0.91899900  0.33682300  1
  O  O2  1  0.08100100  0.59091400  0.66317700  1
  O  O3  1  0.50000000  0.00000000  0.00000000  1
  O  O4  1  0.16267100  0.67145500  0.33669000  1
  O  O5  1  0.83732900  0.32854500  0.66331000  1
  O  O6  1  0.08193800  0.08193800  0.17214600  1
  O  O7  1  0.75413600  0.75413600  0.50009100  1
  O  O8  1  0.41661300  0.41661300  0.83326000  1
  O  O9  1  0.25061500  0.74938500  0.00000000  1
  O  O10  1  0.91899900  0.40908600  0.33682300  1
  O  O11  1  0.00000000  0.50000000  0.00000000  1
  O  O12  1  0.67145500  0.16267100  0.33669000  1
  O  O13  1  0.59091400  0.08100100  0.66317700  1
  O  O14  1  0.32854500  0.83732900  0.66331000  1
  O  O15  1  0.58338700  0.58338700  0.16674000  1
  O  O16  1  0.24586400  0.24586400  0.49990900  1
  O  O17  1  0.91806200  0.91806200  0.82785400  1
loop_
_geom_bond_atom_site_label_1
_geom_bond_atom_site_label_2
_geom_bond_distance
_geom_bond_site_symmetry_2
Cr0 O11 1.795491 1_655
Cr0 O0 1.797280 1_555
Cr0 O15 1.808282 1_555
Cr0 O6 1.898888 1_655
Cr0 O10 1.924265 1_555
Cr0 O12 1.924302 1_555
Cr1 O12 1.843813 1_555
Cr1 O14 1.843813 1_545
Cr1 O13 1.849367 1_555
Cr1 O1 1.849367 1_545
Cr1 O7 1.851013 1_545
Cr1 O16 1.851013 1_555
Cr2 O11 1.795491 1_556
Cr2 O9 1.797280 1_556
Cr2 O8 1.808282 1_555
Cr2 O17 1.898888 1_455
Cr2 O2 1.924265 1_555
Cr2 O14 1.924302 1_555
Cr3 O3 1.795491 1_565
Cr3 O9 1.797280 1_555
Cr3 O15 1.808282 1_555
Cr3 O6 1.898888 1_565
Cr3 O1 1.924265 1_555
Cr3 O4 1.924302 1_555
Cr4 O4 1.843813 1_555
Cr4 O5 1.843813 1_455
Cr4 O2 1.849367 1_555
Cr4 O10 1.849367 1_455
Cr4 O7 1.851013 1_455
Cr4 O16 1.851013 1_555
Cr5 O3 1.795491 1_556
Cr5 O0 1.797280 1_556
Cr5 O8 1.808282 1_555
Cr5 O17 1.898888 1_545
Cr5 O13 1.924265 1_555
Cr5 O5 1.924302 1_555
O1 Pb0 2.569745 1_565
O2 Pb0 2.569745 1_565
O4 Pb0 2.577556 1_565
O5 Pb0 2.577556 1_655
O6 Pb0 2.572836 1_555
O7 Pb0 2.583904 1_665
O10 Pb0 2.569745 1_655
O12 Pb0 2.577556 1_655
O13 Pb0 2.569745 1_655
O14 Pb0 2.577556 1_565
O16 Pb0 2.583904 1_555
O17 Pb0 2.572836 1_665
