# generated using pymatgen
data_KSn2F5
_symmetry_space_group_name_H-M   'P 1'
_cell_length_a   7.49260482
_cell_length_b   7.49260521
_cell_length_c   56.56093601
_cell_angle_alpha   90.00000000
_cell_angle_beta   90.00000000
_cell_angle_gamma   119.99999825
_symmetry_Int_Tables_number   1
_chemical_formula_structural   KSn2F5
_chemical_formula_sum   'K18 Sn36 F90'
_cell_volume   2749.87469401
_cell_formula_units_Z   18
loop_
 _symmetry_equiv_pos_site_id
 _symmetry_equiv_pos_as_xyz
  1  'x, y, z'
loop_
 _atom_site_type_symbol
 _atom_site_label
 _atom_site_symmetry_multiplicity
 _atom_site_fract_x
 _atom_site_fract_y
 _atom_site_fract_z
 _atom_site_occupancy
  K  K0  1  0.00000000  0.00000000  0.16806138  1
  K  K1  1  0.00000000  0.00000000  0.33283022  1
  K  K2  1  0.00000000  0.00000000  0.50427122  1
  K  K3  1  0.00000000  0.00000000  0.66653083  1
  K  K4  1  0.00000000  0.00000000  0.99613840  1
  K  K5  1  0.33333300  0.66666700  0.16395167  1
  K  K6  1  0.33333300  0.66666700  0.32868518  1
  K  K7  1  0.33333300  0.66666700  0.50274303  1
  K  K8  1  0.33333300  0.66666700  0.66363531  1
  K  K9  1  0.33333300  0.66666700  0.83032982  1
  K  K10  1  0.33333300  0.66666700  0.99183547  1
  K  K11  1  0.66666700  0.33333300  0.99708870  1
  K  K12  1  0.66666700  0.33333300  0.17065530  1
  K  K13  1  0.66666700  0.33333300  0.50828868  1
  K  K14  1  0.66666700  0.33333300  0.33652880  1
  K  K15  1  0.66666700  0.33333300  0.66965120  1
  K  K16  1  0.66666700  0.33333300  0.83633470  1
  K  K17  1  0.00000000  0.00000000  0.83350640  1
  Sn  Sn0  1  0.34581603  0.99162589  0.05501469  1
  Sn  Sn1  1  0.34884622  -0.00300581  0.22308386  1
  Sn  Sn2  1  0.32705192  0.01165993  0.38927538  1
  Sn  Sn3  1  0.33097686  -0.00196775  0.55625499  1
  Sn  Sn4  1  0.32955408  0.99768037  0.72219446  1
  Sn  Sn5  1  0.33063266  0.99694656  0.88869371  1
  Sn  Sn6  1  0.00837411  0.35419013  0.05501469  1
  Sn  Sn7  1  0.00300581  0.35185203  0.22308386  1
  Sn  Sn8  1  0.98834007  0.31539199  0.38927538  1
  Sn  Sn9  1  0.00196775  0.33294462  0.55625499  1
  Sn  Sn10  1  0.00231963  0.33187371  0.72219446  1
  Sn  Sn11  1  0.00305344  0.33368610  0.88869371  1
  Sn  Sn12  1  0.31350124  0.32470234  0.11076743  1
  Sn  Sn13  1  0.31694888  0.32438785  0.27664551  1
  Sn  Sn14  1  0.31417739  0.32509055  0.44485544  1
  Sn  Sn15  1  0.33342937  0.33040514  0.61131164  1
  Sn  Sn16  1  0.33185280  0.32950324  0.77780185  1
  Sn  Sn17  1  0.33169177  0.32986661  0.94396606  1
  Sn  Sn18  1  0.64580987  0.65418397  0.05501469  1
  Sn  Sn19  1  0.64814797  0.65115378  0.22308386  1
  Sn  Sn20  1  0.68460801  0.67294808  0.38927538  1
  Sn  Sn21  1  0.66812628  0.67044592  0.72219446  1
  Sn  Sn22  1  0.66705538  0.66902314  0.55625499  1
  Sn  Sn23  1  0.66631390  0.66936734  0.88869371  1
  Sn  Sn24  1  0.01120110  0.68649876  0.11076743  1
  Sn  Sn25  1  0.00743896  0.68305112  0.27664551  1
  Sn  Sn26  1  0.01091317  0.68582261  0.44485544  1
  Sn  Sn27  1  0.99697577  0.66657063  0.61131164  1
  Sn  Sn28  1  0.99765044  0.66814720  0.77780185  1
  Sn  Sn29  1  -0.00182516  0.66830823  0.94396606  1
  Sn  Sn30  1  0.67529766  0.98879890  0.11076743  1
  Sn  Sn31  1  0.67561215  0.99256104  0.27664551  1
  Sn  Sn32  1  0.67490945  0.98908683  0.44485544  1
  Sn  Sn33  1  0.66959486  0.00302423  0.61131164  1
  Sn  Sn34  1  0.67049676  0.00234956  0.77780185  1
  Sn  Sn35  1  0.67013339  0.00182516  0.94396606  1
  F  F0  1  0.00000000  0.00000000  0.38478189  1
  F  F1  1  0.00000000  0.00000000  0.71768139  1
  F  F2  1  0.00000000  0.00000000  0.78231670  1
  F  F3  1  0.00000000  0.00000000  0.88481495  1
  F  F4  1  0.31173499  0.97101338  0.01998779  1
  F  F5  1  0.31078427  0.97001170  0.18661118  1
  F  F6  1  0.30998785  0.96880751  0.35308507  1
  F  F7  1  0.31433011  0.97789417  0.51859614  1
  F  F8  1  0.31442056  0.97583910  0.68608831  1
  F  F9  1  0.31477751  0.97568030  0.85254324  1
  F  F10  1  0.02898662  0.34072161  0.01998779  1
  F  F11  1  0.02998830  0.34077257  0.18661118  1
  F  F12  1  0.03119249  0.34118035  0.35308507  1
  F  F13  1  0.02210583  0.33643595  0.51859614  1
  F  F14  1  0.02416090  0.33858146  0.68608831  1
  F  F15  1  0.02431970  0.33909721  0.85254324  1
  F  F16  1  0.32851452  0.88692823  0.28496792  1
  F  F17  1  0.33049212  0.88991924  0.11856587  1
  F  F18  1  0.33056399  0.89259826  0.45002366  1
  F  F19  1  0.33309864  0.88853868  0.61748418  1
  F  F20  1  0.33408613  0.88862517  0.78377510  1
  F  F21  1  0.33410817  0.88969910  0.95264228  1
  F  F22  1  0.11008076  0.44057288  0.11856587  1
  F  F23  1  0.11307177  0.44158629  0.28496792  1
  F  F24  1  0.10740174  0.43796573  0.45002366  1
  F  F25  1  0.11146132  0.44455996  0.61748418  1
  F  F26  1  0.11137483  0.44546097  0.78377510  1
  F  F27  1  0.11030090  0.44440907  0.95264228  1
  F  F28  1  0.00000000  0.00000000  0.11535573  1
  F  F29  1  0.00000000  0.00000000  0.28187939  1
  F  F30  1  0.00000000  0.00000000  0.44736949  1
  F  F31  1  0.00000000  0.00000000  0.55084917  1
  F  F32  1  0.00000000  0.00000000  0.61538605  1
  F  F33  1  0.33333300  0.66666700  0.05474662  1
  F  F34  1  0.33333300  0.66666700  0.22008767  1
  F  F35  1  0.33333300  0.66666700  0.55121014  1
  F  F36  1  0.33333300  0.66666700  0.71995865  1
  F  F37  1  0.33333300  0.66666700  0.88630362  1
  F  F38  1  0.33806979  0.30787236  0.14693218  1
  F  F39  1  0.34218760  0.30996477  0.31315209  1
  F  F40  1  0.34220463  0.31086129  0.47973388  1
  F  F41  1  0.33911169  0.31475789  0.64747078  1
  F  F42  1  0.33852726  0.31437090  0.81390804  1
  F  F43  1  0.33541676  0.31433863  0.98162637  1
  F  F44  1  0.55841371  0.67148548  0.28496792  1
  F  F45  1  0.55942712  0.66950788  0.11856587  1
  F  F46  1  0.56203427  0.66943601  0.45002366  1
  F  F47  1  0.55544004  0.66690136  0.61748418  1
  F  F48  1  0.55453903  0.66591387  0.78377510  1
  F  F49  1  0.55559093  0.66589183  0.95264228  1
  F  F50  1  0.43900202  0.33441607  0.04997741  1
  F  F51  1  0.43932938  0.33128866  0.21361146  1
  F  F52  1  0.44194965  0.33084308  0.38093891  1
  F  F53  1  0.44391824  0.33314251  0.54729701  1
  F  F54  1  0.44545126  0.33407993  0.71621744  1
  F  F55  1  0.44453616  0.33303027  0.88257070  1
  F  F56  1  0.65927839  0.68826501  0.01998779  1
  F  F57  1  0.65881965  0.69001215  0.35308507  1
  F  F58  1  0.65922743  0.68921573  0.18661118  1
  F  F59  1  0.66356405  0.68566989  0.51859614  1
  F  F60  1  0.66141854  0.68557944  0.68608831  1
  F  F61  1  0.66090279  0.68522249  0.85254324  1
  F  F62  1  0.00000000  0.00000000  0.94996819  1
  F  F63  1  0.66666700  0.33333300  0.78003158  1
  F  F64  1  0.66666700  0.33333300  0.61370257  1
  F  F65  1  0.66666700  0.33333300  0.94887378  1
  F  F66  1  0.89541405  0.56099798  0.04997741  1
  F  F67  1  0.89195927  0.56067062  0.21361146  1
  F  F68  1  0.88889343  0.55805035  0.38093891  1
  F  F69  1  0.88862867  0.55454874  0.71621744  1
  F  F70  1  0.88922428  0.55608176  0.54729701  1
  F  F71  1  0.88849410  0.55546384  0.88257070  1
  F  F72  1  0.66558393  0.10458595  0.04997741  1
  F  F73  1  0.66915692  0.11110657  0.38093891  1
  F  F74  1  0.66871134  0.10804073  0.21361146  1
  F  F75  1  0.66685749  0.11077572  0.54729701  1
  F  F76  1  0.66592007  0.11137133  0.71621744  1
  F  F77  1  0.66696973  0.11150590  0.88257070  1
  F  F78  1  0.96980256  0.66193021  0.14693218  1
  F  F79  1  0.96777717  0.65781240  0.31315209  1
  F  F80  1  0.96865665  0.65779537  0.47973388  1
  F  F81  1  0.97564619  0.66088831  0.64747078  1
  F  F82  1  0.97584364  0.66147274  0.81390804  1
  F  F83  1  0.97892187  0.66458324  0.98162637  1
  F  F84  1  0.69212764  0.03019744  0.14693218  1
  F  F85  1  0.69003523  0.03222283  0.31315209  1
  F  F86  1  0.68913871  0.03134335  0.47973388  1
  F  F87  1  0.68524211  0.02435381  0.64747078  1
  F  F88  1  0.68562910  0.02415636  0.81390804  1
  F  F89  1  0.68566137  0.02107813  0.98162637  1
loop_
_geom_bond_atom_site_label_1
_geom_bond_atom_site_label_2
_geom_bond_distance
_geom_bond_site_symmetry_2
F0 Sn2 2.421354 1_555
F0 Sn8 2.421354 1_455
F0 Sn20 2.421354 1_445
F0 K1 2.938435 1_555
F1 Sn4 2.491067 1_545
F1 Sn10 2.491067 1_555
F1 Sn21 2.491068 1_445
F1 K3 2.893124 1_555
F2 Sn34 2.490811 1_455
F2 Sn16 2.490812 1_555
F2 Sn28 2.490812 1_445
F2 K17 2.895337 1_555
F3 Sn5 2.498468 1_545
F3 Sn23 2.498469 1_445
F3 Sn11 2.498469 1_555
F3 K17 2.902060 1_555
F4 Sn0 1.993638 1_555
F4 K4 2.798147 1_564
F4 K10 2.851434 1_554
F4 K11 2.983290 1_564
F5 Sn1 2.078514 1_565
F5 K0 2.663983 1_565
F5 K5 2.687184 1_555
F5 K12 2.841892 1_565
F6 Sn2 2.066016 1_565
F6 K1 2.702678 1_565
F6 K6 2.730581 1_555
F6 K14 2.859984 1_565
F7 Sn3 2.134593 1_565
F7 K7 2.567892 1_555
F7 K2 2.573078 1_565
F7 K13 2.714953 1_565
F8 Sn4 2.047353 1_555
F8 K3 2.689392 1_565
F8 K8 2.706905 1_555
F8 K15 2.816959 1_565
F9 Sn5 2.049729 1_555
F9 K17 2.680462 1_565
F9 K9 2.698236 1_555
F9 K16 2.812060 1_565
F10 Sn6 1.993638 1_555
F10 K4 2.798147 1_554
F10 K10 2.851438 1_554
F10 K11 2.983286 1_454
F11 Sn7 2.078514 1_555
F11 K0 2.663983 1_555
F11 K5 2.687188 1_555
F11 K12 2.841889 1_455
F12 Sn8 2.066016 1_455
F12 K1 2.702679 1_555
F12 K6 2.730585 1_555
F12 K14 2.859980 1_455
F13 Sn9 2.134593 1_555
F13 K7 2.567896 1_555
F13 K2 2.573078 1_555
F13 K13 2.714949 1_455
F14 Sn10 2.047353 1_555
F14 K3 2.689392 1_555
F14 K8 2.706909 1_555
F14 K15 2.816956 1_455
F15 Sn11 2.049729 1_555
F15 K17 2.680462 1_555
F15 K9 2.698240 1_555
F15 K16 2.812056 1_455
F16 Sn25 2.160450 1_555
F16 Sn31 2.356506 1_555
F16 K6 2.983063 1_555
F17 Sn24 2.143487 1_555
F17 Sn30 2.346028 1_555
F17 K5 3.069843 1_555
F18 Sn26 2.123978 1_555
F18 Sn32 2.323681 1_555
F19 Sn27 2.245421 1_455
F19 Sn33 2.247580 1_565
F19 K8 3.095225 1_555
F20 Sn28 2.243483 1_455
F20 Sn34 2.246289 1_565
F20 K9 3.112876 1_555
F21 Sn29 2.269929 1_555
F21 Sn35 2.273826 1_565
F21 K10 2.774363 1_555
F22 Sn12 2.143487 1_555
F22 Sn24 2.346028 1_555
F22 K5 3.069845 1_555
F23 Sn13 2.160450 1_555
F23 Sn25 2.356506 1_555
F23 K6 2.983066 1_555
F24 Sn14 2.123978 1_555
F24 Sn26 2.323681 1_555
F25 Sn15 2.245421 1_555
F25 Sn27 2.247580 1_455
F25 K8 3.095227 1_555
F26 Sn16 2.243483 1_555
F26 Sn28 2.246289 1_455
F26 K9 3.112878 1_555
F27 Sn17 2.269929 1_555
F27 Sn29 2.273826 1_555
F27 K10 2.774366 1_555
F28 Sn30 2.406045 1_445
F28 Sn24 2.406045 1_545
F28 Sn12 2.406045 1_555
F28 K0 2.981081 1_555
F29 Sn31 2.421291 1_445
F29 Sn25 2.421291 1_545
F29 Sn13 2.421291 1_555
F29 K1 2.881827 1_555
F30 Sn32 2.400154 1_445
F30 Sn14 2.400154 1_555
F30 Sn26 2.400154 1_545
F31 Sn3 2.506006 1_555
F31 Sn22 2.506006 1_445
F31 Sn9 2.506006 1_555
F31 K2 2.634492 1_555
F32 Sn33 2.497657 1_455
F32 Sn15 2.497657 1_555
F32 Sn27 2.497657 1_445
F32 K3 2.892797 1_555
F33 Sn0 2.389445 1_555
F33 Sn6 2.389448 1_555
F33 Sn18 2.389452 1_555
F34 Sn1 2.424918 1_565
F34 Sn7 2.424922 1_555
F34 Sn19 2.424926 1_555
F34 K5 3.175105 1_555
F35 Sn3 2.507948 1_565
F35 Sn9 2.507952 1_555
F35 Sn22 2.507955 1_555
F35 K7 2.741345 1_555
F36 Sn4 2.497633 1_555
F36 Sn10 2.497637 1_555
F36 Sn21 2.497641 1_555
F36 K8 3.185701 1_555
F37 Sn5 2.488507 1_555
F37 Sn11 2.488511 1_555
F37 Sn23 2.488514 1_555
F37 K9 3.165931 1_555
F38 Sn12 2.063279 1_555
F38 K0 2.706015 1_555
F38 K12 2.725589 1_555
F38 K5 2.872340 1_555
F39 Sn13 2.081217 1_555
F39 K1 2.692870 1_555
F39 K14 2.695168 1_555
F39 K6 2.845442 1_555
F40 Sn14 1.992392 1_555
F40 K2 2.820154 1_555
F40 K13 2.852652 1_555
F40 K7 2.997066 1_555
F41 Sn15 2.050212 1_555
F41 K3 2.680985 1_555
F41 K15 2.697219 1_555
F41 K8 2.811444 1_555
F42 Sn16 2.047341 1_555
F42 K17 2.689988 1_555
F42 K16 2.706422 1_555
F42 K9 2.816832 1_555
F43 Sn17 2.134221 1_555
F43 K11 2.567461 1_555
F43 K4 2.572484 1_555
F43 K10 2.709933 1_555
F44 Sn31 2.160450 1_555
F44 Sn13 2.356507 1_555
F44 K6 2.983068 1_555
F45 Sn30 2.143487 1_555
F45 Sn12 2.346028 1_555
F45 K5 3.069847 1_555
F46 Sn32 2.123978 1_555
F46 Sn14 2.323681 1_555
F47 Sn33 2.245421 1_565
F47 Sn15 2.247580 1_555
F47 K8 3.095229 1_555
F48 Sn34 2.243483 1_565
F48 Sn16 2.246289 1_555
F48 K9 3.112880 1_555
F49 Sn35 2.269929 1_565
F49 Sn17 2.273827 1_555
F49 K10 2.774368 1_555
F50 Sn18 2.123681 1_555
F50 Sn0 2.317765 1_545
F51 Sn19 2.174641 1_555
F51 Sn1 2.307006 1_555
F51 K12 2.962887 1_555
F52 Sn2 2.150342 1_555
F52 Sn20 2.331929 1_555
F52 K14 3.018836 1_555
F53 Sn3 2.269897 1_555
F53 Sn22 2.275476 1_555
F53 K13 2.766052 1_555
F54 Sn4 2.243342 1_545
F54 Sn21 2.246054 1_555
F54 K15 3.113457 1_555
F55 Sn5 2.245053 1_545
F55 Sn23 2.245938 1_555
F55 K16 3.099237 1_555
F56 Sn18 1.993638 1_555
F56 K4 2.798147 1_664
F56 K10 2.851440 1_554
F56 K11 2.983293 1_554
F57 Sn20 2.066016 1_555
F57 K1 2.702678 1_665
F57 K6 2.730588 1_555
F57 K14 2.859987 1_555
F58 Sn19 2.078514 1_555
F58 K0 2.663983 1_665
F58 K5 2.687190 1_555
F58 K12 2.841896 1_555
F59 Sn22 2.134593 1_555
F59 K7 2.567899 1_555
F59 K2 2.573078 1_665
F59 K13 2.714957 1_555
F60 Sn21 2.047353 1_555
F60 K3 2.689392 1_665
F60 K8 2.706912 1_555
F60 K15 2.816963 1_555
F61 Sn23 2.049729 1_555
F61 K17 2.680462 1_665
F61 K9 2.698243 1_555
F61 K16 2.812063 1_555
F62 Sn35 2.501569 1_455
F62 Sn17 2.501569 1_555
F62 Sn29 2.501569 1_545
F62 K4 2.611430 1_555
F63 Sn34 2.497586 1_555
F63 Sn28 2.497589 1_555
F63 Sn16 2.497593 1_555
F63 K16 3.184557 1_555
F64 Sn33 2.489590 1_555
F64 Sn27 2.489594 1_555
F64 Sn15 2.489597 1_555
F64 K15 3.164507 1_555
F65 Sn35 2.512327 1_555
F65 Sn29 2.512331 1_655
F65 Sn17 2.512334 1_555
F65 K11 2.727081 1_555
F66 Sn6 2.123681 1_655
F66 Sn18 2.317765 1_555
F67 Sn7 2.174641 1_655
F67 Sn19 2.307006 1_555
F67 K12 2.962885 1_555
F68 Sn20 2.150342 1_555
F68 Sn8 2.331929 1_555
F68 K14 3.018834 1_555
F69 Sn21 2.243342 1_555
F69 Sn10 2.246054 1_655
F69 K15 3.113455 1_555
F70 Sn22 2.269897 1_555
F70 Sn9 2.275476 1_655
F70 K13 2.766050 1_555
F71 Sn23 2.245053 1_555
F71 Sn11 2.245937 1_655
F71 K16 3.099235 1_555
F72 Sn0 2.123680 1_545
F72 Sn6 2.317765 1_655
F73 Sn8 2.150342 1_555
F73 Sn2 2.331929 1_555
F73 K14 3.018832 1_555
F74 Sn1 2.174641 1_555
F74 Sn7 2.307006 1_655
F74 K12 2.962883 1_555
F75 Sn9 2.269897 1_655
F75 Sn3 2.275476 1_555
F75 K13 2.766048 1_555
F76 Sn10 2.243342 1_655
F76 Sn4 2.246054 1_545
F76 K15 3.113453 1_555
F77 Sn11 2.245053 1_655
F77 Sn5 2.245937 1_545
F77 K16 3.099233 1_555
F78 Sn24 2.063279 1_655
F78 K0 2.706015 1_665
F78 K12 2.725586 1_555
F78 K5 2.872332 1_655
F79 Sn25 2.081217 1_655
F79 K1 2.692870 1_665
F79 K14 2.695165 1_555
F79 K6 2.845434 1_655
F80 Sn26 1.992392 1_655
F80 K2 2.820154 1_665
F80 K13 2.852649 1_555
F80 K7 2.997059 1_655
F81 Sn27 2.050212 1_555
F81 K3 2.680985 1_665
F81 K15 2.697216 1_555
F81 K8 2.811437 1_655
F82 Sn28 2.047341 1_555
F82 K17 2.689988 1_665
F82 K16 2.706419 1_555
F82 K9 2.816825 1_655
F83 Sn29 2.134221 1_655
F83 K11 2.567458 1_555
F83 K4 2.572484 1_665
F83 K10 2.709926 1_655
F84 Sn30 2.063279 1_545
F84 K0 2.706015 1_655
F84 K12 2.725582 1_555
F84 K5 2.872336 1_545
F85 Sn31 2.081217 1_545
F85 K1 2.692870 1_655
F85 K14 2.695161 1_555
F85 K6 2.845438 1_545
F86 Sn32 1.992392 1_545
F86 K2 2.820154 1_655
F86 K13 2.852646 1_555
F86 K7 2.997062 1_545
F87 Sn33 2.050212 1_555
F87 K3 2.680985 1_655
F87 K15 2.697212 1_555
F87 K8 2.811441 1_545
F88 Sn34 2.047341 1_555
F88 K17 2.689988 1_655
F88 K16 2.706415 1_555
F88 K9 2.816828 1_545
F89 Sn35 2.134221 1_555
F89 K11 2.567454 1_555
F89 K4 2.572484 1_655
F89 K10 2.709930 1_545
