# generated using pymatgen
data_K2Na2Sb2H6O3F10
_symmetry_space_group_name_H-M   'P 1'
_cell_length_a   17.90251900
_cell_length_b   6.15382800
_cell_length_c   6.15535360
_cell_angle_alpha   89.39108714
_cell_angle_beta   90.00000000
_cell_angle_gamma   90.00000000
_symmetry_Int_Tables_number   1
_chemical_formula_structural   K2Na2Sb2H6O3F10
_chemical_formula_sum   'K4 Na4 Sb4 H12 O6 F20'
_cell_volume   678.09099569
_cell_formula_units_Z   2
loop_
 _symmetry_equiv_pos_site_id
 _symmetry_equiv_pos_as_xyz
  1  'x, y, z'
loop_
 _atom_site_type_symbol
 _atom_site_label
 _atom_site_symmetry_multiplicity
 _atom_site_fract_x
 _atom_site_fract_y
 _atom_site_fract_z
 _atom_site_occupancy
  K  K0  1  0.00016600  0.75722100  0.24032900  1
  K  K1  1  0.50016600  0.24277900  0.75967100  1
  K  K2  1  0.99983400  0.24277900  0.75967100  1
  K  K3  1  0.49983400  0.75722100  0.24032900  1
  Na  Na0  1  0.88493000  0.25299800  0.25916800  1
  Na  Na1  1  0.38493000  0.74700200  0.74083200  1
  Na  Na2  1  0.11507000  0.74700200  0.74083200  1
  Na  Na3  1  0.61507000  0.25299800  0.25916800  1
  Sb  Sb0  1  0.86960200  0.74328700  0.74225700  1
  Sb  Sb1  1  0.36960200  0.25671300  0.25774300  1
  Sb  Sb2  1  0.13039800  0.25671300  0.25774300  1
  Sb  Sb3  1  0.63039800  0.74328700  0.74225700  1
  H  H0  1  0.75000000  0.28509400  0.45796300  1
  H  H1  1  0.25000000  0.71490600  0.54203700  1
  H  H2  1  0.75000000  0.45480500  0.26456500  1
  H  H3  1  0.25000000  0.54519500  0.73543500  1
  H  H4  1  0.79344200  0.22590600  0.85603300  1
  H  H5  1  0.29344200  0.77409400  0.14396700  1
  H  H6  1  0.20655800  0.77409400  0.14396700  1
  H  H7  1  0.70655800  0.22590600  0.85603300  1
  H  H8  1  0.79352900  0.82618800  0.21015000  1
  H  H9  1  0.29352900  0.17381200  0.78985000  1
  H  H10  1  0.20647100  0.17381200  0.78985000  1
  H  H11  1  0.70647100  0.82618800  0.21015000  1
  O  O0  1  0.75000000  0.29560200  0.29792900  1
  O  O1  1  0.25000000  0.70439800  0.70207100  1
  O  O2  1  0.75000000  0.26811600  0.76802500  1
  O  O3  1  0.25000000  0.73188400  0.23197500  1
  O  O4  1  0.75000000  0.73874800  0.24998100  1
  O  O5  1  0.25000000  0.26125200  0.75001900  1
  F  F0  1  0.98143200  0.77756900  0.78187600  1
  F  F1  1  0.48143200  0.22243100  0.21812400  1
  F  F2  1  0.01856800  0.22243100  0.21812400  1
  F  F3  1  0.51856800  0.77756900  0.78187600  1
  F  F4  1  0.89707500  0.98319600  0.50910300  1
  F  F5  1  0.39707500  0.01680400  0.49089700  1
  F  F6  1  0.10292500  0.01680400  0.49089700  1
  F  F7  1  0.60292500  0.98319600  0.50910300  1
  F  F8  1  0.89369000  0.50701100  0.98378000  1
  F  F9  1  0.39369000  0.49298900  0.01622000  1
  F  F10  1  0.10631000  0.49298900  0.01622000  1
  F  F11  1  0.60631000  0.50701100  0.98378000  1
  F  F12  1  0.90740100  0.51654800  0.51543700  1
  F  F13  1  0.40740100  0.48345200  0.48456300  1
  F  F14  1  0.09259900  0.48345200  0.48456300  1
  F  F15  1  0.59259900  0.51654800  0.51543700  1
  F  F16  1  0.87431500  0.98711100  0.99385200  1
  F  F17  1  0.37431500  0.01288900  0.00614800  1
  F  F18  1  0.12568500  0.01288900  0.00614800  1
  F  F19  1  0.62568500  0.98711100  0.99385200  1
loop_
_geom_bond_atom_site_label_1
_geom_bond_atom_site_label_2
_geom_bond_distance
_geom_bond_site_symmetry_2
Na0 O0 2.441731 1_555
Na1 O1 2.441731 1_555
Na2 O1 2.441731 1_555
Na3 O0 2.441731 1_555
H0 O0 0.986500 1_555
H1 O1 0.986500 1_555
H2 O0 0.998863 1_555
H3 O1 0.998863 1_555
H4 O2 0.981220 1_555
H5 O3 0.981220 1_555
H6 O3 0.981220 1_555
H7 O2 0.981220 1_555
H8 O4 0.976792 1_555
H9 O5 0.976792 1_555
H10 O5 0.976792 1_555
H11 O4 0.976792 1_555
F0 Sb0 2.028110 1_555
F0 Na2 2.413311 1_655
F0 K0 2.843238 1_656
F0 K2 2.883513 1_565
F1 Sb1 2.028110 1_555
F1 Na3 2.413311 1_555
F1 K1 2.843238 1_554
F1 K3 2.883513 1_545
F2 Sb2 2.028110 1_555
F2 Na0 2.413311 1_455
F2 K2 2.843238 1_454
F2 K0 2.883513 1_545
F3 Sb3 2.028110 1_555
F3 Na1 2.413311 1_555
F3 K3 2.843238 1_556
F3 K1 2.883513 1_565
F4 Sb0 2.106216 1_555
F4 Na0 2.261951 1_565
F4 K0 2.850602 1_655
F4 K2 2.892618 1_565
F5 Sb1 2.106216 1_555
F5 Na1 2.261951 1_545
F5 K1 2.850602 1_555
F5 K3 2.892618 1_545
F6 Sb2 2.106216 1_555
F6 Na2 2.261951 1_545
F6 K2 2.850602 1_455
F6 K0 2.892618 1_545
F7 Sb3 2.106216 1_555
F7 Na3 2.261951 1_565
F7 K3 2.850602 1_555
F7 K1 2.892618 1_565
F8 Sb0 2.112889 1_555
F8 Na0 2.298939 1_556
F8 K2 2.864532 1_555
F8 K0 2.924000 1_656
F9 Sb1 2.112889 1_555
F9 Na1 2.298939 1_554
F9 K3 2.864532 1_555
F9 K1 2.924000 1_554
F10 Sb2 2.112889 1_555
F10 Na2 2.298939 1_554
F10 K0 2.864532 1_555
F10 K2 2.924000 1_454
F11 Sb3 2.112889 1_555
F11 Na3 2.298939 1_556
F11 K1 2.864532 1_555
F11 K3 2.924000 1_556
F12 Sb0 2.096540 1_555
F12 Na0 2.309731 1_555
F12 K0 2.786720 1_655
F12 K2 2.789773 1_555
F13 Sb1 2.096540 1_555
F13 Na1 2.309731 1_555
F13 K1 2.786720 1_555
F13 K3 2.789773 1_555
F14 Sb2 2.096540 1_555
F14 Na2 2.309731 1_555
F14 K2 2.786720 1_455
F14 K0 2.789773 1_555
F15 Sb3 2.096540 1_555
F15 Na3 2.309731 1_555
F15 K3 2.786720 1_555
F15 K1 2.789773 1_555
F16 Sb0 2.169377 1_555
F16 Na0 2.331779 1_566
F16 K0 3.055119 1_656
F16 K2 3.091035 1_565
F17 Sb1 2.169377 1_555
F17 Na1 2.331779 1_544
F17 K1 3.055119 1_554
F17 K3 3.091035 1_545
F18 Sb2 2.169377 1_555
F18 Na2 2.331779 1_544
F18 K2 3.055119 1_454
F18 K0 3.091035 1_545
F19 Sb3 2.169377 1_555
F19 Na3 2.331779 1_566
F19 K3 3.055119 1_556
F19 K1 3.091035 1_565
