# generated using pymatgen
data_CuBi(WO4)2
_symmetry_space_group_name_H-M   'P 1'
_cell_length_a   5.16372300
_cell_length_b   6.11930656
_cell_length_c   6.25666456
_cell_angle_alpha   108.68585268
_cell_angle_beta   91.77829898
_cell_angle_gamma   113.44018552
_symmetry_Int_Tables_number   1
_chemical_formula_structural   CuBi(WO4)2
_chemical_formula_sum   'Cu1 Bi1 W2 O8'
_cell_volume   168.94398858
_cell_formula_units_Z   1
loop_
 _symmetry_equiv_pos_site_id
 _symmetry_equiv_pos_as_xyz
  1  'x, y, z'
loop_
 _atom_site_type_symbol
 _atom_site_label
 _atom_site_symmetry_multiplicity
 _atom_site_fract_x
 _atom_site_fract_y
 _atom_site_fract_z
 _atom_site_occupancy
  Cu  Cu0  1  0.50000000  0.50000000  0.50000000  1
  Bi  Bi0  1  0.00000000  0.50000000  0.00000000  1
  W  W0  1  0.75629900  0.01876500  0.34154600  1
  W  W1  1  0.24370100  0.98123500  0.65845400  1
  O  O0  1  0.97569500  0.81382500  0.34068100  1
  O  O1  1  0.46991900  0.80039300  0.52613900  1
  O  O2  1  0.99563000  0.25148300  0.23143900  1
  O  O3  1  0.50907100  0.23282400  0.92485000  1
  O  O4  1  0.49092900  0.76717600  0.07515000  1
  O  O5  1  0.02430500  0.18617500  0.65931900  1
  O  O6  1  0.53008100  0.19960700  0.47386100  1
  O  O7  1  0.00437000  0.74851700  0.76856100  1
loop_
_geom_bond_atom_site_label_1
_geom_bond_atom_site_label_2
_geom_bond_distance
_geom_bond_site_symmetry_2
Cu0 O1 1.861706 1_555
Cu0 O6 1.861706 1_555
Cu0 O7 2.618992 1_655
Cu0 O2 2.618992 1_455
Bi0 O4 2.335916 1_555
Bi0 O3 2.335916 1_454
Bi0 O2 2.407436 1_455
Bi0 O7 2.407436 1_554
Bi0 O0 2.415068 1_455
Bi0 O5 2.415068 1_554
O0 W0 1.995645 1_565
O0 W1 2.076978 1_655
O1 W1 1.943174 1_555
O1 W0 2.197523 1_565
O2 W0 1.819658 1_555
O3 W1 1.887227 1_545
O4 W0 1.887227 1_565
O5 W1 1.995645 1_545
O5 W0 2.076978 1_455
O6 W0 1.943174 1_555
O6 W1 2.197523 1_545
O7 W1 1.819658 1_555
