# generated using pymatgen
data_KB3(HO3)2
_symmetry_space_group_name_H-M   'P 1'
_cell_length_a   11.55181800
_cell_length_b   11.55181800
_cell_length_c   16.70298000
_cell_angle_alpha   90.00000000
_cell_angle_beta   90.00000000
_cell_angle_gamma   90.00000000
_symmetry_Int_Tables_number   1
_chemical_formula_structural   KB3(HO3)2
_chemical_formula_sum   'K16 B48 H32 O96'
_cell_volume   2228.92079966
_cell_formula_units_Z   16
loop_
 _symmetry_equiv_pos_site_id
 _symmetry_equiv_pos_as_xyz
  1  'x, y, z'
loop_
 _atom_site_type_symbol
 _atom_site_label
 _atom_site_symmetry_multiplicity
 _atom_site_fract_x
 _atom_site_fract_y
 _atom_site_fract_z
 _atom_site_occupancy
  K  K0  1  0.00000000  0.50000000  0.48366900  1
  K  K1  1  0.50000000  0.00000000  0.01633100  1
  K  K2  1  0.50000000  0.50000000  0.00000000  1
  K  K3  1  0.00000000  0.00000000  0.00000000  1
  K  K4  1  0.00000000  0.50000000  0.23909900  1
  K  K5  1  0.00000000  0.00000000  0.25000000  1
  K  K6  1  0.50000000  0.00000000  0.51633100  1
  K  K7  1  0.00000000  0.00000000  0.50000000  1
  K  K8  1  0.50000000  0.00000000  0.26090100  1
  K  K9  1  0.00000000  0.00000000  0.75000000  1
  K  K10  1  0.50000000  0.00000000  0.76090100  1
  K  K11  1  0.50000000  0.50000000  0.25000000  1
  K  K12  1  0.00000000  0.50000000  0.73909900  1
  K  K13  1  0.00000000  0.50000000  0.98366900  1
  K  K14  1  0.50000000  0.50000000  0.75000000  1
  K  K15  1  0.50000000  0.50000000  0.50000000  1
  B  B0  1  0.73190900  0.55710300  0.61333100  1
  B  B1  1  0.23190900  0.05710300  0.38666900  1
  B  B2  1  0.05710300  0.23190900  0.11333100  1
  B  B3  1  0.76696100  0.65335100  0.15010300  1
  B  B4  1  0.55710300  0.73190900  0.88666900  1
  B  B5  1  0.13810800  0.24685500  0.35798700  1
  B  B6  1  0.36189200  0.25314500  0.64201300  1
  B  B7  1  0.65335100  0.76696100  0.34989700  1
  B  B8  1  0.26809100  0.55710300  0.11333100  1
  B  B9  1  0.74685500  0.63810800  0.85798700  1
  B  B10  1  0.65335100  0.23303900  0.84989700  1
  B  B11  1  0.05710300  0.76809100  0.61333100  1
  B  B12  1  0.86189200  0.75314500  0.35798700  1
  B  B13  1  0.34664900  0.23303900  0.34989700  1
  B  B14  1  0.63810800  0.25314500  0.14201300  1
  B  B15  1  0.86189200  0.24685500  0.85798700  1
  B  B16  1  0.24685500  0.13810800  0.14201300  1
  B  B17  1  0.34664900  0.76696100  0.84989700  1
  B  B18  1  0.44289700  0.73190900  0.38666900  1
  B  B19  1  0.63810800  0.74685500  0.64201300  1
  B  B20  1  0.55710300  0.26809100  0.38666900  1
  B  B21  1  0.76696100  0.34664900  0.65010300  1
  B  B22  1  0.13810800  0.75314500  0.85798700  1
  B  B23  1  0.26696100  0.15335100  0.84989700  1
  B  B24  1  0.84664900  0.26696100  0.15010300  1
  B  B25  1  0.36189200  0.74685500  0.14201300  1
  B  B26  1  0.84664900  0.73303900  0.65010300  1
  B  B27  1  0.74685500  0.36189200  0.35798700  1
  B  B28  1  0.26809100  0.44289700  0.61333100  1
  B  B29  1  0.26696100  0.84664900  0.34989700  1
  B  B30  1  0.94289700  0.23190900  0.61333100  1
  B  B31  1  0.44289700  0.26809100  0.88666900  1
  B  B32  1  0.23303900  0.34664900  0.15010300  1
  B  B33  1  0.25314500  0.36189200  0.85798700  1
  B  B34  1  0.76809100  0.94289700  0.38666900  1
  B  B35  1  0.15335100  0.73303900  0.15010300  1
  B  B36  1  0.15335100  0.26696100  0.65010300  1
  B  B37  1  0.75314500  0.86189200  0.14201300  1
  B  B38  1  0.73190900  0.44289700  0.11333100  1
  B  B39  1  0.75314500  0.13810800  0.64201300  1
  B  B40  1  0.73303900  0.15335100  0.34989700  1
  B  B41  1  0.73303900  0.84664900  0.84989700  1
  B  B42  1  0.23190900  0.94289700  0.88666900  1
  B  B43  1  0.94289700  0.76809100  0.11333100  1
  B  B44  1  0.24685500  0.86189200  0.64201300  1
  B  B45  1  0.23303900  0.65335100  0.65010300  1
  B  B46  1  0.76809100  0.05710300  0.88666900  1
  B  B47  1  0.25314500  0.63810800  0.35798700  1
  H  H0  1  0.27987200  0.03281900  0.64083100  1
  H  H1  1  0.22012800  0.46718100  0.35916900  1
  H  H2  1  0.46479800  0.76054400  0.99121700  1
  H  H3  1  0.96479800  0.73945600  0.50878300  1
  H  H4  1  0.26054400  0.03520200  0.99121700  1
  H  H5  1  0.53281900  0.77987200  0.14083100  1
  H  H6  1  0.96718100  0.72012800  0.85916900  1
  H  H7  1  0.26054400  0.96479800  0.49121700  1
  H  H8  1  0.46718100  0.77987200  0.64083100  1
  H  H9  1  0.76054400  0.53520200  0.00878300  1
  H  H10  1  0.73945600  0.03520200  0.49121700  1
  H  H11  1  0.23945600  0.46479800  0.00878300  1
  H  H12  1  0.77987200  0.53281900  0.35916900  1
  H  H13  1  0.53520200  0.76054400  0.49121700  1
  H  H14  1  0.73945600  0.96479800  0.99121700  1
  H  H15  1  0.53281900  0.22012800  0.64083100  1
  H  H16  1  0.22012800  0.53281900  0.85916900  1
  H  H17  1  0.23945600  0.53520200  0.50878300  1
  H  H18  1  0.72012800  0.96718100  0.64083100  1
  H  H19  1  0.03281900  0.27987200  0.85916900  1
  H  H20  1  0.03281900  0.72012800  0.35916900  1
  H  H21  1  0.46479800  0.23945600  0.49121700  1
  H  H22  1  0.96479800  0.26054400  0.00878300  1
  H  H23  1  0.27987200  0.96718100  0.14083100  1
  H  H24  1  0.46718100  0.22012800  0.14083100  1
  H  H25  1  0.03520200  0.73945600  0.00878300  1
  H  H26  1  0.53520200  0.23945600  0.99121700  1
  H  H27  1  0.96718100  0.27987200  0.35916900  1
  H  H28  1  0.76054400  0.46479800  0.50878300  1
  H  H29  1  0.72012800  0.03281900  0.14083100  1
  H  H30  1  0.03520200  0.26054400  0.50878300  1
  H  H31  1  0.77987200  0.46718100  0.85916900  1
  O  O0  1  0.70851400  0.44872400  0.65598600  1
  O  O1  1  0.80073500  0.25511500  0.34677800  1
  O  O2  1  0.54295900  0.81923900  0.64332800  1
  O  O3  1  0.20851400  0.05127600  0.84401400  1
  O  O4  1  0.11582700  0.66041900  0.64041100  1
  O  O5  1  0.44872400  0.70851400  0.84401400  1
  O  O6  1  0.76136900  0.04214200  0.97460300  1
  O  O7  1  0.04295900  0.68076100  0.85667200  1
  O  O8  1  0.16041900  0.61582700  0.14041100  1
  O  O9  1  0.66041900  0.11582700  0.85958900  1
  O  O10  1  0.12791600  0.13117800  0.37116100  1
  O  O11  1  0.31923900  0.95704100  0.64332800  1
  O  O12  1  0.37208400  0.36882200  0.62883900  1
  O  O13  1  0.04214200  0.23863100  0.02539700  1
  O  O14  1  0.38417300  0.16041900  0.85958900  1
  O  O15  1  0.94872400  0.20851400  0.15598600  1
  O  O16  1  0.79148600  0.94872400  0.84401400  1
  O  O17  1  0.23863100  0.95785800  0.97460300  1
  O  O18  1  0.81923900  0.45704100  0.35667200  1
  O  O19  1  0.04295900  0.31923900  0.35667200  1
  O  O20  1  0.16041900  0.38417300  0.64041100  1
  O  O21  1  0.11582700  0.33958100  0.14041100  1
  O  O22  1  0.31923900  0.04295900  0.14332800  1
  O  O23  1  0.94872400  0.79148600  0.65598600  1
  O  O24  1  0.70851400  0.55127600  0.15598600  1
  O  O25  1  0.74488500  0.80073500  0.65322200  1
  O  O26  1  0.18076100  0.54295900  0.35667200  1
  O  O27  1  0.88417300  0.33958100  0.64041100  1
  O  O28  1  0.29148600  0.55127600  0.65598600  1
  O  O29  1  0.74488500  0.19926500  0.15322200  1
  O  O30  1  0.24488500  0.69926500  0.84677800  1
  O  O31  1  0.04214200  0.76136900  0.52539700  1
  O  O32  1  0.68076100  0.04295900  0.64332800  1
  O  O33  1  0.19926500  0.25511500  0.84677800  1
  O  O34  1  0.36882200  0.62791600  0.37116100  1
  O  O35  1  0.95704100  0.31923900  0.85667200  1
  O  O36  1  0.45704100  0.18076100  0.64332800  1
  O  O37  1  0.13117800  0.12791600  0.12883900  1
  O  O38  1  0.13117800  0.87208400  0.62883900  1
  O  O39  1  0.68076100  0.95704100  0.14332800  1
  O  O40  1  0.30073500  0.24488500  0.15322200  1
  O  O41  1  0.18076100  0.45704100  0.85667200  1
  O  O42  1  0.55127600  0.70851400  0.34401400  1
  O  O43  1  0.75511500  0.69926500  0.34677800  1
  O  O44  1  0.83958100  0.38417300  0.14041100  1
  O  O45  1  0.61582700  0.83958100  0.85958900  1
  O  O46  1  0.55127600  0.29148600  0.84401400  1
  O  O47  1  0.95785800  0.23863100  0.52539700  1
  O  O48  1  0.05127600  0.20851400  0.65598600  1
  O  O49  1  0.54295900  0.18076100  0.14332800  1
  O  O50  1  0.83958100  0.61582700  0.64041100  1
  O  O51  1  0.23863100  0.04214200  0.47460300  1
  O  O52  1  0.95704100  0.68076100  0.35667200  1
  O  O53  1  0.62791600  0.63117800  0.62883900  1
  O  O54  1  0.88417300  0.66041900  0.14041100  1
  O  O55  1  0.73863100  0.45785800  0.02539700  1
  O  O56  1  0.95785800  0.76136900  0.02539700  1
  O  O57  1  0.73863100  0.54214200  0.52539700  1
  O  O58  1  0.69926500  0.24488500  0.65322200  1
  O  O59  1  0.69926500  0.75511500  0.15322200  1
  O  O60  1  0.33958100  0.11582700  0.35958900  1
  O  O61  1  0.45785800  0.26136900  0.97460300  1
  O  O62  1  0.62791600  0.36882200  0.12883900  1
  O  O63  1  0.75511500  0.30073500  0.84677800  1
  O  O64  1  0.86882200  0.87208400  0.12883900  1
  O  O65  1  0.30073500  0.75511500  0.65322200  1
  O  O66  1  0.66041900  0.88417300  0.35958900  1
  O  O67  1  0.44872400  0.29148600  0.34401400  1
  O  O68  1  0.29148600  0.44872400  0.15598600  1
  O  O69  1  0.76136900  0.95785800  0.47460300  1
  O  O70  1  0.79148600  0.05127600  0.34401400  1
  O  O71  1  0.81923900  0.54295900  0.85667200  1
  O  O72  1  0.87208400  0.13117800  0.87116100  1
  O  O73  1  0.19926500  0.74488500  0.34677800  1
  O  O74  1  0.45704100  0.81923900  0.14332800  1
  O  O75  1  0.61582700  0.16041900  0.35958900  1
  O  O76  1  0.86882200  0.12791600  0.62883900  1
  O  O77  1  0.37208400  0.63117800  0.12883900  1
  O  O78  1  0.45785800  0.73863100  0.47460300  1
  O  O79  1  0.26136900  0.45785800  0.52539700  1
  O  O80  1  0.24488500  0.30073500  0.34677800  1
  O  O81  1  0.25511500  0.19926500  0.65322200  1
  O  O82  1  0.33958100  0.88417300  0.85958900  1
  O  O83  1  0.25511500  0.80073500  0.15322200  1
  O  O84  1  0.36882200  0.37208400  0.87116100  1
  O  O85  1  0.12791600  0.86882200  0.87116100  1
  O  O86  1  0.38417300  0.83958100  0.35958900  1
  O  O87  1  0.05127600  0.79148600  0.15598600  1
  O  O88  1  0.20851400  0.94872400  0.34401400  1
  O  O89  1  0.26136900  0.54214200  0.02539700  1
  O  O90  1  0.54214200  0.73863100  0.97460300  1
  O  O91  1  0.87208400  0.86882200  0.37116100  1
  O  O92  1  0.80073500  0.74488500  0.84677800  1
  O  O93  1  0.63117800  0.62791600  0.87116100  1
  O  O94  1  0.54214200  0.26136900  0.47460300  1
  O  O95  1  0.63117800  0.37208400  0.37116100  1
loop_
_geom_bond_atom_site_label_1
_geom_bond_atom_site_label_2
_geom_bond_distance
_geom_bond_site_symmetry_2
K0 O52 3.017634 1_455
K0 O26 3.017634 1_555
K0 O18 3.017634 1_455
K0 O19 3.017634 1_555
K1 O49 3.017634 1_555
K1 O39 3.017634 1_545
K1 O74 3.017634 1_545
K1 O22 3.017634 1_555
K2 O89 2.831237 1_555
K2 O61 2.831237 1_554
K2 O90 2.831237 1_554
K2 O55 2.831237 1_555
K2 O77 3.018416 1_555
K2 O84 3.018416 1_554
K2 O93 3.018416 1_554
K2 O62 3.018416 1_555
K3 O13 2.831237 1_555
K3 O17 2.831237 1_544
K3 O56 2.831237 1_445
K3 O6 2.831237 1_454
K3 O37 3.018416 1_555
K3 O85 3.018416 1_544
K3 O64 3.018416 1_445
K3 O72 3.018416 1_454
K4 O44 2.818074 1_455
K4 O21 2.818074 1_555
K4 O54 2.818074 1_455
K4 O8 2.818074 1_555
K4 O52 2.909140 1_455
K4 O18 2.909140 1_455
K4 O26 2.909140 1_555
K4 O19 2.909140 1_555
K5 O37 2.928364 1_555
K5 O64 2.928364 1_445
K5 O10 2.928364 1_555
K5 O91 2.928364 1_445
K5 O87 2.935754 1_545
K5 O70 2.935754 1_455
K5 O88 2.935754 1_545
K5 O15 2.935754 1_455
K6 O2 3.017634 1_545
K6 O32 3.017634 1_555
K6 O36 3.017634 1_555
K6 O11 3.017634 1_545
K7 O47 2.831237 1_455
K7 O51 2.831237 1_555
K7 O69 2.831237 1_445
K7 O31 2.831237 1_545
K7 O10 3.018416 1_555
K7 O91 3.018416 1_445
K7 O38 3.018416 1_545
K7 O76 3.018416 1_455
K8 O60 2.818074 1_555
K8 O66 2.818074 1_545
K8 O86 2.818074 1_545
K8 O75 2.818074 1_555
K8 O39 2.909140 1_545
K8 O74 2.909140 1_545
K8 O49 2.909140 1_555
K8 O22 2.909140 1_555
K9 O76 2.928364 1_455
K9 O85 2.928364 1_545
K9 O38 2.928364 1_545
K9 O72 2.928364 1_455
K9 O23 2.935754 1_445
K9 O3 2.935754 1_555
K9 O48 2.935754 1_555
K9 O16 2.935754 1_445
K10 O45 2.818074 1_545
K10 O82 2.818074 1_545
K10 O9 2.818074 1_555
K10 O14 2.818074 1_555
K10 O32 2.909140 1_555
K10 O2 2.909140 1_545
K10 O11 2.909140 1_545
K10 O36 2.909140 1_555
K11 O77 2.928364 1_555
K11 O62 2.928364 1_555
K11 O95 2.928364 1_555
K11 O34 2.928364 1_555
K11 O68 2.935754 1_555
K11 O24 2.935754 1_555
K11 O42 2.935754 1_555
K11 O67 2.935754 1_555
K12 O50 2.818074 1_455
K12 O27 2.818074 1_455
K12 O4 2.818074 1_555
K12 O20 2.818074 1_555
K12 O71 2.909140 1_455
K12 O7 2.909140 1_555
K12 O35 2.909140 1_455
K12 O41 2.909140 1_555
K13 O35 3.017634 1_455
K13 O41 3.017634 1_555
K13 O71 3.017634 1_455
K13 O7 3.017634 1_555
K14 O12 2.928364 1_555
K14 O84 2.928364 1_555
K14 O93 2.928364 1_555
K14 O53 2.928364 1_555
K14 O5 2.935754 1_555
K14 O46 2.935754 1_555
K14 O28 2.935754 1_555
K14 O0 2.935754 1_555
K15 O79 2.831237 1_555
K15 O94 2.831237 1_555
K15 O57 2.831237 1_555
K15 O78 2.831237 1_555
K15 O95 3.018416 1_555
K15 O34 3.018416 1_555
K15 O53 3.018416 1_555
K15 O12 3.018416 1_555
B0 O0 1.465635 1_555
B0 O57 1.480930 1_555
B0 O50 1.487223 1_555
B0 O53 1.497485 1_555
B1 O88 1.465635 1_545
B1 O51 1.480930 1_555
B1 O60 1.487223 1_555
B1 O10 1.497485 1_555
B2 O15 1.465635 1_455
B2 O13 1.480930 1_555
B2 O21 1.487223 1_555
B2 O37 1.497485 1_555
B3 O24 1.362317 1_555
B3 O54 1.366097 1_555
B3 O59 1.412868 1_555
B4 O5 1.465635 1_555
B4 O90 1.480930 1_555
B4 O45 1.487223 1_555
B4 O93 1.497485 1_555
B5 O10 1.359384 1_555
B5 O19 1.381222 1_555
B5 O80 1.394236 1_555
B6 O12 1.359384 1_555
B6 O36 1.381222 1_555
B6 O81 1.394236 1_555
B7 O42 1.362317 1_555
B7 O66 1.366097 1_555
B7 O43 1.412868 1_555
B8 O68 1.465635 1_555
B8 O89 1.480930 1_555
B8 O8 1.487223 1_555
B8 O77 1.497485 1_555
B9 O93 1.359384 1_555
B9 O71 1.381222 1_555
B9 O92 1.394236 1_555
B10 O46 1.362317 1_555
B10 O9 1.366097 1_555
B10 O63 1.412868 1_555
B11 O23 1.465635 1_455
B11 O31 1.480930 1_555
B11 O4 1.487223 1_555
B11 O38 1.497485 1_555
B12 O91 1.359384 1_555
B12 O52 1.381222 1_555
B12 O43 1.394236 1_555
B13 O67 1.362317 1_555
B13 O60 1.366097 1_555
B13 O80 1.412868 1_555
B14 O62 1.359384 1_555
B14 O49 1.381222 1_555
B14 O29 1.394236 1_555
B15 O72 1.359384 1_555
B15 O35 1.381222 1_555
B15 O63 1.394236 1_555
B16 O37 1.359384 1_555
B16 O22 1.381222 1_555
B16 O40 1.394236 1_555
B17 O5 1.362317 1_555
B17 O82 1.366097 1_555
B17 O30 1.412868 1_555
B18 O42 1.465635 1_555
B18 O78 1.480930 1_555
B18 O86 1.487223 1_555
B18 O34 1.497485 1_555
B19 O53 1.359384 1_555
B19 O2 1.381222 1_555
B19 O25 1.394236 1_555
B20 O67 1.465635 1_555
B20 O94 1.480930 1_555
B20 O75 1.487223 1_555
B20 O95 1.497485 1_555
B21 O0 1.362317 1_555
B21 O27 1.366097 1_555
B21 O58 1.412868 1_555
B22 O85 1.359384 1_555
B22 O7 1.381222 1_555
B22 O30 1.394236 1_555
B23 O3 1.362317 1_555
B23 O14 1.366097 1_555
B23 O33 1.412868 1_555
B24 O15 1.362317 1_555
B24 O44 1.366097 1_555
B24 O29 1.412868 1_555
B25 O77 1.359384 1_555
B25 O74 1.381222 1_555
B25 O83 1.394236 1_555
B26 O23 1.362317 1_555
B26 O50 1.366097 1_555
B26 O25 1.412868 1_555
B27 O95 1.359384 1_555
B27 O18 1.381222 1_555
B27 O1 1.394236 1_555
B28 O28 1.465635 1_555
B28 O79 1.480930 1_555
B28 O20 1.487223 1_555
B28 O12 1.497485 1_555
B29 O88 1.362317 1_555
B29 O86 1.366097 1_555
B29 O73 1.412868 1_555
B30 O48 1.465635 1_655
B30 O47 1.480930 1_555
B30 O27 1.487223 1_555
B30 O76 1.497485 1_555
B31 O46 1.465635 1_555
B31 O61 1.480930 1_555
B31 O14 1.487223 1_555
B31 O84 1.497485 1_555
B32 O68 1.362317 1_555
B32 O21 1.366097 1_555
B32 O40 1.412868 1_555
B33 O84 1.359384 1_555
B33 O41 1.381222 1_555
B33 O33 1.394236 1_555
B34 O70 1.465635 1_565
B34 O69 1.480930 1_555
B34 O66 1.487223 1_555
B34 O91 1.497485 1_555
B35 O87 1.362317 1_555
B35 O8 1.366097 1_555
B35 O83 1.412868 1_555
B36 O48 1.362317 1_555
B36 O20 1.366097 1_555
B36 O81 1.412868 1_555
B37 O64 1.359384 1_555
B37 O39 1.381222 1_555
B37 O59 1.394236 1_555
B38 O24 1.465635 1_555
B38 O55 1.480930 1_555
B38 O44 1.487223 1_555
B38 O62 1.497485 1_555
B39 O76 1.359384 1_555
B39 O32 1.381222 1_555
B39 O58 1.394236 1_555
B40 O70 1.362317 1_555
B40 O75 1.366097 1_555
B40 O1 1.412868 1_555
B41 O16 1.362317 1_555
B41 O45 1.366097 1_555
B41 O92 1.412868 1_555
B42 O3 1.465635 1_565
B42 O17 1.480930 1_555
B42 O82 1.487223 1_555
B42 O85 1.497485 1_555
B43 O87 1.465635 1_655
B43 O56 1.480930 1_555
B43 O54 1.487223 1_555
B43 O64 1.497485 1_555
B44 O38 1.359384 1_555
B44 O11 1.381222 1_555
B44 O65 1.394236 1_555
B45 O28 1.362317 1_555
B45 O4 1.366097 1_555
B45 O65 1.412868 1_555
B46 O16 1.465635 1_545
B46 O6 1.480930 1_555
B46 O9 1.487223 1_555
B46 O72 1.497485 1_555
B47 O34 1.359384 1_555
B47 O26 1.381222 1_555
B47 O73 1.394236 1_555
H0 O11 0.987333 1_545
H1 O26 0.987333 1_555
H2 O90 0.969207 1_555
H2 K1 2.827176 1_566
H3 O31 0.969207 1_655
H3 K0 2.827176 1_655
H4 O17 0.969207 1_545
H4 K1 2.827176 1_556
H5 O74 0.987333 1_555
H6 O7 0.987333 1_655
H7 O51 0.969207 1_565
H7 K6 2.827176 1_565
H8 O2 0.987333 1_555
H9 O55 0.969207 1_555
H9 K13 2.827176 1_654
H10 O69 0.969207 1_545
H10 K6 2.827176 1_555
H11 O89 0.969207 1_555
H11 K13 2.827176 1_554
H12 O18 0.987333 1_555
H13 O78 0.969207 1_555
H13 K6 2.827176 1_565
H14 O6 0.969207 1_565
H14 K1 2.827176 1_566
H15 O36 0.987333 1_555
H16 O41 0.987333 1_555
H17 O79 0.969207 1_555
H17 K0 2.827176 1_555
H18 O32 0.987333 1_565
H19 O35 0.987333 1_455
H20 O52 0.987333 1_455
H21 O94 0.969207 1_555
H21 K6 2.827176 1_555
H22 O13 0.969207 1_655
H22 K13 2.827176 1_654
H23 O22 0.987333 1_565
H24 O49 0.987333 1_555
H25 O56 0.969207 1_455
H25 K13 2.827176 1_554
H26 O61 0.969207 1_555
H26 K1 2.827176 1_556
H27 O19 0.987333 1_655
H28 O57 0.969207 1_555
H28 K0 2.827176 1_655
H29 O39 0.987333 1_545
H30 O47 0.969207 1_455
H30 K0 2.827176 1_555
H31 O71 0.987333 1_555
