# generated using pymatgen
data_As3Pb5ClO12
_symmetry_space_group_name_H-M   'P 1'
_cell_length_a   10.33030419
_cell_length_b   10.33030382
_cell_length_c   7.34774152
_cell_angle_alpha   90.00000000
_cell_angle_beta   90.00000000
_cell_angle_gamma   119.99999523
_symmetry_Int_Tables_number   1
_chemical_formula_structural   As3Pb5ClO12
_chemical_formula_sum   'As6 Pb10 Cl2 O24'
_cell_volume   679.06403162
_cell_formula_units_Z   2
loop_
 _symmetry_equiv_pos_site_id
 _symmetry_equiv_pos_as_xyz
  1  'x, y, z'
loop_
 _atom_site_type_symbol
 _atom_site_label
 _atom_site_symmetry_multiplicity
 _atom_site_fract_x
 _atom_site_fract_y
 _atom_site_fract_z
 _atom_site_occupancy
  As  As0  1  0.38290734  0.97255332  0.75000000  1
  As  As1  1  0.58964598  0.61709266  0.75000000  1
  As  As2  1  0.97255332  0.58964598  0.25000000  1
  As  As3  1  0.02744668  0.41035402  0.75000000  1
  As  As4  1  0.41035402  0.38290734  0.25000000  1
  As  As5  1  0.61709266  0.02744668  0.25000000  1
  Pb  Pb0  1  0.25577989  0.01745409  0.25000000  1
  Pb  Pb1  1  0.66666700  0.33333300  0.50640056  1
  Pb  Pb2  1  0.23832680  0.25577989  0.75000000  1
  Pb  Pb3  1  0.76167320  0.74422011  0.25000000  1
  Pb  Pb4  1  0.33333300  0.66666700  0.49359944  1
  Pb  Pb5  1  0.98254591  0.23832680  0.25000000  1
  Pb  Pb6  1  0.66666700  0.33333300  0.99359944  1
  Pb  Pb7  1  0.01745409  0.76167320  0.75000000  1
  Pb  Pb8  1  0.33333300  0.66666700  0.00640056  1
  Pb  Pb9  1  0.74422011  0.98254591  0.75000000  1
  Cl  Cl0  1  0.00000000  0.00000000  0.00000000  1
  Cl  Cl1  1  0.00000000  0.00000000  0.50000000  1
  O  O0  1  0.90809324  0.64080474  0.06594975  1
  O  O1  1  0.26728850  0.90809324  0.93405025  1
  O  O2  1  0.64080474  0.73271150  0.93405025  1
  O  O3  1  0.50186165  0.83949669  0.25000000  1
  O  O4  1  0.33763604  0.49813835  0.25000000  1
  O  O5  1  0.51749219  0.11979058  0.25000000  1
  O  O6  1  0.26728850  0.90809324  0.56594975  1
  O  O7  1  0.35919526  0.26728850  0.43405025  1
  O  O8  1  0.90809324  0.64080474  0.43405025  1
  O  O9  1  0.09190676  0.35919526  0.93405025  1
  O  O10  1  0.11979058  0.60229739  0.75000000  1
  O  O11  1  0.60229739  0.48250781  0.25000000  1
  O  O12  1  0.88020942  0.39770261  0.25000000  1
  O  O13  1  0.66236396  0.50186165  0.75000000  1
  O  O14  1  0.83949669  0.33763604  0.75000000  1
  O  O15  1  0.39770261  0.51749219  0.75000000  1
  O  O16  1  0.16050331  0.66236396  0.25000000  1
  O  O17  1  0.64080474  0.73271150  0.56594975  1
  O  O18  1  0.09190676  0.35919526  0.56594975  1
  O  O19  1  0.73271150  0.09190676  0.06594975  1
  O  O20  1  0.73271150  0.09190676  0.43405025  1
  O  O21  1  0.48250781  0.88020942  0.75000000  1
  O  O22  1  0.35919526  0.26728850  0.06594975  1
  O  O23  1  0.49813835  0.16050331  0.75000000  1
loop_
_geom_bond_atom_site_label_1
_geom_bond_atom_site_label_2
_geom_bond_distance
_geom_bond_site_symmetry_2
As0 O23 1.695735 1_565
As0 O6 1.703961 1_555
As0 O1 1.703961 1_555
As0 O21 1.717602 1_555
As1 O13 1.695727 1_555
As1 O2 1.703961 1_555
As1 O17 1.703961 1_555
As1 O15 1.717593 1_555
As2 O16 1.695736 1_655
As2 O0 1.703961 1_555
As2 O8 1.703961 1_555
As2 O12 1.717593 1_555
As3 O14 1.695736 1_455
As3 O18 1.703961 1_555
As3 O9 1.703961 1_555
As3 O10 1.717593 1_555
As4 O4 1.695727 1_555
As4 O22 1.703961 1_555
As4 O7 1.703961 1_555
As4 O11 1.717593 1_555
As5 O3 1.695735 1_545
As5 O19 1.703961 1_555
As5 O20 1.703961 1_555
As5 O5 1.717602 1_555
Cl0 Pb0 3.148347 1_555
Cl0 Pb9 3.148347 1_444
Cl0 Pb3 3.148351 1_445
Cl0 Pb2 3.148351 1_554
Cl0 Pb7 3.148355 1_544
Cl0 Pb5 3.148355 1_455
Cl1 Pb9 3.148347 1_445
Cl1 Pb0 3.148347 1_555
Cl1 Pb3 3.148351 1_445
Cl1 Pb2 3.148351 1_555
Cl1 Pb7 3.148355 1_545
Cl1 Pb5 3.148355 1_455
O0 Pb7 2.610395 1_654
O0 Pb3 2.621810 1_555
O1 Pb0 2.610398 1_566
O1 Pb7 2.621803 1_555
O2 Pb3 2.610393 1_556
O2 Pb9 2.621802 1_555
O3 Pb8 2.512768 1_555
O3 Pb4 2.512768 1_555
O4 Pb4 2.512776 1_555
O4 Pb8 2.512776 1_555
O5 Pb0 2.359822 1_555
O5 Pb6 2.718620 1_554
O5 Pb1 2.718620 1_555
O6 Pb0 2.610398 1_565
O6 Pb7 2.621803 1_555
O7 Pb2 2.610393 1_555
O7 Pb0 2.621802 1_555
O8 Pb7 2.610395 1_655
O8 Pb3 2.621810 1_555
O9 Pb5 2.610395 1_456
O9 Pb2 2.621810 1_555
O10 Pb7 2.359821 1_555
O10 Pb8 2.718617 1_556
O10 Pb4 2.718617 1_555
O11 Pb3 2.359822 1_555
O11 Pb6 2.718631 1_554
O11 Pb1 2.718631 1_555
O12 Pb5 2.359821 1_555
O12 Pb6 2.718617 1_554
O12 Pb1 2.718617 1_555
O13 Pb6 2.512776 1_555
O13 Pb1 2.512776 1_555
O14 Pb1 2.512761 1_555
O14 Pb6 2.512761 1_555
O15 Pb2 2.359822 1_555
O15 Pb8 2.718631 1_556
O15 Pb4 2.718631 1_555
O16 Pb8 2.512761 1_555
O16 Pb4 2.512761 1_555
O17 Pb3 2.610393 1_555
O17 Pb9 2.621802 1_555
O18 Pb5 2.610395 1_455
O18 Pb2 2.621810 1_555
O19 Pb9 2.610398 1_544
O19 Pb5 2.621803 1_555
O20 Pb9 2.610398 1_545
O20 Pb5 2.621803 1_555
O21 Pb9 2.359822 1_555
O21 Pb8 2.718620 1_556
O21 Pb4 2.718620 1_555
O22 Pb2 2.610393 1_554
O22 Pb0 2.621802 1_555
O23 Pb1 2.512768 1_555
O23 Pb6 2.512768 1_555
