# generated using pymatgen
data_K3Nd3I10
_symmetry_space_group_name_H-M   'P 1'
_cell_length_a   14.46959900
_cell_length_b   9.10295200
_cell_length_c   9.99929508
_cell_angle_alpha   86.81524650
_cell_angle_beta   90.00000000
_cell_angle_gamma   90.00000000
_symmetry_Int_Tables_number   1
_chemical_formula_structural   K3Nd3I10
_chemical_formula_sum   'K6 Nd6 I20'
_cell_volume   1315.03370054
_cell_formula_units_Z   2
loop_
 _symmetry_equiv_pos_site_id
 _symmetry_equiv_pos_as_xyz
  1  'x, y, z'
loop_
 _atom_site_type_symbol
 _atom_site_label
 _atom_site_symmetry_multiplicity
 _atom_site_fract_x
 _atom_site_fract_y
 _atom_site_fract_z
 _atom_site_occupancy
  K  K0  1  0.84491400  0.20433000  0.28175000  1
  K  K1  1  0.34491400  0.79567000  0.71825000  1
  K  K2  1  0.65778100  0.70969400  0.75486400  1
  K  K3  1  0.68646400  0.73886300  0.26461900  1
  K  K4  1  0.18646400  0.26113700  0.73538100  1
  K  K5  1  0.15778100  0.29030600  0.24513600  1
  Nd  Nd0  1  0.81249700  0.27077900  0.80290000  1
  Nd  Nd1  1  0.56849800  0.17589200  0.94899200  1
  Nd  Nd2  1  0.06849800  0.82410800  0.05100800  1
  Nd  Nd3  1  0.31249700  0.72922100  0.19710000  1
  Nd  Nd4  1  0.98821100  0.68841600  0.53430800  1
  Nd  Nd5  1  0.48821100  0.31158400  0.46569200  1
  I  I0  1  0.98960100  0.17400000  0.98521400  1
  I  I1  1  0.32206400  0.08484300  0.44589600  1
  I  I2  1  0.60649800  0.11058400  0.27398700  1
  I  I3  1  0.55390800  0.03984500  0.66481700  1
  I  I4  1  0.25064400  0.01874700  0.03369100  1
  I  I5  1  0.75064400  0.98125300  0.96630900  1
  I  I6  1  0.05390800  0.96015500  0.33518300  1
  I  I7  1  0.10649800  0.88941600  0.72601300  1
  I  I8  1  0.82206400  0.91515700  0.55410400  1
  I  I9  1  0.48960100  0.82600000  0.01478600  1
  I  I10  1  0.47584300  0.67236600  0.44236100  1
  I  I11  1  0.19725700  0.55846100  0.98853700  1
  I  I12  1  0.91998400  0.59670100  0.83179200  1
  I  I13  1  0.92629100  0.60519000  0.23494100  1
  I  I14  1  0.19954700  0.58889600  0.45559700  1
  I  I15  1  0.69954700  0.41110400  0.54440300  1
  I  I16  1  0.42629100  0.39481000  0.76505900  1
  I  I17  1  0.41998400  0.40329900  0.16820800  1
  I  I18  1  0.69725700  0.44153900  0.01146300  1
  I  I19  1  0.97584300  0.32763400  0.55763900  1
loop_
_geom_bond_atom_site_label_1
_geom_bond_atom_site_label_2
_geom_bond_distance
_geom_bond_site_symmetry_2
I0 Nd0 3.238531 1_555
I0 Nd2 3.412889 1_646
I0 K0 3.652713 1_556
I0 K5 3.755469 1_656
I0 K4 3.842381 1_655
I1 Nd5 3.181875 1_555
I1 K5 3.572318 1_555
I1 K1 3.695749 1_545
I1 K4 3.914108 1_555
I2 Nd5 3.215821 1_555
I2 Nd1 3.316893 1_554
I2 K0 3.555647 1_555
I2 K3 3.582267 1_545
I3 Nd1 3.169178 1_555
I3 Nd5 3.231061 1_555
I3 K2 3.435286 1_545
I3 K1 3.773447 1_545
I4 Nd3 3.152533 1_545
I4 Nd2 3.175124 1_545
I4 K5 3.601004 1_555
I4 K4 3.727899 1_554
I4 K1 4.079802 1_544
I5 Nd0 3.152533 1_565
I5 Nd1 3.175124 1_565
I5 K2 3.601004 1_555
I5 K3 3.727899 1_556
I5 K0 4.079802 1_566
I6 Nd2 3.169178 1_555
I6 Nd4 3.231061 1_455
I6 K5 3.435286 1_565
I6 K0 3.773447 1_465
I7 Nd4 3.215821 1_455
I7 Nd2 3.316893 1_556
I7 K1 3.555647 1_555
I7 K4 3.582267 1_565
I8 Nd4 3.181875 1_555
I8 K2 3.572318 1_555
I8 K0 3.695749 1_565
I8 K3 3.914108 1_555
I9 Nd3 3.238531 1_555
I9 Nd1 3.412889 1_564
I9 K1 3.652713 1_554
I9 K2 3.755469 1_554
I9 K3 3.842381 1_555
I10 Nd5 3.284382 1_555
I10 Nd3 3.424566 1_555
I10 K3 3.562797 1_555
I10 K1 3.578183 1_555
I10 K2 4.114401 1_555
I11 Nd2 3.142723 1_556
I11 Nd3 3.147401 1_556
I11 K5 3.488872 1_556
I11 K4 3.810357 1_555
I11 K1 3.985401 1_555
I12 Nd4 3.200641 1_555
I12 Nd0 3.376367 1_555
I12 Nd2 3.769909 1_656
I12 K2 3.994493 1_555
I13 Nd4 3.254149 1_555
I13 Nd2 3.343757 1_655
I13 K3 3.694743 1_555
I13 K0 3.838107 1_555
I14 Nd3 3.258376 1_555
I14 Nd4 3.297032 1_455
I14 K5 3.580132 1_555
I14 K1 3.926085 1_555
I14 K4 3.979562 1_555
I15 Nd0 3.258376 1_555
I15 Nd5 3.297032 1_555
I15 K2 3.580132 1_555
I15 K0 3.926085 1_555
I15 K3 3.979562 1_555
I16 Nd5 3.254149 1_555
I16 Nd1 3.343757 1_555
I16 K4 3.694743 1_555
I16 K1 3.838107 1_555
I17 Nd5 3.200641 1_555
I17 Nd3 3.376367 1_555
I17 Nd1 3.769909 1_554
I17 K5 3.994493 1_555
I18 Nd1 3.142723 1_554
I18 Nd0 3.147401 1_554
I18 K2 3.488872 1_554
I18 K3 3.810357 1_555
I18 K0 3.985401 1_555
I19 Nd4 3.284382 1_555
I19 Nd0 3.424566 1_555
I19 K4 3.562797 1_655
I19 K0 3.578183 1_555
I19 K5 4.114401 1_655
