# generated using pymatgen
data_RbLiNd2(MoO4)4
_symmetry_space_group_name_H-M   'P 1'
_cell_length_a   7.13357084
_cell_length_b   7.13357084
_cell_length_c   19.98819802
_cell_angle_alpha   89.13444582
_cell_angle_beta   89.13444582
_cell_angle_gamma   135.70609187
_symmetry_Int_Tables_number   1
_chemical_formula_structural   RbLiNd2(MoO4)4
_chemical_formula_sum   'Rb2 Li2 Nd4 Mo8 O32'
_cell_volume   709.74943866
_cell_formula_units_Z   2
loop_
 _symmetry_equiv_pos_site_id
 _symmetry_equiv_pos_as_xyz
  1  'x, y, z'
loop_
 _atom_site_type_symbol
 _atom_site_label
 _atom_site_symmetry_multiplicity
 _atom_site_fract_x
 _atom_site_fract_y
 _atom_site_fract_z
 _atom_site_occupancy
  Rb  Rb0  1  0.97042500  0.02957500  0.25000000  1
  Rb  Rb1  1  0.02957500  0.97042500  0.75000000  1
  Li  Li0  1  0.68839300  0.31160700  0.25000000  1
  Li  Li1  1  0.31160700  0.68839300  0.75000000  1
  Nd  Nd0  1  0.14737100  0.85525900  0.53397300  1
  Nd  Nd1  1  0.14474100  0.85262900  0.96602700  1
  Nd  Nd2  1  0.85262900  0.14474100  0.46602700  1
  Nd  Nd3  1  0.85525900  0.14737100  0.03397300  1
  Mo  Mo0  1  0.25069100  0.73755300  0.14829200  1
  Mo  Mo1  1  0.26244700  0.74930900  0.35170800  1
  Mo  Mo2  1  0.57005100  0.44342600  0.40795400  1
  Mo  Mo3  1  0.73755300  0.25069100  0.64829200  1
  Mo  Mo4  1  0.55657400  0.42994900  0.09204600  1
  Mo  Mo5  1  0.74930900  0.26244700  0.85170800  1
  Mo  Mo6  1  0.42994900  0.55657400  0.59204600  1
  Mo  Mo7  1  0.44342600  0.57005100  0.90795400  1
  O  O0  1  0.58997900  0.89333700  0.13287900  1
  O  O1  1  0.81658200  0.48245300  0.45616900  1
  O  O2  1  0.47534600  0.06299200  0.71055700  1
  O  O3  1  0.75983400  0.67926300  0.89950400  1
  O  O4  1  0.24016600  0.32073700  0.10049600  1
  O  O5  1  0.28337900  0.99412100  0.17491100  1
  O  O6  1  0.18341800  0.51754700  0.54383100  1
  O  O7  1  0.29406200  0.48150700  0.82937500  1
  O  O8  1  0.93700800  0.52465400  0.78944300  1
  O  O9  1  0.99412100  0.28337900  0.67491100  1
  O  O10  1  0.00587900  0.71662100  0.32508900  1
  O  O11  1  0.51754700  0.18341800  0.04383100  1
  O  O12  1  0.59659400  0.07536900  0.56730900  1
  O  O13  1  0.40340600  0.92463100  0.43269100  1
  O  O14  1  0.74321100  0.78580500  0.53982800  1
  O  O15  1  0.10666300  0.41002100  0.36712100  1
  O  O16  1  0.51849300  0.70593800  0.67062500  1
  O  O17  1  0.48245300  0.81658200  0.95616900  1
  O  O18  1  0.70593800  0.51849300  0.17062500  1
  O  O19  1  0.06299200  0.47534600  0.21055700  1
  O  O20  1  0.92463100  0.40340600  0.93269100  1
  O  O21  1  0.67926300  0.75983400  0.39950400  1
  O  O22  1  0.52465400  0.93700800  0.28944300  1
  O  O23  1  0.41002100  0.10666300  0.86712100  1
  O  O24  1  0.71662100  0.00587900  0.82508900  1
  O  O25  1  0.48150700  0.29406200  0.32937500  1
  O  O26  1  0.32073700  0.24016600  0.60049600  1
  O  O27  1  0.89333700  0.58997900  0.63287900  1
  O  O28  1  0.07536900  0.59659400  0.06730900  1
  O  O29  1  0.78580500  0.74321100  0.03982800  1
  O  O30  1  0.25678900  0.21419500  0.46017200  1
  O  O31  1  0.21419500  0.25678900  0.96017200  1
loop_
_geom_bond_atom_site_label_1
_geom_bond_atom_site_label_2
_geom_bond_distance
_geom_bond_site_symmetry_2
Li0 O18 2.090400 1_555
Li0 O25 2.090400 1_555
Li0 O22 2.137056 1_545
Li0 O19 2.137056 1_655
Li0 O10 2.568267 1_655
Li0 O5 2.568267 1_545
Li1 O7 2.090400 1_555
Li1 O16 2.090400 1_555
Li1 O8 2.137056 1_455
Li1 O2 2.137056 1_565
Li1 O24 2.568267 1_565
Li1 O9 2.568267 1_455
Nd0 O27 2.375494 1_455
Nd0 O12 2.464085 1_565
Nd0 O26 2.477013 1_565
Nd0 O13 2.498659 1_555
Nd0 O1 2.512289 1_455
Nd0 O30 2.516251 1_565
Nd0 O14 2.552380 1_455
Nd0 O6 2.604357 1_555
Nd1 O23 2.375494 1_565
Nd1 O20 2.464085 1_455
Nd1 O3 2.477013 1_455
Nd1 O28 2.498659 1_556
Nd1 O11 2.512289 1_566
Nd1 O29 2.516251 1_456
Nd1 O31 2.552380 1_565
Nd1 O17 2.604357 1_555
Nd2 O15 2.375494 1_655
Nd2 O13 2.464085 1_545
Nd2 O21 2.477013 1_545
Nd2 O12 2.498659 1_555
Nd2 O6 2.512289 1_655
Nd2 O14 2.516251 1_545
Nd2 O30 2.552380 1_655
Nd2 O1 2.604357 1_555
Nd3 O0 2.375494 1_545
Nd3 O28 2.464085 1_655
Nd3 O4 2.477013 1_655
Nd3 O20 2.498659 1_554
Nd3 O17 2.512289 1_544
Nd3 O31 2.516251 1_654
Nd3 O29 2.552380 1_545
Nd3 O11 2.604357 1_555
Mo0 O5 1.763374 1_555
Mo0 O19 1.770448 1_555
Mo0 O0 1.817864 1_555
Mo0 O28 1.872308 1_555
Mo1 O10 1.763374 1_555
Mo1 O22 1.770448 1_555
Mo1 O15 1.817864 1_555
Mo1 O13 1.872308 1_555
Mo2 O25 1.765872 1_555
Mo2 O21 1.788094 1_555
Mo2 O30 1.844993 1_555
Mo2 O1 1.859446 1_555
Mo3 O9 1.763374 1_555
Mo3 O2 1.770448 1_555
Mo3 O27 1.817864 1_555
Mo3 O12 1.872308 1_555
Mo4 O18 1.765872 1_555
Mo4 O4 1.788094 1_555
Mo4 O29 1.844993 1_555
Mo4 O11 1.859446 1_555
Mo5 O24 1.763374 1_555
Mo5 O8 1.770448 1_555
Mo5 O23 1.817864 1_555
Mo5 O20 1.872308 1_555
Mo6 O16 1.765872 1_555
Mo6 O26 1.788094 1_555
Mo6 O14 1.844993 1_555
Mo6 O6 1.859446 1_555
Mo7 O7 1.765872 1_555
Mo7 O3 1.788094 1_555
Mo7 O31 1.844993 1_555
Mo7 O17 1.859446 1_555
O0 Rb0 3.205518 1_565
O2 Rb1 2.841159 1_545
O3 Rb1 3.296072 1_655
O4 Rb0 3.296072 1_455
O5 Rb0 2.831806 1_465
O7 Rb1 3.128443 1_545
O8 Rb1 2.841159 1_655
O9 Rb1 2.831806 1_645
O10 Rb0 2.831806 1_465
O15 Rb0 3.205518 1_455
O16 Rb1 3.128443 1_655
O18 Rb0 3.128443 1_565
O19 Rb0 2.841159 1_455
O21 Rb0 3.296072 1_565
O22 Rb0 2.841159 1_565
O23 Rb1 3.205518 1_545
O24 Rb1 2.831806 1_645
O25 Rb0 3.128443 1_455
O26 Rb1 3.296072 1_545
O27 Rb1 3.205518 1_655
