# generated using pymatgen
data_Lu2(CN2)3
_symmetry_space_group_name_H-M   'P 1'
_cell_length_a   10.43554811
_cell_length_b   10.43554811
_cell_length_c   10.43554820
_cell_angle_alpha   34.74543492
_cell_angle_beta   34.74543492
_cell_angle_gamma   34.74543908
_symmetry_Int_Tables_number   1
_chemical_formula_structural   Lu2(CN2)3
_chemical_formula_sum   'Lu4 C6 N12'
_cell_volume   329.45491482
_cell_formula_units_Z   2
loop_
 _symmetry_equiv_pos_site_id
 _symmetry_equiv_pos_as_xyz
  1  'x, y, z'
loop_
 _atom_site_type_symbol
 _atom_site_label
 _atom_site_symmetry_multiplicity
 _atom_site_fract_x
 _atom_site_fract_y
 _atom_site_fract_z
 _atom_site_occupancy
  Lu  Lu0  1  0.66413460  0.66413460  0.66413460  1
  Lu  Lu1  1  0.83586540  0.83586540  0.83586540  1
  Lu  Lu2  1  0.33586540  0.33586540  0.33586540  1
  Lu  Lu3  1  0.16413460  0.16413460  0.16413460  1
  C  C0  1  0.04679612  0.45320388  0.75000000  1
  C  C1  1  0.95320388  0.54679612  0.25000000  1
  C  C2  1  0.25000000  0.95320388  0.54679612  1
  C  C3  1  0.54679612  0.25000000  0.95320388  1
  C  C4  1  0.45320388  0.75000000  0.04679612  1
  C  C5  1  0.75000000  0.04679612  0.45320388  1
  N  N0  1  0.86125903  0.04682484  0.46037678  1
  N  N1  1  0.36125903  0.96037678  0.54682484  1
  N  N2  1  0.04682484  0.46037678  0.86125903  1
  N  N3  1  0.95317516  0.53962322  0.13874097  1
  N  N4  1  0.03962322  0.45317516  0.63874097  1
  N  N5  1  0.45317516  0.63874097  0.03962322  1
  N  N6  1  0.63874097  0.03962322  0.45317516  1
  N  N7  1  0.96037678  0.54682484  0.36125903  1
  N  N8  1  0.13874097  0.95317516  0.53962322  1
  N  N9  1  0.54682484  0.36125903  0.96037678  1
  N  N10  1  0.46037678  0.86125903  0.04682484  1
  N  N11  1  0.53962322  0.13874097  0.95317516  1
loop_
_geom_bond_atom_site_label_1
_geom_bond_atom_site_label_2
_geom_bond_distance
_geom_bond_site_symmetry_2
Lu0 N9 2.264334 1_555
Lu0 N7 2.264335 1_555
Lu0 N1 2.264335 1_555
Lu0 N6 2.312296 1_565
Lu0 N5 2.312296 1_556
Lu0 N4 2.312296 1_655
Lu1 N8 2.264334 1_655
Lu1 N3 2.264335 1_556
Lu1 N11 2.264335 1_565
Lu1 N10 2.312296 1_556
Lu1 N0 2.312296 1_565
Lu1 N2 2.312296 1_655
Lu2 N5 2.264334 1_555
Lu2 N4 2.264335 1_555
Lu2 N6 2.264335 1_555
Lu2 N1 2.312296 1_545
Lu2 N9 2.312296 1_554
Lu2 N7 2.312296 1_455
Lu3 N0 2.264334 1_455
Lu3 N2 2.264335 1_554
Lu3 N10 2.264335 1_545
Lu3 N11 2.312296 1_554
Lu3 N8 2.312296 1_545
Lu3 N3 2.312296 1_455
C0 N2 1.223548 1_555
C0 N4 1.223548 1_555
C1 N7 1.223548 1_555
C1 N3 1.223548 1_555
C2 N1 1.223548 1_555
C2 N8 1.223548 1_555
C3 N11 1.223548 1_555
C3 N9 1.223548 1_555
C4 N10 1.223548 1_555
C4 N5 1.223548 1_555
C5 N6 1.223548 1_555
C5 N0 1.223548 1_555
