# generated using pymatgen
data_NaTi(SiO3)2
_symmetry_space_group_name_H-M   'P 1'
_cell_length_a   6.64728944
_cell_length_b   6.64728944
_cell_length_c   5.31239795
_cell_angle_alpha   77.98933741
_cell_angle_beta   77.98933741
_cell_angle_gamma   83.30062554
_symmetry_Int_Tables_number   1
_chemical_formula_structural   NaTi(SiO3)2
_chemical_formula_sum   'Na2 Ti2 Si4 O12'
_cell_volume   223.91012331
_cell_formula_units_Z   2
loop_
 _symmetry_equiv_pos_site_id
 _symmetry_equiv_pos_as_xyz
  1  'x, y, z'
loop_
 _atom_site_type_symbol
 _atom_site_label
 _atom_site_symmetry_multiplicity
 _atom_site_fract_x
 _atom_site_fract_y
 _atom_site_fract_z
 _atom_site_occupancy
  Na  Na0  1  0.69500600  0.30499400  0.75000000  1
  Na  Na1  1  0.30499400  0.69500600  0.25000000  1
  Ti  Ti0  1  0.91152000  0.08848000  0.25000000  1
  Ti  Ti1  1  0.08848000  0.91152000  0.75000000  1
  Si  Si0  1  0.80046100  0.61427000  0.24104200  1
  Si  Si1  1  0.61427000  0.80046100  0.74104200  1
  Si  Si2  1  0.19953900  0.38573000  0.75895800  1
  Si  Si3  1  0.38573000  0.19953900  0.25895800  1
  O  O0  1  0.10836100  0.62138400  0.69131700  1
  O  O1  1  0.89163900  0.37861600  0.30868300  1
  O  O2  1  0.03368100  0.20586400  0.84940700  1
  O  O3  1  0.96631900  0.79413600  0.15059300  1
  O  O4  1  0.34178100  0.35909000  0.98659900  1
  O  O5  1  0.65821900  0.64091000  0.01340100  1
  O  O6  1  0.35909000  0.34178100  0.48659900  1
  O  O7  1  0.64091000  0.65821900  0.51340100  1
  O  O8  1  0.37861600  0.89163900  0.80868300  1
  O  O9  1  0.62138400  0.10836100  0.19131700  1
  O  O10  1  0.79413600  0.96631900  0.65059300  1
  O  O11  1  0.20586400  0.03368100  0.34940700  1
loop_
_geom_bond_atom_site_label_1
_geom_bond_atom_site_label_2
_geom_bond_distance
_geom_bond_site_symmetry_2
Na0 O2 2.405235 1_655
Na0 O10 2.405235 1_545
Na0 O1 2.416771 1_555
Na0 O9 2.416771 1_556
Na0 O7 2.446432 1_555
Na0 O4 2.446432 1_555
Na0 O6 2.834497 1_555
Na0 O5 2.834497 1_556
Na1 O11 2.405235 1_565
Na1 O3 2.405235 1_455
Na1 O0 2.416771 1_555
Na1 O8 2.416771 1_554
Na1 O5 2.446432 1_555
Na1 O6 2.446432 1_555
Na1 O4 2.834497 1_554
Na1 O7 2.834497 1_555
O0 Si2 1.607831 1_555
O0 Ti1 2.001957 1_555
O1 Si0 1.607831 1_555
O1 Ti0 2.001957 1_555
O2 Si2 1.650422 1_555
O2 Ti1 2.103209 1_545
O2 Ti0 2.129467 1_456
O3 Si0 1.650422 1_555
O3 Ti0 2.103209 1_565
O3 Ti1 2.129467 1_654
O4 Si2 1.653941 1_555
O4 Si3 1.663915 1_556
O5 Si0 1.653941 1_555
O5 Si1 1.663915 1_554
O6 Si3 1.653941 1_555
O6 Si2 1.663915 1_555
O7 Si1 1.653941 1_555
O7 Si0 1.663915 1_555
O8 Si1 1.607831 1_555
O8 Ti1 2.001957 1_555
O9 Si3 1.607831 1_555
O9 Ti0 2.001957 1_555
O10 Si1 1.650422 1_555
O10 Ti1 2.103209 1_655
O10 Ti0 2.129467 1_565
O11 Si3 1.650422 1_555
O11 Ti0 2.103209 1_455
O11 Ti1 2.129467 1_545
