# generated using pymatgen
data_Ba10Pr5Nb(Sn2O15)2
_symmetry_space_group_name_H-M   'P 1'
_cell_length_a   8.79981800
_cell_length_b   10.73766185
_cell_length_c   10.78254189
_cell_angle_alpha   80.65573382
_cell_angle_beta   113.97260721
_cell_angle_gamma   113.87105837
_symmetry_Int_Tables_number   1
_chemical_formula_structural   Ba10Pr5Nb(Sn2O15)2
_chemical_formula_sum   'Ba10 Pr5 Nb1 Sn4 O30'
_cell_volume   851.31403983
_cell_formula_units_Z   1
loop_
 _symmetry_equiv_pos_site_id
 _symmetry_equiv_pos_as_xyz
  1  'x, y, z'
loop_
 _atom_site_type_symbol
 _atom_site_label
 _atom_site_symmetry_multiplicity
 _atom_site_fract_x
 _atom_site_fract_y
 _atom_site_fract_z
 _atom_site_occupancy
  Ba  Ba0  1  0.24975300  0.00063200  0.00023600  1
  Ba  Ba1  1  0.84929700  0.40023400  0.80196200  1
  Ba  Ba2  1  0.75024700  0.99936800  0.99976400  1
  Ba  Ba3  1  0.45228800  0.80231700  0.60072800  1
  Ba  Ba4  1  0.35216100  0.39885400  0.80128900  1
  Ba  Ba5  1  0.05036300  0.19886400  0.39943200  1
  Ba  Ba6  1  0.94963700  0.80113600  0.60056800  1
  Ba  Ba7  1  0.64783900  0.60114600  0.19871100  1
  Ba  Ba8  1  0.54771200  0.19768300  0.39927200  1
  Ba  Ba9  1  0.15070300  0.59976600  0.19803800  1
  Pr  Pr0  1  0.70005600  0.29979400  0.10038700  1
  Pr  Pr1  1  0.29994400  0.70020600  0.89961300  1
  Pr  Pr2  1  0.90084200  0.10035300  0.70088400  1
  Pr  Pr3  1  0.50000000  0.50000000  0.50000000  1
  Pr  Pr4  1  0.09915800  0.89964700  0.29911600  1
  Nb  Nb0  1  0.00000000  0.50000000  0.50000000  1
  Sn  Sn0  1  0.19989300  0.29988000  0.10011000  1
  Sn  Sn1  1  0.80010700  0.70012000  0.89989000  1
  Sn  Sn2  1  0.40004400  0.10020900  0.70037800  1
  Sn  Sn3  1  0.59995600  0.89979100  0.29962200  1
  O  O0  1  0.48461500  0.82184800  0.10332000  1
  O  O1  1  0.08549600  0.22394800  0.90282600  1
  O  O2  1  0.28125100  0.49729900  0.02320800  1
  O  O3  1  0.95692800  0.31005000  0.07479200  1
  O  O4  1  0.04307200  0.68995000  0.92520800  1
  O  O5  1  0.71874900  0.50270100  0.97679200  1
  O  O6  1  0.68504900  0.62235500  0.70293000  1
  O  O7  1  0.88077000  0.89720500  0.82278100  1
  O  O8  1  0.55557500  0.70847200  0.87358000  1
  O  O9  1  0.64363600  0.09111100  0.72498900  1
  O  O10  1  0.31792400  0.90256600  0.77518700  1
  O  O11  1  0.51538500  0.17815200  0.89668000  1
  O  O12  1  0.28494100  0.02230700  0.50314500  1
  O  O13  1  0.48190100  0.29761100  0.62321900  1
  O  O14  1  0.15606600  0.10992400  0.67344500  1
  O  O15  1  0.23520600  0.49041900  0.52529500  1
  O  O16  1  0.92040700  0.30922300  0.57295700  1
  O  O17  1  0.10980500  0.57434000  0.69007100  1
  O  O18  1  0.89019500  0.42566000  0.30992900  1
  O  O19  1  0.07959300  0.69077700  0.42704300  1
  O  O20  1  0.76479400  0.50958100  0.47470500  1
  O  O21  1  0.84393400  0.89007600  0.32655500  1
  O  O22  1  0.51809900  0.70238900  0.37678100  1
  O  O23  1  0.71505900  0.97769300  0.49685500  1
  O  O24  1  0.68207600  0.09743400  0.22481300  1
  O  O25  1  0.35636400  0.90888900  0.27501100  1
  O  O26  1  0.44442500  0.29152800  0.12642000  1
  O  O27  1  0.11923000  0.10279500  0.17721900  1
  O  O28  1  0.31495100  0.37764500  0.29707000  1
  O  O29  1  0.91450400  0.77605200  0.09717400  1
loop_
_geom_bond_atom_site_label_1
_geom_bond_atom_site_label_2
_geom_bond_distance
_geom_bond_site_symmetry_2
Ba0 O7 2.856638 1_444
Ba0 O11 2.857921 1_554
Ba0 O25 2.858348 1_545
Ba0 O27 3.105643 1_555
Ba0 O1 3.113847 1_554
Ba0 O26 3.114102 1_555
Ba0 O0 3.137481 1_545
Ba0 O4 3.140272 1_544
Ba0 O10 3.143404 1_544
Ba0 O29 3.397098 1_445
Ba0 O24 3.398270 1_555
Ba0 O14 3.398905 1_554
Ba1 O3 2.835860 1_556
Ba1 O13 2.850281 1_555
Ba1 O17 2.872653 1_655
Ba1 O5 3.088732 1_555
Ba1 O4 3.091750 1_655
Ba1 O6 3.102689 1_555
Ba1 O1 3.124901 1_655
Ba1 O9 3.129492 1_555
Ba1 O16 3.158786 1_555
Ba1 O11 3.367511 1_555
Ba1 O2 3.384996 1_656
Ba1 O20 3.407642 1_555
Ba2 O27 2.856638 1_666
Ba2 O0 2.857921 1_556
Ba2 O9 2.858348 1_565
Ba2 O7 3.105643 1_555
Ba2 O29 3.113847 1_556
Ba2 O8 3.114102 1_555
Ba2 O11 3.137481 1_565
Ba2 O3 3.140272 1_566
Ba2 O24 3.143404 1_566
Ba2 O1 3.397098 1_665
Ba2 O10 3.398270 1_555
Ba2 O21 3.398905 1_556
Ba3 O23 2.835987 1_555
Ba3 O8 2.846534 1_555
Ba3 O19 2.873327 1_555
Ba3 O9 3.088099 1_565
Ba3 O10 3.096832 1_555
Ba3 O12 3.099166 1_565
Ba3 O22 3.130212 1_555
Ba3 O6 3.133936 1_555
Ba3 O15 3.157674 1_555
Ba3 O7 3.366708 1_555
Ba3 O25 3.379981 1_555
Ba3 O17 3.409648 1_555
Ba4 O5 2.836228 1_555
Ba4 O1 2.843485 1_555
Ba4 O15 2.874372 1_555
Ba4 O11 3.082206 1_555
Ba4 O14 3.102559 1_555
Ba4 O13 3.104109 1_555
Ba4 O8 3.123415 1_555
Ba4 O2 3.130664 1_556
Ba4 O17 3.158729 1_555
Ba4 O26 3.377854 1_556
Ba4 O6 3.387253 1_555
Ba4 O16 3.410527 1_455
Ba5 O14 2.841855 1_555
Ba5 O24 2.843423 1_455
Ba5 O28 2.847305 1_555
Ba5 O27 3.108180 1_555
Ba5 O12 3.115902 1_555
Ba5 O21 3.118052 1_445
Ba5 O15 3.122944 1_555
Ba5 O18 3.123767 1_455
Ba5 O16 3.125432 1_455
Ba5 O3 3.384248 1_455
Ba5 O23 3.389204 1_445
Ba5 O13 3.390190 1_555
Ba6 O21 2.841855 1_555
Ba6 O10 2.843423 1_655
Ba6 O6 2.847305 1_555
Ba6 O7 3.108180 1_555
Ba6 O23 3.115902 1_555
Ba6 O14 3.118052 1_665
Ba6 O20 3.122944 1_555
Ba6 O17 3.123767 1_655
Ba6 O19 3.125432 1_655
Ba6 O4 3.384248 1_655
Ba6 O12 3.389204 1_665
Ba6 O22 3.390190 1_555
Ba7 O2 2.836228 1_555
Ba7 O29 2.843485 1_555
Ba7 O20 2.874372 1_555
Ba7 O0 3.082206 1_555
Ba7 O21 3.102559 1_555
Ba7 O22 3.104109 1_555
Ba7 O26 3.123415 1_555
Ba7 O5 3.130664 1_554
Ba7 O18 3.158729 1_555
Ba7 O8 3.377854 1_554
Ba7 O28 3.387253 1_555
Ba7 O19 3.410527 1_655
Ba8 O12 2.835987 1_555
Ba8 O26 2.846534 1_555
Ba8 O16 2.873327 1_555
Ba8 O25 3.088099 1_545
Ba8 O24 3.096832 1_555
Ba8 O23 3.099166 1_545
Ba8 O13 3.130212 1_555
Ba8 O28 3.133936 1_555
Ba8 O20 3.157674 1_555
Ba8 O27 3.366708 1_555
Ba8 O9 3.379981 1_555
Ba8 O18 3.409648 1_555
Ba9 O4 2.835860 1_554
Ba9 O22 2.850281 1_555
Ba9 O18 2.872653 1_455
Ba9 O2 3.088732 1_555
Ba9 O3 3.091750 1_455
Ba9 O28 3.102689 1_555
Ba9 O29 3.124901 1_455
Ba9 O25 3.129492 1_555
Ba9 O19 3.158786 1_555
Ba9 O0 3.367511 1_555
Ba9 O5 3.384996 1_454
Ba9 O15 3.407642 1_555
Nb0 O17 2.017144 1_555
Nb0 O18 2.017144 1_455
Nb0 O16 2.017159 1_455
Nb0 O19 2.017159 1_555
Nb0 O20 2.018272 1_455
Nb0 O15 2.018272 1_555
O0 Sn3 2.086327 1_555
O0 Pr1 2.341919 1_554
O1 Sn0 2.088548 1_556
O1 Pr2 2.336837 1_455
O2 Sn0 2.092138 1_555
O2 Pr1 2.344183 1_554
O3 Sn0 2.088707 1_655
O3 Pr0 2.343801 1_555
O4 Sn1 2.088707 1_455
O4 Pr1 2.343801 1_555
O5 Sn1 2.092138 1_555
O5 Pr0 2.344183 1_556
O6 Sn1 2.092107 1_555
O6 Pr3 2.339265 1_555
O7 Sn1 2.089495 1_555
O7 Pr2 2.337252 1_565
O8 Sn1 2.090646 1_555
O8 Pr1 2.343154 1_555
O9 Sn2 2.091332 1_555
O9 Pr2 2.342669 1_555
O10 Sn2 2.086440 1_565
O10 Pr1 2.343921 1_555
O11 Sn2 2.086327 1_555
O11 Pr0 2.341919 1_556
O12 Sn2 2.095213 1_555
O12 Pr4 2.350068 1_545
O13 Sn2 2.093436 1_555
O13 Pr3 2.338273 1_555
O14 Sn2 2.090322 1_555
O14 Pr2 2.342125 1_455
O15 Pr3 2.414089 1_555
O16 Pr2 2.416241 1_555
O17 Pr1 2.412555 1_555
O18 Pr0 2.412555 1_555
O19 Pr4 2.416241 1_555
O20 Pr3 2.414089 1_555
O21 Sn3 2.090322 1_555
O21 Pr4 2.342125 1_655
O22 Sn3 2.093436 1_555
O22 Pr3 2.338273 1_555
O23 Sn3 2.095213 1_555
O23 Pr2 2.350068 1_565
O24 Sn3 2.086440 1_545
O24 Pr0 2.343921 1_555
O25 Sn3 2.091332 1_555
O25 Pr4 2.342669 1_555
O26 Sn0 2.090646 1_555
O26 Pr0 2.343154 1_555
O27 Sn0 2.089495 1_555
O27 Pr4 2.337252 1_545
O28 Sn0 2.092107 1_555
O28 Pr3 2.339265 1_555
O29 Sn1 2.088548 1_554
O29 Pr4 2.336837 1_655
