# generated using pymatgen
data_Ti3CuS6
_symmetry_space_group_name_H-M   'P 1'
_cell_length_a   7.06028127
_cell_length_b   7.06025899
_cell_length_c   63.48630281
_cell_angle_alpha   59.95727896
_cell_angle_beta   59.95750620
_cell_angle_gamma   59.99813822
_symmetry_Int_Tables_number   1
_chemical_formula_structural   Ti3CuS6
_chemical_formula_sum   'Ti36 Cu12 S72'
_cell_volume   2236.25631352
_cell_formula_units_Z   12
loop_
 _symmetry_equiv_pos_site_id
 _symmetry_equiv_pos_as_xyz
  1  'x, y, z'
loop_
 _atom_site_type_symbol
 _atom_site_label
 _atom_site_symmetry_multiplicity
 _atom_site_fract_x
 _atom_site_fract_y
 _atom_site_fract_z
 _atom_site_occupancy
  Ti  Ti0  1  0.00218675  0.49709023  0.05595604  1
  Ti  Ti1  1  0.49709104  0.00218609  0.05595609  1
  Ti  Ti2  1  0.49583683  0.49583545  0.00139094  1
  Ti  Ti3  1  0.00745463  0.49960094  0.16593336  1
  Ti  Ti4  1  0.49708961  0.49708862  0.05595619  1
  Ti  Ti5  1  0.49960017  0.00745405  0.16593331  1
  Ti  Ti6  1  0.50074023  0.50073813  0.11086176  1
  Ti  Ti7  1  0.00938254  0.49691111  0.27742461  1
  Ti  Ti8  1  0.49960999  0.49961214  0.16592891  1
  Ti  Ti9  1  0.49691182  0.00938137  0.27742470  1
  Ti  Ti10  1  0.49710843  0.49711218  0.22317980  1
  Ti  Ti11  1  0.00628766  0.49969022  0.38825822  1
  Ti  Ti12  1  0.49685522  0.49685456  0.27742430  1
  Ti  Ti13  1  0.49968965  0.00628689  0.38825849  1
  Ti  Ti14  1  0.49685456  0.49685340  0.33438337  1
  Ti  Ti15  1  0.99989152  0.50011189  0.49998683  1
  Ti  Ti16  1  0.49969309  0.49969425  0.38825910  1
  Ti  Ti17  1  0.50011215  0.99989198  0.49998620  1
  Ti  Ti18  1  0.50000262  0.50000205  0.44445423  1
  Ti  Ti19  1  0.00001660  0.49997798  0.61111454  1
  Ti  Ti20  1  0.50013675  0.50013742  0.49999080  1
  Ti  Ti21  1  0.49997945  0.00001581  0.61111440  1
  Ti  Ti22  1  0.49994641  0.49994573  0.55556970  1
  Ti  Ti23  1  -0.00008857  0.50000652  0.72222980  1
  Ti  Ti24  1  0.49997101  0.49997144  0.61111253  1
  Ti  Ti25  1  0.50000582  -0.00008804  0.72222983  1
  Ti  Ti26  1  0.50004989  0.50004902  0.66664823  1
  Ti  Ti27  1  0.00294551  0.49735104  0.83359815  1
  Ti  Ti28  1  0.50000626  0.50000696  0.72222624  1
  Ti  Ti29  1  0.49735000  0.00294682  0.83359815  1
  Ti  Ti30  1  0.50004079  0.50004014  0.77775652  1
  Ti  Ti31  1  0.00957054  0.49678930  0.94409497  1
  Ti  Ti32  1  0.49730861  0.49730850  0.83360018  1
  Ti  Ti33  1  0.49678996  0.00957110  0.94409485  1
  Ti  Ti34  1  0.49672506  0.49672474  0.88998389  1
  Ti  Ti35  1  0.49676484  0.49676494  0.94410132  1
  Cu  Cu0  1  0.12504423  0.12504643  0.45832141  1
  Cu  Cu1  1  0.87505219  0.87505083  0.20830538  1
  Cu  Cu2  1  0.12494756  0.12494818  0.56946376  1
  Cu  Cu3  1  0.87509439  0.87508727  0.31941065  1
  Cu  Cu4  1  0.12496923  0.12497254  0.68057054  1
  Cu  Cu5  1  0.87518097  0.87517793  0.43048809  1
  Cu  Cu6  1  0.12497250  0.12497252  0.79168518  1
  Cu  Cu7  1  0.87500656  0.87499938  0.54166157  1
  Cu  Cu8  1  0.87501097  0.87500989  0.65277261  1
  Cu  Cu9  1  0.87500349  0.87499746  0.76387929  1
  Cu  Cu10  1  0.87486080  0.87486135  0.87502771  1
  Cu  Cu11  1  0.87486945  0.87486974  0.98614964  1
  S  S0  1  0.25511055  0.25511163  0.02818699  1
  S  S1  1  0.25464930  0.25464848  0.08179910  1
  S  S2  1  0.25505874  0.73611877  0.02819370  1
  S  S3  1  0.73612229  0.25505642  0.02819341  1
  S  S4  1  0.25409396  0.25408687  0.13951364  1
  S  S5  1  0.26462640  0.74557075  0.08269896  1
  S  S6  1  0.25462150  0.25461413  0.19291194  1
  S  S7  1  0.74557223  0.26462656  0.08269861  1
  S  S8  1  0.25403483  0.73618472  0.13952584  1
  S  S9  1  0.74517069  0.74516900  0.02938271  1
  S  S10  1  0.74548500  0.74548637  0.08271023  1
  S  S11  1  0.73618255  0.25402924  0.13952595  1
  S  S12  1  0.25446209  0.25447378  0.25050293  1
  S  S13  1  0.26503550  0.74456737  0.19398594  1
  S  S14  1  0.25439769  0.25440122  0.30410539  1
  S  S15  1  0.74456067  0.26503842  0.19398616  1
  S  S16  1  0.25443947  0.73652687  0.25051298  1
  S  S17  1  0.74465028  0.74465789  0.14065158  1
  S  S18  1  0.74451925  0.74452435  0.19398994  1
  S  S19  1  0.73652471  0.25444290  0.25051296  1
  S  S20  1  0.25421137  0.25421000  0.36169232  1
  S  S21  1  0.26532850  0.74482417  0.30500610  1
  S  S22  1  0.25462841  0.25462668  0.41513408  1
  S  S23  1  0.74482727  0.26532488  0.30500600  1
  S  S24  1  0.25422382  0.73635559  0.36170030  1
  S  S25  1  0.74474943  0.74474628  0.25174442  1
  S  S26  1  0.74477306  0.74476911  0.30501277  1
  S  S27  1  0.73635333  0.25422114  0.36170084  1
  S  S28  1  0.26496831  0.74461533  0.41619251  1
  S  S29  1  0.25479153  0.25479325  0.47274786  1
  S  S30  1  0.74461226  0.26497015  0.41619273  1
  S  S31  1  0.25477492  0.25477245  0.52618262  1
  S  S32  1  0.74495667  0.74496292  0.36277801  1
  S  S33  1  0.25480534  0.73569975  0.47275083  1
  S  S34  1  0.74463380  0.74463783  0.41619722  1
  S  S35  1  0.73569920  0.25480397  0.47275104  1
  S  S36  1  0.25471329  0.25471282  0.58387357  1
  S  S37  1  0.26433843  0.74521527  0.52724459  1
  S  S38  1  0.25470172  0.73568933  0.58387743  1
  S  S39  1  0.74521133  0.26433666  0.52724478  1
  S  S40  1  0.25472213  0.25472482  0.63731015  1
  S  S41  1  0.74519288  0.74519169  0.47381985  1
  S  S42  1  0.74526270  0.74526640  0.52723571  1
  S  S43  1  0.73568794  0.25470184  0.58387731  1
  S  S44  1  0.26421518  0.74528100  0.63836026  1
  S  S45  1  0.25469149  0.25469274  0.69497886  1
  S  S46  1  0.74527785  0.26421806  0.63836043  1
  S  S47  1  0.25478388  0.25478487  0.74840734  1
  S  S48  1  0.25472764  0.73579437  0.69497102  1
  S  S49  1  0.74520263  0.74520500  0.58493049  1
  S  S50  1  0.74529762  0.74529721  0.63835775  1
  S  S51  1  0.73579464  0.25472742  0.69497081  1
  S  S52  1  0.26420239  0.74526322  0.74947223  1
  S  S53  1  0.25498199  0.25497977  0.80600929  1
  S  S54  1  0.25472955  0.25472784  0.85954339  1
  S  S55  1  0.74526142  0.26420460  0.74947228  1
  S  S56  1  0.25501545  0.73594760  0.80600671  1
  S  S57  1  0.74526922  0.74527014  0.69602908  1
  S  S58  1  0.74526691  0.74526439  0.74947219  1
  S  S59  1  0.73594828  0.25501387  0.80600688  1
  S  S60  1  0.26499763  0.74547874  0.86044966  1
  S  S61  1  0.25457690  0.25457681  0.91714084  1
  S  S62  1  0.74548348  0.26499382  0.86044956  1
  S  S63  1  0.25456491  0.25456553  0.97071704  1
  S  S64  1  0.74502708  0.74502807  0.80721209  1
  S  S65  1  0.25456334  0.73657970  0.91714593  1
  S  S66  1  0.74545424  0.74545202  0.86045432  1
  S  S67  1  0.73658070  0.25456248  0.91714580  1
  S  S68  1  0.26573152  0.74508116  0.97157041  1
  S  S69  1  0.74507997  0.26573323  0.97157042  1
  S  S70  1  0.74486673  0.74486743  0.91836926  1
  S  S71  1  0.74499230  0.74499227  0.97158531  1
loop_
_geom_bond_atom_site_label_1
_geom_bond_atom_site_label_2
_geom_bond_distance
_geom_bond_site_symmetry_2
Cu0 S22 2.237241 1_555
Cu0 S33 2.243942 1_545
Cu0 S35 2.243945 1_455
Cu0 S29 2.244209 1_555
Cu1 S18 2.247488 1_555
Cu1 S13 2.247642 1_655
Cu1 S15 2.247654 1_565
Cu1 S25 2.250281 1_555
Cu2 S31 2.242101 1_555
Cu2 S38 2.243437 1_545
Cu2 S43 2.243453 1_455
Cu2 S36 2.243555 1_555
Cu3 S32 2.246567 1_555
Cu3 S21 2.249074 1_655
Cu3 S23 2.249082 1_565
Cu3 S26 2.249333 1_555
Cu4 S40 2.241026 1_555
Cu4 S51 2.242964 1_455
Cu4 S45 2.242971 1_555
Cu4 S48 2.242972 1_545
Cu5 S41 2.244723 1_555
Cu5 S34 2.246378 1_555
Cu5 S28 2.246516 1_655
Cu5 S30 2.246532 1_565
Cu6 S53 2.241920 1_555
Cu6 S47 2.241930 1_555
Cu6 S56 2.242098 1_545
Cu6 S59 2.242106 1_455
Cu7 S49 2.241468 1_555
Cu7 S37 2.243870 1_655
Cu7 S39 2.243889 1_565
Cu7 S42 2.244079 1_555
Cu8 S57 2.240823 1_555
Cu8 S44 2.243134 1_655
Cu8 S46 2.243145 1_565
Cu8 S50 2.243215 1_555
Cu9 S58 2.243064 1_555
Cu9 S52 2.243104 1_655
Cu9 S55 2.243139 1_565
Cu9 S64 2.244777 1_555
Cu10 S70 2.245231 1_555
Cu10 S66 2.247928 1_555
Cu10 S62 2.248475 1_565
Cu10 S60 2.248513 1_655
Cu11 S9 2.239611 1_556
Cu11 S69 2.252686 1_565
Cu11 S68 2.252690 1_655
Cu11 S71 2.252865 1_555
S0 Ti2 2.402059 1_555
S0 Ti0 2.455235 1_555
S0 Ti1 2.455242 1_555
S1 Ti4 2.420282 1_555
S1 Ti0 2.421552 1_555
S1 Ti1 2.421554 1_555
S2 Ti2 2.402769 1_555
S2 Ti0 2.454801 1_555
S2 Ti4 2.455201 1_555
S3 Ti2 2.402762 1_555
S3 Ti1 2.454806 1_555
S3 Ti4 2.455225 1_555
S4 Ti5 2.412068 1_555
S4 Ti3 2.412114 1_555
S4 Ti6 2.462322 1_555
S5 Ti1 2.441811 1_565
S5 Ti4 2.442695 1_555
S5 Ti6 2.443723 1_555
S6 Ti8 2.444722 1_555
S6 Ti5 2.445055 1_555
S6 Ti3 2.445082 1_555
S7 Ti0 2.441803 1_655
S7 Ti4 2.442678 1_555
S7 Ti6 2.443733 1_555
S8 Ti3 2.411072 1_555
S8 Ti8 2.411692 1_555
S8 Ti6 2.463402 1_555
S9 Ti4 2.476356 1_555
S9 Ti0 2.476848 1_655
S9 Ti1 2.476860 1_565
S10 Ti1 2.442723 1_565
S10 Ti0 2.442741 1_655
S10 Ti6 2.442853 1_555
S11 Ti5 2.411039 1_555
S11 Ti8 2.411730 1_555
S11 Ti6 2.463381 1_555
S12 Ti7 2.418934 1_555
S12 Ti9 2.418996 1_555
S12 Ti10 2.421268 1_555
S13 Ti10 2.471401 1_555
S13 Ti5 2.484008 1_565
S13 Ti8 2.484550 1_555
S14 Ti12 2.419410 1_555
S14 Ti7 2.420986 1_555
S14 Ti9 2.421010 1_555
S15 Ti10 2.471400 1_555
S15 Ti3 2.484036 1_655
S15 Ti8 2.484533 1_555
S16 Ti7 2.418218 1_555
S16 Ti12 2.418359 1_555
S16 Ti10 2.422338 1_555
S17 Ti8 2.448470 1_555
S17 Ti5 2.450130 1_565
S17 Ti3 2.450170 1_655
S18 Ti10 2.470974 1_555
S18 Ti5 2.484331 1_565
S18 Ti3 2.484356 1_655
S19 Ti9 2.418227 1_555
S19 Ti12 2.418344 1_555
S19 Ti10 2.422340 1_555
S20 Ti13 2.418521 1_555
S20 Ti11 2.418524 1_555
S20 Ti14 2.421270 1_555
S21 Ti14 2.477244 1_555
S21 Ti9 2.478089 1_565
S21 Ti12 2.478896 1_555
S22 Ti16 2.445518 1_555
S22 Ti13 2.446382 1_555
S22 Ti11 2.446395 1_555
S23 Ti14 2.477266 1_555
S23 Ti7 2.478094 1_655
S23 Ti12 2.478899 1_555
S24 Ti16 2.418155 1_555
S24 Ti11 2.418259 1_555
S24 Ti14 2.422038 1_555
S25 Ti12 2.476597 1_555
S25 Ti7 2.476842 1_655
S25 Ti9 2.476860 1_565
S26 Ti14 2.476360 1_555
S26 Ti7 2.478573 1_655
S26 Ti9 2.478580 1_565
S27 Ti16 2.418154 1_555
S27 Ti13 2.418241 1_555
S27 Ti14 2.422041 1_555
S28 Ti18 2.442954 1_555
S28 Ti13 2.478510 1_565
S28 Ti16 2.478598 1_555
S29 Ti18 2.447617 1_555
S29 Ti17 2.448407 1_545
S29 Ti15 2.448430 1_455
S30 Ti18 2.442937 1_555
S30 Ti11 2.478525 1_655
S30 Ti16 2.478595 1_555
S31 Ti15 2.449384 1_455
S31 Ti20 2.449394 1_555
S31 Ti17 2.449401 1_545
S32 Ti16 2.450128 1_555
S32 Ti13 2.451135 1_565
S32 Ti11 2.451156 1_655
S33 Ti18 2.447801 1_555
S33 Ti15 2.448175 1_455
S33 Ti20 2.448560 1_555
S34 Ti18 2.441912 1_555
S34 Ti13 2.478921 1_565
S34 Ti11 2.478956 1_655
S35 Ti18 2.447800 1_555
S35 Ti17 2.448161 1_545
S35 Ti20 2.448564 1_555
S36 Ti22 2.447859 1_555
S36 Ti21 2.448210 1_555
S36 Ti19 2.448216 1_555
S37 Ti20 2.447859 1_555
S37 Ti17 2.447875 1_555
S37 Ti22 2.448660 1_555
S38 Ti19 2.447615 1_555
S38 Ti24 2.447990 1_555
S38 Ti22 2.448535 1_555
S39 Ti20 2.447846 1_555
S39 Ti15 2.447901 1_555
S39 Ti22 2.448662 1_555
S40 Ti24 2.448206 1_555
S40 Ti19 2.448471 1_555
S40 Ti21 2.448499 1_555
S41 Ti20 2.446295 1_555
S41 Ti17 2.447162 1_555
S41 Ti15 2.447177 1_555
S42 Ti15 2.448010 1_555
S42 Ti17 2.448012 1_555
S42 Ti22 2.448746 1_555
S43 Ti21 2.447605 1_555
S43 Ti24 2.448001 1_555
S43 Ti22 2.448514 1_555
S44 Ti26 2.448073 1_555
S44 Ti21 2.448126 1_565
S44 Ti24 2.448769 1_555
S45 Ti25 2.448908 1_555
S45 Ti23 2.448909 1_555
S45 Ti26 2.449121 1_555
S46 Ti26 2.448051 1_555
S46 Ti19 2.448125 1_655
S46 Ti24 2.448760 1_555
S47 Ti28 2.447976 1_555
S47 Ti23 2.448526 1_555
S47 Ti25 2.448531 1_555
S48 Ti23 2.448655 1_555
S48 Ti28 2.448944 1_555
S48 Ti26 2.449232 1_555
S49 Ti24 2.448080 1_555
S49 Ti21 2.448496 1_565
S49 Ti19 2.448514 1_655
S50 Ti26 2.447984 1_555
S50 Ti21 2.448580 1_565
S50 Ti19 2.448584 1_655
S51 Ti25 2.448655 1_555
S51 Ti28 2.448962 1_555
S51 Ti26 2.449214 1_555
S52 Ti25 2.447880 1_565
S52 Ti30 2.447922 1_555
S52 Ti28 2.448409 1_555
S53 Ti30 2.446078 1_555
S53 Ti29 2.448983 1_555
S53 Ti27 2.449005 1_555
S54 Ti32 2.421518 1_555
S54 Ti29 2.422580 1_555
S54 Ti27 2.422591 1_555
S55 Ti23 2.447880 1_655
S55 Ti30 2.447911 1_555
S55 Ti28 2.448402 1_555
S56 Ti30 2.446707 1_555
S56 Ti27 2.448566 1_555
S56 Ti32 2.448833 1_555
S57 Ti28 2.448362 1_555
S57 Ti23 2.448373 1_655
S57 Ti25 2.448377 1_565
S58 Ti30 2.447751 1_555
S58 Ti23 2.448233 1_655
S58 Ti25 2.448243 1_565
S59 Ti30 2.446710 1_555
S59 Ti29 2.448559 1_555
S59 Ti32 2.448837 1_555
S60 Ti29 2.445573 1_565
S60 Ti32 2.445997 1_555
S60 Ti34 2.485486 1_555
S61 Ti34 2.416290 1_555
S61 Ti33 2.419255 1_555
S61 Ti31 2.419262 1_555
S62 Ti27 2.445567 1_655
S62 Ti32 2.446012 1_555
S62 Ti34 2.485513 1_555
S63 Ti35 2.416878 1_555
S63 Ti31 2.418262 1_555
S63 Ti33 2.418272 1_555
S64 Ti32 2.473014 1_555
S64 Ti27 2.473203 1_655
S64 Ti29 2.473209 1_565
S65 Ti34 2.416802 1_555
S65 Ti31 2.418760 1_555
S65 Ti35 2.419264 1_555
S66 Ti27 2.445917 1_655
S66 Ti29 2.445929 1_565
S66 Ti34 2.484645 1_555
S67 Ti34 2.416795 1_555
S67 Ti33 2.418755 1_555
S67 Ti35 2.419279 1_555
S68 Ti33 2.475224 1_565
S68 Ti35 2.475630 1_555
S68 Ti2 2.490982 1_556
S69 Ti31 2.475217 1_655
S69 Ti35 2.475622 1_555
S69 Ti2 2.490973 1_556
S70 Ti35 2.478592 1_555
S70 Ti33 2.479176 1_565
S70 Ti31 2.479178 1_655
S71 Ti33 2.475987 1_565
S71 Ti31 2.475990 1_655
S71 Ti2 2.489631 1_556
