# generated using pymatgen
data_Cr2Fe3(SiO4)3
_symmetry_space_group_name_H-M   'P 1'
_cell_length_a   10.25938380
_cell_length_b   10.25938380
_cell_length_c   10.25938380
_cell_angle_alpha   109.47122063
_cell_angle_beta   109.47122063
_cell_angle_gamma   109.47122063
_symmetry_Int_Tables_number   1
_chemical_formula_structural   Cr2Fe3(SiO4)3
_chemical_formula_sum   'Cr8 Fe12 Si12 O48'
_cell_volume   831.26968025
_cell_formula_units_Z   4
loop_
 _symmetry_equiv_pos_site_id
 _symmetry_equiv_pos_as_xyz
  1  'x, y, z'
loop_
 _atom_site_type_symbol
 _atom_site_label
 _atom_site_symmetry_multiplicity
 _atom_site_fract_x
 _atom_site_fract_y
 _atom_site_fract_z
 _atom_site_occupancy
  Cr  Cr0  1  0.50000000  0.50000000  0.50000000  1
  Cr  Cr1  1  0.50000000  0.00000000  0.50000000  1
  Cr  Cr2  1  0.00000000  0.50000000  0.50000000  1
  Cr  Cr3  1  0.50000000  0.50000000  0.00000000  1
  Cr  Cr4  1  0.00000000  0.00000000  0.50000000  1
  Cr  Cr5  1  0.00000000  0.50000000  0.00000000  1
  Cr  Cr6  1  0.50000000  0.00000000  0.00000000  1
  Cr  Cr7  1  0.00000000  0.00000000  0.00000000  1
  Fe  Fe0  1  0.87500000  0.62500000  0.25000000  1
  Fe  Fe1  1  0.62500000  0.25000000  0.87500000  1
  Fe  Fe2  1  0.87500000  0.75000000  0.62500000  1
  Fe  Fe3  1  0.75000000  0.62500000  0.87500000  1
  Fe  Fe4  1  0.25000000  0.87500000  0.62500000  1
  Fe  Fe5  1  0.62500000  0.87500000  0.75000000  1
  Fe  Fe6  1  0.12500000  0.37500000  0.75000000  1
  Fe  Fe7  1  0.37500000  0.75000000  0.12500000  1
  Fe  Fe8  1  0.12500000  0.25000000  0.37500000  1
  Fe  Fe9  1  0.25000000  0.37500000  0.12500000  1
  Fe  Fe10  1  0.75000000  0.12500000  0.37500000  1
  Fe  Fe11  1  0.37500000  0.12500000  0.25000000  1
  Si  Si0  1  0.12500000  0.87500000  0.25000000  1
  Si  Si1  1  0.87500000  0.12500000  0.75000000  1
  Si  Si2  1  0.25000000  0.62500000  0.37500000  1
  Si  Si3  1  0.37500000  0.25000000  0.62500000  1
  Si  Si4  1  0.75000000  0.87500000  0.12500000  1
  Si  Si5  1  0.12500000  0.75000000  0.87500000  1
  Si  Si6  1  0.37500000  0.62500000  0.75000000  1
  Si  Si7  1  0.62500000  0.75000000  0.37500000  1
  Si  Si8  1  0.87500000  0.25000000  0.12500000  1
  Si  Si9  1  0.25000000  0.12500000  0.87500000  1
  Si  Si10  1  0.75000000  0.37500000  0.62500000  1
  Si  Si11  1  0.62500000  0.37500000  0.25000000  1
  O  O0  1  0.69180000  0.08726400  0.70921600  1
  O  O1  1  0.10453500  0.98258300  0.69180000  1
  O  O2  1  0.70921600  0.51741700  0.62195200  1
  O  O3  1  0.62195200  0.70921600  0.51741700  1
  O  O4  1  0.87804800  0.39546500  0.08726400  1
  O  O5  1  0.08726400  0.87804800  0.39546500  1
  O  O6  1  0.98258300  0.69180000  0.10453500  1
  O  O7  1  0.41273600  0.10453500  0.62195200  1
  O  O8  1  0.39546500  0.80820000  0.51741700  1
  O  O9  1  0.98258300  0.79078400  0.87804800  1
  O  O10  1  0.10453500  0.62195200  0.41273600  1
  O  O11  1  0.51741700  0.39546500  0.80820000  1
  O  O12  1  0.79078400  0.87804800  0.98258300  1
  O  O13  1  0.70921600  0.69180000  0.08726400  1
  O  O14  1  0.08726400  0.70921600  0.69180000  1
  O  O15  1  0.62195200  0.41273600  0.10453500  1
  O  O16  1  0.79078400  0.41273600  0.80820000  1
  O  O17  1  0.80820000  0.51741700  0.39546500  1
  O  O18  1  0.80820000  0.79078400  0.41273600  1
  O  O19  1  0.87804800  0.98258300  0.79078400  1
  O  O20  1  0.41273600  0.80820000  0.79078400  1
  O  O21  1  0.39546500  0.08726400  0.87804800  1
  O  O22  1  0.69180000  0.10453500  0.98258300  1
  O  O23  1  0.51741700  0.62195200  0.70921600  1
  O  O24  1  0.30820000  0.91273600  0.29078400  1
  O  O25  1  0.89546500  0.01741700  0.30820000  1
  O  O26  1  0.29078400  0.48258300  0.37804800  1
  O  O27  1  0.37804800  0.29078400  0.48258300  1
  O  O28  1  0.12195200  0.60453500  0.91273600  1
  O  O29  1  0.91273600  0.12195200  0.60453500  1
  O  O30  1  0.01741700  0.30820000  0.89546500  1
  O  O31  1  0.58726400  0.89546500  0.37804800  1
  O  O32  1  0.60453500  0.19180000  0.48258300  1
  O  O33  1  0.01741700  0.20921600  0.12195200  1
  O  O34  1  0.89546500  0.37804800  0.58726400  1
  O  O35  1  0.48258300  0.60453500  0.19180000  1
  O  O36  1  0.20921600  0.12195200  0.01741700  1
  O  O37  1  0.29078400  0.30820000  0.91273600  1
  O  O38  1  0.91273600  0.29078400  0.30820000  1
  O  O39  1  0.37804800  0.58726400  0.89546500  1
  O  O40  1  0.20921600  0.58726400  0.19180000  1
  O  O41  1  0.19180000  0.48258300  0.60453500  1
  O  O42  1  0.19180000  0.20921600  0.58726400  1
  O  O43  1  0.12195200  0.01741700  0.20921600  1
  O  O44  1  0.58726400  0.19180000  0.20921600  1
  O  O45  1  0.60453500  0.91273600  0.12195200  1
  O  O46  1  0.30820000  0.89546500  0.01741700  1
  O  O47  1  0.48258300  0.37804800  0.29078400  1
loop_
_geom_bond_atom_site_label_1
_geom_bond_atom_site_label_2
_geom_bond_distance
_geom_bond_site_symmetry_2
Cr0 O2 2.002345 1_555
Cr0 O23 2.002345 1_555
Cr0 O3 2.002345 1_555
Cr0 O26 2.002345 1_555
Cr0 O27 2.002345 1_555
Cr0 O47 2.002345 1_555
Cr1 O7 2.002345 1_555
Cr1 O31 2.002345 1_545
Cr1 O0 2.002350 1_555
Cr1 O24 2.002350 1_545
Cr1 O8 2.002354 1_545
Cr1 O32 2.002354 1_555
Cr2 O10 2.002345 1_555
Cr2 O34 2.002345 1_455
Cr2 O14 2.002350 1_555
Cr2 O38 2.002350 1_455
Cr2 O17 2.002354 1_455
Cr2 O41 2.002354 1_555
Cr3 O15 2.002345 1_555
Cr3 O39 2.002345 1_554
Cr3 O13 2.002350 1_555
Cr3 O37 2.002350 1_554
Cr3 O11 2.002354 1_554
Cr3 O35 2.002354 1_555
Cr4 O5 2.002345 1_545
Cr4 O29 2.002345 1_455
Cr4 O18 2.002350 1_445
Cr4 O42 2.002350 1_555
Cr4 O1 2.002354 1_545
Cr4 O25 2.002354 1_455
Cr5 O4 2.002345 1_455
Cr5 O28 2.002345 1_554
Cr5 O16 2.002350 1_454
Cr5 O40 2.002350 1_555
Cr5 O6 2.002354 1_455
Cr5 O30 2.002354 1_554
Cr6 O21 2.002345 1_554
Cr6 O45 2.002345 1_545
Cr6 O20 2.002350 1_544
Cr6 O44 2.002350 1_555
Cr6 O22 2.002354 1_554
Cr6 O46 2.002354 1_545
Cr7 O12 2.002345 1_444
Cr7 O9 2.002345 1_444
Cr7 O19 2.002345 1_444
Cr7 O43 2.002345 1_555
Cr7 O36 2.002345 1_555
Cr7 O33 2.002345 1_555
Fe0 O15 2.278329 1_555
Fe0 O5 2.278329 1_655
Fe0 O6 2.278333 1_555
Fe0 O17 2.278333 1_555
Fe0 O4 2.407642 1_555
Fe0 O10 2.407642 1_655
Fe0 O13 2.407649 1_555
Fe0 O18 2.407649 1_555
Fe1 O4 2.278329 1_556
Fe1 O7 2.278329 1_555
Fe1 O11 2.278333 1_555
Fe1 O22 2.278333 1_555
Fe1 O21 2.407642 1_555
Fe1 O15 2.407642 1_556
Fe1 O0 2.407649 1_555
Fe1 O16 2.407649 1_555
Fe2 O9 2.278329 1_555
Fe2 O3 2.278329 1_555
Fe2 O14 2.278330 1_655
Fe2 O18 2.278330 1_555
Fe2 O17 2.407638 1_555
Fe2 O1 2.407638 1_655
Fe2 O19 2.407642 1_555
Fe2 O2 2.407642 1_555
Fe3 O12 2.278329 1_555
Fe3 O2 2.278329 1_555
Fe3 O16 2.278330 1_555
Fe3 O13 2.278330 1_556
Fe3 O11 2.407638 1_555
Fe3 O6 2.407638 1_556
Fe3 O23 2.407642 1_555
Fe3 O9 2.407642 1_555
Fe4 O21 2.278329 1_565
Fe4 O10 2.278329 1_555
Fe4 O1 2.278333 1_555
Fe4 O8 2.278333 1_555
Fe4 O5 2.407642 1_555
Fe4 O7 2.407642 1_565
Fe4 O20 2.407649 1_555
Fe4 O14 2.407649 1_555
Fe5 O19 2.278329 1_555
Fe5 O23 2.278329 1_555
Fe5 O20 2.278330 1_555
Fe5 O0 2.278330 1_565
Fe5 O8 2.407638 1_555
Fe5 O22 2.407638 1_565
Fe5 O12 2.407642 1_555
Fe5 O3 2.407642 1_555
Fe6 O39 2.278329 1_555
Fe6 O29 2.278329 1_455
Fe6 O41 2.278333 1_555
Fe6 O30 2.278333 1_555
Fe6 O34 2.407642 1_455
Fe6 O28 2.407642 1_555
Fe6 O42 2.407649 1_555
Fe6 O37 2.407649 1_555
Fe7 O31 2.278329 1_555
Fe7 O28 2.278329 1_554
Fe7 O35 2.278333 1_555
Fe7 O46 2.278333 1_555
Fe7 O45 2.407642 1_555
Fe7 O39 2.407642 1_554
Fe7 O40 2.407649 1_555
Fe7 O24 2.407649 1_555
Fe8 O27 2.278329 1_555
Fe8 O33 2.278329 1_555
Fe8 O42 2.278330 1_555
Fe8 O38 2.278330 1_455
Fe8 O25 2.407638 1_455
Fe8 O41 2.407638 1_555
Fe8 O26 2.407642 1_555
Fe8 O43 2.407642 1_555
Fe9 O26 2.278329 1_555
Fe9 O36 2.278329 1_555
Fe9 O37 2.278330 1_554
Fe9 O40 2.278330 1_555
Fe9 O35 2.407638 1_555
Fe9 O30 2.407638 1_554
Fe9 O47 2.407642 1_555
Fe9 O33 2.407642 1_555
Fe10 O34 2.278329 1_555
Fe10 O45 2.278329 1_545
Fe10 O32 2.278333 1_555
Fe10 O25 2.278333 1_555
Fe10 O31 2.407642 1_545
Fe10 O29 2.407642 1_555
Fe10 O44 2.407649 1_555
Fe10 O38 2.407649 1_555
Fe11 O47 2.278329 1_555
Fe11 O43 2.278329 1_555
Fe11 O44 2.278330 1_555
Fe11 O24 2.278330 1_545
Fe11 O32 2.407638 1_555
Fe11 O46 2.407638 1_545
Fe11 O27 2.407642 1_555
Fe11 O36 2.407642 1_555
O0 Si1 1.655346 1_555
O1 Si9 1.655351 1_565
O2 Si10 1.655356 1_555
O3 Si7 1.655356 1_555
O4 Si8 1.655356 1_555
O5 Si0 1.655356 1_555
O6 Si0 1.655351 1_655
O7 Si3 1.655356 1_555
O8 Si2 1.655351 1_555
O9 Si5 1.655356 1_655
O10 Si2 1.655356 1_555
O11 Si3 1.655351 1_555
O12 Si4 1.655356 1_556
O13 Si4 1.655346 1_555
O14 Si5 1.655346 1_555
O15 Si11 1.655356 1_555
O16 Si10 1.655346 1_555
O17 Si11 1.655351 1_555
O18 Si7 1.655346 1_555
O19 Si1 1.655356 1_565
O20 Si6 1.655346 1_555
O21 Si9 1.655356 1_555
O22 Si8 1.655351 1_556
O23 Si6 1.655356 1_555
O24 Si0 1.655346 1_555
O25 Si4 1.655351 1_545
O26 Si2 1.655356 1_555
O27 Si3 1.655356 1_555
O28 Si5 1.655356 1_555
O29 Si1 1.655356 1_555
O30 Si1 1.655351 1_455
O31 Si7 1.655356 1_555
O32 Si10 1.655351 1_555
O33 Si8 1.655356 1_455
O34 Si10 1.655356 1_555
O35 Si7 1.655351 1_555
O36 Si9 1.655356 1_554
O37 Si9 1.655346 1_555
O38 Si8 1.655346 1_555
O39 Si6 1.655356 1_555
O40 Si2 1.655346 1_555
O41 Si6 1.655351 1_555
O42 Si3 1.655346 1_555
O43 Si0 1.655356 1_545
O44 Si11 1.655346 1_555
O45 Si4 1.655356 1_555
O46 Si5 1.655351 1_554
O47 Si11 1.655356 1_555
