# generated using pymatgen
data_ZrNCl
_symmetry_space_group_name_H-M   'P 1'
_cell_length_a   3.45191914
_cell_length_b   3.45191914
_cell_length_c   12.23411000
_cell_angle_alpha   90.00000000
_cell_angle_beta   90.00000000
_cell_angle_gamma   120.00002191
_symmetry_Int_Tables_number   1
_chemical_formula_structural   ZrNCl
_chemical_formula_sum   'Zr2 N2 Cl2'
_cell_volume   126.24789499
_cell_formula_units_Z   2
loop_
 _symmetry_equiv_pos_site_id
 _symmetry_equiv_pos_as_xyz
  1  'x, y, z'
loop_
 _atom_site_type_symbol
 _atom_site_label
 _atom_site_symmetry_multiplicity
 _atom_site_fract_x
 _atom_site_fract_y
 _atom_site_fract_z
 _atom_site_occupancy
  Zr  Zr0  1  0.00000000  0.00000000  0.81669000  1
  Zr  Zr1  1  0.00000000  0.00000000  0.18331000  1
  N  N0  1  0.66666700  0.33333300  0.86852300  1
  N  N1  1  0.33333300  0.66666700  0.13147700  1
  Cl  Cl0  1  0.33333300  0.66666700  0.66322000  1
  Cl  Cl1  1  0.66666700  0.33333300  0.33678000  1
loop_
_geom_bond_atom_site_label_1
_geom_bond_atom_site_label_2
_geom_bond_distance
_geom_bond_site_symmetry_2
N0 Zr0 2.091418 1_655
N0 Zr0 2.091420 1_665
N0 Zr0 2.091420 1_555
N1 Zr1 2.091418 1_565
N1 Zr1 2.091420 1_555
N1 Zr1 2.091420 1_665
Cl0 Zr0 2.738097 1_565
Cl0 Zr0 2.738098 1_555
Cl0 Zr0 2.738098 1_665
Cl1 Zr1 2.738097 1_655
Cl1 Zr1 2.738098 1_555
Cl1 Zr1 2.738098 1_665
