# generated using pymatgen
data_Sc14Cu14O37
_symmetry_space_group_name_H-M   'P 1'
_cell_length_a   5.98592274
_cell_length_b   5.98592300
_cell_length_c   82.83643355
_cell_angle_alpha   32.64653585
_cell_angle_beta   32.64653170
_cell_angle_gamma   33.31263629
_symmetry_Int_Tables_number   1
_chemical_formula_structural   Sc14Cu14O37
_chemical_formula_sum   'Sc14 Cu14 O37'
_cell_volume   777.60245457
_cell_formula_units_Z   1
loop_
 _symmetry_equiv_pos_site_id
 _symmetry_equiv_pos_as_xyz
  1  'x, y, z'
loop_
 _atom_site_type_symbol
 _atom_site_label
 _atom_site_symmetry_multiplicity
 _atom_site_fract_x
 _atom_site_fract_y
 _atom_site_fract_z
 _atom_site_occupancy
  Sc  Sc0  1  0.48850500  0.48850500  0.03631900  1
  Sc  Sc1  1  0.49841100  0.49841100  0.10690500  1
  Sc  Sc2  1  0.51651100  0.51651100  0.17900800  1
  Sc  Sc3  1  0.49968400  0.49968400  0.24971000  1
  Sc  Sc4  1  0.48855500  0.48855500  0.31986400  1
  Sc  Sc5  1  0.51126600  0.51126600  0.39447800  1
  Sc  Sc6  1  0.49789600  0.49789600  0.46382200  1
  Sc  Sc7  1  0.50612000  0.50612000  0.53421400  1
  Sc  Sc8  1  0.52264500  0.52264500  0.60640700  1
  Sc  Sc9  1  0.51087900  0.51087900  0.67783300  1
  Sc  Sc10  1  0.50765700  0.50765700  0.75003500  1
  Sc  Sc11  1  0.50324700  0.50324700  0.82208400  1
  Sc  Sc12  1  0.50003400  0.50003400  0.89398700  1
  Sc  Sc13  1  0.50124700  0.50124700  0.96590100  1
  Cu  Cu0  1  0.01981700  0.01981700  0.99628500  1
  Cu  Cu1  1  0.98290900  0.98290900  0.07313600  1
  Cu  Cu2  1  0.00257100  0.00257100  0.14314200  1
  Cu  Cu3  1  0.03248300  0.03248300  0.20933000  1
  Cu  Cu4  1  0.95862400  0.95862400  0.29117100  1
  Cu  Cu5  1  0.99941100  0.99941100  0.35718300  1
  Cu  Cu6  1  0.02972400  0.02972400  0.42435100  1
  Cu  Cu7  1  0.98613000  0.98613000  0.50127300  1
  Cu  Cu8  1  0.99851000  0.99851000  0.57190300  1
  Cu  Cu9  1  0.00805700  0.00805700  0.64121000  1
  Cu  Cu10  1  0.00990200  0.00990200  0.71218900  1
  Cu  Cu11  1  0.00934300  0.00934300  0.78370400  1
  Cu  Cu12  1  0.00922200  0.00922200  0.85518600  1
  Cu  Cu13  1  0.01350800  0.01350800  0.92624100  1
  O  O0  1  0.10669700  0.10669700  0.00766000  1
  O  O1  1  0.10731400  0.10731400  0.07836400  1
  O  O2  1  0.11933200  0.11933200  0.15019600  1
  O  O3  1  0.88810400  0.88810400  0.06366800  1
  O  O4  1  0.12046300  0.12046300  0.22067400  1
  O  O5  1  0.91512700  0.91512700  0.13178900  1
  O  O6  1  0.63122400  0.63122400  0.19258400  1
  O  O7  1  0.13074900  0.13074900  0.29007400  1
  O  O8  1  0.87573900  0.87573900  0.20839300  1
  O  O9  1  0.34232100  0.34232100  0.31150900  1
  O  O10  1  0.09341100  0.09341100  0.36819700  1
  O  O11  1  0.88663200  0.88663200  0.27757300  1
  O  O12  1  0.11266100  0.11266100  0.43634300  1
  O  O13  1  0.90617500  0.90617500  0.34617100  1
  O  O14  1  0.65634300  0.65634300  0.40281400  1
  O  O15  1  0.11117500  0.11117500  0.50630900  1
  O  O16  1  0.86324500  0.86324500  0.42466800  1
  O  O17  1  0.12544200  0.12544200  0.57730600  1
  O  O18  1  0.88785400  0.88785400  0.49244300  1
  O  O19  1  0.12451600  0.12451600  0.64877900  1
  O  O20  1  0.92136100  0.92136100  0.55920800  1
  O  O21  1  0.64466300  0.64466300  0.61868600  1
  O  O22  1  0.11658200  0.11658200  0.72104900  1
  O  O23  1  0.89082000  0.89082000  0.63390300  1
  O  O24  1  0.63505600  0.63505600  0.69218600  1
  O  O25  1  0.11475700  0.11475700  0.79272600  1
  O  O26  1  0.89000600  0.89000600  0.70537000  1
  O  O27  1  0.62777300  0.62777300  0.76444900  1
  O  O28  1  0.11317900  0.11317900  0.86449400  1
  O  O29  1  0.88691100  0.88691100  0.77724900  1
  O  O30  1  0.62192600  0.62192600  0.83679800  1
  O  O31  1  0.10987100  0.10987100  0.93686400  1
  O  O32  1  0.88397600  0.88397600  0.84910900  1
  O  O33  1  0.61755600  0.61755600  0.90917300  1
  O  O34  1  0.88347400  0.88347400  0.92085300  1
  O  O35  1  0.60261900  0.60261900  0.98210500  1
  O  O36  1  0.86484900  0.86484900  0.99502200  1
loop_
_geom_bond_atom_site_label_1
_geom_bond_atom_site_label_2
_geom_bond_distance
_geom_bond_site_symmetry_2
Cu0 O35 1.806814 1_545
Cu0 O35 1.806814 1_455
Cu0 O36 1.870027 1_445
Cu0 O0 1.879168 1_556
Cu1 O3 1.815642 1_555
Cu1 O1 1.819254 1_665
Cu2 O2 1.873604 1_555
Cu2 O5 1.883687 1_445
Cu2 O6 2.062026 1_445
Cu3 O6 1.840968 1_545
Cu3 O6 1.840968 1_455
Cu3 O8 1.866364 1_445
Cu3 O4 1.888937 1_555
Cu4 O11 1.893542 1_555
Cu4 O7 1.894821 1_665
Cu4 O9 1.900309 1_565
Cu4 O9 1.900310 1_655
Cu5 O14 1.904352 1_555
Cu5 O9 1.904378 1_665
Cu5 O13 1.921024 1_555
Cu5 O10 1.929719 1_665
Cu6 O12 1.884854 1_555
Cu6 O16 1.886397 1_445
Cu6 O14 1.918705 1_545
Cu6 O14 1.918705 1_455
Cu7 O18 1.804102 1_555
Cu7 O15 1.811810 1_665
Cu8 O17 1.861495 1_665
Cu8 O20 1.877373 1_555
Cu8 O21 1.960379 1_555
Cu9 O23 1.898715 1_445
Cu9 O19 1.910343 1_555
Cu9 O21 1.934237 1_545
Cu9 O21 1.934237 1_455
Cu9 O24 2.092550 1_445
Cu10 O24 1.889173 1_545
Cu10 O24 1.889173 1_455
Cu10 O26 1.890899 1_445
Cu10 O22 1.901129 1_555
Cu10 O27 2.144429 1_445
Cu11 O27 1.877387 1_545
Cu11 O27 1.877387 1_455
Cu11 O29 1.891465 1_445
Cu11 O25 1.899640 1_555
Cu11 O30 2.176165 1_445
Cu12 O30 1.863827 1_545
Cu12 O30 1.863827 1_455
Cu12 O32 1.894226 1_445
Cu12 O28 1.905827 1_555
Cu12 O33 2.206002 1_445
Cu13 O33 1.844201 1_545
Cu13 O33 1.844201 1_455
Cu13 O34 1.895691 1_445
Cu13 O31 1.924962 1_555
Cu13 O35 2.299912 1_445
O0 Sc0 2.181843 1_455
O0 Sc0 2.181843 1_545
O0 Sc13 2.219965 1_554
O1 Sc0 2.116371 1_555
O1 Sc1 2.214198 1_455
O1 Sc1 2.214198 1_545
O2 Sc1 2.087316 1_555
O2 Sc2 2.254616 1_455
O2 Sc2 2.254616 1_545
O3 Sc1 2.160094 1_555
O3 Sc0 2.194665 1_655
O3 Sc0 2.194665 1_565
O4 Sc3 2.188870 1_455
O4 Sc3 2.188870 1_545
O4 Sc2 2.233348 1_555
O5 Sc1 2.155020 1_655
O5 Sc1 2.155020 1_565
O5 Sc2 2.183523 1_555
O6 Sc2 2.365720 1_555
O7 Sc3 2.053136 1_555
O7 Sc4 2.149147 1_455
O7 Sc4 2.149148 1_545
O8 Sc3 2.090171 1_555
O8 Sc2 2.137150 1_655
O8 Sc2 2.137151 1_565
O9 Sc4 2.309236 1_555
O10 Sc4 2.162012 1_555
O10 Sc5 2.228335 1_455
O10 Sc5 2.228336 1_545
O11 Sc3 2.166022 1_655
O11 Sc3 2.166022 1_565
O11 Sc4 2.236778 1_555
O12 Sc6 2.142674 1_455
O12 Sc6 2.142674 1_545
O12 Sc5 2.249179 1_555
O13 Sc5 2.160728 1_555
O13 Sc4 2.228465 1_655
O13 Sc4 2.228465 1_565
O14 Sc5 2.294626 1_555
O15 Sc6 2.149482 1_555
O15 Sc7 2.200688 1_455
O15 Sc7 2.200688 1_545
O16 Sc6 2.046649 1_555
O16 Sc5 2.148754 1_655
O16 Sc5 2.148755 1_565
O17 Sc7 2.099918 1_555
O17 Sc8 2.269147 1_455
O17 Sc8 2.269147 1_545
O18 Sc7 2.124262 1_555
O18 Sc6 2.213112 1_655
O18 Sc6 2.213112 1_565
O19 Sc9 2.218333 1_455
O19 Sc9 2.218333 1_545
O19 Sc8 2.235654 1_555
O20 Sc7 2.153485 1_655
O20 Sc7 2.153485 1_565
O20 Sc8 2.184202 1_555
O21 Sc8 2.344214 1_555
O22 Sc9 2.193116 1_555
O22 Sc10 2.235389 1_455
O22 Sc10 2.235389 1_545
O23 Sc9 2.087490 1_555
O23 Sc8 2.089072 1_655
O23 Sc8 2.089072 1_565
O24 Sc9 2.533508 1_555
O25 Sc10 2.191101 1_555
O25 Sc11 2.241973 1_455
O25 Sc11 2.241973 1_545
O26 Sc10 2.097598 1_555
O26 Sc9 2.123740 1_655
O26 Sc9 2.123740 1_565
O27 Sc10 2.493009 1_555
O28 Sc11 2.174881 1_555
O28 Sc12 2.241340 1_455
O28 Sc12 2.241340 1_545
O29 Sc11 2.104713 1_555
O29 Sc10 2.110891 1_655
O29 Sc10 2.110891 1_565
O30 Sc11 2.500956 1_555
O31 Sc12 2.168441 1_555
O31 Sc13 2.239191 1_455
O31 Sc13 2.239191 1_545
O32 Sc12 2.106175 1_555
O32 Sc11 2.107992 1_655
O32 Sc11 2.107992 1_565
O33 Sc12 2.525842 1_555
O34 Sc13 2.094765 1_555
O34 Sc12 2.110459 1_655
O34 Sc12 2.110459 1_565
O35 Sc13 2.428345 1_555
O36 Sc0 2.092537 1_556
O36 Sc13 2.139330 1_655
O36 Sc13 2.139330 1_565
