# generated using pymatgen
data_Ca(HO)2
_symmetry_space_group_name_H-M   'P 1'
_cell_length_a   3.86913594
_cell_length_b   3.86913594
_cell_length_c   4.62297700
_cell_angle_alpha   90.00000000
_cell_angle_beta   90.00000000
_cell_angle_gamma   119.99999901
_symmetry_Int_Tables_number   1
_chemical_formula_structural   Ca(HO)2
_chemical_formula_sum   'Ca1 H2 O2'
_cell_volume   59.93497751
_cell_formula_units_Z   1
loop_
 _symmetry_equiv_pos_site_id
 _symmetry_equiv_pos_as_xyz
  1  'x, y, z'
loop_
 _atom_site_type_symbol
 _atom_site_label
 _atom_site_symmetry_multiplicity
 _atom_site_fract_x
 _atom_site_fract_y
 _atom_site_fract_z
 _atom_site_occupancy
  Ca  Ca0  1  0.00000000  0.00000000  0.97502400  1
  H  H0  1  0.33333300  0.66666700  0.00783800  1
  H  H1  1  0.66666700  0.33333300  0.41913100  1
  O  O0  1  0.33333300  0.66666700  0.79497600  1
  O  O1  1  0.66666700  0.33333300  0.20789000  1
loop_
_geom_bond_atom_site_label_1
_geom_bond_atom_site_label_2
_geom_bond_distance
_geom_bond_site_symmetry_2
Ca0 H0 2.238989 1_546
Ca0 H0 2.238993 1_556
Ca0 H0 2.238993 1_446
Ca0 O0 2.383879 1_545
Ca0 O0 2.383882 1_445
Ca0 O0 2.383882 1_555
Ca0 O1 2.479715 1_456
Ca0 O1 2.479718 1_556
Ca0 O1 2.479718 1_446
H0 O0 0.984056 1_554
H1 O1 0.976562 1_555
