# generated using pymatgen
data_Sm10Pd21
_symmetry_space_group_name_H-M   'P 1'
_cell_length_a   5.81138277
_cell_length_b   12.85220458
_cell_length_c   16.61465499
_cell_angle_alpha   90.80892781
_cell_angle_beta   90.00709608
_cell_angle_gamma   103.06694512
_symmetry_Int_Tables_number   1
_chemical_formula_structural   Sm10Pd21
_chemical_formula_sum   'Sm20 Pd42'
_cell_volume   1208.67379569
_cell_formula_units_Z   2
loop_
 _symmetry_equiv_pos_site_id
 _symmetry_equiv_pos_as_xyz
  1  'x, y, z'
loop_
 _atom_site_type_symbol
 _atom_site_label
 _atom_site_symmetry_multiplicity
 _atom_site_fract_x
 _atom_site_fract_y
 _atom_site_fract_z
 _atom_site_occupancy
  Sm  Sm0  1  0.53385471  0.06705085  0.28018236  1
  Sm  Sm1  1  0.31374508  0.62848136  0.19817031  1
  Sm  Sm2  1  0.46750084  0.93261326  0.72004611  1
  Sm  Sm3  1  0.42840642  0.85717474  0.01969374  1
  Sm  Sm4  1  0.72383212  0.44849282  0.07897520  1
  Sm  Sm5  1  0.23638449  0.47452050  0.64919239  1
  Sm  Sm6  1  0.27551975  0.55182774  0.92169724  1
  Sm  Sm7  1  0.14315956  0.28762118  0.35656134  1
  Sm  Sm8  1  0.64799765  0.29698528  0.51860068  1
  Sm  Sm9  1  0.88129252  0.76317798  0.86952606  1
  Sm  Sm10  1  0.04245307  0.08491533  0.59341353  1
  Sm  Sm11  1  0.35076564  0.70272647  0.48181885  1
  Sm  Sm12  1  0.92629590  0.85262116  0.18646750  1
  Sm  Sm13  1  0.57143979  0.14294297  0.98049917  1
  Sm  Sm14  1  0.07350241  0.14713732  0.81361609  1
  Sm  Sm15  1  0.95738201  0.91488817  0.40681361  1
  Sm  Sm16  1  0.11785987  0.23685997  0.13075203  1
  Sm  Sm17  1  0.76174715  0.52512086  0.35155337  1
  Sm  Sm18  1  0.68520732  0.37114918  0.80262807  1
  Sm  Sm19  1  0.85508917  0.71174703  0.64380296  1
  Pd  Pd0  1  0.06782736  0.66864925  0.04662957  1
  Pd  Pd1  1  0.15152396  0.30419087  0.52533583  1
  Pd  Pd2  1  0.38344382  0.76766465  0.83948700  1
  Pd  Pd3  1  0.03781827  0.07480484  0.27277357  1
  Pd  Pd4  1  0.31209114  0.11208925  0.43958032  1
  Pd  Pd5  1  0.63989205  0.28118303  0.33560165  1
  Pd  Pd6  1  0.61569402  0.23230415  0.16084487  1
  Pd  Pd7  1  0.73801229  0.47780576  0.64508958  1
  Pd  Pd8  1  0.96358830  0.92487037  0.72724875  1
  Pd  Pd9  1  0.37796008  0.25520912  0.67648322  1
  Pd  Pd10  1  0.25986413  0.52138185  0.35570565  1
  Pd  Pd11  1  0.05944055  0.11891549  0.98313158  1
  Pd  Pd12  1  0.81314605  0.62731748  0.19653997  1
  Pd  Pd13  1  0.84733763  0.69582388  0.47505188  1
  Pd  Pd14  1  0.76885561  0.53886140  0.92094343  1
  Pd  Pd15  1  0.27077073  0.03194322  0.11726641  1
  Pd  Pd16  1  0.59998639  0.66851649  0.04663067  1
  Pd  Pd17  1  0.44705307  0.40546910  0.22701450  1
  Pd  Pd18  1  0.35839149  0.71841391  0.66487101  1
  Pd  Pd19  1  0.76115186  0.03187357  0.11715377  1
  Pd  Pd20  1  0.56736860  0.13499889  0.78991009  1
  Pd  Pd21  1  0.54456843  0.08929670  0.59161841  1
  Pd  Pd22  1  0.18594418  0.37254774  0.80430090  1
  Pd  Pd23  1  0.87648371  0.25512378  0.67647923  1
  Pd  Pd24  1  0.23894073  0.96812064  0.88297694  1
  Pd  Pd25  1  0.99915824  0.49997417  0.50044458  1
  Pd  Pd26  1  0.19993841  0.88759304  0.56083865  1
  Pd  Pd27  1  0.62144278  0.74470767  0.32390335  1
  Pd  Pd28  1  0.95692215  0.40546031  0.22709332  1
  Pd  Pd29  1  0.39948905  0.33170818  0.95410624  1
  Pd  Pd30  1  0.23030049  0.46128484  0.07969944  1
  Pd  Pd31  1  0.94060390  0.88141073  0.01701435  1
  Pd  Pd32  1  0.43231275  0.86469573  0.21022895  1
  Pd  Pd33  1  0.12285516  0.74468876  0.32393393  1
  Pd  Pd34  1  0.45504284  0.91040760  0.40872864  1
  Pd  Pd35  1  0.79930578  0.11193721  0.43967968  1
  Pd  Pd36  1  0.93168175  0.33169028  0.95409869  1
  Pd  Pd37  1  0.72940886  0.96814707  0.88295050  1
  Pd  Pd38  1  0.49928108  0.49993844  0.50044970  1
  Pd  Pd39  1  0.04157758  0.59425927  0.77355691  1
  Pd  Pd40  1  0.55144634  0.59425404  0.77360133  1
  Pd  Pd41  1  0.68755594  0.88766809  0.56054427  1
loop_
_geom_bond_atom_site_label_1
_geom_bond_atom_site_label_2
_geom_bond_distance
_geom_bond_site_symmetry_2
Pd0 Pd16 2.718418 1_455
Pd0 Sm3 2.863049 1_555
Pd0 Pd12 2.891215 1_455
Pd0 Sm6 2.958320 1_554
Pd0 Pd14 2.958394 1_454
Pd0 Sm1 3.002935 1_555
Pd0 Pd31 3.036124 1_455
Pd0 Pd30 3.078174 1_555
Pd0 Pd16 3.092966 1_555
Pd0 Sm4 3.126772 1_455
Pd0 Sm9 3.464845 1_454
Pd0 Sm12 3.519918 1_455
Pd1 Sm7 2.808787 1_555
Pd1 Pd38 2.883568 1_555
Pd1 Pd25 2.885016 1_455
Pd1 Sm8 2.908736 1_455
Pd1 Sm8 2.909652 1_555
Pd1 Sm5 2.941850 1_555
Pd1 Pd23 2.974640 1_455
Pd1 Pd9 2.975357 1_555
Pd1 Sm10 2.984240 1_555
Pd1 Pd35 3.151724 1_455
Pd1 Pd4 3.152634 1_555
Pd2 Pd40 2.834422 1_555
Pd2 Pd39 2.835881 1_555
Pd2 Sm2 2.884737 1_555
Pd2 Sm9 2.948449 1_455
Pd2 Sm9 2.949382 1_555
Pd2 Pd24 2.964879 1_555
Pd2 Pd37 2.967731 1_555
Pd2 Sm6 3.045405 1_555
Pd2 Sm3 3.181635 1_556
Pd3 Sm0 2.909460 1_555
Pd3 Sm0 2.910494 1_455
Pd3 Sm7 2.988137 1_555
Pd3 Sm15 3.016193 1_445
Pd3 Sm12 3.110902 1_445
Pd3 Sm16 3.134189 1_555
Pd3 Pd4 3.172862 1_555
Pd3 Pd35 3.178317 1_455
Pd4 Sm15 2.927023 1_445
Pd4 Sm10 2.981385 1_555
Pd4 Sm8 2.999157 1_555
Pd4 Sm7 3.007448 1_555
Pd4 Sm0 3.050334 1_555
Pd4 Pd5 3.093732 1_555
Pd5 Sm0 2.821863 1_555
Pd5 Sm7 2.927219 1_555
Pd5 Sm7 2.927691 1_655
Pd5 Pd6 2.958600 1_555
Pd5 Sm8 3.044027 1_555
Pd5 Sm17 3.061601 1_555
Pd6 Sm0 2.886296 1_555
Pd6 Sm16 2.948505 1_655
Pd6 Sm16 2.949666 1_555
Pd6 Sm4 3.046739 1_555
Pd6 Sm13 3.183167 1_554
Pd7 Sm5 2.906718 1_555
Pd7 Sm5 2.906874 1_655
Pd7 Sm19 2.929197 1_555
Pd7 Sm18 2.955591 1_555
Pd7 Sm8 3.066442 1_555
Pd7 Pd9 3.189098 1_555
Pd8 Sm2 2.909575 1_555
Pd8 Sm2 2.910080 1_655
Pd8 Sm19 2.988986 1_555
Pd8 Sm10 3.014739 1_665
Pd8 Sm14 3.112291 1_665
Pd8 Sm9 3.134453 1_555
Pd9 Sm10 2.912228 1_555
Pd9 Sm18 2.917003 1_555
Pd9 Sm14 3.038092 1_555
Pd9 Sm8 3.048235 1_555
Pd9 Sm5 3.148305 1_555
Pd10 Pd25 2.825811 1_455
Pd10 Pd38 2.826035 1_555
Pd10 Sm17 2.906816 1_455
Pd10 Sm17 2.906990 1_555
Pd10 Sm7 2.926788 1_555
Pd10 Pd28 2.933996 1_455
Pd10 Pd17 2.935613 1_555
Pd10 Sm1 2.958124 1_555
Pd10 Sm11 3.067022 1_555
Pd10 Pd33 3.197715 1_555
Pd10 Pd27 3.201359 1_555
Pd11 Sm14 2.843603 1_555
Pd11 Sm16 2.844419 1_556
Pd11 Pd19 2.899850 1_456
Pd11 Pd15 2.900828 1_556
Pd11 Pd37 2.903677 1_445
Pd11 Pd24 2.904601 1_545
Pd11 Sm13 2.921534 1_555
Pd11 Sm13 2.921693 1_455
Pd11 Pd31 3.034265 1_446
Pd11 Pd29 3.034938 1_555
Pd11 Pd36 3.036005 1_455
Pd12 Sm12 2.828057 1_555
Pd12 Pd16 2.889893 1_555
Pd12 Sm17 2.892378 1_555
Pd12 Sm1 2.905756 1_555
Pd12 Sm1 2.905948 1_655
Pd12 Pd27 2.943758 1_555
Pd12 Pd33 2.945536 1_655
Pd12 Sm4 2.949661 1_555
Pd12 Pd28 3.194382 1_555
Pd12 Pd17 3.195359 1_555
Pd13 Sm19 2.807930 1_555
Pd13 Pd25 2.885535 1_555
Pd13 Pd38 2.887049 1_555
Pd13 Sm11 2.908952 1_655
Pd13 Sm11 2.909250 1_555
Pd13 Sm17 2.941102 1_555
Pd13 Pd27 2.973426 1_555
Pd13 Pd33 2.975376 1_655
Pd13 Sm15 2.982841 1_555
Pd13 Pd41 3.145758 1_555
Pd13 Pd26 3.149810 1_655
Pd14 Sm18 2.855335 1_555
Pd14 Sm4 2.874067 1_556
Pd14 Sm6 2.909191 1_555
Pd14 Sm6 2.911287 1_655
Pd14 Pd40 2.924241 1_555
Pd14 Pd39 2.924936 1_655
Pd14 Sm9 2.947219 1_555
Pd14 Pd16 2.956738 1_556
Pd14 Pd29 3.075223 1_555
Pd14 Pd36 3.077148 1_555
Pd15 Pd19 2.849996 1_555
Pd15 Pd31 2.903198 1_445
Pd15 Sm12 2.937717 1_445
Pd15 Pd19 2.961388 1_455
Pd15 Pd6 2.964153 1_555
Pd15 Sm16 2.969427 1_555
Pd15 Pd32 2.982131 1_545
Pd15 Pd3 3.018203 1_555
Pd15 Sm13 3.035974 1_554
Pd15 Sm3 3.056224 1_545
Pd15 Sm0 3.085506 1_555
Pd16 Sm3 2.863100 1_555
Pd16 Sm6 2.957311 1_554
Pd16 Sm1 3.003605 1_555
Pd16 Pd31 3.039106 1_555
Pd16 Pd30 3.076573 1_555
Pd16 Sm4 3.125102 1_555
Pd16 Sm9 3.466132 1_554
Pd16 Sm12 3.522407 1_555
Pd17 Pd5 2.820041 1_555
Pd17 Pd6 2.835426 1_555
Pd17 Pd28 2.848313 1_455
Pd17 Pd30 2.923930 1_555
Pd17 Sm4 2.929143 1_555
Pd17 Sm17 2.937404 1_555
Pd17 Pd28 2.963070 1_555
Pd17 Sm7 2.988165 1_555
Pd17 Sm16 2.990069 1_555
Pd17 Sm1 3.176109 1_555
Pd18 Pd39 2.819660 1_555
Pd18 Pd40 2.821163 1_555
Pd18 Sm2 2.821410 1_555
Pd18 Sm19 2.927522 1_455
Pd18 Sm19 2.927967 1_555
Pd18 Pd2 2.957212 1_555
Pd18 Sm11 3.044836 1_555
Pd18 Sm5 3.060723 1_555
Pd18 Pd26 3.094231 1_555
Pd18 Pd41 3.101823 1_555
Pd19 Pd31 2.901158 1_545
Pd19 Sm12 2.937538 1_545
Pd19 Sm16 2.966912 1_655
Pd19 Pd6 2.968016 1_555
Pd19 Pd32 2.982910 1_545
Pd19 Pd3 3.021957 1_655
Pd19 Sm13 3.034923 1_554
Pd19 Sm3 3.055457 1_545
Pd19 Sm0 3.085840 1_555
Pd20 Sm2 2.771625 1_545
Pd20 Pd23 2.826878 1_555
Pd20 Pd9 2.828552 1_555
Pd20 Sm14 2.935581 1_555
Pd20 Sm14 2.936226 1_655
Pd20 Sm18 2.960943 1_555
Pd20 Pd24 2.979451 1_545
Pd20 Pd37 2.980137 1_545
Pd20 Sm13 3.166689 1_555
Pd20 Pd21 3.335666 1_555
Pd21 Pd23 2.882069 1_555
Pd21 Pd9 2.884690 1_555
Pd21 Sm8 2.885155 1_555
Pd21 Sm10 2.905936 1_555
Pd21 Sm10 2.906804 1_655
Pd21 Pd35 2.911308 1_555
Pd21 Pd4 2.913938 1_555
Pd21 Sm2 2.919325 1_545
Pd21 Pd26 2.933856 1_545
Pd21 Pd41 2.933984 1_545
Pd22 Sm14 2.828492 1_555
Pd22 Pd36 2.887970 1_455
Pd22 Pd29 2.888106 1_555
Pd22 Sm5 2.892522 1_555
Pd22 Sm18 2.905660 1_555
Pd22 Sm18 2.906089 1_455
Pd22 Pd9 2.949643 1_555
Pd22 Pd23 2.950127 1_455
Pd22 Sm6 2.952117 1_555
Pd22 Pd40 3.193050 1_555
Pd22 Pd39 3.194733 1_555
Pd23 Pd9 2.897360 1_555
Pd23 Sm10 2.913678 1_655
Pd23 Pd9 2.914023 1_655
Pd23 Sm18 2.917869 1_555
Pd23 Sm14 3.039034 1_655
Pd23 Sm8 3.048806 1_555
Pd23 Sm5 3.146502 1_655
Pd23 Pd7 3.192767 1_555
Pd24 Pd37 2.850221 1_555
Pd24 Pd31 2.899076 1_456
Pd24 Sm14 2.936100 1_565
Pd24 Pd37 2.961162 1_455
Pd24 Sm9 2.969073 1_455
Pd24 Pd8 3.019967 1_455
Pd24 Sm3 3.034138 1_556
Pd24 Sm13 3.056254 1_565
Pd24 Sm2 3.088796 1_555
Pd25 Pd7 2.825697 1_555
Pd25 Sm5 2.888129 1_655
Pd25 Sm17 2.889794 1_555
Pd25 Pd38 2.904874 1_555
Pd25 Pd38 2.906509 1_655
Pd25 Sm11 2.945590 1_655
Pd25 Sm8 2.945621 1_555
Pd26 Pd41 2.833519 1_555
Pd26 Pd34 2.914811 1_555
Pd26 Sm10 2.927939 1_565
Pd26 Pd41 2.977872 1_455
Pd26 Sm15 2.984444 1_455
Pd26 Sm11 2.998491 1_555
Pd26 Sm19 3.010741 1_455
Pd26 Sm2 3.049334 1_555
Pd26 Pd8 3.165685 1_455
Pd27 Pd32 2.828661 1_555
Pd27 Pd34 2.881560 1_555
Pd27 Pd33 2.897429 1_555
Pd27 Sm15 2.911395 1_555
Pd27 Pd33 2.913954 1_655
Pd27 Sm1 2.914779 1_555
Pd27 Sm12 3.042320 1_555
Pd27 Sm11 3.050665 1_555
Pd27 Sm17 3.149214 1_555
Pd28 Pd5 2.819082 1_555
Pd28 Pd6 2.833942 1_555
Pd28 Pd30 2.927629 1_655
Pd28 Sm4 2.928019 1_555
Pd28 Sm17 2.937214 1_555
Pd28 Sm7 2.987429 1_655
Pd28 Sm16 2.991843 1_655
Pd28 Sm1 3.177760 1_655
Pd29 Pd36 2.718555 1_455
Pd29 Sm13 2.864033 1_555
Pd29 Pd30 2.955866 1_556
Pd29 Sm4 2.956627 1_556
Pd29 Sm18 3.000747 1_555
Pd29 Pd36 3.092828 1_555
Pd29 Sm6 3.126794 1_555
Pd29 Sm16 3.460980 1_556
Pd29 Sm14 3.531987 1_555
Pd30 Sm1 2.852411 1_555
Pd30 Sm6 2.874504 1_554
Pd30 Sm4 2.909699 1_555
Pd30 Sm4 2.910534 1_455
Pd30 Sm16 2.946682 1_555
Pd30 Pd36 2.955415 1_454
Pd31 Sm12 2.843570 1_555
Pd31 Sm9 2.844371 1_554
Pd31 Pd37 2.898024 1_554
Pd31 Sm3 2.921433 1_655
Pd31 Sm3 2.922360 1_555
Pd32 Sm0 2.771871 1_565
Pd32 Pd33 2.830347 1_555
Pd32 Sm12 2.935820 1_455
Pd32 Sm12 2.936153 1_555
Pd32 Sm1 2.961142 1_555
Pd32 Sm3 3.165710 1_555
Pd32 Pd34 3.339090 1_555
Pd33 Pd34 2.881530 1_555
Pd33 Sm15 2.910708 1_455
Pd33 Sm1 2.913581 1_555
Pd33 Sm12 3.041515 1_455
Pd33 Sm11 3.047681 1_555
Pd33 Sm17 3.152264 1_455
Pd34 Sm11 2.885593 1_555
Pd34 Sm15 2.905838 1_455
Pd34 Sm15 2.906994 1_555
Pd34 Pd41 2.910682 1_555
Pd34 Sm0 2.920434 1_565
Pd34 Pd35 2.931662 1_565
Pd34 Pd4 2.933925 1_565
Pd35 Pd4 2.831833 1_555
Pd35 Sm15 2.927246 1_545
Pd35 Pd4 2.979552 1_655
Pd35 Sm10 2.981176 1_655
Pd35 Sm8 3.001098 1_555
Pd35 Sm7 3.007813 1_655
Pd35 Sm0 3.047689 1_555
Pd35 Pd5 3.097881 1_555
Pd36 Sm13 2.862456 1_555
Pd36 Sm4 2.958010 1_556
Pd36 Sm18 3.000979 1_555
Pd36 Sm6 3.126360 1_655
Pd36 Sm16 3.459329 1_656
Pd36 Sm14 3.532877 1_655
Pd37 Sm14 2.934782 1_665
Pd37 Sm9 2.967026 1_555
Pd37 Pd8 3.025914 1_555
Pd37 Sm3 3.036459 1_556
Pd37 Sm13 3.057201 1_565
Pd37 Sm2 3.082312 1_555
Pd38 Pd7 2.824481 1_555
Pd38 Sm5 2.888994 1_555
Pd38 Sm17 2.889908 1_555
Pd38 Sm11 2.945037 1_555
Pd38 Sm8 2.946709 1_555
Pd39 Pd40 2.848325 1_455
Pd39 Sm6 2.928485 1_555
Pd39 Sm5 2.935633 1_555
Pd39 Pd7 2.936498 1_455
Pd39 Pd40 2.963058 1_555
Pd39 Sm19 2.988880 1_455
Pd39 Sm9 2.990023 1_455
Pd39 Sm18 3.177852 1_455
Pd40 Sm6 2.926849 1_555
Pd40 Pd7 2.935715 1_555
Pd40 Sm5 2.937371 1_555
Pd40 Sm19 2.988769 1_555
Pd40 Sm9 2.991257 1_555
Pd40 Sm18 3.178928 1_555
Pd41 Sm10 2.928293 1_665
Pd41 Sm15 2.980474 1_555
Pd41 Sm11 2.999872 1_555
Pd41 Sm19 3.009453 1_555
Pd41 Sm2 3.046895 1_555
Pd41 Pd8 3.176158 1_555
