# generated using pymatgen
data_Li2CuP2O7
_symmetry_space_group_name_H-M   'P 1'
_cell_length_a   8.14557763
_cell_length_b   8.14557763
_cell_length_c   8.78353496
_cell_angle_alpha   65.72038467
_cell_angle_beta   65.72038467
_cell_angle_gamma   35.82484922
_symmetry_Int_Tables_number   1
_chemical_formula_structural   Li2CuP2O7
_chemical_formula_sum   'Li4 Cu2 P4 O14'
_cell_volume   307.61869437
_cell_formula_units_Z   2
loop_
 _symmetry_equiv_pos_site_id
 _symmetry_equiv_pos_as_xyz
  1  'x, y, z'
loop_
 _atom_site_type_symbol
 _atom_site_label
 _atom_site_symmetry_multiplicity
 _atom_site_fract_x
 _atom_site_fract_y
 _atom_site_fract_z
 _atom_site_occupancy
  Li  Li0  1  0.66418600  0.95803800  0.05240900  1
  Li  Li1  1  0.04196200  0.33581400  0.44759100  1
  Li  Li2  1  0.95803800  0.66418600  0.55240900  1
  Li  Li3  1  0.33581400  0.04196200  0.94759100  1
  Cu  Cu0  1  0.00000000  0.00000000  0.50000000  1
  Cu  Cu1  1  0.00000000  0.00000000  0.00000000  1
  P  P0  1  0.54076600  0.25580600  0.31676400  1
  P  P1  1  0.74419400  0.45923400  0.18323700  1
  P  P2  1  0.25580600  0.54076600  0.81676300  1
  P  P3  1  0.45923400  0.74419400  0.68323700  1
  O  O0  1  0.88108400  0.32618900  0.34015200  1
  O  O1  1  0.11891600  0.67381100  0.65984800  1
  O  O2  1  0.95204400  0.24707400  0.05630200  1
  O  O3  1  0.75292600  0.04795600  0.44369800  1
  O  O4  1  0.32618900  0.88108400  0.84015200  1
  O  O5  1  0.24707400  0.95204400  0.55630200  1
  O  O6  1  0.74284100  0.61610100  0.60689800  1
  O  O7  1  0.38389900  0.25715900  0.89310200  1
  O  O8  1  0.25715900  0.38389900  0.39310200  1
  O  O9  1  0.61610100  0.74284100  0.10689800  1
  O  O10  1  0.51771200  0.48228800  0.75000000  1
  O  O11  1  0.48228800  0.51771200  0.25000000  1
  O  O12  1  0.04795600  0.75292600  0.94369800  1
  O  O13  1  0.67381100  0.11891600  0.15984800  1
loop_
_geom_bond_atom_site_label_1
_geom_bond_atom_site_label_2
_geom_bond_distance
_geom_bond_site_symmetry_2
Li0 O9 1.929875 1_555
Li0 O13 1.964287 1_565
Li0 O12 1.965459 1_654
Li0 O7 1.977329 1_564
Li1 O8 1.929875 1_555
Li1 O0 1.964287 1_455
Li1 O5 1.965459 1_545
Li1 O6 1.977329 1_455
Li2 O6 1.929875 1_555
Li2 O1 1.964287 1_655
Li2 O3 1.965459 1_565
Li2 O8 1.977329 1_655
Li3 O7 1.929875 1_555
Li3 O4 1.964287 1_545
Li3 O2 1.965459 1_456
Li3 O9 1.977329 1_546
Cu0 O5 1.957630 1_545
Cu0 O3 1.957630 1_455
Cu0 O0 1.961179 1_455
Cu0 O1 1.961179 1_545
Cu1 O2 1.957630 1_455
Cu1 O12 1.957630 1_544
Cu1 O4 1.961179 1_544
Cu1 O13 1.961179 1_455
O0 P1 1.547043 1_555
O1 P2 1.547043 1_555
O2 P1 1.543893 1_555
O3 P0 1.543887 1_555
O4 P3 1.547043 1_555
O5 P3 1.543893 1_555
O6 P3 1.505916 1_555
O7 P2 1.505916 1_555
O8 P0 1.505915 1_555
O9 P1 1.505916 1_555
O10 P3 1.635559 1_555
O10 P2 1.635559 1_555
O11 P0 1.635559 1_555
O11 P1 1.635559 1_555
O12 P2 1.543893 1_555
O13 P0 1.547051 1_555
