# generated using pymatgen
data_Dy2PbS4
_symmetry_space_group_name_H-M   'P 1'
_cell_length_a   7.39063969
_cell_length_b   7.39063969
_cell_length_c   7.39063969
_cell_angle_alpha   109.39468981
_cell_angle_beta   109.39468981
_cell_angle_gamma   109.62439094
_symmetry_Int_Tables_number   1
_chemical_formula_structural   Dy2PbS4
_chemical_formula_sum   'Dy4 Pb2 S8'
_cell_volume   310.75767951
_cell_formula_units_Z   2
loop_
 _symmetry_equiv_pos_site_id
 _symmetry_equiv_pos_as_xyz
  1  'x, y, z'
loop_
 _atom_site_type_symbol
 _atom_site_label
 _atom_site_symmetry_multiplicity
 _atom_site_fract_x
 _atom_site_fract_y
 _atom_site_fract_z
 _atom_site_occupancy
  Dy  Dy0  1  0.99646200  0.37500000  0.12146200  1
  Dy  Dy1  1  0.62500000  0.74646200  0.62146200  1
  Dy  Dy2  1  0.25353800  0.87500000  0.87853800  1
  Dy  Dy3  1  0.12500000  0.00353800  0.37853800  1
  Pb  Pb0  1  0.75000000  0.25000000  0.50000000  1
  Pb  Pb1  1  0.50000000  0.50000000  0.00000000  1
  S  S0  1  0.50598600  0.10650100  0.74529400  1
  S  S1  1  0.01069200  0.11120700  0.75470600  1
  S  S2  1  0.35650100  0.25598600  0.24529400  1
  S  S3  1  0.23930800  0.49401400  0.60051500  1
  S  S4  1  0.88879300  0.64349900  0.89948500  1
  S  S5  1  0.36120700  0.76069200  0.25470600  1
  S  S6  1  0.89349900  0.63879300  0.39948500  1
  S  S7  1  0.74401400  0.98930800  0.10051500  1
loop_
_geom_bond_atom_site_label_1
_geom_bond_atom_site_label_2
_geom_bond_distance
_geom_bond_site_symmetry_2
Dy0 S5 2.751932 1_655
Dy0 S7 2.751932 1_545
Dy0 S1 2.824270 1_654
Dy0 S6 2.824270 1_555
Dy0 S2 3.030041 1_655
Dy0 S3 3.030041 1_655
Dy0 S4 3.101313 1_554
Dy0 S0 3.101313 1_554
Dy1 S1 2.751932 1_665
Dy1 S3 2.751932 1_555
Dy1 S5 2.824270 1_555
Dy1 S4 2.824270 1_555
Dy1 S7 3.030041 1_556
Dy1 S0 3.030041 1_565
Dy1 S6 3.101313 1_555
Dy1 S2 3.101313 1_555
Dy2 S0 2.751932 1_565
Dy2 S4 2.751932 1_455
Dy2 S3 2.824270 1_555
Dy2 S2 2.824270 1_566
Dy2 S6 3.030041 1_455
Dy2 S1 3.030041 1_565
Dy2 S7 3.101313 1_556
Dy2 S5 3.101313 1_556
Dy3 S2 2.751932 1_555
Dy3 S6 2.751932 1_445
Dy3 S0 2.824270 1_555
Dy3 S7 2.824270 1_445
Dy3 S4 3.030041 1_444
Dy3 S5 3.030041 1_545
Dy3 S3 3.101313 1_555
Dy3 S1 3.101313 1_555
Pb0 S4 2.917029 1_555
Pb0 S1 2.917029 1_655
Pb0 S7 2.917029 1_545
Pb0 S2 2.917029 1_555
Pb0 S6 3.134833 1_555
Pb0 S3 3.134833 1_655
Pb0 S0 3.134833 1_555
Pb0 S5 3.134833 1_545
Pb1 S5 2.917029 1_555
Pb1 S0 2.917029 1_554
Pb1 S3 2.917029 1_554
Pb1 S6 2.917029 1_555
Pb1 S4 3.134833 1_554
Pb1 S2 3.134833 1_555
Pb1 S7 3.134833 1_555
Pb1 S1 3.134833 1_554
