# generated using pymatgen
data_YbCuS2
_symmetry_space_group_name_H-M   'P 1'
_cell_length_a   3.92469400
_cell_length_b   6.20760800
_cell_length_c   13.99684800
_cell_angle_alpha   90.00000000
_cell_angle_beta   90.00000000
_cell_angle_gamma   90.00000000
_symmetry_Int_Tables_number   1
_chemical_formula_structural   YbCuS2
_chemical_formula_sum   'Yb4 Cu4 S8'
_cell_volume   341.00467415
_cell_formula_units_Z   4
loop_
 _symmetry_equiv_pos_site_id
 _symmetry_equiv_pos_as_xyz
  1  'x, y, z'
loop_
 _atom_site_type_symbol
 _atom_site_label
 _atom_site_symmetry_multiplicity
 _atom_site_fract_x
 _atom_site_fract_y
 _atom_site_fract_z
 _atom_site_occupancy
  Yb  Yb0  1  0.73214000  0.77232600  0.13623900  1
  Yb  Yb1  1  0.26786000  0.27232600  0.36376100  1
  Yb  Yb2  1  0.23214000  0.72767400  0.86376100  1
  Yb  Yb3  1  0.76786000  0.22767400  0.63623900  1
  Cu  Cu0  1  0.23288300  0.38520500  0.05210300  1
  Cu  Cu1  1  0.26711700  0.61479500  0.55210300  1
  Cu  Cu2  1  0.73288300  0.11479500  0.94789700  1
  Cu  Cu3  1  0.76711700  0.88520500  0.44789700  1
  S  S0  1  0.76865000  0.51480400  0.47024200  1
  S  S1  1  0.26865000  0.98519600  0.52975800  1
  S  S2  1  0.23135000  0.01480400  0.02975800  1
  S  S3  1  0.23332700  0.51239400  0.20010500  1
  S  S4  1  0.73135000  0.48519600  0.97024200  1
  S  S5  1  0.73332700  0.98760600  0.79989500  1
  S  S6  1  0.26667300  0.48760600  0.70010500  1
  S  S7  1  0.76667300  0.01239400  0.29989500  1
loop_
_geom_bond_atom_site_label_1
_geom_bond_atom_site_label_2
_geom_bond_distance
_geom_bond_site_symmetry_2
Cu0 S3 2.216922 1_555
Cu0 S2 2.320486 1_555
Cu0 S4 2.350607 1_554
Cu0 S4 2.360631 1_454
Cu1 S6 2.216922 1_555
Cu1 S1 2.320486 1_555
Cu1 S0 2.350607 1_455
Cu1 S0 2.360631 1_555
Cu2 S5 2.216922 1_545
Cu2 S4 2.320486 1_555
Cu2 S2 2.350607 1_656
Cu2 S2 2.360631 1_556
Cu3 S7 2.216922 1_565
Cu3 S0 2.320486 1_555
Cu3 S1 2.350607 1_555
Cu3 S1 2.360631 1_655
S0 Yb1 2.885409 1_655
S0 Yb1 2.889623 1_555
S0 Yb3 2.928357 1_555
S1 Yb3 2.885409 1_565
S1 Yb3 2.889623 1_465
S1 Yb1 2.928357 1_565
S2 Yb0 2.885409 1_445
S2 Yb0 2.889623 1_545
S2 Yb2 2.928357 1_544
S3 Yb0 2.689834 1_555
S3 Yb0 2.696622 1_455
S3 Yb1 2.736123 1_555
S4 Yb2 2.885409 1_555
S4 Yb2 2.889623 1_655
S4 Yb0 2.928357 1_556
S5 Yb2 2.689834 1_655
S5 Yb2 2.696622 1_555
S5 Yb3 2.736123 1_565
S6 Yb3 2.689834 1_455
S6 Yb3 2.696622 1_555
S6 Yb2 2.736123 1_555
S7 Yb1 2.689834 1_555
S7 Yb1 2.696622 1_655
S7 Yb0 2.736123 1_545
