# generated using pymatgen
data_KCaF3
_symmetry_space_group_name_H-M   'P 1'
_cell_length_a   8.87409900
_cell_length_b   6.22474300
_cell_length_c   6.27264595
_cell_angle_alpha   89.60780972
_cell_angle_beta   90.00000000
_cell_angle_gamma   90.00000000
_symmetry_Int_Tables_number   1
_chemical_formula_structural   KCaF3
_chemical_formula_sum   'K4 Ca4 F12'
_cell_volume   346.48648213
_cell_formula_units_Z   4
loop_
 _symmetry_equiv_pos_site_id
 _symmetry_equiv_pos_as_xyz
  1  'x, y, z'
loop_
 _atom_site_type_symbol
 _atom_site_label
 _atom_site_symmetry_multiplicity
 _atom_site_fract_x
 _atom_site_fract_y
 _atom_site_fract_z
 _atom_site_occupancy
  K  K0  1  0.25000000  0.00040800  0.53024600  1
  K  K1  1  0.75000000  0.99959200  0.46975400  1
  K  K2  1  0.25000000  0.50265300  0.02453200  1
  K  K3  1  0.75000000  0.49734700  0.97546800  1
  Ca  Ca0  1  0.50000000  0.00000000  0.00000000  1
  Ca  Ca1  1  0.00000000  0.00000000  0.00000000  1
  Ca  Ca2  1  0.50000000  0.50000000  0.50000000  1
  Ca  Ca3  1  0.00000000  0.50000000  0.50000000  1
  F  F0  1  0.25000000  0.06473800  0.96194200  1
  F  F1  1  0.75000000  0.93526200  0.03805800  1
  F  F2  1  0.25000000  0.43103800  0.50334300  1
  F  F3  1  0.75000000  0.56896200  0.49665700  1
  F  F4  1  0.52321700  0.30024100  0.20077800  1
  F  F5  1  0.47678300  0.69975900  0.79922200  1
  F  F6  1  0.02321700  0.69975900  0.79922200  1
  F  F7  1  0.97678300  0.30024100  0.20077800  1
  F  F8  1  0.45758000  0.79761000  0.29727600  1
  F  F9  1  0.54242000  0.20239000  0.70272400  1
  F  F10  1  0.95758000  0.20239000  0.70272400  1
  F  F11  1  0.04242000  0.79761000  0.29727600  1
loop_
_geom_bond_atom_site_label_1
_geom_bond_atom_site_label_2
_geom_bond_distance
_geom_bond_site_symmetry_2
Ca0 F0 2.267138 1_554
Ca0 F1 2.267138 1_545
Ca0 F4 2.270167 1_555
Ca0 F5 2.270167 1_544
Ca0 F9 2.274608 1_554
Ca0 F8 2.274608 1_545
Ca1 F0 2.267138 1_554
Ca1 F1 2.267138 1_445
Ca1 F7 2.270167 1_455
Ca1 F6 2.270167 1_544
Ca1 F10 2.274608 1_454
Ca1 F11 2.274608 1_545
Ca2 F3 2.259744 1_555
Ca2 F2 2.259744 1_555
Ca2 F5 2.267899 1_555
Ca2 F4 2.267899 1_555
Ca2 F8 2.271209 1_555
Ca2 F9 2.271209 1_555
Ca3 F3 2.259744 1_455
Ca3 F2 2.259744 1_555
Ca3 F6 2.267899 1_555
Ca3 F7 2.267899 1_455
Ca3 F10 2.271209 1_455
Ca3 F11 2.271209 1_555
F0 K0 2.740034 1_555
F0 K2 2.756695 1_556
F1 K1 2.740034 1_555
F1 K3 2.756695 1_554
F2 K0 2.684715 1_555
F2 K2 3.033295 1_555
F2 K2 3.302509 1_556
F3 K1 2.684715 1_555
F3 K3 3.033295 1_555
F3 K3 3.302509 1_554
F4 K3 2.743930 1_554
F4 K2 2.944333 1_555
F4 K1 3.218058 1_545
F5 K2 2.743930 1_556
F5 K3 2.944333 1_555
F5 K0 3.218058 1_565
F6 K2 2.743930 1_556
F6 K3 2.944333 1_455
F6 K0 3.218058 1_565
F7 K3 2.743930 1_554
F7 K2 2.944333 1_655
F7 K1 3.218058 1_545
F8 K0 2.673501 1_565
F8 K1 3.082811 1_555
F8 K2 3.119971 1_555
F9 K1 2.673501 1_545
F9 K0 3.082811 1_555
F9 K3 3.119971 1_555
F10 K1 2.673501 1_545
F10 K0 3.082811 1_655
F10 K3 3.119971 1_555
F11 K0 2.673501 1_565
F11 K1 3.082811 1_455
F11 K2 3.119971 1_555
