# generated using pymatgen
data_Eu2Ir2O7
_symmetry_space_group_name_H-M   'P 1'
_cell_length_a   7.30825377
_cell_length_b   7.30847320
_cell_length_c   7.30765564
_cell_angle_alpha   60.01043174
_cell_angle_beta   60.00950167
_cell_angle_gamma   60.01294433
_symmetry_Int_Tables_number   1
_chemical_formula_structural   Eu2Ir2O7
_chemical_formula_sum   'Eu4 Ir4 O14'
_cell_volume   276.06493242
_cell_formula_units_Z   2
loop_
 _symmetry_equiv_pos_site_id
 _symmetry_equiv_pos_as_xyz
  1  'x, y, z'
loop_
 _atom_site_type_symbol
 _atom_site_label
 _atom_site_symmetry_multiplicity
 _atom_site_fract_x
 _atom_site_fract_y
 _atom_site_fract_z
 _atom_site_occupancy
  Eu  Eu0  1  0.62500077  0.62499712  0.62499985  1
  Eu  Eu1  1  0.12500010  0.62500039  0.62500009  1
  Eu  Eu2  1  0.62499958  0.12500021  0.62499877  1
  Eu  Eu3  1  0.62500035  0.62499936  0.12500019  1
  Ir  Ir0  1  0.62499973  0.12499923  0.12499916  1
  Ir  Ir1  1  0.12500301  0.12499905  0.12499883  1
  Ir  Ir2  1  0.12500120  0.12499915  0.62499796  1
  Ir  Ir3  1  0.12500018  0.62499799  0.12499889  1
  O  O0  1  0.49950420  0.49956459  0.49943139  1
  O  O1  1  0.20378972  0.79634879  0.20360595  1
  O  O2  1  0.04620942  0.45365486  0.04639418  1
  O  O3  1  0.20369298  0.20370991  0.79631577  1
  O  O4  1  0.79582974  0.79580609  0.20416837  1
  O  O5  1  0.04571051  0.45418057  0.45423233  1
  O  O6  1  0.45363186  0.04620842  0.04641776  1
  O  O7  1  0.79636847  0.20379175  0.20358341  1
  O  O8  1  0.45416870  0.45419719  0.04583267  1
  O  O9  1  0.20428746  0.79582267  0.79576718  1
  O  O10  1  0.75049759  0.75043436  0.75056745  1
  O  O11  1  0.45416005  0.04571197  0.45423695  1
  O  O12  1  0.04630749  0.04629097  0.45368471  1
  O  O13  1  0.79583889  0.20428935  0.79576414  1
loop_
_geom_bond_atom_site_label_1
_geom_bond_atom_site_label_2
_geom_bond_distance
_geom_bond_site_symmetry_2
Eu0 O0 2.246398 1_555
Eu0 O10 2.246422 1_555
Eu0 O5 2.540472 1_655
Eu0 O9 2.540499 1_555
Eu0 O13 2.540571 1_555
Eu0 O11 2.540609 1_565
Eu0 O4 2.540915 1_555
Eu0 O8 2.540917 1_556
Eu1 O10 2.235056 1_455
Eu1 O0 2.235065 1_555
Eu1 O9 2.540699 1_555
Eu1 O5 2.540700 1_555
Eu1 O3 2.544508 1_555
Eu1 O12 2.544509 1_565
Eu1 O2 2.544714 1_556
Eu1 O1 2.544715 1_555
Eu2 O0 2.235513 1_555
Eu2 O10 2.235522 1_545
Eu2 O11 2.540763 1_555
Eu2 O13 2.540789 1_555
Eu2 O3 2.544486 1_555
Eu2 O12 2.544495 1_655
Eu2 O7 2.544832 1_555
Eu2 O6 2.544854 1_556
Eu3 O0 2.234390 1_555
Eu3 O10 2.234399 1_554
Eu3 O8 2.540386 1_555
Eu3 O4 2.540404 1_555
Eu3 O2 2.544031 1_655
Eu3 O1 2.544041 1_555
Eu3 O7 2.544137 1_555
Eu3 O6 2.544147 1_565
Ir0 O6 2.000076 1_555
Ir0 O7 2.000107 1_555
Ir0 O13 2.002398 1_554
Ir0 O11 2.002414 1_555
Ir0 O4 2.002456 1_545
Ir0 O8 2.002484 1_555
Ir1 O6 1.999718 1_555
Ir1 O7 1.999749 1_455
Ir1 O3 1.999824 1_554
Ir1 O12 1.999839 1_555
Ir1 O1 1.999914 1_545
Ir1 O2 1.999946 1_555
Ir2 O12 1.999822 1_555
Ir2 O3 1.999856 1_555
Ir2 O11 2.002058 1_555
Ir2 O13 2.002083 1_455
Ir2 O9 2.002244 1_545
Ir2 O5 2.002266 1_555
Ir3 O2 2.000056 1_555
Ir3 O1 2.000114 1_555
Ir3 O8 2.002224 1_555
Ir3 O4 2.002243 1_455
Ir3 O9 2.002380 1_554
Ir3 O5 2.002381 1_555
