# generated using pymatgen
data_BaH2O3
_symmetry_space_group_name_H-M   'P 1'
_cell_length_a   4.01011200
_cell_length_b   6.24527400
_cell_length_c   6.97928853
_cell_angle_alpha   70.78312804
_cell_angle_beta   90.00000000
_cell_angle_gamma   90.00000000
_symmetry_Int_Tables_number   1
_chemical_formula_structural   BaH2O3
_chemical_formula_sum   'Ba2 H4 O6'
_cell_volume   165.05158836
_cell_formula_units_Z   2
loop_
 _symmetry_equiv_pos_site_id
 _symmetry_equiv_pos_as_xyz
  1  'x, y, z'
loop_
 _atom_site_type_symbol
 _atom_site_label
 _atom_site_symmetry_multiplicity
 _atom_site_fract_x
 _atom_site_fract_y
 _atom_site_fract_z
 _atom_site_occupancy
  Ba  Ba0  1  0.25000000  0.85355700  0.29257100  1
  Ba  Ba1  1  0.75000000  0.14644300  0.70742900  1
  H  H0  1  0.75000000  0.63100500  0.05839900  1
  H  H1  1  0.25000000  0.36899500  0.94160100  1
  H  H2  1  0.75000000  0.26638200  0.16322300  1
  H  H3  1  0.25000000  0.73361800  0.83677700  1
  O  O0  1  0.75000000  0.64990300  0.61710800  1
  O  O1  1  0.25000000  0.35009700  0.38289200  1
  O  O2  1  0.75000000  0.78723300  0.05615500  1
  O  O3  1  0.25000000  0.21276700  0.94384500  1
  O  O4  1  0.75000000  0.16888500  0.30558700  1
  O  O5  1  0.25000000  0.83111500  0.69441300  1
loop_
_geom_bond_atom_site_label_1
_geom_bond_atom_site_label_2
_geom_bond_distance
_geom_bond_site_symmetry_2
Ba0 O3 2.713314 1_564
Ba0 O2 2.713721 1_555
Ba0 O2 2.713721 1_455
Ba0 O5 2.761613 1_555
Ba0 O4 2.832746 1_465
Ba0 O4 2.832746 1_565
Ba0 O0 2.978570 1_455
Ba0 O0 2.978570 1_555
Ba0 O1 2.996479 1_555
Ba1 O2 2.713314 1_546
Ba1 O3 2.713721 1_555
Ba1 O3 2.713721 1_655
Ba1 O4 2.761613 1_555
Ba1 O5 2.832746 1_645
Ba1 O5 2.832746 1_545
Ba1 O1 2.978570 1_555
Ba1 O1 2.978570 1_655
Ba1 O0 2.996479 1_555
H0 O2 0.970644 1_555
H1 O3 0.970644 1_555
H2 O4 0.979658 1_555
H3 O5 0.979658 1_555
