# generated using pymatgen
data_Li(ReO3)5
_symmetry_space_group_name_H-M   'P 1'
_cell_length_a   6.48536000
_cell_length_b   10.60039094
_cell_length_c   16.30369578
_cell_angle_alpha   108.91042204
_cell_angle_beta   97.76576335
_cell_angle_gamma   90.07844911
_symmetry_Int_Tables_number   1
_chemical_formula_structural   Li(ReO3)5
_chemical_formula_sum   'Li4 Re20 O60'
_cell_volume   1049.39564237
_cell_formula_units_Z   4
loop_
 _symmetry_equiv_pos_site_id
 _symmetry_equiv_pos_as_xyz
  1  'x, y, z'
loop_
 _atom_site_type_symbol
 _atom_site_label
 _atom_site_symmetry_multiplicity
 _atom_site_fract_x
 _atom_site_fract_y
 _atom_site_fract_z
 _atom_site_occupancy
  Li  Li0  1  0.20063800  0.29997900  0.60026000  1
  Li  Li1  1  0.70052100  0.29991700  0.10017700  1
  Li  Li2  1  0.79936200  0.70002100  0.39974000  1
  Li  Li3  1  0.29947900  0.70008300  0.89982300  1
  Re  Re0  1  0.69880900  0.29956400  0.59986300  1
  Re  Re1  1  0.69880000  0.80020600  0.60104800  1
  Re  Re2  1  0.40075600  0.09759900  0.70049700  1
  Re  Re3  1  0.30120000  0.19979400  0.39895200  1
  Re  Re4  1  0.30119100  0.70043600  0.40013700  1
  Re  Re5  1  0.00000000  0.50000000  0.50000000  1
  Re  Re6  1  0.90246700  0.09853300  0.20035500  1
  Re  Re7  1  0.90186400  0.60287900  0.20012100  1
  Re  Re8  1  0.00000000  0.00000000  0.50000000  1
  Re  Re9  1  0.59924400  0.90240100  0.29950300  1
  Re  Re10  1  0.50000000  0.00000000  0.00000000  1
  Re  Re11  1  0.59897400  0.39896200  0.30080300  1
  Re  Re12  1  0.19899400  0.30013300  0.09998500  1
  Re  Re13  1  0.09813600  0.39712100  0.79987900  1
  Re  Re14  1  0.09753300  0.90146700  0.79964500  1
  Re  Re15  1  0.20014900  0.80160300  0.10130300  1
  Re  Re16  1  0.80100600  0.69986700  0.90001500  1
  Re  Re17  1  0.79985100  0.19839700  0.89869700  1
  Re  Re18  1  0.50000000  0.50000000  0.00000000  1
  Re  Re19  1  0.40102600  0.60103800  0.69919700  1
  O  O0  1  0.49384800  0.21319400  0.64050700  1
  O  O1  1  0.20080900  0.01687700  0.59894100  1
  O  O2  1  0.09504700  0.61339500  0.44029800  1
  O  O3  1  0.93789700  0.84159700  0.68724100  1
  O  O4  1  0.80201900  0.41688600  0.39939000  1
  O  O5  1  0.85591100  0.14294400  0.56993200  1
  O  O6  1  0.83811000  0.86960600  0.52575800  1
  O  O7  1  0.70630400  0.01148600  0.24213500  1
  O  O8  1  0.80478300  0.62990200  0.54360200  1
  O  O9  1  0.59463300  0.96935600  0.65539300  1
  O  O10  1  0.53941100  0.24199500  0.48730900  1
  O  O11  1  0.40264000  0.81828800  0.19926000  1
  O  O12  1  0.54486600  0.45651300  0.63035600  1
  O  O13  1  0.55908500  0.72399300  0.66970600  1
  O  O14  1  0.44091500  0.27600700  0.33029400  1
  O  O15  1  0.45513400  0.54348700  0.36964400  1
  O  O16  1  0.40536700  0.03064400  0.34460700  1
  O  O17  1  0.30477900  0.41143300  0.04270700  1
  O  O18  1  0.46058900  0.75800500  0.51269100  1
  O  O19  1  0.19521700  0.37009800  0.45639800  1
  O  O20  1  0.13958600  0.64219600  0.28695300  1
  O  O21  1  0.00137400  0.21730200  0.99999900  1
  O  O22  1  0.14408900  0.85705600  0.43006800  1
  O  O23  1  0.16189000  0.13039400  0.47424200  1
  O  O24  1  0.05348300  0.94254400  0.16853100  1
  O  O25  1  0.04079300  0.67613200  0.13093100  1
  O  O26  1  0.19798100  0.58311400  0.60061000  1
  O  O27  1  0.90377700  0.81057400  0.84256400  1
  O  O28  1  0.99390300  0.42665500  0.14385300  1
  O  O29  1  0.06210300  0.15840300  0.31275900  1
  O  O30  1  0.79532500  0.77011500  0.25607200  1
  O  O31  1  0.73902000  0.04265800  0.08657900  1
  O  O32  1  0.90495300  0.38660500  0.55970200  1
  O  O33  1  0.60080500  0.61679900  0.79969400  1
  O  O34  1  0.76151500  0.53142100  0.27469400  1
  O  O35  1  0.74484300  0.26001100  0.22656000  1
  O  O36  1  0.65463700  0.34061000  0.97312100  1
  O  O37  1  0.63992500  0.07439900  0.93043700  1
  O  O38  1  0.79919100  0.98312300  0.40105900  1
  O  O39  1  0.66066500  0.55746800  0.11309000  1
  O  O40  1  0.59580100  0.82571700  0.94367500  1
  O  O41  1  0.50615200  0.78680600  0.35949300  1
  O  O42  1  0.40419900  0.17428300  0.05632500  1
  O  O43  1  0.33933500  0.44253200  0.88691000  1
  O  O44  1  0.34536300  0.65939000  0.02687900  1
  O  O45  1  0.36007500  0.92560100  0.06956300  1
  O  O46  1  0.25515700  0.73998900  0.77344000  1
  O  O47  1  0.23848500  0.46857900  0.72530600  1
  O  O48  1  0.39919500  0.38320100  0.20030600  1
  O  O49  1  0.26098000  0.95734200  0.91342100  1
  O  O50  1  0.20467500  0.22988500  0.74392800  1
  O  O51  1  0.00609700  0.57334500  0.85614700  1
  O  O52  1  0.09622300  0.18942600  0.15743600  1
  O  O53  1  0.95920700  0.32386800  0.86906900  1
  O  O54  1  0.94651700  0.05745600  0.83146900  1
  O  O55  1  0.99862600  0.78269800  0.00000100  1
  O  O56  1  0.86041400  0.35780400  0.71304700  1
  O  O57  1  0.69522100  0.58856700  0.95729300  1
  O  O58  1  0.59736000  0.18171200  0.80074000  1
  O  O59  1  0.29369600  0.98851400  0.75786500  1
loop_
_geom_bond_atom_site_label_1
_geom_bond_atom_site_label_2
_geom_bond_distance
_geom_bond_site_symmetry_2
Li0 O47 2.216440 1_555
Li0 O0 2.225246 1_555
Li0 O23 2.231863 1_555
Li0 O32 2.239076 1_455
Li1 O35 2.216420 1_555
Li1 O28 2.222378 1_555
Li1 O36 2.231281 1_554
Li1 O42 2.232135 1_555
Li2 O34 2.216440 1_555
Li2 O41 2.225246 1_555
Li2 O6 2.231863 1_555
Li2 O2 2.239076 1_655
Li3 O46 2.216420 1_555
Li3 O51 2.222378 1_555
Li3 O44 2.231281 1_556
Li3 O40 2.232135 1_555
O0 Re0 1.916296 1_555
O0 Re2 1.938287 1_555
O1 Re8 1.890693 1_555
O1 Re2 1.911430 1_555
O2 Re5 1.921140 1_555
O2 Re4 1.921503 1_555
O3 Re14 1.888025 1_655
O3 Re1 1.892442 1_555
O4 Re11 1.892882 1_555
O4 Re5 1.899067 1_655
O5 Re8 1.908191 1_655
O5 Re0 1.909567 1_555
O6 Re8 1.918505 1_665
O6 Re1 1.935836 1_555
O7 Re9 1.889009 1_545
O7 Re6 1.890044 1_555
O8 Re5 1.902078 1_655
O8 Re1 1.920967 1_555
O9 Re2 1.891123 1_565
O9 Re1 1.895202 1_555
O10 Re0 1.888970 1_555
O10 Re3 1.908123 1_555
O11 Re15 1.885719 1_555
O11 Re9 1.892349 1_555
O12 Re0 1.901168 1_555
O12 Re19 1.910323 1_555
O13 Re19 1.875223 1_555
O13 Re1 1.893405 1_555
O14 Re11 1.875223 1_555
O14 Re3 1.893405 1_555
O15 Re4 1.901168 1_555
O15 Re11 1.910323 1_555
O16 Re9 1.891123 1_545
O16 Re3 1.895202 1_555
O17 Re12 1.902573 1_555
O17 Re18 1.904702 1_555
O18 Re4 1.888970 1_555
O18 Re1 1.908123 1_555
O19 Re5 1.902078 1_555
O19 Re3 1.920967 1_555
O20 Re7 1.892275 1_455
O20 Re4 1.903134 1_555
O21 Re12 1.890888 1_556
O21 Re17 1.917669 1_455
O22 Re8 1.908191 1_565
O22 Re4 1.909567 1_555
O23 Re8 1.918505 1_555
O23 Re3 1.935836 1_555
O24 Re6 1.883690 1_465
O24 Re15 1.887443 1_555
O25 Re7 1.878246 1_455
O25 Re15 1.902107 1_555
O26 Re19 1.892882 1_555
O26 Re5 1.899067 1_555
O27 Re16 1.891512 1_555
O27 Re14 1.915271 1_655
O28 Re12 1.928640 1_655
O28 Re7 1.930729 1_555
O29 Re6 1.888025 1_455
O29 Re3 1.892442 1_555
O30 Re7 1.891488 1_555
O30 Re9 1.920811 1_555
O31 Re10 1.895495 1_555
O31 Re6 1.915751 1_555
O32 Re5 1.921140 1_655
O32 Re0 1.921503 1_555
O33 Re16 1.904149 1_555
O33 Re19 1.907736 1_555
O34 Re11 1.941281 1_555
O34 Re7 1.942834 1_555
O35 Re11 1.920227 1_555
O35 Re6 1.950984 1_555
O36 Re18 1.922504 1_556
O36 Re17 1.938784 1_555
O37 Re10 1.894114 1_556
O37 Re17 1.911397 1_555
O38 Re8 1.890693 1_665
O38 Re9 1.911430 1_555
O39 Re18 1.899312 1_555
O39 Re7 1.909808 1_555
O40 Re10 1.923567 1_566
O40 Re16 1.924281 1_555
O41 Re4 1.916296 1_555
O41 Re9 1.938287 1_555
O42 Re10 1.923567 1_555
O42 Re12 1.924281 1_555
O43 Re18 1.899312 1_556
O43 Re13 1.909808 1_555
O44 Re18 1.922504 1_555
O44 Re15 1.938784 1_555
O45 Re10 1.894114 1_565
O45 Re15 1.911397 1_555
O46 Re19 1.920227 1_555
O46 Re14 1.950984 1_555
O47 Re19 1.941281 1_555
O47 Re13 1.942834 1_555
O48 Re12 1.904149 1_555
O48 Re11 1.907736 1_555
O49 Re10 1.895495 1_566
O49 Re14 1.915751 1_555
O50 Re13 1.891488 1_555
O50 Re2 1.920811 1_555
O51 Re16 1.928640 1_455
O51 Re13 1.930729 1_555
O52 Re12 1.891512 1_555
O52 Re6 1.915271 1_455
O53 Re13 1.878246 1_655
O53 Re17 1.902107 1_555
O54 Re14 1.883690 1_645
O54 Re17 1.887443 1_555
O55 Re16 1.890888 1_554
O55 Re15 1.917669 1_655
O56 Re13 1.892275 1_655
O56 Re0 1.903134 1_555
O57 Re16 1.902573 1_555
O57 Re18 1.904702 1_556
O58 Re17 1.885719 1_555
O58 Re2 1.892349 1_555
O59 Re2 1.889009 1_565
O59 Re14 1.890044 1_555
