# generated using pymatgen
data_LuH24C4N4Cl7
_symmetry_space_group_name_H-M   'P 1'
_cell_length_a   7.72655200
_cell_length_b   9.92435900
_cell_length_c   13.22024781
_cell_angle_alpha   89.13034826
_cell_angle_beta   90.00000000
_cell_angle_gamma   90.00000000
_symmetry_Int_Tables_number   1
_chemical_formula_structural   LuH24C4N4Cl7
_chemical_formula_sum   'Lu2 H48 C8 N8 Cl14'
_cell_volume   1013.62605476
_cell_formula_units_Z   2
loop_
 _symmetry_equiv_pos_site_id
 _symmetry_equiv_pos_as_xyz
  1  'x, y, z'
loop_
 _atom_site_type_symbol
 _atom_site_label
 _atom_site_symmetry_multiplicity
 _atom_site_fract_x
 _atom_site_fract_y
 _atom_site_fract_z
 _atom_site_occupancy
  Lu  Lu0  1  0.99990900  0.50000000  0.50000000  1
  Lu  Lu1  1  0.00953300  0.00000000  0.00000000  1
  H  H0  1  0.50837600  0.89408300  0.05429000  1
  H  H1  1  0.13978200  0.09923600  0.72021400  1
  H  H2  1  0.11810600  0.67882700  0.87433600  1
  H  H3  1  0.11810600  0.32117300  0.12566400  1
  H  H4  1  0.12752700  0.49667000  0.88726000  1
  H  H5  1  0.65174300  0.26899200  0.29996000  1
  H  H6  1  0.37372100  0.30650400  0.45323100  1
  H  H7  1  0.82107000  0.93885900  0.40583000  1
  H  H8  1  0.55614900  0.78435300  0.53071500  1
  H  H9  1  0.13054100  0.84190700  0.40857500  1
  H  H10  1  0.12752700  0.50333000  0.11274000  1
  H  H11  1  0.40304600  0.75073600  0.03879800  1
  H  H12  1  0.51404300  0.66167200  0.20022500  1
  H  H13  1  0.63595300  0.81490800  0.21042400  1
  H  H14  1  0.82907700  0.57348100  0.91811700  1
  H  H15  1  0.83981200  0.49112300  0.80984900  1
  H  H16  1  0.13054100  0.15809300  0.59142500  1
  H  H17  1  0.51404300  0.33832800  0.79977500  1
  H  H18  1  0.50837600  0.10591700  0.94571000  1
  H  H19  1  0.86038000  0.18724400  0.67344100  1
  H  H20  1  0.85795100  0.97311200  0.28268600  1
  H  H21  1  0.55614900  0.21564700  0.46928500  1
  H  H22  1  0.44523100  0.65136900  0.72327000  1
  H  H23  1  0.61634500  0.25066600  0.96345900  1
  H  H24  1  0.44523100  0.34863100  0.27673000  1
  H  H25  1  0.85795100  0.02688800  0.71731400  1
  H  H26  1  0.83981200  0.50887700  0.19015100  1
  H  H27  1  0.86038000  0.81275600  0.32655900  1
  H  H28  1  0.82107000  0.06114100  0.59417000  1
  H  H29  1  0.11693600  0.57494800  0.76452100  1
  H  H30  1  0.11693600  0.42505200  0.23547900  1
  H  H31  1  0.63595300  0.18509200  0.78957600  1
  H  H32  1  0.13978200  0.90076400  0.27978600  1
  H  H33  1  0.45860300  0.17110400  0.30368300  1
  H  H34  1  0.83255900  0.65921700  0.80979000  1
  H  H35  1  0.40304600  0.24926400  0.96120200  1
  H  H36  1  0.56428400  0.38378400  0.44802900  1
  H  H37  1  0.82907700  0.42651900  0.08188300  1
  H  H38  1  0.83255900  0.34078300  0.19021000  1
  H  H39  1  0.40490700  0.18109600  0.78313000  1
  H  H40  1  0.37372100  0.69349600  0.54676900  1
  H  H41  1  0.61634500  0.74933400  0.03654100  1
  H  H42  1  0.40490700  0.81890400  0.21687000  1
  H  H43  1  0.65174300  0.73100800  0.70004000  1
  H  H44  1  0.12102400  0.97918100  0.62078000  1
  H  H45  1  0.56428400  0.61621600  0.55197100  1
  H  H46  1  0.45860300  0.82889600  0.69631700  1
  H  H47  1  0.12102400  0.02081900  0.37922000  1
  C  C0  1  0.08643000  0.91931500  0.35490500  1
  C  C1  1  0.51383900  0.26970300  0.31927000  1
  C  C2  1  0.07669600  0.58225000  0.84337200  1
  C  C3  1  0.07669600  0.41775000  0.15662800  1
  C  C4  1  0.08643000  0.08068500  0.64509500  1
  C  C5  1  0.51580300  0.22979000  0.81680200  1
  C  C6  1  0.51580300  0.77021000  0.18319800  1
  C  C7  1  0.51383900  0.73029700  0.68073000  1
  N  N0  1  0.50025500  0.70383800  0.57094400  1
  N  N1  1  0.89544100  0.08899300  0.65716900  1
  N  N2  1  0.50025500  0.29616200  0.42905600  1
  N  N3  1  0.51102600  0.20732500  0.92862700  1
  N  N4  1  0.89544100  0.91100700  0.34283100  1
  N  N5  1  0.88405800  0.57592800  0.84590300  1
  N  N6  1  0.88405800  0.42407200  0.15409700  1
  N  N7  1  0.51102600  0.79267500  0.07137300  1
  Cl  Cl0  1  0.75140100  0.41709900  0.62467200  1
  Cl  Cl1  1  0.61329100  0.00000000  0.50000000  1
  Cl  Cl2  1  0.97868300  0.77032400  0.09455500  1
  Cl  Cl3  1  0.23987600  0.58754900  0.38278300  1
  Cl  Cl4  1  0.97868300  0.22967600  0.90544500  1
  Cl  Cl5  1  0.23987600  0.41245100  0.61721700  1
  Cl  Cl6  1  0.99498100  0.27213200  0.40801500  1
  Cl  Cl7  1  0.25570200  0.08305100  0.11526900  1
  Cl  Cl8  1  0.25570200  0.91694900  0.88473100  1
  Cl  Cl9  1  0.58796700  0.50000000  0.00000000  1
  Cl  Cl10  1  0.75140100  0.58290100  0.37532800  1
  Cl  Cl11  1  0.99498100  0.72786800  0.59198500  1
  Cl  Cl12  1  0.77206400  0.91255400  0.87182300  1
  Cl  Cl13  1  0.77206400  0.08744600  0.12817700  1
loop_
_geom_bond_atom_site_label_1
_geom_bond_atom_site_label_2
_geom_bond_distance
_geom_bond_site_symmetry_2
H0 N7 1.028292 1_555
H6 N2 1.034174 1_555
H7 N4 1.052261 1_555
H8 N0 1.046402 1_555
H11 N7 1.029668 1_555
H14 N5 1.044883 1_555
H15 N5 1.031790 1_555
H18 N3 1.028292 1_555
H19 N1 1.037694 1_555
H20 N4 1.039786 1_555
H21 N2 1.046402 1_555
H23 N3 1.032118 1_555
H25 N1 1.039786 1_555
H26 N6 1.031790 1_555
H27 N4 1.037694 1_555
H28 N1 1.052261 1_555
H34 N5 1.028366 1_555
H35 N3 1.029668 1_555
H36 N2 1.034639 1_555
H37 N6 1.044883 1_555
H38 N6 1.028366 1_555
H40 N0 1.034174 1_555
H41 N7 1.032118 1_555
H45 N0 1.034639 1_555
C0 H9 1.092346 1_555
C0 H32 1.093438 1_555
C0 H47 1.095164 1_565
C0 N4 1.486717 1_455
C1 H33 1.090070 1_555
C1 H24 1.094300 1_555
C1 H5 1.095724 1_555
C1 N2 1.482597 1_555
C2 H29 1.091272 1_555
C2 H4 1.094208 1_555
C2 H2 1.095676 1_555
C2 N5 1.490104 1_455
C3 H30 1.091272 1_555
C3 H10 1.094208 1_555
C3 H3 1.095676 1_555
C3 N6 1.490104 1_455
C4 H16 1.092346 1_555
C4 H1 1.093438 1_555
C4 H44 1.095164 1_545
C4 N1 1.486717 1_455
C5 H39 1.082778 1_555
C5 H31 1.092247 1_555
C5 H17 1.097174 1_555
C5 N3 1.492178 1_555
C6 H42 1.082778 1_555
C6 H13 1.092247 1_555
C6 H12 1.097174 1_555
C6 N7 1.492178 1_555
C7 H46 1.090070 1_555
C7 H22 1.094300 1_555
C7 H43 1.095724 1_555
C7 N0 1.482597 1_555
Cl0 Lu0 2.653131 1_555
Cl2 Lu1 2.593941 1_665
Cl3 Lu0 2.559920 1_455
Cl4 Lu1 2.593941 1_656
Cl5 Lu0 2.559920 1_455
Cl6 Lu0 2.584158 1_555
Cl7 Lu1 2.580204 1_555
Cl8 Lu1 2.580204 1_566
Cl10 Lu0 2.653131 1_555
Cl11 Lu0 2.584158 1_555
Cl12 Lu1 2.652506 1_666
Cl13 Lu1 2.652506 1_655
