# generated using pymatgen
data_TmPaO4
_symmetry_space_group_name_H-M   'P 1'
_cell_length_a   5.95504295
_cell_length_b   5.95504295
_cell_length_c   5.95504295
_cell_angle_alpha   133.32849271
_cell_angle_beta   133.32849271
_cell_angle_gamma   68.13873894
_symmetry_Int_Tables_number   1
_chemical_formula_structural   TmPaO4
_chemical_formula_sum   'Tm2 Pa2 O8'
_cell_volume   109.79539893
_cell_formula_units_Z   2
loop_
 _symmetry_equiv_pos_site_id
 _symmetry_equiv_pos_as_xyz
  1  'x, y, z'
loop_
 _atom_site_type_symbol
 _atom_site_label
 _atom_site_symmetry_multiplicity
 _atom_site_fract_x
 _atom_site_fract_y
 _atom_site_fract_z
 _atom_site_occupancy
  Tm  Tm0  1  0.00000000  0.00000000  0.00000000  1
  Tm  Tm1  1  0.75000000  0.25000000  0.50000000  1
  Pa  Pa0  1  0.50000000  0.50000000  0.00000000  1
  Pa  Pa1  1  0.25000000  0.75000000  0.50000000  1
  O  O0  1  0.37500000  0.37050700  0.49550700  1
  O  O1  1  0.12050700  0.12500000  0.49550700  1
  O  O2  1  0.87500000  0.87949300  0.50449300  1
  O  O3  1  0.87500000  0.37050700  0.99550700  1
  O  O4  1  0.62949300  0.12500000  0.00449300  1
  O  O5  1  0.62949300  0.62500000  0.50449300  1
  O  O6  1  0.12050700  0.62500000  0.99550700  1
  O  O7  1  0.37500000  0.87949300  0.00449300  1
loop_
_geom_bond_atom_site_label_1
_geom_bond_atom_site_label_2
_geom_bond_distance
_geom_bond_site_symmetry_2
O0 Tm1 2.062405 1_555
O0 Tm0 2.062405 1_555
O0 Pa1 2.086509 1_555
O0 Pa0 2.086509 1_556
O1 Tm0 2.062405 1_555
O1 Tm1 2.062405 1_455
O1 Pa0 2.086509 1_556
O1 Pa1 2.086509 1_545
O2 Tm0 2.062405 1_666
O2 Tm1 2.062405 1_565
O2 Pa0 2.086509 1_555
O2 Pa1 2.086509 1_655
O3 Tm0 2.062405 1_656
O3 Tm1 2.062405 1_555
O3 Pa0 2.086509 1_556
O3 Pa1 2.086509 1_656
O4 Tm1 2.062405 1_555
O4 Tm0 2.062405 1_655
O4 Pa1 2.086509 1_544
O4 Pa0 2.086509 1_555
O5 Tm0 2.062405 1_666
O5 Tm1 2.062405 1_555
O5 Pa0 2.086509 1_555
O5 Pa1 2.086509 1_555
O6 Tm1 2.062405 1_455
O6 Tm0 2.062405 1_566
O6 Pa0 2.086509 1_556
O6 Pa1 2.086509 1_556
O7 Tm0 2.062405 1_565
O7 Tm1 2.062405 1_565
O7 Pa0 2.086509 1_555
O7 Pa1 2.086509 1_554
