# generated using pymatgen
data_CoH32C8S4(NO5)2
_symmetry_space_group_name_H-M   'P 1'
_cell_length_a   11.48710500
_cell_length_b   10.53047900
_cell_length_c   12.53127884
_cell_angle_alpha   56.69063972
_cell_angle_beta   90.00000000
_cell_angle_gamma   90.00000000
_symmetry_Int_Tables_number   1
_chemical_formula_structural   CoH32C8S4(NO5)2
_chemical_formula_sum   'Co2 H64 C16 S8 N4 O20'
_cell_volume   1266.81643606
_cell_formula_units_Z   2
loop_
 _symmetry_equiv_pos_site_id
 _symmetry_equiv_pos_as_xyz
  1  'x, y, z'
loop_
 _atom_site_type_symbol
 _atom_site_label
 _atom_site_symmetry_multiplicity
 _atom_site_fract_x
 _atom_site_fract_y
 _atom_site_fract_z
 _atom_site_occupancy
  Co  Co0  1  0.50000000  0.00000000  0.50000000  1
  Co  Co1  1  0.00000000  0.00000000  0.00000000  1
  H  H0  1  0.99654000  0.17042200  0.47439800  1
  H  H1  1  0.41959400  0.60531700  0.36667400  1
  H  H2  1  0.82722200  0.74514600  0.41977000  1
  H  H3  1  0.88675400  0.35714700  0.48473500  1
  H  H4  1  0.38675400  0.64285300  0.01526500  1
  H  H5  1  0.02133500  0.19279100  0.32336400  1
  H  H6  1  0.08416400  0.98653700  0.82207200  1
  H  H7  1  0.49698900  0.58465800  0.72621300  1
  H  H8  1  0.87974500  0.13503800  0.39887800  1
  H  H9  1  0.00301100  0.58465800  0.22621300  1
  H  H10  1  0.82402000  0.51815100  0.34238000  1
  H  H11  1  0.32402000  0.48184900  0.15762000  1
  H  H12  1  0.91210300  0.56075800  0.77276000  1
  H  H13  1  0.61036500  0.80182400  0.36331000  1
  H  H14  1  0.56972100  0.56549800  0.12826700  1
  H  H15  1  0.73667500  0.32951400  0.91401100  1
  H  H16  1  0.67277800  0.74514600  0.91977000  1
  H  H17  1  0.79188600  0.98299800  0.83730100  1
  H  H18  1  0.12025500  0.86496200  0.60112200  1
  H  H19  1  0.37974500  0.86496200  0.10112200  1
  H  H20  1  0.66435500  0.53209800  0.64172900  1
  H  H21  1  0.91959400  0.39468300  0.13332600  1
  H  H22  1  0.47866500  0.19279100  0.82336400  1
  H  H23  1  0.50301100  0.41534200  0.27378700  1
  H  H24  1  0.49654000  0.82957800  0.02560200  1
  H  H25  1  0.76332500  0.32951400  0.41401100  1
  H  H26  1  0.50346000  0.17042200  0.97439800  1
  H  H27  1  0.58416400  0.01346300  0.67792800  1
  H  H28  1  0.11324600  0.64285300  0.51526500  1
  H  H29  1  0.08040600  0.60531700  0.86667400  1
  H  H30  1  0.00346000  0.82957800  0.52560200  1
  H  H31  1  0.97866500  0.80720900  0.67663600  1
  H  H32  1  0.08789700  0.43924200  0.22724000  1
  H  H33  1  0.28397600  0.66208800  0.28229200  1
  H  H34  1  0.93027900  0.56549800  0.62826700  1
  H  H35  1  0.78397600  0.33791200  0.21770800  1
  H  H36  1  0.67598000  0.51815100  0.84238000  1
  H  H37  1  0.33564500  0.46790200  0.35827100  1
  H  H38  1  0.16435500  0.46790200  0.85827100  1
  H  H39  1  0.88963500  0.80182400  0.86331000  1
  H  H40  1  0.83564500  0.53209800  0.14172900  1
  H  H41  1  0.91583600  0.01346300  0.17792800  1
  H  H42  1  0.58040600  0.39468300  0.63332600  1
  H  H43  1  0.26332500  0.67048600  0.08598900  1
  H  H44  1  0.32722200  0.25485400  0.08023000  1
  H  H45  1  0.70811400  0.98299800  0.33730100  1
  H  H46  1  0.11036500  0.19817600  0.13669000  1
  H  H47  1  0.43027900  0.43450200  0.87173300  1
  H  H48  1  0.52133500  0.80720900  0.17663600  1
  H  H49  1  0.71602400  0.33791200  0.71770800  1
  H  H50  1  0.58789700  0.56075800  0.27276000  1
  H  H51  1  0.62025500  0.13503800  0.89887800  1
  H  H52  1  0.20811400  0.01700200  0.16269900  1
  H  H53  1  0.61324600  0.35714700  0.98473500  1
  H  H54  1  0.41583600  0.98653700  0.32207200  1
  H  H55  1  0.21602400  0.66208800  0.78229200  1
  H  H56  1  0.17277800  0.25485400  0.58023000  1
  H  H57  1  0.06972100  0.43450200  0.37173300  1
  H  H58  1  0.23667500  0.67048600  0.58598900  1
  H  H59  1  0.17598000  0.48184900  0.65762000  1
  H  H60  1  0.38963500  0.19817600  0.63669000  1
  H  H61  1  0.29188600  0.01700200  0.66269900  1
  H  H62  1  0.41210300  0.43924200  0.72724000  1
  H  H63  1  0.99698900  0.41534200  0.77378700  1
  C  C0  1  0.84267100  0.39608400  0.39431100  1
  C  C1  1  0.04263800  0.79647900  0.61708400  1
  C  C2  1  0.36003400  0.58814700  0.30751700  1
  C  C3  1  0.95736200  0.20352100  0.38291600  1
  C  C4  1  0.65732900  0.39608400  0.89431100  1
  C  C5  1  0.63996600  0.41185300  0.69248300  1
  C  C6  1  0.54263800  0.20352100  0.88291600  1
  C  C7  1  0.13996600  0.58814700  0.80751700  1
  C  C8  1  0.45736200  0.79647900  0.11708400  1
  C  C9  1  0.15732900  0.60391600  0.60568900  1
  C  C10  1  0.34267100  0.60391600  0.10568900  1
  C  C11  1  0.02888400  0.46452100  0.28186600  1
  C  C12  1  0.86003400  0.41185300  0.19248300  1
  C  C13  1  0.97111600  0.53547900  0.71813400  1
  C  C14  1  0.52888400  0.53547900  0.21813400  1
  C  C15  1  0.47111600  0.46452100  0.78186600  1
  S  S0  1  0.18124100  0.07678900  0.76549200  1
  S  S1  1  0.86833400  0.82787900  0.06764200  1
  S  S2  1  0.36833400  0.17212100  0.43235800  1
  S  S3  1  0.63166600  0.82787900  0.56764200  1
  S  S4  1  0.68124100  0.92321100  0.73450800  1
  S  S5  1  0.81875900  0.92321100  0.23450800  1
  S  S6  1  0.13166600  0.17212100  0.93235800  1
  S  S7  1  0.31875900  0.07678900  0.26549200  1
  N  N0  1  0.42203800  0.63179000  0.18633400  1
  N  N1  1  0.07796200  0.63179000  0.68633400  1
  N  N2  1  0.92203800  0.36821000  0.31366600  1
  N  N3  1  0.57796200  0.36821000  0.81366600  1
  O  O0  1  0.81968700  0.75006900  0.86286300  1
  O  O1  1  0.27905400  0.91436700  0.48676400  1
  O  O2  1  0.31968700  0.24993100  0.63713700  1
  O  O3  1  0.73719800  0.04427600  0.76507600  1
  O  O4  1  0.60584600  0.81115500  0.86690600  1
  O  O5  1  0.18031300  0.24993100  0.13713700  1
  O  O6  1  0.88577300  0.14324000  0.96017900  1
  O  O7  1  0.61422700  0.14324000  0.46017900  1
  O  O8  1  0.26280200  0.95572400  0.23492400  1
  O  O9  1  0.39415400  0.18884500  0.13309400  1
  O  O10  1  0.76280200  0.04427600  0.26507600  1
  O  O11  1  0.23719800  0.95572400  0.73492400  1
  O  O12  1  0.10584600  0.18884500  0.63309400  1
  O  O13  1  0.77905400  0.08563300  0.01323600  1
  O  O14  1  0.11422700  0.85676000  0.03982100  1
  O  O15  1  0.22094600  0.91436700  0.98676400  1
  O  O16  1  0.72094600  0.08563300  0.51323600  1
  O  O17  1  0.38577300  0.85676000  0.53982100  1
  O  O18  1  0.89415400  0.81115500  0.36690600  1
  O  O19  1  0.68031300  0.75006900  0.36286300  1
loop_
_geom_bond_atom_site_label_1
_geom_bond_atom_site_label_2
_geom_bond_distance
_geom_bond_site_symmetry_2
Co0 O7 1.849119 1_555
Co0 O17 1.849119 1_545
Co0 S3 2.145655 1_545
Co0 S2 2.145655 1_555
Co1 O6 1.849119 1_454
Co1 O14 1.849119 1_545
Co1 S1 2.145655 1_445
Co1 S6 2.145655 1_554
H2 O18 1.003696 1_555
H6 S0 1.381805 1_565
H13 O19 0.972639 1_555
H16 O4 1.003696 1_555
H17 O3 0.994355 1_565
H27 S4 1.381805 1_545
H39 O0 0.972639 1_555
H41 S5 1.381805 1_545
H44 O9 1.003696 1_555
H45 O10 0.994355 1_565
H46 O5 0.972639 1_555
H52 O8 0.994355 1_545
H54 S7 1.381805 1_565
H56 O12 1.003696 1_555
H60 O2 0.972639 1_555
H61 O11 0.994355 1_545
C0 H25 1.092265 1_555
C0 H3 1.094640 1_555
C0 H10 1.096794 1_555
C0 N2 1.504802 1_555
C1 H18 1.093887 1_555
C1 H30 1.095157 1_555
C1 H31 1.096500 1_455
C1 N1 1.507452 1_555
C2 H1 1.094322 1_555
C2 H33 1.095077 1_555
C2 H37 1.096282 1_555
C2 N0 1.502685 1_555
C3 H8 1.093887 1_555
C3 H0 1.095157 1_555
C3 H5 1.096500 1_655
C3 N2 1.507452 1_555
C4 H15 1.092265 1_555
C4 H53 1.094640 1_555
C4 H36 1.096794 1_555
C4 N3 1.504802 1_555
C5 H42 1.094322 1_555
C5 H49 1.095077 1_555
C5 H20 1.096282 1_555
C5 N3 1.502685 1_555
C6 H51 1.093887 1_555
C6 H26 1.095157 1_555
C6 H22 1.096500 1_555
C6 N3 1.507452 1_555
C7 H29 1.094322 1_555
C7 H55 1.095077 1_555
C7 H38 1.096282 1_555
C7 N1 1.502685 1_555
C8 H19 1.093887 1_555
C8 H24 1.095157 1_555
C8 H48 1.096500 1_555
C8 N0 1.507452 1_555
C9 H58 1.092265 1_555
C9 H28 1.094640 1_555
C9 H59 1.096794 1_555
C9 N1 1.504802 1_555
C10 H43 1.092265 1_555
C10 H4 1.094640 1_555
C10 H11 1.096794 1_555
C10 N0 1.504802 1_555
C11 H57 1.094166 1_555
C11 H32 1.095044 1_555
C11 H9 1.098249 1_555
C11 N2 1.499968 1_455
C12 H21 1.094322 1_555
C12 H35 1.095077 1_555
C12 H40 1.096282 1_555
C12 N2 1.502685 1_555
C13 H34 1.094166 1_555
C13 H12 1.095044 1_555
C13 H63 1.098249 1_555
C13 N1 1.499968 1_655
C14 H14 1.094166 1_555
C14 H50 1.095044 1_555
C14 H23 1.098249 1_555
C14 N0 1.499968 1_555
C15 H47 1.094166 1_555
C15 H62 1.095044 1_555
C15 H7 1.098249 1_555
C15 N3 1.499968 1_555
O1 O17 1.367436 1_555
O1 S7 2.369198 1_565
O3 S4 1.649716 1_545
O4 S4 1.656775 1_555
O8 S7 1.649716 1_565
O9 S7 1.656775 1_555
O10 S5 1.649716 1_545
O11 S0 1.649716 1_565
O12 S0 1.656775 1_555
O13 O6 1.367436 1_554
O13 S5 2.369198 1_545
O14 O15 1.367436 1_554
O15 S0 2.369198 1_565
O16 O7 1.367436 1_555
O16 S4 2.369198 1_545
O18 S5 1.656775 1_555
