# generated using pymatgen
data_TmCuPbSe3
_symmetry_space_group_name_H-M   'P 1'
_cell_length_a   4.04807300
_cell_length_b   10.53932300
_cell_length_c   13.65540700
_cell_angle_alpha   90.00000000
_cell_angle_beta   90.00000000
_cell_angle_gamma   90.00000000
_symmetry_Int_Tables_number   1
_chemical_formula_structural   TmCuPbSe3
_chemical_formula_sum   'Tm4 Cu4 Pb4 Se12'
_cell_volume   582.59358611
_cell_formula_units_Z   4
loop_
 _symmetry_equiv_pos_site_id
 _symmetry_equiv_pos_as_xyz
  1  'x, y, z'
loop_
 _atom_site_type_symbol
 _atom_site_label
 _atom_site_symmetry_multiplicity
 _atom_site_fract_x
 _atom_site_fract_y
 _atom_site_fract_z
 _atom_site_occupancy
  Tm  Tm0  1  0.25000000  0.00686700  0.75566400  1
  Tm  Tm1  1  0.75000000  0.49313300  0.25566400  1
  Tm  Tm2  1  0.75000000  0.99313300  0.24433600  1
  Tm  Tm3  1  0.25000000  0.50686700  0.74433600  1
  Cu  Cu0  1  0.75000000  0.75198300  0.71971200  1
  Cu  Cu1  1  0.25000000  0.74801700  0.21971200  1
  Cu  Cu2  1  0.25000000  0.24801700  0.28028800  1
  Cu  Cu3  1  0.75000000  0.25198300  0.78028800  1
  Pb  Pb0  1  0.25000000  0.26853600  0.99534700  1
  Pb  Pb1  1  0.25000000  0.76853600  0.50465300  1
  Pb  Pb2  1  0.75000000  0.23146400  0.49534700  1
  Pb  Pb3  1  0.75000000  0.73146400  0.00465300  1
  Se  Se0  1  0.25000000  0.05529700  0.38590100  1
  Se  Se1  1  0.25000000  0.42987100  0.39146900  1
  Se  Se2  1  0.75000000  0.74535300  0.32831000  1
  Se  Se3  1  0.25000000  0.92987100  0.10853100  1
  Se  Se4  1  0.25000000  0.75464700  0.82831000  1
  Se  Se5  1  0.75000000  0.94470300  0.61409900  1
  Se  Se6  1  0.75000000  0.44470300  0.88590100  1
  Se  Se7  1  0.75000000  0.57012900  0.60853100  1
  Se  Se8  1  0.75000000  0.07012900  0.89146900  1
  Se  Se9  1  0.75000000  0.24535300  0.17169000  1
  Se  Se10  1  0.25000000  0.55529700  0.11409900  1
  Se  Se11  1  0.25000000  0.25464700  0.67169000  1
loop_
_geom_bond_atom_site_label_1
_geom_bond_atom_site_label_2
_geom_bond_distance
_geom_bond_site_symmetry_2
Cu0 Se7 2.445081 1_555
Cu0 Se5 2.491070 1_555
Cu0 Se4 2.509313 1_555
Cu0 Se4 2.509313 1_655
Cu1 Se3 2.445081 1_555
Cu1 Se10 2.491070 1_555
Cu1 Se2 2.509313 1_455
Cu1 Se2 2.509313 1_555
Cu2 Se1 2.445081 1_555
Cu2 Se0 2.491070 1_555
Cu2 Se9 2.509313 1_555
Cu2 Se9 2.509313 1_455
Cu3 Se8 2.445081 1_555
Cu3 Se6 2.491070 1_555
Cu3 Se11 2.509313 1_655
Cu3 Se11 2.509313 1_555
Pb0 Se6 3.126916 1_555
Pb0 Se6 3.126916 1_455
Pb0 Se9 3.155164 1_556
Pb0 Se9 3.155164 1_456
Pb0 Se8 3.237507 1_555
Pb0 Se8 3.237507 1_455
Pb1 Se5 3.126916 1_455
Pb1 Se5 3.126916 1_555
Pb1 Se2 3.155164 1_555
Pb1 Se2 3.155164 1_455
Pb1 Se7 3.237507 1_555
Pb1 Se7 3.237507 1_455
Pb2 Se0 3.126916 1_555
Pb2 Se0 3.126916 1_655
Pb2 Se11 3.155164 1_555
Pb2 Se11 3.155164 1_655
Pb2 Se1 3.237507 1_555
Pb2 Se1 3.237507 1_655
Pb3 Se10 3.126916 1_555
Pb3 Se10 3.126916 1_655
Pb3 Se4 3.155164 1_554
Pb3 Se4 3.155164 1_654
Pb3 Se3 3.237507 1_555
Pb3 Se3 3.237507 1_655
Se0 Tm2 2.874535 1_445
Se0 Tm2 2.874535 1_545
Se1 Tm1 2.824948 1_455
Se1 Tm1 2.824948 1_555
Se2 Tm1 2.837298 1_555
Se2 Tm2 2.852105 1_555
Se3 Tm2 2.824948 1_455
Se3 Tm2 2.824948 1_555
Se4 Tm0 2.837298 1_565
Se4 Tm3 2.852105 1_555
Se5 Tm0 2.874535 1_565
Se5 Tm0 2.874535 1_665
Se6 Tm3 2.874535 1_655
Se6 Tm3 2.874535 1_555
Se7 Tm3 2.824948 1_655
Se7 Tm3 2.824948 1_555
Se8 Tm0 2.824948 1_555
Se8 Tm0 2.824948 1_655
Se9 Tm2 2.837298 1_545
Se9 Tm1 2.852105 1_555
Se10 Tm1 2.874535 1_455
Se10 Tm1 2.874535 1_555
Se11 Tm3 2.837298 1_555
Se11 Tm0 2.852105 1_555
