# generated using pymatgen
data_PrCuSO
_symmetry_space_group_name_H-M   'P 1'
_cell_length_a   3.96882100
_cell_length_b   3.96882100
_cell_length_c   8.49517100
_cell_angle_alpha   90.00000000
_cell_angle_beta   90.00000000
_cell_angle_gamma   90.00000000
_symmetry_Int_Tables_number   1
_chemical_formula_structural   PrCuSO
_chemical_formula_sum   'Pr2 Cu2 S2 O2'
_cell_volume   133.81202692
_cell_formula_units_Z   2
loop_
 _symmetry_equiv_pos_site_id
 _symmetry_equiv_pos_as_xyz
  1  'x, y, z'
loop_
 _atom_site_type_symbol
 _atom_site_label
 _atom_site_symmetry_multiplicity
 _atom_site_fract_x
 _atom_site_fract_y
 _atom_site_fract_z
 _atom_site_occupancy
  Pr  Pr0  1  0.00000000  0.50000000  0.85290100  1
  Pr  Pr1  1  0.50000000  0.00000000  0.14709900  1
  Cu  Cu0  1  0.50000000  0.50000000  0.50000000  1
  Cu  Cu1  1  0.00000000  0.00000000  0.50000000  1
  S  S0  1  0.50000000  0.00000000  0.66286800  1
  S  S1  1  0.00000000  0.50000000  0.33713200  1
  O  O0  1  0.00000000  0.00000000  0.00000000  1
  O  O1  1  0.50000000  0.50000000  0.00000000  1
loop_
_geom_bond_atom_site_label_1
_geom_bond_atom_site_label_2
_geom_bond_distance
_geom_bond_site_symmetry_2
Pr0 S0 3.237582 1_565
Pr0 S0 3.237582 1_465
Pr0 S0 3.237582 1_455
Pr0 S0 3.237582 1_555
Pr1 S1 3.237582 1_545
Pr1 S1 3.237582 1_655
Pr1 S1 3.237582 1_645
Pr1 S1 3.237582 1_555
Cu0 S0 2.419134 1_555
Cu0 S1 2.419134 1_655
Cu0 S1 2.419134 1_555
Cu0 S0 2.419134 1_565
Cu1 S1 2.419134 1_555
Cu1 S1 2.419134 1_545
Cu1 S0 2.419134 1_455
Cu1 S0 2.419134 1_555
O0 Pr0 2.345093 1_554
O0 Pr0 2.345093 1_544
O0 Pr1 2.345093 1_555
O0 Pr1 2.345093 1_455
O1 Pr1 2.345093 1_565
O1 Pr0 2.345093 1_554
O1 Pr0 2.345093 1_654
O1 Pr1 2.345093 1_555
