# generated using pymatgen
data_Ba4Pr7Si12BN27
_symmetry_space_group_name_H-M   'P 1'
_cell_length_a   12.38218545
_cell_length_b   12.38218545
_cell_length_c   5.48455100
_cell_angle_alpha   90.00000000
_cell_angle_beta   90.00000000
_cell_angle_gamma   119.99999708
_symmetry_Int_Tables_number   1
_chemical_formula_structural   Ba4Pr7Si12BN27
_chemical_formula_sum   'Ba4 Pr7 Si12 B1 N27'
_cell_volume   728.22625469
_cell_formula_units_Z   1
loop_
 _symmetry_equiv_pos_site_id
 _symmetry_equiv_pos_as_xyz
  1  'x, y, z'
loop_
 _atom_site_type_symbol
 _atom_site_label
 _atom_site_symmetry_multiplicity
 _atom_site_fract_x
 _atom_site_fract_y
 _atom_site_fract_z
 _atom_site_occupancy
  Ba  Ba0  1  0.92043300  0.48872700  0.50000000  1
  Ba  Ba1  1  0.51127300  0.43170600  0.50000000  1
  Ba  Ba2  1  0.33333300  0.66666700  0.50000000  1
  Ba  Ba3  1  0.56829400  0.07956700  0.50000000  1
  Pr  Pr0  1  0.77928600  0.02384400  0.00000000  1
  Pr  Pr1  1  0.67659300  0.70523900  0.00000000  1
  Pr  Pr2  1  0.02864600  0.32340700  0.00000000  1
  Pr  Pr3  1  0.00000000  0.00000000  0.50000000  1
  Pr  Pr4  1  0.97615600  0.75544200  0.00000000  1
  Pr  Pr5  1  0.24455800  0.22071400  0.00000000  1
  Pr  Pr6  1  0.29476100  0.97135400  0.00000000  1
  Si  Si0  1  0.49280400  0.79504000  0.00000000  1
  Si  Si1  1  0.75804000  0.26419000  0.00000000  1
  Si  Si2  1  0.67837400  0.87065600  0.50000000  1
  Si  Si3  1  0.87470100  0.18617600  0.50000000  1
  Si  Si4  1  0.81382400  0.68852400  0.50000000  1
  Si  Si5  1  0.73581000  0.49385100  0.00000000  1
  Si  Si6  1  0.19228200  0.32162600  0.50000000  1
  Si  Si7  1  0.30223500  0.50719600  0.00000000  1
  Si  Si8  1  0.12934400  0.80771800  0.50000000  1
  Si  Si9  1  0.31147600  0.12529900  0.50000000  1
  Si  Si10  1  0.20496000  0.69776500  0.00000000  1
  Si  Si11  1  0.50614900  0.24196000  0.00000000  1
  B  B0  1  0.00000000  0.00000000  0.00000000  1
  N  N0  1  0.24631400  0.96374400  0.50000000  1
  N  N1  1  0.13650000  0.72923400  0.24625000  1
  N  N2  1  0.13650000  0.72923400  0.75375000  1
  N  N3  1  0.03625600  0.28257000  0.50000000  1
  N  N4  1  0.18735300  0.55152900  0.00000000  1
  N  N5  1  0.87403700  0.88939600  0.00000000  1
  N  N6  1  0.01535900  0.12596300  0.00000000  1
  N  N7  1  0.36417600  0.81264700  0.00000000  1
  N  N8  1  0.27076600  0.40726600  0.24625000  1
  N  N9  1  0.27076600  0.40726600  0.75375000  1
  N  N10  1  0.11060400  0.98464100  0.00000000  1
  N  N11  1  0.20829000  0.18575000  0.50000000  1
  N  N12  1  0.44847100  0.63582400  0.00000000  1
  N  N13  1  0.59273400  0.86350000  0.24625000  1
  N  N14  1  0.59273400  0.86350000  0.75375000  1
  N  N15  1  0.40192200  0.17991700  0.24237300  1
  N  N16  1  0.40192200  0.17991700  0.75762700  1
  N  N17  1  0.71743000  0.75368600  0.50000000  1
  N  N18  1  0.57645700  0.40145800  0.00000000  1
  N  N19  1  0.77799500  0.59807800  0.24237300  1
  N  N20  1  0.77799500  0.59807800  0.75762700  1
  N  N21  1  0.59854200  0.17499900  0.00000000  1
  N  N22  1  0.97746000  0.79171000  0.50000000  1
  N  N23  1  0.82500100  0.42354300  0.00000000  1
  N  N24  1  0.82008300  0.22200500  0.75762700  1
  N  N25  1  0.82008300  0.22200500  0.24237300  1
  N  N26  1  0.81425000  0.02254000  0.50000000  1
loop_
_geom_bond_atom_site_label_1
_geom_bond_atom_site_label_2
_geom_bond_distance
_geom_bond_site_symmetry_2
Ba0 N23 2.934977 1_556
Ba0 N23 2.934977 1_555
Ba0 N20 3.054255 1_555
Ba0 N19 3.054255 1_555
Ba0 N2 3.161600 1_655
Ba0 N1 3.161600 1_655
Ba0 N24 3.216199 1_555
Ba0 N25 3.216199 1_555
Ba1 N18 2.934977 1_555
Ba1 N18 2.934977 1_556
Ba1 N16 3.054255 1_555
Ba1 N15 3.054255 1_555
Ba1 N8 3.161600 1_555
Ba1 N9 3.161600 1_555
Ba1 N20 3.216199 1_555
Ba1 N19 3.216199 1_555
Ba2 N7 3.200446 1_555
Ba2 N7 3.200446 1_556
Ba2 N4 3.200448 1_555
Ba2 N4 3.200448 1_556
Ba2 N12 3.200453 1_556
Ba2 N12 3.200453 1_555
Ba2 N1 3.219509 1_555
Ba2 N2 3.219509 1_555
Ba2 N13 3.219517 1_555
Ba2 N14 3.219517 1_555
Ba2 N9 3.219520 1_555
Ba2 N8 3.219520 1_555
Ba3 N21 2.934977 1_555
Ba3 N21 2.934977 1_556
Ba3 N24 3.054255 1_555
Ba3 N25 3.054255 1_555
Ba3 N13 3.161600 1_545
Ba3 N14 3.161600 1_545
Ba3 N16 3.216199 1_555
Ba3 N15 3.216199 1_555
B0 N10 1.473840 1_545
B0 N6 1.473840 1_555
B0 N5 1.473840 1_445
N0 Si8 1.741260 1_555
N0 Si9 1.743157 1_565
N0 Pr6 2.798622 1_556
N0 Pr6 2.798622 1_555
N1 Si8 1.724878 1_555
N1 Si10 1.739180 1_555
N1 Pr4 2.552546 1_455
N2 Si8 1.724878 1_555
N2 Si10 1.739180 1_556
N2 Pr4 2.552546 1_456
N3 Si6 1.741260 1_555
N3 Si3 1.743159 1_455
N3 Pr2 2.798622 1_556
N3 Pr2 2.798622 1_555
N4 Si10 1.712157 1_555
N4 Si7 1.762292 1_555
N4 Pr2 2.507905 1_555
N5 Pr1 2.366820 1_555
N5 Pr0 2.470024 1_565
N5 Pr4 2.539139 1_555
N6 Pr2 2.366820 1_555
N6 Pr5 2.470024 1_555
N6 Pr0 2.539140 1_455
N7 Si0 1.712144 1_555
N7 Si10 1.762301 1_555
N7 Pr6 2.507905 1_555
N8 Si6 1.724878 1_555
N8 Si7 1.739187 1_555
N8 Pr5 2.552546 1_555
N9 Si6 1.724878 1_555
N9 Si7 1.739187 1_556
N9 Pr5 2.552546 1_556
N10 Pr6 2.366820 1_555
N10 Pr4 2.470024 1_455
N10 Pr5 2.539140 1_565
N11 Si9 1.774561 1_555
N11 Si6 1.789800 1_555
N11 Pr3 2.451483 1_555
N11 Pr5 2.777545 1_556
N11 Pr5 2.777545 1_555
N12 Si7 1.712152 1_555
N12 Si0 1.762304 1_555
N12 Pr1 2.507905 1_555
N13 Si2 1.724878 1_555
N13 Si0 1.739185 1_555
N13 Pr0 2.552546 1_565
N14 Si2 1.724878 1_555
N14 Si0 1.739185 1_556
N14 Pr0 2.552546 1_566
N15 Si9 1.717753 1_555
N15 Si11 1.741071 1_555
N15 Pr6 2.601956 1_545
N15 Pr5 2.608301 1_555
N16 Si9 1.717753 1_555
N16 Si11 1.741071 1_556
N16 Pr6 2.601956 1_546
N16 Pr5 2.608301 1_556
N17 Si2 1.741260 1_555
N17 Si4 1.743169 1_555
N17 Pr1 2.798622 1_555
N17 Pr1 2.798622 1_556
N18 Si11 1.714333 1_555
N18 Si5 1.716027 1_555
N19 Si4 1.717753 1_555
N19 Si5 1.741070 1_555
N19 Pr1 2.601956 1_555
N19 Pr4 2.608301 1_555
N20 Si4 1.717753 1_555
N20 Si5 1.741070 1_556
N20 Pr1 2.601956 1_556
N20 Pr4 2.608301 1_556
N21 Si1 1.714334 1_555
N21 Si11 1.716037 1_555
N22 Si4 1.774551 1_555
N22 Si8 1.789800 1_655
N22 Pr3 2.451483 1_665
N22 Pr4 2.777545 1_556
N22 Pr4 2.777545 1_555
N23 Si5 1.714344 1_555
N23 Si1 1.716026 1_555
N24 Si3 1.717759 1_555
N24 Si1 1.741078 1_556
N24 Pr2 2.601956 1_656
N24 Pr0 2.608301 1_556
N25 Si3 1.717759 1_555
N25 Si1 1.741078 1_555
N25 Pr2 2.601956 1_655
N25 Pr0 2.608301 1_555
N26 Si3 1.774549 1_555
N26 Si2 1.789800 1_545
N26 Pr3 2.451483 1_655
N26 Pr0 2.777545 1_555
N26 Pr0 2.777545 1_556
