# generated using pymatgen
data_Sr(H8O5)2
_symmetry_space_group_name_H-M   'P 1'
_cell_length_a   6.13981200
_cell_length_b   6.50723370
_cell_length_c   11.48721340
_cell_angle_alpha   89.01822636
_cell_angle_beta   88.11495960
_cell_angle_gamma   89.35158183
_symmetry_Int_Tables_number   1
_chemical_formula_structural   Sr(H8O5)2
_chemical_formula_sum   'Sr2 H32 O20'
_cell_volume   458.60857848
_cell_formula_units_Z   2
loop_
 _symmetry_equiv_pos_site_id
 _symmetry_equiv_pos_as_xyz
  1  'x, y, z'
loop_
 _atom_site_type_symbol
 _atom_site_label
 _atom_site_symmetry_multiplicity
 _atom_site_fract_x
 _atom_site_fract_y
 _atom_site_fract_z
 _atom_site_occupancy
  Sr  Sr0  1  0.96801600  0.99379700  0.49860400  1
  Sr  Sr1  1  0.00526200  0.01785400  0.99748400  1
  H  H0  1  0.05579800  0.69206000  0.71077200  1
  H  H1  1  0.24412300  0.63069000  0.61120600  1
  H  H2  1  0.91386100  0.37845200  0.65772100  1
  H  H3  1  0.67633900  0.37659800  0.60516500  1
  H  H4  1  0.69708300  0.81333500  0.71042400  1
  H  H5  1  0.57658500  0.71941700  0.60488800  1
  H  H6  1  0.38621100  0.06691700  0.63871100  1
  H  H7  1  0.34892900  0.30168500  0.59678700  1
  H  H8  1  0.96515100  0.68336800  0.20793100  1
  H  H9  1  0.75018800  0.64305900  0.12720900  1
  H  H10  1  0.08307800  0.38817200  0.17038800  1
  H  H11  1  0.29940000  0.39706700  0.09147100  1
  H  H12  1  0.40052900  0.74455400  0.11138800  1
  H  H13  1  0.28651000  0.86703700  0.21587100  1
  H  H14  1  0.56581400  0.07392000  0.14358200  1
  H  H15  1  0.63225500  0.30548200  0.11203100  1
  H  H16  1  0.78936900  0.25073900  0.28504600  1
  H  H17  1  0.69676700  0.38268100  0.39215500  1
  H  H18  1  0.26147900  0.58834100  0.38173500  1
  H  H19  1  0.01873800  0.51946100  0.36441700  1
  H  H20  1  0.35364700  0.22548800  0.37000900  1
  H  H21  1  0.44778900  0.99904100  0.37177300  1
  H  H22  1  0.71827300  0.83149000  0.28945800  1
  H  H23  1  0.60090600  0.70767400  0.39788400  1
  H  H24  1  0.18461300  0.24671500  0.76645200  1
  H  H25  1  0.07035200  0.42144300  0.84600400  1
  H  H26  1  0.75385000  0.58332100  0.92675100  1
  H  H27  1  0.09395800  0.71191400  0.86842000  1
  H  H28  1  0.71224500  0.17197100  0.77932800  1
  H  H29  1  0.60944200  0.26934000  0.89181500  1
  H  H30  1  0.43822700  0.72835800  0.90255800  1
  H  H31  1  0.45395700  0.96330300  0.86662100  1
  O  O0  1  0.47852600  0.50406700  0.56124100  1
  O  O1  1  0.55307300  0.52496800  0.07210200  1
  O  O2  1  0.49209200  0.50774600  0.43124900  1
  O  O3  1  0.59673800  0.52530700  0.94427800  1
  O  O4  1  0.09863800  0.69764900  0.62557200  1
  O  O5  1  0.79951900  0.28375700  0.63748000  1
  O  O6  1  0.63677500  0.85294400  0.63549100  1
  O  O7  1  0.27117800  0.17187200  0.62797100  1
  O  O8  1  0.85879800  0.74735800  0.15583900  1
  O  O9  1  0.16133000  0.31962700  0.10732900  1
  O  O10  1  0.33316200  0.87985400  0.13398200  1
  O  O11  1  0.69330800  0.16644500  0.13898800  1
  O  O12  1  0.83399300  0.30462500  0.36079500  1
  O  O13  1  0.11633300  0.63952600  0.35088800  1
  O  O14  1  0.30799100  0.08140100  0.36772200  1
  O  O15  1  0.66613700  0.84979400  0.37136600  1
  O  O16  1  0.14034900  0.28224100  0.84785300  1
  O  O17  1  0.94370500  0.67555700  0.85192000  1
  O  O18  1  0.66133200  0.13499100  0.86015400  1
  O  O19  1  0.34659600  0.85101400  0.88347300  1
loop_
_geom_bond_atom_site_label_1
_geom_bond_atom_site_label_2
_geom_bond_distance
_geom_bond_site_symmetry_2
H0 O4 1.005208 1_555
H1 O4 0.999468 1_555
H1 O0 1.736272 1_555
H2 O5 0.975738 1_555
H3 O5 1.036926 1_555
H3 O0 1.555916 1_555
H4 O6 0.977585 1_555
H5 O6 1.020494 1_555
H5 O0 1.625002 1_555
H6 O7 0.986116 1_555
H7 O7 1.028238 1_555
H7 O0 1.586863 1_555
H8 O8 0.984310 1_555
H9 O8 1.022641 1_555
H9 O1 1.595009 1_555
H10 O9 0.968414 1_555
H11 O9 1.001059 1_555
H12 O10 1.003058 1_555
H13 O10 0.976729 1_555
H14 O11 0.992425 1_555
H15 O11 1.022414 1_555
H15 O1 1.569436 1_555
H16 O12 0.991710 1_555
H17 O12 1.036464 1_555
H17 O2 1.547723 1_555
H18 O13 1.020144 1_555
H18 O2 1.621524 1_555
H19 O13 0.996963 1_555
H20 O14 0.982677 1_555
H21 O14 1.008707 1_565
H22 O15 0.992522 1_555
H23 O15 1.048413 1_555
H23 O2 1.507161 1_555
H24 O16 0.995453 1_555
H25 O16 0.998395 1_555
H26 O3 1.051873 1_555
H26 O17 1.546022 1_555
H27 O17 0.980270 1_455
H27 Sr1 2.545878 1_565
H28 O18 0.996305 1_555
H29 O18 0.997518 1_555
H30 O19 0.996784 1_555
H31 O19 1.001776 1_555
O0 O2 1.492626 1_555
O4 Sr0 2.535710 1_455
O5 Sr0 2.669419 1_545
O6 Sr0 2.689102 1_555
O7 Sr0 2.702890 1_445
O8 Sr1 2.652237 1_664
O9 Sr1 2.563897 1_554
O10 Sr1 2.727018 1_564
O11 Sr1 2.655707 1_654
O12 Sr0 2.685606 1_545
O13 Sr0 3.001324 1_455
O14 Sr0 2.594928 1_445
O15 Sr0 2.591187 1_555
O16 Sr1 2.537594 1_555
O18 Sr1 2.769528 1_655
O19 Sr1 2.665076 1_565
