# generated using pymatgen
data_RbAg4I5
_symmetry_space_group_name_H-M   'P 1'
_cell_length_a   11.41788200
_cell_length_b   11.70372378
_cell_length_c   11.79739439
_cell_angle_alpha   90.26540396
_cell_angle_beta   90.10003726
_cell_angle_gamma   90.49670049
_symmetry_Int_Tables_number   1
_chemical_formula_structural   RbAg4I5
_chemical_formula_sum   'Rb4 Ag16 I20'
_cell_volume   1576.42763845
_cell_formula_units_Z   4
loop_
 _symmetry_equiv_pos_site_id
 _symmetry_equiv_pos_as_xyz
  1  'x, y, z'
loop_
 _atom_site_type_symbol
 _atom_site_label
 _atom_site_symmetry_multiplicity
 _atom_site_fract_x
 _atom_site_fract_y
 _atom_site_fract_z
 _atom_site_occupancy
  Rb  Rb0  1  0.97870600  0.00658500  0.01116400  1
  Rb  Rb1  1  0.73812000  0.49588100  0.24532300  1
  Rb  Rb2  1  0.51804200  0.75276600  0.74185400  1
  Rb  Rb3  1  0.26696100  0.24380600  0.49903300  1
  Ag  Ag0  1  0.88180300  0.27327100  0.59285100  1
  Ag  Ag1  1  0.82990800  0.89063000  0.57199600  1
  Ag  Ag2  1  0.76687100  0.86433300  0.32701400  1
  Ag  Ag3  1  0.67188200  0.13596800  0.21655800  1
  Ag  Ag4  1  0.66780100  0.09501300  0.60902000  1
  Ag  Ag5  1  0.61280100  0.32576900  0.90678300  1
  Ag  Ag6  1  0.40955000  0.91733200  0.33083400  1
  Ag  Ag7  1  0.35502000  0.58407300  0.11834200  1
  Ag  Ag8  1  0.34010000  0.21351300  0.12637200  1
  Ag  Ag9  1  0.23777600  0.28604000  0.89793700  1
  Ag  Ag10  1  0.20497500  0.80814000  0.20386200  1
  Ag  Ag11  1  0.19407000  0.57554000  0.92456300  1
  Ag  Ag12  1  0.10371200  0.75779000  0.78527500  1
  Ag  Ag13  1  0.04072700  0.40601900  0.80262400  1
  Ag  Ag14  1  0.08755300  0.67283100  0.39038800  1
  Ag  Ag15  1  0.06092900  0.58199600  0.61860100  1
  I  I0  1  0.00315000  0.43553800  0.43924700  1
  I  I1  1  0.95446000  0.74529800  0.19965800  1
  I  I2  1  0.91636500  0.60125100  0.83509400  1
  I  I3  1  0.84219500  0.09291800  0.41318100  1
  I  I4  1  0.80208000  0.25611100  0.04996400  1
  I  I5  1  0.75627400  0.95412500  0.79126700  1
  I  I6  1  0.70398000  0.69706300  0.49022900  1
  I  I7  1  0.65875500  0.33409100  0.66579800  1
  I  I8  1  0.58940900  0.91223400  0.16688100  1
  I  I9  1  0.55380600  0.55231200  0.98898800  1
  I  I10  1  0.49759000  0.29397900  0.29298200  1
  I  I11  1  0.44487400  0.99528000  0.55325900  1
  I  I12  1  0.43229900  0.15050600  0.91298300  1
  I  I13  1  0.34038000  0.66201400  0.34259700  1
  I  I14  1  0.28838100  0.50220200  0.70858500  1
  I  I15  1  0.26149800  0.81310700  0.95727500  1
  I  I16  1  0.19884800  0.04921800  0.24816800  1
  I  I17  1  0.16214000  0.41184800  0.09419800  1
  I  I18  1  0.08398100  0.84332600  0.56848100  1
  I  I19  1  0.05972900  0.18068100  0.74516800  1
loop_
_geom_bond_atom_site_label_1
_geom_bond_atom_site_label_2
_geom_bond_distance
_geom_bond_site_symmetry_2
Ag0 I7 2.786856 1_555
Ag0 I19 2.928124 1_655
Ag0 I0 2.967356 1_655
Ag0 I3 3.015215 1_555
Ag1 I5 2.819819 1_555
Ag1 I6 2.837006 1_555
Ag1 I18 2.958368 1_655
Ag1 I3 3.028447 1_565
Ag2 I8 2.829307 1_555
Ag2 I6 2.840974 1_555
Ag2 I1 2.971443 1_555
Ag2 I3 2.976928 1_565
Ag3 I8 2.833365 1_545
Ag3 I4 2.837142 1_555
Ag3 I10 2.871893 1_555
Ag3 I3 3.070533 1_555
Ag4 I11 2.865234 1_545
Ag4 I7 2.876910 1_555
Ag4 I5 2.901065 1_545
Ag4 I3 3.052836 1_555
Ag5 I4 2.866899 1_556
Ag5 I7 2.893839 1_555
Ag5 I12 2.896382 1_555
Ag5 I9 2.904063 1_555
Ag6 I11 2.801471 1_555
Ag6 I8 2.824357 1_555
Ag6 I16 3.031755 1_565
Ag6 I13 3.087957 1_555
Ag7 I9 2.764064 1_554
Ag7 I13 2.800216 1_555
Ag7 I17 2.984902 1_555
Ag7 I15 3.467849 1_554
Ag8 I10 2.815141 1_555
Ag8 I12 2.827541 1_554
Ag8 I16 2.888435 1_555
Ag8 I17 3.122224 1_555
Ag9 I12 2.746460 1_555
Ag9 I17 2.876145 1_556
Ag9 I19 2.970629 1_555
Ag9 I14 3.428688 1_555
Ag10 I13 2.838458 1_555
Ag10 I16 2.868608 1_565
Ag10 I1 2.947490 1_455
Ag10 I15 2.981632 1_554
Ag11 I17 2.798962 1_556
Ag11 I14 2.897210 1_555
Ag11 I15 2.902463 1_555
Ag11 I2 3.356549 1_455
Ag12 I18 2.760415 1_555
Ag12 I15 2.781572 1_555
Ag12 I2 2.867782 1_455
Ag12 Ag15 2.877473 1_555
Ag12 Rb0 4.198939 1_466
Ag13 I2 2.726536 1_455
Ag13 I19 2.730516 1_555
Ag13 Ag15 3.007199 1_555
Ag13 I14 3.234368 1_555
Ag14 I1 2.849517 1_455
Ag14 I18 2.891470 1_555
Ag14 Ag15 2.914611 1_555
Ag14 I13 2.945944 1_555
Ag14 I0 2.990693 1_555
Ag15 I0 2.791481 1_555
Ag15 I14 2.963986 1_555
Ag15 I2 3.051940 1_455
Ag15 I18 3.126798 1_555
I0 Rb3 3.838030 1_555
I0 Rb1 3.862358 1_455
I1 Rb0 3.797851 1_565
I1 Rb1 3.848016 1_555
I4 Rb0 3.591403 1_555
I4 Rb1 3.701533 1_555
I5 Rb2 3.628111 1_555
I5 Rb0 3.673172 1_566
I6 Rb2 3.711119 1_555
I6 Rb1 3.741736 1_555
I9 Rb1 3.745729 1_556
I9 Rb2 3.774509 1_555
I10 Rb3 3.632758 1_555
I10 Rb1 3.653424 1_555
I11 Rb3 3.620960 1_565
I11 Rb2 3.714487 1_555
I14 Rb3 3.902946 1_555
I14 Rb2 3.934763 1_555
I15 Rb2 3.947514 1_555
I15 Rb0 4.009744 1_466
I16 Rb0 3.784904 1_455
I16 Rb3 3.801206 1_555
I19 Rb3 3.819663 1_555
I19 Rb0 3.858969 1_456
