# generated using pymatgen
data_KLi3Si12(SnO15)2
_symmetry_space_group_name_H-M   'P 1'
_cell_length_a   10.15712141
_cell_length_b   10.15712141
_cell_length_c   14.51307200
_cell_angle_alpha   90.00000000
_cell_angle_beta   90.00000000
_cell_angle_gamma   119.99999616
_symmetry_Int_Tables_number   1
_chemical_formula_structural   KLi3Si12(SnO15)2
_chemical_formula_sum   'K2 Li6 Si24 Sn4 O60'
_cell_volume   1296.67544193
_cell_formula_units_Z   2
loop_
 _symmetry_equiv_pos_site_id
 _symmetry_equiv_pos_as_xyz
  1  'x, y, z'
loop_
 _atom_site_type_symbol
 _atom_site_label
 _atom_site_symmetry_multiplicity
 _atom_site_fract_x
 _atom_site_fract_y
 _atom_site_fract_z
 _atom_site_occupancy
  K  K0  1  0.00000000  0.00000000  0.25000000  1
  K  K1  1  0.00000000  0.00000000  0.75000000  1
  Li  Li0  1  0.50000000  0.50000000  0.25000000  1
  Li  Li1  1  0.50000000  0.00000000  0.75000000  1
  Li  Li2  1  0.00000000  0.50000000  0.75000000  1
  Li  Li3  1  0.50000000  0.50000000  0.75000000  1
  Li  Li4  1  0.50000000  0.00000000  0.25000000  1
  Li  Li5  1  0.00000000  0.50000000  0.25000000  1
  Si  Si0  1  0.76215800  0.11828500  0.89125900  1
  Si  Si1  1  0.88171500  0.64387300  0.89125900  1
  Si  Si2  1  0.35612700  0.23784200  0.89125900  1
  Si  Si3  1  0.64387300  0.76215800  0.89125900  1
  Si  Si4  1  0.23784200  0.35612700  0.60874100  1
  Si  Si5  1  0.23784200  0.88171500  0.89125900  1
  Si  Si6  1  0.11828500  0.35612700  0.89125900  1
  Si  Si7  1  0.88171500  0.23784200  0.60874100  1
  Si  Si8  1  0.35612700  0.11828500  0.60874100  1
  Si  Si9  1  0.64387300  0.88171500  0.60874100  1
  Si  Si10  1  0.11828500  0.76215800  0.60874100  1
  Si  Si11  1  0.76215800  0.64387300  0.60874100  1
  Si  Si12  1  0.23784200  0.88171500  0.10874100  1
  Si  Si13  1  0.11828500  0.35612700  0.10874100  1
  Si  Si14  1  0.64387300  0.76215800  0.10874100  1
  Si  Si15  1  0.23784200  0.35612700  0.39125900  1
  Si  Si16  1  0.76215800  0.64387300  0.39125900  1
  Si  Si17  1  0.76215800  0.11828500  0.10874100  1
  Si  Si18  1  0.88171500  0.64387300  0.10874100  1
  Si  Si19  1  0.11828500  0.76215800  0.39125900  1
  Si  Si20  1  0.64387300  0.88171500  0.39125900  1
  Si  Si21  1  0.35612700  0.11828500  0.39125900  1
  Si  Si22  1  0.88171500  0.23784200  0.39125900  1
  Si  Si23  1  0.35612700  0.23784200  0.10874100  1
  Sn  Sn0  1  0.33333300  0.66666700  0.25000000  1
  Sn  Sn1  1  0.66666700  0.33333300  0.25000000  1
  Sn  Sn2  1  0.66666700  0.33333300  0.75000000  1
  Sn  Sn3  1  0.33333300  0.66666700  0.75000000  1
  O  O0  1  0.22224100  0.27859200  0.13270700  1
  O  O1  1  0.15781500  0.65652800  0.67271400  1
  O  O2  1  0.15781500  0.50128700  0.82728600  1
  O  O3  1  0.49871300  0.84218500  0.67271400  1
  O  O4  1  0.50128700  0.15781500  0.67271400  1
  O  O5  1  0.65652800  0.49871300  0.67271400  1
  O  O6  1  0.34347200  0.50128700  0.67271400  1
  O  O7  1  0.65652800  0.15781500  0.82728600  1
  O  O8  1  0.50128700  0.34347200  0.82728600  1
  O  O9  1  0.49871300  0.65652800  0.82728600  1
  O  O10  1  0.34347200  0.84218500  0.82728600  1
  O  O11  1  0.84218500  0.49871300  0.82728600  1
  O  O12  1  0.15781500  0.65652800  0.32728600  1
  O  O13  1  0.34347200  0.50128700  0.32728600  1
  O  O14  1  0.49871300  0.84218500  0.32728600  1
  O  O15  1  0.50128700  0.15781500  0.32728600  1
  O  O16  1  0.84218500  0.49871300  0.17271400  1
  O  O17  1  0.84218500  0.34347200  0.32728600  1
  O  O18  1  0.65652800  0.49871300  0.32728600  1
  O  O19  1  0.34347200  0.84218500  0.17271400  1
  O  O20  1  0.49871300  0.65652800  0.17271400  1
  O  O21  1  0.50128700  0.34347200  0.17271400  1
  O  O22  1  0.65652800  0.15781500  0.17271400  1
  O  O23  1  0.05635100  0.27859200  0.63270700  1
  O  O24  1  0.77775900  0.05635100  0.63270700  1
  O  O25  1  0.94364900  0.72140800  0.63270700  1
  O  O26  1  0.27859200  0.22224100  0.63270700  1
  O  O27  1  0.72140800  0.77775900  0.63270700  1
  O  O28  1  0.22224100  0.27859200  0.86729300  1
  O  O29  1  0.22224100  0.94364900  0.63270700  1
  O  O30  1  0.13329500  0.40053300  0.00000000  1
  O  O31  1  0.73276200  0.13329500  0.00000000  1
  O  O32  1  0.40053300  0.26723800  0.00000000  1
  O  O33  1  0.59946700  0.73276200  0.00000000  1
  O  O34  1  0.26723800  0.86670500  0.00000000  1
  O  O35  1  0.73276200  0.59946700  0.50000000  1
  O  O36  1  0.86670500  0.26723800  0.50000000  1
  O  O37  1  0.86670500  0.59946700  0.00000000  1
  O  O38  1  0.40053300  0.13329500  0.50000000  1
  O  O39  1  0.59946700  0.86670500  0.50000000  1
  O  O40  1  0.26723800  0.40053300  0.50000000  1
  O  O41  1  0.13329500  0.73276200  0.50000000  1
  O  O42  1  0.84218500  0.34347200  0.67271400  1
  O  O43  1  0.94364900  0.22224100  0.13270700  1
  O  O44  1  0.27859200  0.05635100  0.13270700  1
  O  O45  1  0.72140800  0.94364900  0.13270700  1
  O  O46  1  0.05635100  0.77775900  0.13270700  1
  O  O47  1  0.94364900  0.72140800  0.36729300  1
  O  O48  1  0.77775900  0.05635100  0.36729300  1
  O  O49  1  0.77775900  0.72140800  0.13270700  1
  O  O50  1  0.27859200  0.22224100  0.36729300  1
  O  O51  1  0.72140800  0.77775900  0.36729300  1
  O  O52  1  0.05635100  0.27859200  0.36729300  1
  O  O53  1  0.22224100  0.94364900  0.36729300  1
  O  O54  1  0.77775900  0.72140800  0.86729300  1
  O  O55  1  0.05635100  0.77775900  0.86729300  1
  O  O56  1  0.72140800  0.94364900  0.86729300  1
  O  O57  1  0.27859200  0.05635100  0.86729300  1
  O  O58  1  0.94364900  0.22224100  0.86729300  1
  O  O59  1  0.15781500  0.50128700  0.17271400  1
loop_
_geom_bond_atom_site_label_1
_geom_bond_atom_site_label_2
_geom_bond_distance
_geom_bond_site_symmetry_2
K0 O53 3.100469 1_545
K0 O46 3.100469 1_545
K0 O48 3.100469 1_455
K0 O43 3.100469 1_455
K0 O45 3.100469 1_445
K0 O47 3.100469 1_445
K0 O44 3.100469 1_555
K0 O52 3.100469 1_555
K0 O49 3.100470 1_445
K0 O51 3.100470 1_445
K0 O50 3.100470 1_555
K0 O0 3.100470 1_555
K1 O55 3.100469 1_545
K1 O29 3.100469 1_545
K1 O58 3.100469 1_455
K1 O24 3.100469 1_455
K1 O56 3.100469 1_445
K1 O25 3.100469 1_445
K1 O57 3.100469 1_555
K1 O23 3.100469 1_555
K1 O27 3.100470 1_445
K1 O54 3.100470 1_445
K1 O28 3.100470 1_555
K1 O26 3.100470 1_555
Li0 O20 1.951094 1_555
Li0 O18 1.951094 1_555
Li0 O13 1.951094 1_555
Li0 O21 1.951094 1_555
Li1 O4 1.951094 1_555
Li1 O3 1.951094 1_545
Li1 O7 1.951094 1_555
Li1 O10 1.951094 1_545
Li2 O2 1.951094 1_555
Li2 O11 1.951094 1_455
Li2 O1 1.951094 1_555
Li2 O42 1.951094 1_455
Li3 O5 1.951094 1_555
Li3 O9 1.951094 1_555
Li3 O8 1.951094 1_555
Li3 O6 1.951094 1_555
Li4 O15 1.951094 1_555
Li4 O14 1.951094 1_545
Li4 O22 1.951094 1_555
Li4 O19 1.951094 1_545
Li5 O59 1.951094 1_555
Li5 O16 1.951094 1_455
Li5 O12 1.951094 1_555
Li5 O17 1.951094 1_455
O0 Si13 1.639405 1_555
O0 Si23 1.644529 1_555
O1 Si10 1.614035 1_555
O1 Sn3 2.064789 1_555
O2 Si6 1.614035 1_555
O2 Sn3 2.064792 1_555
O3 Si9 1.614035 1_555
O3 Sn3 2.064792 1_555
O4 Si8 1.614035 1_555
O4 Sn2 2.064792 1_555
O5 Si11 1.614035 1_555
O5 Sn2 2.064797 1_555
O6 Si4 1.614035 1_555
O6 Sn3 2.064797 1_555
O7 Si0 1.614035 1_555
O7 Sn2 2.064789 1_555
O8 Si2 1.614035 1_555
O8 Sn2 2.064797 1_555
O9 Si3 1.614035 1_555
O9 Sn3 2.064797 1_555
O10 Si5 1.614035 1_555
O10 Sn3 2.064789 1_555
O11 Si1 1.614035 1_555
O11 Sn2 2.064792 1_555
O12 Si19 1.614035 1_555
O12 Sn0 2.064789 1_555
O13 Si15 1.614035 1_555
O13 Sn0 2.064797 1_555
O14 Si20 1.614035 1_555
O14 Sn0 2.064792 1_555
O15 Si21 1.614035 1_555
O15 Sn1 2.064792 1_555
O16 Si18 1.614035 1_555
O16 Sn1 2.064792 1_555
O17 Si22 1.614035 1_555
O17 Sn1 2.064789 1_555
O18 Si16 1.614035 1_555
O18 Sn1 2.064797 1_555
O19 Si12 1.614035 1_555
O19 Sn0 2.064789 1_555
O20 Si14 1.614035 1_555
O20 Sn0 2.064797 1_555
O21 Si23 1.614035 1_555
O21 Sn1 2.064797 1_555
O22 Si17 1.614035 1_555
O22 Sn1 2.064789 1_555
O23 Si4 1.639405 1_555
O23 Si7 1.644530 1_455
O24 Si7 1.639405 1_555
O24 Si9 1.644530 1_545
O25 Si11 1.639405 1_555
O25 Si10 1.644530 1_655
O26 Si8 1.639405 1_555
O26 Si4 1.644529 1_555
O27 Si9 1.639405 1_555
O27 Si11 1.644529 1_555
O28 Si6 1.639405 1_555
O28 Si2 1.644529 1_555
O29 Si10 1.639405 1_555
O29 Si8 1.644530 1_565
O30 Si6 1.627428 1_554
O30 Si13 1.627428 1_555
O31 Si0 1.627428 1_554
O31 Si17 1.627428 1_555
O32 Si2 1.627428 1_554
O32 Si23 1.627428 1_555
O33 Si3 1.627428 1_554
O33 Si14 1.627428 1_555
O34 Si5 1.627428 1_554
O34 Si12 1.627428 1_555
O35 Si16 1.627428 1_555
O35 Si11 1.627428 1_555
O36 Si7 1.627428 1_555
O36 Si22 1.627428 1_555
O37 Si18 1.627428 1_555
O37 Si1 1.627428 1_554
O38 Si21 1.627428 1_555
O38 Si8 1.627428 1_555
O39 Si20 1.627428 1_555
O39 Si9 1.627428 1_555
O40 Si4 1.627428 1_555
O40 Si15 1.627428 1_555
O41 Si19 1.627428 1_555
O41 Si10 1.627428 1_555
O42 Si7 1.614035 1_555
O42 Sn2 2.064789 1_555
O43 Si17 1.639405 1_555
O43 Si13 1.644530 1_655
O44 Si23 1.639405 1_555
O44 Si12 1.644530 1_545
O45 Si14 1.639405 1_555
O45 Si17 1.644530 1_565
O46 Si12 1.639405 1_555
O46 Si18 1.644530 1_455
O47 Si16 1.639405 1_555
O47 Si19 1.644530 1_655
O48 Si22 1.639405 1_555
O48 Si20 1.644530 1_545
O49 Si18 1.639405 1_555
O49 Si14 1.644529 1_555
O50 Si21 1.639405 1_555
O50 Si15 1.644529 1_555
O51 Si20 1.639405 1_555
O51 Si16 1.644529 1_555
O52 Si15 1.639405 1_555
O52 Si22 1.644530 1_455
O53 Si19 1.639405 1_555
O53 Si21 1.644530 1_565
O54 Si1 1.639405 1_555
O54 Si3 1.644529 1_555
O55 Si5 1.639405 1_555
O55 Si1 1.644530 1_455
O56 Si3 1.639405 1_555
O56 Si0 1.644530 1_565
O57 Si2 1.639405 1_555
O57 Si5 1.644530 1_545
O58 Si0 1.639405 1_555
O58 Si6 1.644530 1_655
O59 Si13 1.614035 1_555
O59 Sn0 2.064792 1_555
