# generated using pymatgen
data_Eu3Sb4S9
_symmetry_space_group_name_H-M   'P 1'
_cell_length_a   4.02217900
_cell_length_b   16.47576400
_cell_length_c   23.75153900
_cell_angle_alpha   90.00000000
_cell_angle_beta   90.00000000
_cell_angle_gamma   90.00000000
_symmetry_Int_Tables_number   1
_chemical_formula_structural   Eu3Sb4S9
_chemical_formula_sum   'Eu12 Sb16 S36'
_cell_volume   1573.97819646
_cell_formula_units_Z   4
loop_
 _symmetry_equiv_pos_site_id
 _symmetry_equiv_pos_as_xyz
  1  'x, y, z'
loop_
 _atom_site_type_symbol
 _atom_site_label
 _atom_site_symmetry_multiplicity
 _atom_site_fract_x
 _atom_site_fract_y
 _atom_site_fract_z
 _atom_site_occupancy
  Eu  Eu0  1  0.25000000  0.82243300  0.17780700  1
  Eu  Eu1  1  0.75000000  0.17756700  0.82219300  1
  Eu  Eu2  1  0.75000000  0.44727400  0.76646900  1
  Eu  Eu3  1  0.25000000  0.62290500  0.05369000  1
  Eu  Eu4  1  0.75000000  0.37709500  0.94631000  1
  Eu  Eu5  1  0.25000000  0.32243300  0.32219300  1
  Eu  Eu6  1  0.25000000  0.12290500  0.44631000  1
  Eu  Eu7  1  0.75000000  0.67756700  0.67780700  1
  Eu  Eu8  1  0.25000000  0.55272600  0.23353100  1
  Eu  Eu9  1  0.25000000  0.05272600  0.26646900  1
  Eu  Eu10  1  0.75000000  0.94727400  0.73353100  1
  Eu  Eu11  1  0.75000000  0.87709500  0.55369000  1
  Sb  Sb0  1  0.25000000  0.97294900  0.89562500  1
  Sb  Sb1  1  0.75000000  0.52705100  0.39562500  1
  Sb  Sb2  1  0.25000000  0.09063500  0.60711300  1
  Sb  Sb3  1  0.75000000  0.83444300  0.00598200  1
  Sb  Sb4  1  0.75000000  0.40936500  0.10711300  1
  Sb  Sb5  1  0.75000000  0.24136800  0.17426900  1
  Sb  Sb6  1  0.25000000  0.16555700  0.99401800  1
  Sb  Sb7  1  0.25000000  0.59063500  0.89288700  1
  Sb  Sb8  1  0.75000000  0.90936500  0.39288700  1
  Sb  Sb9  1  0.25000000  0.47294900  0.60437500  1
  Sb  Sb10  1  0.25000000  0.75863200  0.82573100  1
  Sb  Sb11  1  0.25000000  0.66555700  0.50598200  1
  Sb  Sb12  1  0.25000000  0.25863200  0.67426900  1
  Sb  Sb13  1  0.75000000  0.74136800  0.32573100  1
  Sb  Sb14  1  0.75000000  0.33444300  0.49401800  1
  Sb  Sb15  1  0.75000000  0.02705100  0.10437500  1
  S  S0  1  0.75000000  0.06095000  0.93313900  1
  S  S1  1  0.75000000  0.95731600  0.19693900  1
  S  S2  1  0.25000000  0.75557500  0.96468400  1
  S  S3  1  0.25000000  0.24947400  0.90760500  1
  S  S4  1  0.25000000  0.13614500  0.15309500  1
  S  S5  1  0.75000000  0.63385200  0.80460600  1
  S  S6  1  0.25000000  0.63614500  0.34690500  1
  S  S7  1  0.25000000  0.43905000  0.43313900  1
  S  S8  1  0.25000000  0.79983700  0.72595200  1
  S  S9  1  0.25000000  0.25557500  0.53531600  1
  S  S10  1  0.75000000  0.20016300  0.27404800  1
  S  S11  1  0.25000000  0.04268400  0.80306100  1
  S  S12  1  0.25000000  0.36614800  0.19539400  1
  S  S13  1  0.75000000  0.86385500  0.84690500  1
  S  S14  1  0.75000000  0.55308500  0.13730600  1
  S  S15  1  0.75000000  0.70016300  0.22595200  1
  S  S16  1  0.75000000  0.24442500  0.03531600  1
  S  S17  1  0.25000000  0.74947400  0.59239500  1
  S  S18  1  0.25000000  0.93905000  0.06686100  1
  S  S19  1  0.75000000  0.25052600  0.40760600  1
  S  S20  1  0.75000000  0.56095000  0.56686100  1
  S  S21  1  0.75000000  0.36385500  0.65309500  1
  S  S22  1  0.25000000  0.94691500  0.63730600  1
  S  S23  1  0.75000000  0.75052600  0.09239500  1
  S  S24  1  0.75000000  0.13385200  0.69539400  1
  S  S25  1  0.75000000  0.56096400  0.96479600  1
  S  S26  1  0.25000000  0.54268400  0.69693900  1
  S  S27  1  0.75000000  0.06096400  0.53520400  1
  S  S28  1  0.25000000  0.86614800  0.30460600  1
  S  S29  1  0.25000000  0.93903600  0.46479600  1
  S  S30  1  0.25000000  0.43903600  0.03520400  1
  S  S31  1  0.25000000  0.29983700  0.77404800  1
  S  S32  1  0.25000000  0.44691500  0.86269400  1
  S  S33  1  0.75000000  0.45731600  0.30306100  1
  S  S34  1  0.75000000  0.74442500  0.46468400  1
  S  S35  1  0.75000000  0.05308500  0.36269400  1
loop_
_geom_bond_atom_site_label_1
_geom_bond_atom_site_label_2
_geom_bond_distance
_geom_bond_site_symmetry_2
Eu0 S1 3.031434 1_555
Eu0 S1 3.031434 1_455
Eu0 S15 3.067620 1_555
Eu0 S15 3.067620 1_455
Eu0 S23 3.092497 1_455
Eu0 S23 3.092497 1_555
Eu0 S28 3.096596 1_555
Eu0 S18 3.261220 1_555
Eu1 S11 3.031434 1_555
Eu1 S11 3.031434 1_655
Eu1 S31 3.067620 1_555
Eu1 S31 3.067620 1_655
Eu1 S3 3.092497 1_655
Eu1 S3 3.092497 1_555
Eu1 S24 3.096596 1_555
Eu1 S0 3.261220 1_555
Eu2 S21 3.023270 1_555
Eu2 S26 3.040195 1_555
Eu2 S26 3.040195 1_655
Eu2 S32 3.044337 1_555
Eu2 S32 3.044337 1_655
Eu2 S31 3.158733 1_555
Eu2 S31 3.158733 1_655
Eu2 S5 3.204694 1_555
Eu3 S2 3.040891 1_554
Eu3 S23 3.051352 1_455
Eu3 S23 3.051352 1_555
Eu3 S14 3.051555 1_455
Eu3 S14 3.051555 1_555
Eu3 S30 3.061036 1_555
Eu3 S25 3.089310 1_454
Eu3 S25 3.089310 1_554
Eu4 S16 3.040891 1_556
Eu4 S3 3.051352 1_555
Eu4 S3 3.051352 1_655
Eu4 S32 3.051555 1_655
Eu4 S32 3.051555 1_555
Eu4 S25 3.061036 1_555
Eu4 S30 3.089310 1_656
Eu4 S30 3.089310 1_556
Eu5 S33 3.031434 1_555
Eu5 S33 3.031434 1_455
Eu5 S10 3.067620 1_555
Eu5 S10 3.067620 1_455
Eu5 S19 3.092512 1_555
Eu5 S19 3.092512 1_455
Eu5 S12 3.096596 1_555
Eu5 S7 3.261220 1_555
Eu6 S9 3.040891 1_555
Eu6 S19 3.051345 1_555
Eu6 S19 3.051345 1_455
Eu6 S35 3.051555 1_455
Eu6 S35 3.051555 1_555
Eu6 S29 3.061036 1_545
Eu6 S27 3.089310 1_455
Eu6 S27 3.089310 1_555
Eu7 S26 3.031434 1_555
Eu7 S26 3.031434 1_655
Eu7 S8 3.067620 1_655
Eu7 S8 3.067620 1_555
Eu7 S17 3.092497 1_655
Eu7 S17 3.092497 1_555
Eu7 S5 3.096596 1_555
Eu7 S20 3.261220 1_555
Eu8 S6 3.023270 1_555
Eu8 S33 3.040195 1_555
Eu8 S33 3.040195 1_455
Eu8 S14 3.044337 1_455
Eu8 S14 3.044337 1_555
Eu8 S15 3.158733 1_455
Eu8 S15 3.158733 1_555
Eu8 S12 3.204694 1_555
Eu9 S4 3.023270 1_555
Eu9 S1 3.040195 1_545
Eu9 S1 3.040195 1_445
Eu9 S35 3.044337 1_555
Eu9 S35 3.044337 1_455
Eu9 S10 3.158733 1_455
Eu9 S10 3.158733 1_555
Eu9 S28 3.204694 1_545
Eu10 S13 3.023270 1_555
Eu10 S11 3.040195 1_665
Eu10 S11 3.040195 1_565
Eu10 S22 3.044337 1_555
Eu10 S22 3.044337 1_655
Eu10 S8 3.158733 1_655
Eu10 S8 3.158733 1_555
Eu10 S24 3.204694 1_565
Eu11 S34 3.040891 1_555
Eu11 S17 3.051352 1_655
Eu11 S17 3.051352 1_555
Eu11 S22 3.051555 1_555
Eu11 S22 3.051555 1_655
Eu11 S27 3.061036 1_565
Eu11 S29 3.089310 1_555
Eu11 S29 3.089310 1_655
S0 Sb0 2.634493 1_545
S0 Sb0 2.634493 1_645
S0 Sb6 3.017564 1_655
S0 Sb6 3.017564 1_555
S1 Sb15 2.480650 1_565
S2 Sb3 2.587488 1_556
S2 Sb3 2.587488 1_456
S3 Sb6 2.474690 1_555
S4 Sb5 2.702383 1_455
S4 Sb5 2.702383 1_555
S4 Sb15 2.934997 1_455
S4 Sb15 2.934997 1_555
S5 Sb10 2.919373 1_555
S5 Sb10 2.919373 1_655
S5 Sb7 2.991335 1_655
S5 Sb7 2.991335 1_555
S6 Sb13 2.702383 1_455
S6 Sb13 2.702383 1_555
S6 Sb1 2.934997 1_455
S6 Sb1 2.934997 1_555
S7 Sb1 2.634493 1_455
S7 Sb1 2.634493 1_555
S7 Sb14 3.017564 1_455
S7 Sb14 3.017564 1_555
S8 Sb10 2.465225 1_555
S9 Sb14 2.587488 1_555
S9 Sb14 2.587488 1_455
S10 Sb5 2.465225 1_555
S11 Sb0 2.480650 1_545
S12 Sb5 2.919373 1_455
S12 Sb5 2.919373 1_555
S12 Sb4 2.991335 1_455
S12 Sb4 2.991335 1_555
S13 Sb10 2.702383 1_555
S13 Sb10 2.702383 1_655
S13 Sb0 2.934997 1_655
S13 Sb0 2.934997 1_555
S14 Sb4 2.474108 1_555
S15 Sb13 2.465225 1_555
S16 Sb6 2.587488 1_554
S16 Sb6 2.587488 1_654
S17 Sb11 2.474690 1_555
S18 Sb15 2.634493 1_565
S18 Sb15 2.634493 1_465
S18 Sb3 3.017564 1_455
S18 Sb3 3.017564 1_555
S19 Sb14 2.474670 1_555
S20 Sb9 2.634493 1_555
S20 Sb9 2.634493 1_655
S20 Sb11 3.017564 1_655
S20 Sb11 3.017564 1_555
S21 Sb12 2.702383 1_555
S21 Sb12 2.702383 1_655
S21 Sb9 2.934997 1_555
S21 Sb9 2.934997 1_655
S22 Sb2 2.474108 1_565
S23 Sb3 2.474690 1_555
S24 Sb12 2.919373 1_555
S24 Sb12 2.919373 1_655
S24 Sb2 2.991335 1_555
S24 Sb2 2.991335 1_655
S25 Sb7 2.683384 1_555
S25 Sb7 2.683384 1_655
S26 Sb9 2.480650 1_555
S27 Sb2 2.683384 1_655
S27 Sb2 2.683384 1_555
S28 Sb13 2.919373 1_455
S28 Sb13 2.919373 1_555
S28 Sb8 2.991335 1_555
S28 Sb8 2.991335 1_455
S29 Sb8 2.683384 1_455
S29 Sb8 2.683384 1_555
S30 Sb4 2.683384 1_455
S30 Sb4 2.683384 1_555
S31 Sb12 2.465225 1_555
S32 Sb7 2.474108 1_555
S33 Sb1 2.480650 1_555
S34 Sb11 2.587488 1_655
S34 Sb11 2.587488 1_555
S35 Sb8 2.474108 1_545
