# generated using pymatgen
data_MnCO3
_symmetry_space_group_name_H-M   'P 1'
_cell_length_a   4.94286777
_cell_length_b   4.94286777
_cell_length_c   5.62169204
_cell_angle_alpha   72.80355151
_cell_angle_beta   72.80355151
_cell_angle_gamma   60.26117942
_symmetry_Int_Tables_number   1
_chemical_formula_structural   MnCO3
_chemical_formula_sum   'Mn2 C2 O6'
_cell_volume   112.07515008
_cell_formula_units_Z   2
loop_
 _symmetry_equiv_pos_site_id
 _symmetry_equiv_pos_as_xyz
  1  'x, y, z'
loop_
 _atom_site_type_symbol
 _atom_site_label
 _atom_site_symmetry_multiplicity
 _atom_site_fract_x
 _atom_site_fract_y
 _atom_site_fract_z
 _atom_site_occupancy
  Mn  Mn0  1  0.07739100  0.48954700  0.99393600  1
  Mn  Mn1  1  0.48954700  0.07739100  0.49393600  1
  C  C0  1  0.78485800  0.17370700  0.87451100  1
  C  C1  1  0.17370700  0.78485800  0.37451100  1
  O  O0  1  0.95714800  0.75473000  0.31126600  1
  O  O1  1  0.37291800  0.55214400  0.50889600  1
  O  O2  1  0.18503100  0.05252500  0.30889100  1
  O  O3  1  0.75473000  0.95714800  0.81126600  1
  O  O4  1  0.55214400  0.37291800  0.00889600  1
  O  O5  1  0.05252500  0.18503100  0.80889100  1
loop_
_geom_bond_atom_site_label_1
_geom_bond_atom_site_label_2
_geom_bond_distance
_geom_bond_site_symmetry_2
Mn0 O5 2.132562 1_555
Mn0 O4 2.142908 1_556
Mn0 O3 2.201850 1_455
Mn0 O0 2.288357 1_456
Mn0 O2 2.288998 1_556
Mn1 O2 2.132562 1_555
Mn1 O1 2.142908 1_555
Mn1 O0 2.201850 1_545
Mn1 O3 2.288357 1_545
Mn1 O5 2.288998 1_555
C0 O5 1.289313 1_655
C0 O4 1.290653 1_556
C0 O3 1.307243 1_545
C1 O2 1.289313 1_565
C1 O1 1.290653 1_555
C1 O0 1.307243 1_455
