# generated using pymatgen
data_FeH4S2NO8
_symmetry_space_group_name_H-M   'P 1'
_cell_length_a   4.90997823
_cell_length_b   11.23717492
_cell_length_c   13.20772953
_cell_angle_alpha   92.53625927
_cell_angle_beta   100.80284450
_cell_angle_gamma   77.38453354
_symmetry_Int_Tables_number   1
_chemical_formula_structural   FeH4S2NO8
_chemical_formula_sum   'Fe4 H16 S8 N4 O32'
_cell_volume   698.52704650
_cell_formula_units_Z   4
loop_
 _symmetry_equiv_pos_site_id
 _symmetry_equiv_pos_as_xyz
  1  'x, y, z'
loop_
 _atom_site_type_symbol
 _atom_site_label
 _atom_site_symmetry_multiplicity
 _atom_site_fract_x
 _atom_site_fract_y
 _atom_site_fract_z
 _atom_site_occupancy
  Fe  Fe0  1  0.25040200  0.24824400  0.74887100  1
  Fe  Fe1  1  0.00019300  0.99820000  0.99849200  1
  Fe  Fe2  1  0.49998100  0.49820000  0.49858100  1
  Fe  Fe3  1  0.75025800  0.74822700  0.24887100  1
  H  H0  1  0.61474500  0.69801500  0.92732700  1
  H  H1  1  0.86456800  0.94798400  0.67732400  1
  H  H2  1  0.36457900  0.44796200  0.17731800  1
  H  H3  1  0.11473700  0.19803200  0.42730700  1
  H  H4  1  0.77264800  0.63198300  0.83087100  1
  H  H5  1  0.02247500  0.88214200  0.58078900  1
  H  H6  1  0.52248900  0.38211200  0.08078000  1
  H  H7  1  0.27268400  0.13195600  0.33086700  1
  H  H8  1  0.42589000  0.63223600  0.83054100  1
  H  H9  1  0.67569400  0.88232800  0.58047800  1
  H  H10  1  0.17570200  0.38229900  0.08047200  1
  H  H11  1  0.92590300  0.13220500  0.33053400  1
  H  H12  1  0.68551400  0.54552200  0.91734000  1
  H  H13  1  0.93545100  0.79555500  0.66718100  1
  H  H14  1  0.43545400  0.29553900  0.16717200  1
  H  H15  1  0.18551600  0.04553900  0.41735200  1
  S  S0  1  0.68308700  0.21334600  0.58093700  1
  S  S1  1  0.93290600  0.46317700  0.33060400  1
  S  S2  1  0.43294000  0.96316500  0.83059300  1
  S  S3  1  0.18285900  0.71333200  0.08093700  1
  S  S4  1  0.56784700  0.03354500  0.16703200  1
  S  S5  1  0.81747900  0.28400100  0.91712300  1
  S  S6  1  0.31741900  0.78402500  0.41712600  1
  S  S7  1  0.06750200  0.53384200  0.66699400  1
  N  N0  1  0.62473700  0.62643800  0.87616200  1
  N  N1  1  0.87459500  0.87649500  0.62606100  1
  N  N2  1  0.37460400  0.37647000  0.12605500  1
  N  N3  1  0.12474200  0.12644100  0.37615600  1
  O  O0  1  0.69680000  0.11176100  0.50869100  1
  O  O1  1  0.94871100  0.36154100  0.25838300  1
  O  O2  1  0.44870400  0.86154500  0.75837200  1
  O  O3  1  0.19671000  0.61174600  0.00869800  1
  O  O4  1  0.55267400  0.13690000  0.24071700  1
  O  O5  1  0.80203200  0.38766500  0.99052800  1
  O  O6  1  0.30201400  0.88768400  0.49053300  1
  O  O7  1  0.05247100  0.63732200  0.74056700  1
  O  O8  1  0.71488800  0.32557800  0.53056500  1
  O  O9  1  0.96471300  0.57537200  0.28027500  1
  O  O10  1  0.46472500  0.07537000  0.78026700  1
  O  O11  1  0.21485800  0.82554000  0.03056600  1
  O  O12  1  0.91610400  0.18340800  0.67333100  1
  O  O13  1  0.16535800  0.43348400  0.42316400  1
  O  O14  1  0.66534100  0.93347200  0.92315400  1
  O  O15  1  0.41559800  0.68340800  0.17336400  1
  O  O16  1  0.40299300  0.24014800  0.61665200  1
  O  O17  1  0.65206500  0.48970400  0.36598000  1
  O  O18  1  0.15205900  0.98970400  0.86596500  1
  O  O19  1  0.90284300  0.74017400  0.11669500  1
  O  O20  1  0.84651400  0.01052100  0.13207400  1
  O  O21  1  0.09673100  0.26072900  0.88251300  1
  O  O22  1  0.59671000  0.76071200  0.38254400  1
  O  O23  1  0.34614000  0.51084000  0.63204600  1
  O  O24  1  0.33222800  0.06469900  0.07686300  1
  O  O25  1  0.58223600  0.31529300  0.82672700  1
  O  O26  1  0.08220600  0.81531000  0.32672800  1
  O  O27  1  0.83202500  0.56483200  0.57678300  1
  O  O28  1  0.53986400  0.92306800  0.21938100  1
  O  O29  1  0.78887400  0.17372000  0.96963100  1
  O  O30  1  0.28874400  0.67377200  0.46962800  1
  O  O31  1  0.03946800  0.42341800  0.71936800  1
loop_
_geom_bond_atom_site_label_1
_geom_bond_atom_site_label_2
_geom_bond_distance
_geom_bond_site_symmetry_2
Fe0 O12 2.016081 1_455
Fe0 O16 2.016392 1_555
Fe0 O10 2.016890 1_555
Fe0 O25 2.029605 1_555
Fe0 O31 2.031105 1_555
Fe0 O21 2.033636 1_555
Fe1 O11 2.016652 1_556
Fe1 O14 2.016764 1_455
Fe1 O18 2.018002 1_555
Fe1 O24 2.029476 1_566
Fe1 O20 2.033010 1_466
Fe1 O29 2.033809 1_465
Fe2 O13 2.016133 1_555
Fe2 O8 2.016427 1_555
Fe2 O17 2.019474 1_555
Fe2 O27 2.029526 1_555
Fe2 O23 2.031798 1_555
Fe2 O30 2.034374 1_555
Fe3 O19 2.015882 1_555
Fe3 O9 2.016899 1_555
Fe3 O15 2.017263 1_555
Fe3 O28 2.027144 1_555
Fe3 O26 2.030252 1_655
Fe3 O22 2.033706 1_555
H0 N0 1.026206 1_555
H1 N1 1.026291 1_555
H2 N2 1.026316 1_555
H3 N3 1.026206 1_555
H4 N0 1.036849 1_555
H5 N1 1.036820 1_455
H6 N2 1.036854 1_555
H7 N3 1.036875 1_555
H8 N0 1.037160 1_555
H9 N1 1.037127 1_555
H10 N2 1.037137 1_555
H11 N3 1.037178 1_655
H12 N0 1.037311 1_555
H13 N1 1.037146 1_555
H14 N2 1.037041 1_555
H15 N3 1.037300 1_555
O0 S0 1.453354 1_555
O1 S1 1.453586 1_555
O2 S2 1.453451 1_555
O3 S3 1.453302 1_555
O4 S4 1.480179 1_555
O5 S5 1.480438 1_555
O6 S6 1.480412 1_555
O7 S7 1.480290 1_555
O8 S0 1.502256 1_555
O9 S1 1.501617 1_555
O10 S2 1.501656 1_545
O11 S3 1.502372 1_555
O12 S0 1.502054 1_555
O13 S1 1.501737 1_455
O14 S2 1.501606 1_555
O15 S3 1.501571 1_555
O16 S0 1.501410 1_555
O17 S1 1.502743 1_555
O18 S2 1.502899 1_555
O19 S3 1.501318 1_655
O20 S4 1.491253 1_555
O21 S5 1.491665 1_455
O22 S6 1.491653 1_555
O23 S7 1.491067 1_555
O24 S4 1.490894 1_555
O25 S5 1.491985 1_555
O26 S6 1.491910 1_555
O27 S7 1.490677 1_655
O28 S4 1.491378 1_565
O29 S5 1.491650 1_555
O30 S6 1.491460 1_555
O31 S7 1.491120 1_555
