# generated using pymatgen
data_U2Zn17
_symmetry_space_group_name_H-M   'P 1'
_cell_length_a   8.99198933
_cell_length_b   8.99198933
_cell_length_c   26.34572400
_cell_angle_alpha   90.00000000
_cell_angle_beta   90.00000000
_cell_angle_gamma   119.99999509
_symmetry_Int_Tables_number   1
_chemical_formula_structural   U2Zn17
_chemical_formula_sum   'U12 Zn102'
_cell_volume   1844.81302837
_cell_formula_units_Z   6
loop_
 _symmetry_equiv_pos_site_id
 _symmetry_equiv_pos_as_xyz
  1  'x, y, z'
loop_
 _atom_site_type_symbol
 _atom_site_label
 _atom_site_symmetry_multiplicity
 _atom_site_fract_x
 _atom_site_fract_y
 _atom_site_fract_z
 _atom_site_occupancy
  U  U0  1  0.33333300  0.66666700  0.75000000  1
  U  U1  1  0.33333300  0.66666700  0.41479500  1
  U  U2  1  0.66666700  0.33333300  0.25000000  1
  U  U3  1  0.33333300  0.66666700  0.25000000  1
  U  U4  1  0.00000000  0.00000000  0.91862600  1
  U  U5  1  0.00000000  0.00000000  0.41862600  1
  U  U6  1  0.00000000  0.00000000  0.08137400  1
  U  U7  1  0.66666700  0.33333300  0.91479500  1
  U  U8  1  0.66666700  0.33333300  0.75000000  1
  U  U9  1  0.66666700  0.33333300  0.58520500  1
  U  U10  1  0.33333300  0.66666700  0.08520500  1
  U  U11  1  0.00000000  0.00000000  0.58137400  1
  Zn  Zn0  1  0.82907400  0.65814800  0.65933400  1
  Zn  Zn1  1  0.16231300  0.32462500  0.49266500  1
  Zn  Zn2  1  0.63148900  0.96498100  0.58348700  1
  Zn  Zn3  1  0.66650800  0.63148900  0.41651300  1
  Zn  Zn4  1  0.32462500  0.16231300  0.99266500  1
  Zn  Zn5  1  0.33333300  0.66666700  0.86690400  1
  Zn  Zn6  1  0.17092600  0.82907400  0.34066600  1
  Zn  Zn7  1  0.50475000  0.00949900  0.67417700  1
  Zn  Zn8  1  0.32462500  0.16231300  0.50733500  1
  Zn  Zn9  1  0.49525000  0.99050100  0.17417700  1
  Zn  Zn10  1  0.83337700  0.66675400  0.33320000  1
  Zn  Zn11  1  0.36851100  0.33349200  0.41651300  1
  Zn  Zn12  1  0.00000000  0.00000000  0.69945100  1
  Zn  Zn13  1  0.33349200  0.36851100  0.91651300  1
  Zn  Zn14  1  0.50000000  0.50000000  0.00000000  1
  Zn  Zn15  1  0.65814800  0.82907400  0.15933400  1
  Zn  Zn16  1  0.33349200  0.96498100  0.58348700  1
  Zn  Zn17  1  0.96498100  0.63148900  0.08348700  1
  Zn  Zn18  1  0.82907400  0.65814800  0.84066600  1
  Zn  Zn19  1  0.63148900  0.66650800  0.91651300  1
  Zn  Zn20  1  0.96498100  0.33349200  0.41651300  1
  Zn  Zn21  1  0.66650800  0.63148900  0.08348700  1
  Zn  Zn22  1  0.65814800  0.82907400  0.34066600  1
  Zn  Zn23  1  0.99050100  0.49525000  0.67417700  1
  Zn  Zn24  1  0.16231300  0.32462500  0.00733500  1
  Zn  Zn25  1  0.83768700  0.67537500  0.99266500  1
  Zn  Zn26  1  0.30017200  0.00412500  0.75000000  1
  Zn  Zn27  1  0.99587500  0.69982800  0.75000000  1
  Zn  Zn28  1  0.16231300  0.83768700  0.49266500  1
  Zn  Zn29  1  0.83337700  0.66675400  0.16680000  1
  Zn  Zn30  1  0.33324600  0.16662300  0.33320000  1
  Zn  Zn31  1  0.00000000  0.00000000  0.80054900  1
  Zn  Zn32  1  0.83768700  0.16231300  0.50733500  1
  Zn  Zn33  1  0.49525000  0.50475000  0.17417700  1
  Zn  Zn34  1  0.03501900  0.36851100  0.58348700  1
  Zn  Zn35  1  0.83768700  0.16231300  0.99266500  1
  Zn  Zn36  1  0.50475000  0.00949900  0.82582300  1
  Zn  Zn37  1  0.33333300  0.66666700  0.96758000  1
  Zn  Zn38  1  0.03501900  0.36851100  0.91651300  1
  Zn  Zn39  1  0.33349200  0.96498100  0.91651300  1
  Zn  Zn40  1  0.63148900  0.96498100  0.91651300  1
  Zn  Zn41  1  0.36851100  0.03501900  0.41651300  1
  Zn  Zn42  1  0.16662300  0.33324600  0.66680000  1
  Zn  Zn43  1  0.83768700  0.67537500  0.50733500  1
  Zn  Zn44  1  0.33333300  0.66666700  0.53242000  1
  Zn  Zn45  1  0.66675400  0.83337700  0.83320000  1
  Zn  Zn46  1  0.00000000  0.00000000  0.30054900  1
  Zn  Zn47  1  0.33349200  0.36851100  0.58348700  1
  Zn  Zn48  1  0.29604800  0.99587500  0.25000000  1
  Zn  Zn49  1  0.34185200  0.17092600  0.65933400  1
  Zn  Zn50  1  0.66666700  0.33333300  0.46758000  1
  Zn  Zn51  1  0.66666700  0.33333300  0.36690400  1
  Zn  Zn52  1  0.00412500  0.30017200  0.25000000  1
  Zn  Zn53  1  0.63148900  0.66650800  0.58348700  1
  Zn  Zn54  1  0.66650800  0.03501900  0.41651300  1
  Zn  Zn55  1  0.67537500  0.83768700  0.00733500  1
  Zn  Zn56  1  0.29604800  0.30017200  0.25000000  1
  Zn  Zn57  1  0.50000000  0.00000000  0.50000000  1
  Zn  Zn58  1  0.99587500  0.29604800  0.75000000  1
  Zn  Zn59  1  0.16231300  0.83768700  0.00733500  1
  Zn  Zn60  1  0.82907400  0.17092600  0.65933400  1
  Zn  Zn61  1  0.17092600  0.82907400  0.15933400  1
  Zn  Zn62  1  0.00000000  0.50000000  0.00000000  1
  Zn  Zn63  1  0.16662300  0.83337700  0.83320000  1
  Zn  Zn64  1  0.69982800  0.70395200  0.25000000  1
  Zn  Zn65  1  0.50475000  0.49525000  0.82582300  1
  Zn  Zn66  1  0.96498100  0.33349200  0.08348700  1
  Zn  Zn67  1  0.82907400  0.17092600  0.84066600  1
  Zn  Zn68  1  0.70395200  0.69982800  0.75000000  1
  Zn  Zn69  1  0.16662300  0.33324600  0.83320000  1
  Zn  Zn70  1  0.00000000  0.00000000  0.19945100  1
  Zn  Zn71  1  0.00949900  0.50475000  0.17417700  1
  Zn  Zn72  1  0.67537500  0.83768700  0.49266500  1
  Zn  Zn73  1  0.66650800  0.03501900  0.08348700  1
  Zn  Zn74  1  0.03501900  0.66650800  0.58348700  1
  Zn  Zn75  1  0.00000000  0.50000000  0.50000000  1
  Zn  Zn76  1  0.50000000  0.00000000  0.00000000  1
  Zn  Zn77  1  0.00949900  0.50475000  0.32582300  1
  Zn  Zn78  1  0.99050100  0.49525000  0.82582300  1
  Zn  Zn79  1  0.96498100  0.63148900  0.41651300  1
  Zn  Zn80  1  0.03501900  0.66650800  0.91651300  1
  Zn  Zn81  1  0.49525000  0.99050100  0.32582300  1
  Zn  Zn82  1  0.49525000  0.50475000  0.32582300  1
  Zn  Zn83  1  0.17092600  0.34185200  0.15933400  1
  Zn  Zn84  1  0.36851100  0.33349200  0.08348700  1
  Zn  Zn85  1  0.30017200  0.29604800  0.75000000  1
  Zn  Zn86  1  0.83337700  0.16662300  0.33320000  1
  Zn  Zn87  1  0.33324600  0.16662300  0.16680000  1
  Zn  Zn88  1  0.33333300  0.66666700  0.63309600  1
  Zn  Zn89  1  0.34185200  0.17092600  0.84066600  1
  Zn  Zn90  1  0.00412500  0.70395200  0.25000000  1
  Zn  Zn91  1  0.17092600  0.34185200  0.34066600  1
  Zn  Zn92  1  0.16662300  0.83337700  0.66680000  1
  Zn  Zn93  1  0.70395200  0.00412500  0.75000000  1
  Zn  Zn94  1  0.83337700  0.16662300  0.16680000  1
  Zn  Zn95  1  0.50000000  0.50000000  0.50000000  1
  Zn  Zn96  1  0.66675400  0.83337700  0.66680000  1
  Zn  Zn97  1  0.36851100  0.03501900  0.08348700  1
  Zn  Zn98  1  0.50475000  0.49525000  0.67417700  1
  Zn  Zn99  1  0.69982800  0.99587500  0.25000000  1
  Zn  Zn100  1  0.66666700  0.33333300  0.13309600  1
  Zn  Zn101  1  0.66666700  0.33333300  0.03242000  1
loop_
_geom_bond_atom_site_label_1
_geom_bond_atom_site_label_2
_geom_bond_distance
_geom_bond_site_symmetry_2
U0 Zn5 3.079921 1_555
U0 Zn88 3.079921 1_555
U0 Zn26 3.193967 1_565
U0 Zn27 3.193967 1_455
U0 Zn68 3.193967 1_555
U0 Zn85 3.193967 1_555
U0 Zn93 3.193967 1_565
U0 Zn58 3.193967 1_455
U0 Zn36 3.334355 1_565
U0 Zn7 3.334355 1_565
U0 Zn78 3.334355 1_455
U0 Zn23 3.334355 1_455
U0 Zn98 3.334368 1_555
U0 Zn65 3.334368 1_555
U0 Zn92 3.397970 1_555
U0 Zn63 3.397970 1_555
U0 Zn45 3.397976 1_555
U0 Zn96 3.397976 1_555
U0 Zn42 3.397976 1_555
U0 Zn69 3.397976 1_555
U1 Zn44 3.098916 1_555
U1 Zn41 3.166255 1_565
U1 Zn79 3.166255 1_455
U1 Zn54 3.166259 1_565
U1 Zn20 3.166259 1_455
U1 Zn11 3.166264 1_555
U1 Zn3 3.166264 1_555
U1 Zn6 3.195639 1_555
U1 Zn22 3.195646 1_555
U1 Zn91 3.195646 1_555
U1 Zn28 3.362053 1_555
U1 Zn1 3.362066 1_555
U1 Zn72 3.362066 1_555
U1 Zn57 3.431770 1_565
U1 Zn75 3.431770 1_555
U1 Zn95 3.431776 1_555
U1 Zn82 3.442950 1_555
U1 Zn77 3.442951 1_555
U1 Zn81 3.442951 1_555
U2 Zn51 3.079921 1_555
U2 Zn100 3.079921 1_555
U2 Zn52 3.193967 1_655
U2 Zn99 3.193967 1_545
U2 Zn56 3.193967 1_555
U2 Zn64 3.193967 1_555
U2 Zn90 3.193967 1_655
U2 Zn48 3.193967 1_545
U2 Zn77 3.334355 1_655
U2 Zn71 3.334355 1_655
U2 Zn81 3.334355 1_545
U2 Zn9 3.334355 1_545
U2 Zn82 3.334368 1_555
U2 Zn33 3.334368 1_555
U2 Zn94 3.397970 1_555
U2 Zn86 3.397970 1_555
U2 Zn10 3.397976 1_555
U2 Zn29 3.397976 1_555
U2 Zn30 3.397976 1_555
U2 Zn87 3.397976 1_555
U3 Zn48 3.141315 1_555
U3 Zn90 3.141315 1_555
U3 Zn99 3.141326 1_555
U3 Zn52 3.141326 1_555
U3 Zn64 3.141333 1_555
U3 Zn56 3.141333 1_555
U3 Zn82 3.217122 1_555
U3 Zn33 3.217122 1_555
U3 Zn77 3.217122 1_555
U3 Zn81 3.217122 1_555
U3 Zn71 3.217122 1_555
U3 Zn9 3.217122 1_555
U3 Zn61 3.479034 1_555
U3 Zn6 3.479034 1_555
U3 Zn15 3.479039 1_555
U3 Zn83 3.479039 1_555
U3 Zn22 3.479039 1_555
U3 Zn91 3.479039 1_555
U4 Zn31 3.110824 1_555
U4 Zn39 3.168450 1_545
U4 Zn80 3.168450 1_545
U4 Zn40 3.168450 1_445
U4 Zn38 3.168450 1_555
U4 Zn19 3.168450 1_445
U4 Zn13 3.168450 1_555
U4 Zn4 3.193026 1_555
U4 Zn25 3.193026 1_445
U4 Zn35 3.193032 1_455
U4 Zn67 3.362341 1_455
U4 Zn18 3.362341 1_445
U4 Zn89 3.362341 1_555
U4 Zn63 3.435070 1_545
U4 Zn69 3.435070 1_555
U4 Zn45 3.435070 1_445
U4 Zn24 3.442757 1_556
U4 Zn55 3.442757 1_446
U4 Zn59 3.442763 1_546
U5 Zn46 3.110824 1_555
U5 Zn20 3.168450 1_455
U5 Zn54 3.168450 1_455
U5 Zn41 3.168450 1_555
U5 Zn79 3.168450 1_445
U5 Zn11 3.168450 1_555
U5 Zn3 3.168450 1_445
U5 Zn1 3.193026 1_555
U5 Zn72 3.193026 1_445
U5 Zn28 3.193032 1_545
U5 Zn6 3.362341 1_545
U5 Zn22 3.362341 1_445
U5 Zn91 3.362341 1_555
U5 Zn86 3.435070 1_455
U5 Zn10 3.435070 1_445
U5 Zn30 3.435070 1_555
U5 Zn8 3.442757 1_555
U5 Zn43 3.442757 1_445
U5 Zn32 3.442763 1_455
U6 Zn70 3.110824 1_555
U6 Zn66 3.168450 1_455
U6 Zn73 3.168450 1_455
U6 Zn97 3.168450 1_555
U6 Zn17 3.168450 1_445
U6 Zn21 3.168450 1_445
U6 Zn84 3.168450 1_555
U6 Zn24 3.193026 1_555
U6 Zn55 3.193026 1_445
U6 Zn59 3.193032 1_545
U6 Zn61 3.362341 1_545
U6 Zn83 3.362341 1_555
U6 Zn15 3.362341 1_445
U6 Zn94 3.435070 1_455
U6 Zn87 3.435070 1_555
U6 Zn29 3.435070 1_445
U6 Zn4 3.442757 1_554
U6 Zn25 3.442757 1_444
U6 Zn35 3.442763 1_454
U7 Zn101 3.098916 1_556
U7 Zn38 3.166255 1_655
U7 Zn40 3.166255 1_545
U7 Zn80 3.166259 1_655
U7 Zn39 3.166259 1_545
U7 Zn19 3.166264 1_555
U7 Zn13 3.166264 1_555
U7 Zn67 3.195639 1_555
U7 Zn18 3.195646 1_555
U7 Zn89 3.195646 1_555
U7 Zn35 3.362053 1_555
U7 Zn25 3.362066 1_555
U7 Zn4 3.362066 1_555
U7 Zn76 3.431770 1_556
U7 Zn62 3.431770 1_656
U7 Zn14 3.431776 1_556
U7 Zn65 3.442950 1_555
U7 Zn78 3.442951 1_555
U7 Zn36 3.442951 1_555
U8 Zn58 3.141315 1_555
U8 Zn93 3.141315 1_555
U8 Zn27 3.141326 1_555
U8 Zn26 3.141326 1_555
U8 Zn85 3.141333 1_555
U8 Zn68 3.141333 1_555
U8 Zn98 3.217122 1_555
U8 Zn65 3.217122 1_555
U8 Zn78 3.217122 1_555
U8 Zn23 3.217122 1_555
U8 Zn36 3.217122 1_555
U8 Zn7 3.217122 1_555
U8 Zn60 3.479034 1_555
U8 Zn67 3.479034 1_555
U8 Zn18 3.479039 1_555
U8 Zn89 3.479039 1_555
U8 Zn49 3.479039 1_555
U8 Zn0 3.479039 1_555
U9 Zn50 3.098916 1_555
U9 Zn34 3.166255 1_655
U9 Zn2 3.166255 1_545
U9 Zn74 3.166259 1_655
U9 Zn16 3.166259 1_545
U9 Zn53 3.166264 1_555
U9 Zn47 3.166264 1_555
U9 Zn60 3.195639 1_555
U9 Zn0 3.195646 1_555
U9 Zn49 3.195646 1_555
U9 Zn32 3.362053 1_555
U9 Zn8 3.362066 1_555
U9 Zn43 3.362066 1_555
U9 Zn75 3.431770 1_655
U9 Zn57 3.431770 1_555
U9 Zn95 3.431776 1_555
U9 Zn98 3.442950 1_555
U9 Zn23 3.442951 1_555
U9 Zn7 3.442951 1_555
U10 Zn37 3.098916 1_554
U10 Zn97 3.166255 1_565
U10 Zn17 3.166255 1_455
U10 Zn73 3.166259 1_565
U10 Zn66 3.166259 1_455
U10 Zn84 3.166264 1_555
U10 Zn21 3.166264 1_555
U10 Zn61 3.195639 1_555
U10 Zn15 3.195646 1_555
U10 Zn83 3.195646 1_555
U10 Zn59 3.362053 1_555
U10 Zn55 3.362066 1_555
U10 Zn24 3.362066 1_555
U10 Zn76 3.431770 1_565
U10 Zn62 3.431770 1_555
U10 Zn14 3.431776 1_555
U10 Zn33 3.442950 1_555
U10 Zn9 3.442951 1_555
U10 Zn71 3.442951 1_555
U11 Zn12 3.110824 1_555
U11 Zn16 3.168450 1_545
U11 Zn74 3.168450 1_545
U11 Zn2 3.168450 1_445
U11 Zn34 3.168450 1_555
U11 Zn53 3.168450 1_445
U11 Zn47 3.168450 1_555
U11 Zn8 3.193026 1_555
U11 Zn43 3.193026 1_445
U11 Zn32 3.193032 1_455
U11 Zn60 3.362341 1_455
U11 Zn0 3.362341 1_445
U11 Zn49 3.362341 1_555
U11 Zn92 3.435070 1_545
U11 Zn96 3.435070 1_445
U11 Zn42 3.435070 1_555
U11 Zn1 3.442757 1_555
U11 Zn72 3.442757 1_445
U11 Zn28 3.442763 1_545
Zn0 Zn98 2.555709 1_555
Zn0 Zn23 2.555716 1_555
Zn0 Zn96 2.636580 1_555
Zn0 Zn92 2.636581 1_655
Zn0 Zn53 2.699776 1_555
Zn0 Zn74 2.699776 1_655
Zn0 Zn27 2.744750 1_555
Zn0 Zn68 2.744755 1_555
Zn0 Zn12 2.864235 1_665
Zn1 Zn8 2.557316 1_555
Zn1 Zn32 2.557331 1_455
Zn1 Zn95 2.637412 1_555
Zn1 Zn75 2.637420 1_555
Zn1 Zn11 2.705823 1_555
Zn1 Zn20 2.705829 1_455
Zn1 Zn47 2.764584 1_555
Zn1 Zn34 2.764588 1_555
Zn1 Zn44 2.862107 1_555
Zn2 Zn96 2.587270 1_555
Zn2 Zn57 2.589850 1_565
Zn2 Zn53 2.683866 1_555
Zn2 Zn60 2.699776 1_565
Zn2 Zn32 2.705826 1_565
Zn2 Zn7 2.761148 1_565
Zn2 Zn72 2.764588 1_555
Zn2 Zn88 2.983264 1_555
Zn2 Zn44 3.000292 1_555
Zn3 Zn95 2.589850 1_555
Zn3 Zn79 2.683866 1_555
Zn3 Zn72 2.705823 1_555
Zn3 Zn82 2.761152 1_555
Zn3 Zn43 2.764584 1_555
Zn3 Zn51 2.983268 1_555
Zn3 Zn50 3.000295 1_555
Zn4 Zn59 2.557331 1_546
Zn4 Zn76 2.637420 1_556
Zn4 Zn84 2.764584 1_556
Zn4 Zn97 2.764588 1_556
Zn5 Zn63 2.744077 1_555
Zn5 Zn69 2.744085 1_555
Zn5 Zn78 2.880775 1_455
Zn5 Zn65 2.880789 1_555
Zn5 Zn80 2.983260 1_555
Zn6 Zn77 2.555709 1_555
Zn6 Zn81 2.555709 1_555
Zn6 Zn79 2.699776 1_455
Zn6 Zn90 2.744752 1_555
Zn7 Zn96 2.641011 1_545
Zn7 Zn92 2.641019 1_545
Zn7 Zn93 2.699597 1_555
Zn7 Zn88 2.880775 1_545
Zn8 Zn95 2.637412 1_555
Zn9 Zn94 2.641019 1_565
Zn9 Zn99 2.699609 1_555
Zn9 Zn97 2.761148 1_565
Zn10 Zn79 2.587270 1_555
Zn10 Zn3 2.587270 1_555
Zn10 Zn64 2.600067 1_555
Zn10 Zn90 2.600072 1_655
Zn10 Zn22 2.636580 1_555
Zn10 Zn6 2.636580 1_655
Zn10 Zn77 2.641011 1_655
Zn10 Zn82 2.641019 1_555
Zn10 Zn46 2.733940 1_665
Zn10 Zn51 2.744085 1_555
Zn11 Zn30 2.587270 1_555
Zn11 Zn95 2.589850 1_555
Zn11 Zn3 2.679586 1_555
Zn11 Zn41 2.683866 1_555
Zn11 Zn91 2.699776 1_555
Zn11 Zn82 2.761152 1_555
Zn11 Zn8 2.764584 1_555
Zn11 Zn51 2.983268 1_555
Zn11 Zn50 3.000295 1_555
Zn12 Zn31 2.663500 1_555
Zn12 Zn92 2.733940 1_545
Zn12 Zn42 2.733940 1_555
Zn12 Zn96 2.733940 1_445
Zn12 Zn60 2.864235 1_455
Zn12 Zn49 2.864235 1_555
Zn12 Zn27 2.993358 1_445
Zn12 Zn26 2.993358 1_555
Zn12 Zn68 2.993362 1_445
Zn12 Zn85 2.993362 1_555
Zn12 Zn93 2.993366 1_455
Zn12 Zn58 2.993366 1_455
Zn13 Zn69 2.587270 1_555
Zn13 Zn14 2.589850 1_556
Zn13 Zn19 2.679586 1_555
Zn13 Zn38 2.683866 1_555
Zn13 Zn89 2.699776 1_555
Zn13 Zn4 2.705823 1_555
Zn13 Zn65 2.761152 1_555
Zn13 Zn24 2.764584 1_556
Zn13 Zn5 2.983268 1_555
Zn13 Zn37 3.000295 1_555
Zn14 Zn19 2.589850 1_554
Zn14 Zn84 2.589850 1_555
Zn14 Zn21 2.589850 1_555
Zn14 Zn25 2.637412 1_554
Zn14 Zn55 2.637412 1_555
Zn14 Zn24 2.637412 1_555
Zn14 Zn4 2.637412 1_554
Zn14 Zn37 2.732682 1_554
Zn15 Zn33 2.555709 1_555
Zn15 Zn9 2.555716 1_555
Zn15 Zn29 2.636580 1_555
Zn15 Zn94 2.636581 1_565
Zn15 Zn21 2.699776 1_555
Zn15 Zn73 2.699776 1_565
Zn15 Zn99 2.744750 1_555
Zn15 Zn64 2.744755 1_555
Zn15 Zn70 2.864235 1_665
Zn16 Zn92 2.587270 1_555
Zn16 Zn57 2.589850 1_565
Zn16 Zn2 2.679586 1_555
Zn16 Zn74 2.683866 1_555
Zn16 Zn49 2.699776 1_565
Zn16 Zn8 2.705829 1_565
Zn16 Zn7 2.761153 1_565
Zn16 Zn28 2.764585 1_555
Zn16 Zn88 2.983260 1_555
Zn16 Zn44 3.000287 1_555
Zn17 Zn29 2.587270 1_555
Zn17 Zn62 2.589850 1_655
Zn17 Zn66 2.679586 1_555
Zn17 Zn21 2.683866 1_555
Zn17 Zn61 2.699776 1_655
Zn17 Zn59 2.705826 1_655
Zn17 Zn71 2.761148 1_655
Zn17 Zn25 2.764588 1_554
Zn18 Zn65 2.555709 1_555
Zn18 Zn78 2.555716 1_555
Zn18 Zn45 2.636580 1_555
Zn18 Zn63 2.636581 1_655
Zn18 Zn19 2.699776 1_555
Zn18 Zn80 2.699776 1_655
Zn18 Zn27 2.744750 1_555
Zn18 Zn68 2.744755 1_555
Zn18 Zn31 2.864235 1_665
Zn19 Zn45 2.587270 1_555
Zn19 Zn40 2.683866 1_555
Zn19 Zn25 2.705823 1_555
Zn19 Zn65 2.761152 1_555
Zn19 Zn55 2.764584 1_556
Zn19 Zn5 2.983268 1_555
Zn19 Zn37 3.000295 1_555
Zn20 Zn86 2.587270 1_555
Zn20 Zn75 2.589850 1_655
Zn20 Zn79 2.679586 1_555
Zn20 Zn54 2.683866 1_555
Zn20 Zn91 2.699776 1_655
Zn20 Zn77 2.761153 1_655
Zn20 Zn32 2.764585 1_555
Zn20 Zn51 2.983260 1_555
Zn20 Zn50 3.000287 1_555
Zn21 Zn29 2.587270 1_555
Zn21 Zn84 2.679586 1_555
Zn21 Zn55 2.705823 1_555
Zn21 Zn33 2.761152 1_555
Zn21 Zn25 2.764584 1_554
Zn22 Zn82 2.555709 1_555
Zn22 Zn81 2.555716 1_555
Zn22 Zn86 2.636581 1_565
Zn22 Zn3 2.699776 1_555
Zn22 Zn54 2.699776 1_565
Zn22 Zn99 2.744750 1_555
Zn22 Zn64 2.744755 1_555
Zn22 Zn46 2.864235 1_665
Zn23 Zn60 2.555709 1_555
Zn23 Zn42 2.641011 1_655
Zn23 Zn92 2.641019 1_655
Zn23 Zn58 2.699597 1_555
Zn23 Zn27 2.699609 1_555
Zn23 Zn34 2.761148 1_655
Zn23 Zn74 2.761153 1_655
Zn23 Zn88 2.880775 1_655
Zn24 Zn4 2.557316 1_554
Zn24 Zn35 2.557331 1_454
Zn24 Zn62 2.637420 1_555
Zn24 Zn84 2.705823 1_555
Zn24 Zn66 2.705829 1_455
Zn24 Zn38 2.764588 1_554
Zn24 Zn37 2.862107 1_554
Zn25 Zn55 2.557316 1_556
Zn25 Zn59 2.557331 1_656
Zn25 Zn62 2.637420 1_656
Zn25 Zn80 2.705829 1_655
Zn26 Zn63 2.600071 1_545
Zn26 Zn92 2.600071 1_545
Zn26 Zn85 2.624969 1_555
Zn26 Zn7 2.699609 1_555
Zn26 Zn36 2.699609 1_555
Zn26 Zn27 2.736236 1_445
Zn26 Zn89 2.744750 1_555
Zn26 Zn49 2.744750 1_555
Zn26 Zn31 2.993358 1_555
Zn27 Zn63 2.600071 1_655
Zn27 Zn92 2.600071 1_655
Zn27 Zn68 2.624969 1_555
Zn27 Zn78 2.699609 1_555
Zn27 Zn31 2.993358 1_665
Zn28 Zn8 2.557331 1_565
Zn28 Zn43 2.557331 1_455
Zn28 Zn75 2.637412 1_555
Zn28 Zn57 2.637412 1_565
Zn28 Zn41 2.705826 1_565
Zn28 Zn79 2.705826 1_455
Zn28 Zn74 2.764585 1_555
Zn28 Zn44 2.862092 1_555
Zn29 Zn64 2.600067 1_555
Zn29 Zn90 2.600072 1_655
Zn29 Zn61 2.636580 1_655
Zn29 Zn71 2.641011 1_655
Zn29 Zn33 2.641019 1_555
Zn29 Zn70 2.733940 1_665
Zn30 Zn41 2.587270 1_555
Zn30 Zn56 2.600067 1_555
Zn30 Zn48 2.600072 1_545
Zn30 Zn91 2.636580 1_555
Zn30 Zn6 2.636580 1_545
Zn30 Zn81 2.641011 1_545
Zn30 Zn82 2.641019 1_555
Zn30 Zn46 2.733940 1_555
Zn30 Zn51 2.744085 1_555
Zn31 Zn63 2.733940 1_545
Zn31 Zn69 2.733940 1_555
Zn31 Zn45 2.733940 1_445
Zn31 Zn67 2.864235 1_455
Zn31 Zn89 2.864235 1_555
Zn31 Zn68 2.993362 1_445
Zn31 Zn85 2.993362 1_555
Zn31 Zn93 2.993366 1_455
Zn31 Zn58 2.993366 1_455
Zn32 Zn72 2.557331 1_545
Zn32 Zn75 2.637412 1_655
Zn32 Zn57 2.637412 1_555
Zn32 Zn34 2.705826 1_655
Zn32 Zn54 2.764585 1_555
Zn32 Zn50 2.862092 1_555
Zn33 Zn83 2.555709 1_555
Zn33 Zn87 2.641019 1_555
Zn33 Zn64 2.699603 1_555
Zn33 Zn56 2.699603 1_555
Zn33 Zn84 2.761152 1_555
Zn34 Zn42 2.587270 1_555
Zn34 Zn75 2.589850 1_555
Zn34 Zn74 2.679586 1_555
Zn34 Zn47 2.683866 1_555
Zn34 Zn60 2.699776 1_455
Zn34 Zn88 2.983264 1_555
Zn34 Zn44 3.000292 1_555
Zn35 Zn55 2.557331 1_546
Zn35 Zn62 2.637412 1_656
Zn35 Zn76 2.637412 1_556
Zn35 Zn40 2.705826 1_545
Zn35 Zn38 2.705826 1_655
Zn35 Zn66 2.764585 1_556
Zn35 Zn73 2.764585 1_556
Zn36 Zn67 2.555709 1_555
Zn36 Zn89 2.555716 1_555
Zn36 Zn45 2.641011 1_545
Zn36 Zn63 2.641019 1_545
Zn36 Zn93 2.699597 1_555
Zn36 Zn40 2.761148 1_545
Zn36 Zn39 2.761153 1_545
Zn36 Zn5 2.880775 1_545
Zn37 Zn5 2.652382 1_555
Zn37 Zn62 2.732675 1_556
Zn37 Zn76 2.732675 1_566
Zn37 Zn59 2.862092 1_556
Zn37 Zn55 2.862107 1_556
Zn37 Zn39 3.000287 1_555
Zn37 Zn80 3.000287 1_555
Zn37 Zn38 3.000292 1_555
Zn37 Zn40 3.000292 1_555
Zn38 Zn69 2.587270 1_555
Zn38 Zn62 2.589850 1_556
Zn38 Zn80 2.679586 1_555
Zn38 Zn67 2.699776 1_455
Zn38 Zn78 2.761148 1_455
Zn38 Zn5 2.983264 1_555
Zn39 Zn63 2.587270 1_555
Zn39 Zn76 2.589850 1_566
Zn39 Zn40 2.679586 1_555
Zn39 Zn80 2.683866 1_555
Zn39 Zn89 2.699776 1_565
Zn39 Zn4 2.705829 1_565
Zn39 Zn59 2.764585 1_556
Zn39 Zn5 2.983260 1_555
Zn40 Zn45 2.587270 1_555
Zn40 Zn76 2.589850 1_566
Zn40 Zn67 2.699776 1_565
Zn40 Zn55 2.764588 1_556
Zn40 Zn5 2.983264 1_555
Zn41 Zn57 2.589850 1_555
Zn41 Zn54 2.679586 1_555
Zn41 Zn6 2.699776 1_545
Zn41 Zn81 2.761148 1_545
Zn41 Zn8 2.764588 1_555
Zn41 Zn51 2.983264 1_555
Zn41 Zn50 3.000292 1_555
Zn42 Zn47 2.587270 1_555
Zn42 Zn85 2.600067 1_555
Zn42 Zn58 2.600072 1_455
Zn42 Zn49 2.636580 1_555
Zn42 Zn60 2.636580 1_455
Zn42 Zn98 2.641019 1_555
Zn42 Zn88 2.744085 1_555
Zn43 Zn72 2.557316 1_555
Zn43 Zn95 2.637412 1_555
Zn43 Zn75 2.637420 1_655
Zn43 Zn53 2.705823 1_555
Zn43 Zn74 2.705829 1_655
Zn43 Zn79 2.764588 1_555
Zn43 Zn50 2.862107 1_555
Zn44 Zn88 2.652382 1_555
Zn44 Zn57 2.732675 1_565
Zn44 Zn75 2.732675 1_555
Zn44 Zn95 2.732682 1_555
Zn44 Zn72 2.862107 1_555
Zn44 Zn74 3.000287 1_555
Zn44 Zn53 3.000295 1_555
Zn44 Zn47 3.000295 1_555
Zn45 Zn68 2.600067 1_555
Zn45 Zn93 2.600072 1_565
Zn45 Zn67 2.636580 1_565
Zn45 Zn65 2.641019 1_555
Zn45 Zn5 2.744085 1_555
Zn46 Zn70 2.663500 1_555
Zn46 Zn86 2.733940 1_455
Zn46 Zn6 2.864235 1_545
Zn46 Zn91 2.864235 1_555
Zn46 Zn99 2.993358 1_445
Zn46 Zn52 2.993358 1_555
Zn46 Zn64 2.993362 1_445
Zn46 Zn56 2.993362 1_555
Zn46 Zn90 2.993366 1_545
Zn46 Zn48 2.993366 1_545
Zn47 Zn95 2.589850 1_555
Zn47 Zn53 2.679586 1_555
Zn47 Zn49 2.699776 1_555
Zn47 Zn8 2.705823 1_555
Zn47 Zn98 2.761152 1_555
Zn47 Zn88 2.983268 1_555
Zn48 Zn87 2.600072 1_565
Zn48 Zn90 2.624969 1_555
Zn48 Zn81 2.699597 1_555
Zn48 Zn9 2.699597 1_555
Zn48 Zn56 2.736235 1_565
Zn48 Zn61 2.744752 1_555
Zn48 Zn6 2.744752 1_555
Zn48 Zn70 2.993366 1_565
Zn49 Zn98 2.555709 1_555
Zn49 Zn7 2.555716 1_555
Zn49 Zn92 2.636581 1_545
Zn49 Zn85 2.744755 1_555
Zn50 Zn51 2.652382 1_555
Zn50 Zn57 2.732675 1_555
Zn50 Zn75 2.732675 1_655
Zn50 Zn95 2.732682 1_555
Zn50 Zn8 2.862107 1_555
Zn50 Zn54 3.000287 1_555
Zn50 Zn79 3.000292 1_555
Zn51 Zn86 2.744077 1_555
Zn51 Zn77 2.880775 1_655
Zn51 Zn81 2.880775 1_545
Zn51 Zn82 2.880789 1_555
Zn51 Zn54 2.983260 1_555
Zn51 Zn79 2.983264 1_555
Zn52 Zn86 2.600071 1_455
Zn52 Zn94 2.600071 1_455
Zn52 Zn56 2.624969 1_555
Zn52 Zn77 2.699609 1_555
Zn52 Zn71 2.699609 1_555
Zn52 Zn99 2.736236 1_445
Zn52 Zn83 2.744750 1_555
Zn52 Zn91 2.744750 1_555
Zn52 Zn70 2.993358 1_555
Zn53 Zn96 2.587270 1_555
Zn53 Zn95 2.589850 1_555
Zn53 Zn98 2.761152 1_555
Zn53 Zn72 2.764584 1_555
Zn53 Zn88 2.983268 1_555
Zn54 Zn86 2.587270 1_555
Zn54 Zn57 2.589850 1_555
Zn54 Zn72 2.705829 1_545
Zn54 Zn81 2.761153 1_545
Zn55 Zn76 2.637420 1_565
Zn55 Zn73 2.705829 1_565
Zn56 Zn87 2.600067 1_555
Zn56 Zn82 2.699603 1_555
Zn56 Zn83 2.744755 1_555
Zn56 Zn91 2.744755 1_555
Zn56 Zn70 2.993362 1_555
Zn57 Zn72 2.637420 1_545
Zn57 Zn8 2.637420 1_555
Zn58 Zn69 2.600072 1_655
Zn58 Zn93 2.624969 1_555
Zn58 Zn78 2.699597 1_555
Zn58 Zn85 2.736235 1_655
Zn58 Zn60 2.744752 1_555
Zn58 Zn67 2.744752 1_555
Zn59 Zn62 2.637412 1_555
Zn59 Zn76 2.637412 1_565
Zn59 Zn97 2.705826 1_565
Zn59 Zn80 2.764585 1_554
Zn60 Zn7 2.555709 1_555
Zn60 Zn96 2.636580 1_545
Zn60 Zn93 2.744752 1_555
Zn61 Zn71 2.555709 1_555
Zn61 Zn9 2.555709 1_555
Zn61 Zn87 2.636580 1_565
Zn61 Zn97 2.699776 1_565
Zn61 Zn90 2.744752 1_555
Zn61 Zn70 2.864235 1_565
Zn62 Zn80 2.589850 1_554
Zn62 Zn66 2.589850 1_455
Zn63 Zn80 2.587270 1_555
Zn63 Zn89 2.636581 1_565
Zn63 Zn78 2.641019 1_455
Zn64 Zn99 2.624969 1_555
Zn64 Zn82 2.699603 1_555
Zn64 Zn90 2.736235 1_655
Zn64 Zn70 2.993362 1_665
Zn65 Zn89 2.555709 1_555
Zn65 Zn69 2.641019 1_555
Zn65 Zn68 2.699603 1_555
Zn65 Zn85 2.699603 1_555
Zn66 Zn94 2.587270 1_555
Zn66 Zn73 2.683866 1_555
Zn66 Zn83 2.699776 1_655
Zn66 Zn71 2.761153 1_655
Zn67 Zn78 2.555709 1_555
Zn67 Zn69 2.636580 1_655
Zn67 Zn93 2.744752 1_555
Zn68 Zn96 2.600067 1_555
Zn68 Zn98 2.699603 1_555
Zn68 Zn93 2.736235 1_565
Zn69 Zn85 2.600067 1_555
Zn69 Zn89 2.636580 1_555
Zn69 Zn78 2.641011 1_455
Zn70 Zn94 2.733940 1_455
Zn70 Zn87 2.733940 1_555
Zn70 Zn83 2.864235 1_555
Zn70 Zn99 2.993358 1_445
Zn70 Zn90 2.993366 1_545
Zn71 Zn83 2.555716 1_555
Zn71 Zn94 2.641019 1_455
Zn71 Zn90 2.699597 1_555
Zn72 Zn95 2.637412 1_555
Zn73 Zn94 2.587270 1_555
Zn73 Zn76 2.589850 1_555
Zn73 Zn97 2.679586 1_555
Zn73 Zn9 2.761153 1_545
Zn74 Zn92 2.587270 1_555
Zn74 Zn75 2.589850 1_555
Zn74 Zn88 2.983260 1_555
Zn75 Zn79 2.589850 1_455
Zn76 Zn97 2.589850 1_555
Zn77 Zn91 2.555716 1_555
Zn77 Zn86 2.641019 1_455
Zn77 Zn90 2.699597 1_555
Zn77 Zn79 2.761148 1_455
Zn78 Zn80 2.761153 1_655
Zn81 Zn86 2.641019 1_565
Zn81 Zn99 2.699609 1_555
Zn82 Zn91 2.555709 1_555
Zn83 Zn87 2.636580 1_555
Zn83 Zn94 2.636581 1_455
Zn83 Zn84 2.699776 1_555
Zn84 Zn87 2.587270 1_555
Zn84 Zn97 2.683866 1_555
Zn85 Zn98 2.699603 1_555
Zn85 Zn89 2.744755 1_555
Zn86 Zn99 2.600071 1_545
Zn86 Zn91 2.636581 1_655
Zn87 Zn97 2.587270 1_555
Zn87 Zn9 2.641011 1_545
Zn88 Zn92 2.744077 1_555
Zn88 Zn96 2.744085 1_555
Zn88 Zn98 2.880789 1_555
Zn93 Zn96 2.600072 1_545
Zn94 Zn99 2.600071 1_545
Zn96 Zn98 2.641019 1_555
Zn100 Zn101 2.652382 1_555
Zn100 Zn94 2.744077 1_555
Zn100 Zn29 2.744085 1_555
Zn100 Zn87 2.744085 1_555
Zn100 Zn71 2.880775 1_655
Zn100 Zn9 2.880775 1_545
Zn100 Zn33 2.880789 1_555
Zn100 Zn73 2.983260 1_555
Zn100 Zn66 2.983260 1_555
Zn100 Zn17 2.983264 1_555
Zn100 Zn97 2.983264 1_555
Zn100 Zn84 2.983268 1_555
Zn100 Zn21 2.983268 1_555
Zn101 Zn62 2.732675 1_655
Zn101 Zn76 2.732675 1_555
Zn101 Zn14 2.732682 1_555
Zn101 Zn35 2.862092 1_554
Zn101 Zn25 2.862107 1_554
Zn101 Zn4 2.862107 1_554
Zn101 Zn73 3.000287 1_555
Zn101 Zn66 3.000287 1_555
Zn101 Zn17 3.000292 1_555
Zn101 Zn97 3.000292 1_555
Zn101 Zn21 3.000295 1_555
Zn101 Zn84 3.000295 1_555
