# generated using pymatgen
data_KP(HO2)2
_symmetry_space_group_name_H-M   'P 1'
_cell_length_a   8.26931258
_cell_length_b   8.26931258
_cell_length_c   8.26931258
_cell_angle_alpha   113.02062919
_cell_angle_beta   113.02062919
_cell_angle_gamma   102.58424878
_symmetry_Int_Tables_number   1
_chemical_formula_structural   KP(HO2)2
_chemical_formula_sum   'K4 P4 H8 O16'
_cell_volume   430.65949122
_cell_formula_units_Z   4
loop_
 _symmetry_equiv_pos_site_id
 _symmetry_equiv_pos_as_xyz
  1  'x, y, z'
loop_
 _atom_site_type_symbol
 _atom_site_label
 _atom_site_symmetry_multiplicity
 _atom_site_fract_x
 _atom_site_fract_y
 _atom_site_fract_z
 _atom_site_occupancy
  K  K0  1  0.32540900  0.62153700  0.21400200  1
  K  K1  1  0.40753500  0.11140700  0.78599800  1
  K  K2  1  0.88859300  0.67459100  0.29612800  1
  K  K3  1  0.37846300  0.59246500  0.70387200  1
  P  P0  1  0.07144000  0.78005800  0.85188700  1
  P  P1  1  0.92817100  0.21955300  0.14811300  1
  P  P2  1  0.78044700  0.92856000  0.70861800  1
  P  P3  1  0.21994200  0.07182900  0.29138200  1
  H  H0  1  0.59605200  0.36624100  0.69803400  1
  H  H1  1  0.66820700  0.89801800  0.30196600  1
  H  H2  1  0.10198200  0.40394800  0.77018900  1
  H  H3  1  0.63375900  0.33179300  0.22981100  1
  H  H4  1  0.81671800  0.48015700  0.86307300  1
  H  H5  1  0.61708400  0.95364500  0.13692700  1
  H  H6  1  0.04635500  0.18328200  0.66343900  1
  H  H7  1  0.51984300  0.38291600  0.33656100  1
  O  O0  1  0.72787400  0.16584200  0.11795800  1
  O  O1  1  0.04788400  0.60991600  0.88204200  1
  O  O2  1  0.39008400  0.27212600  0.43796800  1
  O  O3  1  0.83415800  0.95211600  0.56203200  1
  O  O4  1  0.14760100  0.79194200  0.71810900  1
  O  O5  1  0.07383300  0.42949200  0.28189100  1
  O  O6  1  0.57050800  0.85239900  0.64434100  1
  O  O7  1  0.20805800  0.92616700  0.35565900  1
  O  O8  1  0.86056700  0.78612900  0.77325200  1
  O  O9  1  0.01287700  0.08731500  0.22674800  1
  O  O10  1  0.91268500  0.13943300  0.92556200  1
  O  O11  1  0.21387100  0.98712300  0.07443800  1
  O  O12  1  0.68885200  0.43056800  0.84811100  1
  O  O13  1  0.58245700  0.84074100  0.15188900  1
  O  O14  1  0.15925900  0.31114800  0.74171600  1
  O  O15  1  0.56943200  0.41754300  0.25828400  1
loop_
_geom_bond_atom_site_label_1
_geom_bond_atom_site_label_2
_geom_bond_distance
_geom_bond_site_symmetry_2
K0 O5 2.708539 1_555
K0 O1 2.753508 1_554
K0 O6 2.788457 1_555
K0 O13 2.823286 1_555
K0 O7 2.882013 1_555
K0 O15 2.905185 1_555
K1 O4 2.708539 1_545
K1 O0 2.753508 1_556
K1 O7 2.788457 1_545
K1 O12 2.823286 1_555
K1 O6 2.882013 1_545
K1 O14 2.905185 1_555
K2 O7 2.708539 1_655
K2 O3 2.753508 1_555
K2 O5 2.788457 1_655
K2 O15 2.823286 1_555
K2 O4 2.882013 1_655
K2 O12 2.905185 1_554
K3 O6 2.708539 1_555
K3 O2 2.753508 1_555
K3 O4 2.788457 1_555
K3 O14 2.823286 1_555
K3 O5 2.882013 1_555
K3 O13 2.905185 1_556
H0 O12 0.986383 1_555
H0 K1 2.838014 1_555
H0 K3 2.864171 1_555
H1 O13 0.986383 1_555
H1 K0 2.838014 1_555
H1 K2 2.864171 1_555
H2 O14 0.986383 1_555
H2 K3 2.838014 1_555
H2 K0 2.864171 1_556
H3 O15 0.986383 1_555
H3 K2 2.838014 1_555
H3 K1 2.864171 1_554
H4 O12 0.985161 1_555
H5 O13 0.985161 1_555
H6 O14 0.985161 1_555
H7 O15 0.985161 1_555
O0 P1 1.507522 1_555
O1 P0 1.507522 1_555
O2 P3 1.507522 1_555
O3 P2 1.507522 1_555
O4 P0 1.494348 1_555
O5 P1 1.494348 1_455
O6 P2 1.494348 1_555
O7 P3 1.494348 1_565
O8 P0 1.625709 1_655
O8 P2 1.633182 1_555
O9 P1 1.625709 1_455
O9 P3 1.633182 1_555
O10 P2 1.625709 1_545
O10 P1 1.633182 1_556
O11 P3 1.625709 1_565
O11 P0 1.633182 1_554
