# generated using pymatgen
data_CsMg12Al25Si29O108
_symmetry_space_group_name_H-M   'P 1'
_cell_length_a   9.83964300
_cell_length_b   9.96209829
_cell_length_c   28.36730528
_cell_angle_alpha   89.99614617
_cell_angle_beta   90.00809933
_cell_angle_gamma   119.37983788
_symmetry_Int_Tables_number   1
_chemical_formula_structural   CsMg12Al25Si29O108
_chemical_formula_sum   'Cs1 Mg12 Al25 Si29 O108'
_cell_volume   2423.03156339
_cell_formula_units_Z   1
loop_
 _symmetry_equiv_pos_site_id
 _symmetry_equiv_pos_as_xyz
  1  'x, y, z'
loop_
 _atom_site_type_symbol
 _atom_site_label
 _atom_site_symmetry_multiplicity
 _atom_site_fract_x
 _atom_site_fract_y
 _atom_site_fract_z
 _atom_site_occupancy
  Cs  Cs0  1  0.00472300  0.00945400  0.08334700  1
  Mg  Mg0  1  0.32976700  0.65963600  0.91633900  1
  Mg  Mg1  1  0.33039500  0.66514100  0.41677300  1
  Mg  Mg2  1  0.32881200  0.65849000  0.74999700  1
  Mg  Mg3  1  0.33037900  0.66513000  0.58324800  1
  Mg  Mg4  1  0.32911300  0.65979600  0.25025200  1
  Mg  Mg5  1  0.33165900  0.66400300  0.08333700  1
  Mg  Mg6  1  0.66577300  0.33180500  0.91639700  1
  Mg  Mg7  1  0.66670800  0.33255900  0.75002900  1
  Mg  Mg8  1  0.66712300  0.32986200  0.58315800  1
  Mg  Mg9  1  0.66708800  0.32975500  0.41684700  1
  Mg  Mg10  1  0.66653600  0.33150000  0.25022100  1
  Mg  Mg11  1  0.66184600  0.32330700  0.08327100  1
  Al  Al0  1  0.26635500  0.89878900  0.49999100  1
  Al  Al1  1  0.49995200  0.99987400  0.08344100  1
  Al  Al2  1  0.50018900  0.49684100  0.91672000  1
  Al  Al3  1  0.49926900  0.50001500  0.58355300  1
  Al  Al4  1  0.50105200  0.49764500  0.25066300  1
  Al  Al5  1  0.50071700  0.49706300  0.74956900  1
  Al  Al6  1  0.49929500  0.50004000  0.41647800  1
  Al  Al7  1  0.50092600  0.49744100  0.08318200  1
  Al  Al8  1  0.37748200  0.26652400  0.83315300  1
  Al  Al9  1  0.37901900  0.26493600  0.16708100  1
  Al  Al10  1  0.99675300  0.49757200  0.91625100  1
  Al  Al11  1  0.99593700  0.49692400  0.58263900  1
  Al  Al12  1  0.99657000  0.49722100  0.75013600  1
  Al  Al13  1  0.99592700  0.49694600  0.41739700  1
  Al  Al14  1  0.99665400  0.49694400  0.25006300  1
  Al  Al15  1  0.99650900  0.49735400  0.08337600  1
  Al  Al16  1  0.36479000  0.10286900  0.99971200  1
  Al  Al17  1  0.35979700  0.09921000  0.66643700  1
  Al  Al18  1  0.35929200  0.09931400  0.33381800  1
  Al  Al19  1  0.88610200  0.26460900  0.99961400  1
  Al  Al20  1  0.89046500  0.26664100  0.33322200  1
  Al  Al21  1  0.89052000  0.26687800  0.66693000  1
  Al  Al22  1  0.74139000  0.09992800  0.83307000  1
  Al  Al23  1  0.74092800  0.10019600  0.50002500  1
  Al  Al24  1  0.73868200  0.10345900  0.16695800  1
  Si  Si0  1  0.26783500  0.89663000  0.83307600  1
  Si  Si1  1  0.26721300  0.89282700  0.16696200  1
  Si  Si2  1  0.49987300  0.99955200  0.75015700  1
  Si  Si3  1  0.50224600  0.99988200  0.41614300  1
  Si  Si4  1  0.10349100  0.73045700  0.99987900  1
  Si  Si5  1  0.10150800  0.72822100  0.66639100  1
  Si  Si6  1  0.10156100  0.72833200  0.33370700  1
  Si  Si7  1  0.62542800  0.89309200  0.99970800  1
  Si  Si8  1  0.63125400  0.89734200  0.66762600  1
  Si  Si9  1  0.63156700  0.89725900  0.33264000  1
  Si  Si10  1  0.62644800  0.72863600  0.83321600  1
  Si  Si11  1  0.62458500  0.72924000  0.50000700  1
  Si  Si12  1  0.62659400  0.73033200  0.16680100  1
  Si  Si13  1  0.11119500  0.37936700  0.83325100  1
  Si  Si14  1  0.11170200  0.37903700  0.50000600  1
  Si  Si15  1  0.11204600  0.37891200  0.16681500  1
  Si  Si16  1  0.73262100  0.62802700  0.66600800  1
  Si  Si17  1  0.73388900  0.62919500  0.99955300  1
  Si  Si18  1  0.73285800  0.62811000  0.33412300  1
  Si  Si19  1  0.26841000  0.37944000  0.66664500  1
  Si  Si20  1  0.26672400  0.37913100  0.99987800  1
  Si  Si21  1  0.26826500  0.37954000  0.33341200  1
  Si  Si22  1  0.89735800  0.63114700  0.83321100  1
  Si  Si23  1  0.89222500  0.62683100  0.50000000  1
  Si  Si24  1  0.89581800  0.62956900  0.16711800  1
  Si  Si25  1  0.37615900  0.27020100  0.50000400  1
  Si  Si26  1  0.50018100  0.99935100  0.91566900  1
  Si  Si27  1  0.50220900  0.99982900  0.58392000  1
  Si  Si28  1  0.49927900  0.99934900  0.25070800  1
  O  O0  1  0.21327300  0.91294800  0.00111100  1
  O  O1  1  0.21592200  0.90908600  0.66654100  1
  O  O2  1  0.21577300  0.90909000  0.33355000  1
  O  O3  1  0.08386500  0.76580800  0.83322800  1
  O  O4  1  0.07054800  0.76332200  0.49999500  1
  O  O5  1  0.07950400  0.76959300  0.16832300  1
  O  O6  1  0.35375900  0.86855000  0.88137500  1
  O  O7  1  0.35392000  0.86912000  0.78466500  1
  O  O8  1  0.35890600  0.87074600  0.55142600  1
  O  O9  1  0.35886000  0.87072300  0.44858900  1
  O  O10  1  0.35208500  0.86988600  0.21672700  1
  O  O11  1  0.34739100  0.85685200  0.12082200  1
  O  O12  1  0.51785700  0.86997200  0.94987600  1
  O  O13  1  0.52002800  0.87198700  0.61954300  1
  O  O14  1  0.51642900  0.86848800  0.28462700  1
  O  O15  1  0.51665200  0.86908600  0.71588500  1
  O  O16  1  0.52013100  0.87200300  0.38062100  1
  O  O17  1  0.50952200  0.85697700  0.04583600  1
  O  O18  1  0.13330900  0.65064400  0.71393400  1
  O  O19  1  0.13301900  0.65110700  0.04720200  1
  O  O20  1  0.13415100  0.65181100  0.95248400  1
  O  O21  1  0.13252800  0.64902900  0.38086500  1
  O  O22  1  0.13248900  0.64902400  0.61919100  1
  O  O23  1  0.13323800  0.65052400  0.28618500  1
  O  O24  1  0.69325800  0.90934500  0.83321600  1
  O  O25  1  0.69417100  0.91008200  0.50001000  1
  O  O26  1  0.69940300  0.91299500  0.16558000  1
  O  O27  1  0.69027000  0.76962100  0.99833200  1
  O  O28  1  0.68254300  0.76428900  0.66656100  1
  O  O29  1  0.68276900  0.76422600  0.33355100  1
  O  O30  1  0.14154400  0.49303300  0.87992800  1
  O  O31  1  0.14191400  0.48966300  0.54688500  1
  O  O32  1  0.14153000  0.49264200  0.21333900  1
  O  O33  1  0.14117500  0.49301900  0.78665800  1
  O  O34  1  0.14194100  0.48966400  0.45312800  1
  O  O35  1  0.14028300  0.49041200  0.11982300  1
  O  O36  1  0.51646900  0.65043900  0.88053700  1
  O  O37  1  0.51409700  0.65147500  0.54732200  1
  O  O38  1  0.51761900  0.65178500  0.21421500  1
  O  O39  1  0.51659000  0.65031800  0.78590200  1
  O  O40  1  0.51411400  0.65150000  0.45268700  1
  O  O41  1  0.51793900  0.65130700  0.11947800  1
  O  O42  1  0.35090400  0.49276300  0.95337500  1
  O  O43  1  0.35198100  0.49327200  0.71312500  1
  O  O44  1  0.35019000  0.49292800  0.61978300  1
  O  O45  1  0.35022100  0.49301600  0.38024200  1
  O  O46  1  0.35171200  0.49350000  0.28688900  1
  O  O47  1  0.34998500  0.49065600  0.04684000  1
  O  O48  1  0.77448600  0.69535200  0.83326000  1
  O  O49  1  0.76393600  0.68541200  0.49999600  1
  O  O50  1  0.77549800  0.69750200  0.16627000  1
  O  O51  1  0.08172200  0.31152400  0.00107700  1
  O  O52  1  0.08521300  0.31582200  0.66686800  1
  O  O53  1  0.08511500  0.31573900  0.33315400  1
  O  O54  1  0.92183000  0.69732400  0.00041500  1
  O  O55  1  0.91945200  0.69344600  0.66600500  1
  O  O56  1  0.91959800  0.69356100  0.33405900  1
  O  O57  1  0.23120300  0.31554100  0.83327600  1
  O  O58  1  0.22941400  0.31096600  0.16562400  1
  O  O59  1  0.23851800  0.31792800  0.50000500  1
  O  O60  1  0.65870300  0.52273200  0.95274700  1
  O  O61  1  0.65814400  0.52311500  0.71310600  1
  O  O62  1  0.65640300  0.52093700  0.61878900  1
  O  O63  1  0.65847300  0.52334200  0.28699300  1
  O  O64  1  0.66036400  0.52769700  0.04722900  1
  O  O65  1  0.65643700  0.52091600  0.38128600  1
  O  O66  1  0.49464500  0.34868200  0.88324500  1
  O  O67  1  0.48629500  0.34898900  0.54743600  1
  O  O68  1  0.49433300  0.34814600  0.21738900  1
  O  O69  1  0.49506000  0.34867500  0.78304800  1
  O  O70  1  0.48627300  0.34898200  0.45257200  1
  O  O71  1  0.49373900  0.34944900  0.11691200  1
  O  O72  1  0.86614400  0.52571400  0.88028500  1
  O  O73  1  0.85895800  0.51623800  0.54661700  1
  O  O74  1  0.86437200  0.52313500  0.21395400  1
  O  O75  1  0.86604200  0.52545500  0.78620700  1
  O  O76  1  0.85895600  0.51627800  0.45337900  1
  O  O77  1  0.86788600  0.52813600  0.11942800  1
  O  O78  1  0.30751300  0.24122800  0.99931300  1
  O  O79  1  0.31848100  0.24779500  0.66638800  1
  O  O80  1  0.31830700  0.24800300  0.33364400  1
  O  O81  1  0.30021100  0.06752500  0.83318100  1
  O  O82  1  0.30890800  0.08877800  0.49999700  1
  O  O83  1  0.29414600  0.06353600  0.16565800  1
  O  O84  1  0.85403200  0.34870700  0.71694600  1
  O  O85  1  0.85614600  0.34883000  0.38338200  1
  O  O86  1  0.85435900  0.34883800  0.28330700  1
  O  O87  1  0.85411800  0.34796400  0.94929400  1
  O  O88  1  0.85618700  0.34884600  0.61668900  1
  O  O89  1  0.85597900  0.34943400  0.04978300  1
  O  O90  1  0.48184600  0.12402600  0.61666400  1
  O  O91  1  0.47571500  0.11922500  0.94820500  1
  O  O92  1  0.47757200  0.12016300  0.28380100  1
  O  O93  1  0.47775100  0.11945400  0.71671000  1
  O  O94  1  0.48175100  0.12402900  0.38345100  1
  O  O95  1  0.48610200  0.13399100  0.04765200  1
  O  O96  1  0.64276600  0.12059200  0.88285400  1
  O  O97  1  0.64196100  0.12017200  0.78326100  1
  O  O98  1  0.64497600  0.12252300  0.55053000  1
  O  O99  1  0.64503500  0.12255000  0.44950700  1
  O  O100  1  0.64335100  0.11948100  0.21833700  1
  O  O101  1  0.64796400  0.13397900  0.11899400  1
  O  O102  1  0.93002600  0.24819500  0.83328000  1
  O  O103  1  0.93472400  0.24149500  0.50000700  1
  O  O104  1  0.93368400  0.24143900  0.16735600  1
  O  O105  1  0.76902500  0.06350500  0.00101600  1
  O  O106  1  0.76959100  0.06811900  0.66771000  1
  O  O107  1  0.76974400  0.06801500  0.33244500  1
loop_
_geom_bond_atom_site_label_1
_geom_bond_atom_site_label_2
_geom_bond_distance
_geom_bond_site_symmetry_2
Cs0 O83 3.513562 1_555
Cs0 O105 3.513796 1_455
Cs0 O0 3.537607 1_545
Cs0 O26 3.543948 1_445
Cs0 O51 3.583103 1_555
Cs0 O58 3.583458 1_555
Cs0 O104 3.618709 1_455
Cs0 O78 3.625165 1_554
Cs0 O54 3.657941 1_445
Cs0 O50 3.660778 1_445
Cs0 O5 3.712929 1_545
Cs0 O27 3.720635 1_444
Mg0 O30 2.057961 1_555
Mg0 O42 2.061451 1_555
Mg0 O36 2.140189 1_555
Mg0 O20 2.148380 1_555
Mg0 O6 2.211031 1_555
Mg0 O12 2.217125 1_555
Mg1 O34 2.092289 1_555
Mg1 O45 2.093023 1_555
Mg1 O9 2.127152 1_555
Mg1 O21 2.132311 1_555
Mg1 O40 2.136532 1_555
Mg1 O16 2.238135 1_555
Mg2 O33 2.054681 1_555
Mg2 O43 2.055120 1_555
Mg2 O39 2.145915 1_555
Mg2 O18 2.145955 1_555
Mg2 O7 2.218711 1_555
Mg2 O15 2.224754 1_555
Mg3 O31 2.092270 1_555
Mg3 O44 2.093528 1_555
Mg3 O8 2.127238 1_555
Mg3 O22 2.133259 1_555
Mg3 O37 2.137005 1_555
Mg3 O13 2.239529 1_555
Mg4 O46 2.057972 1_555
Mg4 O32 2.064001 1_555
Mg4 O23 2.141975 1_555
Mg4 O38 2.153509 1_555
Mg4 O10 2.207151 1_555
Mg4 O14 2.215899 1_555
Mg5 O47 2.095811 1_555
Mg5 O35 2.100687 1_555
Mg5 O11 2.134018 1_555
Mg5 O17 2.142276 1_555
Mg5 O19 2.154196 1_555
Mg5 O41 2.157226 1_555
Mg6 O66 2.006316 1_555
Mg6 O87 2.009505 1_555
Mg6 O60 2.194529 1_555
Mg6 O91 2.215983 1_555
Mg6 O96 2.217391 1_555
Mg6 O72 2.220696 1_555
Mg7 O84 2.003382 1_555
Mg7 O69 2.005544 1_555
Mg7 O61 2.205564 1_555
Mg7 O75 2.212344 1_555
Mg7 O97 2.217872 1_555
Mg7 O93 2.232503 1_555
Mg8 O88 2.013860 1_555
Mg8 O67 2.135680 1_555
Mg8 O73 2.155530 1_555
Mg8 O98 2.174657 1_555
Mg8 O90 2.182654 1_555
Mg8 O62 2.203042 1_555
Mg9 O85 2.012835 1_555
Mg9 O70 2.136355 1_555
Mg9 O76 2.156051 1_555
Mg9 O99 2.174088 1_555
Mg9 O94 2.180833 1_555
Mg9 O65 2.202441 1_555
Mg10 O86 2.003140 1_555
Mg10 O68 2.010274 1_555
Mg10 O74 2.201436 1_555
Mg10 O100 2.204247 1_555
Mg10 O63 2.212680 1_555
Mg10 O92 2.226286 1_555
Mg11 O89 2.032654 1_555
Mg11 O71 2.034150 1_555
Mg11 O101 2.085654 1_555
Mg11 O95 2.089964 1_555
Mg11 O64 2.284800 1_555
Mg11 O77 2.294898 1_555
Al0 O82 1.726270 1_565
Al0 O4 1.726874 1_555
Al0 O9 1.811896 1_555
Al0 O8 1.812582 1_555
Al1 O95 1.735754 1_565
Al1 O101 1.736001 1_565
Al1 O17 1.817992 1_555
Al1 O11 1.819223 1_555
Al2 O66 1.733315 1_555
Al2 O60 1.774422 1_555
Al2 O36 1.783228 1_555
Al2 O42 1.783932 1_555
Al3 O44 1.764029 1_555
Al3 O62 1.765359 1_555
Al3 O37 1.771467 1_555
Al3 O67 1.772378 1_555
Al4 O68 1.736937 1_555
Al4 O63 1.771284 1_555
Al4 O46 1.777051 1_555
Al4 O38 1.791019 1_555
Al5 O69 1.734755 1_555
Al5 O61 1.772762 1_555
Al5 O43 1.776910 1_555
Al5 O39 1.784323 1_555
Al6 O45 1.764083 1_555
Al6 O65 1.765092 1_555
Al6 O40 1.771228 1_555
Al6 O70 1.772002 1_555
Al7 O71 1.729638 1_555
Al7 O64 1.768797 1_555
Al7 O47 1.781652 1_555
Al7 O41 1.784963 1_555
Al8 O57 1.731984 1_555
Al8 O81 1.740470 1_555
Al8 O66 1.758402 1_555
Al8 O69 1.760613 1_555
Al9 O58 1.743918 1_555
Al9 O71 1.753915 1_555
Al9 O83 1.755140 1_555
Al9 O68 1.757278 1_555
Al10 O87 1.737079 1_555
Al10 O72 1.767551 1_555
Al10 O30 1.776828 1_655
Al10 O20 1.790734 1_655
Al11 O88 1.734881 1_555
Al11 O73 1.775349 1_555
Al11 O22 1.782858 1_655
Al11 O31 1.788694 1_655
Al12 O84 1.733856 1_555
Al12 O75 1.769334 1_555
Al12 O33 1.776982 1_655
Al12 O18 1.784203 1_655
Al13 O85 1.734511 1_555
Al13 O76 1.774952 1_555
Al13 O21 1.782712 1_655
Al13 O34 1.788479 1_655
Al14 O86 1.732010 1_555
Al14 O74 1.773216 1_555
Al14 O23 1.783052 1_655
Al14 O32 1.783144 1_655
Al15 O89 1.729774 1_555
Al15 O77 1.767177 1_555
Al15 O35 1.780630 1_655
Al15 O19 1.784600 1_655
Al16 O78 1.726209 1_555
Al16 O95 1.734025 1_556
Al16 O0 1.742495 1_546
Al16 O91 1.782867 1_555
Al17 O79 1.716614 1_555
Al17 O1 1.720640 1_545
Al17 O93 1.786454 1_555
Al17 O90 1.790526 1_555
Al18 O80 1.715486 1_555
Al18 O2 1.720362 1_545
Al18 O92 1.781578 1_555
Al18 O94 1.789787 1_555
Al19 O51 1.744253 1_656
Al19 O89 1.753100 1_556
Al19 O105 1.754376 1_556
Al19 O87 1.755653 1_555
Al20 O53 1.728693 1_655
Al20 O107 1.737992 1_555
Al20 O85 1.755182 1_555
Al20 O86 1.756932 1_555
Al21 O52 1.729503 1_655
Al21 O106 1.739315 1_555
Al21 O88 1.755704 1_555
Al21 O84 1.758964 1_555
Al22 O102 1.713723 1_555
Al22 O24 1.716610 1_545
Al22 O96 1.781841 1_555
Al22 O97 1.785334 1_555
Al23 O25 1.715720 1_545
Al23 O103 1.727404 1_555
Al23 O99 1.788656 1_555
Al23 O98 1.788837 1_555
Al24 O104 1.727226 1_555
Al24 O101 1.733894 1_555
Al24 O26 1.741140 1_545
Al24 O100 1.782399 1_555
O0 Si4 1.595710 1_554
O1 Si5 1.588581 1_555
O2 Si6 1.587442 1_555
O3 Si0 1.631114 1_555
O3 Si22 1.658878 1_455
O4 Si23 1.608308 1_455
O5 Si1 1.641705 1_555
O5 Si24 1.655268 1_455
O6 Si26 1.696406 1_555
O6 Si0 1.703509 1_555
O7 Si2 1.696564 1_555
O7 Si0 1.704896 1_555
O8 Si27 1.646872 1_555
O9 Si3 1.646896 1_555
O10 Si28 1.690328 1_555
O10 Si1 1.711556 1_555
O11 Si1 1.655824 1_555
O12 Si26 1.689028 1_555
O12 Si7 1.712328 1_555
O13 Si8 1.688314 1_555
O13 Si27 1.700817 1_555
O14 Si28 1.693939 1_555
O14 Si9 1.703438 1_555
O15 Si2 1.694833 1_555
O15 Si8 1.707000 1_555
O16 Si9 1.687557 1_555
O16 Si3 1.699848 1_555
O17 Si7 1.655331 1_554
O18 Si5 1.658644 1_555
O19 Si4 1.654238 1_554
O20 Si4 1.656690 1_555
O21 Si6 1.656045 1_555
O22 Si5 1.656622 1_555
O23 Si6 1.659094 1_555
O24 Si10 1.584874 1_555
O25 Si11 1.582441 1_555
O26 Si12 1.595817 1_555
O27 Si7 1.640613 1_555
O27 Si17 1.652740 1_555
O28 Si8 1.633669 1_555
O28 Si16 1.655912 1_555
O29 Si9 1.632791 1_555
O29 Si18 1.654586 1_555
O30 Si13 1.671210 1_555
O31 Si14 1.658314 1_555
O32 Si15 1.669484 1_555
O33 Si13 1.669748 1_555
O34 Si14 1.658206 1_555
O35 Si15 1.668859 1_555
O36 Si10 1.659211 1_555
O37 Si11 1.660563 1_555
O38 Si12 1.657743 1_555
O39 Si10 1.658567 1_555
O40 Si11 1.660406 1_555
O41 Si12 1.654932 1_555
O42 Si20 1.669678 1_555
O43 Si19 1.669001 1_555
O44 Si19 1.673423 1_555
O45 Si21 1.672849 1_555
O46 Si21 1.670392 1_555
O47 Si20 1.669451 1_554
O48 Si22 1.621603 1_555
O48 Si10 1.644888 1_555
O49 Si23 1.629983 1_555
O49 Si11 1.630382 1_555
O50 Si24 1.626759 1_555
O50 Si12 1.650478 1_555
O51 Si20 1.601719 1_554
O52 Si19 1.590630 1_555
O53 Si21 1.589913 1_555
O54 Si17 1.627737 1_554
O54 Si4 1.650868 1_654
O55 Si16 1.621332 1_555
O55 Si5 1.649305 1_655
O56 Si18 1.620445 1_555
O56 Si6 1.648415 1_655
O57 Si13 1.592285 1_555
O58 Si15 1.600011 1_555
O59 Si14 1.634940 1_555
O59 Si25 1.640768 1_555
O60 Si17 1.632530 1_555
O61 Si16 1.631856 1_555
O62 Si16 1.646102 1_555
O63 Si18 1.631821 1_555
O64 Si17 1.630096 1_554
O65 Si18 1.645581 1_555
O67 Si25 1.663135 1_555
O70 Si25 1.663196 1_555
O72 Si22 1.632215 1_555
O73 Si23 1.647964 1_555
O74 Si24 1.631936 1_555
O75 Si22 1.631932 1_555
O76 Si23 1.647869 1_555
O77 Si24 1.629222 1_555
O78 Si20 1.609250 1_555
O79 Si19 1.611428 1_555
O80 Si21 1.610185 1_555
O81 Si0 1.570909 1_545
O82 Si25 1.590889 1_555
O83 Si1 1.587921 1_545
O90 Si27 1.636213 1_545
O91 Si26 1.618086 1_545
O92 Si28 1.621077 1_545
O93 Si2 1.621506 1_545
O94 Si3 1.635484 1_545
O96 Si26 1.622112 1_545
O97 Si2 1.622288 1_545
O98 Si27 1.637075 1_545
O99 Si3 1.636536 1_545
O100 Si28 1.618855 1_545
O102 Si13 1.612371 1_655
O103 Si14 1.602727 1_655
O104 Si15 1.611702 1_655
O105 Si7 1.589422 1_544
O106 Si8 1.573218 1_545
O107 Si9 1.572562 1_545
