# generated using pymatgen
data_Sr3Nd2(BO3)4
_symmetry_space_group_name_H-M   'P 1'
_cell_length_a   7.38948100
_cell_length_b   8.87735800
_cell_length_c   16.72462200
_cell_angle_alpha   90.00000000
_cell_angle_beta   90.00000000
_cell_angle_gamma   90.00000000
_symmetry_Int_Tables_number   1
_chemical_formula_structural   Sr3Nd2(BO3)4
_chemical_formula_sum   'Sr12 Nd8 B16 O48'
_cell_volume   1097.11962039
_cell_formula_units_Z   4
loop_
 _symmetry_equiv_pos_site_id
 _symmetry_equiv_pos_as_xyz
  1  'x, y, z'
loop_
 _atom_site_type_symbol
 _atom_site_label
 _atom_site_symmetry_multiplicity
 _atom_site_fract_x
 _atom_site_fract_y
 _atom_site_fract_z
 _atom_site_occupancy
  Sr  Sr0  1  0.67690500  0.35080900  0.91348900  1
  Sr  Sr1  1  0.32309500  0.64919100  0.41348900  1
  Sr  Sr2  1  0.82309500  0.85080900  0.41348900  1
  Sr  Sr3  1  0.17690500  0.14919100  0.91348900  1
  Sr  Sr4  1  0.96307700  0.32947600  0.70830800  1
  Sr  Sr5  1  0.03692300  0.67052400  0.20830800  1
  Sr  Sr6  1  0.53692300  0.82947600  0.20830800  1
  Sr  Sr7  1  0.46307700  0.17052400  0.70830800  1
  Sr  Sr8  1  0.69285200  0.35127800  0.16214600  1
  Sr  Sr9  1  0.30714800  0.64872200  0.66214600  1
  Sr  Sr10  1  0.80714800  0.85127800  0.66214600  1
  Sr  Sr11  1  0.19285200  0.14872200  0.16214600  1
  Nd  Nd0  1  0.97169900  0.32894900  0.37045100  1
  Nd  Nd1  1  0.02830100  0.67105100  0.87045100  1
  Nd  Nd2  1  0.52830100  0.82894900  0.87045100  1
  Nd  Nd3  1  0.47169900  0.17105100  0.37045100  1
  Nd  Nd4  1  0.68447100  0.46636100  0.54068700  1
  Nd  Nd5  1  0.31552900  0.53363900  0.04068700  1
  Nd  Nd6  1  0.81552900  0.96636100  0.04068700  1
  Nd  Nd7  1  0.18447100  0.03363900  0.54068700  1
  B  B0  1  0.98546000  0.37134400  0.03492500  1
  B  B1  1  0.01454000  0.62865600  0.53492500  1
  B  B2  1  0.51454000  0.87134400  0.53492500  1
  B  B3  1  0.48546000  0.12865600  0.03492500  1
  B  B4  1  0.27940600  0.35414200  0.53855700  1
  B  B5  1  0.72059400  0.64585800  0.03855700  1
  B  B6  1  0.22059400  0.85414200  0.03855700  1
  B  B7  1  0.77940600  0.14585800  0.53855700  1
  B  B8  1  0.33849900  0.43669200  0.24799200  1
  B  B9  1  0.66150100  0.56330800  0.74799200  1
  B  B10  1  0.16150100  0.93669200  0.74799200  1
  B  B11  1  0.83849900  0.06330800  0.24799200  1
  B  B12  1  0.32651900  0.45167700  0.83280000  1
  B  B13  1  0.67348100  0.54832300  0.33280000  1
  B  B14  1  0.17348100  0.95167700  0.33280000  1
  B  B15  1  0.82651900  0.04832300  0.83280000  1
  O  O0  1  0.38379400  0.25979200  0.03138300  1
  O  O1  1  0.61620600  0.74020800  0.53138300  1
  O  O2  1  0.11620600  0.75979200  0.53138300  1
  O  O3  1  0.88379400  0.24020800  0.03138300  1
  O  O4  1  0.04899000  0.42646200  0.10754700  1
  O  O5  1  0.95101000  0.57353800  0.60754700  1
  O  O6  1  0.45101000  0.92646200  0.60754700  1
  O  O7  1  0.54899000  0.07353800  0.10754700  1
  O  O8  1  0.03906800  0.44699600  0.96488700  1
  O  O9  1  0.96093200  0.55300400  0.46488700  1
  O  O10  1  0.46093200  0.94699600  0.46488700  1
  O  O11  1  0.53906800  0.05300400  0.96488700  1
  O  O12  1  0.23032600  0.27885600  0.60719400  1
  O  O13  1  0.76967400  0.72114400  0.10719400  1
  O  O14  1  0.26967400  0.77885600  0.10719400  1
  O  O15  1  0.73032600  0.22114400  0.60719400  1
  O  O16  1  0.25018400  0.27858200  0.46638000  1
  O  O17  1  0.74981600  0.72141800  0.96638000  1
  O  O18  1  0.24981600  0.77858200  0.96638000  1
  O  O19  1  0.75018400  0.22141800  0.46638000  1
  O  O20  1  0.63503700  0.50870400  0.03959000  1
  O  O21  1  0.36496300  0.49129600  0.53959000  1
  O  O22  1  0.86496300  0.00870400  0.53959000  1
  O  O23  1  0.13503700  0.99129600  0.03959000  1
  O  O24  1  0.20801300  0.46989000  0.30542100  1
  O  O25  1  0.79198700  0.53011000  0.80542100  1
  O  O26  1  0.29198700  0.96989000  0.80542100  1
  O  O27  1  0.70801300  0.03011000  0.30542100  1
  O  O28  1  0.41973600  0.29474900  0.24871500  1
  O  O29  1  0.58026400  0.70525100  0.74871500  1
  O  O30  1  0.08026400  0.79474900  0.74871500  1
  O  O31  1  0.91973600  0.20525100  0.24871500  1
  O  O32  1  0.61535600  0.46368700  0.68808900  1
  O  O33  1  0.38464400  0.53631300  0.18808900  1
  O  O34  1  0.88464400  0.96368700  0.18808900  1
  O  O35  1  0.11535600  0.03631300  0.68808900  1
  O  O36  1  0.81036300  0.50585900  0.28069000  1
  O  O37  1  0.18963700  0.49414100  0.78069000  1
  O  O38  1  0.68963700  0.00585900  0.78069000  1
  O  O39  1  0.31036300  0.99414100  0.28069000  1
  O  O40  1  0.39425700  0.30720000  0.83349000  1
  O  O41  1  0.60574300  0.69280000  0.33349000  1
  O  O42  1  0.10574300  0.80720000  0.33349000  1
  O  O43  1  0.89425700  0.19280000  0.83349000  1
  O  O44  1  0.61237300  0.44150300  0.38840500  1
  O  O45  1  0.38762700  0.55849700  0.88840500  1
  O  O46  1  0.88762700  0.94150300  0.88840500  1
  O  O47  1  0.11237300  0.05849700  0.38840500  1
loop_
_geom_bond_atom_site_label_1
_geom_bond_atom_site_label_2
_geom_bond_distance
_geom_bond_site_symmetry_2
Nd0 O31 2.344896 1_555
Nd0 O24 2.407838 1_655
Nd0 O36 2.478189 1_555
Nd0 O19 2.482871 1_555
Nd0 O9 2.541071 1_555
Nd0 O47 2.633450 1_655
Nd0 O16 2.647401 1_655
Nd0 O44 2.852856 1_555
Nd1 O30 2.344896 1_555
Nd1 O25 2.407838 1_455
Nd1 O37 2.478189 1_555
Nd1 O18 2.482871 1_555
Nd1 O8 2.541071 1_555
Nd1 O46 2.633450 1_455
Nd1 O17 2.647401 1_455
Nd1 O45 2.852856 1_555
Nd2 O29 2.344896 1_555
Nd2 O26 2.407838 1_555
Nd2 O38 2.478189 1_565
Nd2 O17 2.482871 1_555
Nd2 O11 2.541071 1_565
Nd2 O45 2.633450 1_555
Nd2 O18 2.647401 1_555
Nd2 O46 2.852856 1_555
Nd3 O28 2.344896 1_555
Nd3 O27 2.407838 1_555
Nd3 O39 2.478189 1_545
Nd3 O16 2.482871 1_555
Nd3 O10 2.541071 1_545
Nd3 O44 2.633450 1_555
Nd3 O19 2.647401 1_555
Nd3 O47 2.852856 1_555
Nd4 O21 2.371423 1_555
Nd4 O5 2.456605 1_555
Nd4 O15 2.467963 1_555
Nd4 O1 2.487694 1_555
Nd4 O32 2.517702 1_555
Nd4 O9 2.524320 1_555
Nd4 O19 2.551167 1_555
Nd4 O44 2.611327 1_555
Nd5 O20 2.371423 1_555
Nd5 O4 2.456605 1_555
Nd5 O14 2.467963 1_555
Nd5 O0 2.487694 1_555
Nd5 O33 2.517702 1_555
Nd5 O8 2.524320 1_554
Nd5 O18 2.551167 1_554
Nd5 O45 2.611327 1_554
Nd6 O23 2.371423 1_655
Nd6 O7 2.456605 1_565
Nd6 O13 2.467963 1_555
Nd6 O3 2.487694 1_565
Nd6 O34 2.517702 1_555
Nd6 O11 2.524320 1_564
Nd6 O17 2.551167 1_554
Nd6 O46 2.611327 1_554
Nd7 O22 2.371423 1_455
Nd7 O6 2.456605 1_545
Nd7 O12 2.467963 1_555
Nd7 O2 2.487694 1_545
Nd7 O35 2.517702 1_555
Nd7 O10 2.524320 1_545
Nd7 O16 2.551167 1_555
Nd7 O47 2.611327 1_555
B0 O3 1.386767 1_555
B0 O4 1.391042 1_655
B0 O8 1.407138 1_654
B1 O2 1.386767 1_555
B1 O5 1.391042 1_455
B1 O9 1.407138 1_455
B2 O1 1.386767 1_555
B2 O6 1.391042 1_555
B2 O10 1.407138 1_555
B3 O0 1.386767 1_555
B3 O7 1.391042 1_555
B3 O11 1.407138 1_554
B4 O21 1.372031 1_555
B4 O12 1.376936 1_555
B4 O16 1.397761 1_555
B5 O20 1.372031 1_555
B5 O13 1.376936 1_555
B5 O17 1.397761 1_554
B6 O23 1.372031 1_555
B6 O14 1.376936 1_555
B6 O18 1.397761 1_554
B7 O22 1.372031 1_555
B7 O15 1.376936 1_555
B7 O19 1.397761 1_555
B8 O33 1.379166 1_555
B8 O24 1.392516 1_555
B8 O28 1.395817 1_555
B9 O32 1.379166 1_555
B9 O25 1.392516 1_555
B9 O29 1.395817 1_555
B10 O35 1.379166 1_565
B10 O26 1.392516 1_555
B10 O30 1.395817 1_555
B11 O34 1.379166 1_545
B11 O27 1.392516 1_555
B11 O31 1.395817 1_555
B12 O40 1.376836 1_555
B12 O37 1.387356 1_555
B12 O45 1.402849 1_555
B13 O41 1.376836 1_555
B13 O36 1.387356 1_555
B13 O44 1.402849 1_555
B14 O42 1.376836 1_555
B14 O39 1.387356 1_555
B14 O47 1.402849 1_565
B15 O43 1.376836 1_555
B15 O38 1.387356 1_555
B15 O46 1.402849 1_545
O0 Sr3 2.681228 1_554
O0 Sr11 2.783133 1_555
O0 Sr0 3.038399 1_554
O1 Sr2 2.681228 1_555
O1 Sr10 2.783133 1_555
O1 Sr1 3.038399 1_555
O2 Sr1 2.681228 1_555
O2 Sr9 2.783133 1_555
O2 Sr2 3.038399 1_455
O3 Sr0 2.681228 1_554
O3 Sr8 2.783133 1_555
O3 Sr3 3.038399 1_654
O4 Sr5 2.746285 1_555
O4 Sr11 2.836039 1_555
O4 Sr8 2.864441 1_455
O5 Sr4 2.746285 1_555
O5 Sr10 2.836039 1_555
O5 Sr9 2.864441 1_655
O6 Sr7 2.746285 1_565
O6 Sr9 2.836039 1_555
O6 Sr10 2.864441 1_555
O7 Sr6 2.746285 1_545
O7 Sr8 2.836039 1_555
O7 Sr11 2.864441 1_555
O8 Sr0 2.937700 1_455
O8 Sr3 2.960680 1_555
O9 Sr1 2.937700 1_655
O9 Sr2 2.960680 1_555
O10 Sr2 2.937700 1_555
O10 Sr1 2.960680 1_555
O11 Sr3 2.937700 1_555
O11 Sr0 2.960680 1_555
O12 Sr7 2.596682 1_555
O12 Sr4 2.638502 1_455
O13 Sr6 2.596682 1_555
O13 Sr5 2.638502 1_655
O14 Sr5 2.596682 1_555
O14 Sr6 2.638502 1_555
O15 Sr4 2.596682 1_555
O15 Sr7 2.638502 1_555
O20 Sr8 2.517317 1_555
O20 Sr0 2.551137 1_554
O21 Sr9 2.517317 1_555
O21 Sr1 2.551137 1_555
O22 Sr10 2.517317 1_545
O22 Sr2 2.551137 1_545
O23 Sr11 2.517317 1_565
O23 Sr3 2.551137 1_564
O24 Sr1 2.554100 1_555
O24 Sr5 2.721882 1_555
O25 Sr0 2.554100 1_555
O25 Sr4 2.721882 1_555
O26 Sr3 2.554100 1_565
O26 Sr7 2.721882 1_565
O27 Sr2 2.554100 1_545
O27 Sr6 2.721882 1_545
O28 Sr8 2.533994 1_555
O28 Sr11 2.566621 1_555
O29 Sr9 2.533994 1_555
O29 Sr10 2.566621 1_555
O30 Sr10 2.533994 1_455
O30 Sr9 2.566621 1_555
O31 Sr11 2.533994 1_655
O31 Sr8 2.566621 1_555
O32 Sr9 2.841383 1_555
O32 Sr4 2.852384 1_555
O32 Sr7 2.855458 1_555
O33 Sr8 2.841383 1_555
O33 Sr5 2.852384 1_555
O33 Sr6 2.855458 1_555
O34 Sr11 2.841383 1_665
O34 Sr6 2.852384 1_555
O34 Sr5 2.855458 1_655
O35 Sr10 2.841383 1_445
O35 Sr7 2.852384 1_555
O35 Sr4 2.855458 1_455
O36 Sr5 2.530831 1_655
O36 Sr8 2.562785 1_555
O37 Sr4 2.530831 1_455
O37 Sr9 2.562785 1_555
O38 Sr7 2.530831 1_555
O38 Sr10 2.562785 1_545
O39 Sr6 2.530831 1_555
O39 Sr11 2.562785 1_565
O40 Sr7 2.472654 1_555
O40 Sr0 2.510445 1_555
O40 Sr3 2.517401 1_555
O41 Sr6 2.472654 1_555
O41 Sr1 2.510445 1_555
O41 Sr2 2.517401 1_555
O42 Sr5 2.472654 1_555
O42 Sr2 2.510445 1_455
O42 Sr1 2.517401 1_555
O43 Sr4 2.472654 1_555
O43 Sr3 2.510445 1_655
O43 Sr0 2.517401 1_555
O44 Sr1 2.853892 1_555
O45 Sr0 2.853892 1_555
O46 Sr3 2.853892 1_665
O47 Sr2 2.853892 1_445
