# generated using pymatgen
data_CaZr4O9
_symmetry_space_group_name_H-M   'P 1'
_cell_length_a   15.78166895
_cell_length_b   15.78166895
_cell_length_c   6.50253640
_cell_angle_alpha   86.55588061
_cell_angle_beta   86.55588061
_cell_angle_gamma   12.75878592
_symmetry_Int_Tables_number   1
_chemical_formula_structural   CaZr4O9
_chemical_formula_sum   'Ca2 Zr8 O18'
_cell_volume   357.01396785
_cell_formula_units_Z   2
loop_
 _symmetry_equiv_pos_site_id
 _symmetry_equiv_pos_as_xyz
  1  'x, y, z'
loop_
 _atom_site_type_symbol
 _atom_site_label
 _atom_site_symmetry_multiplicity
 _atom_site_fract_x
 _atom_site_fract_y
 _atom_site_fract_z
 _atom_site_occupancy
  Ca  Ca0  1  0.50000000  0.50000000  0.00000000  1
  Ca  Ca1  1  0.00000000  0.00000000  0.50000000  1
  Zr  Zr0  1  0.09314300  0.09314300  0.82090300  1
  Zr  Zr1  1  0.60537600  0.60537600  0.29684000  1
  Zr  Zr2  1  0.90685700  0.90685700  0.17909700  1
  Zr  Zr3  1  0.70265900  0.70265900  0.60094900  1
  Zr  Zr4  1  0.39462400  0.39462400  0.70316000  1
  Zr  Zr5  1  0.29734100  0.29734100  0.39905100  1
  Zr  Zr6  1  0.19961600  0.19961600  0.10041500  1
  Zr  Zr7  1  0.80038400  0.80038400  0.89958500  1
  O  O0  1  0.57250800  0.57250800  0.02862300  1
  O  O1  1  0.97161500  0.97161500  0.20407100  1
  O  O2  1  0.07146100  0.07146100  0.39348200  1
  O  O3  1  0.38783400  0.38783400  0.34981600  1
  O  O4  1  0.92853900  0.92853900  0.60651800  1
  O  O5  1  0.02838500  0.02838500  0.79592900  1
  O  O6  1  0.86688000  0.86688000  0.91215800  1
  O  O7  1  0.76880400  0.76880400  0.61754300  1
  O  O8  1  0.32846500  0.32846500  0.68133100  1
  O  O9  1  0.18092600  0.18092600  0.73392000  1
  O  O10  1  0.42749200  0.42749200  0.97137700  1
  O  O11  1  0.28009500  0.28009500  0.03934500  1
  O  O12  1  0.71990500  0.71990500  0.96065500  1
  O  O13  1  0.81907400  0.81907400  0.26608000  1
  O  O14  1  0.67153500  0.67153500  0.31866900  1
  O  O15  1  0.13312000  0.13312000  0.08784200  1
  O  O16  1  0.23119600  0.23119600  0.38245700  1
  O  O17  1  0.61216600  0.61216600  0.65018400  1
loop_
_geom_bond_atom_site_label_1
_geom_bond_atom_site_label_2
_geom_bond_distance
_geom_bond_site_symmetry_2
Ca0 O0 2.293212 1_555
Ca0 O10 2.293212 1_554
Ca0 O5 2.342147 1_654
Ca0 O5 2.342147 1_564
Ca0 O1 2.342147 1_455
Ca0 O1 2.342147 1_545
Ca1 O5 2.168594 1_555
Ca1 O1 2.168594 1_445
Ca1 O4 2.305802 1_445
Ca1 O2 2.305802 1_555
O0 Zr1 2.078992 1_555
O0 Zr0 2.283096 1_654
O0 Zr0 2.283096 1_564
O1 Zr2 2.047565 1_555
O2 Zr1 2.126192 1_545
O2 Zr1 2.126192 1_455
O3 Zr2 2.140833 1_545
O3 Zr2 2.140833 1_455
O3 Zr4 2.320268 1_555
O3 Zr5 2.837276 1_555
O4 Zr4 2.126192 1_565
O4 Zr4 2.126192 1_655
O5 Zr0 2.047565 1_555
O6 Zr7 2.092374 1_555
O6 Zr2 2.201952 1_556
O6 Zr4 2.352905 1_655
O6 Zr4 2.352905 1_565
O7 Zr3 2.084137 1_555
O7 Zr7 2.136455 1_555
O7 Zr5 2.396021 1_655
O7 Zr5 2.396021 1_565
O8 Zr4 2.088660 1_555
O8 Zr5 2.130492 1_555
O8 Zr7 2.390343 1_455
O8 Zr7 2.390343 1_545
O9 Zr3 2.053276 1_455
O9 Zr3 2.053276 1_545
O9 Zr6 2.488375 1_556
O10 Zr4 2.078992 1_555
O10 Zr2 2.283096 1_546
O10 Zr2 2.283096 1_456
O11 Zr7 2.058122 1_454
O11 Zr7 2.058122 1_544
O11 Zr5 2.432397 1_555
O11 Zr6 2.531675 1_555
O12 Zr6 2.058122 1_566
O12 Zr6 2.058122 1_656
O12 Zr3 2.432397 1_555
O12 Zr7 2.531675 1_555
O13 Zr5 2.053276 1_565
O13 Zr5 2.053276 1_655
O13 Zr7 2.488375 1_554
O14 Zr1 2.088660 1_555
O14 Zr3 2.130492 1_555
O14 Zr6 2.390343 1_565
O14 Zr6 2.390343 1_655
O15 Zr6 2.092374 1_555
O15 Zr0 2.201952 1_554
O15 Zr1 2.352905 1_455
O15 Zr1 2.352905 1_545
O16 Zr5 2.084137 1_555
O16 Zr6 2.136455 1_555
O16 Zr3 2.396021 1_545
O16 Zr3 2.396021 1_455
O17 Zr0 2.140833 1_655
O17 Zr0 2.140833 1_565
O17 Zr1 2.320268 1_555
O17 Zr3 2.837276 1_555
