# generated using pymatgen
data_Eu5P3ClO12
_symmetry_space_group_name_H-M   'P 1'
_cell_length_a   9.96865794
_cell_length_b   9.96865794
_cell_length_c   7.20470600
_cell_angle_alpha   90.00000000
_cell_angle_beta   90.00000000
_cell_angle_gamma   119.99999960
_symmetry_Int_Tables_number   1
_chemical_formula_structural   Eu5P3ClO12
_chemical_formula_sum   'Eu10 P6 Cl2 O24'
_cell_volume   620.04082431
_cell_formula_units_Z   2
loop_
 _symmetry_equiv_pos_site_id
 _symmetry_equiv_pos_as_xyz
  1  'x, y, z'
loop_
 _atom_site_type_symbol
 _atom_site_label
 _atom_site_symmetry_multiplicity
 _atom_site_fract_x
 _atom_site_fract_y
 _atom_site_fract_z
 _atom_site_occupancy
  Eu  Eu0  1  0.33333300  0.66666700  0.99853100  1
  Eu  Eu1  1  0.74585500  0.75454300  0.75000000  1
  Eu  Eu2  1  0.25414500  0.24545700  0.25000000  1
  Eu  Eu3  1  0.99131200  0.74585500  0.25000000  1
  Eu  Eu4  1  0.75454300  0.00868800  0.25000000  1
  Eu  Eu5  1  0.66666700  0.33333300  0.00146900  1
  Eu  Eu6  1  0.24545700  0.99131200  0.75000000  1
  Eu  Eu7  1  0.00868800  0.25414500  0.75000000  1
  Eu  Eu8  1  0.33333300  0.66666700  0.50146900  1
  Eu  Eu9  1  0.66666700  0.33333300  0.49853100  1
  P  P0  1  0.37208900  0.96464900  0.25000000  1
  P  P1  1  0.40744000  0.37208900  0.75000000  1
  P  P2  1  0.03535100  0.40744000  0.25000000  1
  P  P3  1  0.59256000  0.62791100  0.25000000  1
  P  P4  1  0.62791100  0.03535100  0.75000000  1
  P  P5  1  0.96464900  0.59256000  0.75000000  1
  Cl  Cl0  1  0.00000000  0.00000000  0.00000000  1
  Cl  Cl1  1  0.00000000  0.00000000  0.50000000  1
  O  O0  1  0.26604700  0.90845200  0.42478900  1
  O  O1  1  0.26604700  0.90845200  0.07521100  1
  O  O2  1  0.11797800  0.58808400  0.25000000  1
  O  O3  1  0.47866600  0.14419900  0.25000000  1
  O  O4  1  0.64240500  0.73395300  0.07521100  1
  O  O5  1  0.85580100  0.33446700  0.25000000  1
  O  O6  1  0.14419900  0.66553300  0.75000000  1
  O  O7  1  0.58808400  0.47010600  0.75000000  1
  O  O8  1  0.73395300  0.09154800  0.92478900  1
  O  O9  1  0.52989400  0.11797800  0.75000000  1
  O  O10  1  0.47010600  0.88202200  0.25000000  1
  O  O11  1  0.90845200  0.64240500  0.92478900  1
  O  O12  1  0.35759500  0.26604700  0.92478900  1
  O  O13  1  0.09154800  0.35759500  0.07521100  1
  O  O14  1  0.52133400  0.85580100  0.75000000  1
  O  O15  1  0.35759500  0.26604700  0.57521100  1
  O  O16  1  0.41191600  0.52989400  0.25000000  1
  O  O17  1  0.33446700  0.47866600  0.75000000  1
  O  O18  1  0.73395300  0.09154800  0.57521100  1
  O  O19  1  0.90845200  0.64240500  0.57521100  1
  O  O20  1  0.64240500  0.73395300  0.42478900  1
  O  O21  1  0.66553300  0.52133400  0.25000000  1
  O  O22  1  0.88202200  0.41191600  0.75000000  1
  O  O23  1  0.09154800  0.35759500  0.42478900  1
loop_
_geom_bond_atom_site_label_1
_geom_bond_atom_site_label_2
_geom_bond_distance
_geom_bond_site_symmetry_2
Eu0 O6 2.596116 1_555
Eu0 O14 2.596119 1_555
Eu0 O17 2.596123 1_555
Eu0 O2 2.612118 1_556
Eu0 O10 2.612119 1_556
Eu0 O16 2.612124 1_556
Eu0 O1 2.860283 1_556
Eu0 O13 2.860290 1_556
Eu0 O4 2.860293 1_556
Eu1 O7 2.460466 1_555
Eu1 O4 2.526625 1_556
Eu1 O20 2.526625 1_555
Eu1 O19 2.697150 1_555
Eu1 O11 2.697150 1_555
Eu1 O14 2.878810 1_555
Eu2 O16 2.460466 1_555
Eu2 O15 2.526625 1_555
Eu2 O12 2.526625 1_554
Eu2 O23 2.697150 1_555
Eu2 O13 2.697150 1_555
Eu2 O3 2.878810 1_555
Eu3 O2 2.460466 1_655
Eu3 O19 2.526625 1_555
Eu3 O11 2.526625 1_554
Eu3 O0 2.697150 1_655
Eu3 O1 2.697150 1_655
Eu3 O21 2.878810 1_555
Eu4 O10 2.460466 1_545
Eu4 O18 2.526625 1_555
Eu4 O8 2.526625 1_554
Eu4 O20 2.697150 1_545
Eu4 O4 2.697150 1_545
Eu4 O5 2.878810 1_555
Eu5 O5 2.596116 1_555
Eu5 O3 2.596119 1_555
Eu5 O21 2.596123 1_555
Eu5 O22 2.612118 1_554
Eu5 O9 2.612119 1_554
Eu5 O7 2.612124 1_554
Eu5 O8 2.860283 1_554
Eu5 O11 2.860290 1_554
Eu5 O12 2.860293 1_554
Eu6 O9 2.460466 1_565
Eu6 O1 2.526625 1_556
Eu6 O0 2.526625 1_555
Eu6 O15 2.697150 1_565
Eu6 O12 2.697150 1_565
Eu6 O6 2.878810 1_555
Eu7 O22 2.460466 1_455
Eu7 O13 2.526625 1_556
Eu7 O23 2.526625 1_555
Eu7 O8 2.697150 1_455
Eu7 O18 2.697150 1_455
Eu7 O17 2.878810 1_555
Eu8 O6 2.596116 1_555
Eu8 O14 2.596119 1_555
Eu8 O17 2.596123 1_555
Eu8 O2 2.612118 1_555
Eu8 O10 2.612119 1_555
Eu8 O16 2.612124 1_555
Eu8 O0 2.860283 1_555
Eu8 O23 2.860290 1_555
Eu8 O20 2.860293 1_555
Eu9 O5 2.596116 1_555
Eu9 O3 2.596119 1_555
Eu9 O21 2.596123 1_555
Eu9 O22 2.612118 1_555
Eu9 O9 2.612119 1_555
Eu9 O7 2.612124 1_555
Eu9 O18 2.860283 1_555
Eu9 O19 2.860290 1_555
Eu9 O15 2.860293 1_555
Cl0 Eu6 3.074226 1_544
Cl0 Eu4 3.074226 1_455
Cl0 Eu7 3.074226 1_554
Cl0 Eu3 3.074226 1_445
Cl0 Eu2 3.074226 1_555
Cl0 Eu1 3.074226 1_444
Cl1 Eu6 3.074226 1_545
Cl1 Eu4 3.074226 1_455
Cl1 Eu7 3.074226 1_555
Cl1 Eu3 3.074226 1_445
Cl1 Eu2 3.074226 1_555
Cl1 Eu1 3.074226 1_445
O0 P0 1.557221 1_555
O1 P0 1.557221 1_555
O2 P2 1.561405 1_555
O3 P0 1.559098 1_545
O4 P3 1.557221 1_555
O5 P2 1.559098 1_655
O6 P5 1.559098 1_455
O7 P1 1.561405 1_555
O8 P4 1.557221 1_555
O9 P4 1.561405 1_555
O10 P0 1.561405 1_555
O11 P5 1.557221 1_555
O12 P1 1.557221 1_555
O13 P2 1.557221 1_555
O14 P4 1.559098 1_565
O15 P1 1.557221 1_555
O16 P3 1.561405 1_555
O17 P1 1.559098 1_555
O18 P4 1.557221 1_555
O19 P5 1.557221 1_555
O20 P3 1.557221 1_555
O21 P3 1.559098 1_555
O22 P5 1.561405 1_555
O23 P2 1.557221 1_555
