# generated using pymatgen
data_VHO3
_symmetry_space_group_name_H-M   'P 1'
_cell_length_a   6.22394616
_cell_length_b   6.22394616
_cell_length_c   11.56316317
_cell_angle_alpha   85.93012148
_cell_angle_beta   85.93012148
_cell_angle_gamma   34.61632975
_symmetry_Int_Tables_number   1
_chemical_formula_structural   VHO3
_chemical_formula_sum   'V4 H4 O12'
_cell_volume   253.75416024
_cell_formula_units_Z   4
loop_
 _symmetry_equiv_pos_site_id
 _symmetry_equiv_pos_as_xyz
  1  'x, y, z'
loop_
 _atom_site_type_symbol
 _atom_site_label
 _atom_site_symmetry_multiplicity
 _atom_site_fract_x
 _atom_site_fract_y
 _atom_site_fract_z
 _atom_site_occupancy
  V  V0  1  0.07988600  0.07988600  0.87246400  1
  V  V1  1  0.92315200  0.92315200  0.12955000  1
  V  V2  1  0.78111100  0.78111100  0.87088700  1
  V  V3  1  0.22065400  0.22065400  0.12688800  1
  H  H0  1  0.14255500  0.14255500  0.65511200  1
  H  H1  1  0.37925000  0.37925000  0.41038400  1
  H  H2  1  0.47687300  0.47687300  0.49470800  1
  H  H3  1  0.66558400  0.66558400  0.44812800  1
  O  O0  1  0.60731900  0.60731900  0.90064400  1
  O  O1  1  0.39065100  0.39065100  0.10327900  1
  O  O2  1  0.92362900  0.92362900  0.91524400  1
  O  O3  1  0.07407200  0.07407200  0.08386100  1
  O  O4  1  0.24364400  0.24364400  0.91178400  1
  O  O5  1  0.75571000  0.75571000  0.09436600  1
  O  O6  1  0.08799400  0.08799400  0.72316700  1
  O  O7  1  0.91627300  0.91627300  0.26872700  1
  O  O8  1  0.79448700  0.79448700  0.73289000  1
  O  O9  1  0.20430100  0.20430100  0.26551500  1
  O  O10  1  0.39215100  0.39215100  0.49226400  1
  O  O11  1  0.60957600  0.60957600  0.51451000  1
loop_
_geom_bond_atom_site_label_1
_geom_bond_atom_site_label_2
_geom_bond_distance
_geom_bond_site_symmetry_2
H0 O6 0.981753 1_555
H1 O10 0.970311 1_555
H2 O10 1.009350 1_555
H2 O11 1.610366 1_555
H3 O11 0.977888 1_555
O0 V0 1.912335 1_565
O0 V0 1.912335 1_655
O0 V2 2.068465 1_555
O1 V1 1.920332 1_455
O1 V1 1.920332 1_545
O1 V3 2.018433 1_555
O2 V2 1.805799 1_555
O2 V0 1.885882 1_665
O2 V1 2.477640 1_556
O3 V1 1.831698 1_445
O3 V3 1.846892 1_555
O3 V0 2.440255 1_554
O4 V2 1.954316 1_545
O4 V2 1.954316 1_455
O4 V0 2.031189 1_555
O4 V3 2.481972 1_556
O5 V3 1.928848 1_655
O5 V3 1.928848 1_565
O5 V1 2.060501 1_555
O6 V0 1.721866 1_555
O7 V1 1.605320 1_555
O8 V2 1.591778 1_555
O9 V3 1.600298 1_555
