# generated using pymatgen
data_Ba2TmCu3O7
_symmetry_space_group_name_H-M   'P 1'
_cell_length_a   3.82193800
_cell_length_b   3.92593400
_cell_length_c   11.73833000
_cell_angle_alpha   90.00000000
_cell_angle_beta   90.00000000
_cell_angle_gamma   90.00000000
_symmetry_Int_Tables_number   1
_chemical_formula_structural   Ba2TmCu3O7
_chemical_formula_sum   'Ba2 Tm1 Cu3 O7'
_cell_volume   176.12984242
_cell_formula_units_Z   1
loop_
 _symmetry_equiv_pos_site_id
 _symmetry_equiv_pos_as_xyz
  1  'x, y, z'
loop_
 _atom_site_type_symbol
 _atom_site_label
 _atom_site_symmetry_multiplicity
 _atom_site_fract_x
 _atom_site_fract_y
 _atom_site_fract_z
 _atom_site_occupancy
  Ba  Ba0  1  0.50000000  0.00000000  0.18187200  1
  Ba  Ba1  1  0.50000000  0.00000000  0.81812800  1
  Tm  Tm0  1  0.50000000  0.00000000  0.50000000  1
  Cu  Cu0  1  0.00000000  0.50000000  0.64420500  1
  Cu  Cu1  1  0.00000000  0.50000000  0.35579500  1
  Cu  Cu2  1  0.00000000  0.50000000  0.00000000  1
  O  O0  1  0.50000000  0.50000000  0.38248500  1
  O  O1  1  0.00000000  0.50000000  0.83827800  1
  O  O2  1  0.50000000  0.50000000  0.61751500  1
  O  O3  1  0.00000000  0.00000000  0.38065900  1
  O  O4  1  0.00000000  0.00000000  0.61934100  1
  O  O5  1  0.00000000  0.50000000  0.16172200  1
  O  O6  1  0.00000000  0.00000000  0.00000000  1
loop_
_geom_bond_atom_site_label_1
_geom_bond_atom_site_label_2
_geom_bond_distance
_geom_bond_site_symmetry_2
Ba0 O5 2.749725 1_555
Ba0 O5 2.749725 1_645
Ba0 O5 2.749725 1_655
Ba0 O5 2.749725 1_545
Ba0 O6 2.865220 1_555
Ba0 O6 2.865220 1_655
Ba0 O3 3.016071 1_655
Ba0 O3 3.016071 1_555
Ba0 O0 3.065716 1_545
Ba0 O0 3.065716 1_555
Ba1 O1 2.749725 1_645
Ba1 O1 2.749725 1_655
Ba1 O1 2.749725 1_545
Ba1 O1 2.749725 1_555
Ba1 O6 2.865220 1_656
Ba1 O6 2.865220 1_556
Ba1 O4 3.016071 1_655
Ba1 O4 3.016071 1_555
Ba1 O2 3.065716 1_555
Ba1 O2 3.065716 1_545
Cu0 O2 1.936481 1_455
Cu0 O2 1.936481 1_555
Cu0 O4 1.984546 1_565
Cu0 O4 1.984546 1_555
Cu0 O1 2.278093 1_555
Cu1 O0 1.936481 1_455
Cu1 O0 1.936481 1_555
Cu1 O3 1.984546 1_565
Cu1 O3 1.984546 1_555
Cu1 O5 2.278093 1_555
Cu2 O5 1.898346 1_555
Cu2 O1 1.898346 1_554
Cu2 O6 1.962967 1_565
Cu2 O6 1.962967 1_555
O0 Tm0 2.399180 1_555
O0 Tm0 2.399180 1_565
O2 Tm0 2.399180 1_555
O2 Tm0 2.399180 1_565
O3 Tm0 2.369435 1_455
O3 Tm0 2.369435 1_555
O4 Tm0 2.369435 1_555
O4 Tm0 2.369435 1_455
