# generated using pymatgen
data_MnFeBiO5
_symmetry_space_group_name_H-M   'P 1'
_cell_length_a   5.97600900
_cell_length_b   7.59124500
_cell_length_c   8.66831700
_cell_angle_alpha   90.00000000
_cell_angle_beta   90.00000000
_cell_angle_gamma   90.00000000
_symmetry_Int_Tables_number   1
_chemical_formula_structural   MnFeBiO5
_chemical_formula_sum   'Mn4 Fe4 Bi4 O20'
_cell_volume   393.24122110
_cell_formula_units_Z   4
loop_
 _symmetry_equiv_pos_site_id
 _symmetry_equiv_pos_as_xyz
  1  'x, y, z'
loop_
 _atom_site_type_symbol
 _atom_site_label
 _atom_site_symmetry_multiplicity
 _atom_site_fract_x
 _atom_site_fract_y
 _atom_site_fract_z
 _atom_site_occupancy
  Mn  Mn0  1  0.50000000  0.89622000  0.14531900  1
  Mn  Mn1  1  0.50000000  0.60378000  0.64531900  1
  Mn  Mn2  1  0.50000000  0.39622000  0.35468100  1
  Mn  Mn3  1  0.50000000  0.10378000  0.85468100  1
  Fe  Fe0  1  0.74352200  0.50000000  0.00000000  1
  Fe  Fe1  1  0.25647800  0.50000000  0.00000000  1
  Fe  Fe2  1  0.74352200  0.00000000  0.50000000  1
  Fe  Fe3  1  0.25647800  0.00000000  0.50000000  1
  Bi  Bi0  1  0.00000000  0.83884900  0.82999600  1
  Bi  Bi1  1  0.00000000  0.33884900  0.67000400  1
  Bi  Bi2  1  0.00000000  0.16115100  0.17000400  1
  Bi  Bi3  1  0.00000000  0.66115100  0.32999600  1
  O  O0  1  0.50000000  0.65638200  0.08066500  1
  O  O1  1  0.00000000  0.16252600  0.44391700  1
  O  O2  1  0.25563500  0.88247900  0.29238300  1
  O  O3  1  0.71004200  0.00000000  0.00000000  1
  O  O4  1  0.74436500  0.61752100  0.79238300  1
  O  O5  1  0.74436500  0.11752100  0.70761700  1
  O  O6  1  0.50000000  0.34361800  0.91933500  1
  O  O7  1  0.28995800  0.50000000  0.50000000  1
  O  O8  1  0.00000000  0.83747400  0.55608300  1
  O  O9  1  0.25563500  0.11752100  0.70761700  1
  O  O10  1  0.00000000  0.66252600  0.05608300  1
  O  O11  1  0.74436500  0.38247900  0.20761700  1
  O  O12  1  0.74436500  0.88247900  0.29238300  1
  O  O13  1  0.25563500  0.61752100  0.79238300  1
  O  O14  1  0.28995800  0.00000000  0.00000000  1
  O  O15  1  0.50000000  0.84361800  0.58066500  1
  O  O16  1  0.50000000  0.15638200  0.41933500  1
  O  O17  1  0.71004200  0.50000000  0.50000000  1
  O  O18  1  0.25563500  0.38247900  0.20761700  1
  O  O19  1  0.00000000  0.33747400  0.94391700  1
loop_
_geom_bond_atom_site_label_1
_geom_bond_atom_site_label_2
_geom_bond_distance
_geom_bond_site_symmetry_2
Mn0 O0 1.904975 1_555
Mn0 O12 1.941274 1_555
Mn0 O2 1.941274 1_555
Mn0 O3 1.944991 1_565
Mn0 O14 1.944991 1_565
Mn1 O15 1.904975 1_555
Mn1 O4 1.941274 1_555
Mn1 O13 1.941274 1_555
Mn1 O17 1.944991 1_555
Mn1 O7 1.944991 1_555
Mn2 O16 1.904975 1_555
Mn2 O11 1.941274 1_555
Mn2 O18 1.941274 1_555
Mn2 O17 1.944991 1_555
Mn2 O7 1.944991 1_555
Mn3 O6 1.904975 1_555
Mn3 O5 1.941274 1_555
Mn3 O9 1.941274 1_555
Mn3 O3 1.944991 1_556
Mn3 O14 1.944991 1_556
Fe0 O0 2.004015 1_555
Fe0 O6 2.004015 1_554
Fe0 O4 2.008683 1_554
Fe0 O11 2.008683 1_555
Fe0 O10 2.026759 1_655
Fe0 O19 2.026759 1_654
Fe1 O0 2.004015 1_555
Fe1 O6 2.004015 1_554
Fe1 O13 2.008683 1_554
Fe1 O18 2.008683 1_555
Fe1 O10 2.026759 1_555
Fe1 O19 2.026759 1_554
Fe2 O15 2.004015 1_545
Fe2 O16 2.004015 1_555
Fe2 O5 2.008683 1_555
Fe2 O12 2.008683 1_545
Fe2 O1 2.026759 1_655
Fe2 O8 2.026759 1_645
Fe3 O15 2.004015 1_545
Fe3 O16 2.004015 1_555
Fe3 O9 2.008683 1_555
Fe3 O2 2.008683 1_545
Fe3 O1 2.026759 1_555
Fe3 O8 2.026759 1_545
Bi0 O13 2.294128 1_555
Bi0 O4 2.294128 1_455
Bi0 O10 2.373269 1_556
Bi0 O8 2.374388 1_555
Bi0 O3 2.582781 1_466
Bi0 O14 2.582781 1_566
Bi0 O9 2.816796 1_565
Bi0 O5 2.816796 1_465
Bi1 O9 2.294128 1_555
Bi1 O5 2.294128 1_455
Bi1 O1 2.373269 1_555
Bi1 O19 2.374388 1_555
Bi1 O17 2.582781 1_455
Bi1 O7 2.582781 1_555
Bi1 O13 2.816796 1_555
Bi1 O4 2.816796 1_455
Bi2 O18 2.294128 1_555
Bi2 O11 2.294128 1_455
Bi2 O19 2.373269 1_554
Bi2 O1 2.374388 1_555
Bi2 O14 2.582781 1_555
Bi2 O3 2.582781 1_455
Bi2 O2 2.816796 1_545
Bi2 O12 2.816796 1_445
Bi3 O2 2.294128 1_555
Bi3 O12 2.294128 1_455
Bi3 O8 2.373269 1_555
Bi3 O10 2.374388 1_555
Bi3 O7 2.582781 1_555
Bi3 O17 2.582781 1_455
Bi3 O18 2.816796 1_555
Bi3 O11 2.816796 1_455
