# generated using pymatgen
data_Na3MgC2BrO6
_symmetry_space_group_name_H-M   'P 1'
_cell_length_a   10.19036190
_cell_length_b   10.19036190
_cell_length_c   10.19036190
_cell_angle_alpha   60.00000000
_cell_angle_beta   60.00000000
_cell_angle_gamma   60.00000000
_symmetry_Int_Tables_number   1
_chemical_formula_structural   Na3MgC2BrO6
_chemical_formula_sum   'Na12 Mg4 C8 Br4 O24'
_cell_volume   748.26223212
_cell_formula_units_Z   4
loop_
 _symmetry_equiv_pos_site_id
 _symmetry_equiv_pos_as_xyz
  1  'x, y, z'
loop_
 _atom_site_type_symbol
 _atom_site_label
 _atom_site_symmetry_multiplicity
 _atom_site_fract_x
 _atom_site_fract_y
 _atom_site_fract_z
 _atom_site_occupancy
  Na  Na0  1  0.99008500  0.50991500  0.50991500  1
  Na  Na1  1  0.25991500  0.74008500  0.25991500  1
  Na  Na2  1  0.74008500  0.25991500  0.74008500  1
  Na  Na3  1  0.99008500  0.99008500  0.50991500  1
  Na  Na4  1  0.99008500  0.50991500  0.99008500  1
  Na  Na5  1  0.25991500  0.74008500  0.74008500  1
  Na  Na6  1  0.50991500  0.99008500  0.99008500  1
  Na  Na7  1  0.74008500  0.25991500  0.25991500  1
  Na  Na8  1  0.50991500  0.99008500  0.50991500  1
  Na  Na9  1  0.25991500  0.25991500  0.74008500  1
  Na  Na10  1  0.74008500  0.74008500  0.25991500  1
  Na  Na11  1  0.50991500  0.50991500  0.99008500  1
  Mg  Mg0  1  0.12500000  0.12500000  0.62500000  1
  Mg  Mg1  1  0.12500000  0.12500000  0.12500000  1
  Mg  Mg2  1  0.62500000  0.12500000  0.12500000  1
  Mg  Mg3  1  0.12500000  0.62500000  0.12500000  1
  C  C0  1  0.90890000  0.90890000  0.90890000  1
  C  C1  1  0.27330000  0.90890000  0.90890000  1
  C  C2  1  0.90890000  0.27330000  0.90890000  1
  C  C3  1  0.34110000  0.34110000  0.34110000  1
  C  C4  1  0.34110000  0.34110000  0.97670000  1
  C  C5  1  0.34110000  0.97670000  0.34110000  1
  C  C6  1  0.90890000  0.90890000  0.27330000  1
  C  C7  1  0.97670000  0.34110000  0.34110000  1
  Br  Br0  1  0.62500000  0.62500000  0.12500000  1
  Br  Br1  1  0.12500000  0.62500000  0.62500000  1
  Br  Br2  1  0.62500000  0.62500000  0.62500000  1
  Br  Br3  1  0.62500000  0.12500000  0.62500000  1
  O  O0  1  0.76131700  0.27515300  0.98176500  1
  O  O1  1  0.48868300  0.97484700  0.26823500  1
  O  O2  1  0.98176500  0.76131700  0.98176500  1
  O  O3  1  0.48868300  0.26823500  0.26823500  1
  O  O4  1  0.76131700  0.98176500  0.98176500  1
  O  O5  1  0.26823500  0.97484700  0.26823500  1
  O  O6  1  0.26823500  0.26823500  0.48868300  1
  O  O7  1  0.26823500  0.48868300  0.26823500  1
  O  O8  1  0.98176500  0.98176500  0.76131700  1
  O  O9  1  0.26823500  0.97484700  0.48868300  1
  O  O10  1  0.97484700  0.26823500  0.48868300  1
  O  O11  1  0.97484700  0.48868300  0.26823500  1
  O  O12  1  0.26823500  0.48868300  0.97484700  1
  O  O13  1  0.98176500  0.27515300  0.76131700  1
  O  O14  1  0.98176500  0.98176500  0.27515300  1
  O  O15  1  0.26823500  0.26823500  0.97484700  1
  O  O16  1  0.76131700  0.98176500  0.27515300  1
  O  O17  1  0.27515300  0.76131700  0.98176500  1
  O  O18  1  0.27515300  0.98176500  0.98176500  1
  O  O19  1  0.48868300  0.26823500  0.97484700  1
  O  O20  1  0.27515300  0.98176500  0.76131700  1
  O  O21  1  0.98176500  0.76131700  0.27515300  1
  O  O22  1  0.98176500  0.27515300  0.98176500  1
  O  O23  1  0.97484700  0.26823500  0.26823500  1
loop_
_geom_bond_atom_site_label_1
_geom_bond_atom_site_label_2
_geom_bond_distance
_geom_bond_site_symmetry_2
Na0 O13 2.479994 1_555
Na0 O21 2.479994 1_555
Na0 O6 2.661808 1_655
Na0 O7 2.661808 1_655
Na0 O11 2.661808 1_555
Na0 O10 2.661808 1_555
Na1 O7 2.479994 1_555
Na1 O5 2.479994 1_555
Na1 O14 2.661808 1_455
Na1 O21 2.661808 1_455
Na1 O17 2.661808 1_554
Na1 O18 2.661808 1_554
Na2 O10 2.479994 1_555
Na2 O19 2.479994 1_555
Na2 O0 2.661808 1_555
Na2 O13 2.661808 1_555
Na2 O4 2.661808 1_545
Na2 O8 2.661808 1_545
Na3 O8 2.479994 1_555
Na3 O14 2.479994 1_555
Na3 O5 2.661808 1_655
Na3 O9 2.661808 1_655
Na3 O10 2.661808 1_565
Na3 O23 2.661808 1_565
Na4 O22 2.479994 1_555
Na4 O2 2.479994 1_555
Na4 O15 2.661808 1_655
Na4 O12 2.661808 1_655
Na4 O23 2.661808 1_556
Na4 O11 2.661808 1_556
Na5 O9 2.479994 1_555
Na5 O12 2.479994 1_555
Na5 O8 2.661808 1_455
Na5 O2 2.661808 1_455
Na5 O20 2.661808 1_555
Na5 O17 2.661808 1_555
Na6 O4 2.479994 1_555
Na6 O18 2.479994 1_555
Na6 O15 2.661808 1_565
Na6 O19 2.661808 1_565
Na6 O1 2.661808 1_556
Na6 O5 2.661808 1_556
Na7 O23 2.479994 1_555
Na7 O3 2.479994 1_555
Na7 O14 2.661808 1_545
Na7 O16 2.661808 1_545
Na7 O22 2.661808 1_554
Na7 O0 2.661808 1_554
Na8 O20 2.479994 1_555
Na8 O16 2.479994 1_555
Na8 O1 2.661808 1_555
Na8 O6 2.661808 1_565
Na8 O3 2.661808 1_565
Na8 O9 2.661808 1_555
Na9 O6 2.479994 1_555
Na9 O15 2.479994 1_555
Na9 O22 2.661808 1_455
Na9 O13 2.661808 1_455
Na9 O18 2.661808 1_545
Na9 O20 2.661808 1_545
Na10 O1 2.479994 1_555
Na10 O11 2.479994 1_555
Na10 O4 2.661808 1_554
Na10 O2 2.661808 1_554
Na10 O16 2.661808 1_555
Na10 O21 2.661808 1_555
Na11 O0 2.479994 1_555
Na11 O17 2.479994 1_555
Na11 O19 2.661808 1_555
Na11 O12 2.661808 1_555
Na11 O3 2.661808 1_556
Na11 O7 2.661808 1_556
Mg0 O20 2.065413 1_545
Mg0 O10 2.065413 1_455
Mg0 O8 2.065413 1_445
Mg0 O13 2.065413 1_455
Mg0 O9 2.065413 1_545
Mg0 O6 2.065413 1_555
Mg1 O5 2.065413 1_545
Mg1 O23 2.065413 1_455
Mg1 O18 2.065413 1_544
Mg1 O15 2.065413 1_554
Mg1 O22 2.065413 1_454
Mg1 O14 2.065413 1_445
Mg2 O19 2.065413 1_554
Mg2 O3 2.065413 1_555
Mg2 O0 2.065413 1_554
Mg2 O1 2.065413 1_545
Mg2 O4 2.065413 1_544
Mg2 O16 2.065413 1_545
Mg3 O2 2.065413 1_454
Mg3 O12 2.065413 1_554
Mg3 O7 2.065413 1_555
Mg3 O11 2.065413 1_455
Mg3 O17 2.065413 1_554
Mg3 O21 2.065413 1_455
C0 O8 1.297077 1_555
C0 O2 1.297077 1_555
C0 O4 1.297077 1_555
C1 O18 1.297077 1_555
C1 O17 1.297077 1_555
C1 O20 1.297077 1_555
C2 O22 1.297077 1_555
C2 O13 1.297077 1_555
C2 O0 1.297077 1_555
C3 O7 1.297077 1_555
C3 O6 1.297077 1_555
C3 O3 1.297077 1_555
C4 O12 1.297077 1_555
C4 O19 1.297077 1_555
C4 O15 1.297077 1_555
C5 O9 1.297077 1_555
C5 O1 1.297077 1_555
C5 O5 1.297077 1_555
C6 O14 1.297077 1_555
C6 O16 1.297077 1_555
C6 O21 1.297077 1_555
C7 O10 1.297077 1_555
C7 O11 1.297077 1_555
C7 O23 1.297077 1_555
Br0 Na6 3.039891 1_554
Br0 Na10 3.039891 1_555
Br0 Na11 3.039891 1_554
Br0 Na7 3.039891 1_555
Br0 Na1 3.039891 1_555
Br0 Na4 3.039891 1_554
Br1 Na1 3.039891 1_555
Br1 Na3 3.039891 1_455
Br1 Na0 3.039891 1_455
Br1 Na5 3.039891 1_555
Br1 Na9 3.039891 1_555
Br1 Na4 3.039891 1_455
Br2 Na2 3.039891 1_555
Br2 Na11 3.039891 1_555
Br2 Na8 3.039891 1_555
Br2 Na10 3.039891 1_555
Br2 Na0 3.039891 1_555
Br2 Na5 3.039891 1_555
Br3 Na2 3.039891 1_555
Br3 Na6 3.039891 1_545
Br3 Na8 3.039891 1_545
Br3 Na7 3.039891 1_555
Br3 Na3 3.039891 1_545
Br3 Na9 3.039891 1_555
