# generated using pymatgen
data_GdFe3(BO3)4
_symmetry_space_group_name_H-M   'P 1'
_cell_length_a   6.00174764
_cell_length_b   6.00174764
_cell_length_c   6.00174688
_cell_angle_alpha   104.19927672
_cell_angle_beta   104.19927672
_cell_angle_gamma   104.19926812
_symmetry_Int_Tables_number   1
_chemical_formula_structural   GdFe3(BO3)4
_chemical_formula_sum   'Gd1 Fe3 B4 O12'
_cell_volume   192.14941394
_cell_formula_units_Z   1
loop_
 _symmetry_equiv_pos_site_id
 _symmetry_equiv_pos_as_xyz
  1  'x, y, z'
loop_
 _atom_site_type_symbol
 _atom_site_label
 _atom_site_symmetry_multiplicity
 _atom_site_fract_x
 _atom_site_fract_y
 _atom_site_fract_z
 _atom_site_occupancy
  Gd  Gd0  1  0.00000000  0.00000000  0.00000000  1
  Fe  Fe0  1  0.55696900  0.00000000  0.44303100  1
  Fe  Fe1  1  0.44303100  0.55696900  0.00000000  1
  Fe  Fe2  1  0.00000000  0.44303100  0.55696900  1
  B  B0  1  0.50000000  0.05949900  0.94050100  1
  B  B1  1  0.05949900  0.94050100  0.50000000  1
  B  B2  1  0.94050100  0.50000000  0.05949900  1
  B  B3  1  0.50000000  0.50000000  0.50000000  1
  O  O0  1  0.08776100  0.50000000  0.91223900  1
  O  O1  1  0.62856500  0.02857800  0.78244000  1
  O  O2  1  0.35336200  0.50000000  0.64663800  1
  O  O3  1  0.37143500  0.21756000  0.97142200  1
  O  O4  1  0.50000000  0.64663800  0.35336200  1
  O  O5  1  0.50000000  0.91223900  0.08776100  1
  O  O6  1  0.97142200  0.37143500  0.21756000  1
  O  O7  1  0.64663800  0.35336200  0.50000000  1
  O  O8  1  0.78244000  0.62856500  0.02857800  1
  O  O9  1  0.21756000  0.97142200  0.37143500  1
  O  O10  1  0.02857800  0.78244000  0.62856500  1
  O  O11  1  0.91223900  0.08776100  0.50000000  1
loop_
_geom_bond_atom_site_label_1
_geom_bond_atom_site_label_2
_geom_bond_distance
_geom_bond_site_symmetry_2
Gd0 O9 2.360804 1_545
Gd0 O10 2.360804 1_544
Gd0 O6 2.360805 1_455
Gd0 O1 2.360805 1_454
Gd0 O3 2.360805 1_554
Gd0 O8 2.360805 1_445
Fe0 O1 1.930449 1_555
Fe0 O9 1.930449 1_545
Fe0 O4 1.974420 1_545
Fe0 O7 1.974420 1_555
Fe0 O5 1.985900 1_545
Fe0 O11 1.985900 1_555
Fe1 O3 1.930449 1_554
Fe1 O8 1.930449 1_555
Fe1 O4 1.974420 1_555
Fe1 O2 1.974420 1_554
Fe1 O5 1.985900 1_555
Fe1 O0 1.985900 1_554
Fe2 O6 1.930449 1_455
Fe2 O10 1.930449 1_555
Fe2 O2 1.974420 1_555
Fe2 O7 1.974420 1_455
Fe2 O0 1.985900 1_555
Fe2 O11 1.985900 1_455
B0 O1 1.368481 1_555
B0 O3 1.368481 1_555
B0 O5 1.394805 1_546
B1 O10 1.368481 1_555
B1 O9 1.368481 1_555
B1 O11 1.394805 1_465
B2 O6 1.368481 1_555
B2 O8 1.368481 1_555
B2 O0 1.394805 1_654
B3 O4 1.388914 1_555
B3 O2 1.388914 1_555
B3 O7 1.388914 1_555
