# generated using pymatgen
data_BaLaMnRuO6
_symmetry_space_group_name_H-M   'P 1'
_cell_length_a   5.77729700
_cell_length_b   5.78197600
_cell_length_c   8.11191857
_cell_angle_alpha   89.36411890
_cell_angle_beta   90.00000000
_cell_angle_gamma   90.00000000
_symmetry_Int_Tables_number   1
_chemical_formula_structural   BaLaMnRuO6
_chemical_formula_sum   'Ba2 La2 Mn2 Ru2 O12'
_cell_volume   270.95540253
_cell_formula_units_Z   2
loop_
 _symmetry_equiv_pos_site_id
 _symmetry_equiv_pos_as_xyz
  1  'x, y, z'
loop_
 _atom_site_type_symbol
 _atom_site_label
 _atom_site_symmetry_multiplicity
 _atom_site_fract_x
 _atom_site_fract_y
 _atom_site_fract_z
 _atom_site_occupancy
  Ba  Ba0  1  0.24853900  0.50033900  0.24910200  1
  Ba  Ba1  1  0.75146100  0.00033900  0.74910200  1
  La  La0  1  0.73920000  0.01815500  0.24914000  1
  La  La1  1  0.26080000  0.51815500  0.74914000  1
  Mn  Mn0  1  0.75257500  0.50452400  0.49704300  1
  Mn  Mn1  1  0.24742500  0.00452400  0.99704300  1
  Ru  Ru0  1  0.75044600  0.49938300  0.99901900  1
  Ru  Ru1  1  0.24955400  0.99938300  0.49901900  1
  O  O0  1  0.74039100  0.45323500  0.75958100  1
  O  O1  1  0.48059000  0.74599400  0.54166000  1
  O  O2  1  0.49204300  0.72483800  0.96266700  1
  O  O3  1  0.50795700  0.22483800  0.46266700  1
  O  O4  1  0.51941000  0.24599400  0.04166000  1
  O  O5  1  0.25960900  0.95323500  0.25958100  1
  O  O6  1  0.24899200  0.09726900  0.73902400  1
  O  O7  1  0.01392400  0.71655400  0.95913000  1
  O  O8  1  0.02620000  0.73971000  0.54363400  1
  O  O9  1  0.97380000  0.23971000  0.04363400  1
  O  O10  1  0.98607600  0.21655400  0.45913000  1
  O  O11  1  0.75100800  0.59726900  0.23902400  1
loop_
_geom_bond_atom_site_label_1
_geom_bond_atom_site_label_2
_geom_bond_distance
_geom_bond_site_symmetry_2
Ba0 O5 2.621736 1_555
Ba0 O4 2.738287 1_555
Ba0 O9 2.761165 1_455
Ba0 O3 2.779154 1_555
Ba0 O10 2.798614 1_455
Ba0 O11 2.929480 1_455
Ba0 O11 2.957477 1_555
Ba0 O7 2.977886 1_554
Ba0 O2 2.999314 1_554
Ba0 O8 3.057338 1_555
Ba0 O1 3.085720 1_555
Ba0 O5 3.164187 1_545
Ba1 O0 2.621736 1_555
Ba1 O1 2.738287 1_545
Ba1 O8 2.761165 1_645
Ba1 O2 2.779154 1_545
Ba1 O7 2.798614 1_645
Ba1 O6 2.929480 1_655
Ba1 O6 2.957477 1_555
Ba1 O10 2.977886 1_555
Ba1 O3 2.999314 1_555
Ba1 O9 3.057338 1_556
Ba1 O4 3.085720 1_556
Ba1 O0 3.164187 1_545
La0 O11 2.436801 1_545
La0 O4 2.476144 1_555
La0 O9 2.491919 1_555
La0 O3 2.501812 1_555
La0 O10 2.509025 1_555
La0 O5 2.797207 1_545
La0 O5 3.030966 1_645
La0 O2 3.225350 1_544
La1 O6 2.436801 1_555
La1 O1 2.476144 1_555
La1 O8 2.491919 1_555
La1 O2 2.501812 1_555
La1 O7 2.509025 1_555
La1 O0 2.797207 1_555
La1 O0 3.030966 1_455
La1 O3 3.225350 1_555
Mn0 O8 2.121882 1_655
Mn0 O1 2.135559 1_555
Mn0 O0 2.148126 1_555
Mn0 O11 2.154879 1_555
Mn0 O10 2.167512 1_555
Mn0 O3 2.167977 1_555
Mn1 O9 2.121882 1_456
Mn1 O4 2.135559 1_556
Mn1 O5 2.148126 1_546
Mn1 O6 2.154879 1_555
Mn1 O7 2.167512 1_545
Mn1 O2 2.167977 1_545
O0 Ru0 1.964334 1_555
O1 Ru1 2.009099 1_555
O2 Ru0 2.001599 1_555
O3 Ru1 2.001599 1_545
O4 Ru0 2.009099 1_554
O5 Ru1 1.964334 1_555
O6 Ru1 2.033524 1_545
O7 Ru0 1.997367 1_455
O8 Ru1 2.009547 1_555
O9 Ru0 2.009547 1_554
O10 Ru1 1.997367 1_645
O11 Ru0 2.033524 1_554
