# generated using pymatgen
data_Dy2Zr8O19
_symmetry_space_group_name_H-M   'P 1'
_cell_length_a   3.64358900
_cell_length_b   3.64358900
_cell_length_c   25.73805800
_cell_angle_alpha   90.00000000
_cell_angle_beta   90.00000000
_cell_angle_gamma   90.00000000
_symmetry_Int_Tables_number   1
_chemical_formula_structural   Dy2Zr8O19
_chemical_formula_sum   'Dy2 Zr8 O19'
_cell_volume   341.69178673
_cell_formula_units_Z   1
loop_
 _symmetry_equiv_pos_site_id
 _symmetry_equiv_pos_as_xyz
  1  'x, y, z'
loop_
 _atom_site_type_symbol
 _atom_site_label
 _atom_site_symmetry_multiplicity
 _atom_site_fract_x
 _atom_site_fract_y
 _atom_site_fract_z
 _atom_site_occupancy
  Dy  Dy0  1  0.50000000  0.00000000  0.94358300  1
  Dy  Dy1  1  0.00000000  0.50000000  0.05641700  1
  Zr  Zr0  1  0.50000000  0.00000000  0.15277900  1
  Zr  Zr1  1  0.00000000  0.50000000  0.25197700  1
  Zr  Zr2  1  0.50000000  0.00000000  0.35109700  1
  Zr  Zr3  1  0.00000000  0.50000000  0.45030700  1
  Zr  Zr4  1  0.50000000  0.00000000  0.54969300  1
  Zr  Zr5  1  0.50000000  0.00000000  0.74802300  1
  Zr  Zr6  1  0.00000000  0.50000000  0.64890300  1
  Zr  Zr7  1  0.00000000  0.50000000  0.84722100  1
  O  O0  1  0.50000000  0.50000000  0.19702600  1
  O  O1  1  0.00000000  0.00000000  0.30544600  1
  O  O2  1  0.50000000  0.50000000  0.39822800  1
  O  O3  1  0.00000000  0.00000000  0.50000000  1
  O  O4  1  0.50000000  0.50000000  0.60177200  1
  O  O5  1  0.00000000  0.00000000  0.69455400  1
  O  O6  1  0.50000000  0.50000000  0.80297400  1
  O  O7  1  0.00000000  0.00000000  0.79262100  1
  O  O8  1  0.00000000  0.00000000  0.89103900  1
  O  O9  1  0.50000000  0.50000000  0.90247200  1
  O  O10  1  0.00000000  0.00000000  0.00000000  1
  O  O11  1  0.00000000  0.00000000  0.10896100  1
  O  O12  1  0.50000000  0.50000000  0.09752800  1
  O  O13  1  0.00000000  0.00000000  0.20737900  1
  O  O14  1  0.50000000  0.50000000  0.29734200  1
  O  O15  1  0.00000000  0.00000000  0.40282500  1
  O  O16  1  0.50000000  0.50000000  0.50000000  1
  O  O17  1  0.00000000  0.00000000  0.59717500  1
  O  O18  1  0.50000000  0.50000000  0.70265800  1
loop_
_geom_bond_atom_site_label_1
_geom_bond_atom_site_label_2
_geom_bond_distance
_geom_bond_site_symmetry_2
Dy0 O9 2.106786 1_555
Dy0 O9 2.106786 1_545
Dy0 O8 2.268891 1_655
Dy0 O8 2.268891 1_555
Dy0 O10 2.329683 1_656
Dy0 O10 2.329683 1_556
Dy1 O12 2.106786 1_555
Dy1 O12 2.106786 1_455
Dy1 O11 2.268891 1_555
Dy1 O11 2.268891 1_565
Dy1 O10 2.329683 1_555
Dy1 O10 2.329683 1_565
O0 Zr0 2.148458 1_555
O0 Zr0 2.148458 1_565
O0 Zr1 2.306354 1_655
O0 Zr1 2.306354 1_555
O1 Zr2 2.167830 1_455
O1 Zr2 2.167830 1_555
O1 Zr1 2.283162 1_555
O1 Zr1 2.283162 1_545
O2 Zr2 2.188710 1_555
O2 Zr2 2.188710 1_565
O2 Zr3 2.261778 1_655
O2 Zr3 2.261778 1_555
O3 Zr4 2.225933 1_555
O3 Zr4 2.225933 1_455
O3 Zr3 2.225933 1_545
O3 Zr3 2.225933 1_555
O4 Zr6 2.188710 1_655
O4 Zr6 2.188710 1_555
O4 Zr4 2.261778 1_565
O4 Zr4 2.261778 1_555
O5 Zr6 2.167830 1_555
O5 Zr6 2.167830 1_545
O5 Zr5 2.283162 1_555
O5 Zr5 2.283162 1_455
O6 Zr7 2.148458 1_555
O6 Zr7 2.148458 1_655
O6 Zr5 2.306354 1_555
O6 Zr5 2.306354 1_565
O7 Zr5 2.153261 1_455
O7 Zr5 2.153261 1_555
O7 Zr7 2.300825 1_555
O7 Zr7 2.300825 1_545
O8 Zr7 2.142626 1_555
O8 Zr7 2.142626 1_545
O9 Zr7 2.311097 1_555
O9 Zr7 2.311097 1_655
O11 Zr0 2.142626 1_555
O11 Zr0 2.142626 1_455
O12 Zr0 2.311097 1_565
O12 Zr0 2.311097 1_555
O13 Zr1 2.153261 1_555
O13 Zr1 2.153261 1_545
O13 Zr0 2.300825 1_555
O13 Zr0 2.300825 1_455
O14 Zr1 2.163849 1_555
O14 Zr1 2.163849 1_655
O14 Zr2 2.287607 1_565
O14 Zr2 2.287607 1_555
O15 Zr3 2.193730 1_555
O15 Zr3 2.193730 1_545
O15 Zr2 2.256436 1_555
O15 Zr2 2.256436 1_455
O16 Zr4 2.225933 1_555
O16 Zr4 2.225933 1_565
O16 Zr3 2.225933 1_555
O16 Zr3 2.225933 1_655
O17 Zr4 2.193730 1_555
O17 Zr4 2.193730 1_455
O17 Zr6 2.256436 1_545
O17 Zr6 2.256436 1_555
O18 Zr5 2.163849 1_555
O18 Zr5 2.163849 1_565
O18 Zr6 2.287607 1_655
O18 Zr6 2.287607 1_555
