# generated using pymatgen
data_SiO2
_symmetry_space_group_name_H-M   'P 1'
_cell_length_a   13.81934545
_cell_length_b   6.91058365
_cell_length_c   6.41899888
_cell_angle_alpha   90.00000000
_cell_angle_beta   90.00000000
_cell_angle_gamma   90.00000000
_symmetry_Int_Tables_number   1
_chemical_formula_structural   SiO2
_chemical_formula_sum   'Si10 O20'
_cell_volume   613.01274156
_cell_formula_units_Z   10
loop_
 _symmetry_equiv_pos_site_id
 _symmetry_equiv_pos_as_xyz
  1  'x, y, z'
loop_
 _atom_site_type_symbol
 _atom_site_label
 _atom_site_symmetry_multiplicity
 _atom_site_fract_x
 _atom_site_fract_y
 _atom_site_fract_z
 _atom_site_occupancy
  Si  Si0  1  0.11519350  0.00000000  0.50068368  1
  Si  Si1  1  0.61519350  0.00000000  0.49931632  1
  Si  Si2  1  0.88480650  0.00000000  0.49931632  1
  Si  Si3  1  0.38480650  0.00000000  0.50068368  1
  Si  Si4  1  0.25000000  0.26965510  0.26221558  1
  Si  Si5  1  0.75000000  0.73034490  0.73778442  1
  Si  Si6  1  0.75000000  0.26965510  0.73778442  1
  Si  Si7  1  0.25000000  0.73034490  0.26221558  1
  Si  Si8  1  0.25000000  0.00000000  0.88147638  1
  Si  Si9  1  0.75000000  0.00000000  0.11852362  1
  O  O0  1  -0.00000000  0.00000000  0.50000000  1
  O  O1  1  0.50000000  0.00000000  0.50000000  1
  O  O2  1  0.15440075  0.19136097  0.38162636  1
  O  O3  1  0.65440075  0.80863903  0.61837364  1
  O  O4  1  0.84559925  0.19136097  0.61837364  1
  O  O5  1  0.34559925  0.80863903  0.38162636  1
  O  O6  1  0.84559925  0.80863903  0.61837364  1
  O  O7  1  0.34559925  0.19136097  0.38162636  1
  O  O8  1  0.15440075  0.80863903  0.38162636  1
  O  O9  1  0.65440075  0.19136097  0.61837364  1
  O  O10  1  0.15405512  0.00000000  0.73786464  1
  O  O11  1  0.65405512  0.00000000  0.26213536  1
  O  O12  1  0.84594488  0.00000000  0.26213536  1
  O  O13  1  0.34594488  0.00000000  0.73786464  1
  O  O14  1  0.25000000  0.50000000  0.26130484  1
  O  O15  1  0.75000000  0.50000000  0.73869516  1
  O  O16  1  0.25000000  0.19169938  0.02517467  1
  O  O17  1  0.75000000  0.80830062  0.97482533  1
  O  O18  1  0.75000000  0.19169938  0.97482533  1
  O  O19  1  0.25000000  0.80830062  0.02517467  1
loop_
_geom_bond_atom_site_label_1
_geom_bond_atom_site_label_2
_geom_bond_distance
_geom_bond_site_symmetry_2
O0 Si0 1.591905 1_555
O0 Si2 1.591905 1_455
O1 Si1 1.591905 1_555
O1 Si3 1.591905 1_555
O2 Si4 1.620376 1_555
O2 Si0 1.620616 1_555
O3 Si5 1.620376 1_555
O3 Si1 1.620616 1_565
O4 Si6 1.620376 1_555
O4 Si2 1.620616 1_555
O5 Si7 1.620376 1_555
O5 Si3 1.620616 1_565
O6 Si5 1.620376 1_555
O6 Si2 1.620616 1_565
O7 Si4 1.620376 1_555
O7 Si3 1.620616 1_555
O8 Si7 1.620376 1_555
O8 Si0 1.620616 1_565
O9 Si6 1.620376 1_555
O9 Si1 1.620616 1_555
O10 Si0 1.614408 1_555
O10 Si8 1.614867 1_555
O11 Si1 1.614408 1_555
O11 Si9 1.614867 1_555
O12 Si2 1.614408 1_555
O12 Si9 1.614867 1_555
O13 Si3 1.614408 1_555
O13 Si8 1.614867 1_555
O14 Si7 1.591828 1_555
O14 Si4 1.591828 1_555
O15 Si5 1.591828 1_555
O15 Si6 1.591828 1_555
O16 Si4 1.614119 1_555
O16 Si8 1.614247 1_554
O17 Si5 1.614119 1_555
O17 Si9 1.614247 1_566
O18 Si6 1.614119 1_555
O18 Si9 1.614247 1_556
O19 Si7 1.614119 1_555
O19 Si8 1.614247 1_564
