# generated using pymatgen
data_CaPdPb
_symmetry_space_group_name_H-M   'P 1'
_cell_length_a   7.96800318
_cell_length_b   7.96800318
_cell_length_c   3.81557810
_cell_angle_alpha   90.00000000
_cell_angle_beta   90.00000000
_cell_angle_gamma   119.99999168
_symmetry_Int_Tables_number   1
_chemical_formula_structural   CaPdPb
_chemical_formula_sum   'Ca3 Pd3 Pb3'
_cell_volume   209.79252633
_cell_formula_units_Z   3
loop_
 _symmetry_equiv_pos_site_id
 _symmetry_equiv_pos_as_xyz
  1  'x, y, z'
loop_
 _atom_site_type_symbol
 _atom_site_label
 _atom_site_symmetry_multiplicity
 _atom_site_fract_x
 _atom_site_fract_y
 _atom_site_fract_z
 _atom_site_occupancy
  Ca  Ca0  1  0.39775805  0.39775805  0.50000000  1
  Ca  Ca1  1  -0.00000000  0.60224195  0.50000000  1
  Ca  Ca2  1  0.60224195  -0.00000000  0.50000000  1
  Pd  Pd0  1  0.00000000  0.00000000  0.50000000  1
  Pd  Pd1  1  0.66666700  0.33333300  0.00000000  1
  Pd  Pd2  1  0.33333300  0.66666700  0.00000000  1
  Pb  Pb0  1  0.27193851  0.00000000  0.00000000  1
  Pb  Pb1  1  0.72806149  0.72806149  -0.00000000  1
  Pb  Pb2  1  0.00000000  0.27193851  0.00000000  1
loop_
_geom_bond_atom_site_label_1
_geom_bond_atom_site_label_2
_geom_bond_distance
_geom_bond_site_symmetry_2
Ca0 Pd1 3.097437 1_555
Ca0 Pd2 3.097437 1_556
Ca0 Pd1 3.097437 1_556
Ca0 Pd2 3.097437 1_555
Ca0 Pd0 3.169338 1_555
Ca0 Pb1 3.250591 1_555
Ca0 Pb1 3.250591 1_556
Ca0 Pb2 3.392944 1_556
Ca0 Pb2 3.392944 1_555
Ca0 Pb0 3.392944 1_556
Ca0 Pb0 3.392944 1_555
Ca1 Pd2 3.097431 1_556
Ca1 Pd2 3.097431 1_555
Ca1 Pd1 3.097433 1_455
Ca1 Pd1 3.097433 1_456
Ca1 Pd0 3.169337 1_565
Ca1 Pb2 3.250591 1_555
Ca1 Pb2 3.250591 1_556
Ca1 Pb1 3.392944 1_456
Ca1 Pb1 3.392944 1_455
Ca1 Pb0 3.392944 1_565
Ca1 Pb0 3.392944 1_566
Ca2 Pd1 3.097431 1_556
Ca2 Pd1 3.097431 1_555
Ca2 Pd2 3.097433 1_546
Ca2 Pd2 3.097433 1_545
Ca2 Pd0 3.169337 1_655
Ca2 Pb0 3.250591 1_556
Ca2 Pb0 3.250591 1_555
Ca2 Pb1 3.392944 1_546
Ca2 Pb1 3.392944 1_545
Ca2 Pb2 3.392944 1_655
Ca2 Pb2 3.392944 1_656
Pb0 Pd0 2.886990 1_555
Pb0 Pd0 2.886990 1_554
Pb0 Pd2 2.931370 1_545
Pb0 Pd1 2.931375 1_555
Pb1 Pd0 2.886990 1_664
Pb1 Pd0 2.886990 1_665
Pb1 Pd2 2.931378 1_555
Pb1 Pd1 2.931378 1_555
Pb2 Pd0 2.886990 1_555
Pb2 Pd0 2.886990 1_554
Pb2 Pd1 2.931370 1_455
Pb2 Pd2 2.931375 1_555
