# generated using pymatgen
data_Cr2(MoO4)3
_symmetry_space_group_name_H-M   'P 1'
_cell_length_a   9.20315535
_cell_length_b   9.27367051
_cell_length_c   12.69372389
_cell_angle_alpha   90.00000000
_cell_angle_beta   90.00000000
_cell_angle_gamma   90.00000000
_symmetry_Int_Tables_number   1
_chemical_formula_structural   Cr2(MoO4)3
_chemical_formula_sum   'Cr8 Mo12 O48'
_cell_volume   1083.37163833
_cell_formula_units_Z   4
loop_
 _symmetry_equiv_pos_site_id
 _symmetry_equiv_pos_as_xyz
  1  'x, y, z'
loop_
 _atom_site_type_symbol
 _atom_site_label
 _atom_site_symmetry_multiplicity
 _atom_site_fract_x
 _atom_site_fract_y
 _atom_site_fract_z
 _atom_site_occupancy
  Cr  Cr0  1  0.25001290  0.53638786  0.61959767  1
  Cr  Cr1  1  0.74998710  0.03638786  0.61959767  1
  Cr  Cr2  1  0.24998710  0.03638786  0.88040233  1
  Cr  Cr3  1  0.24998710  0.46361214  0.11959767  1
  Cr  Cr4  1  0.75001290  0.53638786  0.88040233  1
  Cr  Cr5  1  0.75001290  0.96361214  0.11959767  1
  Cr  Cr6  1  0.25001290  0.96361214  0.38040233  1
  Cr  Cr7  1  0.74998710  0.46361214  0.38040233  1
  Mo  Mo0  1  0.10036310  0.62140558  0.35448313  1
  Mo  Mo1  1  0.02378842  0.75000000  0.00000000  1
  Mo  Mo2  1  0.97621158  0.25000000  0.00000000  1
  Mo  Mo3  1  0.89963690  0.12140558  0.35448313  1
  Mo  Mo4  1  0.89963690  0.37859442  0.64551687  1
  Mo  Mo5  1  0.60036310  0.87859442  0.85448313  1
  Mo  Mo6  1  0.47621158  0.25000000  0.50000000  1
  Mo  Mo7  1  0.39963690  0.12140558  0.14551687  1
  Mo  Mo8  1  0.52378842  0.75000000  0.50000000  1
  Mo  Mo9  1  0.10036310  0.87859442  0.64551687  1
  Mo  Mo10  1  0.39963690  0.37859442  0.85448313  1
  Mo  Mo11  1  0.60036310  0.62140558  0.14551687  1
  O  O0  1  0.82438122  0.42021195  0.52186426  1
  O  O1  1  0.91057925  0.90345016  0.64198678  1
  O  O2  1  0.67561878  0.92021195  0.97813574  1
  O  O3  1  0.08850701  0.17067287  0.90349702  1
  O  O4  1  0.67561878  0.57978805  0.02186426  1
  O  O5  1  0.41149299  0.67067287  0.59650298  1
  O  O6  1  0.08942075  0.40345016  0.64198678  1
  O  O7  1  0.32438122  0.07978805  0.02186426  1
  O  O8  1  0.36625172  0.30429017  0.17558478  1
  O  O9  1  0.13374828  0.80429017  0.32441522  1
  O  O10  1  0.41057925  0.90345016  0.85801322  1
  O  O11  1  0.08850701  0.32932713  0.09650298  1
  O  O12  1  0.13191667  0.88126323  0.93837563  1
  O  O13  1  0.86625172  0.30429017  0.32441522  1
  O  O14  1  0.63374828  0.69570983  0.82441522  1
  O  O15  1  0.91149299  0.82932713  0.09650298  1
  O  O16  1  0.86808333  0.11873677  0.06162437  1
  O  O17  1  0.36625172  0.19570983  0.82441522  1
  O  O18  1  0.58942075  0.09654984  0.14198678  1
  O  O19  1  0.08942075  0.09654984  0.35801322  1
  O  O20  1  0.17561878  0.57978805  0.47813574  1
  O  O21  1  0.82238301  0.00682291  0.25938813  1
  O  O22  1  0.41149299  0.82932713  0.40349702  1
  O  O23  1  0.36808333  0.11873677  0.43837563  1
  O  O24  1  0.32438122  0.42021195  0.97813574  1
  O  O25  1  0.86625172  0.19570983  0.67558478  1
  O  O26  1  0.91057925  0.59654984  0.35801322  1
  O  O27  1  0.13374828  0.69570983  0.67558478  1
  O  O28  1  0.86808333  0.38126323  0.93837563  1
  O  O29  1  0.36808333  0.38126323  0.56162437  1
  O  O30  1  0.41057925  0.59654984  0.14198678  1
  O  O31  1  0.17761699  0.50682291  0.25938813  1
  O  O32  1  0.63374828  0.80429017  0.17558478  1
  O  O33  1  0.17761699  0.99317709  0.74061187  1
  O  O34  1  0.82438122  0.07978805  0.47813574  1
  O  O35  1  0.58942075  0.40345016  0.85801322  1
  O  O36  1  0.17561878  0.92021195  0.52186426  1
  O  O37  1  0.32238301  0.49317709  0.75938813  1
  O  O38  1  0.58850701  0.32932713  0.40349702  1
  O  O39  1  0.82238301  0.49317709  0.74061187  1
  O  O40  1  0.67761699  0.50682291  0.24061187  1
  O  O41  1  0.91149299  0.67067287  0.90349702  1
  O  O42  1  0.63191667  0.61873677  0.43837563  1
  O  O43  1  0.32238301  0.00682291  0.24061187  1
  O  O44  1  0.63191667  0.88126323  0.56162437  1
  O  O45  1  0.13191667  0.61873677  0.06162437  1
  O  O46  1  0.58850701  0.17067287  0.59650298  1
  O  O47  1  0.67761699  0.99317709  0.75938813  1
loop_
_geom_bond_atom_site_label_1
_geom_bond_atom_site_label_2
_geom_bond_distance
_geom_bond_site_symmetry_2
Cr0 O37 1.937238 1_555
Cr0 O6 1.945499 1_555
Cr0 O29 1.947251 1_555
Cr0 O27 1.957800 1_555
Cr0 O5 1.960949 1_555
Cr0 O20 1.963469 1_555
Cr1 O47 1.937238 1_545
Cr1 O1 1.945499 1_545
Cr1 O44 1.947251 1_545
Cr1 O25 1.957800 1_555
Cr1 O46 1.960949 1_555
Cr1 O34 1.963469 1_555
Cr2 O33 1.937238 1_545
Cr2 O10 1.945499 1_545
Cr2 O12 1.947251 1_545
Cr2 O17 1.957800 1_555
Cr2 O3 1.960949 1_555
Cr2 O7 1.963469 1_556
Cr3 O31 1.937238 1_555
Cr3 O30 1.945499 1_555
Cr3 O45 1.947251 1_555
Cr3 O8 1.957800 1_555
Cr3 O11 1.960949 1_555
Cr3 O24 1.963469 1_554
Cr4 O39 1.937238 1_555
Cr4 O35 1.945499 1_555
Cr4 O28 1.947251 1_555
Cr4 O14 1.957800 1_555
Cr4 O41 1.960949 1_555
Cr4 O4 1.963469 1_556
Cr5 O21 1.937238 1_565
Cr5 O18 1.945499 1_565
Cr5 O16 1.947251 1_565
Cr5 O32 1.957800 1_555
Cr5 O15 1.960949 1_555
Cr5 O2 1.963469 1_554
Cr6 O43 1.937238 1_565
Cr6 O19 1.945499 1_565
Cr6 O23 1.947251 1_565
Cr6 O9 1.957800 1_555
Cr6 O22 1.960949 1_555
Cr6 O36 1.963469 1_555
Cr7 O40 1.937238 1_555
Cr7 O26 1.945499 1_555
Cr7 O42 1.947251 1_555
Cr7 O13 1.957800 1_555
Cr7 O38 1.960949 1_555
Cr7 O0 1.963469 1_555
Mo0 O31 1.758331 1_555
Mo0 O20 1.758499 1_555
Mo0 O26 1.762324 1_455
Mo0 O9 1.765370 1_555
Mo1 O12 1.756123 1_554
Mo1 O45 1.756123 1_555
Mo1 O15 1.763472 1_455
Mo1 O41 1.763472 1_454
Mo2 O28 1.756123 1_554
Mo2 O16 1.756123 1_555
Mo2 O11 1.763472 1_655
Mo2 O3 1.763472 1_654
Mo3 O21 1.758331 1_555
Mo3 O34 1.758499 1_555
Mo3 O19 1.762324 1_655
Mo3 O13 1.765370 1_555
Mo4 O39 1.758331 1_555
Mo4 O0 1.758499 1_555
Mo4 O6 1.762324 1_655
Mo4 O25 1.765370 1_555
Mo5 O47 1.758331 1_555
Mo5 O2 1.758499 1_555
Mo5 O10 1.762324 1_555
Mo5 O14 1.765370 1_555
Mo6 O23 1.756123 1_555
Mo6 O29 1.756123 1_555
Mo6 O38 1.763472 1_555
Mo6 O46 1.763472 1_555
Mo7 O43 1.758331 1_555
Mo7 O7 1.758499 1_555
Mo7 O18 1.762324 1_555
Mo7 O8 1.765370 1_555
Mo8 O42 1.756123 1_555
Mo8 O44 1.756123 1_555
Mo8 O22 1.763472 1_555
Mo8 O5 1.763472 1_555
Mo9 O33 1.758331 1_555
Mo9 O36 1.758499 1_555
Mo9 O1 1.762324 1_455
Mo9 O27 1.765370 1_555
Mo10 O37 1.758331 1_555
Mo10 O24 1.758499 1_555
Mo10 O35 1.762324 1_555
Mo10 O17 1.765370 1_555
Mo11 O40 1.758331 1_555
Mo11 O4 1.758499 1_555
Mo11 O30 1.762324 1_555
Mo11 O32 1.765370 1_555
