# generated using pymatgen
data_KPbO2
_symmetry_space_group_name_H-M   'P 1'
_cell_length_a   7.12282700
_cell_length_b   7.62265652
_cell_length_c   13.08402248
_cell_angle_alpha   105.45226696
_cell_angle_beta   90.93764775
_cell_angle_gamma   117.53873223
_symmetry_Int_Tables_number   1
_chemical_formula_structural   KPbO2
_chemical_formula_sum   'K8 Pb8 O16'
_cell_volume   598.98865012
_cell_formula_units_Z   8
loop_
 _symmetry_equiv_pos_site_id
 _symmetry_equiv_pos_as_xyz
  1  'x, y, z'
loop_
 _atom_site_type_symbol
 _atom_site_label
 _atom_site_symmetry_multiplicity
 _atom_site_fract_x
 _atom_site_fract_y
 _atom_site_fract_z
 _atom_site_occupancy
  K  K0  1  0.74954000  0.00436400  0.73486600  1
  K  K1  1  0.25588000  0.25611900  0.00806400  1
  K  K2  1  0.24685700  0.99470200  0.76502900  1
  K  K3  1  0.75314300  0.00529800  0.23497100  1
  K  K4  1  0.74186600  0.74193600  0.49167600  1
  K  K5  1  0.25813400  0.25806400  0.50832400  1
  K  K6  1  0.25046000  0.99563600  0.26513400  1
  K  K7  1  0.74412000  0.74388100  0.99193600  1
  Pb  Pb0  1  0.77269800  0.26001000  0.46570500  1
  Pb  Pb1  1  0.22730200  0.73999000  0.53429500  1
  Pb  Pb2  1  0.76970200  0.25899200  0.96679300  1
  Pb  Pb3  1  0.23029800  0.74100800  0.03320700  1
  Pb  Pb4  1  0.26205500  0.49993800  0.25331900  1
  Pb  Pb5  1  0.73794500  0.50006200  0.74668100  1
  Pb  Pb6  1  0.25859600  0.49873700  0.75442500  1
  Pb  Pb7  1  0.74140400  0.50126300  0.24557500  1
  O  O0  1  0.51215500  0.59989200  0.34299100  1
  O  O1  1  0.48784500  0.40010800  0.65700900  1
  O  O2  1  0.97272800  0.80226000  0.13812100  1
  O  O3  1  0.02727200  0.19774000  0.86187900  1
  O  O4  1  0.02371200  0.43125000  0.14300700  1
  O  O5  1  0.97628800  0.56875000  0.85699300  1
  O  O6  1  0.03064600  0.19913100  0.36108100  1
  O  O7  1  0.96935400  0.80086900  0.63891900  1
  O  O8  1  0.56975000  0.20672800  0.35457300  1
  O  O9  1  0.43025000  0.79327200  0.64542700  1
  O  O10  1  0.43300100  0.79478800  0.14469900  1
  O  O11  1  0.49093300  0.40121600  0.15580900  1
  O  O12  1  0.97879000  0.56977300  0.35626600  1
  O  O13  1  0.02121000  0.43022700  0.64373400  1
  O  O14  1  0.50906700  0.59878400  0.84419100  1
  O  O15  1  0.56699900  0.20521200  0.85530100  1
loop_
_geom_bond_atom_site_label_1
_geom_bond_atom_site_label_2
_geom_bond_distance
_geom_bond_site_symmetry_2
K0 O9 2.157868 1_545
K0 O3 2.176830 1_655
K0 O15 2.672034 1_555
K0 O7 2.775960 1_545
K1 O11 2.192192 1_555
K1 O3 2.298335 1_554
K1 O4 2.918067 1_555
K1 O15 3.095691 1_554
K2 O15 2.165209 1_565
K2 O7 2.169382 1_455
K2 O9 2.674686 1_555
K2 O3 2.775897 1_565
K3 O10 2.165209 1_545
K3 O6 2.169382 1_655
K3 O8 2.674686 1_555
K3 O2 2.775897 1_545
K4 O0 2.183863 1_555
K4 O7 2.302705 1_555
K4 O12 2.935276 1_555
K4 O9 3.107470 1_555
K5 O1 2.183863 1_555
K5 O6 2.302705 1_555
K5 O13 2.935276 1_555
K5 O8 3.107470 1_555
K6 O8 2.157868 1_565
K6 O2 2.176830 1_455
K6 O10 2.672034 1_555
K6 O6 2.775960 1_565
K7 O14 2.192192 1_555
K7 O2 2.298335 1_556
K7 O5 2.918067 1_555
K7 O10 3.095691 1_556
O0 Pb4 1.825019 1_555
O0 Pb7 2.355602 1_555
O1 Pb5 1.825019 1_555
O1 Pb6 2.355602 1_555
O2 Pb3 2.449722 1_655
O3 Pb2 2.449722 1_455
O4 Pb4 1.983583 1_555
O4 Pb2 2.523254 1_454
O4 Pb7 2.613091 1_455
O5 Pb5 1.983583 1_555
O5 Pb3 2.523254 1_656
O5 Pb6 2.613091 1_655
O6 Pb0 2.448921 1_455
O7 Pb1 2.448921 1_655
O8 Pb0 1.855395 1_555
O8 Pb7 2.791831 1_555
O9 Pb1 1.855395 1_555
O9 Pb6 2.791831 1_555
O10 Pb3 1.856272 1_555
O10 Pb4 2.789616 1_555
O11 Pb7 1.827550 1_555
O11 Pb4 2.354284 1_555
O12 Pb7 1.982311 1_555
O12 Pb1 2.524555 1_655
O12 Pb4 2.620804 1_655
O13 Pb6 1.982311 1_555
O13 Pb0 2.524555 1_455
O13 Pb5 2.620804 1_455
O14 Pb6 1.827550 1_555
O14 Pb5 2.354284 1_555
O15 Pb2 1.856272 1_555
O15 Pb5 2.789616 1_555
