# generated using pymatgen
data_Ba9(NdS6)2
_symmetry_space_group_name_H-M   'P 1'
_cell_length_a   7.75863525
_cell_length_b   7.75863525
_cell_length_c   14.75783810
_cell_angle_alpha   84.96903123
_cell_angle_beta   84.96903123
_cell_angle_gamma   119.97468323
_symmetry_Int_Tables_number   1
_chemical_formula_structural   Ba9(NdS6)2
_chemical_formula_sum   'Ba9 Nd2 S12'
_cell_volume   757.62705218
_cell_formula_units_Z   1
loop_
 _symmetry_equiv_pos_site_id
 _symmetry_equiv_pos_as_xyz
  1  'x, y, z'
loop_
 _atom_site_type_symbol
 _atom_site_label
 _atom_site_symmetry_multiplicity
 _atom_site_fract_x
 _atom_site_fract_y
 _atom_site_fract_z
 _atom_site_occupancy
  Ba  Ba0  1  0.24136600  0.24136600  0.23948500  1
  Ba  Ba1  1  0.50000000  0.50000000  0.50000000  1
  Ba  Ba2  1  0.75863400  0.75863400  0.76051500  1
  Ba  Ba3  1  0.07904100  0.40150700  0.76105900  1
  Ba  Ba4  1  0.59849300  0.92095900  0.23894100  1
  Ba  Ba5  1  0.83135900  0.16864100  0.50000000  1
  Ba  Ba6  1  0.92095900  0.59849300  0.23894100  1
  Ba  Ba7  1  0.16864100  0.83135900  0.50000000  1
  Ba  Ba8  1  0.40150700  0.07904100  0.76105900  1
  Nd  Nd0  1  0.33277300  0.66722700  0.00000000  1
  Nd  Nd1  1  0.66722700  0.33277300  0.00000000  1
  S  S0  1  0.59414400  0.59414400  0.10969400  1
  S  S1  1  0.87501500  0.87501500  0.37287100  1
  S  S2  1  0.96262700  0.33193200  0.10912300  1
  S  S3  1  0.12498500  0.12498500  0.62712900  1
  S  S4  1  0.20941300  0.54254400  0.36872800  1
  S  S5  1  0.40585600  0.40585600  0.89030600  1
  S  S6  1  0.33193200  0.96262700  0.10912300  1
  S  S7  1  0.45745600  0.79058700  0.63127200  1
  S  S8  1  0.54254400  0.20941300  0.36872800  1
  S  S9  1  0.66806800  0.03737300  0.89087700  1
  S  S10  1  0.79058700  0.45745600  0.63127200  1
  S  S11  1  0.03737300  0.66806800  0.89087700  1
loop_
_geom_bond_atom_site_label_1
_geom_bond_atom_site_label_2
_geom_bond_distance
_geom_bond_site_symmetry_2
Ba0 S0 3.054046 1_555
Ba0 S1 3.161900 1_445
Ba0 S4 3.230691 1_555
Ba0 S8 3.230691 1_555
Ba0 S6 3.298947 1_545
Ba0 S2 3.298947 1_455
Ba1 S1 3.174488 1_555
Ba1 S3 3.174488 1_555
Ba1 S8 3.215992 1_555
Ba1 S4 3.215992 1_555
Ba1 S10 3.215992 1_555
Ba1 S7 3.215992 1_555
Ba2 S5 3.054046 1_555
Ba2 S3 3.161900 1_665
Ba2 S7 3.230691 1_555
Ba2 S10 3.230691 1_555
Ba2 S11 3.298947 1_655
Ba2 S9 3.298947 1_565
Ba3 S11 3.050667 1_555
Ba3 S3 3.165583 1_555
Ba3 S10 3.231490 1_455
Ba3 S7 3.247282 1_555
Ba3 S9 3.285880 1_455
Ba3 S5 3.292850 1_555
Ba4 S6 3.050667 1_555
Ba4 S1 3.165583 1_555
Ba4 S8 3.231490 1_565
Ba4 S4 3.247282 1_555
Ba4 S2 3.285880 1_565
Ba4 S0 3.292850 1_555
Ba5 S1 3.199029 1_545
Ba5 S3 3.199029 1_655
Ba5 S8 3.199468 1_555
Ba5 S10 3.199468 1_555
Ba5 S4 3.207401 1_655
Ba5 S7 3.207401 1_545
Ba6 S2 3.050667 1_555
Ba6 S1 3.165583 1_555
Ba6 S4 3.231490 1_655
Ba6 S8 3.247282 1_555
Ba6 S6 3.285880 1_655
Ba6 S0 3.292850 1_555
Ba7 S1 3.199029 1_455
Ba7 S3 3.199029 1_565
Ba7 S4 3.199468 1_555
Ba7 S7 3.199468 1_555
Ba7 S8 3.207401 1_565
Ba7 S10 3.207401 1_455
Ba8 S9 3.050667 1_555
Ba8 S3 3.165583 1_555
Ba8 S7 3.231490 1_545
Ba8 S10 3.247282 1_555
Ba8 S11 3.285880 1_545
Ba8 S5 3.292850 1_555
Nd0 S11 2.916633 1_554
Nd0 S6 2.916633 1_555
Nd0 S2 2.932104 1_455
Nd0 S9 2.932104 1_564
Nd0 S5 2.935684 1_554
Nd0 S0 2.935684 1_555
Nd1 S9 2.916633 1_554
Nd1 S2 2.916633 1_555
Nd1 S11 2.932104 1_654
Nd1 S6 2.932104 1_545
Nd1 S5 2.935684 1_554
Nd1 S0 2.935684 1_555
