# generated using pymatgen
data_LaAgSO
_symmetry_space_group_name_H-M   'P 1'
_cell_length_a   4.09172300
_cell_length_b   4.09172300
_cell_length_c   9.10242200
_cell_angle_alpha   90.00000000
_cell_angle_beta   90.00000000
_cell_angle_gamma   90.00000000
_symmetry_Int_Tables_number   1
_chemical_formula_structural   LaAgSO
_chemical_formula_sum   'La2 Ag2 S2 O2'
_cell_volume   152.39454329
_cell_formula_units_Z   2
loop_
 _symmetry_equiv_pos_site_id
 _symmetry_equiv_pos_as_xyz
  1  'x, y, z'
loop_
 _atom_site_type_symbol
 _atom_site_label
 _atom_site_symmetry_multiplicity
 _atom_site_fract_x
 _atom_site_fract_y
 _atom_site_fract_z
 _atom_site_occupancy
  La  La0  1  0.00000000  0.50000000  0.86503500  1
  La  La1  1  0.50000000  0.00000000  0.13496500  1
  Ag  Ag0  1  0.50000000  0.50000000  0.50000000  1
  Ag  Ag1  1  0.00000000  0.00000000  0.50000000  1
  S  S0  1  0.00000000  0.50000000  0.30695900  1
  S  S1  1  0.50000000  0.00000000  0.69304100  1
  O  O0  1  0.00000000  0.00000000  0.00000000  1
  O  O1  1  0.50000000  0.50000000  0.00000000  1
loop_
_geom_bond_atom_site_label_1
_geom_bond_atom_site_label_2
_geom_bond_distance
_geom_bond_site_symmetry_2
La0 O0 2.386374 1_556
La0 O0 2.386374 1_566
La0 O1 2.386374 1_556
La0 O1 2.386374 1_456
La0 S1 3.289693 1_455
La0 S1 3.289693 1_465
La0 S1 3.289693 1_555
La0 S1 3.289693 1_565
La1 O1 2.386374 1_545
La1 O1 2.386374 1_555
La1 O0 2.386374 1_655
La1 O0 2.386374 1_555
La1 S0 3.289693 1_555
La1 S0 3.289693 1_545
La1 S0 3.289693 1_655
La1 S0 3.289693 1_645
Ag0 S1 2.696867 1_555
Ag0 S0 2.696867 1_655
Ag0 S1 2.696867 1_565
Ag0 S0 2.696867 1_555
Ag1 S1 2.696867 1_455
Ag1 S1 2.696867 1_555
Ag1 S0 2.696867 1_545
Ag1 S0 2.696867 1_555
