# generated using pymatgen
data_TlCuIr
_symmetry_space_group_name_H-M   'P 1'
_cell_length_a   4.37976142
_cell_length_b   4.37976142
_cell_length_c   4.37976142
_cell_angle_alpha   60.00000000
_cell_angle_beta   60.00000000
_cell_angle_gamma   60.00000000
_symmetry_Int_Tables_number   1
_chemical_formula_structural   TlCuIr
_chemical_formula_sum   'Tl1 Cu1 Ir1'
_cell_volume   59.40682789
_cell_formula_units_Z   1
loop_
 _symmetry_equiv_pos_site_id
 _symmetry_equiv_pos_as_xyz
  1  'x, y, z'
loop_
 _atom_site_type_symbol
 _atom_site_label
 _atom_site_symmetry_multiplicity
 _atom_site_fract_x
 _atom_site_fract_y
 _atom_site_fract_z
 _atom_site_occupancy
  Tl  Tl0  1  0.00000000  0.00000000  0.00000000  1
  Cu  Cu0  1  0.50000000  0.50000000  0.50000000  1
  Ir  Ir0  1  0.75000000  0.75000000  0.75000000  1
loop_
_geom_bond_atom_site_label_1
_geom_bond_atom_site_label_2
_geom_bond_distance
_geom_bond_site_symmetry_2
Cu0 Ir0 2.682045 1_555
Cu0 Ir0 2.682045 1_554
Cu0 Ir0 2.682045 1_455
Cu0 Ir0 2.682045 1_545
Cu0 Tl0 3.096959 1_656
Cu0 Tl0 3.096959 1_556
Cu0 Tl0 3.096959 1_565
Cu0 Tl0 3.096959 1_655
Cu0 Tl0 3.096959 1_665
Cu0 Tl0 3.096959 1_566
Ir0 Tl0 2.682045 1_666
Ir0 Tl0 2.682045 1_656
Ir0 Tl0 2.682045 1_665
Ir0 Tl0 2.682045 1_566
