# generated using pymatgen
data_Ag15(BiI4)16
_symmetry_space_group_name_H-M   'P 1'
_cell_length_a   8.80899600
_cell_length_b   9.02881525
_cell_length_c   59.27508100
_cell_angle_alpha   86.87539225
_cell_angle_beta   85.73962750
_cell_angle_gamma   61.01017540
_symmetry_Int_Tables_number   1
_chemical_formula_structural   Ag15(BiI4)16
_chemical_formula_sum   'Ag15 Bi16 I64'
_cell_volume   4111.42038378
_cell_formula_units_Z   1
loop_
 _symmetry_equiv_pos_site_id
 _symmetry_equiv_pos_as_xyz
  1  'x, y, z'
loop_
 _atom_site_type_symbol
 _atom_site_label
 _atom_site_symmetry_multiplicity
 _atom_site_fract_x
 _atom_site_fract_y
 _atom_site_fract_z
 _atom_site_occupancy
  Ag  Ag0  1  0.00000000  0.50000000  0.00000000  1
  Ag  Ag1  1  0.62763300  0.12478300  0.12428300  1
  Ag  Ag2  1  0.12343600  0.12617200  0.12404800  1
  Ag  Ag3  1  0.87516800  0.37546700  0.37486600  1
  Ag  Ag4  1  0.25014600  0.75079100  0.24976300  1
  Ag  Ag5  1  0.74925900  0.75100800  0.24974200  1
  Ag  Ag6  1  0.37456900  0.37544200  0.37487500  1
  Ag  Ag7  1  0.62543100  0.62455800  0.62512500  1
  Ag  Ag8  1  0.50000000  0.00000000  0.50000000  1
  Ag  Ag9  1  0.12483200  0.62453300  0.62513400  1
  Ag  Ag10  1  0.00000000  0.00000000  0.50000000  1
  Ag  Ag11  1  0.74985400  0.24920900  0.75023700  1
  Ag  Ag12  1  0.37236700  0.87521700  0.87571700  1
  Ag  Ag13  1  0.25074100  0.24899200  0.75025800  1
  Ag  Ag14  1  0.87656400  0.87382800  0.87595200  1
  Bi  Bi0  1  0.00000000  0.00000000  0.00000000  1
  Bi  Bi1  1  0.80882900  0.31548200  0.06092900  1
  Bi  Bi2  1  0.43782300  0.93606200  0.18722400  1
  Bi  Bi3  1  0.62701900  0.62291800  0.12467400  1
  Bi  Bi4  1  0.06293500  0.56168600  0.31232200  1
  Bi  Bi5  1  0.87542900  0.87426500  0.37493100  1
  Bi  Bi6  1  0.25125300  0.24862700  0.24989600  1
  Bi  Bi7  1  0.12457100  0.12573500  0.62506900  1
  Bi  Bi8  1  0.68770900  0.18720100  0.43744000  1
  Bi  Bi9  1  0.93706500  0.43831400  0.68767800  1
  Bi  Bi10  1  0.50000000  0.50000000  0.50000000  1
  Bi  Bi11  1  0.31229100  0.81279900  0.56256000  1
  Bi  Bi12  1  0.19117100  0.68451800  0.93907100  1
  Bi  Bi13  1  0.74874700  0.75137300  0.75010400  1
  Bi  Bi14  1  0.56217700  0.06393800  0.81277600  1
  Bi  Bi15  1  0.37298100  0.37708200  0.87532600  1
  I  I0  1  0.68178200  0.62954000  0.03134100  1
  I  I1  1  0.46979100  0.96466600  0.09772700  1
  I  I2  1  0.16131600  0.14059500  0.03286600  1
  I  I3  1  0.65953700  0.15538000  0.03178900  1
  I  I4  1  0.29776100  0.24995700  0.15494200  1
  I  I5  1  0.96455700  0.47719000  0.09377800  1
  I  I6  1  0.46569200  0.47984400  0.09280200  1
  I  I7  1  0.09386800  0.58982500  0.22267400  1
  I  I8  1  0.13772600  0.66172300  0.02712200  1
  I  I9  1  0.78352300  0.77256700  0.15741200  1
  I  I10  1  0.95370600  0.99687700  0.09524100  1
  I  I11  1  0.28542400  0.77359900  0.15738200  1
  I  I12  1  0.92103100  0.87763800  0.28027900  1
  I  I13  1  0.58830200  0.10339700  0.21835900  1
  I  I14  1  0.09020000  0.10284300  0.21818300  1
  I  I15  1  0.77917900  0.28669300  0.15278800  1
  I  I16  1  0.40839000  0.39841700  0.28230400  1
  I  I17  1  0.71884700  0.21482800  0.34762500  1
  I  I18  1  0.57971300  0.62072900  0.21987900  1
  I  I19  1  0.91111600  0.39797100  0.28221400  1
  I  I20  1  0.54582100  0.50301500  0.40527200  1
  I  I21  1  0.21329600  0.72807800  0.34315500  1
  I  I22  1  0.71583200  0.72758900  0.34305200  1
  I  I23  1  0.40590900  0.91033500  0.27753400  1
  I  I24  1  0.34399700  0.83962700  0.47255800  1
  I  I25  1  0.03357200  0.02298500  0.40717700  1
  I  I26  1  0.53652000  0.02242500  0.40707900  1
  I  I27  1  0.20434900  0.24644700  0.34480000  1
  I  I28  1  0.17074000  0.12822500  0.53024500  1
  I  I29  1  0.83839000  0.35273400  0.46804000  1
  I  I30  1  0.34123600  0.35220600  0.46793500  1
  I  I31  1  0.03097900  0.53543400  0.40248500  1
  I  I32  1  0.65876400  0.64779400  0.53206500  1
  I  I33  1  0.96902100  0.46456600  0.59751500  1
  I  I34  1  0.16161000  0.64726600  0.53196000  1
  I  I35  1  0.82926000  0.87177500  0.46975500  1
  I  I36  1  0.79565100  0.75355300  0.65520000  1
  I  I37  1  0.46348000  0.97757500  0.59292100  1
  I  I38  1  0.96642800  0.97701500  0.59282300  1
  I  I39  1  0.65600300  0.16037300  0.52744200  1
  I  I40  1  0.59409100  0.08966500  0.72246600  1
  I  I41  1  0.28416800  0.27241100  0.65694800  1
  I  I42  1  0.45417900  0.49698500  0.59472800  1
  I  I43  1  0.78670400  0.27192200  0.65684500  1
  I  I44  1  0.42028700  0.37927100  0.78012100  1
  I  I45  1  0.08888400  0.60202900  0.71778600  1
  I  I46  1  0.22082100  0.71330700  0.84721200  1
  I  I47  1  0.90980000  0.89715700  0.78181700  1
  I  I48  1  0.59161000  0.60158300  0.71769600  1
  I  I49  1  0.28115300  0.78517200  0.65237500  1
  I  I50  1  0.41169800  0.89660300  0.78164100  1
  I  I51  1  0.07896900  0.12236200  0.71972100  1
  I  I52  1  0.04629400  0.00312300  0.90475900  1
  I  I53  1  0.71457600  0.22640100  0.84261800  1
  I  I54  1  0.90613200  0.41017500  0.77732600  1
  I  I55  1  0.53430800  0.52015600  0.90719800  1
  I  I56  1  0.21647700  0.22743300  0.84258800  1
  I  I57  1  0.86227400  0.33827700  0.97287800  1
  I  I58  1  0.03544300  0.52281000  0.90622200  1
  I  I59  1  0.70223900  0.75004300  0.84505800  1
  I  I60  1  0.34046300  0.84462000  0.96821100  1
  I  I61  1  0.83868400  0.85940500  0.96713400  1
  I  I62  1  0.53020900  0.03533400  0.90227300  1
  I  I63  1  0.31821800  0.37046000  0.96865900  1
loop_
_geom_bond_atom_site_label_1
_geom_bond_atom_site_label_2
_geom_bond_distance
_geom_bond_site_symmetry_2
Ag0 I8 2.907133 1_555
Ag0 I57 2.907133 1_454
Ag0 I0 2.993685 1_455
Ag0 I63 2.993685 1_554
Ag0 I2 3.405441 1_555
Ag0 I61 3.405441 1_454
Ag1 I10 2.968900 1_545
Ag1 I1 3.003788 1_545
Ag1 I15 3.044679 1_555
Ag1 I4 3.046279 1_555
Ag1 I6 3.332371 1_555
Ag1 I9 3.367770 1_545
Ag2 I10 2.966885 1_445
Ag2 I1 3.016228 1_545
Ag2 I4 3.043885 1_555
Ag2 I15 3.072524 1_455
Ag2 I5 3.267441 1_455
Ag2 I11 3.376978 1_545
Ag3 I27 3.020914 1_655
Ag3 I17 3.021375 1_555
Ag3 I31 3.027080 1_655
Ag3 I20 3.033554 1_555
Ag3 I22 3.323868 1_555
Ag3 I25 3.342394 1_655
Ag4 I18 3.017152 1_555
Ag4 I7 3.017911 1_555
Ag4 I23 3.029425 1_555
Ag4 I12 3.035949 1_455
Ag4 I14 3.315858 1_565
Ag4 I16 3.349243 1_555
Ag5 I18 3.011686 1_555
Ag5 I7 3.025903 1_655
Ag5 I12 3.030284 1_555
Ag5 I23 3.038399 1_555
Ag5 I13 3.311750 1_565
Ag5 I19 3.351348 1_555
Ag6 I27 3.016483 1_555
Ag6 I20 3.027089 1_555
Ag6 I17 3.028871 1_555
Ag6 I31 3.034748 1_555
Ag6 I21 3.324221 1_555
Ag6 I26 3.342448 1_555
Ag7 I36 3.016483 1_555
Ag7 I42 3.027089 1_555
Ag7 I49 3.028871 1_555
Ag7 I33 3.034748 1_555
Ag7 I43 3.324221 1_555
Ag7 I37 3.342448 1_555
Ag8 I39 3.024688 1_555
Ag8 I24 3.024688 1_545
Ag8 I28 3.027507 1_555
Ag8 I35 3.027507 1_545
Ag8 I30 3.332567 1_555
Ag8 I32 3.332567 1_545
Ag9 I36 3.020914 1_455
Ag9 I49 3.021375 1_555
Ag9 I33 3.027080 1_455
Ag9 I42 3.033554 1_555
Ag9 I41 3.323868 1_555
Ag9 I38 3.342394 1_455
Ag10 I28 3.021793 1_555
Ag10 I35 3.021793 1_445
Ag10 I39 3.032556 1_455
Ag10 I24 3.032556 1_545
Ag10 I29 3.332650 1_455
Ag10 I34 3.332650 1_545
Ag11 I44 3.017152 1_555
Ag11 I54 3.017911 1_555
Ag11 I40 3.029425 1_555
Ag11 I51 3.035949 1_655
Ag11 I47 3.315858 1_545
Ag11 I48 3.349243 1_555
Ag12 I52 2.968900 1_565
Ag12 I62 3.003788 1_565
Ag12 I46 3.044679 1_555
Ag12 I59 3.046279 1_555
Ag12 I55 3.332371 1_555
Ag12 I56 3.367770 1_565
Ag13 I44 3.011686 1_555
Ag13 I54 3.025903 1_455
Ag13 I51 3.030284 1_555
Ag13 I40 3.038399 1_555
Ag13 I50 3.311750 1_545
Ag13 I45 3.351348 1_555
Ag14 I52 2.966885 1_665
Ag14 I62 3.016228 1_565
Ag14 I59 3.043885 1_555
Ag14 I46 3.072524 1_655
Ag14 I58 3.267441 1_655
Ag14 I53 3.376978 1_565
Bi0 I8 3.089923 1_545
Bi0 I57 3.089923 1_454
Bi0 I2 3.139326 1_555
Bi0 I61 3.139326 1_444
Bi0 I3 3.143834 1_455
Bi0 I60 3.143834 1_544
Bi1 I0 3.007048 1_555
Bi1 I3 3.042195 1_555
Bi1 I2 3.109366 1_655
Bi1 I6 3.165034 1_555
Bi1 I10 3.198368 1_545
Bi1 I5 3.233117 1_555
Bi2 I4 3.096146 1_565
Bi2 I11 3.102794 1_555
Bi2 I9 3.114944 1_555
Bi2 I18 3.118353 1_555
Bi2 I14 3.163686 1_565
Bi2 I13 3.170873 1_565
Bi3 I5 3.096371 1_555
Bi3 I15 3.102502 1_555
Bi3 I1 3.104736 1_555
Bi3 I6 3.114782 1_555
Bi3 I9 3.159258 1_555
Bi3 I11 3.180728 1_555
Bi4 I12 3.100558 1_455
Bi4 I27 3.111464 1_555
Bi4 I19 3.117188 1_455
Bi4 I16 3.119734 1_555
Bi4 I21 3.152676 1_555
Bi4 I22 3.152971 1_455
Bi5 I31 3.103006 1_655
Bi5 I17 3.107288 1_565
Bi5 I22 3.126218 1_555
Bi5 I21 3.127024 1_655
Bi5 I25 3.144148 1_665
Bi5 I26 3.145652 1_565
Bi6 I23 3.101895 1_545
Bi6 I7 3.109107 1_555
Bi6 I13 3.114176 1_555
Bi6 I14 3.123292 1_555
Bi6 I16 3.150906 1_555
Bi6 I19 3.158818 1_455
Bi7 I33 3.103006 1_455
Bi7 I49 3.107288 1_545
Bi7 I41 3.126218 1_555
Bi7 I43 3.127024 1_455
Bi7 I38 3.144148 1_445
Bi7 I37 3.145652 1_545
Bi8 I20 3.104092 1_555
Bi8 I35 3.106856 1_545
Bi8 I26 3.129604 1_555
Bi8 I25 3.130159 1_655
Bi8 I29 3.140331 1_555
Bi8 I30 3.141422 1_555
Bi9 I51 3.100558 1_655
Bi9 I36 3.111464 1_555
Bi9 I45 3.117188 1_655
Bi9 I48 3.119734 1_555
Bi9 I43 3.152676 1_555
Bi9 I41 3.152971 1_655
Bi10 I39 3.105017 1_555
Bi10 I24 3.105017 1_555
Bi10 I32 3.135198 1_555
Bi10 I30 3.135198 1_555
Bi10 I34 3.136265 1_555
Bi10 I29 3.136265 1_555
Bi11 I42 3.104092 1_555
Bi11 I28 3.106856 1_565
Bi11 I37 3.129604 1_555
Bi11 I38 3.130159 1_455
Bi11 I34 3.140331 1_555
Bi11 I32 3.141422 1_555
Bi12 I63 3.007048 1_555
Bi12 I60 3.042195 1_555
Bi12 I61 3.109366 1_455
Bi12 I55 3.165034 1_555
Bi12 I52 3.198368 1_565
Bi12 I58 3.233117 1_555
Bi13 I40 3.101895 1_565
Bi13 I54 3.109107 1_555
Bi13 I50 3.114176 1_555
Bi13 I47 3.123292 1_555
Bi13 I48 3.150906 1_555
Bi13 I45 3.158818 1_655
Bi14 I59 3.096146 1_545
Bi14 I53 3.102794 1_555
Bi14 I56 3.114944 1_555
Bi14 I44 3.118353 1_555
Bi14 I47 3.163686 1_545
Bi14 I50 3.170873 1_545
Bi15 I58 3.096371 1_555
Bi15 I46 3.102502 1_555
Bi15 I62 3.104736 1_555
Bi15 I55 3.114782 1_555
Bi15 I56 3.159258 1_555
Bi15 I53 3.180728 1_555
