# generated using pymatgen
data_U(PbO2)3
_symmetry_space_group_name_H-M   'P 1'
_cell_length_a   8.32780200
_cell_length_b   12.55993900
_cell_length_c   13.90176800
_cell_angle_alpha   90.00000000
_cell_angle_beta   90.00000000
_cell_angle_gamma   90.00000000
_symmetry_Int_Tables_number   1
_chemical_formula_structural   U(PbO2)3
_chemical_formula_sum   'U8 Pb24 O48'
_cell_volume   1454.07885016
_cell_formula_units_Z   8
loop_
 _symmetry_equiv_pos_site_id
 _symmetry_equiv_pos_as_xyz
  1  'x, y, z'
loop_
 _atom_site_type_symbol
 _atom_site_label
 _atom_site_symmetry_multiplicity
 _atom_site_fract_x
 _atom_site_fract_y
 _atom_site_fract_z
 _atom_site_occupancy
  U  U0  1  0.50207400  0.75968400  0.91373100  1
  U  U1  1  0.99792600  0.74031600  0.41373100  1
  U  U2  1  0.00207400  0.25968400  0.58626900  1
  U  U3  1  0.49792600  0.25968400  0.58626900  1
  U  U4  1  0.99792600  0.75968400  0.91373100  1
  U  U5  1  0.50207400  0.74031600  0.41373100  1
  U  U6  1  0.00207400  0.24031600  0.08626900  1
  U  U7  1  0.49792600  0.24031600  0.08626900  1
  Pb  Pb0  1  0.53187900  0.50475600  0.76831900  1
  Pb  Pb1  1  0.75000000  0.23116400  0.85185300  1
  Pb  Pb2  1  0.25000000  0.98461300  0.49636100  1
  Pb  Pb3  1  0.96812100  0.99524400  0.26831900  1
  Pb  Pb4  1  0.25000000  0.23790100  0.31731000  1
  Pb  Pb5  1  0.46812100  0.49524400  0.23168100  1
  Pb  Pb6  1  0.25000000  0.76883600  0.14814700  1
  Pb  Pb7  1  0.75000000  0.26883600  0.35185300  1
  Pb  Pb8  1  0.75000000  0.52859500  0.53318500  1
  Pb  Pb9  1  0.03187900  0.00475600  0.73168100  1
  Pb  Pb10  1  0.53187900  0.99524400  0.26831900  1
  Pb  Pb11  1  0.96812100  0.50475600  0.76831900  1
  Pb  Pb12  1  0.25000000  0.02859500  0.96681500  1
  Pb  Pb13  1  0.25000000  0.26209900  0.81731000  1
  Pb  Pb14  1  0.46812100  0.00475600  0.73168100  1
  Pb  Pb15  1  0.25000000  0.47140500  0.46681500  1
  Pb  Pb16  1  0.75000000  0.97140500  0.03318500  1
  Pb  Pb17  1  0.03187900  0.49524400  0.23168100  1
  Pb  Pb18  1  0.75000000  0.01538700  0.50363900  1
  Pb  Pb19  1  0.75000000  0.73790100  0.18269000  1
  Pb  Pb20  1  0.25000000  0.51538700  0.99636100  1
  Pb  Pb21  1  0.25000000  0.73116400  0.64814700  1
  Pb  Pb22  1  0.75000000  0.48461300  0.00363900  1
  Pb  Pb23  1  0.75000000  0.76209900  0.68269000  1
  O  O0  1  0.53835700  0.22647600  0.72874700  1
  O  O1  1  0.46164300  0.72647600  0.77125300  1
  O  O2  1  0.94218100  0.70584800  0.55179700  1
  O  O3  1  0.25000000  0.41550100  0.29900000  1
  O  O4  1  0.55179300  0.41847400  0.60848900  1
  O  O5  1  0.96164300  0.22647600  0.72874700  1
  O  O6  1  0.25000000  0.72508300  0.96113200  1
  O  O7  1  0.04964400  0.09910500  0.56785700  1
  O  O8  1  0.75000000  0.79172500  0.87051200  1
  O  O9  1  0.94820700  0.41847400  0.60848900  1
  O  O10  1  0.05781900  0.20584800  0.94820300  1
  O  O11  1  0.44820700  0.91847400  0.89151100  1
  O  O12  1  0.95035600  0.59910500  0.93214300  1
  O  O13  1  0.44218100  0.20584800  0.94820300  1
  O  O14  1  0.75000000  0.22508300  0.53886800  1
  O  O15  1  0.55781900  0.70584800  0.55179700  1
  O  O16  1  0.45035600  0.09910500  0.56785700  1
  O  O17  1  0.54964400  0.59910500  0.93214300  1
  O  O18  1  0.03835700  0.77352400  0.27125300  1
  O  O19  1  0.75000000  0.08545500  0.34675300  1
  O  O20  1  0.05179300  0.91847400  0.89151100  1
  O  O21  1  0.46164300  0.77352400  0.27125300  1
  O  O22  1  0.44218100  0.29415200  0.44820300  1
  O  O23  1  0.94820700  0.08152600  0.10848900  1
  O  O24  1  0.25000000  0.08449900  0.79900000  1
  O  O25  1  0.25000000  0.91454500  0.65324700  1
  O  O26  1  0.25000000  0.77491700  0.46113200  1
  O  O27  1  0.53835700  0.27352400  0.22874700  1
  O  O28  1  0.25000000  0.29172500  0.62948800  1
  O  O29  1  0.75000000  0.27491700  0.03886800  1
  O  O30  1  0.05781900  0.29415200  0.44820300  1
  O  O31  1  0.75000000  0.41454500  0.84675300  1
  O  O32  1  0.04964400  0.40089500  0.06785700  1
  O  O33  1  0.55781900  0.79415200  0.05179700  1
  O  O34  1  0.75000000  0.58449900  0.70100000  1
  O  O35  1  0.25000000  0.20827500  0.12948800  1
  O  O36  1  0.44820700  0.58152600  0.39151100  1
  O  O37  1  0.75000000  0.70827500  0.37051200  1
  O  O38  1  0.96164300  0.27352400  0.22874700  1
  O  O39  1  0.75000000  0.91550100  0.20100000  1
  O  O40  1  0.03835700  0.72647600  0.77125300  1
  O  O41  1  0.55179300  0.08152600  0.10848900  1
  O  O42  1  0.45035600  0.40089500  0.06785700  1
  O  O43  1  0.94218100  0.79415200  0.05179700  1
  O  O44  1  0.95035600  0.90089500  0.43214300  1
  O  O45  1  0.05179300  0.58152600  0.39151100  1
  O  O46  1  0.25000000  0.58545500  0.15324700  1
  O  O47  1  0.54964400  0.90089500  0.43214300  1
loop_
_geom_bond_atom_site_label_1
_geom_bond_atom_site_label_2
_geom_bond_distance
_geom_bond_site_symmetry_2
O0 U3 2.051948 1_555
O0 Pb1 2.457398 1_555
O0 Pb13 2.735438 1_555
O1 U0 2.051948 1_555
O1 Pb21 2.457398 1_555
O1 Pb23 2.735438 1_555
O2 U1 2.021603 1_555
O2 Pb23 2.524220 1_555
O2 Pb8 2.754038 1_555
O3 Pb4 2.245121 1_555
O3 Pb5 2.275635 1_555
O3 Pb17 2.275635 1_555
O3 Pb15 2.436300 1_555
O4 U3 2.067427 1_555
O4 Pb8 2.394471 1_555
O4 Pb0 2.477666 1_555
O5 U2 2.051948 1_655
O5 Pb1 2.457398 1_555
O5 Pb13 2.735438 1_655
O6 U0 2.242727 1_555
O6 U4 2.242727 1_455
O6 Pb6 2.657283 1_556
O6 Pb20 2.678916 1_555
O7 U2 2.071277 1_555
O7 Pb2 2.416554 1_545
O7 Pb9 2.571556 1_555
O7 Pb18 2.851233 1_455
O8 U4 2.187655 1_555
O8 U0 2.187655 1_555
O8 Pb23 2.637439 1_555
O9 U2 2.067427 1_655
O9 Pb8 2.394471 1_555
O9 Pb11 2.477666 1_555
O10 U6 2.021603 1_556
O10 Pb13 2.524220 1_555
O10 Pb12 2.754038 1_555
O11 U0 2.067427 1_555
O11 Pb12 2.394471 1_565
O11 Pb14 2.477666 1_565
O12 U4 2.071277 1_555
O12 Pb22 2.416554 1_556
O12 Pb11 2.571556 1_555
O12 Pb20 2.851233 1_655
O13 U7 2.021603 1_556
O13 Pb13 2.524220 1_555
O13 Pb12 2.754038 1_555
O14 U2 2.242727 1_655
O14 U3 2.242727 1_555
O14 Pb7 2.657283 1_555
O14 Pb18 2.678916 1_555
O15 U5 2.021603 1_555
O15 Pb23 2.524220 1_555
O15 Pb8 2.754038 1_555
O16 U3 2.071277 1_555
O16 Pb2 2.416554 1_545
O16 Pb14 2.571556 1_555
O16 Pb18 2.851233 1_555
O17 U0 2.071277 1_555
O17 Pb22 2.416554 1_556
O17 Pb0 2.571556 1_555
O17 Pb20 2.851233 1_555
O18 U1 2.051948 1_455
O18 Pb6 2.457398 1_555
O18 Pb19 2.735438 1_455
O19 Pb7 2.304345 1_555
O19 Pb18 2.351854 1_555
O19 Pb3 2.402552 1_545
O19 Pb10 2.402552 1_545
O20 U4 2.067427 1_455
O20 Pb12 2.394471 1_565
O20 Pb9 2.477666 1_565
O21 U5 2.051948 1_555
O21 Pb6 2.457398 1_555
O21 Pb19 2.735438 1_555
O22 U3 2.021603 1_555
O22 Pb4 2.524220 1_555
O22 Pb15 2.754038 1_555
O23 U6 2.067427 1_655
O23 Pb16 2.394471 1_545
O23 Pb3 2.477666 1_545
O24 Pb13 2.245121 1_555
O24 Pb14 2.275635 1_555
O24 Pb9 2.275635 1_555
O24 Pb12 2.436300 1_555
O25 Pb21 2.304345 1_555
O25 Pb2 2.351854 1_555
O25 Pb9 2.402552 1_565
O25 Pb14 2.402552 1_565
O26 U5 2.242727 1_555
O26 U1 2.242727 1_455
O26 Pb21 2.657283 1_555
O26 Pb2 2.678916 1_555
O27 U7 2.051948 1_555
O27 Pb7 2.457398 1_555
O27 Pb4 2.735438 1_555
O28 U2 2.187655 1_555
O28 U3 2.187655 1_555
O28 Pb13 2.637439 1_555
O29 U6 2.242727 1_655
O29 U7 2.242727 1_555
O29 Pb1 2.657283 1_554
O29 Pb22 2.678916 1_555
O30 U2 2.021603 1_555
O30 Pb4 2.524220 1_555
O30 Pb15 2.754038 1_555
O31 Pb1 2.304345 1_555
O31 Pb22 2.351854 1_556
O31 Pb0 2.402552 1_555
O31 Pb11 2.402552 1_555
O32 U6 2.071277 1_555
O32 Pb20 2.416554 1_554
O32 Pb17 2.571556 1_555
O32 Pb22 2.851233 1_455
O33 U0 2.021603 1_554
O33 Pb19 2.524220 1_555
O33 Pb16 2.754038 1_555
O34 Pb23 2.245121 1_555
O34 Pb0 2.275635 1_555
O34 Pb11 2.275635 1_555
O34 Pb8 2.436300 1_555
O35 U6 2.187655 1_555
O35 U7 2.187655 1_555
O35 Pb4 2.637439 1_555
O36 U5 2.067427 1_555
O36 Pb15 2.394471 1_555
O36 Pb5 2.477666 1_555
O37 U5 2.187655 1_555
O37 U1 2.187655 1_555
O37 Pb19 2.637439 1_555
O38 U6 2.051948 1_655
O38 Pb7 2.457398 1_555
O38 Pb4 2.735438 1_655
O39 Pb19 2.245121 1_555
O39 Pb3 2.275635 1_555
O39 Pb10 2.275635 1_555
O39 Pb16 2.436300 1_555
O40 U4 2.051948 1_455
O40 Pb21 2.457398 1_555
O40 Pb23 2.735438 1_455
O41 U7 2.067427 1_555
O41 Pb16 2.394471 1_545
O41 Pb10 2.477666 1_545
O42 U7 2.071277 1_555
O42 Pb20 2.416554 1_554
O42 Pb5 2.571556 1_555
O42 Pb22 2.851233 1_555
O43 U4 2.021603 1_554
O43 Pb19 2.524220 1_555
O43 Pb16 2.754038 1_555
O44 U1 2.071277 1_555
O44 Pb18 2.416554 1_565
O44 Pb3 2.571556 1_555
O44 Pb2 2.851233 1_655
O45 U1 2.067427 1_455
O45 Pb15 2.394471 1_555
O45 Pb17 2.477666 1_555
O46 Pb6 2.304345 1_555
O46 Pb20 2.351854 1_554
O46 Pb5 2.402552 1_555
O46 Pb17 2.402552 1_555
O47 U5 2.071277 1_555
O47 Pb18 2.416554 1_565
O47 Pb10 2.571556 1_555
O47 Pb2 2.851233 1_555
