# generated using pymatgen
data_CsSO3F
_symmetry_space_group_name_H-M   'P 1'
_cell_length_a   8.28360000
_cell_length_b   7.90822300
_cell_length_c   8.21275634
_cell_angle_alpha   65.84148685
_cell_angle_beta   90.00000000
_cell_angle_gamma   90.00000000
_symmetry_Int_Tables_number   1
_chemical_formula_structural   CsSO3F
_chemical_formula_sum   'Cs4 S4 O12 F4'
_cell_volume   490.88548233
_cell_formula_units_Z   4
loop_
 _symmetry_equiv_pos_site_id
 _symmetry_equiv_pos_as_xyz
  1  'x, y, z'
loop_
 _atom_site_type_symbol
 _atom_site_label
 _atom_site_symmetry_multiplicity
 _atom_site_fract_x
 _atom_site_fract_y
 _atom_site_fract_z
 _atom_site_occupancy
  Cs  Cs0  1  0.62090500  0.27637200  0.71826900  1
  Cs  Cs1  1  0.12090500  0.72362800  0.78173100  1
  Cs  Cs2  1  0.87909500  0.27637200  0.21826900  1
  Cs  Cs3  1  0.37909500  0.72362800  0.28173100  1
  S  S0  1  0.61686300  0.74216000  0.78650900  1
  S  S1  1  0.38313700  0.25784000  0.21349100  1
  S  S2  1  0.88313700  0.74216000  0.28650900  1
  S  S3  1  0.11686300  0.25784000  0.71349100  1
  O  O0  1  0.44657300  0.17375200  0.09928500  1
  O  O1  1  0.94657300  0.82624800  0.40071500  1
  O  O2  1  0.25568000  0.39387100  0.13895100  1
  O  O3  1  0.74432000  0.60612900  0.86104900  1
  O  O4  1  0.50261200  0.30600900  0.31771100  1
  O  O5  1  0.49738800  0.69399100  0.68228900  1
  O  O6  1  0.00261200  0.69399100  0.18228900  1
  O  O7  1  0.55342700  0.82624800  0.90071500  1
  O  O8  1  0.05342700  0.17375200  0.59928500  1
  O  O9  1  0.75568000  0.60612900  0.36104900  1
  O  O10  1  0.24432000  0.39387100  0.63895100  1
  O  O11  1  0.99738800  0.30600900  0.81771100  1
  F  F0  1  0.78570600  0.91853800  0.13442400  1
  F  F1  1  0.28570600  0.08146200  0.36557600  1
  F  F2  1  0.71429400  0.91853800  0.63442400  1
  F  F3  1  0.21429400  0.08146200  0.86557600  1
loop_
_geom_bond_atom_site_label_1
_geom_bond_atom_site_label_2
_geom_bond_distance
_geom_bond_site_symmetry_2
Cs0 O9 3.223615 1_555
Cs0 O0 3.233765 1_556
Cs0 O10 3.243990 1_555
Cs0 O11 3.256452 1_555
Cs0 F2 3.267347 1_545
Cs0 O7 3.295921 1_545
Cs0 O4 3.347544 1_555
Cs0 O5 3.353014 1_555
Cs0 O3 3.423996 1_555
Cs1 O2 3.223615 1_556
Cs1 O1 3.233765 1_455
Cs1 O3 3.243990 1_455
Cs1 O5 3.256452 1_555
Cs1 F3 3.267347 1_565
Cs1 O8 3.295921 1_565
Cs1 O6 3.347544 1_556
Cs1 O11 3.353014 1_455
Cs1 O10 3.423996 1_555
Cs2 O3 3.223615 1_554
Cs2 O8 3.233765 1_655
Cs2 O2 3.243990 1_655
Cs2 O4 3.256452 1_555
Cs2 F0 3.267347 1_545
Cs2 O1 3.295921 1_545
Cs2 O11 3.347544 1_554
Cs2 O6 3.353014 1_655
Cs2 O9 3.423996 1_555
Cs3 O10 3.223615 1_555
Cs3 O7 3.233765 1_554
Cs3 O9 3.243990 1_555
Cs3 O6 3.256452 1_555
Cs3 F1 3.267347 1_565
Cs3 O0 3.295921 1_565
Cs3 O5 3.347544 1_555
Cs3 O4 3.353014 1_555
Cs3 O2 3.423996 1_555
O0 S1 1.452105 1_555
O1 S2 1.452105 1_555
O2 S1 1.451793 1_555
O3 S0 1.451793 1_555
O4 S1 1.457424 1_555
O5 S0 1.457424 1_555
O6 S2 1.457424 1_455
O7 S0 1.452105 1_555
O8 S3 1.452105 1_555
O9 S2 1.451793 1_555
O10 S3 1.451793 1_555
O11 S3 1.457424 1_655
F0 S2 1.652575 1_555
F1 S1 1.652575 1_555
F2 S0 1.652575 1_555
F3 S3 1.652575 1_555
