# generated using pymatgen
data_LiNbZnO4
_symmetry_space_group_name_H-M   'P 1'
_cell_length_a   6.17186700
_cell_length_b   6.17186700
_cell_length_c   8.50517300
_cell_angle_alpha   90.00000000
_cell_angle_beta   90.00000000
_cell_angle_gamma   90.00000000
_symmetry_Int_Tables_number   1
_chemical_formula_structural   LiNbZnO4
_chemical_formula_sum   'Li4 Nb4 Zn4 O16'
_cell_volume   323.97855888
_cell_formula_units_Z   4
loop_
 _symmetry_equiv_pos_site_id
 _symmetry_equiv_pos_as_xyz
  1  'x, y, z'
loop_
 _atom_site_type_symbol
 _atom_site_label
 _atom_site_symmetry_multiplicity
 _atom_site_fract_x
 _atom_site_fract_y
 _atom_site_fract_z
 _atom_site_occupancy
  Li  Li0  1  0.00000000  0.21904100  0.50000000  1
  Li  Li1  1  0.78095900  0.00000000  0.75000000  1
  Li  Li2  1  0.21904100  0.00000000  0.25000000  1
  Li  Li3  1  0.00000000  0.78095900  0.00000000  1
  Nb  Nb0  1  0.50000000  0.21312100  0.50000000  1
  Nb  Nb1  1  0.78687900  0.50000000  0.75000000  1
  Nb  Nb2  1  0.21312100  0.50000000  0.25000000  1
  Nb  Nb3  1  0.50000000  0.78687900  0.00000000  1
  Zn  Zn0  1  0.25916700  0.25916700  0.87500000  1
  Zn  Zn1  1  0.74083300  0.25916700  0.12500000  1
  Zn  Zn2  1  0.25916700  0.74083300  0.62500000  1
  Zn  Zn3  1  0.74083300  0.74083300  0.37500000  1
  O  O0  1  0.26331400  0.98342000  0.99677500  1
  O  O1  1  0.01658000  0.26331400  0.24677500  1
  O  O2  1  0.98342000  0.73668600  0.74677500  1
  O  O3  1  0.26331400  0.01658000  0.50322500  1
  O  O4  1  0.73668600  0.98342000  0.00322500  1
  O  O5  1  0.73668600  0.01658000  0.49677500  1
  O  O6  1  0.98342000  0.26331400  0.75322500  1
  O  O7  1  0.01658000  0.73668600  0.25322500  1
  O  O8  1  0.26588500  0.51736100  0.01648000  1
  O  O9  1  0.48263900  0.26588500  0.26648000  1
  O  O10  1  0.51736100  0.73411500  0.76648000  1
  O  O11  1  0.26588500  0.48263900  0.48352000  1
  O  O12  1  0.73411500  0.51736100  0.98352000  1
  O  O13  1  0.73411500  0.48263900  0.51648000  1
  O  O14  1  0.51736100  0.26588500  0.73352000  1
  O  O15  1  0.48263900  0.73411500  0.23352000  1
loop_
_geom_bond_atom_site_label_1
_geom_bond_atom_site_label_2
_geom_bond_distance
_geom_bond_site_symmetry_2
Li0 O3 2.050179 1_555
Li0 O5 2.050179 1_455
Li0 O6 2.173397 1_455
Li0 O1 2.173397 1_555
Li0 O13 2.315022 1_455
Li0 O11 2.315022 1_555
Li1 O6 2.050179 1_555
Li1 O2 2.050179 1_545
Li1 O4 2.173397 1_546
Li1 O5 2.173397 1_555
Li1 O14 2.315022 1_555
Li1 O10 2.315022 1_545
Li2 O1 2.050179 1_555
Li2 O7 2.050179 1_545
Li2 O3 2.173397 1_555
Li2 O0 2.173397 1_544
Li2 O9 2.315022 1_555
Li2 O15 2.315022 1_545
Li3 O4 2.050179 1_455
Li3 O0 2.050179 1_554
Li3 O7 2.173397 1_555
Li3 O2 2.173397 1_454
Li3 O12 2.315022 1_454
Li3 O8 2.315022 1_555
Nb0 O5 1.898974 1_555
Nb0 O3 1.898974 1_555
Nb0 O9 2.015499 1_555
Nb0 O14 2.015499 1_555
Nb0 O11 2.207817 1_555
Nb0 O13 2.207817 1_555
Nb1 O2 1.898974 1_555
Nb1 O6 1.898974 1_555
Nb1 O13 2.015499 1_555
Nb1 O12 2.015499 1_555
Nb1 O10 2.207817 1_555
Nb1 O14 2.207817 1_555
Nb2 O7 1.898974 1_555
Nb2 O1 1.898974 1_555
Nb2 O8 2.015499 1_555
Nb2 O11 2.015499 1_555
Nb2 O15 2.207817 1_555
Nb2 O9 2.207817 1_555
Nb3 O4 1.898974 1_555
Nb3 O0 1.898974 1_554
Nb3 O10 2.015499 1_554
Nb3 O15 2.015499 1_555
Nb3 O12 2.207817 1_554
Nb3 O8 2.207817 1_555
O0 Zn0 1.992421 1_565
O1 Zn1 1.992421 1_455
O2 Zn2 1.992421 1_655
O3 Zn2 1.992421 1_545
O4 Zn1 1.992421 1_565
O5 Zn3 1.992421 1_545
O6 Zn0 1.992421 1_655
O7 Zn3 1.992421 1_455
O8 Zn0 1.997259 1_554
O9 Zn1 1.997259 1_555
O10 Zn2 1.997259 1_555
O11 Zn2 1.997259 1_555
O12 Zn1 1.997259 1_556
O13 Zn3 1.997259 1_555
O14 Zn0 1.997259 1_555
O15 Zn3 1.997259 1_555
