# generated using pymatgen
data_SrH10(SO4)2
_symmetry_space_group_name_H-M   'P 1'
_cell_length_a   11.37332698
_cell_length_b   11.37332698
_cell_length_c   10.67926155
_cell_angle_alpha   73.76047118
_cell_angle_beta   73.76047118
_cell_angle_gamma   42.18134535
_symmetry_Int_Tables_number   1
_chemical_formula_structural   SrH10(SO4)2
_chemical_formula_sum   'Sr4 H40 S8 O32'
_cell_volume   884.92811376
_cell_formula_units_Z   4
loop_
 _symmetry_equiv_pos_site_id
 _symmetry_equiv_pos_as_xyz
  1  'x, y, z'
loop_
 _atom_site_type_symbol
 _atom_site_label
 _atom_site_symmetry_multiplicity
 _atom_site_fract_x
 _atom_site_fract_y
 _atom_site_fract_z
 _atom_site_occupancy
  Sr  Sr0  1  0.10343700  0.45079700  0.18590400  1
  Sr  Sr1  1  0.54920300  0.89656300  0.31409600  1
  Sr  Sr2  1  0.89656300  0.54920300  0.81409600  1
  Sr  Sr3  1  0.45079700  0.10343700  0.68590400  1
  H  H0  1  0.74032400  0.61272400  0.14216700  1
  H  H1  1  0.38727600  0.25967600  0.35783300  1
  H  H2  1  0.25967600  0.38727600  0.85783300  1
  H  H3  1  0.61272400  0.74032400  0.64216700  1
  H  H4  1  0.78655500  0.49436300  0.27859600  1
  H  H5  1  0.50563700  0.21344500  0.22140400  1
  H  H6  1  0.21344500  0.50563700  0.72140400  1
  H  H7  1  0.49436300  0.78655500  0.77859600  1
  H  H8  1  0.45501500  0.20121400  0.00916400  1
  H  H9  1  0.79878600  0.54498500  0.49083600  1
  H  H10  1  0.54498500  0.79878600  0.99083600  1
  H  H11  1  0.20121400  0.45501500  0.50916400  1
  H  H12  1  0.40971500  0.37682700  0.95700700  1
  H  H13  1  0.62317300  0.59028500  0.54299300  1
  H  H14  1  0.59028500  0.62317300  0.04299300  1
  H  H15  1  0.37682700  0.40971500  0.45700700  1
  H  H16  1  0.88980200  0.24665700  0.42010500  1
  H  H17  1  0.75334300  0.11019800  0.07989500  1
  H  H18  1  0.11019800  0.75334300  0.57989500  1
  H  H19  1  0.24665700  0.88980200  0.92010500  1
  H  H20  1  0.90652600  0.22389400  0.27499600  1
  H  H21  1  0.77610600  0.09347400  0.22500400  1
  H  H22  1  0.09347400  0.77610600  0.72500400  1
  H  H23  1  0.22389400  0.90652600  0.77499600  1
  H  H24  1  0.10445200  0.73061000  0.05125500  1
  H  H25  1  0.26939000  0.89554800  0.44874500  1
  H  H26  1  0.89554800  0.26939000  0.94874500  1
  H  H27  1  0.73061000  0.10445200  0.55125500  1
  H  H28  1  0.11684500  0.71621000  0.19823300  1
  H  H29  1  0.28379000  0.88315500  0.30176700  1
  H  H30  1  0.88315500  0.28379000  0.80176700  1
  H  H31  1  0.71621000  0.11684500  0.69823300  1
  H  H32  1  0.59327900  0.40094000  0.37055800  1
  H  H33  1  0.59906000  0.40672100  0.12944200  1
  H  H34  1  0.40672100  0.59906000  0.62944200  1
  H  H35  1  0.40094000  0.59327900  0.87055800  1
  H  H36  1  0.42423600  0.58957000  0.40426400  1
  H  H37  1  0.41043000  0.57576400  0.09573600  1
  H  H38  1  0.57576400  0.41043000  0.59573600  1
  H  H39  1  0.58957000  0.42423600  0.90426400  1
  S  S0  1  0.96408600  0.88686500  0.38501300  1
  S  S1  1  0.11313500  0.03591400  0.11498700  1
  S  S2  1  0.03591400  0.11313500  0.61498700  1
  S  S3  1  0.88686500  0.96408600  0.88501300  1
  S  S4  1  0.86070600  0.79040000  0.44685700  1
  S  S5  1  0.20960000  0.13929400  0.05314300  1
  S  S6  1  0.13929400  0.20960000  0.55314300  1
  S  S7  1  0.79040000  0.86070600  0.94685700  1
  O  O0  1  0.95145000  0.65299300  0.55996700  1
  O  O1  1  0.34700700  0.04855000  0.94003300  1
  O  O2  1  0.04855000  0.34700700  0.44003300  1
  O  O3  1  0.65299300  0.95145000  0.05996700  1
  O  O4  1  0.66784600  0.93731500  0.48494900  1
  O  O5  1  0.06268500  0.33215400  0.01505100  1
  O  O6  1  0.33215400  0.06268500  0.51505100  1
  O  O7  1  0.93731500  0.66784600  0.98494900  1
  O  O8  1  0.88396700  0.71603400  0.33632300  1
  O  O9  1  0.28396600  0.11603300  0.16367700  1
  O  O10  1  0.11603300  0.28396600  0.66367700  1
  O  O11  1  0.71603400  0.88396700  0.83632300  1
  O  O12  1  0.78143900  0.58583900  0.22763100  1
  O  O13  1  0.41416100  0.21856100  0.27236900  1
  O  O14  1  0.21856100  0.41416100  0.77236900  1
  O  O15  1  0.58583900  0.78143900  0.72763100  1
  O  O16  1  0.35792200  0.32855900  0.98428200  1
  O  O17  1  0.67144100  0.64207800  0.51571800  1
  O  O18  1  0.64207800  0.67144100  0.01571800  1
  O  O19  1  0.32855900  0.35792200  0.48428200  1
  O  O20  1  0.82409100  0.30752800  0.34274900  1
  O  O21  1  0.69247200  0.17590900  0.15725100  1
  O  O22  1  0.17590900  0.69247200  0.65725100  1
  O  O23  1  0.30752800  0.82409100  0.84274900  1
  O  O24  1  0.17064500  0.64426500  0.12666400  1
  O  O25  1  0.35573500  0.82935500  0.37333600  1
  O  O26  1  0.82935500  0.35573500  0.87333600  1
  O  O27  1  0.64426500  0.17064500  0.62666400  1
  O  O28  1  0.46642300  0.47834100  0.39798400  1
  O  O29  1  0.52165900  0.53357700  0.10201600  1
  O  O30  1  0.53357700  0.52165900  0.60201600  1
  O  O31  1  0.47834100  0.46642300  0.89798400  1
loop_
_geom_bond_atom_site_label_1
_geom_bond_atom_site_label_2
_geom_bond_distance
_geom_bond_site_symmetry_2
H0 O12 1.007907 1_555
H1 O13 1.007907 1_555
H2 O14 1.007907 1_555
H3 O15 1.007907 1_555
H4 O12 0.996647 1_555
H5 O13 0.996647 1_555
H6 O14 0.996647 1_555
H7 O15 0.996647 1_555
H8 O16 0.982978 1_554
H9 O17 0.982978 1_555
H10 O18 0.982978 1_556
H11 O19 0.982978 1_555
H12 O16 1.013437 1_555
H12 O31 1.609096 1_555
H13 O17 1.013437 1_555
H13 O30 1.609096 1_555
H14 O18 1.013437 1_555
H14 O29 1.609096 1_555
H15 O19 1.013437 1_555
H15 O28 1.609096 1_555
H16 O20 0.989394 1_555
H17 O21 0.989394 1_555
H18 O22 0.989394 1_555
H19 O23 0.989394 1_555
H20 O20 0.995563 1_555
H21 O21 0.995563 1_555
H22 O22 0.995563 1_555
H23 O23 0.995563 1_555
H24 O24 0.990329 1_555
H25 O25 0.990329 1_555
H26 O26 0.990329 1_555
H27 O27 0.990329 1_555
H28 O24 0.987064 1_555
H29 O25 0.987064 1_555
H30 O26 0.987064 1_555
H31 O27 0.987064 1_555
H32 O28 0.983798 1_555
H33 O29 0.983798 1_555
H34 O30 0.983798 1_555
H35 O31 0.983798 1_555
H36 O28 0.982311 1_555
H37 O29 0.982311 1_555
H38 O30 0.982311 1_555
H39 O31 0.982311 1_555
S0 S4 2.023496 1_555
S1 S5 2.023496 1_555
S2 S6 2.023496 1_555
S3 S7 2.023496 1_555
O0 S4 1.489160 1_555
O0 Sr2 2.738828 1_555
O1 S5 1.489160 1_556
O1 Sr3 2.738828 1_555
O2 S6 1.489160 1_555
O2 Sr0 2.738828 1_555
O3 S7 1.489160 1_554
O3 Sr1 2.738828 1_555
O4 S4 1.489291 1_555
O4 Sr3 2.580995 1_565
O4 Sr1 2.853353 1_555
O5 S5 1.489291 1_555
O5 Sr2 2.580995 1_454
O5 Sr0 2.853353 1_555
O6 S6 1.489291 1_555
O6 Sr1 2.580995 1_545
O6 Sr3 2.853353 1_555
O7 S7 1.489291 1_555
O7 Sr0 2.580995 1_656
O7 Sr2 2.853353 1_555
O8 S4 1.493608 1_555
O8 Sr0 2.686840 1_655
O8 Sr1 2.723116 1_555
O9 S5 1.493608 1_555
O9 Sr1 2.686840 1_545
O9 Sr0 2.723116 1_555
O10 S6 1.493608 1_555
O10 Sr2 2.686840 1_455
O10 Sr3 2.723116 1_555
O11 S7 1.493608 1_555
O11 Sr3 2.686840 1_565
O11 Sr2 2.723116 1_555
O12 Sr1 2.635379 1_555
O12 Sr0 2.665172 1_655
O13 Sr0 2.635379 1_555
O13 Sr1 2.665172 1_545
O14 Sr3 2.635379 1_555
O14 Sr2 2.665172 1_455
O15 Sr2 2.635379 1_555
O15 Sr3 2.665172 1_565
O16 Sr0 2.677922 1_556
O17 Sr1 2.677922 1_555
O18 Sr2 2.677922 1_554
O19 Sr3 2.677922 1_555
O24 Sr0 2.696255 1_555
O25 Sr1 2.696255 1_555
O26 Sr2 2.696255 1_555
O27 Sr3 2.696255 1_555
