# generated using pymatgen
data_Ce4Te3N2
_symmetry_space_group_name_H-M   'P 1'
_cell_length_a   7.42181078
_cell_length_b   11.52923543
_cell_length_c   11.71671753
_cell_angle_alpha   90.00000000
_cell_angle_beta   90.00000000
_cell_angle_gamma   90.00000000
_symmetry_Int_Tables_number   1
_chemical_formula_structural   Ce4Te3N2
_chemical_formula_sum   'Ce16 Te12 N8'
_cell_volume   1002.57378678
_cell_formula_units_Z   4
loop_
 _symmetry_equiv_pos_site_id
 _symmetry_equiv_pos_as_xyz
  1  'x, y, z'
loop_
 _atom_site_type_symbol
 _atom_site_label
 _atom_site_symmetry_multiplicity
 _atom_site_fract_x
 _atom_site_fract_y
 _atom_site_fract_z
 _atom_site_occupancy
  Ce  Ce0  1  0.14911410  0.39187058  0.55015377  1
  Ce  Ce1  1  0.35088590  0.89187058  0.05015377  1
  Ce  Ce2  1  0.22444571  0.02945296  0.75000000  1
  Ce  Ce3  1  0.14911410  0.39187058  0.94984623  1
  Ce  Ce4  1  0.27555429  0.52945296  0.25000000  1
  Ce  Ce5  1  0.85088590  0.60812942  0.44984623  1
  Ce  Ce6  1  0.91411564  0.34175253  0.25000000  1
  Ce  Ce7  1  0.08588436  0.65824747  0.75000000  1
  Ce  Ce8  1  0.58588436  0.84175253  0.75000000  1
  Ce  Ce9  1  0.41411564  0.15824747  0.25000000  1
  Ce  Ce10  1  0.72444571  0.47054704  0.75000000  1
  Ce  Ce11  1  0.85088590  0.60812942  0.05015377  1
  Ce  Ce12  1  0.77555429  0.97054704  0.25000000  1
  Ce  Ce13  1  0.64911410  0.10812942  0.94984623  1
  Ce  Ce14  1  0.35088590  0.89187058  0.44984623  1
  Ce  Ce15  1  0.64911410  0.10812942  0.55015377  1
  Te  Te0  1  0.91864855  0.22916415  0.75000000  1
  Te  Te1  1  0.58135145  0.72916415  0.25000000  1
  Te  Te2  1  0.43006655  0.63673646  0.92196751  1
  Te  Te3  1  0.43006655  0.63673646  0.57803249  1
  Te  Te4  1  0.56993345  0.36326354  0.42196751  1
  Te  Te5  1  0.93006655  0.86326354  0.57803249  1
  Te  Te6  1  0.06993345  0.13673646  0.42196751  1
  Te  Te7  1  0.06993345  0.13673646  0.07803249  1
  Te  Te8  1  0.93006655  0.86326354  0.92196751  1
  Te  Te9  1  0.56993345  0.36326354  0.07803249  1
  Te  Te10  1  0.41864855  0.27083585  0.75000000  1
  Te  Te11  1  0.08135145  0.77083585  0.25000000  1
  N  N0  1  0.55475953  0.03310039  0.37832370  1
  N  N1  1  0.44524047  0.96689961  0.87832370  1
  N  N2  1  0.94524047  0.53310039  0.87832370  1
  N  N3  1  0.05475953  0.46689961  0.37832370  1
  N  N4  1  0.44524047  0.96689961  0.62167630  1
  N  N5  1  0.94524047  0.53310039  0.62167630  1
  N  N6  1  0.05475953  0.46689961  0.12167630  1
  N  N7  1  0.55475953  0.03310039  0.12167630  1
loop_
_geom_bond_atom_site_label_1
_geom_bond_atom_site_label_2
_geom_bond_distance
_geom_bond_site_symmetry_2
Ce0 N3 2.300431 1_555
Ce0 N5 2.375507 1_455
Ce0 Te6 3.354631 1_555
Ce0 Te10 3.381094 1_555
Ce0 Te0 3.453616 1_455
Ce0 Te4 3.481262 1_555
Ce0 Te3 3.524861 1_555
Ce1 N1 2.300431 1_554
Ce1 N7 2.375507 1_565
Ce1 Te2 3.354631 1_554
Ce1 Te11 3.381094 1_555
Ce1 Te1 3.453616 1_555
Ce1 Te8 3.481262 1_454
Ce1 Te7 3.524861 1_565
Ce2 N1 2.337960 1_545
Ce2 N4 2.337960 1_545
Ce2 Te10 3.134058 1_555
Ce2 Te0 3.233037 1_455
Ce2 Te5 3.536165 1_445
Ce2 Te8 3.536165 1_445
Ce3 N6 2.300431 1_556
Ce3 N2 2.375507 1_455
Ce3 Te7 3.354631 1_556
Ce3 Te10 3.381094 1_555
Ce3 Te0 3.453616 1_455
Ce3 Te9 3.481262 1_556
Ce3 Te2 3.524861 1_555
Ce4 N6 2.337960 1_555
Ce4 N3 2.337960 1_555
Ce4 Te11 3.134058 1_555
Ce4 Te1 3.233037 1_555
Ce4 Te4 3.536165 1_555
Ce4 Te9 3.536165 1_555
Ce5 N5 2.300431 1_555
Ce5 N3 2.375507 1_655
Ce5 Te5 3.354631 1_555
Ce5 Te1 3.381094 1_555
Ce5 Te11 3.453616 1_655
Ce5 Te3 3.481262 1_555
Ce5 Te4 3.524861 1_555
Ce6 N3 2.330668 1_655
Ce6 N6 2.330668 1_655
Ce6 Te4 3.262905 1_555
Ce6 Te9 3.262905 1_555
Ce6 Te7 3.314235 1_655
Ce6 Te6 3.314235 1_655
Ce7 N2 2.330668 1_455
Ce7 N5 2.330668 1_455
Ce7 Te2 3.262905 1_555
Ce7 Te3 3.262905 1_555
Ce7 Te5 3.314235 1_455
Ce7 Te8 3.314235 1_455
Ce8 N1 2.330668 1_555
Ce8 N4 2.330668 1_555
Ce8 Te5 3.262905 1_555
Ce8 Te8 3.262905 1_555
Ce8 Te3 3.314235 1_555
Ce8 Te2 3.314235 1_555
Ce9 N0 2.330668 1_555
Ce9 N7 2.330668 1_555
Ce9 Te7 3.262905 1_555
Ce9 Te6 3.262905 1_555
Ce9 Te4 3.314235 1_555
Ce9 Te9 3.314235 1_555
Ce10 N2 2.337960 1_555
Ce10 N5 2.337960 1_555
Ce10 Te0 3.134058 1_555
Ce10 Te10 3.233037 1_555
Ce10 Te3 3.536165 1_555
Ce10 Te2 3.536165 1_555
Ce11 N2 2.300431 1_554
Ce11 N6 2.375507 1_655
Ce11 Te8 3.354631 1_554
Ce11 Te1 3.381094 1_555
Ce11 Te11 3.453616 1_655
Ce11 Te2 3.481262 1_554
Ce11 Te9 3.524861 1_555
Ce12 N0 2.337960 1_565
Ce12 N7 2.337960 1_565
Ce12 Te1 3.134058 1_555
Ce12 Te11 3.233037 1_655
Ce12 Te7 3.536165 1_665
Ce12 Te6 3.536165 1_665
Ce13 N7 2.300431 1_556
Ce13 N1 2.375507 1_545
Ce13 Te9 3.354631 1_556
Ce13 Te0 3.381094 1_555
Ce13 Te10 3.453616 1_555
Ce13 Te7 3.481262 1_656
Ce13 Te8 3.524861 1_545
Ce14 N4 2.300431 1_555
Ce14 N0 2.375507 1_565
Ce14 Te3 3.354631 1_555
Ce14 Te11 3.381094 1_555
Ce14 Te1 3.453616 1_555
Ce14 Te5 3.481262 1_455
Ce14 Te6 3.524861 1_565
Ce15 N0 2.300431 1_555
Ce15 N4 2.375507 1_545
Ce15 Te4 3.354631 1_555
Ce15 Te0 3.381094 1_555
Ce15 Te10 3.453616 1_555
Ce15 Te6 3.481262 1_655
Ce15 Te5 3.524861 1_545
