# generated using pymatgen
data_LaCu3(RuO3)4
_symmetry_space_group_name_H-M   'P 1'
_cell_length_a   6.53453233
_cell_length_b   6.53453233
_cell_length_c   6.53453233
_cell_angle_alpha   109.47122063
_cell_angle_beta   109.47122063
_cell_angle_gamma   109.47122063
_symmetry_Int_Tables_number   1
_chemical_formula_structural   LaCu3(RuO3)4
_chemical_formula_sum   'La1 Cu3 Ru4 O12'
_cell_volume   214.79375104
_cell_formula_units_Z   1
loop_
 _symmetry_equiv_pos_site_id
 _symmetry_equiv_pos_as_xyz
  1  'x, y, z'
loop_
 _atom_site_type_symbol
 _atom_site_label
 _atom_site_symmetry_multiplicity
 _atom_site_fract_x
 _atom_site_fract_y
 _atom_site_fract_z
 _atom_site_occupancy
  La  La0  1  0.00000000  0.00000000  0.00000000  1
  Cu  Cu0  1  0.00000000  0.50000000  0.50000000  1
  Cu  Cu1  1  0.50000000  0.50000000  0.00000000  1
  Cu  Cu2  1  0.50000000  0.00000000  0.50000000  1
  Ru  Ru0  1  0.50000000  0.50000000  0.50000000  1
  Ru  Ru1  1  0.50000000  0.00000000  0.00000000  1
  Ru  Ru2  1  0.00000000  0.00000000  0.50000000  1
  Ru  Ru3  1  0.00000000  0.50000000  0.00000000  1
  O  O0  1  0.17272900  0.30614000  0.47886900  1
  O  O1  1  0.86658900  0.17272900  0.69386000  1
  O  O2  1  0.30614000  0.13341100  0.82727100  1
  O  O3  1  0.69386000  0.86658900  0.17272900  1
  O  O4  1  0.13341100  0.82727100  0.30614000  1
  O  O5  1  0.82727100  0.30614000  0.13341100  1
  O  O6  1  0.82727100  0.69386000  0.52113100  1
  O  O7  1  0.30614000  0.47886900  0.17272900  1
  O  O8  1  0.17272900  0.69386000  0.86658900  1
  O  O9  1  0.47886900  0.17272900  0.30614000  1
  O  O10  1  0.69386000  0.52113100  0.82727100  1
  O  O11  1  0.52113100  0.82727100  0.69386000  1
loop_
_geom_bond_atom_site_label_1
_geom_bond_atom_site_label_2
_geom_bond_distance
_geom_bond_site_symmetry_2
La0 O11 2.652269 1_444
La0 O7 2.652269 1_555
La0 O10 2.652269 1_444
La0 O6 2.652269 1_444
La0 O2 2.652269 1_554
La0 O9 2.652269 1_555
La0 O0 2.652269 1_555
La0 O4 2.652269 1_545
La0 O5 2.652269 1_455
La0 O1 2.652269 1_454
La0 O8 2.652269 1_544
La0 O3 2.652269 1_445
Cu0 O8 1.959154 1_555
Cu0 O0 1.959154 1_555
Cu0 O5 1.959154 1_455
Cu0 O6 1.959154 1_455
Cu1 O3 1.959154 1_555
Cu1 O7 1.959154 1_555
Cu1 O2 1.959154 1_554
Cu1 O10 1.959154 1_554
Cu2 O1 1.959154 1_555
Cu2 O4 1.959154 1_545
Cu2 O9 1.959154 1_555
Cu2 O11 1.959154 1_545
O0 Ru0 2.019336 1_555
O0 Ru2 2.019336 1_555
O1 Ru3 2.019336 1_656
O1 Ru2 2.019336 1_655
O2 Ru1 2.019336 1_556
O2 Ru2 2.019336 1_555
O3 Ru2 2.019336 1_665
O3 Ru1 2.019336 1_565
O4 Ru3 2.019336 1_555
O4 Ru2 2.019336 1_565
O5 Ru1 2.019336 1_555
O5 Ru3 2.019336 1_655
O6 Ru0 2.019336 1_555
O6 Ru2 2.019336 1_665
O7 Ru0 2.019336 1_555
O7 Ru3 2.019336 1_555
O8 Ru1 2.019336 1_566
O8 Ru3 2.019336 1_556
O9 Ru0 2.019336 1_555
O9 Ru1 2.019336 1_555
O10 Ru3 2.019336 1_656
O10 Ru0 2.019336 1_555
O11 Ru0 2.019336 1_555
O11 Ru1 2.019336 1_566
