# generated using pymatgen
data_Fe4Te2MoC14(SO7)2
_symmetry_space_group_name_H-M   'P 1'
_cell_length_a   11.73725900
_cell_length_b   14.57456800
_cell_length_c   15.60331500
_cell_angle_alpha   90.00000000
_cell_angle_beta   90.00000000
_cell_angle_gamma   90.00000000
_symmetry_Int_Tables_number   1
_chemical_formula_structural   Fe4Te2MoC14(SO7)2
_chemical_formula_sum   'Fe16 Te8 Mo4 C56 S8 O56'
_cell_volume   2669.18856116
_cell_formula_units_Z   4
loop_
 _symmetry_equiv_pos_site_id
 _symmetry_equiv_pos_as_xyz
  1  'x, y, z'
loop_
 _atom_site_type_symbol
 _atom_site_label
 _atom_site_symmetry_multiplicity
 _atom_site_fract_x
 _atom_site_fract_y
 _atom_site_fract_z
 _atom_site_occupancy
  Fe  Fe0  1  0.43554600  0.00922300  0.40452200  1
  Fe  Fe1  1  0.83844000  0.90390300  0.53042500  1
  Fe  Fe2  1  0.56445400  0.99077700  0.90452200  1
  Fe  Fe3  1  0.33844000  0.59609700  0.03042500  1
  Fe  Fe4  1  0.75187500  0.87051300  0.30987200  1
  Fe  Fe5  1  0.92985200  0.73686300  0.92739800  1
  Fe  Fe6  1  0.42985200  0.76313700  0.42739800  1
  Fe  Fe7  1  0.24812500  0.12948700  0.80987200  1
  Fe  Fe8  1  0.25187500  0.62948700  0.80987200  1
  Fe  Fe9  1  0.93554600  0.49077700  0.90452200  1
  Fe  Fe10  1  0.66156000  0.40390300  0.53042500  1
  Fe  Fe11  1  0.07014800  0.26313700  0.42739800  1
  Fe  Fe12  1  0.74812500  0.37051300  0.30987200  1
  Fe  Fe13  1  0.57014800  0.23686300  0.92739800  1
  Fe  Fe14  1  0.06445400  0.50922300  0.40452200  1
  Fe  Fe15  1  0.16156000  0.09609700  0.03042500  1
  Te  Te0  1  0.77628600  0.76233200  0.44154400  1
  Te  Te1  1  0.72371400  0.26233200  0.44154400  1
  Te  Te2  1  0.22371400  0.23766800  0.94154400  1
  Te  Te3  1  0.99778900  0.37361500  0.31066600  1
  Te  Te4  1  0.50221100  0.87361500  0.31066600  1
  Te  Te5  1  0.49778900  0.12638500  0.81066600  1
  Te  Te6  1  0.00221100  0.62638500  0.81066600  1
  Te  Te7  1  0.27628600  0.73766800  0.94154400  1
  Mo  Mo0  1  0.10683100  0.60877200  0.97455200  1
  Mo  Mo1  1  0.39316900  0.10877200  0.97455200  1
  Mo  Mo2  1  0.89316900  0.39122800  0.47455200  1
  Mo  Mo3  1  0.60683100  0.89122800  0.47455200  1
  C  C0  1  0.09797300  0.13177800  0.79814000  1
  C  C1  1  0.15677900  0.99122300  0.09042600  1
  C  C2  1  0.19771400  0.51335900  0.35112700  1
  C  C3  1  0.80228600  0.48664100  0.85112700  1
  C  C4  1  0.01486400  0.09731500  0.00210900  1
  C  C5  1  0.22449000  0.72485700  0.73833700  1
  C  C6  1  0.09274500  0.19395100  0.52062600  1
  C  C7  1  0.76554400  0.45578100  0.22744800  1
  C  C8  1  0.90478100  0.40381400  0.98200800  1
  C  C9  1  0.20708500  0.25437800  0.38038800  1
  C  C10  1  0.72449000  0.77514300  0.23833700  1
  C  C11  1  0.98591800  0.58668200  0.33758100  1
  C  C12  1  0.51408200  0.08668200  0.33758100  1
  C  C13  1  0.40241100  0.99849700  0.05168000  1
  C  C14  1  0.14734300  0.16625100  0.12384500  1
  C  C15  1  0.64734300  0.33374900  0.62384500  1
  C  C16  1  0.90202700  0.86822200  0.29814000  1
  C  C17  1  0.90725500  0.80604900  0.02062600  1
  C  C18  1  0.89898000  0.31759400  0.58431200  1
  C  C19  1  0.49726300  0.67026900  0.37143200  1
  C  C20  1  0.84322100  0.00877700  0.59042600  1
  C  C21  1  0.00273700  0.17026900  0.37143200  1
  C  C22  1  0.27551000  0.22485700  0.73833700  1
  C  C23  1  0.77551000  0.27514300  0.23833700  1
  C  C24  1  0.59274500  0.30604900  0.02062600  1
  C  C25  1  0.40725500  0.69395100  0.52062600  1
  C  C26  1  0.48513600  0.59731500  0.00210900  1
  C  C27  1  0.40202700  0.63177800  0.79814000  1
  C  C28  1  0.29291500  0.75437800  0.38038800  1
  C  C29  1  0.34322100  0.49122300  0.09042600  1
  C  C30  1  0.39898000  0.18240600  0.08431200  1
  C  C31  1  0.98513600  0.90268500  0.50210900  1
  C  C32  1  0.59797300  0.36822200  0.29814000  1
  C  C33  1  0.79291500  0.74562200  0.88038800  1
  C  C34  1  0.26554400  0.04421900  0.72744800  1
  C  C35  1  0.23445600  0.54421900  0.72744800  1
  C  C36  1  0.51486400  0.40268500  0.50210900  1
  C  C37  1  0.59521900  0.90381400  0.98200800  1
  C  C38  1  0.69771400  0.98664100  0.85112700  1
  C  C39  1  0.73445600  0.95578100  0.22744800  1
  C  C40  1  0.48591800  0.91331800  0.83758100  1
  C  C41  1  0.35265700  0.66625100  0.12384500  1
  C  C42  1  0.50273700  0.32973100  0.87143200  1
  C  C43  1  0.99726300  0.82973100  0.87143200  1
  C  C44  1  0.10102000  0.68240600  0.08431200  1
  C  C45  1  0.30228600  0.01335900  0.35112700  1
  C  C46  1  0.65677900  0.50877700  0.59042600  1
  C  C47  1  0.90241100  0.50150300  0.55168000  1
  C  C48  1  0.59758900  0.00150300  0.55168000  1
  C  C49  1  0.85265700  0.83374900  0.62384500  1
  C  C50  1  0.70708500  0.24562200  0.88038800  1
  C  C51  1  0.09758900  0.49849700  0.05168000  1
  C  C52  1  0.40478100  0.09618600  0.48200800  1
  C  C53  1  0.09521900  0.59618600  0.48200800  1
  C  C54  1  0.01408200  0.41331800  0.83758100  1
  C  C55  1  0.60102000  0.81759400  0.58431200  1
  S  S0  1  0.59872300  0.10500200  0.99933500  1
  S  S1  1  0.90127700  0.60500200  0.99933500  1
  S  S2  1  0.76551800  0.97952800  0.41522200  1
  S  S3  1  0.26551800  0.52047200  0.91522200  1
  S  S4  1  0.73448200  0.47952800  0.41522200  1
  S  S5  1  0.23448200  0.02047200  0.91522200  1
  S  S6  1  0.40127700  0.89499800  0.49933500  1
  S  S7  1  0.09872300  0.39499800  0.49933500  1
  O  O0  1  0.59306400  0.77864800  0.64907000  1
  O  O1  1  0.88237300  0.34622900  0.03051100  1
  O  O2  1  0.78538300  0.98092500  0.81700500  1
  O  O3  1  0.09306400  0.72135200  0.14907000  1
  O  O4  1  0.90693600  0.27864800  0.64907000  1
  O  O5  1  0.61762700  0.84622900  0.03051100  1
  O  O6  1  0.99956300  0.87006000  0.28813900  1
  O  O7  1  0.41838800  0.40291300  0.48602200  1
  O  O8  1  0.28538300  0.51907500  0.31700500  1
  O  O9  1  0.29762900  0.24749600  0.35114500  1
  O  O10  1  0.90374900  0.56205200  0.60054800  1
  O  O11  1  0.20237100  0.74749600  0.35114500  1
  O  O12  1  0.71128800  0.71430600  0.19184000  1
  O  O13  1  0.84995500  0.07709600  0.62785700  1
  O  O14  1  0.86425100  0.78896200  0.68463500  1
  O  O15  1  0.28871200  0.28569400  0.69184000  1
  O  O16  1  0.21461700  0.01907500  0.31700500  1
  O  O17  1  0.13574900  0.21103800  0.18463500  1
  O  O18  1  0.56321300  0.13570000  0.29206000  1
  O  O19  1  0.49956300  0.62994000  0.78813900  1
  O  O20  1  0.11762700  0.65377100  0.53051100  1
  O  O21  1  0.46201100  0.38909400  0.83237300  1
  O  O22  1  0.59625100  0.06205200  0.60054800  1
  O  O23  1  0.34995500  0.42290400  0.12785700  1
  O  O24  1  0.65004500  0.57709600  0.62785700  1
  O  O25  1  0.53798900  0.61090600  0.33237300  1
  O  O26  1  0.15004500  0.92290400  0.12785700  1
  O  O27  1  0.76770200  0.50934800  0.17290400  1
  O  O28  1  0.63574900  0.28896200  0.68463500  1
  O  O29  1  0.08161200  0.90291300  0.48602200  1
  O  O30  1  0.26770200  0.99065200  0.67290400  1
  O  O31  1  0.03798900  0.88909400  0.83237300  1
  O  O32  1  0.40374900  0.93794800  0.10054800  1
  O  O33  1  0.50043700  0.37006000  0.28813900  1
  O  O34  1  0.70237100  0.75250400  0.85114500  1
  O  O35  1  0.58161200  0.59708700  0.98602200  1
  O  O36  1  0.60947200  0.35355700  0.07901700  1
  O  O37  1  0.91838800  0.09708700  0.98602200  1
  O  O38  1  0.00043700  0.12994000  0.78813900  1
  O  O39  1  0.40693600  0.22135200  0.14907000  1
  O  O40  1  0.21128800  0.78569400  0.69184000  1
  O  O41  1  0.06321300  0.36430000  0.79206000  1
  O  O42  1  0.78871200  0.21430600  0.19184000  1
  O  O43  1  0.79762900  0.25250400  0.85114500  1
  O  O44  1  0.93678700  0.63570000  0.29206000  1
  O  O45  1  0.38237300  0.15377100  0.53051100  1
  O  O46  1  0.09625100  0.43794800  0.10054800  1
  O  O47  1  0.73229800  0.00934800  0.17290400  1
  O  O48  1  0.96201100  0.11090600  0.33237300  1
  O  O49  1  0.89052800  0.85355700  0.07901700  1
  O  O50  1  0.39052800  0.64644300  0.57901700  1
  O  O51  1  0.71461700  0.48092500  0.81700500  1
  O  O52  1  0.10947200  0.14644300  0.57901700  1
  O  O53  1  0.36425100  0.71103800  0.18463500  1
  O  O54  1  0.23229800  0.49065200  0.67290400  1
  O  O55  1  0.43678700  0.86430000  0.79206000  1
loop_
_geom_bond_atom_site_label_1
_geom_bond_atom_site_label_2
_geom_bond_distance
_geom_bond_site_symmetry_2
Fe0 S6 2.263160 1_545
Fe0 Te4 2.581313 1_545
Fe1 S2 2.275654 1_555
Fe1 Te0 2.590921 1_555
Fe2 S0 2.263160 1_565
Fe2 Te5 2.581313 1_565
Fe3 S3 2.275654 1_554
Fe3 Te7 2.590921 1_554
Fe4 S2 2.291764 1_555
Fe4 Te0 2.605590 1_555
Fe4 Te4 2.930746 1_555
Fe5 S1 2.250728 1_555
Fe5 Te6 2.575164 1_655
Fe6 S6 2.250728 1_555
Fe6 Te4 2.575164 1_555
Fe7 S5 2.291764 1_555
Fe7 Te2 2.605590 1_555
Fe7 Te5 2.930746 1_555
Fe8 S3 2.291764 1_555
Fe8 Te7 2.605590 1_555
Fe8 Te6 2.930746 1_555
Fe9 S1 2.263160 1_555
Fe9 Te6 2.581313 1_655
Fe10 S4 2.275654 1_555
Fe10 Te1 2.590921 1_555
Fe11 S7 2.250728 1_555
Fe11 Te3 2.575164 1_455
Fe12 S4 2.291764 1_555
Fe12 Te1 2.605590 1_555
Fe12 Te3 2.930746 1_555
Fe13 S0 2.250728 1_555
Fe13 Te5 2.575164 1_555
Fe14 S7 2.263160 1_555
Fe14 Te3 2.581313 1_455
Fe15 S5 2.275654 1_554
Fe15 Te2 2.590921 1_554
Mo0 S1 2.444052 1_455
Mo0 S3 2.445874 1_555
Mo0 Te7 2.783933 1_555
Mo0 Te6 2.848307 1_555
Mo1 S0 2.444052 1_555
Mo1 S5 2.445874 1_555
Mo1 Te2 2.783933 1_555
Mo1 Te5 2.848307 1_555
Mo2 S7 2.444052 1_655
Mo2 S4 2.445874 1_555
Mo2 Te1 2.783933 1_555
Mo2 Te3 2.848307 1_555
Mo3 S6 2.444052 1_555
Mo3 S2 2.445874 1_555
Mo3 Te0 2.783933 1_555
Mo3 Te4 2.848307 1_555
C0 O38 1.155702 1_555
C0 Fe7 1.772169 1_555
C1 O26 1.157073 1_555
C1 Fe15 1.793304 1_565
C2 O8 1.161566 1_555
C2 Fe14 1.773185 1_555
C3 O51 1.161566 1_555
C3 Fe9 1.773185 1_555
C4 O37 1.159856 1_454
C4 Fe15 1.777681 1_555
C5 O40 1.156097 1_555
C5 Fe8 1.811412 1_555
C6 O52 1.161062 1_555
C6 Fe11 1.789743 1_555
C7 O27 1.155194 1_555
C7 Fe12 1.800065 1_555
C8 O1 1.160309 1_556
C8 Fe9 1.788460 1_555
C9 O9 1.160893 1_555
C9 Fe11 1.771338 1_555
C10 O12 1.156097 1_555
C10 Fe4 1.811412 1_555
C11 O44 1.160787 1_555
C11 Fe14 1.793092 1_655
C12 O18 1.160787 1_555
C12 Fe0 1.793092 1_555
C13 O32 1.166371 1_555
C13 Mo1 2.010769 1_564
C14 O17 1.159441 1_555
C14 Fe15 1.788311 1_555
C15 O28 1.159441 1_555
C15 Fe10 1.788311 1_555
C16 O6 1.155702 1_555
C16 Fe4 1.772169 1_555
C17 O49 1.161062 1_555
C17 Fe5 1.789743 1_554
C18 O4 1.162713 1_555
C18 Mo2 2.022237 1_555
C19 O25 1.161240 1_555
C19 Fe6 1.794602 1_555
C20 O13 1.157073 1_555
C20 Fe1 1.793304 1_545
C21 O48 1.161240 1_455
C21 Fe11 1.794602 1_555
C22 O15 1.156097 1_555
C22 Fe7 1.811412 1_555
C23 O42 1.156097 1_555
C23 Fe12 1.811412 1_555
C24 O36 1.161062 1_555
C24 Fe13 1.789743 1_554
C25 O50 1.161062 1_555
C25 Fe6 1.789743 1_555
C26 O35 1.159856 1_554
C26 Fe3 1.777681 1_555
C27 O19 1.155702 1_555
C27 Fe8 1.772169 1_555
C28 O11 1.160893 1_555
C28 Fe6 1.771338 1_555
C29 O23 1.157073 1_555
C29 Fe3 1.793304 1_555
C30 O39 1.162713 1_555
C30 Mo1 2.022237 1_554
C31 O29 1.159856 1_655
C31 Fe1 1.777681 1_555
C32 O33 1.155702 1_555
C32 Fe12 1.772169 1_555
C33 O34 1.160893 1_555
C33 Fe5 1.771338 1_555
C34 O30 1.155194 1_545
C34 Fe7 1.800065 1_555
C35 O54 1.155194 1_555
C35 Fe8 1.800065 1_555
C36 O7 1.159856 1_555
C36 Fe10 1.777681 1_555
C37 O5 1.160309 1_556
C37 Fe2 1.788460 1_555
C38 O2 1.161566 1_555
C38 Fe2 1.773185 1_555
C39 O47 1.155194 1_565
C39 Fe4 1.800065 1_555
C40 O55 1.160787 1_555
C40 Fe2 1.793092 1_555
C41 O53 1.159441 1_555
C41 Fe3 1.788311 1_555
C42 O21 1.161240 1_555
C42 Fe13 1.794602 1_555
C43 O31 1.161240 1_655
C43 Fe5 1.794602 1_555
C44 O3 1.162713 1_555
C44 Mo0 2.022237 1_554
C45 O16 1.161566 1_555
C45 Fe0 1.773185 1_555
C46 O24 1.157073 1_555
C46 Fe10 1.793304 1_555
C47 O10 1.166371 1_555
C47 Mo2 2.010769 1_555
C48 O22 1.166371 1_555
C48 Mo3 2.010769 1_545
C49 O14 1.159441 1_555
C49 Fe1 1.788311 1_555
C50 O43 1.160893 1_555
C50 Fe13 1.771338 1_555
C51 O46 1.166371 1_555
C51 Mo0 2.010769 1_554
C52 O45 1.160309 1_555
C52 Fe0 1.788460 1_555
C53 O20 1.160309 1_555
C53 Fe14 1.788460 1_555
C54 O41 1.160787 1_555
C54 Fe9 1.793092 1_455
C55 O0 1.162713 1_555
C55 Mo3 2.022237 1_555
