# generated using pymatgen
data_Li26(B24O)3
_symmetry_space_group_name_H-M   'P 1'
_cell_length_a   8.21843300
_cell_length_b   8.21936579
_cell_length_c   16.47349073
_cell_angle_alpha   89.99605417
_cell_angle_beta   90.04991364
_cell_angle_gamma   119.99203244
_symmetry_Int_Tables_number   1
_chemical_formula_structural   Li26(B24O)3
_chemical_formula_sum   'Li26 B72 O3'
_cell_volume   963.78076276
_cell_formula_units_Z   1
loop_
 _symmetry_equiv_pos_site_id
 _symmetry_equiv_pos_as_xyz
  1  'x, y, z'
loop_
 _atom_site_type_symbol
 _atom_site_label
 _atom_site_symmetry_multiplicity
 _atom_site_fract_x
 _atom_site_fract_y
 _atom_site_fract_z
 _atom_site_occupancy
  Li  Li0  1  0.76056700  0.79547100  0.25620300  1
  Li  Li1  1  0.36025500  0.71125200  0.99986800  1
  Li  Li2  1  0.34243500  0.68449400  0.24870300  1
  Li  Li3  1  0.34689400  0.67369000  0.49904000  1
  Li  Li4  1  0.34659000  0.67264700  0.75188600  1
  Li  Li5  1  0.04023700  0.80226500  0.23012800  1
  Li  Li6  1  0.84892900  0.73708300  0.50087500  1
  Li  Li7  1  0.84641700  0.73613000  0.75164900  1
  Li  Li8  1  0.18711200  0.37587400  0.99699500  1
  Li  Li9  1  0.01528900  0.25069300  0.49798600  1
  Li  Li10  1  0.14707800  0.29272800  0.25012800  1
  Li  Li11  1  0.01711600  0.25080000  0.74991900  1
  Li  Li12  1  0.27178000  0.20707400  0.50188700  1
  Li  Li13  1  0.27280900  0.20607600  0.74646700  1
  Li  Li14  1  0.70074700  0.39788100  0.00002600  1
  Li  Li15  1  0.67784500  0.35359900  0.24747200  1
  Li  Li16  1  0.67673800  0.34110000  0.49830400  1
  Li  Li17  1  0.79398700  0.10566000  0.00214500  1
  Li  Li18  1  0.67692400  0.34115600  0.75262000  1
  Li  Li19  1  0.75270400  0.95592000  0.49686200  1
  Li  Li20  1  0.82831000  0.10314400  0.24306500  1
  Li  Li21  1  0.75248900  0.95667400  0.75456900  1
  Li  Li22  1  0.32000100  0.11560200  0.99843900  1
  Li  Li23  1  0.27699100  0.10426300  0.25680800  1
  Li  Li24  1  0.16873800  0.89309300  0.49688900  1
  Li  Li25  1  0.16747700  0.89118100  0.75335700  1
  B  B0  1  0.50457400  0.01006100  0.20041300  1
  B  B1  1  0.50486300  0.01033600  0.45033100  1
  B  B2  1  0.50395600  0.00880900  0.05148600  1
  B  B3  1  0.55212400  0.88273000  0.12647200  1
  B  B4  1  0.55615100  0.88956700  0.37482500  1
  B  B5  1  0.55979800  0.89589400  0.62560800  1
  B  B6  1  0.55583600  0.88924200  0.87502500  1
  B  B7  1  0.55232000  0.67718800  0.12617500  1
  B  B8  1  0.55551700  0.68364800  0.37536700  1
  B  B9  1  0.56285300  0.69235400  0.62565700  1
  B  B10  1  0.55839400  0.68490900  0.87490400  1
  B  B11  1  0.33047500  0.88198900  0.12623300  1
  B  B12  1  0.33566600  0.88989100  0.37400600  1
  B  B13  1  0.33833400  0.89660500  0.62539900  1
  B  B14  1  0.33531900  0.88919000  0.87588700  1
  B  B15  1  0.51426500  0.51702600  0.45070000  1
  B  B16  1  0.51548400  0.51933600  0.69974700  1
  B  B17  1  0.50318100  0.50815200  0.05077100  1
  B  B18  1  0.51738100  0.52144400  0.55084100  1
  B  B19  1  0.49919600  0.50514200  0.30146700  1
  B  B20  1  0.12594000  0.67487500  0.12478000  1
  B  B21  1  0.13035300  0.68496800  0.37315800  1
  B  B22  1  0.13448200  0.69111100  0.62538300  1
  B  B23  1  0.12971800  0.68435100  0.87606700  1
  B  B24  1  0.33066000  0.45544100  0.12524500  1
  B  B25  1  0.33536100  0.46307500  0.37883200  1
  B  B26  1  0.34217600  0.47049400  0.62481400  1
  B  B27  1  0.33661300  0.46355600  0.87216900  1
  B  B28  1  0.12559700  0.45426600  0.12492700  1
  B  B29  1  0.13037500  0.46427500  0.37742500  1
  B  B30  1  0.13546800  0.47019100  0.62464000  1
  B  B31  1  0.13071200  0.46376500  0.87276800  1
  B  B32  1  0.00471900  0.49985300  0.19972100  1
  B  B33  1  0.00920700  0.52087300  0.44978500  1
  B  B34  1  0.00940000  0.51156900  0.94919400  1
  B  B35  1  0.01237400  0.52079100  0.69949100  1
  B  B36  1  0.00771500  0.50714800  0.30065900  1
  B  B37  1  0.00580000  0.50639700  0.05026500  1
  B  B38  1  0.01206400  0.52290500  0.55049500  1
  B  B39  1  0.00906600  0.51694200  0.80021000  1
  B  B40  1  0.88106800  0.55325700  0.12518400  1
  B  B41  1  0.88510300  0.56242700  0.37305200  1
  B  B42  1  0.89006900  0.56865200  0.62556600  1
  B  B43  1  0.88538000  0.56121800  0.87619400  1
  B  B44  1  0.67406200  0.55380900  0.12605100  1
  B  B45  1  0.67897000  0.56104400  0.37354300  1
  B  B46  1  0.68607800  0.56907300  0.62572700  1
  B  B47  1  0.67954400  0.56132400  0.87666900  1
  B  B48  1  0.88008100  0.33194700  0.12451300  1
  B  B49  1  0.88498000  0.34138300  0.37704900  1
  B  B50  1  0.88950100  0.34717400  0.62479800  1
  B  B51  1  0.88574900  0.33988000  0.87379800  1
  B  B52  1  0.49750300  0.50123900  0.20051000  1
  B  B53  1  0.50531100  0.51257600  0.94944600  1
  B  B54  1  0.51202200  0.51446700  0.80009300  1
  B  B55  1  0.67337000  0.12870400  0.12566400  1
  B  B56  1  0.67965000  0.13528800  0.37698600  1
  B  B57  1  0.68286000  0.14105700  0.62528900  1
  B  B58  1  0.67899700  0.13438000  0.87365800  1
  B  B59  1  0.45200200  0.33235600  0.12508600  1
  B  B60  1  0.45916300  0.34067100  0.37737300  1
  B  B61  1  0.46642300  0.34910700  0.62491100  1
  B  B62  1  0.45843900  0.34073300  0.87436500  1
  B  B63  1  0.45853100  0.13535400  0.37718800  1
  B  B64  1  0.45223300  0.12784100  0.12578300  1
  B  B65  1  0.46218800  0.14205300  0.62509400  1
  B  B66  1  0.45802900  0.13486600  0.87374400  1
  B  B67  1  0.50762200  0.01642300  0.69973000  1
  B  B68  1  0.50814800  0.01386500  0.94914800  1
  B  B69  1  0.50886800  0.01509400  0.30121500  1
  B  B70  1  0.50734300  0.01493300  0.55082000  1
  B  B71  1  0.50467100  0.01175800  0.80041900  1
  O  O0  1  0.00905300  0.01696400  0.24600000  1
  O  O1  1  0.01153800  0.01107700  0.49868300  1
  O  O2  1  0.01160800  0.01029900  0.75301600  1
loop_
_geom_bond_atom_site_label_1
_geom_bond_atom_site_label_2
_geom_bond_distance
_geom_bond_site_symmetry_2
Li0 O0 1.948500 1_665
Li1 Li8 2.388345 1_555
Li3 Li9 3.168974 1_555
Li5 O0 1.923671 1_565
Li6 O1 1.962186 1_665
Li7 O2 1.965497 1_665
Li9 O1 1.954297 1_555
Li10 O0 1.964244 1_555
Li11 O2 1.955194 1_555
Li12 O1 1.930681 1_555
Li12 Li16 2.937404 1_555
Li13 O2 1.938063 1_555
Li13 Li18 2.930219 1_555
Li15 Li20 2.883982 1_555
Li15 Li23 2.885765 1_555
Li16 Li6 2.827155 1_555
Li17 Li8 2.864432 1_654
Li18 Li7 2.821152 1_555
Li19 O1 1.940926 1_665
Li19 Li3 2.961584 1_555
Li20 O0 1.939687 1_655
Li21 O2 1.947206 1_665
Li22 Li8 2.847030 1_555
Li23 O0 1.953246 1_555
Li24 O1 1.965459 1_565
Li24 Li3 2.834922 1_555
Li25 O2 1.963022 1_565
B0 B69 1.660984 1_555
B0 B55 1.744139 1_555
B0 B64 1.746116 1_555
B0 B11 1.771995 1_545
B0 B3 1.772463 1_545
B0 Li2 2.450677 1_545
B0 Li20 2.473776 1_555
B0 Li23 2.532167 1_555
B0 Li15 2.565206 1_555
B1 B70 1.655714 1_555
B1 B63 1.744400 1_555
B1 B56 1.762390 1_555
B1 B12 1.765051 1_545
B1 B4 1.769055 1_545
B1 Li19 2.417532 1_545
B1 Li16 2.483955 1_555
B1 Li3 2.528989 1_545
B1 Li24 2.547558 1_545
B2 B68 1.686331 1_554
B2 B55 1.740216 1_555
B2 B64 1.747216 1_555
B2 B3 1.779221 1_545
B2 Li17 2.254373 1_555
B2 Li22 2.268048 1_554
B2 Li1 2.282595 1_544
B3 B7 1.690238 1_555
B3 B55 1.751141 1_565
B3 Li1 2.568171 1_554
B3 Li2 2.622497 1_555
B4 B8 1.689948 1_555
B4 B56 1.749582 1_565
B4 B69 1.756642 1_565
B4 Li19 2.462143 1_555
B4 Li3 2.692213 1_555
B4 Li2 2.697614 1_555
B5 B9 1.685661 1_555
B5 B57 1.745269 1_565
B5 B70 1.755459 1_565
B5 B67 1.755575 1_565
B5 Li21 2.544405 1_555
B5 Li19 2.545344 1_555
B5 Li3 2.746595 1_555
B5 Li4 2.748836 1_555
B6 B68 1.759602 1_565
B6 B71 1.767381 1_565
B6 Li21 2.442680 1_555
B6 Li1 2.570582 1_555
B6 Li4 2.678666 1_555
B6 Li17 2.809429 1_566
B7 Li0 2.606325 1_555
B7 Li2 2.676343 1_555
B7 Li1 2.708393 1_554
B8 Li0 2.448509 1_555
B8 Li3 2.638722 1_555
B8 Li2 2.725151 1_555
B8 Li19 2.830089 1_555
B9 Li4 2.688456 1_555
B9 Li3 2.691776 1_555
B10 B6 1.690096 1_555
B10 B47 1.742156 1_555
B10 B53 1.757129 1_555
B10 B54 1.758490 1_555
B10 B27 1.821779 1_555
B10 Li4 2.639227 1_555
B10 Li1 2.700880 1_555
B10 Li21 2.811825 1_555
B11 B20 1.692107 1_555
B11 B64 1.750204 1_565
B11 B2 1.775550 1_565
B11 B3 1.818571 1_555
B11 Li1 2.589850 1_554
B11 Li2 2.621788 1_555
B11 Li5 2.737266 1_555
B12 B21 1.686096 1_555
B12 B63 1.748154 1_565
B12 B69 1.749693 1_565
B12 B4 1.813412 1_555
B12 Li24 2.453884 1_555
B12 Li2 2.684889 1_555
B12 Li3 2.751732 1_555
B12 Li23 2.812828 1_565
B13 B22 1.682431 1_555
B13 B67 1.741346 1_565
B13 B70 1.742652 1_565
B13 B65 1.747318 1_565
B13 B5 1.823016 1_555
B13 Li25 2.521818 1_555
B13 Li24 2.525850 1_555
B13 Li3 2.797244 1_555
B14 B23 1.686899 1_555
B14 B66 1.749278 1_565
B14 B68 1.751034 1_565
B14 B71 1.760306 1_565
B14 B6 1.812159 1_555
B14 Li25 2.448479 1_555
B14 Li1 2.578938 1_555
B14 Li4 2.741320 1_555
B14 Li22 2.791058 1_565
B15 B18 1.649969 1_555
B15 B8 1.751263 1_555
B15 B45 1.758422 1_555
B15 B25 1.762189 1_555
B15 B60 1.763058 1_555
B15 Li3 2.440736 1_555
B15 Li12 2.469746 1_555
B15 Li16 2.533221 1_555
B15 Li6 2.557765 1_555
B16 B54 1.653456 1_555
B16 B46 1.746288 1_555
B16 B61 1.753693 1_555
B16 B9 1.763715 1_555
B16 B26 1.771712 1_555
B16 Li4 2.450143 1_555
B16 Li13 2.463339 1_555
B16 Li7 2.540523 1_555
B16 Li18 2.569882 1_555
B17 B53 1.669486 1_554
B17 B7 1.753518 1_555
B17 B24 1.758404 1_555
B17 B44 1.766674 1_555
B17 B59 1.776660 1_555
B17 Li14 2.372844 1_555
B17 Li8 2.426304 1_554
B17 Li1 2.613072 1_554
B18 B46 1.746924 1_555
B18 B61 1.754509 1_555
B18 B9 1.762566 1_555
B18 B26 1.770259 1_555
B18 Li3 2.451117 1_555
B18 Li12 2.486834 1_555
B18 Li6 2.533559 1_555
B18 Li16 2.569927 1_555
B19 B52 1.663338 1_555
B19 B60 1.747899 1_555
B19 B25 1.759058 1_555
B19 B45 1.766951 1_555
B19 B8 1.780249 1_555
B19 Li0 2.396354 1_555
B19 Li15 2.515771 1_555
B19 Li2 2.546582 1_555
B19 Li10 2.661319 1_555
B20 B37 1.740829 1_555
B20 B40 1.743016 1_455
B20 B32 1.776275 1_555
B20 B28 1.811860 1_555
B20 Li5 2.311694 1_555
B20 Li2 2.681890 1_555
B20 Li1 2.731884 1_554
B21 B41 1.745675 1_455
B21 B33 1.750222 1_555
B21 B36 1.761761 1_555
B21 B29 1.815403 1_555
B21 Li24 2.576876 1_555
B21 Li2 2.693394 1_555
B21 Li3 2.763049 1_555
B21 Li5 2.782123 1_555
B22 B42 1.739725 1_455
B22 B38 1.747290 1_555
B22 B35 1.747749 1_555
B22 B30 1.819929 1_555
B22 Li25 2.603042 1_555
B22 Li24 2.617115 1_555
B22 Li3 2.766962 1_555
B23 B43 1.739207 1_455
B23 B34 1.744624 1_555
B23 B39 1.752758 1_555
B23 B31 1.817991 1_555
B23 Li25 2.558485 1_555
B23 Li1 2.715216 1_555
B23 Li4 2.747487 1_555
B24 B28 1.680493 1_555
B24 B59 1.739726 1_555
B24 B52 1.743623 1_555
B24 B7 1.822431 1_555
B24 Li8 2.346826 1_554
B24 Li10 2.506990 1_555
B25 B29 1.689755 1_555
B25 B60 1.752555 1_555
B25 B8 1.812319 1_555
B25 Li10 2.584324 1_555
B25 Li3 2.600623 1_555
B25 Li12 2.777030 1_555
B25 Li2 2.793700 1_555
B26 B30 1.697572 1_555
B26 B61 1.748335 1_555
B26 B9 1.818865 1_555
B26 Li3 2.649287 1_555
B26 Li4 2.661616 1_555
B26 Li13 2.797740 1_555
B26 Li12 2.805276 1_555
B27 B31 1.693080 1_555
B27 B62 1.741648 1_555
B27 B54 1.750109 1_555
B27 B53 1.773031 1_555
B27 Li8 2.318704 1_555
B27 Li4 2.597208 1_555
B28 B32 1.737743 1_555
B28 B48 1.747579 1_455
B28 B37 1.756492 1_555
B28 Li8 2.332373 1_554
B28 Li10 2.506250 1_555
B29 B49 1.746714 1_455
B29 B36 1.758544 1_555
B29 B33 1.759048 1_555
B29 Li9 2.502723 1_555
B29 Li10 2.568832 1_555
B29 Li3 2.659884 1_555
B29 Li2 2.768085 1_555
B30 B50 1.750784 1_455
B30 B35 1.771920 1_555
B30 B38 1.773492 1_555
B30 Li11 2.589681 1_555
B30 Li9 2.607502 1_555
B30 Li3 2.682929 1_555
B30 Li4 2.698366 1_555
B31 B51 1.743772 1_455
B31 B39 1.747550 1_555
B31 B34 1.768437 1_555
B31 Li8 2.292947 1_555
B31 Li11 2.528753 1_555
B31 Li4 2.649758 1_555
B32 B36 1.663603 1_555
B32 B48 1.753154 1_455
B32 B40 1.782353 1_455
B32 Li5 2.406040 1_555
B32 Li15 2.460801 1_455
B32 Li2 2.538263 1_555
B32 Li10 2.635540 1_555
B33 B38 1.659158 1_555
B33 B41 1.760895 1_455
B33 B49 1.773930 1_455
B33 Li9 2.382269 1_555
B33 Li16 2.501055 1_455
B33 Li3 2.539544 1_555
B34 B37 1.665443 1_556
B34 B43 1.750771 1_455
B34 B51 1.769489 1_455
B34 Li8 2.371406 1_555
B34 Li14 2.375451 1_456
B34 Li1 2.640007 1_555
B35 B39 1.659480 1_555
B35 B42 1.743920 1_455
B35 B50 1.768484 1_455
B35 Li11 2.387975 1_555
B35 Li4 2.532965 1_555
B35 Li18 2.545760 1_455
B36 B49 1.756529 1_455
B36 B41 1.761810 1_455
B36 Li15 2.507080 1_455
B36 Li2 2.533712 1_555
B36 Li5 2.580175 1_555
B36 Li10 2.670340 1_555
B37 B40 1.766176 1_455
B37 B48 1.772108 1_455
B37 Li14 2.350898 1_455
B37 Li8 2.396256 1_554
B37 Li1 2.666563 1_554
B38 B42 1.747888 1_455
B38 B50 1.773834 1_455
B38 Li9 2.411335 1_555
B38 Li3 2.533987 1_555
B38 Li16 2.538866 1_455
B39 B43 1.762001 1_455
B39 B51 1.772567 1_455
B39 Li11 2.370866 1_555
B39 Li18 2.491342 1_455
B39 Li4 2.533917 1_555
B40 B44 1.703610 1_555
B40 B48 1.815021 1_555
B40 Li14 2.486168 1_555
B40 Li5 2.491730 1_655
B40 Li15 2.608836 1_555
B41 B45 1.688463 1_555
B41 B49 1.817525 1_555
B41 Li6 2.647894 1_555
B41 Li15 2.683017 1_555
B41 Li16 2.718519 1_555
B42 B46 1.678223 1_555
B42 B50 1.818125 1_555
B42 Li6 2.591628 1_555
B42 Li7 2.614017 1_555
B42 Li18 2.770710 1_555
B42 Li16 2.771803 1_555
B43 B47 1.692110 1_555
B43 B51 1.821206 1_555
B43 Li14 2.496919 1_556
B43 Li7 2.614872 1_555
B43 Li18 2.692048 1_555
B44 B7 1.744662 1_555
B44 B52 1.781280 1_555
B44 B59 1.822875 1_555
B44 Li14 2.506573 1_555
B44 Li15 2.600089 1_555
B44 Li0 2.762964 1_555
B45 B8 1.751585 1_555
B45 B60 1.810271 1_555
B45 Li6 2.533637 1_555
B45 Li0 2.570764 1_555
B45 Li15 2.684260 1_555
B45 Li16 2.731104 1_555
B46 B9 1.754504 1_555
B46 B61 1.806859 1_555
B46 Li6 2.466798 1_555
B46 Li7 2.472155 1_555
B46 Li18 2.782718 1_555
B46 Li16 2.789209 1_555
B47 B53 1.754311 1_555
B47 B54 1.761268 1_555
B47 B62 1.815716 1_555
B47 Li14 2.489506 1_556
B47 Li7 2.494260 1_555
B47 Li18 2.722630 1_555
B48 B55 1.685188 1_555
B48 Li17 2.589575 1_555
B48 Li20 2.594763 1_555
B48 Li15 2.683034 1_555
B48 Li14 2.732132 1_555
B49 B56 1.690943 1_555
B49 Li9 2.542794 1_655
B49 Li16 2.630766 1_555
B49 Li15 2.762059 1_555
B49 Li20 2.830202 1_555
B50 B57 1.696442 1_555
B50 Li11 2.608161 1_655
B50 Li9 2.623974 1_655
B50 Li16 2.703446 1_555
B50 Li18 2.721855 1_555
B51 B58 1.694355 1_555
B51 Li11 2.580808 1_655
B51 Li18 2.634851 1_555
B51 Li17 2.701110 1_556
B51 Li14 2.755584 1_556
B52 B59 1.758113 1_555
B52 B7 1.772939 1_555
B52 Li15 2.462482 1_555
B52 Li0 2.476714 1_555
B52 Li2 2.538548 1_555
B52 Li10 2.639842 1_555
B53 B62 1.768789 1_555
B53 Li14 2.382052 1_556
B53 Li8 2.404287 1_555
B53 Li1 2.593447 1_555
B54 B62 1.761270 1_555
B54 Li4 2.436127 1_555
B54 Li13 2.466924 1_555
B54 Li18 2.531710 1_555
B54 Li7 2.550826 1_555
B55 B64 1.813867 1_555
B55 Li17 2.313042 1_555
B55 Li20 2.380981 1_555
B55 Li15 2.716092 1_555
B56 B69 1.764893 1_555
B56 B63 1.817529 1_555
B56 Li20 2.599433 1_555
B56 Li16 2.626287 1_555
B56 Li19 2.704850 1_545
B56 Li15 2.792502 1_555
B57 B67 1.776312 1_555
B57 B70 1.778326 1_555
B57 B65 1.817684 1_555
B57 Li16 2.676574 1_555
B57 Li18 2.681065 1_555
B57 Li19 2.827869 1_545
B57 Li21 2.832717 1_545
B58 B6 1.745238 1_545
B58 B71 1.754305 1_555
B58 B68 1.763969 1_555
B58 B66 1.818013 1_555
B58 Li17 2.376640 1_556
B58 Li18 2.625443 1_555
B58 Li21 2.689126 1_545
B59 B64 1.681972 1_555
B59 Li22 2.601526 1_554
B59 Li15 2.685105 1_555
B59 Li23 2.757011 1_555
B59 Li14 2.760429 1_555
B60 B63 1.684988 1_555
B60 Li12 2.469670 1_555
B60 Li23 2.654959 1_555
B60 Li16 2.674618 1_555
B60 Li15 2.763388 1_555
B61 B65 1.684726 1_555
B61 Li13 2.461474 1_555
B61 Li12 2.481267 1_555
B61 Li16 2.731649 1_555
B61 Li18 2.744054 1_555
B62 B66 1.690446 1_555
B62 Li13 2.509615 1_555
B62 Li22 2.606711 1_555
B62 Li18 2.691938 1_555
B62 Li14 2.743952 1_556
B63 B69 1.767609 1_555
B63 Li23 2.416119 1_555
B63 Li16 2.649327 1_555
B63 Li15 2.794014 1_555
B63 Li12 2.798779 1_555
B64 Li22 2.340652 1_554
B64 Li23 2.548912 1_555
B64 Li15 2.730210 1_555
B65 B67 1.761220 1_555
B65 B70 1.764970 1_555
B65 Li16 2.696323 1_555
B65 Li18 2.704183 1_555
B65 Li13 2.742523 1_555
B65 Li12 2.772055 1_555
B66 B71 1.737424 1_555
B66 B68 1.763595 1_555
B66 Li22 2.314282 1_555
B66 Li18 2.654970 1_555
B66 Li13 2.817955 1_555
B67 B71 1.659058 1_555
B67 Li21 2.468192 1_545
B67 Li18 2.470736 1_555
B67 Li4 2.595543 1_545
B67 Li25 2.604210 1_545
B68 Li22 2.246004 1_555
B68 Li17 2.252663 1_556
B68 Li1 2.311076 1_545
B69 Li23 2.469356 1_555
B69 Li2 2.507079 1_545
B69 Li20 2.537407 1_555
B69 Li15 2.567574 1_555
B70 Li19 2.464268 1_545
B70 Li16 2.478740 1_555
B70 Li3 2.575667 1_545
B70 Li24 2.597278 1_545
B71 Li21 2.418295 1_545
B71 Li18 2.474695 1_555
B71 Li4 2.544443 1_545
B71 Li25 2.552141 1_545
