# generated using pymatgen
data_SrCa2In2Ge
_symmetry_space_group_name_H-M   'P 1'
_cell_length_a   6.58795845
_cell_length_b   6.58795845
_cell_length_c   14.17781900
_cell_angle_alpha   90.00000000
_cell_angle_beta   90.00000000
_cell_angle_gamma   136.40093429
_symmetry_Int_Tables_number   1
_chemical_formula_structural   SrCa2In2Ge
_chemical_formula_sum   'Sr2 Ca4 In4 Ge2'
_cell_volume   424.33929958
_cell_formula_units_Z   2
loop_
 _symmetry_equiv_pos_site_id
 _symmetry_equiv_pos_as_xyz
  1  'x, y, z'
loop_
 _atom_site_type_symbol
 _atom_site_label
 _atom_site_symmetry_multiplicity
 _atom_site_fract_x
 _atom_site_fract_y
 _atom_site_fract_z
 _atom_site_occupancy
  Sr  Sr0  1  0.33925000  0.66075000  0.25000000  1
  Sr  Sr1  1  0.66075000  0.33925000  0.75000000  1
  Ca  Ca0  1  0.62956900  0.37043100  0.40486600  1
  Ca  Ca1  1  0.62956900  0.37043100  0.09513400  1
  Ca  Ca2  1  0.37043100  0.62956900  0.59513400  1
  Ca  Ca3  1  0.37043100  0.62956900  0.90486600  1
  In  In0  1  0.08484400  0.91515600  0.58061100  1
  In  In1  1  0.91515600  0.08484400  0.41938900  1
  In  In2  1  0.91515600  0.08484400  0.08061100  1
  In  In3  1  0.08484400  0.91515600  0.91938900  1
  Ge  Ge0  1  0.05924700  0.94075300  0.25000000  1
  Ge  Ge1  1  0.94075300  0.05924700  0.75000000  1
loop_
_geom_bond_atom_site_label_1
_geom_bond_atom_site_label_2
_geom_bond_distance
_geom_bond_site_symmetry_2
Ca0 Ge0 3.398005 1_545
Ca0 Ge0 3.398005 1_655
Ca0 In1 3.499846 1_555
Ca0 In0 3.534578 1_655
Ca0 In0 3.534578 1_545
Ca0 In1 3.592805 1_565
Ca0 In1 3.592805 1_455
Ca1 Ge0 3.398005 1_545
Ca1 Ge0 3.398005 1_655
Ca1 In2 3.499846 1_555
Ca1 In3 3.534578 1_654
Ca1 In3 3.534578 1_544
Ca1 In2 3.592805 1_565
Ca1 In2 3.592805 1_455
Ca2 Ge1 3.398005 1_455
Ca2 Ge1 3.398005 1_565
Ca2 In0 3.499846 1_555
Ca2 In1 3.534578 1_565
Ca2 In1 3.534578 1_455
Ca2 In0 3.592805 1_655
Ca2 In0 3.592805 1_545
Ca3 Ge1 3.398005 1_455
Ca3 Ge1 3.398005 1_565
Ca3 In3 3.499846 1_555
Ca3 In2 3.534578 1_456
Ca3 In2 3.534578 1_566
Ca3 In3 3.592805 1_655
Ca3 In3 3.592805 1_545
In0 In1 3.087747 1_465
In0 Sr1 3.551793 1_455
In0 Sr1 3.551793 1_565
In1 Sr0 3.551793 1_655
In1 Sr0 3.551793 1_545
In2 In3 3.087747 1_644
In2 Sr0 3.551793 1_655
In2 Sr0 3.551793 1_545
In3 Sr1 3.551793 1_455
In3 Sr1 3.551793 1_565
Ge0 In1 2.979071 1_465
Ge0 In2 2.979071 1_465
Ge0 Sr0 3.425470 1_555
Ge0 Sr0 3.637155 1_455
Ge0 Sr0 3.637155 1_565
Ge1 In3 2.979071 1_645
Ge1 In0 2.979071 1_645
Ge1 Sr1 3.425470 1_555
Ge1 Sr1 3.637155 1_655
Ge1 Sr1 3.637155 1_545
