# generated using pymatgen
data_PH9C(NO)4
_symmetry_space_group_name_H-M   'P 1'
_cell_length_a   6.73780600
_cell_length_b   7.38431651
_cell_length_c   14.19113091
_cell_angle_alpha   87.63601047
_cell_angle_beta   80.34785112
_cell_angle_gamma   80.99257424
_symmetry_Int_Tables_number   1
_chemical_formula_structural   PH9C(NO)4
_chemical_formula_sum   'P4 H36 C4 N16 O16'
_cell_volume   687.40616758
_cell_formula_units_Z   4
loop_
 _symmetry_equiv_pos_site_id
 _symmetry_equiv_pos_as_xyz
  1  'x, y, z'
loop_
 _atom_site_type_symbol
 _atom_site_label
 _atom_site_symmetry_multiplicity
 _atom_site_fract_x
 _atom_site_fract_y
 _atom_site_fract_z
 _atom_site_occupancy
  P  P0  1  0.68661298  0.01823195  0.86928668  1
  P  P1  1  0.28327438  0.99849209  0.62048034  1
  P  P2  1  0.31338702  0.98176805  0.13071332  1
  P  P3  1  0.71672562  0.00150791  0.37951966  1
  H  H0  1  0.54950986  0.15703048  0.50603897  1
  H  H1  1  0.93739888  0.27073922  0.63586343  1
  H  H2  1  0.45049014  0.84296952  0.49396103  1
  H  H3  1  0.06175482  0.73392101  0.85915448  1
  H  H4  1  0.30361398  0.27567141  0.85417473  1
  H  H5  1  0.47325419  0.99284790  0.73677473  1
  H  H6  1  0.08878258  0.17311713  0.36849959  1
  H  H7  1  0.02637179  0.99700558  0.24024108  1
  H  H8  1  0.60535335  0.38396103  0.22738312  1
  H  H9  1  0.31301417  0.27213237  0.35501184  1
  H  H10  1  0.39793061  0.65353373  0.28604611  1
  H  H11  1  0.76617642  0.38114077  0.90911628  1
  H  H12  1  0.06260112  0.72926078  0.36413657  1
  H  H13  1  0.59388025  0.35977738  0.60019874  1
  H  H14  1  0.41116402  0.66423338  0.88178366  1
  H  H15  1  0.23491054  0.38097699  0.10227214  1
  H  H16  1  0.91121742  0.82688287  0.63150041  1
  H  H17  1  0.60206939  0.34646627  0.71395389  1
  H  H18  1  0.77638440  0.36916369  0.40563785  1
  H  H19  1  0.22869437  0.39354436  0.60476170  1
  H  H20  1  0.92387543  0.81711775  0.12572176  1
  H  H21  1  0.55089403  0.15625457  0.00539033  1
  H  H22  1  0.77130563  0.60645564  0.39523830  1
  H  H23  1  0.23382358  0.61885923  0.09088372  1
  H  H24  1  0.52674581  0.00715210  0.26322527  1
  H  H25  1  0.22361560  0.63083631  0.59436215  1
  H  H26  1  0.07612457  0.18288225  0.87427824  1
  H  H27  1  0.39464665  0.61603897  0.77261688  1
  H  H28  1  0.76508946  0.61902301  0.89772786  1
  H  H29  1  0.93824518  0.26607899  0.14084552  1
  H  H30  1  0.58883598  0.33576662  0.11821634  1
  H  H31  1  0.44910597  0.84374543  0.99460967  1
  H  H32  1  0.97362821  0.00299442  0.75975892  1
  H  H33  1  0.69638602  0.72432859  0.14582527  1
  H  H34  1  0.40611975  0.64022262  0.39980126  1
  H  H35  1  0.68698583  0.72786763  0.64498816  1
  C  C0  1  0.04456406  0.46076086  0.87575942  1
  C  C1  1  0.94838910  0.54745963  0.62838854  1
  C  C2  1  0.95543594  0.53923914  0.12424058  1
  C  C3  1  0.05161090  0.45254037  0.37161146  1
  N  N0  1  0.85753879  0.39334071  0.13375107  1
  N  N1  1  0.64441741  0.42192701  0.15770985  1
  N  N2  1  0.14994709  0.29240240  0.87286331  1
  N  N3  1  0.15922338  0.28542449  0.36705724  1
  N  N4  1  0.84077662  0.71457551  0.63294276  1
  N  N5  1  0.84827860  0.47709029  0.38089930  1
  N  N6  1  0.15172140  0.52290971  0.61910070  1
  N  N7  1  0.14483457  0.60049225  0.36623134  1
  N  N8  1  0.64139763  0.42127771  0.65336085  1
  N  N9  1  0.85005291  0.70759760  0.12713669  1
  N  N10  1  0.35860237  0.57872229  0.34663915  1
  N  N11  1  0.85516543  0.39950775  0.63376866  1
  N  N12  1  0.15818483  0.51154978  0.11202678  1
  N  N13  1  0.35558259  0.57807299  0.84229015  1
  N  N14  1  0.84181517  0.48845022  0.88797322  1
  N  N15  1  0.14246121  0.60665929  0.86624893  1
  O  O0  1  0.38163062  0.15681147  0.08752971  1
  O  O1  1  0.59273693  0.09173017  0.30115685  1
  O  O2  1  0.63540033  0.83104986  0.42126117  1
  O  O3  1  0.92296416  0.98152479  0.83194998  1
  O  O4  1  0.61836938  0.84318853  0.91247029  1
  O  O5  1  0.57392155  0.10499948  0.79159916  1
  O  O6  1  0.36459967  0.16895014  0.57873883  1
  O  O7  1  0.67208272  0.15992155  0.95102000  1
  O  O8  1  0.94266113  0.97057219  0.34052655  1
  O  O9  1  0.40726307  0.90826983  0.69884315  1
  O  O10  1  0.32791728  0.84007845  0.04898000  1
  O  O11  1  0.68252462  0.15336740  0.45745245  1
  O  O12  1  0.07703584  0.01847521  0.16805002  1
  O  O13  1  0.05733887  0.02942781  0.65947345  1
  O  O14  1  0.42607845  0.89500052  0.20840084  1
  O  O15  1  0.31747538  0.84663260  0.54254755  1
loop_
_geom_bond_atom_site_label_1
_geom_bond_atom_site_label_2
_geom_bond_distance
_geom_bond_site_symmetry_2
H0 O11 1.032518 1_555
H0 O6 1.471905 1_555
H1 N11 1.024818 1_555
H2 O15 1.032518 1_555
H2 O2 1.471905 1_555
H3 N15 1.019555 1_555
H4 N2 1.013990 1_555
H5 O9 1.035602 1_555
H5 O5 1.468752 1_565
H6 N3 1.015889 1_555
H7 O12 1.038019 1_565
H7 O8 1.457397 1_455
H8 N1 1.019047 1_555
H9 N3 1.011301 1_555
H10 N10 1.022272 1_555
H11 N14 1.016479 1_555
H12 N7 1.024818 1_555
H13 N8 1.016218 1_555
H14 N13 1.016643 1_555
H15 N12 1.023237 1_555
H16 N4 1.015889 1_555
H17 N8 1.022272 1_555
H18 N5 1.016774 1_555
H19 N6 1.023937 1_555
H20 N9 1.011498 1_555
H21 O7 1.027980 1_554
H21 O0 1.487467 1_555
H22 N5 1.023937 1_555
H23 N12 1.016479 1_555
H24 O1 1.035602 1_555
H24 O14 1.468752 1_545
H25 N6 1.016774 1_555
H26 N2 1.011498 1_555
H27 N13 1.019047 1_555
H28 N14 1.023237 1_555
H29 N0 1.019555 1_555
H30 N1 1.016643 1_555
H31 O10 1.027980 1_556
H31 O4 1.487467 1_555
H32 O3 1.038019 1_545
H32 O13 1.457397 1_655
H33 N9 1.013990 1_555
H34 N10 1.016218 1_555
H35 N4 1.011301 1_555
C0 N2 1.330210 1_555
C0 N14 1.331951 1_455
C0 N15 1.339656 1_555
C1 N4 1.327948 1_555
C1 N11 1.336372 1_555
C1 N6 1.338217 1_655
C2 N9 1.330210 1_555
C2 N12 1.331951 1_655
C2 N0 1.339656 1_555
C3 N3 1.327948 1_555
C3 N7 1.336372 1_555
C3 N5 1.338217 1_455
N0 N1 1.403374 1_555
N10 N7 1.405199 1_555
N11 N8 1.405199 1_555
N13 N15 1.403374 1_555
O0 P2 1.511291 1_545
O1 P3 1.566710 1_555
O2 P3 1.510339 1_565
O3 P0 1.576062 1_565
O4 P0 1.511291 1_565
O5 P0 1.507513 1_555
O6 P1 1.510339 1_545
O7 P0 1.574671 1_555
O8 P3 1.514884 1_565
O9 P1 1.566710 1_555
O10 P2 1.574671 1_555
O11 P3 1.571516 1_555
O12 P2 1.576062 1_545
O13 P1 1.514884 1_545
O14 P2 1.507513 1_555
O15 P1 1.571516 1_555
