# generated using pymatgen
data_GdGa2Co
_symmetry_space_group_name_H-M   'P 1'
_cell_length_a   4.04066547
_cell_length_b   4.06682650
_cell_length_c   9.01497446
_cell_angle_alpha   103.00465308
_cell_angle_beta   90.00028521
_cell_angle_gamma   89.99656301
_symmetry_Int_Tables_number   1
_chemical_formula_structural   GdGa2Co
_chemical_formula_sum   'Gd2 Ga4 Co2'
_cell_volume   144.34070743
_cell_formula_units_Z   2
loop_
 _symmetry_equiv_pos_site_id
 _symmetry_equiv_pos_as_xyz
  1  'x, y, z'
loop_
 _atom_site_type_symbol
 _atom_site_label
 _atom_site_symmetry_multiplicity
 _atom_site_fract_x
 _atom_site_fract_y
 _atom_site_fract_z
 _atom_site_occupancy
  Gd  Gd0  1  0.00200686  0.14347436  0.28450260  1
  Gd  Gd1  1  0.00195883  0.85759452  0.71460937  1
  Ga  Ga0  1  0.50208834  0.29255990  0.58347768  1
  Ga  Ga1  1  0.50197650  0.70851110  0.41535132  1
  Ga  Ga2  1  0.00173355  0.50190580  0.00034934  1
  Ga  Ga3  1  0.50225489  0.00257682  0.00036830  1
  Co  Co0  1  0.50168090  0.42951951  0.85382673  1
  Co  Co1  1  0.50176214  0.57536899  0.14669266  1
loop_
_geom_bond_atom_site_label_1
_geom_bond_atom_site_label_2
_geom_bond_distance
_geom_bond_site_symmetry_2
Ga0 Ga1 2.512494 1_555
Ga0 Ga1 2.513698 1_545
Ga0 Gd1 3.087945 1_655
Ga0 Gd1 3.088457 1_555
Ga0 Gd1 3.089806 1_645
Ga0 Gd1 3.090637 1_545
Ga0 Gd0 3.313133 1_655
Ga0 Gd0 3.313563 1_555
Ga1 Gd0 3.087652 1_655
Ga1 Gd0 3.087664 1_555
Ga1 Gd0 3.088758 1_565
Ga1 Gd0 3.089065 1_665
Ga1 Gd1 3.315289 1_655
Ga1 Gd1 3.315348 1_555
Ga2 Gd0 3.218938 1_565
Ga2 Gd0 3.219836 1_555
Ga2 Gd1 3.225661 1_554
Ga2 Gd1 3.234757 1_544
Ga3 Gd0 3.210396 1_655
Ga3 Gd0 3.211630 1_555
Ga3 Gd1 3.221367 1_644
Ga3 Gd1 3.222895 1_544
Co0 Ga0 2.374696 1_555
Co0 Ga2 2.395259 1_556
Co0 Ga2 2.395637 1_656
Co0 Ga3 2.406436 1_566
Co0 Ga3 2.406721 1_556
Co0 Co1 2.572463 1_556
Co0 Gd1 3.109017 1_555
Co0 Gd1 3.110620 1_655
Co0 Gd1 3.122338 1_545
Co0 Gd1 3.123619 1_645
Co1 Ga1 2.359835 1_555
Co1 Ga2 2.394494 1_655
Co1 Ga2 2.394708 1_555
Co1 Ga3 2.404877 1_555
Co1 Ga3 2.406240 1_565
Co1 Gd0 3.109136 1_565
Co1 Gd0 3.110592 1_665
Co1 Gd0 3.112685 1_555
Co1 Gd0 3.113824 1_655
