# generated using pymatgen
data_SiO2
_symmetry_space_group_name_H-M   'P 1'
_cell_length_a   11.71988930
_cell_length_b   11.71988930
_cell_length_c   11.71988930
_cell_angle_alpha   109.47122063
_cell_angle_beta   109.47122063
_cell_angle_gamma   109.47122063
_symmetry_Int_Tables_number   1
_chemical_formula_structural   SiO2
_chemical_formula_sum   'Si24 O48'
_cell_volume   1239.22063801
_cell_formula_units_Z   24
loop_
 _symmetry_equiv_pos_site_id
 _symmetry_equiv_pos_as_xyz
  1  'x, y, z'
loop_
 _atom_site_type_symbol
 _atom_site_label
 _atom_site_symmetry_multiplicity
 _atom_site_fract_x
 _atom_site_fract_y
 _atom_site_fract_z
 _atom_site_occupancy
  Si  Si0  1  0.71357131  0.78642869  0.25000000  1
  Si  Si1  1  0.46357131  0.25000000  0.03642869  1
  Si  Si2  1  0.03642869  0.07285638  0.78642869  1
  Si  Si3  1  0.42714362  0.46357131  0.71357131  1
  Si  Si4  1  0.25000000  0.03642869  0.46357131  1
  Si  Si5  1  0.78642869  0.03642869  0.07285638  1
  Si  Si6  1  0.46357131  0.71357131  0.42714362  1
  Si  Si7  1  0.25000000  0.71357131  0.78642869  1
  Si  Si8  1  0.78642869  0.25000000  0.71357131  1
  Si  Si9  1  0.07285638  0.78642869  0.03642869  1
  Si  Si10  1  0.71357131  0.42714362  0.46357131  1
  Si  Si11  1  0.03642869  0.46357131  0.25000000  1
  Si  Si12  1  0.28642869  0.21357131  0.75000000  1
  Si  Si13  1  0.53642869  0.75000000  0.96357131  1
  Si  Si14  1  0.96357131  0.92714362  0.21357131  1
  Si  Si15  1  0.57285638  0.53642869  0.28642869  1
  Si  Si16  1  0.75000000  0.96357131  0.53642869  1
  Si  Si17  1  0.21357131  0.96357131  0.92714362  1
  Si  Si18  1  0.53642869  0.28642869  0.57285638  1
  Si  Si19  1  0.75000000  0.28642869  0.21357131  1
  Si  Si20  1  0.21357131  0.75000000  0.28642869  1
  Si  Si21  1  0.92714362  0.21357131  0.96357131  1
  Si  Si22  1  0.28642869  0.57285638  0.53642869  1
  Si  Si23  1  0.96357131  0.53642869  0.75000000  1
  O  O0  1  0.58832678  0.76039874  0.11415109  1
  O  O1  1  0.35375135  0.11415109  0.02582331  1
  O  O2  1  0.14624865  0.17207196  0.76039874  1
  O  O3  1  0.32792804  0.47417669  0.58832678  1
  O  O4  1  0.11415109  0.02582331  0.35375135  1
  O  O5  1  0.76039874  0.14624865  0.17207196  1
  O  O6  1  0.47417669  0.58832678  0.32792804  1
  O  O7  1  0.11415109  0.58832678  0.76039874  1
  O  O8  1  0.76039874  0.11415109  0.58832678  1
  O  O9  1  0.02582331  0.17207196  0.91167322  1
  O  O10  1  0.38584891  0.14624865  0.47417669  1
  O  O11  1  0.47417669  0.38584891  0.14624865  1
  O  O12  1  0.32792804  0.35375135  0.73960126  1
  O  O13  1  0.17207196  0.91167322  0.02582331  1
  O  O14  1  0.73960126  0.32792804  0.35375135  1
  O  O15  1  0.91167322  0.02582331  0.17207196  1
  O  O16  1  0.35375135  0.73960126  0.32792804  1
  O  O17  1  0.14624865  0.47417669  0.38584891  1
  O  O18  1  0.02582331  0.35375135  0.11415109  1
  O  O19  1  0.73960126  0.91167322  0.38584891  1
  O  O20  1  0.17207196  0.76039874  0.14624865  1
  O  O21  1  0.38584891  0.73960126  0.91167322  1
  O  O22  1  0.58832678  0.32792804  0.47417669  1
  O  O23  1  0.91167322  0.38584891  0.73960126  1
  O  O24  1  0.41167322  0.23960126  0.88584891  1
  O  O25  1  0.64624865  0.88584891  0.97417669  1
  O  O26  1  0.85375135  0.82792804  0.23960126  1
  O  O27  1  0.67207196  0.52582331  0.41167322  1
  O  O28  1  0.88584891  0.97417669  0.64624865  1
  O  O29  1  0.23960126  0.85375135  0.82792804  1
  O  O30  1  0.52582331  0.41167322  0.67207196  1
  O  O31  1  0.88584891  0.41167322  0.23960126  1
  O  O32  1  0.23960126  0.88584891  0.41167322  1
  O  O33  1  0.97417669  0.82792804  0.08832678  1
  O  O34  1  0.61415109  0.85375135  0.52582331  1
  O  O35  1  0.52582331  0.61415109  0.85375135  1
  O  O36  1  0.67207196  0.64624865  0.26039874  1
  O  O37  1  0.82792804  0.08832678  0.97417669  1
  O  O38  1  0.26039874  0.67207196  0.64624865  1
  O  O39  1  0.08832678  0.97417669  0.82792804  1
  O  O40  1  0.64624865  0.26039874  0.67207196  1
  O  O41  1  0.85375135  0.52582331  0.61415109  1
  O  O42  1  0.97417669  0.64624865  0.88584891  1
  O  O43  1  0.26039874  0.08832678  0.61415109  1
  O  O44  1  0.82792804  0.23960126  0.85375135  1
  O  O45  1  0.61415109  0.26039874  0.08832678  1
  O  O46  1  0.41167322  0.67207196  0.52582331  1
  O  O47  1  0.08832678  0.61415109  0.26039874  1
loop_
_geom_bond_atom_site_label_1
_geom_bond_atom_site_label_2
_geom_bond_distance
_geom_bond_site_symmetry_2
O0 Si13 1.609609 1_554
O0 Si0 1.613133 1_555
O1 Si17 1.609604 1_544
O1 Si1 1.613133 1_555
O2 Si12 1.609598 1_555
O2 Si2 1.613147 1_555
O3 Si22 1.609587 1_555
O3 Si3 1.613146 1_555
O4 Si14 1.609604 1_445
O4 Si4 1.613133 1_555
O5 Si19 1.609598 1_555
O5 Si5 1.613147 1_555
O6 Si15 1.609587 1_555
O6 Si6 1.613146 1_555
O7 Si23 1.609609 1_455
O7 Si7 1.613133 1_555
O8 Si16 1.609609 1_545
O8 Si8 1.613133 1_555
O9 Si21 1.609587 1_455
O9 Si2 1.613146 1_555
O10 Si18 1.609604 1_555
O10 Si4 1.613133 1_555
O11 Si15 1.609604 1_555
O11 Si1 1.613133 1_555
O12 Si12 1.609598 1_555
O12 Si3 1.613147 1_555
O13 Si17 1.609587 1_554
O13 Si9 1.613146 1_555
O14 Si19 1.609598 1_555
O14 Si10 1.613147 1_555
O15 Si14 1.609587 1_545
O15 Si5 1.613146 1_555
O16 Si20 1.609598 1_555
O16 Si6 1.613147 1_555
O17 Si22 1.609604 1_555
O17 Si11 1.613133 1_555
O18 Si21 1.609604 1_454
O18 Si11 1.613133 1_555
O19 Si16 1.609609 1_555
O19 Si0 1.613133 1_555
O20 Si20 1.609598 1_555
O20 Si9 1.613147 1_555
O21 Si13 1.609609 1_555
O21 Si7 1.613133 1_555
O22 Si18 1.609587 1_555
O22 Si10 1.613146 1_555
O23 Si23 1.609609 1_555
O23 Si8 1.613133 1_555
O24 Si1 1.609609 1_556
O24 Si12 1.613133 1_555
O25 Si5 1.609604 1_566
O25 Si13 1.613133 1_555
O26 Si0 1.609598 1_555
O26 Si14 1.613147 1_555
O27 Si10 1.609587 1_555
O27 Si15 1.613146 1_555
O28 Si2 1.609604 1_665
O28 Si16 1.613133 1_555
O29 Si7 1.609598 1_555
O29 Si17 1.613147 1_555
O30 Si3 1.609587 1_555
O30 Si18 1.613146 1_555
O31 Si11 1.609609 1_655
O31 Si19 1.613133 1_555
O32 Si4 1.609609 1_565
O32 Si20 1.613133 1_555
O33 Si9 1.609587 1_655
O33 Si14 1.613146 1_555
O34 Si6 1.609604 1_555
O34 Si16 1.613133 1_555
O35 Si3 1.609604 1_555
O35 Si13 1.613133 1_555
O36 Si0 1.609598 1_555
O36 Si15 1.613147 1_555
O37 Si5 1.609587 1_556
O37 Si21 1.613146 1_555
O38 Si7 1.609598 1_555
O38 Si22 1.613147 1_555
O39 Si2 1.609587 1_565
O39 Si17 1.613146 1_555
O40 Si8 1.609598 1_555
O40 Si18 1.613147 1_555
O41 Si10 1.609604 1_555
O41 Si23 1.613133 1_555
O42 Si9 1.609604 1_656
O42 Si23 1.613133 1_555
O43 Si4 1.609609 1_555
O43 Si12 1.613133 1_555
O44 Si8 1.609598 1_555
O44 Si21 1.613147 1_555
O45 Si1 1.609609 1_555
O45 Si19 1.613133 1_555
O46 Si6 1.609587 1_555
O46 Si22 1.613146 1_555
O47 Si11 1.609609 1_555
O47 Si20 1.613133 1_555
