# generated using pymatgen
data_RbPbF3
_symmetry_space_group_name_H-M   'P 1'
_cell_length_a   6.49086705
_cell_length_b   6.49086705
_cell_length_c   6.39039142
_cell_angle_alpha   63.32526142
_cell_angle_beta   63.32526142
_cell_angle_gamma   63.48656039
_symmetry_Int_Tables_number   1
_chemical_formula_structural   RbPbF3
_chemical_formula_sum   'Rb2 Pb2 F6'
_cell_volume   204.61661090
_cell_formula_units_Z   2
loop_
 _symmetry_equiv_pos_site_id
 _symmetry_equiv_pos_as_xyz
  1  'x, y, z'
loop_
 _atom_site_type_symbol
 _atom_site_label
 _atom_site_symmetry_multiplicity
 _atom_site_fract_x
 _atom_site_fract_y
 _atom_site_fract_z
 _atom_site_occupancy
  Rb  Rb0  1  0.79199969  0.28896637  0.76243254  1
  Rb  Rb1  1  0.28896637  0.79199969  0.26243254  1
  Pb  Pb0  1  0.04588253  0.54715372  0.01185082  1
  Pb  Pb1  1  0.54715372  0.04588253  0.51185082  1
  F  F0  1  0.19834617  0.87557327  0.82150836  1
  F  F1  1  0.37053647  0.36438858  0.16583219  1
  F  F2  1  0.36438858  0.37053647  0.66583219  1
  F  F3  1  0.87557327  0.19834617  0.32150836  1
  F  F4  1  0.86427467  0.69344653  0.34657109  1
  F  F5  1  0.69344653  0.86427467  0.84657109  1
loop_
_geom_bond_atom_site_label_1
_geom_bond_atom_site_label_2
_geom_bond_distance
_geom_bond_site_symmetry_2
F0 Pb0 2.340465 1_556
F0 Pb1 2.551811 1_565
F0 Rb0 2.822223 1_465
F0 Rb1 2.900068 1_556
F1 Pb0 2.323353 1_555
F1 Pb1 2.556016 1_555
F1 Rb0 2.823924 1_554
F1 Rb1 2.880634 1_555
F2 Pb1 2.323353 1_555
F2 Pb0 2.556016 1_556
F2 Rb1 2.823924 1_555
F2 Rb0 2.880634 1_555
F3 Pb1 2.340465 1_555
F3 Pb0 2.551811 1_655
F3 Rb1 2.822223 1_645
F3 Rb0 2.900068 1_555
F4 Pb0 2.329577 1_655
F4 Pb1 2.568852 1_565
F4 Rb0 2.809132 1_555
F4 Rb1 2.869155 1_655
F5 Pb1 2.329577 1_565
F5 Pb0 2.568852 1_656
F5 Rb1 2.809132 1_556
F5 Rb0 2.869155 1_565
