# generated using pymatgen
data_Ca2YFe3(SnO6)2
_symmetry_space_group_name_H-M   'P 1'
_cell_length_a   11.05778200
_cell_length_b   11.08865198
_cell_length_c   11.08873937
_cell_angle_alpha   109.57482625
_cell_angle_beta   109.43904556
_cell_angle_gamma   109.25977068
_symmetry_Int_Tables_number   1
_chemical_formula_structural   Ca2YFe3(SnO6)2
_chemical_formula_sum   'Ca8 Y4 Fe12 Sn8 O48'
_cell_volume   1048.46223680
_cell_formula_units_Z   4
loop_
 _symmetry_equiv_pos_site_id
 _symmetry_equiv_pos_as_xyz
  1  'x, y, z'
loop_
 _atom_site_type_symbol
 _atom_site_label
 _atom_site_symmetry_multiplicity
 _atom_site_fract_x
 _atom_site_fract_y
 _atom_site_fract_z
 _atom_site_occupancy
  Ca  Ca0  1  0.62502400  0.24541000  0.37300000  1
  Ca  Ca1  1  0.25085800  0.62618300  0.87725900  1
  Ca  Ca2  1  0.87305100  0.12288600  0.24887100  1
  Ca  Ca3  1  0.62494700  0.37037100  0.75338100  1
  Ca  Ca4  1  0.74750100  0.87518700  0.62361200  1
  Ca  Ca5  1  0.87551500  0.74789400  0.12452500  1
  Ca  Ca6  1  0.13041500  0.87915700  0.74755200  1
  Ca  Ca7  1  0.37580200  0.75280000  0.62722300  1
  Y  Y0  1  0.25000400  0.12372900  0.37487300  1
  Y  Y1  1  0.12129300  0.25288100  0.87528600  1
  Y  Y2  1  0.36718700  0.62799600  0.24634900  1
  Y  Y3  1  0.75582700  0.37735400  0.12525800  1
  Fe  Fe0  1  0.62484700  0.75038400  0.87524200  1
  Fe  Fe1  1  0.87533300  0.25306200  0.62696100  1
  Fe  Fe2  1  0.24832100  0.37411500  0.62644400  1
  Fe  Fe3  1  0.25018700  0.86936400  0.12507300  1
  Fe  Fe4  1  0.62584500  0.87605000  0.24924000  1
  Fe  Fe5  1  0.37468000  0.12651700  0.75141300  1
  Fe  Fe6  1  0.74927200  0.62623900  0.37475800  1
  Fe  Fe7  1  0.12395900  0.74632400  0.37064100  1
  Fe  Fe8  1  0.75139700  0.12716400  0.87440700  1
  Fe  Fe9  1  0.00018000  0.49660300  0.00386300  1
  Fe  Fe10  1  0.37690700  0.25192900  0.12698400  1
  Fe  Fe11  1  0.12202800  0.37298300  0.24542100  1
  Sn  Sn0  1  0.87703700  0.62525500  0.75498200  1
  Sn  Sn1  1  0.00272800  0.49889800  0.49622300  1
  Sn  Sn2  1  0.49539500  0.49907700  0.49662600  1
  Sn  Sn3  1  0.49970700  0.49887500  0.99901800  1
  Sn  Sn4  1  0.00193600  0.00528300  0.00335600  1
  Sn  Sn5  1  0.00002300  0.99841500  0.49928600  1
  Sn  Sn6  1  0.50010500  0.00062300  0.50196700  1
  Sn  Sn7  1  0.49906200  0.00035500  0.99966700  1
  O  O0  1  0.29483600  0.87950800  0.97728800  1
  O  O1  1  0.03298200  0.62569100  0.70611700  1
  O  O2  1  0.67543200  0.46836500  0.59190700  1
  O  O3  1  0.41223500  0.28988900  0.31979000  1
  O  O4  1  0.47615400  0.79683600  0.87914200  1
  O  O5  1  0.20613800  0.52372300  0.62038300  1
  O  O6  1  0.88056200  0.29864300  0.47743100  1
  O  O7  1  0.39671900  0.02485900  0.32261700  1
  O  O8  1  0.67879900  0.20355200  0.58319800  1
  O  O9  1  0.02004600  0.39814900  0.82517200  1
  O  O10  1  0.62136000  0.02527500  0.20468900  1
  O  O11  1  0.61889500  0.59589500  0.91609100  1
  O  O12  1  0.08864400  0.18202200  0.21197400  1
  O  O13  1  0.28938700  0.41149900  0.82101700  1
  O  O14  1  0.39567600  0.37111200  0.57398300  1
  O  O15  1  0.87796500  0.58077100  0.91136500  1
  O  O16  1  0.10263300  0.17678700  0.47366400  1
  O  O17  1  0.82134200  0.90364000  0.02329400  1
  O  O18  1  0.20746600  0.67616100  0.08706100  1
  O  O19  1  0.92475400  0.10349700  0.62839800  1
  O  O20  1  0.82033800  0.91680900  0.29589100  1
  O  O21  1  0.57576100  0.87215700  0.39731500  1
  O  O22  1  0.52984300  0.31946900  0.90760100  1
  O  O23  1  0.10308700  0.92455300  0.12588600  1
  O  O24  1  0.91067600  0.09117800  0.88038100  1
  O  O25  1  0.47466000  0.67691300  0.10339600  1
  O  O26  1  0.41076600  0.12199900  0.59325000  1
  O  O27  1  0.18021400  0.08933100  0.71019400  1
  O  O28  1  0.08901500  0.90666300  0.37747900  1
  O  O29  1  0.80144300  0.32400800  0.92836600  1
  O  O30  1  0.17949200  0.10576900  0.97540000  1
  O  O31  1  0.90174900  0.81988700  0.52368600  1
  O  O32  1  0.12606500  0.41768900  0.09560600  1
  O  O33  1  0.59063100  0.61895100  0.41037700  1
  O  O34  1  0.70368600  0.57373700  0.17685200  1
  O  O35  1  0.37102900  0.40272600  0.08054300  1
  O  O36  1  0.92067300  0.82685300  0.79498300  1
  O  O37  1  0.37796200  0.97713500  0.79510300  1
  O  O38  1  0.97323000  0.59014700  0.17952500  1
  O  O39  1  0.59779700  0.97636100  0.68060600  1
  O  O40  1  0.32099100  0.79030000  0.41167600  1
  O  O41  1  0.12226200  0.70382300  0.52236400  1
  O  O42  1  0.79743500  0.47607700  0.37424200  1
  O  O43  1  0.52948700  0.21122100  0.12253100  1
  O  O44  1  0.58289500  0.70125100  0.67859800  1
  O  O45  1  0.31826100  0.52577200  0.39362000  1
  O  O46  1  0.96823500  0.37511900  0.28588000  1
  O  O47  1  0.70391800  0.12886500  0.02530400  1
loop_
_geom_bond_atom_site_label_1
_geom_bond_atom_site_label_2
_geom_bond_distance
_geom_bond_site_symmetry_2
Ca0 O6 2.436707 1_555
Ca0 O8 2.446685 1_555
Ca0 O43 2.459860 1_555
Ca0 O3 2.482820 1_555
Ca0 O10 2.505020 1_555
Ca0 O2 2.546400 1_555
Ca0 O7 2.595979 1_555
Ca0 O42 2.630417 1_555
Ca1 O18 2.450342 1_556
Ca1 O0 2.451421 1_555
Ca1 O13 2.467514 1_555
Ca1 O5 2.484394 1_555
Ca1 O1 2.519327 1_555
Ca1 O4 2.572277 1_555
Ca1 O25 2.595126 1_556
Ca1 O9 2.650309 1_555
Ca2 O10 2.430485 1_555
Ca2 O20 2.440349 1_545
Ca2 O12 2.465453 1_655
Ca2 O46 2.469885 1_555
Ca2 O17 2.559363 1_545
Ca2 O6 2.582998 1_555
Ca2 O47 2.598821 1_555
Ca2 O16 2.608480 1_655
Ca3 O22 2.408574 1_555
Ca3 O26 2.442972 1_555
Ca3 O15 2.456141 1_555
Ca3 O2 2.503459 1_555
Ca3 O8 2.544233 1_555
Ca3 O29 2.578373 1_555
Ca3 O11 2.584759 1_555
Ca3 O14 2.655669 1_555
Ca4 O39 2.417602 1_555
Ca4 O31 2.450646 1_555
Ca4 O33 2.487905 1_555
Ca4 O24 2.501776 1_565
Ca4 O36 2.550028 1_555
Ca4 O44 2.572060 1_555
Ca4 O21 2.575639 1_555
Ca4 O19 2.611702 1_565
Ca5 O28 2.466203 1_655
Ca5 O11 2.470638 1_554
Ca5 O38 2.474316 1_555
Ca5 O17 2.476975 1_555
Ca5 O15 2.482448 1_554
Ca5 O20 2.575288 1_555
Ca5 O34 2.596205 1_555
Ca5 O23 2.621631 1_655
Ca6 O37 2.375886 1_555
Ca6 O27 2.420414 1_565
Ca6 O1 2.465537 1_555
Ca6 O36 2.474066 1_455
Ca6 O41 2.550453 1_555
Ca6 O31 2.572993 1_455
Ca6 O0 2.588649 1_555
Ca6 O30 2.631697 1_565
Ca7 O41 2.430978 1_555
Ca7 O4 2.436905 1_555
Ca7 O44 2.471585 1_555
Ca7 O40 2.474077 1_555
Ca7 O37 2.546032 1_555
Ca7 O39 2.560602 1_555
Ca7 O5 2.571035 1_555
Ca7 O45 2.632290 1_555
Fe0 O4 1.887259 1_555
Fe0 O11 1.899881 1_555
Fe0 O17 1.903826 1_556
Fe0 O44 1.905436 1_555
Fe1 O9 1.889701 1_655
Fe1 O8 1.895323 1_555
Fe1 O6 1.901103 1_555
Fe1 O19 1.912920 1_555
Fe2 O5 1.881102 1_555
Fe2 O16 1.904516 1_555
Fe2 O14 1.910039 1_555
Fe2 O13 1.912467 1_555
Fe3 O0 1.888735 1_554
Fe3 O18 1.893479 1_555
Fe3 O7 1.913209 1_565
Fe3 O23 1.919159 1_555
Fe4 O20 1.886476 1_555
Fe4 O10 1.889481 1_565
Fe4 O21 1.908303 1_555
Fe4 O25 1.912703 1_555
Fe5 O37 1.882956 1_545
Fe5 O27 1.907239 1_555
Fe5 O22 1.907485 1_555
Fe5 O26 1.912531 1_555
Fe6 O31 1.887583 1_555
Fe6 O34 1.903414 1_555
Fe6 O33 1.904954 1_555
Fe6 O42 1.907058 1_555
Fe7 O38 1.885148 1_455
Fe7 O41 1.897223 1_555
Fe7 O40 1.918930 1_555
Fe7 O28 1.923155 1_555
Fe8 O29 1.880478 1_555
Fe8 O39 1.894247 1_545
Fe8 O47 1.909422 1_556
Fe8 O24 1.915568 1_555
Fe9 O29 2.029851 1_454
Fe9 O9 2.040763 1_554
Fe9 O38 2.048261 1_455
Fe9 O32 2.048372 1_555
Fe9 O15 2.073732 1_454
Fe9 O18 2.102423 1_555
Fe10 O43 1.896252 1_555
Fe10 O30 1.901490 1_554
Fe10 O3 1.906125 1_555
Fe10 O35 1.921427 1_555
Fe11 O32 1.895815 1_555
Fe11 O45 1.901334 1_555
Fe11 O46 1.902944 1_455
Fe11 O12 1.903834 1_555
O0 Sn7 2.089237 1_565
O1 Sn0 1.971137 1_455
O1 Sn1 2.117654 1_555
O2 Sn0 1.979024 1_555
O2 Sn2 2.117529 1_555
O3 Sn2 2.101447 1_555
O3 Y0 2.507769 1_555
O4 Sn7 2.078408 1_565
O5 Sn1 2.075295 1_555
O6 Sn1 2.079145 1_655
O7 Sn6 2.093289 1_555
O7 Y0 2.354383 1_555
O8 Sn6 2.074395 1_555
O9 Y1 2.352112 1_555
O10 Sn7 2.088022 1_554
O11 Sn3 2.067404 1_555
O12 Sn4 2.087512 1_555
O12 Y0 2.502468 1_555
O13 Sn3 2.102385 1_555
O13 Y1 2.491517 1_555
O14 Sn2 2.092392 1_555
O14 Y0 2.377753 1_555
O15 Sn0 1.953240 1_555
O16 Sn5 2.095435 1_545
O16 Y0 2.364451 1_555
O17 Sn4 2.069564 1_665
O18 Y2 2.387967 1_555
O19 Sn5 2.101262 1_645
O19 Y1 2.363917 1_655
O20 Sn5 2.077746 1_655
O21 Sn6 2.097729 1_565
O21 Y2 2.392819 1_555
O22 Sn3 2.099315 1_555
O22 Y3 2.524086 1_556
O23 Sn4 2.088661 1_565
O23 Y0 2.387772 1_565
O24 Sn4 2.091287 1_656
O24 Y1 2.458227 1_655
O25 Sn3 2.087290 1_554
O25 Y2 2.371518 1_555
O26 Sn6 2.107557 1_555
O26 Y0 2.492522 1_555
O27 Sn5 2.109336 1_545
O27 Y1 2.532496 1_555
O28 Sn5 2.110021 1_555
O28 Y0 2.493493 1_565
O29 Y3 2.331424 1_556
O30 Sn4 2.094240 1_556
O30 Y1 2.395437 1_555
O31 Sn5 2.075688 1_655
O32 Y2 2.379288 1_555
O32 Y1 2.483952 1_554
O33 Sn2 2.095078 1_555
O33 Y2 2.591835 1_555
O34 Sn3 2.091078 1_554
O34 Y3 2.369559 1_555
O35 Sn3 2.116549 1_554
O35 Y1 2.412988 1_554
O35 Y2 2.581948 1_555
O36 Sn0 1.976954 1_555
O36 Sn4 2.107785 1_666
O37 Sn7 2.089087 1_565
O38 Y3 2.460187 1_555
O39 Sn6 2.070686 1_565
O40 Sn6 2.105361 1_565
O40 Y2 2.424837 1_555
O41 Sn1 2.077698 1_555
O42 Sn1 2.096374 1_655
O42 Y3 2.414483 1_555
O43 Sn7 2.116121 1_554
O43 Y3 2.555251 1_555
O44 Sn2 2.066882 1_555
O45 Sn2 2.085359 1_555
O45 Y2 2.380821 1_555
O46 Sn1 2.094506 1_655
O46 Y3 2.443991 1_555
O47 Sn7 2.100767 1_554
O47 Y3 2.374230 1_555
