# generated using pymatgen
data_Cu3Sn4PbO12
_symmetry_space_group_name_H-M   'P 1'
_cell_length_a   6.76407410
_cell_length_b   6.76407410
_cell_length_c   6.76407410
_cell_angle_alpha   109.47122063
_cell_angle_beta   109.47122063
_cell_angle_gamma   109.47122063
_symmetry_Int_Tables_number   1
_chemical_formula_structural   Cu3Sn4PbO12
_chemical_formula_sum   'Cu3 Sn4 Pb1 O12'
_cell_volume   238.23369039
_cell_formula_units_Z   1
loop_
 _symmetry_equiv_pos_site_id
 _symmetry_equiv_pos_as_xyz
  1  'x, y, z'
loop_
 _atom_site_type_symbol
 _atom_site_label
 _atom_site_symmetry_multiplicity
 _atom_site_fract_x
 _atom_site_fract_y
 _atom_site_fract_z
 _atom_site_occupancy
  Cu  Cu0  1  0.00000000  0.50000000  0.50000000  1
  Cu  Cu1  1  0.50000000  0.50000000  0.00000000  1
  Cu  Cu2  1  0.50000000  0.00000000  0.50000000  1
  Sn  Sn0  1  0.50000000  0.50000000  0.50000000  1
  Sn  Sn1  1  0.50000000  0.00000000  0.00000000  1
  Sn  Sn2  1  0.00000000  0.00000000  0.50000000  1
  Sn  Sn3  1  0.00000000  0.50000000  0.00000000  1
  Pb  Pb0  1  0.00000000  0.00000000  0.00000000  1
  O  O0  1  0.68647400  0.17336600  0.85984000  1
  O  O1  1  0.31352600  0.17336600  0.48689100  1
  O  O2  1  0.85984000  0.68647400  0.17336600  1
  O  O3  1  0.51310900  0.68647400  0.82663400  1
  O  O4  1  0.17336600  0.85984000  0.68647400  1
  O  O5  1  0.14016000  0.31352600  0.82663400  1
  O  O6  1  0.68647400  0.82663400  0.51310900  1
  O  O7  1  0.17336600  0.48689100  0.31352600  1
  O  O8  1  0.82663400  0.51310900  0.68647400  1
  O  O9  1  0.31352600  0.82663400  0.14016000  1
  O  O10  1  0.48689100  0.31352600  0.17336600  1
  O  O11  1  0.82663400  0.14016000  0.31352600  1
loop_
_geom_bond_atom_site_label_1
_geom_bond_atom_site_label_2
_geom_bond_distance
_geom_bond_site_symmetry_2
Cu0 O11 1.988658 1_455
Cu0 O4 1.988658 1_555
Cu0 O7 1.988658 1_555
Cu0 O8 1.988658 1_455
Cu1 O5 1.988658 1_554
Cu1 O2 1.988658 1_555
Cu1 O10 1.988658 1_555
Cu1 O3 1.988658 1_554
Cu2 O0 1.988658 1_555
Cu2 O9 1.988658 1_545
Cu2 O1 1.988658 1_555
Cu2 O6 1.988658 1_545
O0 Sn3 2.101706 1_656
O0 Sn1 2.101706 1_556
O0 Pb0 2.798227 1_656
O1 Sn0 2.101703 1_555
O1 Sn2 2.101710 1_555
O1 Pb0 2.798222 1_555
O2 Sn2 2.101706 1_665
O2 Sn3 2.101706 1_655
O2 Pb0 2.798227 1_665
O3 Sn0 2.101703 1_555
O3 Sn1 2.101710 1_566
O3 Pb0 2.798222 1_666
O4 Sn1 2.101706 1_566
O4 Sn2 2.101706 1_565
O4 Pb0 2.798227 1_566
O5 Sn3 2.101706 1_556
O5 Sn2 2.101706 1_555
O5 Pb0 2.798227 1_556
O6 Sn0 2.101703 1_555
O6 Sn2 2.101710 1_665
O6 Pb0 2.798222 1_666
O7 Sn0 2.101703 1_555
O7 Sn3 2.101710 1_555
O7 Pb0 2.798222 1_555
O8 Sn0 2.101703 1_555
O8 Sn3 2.101710 1_656
O8 Pb0 2.798222 1_666
O9 Sn1 2.101706 1_565
O9 Sn3 2.101706 1_555
O9 Pb0 2.798227 1_565
O10 Sn0 2.101703 1_555
O10 Sn1 2.101710 1_555
O10 Pb0 2.798222 1_555
O11 Sn1 2.101706 1_555
O11 Sn2 2.101706 1_655
O11 Pb0 2.798227 1_655
