# generated using pymatgen
data_TeMoCl7O
_symmetry_space_group_name_H-M   'P 1'
_cell_length_a   13.07034300
_cell_length_b   7.57448300
_cell_length_c   12.09657746
_cell_angle_alpha   85.48272229
_cell_angle_beta   90.00000000
_cell_angle_gamma   90.00000000
_symmetry_Int_Tables_number   1
_chemical_formula_structural   TeMoCl7O
_chemical_formula_sum   'Te4 Mo4 Cl28 O4'
_cell_volume   1193.85425365
_cell_formula_units_Z   4
loop_
 _symmetry_equiv_pos_site_id
 _symmetry_equiv_pos_as_xyz
  1  'x, y, z'
loop_
 _atom_site_type_symbol
 _atom_site_label
 _atom_site_symmetry_multiplicity
 _atom_site_fract_x
 _atom_site_fract_y
 _atom_site_fract_z
 _atom_site_occupancy
  Te  Te0  1  0.84801300  0.27472100  0.37363900  1
  Te  Te1  1  0.65198700  0.27472100  0.87363900  1
  Te  Te2  1  0.15198700  0.72527900  0.62636100  1
  Te  Te3  1  0.34801300  0.72527900  0.12636100  1
  Mo  Mo0  1  0.59149700  0.95181000  0.35950000  1
  Mo  Mo1  1  0.90850300  0.95181000  0.85950000  1
  Mo  Mo2  1  0.40850300  0.04819000  0.64050000  1
  Mo  Mo3  1  0.09149700  0.04819000  0.14050000  1
  Cl  Cl0  1  0.27009500  0.02366500  0.51006100  1
  Cl  Cl1  1  0.73367600  0.47185400  0.98609000  1
  Cl  Cl2  1  0.00082600  0.74652100  0.51902600  1
  Cl  Cl3  1  0.06814100  0.00873900  0.76173900  1
  Cl  Cl4  1  0.34751000  0.77646100  0.73742100  1
  Cl  Cl5  1  0.76632400  0.47185400  0.48609000  1
  Cl  Cl6  1  0.22990500  0.02366500  0.01006100  1
  Cl  Cl7  1  0.50059200  0.77691400  0.50152300  1
  Cl  Cl8  1  0.72990500  0.97633500  0.48993900  1
  Cl  Cl9  1  0.40413800  0.50046300  0.25844500  1
  Cl  Cl10  1  0.50082600  0.25347900  0.98097400  1
  Cl  Cl11  1  0.65249000  0.22353900  0.26257900  1
  Cl  Cl12  1  0.99917400  0.25347900  0.48097400  1
  Cl  Cl13  1  0.59586200  0.49953700  0.74155500  1
  Cl  Cl14  1  0.93185900  0.99126100  0.23826100  1
  Cl  Cl15  1  0.77009500  0.97633500  0.98993900  1
  Cl  Cl16  1  0.84751000  0.22353900  0.76257900  1
  Cl  Cl17  1  0.00059200  0.22308600  0.99847700  1
  Cl  Cl18  1  0.15249000  0.77646100  0.23742100  1
  Cl  Cl19  1  0.43185900  0.00873900  0.26173900  1
  Cl  Cl20  1  0.23367600  0.52814600  0.51391000  1
  Cl  Cl21  1  0.09586200  0.50046300  0.75844500  1
  Cl  Cl22  1  0.49917400  0.74652100  0.01902600  1
  Cl  Cl23  1  0.99940800  0.77691400  0.00152300  1
  Cl  Cl24  1  0.26632400  0.52814600  0.01391000  1
  Cl  Cl25  1  0.56814100  0.99126100  0.73826100  1
  Cl  Cl26  1  0.90413800  0.49953700  0.24155500  1
  Cl  Cl27  1  0.49940800  0.22308600  0.49847700  1
  O  O0  1  0.14000800  0.20524900  0.21772000  1
  O  O1  1  0.35999200  0.20524900  0.71772000  1
  O  O2  1  0.85999200  0.79475100  0.78228000  1
  O  O3  1  0.64000800  0.79475100  0.28228000  1
loop_
_geom_bond_atom_site_label_1
_geom_bond_atom_site_label_2
_geom_bond_distance
_geom_bond_site_symmetry_2
Mo0 O3 1.692587 1_555
Mo1 O2 1.692587 1_555
Mo2 O1 1.692587 1_555
Mo3 O0 1.692587 1_555
Cl0 Mo2 2.417222 1_555
Cl0 Te2 2.994915 1_545
Cl1 Te1 2.353691 1_555
Cl2 Te2 2.362685 1_555
Cl3 Mo1 2.420264 1_445
Cl3 Te2 3.007737 1_545
Cl4 Mo2 2.422021 1_565
Cl4 Te2 2.927120 1_555
Cl5 Te0 2.353691 1_555
Cl6 Mo3 2.417222 1_555
Cl6 Te3 2.994915 1_545
Cl7 Mo0 2.399932 1_555
Cl7 Mo2 3.006863 1_565
Cl8 Mo0 2.417222 1_555
Cl8 Te0 2.994915 1_565
Cl9 Te3 2.358422 1_555
Cl10 Te1 2.362685 1_555
Cl11 Mo0 2.422021 1_545
Cl11 Te0 2.927120 1_555
Cl12 Te0 2.362685 1_555
Cl13 Te1 2.358422 1_555
Cl14 Mo3 2.420264 1_665
Cl14 Te0 3.007737 1_565
Cl15 Mo1 2.417222 1_555
Cl15 Te1 2.994915 1_565
Cl16 Mo1 2.422021 1_545
Cl16 Te1 2.927120 1_555
Cl17 Mo3 2.399932 1_556
Cl17 Mo1 3.006863 1_445
Cl18 Mo3 2.422021 1_565
Cl18 Te3 2.927120 1_555
Cl19 Mo0 2.420264 1_545
Cl19 Te3 3.007737 1_545
Cl20 Te2 2.353691 1_555
Cl21 Te2 2.358422 1_555
Cl22 Te3 2.362685 1_555
Cl23 Mo1 2.399932 1_554
Cl23 Mo3 3.006863 1_665
Cl24 Te3 2.353691 1_555
Cl25 Mo2 2.420264 1_565
Cl25 Te1 3.007737 1_565
Cl26 Te0 2.358422 1_555
Cl27 Mo2 2.399932 1_555
Cl27 Mo0 3.006863 1_545
