# generated using pymatgen
data_Li9Ta11N20
_symmetry_space_group_name_H-M   'P 1'
_cell_length_a   3.13165903
_cell_length_b   3.13165934
_cell_length_c   62.27043479
_cell_angle_alpha   59.80711077
_cell_angle_beta   59.80710740
_cell_angle_gamma   59.99999638
_symmetry_Int_Tables_number   1
_chemical_formula_structural   Li9Ta11N20
_chemical_formula_sum   'Li9 Ta11 N20'
_cell_volume   430.56973073
_cell_formula_units_Z   1
loop_
 _symmetry_equiv_pos_site_id
 _symmetry_equiv_pos_as_xyz
  1  'x, y, z'
loop_
 _atom_site_type_symbol
 _atom_site_label
 _atom_site_symmetry_multiplicity
 _atom_site_fract_x
 _atom_site_fract_y
 _atom_site_fract_z
 _atom_site_occupancy
  Li  Li0  1  0.01339200  0.01339200  0.04799100  1
  Li  Li1  1  0.98660800  0.98660800  0.55200900  1
  Li  Li2  1  0.98815800  0.98815800  0.65177600  1
  Li  Li3  1  0.99720100  0.99720100  0.70042000  1
  Li  Li4  1  0.00000000  0.00000000  0.80000000  1
  Li  Li5  1  0.00324000  0.00324000  0.74951400  1
  Li  Li6  1  0.99676000  0.99676000  0.85048600  1
  Li  Li7  1  0.00279900  0.00279900  0.89958000  1
  Li  Li8  1  0.01184200  0.01184200  0.94822400  1
  Ta  Ta0  1  0.00138100  0.00138100  0.99979300  1
  Ta  Ta1  1  0.00510000  0.00510000  0.09923500  1
  Ta  Ta2  1  0.00402700  0.00402700  0.14939600  1
  Ta  Ta3  1  0.99956700  0.99956700  0.20006500  1
  Ta  Ta4  1  0.99963200  0.99963200  0.25005500  1
  Ta  Ta5  1  0.00000000  0.00000000  0.30000000  1
  Ta  Ta6  1  0.00036800  0.00036800  0.34994500  1
  Ta  Ta7  1  0.99597300  0.99597300  0.45060400  1
  Ta  Ta8  1  0.00043300  0.00043300  0.39993500  1
  Ta  Ta9  1  0.99490000  0.99490000  0.50076500  1
  Ta  Ta10  1  0.99861900  0.99861900  0.60020700  1
  N  N0  1  0.51872800  0.51872800  0.02219100  1
  N  N1  1  0.47740200  0.47740200  0.07839000  1
  N  N2  1  0.50151000  0.50151000  0.12477300  1
  N  N3  1  0.49984700  0.49984700  0.17502300  1
  N  N4  1  0.50041100  0.50041100  0.22493800  1
  N  N5  1  0.49960800  0.49960800  0.27505900  1
  N  N6  1  0.50039200  0.50039200  0.32494100  1
  N  N7  1  0.49958900  0.49958900  0.37506200  1
  N  N8  1  0.50015300  0.50015300  0.42497700  1
  N  N9  1  0.49849000  0.49849000  0.47522700  1
  N  N10  1  0.52259800  0.52259800  0.52161000  1
  N  N11  1  0.48127200  0.48127200  0.57780900  1
  N  N12  1  0.52554400  0.52554400  0.62116800  1
  N  N13  1  0.49518600  0.49518600  0.67572200  1
  N  N14  1  0.50373900  0.50373900  0.72443900  1
  N  N15  1  0.49984300  0.49984300  0.77502400  1
  N  N16  1  0.50015700  0.50015700  0.82497600  1
  N  N17  1  0.49626100  0.49626100  0.87556100  1
  N  N18  1  0.50481400  0.50481400  0.92427800  1
  N  N19  1  0.47445600  0.47445600  0.97883200  1
loop_
_geom_bond_atom_site_label_1
_geom_bond_atom_site_label_2
_geom_bond_distance
_geom_bond_site_symmetry_2
Li0 N0 2.231534 1_545
Li0 N0 2.231534 1_455
Li0 N0 2.231552 1_555
Li0 N1 2.375697 1_445
Li0 N1 2.375718 1_455
Li0 N1 2.375718 1_545
Li1 N11 2.231534 1_565
Li1 N11 2.231534 1_655
Li1 N11 2.231552 1_555
Li1 N10 2.375697 1_665
Li1 N10 2.375718 1_655
Li1 N10 2.375718 1_565
Li2 N13 2.177778 1_555
Li2 N13 2.177787 1_655
Li2 N13 2.177787 1_565
Li2 N12 2.382595 1_665
Li2 N12 2.382599 1_655
Li2 N12 2.382599 1_565
Li3 N14 2.179845 1_655
Li3 N14 2.179845 1_565
Li3 N14 2.179858 1_555
Li3 N13 2.199255 1_665
Li3 N13 2.199266 1_655
Li3 N13 2.199266 1_565
Li4 N15 2.207309 1_545
Li4 N16 2.207309 1_455
Li4 N16 2.207309 1_545
Li4 N15 2.207309 1_455
Li4 N15 2.207329 1_555
Li4 N16 2.207329 1_445
Li5 N14 2.210194 1_555
Li5 N14 2.210201 1_545
Li5 N14 2.210201 1_455
Li5 N15 2.222942 1_445
Li5 N15 2.222962 1_455
Li5 N15 2.222962 1_545
Li6 N17 2.210194 1_555
Li6 N17 2.210201 1_565
Li6 N17 2.210201 1_655
Li6 N16 2.222942 1_665
Li6 N16 2.222962 1_655
Li6 N16 2.222962 1_565
Li7 N17 2.179845 1_455
Li7 N17 2.179845 1_545
Li7 N17 2.179858 1_555
Li7 N18 2.199255 1_445
Li7 N18 2.199266 1_455
Li7 N18 2.199266 1_545
Li8 N18 2.177778 1_555
Li8 N18 2.177787 1_455
Li8 N18 2.177787 1_545
Li8 N19 2.382595 1_445
Li8 N19 2.382599 1_455
Li8 N19 2.382599 1_545
N0 Ta0 2.135033 1_664
N0 Ta0 2.135035 1_564
N0 Ta0 2.135035 1_654
N1 Ta1 2.094222 1_655
N1 Ta1 2.094222 1_565
N1 Ta1 2.094236 1_555
N2 Ta2 2.197084 1_555
N2 Ta2 2.197108 1_565
N2 Ta2 2.197108 1_655
N2 Ta1 2.223774 1_655
N2 Ta1 2.223774 1_565
N2 Ta1 2.223796 1_665
N3 Ta3 2.209237 1_455
N3 Ta3 2.209237 1_545
N3 Ta3 2.209237 1_445
N3 Ta2 2.226411 1_655
N3 Ta2 2.226411 1_565
N3 Ta2 2.226411 1_665
N4 Ta3 2.204319 1_545
N4 Ta3 2.204319 1_455
N4 Ta3 2.204337 1_555
N4 Ta4 2.211420 1_445
N4 Ta4 2.211426 1_455
N4 Ta4 2.211426 1_545
N5 Ta5 2.206296 1_565
N5 Ta5 2.206296 1_655
N5 Ta5 2.206305 1_555
N5 Ta4 2.208119 1_555
N5 Ta4 2.208136 1_545
N5 Ta4 2.208136 1_455
N6 Ta5 2.206296 1_655
N6 Ta5 2.206296 1_565
N6 Ta5 2.206305 1_665
N6 Ta6 2.208119 1_555
N6 Ta6 2.208136 1_565
N6 Ta6 2.208136 1_655
N7 Ta8 2.204319 1_565
N7 Ta8 2.204319 1_655
N7 Ta8 2.204337 1_555
N7 Ta6 2.211420 1_665
N7 Ta6 2.211426 1_655
N7 Ta6 2.211426 1_565
N8 Ta8 2.209237 1_655
N8 Ta8 2.209237 1_565
N8 Ta8 2.209237 1_665
N8 Ta7 2.226411 1_455
N8 Ta7 2.226411 1_545
N8 Ta7 2.226411 1_445
N9 Ta7 2.197084 1_555
N9 Ta7 2.197108 1_545
N9 Ta7 2.197108 1_455
N9 Ta9 2.223774 1_455
N9 Ta9 2.223774 1_545
N9 Ta9 2.223796 1_445
N10 Ta9 2.094222 1_455
N10 Ta9 2.094222 1_545
N10 Ta9 2.094236 1_555
N11 Ta10 2.135033 1_445
N11 Ta10 2.135035 1_545
N11 Ta10 2.135035 1_455
N12 Ta10 2.097196 1_455
N12 Ta10 2.097196 1_545
N12 Ta10 2.097208 1_555
N19 Ta0 2.097196 1_655
N19 Ta0 2.097196 1_565
N19 Ta0 2.097208 1_555
