# generated using pymatgen
data_SiO2
_symmetry_space_group_name_H-M   'P 1'
_cell_length_a   5.06108903
_cell_length_b   5.06108849
_cell_length_c   5.54050141
_cell_angle_alpha   90.00000000
_cell_angle_beta   90.00000000
_cell_angle_gamma   119.99999708
_symmetry_Int_Tables_number   1
_chemical_formula_structural   SiO2
_chemical_formula_sum   'Si3 O6'
_cell_volume   122.90445401
_cell_formula_units_Z   3
loop_
 _symmetry_equiv_pos_site_id
 _symmetry_equiv_pos_as_xyz
  1  'x, y, z'
loop_
 _atom_site_type_symbol
 _atom_site_label
 _atom_site_symmetry_multiplicity
 _atom_site_fract_x
 _atom_site_fract_y
 _atom_site_fract_z
 _atom_site_occupancy
  Si  Si0  1  0.00000000  0.50000000  0.66666700  1
  Si  Si1  1  0.50000000  0.50000000  0.33333300  1
  Si  Si2  1  0.50000000  0.00000000  0.00000000  1
  O  O0  1  0.79137071  0.58274343  0.50000000  1
  O  O1  1  0.20862929  0.79137071  0.83333300  1
  O  O2  1  0.58274343  0.79137071  0.16666700  1
  O  O3  1  0.20862929  0.41725657  0.50000000  1
  O  O4  1  0.79137071  0.20862929  0.83333300  1
  O  O5  1  0.41725657  0.20862929  0.16666700  1
loop_
_geom_bond_atom_site_label_1
_geom_bond_atom_site_label_2
_geom_bond_distance
_geom_bond_site_symmetry_2
O0 Si1 1.607834 1_555
O0 Si0 1.607842 1_655
O1 Si0 1.607833 1_555
O1 Si2 1.607836 1_566
O2 Si1 1.607831 1_555
O2 Si2 1.607842 1_565
O3 Si1 1.607834 1_555
O3 Si0 1.607842 1_555
O4 Si0 1.607833 1_655
O4 Si2 1.607836 1_556
O5 Si1 1.607831 1_555
O5 Si2 1.607842 1_555
