# generated using pymatgen
data_Ca2H2S2O9
_symmetry_space_group_name_H-M   'P 1'
_cell_length_a   9.46767531
_cell_length_b   9.46767531
_cell_length_c   12.20035724
_cell_angle_alpha   50.41093707
_cell_angle_beta   50.41093707
_cell_angle_gamma   43.66657986
_symmetry_Int_Tables_number   1
_chemical_formula_structural   Ca2H2S2O9
_chemical_formula_sum   'Ca6 H6 S6 O27'
_cell_volume   549.03266952
_cell_formula_units_Z   3
loop_
 _symmetry_equiv_pos_site_id
 _symmetry_equiv_pos_as_xyz
  1  'x, y, z'
loop_
 _atom_site_type_symbol
 _atom_site_label
 _atom_site_symmetry_multiplicity
 _atom_site_fract_x
 _atom_site_fract_y
 _atom_site_fract_z
 _atom_site_occupancy
  Ca  Ca0  1  0.48395700  0.51604300  0.50000000  1
  Ca  Ca1  1  0.98232700  0.34341400  0.55625500  1
  Ca  Ca2  1  0.65658600  0.01767300  0.44374500  1
  Ca  Ca3  1  0.11844700  0.55279400  0.92550500  1
  Ca  Ca4  1  0.44720600  0.88155300  0.07449500  1
  Ca  Ca5  1  0.98426300  0.01573700  0.00000000  1
  H  H0  1  0.60182300  0.47137100  0.91248700  1
  H  H1  1  0.52862900  0.39817700  0.08751300  1
  H  H2  1  0.09378400  0.21286200  0.32600200  1
  H  H3  1  0.78713800  0.90621600  0.67399800  1
  H  H4  1  0.30943600  0.09412300  0.34344000  1
  H  H5  1  0.90587700  0.69056400  0.65656000  1
  S  S0  1  0.23347300  0.26923900  0.74807500  1
  S  S1  1  0.73076100  0.76652700  0.25192500  1
  S  S2  1  0.23464000  0.60291000  0.30587500  1
  S  S3  1  0.39709000  0.76536000  0.69412500  1
  S  S4  1  0.88244500  0.29112300  0.18798400  1
  S  S5  1  0.70887700  0.11755500  0.81201600  1
  O  O0  1  0.17214400  0.45863700  0.75718200  1
  O  O1  1  0.54136300  0.82785600  0.24281800  1
  O  O2  1  0.28553900  0.07442900  0.88456400  1
  O  O3  1  0.92557100  0.71446100  0.11543600  1
  O  O4  1  0.05077400  0.31898400  0.73969900  1
  O  O5  1  0.68101600  0.94922600  0.26030100  1
  O  O6  1  0.42551000  0.23068300  0.60936100  1
  O  O7  1  0.76931700  0.57449000  0.39063900  1
  O  O8  1  0.00559600  0.66459700  0.40389400  1
  O  O9  1  0.33540300  0.99440400  0.59610600  1
  O  O10  1  0.25563400  0.72110600  0.14272400  1
  O  O11  1  0.27889400  0.74436600  0.85727600  1
  O  O12  1  0.31072000  0.66539700  0.33624000  1
  O  O13  1  0.33460300  0.68928000  0.66376000  1
  O  O14  1  0.36625900  0.36581800  0.33766200  1
  O  O15  1  0.63418200  0.63374100  0.66233800  1
  O  O16  1  0.78187600  0.51514300  0.08318300  1
  O  O17  1  0.48485700  0.21812400  0.91681700  1
  O  O18  1  0.76687700  0.28486900  0.34695900  1
  O  O19  1  0.71513100  0.23312300  0.65304100  1
  O  O20  1  0.88294600  0.13866500  0.18228100  1
  O  O21  1  0.86133500  0.11705400  0.81771900  1
  O  O22  1  0.11284400  0.21821000  0.13864800  1
  O  O23  1  0.78179000  0.88715600  0.86135200  1
  O  O24  1  0.15326200  0.16591100  0.39352700  1
  O  O25  1  0.83408900  0.84673800  0.60647300  1
  O  O26  1  0.64770900  0.35229100  0.00000000  1
loop_
_geom_bond_atom_site_label_1
_geom_bond_atom_site_label_2
_geom_bond_distance
_geom_bond_site_symmetry_2
Ca0 O19 2.409134 1_555
Ca0 O18 2.409134 1_555
Ca0 O13 2.429360 1_555
Ca0 O12 2.429360 1_555
Ca0 O7 2.452146 1_555
Ca0 O6 2.452146 1_555
Ca0 O1 2.682787 1_555
Ca0 O0 2.682787 1_555
Ca1 O24 2.368016 1_655
Ca1 O8 2.448161 1_655
Ca1 O15 2.466647 1_555
Ca1 O7 2.472347 1_555
Ca1 O21 2.502364 1_555
Ca1 O9 2.524453 1_645
Ca1 O4 2.540547 1_655
Ca1 O19 2.706840 1_555
Ca1 O14 2.899840 1_655
Ca2 O25 2.368016 1_545
Ca2 O9 2.448161 1_545
Ca2 O14 2.466647 1_555
Ca2 O6 2.472347 1_555
Ca2 O20 2.502364 1_555
Ca2 O8 2.524453 1_645
Ca2 O5 2.540547 1_545
Ca2 O18 2.706840 1_555
Ca2 O15 2.899840 1_545
Ca3 O0 2.370103 1_555
Ca3 O3 2.475995 1_456
Ca3 O17 2.478365 1_555
Ca3 O23 2.493420 1_455
Ca3 O13 2.508495 1_555
Ca3 O22 2.523443 1_556
Ca3 O11 2.596186 1_555
Ca3 O16 2.634032 1_456
Ca4 O1 2.370103 1_555
Ca4 O2 2.475995 1_564
Ca4 O16 2.478365 1_555
Ca4 O22 2.493420 1_565
Ca4 O12 2.508495 1_555
Ca4 O23 2.523443 1_554
Ca4 O10 2.596186 1_555
Ca4 O17 2.634032 1_564
Ca5 O26 2.370079 1_555
Ca5 O20 2.487001 1_555
Ca5 O21 2.487001 1_554
Ca5 O10 2.560655 1_645
Ca5 O11 2.560655 1_644
Ca5 O3 2.569798 1_545
Ca5 O2 2.569798 1_654
Ca5 O5 2.677790 1_545
Ca5 O4 2.677790 1_654
H0 O26 0.973722 1_556
H1 O26 0.973722 1_555
H2 O24 0.977642 1_555
H3 O25 0.977642 1_555
H4 O24 0.972352 1_555
H5 O25 0.972352 1_555
O0 S0 1.493417 1_555
O1 S1 1.493417 1_555
O2 S0 1.494674 1_555
O3 S1 1.494674 1_555
O4 S0 1.486472 1_555
O5 S1 1.486472 1_555
O6 S0 1.486081 1_555
O7 S1 1.486081 1_555
O8 S2 1.492083 1_555
O9 S3 1.492083 1_555
O10 S2 1.494112 1_555
O11 S3 1.494112 1_555
O12 S2 1.497342 1_555
O13 S3 1.497342 1_555
O14 S2 1.483764 1_555
O15 S3 1.483764 1_555
O16 S4 1.487777 1_555
O17 S5 1.487777 1_555
O18 S4 1.484950 1_555
O19 S5 1.484950 1_555
O20 S4 1.485265 1_555
O21 S5 1.485265 1_555
O22 S4 1.508209 1_455
O23 S5 1.508209 1_565
