# generated using pymatgen
data_Na7Al12Si12H6ClO48
_symmetry_space_group_name_H-M   'P 1'
_cell_length_a   9.22842900
_cell_length_b   9.38294980
_cell_length_c   18.50251257
_cell_angle_alpha   89.86110024
_cell_angle_beta   87.27442305
_cell_angle_gamma   89.97630728
_symmetry_Int_Tables_number   1
_chemical_formula_structural   Na7Al12Si12H6ClO48
_chemical_formula_sum   'Na7 Al12 Si12 H6 Cl1 O48'
_cell_volume   1600.31326692
_cell_formula_units_Z   1
loop_
 _symmetry_equiv_pos_site_id
 _symmetry_equiv_pos_as_xyz
  1  'x, y, z'
loop_
 _atom_site_type_symbol
 _atom_site_label
 _atom_site_symmetry_multiplicity
 _atom_site_fract_x
 _atom_site_fract_y
 _atom_site_fract_z
 _atom_site_occupancy
  Na  Na0  1  0.72963800  0.29923800  0.86330600  1
  Na  Na1  1  0.26463200  0.29779800  0.13389500  1
  Na  Na2  1  0.73238300  0.26908200  0.36233700  1
  Na  Na3  1  0.19012400  0.75448500  0.09211100  1
  Na  Na4  1  0.10141500  0.78897000  0.58093100  1
  Na  Na5  1  0.81130300  0.75862400  0.91032300  1
  Na  Na6  1  0.89194100  0.79000000  0.41045000  1
  Al  Al0  1  0.76768200  0.01203000  0.73776600  1
  Al  Al1  1  0.76176200  0.00713100  0.23162100  1
  Al  Al2  1  0.23635000  0.00641100  0.76200900  1
  Al  Al3  1  0.23066800  0.01300800  0.26295700  1
  Al  Al4  1  0.49848100  0.26564000  0.99874900  1
  Al  Al5  1  0.50600100  0.26010400  0.49364500  1
  Al  Al6  1  0.96894400  0.50070300  0.63242800  1
  Al  Al7  1  0.97912200  0.50677800  0.12356600  1
  Al  Al8  1  0.01728900  0.50503100  0.87586400  1
  Al  Al9  1  0.00573800  0.50888100  0.37204700  1
  Al  Al10  1  0.49727500  0.75442400  0.99937800  1
  Al  Al11  1  0.49069500  0.74376500  0.49072000  1
  Si  Si0  1  0.99890100  0.26217400  0.75389200  1
  Si  Si1  1  0.99272500  0.26632300  0.24924600  1
  Si  Si2  1  0.74813500  0.50770200  0.00399500  1
  Si  Si3  1  0.74810800  0.50158500  0.49963100  1
  Si  Si4  1  0.24814600  0.50599200  0.99463200  1
  Si  Si5  1  0.25304300  0.50704500  0.49279000  1
  Si  Si6  1  0.00063900  0.75622500  0.75112800  1
  Si  Si7  1  0.00192700  0.75852900  0.24555400  1
  Si  Si8  1  0.51613700  0.00760800  0.61979200  1
  Si  Si9  1  0.48902600  0.00739600  0.88004000  1
  Si  Si10  1  0.48464400  0.01011200  0.37690200  1
  Si  Si11  1  0.50757400  0.00852400  0.11694100  1
  H  H0  1  0.20406900  0.44698100  0.60831600  1
  H  H1  1  0.57904400  0.77688400  0.60106500  1
  H  H2  1  0.31021300  0.90251800  0.66383900  1
  H  H3  1  0.69492500  0.92715200  0.83947700  1
  H  H4  1  0.70205800  0.93211000  0.33948400  1
  H  H5  1  0.30490700  0.92740000  0.16363800  1
  Cl  Cl0  1  0.98749300  0.96999700  0.49783300  1
  O  O0  1  0.35809600  0.99423300  0.67303100  1
  O  O1  1  0.64585200  0.01202100  0.82203900  1
  O  O2  1  0.35594700  0.01416000  0.17817500  1
  O  O3  1  0.63993100  0.00323600  0.31773000  1
  O  O4  1  0.49376700  0.15773400  0.92072300  1
  O  O5  1  0.49788500  0.16668800  0.41107600  1
  O  O6  1  0.50121600  0.13261400  0.56414200  1
  O  O7  1  0.50284700  0.16029900  0.07757400  1
  O  O8  1  0.13715800  0.15828800  0.76302800  1
  O  O9  1  0.84711800  0.17425900  0.74532100  1
  O  O10  1  0.13957800  0.17076500  0.25703900  1
  O  O11  1  0.84619300  0.16937900  0.24132500  1
  O  O12  1  0.02754100  0.36102500  0.68283400  1
  O  O13  1  0.96560900  0.35639200  0.82655000  1
  O  O14  1  0.02865200  0.36209500  0.17738800  1
  O  O15  1  0.95841400  0.35931200  0.32240300  1
  O  O16  1  0.36643500  0.38245500  0.50767700  1
  O  O17  1  0.65115200  0.37108300  0.97937700  1
  O  O18  1  0.34541000  0.36930300  0.01857400  1
  O  O19  1  0.67174600  0.34967200  0.48063600  1
  O  O20  1  0.17737200  0.47760700  0.91817000  1
  O  O21  1  0.15306200  0.48477500  0.42630000  1
  O  O22  1  0.83247100  0.49009100  0.57424200  1
  O  O23  1  0.81959200  0.47911000  0.08046800  1
  O  O24  1  0.14869800  0.50554500  0.57535900  1
  O  O25  1  0.12955200  0.52830800  0.06250600  1
  O  O26  1  0.86708500  0.53426600  0.93643500  1
  O  O27  1  0.85548400  0.54904900  0.43100500  1
  O  O28  1  0.33925400  0.65665700  0.99283100  1
  O  O29  1  0.31853700  0.66928100  0.49526800  1
  O  O30  1  0.62931700  0.63070400  0.50951700  1
  O  O31  1  0.65630900  0.65818700  0.00672600  1
  O  O32  1  0.01531900  0.66445700  0.82435400  1
  O  O33  1  0.97393600  0.66569900  0.67708100  1
  O  O34  1  0.02151800  0.66440300  0.31835300  1
  O  O35  1  0.98565300  0.66948000  0.17147100  1
  O  O36  1  0.14698900  0.85355100  0.73137300  1
  O  O37  1  0.14585900  0.86171600  0.22880100  1
  O  O38  1  0.85901400  0.86199800  0.76861100  1
  O  O39  1  0.86044900  0.86289100  0.26352500  1
  O  O40  1  0.53958200  0.86778100  0.92420200  1
  O  O41  1  0.50760600  0.84123600  0.58053900  1
  O  O42  1  0.45260800  0.87116800  0.07268300  1
  O  O43  1  0.52363600  0.87641300  0.42751300  1
  O  O44  1  0.35226100  0.98583900  0.83133500  1
  O  O45  1  0.34400600  0.98718600  0.33208000  1
  O  O46  1  0.65320900  0.99337100  0.66748500  1
  O  O47  1  0.65212100  0.98436000  0.16012800  1
loop_
_geom_bond_atom_site_label_1
_geom_bond_atom_site_label_2
_geom_bond_distance
_geom_bond_site_symmetry_2
Na0 O13 2.313130 1_555
Na0 O17 2.334510 1_555
Na0 O9 2.665032 1_555
Na0 O4 2.721248 1_555
Na0 O26 2.912533 1_555
Na0 O1 2.917434 1_555
Na1 O18 2.323971 1_555
Na1 O14 2.364030 1_555
Na1 O7 2.714674 1_555
Na1 O10 2.771625 1_555
Na1 O25 2.849063 1_555
Na1 O2 2.918467 1_555
Na2 O15 2.337860 1_555
Na2 O19 2.359468 1_555
Na2 O5 2.496260 1_555
Na2 O11 2.603308 1_555
Na2 O3 2.776681 1_555
Na3 O25 2.269805 1_555
Na3 O28 2.424377 1_554
Na3 O35 2.466752 1_455
Na3 O42 2.667012 1_555
Na3 O37 2.736663 1_555
Na4 O33 2.383028 1_455
Na4 O24 2.696169 1_555
Na4 O29 2.737316 1_555
Na5 O26 2.224379 1_555
Na5 O31 2.421965 1_556
Na5 O32 2.564408 1_655
Na5 O40 2.709376 1_555
Na5 O38 2.808546 1_555
Na6 O27 2.313760 1_555
Na6 O34 2.353125 1_655
Na6 O39 2.829899 1_555
Al0 O9 1.698730 1_555
Al0 O46 1.723231 1_545
Al0 O38 1.748919 1_545
Al0 O1 1.878463 1_555
Al1 O47 1.716991 1_545
Al1 O11 1.724106 1_555
Al1 O39 1.748084 1_545
Al1 O3 1.906093 1_555
Al2 O8 1.693067 1_555
Al2 O44 1.719279 1_545
Al2 O36 1.762926 1_545
Al2 O0 1.952080 1_545
Al3 O45 1.707014 1_545
Al3 O10 1.707816 1_555
Al3 O37 1.754825 1_545
Al3 O2 1.903931 1_555
Al4 O18 1.739941 1_556
Al4 O17 1.744638 1_555
Al4 O7 1.761888 1_556
Al4 O4 1.767569 1_555
Al5 O16 1.735696 1_555
Al5 O19 1.751819 1_555
Al5 O6 1.766722 1_555
Al5 O5 1.767850 1_555
Al6 O22 1.698440 1_555
Al6 O12 1.709191 1_655
Al6 O33 1.758227 1_555
Al6 O24 1.924071 1_655
Al7 O23 1.727325 1_555
Al7 O14 1.754936 1_655
Al7 O25 1.759071 1_655
Al7 O35 1.769625 1_555
Al8 O20 1.723393 1_555
Al8 O13 1.747343 1_455
Al8 O26 1.762409 1_455
Al8 O32 1.772301 1_555
Al9 O21 1.742319 1_555
Al9 O15 1.746104 1_455
Al9 O27 1.764210 1_455
Al9 O34 1.765506 1_555
Al10 O28 1.732407 1_555
Al10 O31 1.733524 1_556
Al10 O40 1.777633 1_555
Al10 O42 1.778511 1_556
Al11 O30 1.709465 1_555
Al11 O43 1.722981 1_555
Al11 O29 1.734230 1_555
Al11 O41 1.911746 1_555
H0 O24 0.981162 1_555
H1 O41 0.982761 1_555
H2 O0 0.986366 1_555
H3 O1 0.977584 1_565
H3 Na5 2.344063 1_555
H4 O3 0.977975 1_565
H4 Na6 2.604058 1_555
H5 O2 0.985055 1_565
H5 Na3 2.377187 1_555
Cl0 Na6 2.528651 1_555
Cl0 Na4 2.548327 1_655
O0 Si8 1.725148 1_565
O1 Si9 1.760748 1_555
O2 Si11 1.758944 1_555
O3 Si10 1.762814 1_555
O4 Si9 1.602090 1_555
O5 Si10 1.607833 1_555
O6 Si8 1.569209 1_555
O7 Si11 1.599515 1_555
O8 Si0 1.620283 1_455
O9 Si0 1.640226 1_555
O10 Si1 1.636549 1_455
O11 Si1 1.642562 1_555
O12 Si0 1.618626 1_455
O13 Si0 1.627720 1_555
O14 Si1 1.624098 1_455
O15 Si1 1.630482 1_555
O16 Si5 1.600731 1_555
O17 Si2 1.641430 1_556
O18 Si4 1.637359 1_554
O19 Si3 1.636668 1_555
O20 Si4 1.608991 1_555
O21 Si5 1.586760 1_555
O22 Si3 1.620164 1_555
O23 Si2 1.611100 1_555
O24 Si5 1.766754 1_555
O25 Si4 1.639859 1_554
O26 Si2 1.642531 1_556
O27 Si3 1.634160 1_555
O28 Si4 1.644571 1_555
O29 Si5 1.639633 1_555
O30 Si3 1.638265 1_555
O31 Si2 1.646106 1_555
O32 Si6 1.614661 1_555
O33 Si6 1.642311 1_655
O34 Si7 1.626120 1_555
O35 Si7 1.620123 1_655
O36 Si6 1.656522 1_555
O37 Si7 1.660793 1_555
O38 Si6 1.660748 1_655
O39 Si7 1.653275 1_655
O40 Si9 1.622344 1_565
O41 Si8 1.726738 1_565
O42 Si11 1.622977 1_565
O43 Si10 1.614345 1_565
O44 Si9 1.598511 1_565
O45 Si10 1.588070 1_565
O46 Si8 1.581808 1_565
O47 Si11 1.602985 1_565
