# generated using pymatgen
data_Rb6U2W4O21
_symmetry_space_group_name_H-M   'P 1'
_cell_length_a   10.35858100
_cell_length_b   13.43510750
_cell_length_c   19.17744386
_cell_angle_alpha   97.99561512
_cell_angle_beta   96.51946683
_cell_angle_gamma   104.18682481
_symmetry_Int_Tables_number   1
_chemical_formula_structural   Rb6U2W4O21
_chemical_formula_sum   'Rb24 U8 W16 O84'
_cell_volume   2531.87332158
_cell_formula_units_Z   4
loop_
 _symmetry_equiv_pos_site_id
 _symmetry_equiv_pos_as_xyz
  1  'x, y, z'
loop_
 _atom_site_type_symbol
 _atom_site_label
 _atom_site_symmetry_multiplicity
 _atom_site_fract_x
 _atom_site_fract_y
 _atom_site_fract_z
 _atom_site_occupancy
  Rb  Rb0  1  0.70179200  0.93659900  0.65178900  1
  Rb  Rb1  1  0.19714800  0.57199400  0.47108500  1
  Rb  Rb2  1  0.90982800  0.23384800  0.04719500  1
  Rb  Rb3  1  0.44010500  0.93830400  0.89903500  1
  Rb  Rb4  1  0.35346500  0.76481100  0.69270500  1
  Rb  Rb5  1  0.26789000  0.42870500  0.00518800  1
  Rb  Rb6  1  0.52256700  0.57356500  0.26380800  1
  Rb  Rb7  1  0.29820800  0.06340100  0.34821100  1
  Rb  Rb8  1  0.47743300  0.42643500  0.73619200  1
  Rb  Rb9  1  0.19630400  0.93853200  0.14474500  1
  Rb  Rb10  1  0.04561100  0.06816500  0.59964000  1
  Rb  Rb11  1  0.55989500  0.06169600  0.10096500  1
  Rb  Rb12  1  0.80369600  0.06146800  0.85525500  1
  Rb  Rb13  1  0.40738900  0.21121100  0.54378300  1
  Rb  Rb14  1  0.80285200  0.42800600  0.52891500  1
  Rb  Rb15  1  0.64653500  0.23518900  0.30729500  1
  Rb  Rb16  1  0.04547300  0.56492700  0.76607700  1
  Rb  Rb17  1  0.14521400  0.23092600  0.80639000  1
  Rb  Rb18  1  0.73211000  0.57129500  0.99481200  1
  Rb  Rb19  1  0.95438900  0.93183500  0.40036000  1
  Rb  Rb20  1  0.09017200  0.76615200  0.95280500  1
  Rb  Rb21  1  0.59261100  0.78878900  0.45621700  1
  Rb  Rb22  1  0.85478600  0.76907400  0.19361000  1
  Rb  Rb23  1  0.95452700  0.43507300  0.23392300  1
  U  U0  1  0.77868700  0.27666500  0.70385000  1
  U  U1  1  0.22131300  0.72333500  0.29615000  1
  U  U2  1  0.74189500  0.73225800  0.79208500  1
  U  U3  1  0.56026400  0.27883400  0.90948900  1
  U  U4  1  0.94190300  0.73382500  0.60245700  1
  U  U5  1  0.43973600  0.72116600  0.09051100  1
  U  U6  1  0.25810500  0.26774200  0.20791500  1
  U  U7  1  0.05809700  0.26617500  0.39754300  1
  W  W0  1  0.22608900  0.13626500  0.99246600  1
  W  W1  1  0.43474500  0.09771900  0.72746400  1
  W  W2  1  0.27649300  0.86837800  0.51122900  1
  W  W3  1  0.56525500  0.90228100  0.27253600  1
  W  W4  1  0.77391100  0.86373500  0.00753400  1
  W  W5  1  0.44934300  0.40348400  0.40569500  1
  W  W6  1  0.72350700  0.13162200  0.48877100  1
  W  W7  1  0.86657800  0.62176300  0.38330500  1
  W  W8  1  0.05375700  0.90398400  0.76983400  1
  W  W9  1  0.94624300  0.09601600  0.23016600  1
  W  W10  1  0.13342200  0.37823700  0.61669500  1
  W  W11  1  0.38929800  0.62102500  0.87428800  1
  W  W12  1  0.10889300  0.62356700  0.11562400  1
  W  W13  1  0.55065700  0.59651600  0.59430500  1
  W  W14  1  0.61070200  0.37897500  0.12571200  1
  W  W15  1  0.89110700  0.37643300  0.88437600  1
  O  O0  1  0.44059900  0.67002700  0.56039300  1
  O  O1  1  0.55071900  0.17919900  0.67916200  1
  O  O2  1  0.52021000  0.54238800  0.42726300  1
  O  O3  1  0.71986800  0.95634100  0.33171400  1
  O  O4  1  0.40336300  0.84238000  0.06719700  1
  O  O5  1  0.29081700  0.02791100  0.01193000  1
  O  O6  1  0.95980200  0.51479800  0.90629800  1
  O  O7  1  0.84935600  0.77332600  0.69950600  1
  O  O8  1  0.33216000  0.21605300  0.93872700  1
  O  O9  1  0.72451000  0.39290500  0.68723400  1
  O  O10  1  0.10025300  0.15407600  0.43302800  1
  O  O11  1  0.09188800  0.36923200  0.52015800  1
  O  O12  1  0.71610900  0.63690900  0.56613300  1
  O  O13  1  0.77097800  0.36413400  0.95507400  1
  O  O14  1  0.04019800  0.48520200  0.09370200  1
  O  O15  1  0.55856500  0.09057700  0.43625200  1
  O  O16  1  0.70283100  0.28592100  0.14790300  1
  O  O17  1  0.59663700  0.15762000  0.93280300  1
  O  O18  1  0.28719300  0.70972900  0.17721400  1
  O  O19  1  0.77169500  0.49271100  0.34104100  1
  O  O20  1  0.89004700  0.17327200  0.30398700  1
  O  O21  1  0.71440800  0.20996100  0.57376100  1
  O  O22  1  0.10995300  0.82672800  0.69601300  1
  O  O23  1  0.44928100  0.82080100  0.32083800  1
  O  O24  1  0.21833700  0.97966900  0.49261600  1
  O  O25  1  0.58713200  0.81122600  0.19625700  1
  O  O26  1  0.41286800  0.18877400  0.80374300  1
  O  O27  1  0.47986300  0.60198000  0.11271300  1
  O  O28  1  0.77288400  0.77765800  0.92389100  1
  O  O29  1  0.44143500  0.90942300  0.56374800  1
  O  O30  1  0.19732000  0.38291400  0.20000800  1
  O  O31  1  0.50578800  0.99718000  0.75537600  1
  O  O32  1  0.33310000  0.15624400  0.21234400  1
  O  O33  1  0.96009800  0.83782600  0.83545100  1
  O  O34  1  0.05622500  0.63865900  0.20984300  1
  O  O35  1  0.98067400  0.61542500  0.62718100  1
  O  O36  1  0.70918300  0.97208900  0.98807000  1
  O  O37  1  0.57849200  0.63525400  0.69120600  1
  O  O38  1  0.00660600  0.31061500  0.92335700  1
  O  O39  1  0.28084600  0.49228000  0.84400900  1
  O  O40  1  0.15064400  0.22667400  0.30049400  1
  O  O41  1  0.42150800  0.36474600  0.30879400  1
  O  O42  1  0.71915400  0.50772000  0.15599100  1
  O  O43  1  0.99339400  0.68938500  0.07664300  1
  O  O44  1  0.47979000  0.45761200  0.57273700  1
  O  O45  1  0.55940100  0.32997300  0.43960700  1
  O  O46  1  0.46276600  0.36314800  0.17095200  1
  O  O47  1  0.44410400  0.64243300  0.97066500  1
  O  O48  1  0.28013200  0.04365900  0.66828600  1
  O  O49  1  0.90811200  0.63076800  0.47984200  1
  O  O50  1  0.05692400  0.09248200  0.94615300  1
  O  O51  1  0.03990200  0.16217400  0.16454900  1
  O  O52  1  0.77436300  0.71435100  0.36081100  1
  O  O53  1  0.29716900  0.71407900  0.85209700  1
  O  O54  1  0.94377500  0.36134100  0.79015700  1
  O  O55  1  0.80268000  0.61708600  0.79999200  1
  O  O56  1  0.49421200  0.00282000  0.24462400  1
  O  O57  1  0.89974700  0.84592400  0.56697200  1
  O  O58  1  0.28389100  0.36309100  0.43386700  1
  O  O59  1  0.94307600  0.90751800  0.05384700  1
  O  O60  1  0.52013700  0.39802000  0.88728700  1
  O  O61  1  0.22563700  0.28564900  0.63918900  1
  O  O62  1  0.28559200  0.79003900  0.42623900  1
  O  O63  1  0.55589600  0.35756700  0.02933500  1
  O  O64  1  0.78166300  0.02033100  0.50738400  1
  O  O65  1  0.17251200  0.84478100  0.28581900  1
  O  O66  1  0.22830500  0.50728900  0.65895900  1
  O  O67  1  0.22711600  0.22234200  0.07610900  1
  O  O68  1  0.21081300  0.97129400  0.82448300  1
  O  O69  1  0.02827400  0.65451500  0.35032500  1
  O  O70  1  0.53723400  0.63685200  0.82904800  1
  O  O71  1  0.66690000  0.84375600  0.78765600  1
  O  O72  1  0.66784000  0.78394700  0.06127300  1
  O  O73  1  0.22902200  0.63586600  0.04492600  1
  O  O74  1  0.84294000  0.21608900  0.44375700  1
  O  O75  1  0.01932600  0.38457500  0.37281900  1
  O  O76  1  0.98373000  0.00582800  0.74286900  1
  O  O77  1  0.82748800  0.15521900  0.71418100  1
  O  O78  1  0.78918700  0.02870600  0.17551700  1
  O  O79  1  0.15706000  0.78391100  0.55624300  1
  O  O80  1  0.97172600  0.34548500  0.64967500  1
  O  O81  1  0.27549000  0.60709500  0.31276600  1
  O  O82  1  0.01627000  0.99417200  0.25713100  1
  O  O83  1  0.71280700  0.29027100  0.82278600  1
loop_
_geom_bond_atom_site_label_1
_geom_bond_atom_site_label_2
_geom_bond_distance
_geom_bond_site_symmetry_2
O0 W13 1.805625 1_555
O0 Rb1 2.791266 1_555
O0 Rb4 3.009862 1_555
O0 Rb21 3.063706 1_555
O1 W1 1.841131 1_555
O1 U0 2.360748 1_555
O1 Rb13 2.979595 1_555
O2 W5 1.799288 1_555
O2 Rb21 3.163352 1_555
O2 Rb6 3.221755 1_555
O3 W3 1.779966 1_555
O3 Rb19 2.743972 1_555
O4 U5 1.859842 1_555
O4 Rb11 2.935881 1_565
O4 Rb9 3.166827 1_555
O4 Rb20 3.537874 1_554
O5 W0 1.811314 1_554
O5 Rb11 2.995639 1_555
O5 Rb3 3.078283 1_544
O5 Rb9 3.119100 1_545
O5 Rb20 3.570123 1_544
O6 W15 1.790263 1_555
O6 Rb16 3.037275 1_655
O6 Rb18 3.232433 1_555
O6 Rb20 3.267463 1_655
O7 U4 2.245954 1_555
O7 U2 2.261839 1_555
O7 W8 2.500905 1_655
O7 Rb0 3.141663 1_555
O8 W0 1.845418 1_555
O8 U3 2.462589 1_555
O8 Rb17 3.073359 1_555
O8 Rb5 3.215922 1_556
O9 U0 1.839240 1_555
O9 Rb8 2.937337 1_555
O9 Rb14 3.296879 1_555
O10 U7 1.860648 1_555
O10 Rb19 2.940056 1_445
O10 Rb7 3.124916 1_555
O10 Rb13 3.469489 1_555
O11 W10 1.832614 1_555
O11 U7 2.497733 1_555
O11 Rb1 2.997613 1_555
O11 Rb14 3.294223 1_455
O12 W13 1.832922 1_555
O12 U4 2.352881 1_555
O12 Rb14 3.165198 1_555
O12 Rb21 3.479553 1_555
O13 W15 1.938715 1_555
O13 U3 2.214415 1_555
O13 Rb18 2.918581 1_555
O13 Rb2 3.125852 1_556
O14 W12 1.790263 1_555
O14 Rb23 3.037275 1_455
O14 Rb5 3.232433 1_555
O14 Rb2 3.267463 1_455
O15 W6 1.797384 1_555
O15 Rb7 2.927330 1_555
O15 Rb13 3.221669 1_555
O15 Rb15 3.420791 1_555
O16 W14 1.815330 1_555
O16 Rb11 2.972242 1_555
O16 Rb23 3.012839 1_555
O16 Rb2 3.180694 1_555
O16 Rb15 3.307232 1_555
O17 U3 1.859842 1_555
O17 Rb3 2.935881 1_545
O17 Rb12 3.166827 1_555
O17 Rb2 3.537874 1_556
O18 W12 2.054886 1_555
O18 U5 2.415329 1_555
O18 U1 2.449527 1_555
O18 Rb9 3.541399 1_555
O19 W7 1.794981 1_555
O19 Rb23 3.092922 1_555
O19 Rb6 3.314670 1_555
O19 Rb15 3.325359 1_555
O20 W9 1.869463 1_555
O20 U7 2.325930 1_655
O20 Rb15 2.847614 1_555
O21 W6 1.838328 1_555
O21 U0 2.485699 1_555
O21 Rb14 3.118493 1_555
O21 Rb13 3.171540 1_555
O22 W8 1.869463 1_555
O22 U4 2.325930 1_455
O22 Rb4 2.847614 1_555
O23 W3 1.841131 1_555
O23 U1 2.360748 1_555
O23 Rb21 2.979595 1_555
O24 W2 1.807516 1_555
O24 Rb19 2.956788 1_455
O24 Rb10 3.166247 1_565
O24 Rb13 3.194255 1_565
O24 Rb7 3.248059 1_565
O25 W3 1.844211 1_555
O25 U5 2.369905 1_555
O25 Rb22 2.967107 1_555
O26 W1 1.844211 1_555
O26 U3 2.369905 1_555
O26 Rb17 2.967107 1_555
O27 U5 1.842248 1_555
O27 Rb6 2.972716 1_555
O27 Rb5 3.102195 1_555
O28 W4 1.839712 1_556
O28 U2 2.480972 1_555
O28 Rb18 3.212555 1_555
O28 Rb20 3.315493 1_655
O29 W2 1.797384 1_555
O29 Rb0 2.927330 1_555
O29 Rb21 3.221669 1_555
O29 Rb4 3.420791 1_555
O30 U6 1.826168 1_555
O30 Rb23 2.889257 1_455
O31 W1 1.803204 1_565
O31 Rb3 3.073566 1_555
O31 Rb4 3.129122 1_555
O31 Rb0 3.163396 1_555
O31 Rb12 3.290701 1_565
O32 U6 1.856202 1_555
O32 Rb9 2.956417 1_545
O32 Rb7 3.061472 1_555
O32 Rb15 3.378501 1_555
O33 W8 1.865599 1_655
O33 U2 2.342162 1_555
O33 Rb20 2.891013 1_655
O34 W12 1.944150 1_555
O34 U1 2.199529 1_555
O34 Rb23 2.802465 1_455
O34 Rb22 3.052411 1_455
O35 U4 1.842881 1_555
O35 Rb16 2.885468 1_655
O35 Rb14 2.983745 1_555
O36 W4 1.811314 1_556
O36 Rb3 2.995639 1_555
O36 Rb11 3.078283 1_566
O36 Rb12 3.119100 1_565
O36 Rb2 3.570123 1_566
O37 W13 1.828400 1_555
O37 U2 2.404135 1_555
O37 Rb8 3.024869 1_555
O37 Rb4 3.233263 1_555
O38 W15 1.808739 1_455
O38 Rb2 2.902426 1_456
O38 Rb5 2.922881 1_556
O38 Rb17 3.009331 1_555
O38 Rb12 3.469853 1_455
O39 W11 1.791947 1_555
O39 Rb16 3.142534 1_555
O39 Rb8 3.245740 1_555
O39 Rb5 3.327812 1_556
O39 Rb17 3.386845 1_555
O40 U7 2.245954 1_555
O40 U6 2.261839 1_555
O40 W9 2.500905 1_455
O40 Rb7 3.141663 1_555
O41 W5 1.828400 1_555
O41 U6 2.404135 1_555
O41 Rb6 3.024869 1_555
O41 Rb15 3.233263 1_555
O42 W14 1.791947 1_555
O42 Rb23 3.142534 1_555
O42 Rb6 3.245740 1_555
O42 Rb18 3.327812 1_554
O42 Rb22 3.386845 1_555
O43 W12 1.808739 1_655
O43 Rb20 2.902426 1_654
O43 Rb18 2.922881 1_554
O43 Rb22 3.009331 1_555
O43 Rb9 3.469853 1_655
O44 W13 1.799288 1_555
O44 Rb13 3.163352 1_555
O44 Rb8 3.221755 1_555
O45 W5 1.805625 1_555
O45 Rb14 2.791266 1_555
O45 Rb15 3.009862 1_555
O45 Rb13 3.063706 1_555
O46 W14 1.827485 1_555
O46 U6 2.429381 1_555
O46 Rb6 3.006197 1_555
O47 W11 1.831640 1_555
O47 U5 2.402929 1_556
O47 Rb5 3.201495 1_556
O47 Rb18 3.351896 1_555
O48 W1 1.779966 1_555
O48 Rb10 2.743972 1_555
O49 W7 1.832614 1_555
O49 U4 2.497733 1_555
O49 Rb14 2.997613 1_555
O49 Rb1 3.294223 1_655
O50 W0 1.789255 1_555
O50 Rb12 2.883878 1_455
O50 Rb2 3.278541 1_456
O50 Rb17 3.548207 1_555
O51 W9 1.865599 1_455
O51 U6 2.342162 1_555
O51 Rb2 2.891013 1_455
O52 W7 1.812188 1_555
O52 Rb19 2.996974 1_555
O52 Rb21 3.014695 1_555
O52 Rb6 3.056525 1_555
O52 Rb22 3.532463 1_555
O53 W11 1.815330 1_555
O53 Rb3 2.972242 1_555
O53 Rb16 3.012839 1_555
O53 Rb20 3.180694 1_555
O53 Rb4 3.307232 1_555
O54 W15 1.944150 1_555
O54 U0 2.199529 1_555
O54 Rb16 2.802465 1_655
O54 Rb17 3.052411 1_655
O55 U2 1.826168 1_555
O55 Rb16 2.889257 1_655
O56 W3 1.803204 1_545
O56 Rb11 3.073566 1_555
O56 Rb15 3.129122 1_555
O56 Rb7 3.163396 1_555
O56 Rb9 3.290701 1_545
O57 U4 1.860648 1_555
O57 Rb10 2.940056 1_665
O57 Rb0 3.124916 1_555
O57 Rb21 3.469489 1_555
O58 W5 1.832922 1_555
O58 U7 2.352881 1_555
O58 Rb1 3.165198 1_555
O58 Rb13 3.479553 1_555
O59 W4 1.789255 1_555
O59 Rb9 2.883878 1_655
O59 Rb20 3.278541 1_654
O59 Rb22 3.548207 1_555
O60 U3 1.842248 1_555
O60 Rb8 2.972716 1_555
O60 Rb18 3.102195 1_555
O61 W10 1.812188 1_555
O61 Rb10 2.996974 1_555
O61 Rb13 3.014695 1_555
O61 Rb8 3.056525 1_555
O61 Rb17 3.532463 1_555
O62 W2 1.838328 1_555
O62 U1 2.485699 1_555
O62 Rb1 3.118493 1_555
O62 Rb21 3.171540 1_555
O63 W14 1.831640 1_555
O63 U3 2.402929 1_554
O63 Rb18 3.201495 1_554
O63 Rb5 3.351896 1_555
O64 W6 1.807516 1_555
O64 Rb10 2.956788 1_655
O64 Rb19 3.166247 1_545
O64 Rb21 3.194255 1_545
O64 Rb0 3.248059 1_545
O65 U1 1.851627 1_555
O65 Rb7 2.923692 1_565
O65 Rb9 3.148628 1_555
O65 Rb22 3.395681 1_455
O66 W10 1.794981 1_555
O66 Rb16 3.092922 1_555
O66 Rb8 3.314670 1_555
O66 Rb4 3.325359 1_555
O67 W0 1.839712 1_554
O67 U6 2.480972 1_555
O67 Rb5 3.212555 1_555
O67 Rb2 3.315493 1_455
O68 W8 1.786310 1_555
O68 Rb3 2.793386 1_555
O69 W7 1.831882 1_455
O69 U1 2.401139 1_555
O69 Rb1 3.224504 1_555
O69 Rb23 3.307062 1_455
O70 W11 1.827485 1_555
O70 U2 2.429381 1_555
O70 Rb8 3.006197 1_555
O71 U2 1.856202 1_555
O71 Rb12 2.956417 1_565
O71 Rb0 3.061472 1_555
O71 Rb4 3.378501 1_555
O72 W4 1.845418 1_555
O72 U5 2.462589 1_555
O72 Rb22 3.073359 1_555
O72 Rb18 3.215922 1_554
O73 W12 1.938715 1_555
O73 U5 2.214415 1_555
O73 Rb5 2.918581 1_555
O73 Rb20 3.125852 1_554
O74 W6 1.841320 1_555
O74 U7 2.466740 1_655
O74 Rb15 3.207380 1_555
O74 Rb14 3.222674 1_555
O75 U7 1.842881 1_555
O75 Rb23 2.885468 1_455
O75 Rb1 2.983745 1_555
O76 W8 1.806643 1_645
O76 Rb10 3.071426 1_655
O76 Rb17 3.075819 1_655
O76 Rb0 3.082755 1_545
O76 Rb12 3.135235 1_555
O77 U0 1.851627 1_555
O77 Rb0 2.923692 1_545
O77 Rb12 3.148628 1_555
O77 Rb17 3.395681 1_655
O78 W9 1.786310 1_555
O78 Rb11 2.793386 1_555
O79 W2 1.841320 1_555
O79 U4 2.466740 1_455
O79 Rb4 3.207380 1_555
O79 Rb1 3.222674 1_555
O80 W10 1.831882 1_655
O80 U0 2.401139 1_555
O80 Rb14 3.224504 1_555
O80 Rb16 3.307062 1_655
O81 U1 1.839240 1_555
O81 Rb6 2.937337 1_555
O81 Rb1 3.296879 1_555
O82 W9 1.806643 1_465
O82 Rb19 3.071426 1_455
O82 Rb22 3.075819 1_455
O82 Rb7 3.082755 1_565
O82 Rb9 3.135235 1_555
O83 W15 2.054886 1_555
O83 U3 2.415329 1_555
O83 U0 2.449527 1_555
O83 Rb12 3.541399 1_555
