# generated using pymatgen
data_Ce3Mn(Al3Cu)8
_symmetry_space_group_name_H-M   'P 1'
_cell_length_a   8.44730600
_cell_length_b   8.44852408
_cell_length_c   8.44879408
_cell_angle_alpha   90.01593686
_cell_angle_beta   90.00025114
_cell_angle_gamma   89.99714466
_symmetry_Int_Tables_number   1
_chemical_formula_structural   Ce3Mn(Al3Cu)8
_chemical_formula_sum   'Ce3 Mn1 Al24 Cu8'
_cell_volume   602.96732921
_cell_formula_units_Z   1
loop_
 _symmetry_equiv_pos_site_id
 _symmetry_equiv_pos_as_xyz
  1  'x, y, z'
loop_
 _atom_site_type_symbol
 _atom_site_label
 _atom_site_symmetry_multiplicity
 _atom_site_fract_x
 _atom_site_fract_y
 _atom_site_fract_z
 _atom_site_occupancy
  Ce  Ce0  1  0.00001400  0.99998700  0.49999900  1
  Ce  Ce1  1  0.50000200  0.99999200  0.00000100  1
  Ce  Ce2  1  0.00000800  0.49999900  0.00000300  1
  Mn  Mn0  1  0.49980600  0.50014600  0.49998900  1
  Al  Al0  1  0.00000000  0.33640000  0.33639000  1
  Al  Al1  1  0.27108000  0.27112200  0.50000800  1
  Al  Al2  1  0.66357300  0.33635300  0.00000000  1
  Al  Al3  1  0.66356000  0.66362300  0.00000100  1
  Al  Al4  1  0.33643900  0.66363700  0.00000600  1
  Al  Al5  1  0.00000800  0.33637300  0.66363800  1
  Al  Al6  1  0.66358700  0.99999700  0.66364000  1
  Al  Al7  1  0.66358700  0.00000100  0.33636100  1
  Al  Al8  1  0.72892400  0.27112400  0.50001100  1
  Al  Al9  1  0.33644900  0.33636900  0.99999400  1
  Al  Al10  1  0.27109500  0.49999400  0.72869000  1
  Al  Al11  1  0.00000200  0.66359200  0.66360900  1
  Al  Al12  1  0.50000500  0.27102500  0.27119900  1
  Al  Al13  1  0.33642500  0.99999200  0.33636000  1
  Al  Al14  1  0.50000800  0.72897500  0.72880500  1
  Al  Al15  1  0.50001200  0.72897300  0.27119200  1
  Al  Al16  1  0.00000400  0.66361800  0.33636300  1
  Al  Al17  1  0.72892000  0.49999400  0.72869300  1
  Al  Al18  1  0.27108800  0.49999500  0.27130500  1
  Al  Al19  1  0.50000800  0.27102400  0.72880500  1
  Al  Al20  1  0.27108200  0.72887700  0.49999200  1
  Al  Al21  1  0.33642400  0.99999900  0.66363800  1
  Al  Al22  1  0.72892900  0.72887400  0.49998900  1
  Al  Al23  1  0.72891300  0.49999600  0.27131200  1
  Cu  Cu0  1  0.84539400  0.84539000  0.84540000  1
  Cu  Cu1  1  0.84538000  0.15456500  0.84542100  1
  Cu  Cu2  1  0.15463100  0.15456500  0.84542800  1
  Cu  Cu3  1  0.84537300  0.84541200  0.15458300  1
  Cu  Cu4  1  0.84540700  0.15458500  0.15459500  1
  Cu  Cu5  1  0.15461400  0.84538700  0.84539100  1
  Cu  Cu6  1  0.15462300  0.15461200  0.15461500  1
  Cu  Cu7  1  0.15462500  0.84543300  0.15457300  1
loop_
_geom_bond_atom_site_label_1
_geom_bond_atom_site_label_2
_geom_bond_distance
_geom_bond_site_symmetry_2
Ce0 Cu7 3.453367 1_555
Ce0 Cu1 3.453489 1_465
Ce0 Cu3 3.453498 1_455
Ce0 Cu2 3.453524 1_565
Ce0 Cu5 3.453840 1_555
Ce0 Cu4 3.453942 1_465
Ce0 Cu6 3.453951 1_565
Ce0 Cu0 3.454018 1_455
Ce1 Cu2 3.452971 1_564
Ce1 Cu3 3.453022 1_555
Ce1 Cu0 3.453038 1_554
Ce1 Cu6 3.453044 1_565
Ce1 Cu7 3.453085 1_555
Ce1 Cu5 3.453148 1_554
Ce1 Cu1 3.453163 1_564
Ce1 Cu4 3.453180 1_565
Ce2 Cu3 3.453338 1_455
Ce2 Cu2 3.453433 1_554
Ce2 Cu7 3.453504 1_555
Ce2 Cu1 3.453577 1_454
Ce2 Cu0 3.453797 1_454
Ce2 Cu6 3.453800 1_555
Ce2 Cu5 3.453893 1_554
Ce2 Cu4 3.453999 1_455
Al0 Cu6 2.534157 1_555
Al0 Cu4 2.534339 1_455
Al0 Al23 2.730683 1_455
Al0 Al18 2.730817 1_555
Al0 Al1 2.731118 1_555
Al0 Al8 2.731156 1_455
Al0 Al16 2.764509 1_555
Al0 Al5 2.764851 1_555
Al0 Ce2 3.160682 1_555
Al0 Ce0 3.160854 1_545
Al1 Al5 2.730922 1_555
Al1 Al13 2.731582 1_545
Al1 Al21 2.732096 1_545
Al1 Al10 2.733095 1_555
Al1 Al18 2.733987 1_555
Al1 Al19 2.734294 1_555
Al1 Al12 2.734359 1_555
Al1 Mn0 2.734474 1_555
Al1 Ce0 3.238961 1_545
Al2 Cu1 2.534116 1_554
Al2 Cu4 2.534655 1_555
Al2 Al23 2.732914 1_555
Al2 Al9 2.763317 1_554
Al2 Al3 2.764948 1_555
Al2 Ce1 3.159928 1_545
Al2 Ce2 3.160486 1_655
Al3 Cu3 2.534250 1_555
Al3 Cu0 2.534775 1_554
Al3 Al4 2.763291 1_555
Al3 Ce1 3.159817 1_555
Al3 Ce2 3.160380 1_655
Al4 Cu7 2.534140 1_555
Al4 Cu5 2.534603 1_554
Al4 Al9 2.764932 1_554
Al4 Ce1 3.159853 1_555
Al4 Ce2 3.160426 1_555
Al5 Cu2 2.534847 1_555
Al5 Cu1 2.534919 1_455
Al5 Al8 2.731027 1_455
Al5 Ce2 3.159923 1_556
Al5 Ce0 3.160068 1_545
Al6 Cu1 2.534047 1_565
Al6 Cu0 2.534542 1_555
Al6 Al8 2.732157 1_565
Al6 Al7 2.765113 1_565
Al6 Ce1 3.160005 1_556
Al6 Ce0 3.160370 1_655
Al7 Cu3 2.534016 1_545
Al7 Cu4 2.534626 1_555
Al7 Al8 2.731571 1_555
Al7 Ce1 3.159987 1_545
Al7 Ce0 3.160348 1_645
Al8 Mn0 2.736667 1_555
Al8 Ce0 3.238955 1_645
Al9 Cu2 2.534283 1_555
Al9 Cu6 2.534770 1_556
Al9 Ce1 3.159860 1_546
Al9 Ce2 3.160349 1_556
Al10 Al5 2.730706 1_555
Al10 Al11 2.730739 1_555
Al10 Mn0 2.732437 1_555
Al10 Al4 2.732950 1_556
Al10 Al9 2.733422 1_555
Al10 Al20 2.734017 1_555
Al10 Al19 2.735132 1_555
Al10 Al14 2.735334 1_555
Al10 Ce2 3.240128 1_556
Al11 Cu0 2.534225 1_455
Al11 Cu5 2.534253 1_555
Al11 Al17 2.730785 1_455
Al11 Al22 2.731084 1_455
Al11 Al20 2.731182 1_555
Al11 Al5 2.764518 1_555
Al11 Al16 2.764834 1_555
Al11 Ce2 3.160713 1_556
Al11 Ce0 3.160721 1_555
Al12 Al7 2.730547 1_555
Al12 Al13 2.730719 1_545
Al12 Al9 2.732127 1_554
Al12 Al2 2.732147 1_555
Al12 Al8 2.734330 1_555
Al12 Al18 2.735156 1_555
Al12 Mn0 2.735229 1_555
Al12 Al23 2.735244 1_555
Al12 Ce1 3.238894 1_545
Al13 Cu7 2.534074 1_555
Al13 Cu6 2.534496 1_565
Al13 Al15 2.730289 1_555
Al13 Al20 2.732095 1_555
Al13 Al7 2.763638 1_565
Al13 Al21 2.765104 1_555
Al13 Ce1 3.159960 1_555
Al13 Ce0 3.160241 1_555
Al14 Al21 2.730564 1_555
Al14 Al6 2.730643 1_555
Al14 Al3 2.732060 1_556
Al14 Al4 2.732182 1_556
Al14 Mn0 2.733639 1_555
Al14 Al22 2.734377 1_555
Al14 Al20 2.734377 1_555
Al14 Al17 2.735191 1_555
Al14 Ce1 3.238787 1_556
Al15 Al7 2.730416 1_565
Al15 Al3 2.731757 1_555
Al15 Al4 2.731822 1_555
Al15 Al22 2.734228 1_555
Al15 Mn0 2.734274 1_555
Al15 Al20 2.734336 1_555
Al15 Al23 2.735102 1_555
Al15 Al18 2.735382 1_555
Al15 Ce1 3.239670 1_555
Al16 Cu3 2.534759 1_455
Al16 Cu7 2.534960 1_555
Al16 Al18 2.730592 1_555
Al16 Al23 2.730737 1_455
Al16 Al22 2.730935 1_455
Al16 Al20 2.731010 1_555
Al16 Ce2 3.159859 1_555
Al16 Ce0 3.159928 1_555
Al17 Al5 2.730607 1_655
Al17 Al3 2.732837 1_556
Al17 Al8 2.733083 1_555
Al17 Al2 2.733532 1_556
Al17 Al22 2.734035 1_555
Al17 Mn0 2.734850 1_555
Al17 Al19 2.735262 1_555
Al17 Ce2 3.240102 1_656
Al18 Mn0 2.732364 1_555
Al18 Al9 2.732847 1_554
Al18 Al20 2.733185 1_555
Al18 Al4 2.733486 1_555
Al18 Ce2 3.240006 1_555
Al19 Al6 2.730306 1_545
Al19 Al21 2.730430 1_545
Al19 Al9 2.731781 1_555
Al19 Al2 2.731839 1_556
Al19 Al8 2.734216 1_555
Al19 Mn0 2.736151 1_555
Al19 Ce1 3.239777 1_546
Al20 Al21 2.731556 1_555
Al20 Mn0 2.732575 1_555
Al20 Ce0 3.238662 1_555
Al21 Cu2 2.534013 1_565
Al21 Cu5 2.534631 1_555
Al21 Al6 2.763646 1_555
Al21 Ce1 3.159984 1_556
Al21 Ce0 3.160222 1_555
Al22 Al6 2.731540 1_555
Al22 Al7 2.732113 1_565
Al22 Al23 2.733101 1_555
Al22 Mn0 2.735078 1_555
Al22 Ce0 3.238943 1_655
Al23 Al3 2.733478 1_555
Al23 Al8 2.733957 1_555
Al23 Mn0 2.734659 1_555
Al23 Ce2 3.240152 1_655
