# generated using pymatgen
data_CsPuP2S7
_symmetry_space_group_name_H-M   'P 1'
_cell_length_a   12.76249000
_cell_length_b   9.14203400
_cell_length_c   10.28160400
_cell_angle_alpha   88.74458214
_cell_angle_beta   90.00000000
_cell_angle_gamma   90.00000000
_symmetry_Int_Tables_number   1
_chemical_formula_structural   CsPuP2S7
_chemical_formula_sum   'Cs4 Pu4 P8 S28'
_cell_volume   1199.31940065
_cell_formula_units_Z   4
loop_
 _symmetry_equiv_pos_site_id
 _symmetry_equiv_pos_as_xyz
  1  'x, y, z'
loop_
 _atom_site_type_symbol
 _atom_site_label
 _atom_site_symmetry_multiplicity
 _atom_site_fract_x
 _atom_site_fract_y
 _atom_site_fract_z
 _atom_site_occupancy
  Cs  Cs0  1  0.30247000  0.13399600  0.89816800  1
  Cs  Cs1  1  0.80247000  0.36600400  0.10183200  1
  Cs  Cs2  1  0.19753000  0.63399600  0.89816800  1
  Cs  Cs3  1  0.69753000  0.86600400  0.10183200  1
  Pu  Pu0  1  0.85902100  0.60566000  0.63478600  1
  Pu  Pu1  1  0.35902100  0.89434000  0.36521400  1
  Pu  Pu2  1  0.14097900  0.39434000  0.36521400  1
  Pu  Pu3  1  0.64097900  0.10566000  0.63478600  1
  P  P0  1  0.39399800  0.52440100  0.23982000  1
  P  P1  1  0.46674400  0.80035000  0.67648600  1
  P  P2  1  0.53325600  0.19965000  0.32351400  1
  P  P3  1  0.89399800  0.97559900  0.76018000  1
  P  P4  1  0.03325600  0.30035000  0.67648600  1
  P  P5  1  0.10600200  0.02440100  0.23982000  1
  P  P6  1  0.60600200  0.47559900  0.76018000  1
  P  P7  1  0.96674400  0.69965000  0.32351400  1
  S  S0  1  0.17175900  0.07741000  0.41498200  1
  S  S1  1  0.94314300  0.32480200  0.51377600  1
  S  S2  1  0.05685700  0.67519800  0.48622400  1
  S  S3  1  0.68619500  0.14758000  0.35999500  1
  S  S4  1  0.04701500  0.07451200  0.73632200  1
  S  S5  1  0.93679500  0.78616600  0.85220100  1
  S  S6  1  0.81380500  0.64758000  0.35999500  1
  S  S7  1  0.18619500  0.35242000  0.64000500  1
  S  S8  1  0.54701500  0.42548800  0.26367800  1
  S  S9  1  0.44314300  0.17519800  0.48622400  1
  S  S10  1  0.70903900  0.61135200  0.84529800  1
  S  S11  1  0.45298500  0.57451200  0.73632200  1
  S  S12  1  0.43679500  0.71383400  0.14779900  1
  S  S13  1  0.29096100  0.38864800  0.15470200  1
  S  S14  1  0.31380500  0.85242000  0.64000500  1
  S  S15  1  0.97070200  0.42577200  0.81804400  1
  S  S16  1  0.02929800  0.57422800  0.18195600  1
  S  S17  1  0.79096100  0.11135200  0.84529800  1
  S  S18  1  0.55685700  0.82480200  0.51377600  1
  S  S19  1  0.56320500  0.28616600  0.85220100  1
  S  S20  1  0.47070200  0.07422800  0.18195600  1
  S  S21  1  0.32824100  0.57741000  0.41498200  1
  S  S22  1  0.95298500  0.92548800  0.26367800  1
  S  S23  1  0.06320500  0.21383400  0.14779900  1
  S  S24  1  0.52929800  0.92577200  0.81804400  1
  S  S25  1  0.82824100  0.92259000  0.58501800  1
  S  S26  1  0.67175900  0.42259000  0.58501800  1
  S  S27  1  0.20903900  0.88864800  0.15470200  1
loop_
_geom_bond_atom_site_label_1
_geom_bond_atom_site_label_2
_geom_bond_distance
_geom_bond_site_symmetry_2
Cs0 S13 3.559105 1_556
Cs0 S24 3.570912 1_545
Cs0 S7 3.605928 1_555
Cs0 S27 3.626349 1_546
Cs0 S19 3.633585 1_555
Cs0 S20 3.654051 1_556
Cs0 S4 3.705883 1_555
Cs0 S14 3.740613 1_545
Cs0 S23 4.065325 1_556
Cs1 S17 3.559105 1_554
Cs1 S16 3.570912 1_655
Cs1 S3 3.605928 1_555
Cs1 S10 3.626349 1_554
Cs1 S23 3.633585 1_655
Cs1 S15 3.654051 1_554
Cs1 S8 3.705883 1_555
Cs1 S6 3.740613 1_555
Cs1 S19 4.065325 1_554
Cs2 S27 3.559105 1_556
Cs2 S15 3.570912 1_455
Cs2 S14 3.605928 1_555
Cs2 S13 3.626349 1_556
Cs2 S5 3.633585 1_455
Cs2 S16 3.654051 1_556
Cs2 S11 3.705883 1_555
Cs2 S7 3.740613 1_555
Cs2 S12 4.065325 1_556
Cs3 S10 3.559105 1_554
Cs3 S20 3.570912 1_565
Cs3 S6 3.605928 1_555
Cs3 S17 3.626349 1_564
Cs3 S12 3.633585 1_555
Cs3 S24 3.654051 1_554
Cs3 S22 3.705883 1_555
Cs3 S3 3.740613 1_565
Cs3 S5 4.065325 1_554
Pu0 S15 2.854901 1_555
Pu0 S10 2.890713 1_555
Pu0 S6 2.900812 1_555
Pu0 S25 2.957367 1_555
Pu0 S26 2.968529 1_555
Pu0 S5 2.977735 1_555
Pu0 S2 3.011599 1_655
Pu0 S1 3.071356 1_555
Pu1 S20 2.854901 1_565
Pu1 S27 2.890713 1_555
Pu1 S14 2.900812 1_555
Pu1 S21 2.957367 1_555
Pu1 S0 2.968529 1_565
Pu1 S12 2.977735 1_555
Pu1 S18 3.011599 1_555
Pu1 S9 3.071356 1_565
Pu2 S16 2.854901 1_555
Pu2 S13 2.890713 1_555
Pu2 S7 2.900812 1_555
Pu2 S0 2.957367 1_555
Pu2 S21 2.968529 1_555
Pu2 S23 2.977735 1_555
Pu2 S1 3.011599 1_455
Pu2 S2 3.071356 1_555
Pu3 S24 2.854901 1_545
Pu3 S17 2.890713 1_555
Pu3 S3 2.900812 1_555
Pu3 S26 2.957367 1_555
Pu3 S25 2.968529 1_545
Pu3 S19 2.977735 1_555
Pu3 S9 3.011599 1_555
Pu3 S18 3.071356 1_545
P0 S13 2.020632 1_555
P0 S12 2.029981 1_555
P0 S21 2.054457 1_555
P0 S8 2.163765 1_555
P1 S24 2.035563 1_555
P1 S18 2.038356 1_555
P1 S14 2.041889 1_555
P1 S11 2.148560 1_555
P2 S20 2.035563 1_555
P2 S9 2.038356 1_555
P2 S3 2.041889 1_555
P2 S8 2.148560 1_555
P3 S17 2.020632 1_565
P3 S5 2.029981 1_555
P3 S25 2.054457 1_555
P3 S4 2.163765 1_665
P4 S15 2.035563 1_455
P4 S1 2.038356 1_455
P4 S7 2.041889 1_555
P4 S4 2.148560 1_555
P5 S27 2.020632 1_545
P5 S23 2.029981 1_555
P5 S0 2.054457 1_555
P5 S22 2.163765 1_445
P6 S10 2.020632 1_555
P6 S19 2.029981 1_555
P6 S26 2.054457 1_555
P6 S11 2.163765 1_555
P7 S16 2.035563 1_655
P7 S2 2.038356 1_655
P7 S6 2.041889 1_555
P7 S22 2.148560 1_555
