# generated using pymatgen
data_K2Pd(NO2)4
_symmetry_space_group_name_H-M   'P 1'
_cell_length_a   13.43708000
_cell_length_b   8.04412800
_cell_length_c   8.95170984
_cell_angle_alpha   86.43660906
_cell_angle_beta   90.00000000
_cell_angle_gamma   90.00000000
_symmetry_Int_Tables_number   1
_chemical_formula_structural   K2Pd(NO2)4
_chemical_formula_sum   'K8 Pd4 N16 O32'
_cell_volume   965.71597026
_cell_formula_units_Z   4
loop_
 _symmetry_equiv_pos_site_id
 _symmetry_equiv_pos_as_xyz
  1  'x, y, z'
loop_
 _atom_site_type_symbol
 _atom_site_label
 _atom_site_symmetry_multiplicity
 _atom_site_fract_x
 _atom_site_fract_y
 _atom_site_fract_z
 _atom_site_occupancy
  K  K0  1  0.65883900  0.92569400  0.81997300  1
  K  K1  1  0.32414000  0.85404700  0.66574700  1
  K  K2  1  0.15883900  0.57430600  0.18002700  1
  K  K3  1  0.84116100  0.42569400  0.81997300  1
  K  K4  1  0.17586000  0.35404700  0.66574700  1
  K  K5  1  0.82414000  0.64595300  0.33425300  1
  K  K6  1  0.67586000  0.14595300  0.33425300  1
  K  K7  1  0.34116100  0.07430600  0.18002700  1
  Pd  Pd0  1  0.50000000  0.50000000  0.00000000  1
  Pd  Pd1  1  0.00000000  0.00000000  0.00000000  1
  Pd  Pd2  1  0.00000000  0.00000000  0.50000000  1
  Pd  Pd3  1  0.50000000  0.50000000  0.50000000  1
  N  N0  1  0.50833300  0.75876600  0.44513000  1
  N  N1  1  0.42542100  0.72274600  0.00159600  1
  N  N2  1  0.00833300  0.74123400  0.55487000  1
  N  N3  1  0.87336800  0.10195100  0.09467000  1
  N  N4  1  0.63839700  0.50931300  0.59592400  1
  N  N5  1  0.13839700  0.99068700  0.40407600  1
  N  N6  1  0.12663200  0.89804900  0.90533000  1
  N  N7  1  0.99166700  0.25876600  0.44513000  1
  N  N8  1  0.92542100  0.77725400  0.99840400  1
  N  N9  1  0.36160300  0.49068700  0.40407600  1
  N  N10  1  0.62663200  0.60195100  0.09467000  1
  N  N11  1  0.57457900  0.27725400  0.99840400  1
  N  N12  1  0.49166700  0.24123400  0.55487000  1
  N  N13  1  0.37336800  0.39804900  0.90533000  1
  N  N14  1  0.07457900  0.22274600  0.00159600  1
  N  N15  1  0.86160300  0.00931300  0.59592400  1
  O  O0  1  0.64423600  0.25461700  0.90985800  1
  O  O1  1  0.91339800  0.33614200  0.47119500  1
  O  O2  1  0.06401500  0.33270300  0.38309000  1
  O  O3  1  0.86926000  0.25437800  0.11416400  1
  O  O4  1  0.78983800  0.94357700  0.53104000  1
  O  O5  1  0.08660200  0.66385800  0.52880500  1
  O  O6  1  0.84740100  0.07897100  0.71451600  1
  O  O7  1  0.36926000  0.24562200  0.88583600  1
  O  O8  1  0.54965800  0.16337800  0.09394700  1
  O  O9  1  0.69813200  0.50886200  0.13596900  1
  O  O10  1  0.19813200  0.99113800  0.86403100  1
  O  O11  1  0.56401500  0.16729700  0.61691000  1
  O  O12  1  0.35576400  0.74538300  0.09014200  1
  O  O13  1  0.63074000  0.75437800  0.11416400  1
  O  O14  1  0.15259900  0.92102900  0.28548400  1
  O  O15  1  0.93598500  0.66729700  0.61691000  1
  O  O16  1  0.95034200  0.66337800  0.09394700  1
  O  O17  1  0.28983800  0.55642300  0.46896000  1
  O  O18  1  0.71016200  0.44357700  0.53104000  1
  O  O19  1  0.65259900  0.57897100  0.71451600  1
  O  O20  1  0.14423600  0.24538300  0.09014200  1
  O  O21  1  0.58660200  0.83614200  0.47119500  1
  O  O22  1  0.43598500  0.83270300  0.38309000  1
  O  O23  1  0.41339800  0.16385800  0.52880500  1
  O  O24  1  0.45034200  0.83662200  0.90605300  1
  O  O25  1  0.04965800  0.33662200  0.90605300  1
  O  O26  1  0.21016200  0.05642300  0.46896000  1
  O  O27  1  0.13074000  0.74562200  0.88583600  1
  O  O28  1  0.30186800  0.49113800  0.86403100  1
  O  O29  1  0.85576400  0.75461700  0.90985800  1
  O  O30  1  0.34740100  0.42102900  0.28548400  1
  O  O31  1  0.80186800  0.00886200  0.13596900  1
loop_
_geom_bond_atom_site_label_1
_geom_bond_atom_site_label_2
_geom_bond_distance
_geom_bond_site_symmetry_2
K0 O0 2.819813 1_565
K0 O11 2.875017 1_565
K0 O13 2.919921 1_556
K0 O6 2.947283 1_565
K0 O24 2.981179 1_555
K0 O19 3.000748 1_555
K0 O29 3.066829 1_555
K0 O4 3.124516 1_555
K1 O10 2.734383 1_555
K1 O24 2.735928 1_555
K1 O26 2.782528 1_565
K1 O22 2.957082 1_555
K1 O23 2.961811 1_565
K1 O17 3.093816 1_555
K2 O20 2.819813 1_555
K2 O2 2.875017 1_555
K2 O27 2.919921 1_554
K2 O30 2.947283 1_555
K2 O16 2.981179 1_455
K2 O14 3.000748 1_555
K2 O12 3.066829 1_555
K2 O17 3.124516 1_555
K3 O29 2.819813 1_555
K3 O15 2.875017 1_555
K3 O3 2.919921 1_556
K3 O19 2.947283 1_555
K3 O25 2.981179 1_655
K3 O6 3.000748 1_555
K3 O0 3.066829 1_555
K3 O18 3.124516 1_555
K4 O28 2.734383 1_555
K4 O25 2.735928 1_555
K4 O17 2.782528 1_555
K4 O2 2.957082 1_555
K4 O5 2.961811 1_555
K4 O26 3.093816 1_555
K5 O9 2.734383 1_555
K5 O16 2.735928 1_555
K5 O18 2.782528 1_555
K5 O15 2.957082 1_555
K5 O1 2.961811 1_555
K5 O4 3.093816 1_555
K6 O31 2.734383 1_555
K6 O8 2.735928 1_555
K6 O4 2.782528 1_545
K6 O11 2.957082 1_555
K6 O21 2.961811 1_545
K6 O18 3.093816 1_555
K7 O12 2.819813 1_545
K7 O22 2.875017 1_545
K7 O7 2.919921 1_554
K7 O14 2.947283 1_545
K7 O8 2.981179 1_555
K7 O30 3.000748 1_555
K7 O20 3.066829 1_555
K7 O26 3.124516 1_555
N0 O21 1.251396 1_555
N0 O22 1.251469 1_555
N0 Pd3 2.111763 1_555
N1 O12 1.247175 1_555
N1 O24 1.259109 1_554
N1 Pd0 2.053820 1_555
N2 O5 1.251396 1_555
N2 O15 1.251469 1_455
N2 Pd2 2.111763 1_565
N3 O3 1.250408 1_555
N3 O31 1.259380 1_555
N3 Pd1 2.091046 1_655
N4 O19 1.245527 1_555
N4 O18 1.258987 1_555
N4 Pd3 2.051646 1_555
N5 O14 1.245527 1_555
N5 O26 1.258987 1_565
N5 Pd2 2.051646 1_565
N6 O27 1.250408 1_555
N6 O10 1.259380 1_555
N6 Pd1 2.091046 1_566
N7 O1 1.251396 1_555
N7 O2 1.251469 1_655
N7 Pd2 2.111763 1_655
N8 O29 1.247175 1_555
N8 O16 1.259109 1_556
N8 Pd1 2.053820 1_666
N9 O30 1.245527 1_555
N9 O17 1.258987 1_555
N9 Pd3 2.051646 1_555
N10 O13 1.250408 1_555
N10 O9 1.259380 1_555
N10 Pd0 2.091046 1_555
N11 O0 1.247175 1_555
N11 O8 1.259109 1_556
N11 Pd0 2.053820 1_556
N12 O23 1.251396 1_555
N12 O11 1.251469 1_555
N12 Pd3 2.111763 1_555
N13 O7 1.250408 1_555
N13 O28 1.259380 1_555
N13 Pd0 2.091046 1_556
N14 O20 1.247175 1_555
N14 O25 1.259109 1_554
N14 Pd1 2.053820 1_555
N15 O6 1.245527 1_555
N15 O4 1.258987 1_545
N15 Pd2 2.051646 1_655
