# generated using pymatgen
data_Ti(FeO2)3
_symmetry_space_group_name_H-M   'P 1'
_cell_length_a   23.49111552
_cell_length_b   23.49111552
_cell_length_c   23.49111481
_cell_angle_alpha   12.54969586
_cell_angle_beta   12.54969586
_cell_angle_gamma   12.54969524
_symmetry_Int_Tables_number   1
_chemical_formula_structural   Ti(FeO2)3
_chemical_formula_sum   'Ti5 Fe15 O30'
_cell_volume   532.15616146
_cell_formula_units_Z   5
loop_
 _symmetry_equiv_pos_site_id
 _symmetry_equiv_pos_as_xyz
  1  'x, y, z'
loop_
 _atom_site_type_symbol
 _atom_site_label
 _atom_site_symmetry_multiplicity
 _atom_site_fract_x
 _atom_site_fract_y
 _atom_site_fract_z
 _atom_site_occupancy
  Ti  Ti0  1  0.22941700  0.22941700  0.22941700  1
  Ti  Ti1  1  0.62952100  0.62952100  0.62952100  1
  Ti  Ti2  1  0.02954700  0.02954700  0.02954700  1
  Ti  Ti3  1  0.42963000  0.42963000  0.42963000  1
  Ti  Ti4  1  0.17046100  0.17046100  0.17046100  1
  Fe  Fe0  1  0.82894100  0.82894100  0.82894100  1
  Fe  Fe1  1  0.27116100  0.27116100  0.27116100  1
  Fe  Fe2  1  0.67111100  0.67111100  0.67111100  1
  Fe  Fe3  1  0.07103900  0.07103900  0.07103900  1
  Fe  Fe4  1  0.12854800  0.12854800  0.12854800  1
  Fe  Fe5  1  0.47132400  0.47132400  0.47132400  1
  Fe  Fe6  1  0.52983500  0.52983500  0.52983500  1
  Fe  Fe7  1  0.87003600  0.87003600  0.87003600  1
  Fe  Fe8  1  0.57097600  0.57097600  0.57097600  1
  Fe  Fe9  1  0.92923900  0.92923900  0.92923900  1
  Fe  Fe10  1  0.97111200  0.97111200  0.97111200  1
  Fe  Fe11  1  0.32929400  0.32929400  0.32929400  1
  Fe  Fe12  1  0.37103900  0.37103900  0.37103900  1
  Fe  Fe13  1  0.72939900  0.72939900  0.72939900  1
  Fe  Fe14  1  0.77082700  0.77082700  0.77082700  1
  O  O0  1  0.87234500  0.24083400  0.53693700  1
  O  O1  1  0.64281700  0.93508400  0.27247300  1
  O  O2  1  0.27247300  0.64281700  0.93508400  1
  O  O3  1  0.64390500  0.35151800  0.95330100  1
  O  O4  1  0.04255500  0.33554400  0.67242800  1
  O  O5  1  0.67242800  0.04255500  0.33554400  1
  O  O6  1  0.04482500  0.75095200  0.35311400  1
  O  O7  1  0.73641200  0.07319400  0.44107400  1
  O  O8  1  0.44107400  0.73641200  0.07319400  1
  O  O9  1  0.07319400  0.44107400  0.73641200  1
  O  O10  1  0.75048900  0.44772900  0.15055100  1
  O  O11  1  0.44772900  0.15055100  0.75048900  1
  O  O12  1  0.15412400  0.44851800  0.84868300  1
  O  O13  1  0.84868300  0.15412400  0.44851800  1
  O  O14  1  0.44851800  0.84868300  0.15412400  1
  O  O15  1  0.52758000  0.15960800  0.86238800  1
  O  O16  1  0.15960800  0.86238800  0.52758000  1
  O  O17  1  0.86238800  0.52758000  0.15960800  1
  O  O18  1  0.53693700  0.87234500  0.24083400  1
  O  O19  1  0.24083400  0.53693700  0.87234500  1
  O  O20  1  0.95235700  0.55309300  0.24311400  1
  O  O21  1  0.55309300  0.24311400  0.95235700  1
  O  O22  1  0.24311400  0.95235700  0.55309300  1
  O  O23  1  0.93508400  0.27247300  0.64281700  1
  O  O24  1  0.35151800  0.95330100  0.64390500  1
  O  O25  1  0.95330100  0.64390500  0.35151800  1
  O  O26  1  0.33554400  0.67242800  0.04255500  1
  O  O27  1  0.75095200  0.35311400  0.04482500  1
  O  O28  1  0.35311400  0.04482500  0.75095200  1
  O  O29  1  0.15055100  0.75048900  0.44772900  1
loop_
_geom_bond_atom_site_label_1
_geom_bond_atom_site_label_2
_geom_bond_distance
_geom_bond_site_symmetry_2
Fe0 O13 1.996532 1_565
Fe0 O12 1.996532 1_655
Fe0 O14 1.996532 1_556
Fe0 O17 2.185154 1_556
Fe0 O15 2.185154 1_565
Fe0 O16 2.185154 1_655
Fe1 O23 2.010817 1_455
Fe1 O1 2.010817 1_545
Fe1 O2 2.010818 1_554
Fe1 O21 2.160666 1_554
Fe1 O20 2.160666 1_455
Fe1 O22 2.160666 1_545
Fe2 O26 2.012184 1_556
Fe2 O4 2.012184 1_655
Fe2 O5 2.012184 1_565
Fe2 O25 2.157497 1_555
Fe2 O24 2.157497 1_555
Fe2 O3 2.157498 1_555
Fe3 O7 2.010398 1_455
Fe3 O8 2.010398 1_545
Fe3 O9 2.010399 1_554
Fe3 O28 2.151936 1_554
Fe3 O27 2.151936 1_455
Fe3 O6 2.151936 1_545
Fe4 O11 1.991591 1_554
Fe4 O10 1.991591 1_455
Fe4 O29 1.991591 1_545
Fe4 O13 2.171369 1_455
Fe4 O14 2.171369 1_545
Fe4 O12 2.171369 1_554
Fe5 O12 1.990585 1_555
Fe5 O13 1.990585 1_555
Fe5 O14 1.990585 1_555
Fe5 O10 2.163674 1_555
Fe5 O29 2.163674 1_555
Fe5 O11 2.163674 1_555
Fe6 O17 2.030787 1_555
Fe6 O16 2.030787 1_555
Fe6 O15 2.030787 1_555
Fe6 O19 2.151135 1_555
Fe6 O0 2.151135 1_555
Fe6 O18 2.151136 1_555
Fe7 O18 2.034176 1_556
Fe7 O19 2.034176 1_655
Fe7 O0 2.034176 1_565
Fe7 O16 2.150861 1_655
Fe7 O15 2.150861 1_565
Fe7 O17 2.150861 1_556
Fe8 O21 2.005790 1_555
Fe8 O22 2.005790 1_555
Fe8 O20 2.005790 1_555
Fe8 O18 2.185155 1_555
Fe8 O0 2.185155 1_555
Fe8 O19 2.185155 1_555
Fe9 O22 1.999269 1_655
Fe9 O21 1.999269 1_565
Fe9 O20 1.999270 1_556
Fe9 O1 2.179449 1_556
Fe9 O2 2.179449 1_655
Fe9 O23 2.179450 1_565
Fe10 O25 1.999556 1_556
Fe10 O3 1.999556 1_565
Fe10 O24 1.999556 1_655
Fe10 O23 2.184217 1_565
Fe10 O2 2.184217 1_655
Fe10 O1 2.184218 1_556
Fe11 O3 2.000334 1_554
Fe11 O25 2.000334 1_455
Fe11 O24 2.000334 1_545
Fe11 O4 2.179620 1_555
Fe11 O5 2.179620 1_555
Fe11 O26 2.179621 1_555
Fe12 O28 1.999894 1_555
Fe12 O6 1.999894 1_555
Fe12 O27 1.999894 1_555
Fe12 O26 2.178762 1_555
Fe12 O5 2.178762 1_555
Fe12 O4 2.178762 1_555
Fe13 O6 2.004213 1_655
Fe13 O28 2.004213 1_565
Fe13 O27 2.004213 1_556
Fe13 O8 2.181277 1_556
Fe13 O9 2.181277 1_655
Fe13 O7 2.181278 1_565
Fe14 O10 1.998043 1_556
Fe14 O11 1.998043 1_565
Fe14 O29 1.998043 1_655
Fe14 O7 2.170701 1_565
Fe14 O9 2.170701 1_655
Fe14 O8 2.170701 1_556
O0 Ti0 1.926893 1_655
O1 Ti1 1.923461 1_555
O2 Ti1 1.923461 1_555
O3 Ti1 2.086485 1_555
O4 Ti2 1.923717 1_556
O5 Ti2 1.923718 1_655
O6 Ti2 2.088556 1_565
O7 Ti3 1.924590 1_555
O8 Ti3 1.924590 1_555
O9 Ti3 1.924590 1_555
O10 Ti3 2.078426 1_555
O11 Ti3 2.078425 1_555
O12 Ti4 2.081080 1_556
O13 Ti4 2.081081 1_655
O14 Ti4 2.081081 1_565
O15 Ti4 1.928747 1_556
O16 Ti4 1.928747 1_565
O17 Ti4 1.928747 1_655
O18 Ti0 1.926893 1_565
O19 Ti0 1.926893 1_556
O20 Ti0 2.086921 1_655
O21 Ti0 2.086921 1_556
O22 Ti0 2.086921 1_565
O23 Ti1 1.923461 1_555
O24 Ti1 2.086485 1_555
O25 Ti1 2.086485 1_555
O26 Ti2 1.923717 1_565
O27 Ti2 2.088556 1_655
O28 Ti2 2.088556 1_556
O29 Ti3 2.078426 1_555
