# generated using pymatgen
data_Ba18Pr9Sn4Sb5O54
_symmetry_space_group_name_H-M   'P 1'
_cell_length_a   6.17392474
_cell_length_b   6.17392474
_cell_length_c   45.61158486
_cell_angle_alpha   89.76797772
_cell_angle_beta   89.76797772
_cell_angle_gamma   59.84229449
_symmetry_Int_Tables_number   1
_chemical_formula_structural   Ba18Pr9Sn4Sb5O54
_chemical_formula_sum   'Ba18 Pr9 Sn4 Sb5 O54'
_cell_volume   1503.25052129
_cell_formula_units_Z   1
loop_
 _symmetry_equiv_pos_site_id
 _symmetry_equiv_pos_as_xyz
  1  'x, y, z'
loop_
 _atom_site_type_symbol
 _atom_site_label
 _atom_site_symmetry_multiplicity
 _atom_site_fract_x
 _atom_site_fract_y
 _atom_site_fract_z
 _atom_site_occupancy
  Ba  Ba0  1  0.33675700  0.33675700  0.03020400  1
  Ba  Ba1  1  0.66852700  0.66852700  0.14048500  1
  Ba  Ba2  1  0.99842700  0.99842700  0.24974200  1
  Ba  Ba3  1  0.99982700  0.99982700  0.08540400  1
  Ba  Ba4  1  0.33312300  0.33312300  0.36123500  1
  Ba  Ba5  1  0.33315600  0.33315600  0.19252900  1
  Ba  Ba6  1  0.66645300  0.66645300  0.47245500  1
  Ba  Ba7  1  0.66661100  0.66661100  0.30470800  1
  Ba  Ba8  1  0.00007700  0.00007700  0.58307100  1
  Ba  Ba9  1  0.00011900  0.00011900  0.41628300  1
  Ba  Ba10  1  0.33358400  0.33358400  0.69416100  1
  Ba  Ba11  1  0.33314700  0.33314700  0.52736300  1
  Ba  Ba12  1  0.66702700  0.66702700  0.80394600  1
  Ba  Ba13  1  0.66687300  0.66687300  0.63847300  1
  Ba  Ba14  1  0.00319100  0.00319100  0.91783000  1
  Ba  Ba15  1  0.00028900  0.00028900  0.74820800  1
  Ba  Ba16  1  0.33500400  0.33500400  0.85862000  1
  Ba  Ba17  1  0.66816200  0.66816200  0.97468200  1
  Pr  Pr0  1  0.66717000  0.66717000  0.05783300  1
  Pr  Pr1  1  0.66608000  0.66608000  0.22183100  1
  Pr  Pr2  1  0.99995000  0.99995000  0.33315600  1
  Pr  Pr3  1  0.33333400  0.33333400  0.44436700  1
  Pr  Pr4  1  0.66654300  0.66654300  0.55520800  1
  Pr  Pr5  1  0.33412500  0.33412500  0.77690900  1
  Pr  Pr6  1  0.99990100  0.99990100  0.66524200  1
  Pr  Pr7  1  0.66844500  0.66844500  0.88697500  1
  Pr  Pr8  1  0.33582300  0.33582300  0.94728200  1
  Sn  Sn0  1  0.00027600  0.00027600  0.00281300  1
  Sn  Sn1  1  0.00199100  0.00199100  0.16640100  1
  Sn  Sn2  1  0.66647500  0.66647500  0.72085900  1
  Sn  Sn3  1  0.99918300  0.99918300  0.83220400  1
  Sb  Sb0  1  0.33463400  0.33463400  0.11313100  1
  Sb  Sb1  1  0.33293400  0.33293400  0.27759200  1
  Sb  Sb2  1  0.66663000  0.66663000  0.38873600  1
  Sb  Sb3  1  0.99999000  0.99999000  0.49980200  1
  Sb  Sb4  1  0.33366000  0.33366000  0.61013600  1
  O  O0  1  0.03882600  0.49973800  0.08632400  1
  O  O1  1  0.82274400  0.30001500  0.03143600  1
  O  O2  1  0.49906100  0.49906100  0.09226100  1
  O  O3  1  0.82603000  0.82603000  0.02320500  1
  O  O4  1  0.49973800  0.03882600  0.08632400  1
  O  O5  1  0.30001500  0.82274400  0.03143600  1
  O  O6  1  0.33171100  0.85160600  0.18906500  1
  O  O7  1  0.15785500  0.64351100  0.14093300  1
  O  O8  1  0.85325200  0.85325200  0.19492500  1
  O  O9  1  0.16077900  0.16077900  0.13460300  1
  O  O10  1  0.85160600  0.33171100  0.18906500  1
  O  O11  1  0.64351100  0.15785500  0.14093300  1
  O  O12  1  0.65548900  0.19116600  0.30109200  1
  O  O13  1  0.47504100  0.01018900  0.25471600  1
  O  O14  1  0.19266900  0.19266900  0.30789100  1
  O  O15  1  0.47356800  0.47356800  0.24792600  1
  O  O16  1  0.19116600  0.65548900  0.30109200  1
  O  O17  1  0.01018900  0.47504100  0.25471600  1
  O  O18  1  0.98863800  0.52479300  0.41214900  1
  O  O19  1  0.80862600  0.34431500  0.36567900  1
  O  O20  1  0.52611200  0.52611200  0.41883500  1
  O  O21  1  0.80742200  0.80742200  0.35900600  1
  O  O22  1  0.52479300  0.98863800  0.41214900  1
  O  O23  1  0.34431500  0.80862600  0.36567900  1
  O  O24  1  0.32180300  0.85845600  0.52290500  1
  O  O25  1  0.14190500  0.67767100  0.47645800  1
  O  O26  1  0.85946000  0.85946000  0.52959000  1
  O  O27  1  0.14086000  0.14086000  0.46978700  1
  O  O28  1  0.85845600  0.32180300  0.52290500  1
  O  O29  1  0.67767100  0.14190500  0.47645800  1
  O  O30  1  0.65613300  0.19275800  0.63271800  1
  O  O31  1  0.47419500  0.01149500  0.58679700  1
  O  O32  1  0.19406900  0.19406900  0.63993200  1
  O  O33  1  0.47317900  0.47317900  0.57979200  1
  O  O34  1  0.19275800  0.65613300  0.63271800  1
  O  O35  1  0.01149500  0.47419500  0.58679700  1
  O  O36  1  0.99720700  0.52528900  0.74461700  1
  O  O37  1  0.80943000  0.33458800  0.69741300  1
  O  O38  1  0.52593500  0.52593500  0.75261600  1
  O  O39  1  0.80862600  0.80862600  0.68955700  1
  O  O40  1  0.52528900  0.99720700  0.74461700  1
  O  O41  1  0.33458800  0.80943000  0.69741300  1
  O  O42  1  0.33546900  0.86436100  0.85473900  1
  O  O43  1  0.14049800  0.66550200  0.80973700  1
  O  O44  1  0.86561600  0.86561600  0.86577300  1
  O  O45  1  0.13978700  0.13978700  0.80073200  1
  O  O46  1  0.86436100  0.33546900  0.85473900  1
  O  O47  1  0.66550200  0.14049800  0.80973700  1
  O  O48  1  0.71015000  0.17844900  0.97241300  1
  O  O49  1  0.47389000  0.97070200  0.92200600  1
  O  O50  1  0.17733100  0.17733100  0.98293300  1
  O  O51  1  0.47389200  0.47389200  0.90849500  1
  O  O52  1  0.17844900  0.71015000  0.97241300  1
  O  O53  1  0.97070200  0.47389000  0.92200600  1
loop_
_geom_bond_atom_site_label_1
_geom_bond_atom_site_label_2
_geom_bond_distance
_geom_bond_site_symmetry_2
Ba0 O50 2.755762 1_554
Ba0 O5 2.893906 1_555
Ba0 O1 2.893906 1_555
Ba0 O4 3.011832 1_555
Ba0 O0 3.011832 1_555
Ba0 O3 3.098286 1_545
Ba0 O3 3.098286 1_455
Ba0 O5 3.293529 1_545
Ba0 O1 3.293529 1_455
Ba0 O52 3.305392 1_554
Ba0 O48 3.305392 1_554
Ba0 O2 3.327895 1_555
Ba1 O6 2.851834 1_555
Ba1 O10 2.851834 1_555
Ba1 O2 2.857387 1_555
Ba1 O7 2.946662 1_655
Ba1 O11 2.946662 1_565
Ba1 O9 3.092411 1_565
Ba1 O9 3.092411 1_655
Ba1 O4 3.161758 1_565
Ba1 O0 3.161758 1_655
Ba1 O8 3.181179 1_555
Ba1 O7 3.233181 1_555
Ba1 O11 3.233181 1_555
Ba2 O8 2.949854 1_555
Ba2 O12 2.972453 1_565
Ba2 O16 2.972453 1_655
Ba2 O13 2.989274 1_665
Ba2 O17 2.989274 1_665
Ba2 O15 3.092214 1_655
Ba2 O15 3.092214 1_565
Ba2 O13 3.202618 1_565
Ba2 O17 3.202618 1_655
Ba2 O6 3.288656 1_655
Ba2 O10 3.288656 1_565
Ba2 O14 3.377484 1_665
Ba3 O9 2.835297 1_665
Ba3 O1 2.939118 1_565
Ba3 O5 2.939118 1_655
Ba3 O0 2.973979 1_655
Ba3 O4 2.973979 1_565
Ba3 O2 3.095449 1_655
Ba3 O2 3.095449 1_565
Ba3 O7 3.166161 1_655
Ba3 O11 3.166161 1_565
Ba3 O0 3.214574 1_665
Ba3 O4 3.214574 1_665
Ba3 O3 3.399615 1_555
Ba4 O14 2.865941 1_555
Ba4 O18 2.961439 1_455
Ba4 O22 2.961439 1_545
Ba4 O19 2.978769 1_555
Ba4 O23 2.978769 1_555
Ba4 O21 3.093573 1_455
Ba4 O21 3.093573 1_545
Ba4 O23 3.209643 1_545
Ba4 O19 3.209643 1_455
Ba4 O12 3.236841 1_555
Ba4 O16 3.236841 1_555
Ba4 O20 3.349449 1_555
Ba5 O11 2.877784 1_555
Ba5 O7 2.877784 1_555
Ba5 O15 2.945847 1_555
Ba5 O6 2.982374 1_545
Ba5 O10 2.982374 1_455
Ba5 O8 3.089071 1_545
Ba5 O8 3.089071 1_455
Ba5 O10 3.199663 1_555
Ba5 O6 3.199663 1_555
Ba5 O9 3.229466 1_555
Ba5 O13 3.317834 1_555
Ba5 O17 3.317834 1_555
Ba6 O20 2.876030 1_555
Ba6 O24 2.945513 1_555
Ba6 O28 2.945513 1_555
Ba6 O25 2.977155 1_655
Ba6 O29 2.977155 1_565
Ba6 O27 3.094201 1_655
Ba6 O27 3.094201 1_565
Ba6 O29 3.208752 1_555
Ba6 O25 3.208752 1_555
Ba6 O22 3.242667 1_555
Ba6 O18 3.242667 1_555
Ba6 O26 3.332897 1_555
Ba7 O21 2.905074 1_555
Ba7 O17 2.925697 1_655
Ba7 O13 2.925697 1_565
Ba7 O12 2.975701 1_555
Ba7 O16 2.975701 1_555
Ba7 O14 3.095669 1_655
Ba7 O14 3.095669 1_565
Ba7 O12 3.208198 1_565
Ba7 O16 3.208198 1_655
Ba7 O19 3.268641 1_555
Ba7 O23 3.268641 1_555
Ba7 O15 3.320517 1_555
Ba8 O26 2.872183 1_445
Ba8 O30 2.914951 1_455
Ba8 O34 2.914951 1_545
Ba8 O31 2.968775 1_555
Ba8 O35 2.968775 1_555
Ba8 O33 3.096704 1_545
Ba8 O33 3.096704 1_455
Ba8 O31 3.215733 1_455
Ba8 O35 3.215733 1_545
Ba8 O28 3.235924 1_455
Ba8 O24 3.235924 1_545
Ba8 O32 3.329699 1_555
Ba9 O27 2.873777 1_555
Ba9 O23 2.949415 1_545
Ba9 O19 2.949415 1_455
Ba9 O22 2.977618 1_445
Ba9 O18 2.977618 1_445
Ba9 O20 3.094378 1_455
Ba9 O20 3.094378 1_545
Ba9 O22 3.209063 1_545
Ba9 O18 3.209063 1_455
Ba9 O25 3.238353 1_545
Ba9 O29 3.238353 1_455
Ba9 O21 3.335918 1_445
Ba10 O32 2.895151 1_555
Ba10 O36 2.919552 1_455
Ba10 O40 2.919552 1_545
Ba10 O37 2.945295 1_555
Ba10 O41 2.945295 1_555
Ba10 O39 3.098372 1_545
Ba10 O39 3.098372 1_455
Ba10 O41 3.235779 1_545
Ba10 O37 3.235779 1_455
Ba10 O30 3.287938 1_555
Ba10 O34 3.287938 1_555
Ba10 O38 3.376043 1_555
Ba11 O33 2.828078 1_555
Ba11 O29 2.961132 1_555
Ba11 O25 2.961132 1_555
Ba11 O28 2.974301 1_455
Ba11 O24 2.974301 1_545
Ba11 O26 3.094160 1_455
Ba11 O26 3.094160 1_545
Ba11 O31 3.207611 1_555
Ba11 O35 3.207611 1_555
Ba11 O24 3.214228 1_555
Ba11 O28 3.214228 1_555
Ba11 O27 3.343931 1_555
Ba12 O38 2.791857 1_555
Ba12 O42 2.918998 1_555
Ba12 O46 2.918998 1_555
Ba12 O43 2.931448 1_655
Ba12 O47 2.931448 1_565
Ba12 O45 3.096905 1_565
Ba12 O45 3.096905 1_655
Ba12 O36 3.228985 1_555
Ba12 O40 3.228985 1_555
Ba12 O47 3.265121 1_555
Ba12 O43 3.265121 1_555
Ba13 O39 2.786299 1_555
Ba13 O34 2.973700 1_555
Ba13 O30 2.973700 1_555
Ba13 O35 2.989422 1_655
Ba13 O31 2.989422 1_565
Ba13 O32 3.094069 1_565
Ba13 O32 3.094069 1_655
Ba13 O37 3.220373 1_555
Ba13 O41 3.220373 1_555
Ba13 O34 3.223627 1_655
Ba13 O30 3.223627 1_565
Ba13 O33 3.393034 1_555
Ba14 O44 2.799682 1_445
Ba14 O49 2.817834 1_545
Ba14 O53 2.817834 1_455
Ba14 O52 2.942894 1_545
Ba14 O48 2.942894 1_455
Ba14 O51 3.124868 1_455
Ba14 O51 3.124868 1_545
Ba14 O53 3.377678 1_445
Ba14 O49 3.377678 1_445
Ba14 O42 3.380773 1_545
Ba14 O46 3.380773 1_455
Ba15 O45 2.828710 1_555
Ba15 O37 2.925039 1_455
Ba15 O41 2.925039 1_545
Ba15 O36 2.947439 1_445
Ba15 O40 2.947439 1_445
Ba15 O38 3.098421 1_455
Ba15 O38 3.098421 1_545
Ba15 O40 3.235280 1_545
Ba15 O36 3.235280 1_455
Ba15 O43 3.327556 1_545
Ba15 O47 3.327556 1_455
Ba15 O39 3.378630 1_445
Ba16 O51 2.723234 1_555
Ba16 O47 2.845995 1_555
Ba16 O43 2.845995 1_555
Ba16 O42 2.910378 1_545
Ba16 O46 2.910378 1_455
Ba16 O44 3.114276 1_455
Ba16 O44 3.114276 1_545
Ba16 O46 3.273726 1_555
Ba16 O42 3.273726 1_555
Ba16 O45 3.374597 1_555
Ba16 O53 3.490319 1_455
Ba16 O49 3.490319 1_545
Ba17 O3 2.790643 1_556
Ba17 O48 2.904132 1_555
Ba17 O52 2.904132 1_555
Ba17 O49 2.904503 1_555
Ba17 O53 2.904503 1_555
Ba17 O50 3.104118 1_655
Ba17 O50 3.104118 1_565
Ba17 O1 3.251281 1_556
Ba17 O5 3.251281 1_556
Ba17 O48 3.289548 1_565
Ba17 O52 3.289548 1_655
O0 Sb0 2.001734 1_555
O0 Pr0 2.377484 1_455
O1 Sn0 2.073732 1_655
O1 Pr0 2.309900 1_555
O2 Sb0 1.996759 1_555
O2 Pr0 2.382495 1_555
O3 Sn0 2.079983 1_665
O3 Pr0 2.315159 1_555
O4 Sb0 2.001734 1_555
O4 Pr0 2.377484 1_545
O5 Sn0 2.073732 1_565
O5 Pr0 2.309900 1_555
O6 Sn1 2.045685 1_565
O6 Pr1 2.332907 1_555
O7 Sb0 2.086381 1_555
O7 Sn1 2.246249 1_565
O8 Sn1 2.051140 1_665
O8 Pr1 2.344271 1_555
O9 Sb0 2.098567 1_555
O9 Sn1 2.228971 1_555
O10 Sn1 2.045685 1_655
O10 Pr1 2.332907 1_555
O11 Sb0 2.086381 1_555
O11 Sn1 2.246249 1_655
O12 Sb1 2.034490 1_555
O12 Pr2 2.354554 1_545
O13 Sb1 2.020347 1_555
O13 Pr1 2.376600 1_545
O14 Sb1 2.035648 1_555
O14 Pr2 2.357883 1_445
O15 Sb1 2.019188 1_555
O15 Pr1 2.374544 1_555
O16 Sb1 2.034490 1_555
O16 Pr2 2.354554 1_455
O17 Sb1 2.020347 1_555
O17 Pr1 2.376600 1_455
O18 Sb2 2.029782 1_555
O18 Pr3 2.359950 1_655
O19 Sb2 2.022645 1_555
O19 Pr2 2.367294 1_545
O20 Sb2 2.031493 1_555
O20 Pr3 2.364358 1_555
O21 Sb2 2.022390 1_555
O21 Pr2 2.369156 1_555
O22 Sb2 2.029782 1_555
O22 Pr3 2.359950 1_565
O23 Sb2 2.022645 1_555
O23 Pr2 2.367294 1_455
O24 Sb3 2.021542 1_455
O24 Pr4 2.362678 1_555
O25 Sb3 2.029561 1_455
O25 Pr3 2.354881 1_555
O26 Sb3 2.022078 1_555
O26 Pr4 2.367571 1_555
O27 Sb3 2.031701 1_445
O27 Pr3 2.359033 1_555
O28 Sb3 2.021542 1_545
O28 Pr4 2.362678 1_555
O29 Sb3 2.029561 1_545
O29 Pr3 2.354881 1_555
O30 Sb4 2.012610 1_555
O30 Pr6 2.365383 1_545
O31 Sb4 2.029266 1_555
O31 Pr4 2.343441 1_545
O32 Sb4 2.014891 1_555
O32 Pr6 2.372414 1_445
O33 Sb4 2.031184 1_555
O33 Pr4 2.349050 1_555
O34 Sb4 2.012610 1_555
O34 Pr6 2.365383 1_455
O35 Sb4 2.029266 1_555
O35 Pr4 2.343441 1_455
O36 Sn2 2.079763 1_555
O36 Pr5 2.330928 1_655
O37 Sn2 2.077067 1_555
O37 Pr6 2.318376 1_545
O38 Sn2 2.083259 1_555
O38 Pr5 2.328158 1_555
O39 Sn2 2.081465 1_555
O39 Pr6 2.323598 1_555
O40 Sn2 2.079763 1_555
O40 Pr5 2.330928 1_565
O41 Sn2 2.077067 1_555
O41 Pr6 2.318376 1_455
O42 Sn3 2.081803 1_455
O42 Pr7 2.315765 1_555
O43 Sn3 2.063814 1_455
O43 Pr5 2.325877 1_555
O44 Sn3 2.089789 1_555
O44 Pr7 2.317064 1_555
O45 Sn3 2.074780 1_445
O45 Pr5 2.342053 1_555
O46 Sn3 2.081803 1_545
O46 Pr7 2.315765 1_555
O47 Sn3 2.063814 1_545
O47 Pr5 2.325877 1_555
O48 Sn0 2.090249 1_656
O48 Pr8 2.314143 1_555
O49 Pr8 2.284663 1_565
O49 Pr7 2.287929 1_555
O50 Sn0 2.096809 1_556
O50 Pr8 2.344243 1_555
O51 Pr7 2.297730 1_555
O51 Pr8 2.299734 1_555
O52 Sn0 2.090249 1_566
O52 Pr8 2.314143 1_555
O53 Pr8 2.284663 1_655
O53 Pr7 2.287929 1_555
