# generated using pymatgen
data_K3ZnH5
_symmetry_space_group_name_H-M   'P 1'
_cell_length_a   7.66491736
_cell_length_b   7.66491736
_cell_length_c   7.66491736
_cell_angle_alpha   121.69723690
_cell_angle_beta   121.69723690
_cell_angle_gamma   87.08460774
_symmetry_Int_Tables_number   1
_chemical_formula_structural   K3ZnH5
_chemical_formula_sum   'K6 Zn2 H10'
_cell_volume   309.82027065
_cell_formula_units_Z   2
loop_
 _symmetry_equiv_pos_site_id
 _symmetry_equiv_pos_as_xyz
  1  'x, y, z'
loop_
 _atom_site_type_symbol
 _atom_site_label
 _atom_site_symmetry_multiplicity
 _atom_site_fract_x
 _atom_site_fract_y
 _atom_site_fract_z
 _atom_site_occupancy
  K  K0  1  0.17971025  0.67971025  0.85942151  1
  K  K1  1  0.82028975  0.32028975  0.14057849  1
  K  K2  1  0.67971025  0.82028975  0.50000000  1
  K  K3  1  0.32028975  0.17971025  0.50000000  1
  K  K4  1  0.25000000  0.25000000  -0.00000000  1
  K  K5  1  0.75000000  0.75000000  -0.00000000  1
  Zn  Zn0  1  0.25000000  0.75000000  0.50000000  1
  Zn  Zn1  1  0.75000000  0.25000000  0.50000000  1
  H  H0  1  0.46309019  0.96309019  0.74981643  1
  H  H1  1  0.21327275  0.71327275  0.25018357  1
  H  H2  1  0.96309019  0.21327275  0.50000000  1
  H  H3  1  0.71327275  0.46309019  0.50000000  1
  H  H4  1  0.53690981  0.03690981  0.25018357  1
  H  H5  1  0.78672725  0.28672725  0.74981643  1
  H  H6  1  0.03690981  0.78672725  0.50000000  1
  H  H7  1  0.28672725  0.53690981  0.50000000  1
  H  H8  1  0.50000000  0.50000000  -0.00000000  1
  H  H9  1  0.00000000  0.00000000  -0.00000000  1
loop_
_geom_bond_atom_site_label_1
_geom_bond_atom_site_label_2
_geom_bond_distance
_geom_bond_site_symmetry_2
H0 Zn0 1.643230 1_555
H0 K1 2.736906 1_566
H0 K2 2.928331 1_555
H0 K3 2.928331 1_565
H1 Zn0 1.643223 1_555
H1 K0 2.736906 1_554
H1 K2 2.928338 1_555
H1 K3 2.928338 1_565
H2 Zn1 1.643231 1_555
H2 K3 2.736906 1_655
H2 K0 2.928337 1_655
H2 K1 2.928344 1_555
H3 Zn1 1.643231 1_555
H3 K2 2.736906 1_555
H3 K0 2.928337 1_655
H3 K1 2.928344 1_555
H4 Zn1 1.643230 1_555
H4 K0 2.736906 1_544
H4 K2 2.928331 1_545
H4 K3 2.928331 1_555
H5 Zn1 1.643223 1_555
H5 K1 2.736906 1_556
H5 K2 2.928338 1_545
H5 K3 2.928338 1_555
H6 Zn0 1.643231 1_555
H6 K2 2.736906 1_455
H6 K1 2.928337 1_455
H6 K0 2.928344 1_555
H7 Zn0 1.643231 1_555
H7 K3 2.736906 1_555
H7 K1 2.928337 1_455
H7 K0 2.928344 1_555
H8 K0 2.742508 1_554
H8 K1 2.742508 1_555
H8 K3 2.742510 1_554
H8 K2 2.742510 1_555
H8 K5 2.778019 1_555
H8 K4 2.778019 1_555
H9 K0 2.742508 1_544
H9 K1 2.742508 1_455
H9 K3 2.742510 1_555
H9 K2 2.742510 1_444
H9 K4 2.778019 1_555
H9 K5 2.778019 1_445
