# generated using pymatgen
data_Ni5Ge2P3
_symmetry_space_group_name_H-M   'P 1'
_cell_length_a   4.99446300
_cell_length_b   5.97891200
_cell_length_c   34.89382500
_cell_angle_alpha   90.00000000
_cell_angle_beta   90.00000000
_cell_angle_gamma   90.00000000
_symmetry_Int_Tables_number   1
_chemical_formula_structural   Ni5Ge2P3
_chemical_formula_sum   'Ni40 Ge16 P24'
_cell_volume   1041.98037679
_cell_formula_units_Z   8
loop_
 _symmetry_equiv_pos_site_id
 _symmetry_equiv_pos_as_xyz
  1  'x, y, z'
loop_
 _atom_site_type_symbol
 _atom_site_label
 _atom_site_symmetry_multiplicity
 _atom_site_fract_x
 _atom_site_fract_y
 _atom_site_fract_z
 _atom_site_occupancy
  Ni  Ni0  1  0.51563400  0.79146800  0.21407900  1
  Ni  Ni1  1  0.98884900  0.79665700  0.02450200  1
  Ni  Ni2  1  0.98884900  0.29665700  0.47549800  1
  Ni  Ni3  1  0.51115100  0.79665700  0.52450200  1
  Ni  Ni4  1  0.49659000  0.79962000  0.82614700  1
  Ni  Ni5  1  0.01563400  0.70853200  0.21407900  1
  Ni  Ni6  1  0.99766000  0.21161800  0.06494500  1
  Ni  Ni7  1  0.50234000  0.21161800  0.56494500  1
  Ni  Ni8  1  0.50341000  0.20038000  0.17385300  1
  Ni  Ni9  1  0.47274600  0.70288100  0.62750900  1
  Ni  Ni10  1  0.47274600  0.20288100  0.87249100  1
  Ni  Ni11  1  0.49659000  0.29962000  0.67385300  1
  Ni  Ni12  1  0.01115100  0.20334300  0.97549800  1
  Ni  Ni13  1  0.00341000  0.29962000  0.17385300  1
  Ni  Ni14  1  0.48436600  0.20853200  0.78592100  1
  Ni  Ni15  1  0.49766000  0.78838200  0.43505500  1
  Ni  Ni16  1  0.99766000  0.71161800  0.43505500  1
  Ni  Ni17  1  0.00341000  0.79962000  0.32614700  1
  Ni  Ni18  1  0.99659000  0.20038000  0.67385300  1
  Ni  Ni19  1  0.50234000  0.71161800  0.93505500  1
  Ni  Ni20  1  0.02725400  0.70288100  0.12750900  1
  Ni  Ni21  1  0.52725400  0.79711900  0.12750900  1
  Ni  Ni22  1  0.48436600  0.70853200  0.71407900  1
  Ni  Ni23  1  0.02725400  0.20288100  0.37249100  1
  Ni  Ni24  1  0.00234000  0.78838200  0.93505500  1
  Ni  Ni25  1  0.01115100  0.70334300  0.52450200  1
  Ni  Ni26  1  0.98436600  0.79146800  0.71407900  1
  Ni  Ni27  1  0.48884900  0.20334300  0.47549800  1
  Ni  Ni28  1  0.99659000  0.70038000  0.82614700  1
  Ni  Ni29  1  0.01563400  0.20853200  0.28592100  1
  Ni  Ni30  1  0.51563400  0.29146800  0.28592100  1
  Ni  Ni31  1  0.97274600  0.79711900  0.62750900  1
  Ni  Ni32  1  0.98436600  0.29146800  0.78592100  1
  Ni  Ni33  1  0.49766000  0.28838200  0.06494500  1
  Ni  Ni34  1  0.48884900  0.70334300  0.02450200  1
  Ni  Ni35  1  0.00234000  0.28838200  0.56494500  1
  Ni  Ni36  1  0.52725400  0.29711900  0.37249100  1
  Ni  Ni37  1  0.50341000  0.70038000  0.32614700  1
  Ni  Ni38  1  0.97274600  0.29711900  0.87249100  1
  Ni  Ni39  1  0.51115100  0.29665700  0.97549800  1
  Ge  Ge0  1  0.71897500  0.40654100  0.22787000  1
  Ge  Ge1  1  0.71897500  0.90654100  0.27213000  1
  Ge  Ge2  1  0.70919900  0.91272400  0.37834200  1
  Ge  Ge3  1  0.21897500  0.59345900  0.27213000  1
  Ge  Ge4  1  0.78102500  0.40654100  0.72787000  1
  Ge  Ge5  1  0.79080100  0.41272400  0.62165800  1
  Ge  Ge6  1  0.70919900  0.41272400  0.12165800  1
  Ge  Ge7  1  0.20919900  0.08727600  0.12165800  1
  Ge  Ge8  1  0.78102500  0.90654100  0.77213000  1
  Ge  Ge9  1  0.28102500  0.09345900  0.72787000  1
  Ge  Ge10  1  0.29080100  0.08727600  0.62165800  1
  Ge  Ge11  1  0.20919900  0.58727600  0.37834200  1
  Ge  Ge12  1  0.21897500  0.09345900  0.22787000  1
  Ge  Ge13  1  0.29080100  0.58727600  0.87834200  1
  Ge  Ge14  1  0.79080100  0.91272400  0.87834200  1
  Ge  Ge15  1  0.28102500  0.59345900  0.77213000  1
  P  P0  1  0.18097100  0.56333900  0.67200300  1
  P  P1  1  0.31015800  0.56662000  0.47778600  1
  P  P2  1  0.18097100  0.06333900  0.82799700  1
  P  P3  1  0.20366200  0.57047500  0.07292600  1
  P  P4  1  0.68097100  0.93666100  0.67200300  1
  P  P5  1  0.68984200  0.43338000  0.52221400  1
  P  P6  1  0.70366200  0.92952500  0.07292600  1
  P  P7  1  0.68984200  0.93338000  0.97778600  1
  P  P8  1  0.29633800  0.57047500  0.57292600  1
  P  P9  1  0.68097100  0.43666100  0.82799700  1
  P  P10  1  0.79633800  0.42952500  0.92707400  1
  P  P11  1  0.70366200  0.42952500  0.42707400  1
  P  P12  1  0.18984200  0.56662000  0.97778600  1
  P  P13  1  0.31015800  0.06662000  0.02221400  1
  P  P14  1  0.29633800  0.07047500  0.92707400  1
  P  P15  1  0.81902900  0.43666100  0.32799700  1
  P  P16  1  0.31902900  0.06333900  0.32799700  1
  P  P17  1  0.20366200  0.07047500  0.42707400  1
  P  P18  1  0.81015800  0.93338000  0.47778600  1
  P  P19  1  0.81902900  0.93666100  0.17200300  1
  P  P20  1  0.81015800  0.43338000  0.02221400  1
  P  P21  1  0.31902900  0.56333900  0.17200300  1
  P  P22  1  0.79633800  0.92952500  0.57292600  1
  P  P23  1  0.18984200  0.06662000  0.52221400  1
loop_
_geom_bond_atom_site_label_1
_geom_bond_atom_site_label_2
_geom_bond_distance
_geom_bond_site_symmetry_2
Ni0 P21 2.231633 1_555
Ni0 P19 2.281513 1_555
Ni1 P13 2.277481 1_665
Ni1 P6 2.348394 1_555
Ni1 P20 2.349566 1_555
Ni1 P7 2.357041 1_554
Ni1 P12 2.357242 1_654
Ni1 P3 2.415558 1_655
Ni2 P1 2.277481 1_655
Ni2 P11 2.348394 1_555
Ni2 P18 2.349566 1_545
Ni2 P5 2.357041 1_555
Ni2 P23 2.357242 1_655
Ni2 P17 2.415558 1_655
Ni3 P23 2.277481 1_565
Ni3 P22 2.348394 1_555
Ni3 P5 2.349566 1_555
Ni3 P18 2.357041 1_555
Ni3 P1 2.357242 1_555
Ni3 P8 2.415558 1_555
Ni4 P2 2.230513 1_565
Ni4 P9 2.358289 1_555
Ni5 P19 2.231633 1_455
Ni5 P21 2.281513 1_555
Ni6 P20 2.204133 1_555
Ni6 P6 2.253507 1_545
Ni6 P13 2.326105 1_655
Ni6 P3 2.395750 1_655
Ni7 P5 2.204133 1_555
Ni7 P22 2.253507 1_545
Ni7 P23 2.326105 1_555
Ni7 P8 2.395750 1_555
Ni8 P19 2.230513 1_545
Ni8 P21 2.358289 1_555
Ni9 P8 2.242880 1_555
Ni9 P0 2.286949 1_555
Ni9 P4 2.333604 1_555
Ni10 P14 2.242880 1_555
Ni10 P2 2.286949 1_555
Ni10 P9 2.333604 1_555
Ni11 P0 2.230513 1_555
Ni11 P4 2.358289 1_545
Ni12 P7 2.277481 1_445
Ni12 P14 2.348394 1_555
Ni12 P12 2.349566 1_555
Ni12 P13 2.357041 1_556
Ni12 P20 2.357242 1_456
Ni12 P10 2.415558 1_455
Ni13 P21 2.230513 1_555
Ni13 P19 2.358289 1_445
Ni14 P9 2.231633 1_555
Ni14 P2 2.281513 1_555
Ni15 P1 2.204133 1_555
Ni15 P17 2.253507 1_565
Ni15 P18 2.326105 1_555
Ni15 P11 2.395750 1_555
Ni16 P18 2.204133 1_555
Ni16 P11 2.253507 1_555
Ni16 P1 2.326105 1_655
Ni16 P17 2.395750 1_665
Ni17 P16 2.230513 1_565
Ni17 P15 2.358289 1_455
Ni18 P4 2.230513 1_545
Ni18 P0 2.358289 1_655
Ni19 P7 2.204133 1_555
Ni19 P10 2.253507 1_555
Ni19 P12 2.326105 1_555
Ni19 P14 2.395750 1_565
Ni20 P3 2.242880 1_555
Ni20 P21 2.286949 1_555
Ni20 P19 2.333604 1_455
Ni21 P6 2.242880 1_555
Ni21 P19 2.286949 1_555
Ni21 P21 2.333604 1_555
Ni22 P4 2.231633 1_555
Ni22 P0 2.281513 1_555
Ni23 P17 2.242880 1_555
Ni23 P16 2.286949 1_555
Ni23 P15 2.333604 1_455
Ni24 P12 2.204133 1_555
Ni24 P14 2.253507 1_565
Ni24 P7 2.326105 1_455
Ni24 P10 2.395750 1_455
Ni25 P5 2.277481 1_455
Ni25 P8 2.348394 1_555
Ni25 P23 2.349566 1_565
Ni25 P1 2.357041 1_555
Ni25 P18 2.357242 1_455
Ni25 P22 2.415558 1_455
Ni26 P0 2.231633 1_655
Ni26 P4 2.281513 1_555
Ni27 P18 2.277481 1_545
Ni27 P17 2.348394 1_555
Ni27 P1 2.349566 1_555
Ni27 P23 2.357041 1_555
Ni27 P5 2.357242 1_555
Ni27 P11 2.415558 1_555
Ni28 P9 2.230513 1_555
Ni28 P2 2.358289 1_665
Ni29 P15 2.231633 1_455
Ni29 P16 2.281513 1_555
Ni30 P16 2.231633 1_555
Ni30 P15 2.281513 1_555
Ni31 P22 2.242880 1_555
Ni31 P4 2.286949 1_555
Ni31 P0 2.333604 1_655
Ni32 P2 2.231633 1_655
Ni32 P9 2.281513 1_555
Ni33 P13 2.204133 1_555
Ni33 P3 2.253507 1_555
Ni33 P20 2.326105 1_555
Ni33 P6 2.395750 1_545
Ni34 P20 2.277481 1_555
Ni34 P3 2.348394 1_555
Ni34 P13 2.349566 1_565
Ni34 P12 2.357041 1_554
Ni34 P7 2.357242 1_554
Ni34 P6 2.415558 1_555
Ni35 P23 2.204133 1_555
Ni35 P8 2.253507 1_555
Ni35 P5 2.326105 1_455
Ni35 P22 2.395750 1_445
Ni36 P11 2.242880 1_555
Ni36 P15 2.286949 1_555
Ni36 P16 2.333604 1_555
Ni37 P15 2.230513 1_555
Ni37 P16 2.358289 1_565
Ni38 P10 2.242880 1_555
Ni38 P9 2.286949 1_555
Ni38 P2 2.333604 1_655
Ni39 P12 2.277481 1_555
Ni39 P10 2.348394 1_555
Ni39 P7 2.349566 1_545
Ni39 P20 2.357041 1_556
Ni39 P13 2.357242 1_556
Ni39 P14 2.415558 1_555
Ge0 Ni30 2.368101 1_555
Ge0 Ni5 2.384739 1_655
Ge0 Ni13 2.445295 1_655
Ge0 Ni8 2.496233 1_555
Ge0 Ni0 2.561176 1_555
Ge0 Ni29 2.774888 1_655
Ge1 Ni0 2.368101 1_555
Ge1 Ni29 2.384739 1_665
Ge1 Ni17 2.445295 1_655
Ge1 Ni37 2.496233 1_555
Ge1 Ni30 2.561176 1_565
Ge1 Ni5 2.774888 1_655
Ge2 Ni23 2.361074 1_665
Ge2 Ni15 2.363283 1_555
Ge2 Ni17 2.435895 1_655
Ge2 Ni37 2.446488 1_555
Ge2 Ni36 2.479812 1_565
Ge2 Ni16 2.727191 1_555
Ge2 P16 2.773881 1_565
Ge3 Ni5 2.368101 1_555
Ge3 Ni30 2.384739 1_555
Ge3 Ni37 2.445295 1_555
Ge3 Ni17 2.496233 1_555
Ge3 Ni29 2.561176 1_555
Ge3 Ni0 2.774888 1_555
Ge4 Ni32 2.368101 1_555
Ge4 Ni22 2.384739 1_555
Ge4 Ni11 2.445295 1_555
Ge4 Ni18 2.496233 1_555
Ge4 Ni26 2.561176 1_555
Ge4 Ni14 2.774888 1_555
Ge5 Ni9 2.361074 1_555
Ge5 Ni35 2.363283 1_655
Ge5 Ni11 2.435895 1_555
Ge5 Ni18 2.446488 1_555
Ge5 Ni31 2.479812 1_555
Ge5 Ni7 2.727191 1_555
Ge5 P0 2.773881 1_655
Ge6 Ni20 2.361074 1_655
Ge6 Ni33 2.363283 1_555
Ge6 Ni13 2.435895 1_655
Ge6 Ni8 2.446488 1_555
Ge6 Ni21 2.479812 1_555
Ge6 Ni6 2.727191 1_555
Ge6 P21 2.773881 1_555
Ge7 Ni21 2.361074 1_545
Ge7 Ni6 2.363283 1_455
Ge7 Ni8 2.435895 1_555
Ge7 Ni13 2.446488 1_555
Ge7 Ni20 2.479812 1_545
Ge7 Ni33 2.727191 1_555
Ge7 P19 2.773881 1_445
Ge8 Ni26 2.368101 1_555
Ge8 Ni14 2.384739 1_565
Ge8 Ni4 2.445295 1_555
Ge8 Ni28 2.496233 1_555
Ge8 Ni32 2.561176 1_565
Ge8 Ni22 2.774888 1_555
Ge9 Ni14 2.368101 1_555
Ge9 Ni26 2.384739 1_445
Ge9 Ni18 2.445295 1_455
Ge9 Ni11 2.496233 1_555
Ge9 Ni22 2.561176 1_545
Ge9 Ni32 2.774888 1_455
Ge10 Ni31 2.361074 1_445
Ge10 Ni7 2.363283 1_555
Ge10 Ni18 2.435895 1_455
Ge10 Ni11 2.446488 1_555
Ge10 Ni9 2.479812 1_545
Ge10 Ni35 2.727191 1_555
Ge10 P4 2.773881 1_545
Ge11 Ni36 2.361074 1_555
Ge11 Ni16 2.363283 1_455
Ge11 Ni37 2.435895 1_555
Ge11 Ni17 2.446488 1_555
Ge11 Ni23 2.479812 1_555
Ge11 Ni15 2.727191 1_555
Ge11 P15 2.773881 1_455
Ge12 Ni29 2.368101 1_555
Ge12 Ni0 2.384739 1_545
Ge12 Ni8 2.445295 1_555
Ge12 Ni13 2.496233 1_555
Ge12 Ni5 2.561176 1_545
Ge12 Ni30 2.774888 1_555
Ge13 Ni38 2.361074 1_455
Ge13 Ni19 2.363283 1_555
Ge13 Ni28 2.435895 1_455
Ge13 Ni4 2.446488 1_555
Ge13 Ni10 2.479812 1_555
Ge13 Ni24 2.727191 1_555
Ge13 P9 2.773881 1_555
Ge14 Ni10 2.361074 1_565
Ge14 Ni24 2.363283 1_655
Ge14 Ni4 2.435895 1_555
Ge14 Ni28 2.446488 1_555
Ge14 Ni38 2.479812 1_565
Ge14 Ni19 2.727191 1_555
Ge14 P2 2.773881 1_665
Ge15 Ni22 2.368101 1_555
Ge15 Ni32 2.384739 1_455
Ge15 Ni28 2.445295 1_455
Ge15 Ni4 2.496233 1_555
Ge15 Ni14 2.561176 1_555
Ge15 Ni26 2.774888 1_455
