# generated using pymatgen
data_Gd2PbS4
_symmetry_space_group_name_H-M   'P 1'
_cell_length_a   7.42835187
_cell_length_b   7.42835187
_cell_length_c   7.42835187
_cell_angle_alpha   109.32879676
_cell_angle_beta   109.32879676
_cell_angle_gamma   109.75644545
_symmetry_Int_Tables_number   1
_chemical_formula_structural   Gd2PbS4
_chemical_formula_sum   'Gd4 Pb2 S8'
_cell_volume   315.53492414
_cell_formula_units_Z   2
loop_
 _symmetry_equiv_pos_site_id
 _symmetry_equiv_pos_as_xyz
  1  'x, y, z'
loop_
 _atom_site_type_symbol
 _atom_site_label
 _atom_site_symmetry_multiplicity
 _atom_site_fract_x
 _atom_site_fract_y
 _atom_site_fract_z
 _atom_site_occupancy
  Gd  Gd0  1  0.49435700  0.87500000  0.11935700  1
  Gd  Gd1  1  0.75564300  0.37500000  0.88064300  1
  Gd  Gd2  1  0.12500000  0.24435700  0.61935700  1
  Gd  Gd3  1  0.62500000  0.50564300  0.38064300  1
  Pb  Pb0  1  0.25000000  0.75000000  0.50000000  1
  Pb  Pb1  1  0.00000000  0.00000000  0.00000000  1
  S  S0  1  0.39233000  0.13771900  0.40123000  1
  S  S1  1  0.85767000  0.75890000  0.24538900  1
  S  S2  1  0.73648900  0.99110000  0.59877000  1
  S  S3  1  0.38771900  0.14233000  0.90123000  1
  S  S4  1  0.86228100  0.26351100  0.25461100  1
  S  S5  1  0.00890000  0.60767000  0.74538900  1
  S  S6  1  0.24110000  0.48648900  0.09877000  1
  S  S7  1  0.51351100  0.61228100  0.75461100  1
loop_
_geom_bond_atom_site_label_1
_geom_bond_atom_site_label_2
_geom_bond_distance
_geom_bond_site_symmetry_2
Gd0 S6 2.781810 1_555
Gd0 S4 2.781810 1_565
Gd0 S0 2.848268 1_565
Gd0 S7 2.848268 1_554
Gd0 S1 3.056029 1_555
Gd0 S2 3.056029 1_555
Gd0 S5 3.088729 1_554
Gd0 S3 3.088729 1_564
Gd1 S3 2.781810 1_555
Gd1 S5 2.781810 1_655
Gd1 S2 2.848268 1_545
Gd1 S1 2.848268 1_556
Gd1 S7 3.056029 1_555
Gd1 S0 3.056029 1_555
Gd1 S4 3.088729 1_556
Gd1 S6 3.088729 1_656
Gd2 S7 2.781810 1_555
Gd2 S2 2.781810 1_445
Gd2 S3 2.848268 1_555
Gd2 S4 2.848268 1_455
Gd2 S6 3.056029 1_556
Gd2 S5 3.056029 1_555
Gd2 S1 3.088729 1_445
Gd2 S0 3.088729 1_555
Gd3 S0 2.781810 1_555
Gd3 S1 2.781810 1_555
Gd3 S5 2.848268 1_655
Gd3 S6 2.848268 1_555
Gd3 S4 3.056029 1_555
Gd3 S3 3.056029 1_554
Gd3 S7 3.088729 1_555
Gd3 S2 3.088729 1_555
Pb0 S6 2.939258 1_555
Pb0 S1 2.939258 1_455
Pb0 S3 2.939258 1_565
Pb0 S7 2.939258 1_555
Pb0 S2 3.131285 1_555
Pb0 S0 3.131285 1_565
Pb0 S5 3.131285 1_555
Pb0 S4 3.131285 1_455
Pb1 S0 2.939258 1_555
Pb1 S2 2.939258 1_444
Pb1 S5 2.939258 1_544
Pb1 S4 2.939258 1_455
Pb1 S7 3.131285 1_444
Pb1 S3 3.131285 1_554
Pb1 S6 3.131285 1_555
Pb1 S1 3.131285 1_445
