# generated using pymatgen
data_Sr2La14Mg4(Ga4O15)3
_symmetry_space_group_name_H-M   'P 1'
_cell_length_a   5.55728829
_cell_length_b   5.58326724
_cell_length_c   44.84938461
_cell_angle_alpha   60.74150416
_cell_angle_beta   60.72331317
_cell_angle_gamma   60.49893941
_symmetry_Int_Tables_number   1
_chemical_formula_structural   Sr2La14Mg4(Ga4O15)3
_chemical_formula_sum   'Sr2 La14 Mg4 Ga12 O45'
_cell_volume   998.52601446
_cell_formula_units_Z   1
loop_
 _symmetry_equiv_pos_site_id
 _symmetry_equiv_pos_as_xyz
  1  'x, y, z'
loop_
 _atom_site_type_symbol
 _atom_site_label
 _atom_site_symmetry_multiplicity
 _atom_site_fract_x
 _atom_site_fract_y
 _atom_site_fract_z
 _atom_site_occupancy
  Sr  Sr0  1  0.25919700  0.26229200  0.02414300  1
  Sr  Sr1  1  0.25613100  0.25604900  0.15447700  1
  La  La0  1  0.27744300  0.25242600  0.27871600  1
  La  La1  1  0.79374900  0.73680400  0.08888200  1
  La  La2  1  0.20860400  0.23187400  0.41520600  1
  La  La3  1  0.75570700  0.74441600  0.21575500  1
  La  La4  1  0.24575200  0.24205500  0.53375600  1
  La  La5  1  0.70421700  0.79242700  0.34942400  1
  La  La6  1  0.24687200  0.24607100  0.65721000  1
  La  La7  1  0.74780500  0.75234000  0.47047700  1
  La  La8  1  0.25314900  0.25256400  0.77945000  1
  La  La9  1  0.75158300  0.74862800  0.59505200  1
  La  La10  1  0.25260400  0.26699800  0.90179200  1
  La  La11  1  0.75045300  0.74998200  0.71824000  1
  La  La12  1  0.74978400  0.75024800  0.84191700  1
  La  La13  1  0.75044800  0.75754600  0.96357200  1
  Mg  Mg0  1  0.96900800  0.96092700  0.25692000  1
  Mg  Mg1  1  0.94847600  0.98150400  0.38090400  1
  Mg  Mg2  1  0.53673900  0.51345500  0.18488600  1
  Mg  Mg3  1  0.52122600  0.52075300  0.31537900  1
  Ga  Ga0  1  0.00593400  0.01366600  0.99386900  1
  Ga  Ga1  1  0.98527500  0.00128600  0.12864000  1
  Ga  Ga2  1  0.52801700  0.52796800  0.05197600  1
  Ga  Ga3  1  0.99217000  0.98395700  0.50415600  1
  Ga  Ga4  1  0.99777500  0.99580900  0.62629600  1
  Ga  Ga5  1  0.48670600  0.49548700  0.44031900  1
  Ga  Ga6  1  0.00043500  0.00010100  0.74945000  1
  Ga  Ga7  1  0.49824200  0.49524000  0.56483200  1
  Ga  Ga8  1  0.00427100  0.00654800  0.87194600  1
  Ga  Ga9  1  0.50042900  0.49991100  0.68772400  1
  Ga  Ga10  1  0.50618400  0.50423800  0.81044300  1
  Ga  Ga11  1  0.50351200  0.50872700  0.93410100  1
  O  O0  1  0.27005000  0.76656800  0.02274900  1
  O  O1  1  0.26316700  0.61522700  0.09315300  1
  O  O2  1  0.68826100  0.17964100  0.04277100  1
  O  O3  1  0.89951900  0.27164400  0.08718500  1
  O  O4  1  0.33853500  0.86282400  0.13595500  1
  O  O5  1  0.80018300  0.72278700  0.02054100  1
  O  O6  1  0.17649200  0.67333900  0.22140500  1
  O  O7  1  0.69934300  0.21566000  0.16305800  1
  O  O8  1  0.75927100  0.27545200  0.22250200  1
  O  O9  1  0.34499400  0.89698300  0.25837700  1
  O  O10  1  0.82091200  0.71288700  0.15648900  1
  O  O11  1  0.19079700  0.83875200  0.33642100  1
  O  O12  1  0.65186900  0.21871500  0.29383400  1
  O  O13  1  0.18106000  0.29823600  0.46897200  1
  O  O14  1  0.58770000  0.21497700  0.36142100  1
  O  O15  1  0.29303300  0.77474900  0.40104200  1
  O  O16  1  0.86825100  0.62511500  0.29883100  1
  O  O17  1  0.21587200  0.77841900  0.46784600  1
  O  O18  1  0.76550000  0.22930100  0.41198700  1
  O  O19  1  0.18035900  0.31219500  0.59427900  1
  O  O20  1  0.67392100  0.20449100  0.48152500  1
  O  O21  1  0.32732100  0.74999300  0.52440300  1
  O  O22  1  0.77903100  0.67854900  0.41851400  1
  O  O23  1  0.23618500  0.81072600  0.58768200  1
  O  O24  1  0.76081100  0.18567300  0.54096800  1
  O  O25  1  0.18098400  0.31915000  0.71934400  1
  O  O26  1  0.67173300  0.23291800  0.60517800  1
  O  O27  1  0.32005400  0.74984500  0.64851200  1
  O  O28  1  0.81394500  0.67022700  0.53909400  1
  O  O29  1  0.25319100  0.81919600  0.71027700  1
  O  O30  1  0.75281300  0.18090800  0.66546400  1
  O  O31  1  0.18840200  0.32119600  0.84407700  1
  O  O32  1  0.68207600  0.24859600  0.72727300  1
  O  O33  1  0.31829000  0.74907000  0.77219200  1
  O  O34  1  0.81929200  0.67597500  0.65871500  1
  O  O35  1  0.26574900  0.82791000  0.83255000  1
  O  O36  1  0.74812100  0.17876500  0.78927800  1
  O  O37  1  0.18762600  0.32630400  0.96765700  1
  O  O38  1  0.69280700  0.26782900  0.84922200  1
  O  O39  1  0.31008000  0.73763900  0.89630800  1
  O  O40  1  0.82453800  0.68070900  0.77927600  1
  O  O41  1  0.26940700  0.83731100  0.95495700  1
  O  O42  1  0.74889200  0.18224300  0.91256000  1
  O  O43  1  0.71118800  0.29593500  0.97024500  1
  O  O44  1  0.81687800  0.69667700  0.89975500  1
loop_
_geom_bond_atom_site_label_1
_geom_bond_atom_site_label_2
_geom_bond_distance
_geom_bond_site_symmetry_2
La0 O16 2.341587 1_455
La0 O9 2.369026 1_545
La0 O12 2.386268 1_555
La0 O11 2.509539 1_545
La0 O6 2.579066 1_555
La0 O8 2.638594 1_555
La1 O2 2.343864 1_565
La1 O3 2.396303 1_555
La1 O4 2.413971 1_555
La1 O1 2.433180 1_655
La1 O0 2.846757 1_655
La2 O14 2.307030 1_555
La2 O22 2.468255 1_455
La2 O17 2.476898 1_545
La2 O13 2.536122 1_555
La2 O18 2.543484 1_455
La2 O15 2.692877 1_545
La2 O18 3.019979 1_555
La3 O9 2.235801 1_555
La3 O6 2.292863 1_655
La3 O8 2.475485 1_555
La3 O7 2.537796 1_565
La3 O10 2.584571 1_555
La3 O8 3.134227 1_565
La4 O20 2.393818 1_555
La4 O28 2.424533 1_455
La4 O23 2.441049 1_545
La4 O24 2.711079 1_455
La4 O24 2.883612 1_555
La4 O17 3.011786 1_555
La5 O15 2.327126 1_555
La5 O14 2.381218 1_565
La5 O16 2.462213 1_555
La5 O12 2.488442 1_565
La5 O11 2.591910 1_655
La5 O18 3.021738 1_555
La6 O26 2.373525 1_555
La6 O34 2.407563 1_455
La6 O29 2.408449 1_545
La7 O21 2.404497 1_555
La7 O22 2.470571 1_555
La7 O13 2.495194 1_655
La7 O20 2.605759 1_565
La7 O17 2.618646 1_655
La7 O18 2.675766 1_565
La7 O17 2.945188 1_555
La8 O32 2.387783 1_555
La8 O35 2.403764 1_545
La8 O40 2.404167 1_455
La9 O27 2.424042 1_555
La9 O19 2.428988 1_655
La9 O24 2.460990 1_565
La9 O28 2.585341 1_555
La9 O23 2.723793 1_655
La9 O26 2.745153 1_565
La9 O34 2.868254 1_555
La9 O23 2.875604 1_555
La9 O26 2.911505 1_555
La10 O41 2.419736 1_545
La10 O38 2.429554 1_555
La10 O44 2.430620 1_455
La10 O31 2.636360 1_555
La10 O39 2.680566 1_555
La10 O42 2.803168 1_555
La10 O42 2.837622 1_455
La10 O39 2.932880 1_545
La10 O37 2.959942 1_555
La10 O43 3.078297 1_455
La10 O35 3.154951 1_555
La10 O44 3.186084 1_545
La11 O30 2.413589 1_565
La11 O25 2.417504 1_655
La11 O33 2.437047 1_555
La11 O34 2.714385 1_555
La11 O29 2.773449 1_555
La11 O40 2.779054 1_555
La11 O32 2.816649 1_555
La11 O32 2.822874 1_565
La11 O29 2.834620 1_655
La12 O36 2.403346 1_565
La12 O31 2.437760 1_655
La12 O39 2.469447 1_555
La12 O44 2.652365 1_555
La12 O38 2.708930 1_555
La12 O35 2.716364 1_555
La12 O40 2.825240 1_555
La12 O35 2.907677 1_655
La12 O38 2.912271 1_565
La13 O42 2.356521 1_565
La13 O37 2.444647 1_655
La13 O43 2.552567 1_555
La13 O5 2.606794 1_556
La13 O41 2.676482 1_555
La13 O0 2.691108 1_556
La13 O44 2.870107 1_555
La13 O39 3.097815 1_655
Mg0 O9 1.968153 1_655
Mg0 O8 1.979707 1_565
Mg0 O16 1.980321 1_555
Mg0 O12 2.212646 1_565
Mg0 O6 2.307622 1_655
Mg1 O22 1.954298 1_555
Mg1 O18 2.001199 1_565
Mg1 O11 2.073271 1_655
Mg1 O15 2.076081 1_655
Mg1 O14 2.123341 1_565
Mg2 O10 1.932442 1_555
Mg2 O7 1.945648 1_555
Mg2 O6 1.987328 1_555
Mg2 O8 2.090934 1_555
Mg2 O4 2.428546 1_555
Mg3 O16 1.973231 1_555
Mg3 O14 1.998512 1_555
Mg3 O12 2.001369 1_555
Mg3 O11 2.036376 1_555
Mg3 O9 2.660957 1_555
Ga0 O43 1.952456 1_455
Ga0 O0 1.963080 1_546
Ga0 O41 1.979805 1_545
Ga0 O5 1.991987 1_446
Ga0 O37 2.004361 1_555
Ga0 O2 2.318217 1_456
Ga1 O10 1.831372 1_545
Ga1 O3 1.837709 1_555
Ga1 O4 1.856499 1_645
Ga1 O7 1.968293 1_555
Ga2 O1 1.824548 1_555
Ga2 O2 1.861524 1_555
Ga2 O5 1.869270 1_555
Ga2 O0 1.948895 1_555
Ga3 O17 1.988968 1_655
Ga3 O24 1.990622 1_565
Ga3 O28 2.003080 1_555
Ga3 O20 2.015831 1_565
Ga3 O21 2.024465 1_655
Ga3 O13 2.039198 1_665
Ga4 O23 1.994791 1_655
Ga4 O26 2.005749 1_565
Ga4 O30 2.014244 1_565
Ga4 O27 2.017872 1_655
Ga4 O19 2.018085 1_665
Ga4 O34 2.020546 1_555
Ga5 O22 1.935086 1_555
Ga5 O18 1.968881 1_555
Ga5 O17 2.008043 1_555
Ga5 O13 2.018282 1_555
Ga5 O15 2.051662 1_555
Ga5 O20 2.101952 1_555
Ga6 O32 1.999743 1_455
Ga6 O29 2.000878 1_545
Ga6 O40 2.007744 1_445
Ga6 O33 2.012803 1_545
Ga6 O36 2.016531 1_455
Ga6 O25 2.021677 1_555
Ga7 O28 1.992513 1_555
Ga7 O21 2.011457 1_555
Ga7 O23 2.013002 1_555
Ga7 O24 2.014684 1_555
Ga7 O26 2.018396 1_555
Ga7 O19 2.021462 1_555
Ga8 O38 1.986951 1_455
Ga8 O35 2.003066 1_545
Ga8 O44 2.007025 1_445
Ga8 O39 2.008927 1_545
Ga8 O31 2.017105 1_555
Ga8 O42 2.035054 1_455
Ga9 O27 1.998129 1_555
Ga9 O34 2.002397 1_555
Ga9 O30 2.011078 1_555
Ga9 O32 2.014305 1_555
Ga9 O29 2.019848 1_555
Ga9 O25 2.020990 1_555
Ga10 O33 1.988942 1_555
Ga10 O40 2.001624 1_555
Ga10 O38 2.003663 1_555
Ga10 O36 2.010616 1_555
Ga10 O31 2.025776 1_555
Ga10 O35 2.027747 1_555
Ga11 O43 1.991995 1_555
Ga11 O39 1.993334 1_555
Ga11 O37 2.015594 1_555
Ga11 O41 2.017348 1_555
Ga11 O42 2.024955 1_555
Ga11 O44 2.025528 1_555
O0 Sr0 2.769312 1_565
O0 Sr0 2.815337 1_555
O1 Sr1 2.483572 1_555
O2 Sr0 2.661630 1_555
O3 Sr0 2.550740 1_655
O4 Sr1 2.477982 1_565
O5 Sr0 2.584797 1_655
O7 Sr1 2.561418 1_555
O8 Sr1 2.955175 1_655
O10 Sr1 2.509874 1_655
O37 Sr0 2.581534 1_556
O43 Sr0 2.504031 1_556
