# generated using pymatgen
data_InHO2
_symmetry_space_group_name_H-M   'P 1'
_cell_length_a   5.28057867
_cell_length_b   4.52393272
_cell_length_c   3.28850539
_cell_angle_alpha   90.00000000
_cell_angle_beta   90.00000000
_cell_angle_gamma   90.00000000
_symmetry_Int_Tables_number   1
_chemical_formula_structural   InHO2
_chemical_formula_sum   'In2 H2 O4'
_cell_volume   78.55904813
_cell_formula_units_Z   2
loop_
 _symmetry_equiv_pos_site_id
 _symmetry_equiv_pos_as_xyz
  1  'x, y, z'
loop_
 _atom_site_type_symbol
 _atom_site_label
 _atom_site_symmetry_multiplicity
 _atom_site_fract_x
 _atom_site_fract_y
 _atom_site_fract_z
 _atom_site_occupancy
  In  In0  1  0.50000000  0.50000000  0.50000000  1
  In  In1  1  -0.00000000  0.00000000  -0.00000000  1
  H  H0  1  -0.00000000  0.50000000  0.50000000  1
  H  H1  1  0.50000000  0.00000000  -0.00000000  1
  O  O0  1  0.86936863  0.27965593  0.50000000  1
  O  O1  1  0.13063137  0.72034407  0.50000000  1
  O  O2  1  0.36936863  0.22034407  -0.00000000  1
  O  O3  1  0.63063137  0.77965593  0.00000000  1
loop_
_geom_bond_atom_site_label_1
_geom_bond_atom_site_label_2
_geom_bond_distance
_geom_bond_site_symmetry_2
In0 O2 2.186320 1_556
In0 O3 2.186320 1_555
In0 O2 2.186320 1_555
In0 O3 2.186320 1_556
In0 O0 2.190440 1_555
In0 O1 2.190440 1_555
In1 O0 2.186320 1_454
In1 O1 2.186320 1_544
In1 O1 2.186320 1_545
In1 O0 2.186320 1_455
In1 O2 2.190440 1_555
In1 O3 2.190440 1_445
H0 O1 1.212225 1_555
H0 O0 1.212225 1_455
H1 O3 1.212225 1_545
H1 O2 1.212225 1_555
