# generated using pymatgen
data_Na7Bi3P12(Pb5O24)2
_symmetry_space_group_name_H-M   'P 1'
_cell_length_a   9.78839900
_cell_length_b   9.81626166
_cell_length_c   14.39117959
_cell_angle_alpha   90.31765073
_cell_angle_beta   90.27891591
_cell_angle_gamma   119.45820512
_symmetry_Int_Tables_number   1
_chemical_formula_structural   Na7Bi3P12(Pb5O24)2
_chemical_formula_sum   'Na7 Bi3 P12 Pb10 O48'
_cell_volume   1203.94555647
_cell_formula_units_Z   1
loop_
 _symmetry_equiv_pos_site_id
 _symmetry_equiv_pos_as_xyz
  1  'x, y, z'
loop_
 _atom_site_type_symbol
 _atom_site_label
 _atom_site_symmetry_multiplicity
 _atom_site_fract_x
 _atom_site_fract_y
 _atom_site_fract_z
 _atom_site_occupancy
  Na  Na0  1  0.66557100  0.32765400  0.49714000  1
  Na  Na1  1  0.66542500  0.32599600  0.99831200  1
  Na  Na2  1  0.26666900  0.26148900  0.86628300  1
  Na  Na3  1  0.32604400  0.64940400  0.25821600  1
  Na  Na4  1  0.33841000  0.66315900  0.73764000  1
  Na  Na5  1  0.32458300  0.65097700  0.50428700  1
  Na  Na6  1  0.27191600  0.28005600  0.38824100  1
  Bi  Bi0  1  0.64508900  0.32604000  0.25618300  1
  Bi  Bi1  1  0.64295600  0.32440700  0.75582600  1
  Bi  Bi2  1  0.30737700  0.63242100  0.00365000  1
  P  P0  1  0.60856700  0.01289700  0.12110500  1
  P  P1  1  0.61982900  0.02103600  0.62371700  1
  P  P2  1  0.40265900  0.37156400  0.12112800  1
  P  P3  1  0.39723800  0.36781300  0.62688700  1
  P  P4  1  0.01177500  0.38726700  0.36991300  1
  P  P5  1  0.02099300  0.39818700  0.87507700  1
  P  P6  1  0.96536200  0.58097300  0.12297400  1
  P  P7  1  0.96859600  0.59320000  0.62478500  1
  P  P8  1  0.59478400  0.62093200  0.37077000  1
  P  P9  1  0.58238900  0.61324200  0.87552700  1
  P  P10  1  0.37210300  0.97403600  0.36979500  1
  P  P11  1  0.37065700  0.97368000  0.87374600  1
  Pb  Pb0  1  0.73492800  0.99197800  0.37760300  1
  Pb  Pb1  1  0.72489700  0.98380500  0.86764600  1
  Pb  Pb2  1  0.98039100  0.23911500  0.12934400  1
  Pb  Pb3  1  0.00274300  0.26251100  0.61669400  1
  Pb  Pb4  1  0.99350000  0.72688700  0.86756700  1
  Pb  Pb5  1  0.99977000  0.73313600  0.37634600  1
  Pb  Pb6  1  0.24845800  0.99943600  0.12088900  1
  Pb  Pb7  1  0.25385800  0.98645900  0.61608800  1
  Pb  Pb8  1  0.74238400  0.73718300  0.12372400  1
  Pb  Pb9  1  0.72741700  0.73270800  0.61662900  1
  O  O0  1  0.32915200  0.25095300  0.04117300  1
  O  O1  1  0.31353400  0.23819500  0.55174300  1
  O  O2  1  0.37172200  0.28289200  0.21547200  1
  O  O3  1  0.38899100  0.28443700  0.72243300  1
  O  O4  1  0.51583700  0.10673500  0.12857800  1
  O  O5  1  0.52666000  0.11552500  0.62114600  1
  O  O6  1  0.48610700  0.15513700  0.36738800  1
  O  O7  1  0.49569800  0.15192900  0.87432000  1
  O  O8  1  0.71498600  0.06998200  0.03425500  1
  O  O9  1  0.72203200  0.06938200  0.20754200  1
  O  O10  1  0.73769900  0.07590800  0.54125400  1
  O  O11  1  0.72422200  0.08466800  0.71358800  1
  O  O12  1  0.58742000  0.46619400  0.11307900  1
  O  O13  1  0.58043500  0.46188800  0.60806000  1
  O  O14  1  0.84470500  0.35155100  0.87647000  1
  O  O15  1  0.83033800  0.32862900  0.36582700  1
  O  O16  1  0.64778600  0.49644000  0.87015300  1
  O  O17  1  0.65948500  0.50158800  0.36695300  1
  O  O18  1  0.86689500  0.39701600  0.12388200  1
  O  O19  1  0.87651000  0.40971300  0.61491500  1
  O  O20  1  0.06848600  0.34313100  0.28038300  1
  O  O21  1  0.05505000  0.29933500  0.80689300  1
  O  O22  1  0.04899500  0.30912800  0.45211900  1
  O  O23  1  0.08325500  0.38807800  0.97550200  1
  O  O24  1  0.92065900  0.66642000  0.54329900  1
  O  O25  1  0.91933800  0.64514800  0.03740100  1
  O  O26  1  0.91215200  0.63674900  0.21059800  1
  O  O27  1  0.89611100  0.62734800  0.71407600  1
  O  O28  1  0.10407600  0.56960000  0.38324000  1
  O  O29  1  0.12253300  0.58108000  0.85570400  1
  O  O30  1  0.33826600  0.48907900  0.12097500  1
  O  O31  1  0.32655200  0.47577400  0.63088100  1
  O  O32  1  0.14386600  0.63752600  0.12456900  1
  O  O33  1  0.14530200  0.65835200  0.62912400  1
  O  O34  1  0.41866700  0.53978400  0.38562300  1
  O  O35  1  0.40141600  0.52374500  0.88734100  1
  O  O36  1  0.26420000  0.91223200  0.28283400  1
  O  O37  1  0.25817300  0.93426800  0.45364900  1
  O  O38  1  0.24166200  0.94047800  0.79981200  1
  O  O39  1  0.28493800  0.91600500  0.96846800  1
  O  O40  1  0.49671000  0.83482700  0.12061500  1
  O  O41  1  0.50789400  0.84530000  0.62098700  1
  O  O42  1  0.46685200  0.88630900  0.38109800  1
  O  O43  1  0.45405200  0.87570500  0.85441600  1
  O  O44  1  0.64357900  0.72318900  0.28155100  1
  O  O45  1  0.63038500  0.71809900  0.78800000  1
  O  O46  1  0.65262300  0.72628600  0.96089200  1
  O  O47  1  0.68465100  0.74061500  0.45198400  1
loop_
_geom_bond_atom_site_label_1
_geom_bond_atom_site_label_2
_geom_bond_distance
_geom_bond_site_symmetry_2
Na0 O13 2.459367 1_555
Na0 O19 2.469765 1_555
Na0 O15 2.487383 1_555
Na0 O6 2.539186 1_555
Na0 O17 2.561893 1_555
Na0 O5 2.578682 1_555
Na1 O14 2.412242 1_555
Na1 O7 2.451322 1_555
Na1 O12 2.495094 1_556
Na1 O18 2.497953 1_556
Na1 O16 2.558527 1_555
Na1 O4 2.694924 1_556
Na1 O8 2.833671 1_556
Na1 O25 2.935449 1_556
Na2 O35 2.259783 1_555
Na2 O3 2.352442 1_555
Na2 O21 2.429495 1_555
Na2 O0 2.601832 1_556
Na3 O34 2.511374 1_555
Na3 O30 2.558323 1_555
Na3 O32 2.579215 1_555
Na3 O28 2.636516 1_555
Na3 O40 2.665804 1_555
Na3 O42 2.685721 1_555
Na3 O20 2.838981 1_555
Na3 O44 2.840937 1_555
Na3 O36 2.945576 1_555
Na4 O31 2.348267 1_555
Na4 O33 2.428310 1_555
Na4 O41 2.431087 1_555
Na4 O43 2.465424 1_555
Na4 O29 2.525223 1_555
Na4 O45 2.728291 1_555
Na4 O35 2.782883 1_555
Na5 O34 2.437029 1_555
Na5 O41 2.499487 1_555
Na5 O31 2.518791 1_555
Na5 O33 2.542957 1_555
Na5 O28 2.565842 1_555
Na5 O42 2.706290 1_555
Na6 O34 2.228112 1_555
Na6 O1 2.457110 1_555
Na6 O22 2.513347 1_555
Na6 O2 2.671103 1_555
Na6 O20 2.819754 1_555
Na6 O6 2.918927 1_555
Bi0 O17 2.293266 1_555
Bi0 O6 2.298591 1_555
Bi0 O15 2.388479 1_555
Bi0 O2 2.559285 1_555
Bi0 O4 2.619542 1_555
Bi0 O12 2.690106 1_555
Bi0 O18 2.718718 1_555
Bi1 O16 2.334724 1_555
Bi1 O7 2.346860 1_555
Bi1 O3 2.364651 1_555
Bi1 O14 2.535586 1_555
Bi1 O5 2.625919 1_555
Bi1 O13 2.747618 1_555
Bi1 O27 2.851491 1_555
Bi1 O19 2.867207 1_555
Bi1 O11 2.893193 1_555
Bi2 O30 2.315593 1_555
Bi2 O23 2.352636 1_554
Bi2 O32 2.386915 1_555
Bi2 O35 2.397516 1_554
Bi2 O40 2.554691 1_555
Bi2 O29 2.667304 1_554
O0 P2 1.543496 1_555
O0 Pb6 2.481498 1_545
O1 P3 1.552550 1_555
O1 Pb7 2.432272 1_545
O2 P2 1.565440 1_555
O2 Pb6 2.773203 1_545
O3 P3 1.586069 1_555
O4 P0 1.583086 1_555
O4 Pb6 2.292586 1_545
O5 P1 1.589157 1_555
O5 Pb7 2.326038 1_545
O6 P10 1.567369 1_545
O7 P11 1.566215 1_545
O8 P0 1.551639 1_555
O8 Pb1 2.556263 1_544
O8 Pb2 2.660072 1_555
O9 P0 1.568923 1_555
O9 Pb2 2.518346 1_555
O9 Pb0 2.587444 1_545
O10 P1 1.561668 1_555
O10 Pb0 2.486370 1_545
O10 Pb3 2.557543 1_655
O11 P1 1.567628 1_555
O11 Pb1 2.434419 1_545
O11 Pb3 2.794172 1_655
O12 P2 1.580472 1_555
O12 Pb8 2.329151 1_555
O13 P3 1.587615 1_555
O13 Pb9 2.320587 1_555
O14 P5 1.552755 1_655
O15 P4 1.575440 1_655
O16 P9 1.565804 1_555
O17 P8 1.583014 1_555
O18 P6 1.574312 1_555
O18 Pb2 2.310206 1_555
O19 P7 1.573493 1_555
O19 Pb3 2.317666 1_655
O20 P4 1.547017 1_555
O20 Pb2 2.366839 1_455
O21 P5 1.525244 1_555
O21 Pb3 2.770985 1_555
O22 P4 1.549640 1_555
O22 Pb3 2.417128 1_555
O23 P5 1.588229 1_555
O23 Pb2 2.581302 1_456
O24 P7 1.564498 1_555
O24 Pb9 2.517417 1_555
O24 Pb5 2.517544 1_555
O25 P6 1.548780 1_555
O25 Pb4 2.571103 1_554
O25 Pb8 2.628173 1_555
O26 P6 1.562184 1_555
O26 Pb5 2.545071 1_555
O26 Pb8 2.627031 1_555
O27 P7 1.582729 1_555
O27 Pb4 2.404620 1_555
O27 Pb9 2.726940 1_555
O28 P4 1.568609 1_555
O28 Pb5 2.289576 1_455
O29 P5 1.594347 1_555
O29 Pb4 2.334607 1_455
O30 P2 1.563058 1_555
O31 P3 1.525150 1_555
O31 Pb3 2.816556 1_555
O32 P6 1.551475 1_455
O33 P7 1.521559 1_455
O34 P8 1.518840 1_555
O35 P9 1.553252 1_555
O36 P10 1.548631 1_555
O36 Pb6 2.517235 1_555
O36 Pb5 2.680625 1_455
O37 P10 1.562832 1_555
O37 Pb7 2.395414 1_555
O37 Pb5 2.563153 1_455
O38 P11 1.552714 1_555
O38 Pb4 2.506728 1_455
O38 Pb7 2.678068 1_555
O39 P11 1.560515 1_555
O39 Pb6 2.425923 1_556
O40 P0 1.540016 1_565
O41 P1 1.522388 1_565
O41 Pb9 2.859924 1_555
O42 P10 1.553648 1_555
O42 Pb0 2.299728 1_555
O43 P11 1.562090 1_555
O43 Pb1 2.327364 1_555
O44 P8 1.559800 1_555
O44 Pb8 2.450977 1_555
O44 Pb0 2.701667 1_555
O45 P9 1.552844 1_555
O45 Pb1 2.560421 1_555
O45 Pb9 2.626350 1_555
O46 P9 1.561899 1_555
O46 Pb8 2.481815 1_556
O46 Pb1 2.641830 1_555
O47 P8 1.574273 1_555
O47 Pb9 2.412431 1_555
O47 Pb0 2.513235 1_555
