# generated using pymatgen
data_CsP4N7
_symmetry_space_group_name_H-M   'P 1'
_cell_length_a   4.75753900
_cell_length_b   10.09545600
_cell_length_c   12.54691600
_cell_angle_alpha   90.00000000
_cell_angle_beta   90.00000000
_cell_angle_gamma   90.00000000
_symmetry_Int_Tables_number   1
_chemical_formula_structural   CsP4N7
_chemical_formula_sum   'Cs4 P16 N28'
_cell_volume   602.62242376
_cell_formula_units_Z   4
loop_
 _symmetry_equiv_pos_site_id
 _symmetry_equiv_pos_as_xyz
  1  'x, y, z'
loop_
 _atom_site_type_symbol
 _atom_site_label
 _atom_site_symmetry_multiplicity
 _atom_site_fract_x
 _atom_site_fract_y
 _atom_site_fract_z
 _atom_site_occupancy
  Cs  Cs0  1  0.72607800  0.85669700  0.25000000  1
  Cs  Cs1  1  0.77392200  0.35669700  0.25000000  1
  Cs  Cs2  1  0.27392200  0.14330300  0.75000000  1
  Cs  Cs3  1  0.22607800  0.64330300  0.75000000  1
  P  P0  1  0.21583900  0.58843800  0.12925600  1
  P  P1  1  0.28416100  0.08843800  0.37074400  1
  P  P2  1  0.78416100  0.41156200  0.62925600  1
  P  P3  1  0.71583900  0.91156200  0.87074400  1
  P  P4  1  0.78416100  0.41156200  0.87074400  1
  P  P5  1  0.71583900  0.91156200  0.62925600  1
  P  P6  1  0.21583900  0.58843800  0.37074400  1
  P  P7  1  0.28416100  0.08843800  0.12925600  1
  P  P8  1  0.22741300  0.84159300  0.99946700  1
  P  P9  1  0.27258700  0.34159300  0.50053300  1
  P  P10  1  0.77258700  0.15840700  0.49946700  1
  P  P11  1  0.72741300  0.65840700  0.00053300  1
  P  P12  1  0.77258700  0.15840700  0.00053300  1
  P  P13  1  0.72741300  0.65840700  0.49946700  1
  P  P14  1  0.22741300  0.84159300  0.50053300  1
  P  P15  1  0.27258700  0.34159300  0.99946700  1
  N  N0  1  0.29680400  0.61981700  0.25000000  1
  N  N1  1  0.20319600  0.11981700  0.25000000  1
  N  N2  1  0.70319600  0.38018300  0.75000000  1
  N  N3  1  0.79680400  0.88018300  0.75000000  1
  N  N4  1  0.89081800  0.62033300  0.10618900  1
  N  N5  1  0.60918200  0.12033300  0.39381100  1
  N  N6  1  0.10918200  0.37966700  0.60618900  1
  N  N7  1  0.39081800  0.87966700  0.89381100  1
  N  N8  1  0.10918200  0.37966700  0.89381100  1
  N  N9  1  0.39081800  0.87966700  0.60618900  1
  N  N10  1  0.89081800  0.62033300  0.39381100  1
  N  N11  1  0.60918200  0.12033300  0.10618900  1
  N  N12  1  0.18938500  0.94117400  0.09603000  1
  N  N13  1  0.31061500  0.44117400  0.40397000  1
  N  N14  1  0.81061500  0.05882600  0.59603000  1
  N  N15  1  0.68938500  0.55882600  0.90397000  1
  N  N16  1  0.81061500  0.05882600  0.90397000  1
  N  N17  1  0.68938500  0.55882600  0.59603000  1
  N  N18  1  0.18938500  0.94117400  0.40397000  1
  N  N19  1  0.31061500  0.44117400  0.09603000  1
  N  N20  1  0.39120700  0.70008900  0.04493700  1
  N  N21  1  0.10879300  0.20008900  0.45506300  1
  N  N22  1  0.60879300  0.29991100  0.54493700  1
  N  N23  1  0.89120700  0.79991100  0.95506300  1
  N  N24  1  0.60879300  0.29991100  0.95506300  1
  N  N25  1  0.89120700  0.79991100  0.54493700  1
  N  N26  1  0.39120700  0.70008900  0.45506300  1
  N  N27  1  0.10879300  0.20008900  0.04493700  1
loop_
_geom_bond_atom_site_label_1
_geom_bond_atom_site_label_2
_geom_bond_distance
_geom_bond_site_symmetry_2
Cs0 N12 3.052518 1_655
Cs0 N18 3.052518 1_655
Cs0 N4 3.092578 1_555
Cs0 N10 3.092578 1_555
Cs0 N0 3.144803 1_555
Cs0 N11 3.263252 1_565
Cs0 N5 3.263252 1_565
Cs0 N12 3.313442 1_555
Cs0 N18 3.313442 1_555
Cs1 N13 3.052518 1_555
Cs1 N19 3.052518 1_555
Cs1 N11 3.092578 1_555
Cs1 N5 3.092578 1_555
Cs1 N1 3.144803 1_655
Cs1 N10 3.263252 1_555
Cs1 N4 3.263252 1_555
Cs1 N13 3.313442 1_655
Cs1 N19 3.313442 1_655
Cs2 N14 3.052518 1_455
Cs2 N16 3.052518 1_455
Cs2 N8 3.092578 1_555
Cs2 N6 3.092578 1_555
Cs2 N2 3.144803 1_555
Cs2 N7 3.263252 1_545
Cs2 N9 3.263252 1_545
Cs2 N16 3.313442 1_555
Cs2 N14 3.313442 1_555
Cs3 N15 3.052518 1_555
Cs3 N17 3.052518 1_555
Cs3 N9 3.092578 1_555
Cs3 N7 3.092578 1_555
Cs3 N3 3.144803 1_455
Cs3 N6 3.263252 1_555
Cs3 N8 3.263252 1_555
Cs3 N17 3.313442 1_455
Cs3 N15 3.313442 1_455
N0 P0 1.594944 1_555
N0 P6 1.594944 1_555
N1 P7 1.594944 1_555
N1 P1 1.594944 1_555
N2 P2 1.594944 1_555
N2 P4 1.594944 1_555
N3 P5 1.594944 1_555
N3 P3 1.594944 1_555
N4 P11 1.584131 1_555
N4 P0 1.605767 1_655
N5 P10 1.584131 1_555
N5 P1 1.605767 1_555
N6 P9 1.584131 1_555
N6 P2 1.605767 1_455
N7 P8 1.584131 1_555
N7 P3 1.605767 1_555
N8 P15 1.584131 1_555
N8 P4 1.605767 1_455
N9 P14 1.584131 1_555
N9 P5 1.605767 1_555
N10 P13 1.584131 1_555
N10 P6 1.605767 1_655
N11 P12 1.584131 1_555
N11 P7 1.605767 1_555
N12 P8 1.584704 1_554
N12 P7 1.608531 1_565
N13 P9 1.584704 1_555
N13 P6 1.608531 1_555
N14 P10 1.584704 1_555
N14 P5 1.608531 1_545
N15 P11 1.584704 1_556
N15 P4 1.608531 1_555
N16 P12 1.584704 1_556
N16 P3 1.608531 1_545
N17 P13 1.584704 1_555
N17 P2 1.608531 1_555
N18 P14 1.584704 1_555
N18 P1 1.608531 1_565
N19 P15 1.584704 1_554
N19 P0 1.608531 1_555
N20 P8 1.724375 1_554
N20 P11 1.745254 1_555
N20 P0 1.756656 1_555
N21 P9 1.724375 1_555
N21 P10 1.745254 1_455
N21 P1 1.756656 1_555
N22 P10 1.724375 1_555
N22 P9 1.745254 1_555
N22 P2 1.756656 1_555
N23 P11 1.724375 1_556
N23 P8 1.745254 1_655
N23 P3 1.756656 1_555
N24 P12 1.724375 1_556
N24 P15 1.745254 1_555
N24 P4 1.756656 1_555
N25 P13 1.724375 1_555
N25 P14 1.745254 1_655
N25 P5 1.756656 1_555
N26 P14 1.724375 1_555
N26 P13 1.745254 1_555
N26 P6 1.756656 1_555
N27 P15 1.724375 1_554
N27 P12 1.745254 1_455
N27 P7 1.756656 1_555
