# generated using pymatgen
data_K3Ta2AsSe11
_symmetry_space_group_name_H-M   'P 1'
_cell_length_a   10.10557414
_cell_length_b   10.10557414
_cell_length_c   10.10023698
_cell_angle_alpha   82.58597382
_cell_angle_beta   82.58597382
_cell_angle_gamma   82.23674746
_symmetry_Int_Tables_number   1
_chemical_formula_structural   K3Ta2AsSe11
_chemical_formula_sum   'K6 Ta4 As2 Se22'
_cell_volume   1006.90524061
_cell_formula_units_Z   2
loop_
 _symmetry_equiv_pos_site_id
 _symmetry_equiv_pos_as_xyz
  1  'x, y, z'
loop_
 _atom_site_type_symbol
 _atom_site_label
 _atom_site_symmetry_multiplicity
 _atom_site_fract_x
 _atom_site_fract_y
 _atom_site_fract_z
 _atom_site_occupancy
  K  K0  1  0.66574400  0.80031300  0.91722300  1
  K  K1  1  0.43297300  0.27027400  0.16550400  1
  K  K2  1  0.80031300  0.66574400  0.41722300  1
  K  K3  1  0.90072800  0.05416200  0.25313600  1
  K  K4  1  0.27027400  0.43297300  0.66550400  1
  K  K5  1  0.05416200  0.90072800  0.75313600  1
  Ta  Ta0  1  0.82610500  0.40969400  0.83064100  1
  Ta  Ta1  1  0.70671900  0.16044500  0.64600100  1
  Ta  Ta2  1  0.40969400  0.82610500  0.33064000  1
  Ta  Ta3  1  0.16044500  0.70671900  0.14600100  1
  As  As0  1  0.04643300  0.34908000  0.09811200  1
  As  As1  1  0.34908000  0.04643300  0.59811200  1
  Se  Se0  1  0.20124200  0.50613300  0.99299200  1
  Se  Se1  1  0.81544000  0.31303000  0.43776400  1
  Se  Se2  1  0.63933600  0.44329700  0.66794500  1
  Se  Se3  1  0.94096000  0.78486600  0.08892500  1
  Se  Se4  1  0.78486600  0.94096000  0.58892500  1
  Se  Se5  1  0.44073200  0.81438300  0.58760300  1
  Se  Se6  1  0.59766200  0.94026200  0.24518500  1
  Se  Se7  1  0.94365500  0.25921100  0.62716100  1
  Se  Se8  1  0.25921100  0.94365500  0.12716100  1
  Se  Se9  1  0.31303000  0.81544000  0.93776400  1
  Se  Se10  1  0.81438300  0.44073200  0.08760300  1
  Se  Se11  1  0.57353000  0.49427800  0.89326300  1
  Se  Se12  1  0.22596500  0.03427900  0.40394100  1
  Se  Se13  1  0.03427900  0.22596500  0.90394100  1
  Se  Se14  1  0.14185300  0.73898600  0.40319400  1
  Se  Se15  1  0.13328100  0.51649000  0.34340100  1
  Se  Se16  1  0.44329700  0.63933600  0.16794500  1
  Se  Se17  1  0.51649000  0.13328100  0.84340100  1
  Se  Se18  1  0.50613300  0.20124200  0.49299200  1
  Se  Se19  1  0.94026200  0.59766200  0.74518500  1
  Se  Se20  1  0.73898600  0.14185300  0.90319400  1
  Se  Se21  1  0.49427800  0.57353000  0.39326300  1
loop_
_geom_bond_atom_site_label_1
_geom_bond_atom_site_label_2
_geom_bond_distance
_geom_bond_site_symmetry_2
K0 Se11 3.394325 1_555
K0 Se3 3.438707 1_556
K0 Se17 3.524862 1_565
K0 Se9 3.527227 1_555
K0 Se16 3.545156 1_556
K0 Se4 3.560923 1_555
K0 Se20 3.607955 1_565
K0 Se19 3.612299 1_555
K0 Se6 3.715388 1_556
K1 Se18 3.445352 1_555
K1 Se0 3.560092 1_554
K1 Se6 3.562725 1_545
K1 Se11 3.599583 1_554
K1 Se17 3.653902 1_554
K1 Se16 3.748440 1_555
K1 Se12 3.798545 1_555
K2 Se21 3.394325 1_555
K2 Se4 3.438707 1_555
K2 Se15 3.524862 1_655
K2 Se1 3.527227 1_555
K2 Se2 3.545156 1_555
K2 Se3 3.560923 1_555
K2 Se14 3.607955 1_655
K2 Se6 3.612299 1_555
K2 Se19 3.715388 1_555
K3 Se3 3.318741 1_545
K3 Se1 3.361374 1_555
K3 Se6 3.427954 1_545
K3 Se4 3.538065 1_545
K3 Se8 3.751533 1_645
K3 Se12 3.767948 1_655
K4 Se0 3.445352 1_555
K4 Se18 3.560092 1_555
K4 Se19 3.562725 1_455
K4 Se21 3.599583 1_555
K4 Se15 3.653902 1_555
K4 Se2 3.748440 1_555
K4 Se13 3.798545 1_555
K5 Se4 3.318741 1_455
K5 Se9 3.361374 1_555
K5 Se19 3.427954 1_455
K5 Se3 3.538065 1_456
K5 Se7 3.751533 1_465
K5 Se13 3.767948 1_565
As0 Se10 2.412513 1_455
As0 Se0 2.429176 1_554
As0 Se13 2.478375 1_554
As0 K3 3.590019 1_455
As1 Se5 2.412513 1_545
As1 Se18 2.429176 1_555
As1 Se12 2.478375 1_555
As1 K5 3.590019 1_545
Se0 Ta3 2.661851 1_556
Se1 Se7 2.411385 1_555
Se1 Ta1 2.651930 1_555
Se2 Ta0 2.619393 1_555
Se2 Ta1 2.877823 1_555
Se3 Ta3 2.369576 1_655
Se4 Ta1 2.369576 1_565
Se5 Ta2 2.639916 1_555
Se6 Ta2 2.365572 1_555
Se7 Ta1 2.691550 1_555
Se7 Ta0 2.763336 1_555
Se8 Se9 2.411385 1_554
Se8 Ta3 2.691550 1_555
Se8 Ta2 2.763328 1_555
Se9 Ta3 2.651930 1_556
Se10 Ta0 2.639906 1_554
Se11 Se2 2.388769 1_555
Se11 Ta0 2.603648 1_555
Se12 Ta2 2.722685 1_545
Se13 Ta0 2.722682 1_455
Se14 Se15 2.417502 1_555
Se14 Ta3 2.639284 1_555
Se14 Ta2 2.933195 1_555
Se15 Ta3 2.599658 1_555
Se16 Se21 2.388769 1_555
Se16 Ta2 2.619386 1_555
Se16 Ta3 2.877823 1_555
Se17 Se20 2.417502 1_555
Se17 Ta1 2.599658 1_555
Se18 Ta1 2.661851 1_555
Se19 Ta0 2.365574 1_555
Se20 Ta1 2.639284 1_555
Se20 Ta0 2.933194 1_555
Se21 Ta2 2.603649 1_555
