# generated using pymatgen
data_Ba2AlH7
_symmetry_space_group_name_H-M   'P 1'
_cell_length_a   8.80101989
_cell_length_b   8.80101989
_cell_length_c   8.56080108
_cell_angle_alpha   70.06077866
_cell_angle_beta   70.06077866
_cell_angle_gamma   71.59659895
_symmetry_Int_Tables_number   1
_chemical_formula_structural   Ba2AlH7
_chemical_formula_sum   'Ba8 Al4 H28'
_cell_volume   570.87184391
_cell_formula_units_Z   4
loop_
 _symmetry_equiv_pos_site_id
 _symmetry_equiv_pos_as_xyz
  1  'x, y, z'
loop_
 _atom_site_type_symbol
 _atom_site_label
 _atom_site_symmetry_multiplicity
 _atom_site_fract_x
 _atom_site_fract_y
 _atom_site_fract_z
 _atom_site_occupancy
  Ba  Ba0  1  0.25921635  0.92867301  0.48152821  1
  Ba  Ba1  1  0.07132699  0.74078365  0.01847179  1
  Ba  Ba2  1  0.74078365  0.07132699  0.51847179  1
  Ba  Ba3  1  0.92867301  0.25921635  0.98152821  1
  Ba  Ba4  1  0.28107932  0.43226075  0.47906593  1
  Ba  Ba5  1  0.56773925  0.71892068  0.02093407  1
  Ba  Ba6  1  0.71892068  0.56773925  0.52093407  1
  Ba  Ba7  1  0.43226075  0.28107932  0.97906593  1
  Al  Al0  1  0.31912860  0.03174670  0.80125964  1
  Al  Al1  1  0.96825330  0.68087140  0.69874036  1
  Al  Al2  1  0.68087140  0.96825330  0.19874036  1
  Al  Al3  1  0.03174670  0.31912860  0.30125964  1
  H  H0  1  0.39204193  0.10487431  0.58091198  1
  H  H1  1  0.89512569  0.60795807  0.91908802  1
  H  H2  1  0.60795807  0.89512569  0.41908802  1
  H  H3  1  0.10487431  0.39204193  0.08091198  1
  H  H4  1  0.37887504  0.82433109  0.77957674  1
  H  H5  1  0.17566891  0.62112496  0.72042326  1
  H  H6  1  0.62112496  0.17566891  0.22042326  1
  H  H7  1  0.82433109  0.37887504  0.27957674  1
  H  H8  1  0.51049100  0.01873545  0.82672912  1
  H  H9  1  0.98126455  0.48950900  0.67327088  1
  H  H10  1  0.48950900  0.98126455  0.17327088  1
  H  H11  1  0.01873545  0.51049100  0.32672912  1
  H  H12  1  0.25377408  0.94721351  0.02336989  1
  H  H13  1  0.05278649  0.74622592  0.47663011  1
  H  H14  1  0.74622592  0.05278649  0.97663011  1
  H  H15  1  0.94721351  0.25377408  0.52336989  1
  H  H16  1  0.24690254  0.23504154  0.81801712  1
  H  H17  1  0.76495846  0.75309746  0.68198288  1
  H  H18  1  0.75309746  0.76495846  0.18198288  1
  H  H19  1  0.23504154  0.24690254  0.31801712  1
  H  H20  1  0.12574789  0.03886980  0.78545378  1
  H  H21  1  0.96113020  0.87425211  0.71454622  1
  H  H22  1  0.87425211  0.96113020  0.21454622  1
  H  H23  1  0.03886980  0.12574789  0.28545378  1
  H  H24  1  0.33904697  0.54540328  0.12586504  1
  H  H25  1  0.45459672  0.66095303  0.37413496  1
  H  H26  1  0.66095303  0.45459672  0.87413496  1
  H  H27  1  0.54540328  0.33904697  0.62586504  1
loop_
_geom_bond_atom_site_label_1
_geom_bond_atom_site_label_2
_geom_bond_distance
_geom_bond_site_symmetry_2
Ba0 H19 2.646089 1_565
Ba0 H25 2.682312 1_555
Ba0 H0 2.686660 1_565
Ba0 H10 2.719817 1_555
Ba0 H21 2.768325 1_455
Ba0 H23 2.774410 1_565
Ba0 H13 2.796553 1_555
Ba0 H20 2.829707 1_565
Ba0 H4 2.843703 1_555
Ba0 H2 2.865285 1_555
Ba0 H5 2.916355 1_555
Ba1 H18 2.646089 1_455
Ba1 H24 2.682312 1_555
Ba1 H1 2.686660 1_454
Ba1 H11 2.719817 1_555
Ba1 H20 2.768325 1_564
Ba1 H22 2.774410 1_455
Ba1 H12 2.796553 1_555
Ba1 H21 2.829707 1_454
Ba1 H5 2.843703 1_554
Ba1 H3 2.865285 1_555
Ba1 H4 2.916355 1_554
Ba2 H17 2.646089 1_545
Ba2 H27 2.682312 1_555
Ba2 H2 2.686660 1_545
Ba2 H8 2.719817 1_555
Ba2 H23 2.768325 1_655
Ba2 H21 2.774410 1_545
Ba2 H15 2.796553 1_555
Ba2 H22 2.829707 1_545
Ba2 H6 2.843703 1_555
Ba2 H0 2.865285 1_555
Ba2 H7 2.916355 1_555
Ba3 H16 2.646089 1_655
Ba3 H26 2.682312 1_555
Ba3 H3 2.686660 1_656
Ba3 H9 2.719817 1_555
Ba3 H22 2.768325 1_546
Ba3 H20 2.774410 1_655
Ba3 H14 2.796553 1_555
Ba3 H23 2.829707 1_656
Ba3 H7 2.843703 1_556
Ba3 H1 2.865285 1_555
Ba3 H6 2.916355 1_556
Ba4 H9 2.592360 1_455
Ba4 H25 2.638578 1_555
Ba4 H19 2.656813 1_555
Ba4 H0 2.665819 1_555
Ba4 H24 2.758544 1_555
Ba4 H27 2.783866 1_555
Ba4 H16 2.796830 1_555
Ba4 H11 2.818389 1_555
Ba4 H5 2.820318 1_555
Ba4 H13 2.855954 1_555
Ba5 H8 2.592360 1_564
Ba5 H24 2.638578 1_555
Ba5 H18 2.656813 1_555
Ba5 H1 2.665819 1_554
Ba5 H25 2.758544 1_555
Ba5 H26 2.783866 1_554
Ba5 H17 2.796830 1_554
Ba5 H10 2.818389 1_555
Ba5 H4 2.820318 1_554
Ba5 H12 2.855954 1_555
Ba6 H11 2.592360 1_655
Ba6 H27 2.638578 1_555
Ba6 H17 2.656813 1_555
Ba6 H2 2.665819 1_555
Ba6 H26 2.758544 1_555
Ba6 H25 2.783866 1_555
Ba6 H18 2.796830 1_555
Ba6 H9 2.818389 1_555
Ba6 H7 2.820318 1_555
Ba6 H15 2.855954 1_555
Ba7 H10 2.592360 1_546
Ba7 H26 2.638578 1_555
Ba7 H16 2.656813 1_555
Ba7 H3 2.665819 1_556
Ba7 H27 2.758544 1_555
Ba7 H24 2.783866 1_556
Ba7 H19 2.796830 1_556
Ba7 H8 2.818389 1_555
Ba7 H6 2.820318 1_556
Ba7 H14 2.855954 1_555
Al0 H0 1.729584 1_555
Al0 H20 1.732853 1_555
Al0 H8 1.734586 1_555
Al0 H16 1.737998 1_555
Al0 H12 1.749067 1_546
Al0 H4 1.789342 1_545
Al1 H1 1.729584 1_555
Al1 H21 1.732853 1_555
Al1 H9 1.734586 1_555
Al1 H17 1.737998 1_555
Al1 H13 1.749067 1_655
Al1 H5 1.789342 1_655
Al2 H2 1.729584 1_555
Al2 H22 1.732853 1_555
Al2 H10 1.734586 1_555
Al2 H18 1.737998 1_555
Al2 H14 1.749067 1_564
Al2 H6 1.789342 1_565
Al3 H3 1.729584 1_555
Al3 H23 1.732853 1_555
Al3 H11 1.734586 1_555
Al3 H19 1.737998 1_555
Al3 H15 1.749067 1_455
Al3 H7 1.789342 1_455
