# generated using pymatgen
data_LiAl2H6ClO6
_symmetry_space_group_name_H-M   'P 1'
_cell_length_a   5.15984625
_cell_length_b   5.15984625
_cell_length_c   14.28458300
_cell_angle_alpha   90.00000000
_cell_angle_beta   90.00000000
_cell_angle_gamma   120.00000316
_symmetry_Int_Tables_number   1
_chemical_formula_structural   LiAl2H6ClO6
_chemical_formula_sum   'Li2 Al4 H12 Cl2 O12'
_cell_volume   329.36064618
_cell_formula_units_Z   2
loop_
 _symmetry_equiv_pos_site_id
 _symmetry_equiv_pos_as_xyz
  1  'x, y, z'
loop_
 _atom_site_type_symbol
 _atom_site_label
 _atom_site_symmetry_multiplicity
 _atom_site_fract_x
 _atom_site_fract_y
 _atom_site_fract_z
 _atom_site_occupancy
  Li  Li0  1  0.00000000  0.00000000  0.50000000  1
  Li  Li1  1  0.00000000  0.00000000  0.00000000  1
  Al  Al0  1  0.66666700  0.33333300  0.50000000  1
  Al  Al1  1  0.33333300  0.66666700  0.50000000  1
  Al  Al2  1  0.33333300  0.66666700  0.00000000  1
  Al  Al3  1  0.66666700  0.33333300  0.00000000  1
  H  H0  1  0.31134200  0.00000000  0.86671000  1
  H  H1  1  0.00000000  0.31134200  0.86671000  1
  H  H2  1  0.68865800  0.68865800  0.86671000  1
  H  H3  1  0.68865800  0.00000000  0.13329000  1
  H  H4  1  0.00000000  0.68865800  0.13329000  1
  H  H5  1  0.31134200  0.31134200  0.13329000  1
  H  H6  1  0.68865800  0.00000000  0.36671000  1
  H  H7  1  0.00000000  0.68865800  0.36671000  1
  H  H8  1  0.31134200  0.31134200  0.36671000  1
  H  H9  1  0.31134200  0.00000000  0.63329000  1
  H  H10  1  0.00000000  0.31134200  0.63329000  1
  H  H11  1  0.68865800  0.68865800  0.63329000  1
  Cl  Cl0  1  0.00000000  0.00000000  0.25000000  1
  Cl  Cl1  1  0.00000000  0.00000000  0.75000000  1
  O  O0  1  0.36793600  0.00000000  0.93223000  1
  O  O1  1  0.00000000  0.36793600  0.93223000  1
  O  O2  1  0.63206400  0.63206400  0.93223000  1
  O  O3  1  0.63206400  0.00000000  0.06777000  1
  O  O4  1  0.00000000  0.63206400  0.06777000  1
  O  O5  1  0.36793600  0.36793600  0.06777000  1
  O  O6  1  0.63206400  0.00000000  0.43223000  1
  O  O7  1  0.00000000  0.63206400  0.43223000  1
  O  O8  1  0.36793600  0.36793600  0.43223000  1
  O  O9  1  0.36793600  0.00000000  0.56777000  1
  O  O10  1  0.00000000  0.36793600  0.56777000  1
  O  O11  1  0.63206400  0.63206400  0.56777000  1
loop_
_geom_bond_atom_site_label_1
_geom_bond_atom_site_label_2
_geom_bond_distance
_geom_bond_site_symmetry_2
Li0 O11 2.131063 1_445
Li0 O8 2.131063 1_555
Li0 O6 2.131063 1_455
Li0 O9 2.131063 1_555
Li0 O7 2.131063 1_545
Li0 O10 2.131063 1_555
Li1 O2 2.131063 1_444
Li1 O5 2.131063 1_555
Li1 O4 2.131063 1_545
Li1 O3 2.131063 1_455
Li1 O0 2.131063 1_554
Li1 O1 2.131063 1_554
Al0 O6 1.902671 1_555
Al0 O10 1.902671 1_655
Al0 O7 1.902673 1_655
Al0 O9 1.902673 1_555
Al0 O11 1.902676 1_555
Al0 O8 1.902676 1_555
Al1 O9 1.902671 1_565
Al1 O7 1.902671 1_555
Al1 O10 1.902673 1_555
Al1 O6 1.902673 1_565
Al1 O11 1.902676 1_555
Al1 O8 1.902676 1_555
Al2 O0 1.902671 1_564
Al2 O4 1.902671 1_555
Al2 O1 1.902673 1_554
Al2 O3 1.902673 1_565
Al2 O2 1.902676 1_554
Al2 O5 1.902676 1_555
Al3 O3 1.902671 1_555
Al3 O1 1.902671 1_654
Al3 O4 1.902673 1_655
Al3 O0 1.902673 1_554
Al3 O2 1.902676 1_554
Al3 O5 1.902676 1_555
H0 O0 0.980424 1_555
H1 O1 0.980424 1_555
H2 O2 0.980424 1_555
H3 O3 0.980424 1_555
H4 O4 0.980424 1_555
H5 O5 0.980424 1_555
H6 O6 0.980424 1_555
H7 O7 0.980424 1_555
H8 O8 0.980424 1_555
H9 O9 0.980424 1_555
H10 O10 0.980424 1_555
H11 O11 0.980424 1_555
