# generated using pymatgen
data_Er4Si2S3O7
_symmetry_space_group_name_H-M   'P 1'
_cell_length_a   10.67867378
_cell_length_b   10.67867378
_cell_length_c   10.67867378
_cell_angle_alpha   113.78751902
_cell_angle_beta   113.78751902
_cell_angle_gamma   101.14590124
_symmetry_Int_Tables_number   1
_chemical_formula_structural   Er4Si2S3O7
_chemical_formula_sum   'Er16 Si8 S12 O28'
_cell_volume   922.87608572
_cell_formula_units_Z   4
loop_
 _symmetry_equiv_pos_site_id
 _symmetry_equiv_pos_as_xyz
  1  'x, y, z'
loop_
 _atom_site_type_symbol
 _atom_site_label
 _atom_site_symmetry_multiplicity
 _atom_site_fract_x
 _atom_site_fract_y
 _atom_site_fract_z
 _atom_site_occupancy
  Er  Er0  1  0.92241100  0.42241100  0.84482300  1
  Er  Er1  1  0.17241100  0.82758900  0.00000000  1
  Er  Er2  1  0.82758900  0.17241100  0.00000000  1
  Er  Er3  1  0.57758900  0.07758900  0.15517700  1
  Er  Er4  1  0.82758900  0.82758900  0.65517700  1
  Er  Er5  1  0.57758900  0.42241100  0.50000000  1
  Er  Er6  1  0.92241100  0.07758900  0.50000000  1
  Er  Er7  1  0.17241100  0.17241100  0.34482300  1
  Er  Er8  1  0.53382400  0.29836600  0.76454200  1
  Er  Er9  1  0.53382400  0.76928300  0.23545800  1
  Er  Er10  1  0.70163400  0.46617600  0.23545800  1
  Er  Er11  1  0.51928300  0.78382400  0.73545800  1
  Er  Er12  1  0.04836600  0.78382400  0.26454200  1
  Er  Er13  1  0.21617600  0.48071700  0.26454200  1
  Er  Er14  1  0.21617600  0.95163400  0.73545800  1
  Er  Er15  1  0.23071700  0.46617600  0.76454200  1
  Si  Si0  1  0.77944500  0.90464600  0.12520100  1
  Si  Si1  1  0.77944500  0.65424400  0.87479900  1
  Si  Si2  1  0.09535400  0.22055500  0.87479900  1
  Si  Si3  1  0.40424400  0.02944500  0.37479900  1
  Si  Si4  1  0.65464600  0.02944500  0.62520100  1
  Si  Si5  1  0.97055500  0.59575600  0.62520100  1
  Si  Si6  1  0.97055500  0.34535400  0.37479900  1
  Si  Si7  1  0.34575600  0.22055500  0.12520100  1
  S  S0  1  0.00000000  0.00000000  0.00000000  1
  S  S1  1  0.75000000  0.25000000  0.50000000  1
  S  S2  1  0.25000000  0.75000000  0.50000000  1
  S  S3  1  0.50000000  0.50000000  0.00000000  1
  S  S4  1  0.37500000  0.47933700  0.60433700  1
  S  S5  1  0.22933700  0.12500000  0.60433700  1
  S  S6  1  0.52066300  0.62500000  0.39566300  1
  S  S7  1  0.87500000  0.77066300  0.39566300  1
  S  S8  1  0.37500000  0.77066300  0.89566300  1
  S  S9  1  0.52066300  0.12500000  0.89566300  1
  S  S10  1  0.22933700  0.62500000  0.10433700  1
  S  S11  1  0.87500000  0.47933700  0.10433700  1
  O  O0  1  0.27488800  0.27488800  0.00000000  1
  O  O1  1  0.02488800  0.52488800  0.50000000  1
  O  O2  1  0.47511200  0.97511200  0.50000000  1
  O  O3  1  0.72511200  0.72511200  0.00000000  1
  O  O4  1  0.70103300  0.46731100  0.76627800  1
  O  O5  1  0.70103300  0.93475400  0.23372200  1
  O  O6  1  0.53268900  0.29896700  0.23372200  1
  O  O7  1  0.68475400  0.95103300  0.73372200  1
  O  O8  1  0.21731100  0.95103300  0.26627800  1
  O  O9  1  0.04896700  0.31524600  0.26627800  1
  O  O10  1  0.04896700  0.78268900  0.73372200  1
  O  O11  1  0.06524600  0.29896700  0.76627800  1
  O  O12  1  0.79175300  0.55756100  0.51702400  1
  O  O13  1  0.04053700  0.27473000  0.48297600  1
  O  O14  1  0.44243900  0.20824700  0.48297600  1
  O  O15  1  0.02473000  0.04175300  0.73419200  1
  O  O16  1  0.30756100  0.29053700  0.26580800  1
  O  O17  1  0.95824700  0.97527000  0.26580800  1
  O  O18  1  0.70946300  0.69243900  0.73419200  1
  O  O19  1  0.72527000  0.95946300  0.51702400  1
  O  O20  1  0.95824700  0.69243900  0.98297600  1
  O  O21  1  0.70946300  0.97527000  0.01702400  1
  O  O22  1  0.30756100  0.04175300  0.01702400  1
  O  O23  1  0.72527000  0.20824700  0.76580800  1
  O  O24  1  0.44243900  0.95946300  0.23419200  1
  O  O25  1  0.79175300  0.27473000  0.23419200  1
  O  O26  1  0.04053700  0.55756100  0.76580800  1
  O  O27  1  0.02473000  0.29053700  0.98297600  1
loop_
_geom_bond_atom_site_label_1
_geom_bond_atom_site_label_2
_geom_bond_distance
_geom_bond_site_symmetry_2
Er0 O23 2.350137 1_555
Er0 O26 2.350144 1_655
Er0 O4 2.384348 1_555
Er0 O11 2.384361 1_655
Er0 O27 2.514747 1_655
Er0 O20 2.514750 1_555
Er0 S1 2.844296 1_555
Er0 S11 2.863147 1_556
Er0 S10 2.863155 1_656
Er1 O20 2.350135 1_454
Er1 O22 2.350135 1_565
Er1 O8 2.384348 1_555
Er1 O10 2.384348 1_554
Er1 O24 2.514750 1_555
Er1 O26 2.514750 1_554
Er1 S0 2.844288 1_565
Er1 S10 2.863157 1_555
Er1 S8 2.863157 1_554
Er2 O21 2.350144 1_545
Er2 O27 2.350144 1_654
Er2 O7 2.384347 1_544
Er2 O9 2.384347 1_655
Er2 O25 2.514751 1_555
Er2 O23 2.514751 1_554
Er2 S0 2.844288 1_655
Er2 S9 2.863157 1_554
Er2 S11 2.863157 1_555
Er3 O25 2.350137 1_555
Er3 O24 2.350144 1_545
Er3 O6 2.384348 1_555
Er3 O5 2.384361 1_545
Er3 O21 2.514747 1_545
Er3 O22 2.514750 1_555
Er3 S1 2.844296 1_555
Er3 S9 2.863147 1_554
Er3 S8 2.863155 1_544
Er4 O15 2.350137 1_665
Er4 O18 2.350144 1_555
Er4 O10 2.384348 1_655
Er4 O7 2.384361 1_555
Er4 O19 2.514747 1_555
Er4 O12 2.514750 1_555
Er4 S0 2.844296 1_666
Er4 S7 2.863147 1_555
Er4 S6 2.863155 1_555
Er5 O12 2.350135 1_555
Er5 O14 2.350135 1_555
Er5 O4 2.384348 1_555
Er5 O6 2.384348 1_555
Er5 O18 2.514750 1_555
Er5 O16 2.514750 1_555
Er5 S1 2.844288 1_555
Er5 S4 2.863157 1_555
Er5 S6 2.863157 1_555
Er6 O19 2.350144 1_545
Er6 O13 2.350144 1_655
Er6 O11 2.384347 1_655
Er6 O5 2.384347 1_545
Er6 O15 2.514751 1_655
Er6 O17 2.514751 1_545
Er6 S1 2.844288 1_555
Er6 S5 2.863157 1_655
Er6 S7 2.863157 1_545
Er7 O17 2.350137 1_445
Er7 O16 2.350144 1_555
Er7 O8 2.384348 1_545
Er7 O9 2.384361 1_555
Er7 O13 2.514747 1_555
Er7 O14 2.514750 1_555
Er7 S0 2.844296 1_555
Er7 S5 2.863147 1_555
Er7 S4 2.863155 1_555
Er8 O4 2.268105 1_555
Er8 O23 2.419642 1_555
Er8 O14 2.419652 1_555
Er8 S9 2.748993 1_555
Er8 S5 2.748993 1_555
Er8 S3 2.784726 1_556
Er8 S4 3.336393 1_555
Er8 S11 3.336393 1_556
Er9 O5 2.268091 1_555
Er9 O24 2.419642 1_555
Er9 O19 2.419648 1_555
Er9 S10 2.748994 1_555
Er9 S6 2.749001 1_555
Er9 S3 2.784733 1_555
Er9 S8 3.336387 1_554
Er9 S7 3.336398 1_555
Er10 O6 2.268105 1_555
Er10 O25 2.419642 1_555
Er10 O12 2.419652 1_555
Er10 S11 2.748993 1_555
Er10 S7 2.748993 1_555
Er10 S3 2.784726 1_555
Er10 S6 3.336393 1_555
Er10 S9 3.336393 1_554
Er11 O7 2.268091 1_555
Er11 O18 2.419642 1_555
Er11 O21 2.419648 1_556
Er11 S4 2.748994 1_555
Er11 S8 2.749001 1_555
Er11 S2 2.784733 1_555
Er11 S6 3.336387 1_555
Er11 S9 3.336398 1_565
Er12 O8 2.268105 1_555
Er12 O17 2.419642 1_455
Er12 O20 2.419652 1_454
Er12 S7 2.748993 1_455
Er12 S11 2.748993 1_455
Er12 S2 2.784726 1_555
Er12 S10 3.336393 1_555
Er12 S5 3.336393 1_565
Er13 O9 2.268091 1_555
Er13 O16 2.419642 1_555
Er13 O27 2.419648 1_554
Er13 S6 2.748994 1_555
Er13 S10 2.749001 1_555
Er13 S2 2.784733 1_555
Er13 S4 3.336387 1_555
Er13 S11 3.336398 1_455
Er14 O10 2.268105 1_555
Er14 O15 2.419642 1_565
Er14 O22 2.419652 1_566
Er14 S5 2.748993 1_565
Er14 S9 2.748993 1_565
Er14 S2 2.784726 1_555
Er14 S7 3.336393 1_455
Er14 S8 3.336393 1_555
Er15 O11 2.268091 1_555
Er15 O26 2.419642 1_555
Er15 O13 2.419648 1_555
Er15 S8 2.748994 1_555
Er15 S4 2.749001 1_555
Er15 S3 2.784733 1_556
Er15 S10 3.336387 1_556
Er15 S5 3.336398 1_555
O0 Si7 1.635905 1_555
O0 Si2 1.635905 1_554
O1 Si6 1.635905 1_455
O1 Si5 1.635905 1_455
O2 Si3 1.635905 1_565
O2 Si4 1.635905 1_565
O3 Si1 1.635905 1_554
O3 Si0 1.635905 1_555
O4 Si1 1.653408 1_555
O5 Si0 1.653407 1_555
O6 Si7 1.653408 1_555
O7 Si4 1.653407 1_565
O8 Si3 1.653408 1_565
O9 Si6 1.653407 1_455
O10 Si5 1.653408 1_455
O11 Si2 1.653407 1_555
O12 Si5 1.638910 1_555
O13 Si6 1.638901 1_455
O14 Si3 1.638910 1_555
O15 Si2 1.638911 1_555
O16 Si7 1.638910 1_555
O17 Si0 1.638911 1_555
O18 Si1 1.638910 1_555
O19 Si4 1.638901 1_565
O20 Si1 1.638910 1_555
O21 Si0 1.638901 1_555
O22 Si7 1.638910 1_555
O23 Si4 1.638911 1_555
O24 Si3 1.638910 1_565
O25 Si6 1.638911 1_555
O26 Si5 1.638910 1_455
O27 Si2 1.638901 1_555
