# generated using pymatgen
data_Li3Bi2(PO4)3
_symmetry_space_group_name_H-M   'P 1'
_cell_length_a   9.23342600
_cell_length_b   9.22418300
_cell_length_c   16.03576682
_cell_angle_alpha   56.32682854
_cell_angle_beta   90.00000000
_cell_angle_gamma   90.00000000
_symmetry_Int_Tables_number   1
_chemical_formula_structural   Li3Bi2(PO4)3
_chemical_formula_sum   'Li12 Bi8 P12 O48'
_cell_volume   1136.62040162
_cell_formula_units_Z   4
loop_
 _symmetry_equiv_pos_site_id
 _symmetry_equiv_pos_as_xyz
  1  'x, y, z'
loop_
 _atom_site_type_symbol
 _atom_site_label
 _atom_site_symmetry_multiplicity
 _atom_site_fract_x
 _atom_site_fract_y
 _atom_site_fract_z
 _atom_site_occupancy
  Li  Li0  1  0.23509400  0.39571900  0.81992100  1
  Li  Li1  1  0.26582300  0.00598100  0.18300400  1
  Li  Li2  1  0.09513000  0.23135200  0.71303700  1
  Li  Li3  1  0.76490600  0.60428100  0.18007900  1
  Li  Li4  1  0.23417700  0.00598100  0.68300400  1
  Li  Li5  1  0.73417700  0.99401900  0.81699600  1
  Li  Li6  1  0.76582300  0.99401900  0.31699600  1
  Li  Li7  1  0.73509400  0.60428100  0.68007900  1
  Li  Li8  1  0.40487000  0.23135200  0.21303700  1
  Li  Li9  1  0.26490600  0.39571900  0.31992100  1
  Li  Li10  1  0.90487000  0.76864800  0.28696300  1
  Li  Li11  1  0.59513000  0.76864800  0.78696300  1
  Bi  Bi0  1  0.94596000  0.16182100  0.09695100  1
  Bi  Bi1  1  0.55404000  0.16182100  0.59695100  1
  Bi  Bi2  1  0.44596000  0.83817900  0.40304900  1
  Bi  Bi3  1  0.05404000  0.83817900  0.90304900  1
  Bi  Bi4  1  0.55870600  0.34470600  0.89602300  1
  Bi  Bi5  1  0.05870600  0.65529400  0.60397700  1
  Bi  Bi6  1  0.94129400  0.34470600  0.39602300  1
  Bi  Bi7  1  0.44129400  0.65529400  0.10397700  1
  P  P0  1  0.74085300  0.57905800  0.99135100  1
  P  P1  1  0.75914700  0.57905800  0.49135100  1
  P  P2  1  0.58517800  0.26501000  0.33625800  1
  P  P3  1  0.08517800  0.73499000  0.16374200  1
  P  P4  1  0.25914700  0.42094200  0.00864900  1
  P  P5  1  0.91482200  0.26501000  0.83625800  1
  P  P6  1  0.24085300  0.42094200  0.50864900  1
  P  P7  1  0.10814500  0.05832000  0.33912500  1
  P  P8  1  0.60814500  0.94168000  0.16087500  1
  P  P9  1  0.39185500  0.05832000  0.83912500  1
  P  P10  1  0.89185500  0.94168000  0.66087500  1
  P  P11  1  0.41482200  0.73499000  0.66374200  1
  O  O0  1  0.52455400  0.04459900  0.78398300  1
  O  O1  1  0.83359400  0.58891700  0.57526200  1
  O  O2  1  0.72797600  0.36975800  0.29901000  1
  O  O3  1  0.97544600  0.04459900  0.28398300  1
  O  O4  1  0.65118400  0.42785300  0.54075800  1
  O  O5  1  0.04499800  0.38001500  0.76793600  1
  O  O6  1  0.34881600  0.57214700  0.45924200  1
  O  O7  1  0.39430100  0.23403200  0.83202300  1
  O  O8  1  0.60569900  0.76596800  0.16797700  1
  O  O9  1  0.12822800  0.43379700  0.57615800  1
  O  O10  1  0.84881600  0.42785300  0.04075800  1
  O  O11  1  0.54499800  0.61998500  0.73206400  1
  O  O12  1  0.15118400  0.57214700  0.95924200  1
  O  O13  1  0.44743200  0.79998500  0.55447900  1
  O  O14  1  0.02455400  0.95540100  0.71601700  1
  O  O15  1  0.40788900  0.89145100  0.67617800  1
  O  O16  1  0.94743200  0.20001500  0.94552100  1
  O  O17  1  0.66640600  0.58891700  0.07526200  1
  O  O18  1  0.88947700  0.09758500  0.54977500  1
  O  O19  1  0.25340900  0.05370500  0.29017500  1
  O  O20  1  0.27202400  0.63024200  0.70099000  1
  O  O21  1  0.16640600  0.41108300  0.42473800  1
  O  O22  1  0.81948400  0.75814600  0.92086800  1
  O  O23  1  0.33359400  0.41108300  0.92473800  1
  O  O24  1  0.89430100  0.76596800  0.66797700  1
  O  O25  1  0.24659100  0.05370500  0.79017500  1
  O  O26  1  0.38947700  0.90241500  0.95022500  1
  O  O27  1  0.74659100  0.94629500  0.70982500  1
  O  O28  1  0.77202400  0.36975800  0.79901000  1
  O  O29  1  0.47544600  0.95540100  0.21601700  1
  O  O30  1  0.05256800  0.79998500  0.05447900  1
  O  O31  1  0.87177200  0.56620300  0.42384200  1
  O  O32  1  0.37177200  0.43379700  0.07615800  1
  O  O33  1  0.31948400  0.24185400  0.57913200  1
  O  O34  1  0.22797600  0.63024200  0.20099000  1
  O  O35  1  0.90788900  0.10854900  0.82382200  1
  O  O36  1  0.10569900  0.23403200  0.33202300  1
  O  O37  1  0.61052300  0.09758500  0.04977500  1
  O  O38  1  0.45500200  0.38001500  0.26793600  1
  O  O39  1  0.09211100  0.89145100  0.17617800  1
  O  O40  1  0.62822800  0.56620300  0.92384200  1
  O  O41  1  0.75340900  0.94629500  0.20982500  1
  O  O42  1  0.59211100  0.10854900  0.32382200  1
  O  O43  1  0.95500200  0.61998500  0.23206400  1
  O  O44  1  0.18051600  0.24185400  0.07913200  1
  O  O45  1  0.55256800  0.20001500  0.44552100  1
  O  O46  1  0.68051600  0.75814600  0.42086800  1
  O  O47  1  0.11052300  0.90241500  0.45022500  1
loop_
_geom_bond_atom_site_label_1
_geom_bond_atom_site_label_2
_geom_bond_distance
_geom_bond_site_symmetry_2
Li0 O20 1.964244 1_555
Li0 O5 1.982592 1_555
Li0 O23 1.984079 1_555
Li0 O7 2.025351 1_555
Li1 O39 1.956775 1_545
Li1 O29 1.992573 1_545
Li1 O19 1.999835 1_555
Li1 O44 2.027304 1_555
Li2 O9 1.962942 1_555
Li2 O25 1.980747 1_555
Li2 O5 2.051444 1_555
Li2 O35 2.279616 1_455
Li3 O2 1.964244 1_555
Li3 O43 1.982592 1_555
Li3 O17 1.984079 1_555
Li3 O8 2.025351 1_555
Li4 O15 1.956775 1_545
Li4 O14 1.992573 1_545
Li4 O25 1.999835 1_555
Li4 O33 2.027304 1_555
Li5 O35 1.956775 1_565
Li5 O0 1.992573 1_565
Li5 O27 1.999835 1_555
Li5 O22 2.027304 1_555
Li6 O42 1.956775 1_565
Li6 O3 1.992573 1_565
Li6 O41 1.999835 1_555
Li6 O46 2.027304 1_555
Li7 O28 1.964244 1_555
Li7 O11 1.982592 1_555
Li7 O1 1.984079 1_555
Li7 O24 2.025351 1_555
Li8 O32 1.962942 1_555
Li8 O19 1.980747 1_555
Li8 O38 2.051444 1_555
Li8 O42 2.279616 1_555
Li9 O34 1.964244 1_555
Li9 O38 1.982592 1_555
Li9 O21 1.984079 1_555
Li9 O36 2.025351 1_555
Li10 O31 1.962942 1_555
Li10 O41 1.980747 1_555
Li10 O43 2.051444 1_555
Li10 O39 2.279616 1_655
Li11 O40 1.962942 1_555
Li11 O27 1.980747 1_555
Li11 O11 2.051444 1_555
Li11 O15 2.279616 1_555
Bi0 O16 2.252165 1_554
Bi0 O44 2.254600 1_655
Bi0 O10 2.277333 1_555
Bi0 O39 2.478178 1_645
Bi0 O41 2.529655 1_545
Bi0 O3 2.577273 1_555
Bi1 O45 2.252165 1_555
Bi1 O33 2.254600 1_555
Bi1 O4 2.277333 1_555
Bi1 O15 2.478178 1_545
Bi1 O27 2.529655 1_545
Bi1 O0 2.577273 1_555
Bi2 O13 2.252165 1_555
Bi2 O46 2.254600 1_555
Bi2 O6 2.277333 1_555
Bi2 O42 2.478178 1_565
Bi2 O19 2.529655 1_565
Bi2 O29 2.577273 1_555
Bi3 O30 2.252165 1_556
Bi3 O22 2.254600 1_455
Bi3 O12 2.277333 1_555
Bi3 O35 2.478178 1_465
Bi3 O25 2.529655 1_565
Bi3 O14 2.577273 1_555
Bi4 O23 2.284718 1_555
Bi4 O37 2.295994 1_556
Bi4 O7 2.358319 1_555
Bi4 O40 2.407520 1_555
Bi4 O28 2.440171 1_555
Bi4 O11 2.444007 1_555
Bi5 O1 2.284718 1_455
Bi5 O47 2.295994 1_555
Bi5 O24 2.358319 1_455
Bi5 O9 2.407520 1_555
Bi5 O20 2.440171 1_555
Bi5 O5 2.444007 1_555
Bi6 O21 2.284718 1_655
Bi6 O18 2.295994 1_555
Bi6 O36 2.358319 1_655
Bi6 O31 2.407520 1_555
Bi6 O2 2.440171 1_555
Bi6 O43 2.444007 1_555
Bi7 O17 2.284718 1_555
Bi7 O26 2.295994 1_554
Bi7 O8 2.358319 1_555
Bi7 O32 2.407520 1_555
Bi7 O34 2.440171 1_555
Bi7 O38 2.444007 1_555
O0 P9 1.556691 1_555
O1 P1 1.557904 1_555
O2 P2 1.545589 1_555
O3 P7 1.556691 1_655
O4 P1 1.530159 1_555
O5 P5 1.575310 1_455
O6 P6 1.530159 1_555
O7 P9 1.560699 1_555
O8 P8 1.560699 1_555
O9 P6 1.552341 1_555
O10 P0 1.530159 1_554
O11 P11 1.575310 1_555
O12 P4 1.530159 1_556
O13 P11 1.534654 1_555
O14 P10 1.556691 1_455
O15 P11 1.563943 1_555
O16 P5 1.534654 1_555
O17 P0 1.557904 1_554
O18 P10 1.549677 1_545
O19 P7 1.566543 1_555
O20 P11 1.545589 1_555
O21 P6 1.557904 1_555
O22 P0 1.569409 1_555
O23 P4 1.557904 1_556
O24 P10 1.560699 1_555
O25 P9 1.566543 1_555
O26 P9 1.549677 1_565
O27 P10 1.566543 1_555
O28 P5 1.545589 1_555
O29 P8 1.556691 1_555
O30 P3 1.534654 1_555
O31 P1 1.552341 1_555
O32 P4 1.552341 1_555
O33 P6 1.569409 1_555
O34 P3 1.545589 1_555
O35 P5 1.563943 1_555
O36 P7 1.560699 1_555
O37 P8 1.549677 1_545
O38 P2 1.575310 1_555
O39 P3 1.563943 1_555
O40 P0 1.552341 1_555
O41 P8 1.566543 1_555
O42 P2 1.563943 1_555
O43 P3 1.575310 1_655
O44 P4 1.569409 1_555
O45 P2 1.534654 1_555
O46 P1 1.569409 1_555
O47 P7 1.549677 1_565
