# generated using pymatgen
data_Li5SnP3
_symmetry_space_group_name_H-M   'P 1'
_cell_length_a   7.33119254
_cell_length_b   7.33119254
_cell_length_c   8.49873810
_cell_angle_alpha   73.13719108
_cell_angle_beta   73.13719108
_cell_angle_gamma   48.37178284
_symmetry_Int_Tables_number   1
_chemical_formula_structural   Li5SnP3
_chemical_formula_sum   'Li10 Sn2 P6'
_cell_volume   323.70457267
_cell_formula_units_Z   2
loop_
 _symmetry_equiv_pos_site_id
 _symmetry_equiv_pos_as_xyz
  1  'x, y, z'
loop_
 _atom_site_type_symbol
 _atom_site_label
 _atom_site_symmetry_multiplicity
 _atom_site_fract_x
 _atom_site_fract_y
 _atom_site_fract_z
 _atom_site_occupancy
  Li  Li0  1  0.08294500  0.57653300  0.09040400  1
  Li  Li1  1  0.57904600  0.08871000  0.07595600  1
  Li  Li2  1  0.42346700  0.91705500  0.40959600  1
  Li  Li3  1  0.08871000  0.57904600  0.57595600  1
  Li  Li4  1  0.75312800  0.24687200  0.75000000  1
  Li  Li5  1  0.57653300  0.08294500  0.59040400  1
  Li  Li6  1  0.42095400  0.91129000  0.92404400  1
  Li  Li7  1  0.91705500  0.42346700  0.90959600  1
  Li  Li8  1  0.24687200  0.75312800  0.25000000  1
  Li  Li9  1  0.91129000  0.42095400  0.42404400  1
  Sn  Sn0  1  0.26630700  0.73369300  0.75000000  1
  Sn  Sn1  1  0.73369300  0.26630700  0.25000000  1
  P  P0  1  0.00000000  0.00000000  0.00000000  1
  P  P1  1  0.00000000  0.00000000  0.50000000  1
  P  P2  1  0.32483200  0.34456700  0.82966100  1
  P  P3  1  0.67516800  0.65543300  0.17033900  1
  P  P4  1  0.34456700  0.32483200  0.32966100  1
  P  P5  1  0.65543300  0.67516800  0.67033900  1
loop_
_geom_bond_atom_site_label_1
_geom_bond_atom_site_label_2
_geom_bond_distance
_geom_bond_site_symmetry_2
Li0 P3 2.546658 1_455
Li0 P4 2.569438 1_555
Li0 P2 2.616705 1_554
Li0 P0 2.641440 1_565
Li0 Sn0 3.061326 1_554
Li1 P4 2.581126 1_555
Li1 P2 2.591159 1_554
Li1 P0 2.604783 1_655
Li1 P3 2.665628 1_545
Li1 Sn1 3.036427 1_555
Li2 P4 2.546658 1_565
Li2 P3 2.569438 1_555
Li2 P5 2.616705 1_555
Li2 P1 2.641440 1_565
Li2 Sn0 3.061326 1_555
Li3 P2 2.581126 1_555
Li3 P4 2.591159 1_555
Li3 P1 2.604783 1_565
Li3 P5 2.665628 1_455
Li3 Sn0 3.036427 1_555
Li4 P1 2.591056 1_655
Li4 P0 2.591056 1_656
Li4 P5 2.624998 1_555
Li4 P2 2.624998 1_555
Li4 Sn0 2.924410 1_555
Li4 Sn0 3.082746 1_645
Li5 P5 2.546658 1_545
Li5 P2 2.569438 1_555
Li5 P4 2.616705 1_555
Li5 P1 2.641440 1_655
Li5 Sn1 3.061326 1_555
Li6 P5 2.581126 1_555
Li6 P3 2.591159 1_556
Li6 P0 2.604783 1_566
Li6 P2 2.665628 1_565
Li6 Sn0 3.036427 1_555
Li7 P2 2.546658 1_655
Li7 P5 2.569438 1_555
Li7 P3 2.616705 1_556
Li7 P0 2.641440 1_656
Li7 Sn1 3.061326 1_556
Li8 P1 2.591056 1_565
Li8 P0 2.591056 1_565
Li8 P4 2.624998 1_555
Li8 P3 2.624998 1_555
Li8 Sn1 2.924410 1_555
Li8 Sn1 3.082746 1_465
Li9 P3 2.581126 1_555
Li9 P5 2.591159 1_555
Li9 P1 2.604783 1_655
Li9 P4 2.665628 1_655
Li9 Sn1 3.036427 1_555
P0 Sn0 2.659601 1_544
P0 Sn1 2.659601 1_455
P1 Sn0 2.659601 1_545
P1 Sn1 2.659601 1_455
P2 Sn0 2.490482 1_555
P3 Sn1 2.490482 1_555
P4 Sn1 2.490482 1_555
P5 Sn0 2.490482 1_555
