# generated using pymatgen
data_U6Ni
_symmetry_space_group_name_H-M   'P 1'
_cell_length_a   7.71527587
_cell_length_b   7.71527587
_cell_length_c   7.71527587
_cell_angle_alpha   96.29874589
_cell_angle_beta   96.29874589
_cell_angle_gamma   141.31324197
_symmetry_Int_Tables_number   1
_chemical_formula_structural   U6Ni
_chemical_formula_sum   'U12 Ni2'
_cell_volume   270.85869880
_cell_formula_units_Z   2
loop_
 _symmetry_equiv_pos_site_id
 _symmetry_equiv_pos_as_xyz
  1  'x, y, z'
loop_
 _atom_site_type_symbol
 _atom_site_label
 _atom_site_symmetry_multiplicity
 _atom_site_fract_x
 _atom_site_fract_y
 _atom_site_fract_z
 _atom_site_occupancy
  U  U0  1  0.10520100  0.78224200  0.88744300  1
  U  U1  1  0.59376700  0.09376700  0.68753300  1
  U  U2  1  0.90623300  0.59376700  0.50000000  1
  U  U3  1  0.89479900  0.21775800  0.11255700  1
  U  U4  1  0.40623300  0.90623300  0.31246700  1
  U  U5  1  0.78224200  0.89479900  0.67704100  1
  U  U6  1  0.21775800  0.10520100  0.32295900  1
  U  U7  1  0.39479900  0.28224200  0.67704100  1
  U  U8  1  0.28224200  0.60520100  0.88744300  1
  U  U9  1  0.60520100  0.71775800  0.32295900  1
  U  U10  1  0.09376700  0.40623300  0.50000000  1
  U  U11  1  0.71775800  0.39479900  0.11255700  1
  Ni  Ni0  1  0.25000000  0.25000000  0.00000000  1
  Ni  Ni1  1  0.75000000  0.75000000  0.00000000  1
loop_
_geom_bond_atom_site_label_1
_geom_bond_atom_site_label_2
_geom_bond_distance
_geom_bond_site_symmetry_2
U0 U2 2.821523 1_455
U0 U1 3.210858 1_455
U0 U1 3.210862 1_565
U0 U4 3.351762 1_556
U1 U4 2.730387 1_545
U1 U5 2.821523 1_545
U1 U7 2.821523 1_555
U1 U2 3.202844 1_555
U1 U10 3.202844 1_655
U1 U2 3.202848 1_445
U1 U10 3.202848 1_545
U1 U8 3.210858 1_655
U1 U8 3.210862 1_545
U1 U11 3.351762 1_556
U1 U3 3.351762 1_556
U2 U4 3.202844 1_655
U2 U4 3.202848 1_545
U2 U6 3.210856 1_665
U2 U6 3.210856 1_555
U2 U7 3.210856 1_555
U2 U7 3.210856 1_665
U2 U9 3.351755 1_555
U2 U5 3.351755 1_555
U3 U4 3.210858 1_655
U3 U4 3.210862 1_545
U4 U6 2.821523 1_565
U4 U9 2.821523 1_555
U4 U8 3.351762 1_554
U10 U2 2.730402 1_455
U10 U8 2.821523 1_555
U10 U3 2.821523 1_455
U10 U4 3.202844 1_555
U10 U4 3.202848 1_445
U10 U9 3.210856 1_445
U10 U5 3.210856 1_445
U10 U5 3.210856 1_555
U10 U9 3.210856 1_555
U10 U7 3.351755 1_555
U10 U6 3.351755 1_555
U11 U2 2.821523 1_555
U11 U4 3.210858 1_655
U11 U4 3.210862 1_545
Ni0 Ni1 2.555522 1_445
Ni0 Ni1 2.555522 1_555
Ni0 U3 2.798492 1_455
Ni0 U0 2.798492 1_544
Ni0 U7 2.798492 1_554
Ni0 U8 2.798492 1_554
Ni0 U9 2.798492 1_555
Ni0 U5 2.798492 1_444
Ni0 U6 2.798492 1_555
Ni0 U11 2.798492 1_555
Ni1 U3 2.798492 1_565
Ni1 U0 2.798492 1_654
Ni1 U6 2.798492 1_665
Ni1 U7 2.798492 1_554
Ni1 U5 2.798492 1_554
Ni1 U9 2.798492 1_555
Ni1 U8 2.798492 1_554
Ni1 U11 2.798492 1_555
