# generated using pymatgen
data_Li7Nb8O24
_symmetry_space_group_name_H-M   'P 1'
_cell_length_a   5.25922900
_cell_length_b   9.10118843
_cell_length_c   9.88556430
_cell_angle_alpha   107.94952497
_cell_angle_beta   90.00784186
_cell_angle_gamma   90.04972751
_symmetry_Int_Tables_number   1
_chemical_formula_structural   Li7Nb8O24
_chemical_formula_sum   'Li7 Nb8 O24'
_cell_volume   450.14445187
_cell_formula_units_Z   1
loop_
 _symmetry_equiv_pos_site_id
 _symmetry_equiv_pos_as_xyz
  1  'x, y, z'
loop_
 _atom_site_type_symbol
 _atom_site_label
 _atom_site_symmetry_multiplicity
 _atom_site_fract_x
 _atom_site_fract_y
 _atom_site_fract_z
 _atom_site_occupancy
  Li  Li0  1  0.00134600  0.14496900  0.43495800  1
  Li  Li1  1  0.00275500  0.64776200  0.93945900  1
  Li  Li2  1  0.99946900  0.36077300  0.08834400  1
  Li  Li3  1  0.49854000  0.64645900  0.44062300  1
  Li  Li4  1  0.00294600  0.89417600  0.68986000  1
  Li  Li5  1  0.49817900  0.39821700  0.68737400  1
  Li  Li6  1  0.49929900  0.89718200  0.19068300  1
  Nb  Nb0  1  0.99914100  0.50585100  0.51900700  1
  Nb  Nb1  1  0.49840400  0.00746800  0.52145400  1
  Nb  Nb2  1  0.50013600  0.50843300  0.02452300  1
  Nb  Nb3  1  0.99831200  0.75560400  0.27450800  1
  Nb  Nb4  1  0.00123400  0.00753400  0.02700400  1
  Nb  Nb5  1  0.50021500  0.25965800  0.27249500  1
  Nb  Nb6  1  0.49887100  0.75904800  0.77046600  1
  Nb  Nb7  1  0.99595400  0.25635000  0.76562800  1
  O  O0  1  0.69117300  0.18805300  0.62026900  1
  O  O1  1  0.80261700  0.43325300  0.87385000  1
  O  O2  1  0.91181300  0.12470200  0.87451000  1
  O  O3  1  0.69387400  0.68868400  0.12035100  1
  O  O4  1  0.62298300  0.37418200  0.12415900  1
  O  O5  1  0.80543900  0.93593000  0.37037900  1
  O  O6  1  0.68934000  0.06275000  0.12758200  1
  O  O7  1  0.87492000  0.62476700  0.37583900  1
  O  O8  1  0.19031600  0.18740500  0.12579700  1
  O  O9  1  0.81186000  0.31368700  0.37593300  1
  O  O10  1  0.31107100  0.43745600  0.37457500  1
  O  O11  1  0.62246600  0.87057700  0.62000600  1
  O  O12  1  0.37782600  0.11828000  0.36949000  1
  O  O13  1  0.68592800  0.56316700  0.62109000  1
  O  O14  1  0.19667900  0.68445900  0.61762900  1
  O  O15  1  0.81167800  0.81795100  0.87248800  1
  O  O16  1  0.12447000  0.36772100  0.61809300  1
  O  O17  1  0.28924700  0.92298500  0.86770800  1
  O  O18  1  0.18011900  0.06256500  0.61669300  1
  O  O19  1  0.38169000  0.61805000  0.86978500  1
  O  O20  1  0.30577300  0.32932600  0.86832900  1
  O  O21  1  0.12691000  0.86737900  0.12046700  1
  O  O22  1  0.17887800  0.56350600  0.11770200  1
  O  O23  1  0.31812900  0.81322900  0.36954100  1
loop_
_geom_bond_atom_site_label_1
_geom_bond_atom_site_label_2
_geom_bond_distance
_geom_bond_site_symmetry_2
Li0 O9 2.060627 1_455
Li0 O12 2.074253 1_555
Li0 O5 2.082414 1_445
Li0 O18 2.346333 1_555
Li0 O16 2.354152 1_555
Li0 O0 2.393712 1_455
Li1 O19 2.098979 1_555
Li1 O15 2.117048 1_455
Li1 O1 2.134430 1_455
Li1 O22 2.320423 1_556
Li1 O21 2.327289 1_556
Li1 O3 2.359388 1_456
Li2 O8 1.999214 1_655
Li2 O4 2.008663 1_555
Li2 O22 2.011419 1_655
Li2 O2 2.548692 1_554
Li2 O1 2.620256 1_554
Li3 O10 2.061002 1_555
Li3 O7 2.071356 1_555
Li3 O23 2.087451 1_555
Li3 O14 2.308782 1_555
Li3 O11 2.344757 1_555
Li3 O13 2.358597 1_555
Li4 O14 2.086763 1_555
Li4 O18 2.102618 1_565
Li4 O11 2.105842 1_455
Li4 O17 2.267471 1_555
Li4 O15 2.350277 1_455
Li4 O2 2.367498 1_465
Li5 O13 2.064457 1_555
Li5 O16 2.071352 1_555
Li5 O0 2.085750 1_555
Li5 O20 2.303849 1_555
Li5 O19 2.325658 1_555
Li5 O1 2.387348 1_555
Li6 O6 2.058059 1_565
Li6 O21 2.067289 1_555
Li6 O3 2.078886 1_555
Li6 O12 2.322062 1_565
Li6 O23 2.334472 1_555
Li6 O5 2.341870 1_555
Nb0 O13 1.918708 1_555
Nb0 O14 1.921507 1_655
Nb0 O16 1.932507 1_655
Nb0 O9 2.121624 1_555
Nb0 O7 2.132199 1_555
Nb0 O10 2.138214 1_655
Nb1 O18 1.910709 1_555
Nb1 O11 1.917399 1_545
Nb1 O0 1.921080 1_555
Nb1 O12 2.147248 1_555
Nb1 O23 2.153992 1_545
Nb1 O5 2.159854 1_545
Nb2 O4 1.903530 1_555
Nb2 O3 1.914626 1_555
Nb2 O22 1.916162 1_555
Nb2 O20 2.128741 1_554
Nb2 O1 2.142852 1_554
Nb2 O19 2.159783 1_554
Nb3 O7 1.891174 1_555
Nb3 O5 1.914440 1_555
Nb3 O23 1.918613 1_655
Nb3 O3 2.163890 1_555
Nb3 O22 2.166608 1_655
Nb3 O21 2.182898 1_655
Nb4 O6 1.904122 1_455
Nb4 O8 1.906323 1_555
Nb4 O21 1.909273 1_545
Nb4 O17 2.149907 1_544
Nb4 O2 2.149960 1_454
Nb4 O15 2.162475 1_444
Nb5 O10 1.903401 1_555
Nb5 O9 1.913631 1_555
Nb5 O12 1.936103 1_555
Nb5 O4 2.143528 1_555
Nb5 O8 2.145120 1_555
Nb5 O6 2.162005 1_555
Nb6 O17 1.866749 1_555
Nb6 O15 1.917226 1_555
Nb6 O19 1.940585 1_555
Nb6 O11 2.143552 1_555
Nb6 O14 2.152848 1_555
Nb6 O13 2.169658 1_555
Nb7 O2 1.893155 1_555
Nb7 O20 1.925850 1_655
Nb7 O1 1.926684 1_555
Nb7 O0 2.113683 1_555
Nb7 O16 2.126408 1_655
Nb7 O18 2.149239 1_655
