# generated using pymatgen
data_K2Mn2(SO4)3
_symmetry_space_group_name_H-M   'P 1'
_cell_length_a   10.30339900
_cell_length_b   10.30339900
_cell_length_c   10.30339900
_cell_angle_alpha   90.00000000
_cell_angle_beta   90.00000000
_cell_angle_gamma   90.00000000
_symmetry_Int_Tables_number   1
_chemical_formula_structural   K2Mn2(SO4)3
_chemical_formula_sum   'K8 Mn8 S12 O48'
_cell_volume   1093.80915676
_cell_formula_units_Z   4
loop_
 _symmetry_equiv_pos_site_id
 _symmetry_equiv_pos_as_xyz
  1  'x, y, z'
loop_
 _atom_site_type_symbol
 _atom_site_label
 _atom_site_symmetry_multiplicity
 _atom_site_fract_x
 _atom_site_fract_y
 _atom_site_fract_z
 _atom_site_occupancy
  K  K0  1  0.68517800  0.18517800  0.31482200  1
  K  K1  1  0.31482200  0.68517800  0.18517800  1
  K  K2  1  0.94791200  0.55208800  0.44791200  1
  K  K3  1  0.18517800  0.31482200  0.68517800  1
  K  K4  1  0.05208800  0.05208800  0.05208800  1
  K  K5  1  0.44791200  0.94791200  0.55208800  1
  K  K6  1  0.55208800  0.44791200  0.94791200  1
  K  K7  1  0.81482200  0.81482200  0.81482200  1
  Mn  Mn0  1  0.33320600  0.33320600  0.33320600  1
  Mn  Mn1  1  0.16679400  0.66679400  0.83320600  1
  Mn  Mn2  1  0.83320600  0.16679400  0.66679400  1
  Mn  Mn3  1  0.66679400  0.83320600  0.16679400  1
  Mn  Mn4  1  0.59303100  0.59303100  0.59303100  1
  Mn  Mn5  1  0.09303100  0.90696900  0.40696900  1
  Mn  Mn6  1  0.40696900  0.09303100  0.90696900  1
  Mn  Mn7  1  0.90696900  0.40696900  0.09303100  1
  S  S0  1  0.27821700  0.62431400  0.51556700  1
  S  S1  1  0.77821700  0.87568600  0.48443300  1
  S  S2  1  0.72178300  0.12431400  0.98443300  1
  S  S3  1  0.87568600  0.48443300  0.77821700  1
  S  S4  1  0.98443300  0.72178300  0.12431400  1
  S  S5  1  0.48443300  0.77821700  0.87568600  1
  S  S6  1  0.62431400  0.51556700  0.27821700  1
  S  S7  1  0.51556700  0.27821700  0.62431400  1
  S  S8  1  0.12431400  0.98443300  0.72178300  1
  S  S9  1  0.22178300  0.37568600  0.01556700  1
  S  S10  1  0.01556700  0.22178300  0.37568600  1
  S  S11  1  0.37568600  0.01556700  0.22178300  1
  O  O0  1  0.24445500  0.59103900  0.65170100  1
  O  O1  1  0.74445500  0.90896100  0.34829900  1
  O  O2  1  0.75554500  0.09103900  0.84829900  1
  O  O3  1  0.90896100  0.34829900  0.74445500  1
  O  O4  1  0.84829900  0.75554500  0.09103900  1
  O  O5  1  0.34829900  0.74445500  0.90896100  1
  O  O6  1  0.59103900  0.65170100  0.24445500  1
  O  O7  1  0.65170100  0.24445500  0.59103900  1
  O  O8  1  0.09103900  0.84829900  0.75554500  1
  O  O9  1  0.40896100  0.15170100  0.25554500  1
  O  O10  1  0.15170100  0.25554500  0.40896100  1
  O  O11  1  0.25554500  0.40896100  0.15170100  1
  O  O12  1  0.26293800  0.50594800  0.43431100  1
  O  O13  1  0.76293800  0.99405200  0.56568900  1
  O  O14  1  0.73706200  0.00594800  0.06568900  1
  O  O15  1  0.99405200  0.56568900  0.76293800  1
  O  O16  1  0.06568900  0.73706200  0.00594800  1
  O  O17  1  0.56568900  0.76293800  0.99405200  1
  O  O18  1  0.99210000  0.58568900  0.17415600  1
  O  O19  1  0.50594800  0.43431100  0.26293800  1
  O  O20  1  0.00594800  0.06568900  0.73706200  1
  O  O21  1  0.49405200  0.93431100  0.23706200  1
  O  O22  1  0.93431100  0.23706200  0.49405200  1
  O  O23  1  0.23706200  0.49405200  0.93431100  1
  O  O24  1  0.41431100  0.67415700  0.50790000  1
  O  O25  1  0.91431100  0.82584300  0.49210000  1
  O  O26  1  0.58568900  0.17415600  0.99210000  1
  O  O27  1  0.82584300  0.49210000  0.91431100  1
  O  O28  1  0.31147600  0.27587900  0.96269200  1
  O  O29  1  0.96269200  0.31147600  0.27587900  1
  O  O30  1  0.27587900  0.96269200  0.31147600  1
  O  O31  1  0.22412100  0.03730800  0.81147600  1
  O  O32  1  0.46269200  0.18852400  0.72412100  1
  O  O33  1  0.72412100  0.46269200  0.18852400  1
  O  O34  1  0.53730800  0.68852400  0.77587900  1
  O  O35  1  0.03730800  0.81147600  0.22412100  1
  O  O36  1  0.77587900  0.53730800  0.68852400  1
  O  O37  1  0.81147600  0.22412100  0.03730800  1
  O  O38  1  0.68852400  0.77587900  0.53730800  1
  O  O39  1  0.18852400  0.72412100  0.46269200  1
  O  O40  1  0.08568900  0.32584400  0.00790000  1
  O  O41  1  0.00790000  0.08568900  0.32584400  1
  O  O42  1  0.32584400  0.00790000  0.08568900  1
  O  O43  1  0.17415600  0.99210000  0.58568900  1
  O  O44  1  0.50790000  0.41431100  0.67415700  1
  O  O45  1  0.67415700  0.50790000  0.41431100  1
  O  O46  1  0.49210000  0.91431100  0.82584300  1
  O  O47  1  0.43431100  0.26293800  0.50594800  1
loop_
_geom_bond_atom_site_label_1
_geom_bond_atom_site_label_2
_geom_bond_distance
_geom_bond_site_symmetry_2
K0 O9 2.931137 1_555
K0 O1 2.931137 1_545
K0 O7 2.931137 1_555
K0 O37 3.167047 1_555
K0 O33 3.167047 1_555
K0 O29 3.167047 1_555
K0 O19 3.207033 1_555
K0 O14 3.207033 1_555
K0 O22 3.207033 1_555
K1 O11 2.931137 1_555
K1 O6 2.931137 1_555
K1 O5 2.931137 1_554
K1 O35 3.167047 1_555
K1 O39 3.167047 1_555
K1 O30 3.167047 1_555
K1 O16 3.207033 1_555
K1 O21 3.207033 1_555
K1 O12 3.207033 1_555
K2 O25 2.878014 1_555
K2 O45 2.878014 1_555
K2 O18 2.878025 1_555
K2 O39 3.051406 1_655
K2 O36 3.051406 1_555
K2 O29 3.051406 1_555
K2 O15 3.283460 1_555
K2 O22 3.283460 1_555
K2 O12 3.283460 1_655
K3 O10 2.931137 1_555
K3 O0 2.931137 1_555
K3 O3 2.931137 1_455
K3 O31 3.167047 1_555
K3 O32 3.167047 1_555
K3 O28 3.167047 1_555
K3 O20 3.207033 1_555
K3 O47 3.207033 1_555
K3 O23 3.207033 1_555
K4 O40 2.878025 1_555
K4 O41 2.878025 1_555
K4 O42 2.878025 1_555
K4 O31 3.051406 1_554
K4 O37 3.051406 1_455
K4 O35 3.051406 1_545
K4 O16 3.283460 1_545
K4 O14 3.283460 1_455
K4 O20 3.283460 1_554
K5 O46 2.878014 1_555
K5 O24 2.878014 1_555
K5 O43 2.878025 1_555
K5 O32 3.051406 1_565
K5 O38 3.051406 1_555
K5 O30 3.051406 1_555
K5 O21 3.283460 1_555
K5 O13 3.283460 1_555
K5 O47 3.283460 1_565
K6 O44 2.878014 1_555
K6 O27 2.878014 1_555
K6 O26 2.878025 1_555
K6 O33 3.051406 1_556
K6 O28 3.051406 1_555
K6 O34 3.051406 1_555
K6 O23 3.283460 1_555
K6 O17 3.283460 1_555
K6 O19 3.283460 1_556
K7 O4 2.931137 1_556
K7 O2 2.931137 1_565
K7 O8 2.931137 1_655
K7 O34 3.167047 1_555
K7 O38 3.167047 1_555
K7 O36 3.167047 1_555
K7 O15 3.207033 1_555
K7 O13 3.207033 1_555
K7 O17 3.207033 1_555
Mn0 O10 2.178727 1_555
Mn0 O11 2.178727 1_555
Mn0 O9 2.178727 1_555
Mn0 O12 2.185672 1_555
Mn0 O47 2.185672 1_555
Mn0 O19 2.185672 1_555
Mn1 O8 2.178727 1_555
Mn1 O0 2.178727 1_555
Mn1 O5 2.178727 1_555
Mn1 O15 2.185672 1_455
Mn1 O23 2.185672 1_555
Mn1 O16 2.185672 1_556
Mn2 O3 2.178727 1_555
Mn2 O2 2.178727 1_555
Mn2 O7 2.178727 1_555
Mn2 O13 2.185672 1_545
Mn2 O22 2.185672 1_555
Mn2 O20 2.185672 1_655
Mn3 O4 2.178727 1_555
Mn3 O6 2.178727 1_555
Mn3 O1 2.178727 1_555
Mn3 O17 2.185672 1_554
Mn3 O21 2.185672 1_555
Mn3 O14 2.185672 1_565
Mn4 O36 2.201587 1_555
Mn4 O34 2.201587 1_555
Mn4 O38 2.201587 1_555
Mn4 O24 2.204291 1_555
Mn4 O44 2.204291 1_555
Mn4 O45 2.204291 1_555
Mn5 O30 2.201587 1_555
Mn5 O39 2.201587 1_555
Mn5 O35 2.201587 1_555
Mn5 O41 2.204287 1_565
Mn5 O43 2.204287 1_555
Mn5 O25 2.204291 1_455
Mn6 O28 2.201587 1_555
Mn6 O32 2.201587 1_555
Mn6 O31 2.201587 1_555
Mn6 O42 2.204287 1_556
Mn6 O26 2.204287 1_555
Mn6 O46 2.204291 1_545
Mn7 O33 2.201587 1_555
Mn7 O29 2.201587 1_555
Mn7 O37 2.201587 1_555
Mn7 O40 2.204287 1_655
Mn7 O18 2.204287 1_555
Mn7 O27 2.204291 1_554
O0 S0 1.485247 1_555
O1 S1 1.485247 1_555
O2 S2 1.485247 1_555
O3 S3 1.485247 1_555
O4 S4 1.485247 1_555
O5 S5 1.485247 1_555
O6 S6 1.485247 1_555
O7 S7 1.485247 1_555
O8 S8 1.485247 1_555
O9 S11 1.485247 1_555
O10 S10 1.485247 1_555
O11 S9 1.485247 1_555
O12 S0 1.487637 1_555
O13 S1 1.487637 1_555
O14 S2 1.487637 1_554
O15 S3 1.487637 1_555
O16 S4 1.487637 1_455
O17 S5 1.487637 1_555
O18 S4 1.495399 1_555
O19 S6 1.487637 1_555
O20 S8 1.487637 1_545
O21 S11 1.487637 1_565
O22 S10 1.487637 1_655
O23 S9 1.487637 1_556
O24 S0 1.495402 1_555
O25 S1 1.495402 1_555
O26 S2 1.495399 1_555
O27 S3 1.495402 1_555
O28 S9 1.486050 1_556
O29 S10 1.486050 1_655
O30 S11 1.486050 1_565
O31 S8 1.486050 1_545
O32 S7 1.486050 1_555
O33 S6 1.486050 1_555
O34 S5 1.486050 1_555
O35 S4 1.486050 1_455
O36 S3 1.486050 1_555
O37 S2 1.486050 1_554
O38 S1 1.486050 1_555
O39 S0 1.486050 1_555
O40 S9 1.495399 1_555
O41 S10 1.495399 1_555
O42 S11 1.495399 1_555
O43 S8 1.495399 1_555
O44 S7 1.495402 1_555
O45 S6 1.495402 1_555
O46 S5 1.495402 1_555
O47 S7 1.487637 1_555
