# generated using pymatgen
data_RbMo3Br7
_symmetry_space_group_name_H-M   'P 1'
_cell_length_a   12.97590264
_cell_length_b   12.97590264
_cell_length_c   9.87035300
_cell_angle_alpha   69.71013102
_cell_angle_beta   69.71013102
_cell_angle_gamma   74.87520272
_symmetry_Int_Tables_number   1
_chemical_formula_structural   RbMo3Br7
_chemical_formula_sum   'Rb4 Mo12 Br28'
_cell_volume   1443.25528382
_cell_formula_units_Z   4
loop_
 _symmetry_equiv_pos_site_id
 _symmetry_equiv_pos_as_xyz
  1  'x, y, z'
loop_
 _atom_site_type_symbol
 _atom_site_label
 _atom_site_symmetry_multiplicity
 _atom_site_fract_x
 _atom_site_fract_y
 _atom_site_fract_z
 _atom_site_occupancy
  Rb  Rb0  1  0.56635443  0.43392838  0.24929378  1
  Rb  Rb1  1  0.95829306  0.04373009  0.49180374  1
  Rb  Rb2  1  0.43392838  0.56635443  0.74929378  1
  Rb  Rb3  1  0.04373009  0.95829306  0.99180374  1
  Mo  Mo0  1  0.34704508  0.04512362  0.05501017  1
  Mo  Mo1  1  0.51281125  0.06701620  0.13198860  1
  Mo  Mo2  1  0.13285628  0.51591854  0.34687505  1
  Mo  Mo3  1  0.48373793  0.86802833  0.15409769  1
  Mo  Mo4  1  0.04512362  0.34704508  0.55501017  1
  Mo  Mo5  1  0.06701620  0.51281125  0.63198860  1
  Mo  Mo6  1  0.93369601  0.48646841  0.36901712  1
  Mo  Mo7  1  0.95580743  0.65243111  0.44568104  1
  Mo  Mo8  1  0.51591854  0.13285628  0.84687505  1
  Mo  Mo9  1  0.86802833  0.48373793  0.65409769  1
  Mo  Mo10  1  0.48646841  0.93369601  0.86901712  1
  Mo  Mo11  1  0.65243111  0.95580743  0.94568104  1
  Br  Br0  1  0.12880596  0.11036176  0.13293913  1
  Br  Br1  1  0.37665550  0.24390612  0.03172276  1
  Br  Br2  1  0.02237314  0.65501311  0.15985720  1
  Br  Br3  1  0.32207216  0.53762862  0.13136484  1
  Br  Br4  1  0.11072935  0.35077405  0.27076469  1
  Br  Br5  1  0.31700857  0.84657697  0.07626509  1
  Br  Br6  1  0.53069225  0.16069595  0.31500350  1
  Br  Br7  1  0.84025471  0.46746207  0.18625028  1
  Br  Br8  1  0.11036176  0.12880596  0.63293913  1
  Br  Br9  1  0.15318180  0.68250334  0.42500972  1
  Br  Br10  1  0.24390612  0.37665550  0.53172276  1
  Br  Br11  1  0.64877516  0.89017867  0.22944093  1
  Br  Br12  1  0.46192307  0.67845891  0.36813243  1
  Br  Br13  1  0.34374958  0.97865970  0.33948179  1
  Br  Br14  1  0.65501311  0.02237314  0.65985720  1
  Br  Br15  1  0.53762862  0.32207216  0.63136484  1
  Br  Br16  1  0.35077405  0.11072935  0.77076469  1
  Br  Br17  1  0.75695537  0.62291403  0.46869860  1
  Br  Br18  1  0.84657697  0.31700857  0.57626509  1
  Br  Br19  1  0.89189122  0.87062970  0.36300086  1
  Br  Br20  1  0.16069595  0.53069225  0.81500350  1
  Br  Br21  1  0.46746207  0.84025471  0.68625028  1
  Br  Br22  1  0.68250334  0.15318180  0.92500972  1
  Br  Br23  1  0.89017867  0.64877516  0.72944093  1
  Br  Br24  1  0.67845891  0.46192307  0.86813243  1
  Br  Br25  1  0.97865970  0.34374958  0.83948179  1
  Br  Br26  1  0.62291403  0.75695537  0.96869860  1
  Br  Br27  1  0.87062970  0.89189122  0.86300086  1
loop_
_geom_bond_atom_site_label_1
_geom_bond_atom_site_label_2
_geom_bond_distance
_geom_bond_site_symmetry_2
Br0 Mo0 2.649065 1_555
Br0 Rb3 3.341052 1_544
Br0 Rb1 3.410058 1_455
Br1 Mo8 2.616990 1_554
Br1 Mo1 2.624930 1_555
Br1 Mo0 2.626483 1_555
Br2 Mo2 2.625783 1_555
Br2 Mo6 2.627453 1_455
Br2 Mo7 2.639278 1_455
Br2 Rb3 3.746751 1_554
Br3 Mo2 2.637348 1_555
Br3 Rb2 3.461016 1_554
Br3 Rb0 3.529856 1_555
Br4 Mo2 2.612651 1_555
Br4 Mo6 2.616527 1_455
Br4 Mo4 2.620945 1_555
Br5 Mo10 2.621328 1_554
Br5 Mo0 2.631689 1_565
Br5 Mo3 2.638844 1_555
Br5 Rb3 3.728319 1_554
Br6 Mo1 2.599115 1_555
Br6 Rb0 3.501163 1_555
Br7 Mo6 2.601315 1_555
Br7 Rb0 3.506226 1_555
Br8 Mo4 2.649065 1_555
Br8 Rb1 3.341052 1_455
Br8 Rb3 3.410058 1_545
Br9 Mo5 2.617805 1_555
Br9 Mo7 2.618602 1_455
Br9 Mo2 2.632781 1_555
Br10 Mo2 2.616990 1_555
Br10 Mo5 2.624930 1_555
Br10 Mo4 2.626483 1_555
Br11 Mo3 2.606846 1_555
Br11 Mo1 2.614715 1_565
Br11 Mo11 2.616627 1_554
Br12 Mo3 2.634108 1_555
Br12 Rb2 3.454635 1_555
Br12 Rb0 3.537685 1_555
Br13 Mo3 2.619992 1_555
Br13 Mo0 2.624134 1_565
Br13 Mo1 2.624769 1_565
Br14 Mo8 2.625783 1_555
Br14 Mo10 2.627453 1_545
Br14 Mo11 2.639278 1_545
Br14 Rb1 3.746751 1_555
Br15 Mo8 2.637348 1_555
Br15 Rb0 3.461016 1_555
Br15 Rb2 3.529856 1_555
Br16 Mo8 2.612651 1_555
Br16 Mo10 2.616527 1_545
Br16 Mo0 2.620945 1_556
Br17 Mo9 2.620364 1_555
Br17 Mo6 2.624229 1_555
Br17 Mo7 2.627736 1_555
Br18 Mo6 2.621328 1_555
Br18 Mo4 2.631689 1_655
Br18 Mo9 2.638844 1_555
Br18 Rb1 3.728319 1_555
Br19 Mo7 2.647973 1_555
Br19 Rb1 3.339745 1_565
Br19 Rb3 3.445611 1_654
Br20 Mo5 2.599115 1_555
Br20 Rb2 3.501163 1_555
Br21 Mo10 2.601315 1_555
Br21 Rb2 3.506226 1_555
Br22 Mo1 2.617805 1_556
Br22 Mo11 2.618602 1_545
Br22 Mo8 2.632781 1_555
Br23 Mo9 2.606846 1_555
Br23 Mo5 2.614715 1_655
Br23 Mo7 2.616627 1_555
Br24 Mo9 2.634108 1_555
Br24 Rb0 3.454635 1_556
Br24 Rb2 3.537685 1_555
Br25 Mo9 2.619992 1_555
Br25 Mo4 2.624134 1_655
Br25 Mo5 2.624769 1_655
Br26 Mo3 2.620364 1_556
Br26 Mo10 2.624229 1_555
Br26 Mo11 2.627736 1_555
Br27 Mo11 2.647973 1_555
Br27 Rb3 3.339745 1_655
Br27 Rb1 3.445611 1_565
