# generated using pymatgen
data_La4Rh3
_symmetry_space_group_name_H-M   'P 1'
_cell_length_a   7.78155891
_cell_length_b   7.78155888
_cell_length_c   7.78155718
_cell_angle_alpha   109.47122175
_cell_angle_beta   109.47122163
_cell_angle_gamma   109.47122356
_symmetry_Int_Tables_number   1
_chemical_formula_structural   La4Rh3
_chemical_formula_sum   'La8 Rh6'
_cell_volume   362.72527014
_cell_formula_units_Z   2
loop_
 _symmetry_equiv_pos_site_id
 _symmetry_equiv_pos_as_xyz
  1  'x, y, z'
loop_
 _atom_site_type_symbol
 _atom_site_label
 _atom_site_symmetry_multiplicity
 _atom_site_fract_x
 _atom_site_fract_y
 _atom_site_fract_z
 _atom_site_occupancy
  La  La0  1  0.39233773  0.50000000  -0.00000000  1
  La  La1  1  0.60766227  0.60766227  0.60766227  1
  La  La2  1  0.50000000  0.00000000  0.39233773  1
  La  La3  1  0.00000000  0.39233773  0.50000000  1
  La  La4  1  0.50000000  0.00000000  0.89233773  1
  La  La5  1  0.00000000  0.89233773  0.50000000  1
  La  La6  1  0.89233773  0.50000000  -0.00000000  1
  La  La7  1  0.10766227  0.10766227  0.10766227  1
  Rh  Rh0  1  0.75000000  0.87500000  0.12500000  1
  Rh  Rh1  1  0.62500000  0.37500000  0.25000000  1
  Rh  Rh2  1  0.87500000  0.12500000  0.75000000  1
  Rh  Rh3  1  0.12500000  0.75000000  0.87500000  1
  Rh  Rh4  1  0.37500000  0.25000000  0.62500000  1
  Rh  Rh5  1  0.25000000  0.62500000  0.37500000  1
loop_
_geom_bond_atom_site_label_1
_geom_bond_atom_site_label_2
_geom_bond_distance
_geom_bond_site_symmetry_2
La0 Rh4 2.845344 1_554
La0 Rh1 2.845344 1_555
La0 Rh0 2.845344 1_555
La0 Rh5 3.415970 1_555
La0 Rh2 3.415971 1_454
La0 Rh3 3.415971 1_554
La1 Rh1 2.845344 1_555
La1 Rh5 2.845344 1_555
La1 Rh4 2.845344 1_555
La1 Rh0 3.415970 1_556
La1 Rh3 3.415971 1_655
La1 Rh2 3.415971 1_565
La2 Rh2 2.845344 1_555
La2 Rh4 2.845344 1_555
La2 Rh5 2.845344 1_545
La2 Rh3 3.415970 1_544
La2 Rh0 3.415971 1_545
La2 Rh1 3.415971 1_555
La3 Rh3 2.845344 1_555
La3 Rh5 2.845344 1_555
La3 Rh1 2.845344 1_455
La3 Rh0 3.415970 1_445
La3 Rh2 3.415971 1_455
La3 Rh4 3.415971 1_555
La4 Rh1 2.845344 1_556
La4 Rh0 2.845344 1_546
La4 Rh3 2.845344 1_545
La4 Rh5 3.415970 1_545
La4 Rh4 3.415971 1_555
La4 Rh2 3.415971 1_555
La5 Rh0 2.845344 1_455
La5 Rh2 2.845344 1_465
La5 Rh4 2.845344 1_565
La5 Rh3 3.415970 1_555
La5 Rh1 3.415971 1_455
La5 Rh5 3.415971 1_555
La6 Rh5 2.845344 1_655
La6 Rh3 2.845344 1_654
La6 Rh2 2.845344 1_554
La6 Rh1 3.415971 1_555
La6 Rh4 3.415971 1_554
La6 Rh0 3.415971 1_555
La7 Rh2 2.845344 1_454
La7 Rh3 2.845344 1_544
La7 Rh0 2.845344 1_445
La7 Rh4 3.415970 1_555
La7 Rh5 3.415971 1_555
La7 Rh1 3.415971 1_555
