# generated using pymatgen
data_Mn2CrO4
_symmetry_space_group_name_H-M   'P 1'
_cell_length_a   6.05823387
_cell_length_b   6.05823353
_cell_length_c   6.02170906
_cell_angle_alpha   119.23848413
_cell_angle_beta   119.23848365
_cell_angle_gamma   91.37557342
_symmetry_Int_Tables_number   1
_chemical_formula_structural   Mn2CrO4
_chemical_formula_sum   'Mn4 Cr2 O8'
_cell_volume   157.95800743
_cell_formula_units_Z   2
loop_
 _symmetry_equiv_pos_site_id
 _symmetry_equiv_pos_as_xyz
  1  'x, y, z'
loop_
 _atom_site_type_symbol
 _atom_site_label
 _atom_site_symmetry_multiplicity
 _atom_site_fract_x
 _atom_site_fract_y
 _atom_site_fract_z
 _atom_site_occupancy
  Mn  Mn0  1  0.12500000  0.37500000  0.75000000  1
  Mn  Mn1  1  0.99927300  0.00072700  0.00000000  1
  Mn  Mn2  1  0.25072700  0.74927300  0.50000000  1
  Mn  Mn3  1  0.62500000  0.87500000  0.25000000  1
  Cr  Cr0  1  0.62500000  0.37500000  0.75000000  1
  Cr  Cr1  1  0.62500000  0.37500000  0.25000000  1
  O  O0  1  0.39837900  0.15787400  0.78164900  1
  O  O1  1  0.38925600  0.60758000  0.77176000  1
  O  O2  1  0.39242000  0.61074400  0.22824000  1
  O  O3  1  0.40787400  0.14837900  0.28164900  1
  O  O4  1  0.86074400  0.14242000  0.72824000  1
  O  O5  1  0.85162100  0.59212600  0.71835100  1
  O  O6  1  0.84212600  0.60162100  0.21835100  1
  O  O7  1  0.85758000  0.13925600  0.27176000  1
loop_
_geom_bond_atom_site_label_1
_geom_bond_atom_site_label_2
_geom_bond_distance
_geom_bond_site_symmetry_2
Mn0 O1 2.017892 1_555
Mn0 O4 2.017892 1_455
Mn0 O7 2.066654 1_455
Mn0 O2 2.066654 1_556
Mn0 O5 2.133243 1_455
Mn0 O0 2.133243 1_555
Mn1 O5 2.028439 1_544
Mn1 O3 2.028439 1_655
Mn1 O4 2.045586 1_554
Mn1 O7 2.045586 1_555
Mn2 O0 2.028439 1_565
Mn2 O6 2.028439 1_455
Mn2 O1 2.045586 1_555
Mn2 O2 2.045586 1_555
Mn3 O2 2.017892 1_555
Mn3 O7 2.017892 1_565
Mn3 O1 2.066653 1_554
Mn3 O4 2.066653 1_565
Mn3 O6 2.133243 1_555
Mn3 O3 2.133243 1_565
Cr0 O0 2.016262 1_555
Cr0 O5 2.016262 1_555
Cr0 O3 2.018868 1_555
Cr0 O6 2.018868 1_556
Cr0 O4 2.035024 1_555
Cr0 O1 2.035024 1_555
Cr1 O6 2.016262 1_555
Cr1 O3 2.016262 1_555
Cr1 O5 2.018868 1_555
Cr1 O0 2.018868 1_554
Cr1 O2 2.035024 1_555
Cr1 O7 2.035024 1_555
