# generated using pymatgen
data_KMnO4
_symmetry_space_group_name_H-M   'P 1'
_cell_length_a   6.16818300
_cell_length_b   7.48005200
_cell_length_c   9.03208400
_cell_angle_alpha   90.00000000
_cell_angle_beta   90.00000000
_cell_angle_gamma   90.00000000
_symmetry_Int_Tables_number   1
_chemical_formula_structural   KMnO4
_chemical_formula_sum   'K4 Mn4 O16'
_cell_volume   416.72526844
_cell_formula_units_Z   4
loop_
 _symmetry_equiv_pos_site_id
 _symmetry_equiv_pos_as_xyz
  1  'x, y, z'
loop_
 _atom_site_type_symbol
 _atom_site_label
 _atom_site_symmetry_multiplicity
 _atom_site_fract_x
 _atom_site_fract_y
 _atom_site_fract_z
 _atom_site_occupancy
  K  K0  1  0.75000000  0.83260900  0.68434500  1
  K  K1  1  0.25000000  0.16739100  0.31565500  1
  K  K2  1  0.25000000  0.33260900  0.81565500  1
  K  K3  1  0.75000000  0.66739100  0.18434500  1
  Mn  Mn0  1  0.25000000  0.82133500  0.91440500  1
  Mn  Mn1  1  0.25000000  0.67866500  0.41440500  1
  Mn  Mn2  1  0.75000000  0.32133500  0.58559500  1
  Mn  Mn3  1  0.75000000  0.17866500  0.08559500  1
  O  O0  1  0.75000000  0.01301400  0.97056200  1
  O  O1  1  0.46394200  0.80188700  0.43698200  1
  O  O2  1  0.53605800  0.30188700  0.06301800  1
  O  O3  1  0.96394200  0.30188700  0.06301800  1
  O  O4  1  0.46394200  0.69811300  0.93698200  1
  O  O5  1  0.25000000  0.51301400  0.52943800  1
  O  O6  1  0.53605800  0.19811300  0.56301800  1
  O  O7  1  0.25000000  0.98698600  0.02943800  1
  O  O8  1  0.96394200  0.19811300  0.56301800  1
  O  O9  1  0.75000000  0.48698600  0.47056200  1
  O  O10  1  0.03605800  0.69811300  0.93698200  1
  O  O11  1  0.25000000  0.60076700  0.24753400  1
  O  O12  1  0.03605800  0.80188700  0.43698200  1
  O  O13  1  0.75000000  0.10076700  0.25246600  1
  O  O14  1  0.75000000  0.39923300  0.75246600  1
  O  O15  1  0.25000000  0.89923300  0.74753400  1
loop_
_geom_bond_atom_site_label_1
_geom_bond_atom_site_label_2
_geom_bond_distance
_geom_bond_site_symmetry_2
K0 O12 2.856184 1_655
K0 O1 2.856184 1_555
K0 O0 2.916147 1_565
K0 O10 3.054867 1_655
K0 O4 3.054867 1_555
K0 O15 3.175800 1_655
K0 O15 3.175800 1_555
K0 O9 3.226772 1_555
K0 O8 3.227535 1_565
K0 O6 3.227535 1_565
K0 O14 3.299548 1_555
K1 O6 2.856184 1_555
K1 O8 2.856184 1_455
K1 O7 2.916147 1_545
K1 O2 3.054867 1_555
K1 O3 3.054867 1_455
K1 O13 3.175800 1_455
K1 O13 3.175800 1_555
K1 O5 3.226772 1_555
K1 O12 3.227535 1_545
K1 O1 3.227535 1_545
K1 O11 3.299548 1_555
K2 O3 2.856184 1_456
K2 O2 2.856184 1_556
K2 O5 2.916147 1_555
K2 O6 3.054867 1_555
K2 O8 3.054867 1_455
K2 O14 3.175800 1_455
K2 O14 3.175800 1_555
K2 O7 3.226772 1_546
K2 O10 3.227535 1_555
K2 O4 3.227535 1_555
K2 O15 3.299548 1_545
K3 O4 2.856184 1_554
K3 O10 2.856184 1_654
K3 O9 2.916147 1_555
K3 O12 3.054867 1_655
K3 O1 3.054867 1_555
K3 O11 3.175800 1_655
K3 O11 3.175800 1_555
K3 O0 3.226772 1_564
K3 O2 3.227535 1_555
K3 O3 3.227535 1_555
K3 O13 3.299548 1_565
Mn0 O15 1.615905 1_555
Mn0 O7 1.617037 1_556
Mn0 O10 1.622516 1_555
Mn0 O4 1.622516 1_555
Mn1 O11 1.615905 1_555
Mn1 O5 1.617037 1_555
Mn1 O12 1.622516 1_555
Mn1 O1 1.622516 1_555
Mn2 O14 1.615905 1_555
Mn2 O9 1.617037 1_555
Mn2 O8 1.622516 1_555
Mn2 O6 1.622516 1_555
Mn3 O13 1.615905 1_555
Mn3 O0 1.617037 1_554
Mn3 O3 1.622516 1_555
Mn3 O2 1.622516 1_555
