# generated using pymatgen
data_PC2S2N3
_symmetry_space_group_name_H-M   'P 1'
_cell_length_a   8.14895700
_cell_length_b   8.21492188
_cell_length_c   10.05533449
_cell_angle_alpha   99.50779999
_cell_angle_beta   103.97658418
_cell_angle_gamma   95.26952986
_symmetry_Int_Tables_number   1
_chemical_formula_structural   PC2S2N3
_chemical_formula_sum   'P4 C8 S8 N12'
_cell_volume   638.10102291
_cell_formula_units_Z   4
loop_
 _symmetry_equiv_pos_site_id
 _symmetry_equiv_pos_as_xyz
  1  'x, y, z'
loop_
 _atom_site_type_symbol
 _atom_site_label
 _atom_site_symmetry_multiplicity
 _atom_site_fract_x
 _atom_site_fract_y
 _atom_site_fract_z
 _atom_site_occupancy
  P  P0  1  0.06218600  0.26100500  0.42827800  1
  P  P1  1  0.06495200  0.46377500  0.70254500  1
  P  P2  1  0.93504800  0.53622500  0.29745500  1
  P  P3  1  0.93781400  0.73899500  0.57172200  1
  C  C0  1  0.79664000  0.01783600  0.27529200  1
  C  C1  1  0.20336000  0.98216400  0.72470800  1
  C  C2  1  0.57837700  0.43825500  0.19157000  1
  C  C3  1  0.06193100  0.71726700  0.12842300  1
  C  C4  1  0.40196400  0.22268900  0.47182000  1
  C  C5  1  0.93806900  0.28273300  0.87157700  1
  C  C6  1  0.42162300  0.56174500  0.80843000  1
  C  C7  1  0.59803600  0.77731100  0.52818000  1
  S  S0  1  0.85140400  0.14402100  0.93068800  1
  S  S1  1  0.14859600  0.85597900  0.06931200  1
  S  S2  1  0.39919900  0.75041600  0.47660800  1
  S  S3  1  0.60080100  0.24958400  0.52339200  1
  S  S4  1  0.37233600  0.07917300  0.82762200  1
  S  S5  1  0.37929400  0.40257000  0.14731700  1
  S  S6  1  0.62766400  0.92082700  0.17237800  1
  S  S7  1  0.62070600  0.59743000  0.85268300  1
  N  N0  1  0.73240800  0.46073100  0.22459700  1
  N  N1  1  0.04080500  0.38894100  0.32668900  1
  N  N2  1  0.95517800  0.69205400  0.41764000  1
  N  N3  1  0.24787000  0.19271200  0.42854900  1
  N  N4  1  0.99074300  0.60342500  0.16592500  1
  N  N5  1  0.04482200  0.30794600  0.58236000  1
  N  N6  1  0.93003100  0.08559400  0.35625400  1
  N  N7  1  0.06996900  0.91440600  0.64374600  1
  N  N8  1  0.75213000  0.80728800  0.57145100  1
  N  N9  1  0.95919500  0.61105900  0.67331100  1
  N  N10  1  0.26759200  0.53926900  0.77540300  1
  N  N11  1  0.00925700  0.39657500  0.83407500  1
loop_
_geom_bond_atom_site_label_1
_geom_bond_atom_site_label_2
_geom_bond_distance
_geom_bond_site_symmetry_2
C0 N6 1.210723 1_555
C0 S6 1.561956 1_545
C1 N7 1.210723 1_555
C1 S4 1.561956 1_565
C2 N0 1.206525 1_555
C2 S5 1.560993 1_555
C3 N4 1.214848 1_455
C3 S1 1.558600 1_555
C4 N3 1.212698 1_555
C4 S3 1.560019 1_555
C5 N11 1.214848 1_655
C5 S0 1.558600 1_555
C6 N10 1.206525 1_555
C6 S7 1.560993 1_555
C7 N8 1.212698 1_555
C7 S2 1.560019 1_555
N0 P2 1.650927 1_555
N1 P2 1.574708 1_455
N1 P0 1.575039 1_555
N2 P2 1.575018 1_555
N2 P3 1.577257 1_555
N3 P0 1.660951 1_555
N4 P2 1.656831 1_555
N5 P1 1.575018 1_555
N5 P0 1.577257 1_555
N6 P0 1.659565 1_655
N7 P3 1.659565 1_455
N8 P3 1.660951 1_555
N9 P1 1.574708 1_655
N9 P3 1.575039 1_555
N10 P1 1.650927 1_555
N11 P1 1.656831 1_555
