# generated using pymatgen
data_Ta2Mn4O9
_symmetry_space_group_name_H-M   'P 1'
_cell_length_a   5.98868004
_cell_length_b   6.01917837
_cell_length_c   54.97147975
_cell_angle_alpha   51.38663759
_cell_angle_beta   51.61863319
_cell_angle_gamma   52.18267332
_symmetry_Int_Tables_number   1
_chemical_formula_structural   Ta2Mn4O9
_chemical_formula_sum   'Ta12 Mn24 O54'
_cell_volume   1128.35324634
_cell_formula_units_Z   6
loop_
 _symmetry_equiv_pos_site_id
 _symmetry_equiv_pos_as_xyz
  1  'x, y, z'
loop_
 _atom_site_type_symbol
 _atom_site_label
 _atom_site_symmetry_multiplicity
 _atom_site_fract_x
 _atom_site_fract_y
 _atom_site_fract_z
 _atom_site_occupancy
  Ta  Ta0  1  0.03471500  0.02913300  0.00216600  1
  Ta  Ta1  1  0.02036600  0.02864500  0.11440800  1
  Ta  Ta2  1  0.22576300  0.23257400  0.13441000  1
  Ta  Ta3  1  0.22248600  0.21638800  0.24690800  1
  Ta  Ta4  1  0.21782100  0.24604700  0.35664700  1
  Ta  Ta5  1  0.22341000  0.20524500  0.47075500  1
  Ta  Ta6  1  0.51700300  0.53373700  0.39208400  1
  Ta  Ta7  1  0.22211000  0.21619200  0.58034200  1
  Ta  Ta8  1  0.21990500  0.24643000  0.69007500  1
  Ta  Ta9  1  0.22204800  0.20340100  0.80439300  1
  Ta  Ta10  1  0.51418100  0.53259200  0.72562200  1
  Ta  Ta11  1  0.22189100  0.20961600  0.91414400  1
  Mn  Mn0  1  0.24475800  0.23114000  0.02289100  1
  Mn  Mn1  1  0.56106200  0.53867200  0.04902600  1
  Mn  Mn2  1  0.02312000  0.00816500  0.22487900  1
  Mn  Mn3  1  0.74041000  0.73908500  0.07882900  1
  Mn  Mn4  1  0.50991000  0.50499200  0.16978000  1
  Mn  Mn5  1  0.01939000  0.03140500  0.33299400  1
  Mn  Mn6  1  0.71762900  0.70638800  0.19587600  1
  Mn  Mn7  1  0.53190400  0.51563800  0.27766400  1
  Mn  Mn8  1  0.01624200  0.99710500  0.44975200  1
  Mn  Mn9  1  0.74143900  0.72211200  0.30027500  1
  Mn  Mn10  1  0.02300200  0.01577500  0.55783800  1
  Mn  Mn11  1  0.72473400  0.73216300  0.41614200  1
  Mn  Mn12  1  0.50770600  0.50543500  0.50358800  1
  Mn  Mn13  1  0.02476400  0.03095900  0.66607200  1
  Mn  Mn14  1  0.71862900  0.71945900  0.52724900  1
  Mn  Mn15  1  0.53335700  0.51701000  0.60976800  1
  Mn  Mn16  1  0.01429500  0.99407000  0.78354700  1
  Mn  Mn17  1  0.74704700  0.71876800  0.63247800  1
  Mn  Mn18  1  0.01982000  0.01696300  0.89149700  1
  Mn  Mn19  1  0.72428600  0.73532600  0.74888300  1
  Mn  Mn20  1  0.51147400  0.50432300  0.83667400  1
  Mn  Mn21  1  0.71821300  0.71433800  0.86171800  1
  Mn  Mn22  1  0.50114000  0.52188700  0.94705900  1
  Mn  Mn23  1  0.72638800  0.74558500  0.96707200  1
  O  O0  1  0.13510400  0.39939100  0.09498400  1
  O  O1  1  0.40076000  0.85548000  0.01180000  1
  O  O2  1  0.83744300  0.12395800  0.04542200  1
  O  O3  1  0.26355400  0.63746000  0.10869900  1
  O  O4  1  0.66805300  0.90796200  0.03408300  1
  O  O5  1  0.10903700  0.40841200  0.20645300  1
  O  O6  1  0.93547200  0.28593300  0.07587700  1
  O  O7  1  0.40214000  0.84702500  0.12537600  1
  O  O8  1  0.84786500  0.11874700  0.15469700  1
  O  O9  1  0.34207100  0.57890600  0.21539300  1
  O  O10  1  0.61296100  0.98420100  0.14187800  1
  O  O11  1  0.13338700  0.39657400  0.31832100  1
  O  O12  1  0.96422500  0.30869300  0.17435700  1
  O  O13  1  0.41623200  0.85018800  0.23556900  1
  O  O14  1  0.85188900  0.10205900  0.27129100  1
  O  O15  1  0.33732100  0.58290600  0.33049300  1
  O  O16  1  0.57536400  0.95835900  0.25945000  1
  O  O17  1  0.15774500  0.43046300  0.42175000  1
  O  O18  1  0.96242600  0.33742000  0.28626900  1
  O  O19  1  0.38646600  0.82411500  0.35447600  1
  O  O20  1  0.79386100  0.18051800  0.37993800  1
  O  O21  1  0.35509400  0.57514100  0.43558900  1
  O  O22  1  0.57471500  0.94341500  0.37176600  1
  O  O23  1  0.10342500  0.41915000  0.53993300  1
  O  O24  1  0.93165700  0.36019100  0.39631800  1
  O  O25  1  0.41395200  0.84781000  0.45702500  1
  O  O26  1  0.85524700  0.13226300  0.48770300  1
  O  O27  1  0.33851200  0.57414900  0.55040200  1
  O  O28  1  0.58377100  0.95093500  0.48050500  1
  O  O29  1  0.13933700  0.39656600  0.65145100  1
  O  O30  1  0.97795100  0.32659800  0.50704100  1
  O  O31  1  0.41917500  0.85908400  0.56756400  1
  O  O32  1  0.85302500  0.09989100  0.60449400  1
  O  O33  1  0.33912900  0.58152700  0.66449600  1
  O  O34  1  0.57665400  0.95235900  0.59297400  1
  O  O35  1  0.15512700  0.43056800  0.75527400  1
  O  O36  1  0.95979900  0.33164900  0.62030100  1
  O  O37  1  0.38471100  0.82443300  0.68814800  1
  O  O38  1  0.79393500  0.18306000  0.71300000  1
  O  O39  1  0.35408200  0.57276100  0.76920300  1
  O  O40  1  0.57469100  0.94201400  0.70538300  1
  O  O41  1  0.11515600  0.41826000  0.87221400  1
  O  O42  1  0.92993100  0.36152700  0.72961700  1
  O  O43  1  0.41737000  0.84963900  0.78988500  1
  O  O44  1  0.85655800  0.12743400  0.82126200  1
  O  O45  1  0.32583800  0.57017100  0.88637400  1
  O  O46  1  0.57780300  0.94758500  0.81495100  1
  O  O47  1  0.10242100  0.41574100  0.98197800  1
  O  O48  1  0.97136300  0.32869800  0.84055400  1
  O  O49  1  0.41573800  0.86039600  0.90153700  1
  O  O50  1  0.84138000  0.13510000  0.93580700  1
  O  O51  1  0.28788200  0.65705400  0.99380900  1
  O  O52  1  0.58837100  0.94501400  0.92565300  1
  O  O53  1  0.96750700  0.27138500  0.95960700  1
loop_
_geom_bond_atom_site_label_1
_geom_bond_atom_site_label_2
_geom_bond_distance
_geom_bond_site_symmetry_2
Mn0 O51 2.092513 1_554
Mn0 O1 2.186374 1_545
Mn0 O4 2.232611 1_545
Mn0 O2 2.254139 1_455
Mn0 O47 2.262639 1_554
Mn0 O6 2.402890 1_455
Mn1 O1 2.017340 1_555
Mn1 O2 2.037996 1_555
Mn1 O4 2.200052 1_555
Mn1 O0 2.359838 1_555
Mn1 O6 2.577751 1_555
Mn2 O16 2.199637 1_445
Mn2 O5 2.218544 1_555
Mn2 O9 2.233613 1_545
Mn2 O13 2.251045 1_545
Mn2 O12 2.296393 1_455
Mn2 O14 2.391745 1_455
Mn3 O2 2.023023 1_565
Mn3 O4 2.221289 1_555
Mn3 O0 2.229363 1_655
Mn3 O7 2.257723 1_555
Mn3 O6 2.289212 1_555
Mn3 O3 2.508230 1_555
Mn4 O5 2.098620 1_555
Mn4 O7 2.160542 1_555
Mn4 O8 2.177315 1_555
Mn4 O9 2.282470 1_555
Mn4 O12 2.323506 1_555
Mn4 O10 2.557146 1_555
Mn5 O18 2.125811 1_455
Mn5 O15 2.183331 1_545
Mn5 O11 2.211666 1_555
Mn5 O22 2.277570 1_445
Mn5 O19 2.409340 1_545
Mn5 O20 2.522966 1_455
Mn6 O5 2.069945 1_655
Mn6 O13 2.078195 1_555
Mn6 O9 2.211492 1_555
Mn6 O8 2.249888 1_565
Mn6 O12 2.518011 1_555
Mn6 O10 2.613448 1_555
Mn7 O13 2.086523 1_555
Mn7 O14 2.096894 1_555
Mn7 O11 2.163139 1_555
Mn7 O16 2.316943 1_555
Mn7 O18 2.347640 1_555
Mn7 O15 2.577257 1_555
Mn8 O28 2.121824 1_455
Mn8 O26 2.145337 1_465
Mn8 O25 2.179346 1_555
Mn8 O21 2.315347 1_555
Mn8 O17 2.443558 1_565
Mn8 O24 2.477635 1_465
Mn9 O14 2.050544 1_565
Mn9 O18 2.215374 1_555
Mn9 O15 2.252957 1_555
Mn9 O16 2.258761 1_555
Mn9 O11 2.271214 1_655
Mn9 O19 2.567273 1_555
Mn10 O34 2.222886 1_445
Mn10 O23 2.226759 1_555
Mn10 O31 2.237447 1_545
Mn10 O27 2.245271 1_545
Mn10 O30 2.272989 1_455
Mn10 O32 2.370069 1_455
Mn11 O25 2.041820 1_555
Mn11 O17 2.153258 1_655
Mn11 O20 2.249145 1_565
Mn11 O21 2.302681 1_555
Mn11 O24 2.387921 1_555
Mn11 O22 2.413266 1_555
Mn12 O23 2.088858 1_555
Mn12 O26 2.144299 1_555
Mn12 O25 2.212663 1_555
Mn12 O27 2.323117 1_555
Mn12 O28 2.354053 1_555
Mn12 O30 2.411803 1_555
Mn13 O36 2.103838 1_455
Mn13 O33 2.171302 1_545
Mn13 O29 2.217854 1_555
Mn13 O40 2.305216 1_445
Mn13 O37 2.396698 1_545
Mn13 O38 2.524178 1_455
Mn14 O31 2.091641 1_555
Mn14 O23 2.092376 1_655
Mn14 O27 2.240817 1_555
Mn14 O26 2.260894 1_565
Mn14 O30 2.422928 1_555
Mn14 O28 2.434113 1_555
Mn15 O31 2.090649 1_555
Mn15 O32 2.092313 1_555
Mn15 O29 2.157372 1_555
Mn15 O34 2.302776 1_555
Mn15 O36 2.374424 1_555
Mn15 O33 2.667119 1_555
Mn16 O44 2.133175 1_465
Mn16 O46 2.140526 1_455
Mn16 O43 2.190190 1_555
Mn16 O39 2.317040 1_555
Mn16 O35 2.454146 1_565
Mn16 O42 2.498349 1_465
Mn17 O32 2.049470 1_565
Mn17 O36 2.178991 1_555
Mn17 O34 2.217072 1_555
Mn17 O33 2.251371 1_555
Mn17 O29 2.301971 1_655
Mn17 O37 2.639901 1_555
Mn18 O52 2.173006 1_445
Mn18 O45 2.220555 1_545
Mn18 O41 2.242324 1_555
Mn18 O49 2.247268 1_545
Mn18 O48 2.286986 1_455
Mn18 O50 2.361854 1_455
Mn19 O43 2.042634 1_555
Mn19 O35 2.159370 1_655
Mn19 O38 2.247143 1_565
Mn19 O39 2.311122 1_555
Mn19 O40 2.376732 1_555
Mn19 O42 2.378487 1_555
Mn20 O41 2.050574 1_555
Mn20 O44 2.147216 1_555
Mn20 O43 2.223580 1_555
Mn20 O46 2.331608 1_555
Mn20 O48 2.371915 1_555
Mn20 O45 2.428336 1_555
Mn21 O49 2.090628 1_555
Mn21 O41 2.093929 1_655
Mn21 O44 2.269648 1_565
Mn21 O45 2.277996 1_555
Mn21 O48 2.430026 1_555
Mn21 O46 2.453415 1_555
Mn22 O50 2.090363 1_555
Mn22 O47 2.107804 1_555
Mn22 O49 2.150049 1_555
Mn22 O52 2.296038 1_555
Mn22 O51 2.481379 1_555
Mn22 O53 2.545531 1_555
Mn23 O50 2.099023 1_565
Mn23 O47 2.112492 1_655
Mn23 O1 2.186303 1_556
Mn23 O52 2.239904 1_555
Mn23 O51 2.299131 1_555
Mn23 O53 2.464213 1_555
O0 Ta2 2.019090 1_555
O0 Ta1 2.141844 1_555
O1 Ta0 2.029616 1_565
O2 Ta0 2.180432 1_655
O3 Ta1 1.978195 1_565
O3 Ta2 1.992033 1_555
O4 Ta0 2.003638 1_665
O5 Ta3 2.109076 1_555
O6 Ta1 1.849533 1_655
O7 Ta2 2.128146 1_565
O7 Ta1 2.147089 1_565
O8 Ta1 2.058498 1_655
O8 Ta2 2.156035 1_655
O9 Ta3 1.983177 1_555
O10 Ta2 1.986305 1_565
O10 Ta1 2.006408 1_665
O11 Ta4 1.973299 1_555
O12 Ta2 1.894730 1_655
O13 Ta3 2.067333 1_565
O14 Ta3 2.055101 1_655
O15 Ta4 1.885125 1_555
O16 Ta3 1.949704 1_565
O17 Ta6 1.921616 1_555
O17 Ta5 2.313675 1_555
O18 Ta3 2.007357 1_655
O19 Ta6 1.939440 1_555
O19 Ta4 2.137163 1_565
O20 Ta6 1.946630 1_555
O20 Ta4 2.191394 1_655
O21 Ta5 2.050399 1_555
O21 Ta6 2.071165 1_555
O22 Ta4 2.029532 1_565
O22 Ta6 2.139134 1_555
O23 Ta7 2.107310 1_555
O24 Ta4 1.987466 1_655
O24 Ta6 2.131916 1_555
O25 Ta5 2.108848 1_565
O26 Ta5 2.012033 1_655
O27 Ta7 1.956573 1_555
O28 Ta5 1.910259 1_565
O29 Ta8 1.974876 1_555
O30 Ta5 1.879868 1_655
O31 Ta7 2.061748 1_565
O32 Ta7 2.057090 1_655
O33 Ta8 1.880088 1_555
O34 Ta7 1.957537 1_565
O35 Ta10 1.917083 1_555
O35 Ta9 2.320492 1_555
O36 Ta7 2.014291 1_655
O37 Ta10 1.930593 1_555
O37 Ta8 2.137529 1_565
O38 Ta10 1.941831 1_555
O38 Ta8 2.200543 1_655
O39 Ta9 2.049045 1_555
O39 Ta10 2.074491 1_555
O40 Ta8 2.025220 1_565
O40 Ta10 2.148181 1_555
O41 Ta11 2.128564 1_555
O42 Ta8 1.984270 1_655
O42 Ta10 2.135527 1_555
O43 Ta9 2.108366 1_565
O44 Ta9 2.009352 1_655
O45 Ta11 1.941511 1_555
O46 Ta9 1.908935 1_565
O47 Ta0 2.046028 1_556
O48 Ta9 1.884398 1_655
O49 Ta11 2.018211 1_565
O50 Ta11 2.007230 1_655
O51 Ta0 1.944446 1_566
O52 Ta11 1.983391 1_565
O53 Ta0 1.988310 1_656
O53 Ta11 2.107656 1_655
