# generated using pymatgen
data_ZnS
_symmetry_space_group_name_H-M   'P 1'
_cell_length_a   3.85322858
_cell_length_b   3.85322858
_cell_length_c   138.48421300
_cell_angle_alpha   90.00000000
_cell_angle_beta   90.00000000
_cell_angle_gamma   120.00000989
_symmetry_Int_Tables_number   1
_chemical_formula_structural   ZnS
_chemical_formula_sum   'Zn44 S44'
_cell_volume   1780.65752987
_cell_formula_units_Z   44
loop_
 _symmetry_equiv_pos_site_id
 _symmetry_equiv_pos_as_xyz
  1  'x, y, z'
loop_
 _atom_site_type_symbol
 _atom_site_label
 _atom_site_symmetry_multiplicity
 _atom_site_fract_x
 _atom_site_fract_y
 _atom_site_fract_z
 _atom_site_occupancy
  Zn  Zn0  1  0.00000000  0.00000000  0.47727200  1
  Zn  Zn1  1  0.33333300  0.66666700  0.70455000  1
  Zn  Zn2  1  0.66666700  0.33333300  0.38636200  1
  Zn  Zn3  1  0.66666700  0.33333300  0.79545300  1
  Zn  Zn4  1  0.00000000  0.00000000  0.81818300  1
  Zn  Zn5  1  0.33333300  0.66666700  0.15909300  1
  Zn  Zn6  1  0.66666700  0.33333300  0.25000200  1
  Zn  Zn7  1  0.00000000  0.00000000  0.86364200  1
  Zn  Zn8  1  0.33333300  0.66666700  0.63636200  1
  Zn  Zn9  1  0.33333300  0.66666700  0.22727200  1
  Zn  Zn10  1  0.00000000  0.00000000  0.27273100  1
  Zn  Zn11  1  0.66666700  0.33333300  0.11364000  1
  Zn  Zn12  1  0.00000000  0.00000000  0.06818300  1
  Zn  Zn13  1  0.66666700  0.33333300  0.88636200  1
  Zn  Zn14  1  0.00000000  0.00000000  0.54545200  1
  Zn  Zn15  1  0.33333300  0.66666700  0.56818300  1
  Zn  Zn16  1  0.00000000  0.00000000  0.93182000  1
  Zn  Zn17  1  0.33333300  0.66666700  0.09091000  1
  Zn  Zn18  1  0.00000000  0.00000000  0.13636200  1
  Zn  Zn19  1  0.66666700  0.33333300  0.04545200  1
  Zn  Zn20  1  0.00000000  0.00000000  0.68182000  1
  Zn  Zn21  1  0.66666700  0.33333300  0.31818300  1
  Zn  Zn22  1  0.33333300  0.66666700  0.97727200  1
  Zn  Zn23  1  0.00000000  0.00000000  0.61364000  1
  Zn  Zn24  1  0.33333300  0.66666700  0.50000200  1
  Zn  Zn25  1  0.00000000  0.00000000  0.75000200  1
  Zn  Zn26  1  0.33333300  0.66666700  0.84090800  1
  Zn  Zn27  1  0.66666700  0.33333300  0.59091000  1
  Zn  Zn28  1  0.00000000  0.00000000  0.34091000  1
  Zn  Zn29  1  0.66666700  0.33333300  0.95455000  1
  Zn  Zn30  1  0.33333300  0.66666700  0.77273100  1
  Zn  Zn31  1  0.33333300  0.66666700  0.36364000  1
  Zn  Zn32  1  0.33333300  0.66666700  0.02273300  1
  Zn  Zn33  1  0.33333300  0.66666700  0.29545200  1
  Zn  Zn34  1  0.00000000  0.00000000  0.20455000  1
  Zn  Zn35  1  0.00000000  0.00000000  0.40909300  1
  Zn  Zn36  1  0.66666700  0.33333300  0.18182000  1
  Zn  Zn37  1  0.66666700  0.33333300  0.52273100  1
  Zn  Zn38  1  0.33333300  0.66666700  0.43182000  1
  Zn  Zn39  1  0.66666700  0.33333300  0.45454300  1
  Zn  Zn40  1  0.00000000  0.00000000  0.00000000  1
  Zn  Zn41  1  0.33333300  0.66666700  0.90909300  1
  Zn  Zn42  1  0.66666700  0.33333300  0.65909300  1
  Zn  Zn43  1  0.66666700  0.33333300  0.72727200  1
  S  S0  1  0.33333300  0.66666700  0.17613700  1
  S  S1  1  0.33333300  0.66666700  0.65340800  1
  S  S2  1  0.66666700  0.33333300  0.26704700  1
  S  S3  1  0.33333300  0.66666700  0.58522700  1
  S  S4  1  0.00000000  0.00000000  0.63067900  1
  S  S5  1  0.66666700  0.33333300  0.90340800  1
  S  S6  1  0.33333300  0.66666700  0.44886000  1
  S  S7  1  0.66666700  0.33333300  0.60795100  1
  S  S8  1  0.33333300  0.66666700  0.10795100  1
  S  S9  1  0.33333300  0.66666700  0.99430900  1
  S  S10  1  0.00000000  0.00000000  0.35795100  1
  S  S11  1  0.33333300  0.66666700  0.31249800  1
  S  S12  1  0.00000000  0.00000000  0.28977000  1
  S  S13  1  0.66666700  0.33333300  0.81249700  1
  S  S14  1  0.33333300  0.66666700  0.78977000  1
  S  S15  1  0.33333300  0.66666700  0.51704700  1
  S  S16  1  0.33333300  0.66666700  0.85795900  1
  S  S17  1  0.00000000  0.00000000  0.42613600  1
  S  S18  1  0.00000000  0.00000000  0.76704700  1
  S  S19  1  0.66666700  0.33333300  0.19886100  1
  S  S20  1  0.00000000  0.00000000  0.94886200  1
  S  S21  1  0.66666700  0.33333300  0.67613700  1
  S  S22  1  0.00000000  0.00000000  0.01705500  1
  S  S23  1  0.66666700  0.33333300  0.33522700  1
  S  S24  1  0.66666700  0.33333300  0.74431700  1
  S  S25  1  0.33333300  0.66666700  0.03976900  1
  S  S26  1  0.33333300  0.66666700  0.38068000  1
  S  S27  1  0.00000000  0.00000000  0.15340700  1
  S  S28  1  0.66666700  0.33333300  0.53977000  1
  S  S29  1  0.00000000  0.00000000  0.49431800  1
  S  S30  1  0.66666700  0.33333300  0.47158700  1
  S  S31  1  0.66666700  0.33333300  0.06249800  1
  S  S32  1  0.00000000  0.00000000  0.56249800  1
  S  S33  1  0.00000000  0.00000000  0.88067800  1
  S  S34  1  0.66666700  0.33333300  0.40340800  1
  S  S35  1  0.00000000  0.00000000  0.22159000  1
  S  S36  1  0.00000000  0.00000000  0.69886200  1
  S  S37  1  0.33333300  0.66666700  0.92613700  1
  S  S38  1  0.66666700  0.33333300  0.97158900  1
  S  S39  1  0.66666700  0.33333300  0.13068000  1
  S  S40  1  0.00000000  0.00000000  0.08522800  1
  S  S41  1  0.33333300  0.66666700  0.24431800  1
  S  S42  1  0.00000000  0.00000000  0.83521900  1
  S  S43  1  0.33333300  0.66666700  0.72158900  1
loop_
_geom_bond_atom_site_label_1
_geom_bond_atom_site_label_2
_geom_bond_distance
_geom_bond_site_symmetry_2
S0 Zn36 2.359765 1_455
S0 Zn36 2.359765 1_565
S0 Zn36 2.359772 1_555
S0 Zn5 2.360325 1_555
S1 Zn42 2.359857 1_455
S1 Zn42 2.359857 1_565
S1 Zn42 2.359864 1_555
S1 Zn8 2.360602 1_555
S2 Zn10 2.359811 1_655
S2 Zn10 2.359814 1_555
S2 Zn10 2.359814 1_665
S2 Zn6 2.360463 1_555
S3 Zn27 2.359765 1_565
S3 Zn27 2.359765 1_455
S3 Zn27 2.359772 1_555
S3 Zn15 2.360325 1_555
S4 Zn23 2.359633 1_555
S4 Zn8 2.359765 1_545
S4 Zn8 2.359768 1_555
S4 Zn8 2.359768 1_445
S5 Zn41 2.359857 1_545
S5 Zn41 2.359857 1_655
S5 Zn41 2.359864 1_555
S5 Zn13 2.360602 1_555
S6 Zn39 2.359765 1_565
S6 Zn39 2.359765 1_455
S6 Zn38 2.359771 1_555
S6 Zn39 2.359772 1_555
S7 Zn27 2.359909 1_555
S7 Zn23 2.360043 1_655
S7 Zn23 2.360045 1_555
S7 Zn23 2.360045 1_665
S8 Zn17 2.359909 1_555
S8 Zn11 2.360042 1_455
S8 Zn11 2.360042 1_565
S8 Zn11 2.360049 1_555
S9 Zn22 2.359356 1_555
S9 Zn40 2.360135 1_566
S9 Zn40 2.360138 1_666
S9 Zn40 2.360138 1_556
S10 Zn28 2.359909 1_555
S10 Zn31 2.360043 1_545
S10 Zn31 2.360045 1_555
S10 Zn31 2.360045 1_445
S11 Zn21 2.359857 1_455
S11 Zn21 2.359857 1_565
S11 Zn21 2.359864 1_555
S11 Zn33 2.360602 1_555
S12 Zn10 2.359633 1_555
S12 Zn33 2.359719 1_545
S12 Zn33 2.359722 1_555
S12 Zn33 2.359722 1_445
S13 Zn4 2.359904 1_655
S13 Zn4 2.359907 1_555
S13 Zn4 2.359907 1_665
S13 Zn3 2.360325 1_555
S14 Zn30 2.359633 1_555
S14 Zn3 2.359765 1_455
S14 Zn3 2.359765 1_565
S14 Zn3 2.359772 1_555
S15 Zn37 2.359811 1_455
S15 Zn37 2.359811 1_565
S15 Zn37 2.359818 1_555
S15 Zn24 2.360463 1_555
S16 Zn7 2.359765 1_565
S16 Zn7 2.359768 1_555
S16 Zn7 2.359768 1_665
S16 Zn26 2.361294 1_555
S17 Zn38 2.359811 1_545
S17 Zn38 2.359814 1_555
S17 Zn38 2.359814 1_445
S17 Zn35 2.360186 1_555
S18 Zn30 2.359811 1_545
S18 Zn30 2.359814 1_445
S18 Zn30 2.359814 1_555
S18 Zn25 2.360463 1_555
S19 Zn36 2.359909 1_555
S19 Zn34 2.360043 1_655
S19 Zn34 2.360045 1_665
S19 Zn34 2.360045 1_555
S20 Zn29 2.359996 1_455
S20 Zn29 2.359999 1_445
S20 Zn29 2.359999 1_555
S20 Zn16 2.360048 1_555
S21 Zn20 2.359765 1_655
S21 Zn20 2.359768 1_555
S21 Zn20 2.359768 1_665
S21 Zn42 2.360325 1_555
S22 Zn32 2.359534 1_545
S22 Zn32 2.359537 1_555
S22 Zn32 2.359537 1_445
S22 Zn40 2.361848 1_555
S23 Zn28 2.359765 1_655
S23 Zn28 2.359768 1_555
S23 Zn28 2.359768 1_665
S23 Zn21 2.360325 1_555
S24 Zn25 2.359858 1_655
S24 Zn25 2.359860 1_665
S24 Zn25 2.359860 1_555
S24 Zn43 2.360463 1_555
S25 Zn32 2.359217 1_555
S25 Zn19 2.359765 1_455
S25 Zn19 2.359765 1_565
S25 Zn19 2.359772 1_555
S26 Zn2 2.359719 1_455
S26 Zn2 2.359719 1_565
S26 Zn2 2.359725 1_555
S26 Zn31 2.359771 1_555
S27 Zn5 2.359904 1_545
S27 Zn5 2.359907 1_555
S27 Zn5 2.359907 1_445
S27 Zn18 2.360463 1_555
S28 Zn37 2.359633 1_555
S28 Zn14 2.359719 1_655
S28 Zn14 2.359722 1_555
S28 Zn14 2.359722 1_665
S29 Zn24 2.359811 1_545
S29 Zn24 2.359814 1_555
S29 Zn24 2.359814 1_445
S29 Zn0 2.360602 1_555
S30 Zn0 2.359858 1_655
S30 Zn0 2.359860 1_665
S30 Zn0 2.359860 1_555
S30 Zn39 2.360325 1_555
S31 Zn12 2.359858 1_655
S31 Zn12 2.359860 1_555
S31 Zn12 2.359860 1_665
S31 Zn19 2.360602 1_555
S32 Zn15 2.359858 1_545
S32 Zn15 2.359860 1_445
S32 Zn15 2.359860 1_555
S32 Zn14 2.360602 1_555
S33 Zn7 2.359217 1_555
S33 Zn13 2.359811 1_455
S33 Zn13 2.359814 1_555
S33 Zn13 2.359814 1_445
S34 Zn35 2.359858 1_655
S34 Zn35 2.359860 1_665
S34 Zn35 2.359860 1_555
S34 Zn2 2.360602 1_555
S35 Zn9 2.359719 1_545
S35 Zn9 2.359722 1_445
S35 Zn9 2.359722 1_555
S35 Zn34 2.359771 1_555
S36 Zn1 2.359996 1_545
S36 Zn1 2.359999 1_555
S36 Zn1 2.359999 1_445
S36 Zn20 2.360048 1_555
S37 Zn16 2.359765 1_565
S37 Zn16 2.359768 1_665
S37 Zn16 2.359768 1_555
S37 Zn41 2.360325 1_555
S38 Zn29 2.359633 1_555
S38 Zn22 2.359765 1_655
S38 Zn22 2.359765 1_545
S38 Zn22 2.359772 1_555
S39 Zn18 2.359719 1_655
S39 Zn18 2.359722 1_555
S39 Zn18 2.359722 1_665
S39 Zn11 2.359771 1_555
S40 Zn17 2.359719 1_545
S40 Zn17 2.359722 1_555
S40 Zn17 2.359722 1_445
S40 Zn12 2.360463 1_555
S41 Zn6 2.359811 1_455
S41 Zn6 2.359811 1_565
S41 Zn6 2.359818 1_555
S41 Zn9 2.360602 1_555
S42 Zn4 2.359217 1_555
S42 Zn26 2.360043 1_545
S42 Zn26 2.360045 1_555
S42 Zn26 2.360045 1_445
S43 Zn1 2.359633 1_555
S43 Zn43 2.359765 1_565
S43 Zn43 2.359765 1_455
S43 Zn43 2.359772 1_555
