# generated using pymatgen
data_GaP3(NCl3)3
_symmetry_space_group_name_H-M   'P 1'
_cell_length_a   11.23480100
_cell_length_b   12.33366700
_cell_length_c   24.95346541
_cell_angle_alpha   88.02652995
_cell_angle_beta   90.00000000
_cell_angle_gamma   90.00000000
_symmetry_Int_Tables_number   1
_chemical_formula_structural   GaP3(NCl3)3
_chemical_formula_sum   'Ga8 P24 N24 Cl72'
_cell_volume   3455.65839497
_cell_formula_units_Z   8
loop_
 _symmetry_equiv_pos_site_id
 _symmetry_equiv_pos_as_xyz
  1  'x, y, z'
loop_
 _atom_site_type_symbol
 _atom_site_label
 _atom_site_symmetry_multiplicity
 _atom_site_fract_x
 _atom_site_fract_y
 _atom_site_fract_z
 _atom_site_occupancy
  Ga  Ga0  1  0.92474200  0.09545000  0.86916300  1
  Ga  Ga1  1  0.07525800  0.90455000  0.13083700  1
  Ga  Ga2  1  0.61222800  0.65897100  0.11836200  1
  Ga  Ga3  1  0.11222800  0.34102900  0.38163800  1
  Ga  Ga4  1  0.38777200  0.34102900  0.88163800  1
  Ga  Ga5  1  0.57525800  0.09545000  0.36916300  1
  Ga  Ga6  1  0.42474200  0.90455000  0.63083700  1
  Ga  Ga7  1  0.88777200  0.65897100  0.61836200  1
  P  P0  1  0.45903900  0.16496700  0.12180300  1
  P  P1  1  0.66596400  0.52909800  0.68132900  1
  P  P2  1  0.45672800  0.47151800  0.62884000  1
  P  P3  1  0.69692600  0.97341900  0.93088100  1
  P  P4  1  0.81219400  0.97633600  0.31718400  1
  P  P5  1  0.84182200  0.52601100  0.06784800  1
  P  P6  1  0.34182200  0.47398900  0.43215200  1
  P  P7  1  0.54096100  0.83503300  0.87819700  1
  P  P8  1  0.95903900  0.83503300  0.37819700  1
  P  P9  1  0.04327200  0.47151800  0.12884000  1
  P  P10  1  0.19692600  0.02658100  0.56911900  1
  P  P11  1  0.33403600  0.47090200  0.31867100  1
  P  P12  1  0.54327200  0.52848200  0.37116000  1
  P  P13  1  0.80307400  0.97341900  0.43088100  1
  P  P14  1  0.16596400  0.47090200  0.81867100  1
  P  P15  1  0.04096100  0.16496700  0.62180300  1
  P  P16  1  0.30307400  0.02658100  0.06911900  1
  P  P17  1  0.65817800  0.52601100  0.56784800  1
  P  P18  1  0.15817800  0.47398900  0.93215200  1
  P  P19  1  0.68780600  0.97633600  0.81718400  1
  P  P20  1  0.83403600  0.52909800  0.18132900  1
  P  P21  1  0.95672800  0.52848200  0.87116000  1
  P  P22  1  0.31219400  0.02366400  0.18281600  1
  P  P23  1  0.18780600  0.02366400  0.68281600  1
  N  N0  1  0.40695500  0.11784500  0.17739000  1
  N  N1  1  0.27317300  0.43445600  0.37724600  1
  N  N2  1  0.52813600  0.50259600  0.68114200  1
  N  N3  1  0.59304500  0.88215500  0.82261000  1
  N  N4  1  0.72682700  0.56554400  0.62275400  1
  N  N5  1  0.47186400  0.49740400  0.31885800  1
  N  N6  1  0.26047600  0.99271300  0.62749100  1
  N  N7  1  0.22682700  0.43445600  0.87724600  1
  N  N8  1  0.97924000  0.49819900  0.07306600  1
  N  N9  1  0.60301600  0.87778400  0.93084900  1
  N  N10  1  0.73952400  0.00728700  0.37250900  1
  N  N11  1  0.10301600  0.12221600  0.56915100  1
  N  N12  1  0.23952400  0.99271300  0.12749100  1
  N  N13  1  0.77317300  0.56554400  0.12275400  1
  N  N14  1  0.02076000  0.50180100  0.92693400  1
  N  N15  1  0.89698400  0.87778400  0.43084900  1
  N  N16  1  0.09304500  0.11784500  0.67739000  1
  N  N17  1  0.47924000  0.50180100  0.42693400  1
  N  N18  1  0.39698400  0.12221600  0.06915100  1
  N  N19  1  0.97186400  0.50259600  0.18114200  1
  N  N20  1  0.52076000  0.49819900  0.57306600  1
  N  N21  1  0.76047600  0.00728700  0.87250900  1
  N  N22  1  0.02813600  0.49740400  0.81885800  1
  N  N23  1  0.90695500  0.88215500  0.32261000  1
  Cl  Cl0  1  0.56749800  0.19481200  0.43933500  1
  Cl  Cl1  1  0.67379400  0.82555800  0.11798400  1
  Cl  Cl2  1  0.57859400  0.19692400  0.29650800  1
  Cl  Cl3  1  0.20277900  0.54134700  0.12897400  1
  Cl  Cl4  1  0.61377800  0.11187900  0.78582100  1
  Cl  Cl5  1  0.75623900  0.40216200  0.71334900  1
  Cl  Cl6  1  0.11377800  0.88812100  0.71417900  1
  Cl  Cl7  1  0.88622200  0.11187900  0.28582100  1
  Cl  Cl8  1  0.74333200  0.39803100  0.53834200  1
  Cl  Cl9  1  0.37604000  0.89375000  0.03894300  1
  Cl  Cl10  1  0.67459000  0.93448100  0.48259700  1
  Cl  Cl11  1  0.45331900  0.32727700  0.12041300  1
  Cl  Cl12  1  0.12396000  0.89375000  0.53894300  1
  Cl  Cl13  1  0.43250200  0.80518800  0.56066500  1
  Cl  Cl14  1  0.04668100  0.32727700  0.62041300  1
  Cl  Cl15  1  0.36492700  0.86261500  0.88057300  1
  Cl  Cl16  1  0.55536800  0.03435200  0.63073200  1
  Cl  Cl17  1  0.75666800  0.39803100  0.03834200  1
  Cl  Cl18  1  0.06749800  0.80518800  0.06066500  1
  Cl  Cl19  1  0.58439900  0.68830300  0.36594500  1
  Cl  Cl20  1  0.87604000  0.10625000  0.46105700  1
  Cl  Cl21  1  0.81765900  0.64159600  0.01179700  1
  Cl  Cl22  1  0.19365900  0.06301900  0.23798900  1
  Cl  Cl23  1  0.25623900  0.59783800  0.78665100  1
  Cl  Cl24  1  0.91560100  0.68830300  0.86594500  1
  Cl  Cl25  1  0.82620600  0.82555800  0.61798400  1
  Cl  Cl26  1  0.50687900  0.61198200  0.18848300  1
  Cl  Cl27  1  0.05536800  0.96564800  0.86926800  1
  Cl  Cl28  1  0.62396000  0.10625000  0.96105700  1
  Cl  Cl29  1  0.69365900  0.93698100  0.26201100  1
  Cl  Cl30  1  0.24376100  0.59783800  0.28665100  1
  Cl  Cl31  1  0.07859400  0.80307600  0.20349200  1
  Cl  Cl32  1  0.30634100  0.06301900  0.73798900  1
  Cl  Cl33  1  0.42140600  0.80307600  0.70349200  1
  Cl  Cl34  1  0.93250200  0.19481200  0.93933500  1
  Cl  Cl35  1  0.80634100  0.93698100  0.76201100  1
  Cl  Cl36  1  0.24333200  0.60196900  0.96165800  1
  Cl  Cl37  1  0.79722100  0.45865300  0.87102600  1
  Cl  Cl38  1  0.70277900  0.45865300  0.37102600  1
  Cl  Cl39  1  0.17379400  0.17444200  0.38201600  1
  Cl  Cl40  1  0.48455600  0.38554400  0.95297900  1
  Cl  Cl41  1  0.98455600  0.61445600  0.54702100  1
  Cl  Cl42  1  0.82541000  0.93448100  0.98259700  1
  Cl  Cl43  1  0.30441700  0.35367500  0.26800400  1
  Cl  Cl44  1  0.32541000  0.06551900  0.51740300  1
  Cl  Cl45  1  0.31765900  0.35840400  0.48820300  1
  Cl  Cl46  1  0.08439900  0.31169700  0.13405500  1
  Cl  Cl47  1  0.99312100  0.61198200  0.68848300  1
  Cl  Cl48  1  0.19558300  0.35367500  0.76800400  1
  Cl  Cl49  1  0.00687900  0.38801800  0.31151700  1
  Cl  Cl50  1  0.49312100  0.38801800  0.81151700  1
  Cl  Cl51  1  0.95331900  0.67272300  0.37958700  1
  Cl  Cl52  1  0.38622200  0.88812100  0.21417900  1
  Cl  Cl53  1  0.94463200  0.03435200  0.13073200  1
  Cl  Cl54  1  0.25666800  0.60196900  0.46165800  1
  Cl  Cl55  1  0.44463200  0.96564800  0.36926800  1
  Cl  Cl56  1  0.01544400  0.38554400  0.45297900  1
  Cl  Cl57  1  0.92140600  0.19692400  0.79650800  1
  Cl  Cl58  1  0.17459000  0.06551900  0.01740300  1
  Cl  Cl59  1  0.51544400  0.61445600  0.04702100  1
  Cl  Cl60  1  0.13507300  0.86261500  0.38057300  1
  Cl  Cl61  1  0.29722100  0.54134700  0.62897400  1
  Cl  Cl62  1  0.18234100  0.35840400  0.98820300  1
  Cl  Cl63  1  0.32620600  0.17444200  0.88201600  1
  Cl  Cl64  1  0.54668100  0.67272300  0.87958700  1
  Cl  Cl65  1  0.63507300  0.13738500  0.11942700  1
  Cl  Cl66  1  0.41560100  0.31169700  0.63405500  1
  Cl  Cl67  1  0.74376100  0.40216200  0.21334900  1
  Cl  Cl68  1  0.68234100  0.64159600  0.51179700  1
  Cl  Cl69  1  0.69558300  0.64632500  0.73199600  1
  Cl  Cl70  1  0.86492700  0.13738500  0.61942700  1
  Cl  Cl71  1  0.80441700  0.64632500  0.23199600  1
loop_
_geom_bond_atom_site_label_1
_geom_bond_atom_site_label_2
_geom_bond_distance
_geom_bond_site_symmetry_2
Ga0 N21 2.142184 1_555
Ga1 N12 2.142184 1_555
Ga2 N13 2.144909 1_555
Ga3 N1 2.144909 1_555
Ga4 N7 2.144909 1_555
Ga5 N10 2.142184 1_555
Ga6 N6 2.142184 1_555
Ga7 N4 2.144909 1_555
N0 P22 1.578045 1_555
N0 P0 1.596457 1_555
N1 P6 1.660045 1_555
N1 P11 1.661562 1_555
N2 P1 1.582633 1_555
N2 P2 1.590069 1_555
N3 P19 1.578045 1_555
N3 P7 1.596457 1_555
N4 P17 1.660045 1_555
N4 P1 1.661562 1_555
N5 P11 1.582633 1_555
N5 P12 1.590069 1_555
N6 P23 1.659670 1_565
N6 P10 1.662520 1_565
N7 P18 1.660045 1_555
N7 P14 1.661562 1_555
N8 P5 1.585894 1_555
N8 P9 1.590989 1_655
N9 P3 1.582564 1_555
N9 P7 1.593107 1_555
N10 P4 1.659670 1_545
N10 P13 1.662520 1_545
N11 P10 1.582564 1_555
N11 P15 1.593107 1_555
N12 P22 1.659670 1_565
N12 P16 1.662520 1_565
N13 P5 1.660045 1_555
N13 P20 1.661562 1_555
N14 P18 1.585894 1_555
N14 P21 1.590989 1_455
N15 P13 1.582564 1_555
N15 P8 1.593107 1_555
N16 P23 1.578045 1_555
N16 P15 1.596457 1_555
N17 P6 1.585894 1_555
N17 P12 1.590989 1_555
N18 P16 1.582564 1_555
N18 P0 1.593107 1_555
N19 P20 1.582633 1_555
N19 P9 1.590069 1_655
N20 P17 1.585894 1_555
N20 P2 1.590989 1_555
N21 P19 1.659670 1_545
N21 P3 1.662520 1_545
N22 P14 1.582633 1_555
N22 P21 1.590069 1_455
N23 P4 1.578045 1_555
N23 P8 1.596457 1_555
Cl0 Ga5 2.173330 1_555
Cl1 Ga2 2.167643 1_555
Cl2 Ga5 2.167589 1_555
Cl3 P9 1.988297 1_555
Cl4 P19 2.002201 1_545
Cl5 P1 2.007976 1_555
Cl6 P23 2.002201 1_565
Cl7 P4 2.002201 1_545
Cl8 P17 2.007223 1_555
Cl9 P16 2.001993 1_565
Cl10 P13 1.984187 1_555
Cl11 P0 2.002015 1_555
Cl12 P10 2.001993 1_565
Cl13 Ga6 2.173330 1_555
Cl14 P15 2.002015 1_555
Cl15 P7 2.007973 1_555
Cl16 Ga6 2.171735 1_545
Cl17 P5 2.007223 1_555
Cl18 Ga1 2.173330 1_555
Cl19 P12 2.024428 1_555
Cl20 P13 2.001993 1_545
Cl21 P5 1.981144 1_555
Cl22 P22 1.987602 1_555
Cl23 P14 2.007976 1_555
Cl24 P21 2.024428 1_555
Cl25 Ga7 2.167643 1_555
Cl26 Ga2 2.174523 1_555
Cl27 Ga0 2.171735 1_465
Cl28 P3 2.001993 1_545
Cl29 P4 1.987602 1_555
Cl30 P11 2.007976 1_555
Cl31 Ga1 2.167589 1_555
Cl32 P23 1.987602 1_555
Cl33 Ga6 2.167589 1_555
Cl34 Ga0 2.173330 1_555
Cl35 P19 1.987602 1_555
Cl36 P18 2.007223 1_555
Cl37 P21 1.988297 1_555
Cl38 P12 1.988297 1_555
Cl39 Ga3 2.167643 1_555
Cl40 Ga4 2.172605 1_555
Cl41 Ga7 2.172605 1_555
Cl42 P3 1.984187 1_555
Cl43 P11 1.981308 1_555
Cl44 P10 1.984187 1_555
Cl45 P6 1.981144 1_555
Cl46 P9 2.024428 1_555
Cl47 Ga7 2.174523 1_555
Cl48 P14 1.981308 1_555
Cl49 Ga3 2.174523 1_555
Cl50 Ga4 2.174523 1_555
Cl51 P8 2.002015 1_555
Cl52 P22 2.002201 1_565
Cl53 Ga1 2.171735 1_645
Cl54 P6 2.007223 1_555
Cl55 Ga5 2.171735 1_565
Cl56 Ga3 2.172605 1_555
Cl57 Ga0 2.167589 1_555
Cl58 P16 1.984187 1_555
Cl59 Ga2 2.172605 1_555
Cl60 P8 2.007973 1_455
Cl61 P2 1.988297 1_555
Cl62 P18 1.981144 1_555
Cl63 Ga4 2.167643 1_555
Cl64 P7 2.002015 1_555
Cl65 P0 2.007973 1_555
Cl66 P2 2.024428 1_555
Cl67 P20 2.007976 1_555
Cl68 P17 1.981144 1_555
Cl69 P1 1.981308 1_555
Cl70 P15 2.007973 1_655
Cl71 P20 1.981308 1_555
