# generated using pymatgen
data_Ca2MgAl2(SiO4)3
_symmetry_space_group_name_H-M   'P 1'
_cell_length_a   6.59389300
_cell_length_b   6.61590634
_cell_length_c   10.65003131
_cell_angle_alpha   78.35291165
_cell_angle_beta   77.58956671
_cell_angle_gamma   84.05136199
_symmetry_Int_Tables_number   1
_chemical_formula_structural   Ca2MgAl2(SiO4)3
_chemical_formula_sum   'Ca4 Mg2 Al4 Si6 O24'
_cell_volume   443.52155814
_cell_formula_units_Z   2
loop_
 _symmetry_equiv_pos_site_id
 _symmetry_equiv_pos_as_xyz
  1  'x, y, z'
loop_
 _atom_site_type_symbol
 _atom_site_label
 _atom_site_symmetry_multiplicity
 _atom_site_fract_x
 _atom_site_fract_y
 _atom_site_fract_z
 _atom_site_occupancy
  Ca  Ca0  1  0.69687200  0.30027400  0.87143500  1
  Ca  Ca1  1  0.30312800  0.69972600  0.12856500  1
  Ca  Ca2  1  0.69057900  0.30925900  0.37683000  1
  Ca  Ca3  1  0.30942100  0.69074100  0.62317000  1
  Mg  Mg0  1  0.09548100  0.90594200  0.87451200  1
  Mg  Mg1  1  0.90451900  0.09405800  0.12548800  1
  Al  Al0  1  0.18684900  0.38745400  0.39088700  1
  Al  Al1  1  0.09053700  0.91219300  0.37873100  1
  Al  Al2  1  0.90946300  0.08780700  0.62126900  1
  Al  Al3  1  0.81315100  0.61254600  0.60911300  1
  Si  Si0  1  0.19208900  0.37627900  0.88641800  1
  Si  Si1  1  0.62046800  0.80335300  0.86138300  1
  Si  Si2  1  0.37953200  0.19664700  0.13861700  1
  Si  Si3  1  0.80791100  0.62372100  0.11358200  1
  Si  Si4  1  0.61523300  0.81045500  0.36291600  1
  Si  Si5  1  0.38476700  0.18954500  0.63708400  1
  O  O0  1  0.37615700  0.31915900  0.75819600  1
  O  O1  1  0.11241000  0.61094600  0.83505400  1
  O  O2  1  0.02323700  0.20169100  0.93059900  1
  O  O3  1  0.80469500  0.96880000  0.80651000  1
  O  O4  1  0.38913500  0.89426500  0.91337500  1
  O  O5  1  0.32630000  0.36705100  0.00435100  1
  O  O6  1  0.67370000  0.63294900  0.99564900  1
  O  O7  1  0.61086500  0.10573500  0.08662500  1
  O  O8  1  0.19530500  0.03120000  0.19349000  1
  O  O9  1  0.97676300  0.79830900  0.06940100  1
  O  O10  1  0.88759000  0.38905400  0.16494600  1
  O  O11  1  0.37511500  0.34389600  0.24680700  1
  O  O12  1  0.62384300  0.68084100  0.24180400  1
  O  O13  1  0.10859300  0.64666900  0.34463900  1
  O  O14  1  0.02052000  0.17962400  0.43664000  1
  O  O15  1  0.79957300  0.97314800  0.32349000  1
  O  O16  1  0.37620600  0.89930700  0.40651800  1
  O  O17  1  0.34210200  0.36962900  0.51144000  1
  O  O18  1  0.65789800  0.63037100  0.48856000  1
  O  O19  1  0.62379400  0.10069300  0.59348200  1
  O  O20  1  0.20042700  0.02685200  0.67651000  1
  O  O21  1  0.97948000  0.82037600  0.56336000  1
  O  O22  1  0.89140700  0.35333100  0.65536100  1
  O  O23  1  0.62488500  0.65610400  0.75319300  1
loop_
_geom_bond_atom_site_label_1
_geom_bond_atom_site_label_2
_geom_bond_distance
_geom_bond_site_symmetry_2
Ca0 O22 2.358505 1_555
Ca0 O2 2.362110 1_655
Ca0 O7 2.373196 1_556
Ca0 O3 2.422936 1_545
Ca0 O23 2.486244 1_555
Ca0 O5 2.590704 1_556
Ca0 O0 2.631136 1_555
Ca0 O6 2.763431 1_555
Ca1 O13 2.358505 1_555
Ca1 O9 2.362110 1_455
Ca1 O4 2.373196 1_554
Ca1 O8 2.422936 1_565
Ca1 O11 2.486244 1_555
Ca1 O6 2.590704 1_554
Ca1 O12 2.631136 1_555
Ca1 O5 2.763431 1_555
Ca2 O10 2.336564 1_555
Ca2 O15 2.405676 1_545
Ca2 O19 2.413604 1_555
Ca2 O14 2.421332 1_655
Ca2 O17 2.473814 1_555
Ca2 O18 2.605998 1_555
Ca2 O12 2.631625 1_555
Ca2 O11 2.703365 1_555
Ca3 O1 2.336564 1_555
Ca3 O20 2.405676 1_565
Ca3 O16 2.413604 1_555
Ca3 O21 2.421332 1_455
Ca3 O18 2.473814 1_555
Ca3 O17 2.605998 1_555
Ca3 O0 2.631625 1_555
Ca3 O23 2.703365 1_555
Mg0 O4 2.056011 1_555
Mg0 O9 2.061135 1_456
Mg0 O1 2.064917 1_555
Mg0 O20 2.090913 1_565
Mg0 O2 2.137429 1_565
Mg0 O3 2.164232 1_455
Mg1 O7 2.056011 1_555
Mg1 O2 2.061135 1_654
Mg1 O10 2.064917 1_555
Mg1 O15 2.090913 1_545
Mg1 O9 2.137429 1_545
Mg1 O8 2.164232 1_655
Al0 O13 1.742028 1_555
Al0 O14 1.772917 1_555
Al0 O17 1.785800 1_555
Al0 O11 1.806741 1_555
Al1 O13 1.851359 1_555
Al1 O21 1.939749 1_455
Al1 O16 1.959385 1_555
Al1 O14 1.967946 1_565
Al1 O8 1.972042 1_565
Al1 O15 2.102074 1_455
Al2 O22 1.851359 1_555
Al2 O14 1.939749 1_655
Al2 O19 1.959385 1_555
Al2 O21 1.967946 1_545
Al2 O3 1.972042 1_545
Al2 O20 2.102074 1_655
Al3 O22 1.742028 1_555
Al3 O21 1.772917 1_555
Al3 O18 1.785800 1_555
Al3 O23 1.806741 1_555
O0 Si5 1.675494 1_555
O0 Si0 1.697528 1_555
O1 Si0 1.611582 1_555
O2 Si0 1.617757 1_555
O3 Si1 1.651513 1_555
O4 Si1 1.605123 1_555
O5 Si0 1.673325 1_554
O5 Si2 1.709303 1_555
O6 Si3 1.673325 1_556
O6 Si1 1.709303 1_555
O7 Si2 1.605123 1_555
O8 Si2 1.651513 1_555
O9 Si3 1.617757 1_555
O10 Si3 1.611582 1_555
O11 Si2 1.646338 1_555
O12 Si4 1.675494 1_555
O12 Si3 1.697528 1_555
O15 Si4 1.637581 1_555
O16 Si4 1.627552 1_555
O17 Si5 1.654630 1_555
O18 Si4 1.654630 1_555
O19 Si5 1.627552 1_555
O20 Si5 1.637581 1_555
O23 Si1 1.646338 1_555
