# generated using pymatgen
data_Na2Pr4Br9NO
_symmetry_space_group_name_H-M   'P 1'
_cell_length_a   11.82613200
_cell_length_b   8.80105700
_cell_length_c   9.84724261
_cell_angle_alpha   73.51550405
_cell_angle_beta   90.00000000
_cell_angle_gamma   90.00000000
_symmetry_Int_Tables_number   1
_chemical_formula_structural   Na2Pr4Br9NO
_chemical_formula_sum   'Na4 Pr8 Br18 N2 O2'
_cell_volume   982.79729268
_cell_formula_units_Z   2
loop_
 _symmetry_equiv_pos_site_id
 _symmetry_equiv_pos_as_xyz
  1  'x, y, z'
loop_
 _atom_site_type_symbol
 _atom_site_label
 _atom_site_symmetry_multiplicity
 _atom_site_fract_x
 _atom_site_fract_y
 _atom_site_fract_z
 _atom_site_occupancy
  Na  Na0  1  0.98956400  0.71989800  0.57278000  1
  Na  Na1  1  0.51289000  0.72115400  0.57237000  1
  Na  Na2  1  0.48956400  0.28010200  0.42722000  1
  Na  Na3  1  0.01289000  0.27884600  0.42763000  1
  Pr  Pr0  1  0.75215900  0.90663200  0.83576200  1
  Pr  Pr1  1  0.75196400  0.89357800  0.21114800  1
  Pr  Pr2  1  0.03827700  0.79460000  0.04693100  1
  Pr  Pr3  1  0.45192000  0.79996500  0.04573300  1
  Pr  Pr4  1  0.53827700  0.20540000  0.95306800  1
  Pr  Pr5  1  0.95192000  0.20003500  0.95426700  1
  Pr  Pr6  1  0.25196400  0.10642200  0.78885200  1
  Pr  Pr7  1  0.25215900  0.09336800  0.16423800  1
  Br  Br0  1  0.00478900  0.99205500  0.30458800  1
  Br  Br1  1  0.49879700  0.99289200  0.30443900  1
  Br  Br2  1  0.75241000  0.85314700  0.53416200  1
  Br  Br3  1  0.24961300  0.75263800  0.85471600  1
  Br  Br4  1  0.59638300  0.61702100  0.88066300  1
  Br  Br5  1  0.90366300  0.61427500  0.87769800  1
  Br  Br6  1  0.24973000  0.73321300  0.26115900  1
  Br  Br7  1  0.58989300  0.60332300  0.30977300  1
  Br  Br8  1  0.91146500  0.60049900  0.31357600  1
  Br  Br9  1  0.08989300  0.39667700  0.69022700  1
  Br  Br10  1  0.41146500  0.39950100  0.68642400  1
  Br  Br11  1  0.74973000  0.26678700  0.73884100  1
  Br  Br12  1  0.40366300  0.38572500  0.12230200  1
  Br  Br13  1  0.09638300  0.38297900  0.11933700  1
  Br  Br14  1  0.74961300  0.24736200  0.14528400  1
  Br  Br15  1  0.25241000  0.14685300  0.46583800  1
  Br  Br16  1  0.50478900  0.00794500  0.69541200  1
  Br  Br17  1  0.99879700  0.00710800  0.69556100  1
  N  N0  1  0.87370300  0.94250900  0.01469100  1
  N  N1  1  0.37370300  0.05749100  0.98530900  1
  O  O0  1  0.62278000  0.94366800  0.01454800  1
  O  O1  1  0.12278000  0.05633200  0.98545200  1
loop_
_geom_bond_atom_site_label_1
_geom_bond_atom_site_label_2
_geom_bond_distance
_geom_bond_site_symmetry_2
Br0 Na0 3.025624 1_455
Br0 Na3 3.095753 1_565
Br0 Pr7 3.250220 1_565
Br0 Pr1 3.315137 1_455
Br0 Pr5 3.472507 1_464
Br0 Pr2 3.480883 1_555
Br1 Na1 3.021184 1_555
Br1 Na2 3.098013 1_565
Br1 Pr7 3.240792 1_565
Br1 Pr1 3.320780 1_555
Br1 Pr4 3.466311 1_564
Br1 Pr3 3.483563 1_555
Br2 Na0 3.022033 1_555
Br2 Na1 3.044110 1_555
Br2 Pr1 3.098675 1_555
Br2 Pr0 3.136153 1_555
Br3 Pr6 2.995049 1_565
Br3 Pr3 3.143304 1_556
Br3 Pr2 3.219034 1_556
Br4 Pr0 3.073520 1_555
Br4 Na1 3.074445 1_555
Br4 Pr3 3.104621 1_556
Br4 Pr4 3.555089 1_555
Br5 Na0 3.054133 1_555
Br5 Pr2 3.054697 1_656
Br5 Pr0 3.065668 1_555
Br5 Pr5 3.553262 1_555
Br6 Pr7 3.040090 1_565
Br6 Pr3 3.139345 1_555
Br6 Pr2 3.216933 1_555
Br7 Na2 2.995079 1_555
Br7 Pr1 3.120032 1_555
Br7 Pr3 3.140735 1_555
Br7 Na1 3.180131 1_555
Br8 Na3 2.984907 1_655
Br8 Pr2 3.084830 1_655
Br8 Pr1 3.122858 1_555
Br8 Na0 3.161403 1_555
Br9 Na0 2.995079 1_455
Br9 Pr6 3.120032 1_555
Br9 Pr5 3.140735 1_455
Br9 Na3 3.180131 1_555
Br10 Na1 2.984907 1_555
Br10 Pr4 3.084823 1_555
Br10 Pr6 3.122858 1_555
Br10 Na2 3.161403 1_555
Br11 Pr0 3.040090 1_545
Br11 Pr5 3.139345 1_555
Br11 Pr4 3.216927 1_555
Br12 Na2 3.054133 1_555
Br12 Pr4 3.054704 1_554
Br12 Pr7 3.065668 1_555
Br12 Pr3 3.553262 1_555
Br13 Pr7 3.073520 1_555
Br13 Na3 3.074445 1_555
Br13 Pr5 3.104621 1_454
Br13 Pr2 3.555088 1_555
Br14 Pr1 2.995049 1_545
Br14 Pr5 3.143304 1_554
Br14 Pr4 3.219040 1_554
Br15 Na2 3.022033 1_555
Br15 Na3 3.044110 1_555
Br15 Pr6 3.098675 1_555
Br15 Pr7 3.136153 1_555
Br16 Na2 3.025624 1_555
Br16 Na1 3.095753 1_545
Br16 Pr0 3.250220 1_545
Br16 Pr6 3.315137 1_555
Br16 Pr3 3.472507 1_546
Br16 Pr4 3.480874 1_555
Br17 Na3 3.021184 1_655
Br17 Na0 3.098013 1_545
Br17 Pr0 3.240792 1_545
Br17 Pr6 3.320780 1_655
Br17 Pr2 3.466302 1_646
Br17 Pr5 3.483563 1_555
N0 Pr2 2.312748 1_655
N0 Pr1 2.351153 1_555
N0 Pr5 2.362489 1_564
N0 Pr0 2.363479 1_554
N1 Pr4 2.312747 1_555
N1 Pr6 2.351153 1_555
N1 Pr3 2.362489 1_546
N1 Pr7 2.363479 1_556
O0 Pr3 2.357187 1_555
O0 Pr1 2.406653 1_555
O0 Pr0 2.423328 1_554
O0 Pr4 2.424865 1_564
O1 Pr5 2.357187 1_455
O1 Pr6 2.406653 1_555
O1 Pr7 2.423328 1_556
O1 Pr2 2.424865 1_546
