# generated using pymatgen
data_B9C
_symmetry_space_group_name_H-M   'P 1'
_cell_length_a   4.31220800
_cell_length_b   4.83532462
_cell_length_c   7.37354147
_cell_angle_alpha   85.23847483
_cell_angle_beta   81.96218153
_cell_angle_gamma   80.51968771
_symmetry_Int_Tables_number   1
_chemical_formula_structural   B9C
_chemical_formula_sum   'B18 C2'
_cell_volume   149.87217013
_cell_formula_units_Z   2
loop_
 _symmetry_equiv_pos_site_id
 _symmetry_equiv_pos_as_xyz
  1  'x, y, z'
loop_
 _atom_site_type_symbol
 _atom_site_label
 _atom_site_symmetry_multiplicity
 _atom_site_fract_x
 _atom_site_fract_y
 _atom_site_fract_z
 _atom_site_occupancy
  B  B0  1  0.97631400  0.25196200  0.69077300  1
  B  B1  1  0.90863500  0.63895700  0.60736700  1
  B  B2  1  0.16994100  0.13013700  0.04482900  1
  B  B3  1  0.37730800  0.57103700  0.17670400  1
  B  B4  1  0.81021700  0.77058000  0.36336500  1
  B  B5  1  0.22269900  0.70175600  0.43215900  1
  B  B6  1  0.85070800  0.97415000  0.14106300  1
  B  B7  1  0.37598700  0.93194600  0.85523700  1
  B  B8  1  0.21621700  0.61828100  0.86430200  1
  B  B9  1  0.74817000  0.96002500  0.71843100  1
  B  B10  1  0.80534100  0.61828500  0.15418900  1
  B  B11  1  0.56465700  0.12576300  0.29058500  1
  B  B12  1  0.38572700  0.10712500  0.63108800  1
  B  B13  1  0.59924400  0.46803900  0.34641300  1
  B  B14  1  0.52724700  0.89354100  0.06136900  1
  B  B15  1  0.27256100  0.47306200  0.65665700  1
  B  B16  1  0.66344800  0.34923100  0.56780300  1
  B  B17  1  0.97441200  0.00315700  0.89233400  1
  C  C0  1  0.14167500  0.46155500  0.05784600  1
  C  C1  1  0.40949300  0.95141100  0.44748700  1
loop_
_geom_bond_atom_site_label_1
_geom_bond_atom_site_label_2
_geom_bond_distance
_geom_bond_site_symmetry_2
B0 B16 1.710502 1_555
B0 B15 1.775829 1_655
B0 B12 1.796561 1_655
B0 B9 1.831852 1_545
B0 B17 1.832826 1_555
B0 B1 1.908978 1_555
B1 B15 1.713109 1_655
B1 B5 1.782253 1_655
B1 B9 1.805088 1_555
B1 B4 1.938195 1_555
B1 B16 1.951305 1_555
B2 C0 1.596884 1_555
B2 B6 1.716810 1_445
B2 B7 1.804631 1_544
B3 C0 1.607495 1_555
B4 B6 1.842532 1_555
B4 C1 1.851446 1_555
B5 C1 1.577105 1_555
B7 B8 1.758960 1_555
B7 B9 1.791116 1_555
B8 C0 1.576914 1_556
B10 C0 1.619149 1_655
B10 B13 1.736677 1_555
B10 B6 1.756836 1_555
B10 B14 1.797346 1_555
B11 C1 1.517996 1_545
B11 B6 1.652418 1_545
B11 B13 1.772672 1_555
B11 B14 2.143454 1_545
B12 C1 1.585924 1_545
B12 B15 1.774756 1_555
B12 B9 1.789601 1_545
B12 B7 1.791869 1_545
B12 B16 1.799245 1_555
B13 B3 1.674597 1_555
B13 B16 1.729105 1_555
B13 B4 1.866517 1_555
B13 B5 1.881607 1_555
B14 B6 1.699739 1_555
B14 B7 1.720635 1_554
B14 B2 1.773803 1_565
B14 B3 1.879161 1_555
B14 B17 2.259983 1_564
B15 B8 1.707204 1_555
B15 B16 1.747223 1_555
B15 B5 1.930423 1_555
B16 B9 2.109196 1_545
B17 B7 1.696713 1_645
B17 B2 1.703681 1_656
B17 B9 1.760912 1_545
B17 B6 1.837439 1_546
B17 B8 1.989385 1_645
