# generated using pymatgen
data_Y4InIr
_symmetry_space_group_name_H-M   'P 1'
_cell_length_a   9.68633742
_cell_length_b   9.68635535
_cell_length_c   9.68635539
_cell_angle_alpha   59.99990507
_cell_angle_beta   59.99984649
_cell_angle_gamma   59.99984468
_symmetry_Int_Tables_number   1
_chemical_formula_structural   Y4InIr
_chemical_formula_sum   'Y16 In4 Ir4'
_cell_volume   642.63454435
_cell_formula_units_Z   4
loop_
 _symmetry_equiv_pos_site_id
 _symmetry_equiv_pos_as_xyz
  1  'x, y, z'
loop_
 _atom_site_type_symbol
 _atom_site_label
 _atom_site_symmetry_multiplicity
 _atom_site_fract_x
 _atom_site_fract_y
 _atom_site_fract_z
 _atom_site_occupancy
  Y  Y0  1  0.80812387  0.19187955  0.80811450  1
  Y  Y1  1  0.94080522  0.55919783  0.55920185  1
  Y  Y2  1  0.55919633  0.94080265  0.55920366  1
  Y  Y3  1  0.80812357  0.19187893  0.19188322  1
  Y  Y4  1  0.19187905  0.80812362  0.19188400  1
  Y  Y5  1  0.34875652  0.95370159  0.34877217  1
  Y  Y6  1  0.94080375  0.94079900  0.55919878  1
  Y  Y7  1  0.55919657  0.94080392  0.94079637  1
  Y  Y8  1  0.19187956  0.80812379  0.80811301  1
  Y  Y9  1  0.34876217  0.34876597  0.95369678  1
  Y  Y10  1  0.55919984  0.55920285  0.94079748  1
  Y  Y11  1  0.34876121  0.34876489  0.34877665  1
  Y  Y12  1  0.19188134  0.19188202  0.80811790  1
  Y  Y13  1  0.80811870  0.80811951  0.19188156  1
  Y  Y14  1  0.94080620  0.55919786  0.94079386  1
  Y  Y15  1  0.95370618  0.34875773  0.34876920  1
  In  In0  1  0.58309620  0.58309431  0.58309266  1
  In  In1  1  0.58309651  0.25071711  0.58309277  1
  In  In2  1  0.58309605  0.58309404  0.25071661  1
  In  In3  1  0.25071757  0.58309502  0.58309326  1
  Ir  Ir0  1  0.14071923  0.14072047  0.57783974  1
  Ir  Ir1  1  0.57783832  0.14071979  0.14072179  1
  Ir  Ir2  1  0.14071919  0.57783836  0.14072223  1
  Ir  Ir3  1  0.14071885  0.14072020  0.14072196  1
loop_
_geom_bond_atom_site_label_1
_geom_bond_atom_site_label_2
_geom_bond_distance
_geom_bond_site_symmetry_2
Y0 Y6 3.608253 1_545
Y0 Y1 3.608273 1_555
Y0 Y7 3.608298 1_545
Y0 Y10 3.608319 1_555
Y1 Y11 3.459761 1_655
Y1 Y15 3.459904 1_555
Y1 Y12 3.608224 1_655
Y1 Y4 3.608267 1_655
Y1 Y13 3.608314 1_555
Y1 Y14 3.696241 1_555
Y1 Y6 3.696303 1_555
Y1 Y10 3.696306 1_555
Y1 Y2 3.696368 1_555
Y2 Y5 3.459901 1_555
Y2 Y8 3.608242 1_555
Y2 Y3 3.608294 1_565
Y2 Y7 3.696250 1_555
Y2 Y6 3.696337 1_555
Y3 Y6 3.608245 1_545
Y4 Y6 3.608212 1_455
Y4 Y7 3.608256 1_554
Y5 Y6 3.459737 1_455
Y5 Y7 3.459921 1_554
Y6 Y8 3.608215 1_655
Y6 Y7 3.696324 1_555
Y7 Y9 3.459814 1_565
Y10 Y9 3.459926 1_555
Y10 Y11 3.459947 1_556
Y10 Y8 3.608298 1_555
Y10 Y4 3.608311 1_556
Y10 Y3 3.608335 1_556
Y10 Y2 3.696277 1_555
Y10 Y7 3.696302 1_555
Y10 Y14 3.696326 1_555
Y11 Y2 3.459812 1_545
Y12 Y14 3.608224 1_455
Y12 Y2 3.608225 1_545
Y12 Y7 3.608228 1_545
Y13 Y2 3.608310 1_555
Y13 Y7 3.608325 1_554
Y13 Y14 3.608334 1_554
Y14 Y9 3.459765 1_655
Y14 Y15 3.459926 1_556
Y14 Y8 3.608271 1_655
Y14 Y3 3.608284 1_556
Y14 Y6 3.696290 1_555
Y14 Y7 3.696377 1_555
Y15 Y6 3.459795 1_545
In0 In2 3.219515 1_555
In0 In1 3.219522 1_555
In0 In3 3.219525 1_555
In0 Y10 3.249935 1_555
In0 Y2 3.249964 1_555
In0 Y1 3.249971 1_555
In0 Y9 3.470798 1_555
In0 Y5 3.470800 1_555
In0 Y15 3.470805 1_555
In0 Y13 3.477511 1_555
In0 Y0 3.477534 1_555
In0 Y8 3.477539 1_555
In1 In2 3.219513 1_555
In1 In3 3.219525 1_555
In1 Y7 3.249908 1_545
In1 Y2 3.249920 1_545
In1 Y6 3.249942 1_545
In1 Y11 3.470752 1_555
In1 Y9 3.470757 1_555
In1 Y15 3.470762 1_555
In1 Y3 3.477506 1_555
In1 Y0 3.477524 1_555
In1 Y12 3.477536 1_555
In2 In3 3.219517 1_555
In2 Y10 3.249954 1_554
In2 Y7 3.249972 1_554
In2 Y14 3.249977 1_554
In2 Y11 3.470810 1_555
In2 Y5 3.470816 1_555
In2 Y15 3.470819 1_555
In2 Y13 3.477527 1_555
In2 Y3 3.477534 1_555
In2 Y4 3.477542 1_555
In3 Y14 3.249879 1_455
In3 Y1 3.249890 1_455
In3 Y6 3.249908 1_455
In3 Y11 3.470731 1_555
In3 Y5 3.470735 1_555
In3 Y9 3.470736 1_555
In3 Y4 3.477507 1_555
In3 Y8 3.477520 1_555
In3 Y12 3.477530 1_555
Ir0 Y0 2.814712 1_455
Ir0 Y8 2.814723 1_545
Ir0 Y12 2.814776 1_555
Ir0 Y15 2.857142 1_455
Ir0 Y11 2.857154 1_555
Ir0 Y5 2.857158 1_545
Ir0 Y2 3.461466 1_545
Ir0 Y1 3.461471 1_455
Ir0 Y6 3.461473 1_445
Ir1 Y13 2.814764 1_545
Ir1 Y3 2.814819 1_555
Ir1 Y0 2.814824 1_554
Ir1 Y11 2.857251 1_555
Ir1 Y5 2.857255 1_545
Ir1 Y9 2.857259 1_554
Ir1 Y2 3.461501 1_545
Ir1 Y7 3.461516 1_544
Ir1 Y10 3.461519 1_554
Ir2 Y13 2.814764 1_455
Ir2 Y4 2.814829 1_555
Ir2 Y8 2.814839 1_554
Ir2 Y15 2.857214 1_455
Ir2 Y11 2.857226 1_555
Ir2 Y9 2.857235 1_554
Ir2 Y1 3.461483 1_455
Ir2 Y10 3.461498 1_554
Ir2 Y14 3.461507 1_454
Ir3 Y3 2.814716 1_455
Ir3 Y4 2.814728 1_545
Ir3 Y12 2.814792 1_554
Ir3 Y15 2.857151 1_455
Ir3 Y5 2.857169 1_545
Ir3 Y9 2.857173 1_554
Ir3 Y6 3.461458 1_445
Ir3 Y7 3.461471 1_544
Ir3 Y14 3.461474 1_454
