# generated using pymatgen
data_TiZnO3
_symmetry_space_group_name_H-M   'P 1'
_cell_length_a   5.54714000
_cell_length_b   5.67490781
_cell_length_c   5.91698353
_cell_angle_alpha   65.48953513
_cell_angle_beta   63.99551654
_cell_angle_gamma   68.24211124
_symmetry_Int_Tables_number   1
_chemical_formula_structural   TiZnO3
_chemical_formula_sum   'Ti2 Zn2 O6'
_cell_volume   148.20580247
_cell_formula_units_Z   2
loop_
 _symmetry_equiv_pos_site_id
 _symmetry_equiv_pos_as_xyz
  1  'x, y, z'
loop_
 _atom_site_type_symbol
 _atom_site_label
 _atom_site_symmetry_multiplicity
 _atom_site_fract_x
 _atom_site_fract_y
 _atom_site_fract_z
 _atom_site_occupancy
  Ti  Ti0  1  0.25224800  0.08755900  0.91558300  1
  Ti  Ti1  1  0.74775200  0.91244100  0.08441700  1
  Zn  Zn0  1  0.57065800  0.42247000  0.25721100  1
  Zn  Zn1  1  0.42934200  0.57753000  0.74278900  1
  O  O0  1  0.30246700  0.34618100  0.60791100  1
  O  O1  1  0.10647200  0.85554800  0.84857600  1
  O  O2  1  0.54997300  0.77373800  0.96615100  1
  O  O3  1  0.69753300  0.65381900  0.39208900  1
  O  O4  1  0.89352800  0.14445200  0.15142400  1
  O  O5  1  0.45002700  0.22626200  0.03384900  1
loop_
_geom_bond_atom_site_label_1
_geom_bond_atom_site_label_2
_geom_bond_distance
_geom_bond_site_symmetry_2
O0 Ti0 1.785307 1_555
O0 Zn0 1.931767 1_555
O0 Zn1 2.214231 1_555
O1 Ti1 1.863801 1_456
O1 Zn1 1.957084 1_555
O1 Ti0 2.012022 1_565
O2 Ti0 1.949189 1_565
O2 Ti1 2.020731 1_556
O2 Zn0 2.026837 1_556
O2 Zn1 2.446048 1_555
O3 Ti1 1.785307 1_555
O3 Zn1 1.931767 1_555
O3 Zn0 2.214231 1_555
O4 Ti0 1.863801 1_654
O4 Zn0 1.957084 1_555
O4 Ti1 2.012022 1_545
O5 Ti1 1.949189 1_545
O5 Ti0 2.020731 1_554
O5 Zn1 2.026837 1_554
O5 Zn0 2.446048 1_555
