# generated using pymatgen
data_Na2Li5Al7Si29O72
_symmetry_space_group_name_H-M   'P 1'
_cell_length_a   9.45667700
_cell_length_b   9.39002669
_cell_length_c   28.18988284
_cell_angle_alpha   93.60190618
_cell_angle_beta   92.98624467
_cell_angle_gamma   93.66936010
_symmetry_Int_Tables_number   1
_chemical_formula_structural   Na2Li5Al7Si29O72
_chemical_formula_sum   'Na2 Li5 Al7 Si29 O72'
_cell_volume   2489.19112908
_cell_formula_units_Z   1
loop_
 _symmetry_equiv_pos_site_id
 _symmetry_equiv_pos_as_xyz
  1  'x, y, z'
loop_
 _atom_site_type_symbol
 _atom_site_label
 _atom_site_symmetry_multiplicity
 _atom_site_fract_x
 _atom_site_fract_y
 _atom_site_fract_z
 _atom_site_occupancy
  Na  Na0  1  0.98491900  0.47168600  0.95921800  1
  Na  Na1  1  0.99308400  0.46986800  0.62624600  1
  Li  Li0  1  0.38258200  0.36677300  0.78863900  1
  Li  Li1  1  0.37607700  0.37126500  0.45749800  1
  Li  Li2  1  0.63048000  0.62853100  0.87305300  1
  Li  Li3  1  0.62639900  0.62958900  0.54203500  1
  Li  Li4  1  0.62899300  0.62741600  0.20620800  1
  Al  Al0  1  0.37819200  0.60221800  0.60921900  1
  Al  Al1  1  0.62731500  0.17212500  0.79809700  1
  Al  Al2  1  0.82604700  0.60183700  0.79142700  1
  Al  Al3  1  0.82623400  0.37224700  0.86646500  1
  Al  Al4  1  0.82214400  0.37148300  0.53177200  1
  Al  Al5  1  0.82697300  0.60641200  0.45837700  1
  Al  Al6  1  0.83010200  0.60213000  0.12392800  1
  Si  Si0  1  0.17788500  0.39929100  0.87596800  1
  Si  Si1  1  0.17643500  0.62234400  0.80165500  1
  Si  Si2  1  0.17398700  0.39945100  0.54057800  1
  Si  Si3  1  0.17645700  0.62433900  0.46635500  1
  Si  Si4  1  0.17111400  0.39852200  0.20778700  1
  Si  Si5  1  0.17693900  0.62273900  0.13318200  1
  Si  Si6  1  0.38075600  0.82913500  0.86720400  1
  Si  Si7  1  0.38122600  0.60260800  0.94313300  1
  Si  Si8  1  0.40030800  0.17468200  0.87370600  1
  Si  Si9  1  0.40121200  0.61993700  0.72546300  1
  Si  Si10  1  0.37896400  0.83150900  0.53290600  1
  Si  Si11  1  0.40288900  0.17636600  0.53991800  1
  Si  Si12  1  0.40140700  0.62197700  0.39033100  1
  Si  Si13  1  0.37668400  0.82885000  0.20054300  1
  Si  Si14  1  0.37662700  0.59771000  0.27540800  1
  Si  Si15  1  0.39586400  0.17335700  0.20765300  1
  Si  Si16  1  0.40282000  0.62398200  0.05798200  1
  Si  Si17  1  0.60106500  0.82761200  0.79201200  1
  Si  Si18  1  0.60175900  0.37269500  0.94316600  1
  Si  Si19  1  0.62318700  0.39827000  0.72267500  1
  Si  Si20  1  0.60388500  0.37771700  0.60775500  1
  Si  Si21  1  0.60058500  0.82991800  0.45664200  1
  Si  Si22  1  0.62470400  0.39846100  0.38999400  1
  Si  Si23  1  0.61908000  0.17128700  0.46399800  1
  Si  Si24  1  0.59828300  0.37230400  0.27540200  1
  Si  Si25  1  0.60082200  0.83148800  0.12492000  1
  Si  Si26  1  0.62132200  0.39837500  0.05741600  1
  Si  Si27  1  0.62128800  0.17611500  0.13343100  1
  Si  Si28  1  0.82665700  0.37553600  0.20077500  1
  O  O0  1  0.01089400  0.61674900  0.79429700  1
  O  O1  1  0.01074000  0.62097900  0.45913300  1
  O  O2  1  0.01092400  0.62698700  0.12484200  1
  O  O3  1  0.24039100  0.76443400  0.83526400  1
  O  O4  1  0.23920900  0.50146600  0.92464900  1
  O  O5  1  0.23284400  0.47567600  0.82798600  1
  O  O6  1  0.24489900  0.24433600  0.87744700  1
  O  O7  1  0.24915700  0.61252000  0.75079900  1
  O  O8  1  0.24318800  0.76691400  0.49793200  1
  O  O9  1  0.22269400  0.49602100  0.58900800  1
  O  O10  1  0.23043900  0.47798200  0.49201700  1
  O  O11  1  0.25098800  0.24787100  0.53757300  1
  O  O12  1  0.25055500  0.61371200  0.41467800  1
  O  O13  1  0.24205100  0.76586900  0.16616500  1
  O  O14  1  0.23638900  0.49668300  0.25552700  1
  O  O15  1  0.38352300  0.75514400  0.91904900  1
  O  O16  1  0.21814800  0.48016900  0.16109100  1
  O  O17  1  0.24319100  0.24481900  0.20705600  1
  O  O18  1  0.25002500  0.61841500  0.08192500  1
  O  O19  1  0.37757200  0.00105100  0.87671800  1
  O  O20  1  0.37217900  0.61994400  0.66967400  1
  O  O21  1  0.38231300  0.76669500  0.58376300  1
  O  O22  1  0.37712800  0.00428900  0.53716000  1
  O  O23  1  0.37184900  0.00034900  0.21002600  1
  O  O24  1  0.37799800  0.62234600  0.33250600  1
  O  O25  1  0.38326600  0.75120800  0.25093400  1
  O  O26  1  0.47693700  0.47482700  0.74188300  1
  O  O27  1  0.46772100  0.23097200  0.82637500  1
  O  O28  1  0.50012700  0.23594900  0.92104700  1
  O  O29  1  0.49827400  0.75745700  0.74704400  1
  O  O30  1  0.52471900  0.77422300  0.84307800  1
  O  O31  1  0.52600200  0.52420800  0.92787800  1
  O  O32  1  0.37497900  0.62803400  0.00056700  1
  O  O33  1  0.47411000  0.47320600  0.40491000  1
  O  O34  1  0.47491900  0.22691200  0.49026900  1
  O  O35  1  0.50563200  0.23392400  0.58563900  1
  O  O36  1  0.50008900  0.76160200  0.40991600  1
  O  O37  1  0.52548200  0.78255900  0.50649800  1
  O  O38  1  0.53045300  0.51915200  0.58792700  1
  O  O39  1  0.48076300  0.48205900  0.07238400  1
  O  O40  1  0.47870600  0.21674200  0.16079900  1
  O  O41  1  0.49385400  0.23549600  0.25475400  1
  O  O42  1  0.49724000  0.76870200  0.07899800  1
  O  O43  1  0.52538500  0.78630400  0.17568300  1
  O  O44  1  0.52568800  0.52326800  0.25934000  1
  O  O45  1  0.60873500  0.24310800  0.74275900  1
  O  O46  1  0.60166900  0.38418700  0.66482300  1
  O  O47  1  0.58596400  0.99233000  0.79232100  1
  O  O48  1  0.60655600  0.24349400  0.41258700  1
  O  O49  1  0.59409500  0.00080200  0.45347700  1
  O  O50  1  0.61098700  0.36928500  0.33209100  1
  O  O51  1  0.76156200  0.38468500  0.92650600  1
  O  O52  1  0.75548900  0.76957500  0.79249100  1
  O  O53  1  0.76873500  0.52909200  0.84390600  1
  O  O54  1  0.61637200  0.24521100  0.08237600  1
  O  O55  1  0.61597900  0.00387900  0.12479200  1
  O  O56  1  0.60387300  0.36525200  0.00048200  1
  O  O57  1  0.76377600  0.49774100  0.73919000  1
  O  O58  1  0.77614200  0.21836100  0.83406700  1
  O  O59  1  0.76581400  0.37225200  0.59119100  1
  O  O60  1  0.75516200  0.77422200  0.45665100  1
  O  O61  1  0.76415800  0.52844000  0.50903000  1
  O  O62  1  0.76188700  0.49731200  0.40728300  1
  O  O63  1  0.75898300  0.21920200  0.49624400  1
  O  O64  1  0.75285700  0.37228500  0.25240700  1
  O  O65  1  0.75041600  0.76408800  0.12782200  1
  O  O66  1  0.77926300  0.52227200  0.17789800  1
  O  O67  1  0.76528400  0.49277300  0.07409400  1
  O  O68  1  0.76401700  0.23498600  0.16656000  1
  O  O69  1  0.01148000  0.39317900  0.88202900  1
  O  O70  1  0.00612100  0.37327800  0.54068600  1
  O  O71  1  0.99903700  0.37213200  0.20915300  1
loop_
_geom_bond_atom_site_label_1
_geom_bond_atom_site_label_2
_geom_bond_distance
_geom_bond_site_symmetry_2
Na0 O69 2.284816 1_655
Na0 O51 2.336822 1_555
Na0 O4 2.646306 1_655
Na1 O59 2.418389 1_555
Na1 O9 2.465488 1_655
Na1 O70 2.534884 1_655
Li0 O27 1.902245 1_555
Li0 O26 1.933282 1_555
Li0 O5 2.118398 1_555
Li1 O34 1.947814 1_555
Li1 O10 2.010384 1_555
Li1 O33 2.044823 1_555
Li2 O53 1.851524 1_555
Li2 O30 1.954021 1_555
Li2 O31 2.133033 1_555
Li3 O61 1.907493 1_555
Li3 O38 1.934605 1_555
Li3 O37 2.057719 1_555
Li4 O66 1.956989 1_555
Li4 O43 2.046207 1_555
Li4 O44 2.090058 1_555
Al0 O20 1.706156 1_555
Al0 O21 1.742481 1_555
Al0 O9 1.770589 1_555
Al0 O38 1.793569 1_555
Al1 O47 1.704124 1_545
Al1 O58 1.707410 1_555
Al1 O45 1.739461 1_555
Al1 O27 1.842638 1_555
Al2 O0 1.741925 1_655
Al2 O52 1.748602 1_555
Al2 O53 1.764092 1_555
Al2 O57 1.767979 1_555
Al3 O58 1.687603 1_555
Al3 O53 1.747372 1_555
Al3 O69 1.779041 1_655
Al3 O51 1.828812 1_555
Al4 O70 1.743713 1_655
Al4 O63 1.747258 1_555
Al4 O61 1.751972 1_555
Al4 O59 1.783656 1_555
Al5 O1 1.733364 1_655
Al5 O60 1.757740 1_555
Al5 O61 1.758377 1_555
Al5 O62 1.773252 1_555
Al6 O2 1.709598 1_655
Al6 O65 1.739840 1_555
Al6 O67 1.747038 1_555
Al6 O66 1.811501 1_555
O0 Si1 1.565485 1_555
O1 Si3 1.567791 1_555
O2 Si5 1.578716 1_555
O3 Si6 1.626430 1_555
O3 Si1 1.649779 1_555
O4 Si7 1.636706 1_555
O4 Si0 1.679428 1_555
O5 Si0 1.661792 1_555
O5 Si1 1.706889 1_555
O6 Si0 1.625843 1_555
O6 Si8 1.652060 1_555
O7 Si1 1.622024 1_555
O7 Si9 1.638003 1_555
O8 Si3 1.632953 1_555
O8 Si10 1.637631 1_555
O9 Si2 1.619807 1_555
O10 Si3 1.687853 1_555
O10 Si2 1.689770 1_555
O11 Si11 1.624131 1_555
O11 Si2 1.639283 1_555
O12 Si12 1.614525 1_555
O12 Si3 1.649298 1_555
O13 Si13 1.616468 1_555
O13 Si5 1.651477 1_555
O14 Si14 1.633254 1_555
O14 Si4 1.651220 1_555
O15 Si7 1.622554 1_555
O15 Si6 1.656902 1_555
O16 Si4 1.631736 1_555
O16 Si5 1.652340 1_555
O17 Si15 1.630324 1_555
O17 Si4 1.634534 1_555
O18 Si16 1.625577 1_555
O18 Si5 1.633227 1_555
O19 Si6 1.622175 1_545
O19 Si8 1.638923 1_555
O20 Si9 1.582323 1_555
O21 Si10 1.591895 1_555
O22 Si11 1.614957 1_555
O22 Si10 1.620577 1_545
O23 Si13 1.619718 1_545
O23 Si15 1.631939 1_555
O24 Si14 1.610933 1_555
O24 Si12 1.633826 1_555
O25 Si14 1.635634 1_555
O25 Si13 1.637068 1_555
O26 Si9 1.659311 1_555
O26 Si19 1.696804 1_555
O27 Si8 1.612493 1_555
O28 Si18 1.624896 1_555
O28 Si8 1.644925 1_555
O29 Si9 1.603595 1_555
O29 Si17 1.634168 1_555
O30 Si6 1.650491 1_555
O30 Si17 1.731331 1_555
O31 Si7 1.658885 1_555
O31 Si18 1.702473 1_555
O32 Si7 1.626358 1_554
O32 Si16 1.629417 1_555
O33 Si12 1.660946 1_555
O33 Si22 1.688422 1_555
O34 Si11 1.670196 1_555
O34 Si23 1.681532 1_555
O35 Si11 1.616198 1_555
O35 Si20 1.657827 1_555
O36 Si12 1.610398 1_555
O36 Si21 1.653806 1_555
O37 Si21 1.679146 1_555
O37 Si10 1.682637 1_555
O38 Si20 1.652064 1_555
O39 Si16 1.626848 1_555
O39 Si26 1.647061 1_555
O40 Si15 1.630583 1_555
O40 Si27 1.641964 1_555
O41 Si24 1.627301 1_555
O41 Si15 1.633213 1_555
O42 Si25 1.637368 1_555
O42 Si16 1.638092 1_555
O43 Si13 1.663606 1_555
O43 Si25 1.697235 1_555
O44 Si14 1.683355 1_555
O44 Si24 1.690738 1_555
O45 Si19 1.596314 1_555
O46 Si20 1.607349 1_555
O46 Si19 1.628932 1_555
O47 Si17 1.561883 1_555
O48 Si22 1.627391 1_555
O48 Si23 1.640119 1_555
O49 Si23 1.609710 1_555
O49 Si21 1.617562 1_545
O50 Si24 1.598482 1_555
O50 Si22 1.635059 1_555
O51 Si18 1.604929 1_555
O52 Si17 1.590753 1_555
O54 Si27 1.615158 1_555
O54 Si26 1.639419 1_555
O55 Si25 1.616174 1_545
O55 Si27 1.617509 1_555
O56 Si26 1.613377 1_555
O56 Si18 1.620763 1_554
O57 Si19 1.605824 1_555
O59 Si20 1.626998 1_555
O60 Si21 1.583718 1_555
O62 Si22 1.582795 1_555
O63 Si23 1.589409 1_555
O64 Si24 1.629624 1_555
O64 Si28 1.647779 1_555
O65 Si25 1.586680 1_555
O66 Si28 1.635796 1_555
O67 Si26 1.608306 1_555
O68 Si28 1.644214 1_555
O68 Si27 1.645557 1_555
O69 Si0 1.589500 1_555
O70 Si2 1.590938 1_555
O71 Si4 1.633105 1_655
O71 Si28 1.637580 1_555
