# generated using pymatgen
data_Ag2Pb8Cl4O7
_symmetry_space_group_name_H-M   'P 1'
_cell_length_a   18.41375500
_cell_length_b   8.26254200
_cell_length_c   15.12845326
_cell_angle_alpha   57.11030764
_cell_angle_beta   90.00000000
_cell_angle_gamma   90.00000000
_symmetry_Int_Tables_number   1
_chemical_formula_structural   Ag2Pb8Cl4O7
_chemical_formula_sum   'Ag8 Pb32 Cl16 O28'
_cell_volume   1932.78616560
_cell_formula_units_Z   4
loop_
 _symmetry_equiv_pos_site_id
 _symmetry_equiv_pos_as_xyz
  1  'x, y, z'
loop_
 _atom_site_type_symbol
 _atom_site_label
 _atom_site_symmetry_multiplicity
 _atom_site_fract_x
 _atom_site_fract_y
 _atom_site_fract_z
 _atom_site_occupancy
  Ag  Ag0  1  0.54869500  0.98117800  0.89921100  1
  Ag  Ag1  1  0.96713300  0.48317700  0.38684700  1
  Ag  Ag2  1  0.03286700  0.51682300  0.61315300  1
  Ag  Ag3  1  0.95130500  0.98117800  0.39921100  1
  Ag  Ag4  1  0.04869500  0.01882200  0.60078900  1
  Ag  Ag5  1  0.53286700  0.48317700  0.88684700  1
  Ag  Ag6  1  0.46713300  0.51682300  0.11315300  1
  Ag  Ag7  1  0.45130500  0.01882200  0.10078900  1
  Pb  Pb0  1  0.08565400  0.88080800  0.99042000  1
  Pb  Pb1  1  0.39340900  0.36471200  0.76128700  1
  Pb  Pb2  1  0.58965000  0.66073800  0.46347200  1
  Pb  Pb3  1  0.20459400  0.59749600  0.77398600  1
  Pb  Pb4  1  0.10659100  0.36471200  0.26128700  1
  Pb  Pb5  1  0.75533300  0.37367000  0.49844900  1
  Pb  Pb6  1  0.70459400  0.40250400  0.72601400  1
  Pb  Pb7  1  0.24466700  0.62633000  0.50155100  1
  Pb  Pb8  1  0.77108500  0.88374200  0.24555000  1
  Pb  Pb9  1  0.22891500  0.11625800  0.75445000  1
  Pb  Pb10  1  0.29540600  0.59749600  0.27398600  1
  Pb  Pb11  1  0.25336200  0.11405800  0.00168200  1
  Pb  Pb12  1  0.41434600  0.88080800  0.49042000  1
  Pb  Pb13  1  0.10591500  0.85998100  0.25891300  1
  Pb  Pb14  1  0.91035000  0.66073800  0.96347200  1
  Pb  Pb15  1  0.72891500  0.88374200  0.74555000  1
  Pb  Pb16  1  0.60591500  0.14001900  0.24108700  1
  Pb  Pb17  1  0.74466700  0.37367000  0.99844900  1
  Pb  Pb18  1  0.08965000  0.33926200  0.03652800  1
  Pb  Pb19  1  0.75336200  0.88594200  0.49831800  1
  Pb  Pb20  1  0.58565400  0.11919200  0.50958000  1
  Pb  Pb21  1  0.74663800  0.88594200  0.99831800  1
  Pb  Pb22  1  0.27108500  0.11625800  0.25445000  1
  Pb  Pb23  1  0.25533300  0.62633000  0.00155100  1
  Pb  Pb24  1  0.41035000  0.33926200  0.53652800  1
  Pb  Pb25  1  0.89340900  0.63528800  0.73871300  1
  Pb  Pb26  1  0.60659100  0.63528800  0.23871300  1
  Pb  Pb27  1  0.91434600  0.11919200  0.00958000  1
  Pb  Pb28  1  0.24663800  0.11405800  0.50168200  1
  Pb  Pb29  1  0.89408500  0.14001900  0.74108700  1
  Pb  Pb30  1  0.39408500  0.85998100  0.75891300  1
  Pb  Pb31  1  0.79540600  0.40250400  0.22601400  1
  Cl  Cl0  1  0.08945400  0.37937900  0.50106000  1
  Cl  Cl1  1  0.06941700  0.33357900  0.80241000  1
  Cl  Cl2  1  0.41245300  0.87911900  0.98757300  1
  Cl  Cl3  1  0.43175100  0.81368800  0.29500100  1
  Cl  Cl4  1  0.56824900  0.18631200  0.70499900  1
  Cl  Cl5  1  0.56941700  0.66642100  0.69759000  1
  Cl  Cl6  1  0.43058300  0.33357900  0.30241000  1
  Cl  Cl7  1  0.93175100  0.18631200  0.20499900  1
  Cl  Cl8  1  0.08754700  0.87911900  0.48757300  1
  Cl  Cl9  1  0.91054600  0.62062100  0.49894000  1
  Cl  Cl10  1  0.06824900  0.81368800  0.79500100  1
  Cl  Cl11  1  0.58945400  0.62062100  0.99894000  1
  Cl  Cl12  1  0.58754700  0.12088100  0.01242700  1
  Cl  Cl13  1  0.91245300  0.12088100  0.51242700  1
  Cl  Cl14  1  0.41054600  0.37937900  0.00106000  1
  Cl  Cl15  1  0.93058300  0.66642100  0.19759000  1
  O  O0  1  0.86821700  0.99098500  0.91849900  1
  O  O1  1  0.70458600  0.06099000  0.56915900  1
  O  O2  1  0.22565300  0.32063200  0.31542400  1
  O  O3  1  0.30122100  0.42075400  0.45310800  1
  O  O4  1  0.77617600  0.20884300  0.68536700  1
  O  O5  1  0.29541400  0.93901000  0.43084100  1
  O  O6  1  0.22382400  0.79115700  0.31463300  1
  O  O7  1  0.86189600  0.84011500  0.78781000  1
  O  O8  1  0.69877900  0.57924600  0.54689200  1
  O  O9  1  0.79541400  0.06099000  0.06915900  1
  O  O10  1  0.77434700  0.67936800  0.68457600  1
  O  O11  1  0.20458600  0.93901000  0.93084100  1
  O  O12  1  0.72565300  0.67936800  0.18457600  1
  O  O13  1  0.36189600  0.15988500  0.71219000  1
  O  O14  1  0.80122100  0.57924600  0.04689200  1
  O  O15  1  0.13810400  0.15988500  0.21219000  1
  O  O16  1  0.72382400  0.20884300  0.18536700  1
  O  O17  1  0.27434700  0.32063200  0.81542400  1
  O  O18  1  0.63178300  0.99098500  0.41849900  1
  O  O19  1  0.36772800  0.57118400  0.58493900  1
  O  O20  1  0.63227200  0.42881600  0.41506100  1
  O  O21  1  0.13178300  0.00901500  0.08150100  1
  O  O22  1  0.63810400  0.84011500  0.28781000  1
  O  O23  1  0.36821700  0.00901500  0.58150100  1
  O  O24  1  0.86772800  0.42881600  0.91506100  1
  O  O25  1  0.27617600  0.79115700  0.81463300  1
  O  O26  1  0.13227200  0.57118400  0.08493900  1
  O  O27  1  0.19877900  0.42075400  0.95310800  1
loop_
_geom_bond_atom_site_label_1
_geom_bond_atom_site_label_2
_geom_bond_distance
_geom_bond_site_symmetry_2
Ag0 Cl4 2.495315 1_565
Ag0 Cl11 2.614050 1_555
Ag0 Cl12 2.631547 1_566
Ag0 Cl2 2.750915 1_555
Ag1 Cl15 2.497006 1_555
Ag1 Cl0 2.680471 1_655
Ag1 Cl9 2.709727 1_555
Ag1 Cl13 2.721694 1_555
Ag2 Cl1 2.497006 1_555
Ag2 Cl9 2.680471 1_455
Ag2 Cl0 2.709727 1_555
Ag2 Cl8 2.721694 1_555
Ag3 Cl7 2.495315 1_565
Ag3 Cl9 2.614050 1_555
Ag3 Cl13 2.631547 1_565
Ag3 Cl8 2.750915 1_655
Ag4 Cl10 2.495315 1_545
Ag4 Cl0 2.614050 1_555
Ag4 Cl8 2.631547 1_545
Ag4 Cl13 2.750915 1_455
Ag5 Cl5 2.497006 1_555
Ag5 Cl14 2.680471 1_556
Ag5 Cl11 2.709727 1_555
Ag5 Cl12 2.721694 1_556
Ag6 Cl6 2.497006 1_555
Ag6 Cl11 2.680471 1_554
Ag6 Cl14 2.709727 1_555
Ag6 Cl2 2.721694 1_554
Ag7 Cl3 2.495315 1_545
Ag7 Cl14 2.614050 1_555
Ag7 Cl2 2.631547 1_544
Ag7 Cl12 2.750915 1_555
O0 Pb27 2.308146 1_566
O0 Pb29 2.314627 1_565
O0 Pb21 2.466800 1_555
O0 Pb14 2.548380 1_555
O1 Pb15 2.285201 1_545
O1 Pb20 2.317101 1_555
O1 Pb5 2.385509 1_555
O1 Pb19 2.393865 1_545
O2 Pb4 2.299128 1_555
O2 Pb10 2.391308 1_555
O2 Pb28 2.404000 1_555
O2 Pb22 2.468604 1_555
O3 Pb24 2.271822 1_555
O3 Pb10 2.278045 1_555
O3 Pb7 2.420470 1_555
O3 Pb28 2.439136 1_555
O4 Pb29 2.286314 1_555
O4 Pb6 2.396781 1_555
O4 Pb5 2.411614 1_555
O4 Pb15 2.479040 1_545
O5 Pb22 2.285201 1_565
O5 Pb12 2.317101 1_555
O5 Pb7 2.385509 1_555
O5 Pb28 2.393865 1_565
O6 Pb13 2.286314 1_555
O6 Pb10 2.396781 1_555
O6 Pb7 2.411614 1_555
O6 Pb22 2.479040 1_565
O7 Pb29 2.255886 1_565
O7 Pb25 2.262258 1_555
O7 Pb14 2.403616 1_555
O7 Pb15 2.506875 1_555
O8 Pb2 2.271822 1_555
O8 Pb6 2.278045 1_555
O8 Pb5 2.420470 1_555
O8 Pb19 2.439136 1_555
O9 Pb8 2.285201 1_545
O9 Pb27 2.317101 1_555
O9 Pb17 2.385509 1_554
O9 Pb21 2.393865 1_544
O10 Pb25 2.299128 1_555
O10 Pb6 2.391308 1_555
O10 Pb19 2.404000 1_555
O10 Pb15 2.468604 1_555
O11 Pb9 2.285201 1_565
O11 Pb0 2.317101 1_555
O11 Pb23 2.385509 1_556
O11 Pb11 2.393865 1_566
O12 Pb26 2.299128 1_555
O12 Pb31 2.391308 1_555
O12 Pb21 2.404000 1_554
O12 Pb8 2.468604 1_555
O13 Pb30 2.255886 1_545
O13 Pb1 2.262258 1_555
O13 Pb24 2.403616 1_555
O13 Pb9 2.506875 1_555
O14 Pb14 2.271822 1_554
O14 Pb31 2.278045 1_555
O14 Pb17 2.420470 1_554
O14 Pb21 2.439136 1_554
O15 Pb13 2.255886 1_545
O15 Pb4 2.262258 1_555
O15 Pb18 2.403616 1_555
O15 Pb22 2.506875 1_555
O16 Pb16 2.286314 1_555
O16 Pb31 2.396781 1_555
O16 Pb17 2.411614 1_554
O16 Pb8 2.479040 1_545
O17 Pb1 2.299128 1_555
O17 Pb3 2.391308 1_555
O17 Pb11 2.404000 1_556
O17 Pb9 2.468604 1_555
O18 Pb20 2.308146 1_565
O18 Pb16 2.314627 1_565
O18 Pb19 2.466800 1_555
O18 Pb2 2.548380 1_555
O19 Pb1 2.304033 1_555
O19 Pb12 2.313750 1_555
O19 Pb7 2.511897 1_555
O19 Pb24 2.519647 1_555
O20 Pb26 2.304033 1_555
O20 Pb20 2.313750 1_555
O20 Pb5 2.511897 1_555
O20 Pb2 2.519647 1_555
O21 Pb0 2.308146 1_544
O21 Pb13 2.314627 1_545
O21 Pb11 2.466800 1_555
O21 Pb18 2.548380 1_555
O22 Pb16 2.255886 1_565
O22 Pb26 2.262258 1_555
O22 Pb2 2.403616 1_555
O22 Pb8 2.506875 1_555
O23 Pb12 2.308146 1_545
O23 Pb30 2.314627 1_545
O23 Pb28 2.466800 1_555
O23 Pb24 2.548380 1_555
O24 Pb25 2.304033 1_555
O24 Pb27 2.313750 1_556
O24 Pb17 2.511897 1_555
O24 Pb14 2.519647 1_555
O25 Pb30 2.286314 1_555
O25 Pb3 2.396781 1_555
O25 Pb23 2.411614 1_556
O25 Pb9 2.479040 1_565
O26 Pb4 2.304033 1_555
O26 Pb0 2.313750 1_554
O26 Pb23 2.511897 1_555
O26 Pb18 2.519647 1_555
O27 Pb18 2.271822 1_556
O27 Pb3 2.278045 1_555
O27 Pb23 2.420470 1_556
O27 Pb11 2.439136 1_556
