# generated using pymatgen
data_Ca3AlCd17
_symmetry_space_group_name_H-M   'P 1'
_cell_length_a   15.84461802
_cell_length_b   15.84461802
_cell_length_c   15.84461862
_cell_angle_alpha   90.04463755
_cell_angle_beta   90.04463755
_cell_angle_gamma   90.04463449
_symmetry_Int_Tables_number   1
_chemical_formula_structural   Ca3AlCd17
_chemical_formula_sum   'Ca24 Al8 Cd136'
_cell_volume   3977.81830914
_cell_formula_units_Z   8
loop_
 _symmetry_equiv_pos_site_id
 _symmetry_equiv_pos_as_xyz
  1  'x, y, z'
loop_
 _atom_site_type_symbol
 _atom_site_label
 _atom_site_symmetry_multiplicity
 _atom_site_fract_x
 _atom_site_fract_y
 _atom_site_fract_z
 _atom_site_occupancy
  Ca  Ca0  1  0.19883600  0.49788500  0.31066000  1
  Ca  Ca1  1  0.80102100  0.50117200  0.31397900  1
  Ca  Ca2  1  0.50111200  0.68959900  0.20171300  1
  Ca  Ca3  1  0.68959900  0.20171300  0.50111200  1
  Ca  Ca4  1  0.80356900  0.50210200  0.69060300  1
  Ca  Ca5  1  0.50210200  0.69060300  0.80356900  1
  Ca  Ca6  1  0.18770300  0.29880500  0.99870100  1
  Ca  Ca7  1  0.69916800  0.00107200  0.19021900  1
  Ca  Ca8  1  0.99870100  0.18770300  0.29880500  1
  Ca  Ca9  1  0.29880500  0.99870100  0.18770300  1
  Ca  Ca10  1  0.31066000  0.19883600  0.49788500  1
  Ca  Ca11  1  0.69899500  0.00239400  0.81166500  1
  Ca  Ca12  1  0.80927000  0.30468800  0.00080000  1
  Ca  Ca13  1  0.19021900  0.69916800  0.00107200  1
  Ca  Ca14  1  0.30468800  0.00080000  0.80927000  1
  Ca  Ca15  1  0.00239400  0.81166500  0.69899500  1
  Ca  Ca16  1  0.69060300  0.80356900  0.50210200  1
  Ca  Ca17  1  0.31397900  0.80102100  0.50117200  1
  Ca  Ca18  1  0.00080000  0.80927000  0.30468800  1
  Ca  Ca19  1  0.00107200  0.19021900  0.69916800  1
  Ca  Ca20  1  0.49788500  0.31066000  0.19883600  1
  Ca  Ca21  1  0.50117200  0.31397900  0.80102100  1
  Ca  Ca22  1  0.20171300  0.50111200  0.68959900  1
  Ca  Ca23  1  0.81166500  0.69899500  0.00239400  1
  Al  Al0  1  0.06812400  0.07535700  0.94759400  1
  Al  Al1  1  0.07535700  0.94759400  0.06812400  1
  Al  Al2  1  0.58214400  0.43299200  0.49429400  1
  Al  Al3  1  0.42476500  0.42476500  0.42476500  1
  Al  Al4  1  0.43299200  0.49429400  0.58214400  1
  Al  Al5  1  0.49429400  0.58214400  0.43299200  1
  Al  Al6  1  0.94759400  0.06812400  0.07535700  1
  Al  Al7  1  0.94556600  0.94556600  0.94556600  1
  Cd  Cd0  1  0.00172400  0.77279600  0.90966100  1
  Cd  Cd1  1  0.69787800  0.38683800  0.83756400  1
  Cd  Cd2  1  0.83120300  0.16915400  0.16862900  1
  Cd  Cd3  1  0.99928200  0.40551500  0.34281200  1
  Cd  Cd4  1  0.16915400  0.16862900  0.83120300  1
  Cd  Cd5  1  0.69704300  0.61698200  0.16413400  1
  Cd  Cd6  1  0.30014100  0.38518300  0.15262700  1
  Cd  Cd7  1  0.65627800  0.66026100  0.34560200  1
  Cd  Cd8  1  0.50491600  0.72033600  0.58841100  1
  Cd  Cd9  1  0.38788900  0.16068900  0.69477900  1
  Cd  Cd10  1  0.50197000  0.90439800  0.15807300  1
  Cd  Cd11  1  0.59755700  0.65787000  0.00260300  1
  Cd  Cd12  1  0.09407200  0.15629400  0.49936700  1
  Cd  Cd13  1  0.34560200  0.65627800  0.66026100  1
  Cd  Cd14  1  0.69477900  0.38788900  0.16068900  1
  Cd  Cd15  1  0.50056100  0.99792500  0.31591500  1
  Cd  Cd16  1  0.59561000  0.34484500  0.99911100  1
  Cd  Cd17  1  0.23657000  0.90561400  0.99882300  1
  Cd  Cd18  1  0.50084000  0.26308500  0.40435000  1
  Cd  Cd19  1  0.90561400  0.99882300  0.23657000  1
  Cd  Cd20  1  0.40551500  0.34281200  0.99928200  1
  Cd  Cd21  1  0.50058900  0.10006200  0.50596500  1
  Cd  Cd22  1  0.99882300  0.23657000  0.90561400  1
  Cd  Cd23  1  0.83872900  0.16282600  0.83962200  1
  Cd  Cd24  1  0.65588500  0.00052200  0.40655900  1
  Cd  Cd25  1  0.28058800  0.58929000  0.49891400  1
  Cd  Cd26  1  0.66017000  0.20145200  0.88349600  1
  Cd  Cd27  1  0.11638400  0.34483200  0.80033200  1
  Cd  Cd28  1  0.50175700  0.90492500  0.84446700  1
  Cd  Cd29  1  0.90439800  0.15807300  0.50197000  1
  Cd  Cd30  1  0.00260300  0.59755700  0.65787000  1
  Cd  Cd31  1  0.68838000  0.50146700  0.99941000  1
  Cd  Cd32  1  0.83757400  0.83757400  0.83757400  1
  Cd  Cd33  1  0.88349600  0.66017000  0.20145200  1
  Cd  Cd34  1  0.61698200  0.16413400  0.69704300  1
  Cd  Cd35  1  0.11762100  0.34007300  0.19877800  1
  Cd  Cd36  1  0.66548500  0.66548500  0.66548500  1
  Cd  Cd37  1  0.30112600  0.61644900  0.15808500  1
  Cd  Cd38  1  0.99988200  0.50140600  0.18560300  1
  Cd  Cd39  1  0.90492500  0.84446700  0.50175700  1
  Cd  Cd40  1  0.00064200  0.59860000  0.99905900  1
  Cd  Cd41  1  0.31591500  0.50056100  0.99792500  1
  Cd  Cd42  1  0.29868800  0.37999500  0.84330200  1
  Cd  Cd43  1  0.19877800  0.11762100  0.34007300  1
  Cd  Cd44  1  0.34091100  0.66308000  0.33830800  1
  Cd  Cd45  1  0.80238900  0.88376600  0.34327200  1
  Cd  Cd46  1  0.15629400  0.49936700  0.09407200  1
  Cd  Cd47  1  0.40435000  0.50084000  0.26308500  1
  Cd  Cd48  1  0.66052000  0.80252900  0.11553500  1
  Cd  Cd49  1  0.34603300  0.19971800  0.88012600  1
  Cd  Cd50  1  0.09728100  0.84223300  0.50280300  1
  Cd  Cd51  1  0.80033200  0.11638400  0.34483200  1
  Cd  Cd52  1  0.65636300  0.20111800  0.11646900  1
  Cd  Cd53  1  0.99941000  0.68838000  0.50146700  1
  Cd  Cd54  1  0.66037500  0.80311700  0.88577900  1
  Cd  Cd55  1  0.20111800  0.11646900  0.65636300  1
  Cd  Cd56  1  0.88577900  0.66037500  0.80311700  1
  Cd  Cd57  1  0.09432600  0.00184700  0.77083000  1
  Cd  Cd58  1  0.84446700  0.50175700  0.90492500  1
  Cd  Cd59  1  0.84141700  0.29842300  0.62398300  1
  Cd  Cd60  1  0.99737300  0.24194100  0.09222500  1
  Cd  Cd61  1  0.40655900  0.65588500  0.00052200  1
  Cd  Cd62  1  0.84223300  0.50280300  0.09728100  1
  Cd  Cd63  1  0.51085500  0.50178900  0.90863400  1
  Cd  Cd64  1  0.32412900  0.32412900  0.32412900  1
  Cd  Cd65  1  0.34007300  0.19877800  0.11762100  1
  Cd  Cd66  1  0.34484500  0.99911100  0.59561000  1
  Cd  Cd67  1  0.90863400  0.51085500  0.50178900  1
  Cd  Cd68  1  0.66308000  0.33830800  0.34091100  1
  Cd  Cd69  1  0.16282600  0.83962200  0.83872900  1
  Cd  Cd70  1  0.34281200  0.99928200  0.40551500  1
  Cd  Cd71  1  0.50140600  0.18560300  0.99988200  1
  Cd  Cd72  1  0.15476000  0.15476000  0.15476000  1
  Cd  Cd73  1  0.61746000  0.84214100  0.69927000  1
  Cd  Cd74  1  0.10006200  0.50596500  0.50058900  1
  Cd  Cd75  1  0.72033600  0.58841100  0.50491600  1
  Cd  Cd76  1  0.50596500  0.50058900  0.10006200  1
  Cd  Cd77  1  0.58929000  0.49891400  0.28058800  1
  Cd  Cd78  1  0.40760000  0.99546300  0.99987900  1
  Cd  Cd79  1  0.69927000  0.61746000  0.84214100  1
  Cd  Cd80  1  0.16862900  0.83120300  0.16915400  1
  Cd  Cd81  1  0.62398300  0.84141700  0.29842300  1
  Cd  Cd82  1  0.24194100  0.09222500  0.99737300  1
  Cd  Cd83  1  0.26308500  0.40435000  0.50084000  1
  Cd  Cd84  1  0.84214100  0.69927000  0.61746000  1
  Cd  Cd85  1  0.49891400  0.28058800  0.58929000  1
  Cd  Cd86  1  0.50178900  0.90863400  0.51085500  1
  Cd  Cd87  1  0.16068900  0.69477900  0.38788900  1
  Cd  Cd88  1  0.38518300  0.15262700  0.30014100  1
  Cd  Cd89  1  0.99905900  0.00064200  0.59860000  1
  Cd  Cd90  1  0.50146700  0.99941000  0.68838000  1
  Cd  Cd91  1  0.11646900  0.65636300  0.20111800  1
  Cd  Cd92  1  0.99792500  0.31591500  0.50056100  1
  Cd  Cd93  1  0.77279600  0.90966100  0.00172400  1
  Cd  Cd94  1  0.77083000  0.09432600  0.00184700  1
  Cd  Cd95  1  0.50119800  0.81349300  0.00079700  1
  Cd  Cd96  1  0.20145200  0.88349600  0.66017000  1
  Cd  Cd97  1  0.99546300  0.99987900  0.40760000  1
  Cd  Cd98  1  0.15808500  0.30112600  0.61644900  1
  Cd  Cd99  1  0.33830800  0.34091100  0.66308000  1
  Cd  Cd100  1  0.61644900  0.15808500  0.30112600  1
  Cd  Cd101  1  0.15807300  0.50197000  0.90439800  1
  Cd  Cd102  1  0.00052200  0.40655900  0.65588500  1
  Cd  Cd103  1  0.80252900  0.11553500  0.66052000  1
  Cd  Cd104  1  0.16413400  0.69704300  0.61698200  1
  Cd  Cd105  1  0.00079700  0.50119800  0.81349300  1
  Cd  Cd106  1  0.66026100  0.34560200  0.65627800  1
  Cd  Cd107  1  0.11553500  0.66052000  0.80252900  1
  Cd  Cd108  1  0.90966100  0.00172400  0.77279600  1
  Cd  Cd109  1  0.00184700  0.77083000  0.09432600  1
  Cd  Cd110  1  0.19971800  0.88012600  0.34603300  1
  Cd  Cd111  1  0.83962200  0.83872900  0.16282600  1
  Cd  Cd112  1  0.29842300  0.62398300  0.84141700  1
  Cd  Cd113  1  0.59860000  0.99905900  0.00064200  1
  Cd  Cd114  1  0.49936700  0.09407200  0.15629400  1
  Cd  Cd115  1  0.15262700  0.30014100  0.38518300  1
  Cd  Cd116  1  0.99987900  0.40760000  0.99546300  1
  Cd  Cd117  1  0.88376600  0.34327200  0.80238900  1
  Cd  Cd118  1  0.34327200  0.80238900  0.88376600  1
  Cd  Cd119  1  0.34483200  0.80033200  0.11638400  1
  Cd  Cd120  1  0.65787000  0.00260300  0.59755700  1
  Cd  Cd121  1  0.40580500  0.50182900  0.75466000  1
  Cd  Cd122  1  0.09222500  0.99737300  0.24194100  1
  Cd  Cd123  1  0.99911100  0.59561000  0.34484500  1
  Cd  Cd124  1  0.80311700  0.88577900  0.66037500  1
  Cd  Cd125  1  0.83756400  0.69787800  0.38683800  1
  Cd  Cd126  1  0.75466000  0.40580500  0.50182900  1
  Cd  Cd127  1  0.37999500  0.84330200  0.29868800  1
  Cd  Cd128  1  0.50182900  0.75466000  0.40580500  1
  Cd  Cd129  1  0.58841100  0.50491600  0.72033600  1
  Cd  Cd130  1  0.84330200  0.29868800  0.37999500  1
  Cd  Cd131  1  0.81349300  0.00079700  0.50119800  1
  Cd  Cd132  1  0.38683800  0.83756400  0.69787800  1
  Cd  Cd133  1  0.18560300  0.99988200  0.50140600  1
  Cd  Cd134  1  0.50280300  0.09728100  0.84223300  1
  Cd  Cd135  1  0.88012600  0.34603300  0.19971800  1
loop_
_geom_bond_atom_site_label_1
_geom_bond_atom_site_label_2
_geom_bond_distance
_geom_bond_site_symmetry_2
Ca0 Cd91 3.321040 1_555
Ca0 Cd35 3.321950 1_555
Ca0 Cd47 3.343275 1_555
Ca0 Cd74 3.395435 1_555
Ca0 Cd64 3.402199 1_555
Ca0 Cd87 3.404911 1_555
Ca0 Cd115 3.427925 1_555
Ca0 Cd37 3.465353 1_555
Ca0 Cd6 3.469713 1_555
Ca0 Cd44 3.478220 1_555
Ca0 Cd46 3.496912 1_555
Ca0 Cd83 3.509617 1_555
Ca0 Cd3 3.520704 1_455
Ca0 Cd25 3.557651 1_555
Ca0 Cd123 3.565733 1_455
Ca0 Cd38 3.722553 1_455
Ca1 Cd135 3.300357 1_555
Ca1 Cd33 3.352428 1_555
Ca1 Cd125 3.372314 1_555
Ca1 Cd77 3.396008 1_555
Ca1 Cd68 3.407711 1_555
Ca1 Cd126 3.419151 1_555
Ca1 Cd5 3.423993 1_555
Ca1 Cd67 3.431776 1_555
Ca1 Cd130 3.441434 1_555
Ca1 Cd7 3.445796 1_555
Ca1 Cd14 3.454964 1_555
Ca1 Cd62 3.495650 1_555
Ca1 Cd123 3.509777 1_555
Ca1 Cd3 3.518574 1_555
Ca1 Cd75 3.563689 1_555
Ca1 Cd38 3.751727 1_555
Ca2 Cd119 3.323111 1_555
Ca2 Cd44 3.363351 1_555
Ca2 Cd5 3.365024 1_555
Ca2 Cd48 3.383457 1_555
Ca2 Cd7 3.384231 1_555
Ca2 Cd128 3.393339 1_555
Ca2 Cd76 3.400268 1_555
Ca2 Cd37 3.442601 1_555
Ca2 Cd81 3.450649 1_555
Ca2 Cd127 3.461321 1_555
Ca2 Cd10 3.473485 1_555
Ca2 Cd47 3.498692 1_555
Ca2 Cd11 3.542185 1_555
Ca2 Cd77 3.556973 1_555
Ca2 Cd61 3.560972 1_555
Ca2 Cd95 3.741336 1_555
Ca3 Cd51 3.323111 1_555
Ca3 Cd68 3.363351 1_555
Ca3 Cd34 3.365024 1_555
Ca3 Cd103 3.383457 1_555
Ca3 Cd106 3.384231 1_555
Ca3 Cd126 3.393339 1_555
Ca3 Cd21 3.400268 1_555
Ca3 Cd100 3.442601 1_555
Ca3 Cd59 3.450649 1_555
Ca3 Cd130 3.461321 1_555
Ca3 Cd29 3.473485 1_555
Ca3 Cd18 3.498692 1_555
Ca3 Cd120 3.542185 1_555
Ca3 Cd85 3.556973 1_555
Ca3 Cd24 3.560972 1_555
Ca3 Cd131 3.741336 1_555
Ca4 Cd117 3.330695 1_555
Ca4 Cd56 3.338886 1_555
Ca4 Cd84 3.388228 1_555
Ca4 Cd1 3.401450 1_555
Ca4 Cd106 3.404074 1_555
Ca4 Cd36 3.414074 1_555
Ca4 Cd67 3.427644 1_555
Ca4 Cd79 3.441079 1_555
Ca4 Cd129 3.442176 1_555
Ca4 Cd126 3.444183 1_555
Ca4 Cd59 3.447820 1_555
Ca4 Cd58 3.456639 1_555
Ca4 Cd75 3.502654 1_555
Ca4 Cd102 3.513045 1_655
Ca4 Cd30 3.535270 1_655
Ca4 Cd105 3.680741 1_655
Ca5 Cd118 3.330695 1_555
Ca5 Cd54 3.338886 1_555
Ca5 Cd79 3.388227 1_555
Ca5 Cd132 3.401450 1_555
Ca5 Cd13 3.404074 1_555
Ca5 Cd36 3.414074 1_555
Ca5 Cd63 3.427644 1_555
Ca5 Cd73 3.441079 1_555
Ca5 Cd8 3.442176 1_555
Ca5 Cd121 3.444183 1_555
Ca5 Cd112 3.447821 1_555
Ca5 Cd28 3.456639 1_555
Ca5 Cd129 3.502654 1_555
Ca5 Cd61 3.513045 1_556
Ca5 Cd11 3.535270 1_556
Ca5 Cd95 3.680741 1_556
Ca6 Cd42 3.289078 1_555
Ca6 Cd6 3.313528 1_556
Ca6 Cd4 3.372443 1_555
Ca6 Cd82 3.384818 1_555
Ca6 Cd72 3.406566 1_556
Ca6 Cd27 3.418637 1_555
Ca6 Cd35 3.422541 1_556
Ca6 Cd116 3.440732 1_455
Ca6 Cd65 3.448818 1_556
Ca6 Cd22 3.477138 1_455
Ca6 Cd60 3.479506 1_456
Ca6 Cd49 3.506713 1_555
Ca6 Cd20 3.520354 1_555
Ca6 Cd46 3.553293 1_556
Ca6 Cd101 3.581090 1_555
Ca6 Cd41 3.786317 1_555
Ca7 Cd81 3.280697 1_545
Ca7 Cd100 3.316157 1_555
Ca7 Cd19 3.352154 1_545
Ca7 Cd113 3.399282 1_545
Ca7 Cd2 3.402959 1_555
Ca7 Cd48 3.414915 1_545
Ca7 Cd111 3.430188 1_545
Ca7 Cd52 3.446747 1_555
Ca7 Cd51 3.448375 1_555
Ca7 Cd45 3.466414 1_545
Ca7 Cd24 3.496296 1_555
Ca7 Cd10 3.515287 1_545
Ca7 Cd93 3.518529 1_545
Ca7 Cd94 3.519994 1_555
Ca7 Cd114 3.533870 1_555
Ca7 Cd15 3.725766 1_545
Ca8 Cd130 3.289078 1_555
Ca8 Cd115 3.313528 1_655
Ca8 Cd2 3.372443 1_555
Ca8 Cd60 3.384819 1_555
Ca8 Cd72 3.406566 1_655
Ca8 Cd51 3.418637 1_555
Ca8 Cd43 3.422541 1_655
Ca8 Cd97 3.440732 1_545
Ca8 Cd35 3.448818 1_655
Ca8 Cd19 3.477138 1_545
Ca8 Cd122 3.479505 1_645
Ca8 Cd135 3.506713 1_555
Ca8 Cd3 3.520354 1_555
Ca8 Cd12 3.553293 1_655
Ca8 Cd29 3.581090 1_555
Ca8 Cd92 3.786317 1_555
Ca9 Cd127 3.289078 1_555
Ca9 Cd88 3.313528 1_565
Ca9 Cd80 3.372443 1_555
Ca9 Cd122 3.384819 1_555
Ca9 Cd72 3.406565 1_565
Ca9 Cd119 3.418637 1_555
Ca9 Cd65 3.422541 1_565
Ca9 Cd78 3.440732 1_554
Ca9 Cd43 3.448818 1_565
Ca9 Cd17 3.477138 1_554
Ca9 Cd82 3.479506 1_564
Ca9 Cd110 3.506713 1_555
Ca9 Cd70 3.520354 1_555
Ca9 Cd114 3.553293 1_565
Ca9 Cd10 3.581090 1_555
Ca9 Cd15 3.786317 1_555
Ca10 Cd55 3.321040 1_555
Ca10 Cd43 3.321950 1_555
Ca10 Cd83 3.343275 1_555
Ca10 Cd21 3.395435 1_555
Ca10 Cd64 3.402199 1_555
Ca10 Cd9 3.404911 1_555
Ca10 Cd88 3.427925 1_555
Ca10 Cd98 3.465352 1_555
Ca10 Cd115 3.469713 1_555
Ca10 Cd99 3.478220 1_555
Ca10 Cd12 3.496912 1_555
Ca10 Cd18 3.509617 1_555
Ca10 Cd70 3.520704 1_545
Ca10 Cd85 3.557651 1_555
Ca10 Cd66 3.565733 1_545
Ca10 Cd133 3.722553 1_545
Ca11 Cd73 3.357374 1_545
Ca11 Cd113 3.392103 1_546
Ca11 Cd108 3.394757 1_555
Ca11 Cd23 3.398204 1_555
Ca11 Cd34 3.400473 1_555
Ca11 Cd26 3.408813 1_555
Ca11 Cd103 3.412953 1_555
Ca11 Cd54 3.424461 1_545
Ca11 Cd32 3.437869 1_545
Ca11 Cd124 3.447619 1_545
Ca11 Cd120 3.453978 1_555
Ca11 Cd134 3.488087 1_555
Ca11 Cd28 3.523927 1_545
Ca11 Cd94 3.533106 1_556
Ca11 Cd93 3.549502 1_546
Ca11 Cd90 3.688291 1_545
Ca12 Cd14 3.384142 1_555
Ca12 Cd94 3.387886 1_555
Ca12 Cd1 3.391252 1_554
Ca12 Cd135 3.407846 1_555
Ca12 Cd117 3.414351 1_554
Ca12 Cd26 3.419598 1_554
Ca12 Cd116 3.432218 1_554
Ca12 Cd23 3.433178 1_554
Ca12 Cd2 3.436910 1_555
Ca12 Cd16 3.445210 1_554
Ca12 Cd52 3.453551 1_555
Ca12 Cd60 3.459755 1_555
Ca12 Cd58 3.517752 1_554
Ca12 Cd62 3.528756 1_555
Ca12 Cd22 3.531214 1_554
Ca12 Cd31 3.660605 1_554
Ca13 Cd112 3.280697 1_554
Ca13 Cd37 3.316157 1_555
Ca13 Cd17 3.352154 1_554
Ca13 Cd40 3.399282 1_554
Ca13 Cd80 3.402959 1_555
Ca13 Cd107 3.414915 1_554
Ca13 Cd69 3.430188 1_554
Ca13 Cd91 3.446747 1_555
Ca13 Cd119 3.448375 1_555
Ca13 Cd118 3.466414 1_554
Ca13 Cd61 3.496296 1_555
Ca13 Cd101 3.515287 1_554
Ca13 Cd0 3.518529 1_554
Ca13 Cd109 3.519994 1_555
Ca13 Cd46 3.533870 1_555
Ca13 Cd41 3.725766 1_554
Ca14 Cd9 3.384142 1_555
Ca14 Cd57 3.387886 1_555
Ca14 Cd132 3.391252 1_545
Ca14 Cd49 3.407846 1_555
Ca14 Cd118 3.414351 1_545
Ca14 Cd96 3.419598 1_545
Ca14 Cd78 3.432218 1_545
Ca14 Cd69 3.433178 1_545
Ca14 Cd4 3.436910 1_555
Ca14 Cd66 3.445210 1_545
Ca14 Cd55 3.453551 1_555
Ca14 Cd82 3.459755 1_555
Ca14 Cd28 3.517752 1_545
Ca14 Cd134 3.528756 1_555
Ca14 Cd17 3.531214 1_545
Ca14 Cd90 3.660605 1_545
Ca15 Cd84 3.357374 1_455
Ca15 Cd89 3.392103 1_465
Ca15 Cd0 3.394757 1_555
Ca15 Cd69 3.398204 1_555
Ca15 Cd104 3.400473 1_555
Ca15 Cd96 3.408813 1_555
Ca15 Cd107 3.412953 1_555
Ca15 Cd124 3.424461 1_455
Ca15 Cd32 3.437869 1_455
Ca15 Cd56 3.447619 1_455
Ca15 Cd30 3.453978 1_555
Ca15 Cd50 3.488087 1_555
Ca15 Cd39 3.523927 1_455
Ca15 Cd57 3.533106 1_565
Ca15 Cd108 3.549502 1_465
Ca15 Cd53 3.688291 1_455
Ca16 Cd45 3.330695 1_555
Ca16 Cd124 3.338886 1_555
Ca16 Cd73 3.388228 1_555
Ca16 Cd125 3.401450 1_555
Ca16 Cd7 3.404074 1_555
Ca16 Cd36 3.414074 1_555
Ca16 Cd86 3.427643 1_555
Ca16 Cd84 3.441079 1_555
Ca16 Cd75 3.442176 1_555
Ca16 Cd128 3.444183 1_555
Ca16 Cd81 3.447821 1_555
Ca16 Cd39 3.456639 1_555
Ca16 Cd8 3.502654 1_555
Ca16 Cd24 3.513045 1_565
Ca16 Cd120 3.535270 1_565
Ca16 Cd131 3.680741 1_565
Ca17 Cd110 3.300357 1_555
Ca17 Cd96 3.352428 1_555
Ca17 Cd132 3.372314 1_555
Ca17 Cd25 3.396008 1_555
Ca17 Cd44 3.407711 1_555
Ca17 Cd128 3.419150 1_555
Ca17 Cd104 3.423993 1_555
Ca17 Cd86 3.431776 1_555
Ca17 Cd127 3.441435 1_555
Ca17 Cd13 3.445796 1_555
Ca17 Cd87 3.454964 1_555
Ca17 Cd50 3.495650 1_555
Ca17 Cd66 3.509777 1_555
Ca17 Cd70 3.518575 1_555
Ca17 Cd8 3.563689 1_555
Ca17 Cd133 3.751726 1_555
Ca18 Cd87 3.384142 1_555
Ca18 Cd109 3.387886 1_555
Ca18 Cd125 3.391252 1_455
Ca18 Cd110 3.407846 1_555
Ca18 Cd45 3.414351 1_455
Ca18 Cd33 3.419598 1_455
Ca18 Cd97 3.432218 1_455
Ca18 Cd111 3.433178 1_455
Ca18 Cd80 3.436910 1_555
Ca18 Cd123 3.445210 1_455
Ca18 Cd91 3.453551 1_555
Ca18 Cd122 3.459755 1_555
Ca18 Cd39 3.517752 1_455
Ca18 Cd50 3.528756 1_555
Ca18 Cd19 3.531214 1_455
Ca18 Cd53 3.660605 1_455
Ca19 Cd59 3.280697 1_455
Ca19 Cd98 3.316157 1_555
Ca19 Cd22 3.352154 1_455
Ca19 Cd89 3.399282 1_455
Ca19 Cd4 3.402959 1_555
Ca19 Cd103 3.414915 1_455
Ca19 Cd23 3.430188 1_455
Ca19 Cd55 3.446747 1_555
Ca19 Cd27 3.448375 1_555
Ca19 Cd117 3.466414 1_455
Ca19 Cd102 3.496296 1_555
Ca19 Cd29 3.515287 1_455
Ca19 Cd108 3.518529 1_455
Ca19 Cd57 3.519993 1_555
Ca19 Cd12 3.533870 1_555
Ca19 Cd92 3.725766 1_455
Ca20 Cd52 3.321040 1_555
Ca20 Cd65 3.321950 1_555
Ca20 Cd18 3.343276 1_555
Ca20 Cd76 3.395435 1_555
Ca20 Cd64 3.402199 1_555
Ca20 Cd14 3.404911 1_555
Ca20 Cd6 3.427925 1_555
Ca20 Cd100 3.465352 1_555
Ca20 Cd88 3.469713 1_555
Ca20 Cd68 3.478220 1_555
Ca20 Cd114 3.496912 1_555
Ca20 Cd47 3.509617 1_555
Ca20 Cd20 3.520704 1_554
Ca20 Cd77 3.557651 1_555
Ca20 Cd16 3.565733 1_554
Ca20 Cd71 3.722553 1_554
Ca21 Cd49 3.300357 1_555
Ca21 Cd26 3.352428 1_555
Ca21 Cd1 3.372314 1_555
Ca21 Cd85 3.396008 1_555
Ca21 Cd99 3.407711 1_555
Ca21 Cd121 3.419150 1_555
Ca21 Cd34 3.423993 1_555
Ca21 Cd63 3.431776 1_555
Ca21 Cd42 3.441434 1_555
Ca21 Cd106 3.445796 1_555
Ca21 Cd9 3.454964 1_555
Ca21 Cd134 3.495650 1_555
Ca21 Cd16 3.509777 1_555
Ca21 Cd20 3.518575 1_555
Ca21 Cd129 3.563689 1_555
Ca21 Cd71 3.751727 1_555
Ca22 Cd27 3.323111 1_555
Ca22 Cd99 3.363351 1_555
Ca22 Cd104 3.365024 1_555
Ca22 Cd107 3.383457 1_555
Ca22 Cd13 3.384231 1_555
Ca22 Cd121 3.393339 1_555
Ca22 Cd74 3.400268 1_555
Ca22 Cd98 3.442601 1_555
Ca22 Cd112 3.450649 1_555
Ca22 Cd42 3.461321 1_555
Ca22 Cd101 3.473485 1_555
Ca22 Cd83 3.498692 1_555
Ca22 Cd30 3.542185 1_555
Ca22 Cd25 3.556974 1_555
Ca22 Cd102 3.560972 1_555
Ca22 Cd105 3.741336 1_555
Ca23 Cd79 3.357374 1_554
Ca23 Cd40 3.392103 1_654
Ca23 Cd93 3.394757 1_555
Ca23 Cd111 3.398204 1_555
Ca23 Cd5 3.400473 1_555
Ca23 Cd33 3.408813 1_555
Ca23 Cd48 3.412953 1_555
Ca23 Cd56 3.424461 1_554
Ca23 Cd32 3.437869 1_554
Ca23 Cd54 3.447619 1_554
Ca23 Cd11 3.453978 1_555
Ca23 Cd62 3.488087 1_555
Ca23 Cd58 3.523927 1_554
Ca23 Cd109 3.533106 1_655
Ca23 Cd0 3.549502 1_654
Ca23 Cd31 3.688291 1_554
Al0 Al1 2.786458 1_546
Al0 Al6 2.786458 1_456
Al0 Al7 2.827485 1_445
Al0 Cd4 2.855293 1_555
Al0 Cd22 2.859855 1_455
Al0 Cd82 2.876375 1_555
Al0 Cd57 3.061160 1_555
Al1 Al6 2.786458 1_465
Al1 Al7 2.827485 1_454
Al1 Cd80 2.855293 1_555
Al1 Cd17 2.859855 1_554
Al1 Cd122 2.876375 1_555
Al1 Cd109 3.061160 1_555
Al2 Al3 2.728320 1_555
Al2 Cd126 2.770013 1_555
Al2 Al5 2.910762 1_555
Al2 Al4 2.910762 1_555
Al2 Cd68 3.131094 1_555
Al2 Cd85 3.136817 1_555
Al2 Cd106 3.168570 1_555
Al2 Cd75 3.298064 1_555
Al2 Cd18 3.305110 1_555
Al3 Al5 2.728320 1_555
Al3 Al4 2.728320 1_555
Al3 Cd64 2.759670 1_555
Al3 Cd18 2.850316 1_555
Al3 Cd83 2.850316 1_555
Al3 Cd47 2.850316 1_555
Al4 Cd121 2.770013 1_555
Al4 Al5 2.910762 1_555
Al4 Cd99 3.131094 1_555
Al4 Cd25 3.136817 1_555
Al4 Cd13 3.168570 1_555
Al4 Cd129 3.298064 1_555
Al4 Cd83 3.305110 1_555
Al5 Cd128 2.770013 1_555
Al5 Cd44 3.131094 1_555
Al5 Cd77 3.136817 1_555
Al5 Cd7 3.168570 1_555
Al5 Cd8 3.298064 1_555
Al5 Cd47 3.305110 1_555
Al6 Al7 2.827485 1_544
Al6 Cd2 2.855293 1_555
Al6 Cd19 2.859855 1_545
Al6 Cd60 2.876375 1_555
Al6 Cd94 3.061160 1_555
Al7 Cd0 2.934505 1_655
Al7 Cd93 2.934505 1_556
Al7 Cd108 2.934505 1_565
Al7 Cd32 2.961389 1_555
Cd0 Cd109 2.926136 1_556
Cd0 Cd69 2.983644 1_555
Cd0 Cd32 3.020607 1_455
Cd0 Cd107 3.050090 1_555
Cd0 Cd56 3.063184 1_455
Cd0 Cd40 3.103343 1_555
Cd1 Cd106 3.004441 1_555
Cd1 Cd117 3.076878 1_555
Cd1 Cd26 3.084809 1_555
Cd1 Cd16 3.102844 1_555
Cd1 Cd58 3.136215 1_555
Cd1 Cd31 3.145040 1_555
Cd1 Cd129 3.156602 1_555
Cd2 Cd52 2.934827 1_555
Cd2 Cd51 2.956014 1_555
Cd2 Cd94 3.048522 1_555
Cd2 Cd60 3.119322 1_555
Cd3 Cd92 2.875565 1_555
Cd3 Cd38 2.918752 1_555
Cd3 Cd35 3.131327 1_655
Cd3 Cd67 3.346123 1_555
Cd3 Cd74 3.363957 1_655
Cd4 Cd55 2.934827 1_555
Cd4 Cd49 2.948195 1_555
Cd4 Cd57 3.048522 1_555
Cd4 Cd82 3.119322 1_555
Cd5 Cd7 3.025763 1_555
Cd5 Cd62 3.113593 1_555
Cd5 Cd77 3.134410 1_555
Cd6 Cd64 2.909899 1_555
Cd6 Cd65 3.071177 1_555
Cd7 Cd75 2.949649 1_555
Cd7 Cd77 2.951827 1_555
Cd7 Cd81 3.010743 1_555
Cd8 Cd86 3.227955 1_555
Cd9 Cd99 3.004778 1_555
Cd9 Cd90 3.128254 1_545
Cd10 Cd95 2.877336 1_555
Cd10 Cd15 2.906135 1_555
Cd10 Cd114 3.005781 1_565
Cd10 Cd119 3.056723 1_555
Cd10 Cd48 3.062310 1_555
Cd10 Cd127 3.105371 1_555
Cd10 Cd81 3.110996 1_555
Cd10 Cd78 3.256308 1_554
Cd10 Cd113 3.290010 1_555
Cd11 Cd31 2.867075 1_554
Cd11 Cd95 2.901355 1_555
Cd11 Cd61 3.026583 1_555
Cd11 Cd48 3.072119 1_555
Cd11 Cd5 3.074556 1_555
Cd11 Cd79 3.078438 1_554
Cd11 Cd54 3.117579 1_554
Cd11 Cd63 3.194648 1_554
Cd11 Cd76 3.271828 1_555
Cd12 Cd133 2.872613 1_545
Cd12 Cd92 2.953580 1_455
Cd12 Cd29 3.005781 1_455
Cd12 Cd55 3.075767 1_555
Cd12 Cd43 3.082836 1_555
Cd12 Cd98 3.118196 1_555
Cd12 Cd97 3.268375 1_445
Cd12 Cd89 3.290112 1_455
Cd13 Cd8 2.949649 1_555
Cd13 Cd25 2.951827 1_555
Cd13 Cd132 3.004441 1_555
Cd14 Cd68 3.004778 1_555
Cd14 Cd16 3.078600 1_554
Cd14 Cd77 3.082479 1_555
Cd14 Cd52 3.100363 1_555
Cd14 Cd62 3.127778 1_555
Cd14 Cd31 3.128255 1_554
Cd15 Cd24 2.848759 1_565
Cd15 Cd70 2.875565 1_555
Cd15 Cd88 3.069213 1_565
Cd15 Cd81 3.171415 1_555
Cd15 Cd86 3.398400 1_555
Cd15 Cd21 3.417472 1_565
Cd16 Cd31 2.883288 1_555
Cd16 Cd71 2.930609 1_555
Cd16 Cd20 3.012133 1_555
Cd16 Cd26 3.092608 1_555
Cd16 Cd52 3.094777 1_556
Cd16 Cd63 3.170184 1_555
Cd16 Cd76 3.266255 1_556
Cd17 Cd82 2.958046 1_565
Cd17 Cd69 2.980337 1_555
Cd17 Cd78 3.060139 1_555
Cd17 Cd80 3.136896 1_556
Cd18 Cd85 2.943367 1_555
Cd18 Cd68 3.006692 1_555
Cd18 Cd88 3.022147 1_555
Cd18 Cd21 3.044805 1_555
Cd18 Cd64 3.223549 1_555
Cd19 Cd45 2.976791 1_555
Cd19 Cd51 3.033024 1_565
Cd19 Cd97 3.060139 1_555
Cd19 Cd2 3.136895 1_565
Cd20 Cd41 2.875565 1_555
Cd20 Cd71 2.918751 1_555
Cd20 Cd6 3.024442 1_556
Cd20 Cd42 3.052449 1_555
Cd20 Cd49 3.095232 1_555
Cd20 Cd65 3.131327 1_556
Cd20 Cd63 3.346123 1_555
Cd20 Cd76 3.363956 1_556
Cd21 Cd86 3.034227 1_545
Cd21 Cd85 3.149564 1_555
Cd21 Cd66 3.266255 1_545
Cd21 Cd90 3.302200 1_545
Cd21 Cd24 3.321303 1_555
Cd21 Cd70 3.363956 1_545
Cd22 Cd60 2.958046 1_556
Cd22 Cd23 2.980337 1_555
Cd22 Cd27 3.033024 1_655
Cd22 Cd4 3.136895 1_655
Cd23 Cd26 2.977799 1_555
Cd23 Cd94 2.991517 1_556
Cd24 Cd81 3.088093 1_545
Cd24 Cd51 3.092670 1_555
Cd24 Cd45 3.134281 1_545
Cd24 Cd86 3.288839 1_545
Cd25 Cd83 2.943367 1_555
Cd25 Cd44 2.960220 1_555
Cd25 Cd87 3.082479 1_555
Cd25 Cd74 3.149564 1_555
Cd26 Cd94 3.078361 1_556
Cd26 Cd34 3.088549 1_555
Cd26 Cd71 3.130290 1_555
Cd27 Cd4 2.956014 1_555
Cd27 Cd42 3.018517 1_555
Cd27 Cd98 3.066841 1_555
Cd28 Cd95 2.870524 1_556
Cd28 Cd90 2.891962 1_555
Cd28 Cd54 3.058164 1_555
Cd28 Cd73 3.106292 1_555
Cd28 Cd78 3.217266 1_555
Cd29 Cd92 2.906135 1_555
Cd29 Cd51 3.056723 1_555
Cd29 Cd59 3.110996 1_555
Cd29 Cd97 3.256308 1_545
Cd29 Cd89 3.290010 1_555
Cd30 Cd53 2.867076 1_455
Cd30 Cd84 3.078438 1_455
Cd30 Cd56 3.117579 1_455
Cd30 Cd67 3.194648 1_455
Cd30 Cd74 3.271828 1_555
Cd31 Cd62 2.888213 1_556
Cd31 Cd58 2.891962 1_555
Cd31 Cd79 3.102295 1_555
Cd31 Cd63 3.158232 1_555
Cd31 Cd5 3.189429 1_556
Cd31 Cd76 3.302200 1_556
Cd32 Cd56 2.960734 1_555
Cd32 Cd54 2.960735 1_555
Cd32 Cd93 3.020607 1_556
Cd33 Cd62 3.059130 1_555
Cd33 Cd5 3.088549 1_555
Cd33 Cd38 3.130290 1_555
Cd34 Cd85 3.134410 1_555
Cd34 Cd90 3.189429 1_545
Cd35 Cd60 2.980657 1_455
Cd35 Cd6 3.067557 1_555
Cd35 Cd72 3.074769 1_555
Cd35 Cd46 3.082836 1_555
Cd35 Cd38 3.172680 1_455
Cd36 Cd73 2.949892 1_555
Cd36 Cd84 2.949892 1_555
Cd36 Cd79 2.949893 1_555
Cd36 Cd8 2.952906 1_555
Cd36 Cd75 2.952906 1_555
Cd37 Cd47 2.967061 1_555
Cd37 Cd44 3.015080 1_555
Cd37 Cd61 3.069381 1_555
Cd37 Cd91 3.070929 1_555
Cd37 Cd46 3.118196 1_555
Cd37 Cd41 3.140170 1_554
Cd38 Cd62 2.862346 1_555
Cd38 Cd46 2.872613 1_655
Cd38 Cd91 3.080962 1_655
Cd38 Cd40 3.333938 1_654
Cd39 Cd53 2.891962 1_555
Cd39 Cd50 3.048073 1_655
Cd39 Cd45 3.054611 1_555
Cd39 Cd84 3.106292 1_555
Cd39 Cd97 3.217266 1_555
Cd39 Cd89 3.269130 1_565
Cd40 Cd58 3.269130 1_455
Cd40 Cd46 3.290112 1_556
Cd40 Cd62 3.321075 1_456
Cd41 Cd61 2.848759 1_556
Cd41 Cd46 2.953580 1_556
Cd41 Cd6 3.069213 1_556
Cd41 Cd42 3.117195 1_555
Cd41 Cd63 3.398400 1_555
Cd41 Cd76 3.417472 1_556
Cd42 Cd99 2.988710 1_555
Cd42 Cd49 3.011239 1_555
Cd43 Cd88 3.071177 1_555
Cd43 Cd72 3.074769 1_555
Cd43 Cd70 3.131327 1_545
Cd44 Cd87 3.004778 1_555
Cd44 Cd47 3.006692 1_555
Cd45 Cd81 2.989824 1_555
Cd46 Cd6 3.055240 1_555
Cd46 Cd91 3.075767 1_555
Cd47 Cd77 2.943367 1_555
Cd47 Cd6 3.022147 1_555
Cd47 Cd76 3.044805 1_555
Cd47 Cd64 3.223549 1_555
Cd48 Cd81 3.018672 1_555
Cd48 Cd93 3.050090 1_555
Cd48 Cd5 3.094585 1_555
Cd48 Cd95 3.114776 1_555
Cd49 Cd82 3.012894 1_555
Cd49 Cd9 3.073695 1_555
Cd49 Cd71 3.115334 1_555
Cd50 Cd53 2.888213 1_455
Cd50 Cd96 3.059130 1_555
Cd50 Cd87 3.127778 1_555
Cd50 Cd89 3.321075 1_465
Cd50 Cd97 3.335511 1_455
Cd52 Cd94 3.075074 1_555
Cd52 Cd71 3.080962 1_554
Cd53 Cd84 3.102295 1_555
Cd53 Cd87 3.128255 1_655
Cd53 Cd67 3.158232 1_555
Cd53 Cd74 3.302199 1_655
Cd54 Cd93 3.063184 1_556
Cd54 Cd79 3.084084 1_555
Cd54 Cd73 3.094842 1_555
Cd54 Cd95 3.117139 1_556
Cd55 Cd98 3.070929 1_555
Cd55 Cd57 3.075075 1_555
Cd55 Cd66 3.094777 1_545
Cd55 Cd9 3.100363 1_555
Cd56 Cd58 3.058164 1_555
Cd56 Cd84 3.084084 1_555
Cd56 Cd79 3.094842 1_555
Cd57 Cd69 2.991517 1_545
Cd57 Cd96 3.078361 1_545
Cd57 Cd89 3.117582 1_455
Cd58 Cd62 3.048073 1_556
Cd58 Cd79 3.106292 1_555
Cd59 Cd92 3.171415 1_555
Cd60 Cd72 3.018654 1_655
Cd61 Cd95 2.911858 1_555
Cd61 Cd63 3.288838 1_554
Cd61 Cd76 3.321303 1_555
Cd63 Cd76 3.034227 1_556
Cd64 Cd88 2.909899 1_555
Cd64 Cd83 3.223549 1_555
Cd65 Cd82 2.980657 1_554
Cd65 Cd88 3.067557 1_555
Cd65 Cd72 3.074769 1_555
Cd65 Cd71 3.172680 1_554
Cd66 Cd90 2.883288 1_555
Cd66 Cd70 3.012133 1_555
Cd66 Cd9 3.078600 1_565
Cd66 Cd96 3.092608 1_555
Cd66 Cd86 3.170184 1_555
Cd67 Cd74 3.034227 1_655
Cd67 Cd75 3.227955 1_555
Cd67 Cd92 3.398400 1_555
Cd68 Cd77 2.960220 1_555
Cd69 Cd96 2.977799 1_555
Cd70 Cd88 3.024442 1_565
Cd70 Cd86 3.346123 1_555
Cd71 Cd78 3.358349 1_545
Cd72 Cd82 3.018654 1_554
Cd73 Cd90 3.102295 1_555
Cd73 Cd8 3.158230 1_555
Cd74 Cd83 3.044804 1_555
Cd74 Cd92 3.417472 1_455
Cd75 Cd84 3.158230 1_555
Cd76 Cd77 3.149564 1_555
Cd78 Cd82 3.041043 1_565
Cd78 Cd95 3.243358 1_556
Cd80 Cd91 2.934827 1_555
Cd83 Cd98 2.967061 1_555
Cd83 Cd99 3.006692 1_555
Cd85 Cd99 2.960220 1_555
Cd85 Cd9 3.082479 1_555
Cd86 Cd90 3.158232 1_555
Cd87 Cd91 3.100363 1_555
Cd89 Cd97 3.026829 1_545
Cd92 Cd98 3.140170 1_655
Cd93 Cd94 2.926136 1_565
Cd98 Cd99 3.015080 1_555
Cd100 Cd18 2.967061 1_555
Cd100 Cd68 3.015080 1_555
Cd100 Cd51 3.066841 1_555
Cd100 Cd24 3.069381 1_555
Cd100 Cd52 3.070929 1_555
Cd100 Cd114 3.118196 1_555
Cd100 Cd15 3.140170 1_545
Cd101 Cd105 2.877336 1_555
Cd101 Cd41 2.906135 1_555
Cd101 Cd46 3.005781 1_556
Cd101 Cd27 3.056723 1_555
Cd101 Cd107 3.062310 1_555
Cd101 Cd42 3.105371 1_555
Cd101 Cd112 3.110996 1_555
Cd101 Cd116 3.256308 1_455
Cd101 Cd40 3.290010 1_555
Cd102 Cd92 2.848759 1_455
Cd102 Cd105 2.911858 1_555
Cd102 Cd30 3.026583 1_555
Cd102 Cd98 3.069381 1_555
Cd102 Cd59 3.088093 1_455
Cd102 Cd27 3.092670 1_555
Cd102 Cd117 3.134281 1_455
Cd102 Cd67 3.288839 1_455
Cd102 Cd74 3.321303 1_555
Cd103 Cd23 2.989491 1_555
Cd103 Cd59 3.018672 1_555
Cd103 Cd108 3.050090 1_555
Cd103 Cd29 3.062310 1_555
Cd103 Cd120 3.072119 1_555
Cd103 Cd34 3.094585 1_555
Cd103 Cd131 3.114776 1_555
Cd104 Cd13 3.025763 1_555
Cd104 Cd30 3.074556 1_555
Cd104 Cd96 3.088549 1_555
Cd104 Cd107 3.094585 1_555
Cd104 Cd50 3.113593 1_555
Cd104 Cd25 3.134410 1_555
Cd104 Cd53 3.189429 1_455
Cd105 Cd58 2.870524 1_455
Cd105 Cd30 2.901356 1_555
Cd105 Cd27 3.089140 1_555
Cd105 Cd107 3.114776 1_555
Cd105 Cd56 3.117138 1_455
Cd105 Cd117 3.118075 1_455
Cd105 Cd116 3.243358 1_455
Cd105 Cd40 3.319583 1_555
Cd106 Cd129 2.949649 1_555
Cd106 Cd85 2.951827 1_555
Cd106 Cd59 3.010743 1_555
Cd106 Cd126 3.023725 1_555
Cd106 Cd34 3.025763 1_555
Cd107 Cd69 2.989491 1_555
Cd107 Cd112 3.018672 1_555
Cd107 Cd30 3.072119 1_555
Cd108 Cd57 2.926136 1_655
Cd108 Cd23 2.983644 1_555
Cd108 Cd32 3.020607 1_545
Cd108 Cd124 3.063184 1_545
Cd108 Cd89 3.103343 1_555
Cd109 Cd111 2.991517 1_455
Cd109 Cd80 3.048522 1_555
Cd109 Cd91 3.075074 1_555
Cd109 Cd33 3.078361 1_455
Cd109 Cd40 3.117581 1_554
Cd110 Cd80 2.948195 1_555
Cd110 Cd127 3.011239 1_555
Cd110 Cd122 3.012893 1_555
Cd110 Cd50 3.028531 1_555
Cd110 Cd87 3.073695 1_555
Cd110 Cd70 3.095232 1_555
Cd110 Cd133 3.115334 1_555
Cd111 Cd33 2.977799 1_555
Cd111 Cd19 2.980337 1_555
Cd111 Cd93 2.983644 1_555
Cd111 Cd48 2.989491 1_555
Cd111 Cd45 3.005295 1_555
Cd112 Cd121 2.921505 1_555
Cd112 Cd118 2.989824 1_555
Cd112 Cd13 3.010744 1_555
Cd112 Cd61 3.088093 1_556
Cd112 Cd41 3.171415 1_555
Cd113 Cd78 3.026829 1_554
Cd113 Cd93 3.103343 1_555
Cd113 Cd94 3.117581 1_565
Cd113 Cd28 3.269130 1_554
Cd113 Cd114 3.290112 1_565
Cd113 Cd95 3.319583 1_555
Cd113 Cd134 3.321075 1_564
Cd113 Cd71 3.333938 1_564
Cd114 Cd71 2.872613 1_554
Cd114 Cd15 2.953580 1_545
Cd114 Cd88 3.055240 1_555
Cd114 Cd52 3.075767 1_555
Cd114 Cd65 3.082836 1_555
Cd114 Cd78 3.268375 1_544
Cd115 Cd64 2.909899 1_555
Cd115 Cd83 3.022147 1_555
Cd115 Cd3 3.024442 1_455
Cd115 Cd12 3.055240 1_555
Cd115 Cd43 3.067557 1_555
Cd115 Cd92 3.069213 1_455
Cd115 Cd35 3.071177 1_555
Cd116 Cd40 3.026829 1_655
Cd116 Cd60 3.041043 1_556
Cd116 Cd22 3.060139 1_555
Cd116 Cd58 3.217266 1_555
Cd116 Cd46 3.268375 1_656
Cd116 Cd62 3.335511 1_556
Cd116 Cd38 3.358349 1_556
Cd117 Cd22 2.976791 1_555
Cd117 Cd59 2.989824 1_555
Cd117 Cd23 3.005295 1_555
Cd117 Cd58 3.054611 1_555
Cd118 Cd17 2.976791 1_555
Cd118 Cd69 3.005294 1_555
Cd118 Cd28 3.054611 1_555
Cd118 Cd132 3.076878 1_555
Cd118 Cd95 3.118075 1_556
Cd118 Cd61 3.134281 1_556
Cd119 Cd80 2.956014 1_555
Cd119 Cd127 3.018517 1_555
Cd119 Cd17 3.033024 1_554
Cd119 Cd37 3.066841 1_555
Cd119 Cd95 3.089141 1_555
Cd119 Cd61 3.092670 1_555
Cd120 Cd90 2.867076 1_545
Cd120 Cd131 2.901355 1_555
Cd120 Cd24 3.026583 1_555
Cd120 Cd34 3.074556 1_555
Cd120 Cd73 3.078438 1_545
Cd120 Cd124 3.117579 1_545
Cd120 Cd86 3.194648 1_545
Cd120 Cd21 3.271828 1_555
Cd121 Cd42 2.929595 1_555
Cd121 Cd129 2.944784 1_555
Cd121 Cd63 2.952304 1_555
Cd121 Cd13 3.023725 1_555
Cd121 Cd99 3.120538 1_555
Cd122 Cd19 2.958046 1_455
Cd122 Cd43 2.980657 1_565
Cd122 Cd72 3.018654 1_565
Cd122 Cd97 3.041043 1_455
Cd122 Cd80 3.119322 1_555
Cd123 Cd53 2.883288 1_555
Cd123 Cd38 2.930609 1_555
Cd123 Cd3 3.012133 1_555
Cd123 Cd87 3.078600 1_655
Cd123 Cd33 3.092608 1_555
Cd123 Cd91 3.094777 1_655
Cd123 Cd125 3.102844 1_555
Cd123 Cd67 3.170184 1_555
Cd123 Cd74 3.266255 1_655
Cd124 Cd32 2.960735 1_555
Cd124 Cd39 3.058164 1_555
Cd124 Cd73 3.084084 1_555
Cd124 Cd84 3.094842 1_555
Cd124 Cd131 3.117139 1_565
Cd125 Cd7 3.004441 1_555
Cd125 Cd45 3.076878 1_555
Cd125 Cd33 3.084809 1_555
Cd125 Cd39 3.136215 1_555
Cd125 Cd53 3.145040 1_555
Cd125 Cd75 3.156603 1_555
Cd126 Cd59 2.921505 1_555
Cd126 Cd130 2.929595 1_555
Cd126 Cd75 2.944784 1_555
Cd126 Cd67 2.952304 1_555
Cd126 Cd68 3.120538 1_555
Cd127 Cd128 2.929595 1_555
Cd127 Cd44 2.988710 1_555
Cd127 Cd70 3.052449 1_555
Cd127 Cd15 3.117195 1_555
Cd128 Cd81 2.921505 1_555
Cd128 Cd8 2.944784 1_555
Cd128 Cd86 2.952304 1_555
Cd128 Cd7 3.023725 1_555
Cd128 Cd44 3.120538 1_555
Cd129 Cd36 2.952906 1_555
Cd129 Cd79 3.158230 1_555
Cd129 Cd63 3.227955 1_555
Cd130 Cd68 2.988710 1_555
Cd130 Cd135 3.011240 1_555
Cd130 Cd51 3.018517 1_555
Cd130 Cd3 3.052449 1_555
Cd130 Cd29 3.105371 1_555
Cd130 Cd92 3.117195 1_555
Cd131 Cd39 2.870524 1_545
Cd131 Cd29 2.877336 1_555
Cd131 Cd24 2.911858 1_555
Cd131 Cd51 3.089141 1_555
Cd131 Cd45 3.118075 1_545
Cd131 Cd97 3.243358 1_545
Cd131 Cd89 3.319582 1_555
Cd132 Cd96 3.084809 1_555
Cd132 Cd66 3.102844 1_555
Cd132 Cd28 3.136215 1_555
Cd132 Cd90 3.145040 1_555
Cd132 Cd8 3.156602 1_555
Cd133 Cd50 2.862346 1_555
Cd133 Cd70 2.918752 1_555
Cd133 Cd66 2.930609 1_555
Cd133 Cd55 3.080962 1_565
Cd133 Cd96 3.130290 1_555
Cd133 Cd43 3.172680 1_565
Cd133 Cd89 3.333938 1_465
Cd133 Cd97 3.358349 1_455
Cd134 Cd71 2.862346 1_555
Cd134 Cd90 2.888213 1_545
Cd134 Cd49 3.028531 1_555
Cd134 Cd28 3.048073 1_545
Cd134 Cd26 3.059130 1_555
Cd134 Cd34 3.113593 1_555
Cd134 Cd9 3.127778 1_555
Cd134 Cd78 3.335511 1_545
Cd135 Cd2 2.948195 1_555
Cd135 Cd60 3.012893 1_555
Cd135 Cd62 3.028531 1_555
Cd135 Cd14 3.073695 1_555
Cd135 Cd3 3.095232 1_555
Cd135 Cd38 3.115334 1_555
