# generated using pymatgen
data_LiSn4(PO4)3
_symmetry_space_group_name_H-M   'P 1'
_cell_length_a   9.69486356
_cell_length_b   9.69486356
_cell_length_c   7.10562700
_cell_angle_alpha   90.00000000
_cell_angle_beta   90.00000000
_cell_angle_gamma   119.99999698
_symmetry_Int_Tables_number   1
_chemical_formula_structural   LiSn4(PO4)3
_chemical_formula_sum   'Li2 Sn8 P6 O24'
_cell_volume   578.38424403
_cell_formula_units_Z   2
loop_
 _symmetry_equiv_pos_site_id
 _symmetry_equiv_pos_as_xyz
  1  'x, y, z'
loop_
 _atom_site_type_symbol
 _atom_site_label
 _atom_site_symmetry_multiplicity
 _atom_site_fract_x
 _atom_site_fract_y
 _atom_site_fract_z
 _atom_site_occupancy
  Li  Li0  1  0.66666700  0.33333300  0.53692700  1
  Li  Li1  1  0.33333300  0.66666700  0.03692700  1
  Sn  Sn0  1  0.25915600  0.24166900  0.24680300  1
  Sn  Sn1  1  0.74084400  0.75833100  0.74680300  1
  Sn  Sn2  1  0.33333300  0.66666700  0.47087900  1
  Sn  Sn3  1  0.01748600  0.25915600  0.74680300  1
  Sn  Sn4  1  0.66666700  0.33333300  0.97087900  1
  Sn  Sn5  1  0.24166900  0.98251400  0.74680300  1
  Sn  Sn6  1  0.98251400  0.74084400  0.24680300  1
  Sn  Sn7  1  0.75833100  0.01748600  0.24680300  1
  P  P0  1  0.38543500  0.40244100  0.75098500  1
  P  P1  1  0.98299300  0.38543500  0.25098500  1
  P  P2  1  0.61456500  0.59755900  0.25098500  1
  P  P3  1  0.59755900  0.98299300  0.75098500  1
  P  P4  1  0.01700700  0.61456500  0.75098500  1
  P  P5  1  0.40244100  0.01700700  0.25098500  1
  O  O0  1  0.50775400  0.67386800  0.23644200  1
  O  O1  1  0.34404900  0.07183000  0.42471800  1
  O  O2  1  0.27157900  0.35743300  0.57681900  1
  O  O3  1  0.65595100  0.92817000  0.92471800  1
  O  O4  1  0.72842100  0.64256700  0.07681900  1
  O  O5  1  0.50986600  0.41142000  0.26161900  1
  O  O6  1  0.92817000  0.27221900  0.42471800  1
  O  O7  1  0.08585400  0.72842100  0.57681900  1
  O  O8  1  0.91414600  0.27157900  0.07681900  1
  O  O9  1  0.16611500  0.49224600  0.23644200  1
  O  O10  1  0.32613200  0.83388500  0.23644200  1
  O  O11  1  0.58858000  0.09844600  0.26161900  1
  O  O12  1  0.90155400  0.49013400  0.26161900  1
  O  O13  1  0.07183000  0.72778100  0.92471800  1
  O  O14  1  0.72778100  0.65595100  0.42471800  1
  O  O15  1  0.83388500  0.50775400  0.73644200  1
  O  O16  1  0.35743300  0.08585400  0.07681900  1
  O  O17  1  0.49013400  0.58858000  0.76161900  1
  O  O18  1  0.67386800  0.16611500  0.73644200  1
  O  O19  1  0.09844600  0.50986600  0.76161900  1
  O  O20  1  0.49224600  0.32613200  0.73644200  1
  O  O21  1  0.64256700  0.91414600  0.57681900  1
  O  O22  1  0.41142000  0.90155400  0.76161900  1
  O  O23  1  0.27221900  0.34404900  0.92471800  1
loop_
_geom_bond_atom_site_label_1
_geom_bond_atom_site_label_2
_geom_bond_distance
_geom_bond_site_symmetry_2
Li0 O18 2.180828 1_555
Li0 O15 2.180836 1_555
Li0 O20 2.180843 1_555
Li1 O10 2.180828 1_555
Li1 O9 2.180836 1_555
Li1 O0 2.180843 1_555
O0 P2 1.548021 1_555
O0 Sn2 2.349728 1_555
O1 P5 1.558139 1_555
O1 Sn5 2.472502 1_545
O1 Sn0 2.518316 1_555
O2 P0 1.568030 1_555
O2 Sn3 2.467372 1_555
O2 Sn0 2.576396 1_555
O3 P3 1.558139 1_555
O3 Sn7 2.472502 1_566
O3 Sn1 2.518316 1_555
O4 P2 1.568030 1_555
O4 Sn6 2.467372 1_555
O4 Sn1 2.576396 1_554
O5 P2 1.568705 1_555
O5 Sn0 2.151092 1_555
O6 P1 1.558144 1_555
O6 Sn3 2.472500 1_655
O6 Sn7 2.518322 1_555
O7 P4 1.568029 1_555
O7 Sn5 2.467371 1_555
O7 Sn6 2.576392 1_455
O8 P1 1.568029 1_555
O8 Sn7 2.467371 1_555
O8 Sn3 2.576392 1_654
O9 P1 1.548037 1_455
O9 Sn2 2.349722 1_555
O10 P5 1.548039 1_565
O10 Sn2 2.349715 1_555
O11 P5 1.568706 1_555
O11 Sn7 2.151100 1_555
O12 P1 1.568697 1_555
O12 Sn6 2.151090 1_555
O13 P4 1.558144 1_555
O13 Sn6 2.472500 1_456
O13 Sn5 2.518322 1_555
O14 P2 1.558144 1_555
O14 Sn1 2.472504 1_555
O14 Sn6 2.518324 1_555
O15 P4 1.548037 1_655
O15 Sn4 2.349722 1_555
O16 P5 1.568024 1_555
O16 Sn0 2.467364 1_555
O16 Sn5 2.576394 1_544
O17 P0 1.568705 1_555
O17 Sn1 2.151092 1_555
O18 P3 1.548039 1_545
O18 Sn4 2.349715 1_555
O19 P4 1.568697 1_555
O19 Sn3 2.151090 1_555
O20 P0 1.548021 1_555
O20 Sn4 2.349728 1_555
O21 P3 1.568024 1_555
O21 Sn1 2.467364 1_555
O21 Sn7 2.576394 1_565
O22 P3 1.568706 1_555
O22 Sn5 2.151100 1_555
O23 P0 1.558144 1_555
O23 Sn0 2.472504 1_556
O23 Sn3 2.518324 1_555
