# generated using pymatgen
data_MoPN(Cl3O)2
_symmetry_space_group_name_H-M   'P 1'
_cell_length_a   11.36503500
_cell_length_b   8.40906300
_cell_length_c   12.73980759
_cell_angle_alpha   70.38364084
_cell_angle_beta   90.00000000
_cell_angle_gamma   90.00000000
_symmetry_Int_Tables_number   1
_chemical_formula_structural   MoPN(Cl3O)2
_chemical_formula_sum   'Mo4 P4 N4 Cl24 O8'
_cell_volume   1146.87072716
_cell_formula_units_Z   4
loop_
 _symmetry_equiv_pos_site_id
 _symmetry_equiv_pos_as_xyz
  1  'x, y, z'
loop_
 _atom_site_type_symbol
 _atom_site_label
 _atom_site_symmetry_multiplicity
 _atom_site_fract_x
 _atom_site_fract_y
 _atom_site_fract_z
 _atom_site_occupancy
  Mo  Mo0  1  0.38374400  0.92220100  0.12208700  1
  Mo  Mo1  1  0.88374400  0.07779900  0.37791300  1
  Mo  Mo2  1  0.61625600  0.07779900  0.87791300  1
  Mo  Mo3  1  0.11625600  0.92220100  0.62208700  1
  P  P0  1  0.24101300  0.33275800  0.02462900  1
  P  P1  1  0.25898700  0.33275800  0.52462900  1
  P  P2  1  0.75898700  0.66724200  0.97537100  1
  P  P3  1  0.74101300  0.66724200  0.47537100  1
  N  N0  1  0.06983500  0.70723300  0.66549700  1
  N  N1  1  0.43016500  0.70723300  0.16549700  1
  N  N2  1  0.56983500  0.29276700  0.83450300  1
  N  N3  1  0.93016500  0.29276700  0.33450300  1
  Cl  Cl0  1  0.90236100  0.04448100  0.20379300  1
  Cl  Cl1  1  0.68235000  0.14027600  0.38101200  1
  Cl  Cl2  1  0.69286400  0.44413700  0.06680200  1
  Cl  Cl3  1  0.80713600  0.44413700  0.56680200  1
  Cl  Cl4  1  0.90506100  0.03579700  0.58400500  1
  Cl  Cl5  1  0.59493900  0.03579700  0.08400500  1
  Cl  Cl6  1  0.09763900  0.95551900  0.79620700  1
  Cl  Cl7  1  0.11052600  0.28880600  0.93477200  1
  Cl  Cl8  1  0.30713600  0.55586300  0.93319800  1
  Cl  Cl9  1  0.38947400  0.28880600  0.43477200  1
  Cl  Cl10  1  0.88947400  0.71119400  0.06522800  1
  Cl  Cl11  1  0.81765000  0.14027600  0.88101200  1
  Cl  Cl12  1  0.59763900  0.04448100  0.70379300  1
  Cl  Cl13  1  0.09493900  0.96420300  0.41599500  1
  Cl  Cl14  1  0.19286400  0.55586300  0.43319800  1
  Cl  Cl15  1  0.66908100  0.63189900  0.34348500  1
  Cl  Cl16  1  0.33091900  0.36810100  0.65651500  1
  Cl  Cl17  1  0.83091900  0.63189900  0.84348500  1
  Cl  Cl18  1  0.16908100  0.36810100  0.15651500  1
  Cl  Cl19  1  0.61052600  0.71119400  0.56522800  1
  Cl  Cl20  1  0.40236100  0.95551900  0.29620700  1
  Cl  Cl21  1  0.31765000  0.85972400  0.61898800  1
  Cl  Cl22  1  0.40506100  0.96420300  0.91599500  1
  Cl  Cl23  1  0.18235000  0.85972400  0.11898800  1
  O  O0  1  0.16450900  0.19952400  0.55748400  1
  O  O1  1  0.33549100  0.19952400  0.05748400  1
  O  O2  1  0.66450900  0.80047600  0.94251600  1
  O  O3  1  0.45684400  0.56258400  0.18725800  1
  O  O4  1  0.95684400  0.43741600  0.31274200  1
  O  O5  1  0.04315600  0.56258400  0.68725800  1
  O  O6  1  0.54315600  0.43741600  0.81274200  1
  O  O7  1  0.83549100  0.80047600  0.44251600  1
loop_
_geom_bond_atom_site_label_1
_geom_bond_atom_site_label_2
_geom_bond_distance
_geom_bond_site_symmetry_2
Mo0 N1 1.783436 1_555
Mo0 O1 2.264454 1_565
Mo1 N3 1.783436 1_555
Mo1 O7 2.264454 1_545
Mo2 N2 1.783436 1_555
Mo2 O2 2.264454 1_545
Mo3 N0 1.783436 1_555
Mo3 O0 2.264454 1_565
N0 O5 1.192439 1_555
N1 O3 1.192439 1_555
N2 O6 1.192439 1_555
N3 O4 1.192439 1_555
Cl0 Mo1 2.336925 1_555
Cl1 Mo1 2.351667 1_555
Cl2 P2 1.993486 1_554
Cl3 P3 1.993486 1_555
Cl4 Mo1 2.540554 1_555
Cl4 Mo3 2.568623 1_645
Cl5 Mo2 2.540554 1_554
Cl5 Mo0 2.568623 1_545
Cl6 Mo3 2.336925 1_555
Cl7 P0 1.982529 1_556
Cl8 P0 1.993486 1_556
Cl9 P1 1.982529 1_555
Cl10 P2 1.982529 1_554
Cl11 Mo2 2.351667 1_555
Cl12 Mo2 2.336925 1_555
Cl13 Mo3 2.540554 1_555
Cl13 Mo1 2.568623 1_465
Cl14 P1 1.993486 1_555
Cl15 P3 1.978641 1_555
Cl16 P1 1.978641 1_555
Cl17 P2 1.978641 1_555
Cl18 P0 1.978641 1_555
Cl19 P3 1.982529 1_555
Cl20 Mo0 2.336925 1_555
Cl21 Mo3 2.351667 1_555
Cl22 Mo0 2.540554 1_556
Cl22 Mo2 2.568623 1_565
Cl23 Mo0 2.351667 1_555
O0 P1 1.506151 1_555
O1 P0 1.506151 1_555
O2 P2 1.506151 1_555
O7 P3 1.506151 1_555
