# generated using pymatgen
data_Sr6B(PO4)5
_symmetry_space_group_name_H-M   'P 1'
_cell_length_a   11.76694610
_cell_length_b   11.76694610
_cell_length_c   11.76694610
_cell_angle_alpha   130.94804972
_cell_angle_beta   130.94804972
_cell_angle_gamma   71.89563013
_symmetry_Int_Tables_number   1
_chemical_formula_structural   Sr6B(PO4)5
_chemical_formula_sum   'Sr12 B2 P10 O40'
_cell_volume   909.10386135
_cell_formula_units_Z   2
loop_
 _symmetry_equiv_pos_site_id
 _symmetry_equiv_pos_as_xyz
  1  'x, y, z'
loop_
 _atom_site_type_symbol
 _atom_site_label
 _atom_site_symmetry_multiplicity
 _atom_site_fract_x
 _atom_site_fract_y
 _atom_site_fract_z
 _atom_site_occupancy
  Sr  Sr0  1  0.72037622  0.22037622  0.94075245  1
  Sr  Sr1  1  0.22037622  0.27962378  0.50000000  1
  Sr  Sr2  1  0.27962378  0.77962378  0.05924755  1
  Sr  Sr3  1  0.77962378  0.72037622  0.50000000  1
  Sr  Sr4  1  0.32863851  0.53478104  0.19334400  1
  Sr  Sr5  1  0.34143704  0.13529551  0.80665600  1
  Sr  Sr6  1  0.84143704  0.03478104  0.20614153  1
  Sr  Sr7  1  0.46521896  0.65856296  0.79385847  1
  Sr  Sr8  1  0.86470449  0.67136149  0.20614153  1
  Sr  Sr9  1  0.96521896  0.17136149  0.80665600  1
  Sr  Sr10  1  0.36470449  0.15856296  0.19334400  1
  Sr  Sr11  1  0.82863851  0.63529551  0.79385847  1
  B  B0  1  0.75000000  0.25000000  0.50000000  1
  B  B1  1  0.25000000  0.75000000  0.50000000  1
  P  P0  1  0.12821379  0.44630787  0.27168380  1
  P  P1  1  0.17462407  0.85652999  0.72831620  1
  P  P2  1  0.67462407  0.94630787  0.31809508  1
  P  P3  1  0.55369213  0.82537593  0.68190492  1
  P  P4  1  0.14347001  0.87178621  0.31809508  1
  P  P5  1  0.05369213  0.37178621  0.72831620  1
  P  P6  1  0.64347001  0.32537593  0.27168380  1
  P  P7  1  0.62821379  0.35652999  0.68190492  1
  P  P8  1  0.50000000  0.50000000  0.00000000  1
  P  P9  1  0.00000000  0.00000000  0.00000000  1
  O  O0  1  0.97139992  0.79513274  0.15357472  1
  O  O1  1  0.52848760  0.98329235  0.73968210  1
  O  O2  1  0.24361024  0.78880550  0.26031790  1
  O  O3  1  0.02848760  0.28880550  0.54519526  1
  O  O4  1  0.74361024  0.48329235  0.45480474  1
  O  O5  1  0.71119450  0.25638976  0.73968210  1
  O  O6  1  0.95794230  0.37867683  0.12232725  1
  O  O7  1  0.25634959  0.83561506  0.87767275  1
  O  O8  1  0.75634959  0.87867683  0.42073453  1
  O  O9  1  0.62132317  0.74365041  0.57926547  1
  O  O10  1  0.16438494  0.04205770  0.42073453  1
  O  O11  1  0.12132317  0.54205770  0.87767275  1
  O  O12  1  0.66438494  0.24365041  0.12232725  1
  O  O13  1  0.47139992  0.31782420  0.17626718  1
  O  O14  1  0.20486726  0.35844298  0.17626718  1
  O  O15  1  0.18217580  0.02860008  0.82373282  1
  O  O16  1  0.68217580  0.85844298  0.15357472  1
  O  O17  1  0.64155702  0.81782420  0.84642528  1
  O  O18  1  0.51670765  0.97151240  0.26031790  1
  O  O19  1  0.14155702  0.29513274  0.82373282  1
  O  O20  1  0.21119450  0.47151240  0.45480474  1
  O  O21  1  0.01670765  0.75638976  0.54519526  1
  O  O22  1  0.63121111  0.30851651  0.52100391  1
  O  O23  1  0.69148349  0.21248740  0.32269360  1
  O  O24  1  0.88979280  0.36878889  0.67730640  1
  O  O25  1  0.19148349  0.86878889  0.47899609  1
  O  O26  1  0.38979280  0.71248740  0.52100391  1
  O  O27  1  0.78751260  0.11020720  0.47899609  1
  O  O28  1  0.28751260  0.80851651  0.67730640  1
  O  O29  1  0.13121111  0.61020720  0.32269360  1
  O  O30  1  0.98548188  0.82657615  0.90026294  1
  O  O31  1  0.17342385  0.07368679  0.15890573  1
  O  O32  1  0.91478106  0.01451812  0.84109427  1
  O  O33  1  0.67342385  0.51451812  0.09973706  1
  O  O34  1  0.41478106  0.57368679  0.90026294  1
  O  O35  1  0.92631321  0.08521894  0.09973706  1
  O  O36  1  0.42631321  0.32657615  0.84109427  1
  O  O37  1  0.48548188  0.58521894  0.15890573  1
  O  O38  1  0.70486726  0.52860008  0.84642528  1
  O  O39  1  0.45794230  0.33561506  0.57926547  1
loop_
_geom_bond_atom_site_label_1
_geom_bond_atom_site_label_2
_geom_bond_distance
_geom_bond_site_symmetry_2
B0 O22 1.456223 1_555
B0 O27 1.456223 1_555
B0 O24 1.456224 1_555
B0 O23 1.456234 1_555
B1 O26 1.456223 1_555
B1 O25 1.456223 1_555
B1 O29 1.456224 1_555
B1 O28 1.456234 1_555
O0 P4 1.539280 1_655
O0 Sr11 2.546441 1_554
O0 Sr6 2.635654 1_565
O0 Sr8 2.723063 1_555
O1 P3 1.506303 1_555
O1 Sr5 2.577591 1_565
O1 Sr0 2.596116 1_565
O2 P4 1.506312 1_555
O2 Sr4 2.577588 1_555
O2 Sr2 2.596116 1_555
O3 P5 1.506306 1_555
O3 Sr6 2.577591 1_455
O3 Sr1 2.596116 1_555
O4 P6 1.506306 1_555
O4 Sr11 2.577596 1_555
O4 Sr3 2.596116 1_555
O5 P7 1.506312 1_555
O5 Sr9 2.577588 1_555
O5 Sr0 2.596116 1_555
O6 P0 1.509509 1_655
O6 Sr0 2.457654 1_554
O6 Sr9 2.857557 1_554
O6 Sr8 2.941997 1_555
O7 P1 1.509509 1_555
O7 Sr2 2.457654 1_556
O7 Sr10 2.857556 1_566
O7 Sr7 2.941987 1_555
O8 P2 1.509500 1_555
O8 Sr3 2.457654 1_555
O8 Sr8 2.857555 1_555
O8 Sr9 2.941992 1_565
O9 P3 1.509500 1_555
O9 Sr3 2.457654 1_555
O9 Sr11 2.857555 1_555
O9 Sr4 2.941992 1_555
O10 P4 1.509511 1_545
O10 Sr1 2.457654 1_555
O10 Sr6 2.857556 1_455
O10 Sr5 2.941987 1_555
O11 P5 1.509509 1_555
O11 Sr2 2.457654 1_556
O11 Sr4 2.857557 1_556
O11 Sr11 2.941997 1_455
O12 P6 1.509509 1_555
O12 Sr0 2.457654 1_554
O12 Sr5 2.857556 1_554
O12 Sr6 2.941987 1_555
O13 P6 1.539280 1_555
O13 Sr4 2.546457 1_555
O13 Sr5 2.635655 1_554
O13 Sr10 2.723062 1_555
O14 P0 1.539280 1_555
O14 Sr10 2.546452 1_555
O14 Sr9 2.635654 1_454
O14 Sr4 2.723054 1_555
O15 P1 1.539280 1_545
O15 Sr9 2.546457 1_455
O15 Sr10 2.635655 1_556
O15 Sr5 2.723062 1_555
O16 P2 1.539300 1_555
O16 Sr7 2.546448 1_554
O16 Sr8 2.635650 1_555
O16 Sr6 2.723054 1_565
O17 P3 1.539300 1_555
O17 Sr6 2.546448 1_566
O17 Sr11 2.635650 1_555
O17 Sr7 2.723054 1_555
O18 P2 1.506303 1_555
O18 Sr10 2.577591 1_565
O18 Sr2 2.596116 1_555
O19 P5 1.539280 1_555
O19 Sr5 2.546452 1_555
O19 Sr4 2.635654 1_556
O19 Sr9 2.723054 1_455
O20 P0 1.506306 1_555
O20 Sr7 2.577591 1_555
O20 Sr1 2.596116 1_555
O21 P1 1.506306 1_555
O21 Sr8 2.577596 1_455
O21 Sr3 2.596116 1_455
O22 P7 1.605661 1_555
O22 Sr10 2.546909 1_555
O23 P6 1.605664 1_555
O23 Sr6 2.546904 1_555
O24 P5 1.605678 1_655
O24 Sr11 2.546913 1_555
O25 P4 1.605661 1_555
O25 Sr5 2.546909 1_565
O26 P3 1.605674 1_555
O26 Sr4 2.546904 1_555
O27 P2 1.605674 1_545
O27 Sr9 2.546904 1_555
O28 P1 1.605664 1_555
O28 Sr7 2.546904 1_555
O29 P0 1.605678 1_555
O29 Sr8 2.546913 1_455
O30 P9 1.544529 1_666
O30 Sr11 2.428755 1_555
O30 Sr2 2.731991 1_656
O30 Sr3 2.970641 1_555
O31 P9 1.544529 1_555
O31 Sr10 2.428746 1_555
O31 Sr1 2.731991 1_555
O31 Sr2 2.970641 1_545
O32 P9 1.544529 1_656
O32 Sr9 2.428757 1_555
O32 Sr3 2.731991 1_545
O32 Sr0 2.970641 1_555
O33 P8 1.544529 1_555
O33 Sr8 2.428755 1_555
O33 Sr0 2.731991 1_554
O33 Sr3 2.970641 1_555
O34 P8 1.544529 1_556
O34 Sr7 2.428746 1_555
O34 Sr2 2.731991 1_556
O34 Sr1 2.970641 1_555
O35 P9 1.544529 1_655
O35 Sr6 2.428746 1_555
O35 Sr0 2.731991 1_554
O35 Sr1 2.970641 1_655
O36 P8 1.544529 1_556
O36 Sr5 2.428746 1_555
O36 Sr1 2.731991 1_555
O36 Sr0 2.970641 1_555
O37 P8 1.544529 1_555
O37 Sr4 2.428757 1_555
O37 Sr3 2.731991 1_555
O37 Sr2 2.970641 1_555
O38 P7 1.539280 1_555
O38 Sr8 2.546441 1_556
O38 Sr7 2.635654 1_555
O38 Sr11 2.723063 1_555
O39 P7 1.509511 1_555
O39 Sr1 2.457654 1_555
O39 Sr7 2.857556 1_555
O39 Sr10 2.941987 1_555
