# generated using pymatgen
data_Mo8P9H56N12ClO56
_symmetry_space_group_name_H-M   'P 1'
_cell_length_a   9.82178600
_cell_length_b   9.82178600
_cell_length_c   14.84188800
_cell_angle_alpha   90.00000000
_cell_angle_beta   90.00000000
_cell_angle_gamma   90.00000000
_symmetry_Int_Tables_number   1
_chemical_formula_structural   Mo8P9H56N12ClO56
_chemical_formula_sum   'Mo8 P9 H56 N12 Cl1 O56'
_cell_volume   1431.75953721
_cell_formula_units_Z   1
loop_
 _symmetry_equiv_pos_site_id
 _symmetry_equiv_pos_as_xyz
  1  'x, y, z'
loop_
 _atom_site_type_symbol
 _atom_site_label
 _atom_site_symmetry_multiplicity
 _atom_site_fract_x
 _atom_site_fract_y
 _atom_site_fract_z
 _atom_site_occupancy
  Mo  Mo0  1  0.14391000  0.37048600  0.83755300  1
  Mo  Mo1  1  0.64817400  0.12375000  0.80659200  1
  Mo  Mo2  1  0.62951400  0.14391000  0.16244700  1
  Mo  Mo3  1  0.35182600  0.87625000  0.80659200  1
  Mo  Mo4  1  0.85609000  0.62951400  0.83755300  1
  Mo  Mo5  1  0.37048600  0.85609000  0.16244700  1
  Mo  Mo6  1  0.12375000  0.35182600  0.19340800  1
  Mo  Mo7  1  0.87625000  0.64817400  0.19340800  1
  P  P0  1  0.64823800  0.82244100  0.69140400  1
  P  P1  1  0.64956800  0.85883700  0.30008600  1
  P  P2  1  0.35043200  0.14116300  0.30008600  1
  P  P3  1  0.82244100  0.35176200  0.30859600  1
  P  P4  1  0.14116300  0.64956800  0.69991400  1
  P  P5  1  0.35176200  0.17755900  0.69140400  1
  P  P6  1  0.50000000  0.50000000  0.50000000  1
  P  P7  1  0.85883700  0.35043200  0.69991400  1
  P  P8  1  0.17755900  0.64823800  0.30859600  1
  H  H0  1  0.58553200  0.51239200  0.20186800  1
  H  H1  1  0.08656400  0.99871500  0.70341500  1
  H  H2  1  0.68940700  0.04653800  0.58834800  1
  H  H3  1  0.32673800  0.66517700  0.41860800  1
  H  H4  1  0.63329800  0.89360900  0.05199400  1
  H  H5  1  0.48995600  0.58542500  0.28169600  1
  H  H6  1  0.00128500  0.08656400  0.29658500  1
  H  H7  1  0.51004400  0.41457500  0.28169600  1
  H  H8  1  0.48760800  0.58553200  0.79813200  1
  H  H9  1  0.31059300  0.95346200  0.58834800  1
  H  H10  1  0.24045600  0.12322500  0.97495400  1
  H  H11  1  0.36670200  0.10639100  0.05199400  1
  H  H12  1  0.10639100  0.63329800  0.94800600  1
  H  H13  1  0.11185900  0.22097900  0.49884600  1
  H  H14  1  0.33482300  0.32673800  0.58139200  1
  H  H15  1  0.68737300  0.73565100  0.02164100  1
  H  H16  1  0.00189700  0.08550800  0.78348300  1
  H  H17  1  0.51239200  0.41446800  0.79813200  1
  H  H18  1  0.04653800  0.31059300  0.41165200  1
  H  H19  1  0.67326200  0.33482300  0.41860800  1
  H  H20  1  0.64608300  0.01106600  0.47957800  1
  H  H21  1  0.01106600  0.35391700  0.52042200  1
  H  H22  1  0.87677500  0.24045600  0.02504600  1
  H  H23  1  0.31262700  0.26434900  0.02164100  1
  H  H24  1  0.75954400  0.87677500  0.97495400  1
  H  H25  1  0.99810300  0.91449200  0.78348300  1
  H  H26  1  0.98893400  0.64608300  0.52042200  1
  H  H27  1  0.95346200  0.68940700  0.41165200  1
  H  H28  1  0.41446800  0.48760800  0.20186800  1
  H  H29  1  0.40072900  0.16815100  0.94954000  1
  H  H30  1  0.89360900  0.36670200  0.94800600  1
  H  H31  1  0.88814100  0.77902100  0.49884600  1
  H  H32  1  0.77902100  0.11185900  0.50115400  1
  H  H33  1  0.56920700  0.75032000  0.42109200  1
  H  H34  1  0.26434900  0.68737300  0.97835900  1
  H  H35  1  0.83044400  0.61976200  0.47707900  1
  H  H36  1  0.75032000  0.43079300  0.57890800  1
  H  H37  1  0.61976200  0.16955600  0.52292100  1
  H  H38  1  0.91343600  0.00128500  0.70341500  1
  H  H39  1  0.38023800  0.83044400  0.52292100  1
  H  H40  1  0.83184900  0.40072900  0.05046000  1
  H  H41  1  0.16815100  0.59927100  0.05046000  1
  H  H42  1  0.35391700  0.98893400  0.47957800  1
  H  H43  1  0.08550800  0.99810300  0.21651700  1
  H  H44  1  0.43079300  0.24968000  0.42109200  1
  H  H45  1  0.66517700  0.67326200  0.58139200  1
  H  H46  1  0.99871500  0.91343600  0.29658500  1
  H  H47  1  0.22097900  0.88814100  0.50115400  1
  H  H48  1  0.16955600  0.38023800  0.47707900  1
  H  H49  1  0.24968000  0.56920700  0.57890800  1
  H  H50  1  0.59927100  0.83184900  0.94954000  1
  H  H51  1  0.91449200  0.00189700  0.21651700  1
  H  H52  1  0.12322500  0.75954400  0.02504600  1
  H  H53  1  0.58542500  0.51004400  0.71830400  1
  H  H54  1  0.41457500  0.48995600  0.71830400  1
  H  H55  1  0.73565100  0.31262700  0.97835900  1
  N  N0  1  0.16547800  0.67088800  0.00006000  1
  N  N1  1  0.91435000  0.68217600  0.47718600  1
  N  N2  1  0.00000000  0.00000000  0.25711400  1
  N  N3  1  0.50000000  0.50000000  0.24198700  1
  N  N4  1  0.08565000  0.31782400  0.47718600  1
  N  N5  1  0.50000000  0.50000000  0.75801300  1
  N  N6  1  0.31782400  0.91435000  0.52281400  1
  N  N7  1  0.67088800  0.83452200  0.99994000  1
  N  N8  1  0.83452200  0.32911200  0.00006000  1
  N  N9  1  0.00000000  0.00000000  0.74288600  1
  N  N10  1  0.32911200  0.16547800  0.99994000  1
  N  N11  1  0.68217600  0.08565000  0.52281400  1
  Cl  Cl0  1  0.00000000  0.00000000  0.50000000  1
  O  O0  1  0.01019500  0.33131000  0.71486000  1
  O  O1  1  0.59673500  0.26901800  0.86645800  1
  O  O2  1  0.79071200  0.46723800  0.75105500  1
  O  O3  1  0.78396200  0.78191300  0.27628400  1
  O  O4  1  0.49309900  0.81276700  0.69715500  1
  O  O5  1  0.74249300  0.58026800  0.92146200  1
  O  O6  1  0.78191300  0.21603800  0.72371600  1
  O  O7  1  0.37032200  0.47255200  0.55827600  1
  O  O8  1  0.94835500  0.76548600  0.11979400  1
  O  O9  1  0.00000000  0.50000000  0.87227100  1
  O  O10  1  0.69321900  0.77318900  0.59469900  1
  O  O11  1  0.25750700  0.41973200  0.92146200  1
  O  O12  1  0.26982600  0.71464900  0.23631700  1
  O  O13  1  0.20928800  0.53276200  0.75105500  1
  O  O14  1  0.22428500  0.92968300  0.11586900  1
  O  O15  1  0.58026800  0.25750700  0.07853800  1
  O  O16  1  0.62967800  0.52744800  0.55827600  1
  O  O17  1  0.66869000  0.01019500  0.28514000  1
  O  O18  1  0.07031700  0.22428500  0.88413100  1
  O  O19  1  0.77571500  0.07031700  0.11586900  1
  O  O20  1  0.76548600  0.05164500  0.88020600  1
  O  O21  1  0.37603000  0.16269900  0.40526100  1
  O  O22  1  0.33131000  0.98980500  0.28514000  1
  O  O23  1  0.03069600  0.70263600  0.30168000  1
  O  O24  1  0.21808700  0.78396200  0.72371600  1
  O  O25  1  0.21603800  0.21808700  0.27628400  1
  O  O26  1  0.62397000  0.83730100  0.40526100  1
  O  O27  1  0.96930400  0.29736400  0.30168000  1
  O  O28  1  0.23451400  0.94835500  0.88020600  1
  O  O29  1  0.52744800  0.37032200  0.44172400  1
  O  O30  1  0.05164500  0.23451400  0.11979400  1
  O  O31  1  0.47255200  0.62967800  0.44172400  1
  O  O32  1  0.28535100  0.26982600  0.76368300  1
  O  O33  1  0.83730100  0.37603000  0.59473900  1
  O  O34  1  0.22681100  0.69321900  0.40530100  1
  O  O35  1  0.50000000  0.00000000  0.83524200  1
  O  O36  1  0.41973200  0.74249300  0.07853800  1
  O  O37  1  0.00000000  0.50000000  0.16475800  1
  O  O38  1  0.73098200  0.59673500  0.13354200  1
  O  O39  1  0.98980500  0.66869000  0.71486000  1
  O  O40  1  0.81276700  0.50690100  0.30284500  1
  O  O41  1  0.50690100  0.18723300  0.69715500  1
  O  O42  1  0.30678100  0.22681100  0.59469900  1
  O  O43  1  0.92968300  0.77571500  0.88413100  1
  O  O44  1  0.26901800  0.40326500  0.13354200  1
  O  O45  1  0.73017400  0.28535100  0.23631700  1
  O  O46  1  0.50000000  0.00000000  0.12772900  1
  O  O47  1  0.16269900  0.62397000  0.59473900  1
  O  O48  1  0.18723300  0.49309900  0.30284500  1
  O  O49  1  0.53276200  0.79071200  0.24894500  1
  O  O50  1  0.29736400  0.03069600  0.69832000  1
  O  O51  1  0.77318900  0.30678100  0.40530100  1
  O  O52  1  0.71464900  0.73017400  0.76368300  1
  O  O53  1  0.70263600  0.96930400  0.69832000  1
  O  O54  1  0.46723800  0.20928800  0.24894500  1
  O  O55  1  0.40326500  0.73098200  0.86645800  1
loop_
_geom_bond_atom_site_label_1
_geom_bond_atom_site_label_2
_geom_bond_distance
_geom_bond_site_symmetry_2
Mo0 O11 1.740613 1_555
Mo0 O18 1.749952 1_555
Mo0 O9 1.970152 1_555
Mo0 O32 2.027157 1_555
Mo0 O13 2.144943 1_555
Mo0 O0 2.277913 1_555
Mo1 O20 1.738636 1_555
Mo1 O1 1.755124 1_555
Mo1 O35 1.943223 1_555
Mo1 O6 2.014954 1_555
Mo1 O41 2.225370 1_555
Mo1 O53 2.273664 1_545
Mo2 O15 1.740613 1_555
Mo2 O19 1.749952 1_555
Mo2 O46 1.970152 1_555
Mo2 O45 2.027157 1_555
Mo2 O54 2.144943 1_555
Mo2 O17 2.277913 1_555
Mo3 O28 1.738636 1_555
Mo3 O55 1.755124 1_555
Mo3 O35 1.943223 1_565
Mo3 O24 2.014954 1_555
Mo3 O4 2.225370 1_555
Mo3 O50 2.273664 1_565
Mo4 O5 1.740613 1_555
Mo4 O43 1.749952 1_555
Mo4 O9 1.970152 1_655
Mo4 O52 2.027157 1_555
Mo4 O2 2.144943 1_555
Mo4 O39 2.277913 1_555
Mo5 O36 1.740613 1_555
Mo5 O14 1.749952 1_555
Mo5 O46 1.970152 1_565
Mo5 O12 2.027157 1_555
Mo5 O49 2.144943 1_555
Mo5 O22 2.277913 1_555
Mo6 O30 1.738636 1_555
Mo6 O44 1.755124 1_555
Mo6 O37 1.943223 1_555
Mo6 O25 2.014954 1_555
Mo6 O48 2.225370 1_555
Mo6 O27 2.273664 1_455
Mo7 O8 1.738636 1_555
Mo7 O38 1.755124 1_555
Mo7 O37 1.943223 1_655
Mo7 O3 2.014954 1_555
Mo7 O40 2.225370 1_555
Mo7 O23 2.273664 1_655
H0 N3 1.036867 1_555
H1 N9 1.032575 1_565
H2 N11 1.048170 1_555
H3 O34 1.038331 1_555
H3 O31 1.513386 1_555
H4 N7 1.034400 1_554
H5 N3 1.030067 1_555
H6 N2 1.032575 1_555
H7 N3 1.030067 1_555
H8 N5 1.036867 1_555
H9 N6 1.048170 1_555
H10 N10 1.033426 1_555
H11 N10 1.034400 1_554
H12 N0 1.034400 1_556
H13 N4 1.036521 1_555
H14 O42 1.038331 1_555
H14 O7 1.513386 1_555
H15 N7 1.035842 1_554
H16 N9 1.033794 1_555
H17 N5 1.036867 1_555
H18 N4 1.048170 1_555
H19 O51 1.038331 1_555
H19 O29 1.513386 1_555
H20 N11 1.036378 1_555
H21 N4 1.036378 1_555
H22 N8 1.033426 1_555
H23 N10 1.035842 1_554
H24 N7 1.033426 1_555
H25 N9 1.033794 1_665
H26 N1 1.036378 1_555
H27 N1 1.048170 1_555
H28 N3 1.036867 1_555
H29 N10 1.027142 1_555
H30 N8 1.034400 1_556
H31 N1 1.036521 1_555
H32 N11 1.036521 1_555
H33 O26 1.036511 1_555
H33 O31 1.548878 1_555
H34 N0 1.035842 1_556
H35 N1 1.027105 1_555
H36 O33 1.036511 1_555
H36 O16 1.548878 1_555
H37 N11 1.027105 1_555
H38 N9 1.032575 1_655
H39 N6 1.027105 1_555
H40 N8 1.027142 1_555
H41 N0 1.027142 1_555
H42 N6 1.036378 1_555
H43 N2 1.033794 1_565
H44 O21 1.036511 1_555
H44 O29 1.548878 1_555
H45 O10 1.038331 1_555
H45 O16 1.513386 1_555
H46 N2 1.032575 1_665
H47 N6 1.036521 1_555
H48 N4 1.027105 1_555
H49 O47 1.036511 1_555
H49 O7 1.548878 1_555
H50 N7 1.027142 1_555
H51 N2 1.033794 1_655
H52 N0 1.033426 1_555
H53 N5 1.030067 1_555
H54 N5 1.030067 1_555
H55 N8 1.035842 1_556
O0 P7 1.514753 1_455
O2 P7 1.529706 1_555
O3 P1 1.561408 1_555
O4 P0 1.529086 1_555
O6 P7 1.561408 1_555
O7 P6 1.563013 1_555
O10 P0 1.577730 1_555
O12 P8 1.548392 1_555
O13 P4 1.529706 1_555
O16 P6 1.563013 1_555
O17 P1 1.514753 1_545
O21 P2 1.595199 1_555
O22 P2 1.514753 1_565
O23 P8 1.541648 1_555
O24 P4 1.561408 1_555
O25 P2 1.561408 1_555
O26 P1 1.595199 1_555
O27 P3 1.541648 1_555
O29 P6 1.563013 1_555
O31 P6 1.563013 1_555
O32 P5 1.548392 1_555
O33 P7 1.595199 1_555
O34 P8 1.577730 1_555
O39 P4 1.514753 1_655
O40 P3 1.529086 1_555
O41 P5 1.529086 1_555
O42 P5 1.577730 1_555
O45 P3 1.548392 1_555
O47 P4 1.595199 1_555
O48 P8 1.529086 1_555
O49 P1 1.529706 1_555
O50 P5 1.541648 1_555
O51 P3 1.577730 1_555
O52 P0 1.548392 1_555
O53 P0 1.541648 1_555
O54 P2 1.529706 1_555
