# generated using pymatgen
data_Zr14P9
_symmetry_space_group_name_H-M   'P 1'
_cell_length_a   3.70225500
_cell_length_b   16.83234000
_cell_length_c   27.78289400
_cell_angle_alpha   90.00000000
_cell_angle_beta   90.00000000
_cell_angle_gamma   90.00000000
_symmetry_Int_Tables_number   1
_chemical_formula_structural   Zr14P9
_chemical_formula_sum   'Zr56 P36'
_cell_volume   1731.36368984
_cell_formula_units_Z   4
loop_
 _symmetry_equiv_pos_site_id
 _symmetry_equiv_pos_as_xyz
  1  'x, y, z'
loop_
 _atom_site_type_symbol
 _atom_site_label
 _atom_site_symmetry_multiplicity
 _atom_site_fract_x
 _atom_site_fract_y
 _atom_site_fract_z
 _atom_site_occupancy
  Zr  Zr0  1  0.00000000  0.48665100  0.69598700  1
  Zr  Zr1  1  0.00000000  0.90128300  0.89527600  1
  Zr  Zr2  1  0.00000000  0.86257400  0.64676000  1
  Zr  Zr3  1  0.00000000  0.20159000  0.85783400  1
  Zr  Zr4  1  0.50000000  0.69921100  0.50952800  1
  Zr  Zr5  1  0.00000000  0.75470100  0.41636500  1
  Zr  Zr6  1  0.50000000  0.23272500  0.68722300  1
  Zr  Zr7  1  0.00000000  0.33343300  0.76212500  1
  Zr  Zr8  1  0.00000000  0.26727500  0.18722300  1
  Zr  Zr9  1  0.50000000  0.76727500  0.31277700  1
  Zr  Zr10  1  0.50000000  0.59871700  0.39527600  1
  Zr  Zr11  1  0.50000000  0.40128300  0.60472400  1
  Zr  Zr12  1  0.00000000  0.51334900  0.30401300  1
  Zr  Zr13  1  0.50000000  0.01948700  0.67742100  1
  Zr  Zr14  1  0.00000000  0.80078900  0.00952800  1
  Zr  Zr15  1  0.50000000  0.44925300  0.08012200  1
  Zr  Zr16  1  0.00000000  0.86362400  0.53087400  1
  Zr  Zr17  1  0.50000000  0.93063300  0.07625500  1
  Zr  Zr18  1  0.50000000  0.01334900  0.19598700  1
  Zr  Zr19  1  0.00000000  0.43063300  0.42374500  1
  Zr  Zr20  1  0.50000000  0.70159000  0.64216600  1
  Zr  Zr21  1  0.00000000  0.51948700  0.82257900  1
  Zr  Zr22  1  0.50000000  0.98051300  0.32257900  1
  Zr  Zr23  1  0.00000000  0.50000000  0.00000000  1
  Zr  Zr24  1  0.50000000  0.36362400  0.96912600  1
  Zr  Zr25  1  0.50000000  0.30078900  0.49047200  1
  Zr  Zr26  1  0.00000000  0.73272500  0.81277700  1
  Zr  Zr27  1  0.50000000  0.74529900  0.91636500  1
  Zr  Zr28  1  0.50000000  0.36257400  0.85324000  1
  Zr  Zr29  1  0.50000000  0.06936700  0.92374500  1
  Zr  Zr30  1  0.00000000  0.48051300  0.17742100  1
  Zr  Zr31  1  0.50000000  0.63742600  0.14676000  1
  Zr  Zr32  1  0.00000000  0.11882600  0.75575700  1
  Zr  Zr33  1  0.50000000  0.63637600  0.03087400  1
  Zr  Zr34  1  0.00000000  0.13637600  0.46912600  1
  Zr  Zr35  1  0.00000000  0.24529900  0.58363500  1
  Zr  Zr36  1  0.00000000  0.19921100  0.99047200  1
  Zr  Zr37  1  0.00000000  0.56936700  0.57625500  1
  Zr  Zr38  1  0.00000000  0.94925300  0.41987800  1
  Zr  Zr39  1  0.50000000  0.25470100  0.08363500  1
  Zr  Zr40  1  0.50000000  0.55074700  0.91987800  1
  Zr  Zr41  1  0.00000000  0.05074700  0.58012200  1
  Zr  Zr42  1  0.00000000  0.00000000  0.00000000  1
  Zr  Zr43  1  0.50000000  0.50000000  0.50000000  1
  Zr  Zr44  1  0.50000000  0.38117400  0.25575700  1
  Zr  Zr45  1  0.00000000  0.88117400  0.24424300  1
  Zr  Zr46  1  0.50000000  0.83343300  0.73787500  1
  Zr  Zr47  1  0.50000000  0.16656700  0.26212500  1
  Zr  Zr48  1  0.00000000  0.13742600  0.35324000  1
  Zr  Zr49  1  0.50000000  0.98665100  0.80401300  1
  Zr  Zr50  1  0.00000000  0.09871700  0.10472400  1
  Zr  Zr51  1  0.50000000  0.61882600  0.74424300  1
  Zr  Zr52  1  0.00000000  0.66656700  0.23787500  1
  Zr  Zr53  1  0.50000000  0.00000000  0.50000000  1
  Zr  Zr54  1  0.50000000  0.29841000  0.35783400  1
  Zr  Zr55  1  0.00000000  0.79841000  0.14216600  1
  P  P0  1  0.00000000  0.60410400  0.46677100  1
  P  P1  1  0.00000000  0.04851600  0.85712400  1
  P  P2  1  0.00000000  0.26882300  0.42217200  1
  P  P3  1  0.50000000  0.45148400  0.35712400  1
  P  P4  1  0.50000000  0.23117700  0.92217200  1
  P  P5  1  0.00000000  0.72638700  0.71415100  1
  P  P6  1  0.00000000  0.86753000  0.34202600  1
  P  P7  1  0.00000000  0.34190500  0.66515200  1
  P  P8  1  0.00000000  0.73117700  0.57782800  1
  P  P9  1  0.00000000  0.27361300  0.28584900  1
  P  P10  1  0.50000000  0.15562600  0.53781900  1
  P  P11  1  0.00000000  0.43703000  0.90796800  1
  P  P12  1  0.00000000  0.39589600  0.53322900  1
  P  P13  1  0.50000000  0.89589600  0.96677100  1
  P  P14  1  0.50000000  0.36753000  0.15797400  1
  P  P15  1  0.50000000  0.84437400  0.46218100  1
  P  P16  1  0.00000000  0.56297000  0.09203200  1
  P  P17  1  0.50000000  0.15809500  0.16515200  1
  P  P18  1  0.00000000  0.13247000  0.65797400  1
  P  P19  1  0.50000000  0.93703000  0.59203200  1
  P  P20  1  0.50000000  0.84190500  0.83484800  1
  P  P21  1  0.00000000  0.04746000  0.26668800  1
  P  P22  1  0.00000000  0.34437400  0.03781900  1
  P  P23  1  0.00000000  0.65809500  0.33484800  1
  P  P24  1  0.50000000  0.63247000  0.84202600  1
  P  P25  1  0.50000000  0.76882300  0.07782800  1
  P  P26  1  0.50000000  0.54746000  0.23331200  1
  P  P27  1  0.00000000  0.95148400  0.14287600  1
  P  P28  1  0.50000000  0.22638700  0.78584900  1
  P  P29  1  0.50000000  0.45254000  0.76668800  1
  P  P30  1  0.50000000  0.54851600  0.64287600  1
  P  P31  1  0.00000000  0.95254000  0.73331200  1
  P  P32  1  0.00000000  0.65562600  0.96218100  1
  P  P33  1  0.50000000  0.10410400  0.03322900  1
  P  P34  1  0.50000000  0.77361300  0.21415100  1
  P  P35  1  0.50000000  0.06297000  0.40796800  1
loop_
_geom_bond_atom_site_label_1
_geom_bond_atom_site_label_2
_geom_bond_distance
_geom_bond_site_symmetry_2
P0 Zr43 2.711009 1_455
P0 Zr43 2.711009 1_555
P0 Zr10 2.716695 1_455
P0 Zr10 2.716695 1_555
P0 Zr4 2.720406 1_455
P0 Zr4 2.720406 1_555
P0 Zr5 2.896016 1_555
P0 Zr37 3.097470 1_555
P0 Zr19 3.155139 1_555
P1 Zr3 2.576669 1_555
P1 Zr49 2.586189 1_545
P1 Zr49 2.586189 1_445
P1 Zr29 2.641169 1_555
P1 Zr29 2.641169 1_455
P1 Zr1 2.695440 1_545
P1 Zr32 3.054832 1_555
P2 Zr34 2.583014 1_555
P2 Zr54 2.621037 1_455
P2 Zr54 2.621037 1_555
P2 Zr25 2.704988 1_555
P2 Zr25 2.704988 1_455
P2 Zr19 2.723992 1_555
P2 Zr48 2.925650 1_555
P3 Zr54 2.576669 1_555
P3 Zr12 2.586189 1_655
P3 Zr12 2.586189 1_555
P3 Zr19 2.641169 1_655
P3 Zr19 2.641169 1_555
P3 Zr10 2.695440 1_555
P3 Zr44 3.054832 1_555
P4 Zr24 2.583014 1_555
P4 Zr3 2.621037 1_655
P4 Zr3 2.621037 1_555
P4 Zr36 2.704988 1_555
P4 Zr36 2.704988 1_655
P4 Zr29 2.723992 1_555
P4 Zr28 2.925650 1_555
P5 Zr46 2.666031 1_455
P5 Zr46 2.666031 1_555
P5 Zr51 2.720949 1_455
P5 Zr51 2.720949 1_555
P5 Zr26 2.742192 1_555
P5 Zr20 2.756936 1_555
P5 Zr20 2.756936 1_455
P5 Zr2 2.959801 1_555
P6 Zr38 2.563321 1_555
P6 Zr9 2.633396 1_455
P6 Zr9 2.633396 1_555
P6 Zr22 2.708378 1_555
P6 Zr22 2.708378 1_455
P6 Zr45 2.726385 1_555
P6 Zr5 2.805807 1_555
P7 Zr0 2.582639 1_555
P7 Zr6 2.679557 1_455
P7 Zr6 2.679557 1_555
P7 Zr11 2.691505 1_455
P7 Zr11 2.691505 1_555
P7 Zr7 2.697962 1_555
P7 Zr35 2.788089 1_555
P8 Zr16 2.583014 1_555
P8 Zr20 2.621037 1_455
P8 Zr20 2.621037 1_555
P8 Zr4 2.704988 1_455
P8 Zr4 2.704988 1_555
P8 Zr37 2.723992 1_555
P8 Zr2 2.925650 1_555
P9 Zr47 2.666031 1_455
P9 Zr47 2.666031 1_555
P9 Zr44 2.720949 1_455
P9 Zr44 2.720949 1_555
P9 Zr8 2.742192 1_555
P9 Zr54 2.756936 1_555
P9 Zr54 2.756936 1_455
P9 Zr48 2.959801 1_555
P10 Zr34 2.678432 1_555
P10 Zr34 2.678432 1_655
P10 Zr35 2.706521 1_555
P10 Zr35 2.706521 1_655
P10 Zr25 2.775020 1_555
P10 Zr41 2.815048 1_555
P10 Zr41 2.815048 1_655
P10 Zr53 2.822420 1_555
P11 Zr40 2.683287 1_455
P11 Zr40 2.683287 1_555
P11 Zr28 2.703568 1_555
P11 Zr28 2.703568 1_455
P11 Zr21 2.748536 1_555
P11 Zr23 2.767900 1_556
P11 Zr24 2.800083 1_555
P11 Zr24 2.800083 1_455
P12 Zr43 2.711009 1_455
P12 Zr43 2.711009 1_555
P12 Zr11 2.716695 1_455
P12 Zr11 2.716695 1_555
P12 Zr25 2.720406 1_455
P12 Zr25 2.720406 1_555
P12 Zr35 2.896016 1_555
P12 Zr19 3.097470 1_555
P12 Zr37 3.155139 1_555
P13 Zr42 2.711009 1_666
P13 Zr42 2.711009 1_566
P13 Zr1 2.716695 1_655
P13 Zr1 2.716695 1_555
P13 Zr14 2.720406 1_556
P13 Zr14 2.720406 1_656
P13 Zr27 2.896016 1_555
P13 Zr17 3.097470 1_556
P13 Zr29 3.155139 1_565
P14 Zr15 2.563321 1_555
P14 Zr8 2.633396 1_555
P14 Zr8 2.633396 1_655
P14 Zr30 2.708378 1_655
P14 Zr30 2.708378 1_555
P14 Zr44 2.726385 1_555
P14 Zr39 2.805807 1_555
P15 Zr16 2.678432 1_555
P15 Zr16 2.678432 1_655
P15 Zr5 2.706521 1_555
P15 Zr5 2.706521 1_655
P15 Zr4 2.775020 1_555
P15 Zr38 2.815048 1_555
P15 Zr38 2.815048 1_655
P15 Zr53 2.822420 1_565
P16 Zr15 2.683287 1_455
P16 Zr15 2.683287 1_555
P16 Zr31 2.703568 1_455
P16 Zr31 2.703568 1_555
P16 Zr30 2.748536 1_555
P16 Zr23 2.767900 1_555
P16 Zr33 2.800083 1_455
P16 Zr33 2.800083 1_555
P17 Zr18 2.582639 1_555
P17 Zr8 2.679557 1_555
P17 Zr8 2.679557 1_655
P17 Zr50 2.691505 1_555
P17 Zr50 2.691505 1_655
P17 Zr47 2.697962 1_555
P17 Zr39 2.788089 1_555
P18 Zr41 2.563321 1_555
P18 Zr6 2.633396 1_555
P18 Zr6 2.633396 1_455
P18 Zr13 2.708378 1_455
P18 Zr13 2.708378 1_555
P18 Zr32 2.726385 1_555
P18 Zr35 2.805807 1_555
P19 Zr41 2.683287 1_565
P19 Zr41 2.683287 1_665
P19 Zr2 2.703568 1_555
P19 Zr2 2.703568 1_655
P19 Zr13 2.748536 1_565
P19 Zr53 2.767900 1_565
P19 Zr16 2.800083 1_555
P19 Zr16 2.800083 1_655
P20 Zr49 2.582639 1_555
P20 Zr26 2.679557 1_555
P20 Zr26 2.679557 1_655
P20 Zr1 2.691505 1_655
P20 Zr1 2.691505 1_555
P20 Zr46 2.697962 1_555
P20 Zr27 2.788089 1_555
P21 Zr22 2.666036 1_545
P21 Zr22 2.666036 1_445
P21 Zr47 2.731697 1_455
P21 Zr47 2.731697 1_555
P21 Zr18 2.759480 1_455
P21 Zr18 2.759480 1_555
P21 Zr48 2.841766 1_555
P21 Zr45 2.867606 1_545
P22 Zr24 2.678432 1_454
P22 Zr24 2.678432 1_554
P22 Zr39 2.706521 1_455
P22 Zr39 2.706521 1_555
P22 Zr36 2.775020 1_554
P22 Zr15 2.815048 1_455
P22 Zr15 2.815048 1_555
P22 Zr23 2.822420 1_555
P23 Zr12 2.582639 1_555
P23 Zr9 2.679557 1_455
P23 Zr9 2.679557 1_555
P23 Zr10 2.691505 1_455
P23 Zr10 2.691505 1_555
P23 Zr52 2.697962 1_555
P23 Zr5 2.788089 1_555
P24 Zr40 2.563321 1_555
P24 Zr26 2.633396 1_655
P24 Zr26 2.633396 1_555
P24 Zr21 2.708378 1_555
P24 Zr21 2.708378 1_655
P24 Zr51 2.726385 1_555
P24 Zr27 2.805807 1_555
P25 Zr33 2.583014 1_555
P25 Zr55 2.621037 1_655
P25 Zr55 2.621037 1_555
P25 Zr14 2.704988 1_555
P25 Zr14 2.704988 1_655
P25 Zr17 2.723992 1_555
P25 Zr31 2.925650 1_555
P26 Zr30 2.666036 1_555
P26 Zr30 2.666036 1_655
P26 Zr52 2.731697 1_655
P26 Zr52 2.731697 1_555
P26 Zr12 2.759480 1_555
P26 Zr12 2.759480 1_655
P26 Zr31 2.841766 1_555
P26 Zr44 2.867606 1_555
P27 Zr55 2.576669 1_555
P27 Zr18 2.586189 1_565
P27 Zr18 2.586189 1_465
P27 Zr17 2.641169 1_455
P27 Zr17 2.641169 1_555
P27 Zr50 2.695440 1_565
P27 Zr45 3.054832 1_555
P28 Zr7 2.666031 1_555
P28 Zr7 2.666031 1_655
P28 Zr32 2.720949 1_655
P28 Zr32 2.720949 1_555
P28 Zr6 2.742192 1_555
P28 Zr3 2.756936 1_555
P28 Zr3 2.756936 1_655
P28 Zr28 2.959801 1_555
P29 Zr21 2.666036 1_655
P29 Zr21 2.666036 1_555
P29 Zr7 2.731697 1_655
P29 Zr7 2.731697 1_555
P29 Zr0 2.759480 1_555
P29 Zr0 2.759480 1_655
P29 Zr28 2.841766 1_555
P29 Zr51 2.867606 1_555
P30 Zr20 2.576669 1_555
P30 Zr0 2.586189 1_555
P30 Zr0 2.586189 1_655
P30 Zr37 2.641169 1_655
P30 Zr37 2.641169 1_555
P30 Zr11 2.695440 1_555
P30 Zr51 3.054832 1_555
P31 Zr13 2.666036 1_565
P31 Zr13 2.666036 1_465
P31 Zr46 2.731697 1_455
P31 Zr46 2.731697 1_555
P31 Zr49 2.759480 1_455
P31 Zr49 2.759480 1_555
P31 Zr2 2.841766 1_555
P31 Zr32 2.867606 1_565
P32 Zr33 2.678432 1_456
P32 Zr33 2.678432 1_556
P32 Zr27 2.706521 1_455
P32 Zr27 2.706521 1_555
P32 Zr14 2.775020 1_556
P32 Zr40 2.815048 1_455
P32 Zr40 2.815048 1_555
P32 Zr23 2.822420 1_556
P33 Zr42 2.711009 1_655
P33 Zr42 2.711009 1_555
P33 Zr50 2.716695 1_655
P33 Zr50 2.716695 1_555
P33 Zr36 2.720406 1_654
P33 Zr36 2.720406 1_554
P33 Zr39 2.896016 1_555
P33 Zr29 3.097470 1_554
P33 Zr17 3.155139 1_545
P34 Zr52 2.666031 1_655
P34 Zr52 2.666031 1_555
P34 Zr45 2.720949 1_555
P34 Zr45 2.720949 1_655
P34 Zr9 2.742192 1_555
P34 Zr55 2.756936 1_655
P34 Zr55 2.756936 1_555
P34 Zr31 2.959801 1_555
P35 Zr38 2.683287 1_645
P35 Zr38 2.683287 1_545
P35 Zr48 2.703568 1_555
P35 Zr48 2.703568 1_655
P35 Zr22 2.748536 1_545
P35 Zr53 2.767900 1_555
P35 Zr34 2.800083 1_555
P35 Zr34 2.800083 1_655
