# generated using pymatgen
data_K2FeH4(SO5)2
_symmetry_space_group_name_H-M   'P 1'
_cell_length_a   9.53843138
_cell_length_b   9.68130099
_cell_length_c   11.34695894
_cell_angle_alpha   108.57332504
_cell_angle_beta   83.67585178
_cell_angle_gamma   105.40042622
_symmetry_Int_Tables_number   1
_chemical_formula_structural   K2FeH4(SO5)2
_chemical_formula_sum   'K8 Fe4 H16 S8 O40'
_cell_volume   957.21499762
_cell_formula_units_Z   4
loop_
 _symmetry_equiv_pos_site_id
 _symmetry_equiv_pos_as_xyz
  1  'x, y, z'
loop_
 _atom_site_type_symbol
 _atom_site_label
 _atom_site_symmetry_multiplicity
 _atom_site_fract_x
 _atom_site_fract_y
 _atom_site_fract_z
 _atom_site_occupancy
  K  K0  1  0.67446000  0.74290900  0.42893600  1
  K  K1  1  0.92419700  0.49293500  0.67878300  1
  K  K2  1  0.17423100  0.24284400  0.92880500  1
  K  K3  1  0.42439100  0.99308200  0.17893900  1
  K  K4  1  0.07557900  0.50698200  0.32121700  1
  K  K5  1  0.32569800  0.25689900  0.57116900  1
  K  K6  1  0.57578000  0.00723500  0.82120200  1
  K  K7  1  0.82571900  0.75713700  0.07095500  1
  Fe  Fe0  1  0.37502000  0.62525600  0.87514700  1
  Fe  Fe1  1  0.62493000  0.37516300  0.12502700  1
  Fe  Fe2  1  0.87491600  0.12464500  0.37474700  1
  Fe  Fe3  1  0.12511900  0.87491500  0.62502000  1
  H  H0  1  0.68027400  0.08130000  0.55246300  1
  H  H1  1  0.93009300  0.83175000  0.80270600  1
  H  H2  1  0.18036100  0.58083100  0.05242000  1
  H  H3  1  0.43027200  0.33110100  0.30252800  1
  H  H4  1  0.06983200  0.16868500  0.19736200  1
  H  H5  1  0.31993600  0.91822900  0.44733800  1
  H  H6  1  0.56965100  0.66920700  0.69765000  1
  H  H7  1  0.81958900  0.41887600  0.94754700  1
  H  H8  1  0.61024100  0.11664400  0.44963300  1
  H  H9  1  0.86010200  0.86659700  0.69963300  1
  H  H10  1  0.11022800  0.61656700  0.94982700  1
  H  H11  1  0.36006000  0.36671700  0.19992500  1
  H  H12  1  0.13996400  0.13340100  0.30016300  1
  H  H13  1  0.39003600  0.88337400  0.55033700  1
  H  H14  1  0.63968200  0.63327800  0.80021500  1
  H  H15  1  0.88964600  0.38344900  0.05034000  1
  S  S0  1  0.05253200  0.85985500  0.33076900  1
  S  S1  1  0.30267400  0.60991900  0.58085200  1
  S  S2  1  0.55235900  0.36003300  0.83080600  1
  S  S3  1  0.80238000  0.11014700  0.08080000  1
  S  S4  1  0.69755300  0.38990700  0.41910300  1
  S  S5  1  0.94744800  0.13990800  0.66910800  1
  S  S6  1  0.19765400  0.89000900  0.91921400  1
  S  S7  1  0.44743300  0.64023700  0.16934900  1
  O  O0  1  0.77893100  0.05366700  0.19181600  1
  O  O1  1  0.02901100  0.80360200  0.44187300  1
  O  O2  1  0.27924800  0.55360400  0.69190700  1
  O  O3  1  0.52906300  0.30377800  0.94195600  1
  O  O4  1  0.97091600  0.19615700  0.55802000  1
  O  O5  1  0.22112500  0.94630200  0.80809700  1
  O  O6  1  0.47078400  0.69654700  0.05821600  1
  O  O7  1  0.72091500  0.44635600  0.30809700  1
  O  O8  1  0.31878300  0.48728100  0.46761300  1
  O  O9  1  0.56848100  0.23729600  0.71755400  1
  O  O10  1  0.81850200  0.98755000  0.96746400  1
  O  O11  1  0.06893200  0.73717600  0.21760700  1
  O  O12  1  0.43114100  0.76290600  0.28257100  1
  O  O13  1  0.68161500  0.51251700  0.53242100  1
  O  O14  1  0.93127100  0.26259900  0.78230700  1
  O  O15  1  0.18128500  0.01268100  0.03243800  1
  O  O16  1  0.18209200  0.99154600  0.34819700  1
  O  O17  1  0.43244700  0.74146900  0.59822100  1
  O  O18  1  0.68211000  0.49165600  0.84811200  1
  O  O19  1  0.93210100  0.24173700  0.09822000  1
  O  O20  1  0.56772600  0.25841900  0.40175300  1
  O  O21  1  0.81771200  0.00835700  0.65175200  1
  O  O22  1  0.06804800  0.75831200  0.90181800  1
  O  O23  1  0.31777700  0.50852200  0.15193600  1
  O  O24  1  0.91795500  0.90939700  0.31948700  1
  O  O25  1  0.16820500  0.65985200  0.56985500  1
  O  O26  1  0.41778000  0.40980600  0.81981000  1
  O  O27  1  0.66784400  0.16001500  0.06984100  1
  O  O28  1  0.83198700  0.33982600  0.42993300  1
  O  O29  1  0.08188300  0.09009500  0.68025100  1
  O  O30  1  0.33228800  0.84040400  0.93037800  1
  O  O31  1  0.58206700  0.59055200  0.18041700  1
  O  O32  1  0.66647500  0.04986300  0.46262900  1
  O  O33  1  0.91650600  0.80008200  0.71284300  1
  O  O34  1  0.16650300  0.54969700  0.96262200  1
  O  O35  1  0.41643500  0.29995000  0.21271500  1
  O  O36  1  0.08349800  0.19999600  0.28719400  1
  O  O37  1  0.33355300  0.94985900  0.53721100  1
  O  O38  1  0.58353400  0.70027100  0.78745300  1
  O  O39  1  0.83343100  0.45027100  0.03736100  1
loop_
_geom_bond_atom_site_label_1
_geom_bond_atom_site_label_2
_geom_bond_distance
_geom_bond_site_symmetry_2
K0 O17 2.835815 1_555
K0 O31 2.848110 1_555
K0 O13 2.850542 1_555
K0 O24 2.861123 1_555
K0 O7 2.890195 1_555
K0 O32 2.893630 1_565
K0 O12 3.078126 1_555
K0 O21 3.101697 1_565
K0 O1 3.286759 1_655
K1 O18 2.836624 1_555
K1 O14 2.850123 1_555
K1 O28 2.851730 1_555
K1 O25 2.863059 1_655
K1 O4 2.892917 1_555
K1 O33 2.893866 1_555
K1 O13 3.070525 1_555
K1 O22 3.104656 1_655
K1 O2 3.291704 1_655
K2 O19 2.837495 1_456
K2 O29 2.848789 1_555
K2 O15 2.849351 1_556
K2 O26 2.860976 1_555
K2 O5 2.891423 1_545
K2 O34 2.891686 1_555
K2 O14 3.075236 1_455
K2 O23 3.105718 1_556
K2 O3 3.289396 1_555
K3 O16 2.837653 1_555
K3 O30 2.848120 1_554
K3 O12 2.848659 1_555
K3 O27 2.860888 1_565
K3 O6 2.889640 1_555
K3 O35 2.892539 1_565
K3 O15 3.075758 1_565
K3 O20 3.101444 1_565
K3 O0 3.286701 1_565
K4 O23 2.837095 1_555
K4 O11 2.848382 1_555
K4 O25 2.850495 1_555
K4 O28 2.860489 1_455
K4 O1 2.890869 1_555
K4 O36 2.893020 1_555
K4 O8 3.076196 1_555
K4 O19 3.102713 1_455
K4 O7 3.288104 1_455
K5 O20 2.836800 1_555
K5 O26 2.849114 1_555
K5 O8 2.850355 1_555
K5 O29 2.862307 1_555
K5 O2 2.891316 1_555
K5 O37 2.893510 1_545
K5 O9 3.072372 1_555
K5 O16 3.103394 1_545
K5 O4 3.289125 1_455
K6 O21 2.836336 1_555
K6 O27 2.848896 1_556
K6 O9 2.849204 1_555
K6 O30 2.861099 1_545
K6 O3 2.890887 1_555
K6 O38 2.892974 1_545
K6 O10 3.071336 1_545
K6 O17 3.104451 1_545
K6 O5 3.287679 1_545
K7 O22 2.837043 1_654
K7 O24 2.847703 1_555
K7 O10 2.850939 1_554
K7 O31 2.862577 1_555
K7 O0 2.891194 1_565
K7 O39 2.892268 1_555
K7 O11 3.079230 1_655
K7 O18 3.103083 1_554
K7 O6 3.290255 1_555
Fe0 O30 2.111988 1_555
Fe0 O26 2.114811 1_555
Fe0 O38 2.174964 1_555
Fe0 O34 2.175088 1_555
Fe0 O6 2.189899 1_556
Fe0 O2 2.191328 1_555
Fe1 O27 2.112742 1_555
Fe1 O31 2.114646 1_555
Fe1 O39 2.174934 1_555
Fe1 O35 2.175246 1_555
Fe1 O3 2.190261 1_554
Fe1 O7 2.190926 1_555
Fe2 O28 2.113103 1_555
Fe2 O24 2.114126 1_545
Fe2 O32 2.174879 1_555
Fe2 O36 2.175498 1_655
Fe2 O0 2.189722 1_555
Fe2 O4 2.192746 1_555
Fe3 O25 2.112669 1_555
Fe3 O29 2.114314 1_565
Fe3 O37 2.174814 1_555
Fe3 O33 2.175958 1_455
Fe3 O5 2.190901 1_555
Fe3 O1 2.192108 1_555
H0 O32 0.979623 1_555
H1 O33 0.979481 1_555
H2 O34 0.979496 1_554
H3 O35 0.979616 1_555
H4 O36 0.979460 1_555
H5 O37 0.979656 1_555
H6 O38 0.979631 1_555
H7 O39 0.979498 1_556
H8 O32 0.994887 1_555
H9 O33 0.994915 1_555
H10 O34 0.994952 1_555
H11 O35 0.994786 1_555
H12 O36 0.994861 1_555
H13 O37 0.994825 1_555
H14 O38 0.994917 1_555
H15 O39 0.995008 1_555
O0 S3 1.499202 1_555
O1 S0 1.498812 1_555
O2 S1 1.498681 1_555
O3 S2 1.499401 1_555
O4 S5 1.498639 1_555
O5 S6 1.499199 1_555
O6 S7 1.499513 1_555
O7 S4 1.498951 1_555
O8 S1 1.471682 1_555
O9 S2 1.472332 1_555
O10 S3 1.472154 1_566
O11 S0 1.471995 1_555
O12 S7 1.472121 1_555
O13 S4 1.471711 1_555
O14 S5 1.471837 1_555
O15 S6 1.472316 1_544
O16 S0 1.499393 1_555
O17 S1 1.499868 1_555
O18 S2 1.500190 1_555
O19 S3 1.499763 1_555
O20 S4 1.499842 1_555
O21 S5 1.499664 1_555
O22 S6 1.499713 1_555
O23 S7 1.500099 1_555
O24 S0 1.515428 1_655
O25 S1 1.515715 1_555
O26 S2 1.515816 1_555
O27 S3 1.515838 1_555
O28 S4 1.515694 1_555
O29 S5 1.515208 1_455
O30 S6 1.515913 1_555
O31 S7 1.516051 1_555
