# generated using pymatgen
data_Rb
_symmetry_space_group_name_H-M   'P 1'
_cell_length_a   10.92338078
_cell_length_b   9.98314369
_cell_length_c   9.98314463
_cell_angle_alpha   72.58391070
_cell_angle_beta   56.83232489
_cell_angle_gamma   56.83232564
_symmetry_Int_Tables_number   1
_chemical_formula_structural   Rb
_chemical_formula_sum   Rb8
_cell_volume   762.81379066
_cell_formula_units_Z   8
loop_
 _symmetry_equiv_pos_site_id
 _symmetry_equiv_pos_as_xyz
  1  'x, y, z'
loop_
 _atom_site_type_symbol
 _atom_site_label
 _atom_site_symmetry_multiplicity
 _atom_site_fract_x
 _atom_site_fract_y
 _atom_site_fract_z
 _atom_site_occupancy
  Rb  Rb0_0  1  0.00000000  0.00000000  0.00000000  1
  Rb  Rb0_1  1  0.00000000  0.00000000  0.50000000  1
  Rb  Rb0_2  1  0.00000000  0.50000000  0.00000000  1
  Rb  Rb0_3  1  0.00000000  0.50000000  0.50000000  1
  Rb  Rb0_4  1  0.50000000  0.00000000  0.00000000  1
  Rb  Rb0_5  1  0.50000000  0.00000000  0.50000000  1
  Rb  Rb0_6  1  0.50000000  0.50000000  0.00000000  1
  Rb  Rb0_7  1  0.50000000  0.50000000  0.50000000  1
loop_
_geom_bond_atom_site_label_1
_geom_bond_atom_site_label_2
_geom_bond_distance
_geom_bond_site_symmetry_2
Rb0_0 Rb0_2 4.991572 1_545
Rb0_0 Rb0_2 4.991572 1_555
Rb0_0 Rb0_1 4.991572 1_555
Rb0_0 Rb0_1 4.991572 1_554
Rb0_0 Rb0_6 4.991573 1_455
Rb0_0 Rb0_6 4.991573 1_545
Rb0_0 Rb0_5 4.991573 1_455
Rb0_0 Rb0_5 4.991573 1_554
Rb0_1 Rb0_3 4.991572 1_545
Rb0_1 Rb0_3 4.991572 1_555
Rb0_1 Rb0_7 4.991573 1_455
Rb0_1 Rb0_7 4.991573 1_545
Rb0_1 Rb0_4 4.991573 1_456
Rb0_1 Rb0_4 4.991573 1_555
Rb0_2 Rb0_3 4.991572 1_555
Rb0_2 Rb0_3 4.991572 1_554
Rb0_2 Rb0_4 4.991573 1_555
Rb0_2 Rb0_4 4.991573 1_465
Rb0_2 Rb0_7 4.991573 1_455
Rb0_2 Rb0_7 4.991573 1_554
Rb0_3 Rb0_5 4.991573 1_555
Rb0_3 Rb0_5 4.991573 1_465
Rb0_3 Rb0_6 4.991573 1_456
Rb0_3 Rb0_6 4.991573 1_555
Rb0_4 Rb0_6 4.991572 1_545
Rb0_4 Rb0_6 4.991572 1_555
Rb0_4 Rb0_5 4.991572 1_555
Rb0_4 Rb0_5 4.991572 1_554
Rb0_5 Rb0_7 4.991572 1_545
Rb0_5 Rb0_7 4.991572 1_555
Rb0_6 Rb0_7 4.991572 1_555
Rb0_6 Rb0_7 4.991572 1_554
