# generated using pymatgen
data_Pd7O8
_symmetry_space_group_name_H-M   'P 1'
_cell_length_a   5.78594700
_cell_length_b   7.78731200
_cell_length_c   25.37748074
_cell_angle_alpha   89.75303623
_cell_angle_beta   90.00000000
_cell_angle_gamma   90.00000000
_symmetry_Int_Tables_number   1
_chemical_formula_structural   Pd7O8
_chemical_formula_sum   'Pd42 O48'
_cell_volume   1143.42188096
_cell_formula_units_Z   6
loop_
 _symmetry_equiv_pos_site_id
 _symmetry_equiv_pos_as_xyz
  1  'x, y, z'
loop_
 _atom_site_type_symbol
 _atom_site_label
 _atom_site_symmetry_multiplicity
 _atom_site_fract_x
 _atom_site_fract_y
 _atom_site_fract_z
 _atom_site_occupancy
  Pd  Pd0  1  0.00000000  0.25302600  0.91746400  1
  Pd  Pd1  1  0.00000000  0.87131600  0.62674800  1
  Pd  Pd2  1  0.00000000  0.12550500  0.70546900  1
  Pd  Pd3  1  0.74994100  0.50000000  0.00000000  1
  Pd  Pd4  1  0.74964800  0.99581600  0.16668400  1
  Pd  Pd5  1  0.75154200  0.49993400  0.33398000  1
  Pd  Pd6  1  0.75255700  0.00000000  0.50000000  1
  Pd  Pd7  1  0.75154200  0.50006600  0.66602000  1
  Pd  Pd8  1  0.74964800  0.00418400  0.83331600  1
  Pd  Pd9  1  0.50000000  0.74772600  0.25138100  1
  Pd  Pd10  1  0.50000000  0.25092200  0.41693600  1
  Pd  Pd11  1  0.50000000  0.74907800  0.58306400  1
  Pd  Pd12  1  0.50000000  0.25227400  0.74861900  1
  Pd  Pd13  1  0.50000000  0.12911000  0.96111000  1
  Pd  Pd14  1  0.50000000  0.87089000  0.03889000  1
  Pd  Pd15  1  0.50000000  0.62204000  0.12362200  1
  Pd  Pd16  1  0.50000000  0.37558000  0.20824200  1
  Pd  Pd17  1  0.50000000  0.11893600  0.28937300  1
  Pd  Pd18  1  0.50000000  0.88236200  0.37830200  1
  Pd  Pd19  1  0.50000000  0.61873900  0.45572000  1
  Pd  Pd20  1  0.50000000  0.11763800  0.62169800  1
  Pd  Pd21  1  0.50000000  0.38126100  0.54428000  1
  Pd  Pd22  1  0.50000000  0.62442000  0.79175800  1
  Pd  Pd23  1  0.50000000  0.88106400  0.71062700  1
  Pd  Pd24  1  0.50000000  0.37796000  0.87637800  1
  Pd  Pd25  1  0.25005900  0.50000000  0.00000000  1
  Pd  Pd26  1  0.24845800  0.49993400  0.33398000  1
  Pd  Pd27  1  0.25035200  0.99581600  0.16668400  1
  Pd  Pd28  1  0.24744300  0.00000000  0.50000000  1
  Pd  Pd29  1  0.24845800  0.50006600  0.66602000  1
  Pd  Pd30  1  0.25035200  0.00418400  0.83331600  1
  Pd  Pd31  1  0.00000000  0.88289100  0.95582900  1
  Pd  Pd32  1  0.00000000  0.37639400  0.12578900  1
  Pd  Pd33  1  0.00000000  0.74697400  0.08253600  1
  Pd  Pd34  1  0.00000000  0.87449500  0.29453100  1
  Pd  Pd35  1  0.00000000  0.37332900  0.46052300  1
  Pd  Pd36  1  0.00000000  0.11710900  0.04417100  1
  Pd  Pd37  1  0.00000000  0.37820800  0.78965500  1
  Pd  Pd38  1  0.00000000  0.62179200  0.21034500  1
  Pd  Pd39  1  0.00000000  0.12868400  0.37325200  1
  Pd  Pd40  1  0.00000000  0.62667100  0.53947700  1
  Pd  Pd41  1  0.00000000  0.62360600  0.87421100  1
  O  O0  1  0.77455900  0.53337700  0.08097500  1
  O  O1  1  0.72867000  0.96401900  0.24879500  1
  O  O2  1  0.72943400  0.46308900  0.41501000  1
  O  O3  1  0.77455900  0.46662300  0.91902500  1
  O  O4  1  0.72948300  0.96122300  0.58119300  1
  O  O5  1  0.72511600  0.46816200  0.74709400  1
  O  O6  1  0.77082500  0.96057300  0.08468200  1
  O  O7  1  0.72511600  0.53183800  0.25290600  1
  O  O8  1  0.77082500  0.03942700  0.91531800  1
  O  O9  1  0.72948300  0.03877700  0.41880700  1
  O  O10  1  0.74763000  0.73635700  0.16769300  1
  O  O11  1  0.74399200  0.75733100  0.99283500  1
  O  O12  1  0.72943400  0.53691100  0.58499000  1
  O  O13  1  0.72867000  0.03598100  0.75120500  1
  O  O14  1  0.74399200  0.24266900  0.00716500  1
  O  O15  1  0.75007400  0.25257600  0.16687100  1
  O  O16  1  0.74271400  0.25828000  0.50231000  1
  O  O17  1  0.75007200  0.75852500  0.33854300  1
  O  O18  1  0.74271400  0.74172000  0.49769000  1
  O  O19  1  0.74283700  0.75779800  0.66886900  1
  O  O20  1  0.74283700  0.24220200  0.33113100  1
  O  O21  1  0.74763000  0.26364300  0.83230700  1
  O  O22  1  0.75007200  0.24147500  0.66145700  1
  O  O23  1  0.75007400  0.74742400  0.83312900  1
  O  O24  1  0.25600800  0.75733100  0.99283500  1
  O  O25  1  0.25600800  0.24266900  0.00716500  1
  O  O26  1  0.22917500  0.03942700  0.91531800  1
  O  O27  1  0.22544100  0.53337700  0.08097500  1
  O  O28  1  0.24992800  0.75852500  0.33854300  1
  O  O29  1  0.25728600  0.25828000  0.50231000  1
  O  O30  1  0.24992600  0.25257600  0.16687100  1
  O  O31  1  0.27133000  0.96401900  0.24879500  1
  O  O32  1  0.27056600  0.46308900  0.41501000  1
  O  O33  1  0.25716300  0.24220200  0.33113100  1
  O  O34  1  0.25716300  0.75779800  0.66886900  1
  O  O35  1  0.25237000  0.26364300  0.83230700  1
  O  O36  1  0.25237000  0.73635700  0.16769300  1
  O  O37  1  0.25728600  0.74172000  0.49769000  1
  O  O38  1  0.27051700  0.96122300  0.58119300  1
  O  O39  1  0.24992800  0.24147500  0.66145700  1
  O  O40  1  0.24992600  0.74742400  0.83312900  1
  O  O41  1  0.22544100  0.46662300  0.91902500  1
  O  O42  1  0.22917500  0.96057300  0.08468200  1
  O  O43  1  0.27488400  0.46816200  0.74709400  1
  O  O44  1  0.27488400  0.53183800  0.25290600  1
  O  O45  1  0.27051700  0.03877700  0.41880700  1
  O  O46  1  0.27056600  0.53691100  0.58499000  1
  O  O47  1  0.27133000  0.03598100  0.75120500  1
loop_
_geom_bond_atom_site_label_1
_geom_bond_atom_site_label_2
_geom_bond_distance
_geom_bond_site_symmetry_2
O0 Pd15 2.044033 1_555
O0 Pd3 2.077314 1_555
O0 Pd33 2.114306 1_655
O0 Pd32 2.115956 1_655
O1 Pd17 2.068096 1_565
O1 Pd34 2.071419 1_655
O1 Pd4 2.100880 1_555
O1 Pd9 2.142634 1_555
O2 Pd35 2.065525 1_655
O2 Pd19 2.075943 1_555
O2 Pd5 2.078972 1_555
O2 Pd10 2.119842 1_555
O3 Pd24 2.044033 1_555
O3 Pd3 2.077314 1_556
O3 Pd0 2.114306 1_655
O3 Pd41 2.115956 1_655
O4 Pd1 2.066289 1_655
O4 Pd20 2.077028 1_565
O4 Pd6 2.085473 1_565
O4 Pd11 2.119859 1_555
O5 Pd37 2.044591 1_655
O5 Pd7 2.076972 1_555
O5 Pd22 2.115142 1_555
O5 Pd12 2.126936 1_555
O6 Pd36 2.071311 1_665
O6 Pd14 2.073791 1_555
O6 Pd4 2.103767 1_555
O6 Pd33 2.128093 1_655
O7 Pd38 2.044591 1_655
O7 Pd5 2.076972 1_555
O7 Pd16 2.115142 1_555
O7 Pd9 2.126936 1_555
O8 Pd31 2.071311 1_645
O8 Pd13 2.073791 1_555
O8 Pd8 2.103767 1_555
O8 Pd0 2.128093 1_655
O9 Pd39 2.066289 1_655
O9 Pd18 2.077028 1_545
O9 Pd6 2.085473 1_555
O9 Pd10 2.119859 1_555
O10 Pd4 2.020574 1_555
O10 Pd38 2.022717 1_655
O10 Pd15 2.026021 1_555
O10 Pd9 2.563745 1_555
O10 Pd33 2.609157 1_655
O11 Pd31 2.006033 1_655
O11 Pd3 2.011663 1_556
O11 Pd14 2.037130 1_556
O12 Pd40 2.065525 1_655
O12 Pd21 2.075943 1_555
O12 Pd7 2.078972 1_555
O12 Pd11 2.119842 1_555
O13 Pd23 2.068096 1_545
O13 Pd2 2.071419 1_655
O13 Pd8 2.100880 1_555
O13 Pd12 2.142634 1_555
O14 Pd36 2.006033 1_655
O14 Pd3 2.011663 1_555
O14 Pd13 2.037130 1_554
O15 Pd4 1.999498 1_545
O15 Pd32 2.024610 1_655
O15 Pd16 2.030276 1_555
O16 Pd21 2.008117 1_555
O16 Pd6 2.013219 1_555
O16 Pd35 2.033494 1_655
O16 Pd10 2.582741 1_555
O17 Pd18 2.012449 1_555
O17 Pd5 2.017572 1_555
O17 Pd34 2.036050 1_655
O17 Pd9 2.644794 1_555
O18 Pd19 2.008117 1_555
O18 Pd6 2.013219 1_565
O18 Pd40 2.033494 1_655
O18 Pd11 2.582741 1_555
O19 Pd23 2.006821 1_555
O19 Pd7 2.009284 1_555
O19 Pd1 2.032203 1_655
O19 Pd11 2.592605 1_555
O20 Pd17 2.006821 1_555
O20 Pd5 2.009284 1_555
O20 Pd39 2.032203 1_655
O20 Pd10 2.592605 1_555
O21 Pd8 2.020574 1_555
O21 Pd37 2.022717 1_655
O21 Pd24 2.026021 1_555
O21 Pd12 2.563745 1_555
O21 Pd0 2.609157 1_655
O22 Pd20 2.012449 1_555
O22 Pd7 2.017572 1_555
O22 Pd2 2.036050 1_655
O22 Pd12 2.644794 1_555
O23 Pd8 1.999498 1_565
O23 Pd41 2.024610 1_655
O23 Pd22 2.030276 1_555
O24 Pd31 2.006033 1_555
O24 Pd25 2.011663 1_556
O24 Pd14 2.037130 1_556
O25 Pd36 2.006033 1_555
O25 Pd25 2.011663 1_555
O25 Pd13 2.037130 1_554
O26 Pd31 2.071311 1_545
O26 Pd13 2.073791 1_555
O26 Pd30 2.103767 1_555
O26 Pd0 2.128093 1_555
O27 Pd15 2.044033 1_555
O27 Pd25 2.077314 1_555
O27 Pd33 2.114306 1_555
O27 Pd32 2.115956 1_555
O28 Pd18 2.012449 1_555
O28 Pd26 2.017572 1_555
O28 Pd34 2.036050 1_555
O28 Pd9 2.644794 1_555
O29 Pd21 2.008117 1_555
O29 Pd28 2.013219 1_555
O29 Pd35 2.033494 1_555
O29 Pd10 2.582741 1_555
O30 Pd27 1.999498 1_545
O30 Pd32 2.024610 1_555
O30 Pd16 2.030276 1_555
O31 Pd17 2.068096 1_565
O31 Pd34 2.071419 1_555
O31 Pd27 2.100880 1_555
O31 Pd9 2.142634 1_555
O32 Pd35 2.065525 1_555
O32 Pd19 2.075943 1_555
O32 Pd26 2.078972 1_555
O32 Pd10 2.119842 1_555
O33 Pd17 2.006821 1_555
O33 Pd26 2.009284 1_555
O33 Pd39 2.032203 1_555
O33 Pd10 2.592605 1_555
O34 Pd23 2.006821 1_555
O34 Pd29 2.009284 1_555
O34 Pd1 2.032203 1_555
O34 Pd11 2.592605 1_555
O35 Pd30 2.020574 1_555
O35 Pd37 2.022717 1_555
O35 Pd24 2.026021 1_555
O35 Pd12 2.563745 1_555
O35 Pd0 2.609157 1_555
O36 Pd27 2.020574 1_555
O36 Pd38 2.022717 1_555
O36 Pd15 2.026021 1_555
O36 Pd9 2.563745 1_555
O36 Pd33 2.609157 1_555
O37 Pd19 2.008117 1_555
O37 Pd28 2.013219 1_565
O37 Pd40 2.033494 1_555
O37 Pd11 2.582741 1_555
O38 Pd1 2.066289 1_555
O38 Pd20 2.077028 1_565
O38 Pd28 2.085473 1_565
O38 Pd11 2.119859 1_555
O39 Pd20 2.012449 1_555
O39 Pd29 2.017572 1_555
O39 Pd2 2.036050 1_555
O39 Pd12 2.644794 1_555
O40 Pd30 1.999498 1_565
O40 Pd41 2.024610 1_555
O40 Pd22 2.030276 1_555
O41 Pd24 2.044033 1_555
O41 Pd25 2.077314 1_556
O41 Pd0 2.114306 1_555
O41 Pd41 2.115956 1_555
O42 Pd36 2.071311 1_565
O42 Pd14 2.073791 1_555
O42 Pd27 2.103767 1_555
O42 Pd33 2.128093 1_555
O43 Pd37 2.044591 1_555
O43 Pd29 2.076972 1_555
O43 Pd22 2.115142 1_555
O43 Pd12 2.126936 1_555
O44 Pd38 2.044591 1_555
O44 Pd26 2.076972 1_555
O44 Pd16 2.115142 1_555
O44 Pd9 2.126936 1_555
O45 Pd39 2.066289 1_555
O45 Pd18 2.077028 1_545
O45 Pd28 2.085473 1_555
O45 Pd10 2.119859 1_555
O46 Pd40 2.065525 1_555
O46 Pd21 2.075943 1_555
O46 Pd29 2.078972 1_555
O46 Pd11 2.119842 1_555
O47 Pd23 2.068096 1_545
O47 Pd2 2.071419 1_555
O47 Pd30 2.100880 1_555
O47 Pd12 2.142634 1_555
