# generated using pymatgen
data_Na3CaFe4(SiO3)8
_symmetry_space_group_name_H-M   'P 1'
_cell_length_a   7.73260802
_cell_length_b   7.73260802
_cell_length_c   10.89162683
_cell_angle_alpha   63.33170456
_cell_angle_beta   63.33170456
_cell_angle_gamma   72.89000942
_symmetry_Int_Tables_number   1
_chemical_formula_structural   Na3CaFe4(SiO3)8
_chemical_formula_sum   'Na3 Ca1 Fe4 Si8 O24'
_cell_volume   516.53557939
_cell_formula_units_Z   1
loop_
 _symmetry_equiv_pos_site_id
 _symmetry_equiv_pos_as_xyz
  1  'x, y, z'
loop_
 _atom_site_type_symbol
 _atom_site_label
 _atom_site_symmetry_multiplicity
 _atom_site_fract_x
 _atom_site_fract_y
 _atom_site_fract_z
 _atom_site_occupancy
  Na  Na0  1  0.92207000  0.60535700  0.24439500  1
  Na  Na1  1  0.39464300  0.07793000  0.75560500  1
  Na  Na2  1  0.57853200  0.42146800  0.00000000  1
  Ca  Ca0  1  0.10658600  0.89341400  0.50000000  1
  Fe  Fe0  1  0.52958300  0.97657000  0.24265300  1
  Fe  Fe1  1  0.48770800  0.51229200  0.50000000  1
  Fe  Fe2  1  0.02343000  0.47041700  0.75734700  1
  Fe  Fe3  1  0.96016100  0.03983900  0.00000000  1
  Si  Si0  1  0.39449800  0.57471800  0.74717500  1
  Si  Si1  1  0.08829500  0.38540300  0.99901300  1
  Si  Si2  1  0.87165400  0.09737300  0.24623300  1
  Si  Si3  1  0.90262700  0.12834600  0.75376700  1
  Si  Si4  1  0.58084600  0.87846700  0.49786200  1
  Si  Si5  1  0.61459700  0.91170500  0.00098700  1
  Si  Si6  1  0.42528200  0.60550200  0.25282500  1
  Si  Si7  1  0.12153300  0.41915400  0.50213800  1
  O  O0  1  0.65990100  0.72068800  0.41668000  1
  O  O1  1  0.23946800  0.65129300  0.66161600  1
  O  O2  1  0.28627000  0.49999700  0.93098700  1
  O  O3  1  0.46512300  0.07861300  0.06205200  1
  O  O4  1  0.15145500  0.22953400  0.91640600  1
  O  O5  1  0.40200100  0.01168400  0.44152400  1
  O  O6  1  0.00598200  0.27717900  0.18449200  1
  O  O7  1  0.98747900  0.23543600  0.56792900  1
  O  O8  1  0.59558300  0.46534500  0.31492000  1
  O  O9  1  0.71796600  0.17333500  0.16114400  1
  O  O10  1  0.53465500  0.40441700  0.68508000  1
  O  O11  1  0.76456400  0.01252100  0.43207100  1
  O  O12  1  0.72282100  0.99401800  0.81550800  1
  O  O13  1  0.98831600  0.59799900  0.55847600  1
  O  O14  1  0.77046600  0.84854500  0.08359400  1
  O  O15  1  0.92138700  0.53487700  0.93794800  1
  O  O16  1  0.51201000  0.76897400  0.68203100  1
  O  O17  1  0.50000300  0.71373000  0.06901300  1
  O  O18  1  0.07571500  0.98892000  0.81362900  1
  O  O19  1  0.34870700  0.76053200  0.33838400  1
  O  O20  1  0.01108000  0.92428500  0.18637100  1
  O  O21  1  0.23102600  0.48799000  0.31796900  1
  O  O22  1  0.27931200  0.34009900  0.58332000  1
  O  O23  1  0.82666500  0.28203400  0.83885600  1
loop_
_geom_bond_atom_site_label_1
_geom_bond_atom_site_label_2
_geom_bond_distance
_geom_bond_site_symmetry_2
Na0 O0 2.334488 1_555
Na0 O14 2.359517 1_555
Na0 O20 2.482798 1_655
Na0 O21 2.638782 1_655
Na0 O8 2.693846 1_555
Na0 O6 2.724666 1_655
Na1 O22 2.334488 1_555
Na1 O4 2.359517 1_555
Na1 O18 2.482798 1_545
Na1 O16 2.638782 1_545
Na1 O10 2.693846 1_555
Na1 O12 2.724666 1_545
Na2 O9 2.320107 1_555
Na2 O23 2.320107 1_554
Na2 O2 2.519671 1_554
Na2 O17 2.519671 1_555
Na2 O3 2.735340 1_555
Na2 O15 2.735340 1_554
Ca0 O1 2.278789 1_555
Ca0 O19 2.278789 1_555
Ca0 O13 2.420867 1_455
Ca0 O5 2.420867 1_565
Ca0 O7 2.846350 1_465
Ca0 O11 2.846350 1_465
Fe0 O3 1.998934 1_565
Fe0 O9 2.038595 1_565
Fe0 O5 2.047148 1_565
Fe0 O19 2.082373 1_555
Fe0 O14 2.237998 1_555
Fe0 O0 2.387033 1_555
Fe1 O10 1.964801 1_555
Fe1 O8 1.964801 1_555
Fe1 O22 2.014538 1_555
Fe1 O0 2.014538 1_555
Fe1 O1 2.321576 1_555
Fe1 O19 2.321576 1_555
Fe2 O15 1.998934 1_455
Fe2 O23 2.038595 1_455
Fe2 O13 2.047148 1_455
Fe2 O1 2.082373 1_555
Fe2 O4 2.237998 1_555
Fe2 O22 2.387033 1_555
Fe3 O20 1.989008 1_645
Fe3 O18 1.989008 1_644
Fe3 O14 2.009369 1_545
Fe3 O4 2.009369 1_654
Fe3 O9 2.278515 1_555
Fe3 O23 2.278515 1_554
O0 Si4 1.639611 1_555
O1 Si0 1.657073 1_555
O2 Si0 1.668674 1_555
O2 Si1 1.693634 1_555
O3 Si5 1.626881 1_545
O4 Si1 1.653278 1_555
O5 Si4 1.645074 1_545
O6 Si1 1.681718 1_554
O6 Si2 1.687527 1_455
O7 Si3 1.684084 1_555
O7 Si7 1.700616 1_655
O8 Si6 1.633357 1_555
O9 Si2 1.644830 1_555
O10 Si0 1.633357 1_555
O11 Si2 1.684084 1_555
O11 Si4 1.700616 1_545
O12 Si5 1.681718 1_556
O12 Si3 1.687527 1_565
O13 Si7 1.645074 1_655
O14 Si5 1.653278 1_555
O15 Si1 1.626881 1_655
O16 Si4 1.675128 1_555
O16 Si0 1.689124 1_555
O17 Si6 1.668674 1_555
O17 Si5 1.693634 1_555
O18 Si3 1.637710 1_465
O19 Si6 1.657073 1_555
O20 Si2 1.637710 1_465
O21 Si7 1.675128 1_555
O21 Si6 1.689124 1_555
O22 Si7 1.639611 1_555
O23 Si3 1.644830 1_555
