# generated using pymatgen
data_Sc2Te3
_symmetry_space_group_name_H-M   'P 1'
_cell_length_a   7.18896647
_cell_length_b   7.18985404
_cell_length_c   13.84794188
_cell_angle_alpha   94.93155029
_cell_angle_beta   94.98729844
_cell_angle_gamma   119.98844991
_symmetry_Int_Tables_number   1
_chemical_formula_structural   Sc2Te3
_chemical_formula_sum   'Sc8 Te12'
_cell_volume   610.61105709
_cell_formula_units_Z   4
loop_
 _symmetry_equiv_pos_site_id
 _symmetry_equiv_pos_as_xyz
  1  'x, y, z'
loop_
 _atom_site_type_symbol
 _atom_site_label
 _atom_site_symmetry_multiplicity
 _atom_site_fract_x
 _atom_site_fract_y
 _atom_site_fract_z
 _atom_site_occupancy
  Sc  Sc0  1  0.00000000  0.00000000  0.00000000  1
  Sc  Sc1  1  0.67056525  0.33535142  -0.00005806  1
  Sc  Sc2  1  0.32943475  0.66464858  0.00005806  1
  Sc  Sc3  1  0.08251904  0.74949363  0.24641704  1
  Sc  Sc4  1  0.16977452  0.83615321  0.50885162  1
  Sc  Sc5  1  0.83022548  0.16384679  0.49114838  1
  Sc  Sc6  1  0.91748096  0.25050637  0.75358296  1
  Sc  Sc7  1  0.50000000  0.50000000  0.50000000  1
  Te  Te0  1  0.13111743  0.12101785  0.37599437  1
  Te  Te1  1  0.29037280  0.29157389  0.87610978  1
  Te  Te2  1  0.79680799  0.46907323  0.37583023  1
  Te  Te3  1  0.95853141  0.62419047  0.87431044  1
  Te  Te4  1  0.44899475  0.78632915  0.37590113  1
  Te  Te5  1  0.62611615  0.95967817  0.87616629  1
  Te  Te6  1  0.37388385  0.04032183  0.12383371  1
  Te  Te7  1  0.55100525  0.21367085  0.62409887  1
  Te  Te8  1  0.04146859  0.37580953  0.12568956  1
  Te  Te9  1  0.20319201  0.53092677  0.62416977  1
  Te  Te10  1  0.70962720  0.70842611  0.12389022  1
  Te  Te11  1  0.86888257  0.87898215  0.62400563  1
loop_
_geom_bond_atom_site_label_1
_geom_bond_atom_site_label_2
_geom_bond_distance
_geom_bond_site_symmetry_2
Sc0 Te10 2.926118 1_445
Sc0 Te1 2.926118 1_554
Sc0 Te5 2.929739 1_444
Sc0 Te6 2.929739 1_555
Sc0 Te3 2.952153 1_444
Sc0 Te8 2.952153 1_555
Sc1 Te8 2.925219 1_655
Sc1 Te3 2.928271 1_554
Sc1 Te5 2.929440 1_544
Sc1 Te10 2.931148 1_555
Sc1 Te6 2.954875 1_555
Sc1 Te1 2.956740 1_554
Sc2 Te3 2.925219 1_454
Sc2 Te8 2.928271 1_555
Sc2 Te6 2.929440 1_565
Sc2 Te1 2.931148 1_554
Sc2 Te5 2.954875 1_554
Sc2 Te10 2.956740 1_555
Sc3 Te8 2.906884 1_555
Sc3 Te10 2.912745 1_455
Sc3 Te6 2.914018 1_565
Sc3 Te0 2.934482 1_565
Sc3 Te2 2.935458 1_455
Sc3 Te4 2.936972 1_555
Sc4 Te7 2.912729 1_565
Sc4 Te9 2.913193 1_555
Sc4 Te11 2.915117 1_455
Sc4 Te2 2.962991 1_455
Sc4 Te0 2.963934 1_565
Sc4 Te4 2.965670 1_555
Sc5 Te4 2.912729 1_545
Sc5 Te2 2.913193 1_555
Sc5 Te0 2.915117 1_655
Sc5 Te9 2.962991 1_655
Sc5 Te11 2.963934 1_545
Sc5 Te7 2.965670 1_555
Sc6 Te3 2.906884 1_555
Sc6 Te1 2.912745 1_655
Sc6 Te5 2.914018 1_545
Sc6 Te11 2.934482 1_545
Sc6 Te9 2.935458 1_655
Sc6 Te7 2.936972 1_555
Sc7 Te7 2.929017 1_555
Sc7 Te4 2.929017 1_555
Sc7 Te0 2.930248 1_555
Sc7 Te11 2.930248 1_555
Sc7 Te9 2.933503 1_555
Sc7 Te2 2.933503 1_555
