# generated using pymatgen
data_Cd10As6HClO25
_symmetry_space_group_name_H-M   'P 1'
_cell_length_a   6.68989200
_cell_length_b   10.12346300
_cell_length_c   17.52876308
_cell_angle_alpha   89.99439096
_cell_angle_beta   90.00000000
_cell_angle_gamma   90.00000000
_symmetry_Int_Tables_number   1
_chemical_formula_structural   Cd10As6HClO25
_chemical_formula_sum   'Cd20 As12 H2 Cl2 O50'
_cell_volume   1187.13326793
_cell_formula_units_Z   2
loop_
 _symmetry_equiv_pos_site_id
 _symmetry_equiv_pos_as_xyz
  1  'x, y, z'
loop_
 _atom_site_type_symbol
 _atom_site_label
 _atom_site_symmetry_multiplicity
 _atom_site_fract_x
 _atom_site_fract_y
 _atom_site_fract_z
 _atom_site_occupancy
  Cd  Cd0  1  0.75006700  0.85186200  0.87540700  1
  Cd  Cd1  1  0.00033300  0.49839600  0.83309100  1
  Cd  Cd2  1  0.49954200  0.49843900  0.83306100  1
  Cd  Cd3  1  0.74664700  0.39688100  0.62720100  1
  Cd  Cd4  1  0.74661400  0.35883000  0.38566900  1
  Cd  Cd5  1  0.75002100  0.25870600  0.98697500  1
  Cd  Cd6  1  0.24666300  0.25617200  0.51206600  1
  Cd  Cd7  1  0.25005500  0.11045300  0.86313300  1
  Cd  Cd8  1  0.49969100  0.99838600  0.66642100  1
  Cd  Cd9  1  0.99991000  0.99846700  0.66639900  1
  Cd  Cd10  1  0.49991000  0.00153300  0.33360100  1
  Cd  Cd11  1  0.99969100  0.00161400  0.33357900  1
  Cd  Cd12  1  0.75005500  0.88954700  0.13686700  1
  Cd  Cd13  1  0.74666300  0.74382800  0.48793400  1
  Cd  Cd14  1  0.25002100  0.74129400  0.01302500  1
  Cd  Cd15  1  0.24661400  0.64117000  0.61433100  1
  Cd  Cd16  1  0.24664700  0.60311900  0.37279900  1
  Cd  Cd17  1  0.50033300  0.50160400  0.16690900  1
  Cd  Cd18  1  0.99954200  0.50156100  0.16693900  1
  Cd  Cd19  1  0.25006700  0.14813800  0.12459300  1
  As  As0  1  0.74850000  0.67524500  0.69792900  1
  As  As1  1  0.75001300  0.61190800  0.98752900  1
  As  As2  1  0.24846900  0.29052500  0.68658300  1
  As  As3  1  0.74993300  0.21387500  0.81008400  1
  As  As4  1  0.74989000  0.17783000  0.20195900  1
  As  As5  1  0.74832000  0.11188400  0.48900300  1
  As  As6  1  0.24832000  0.88811600  0.51099700  1
  As  As7  1  0.24989000  0.82217000  0.79804100  1
  As  As8  1  0.24993300  0.78612500  0.18991600  1
  As  As9  1  0.74846900  0.70947500  0.31341700  1
  As  As10  1  0.25001300  0.38809200  0.01247100  1
  As  As11  1  0.24850000  0.32475500  0.30207100  1
  H  H0  1  0.90765200  0.50021800  0.50000800  1
  H  H1  1  0.40765200  0.49978200  0.49999200  1
  Cl  Cl0  1  0.25009200  0.00028000  0.99999100  1
  Cl  Cl1  1  0.75009200  0.99972000  0.00000900  1
  O  O0  1  0.54778200  0.70132200  0.95520500  1
  O  O1  1  0.95225300  0.70127900  0.95518100  1
  O  O2  1  0.24998000  0.66214700  0.82901700  1
  O  O3  1  0.74977500  0.66054300  0.79750200  1
  O  O4  1  0.54612300  0.58365400  0.66703700  1
  O  O5  1  0.94955700  0.58260900  0.66669400  1
  O  O6  1  0.75000000  0.46879000  0.93112200  1
  O  O7  1  0.25007600  0.42505400  0.91750400  1
  O  O8  1  0.24957000  0.41215700  0.75389900  1
  O  O9  1  0.74957200  0.36907500  0.76600000  1
  O  O10  1  0.04673600  0.29061400  0.62505400  1
  O  O11  1  0.44896000  0.29058300  0.62439000  1
  O  O12  1  0.95268400  0.21766400  0.87118800  1
  O  O13  1  0.54737000  0.21750500  0.87127800  1
  O  O14  1  0.94950200  0.20541500  0.45783200  1
  O  O15  1  0.54614300  0.20472400  0.45819800  1
  O  O16  1  0.24961300  0.16313300  0.32954600  1
  O  O17  1  0.74950600  0.16580600  0.30162800  1
  O  O18  1  0.24973800  0.13359900  0.72877700  1
  O  O19  1  0.75002500  0.08690400  0.74589100  1
  O  O20  1  0.54805100  0.08357700  0.17323100  1
  O  O21  1  0.95203300  0.08369300  0.17340600  1
  O  O22  1  0.74946300  0.07552200  0.58414400  1
  O  O23  1  0.24927700  0.03027400  0.56770100  1
  O  O24  1  0.74927700  0.96972600  0.43229900  1
  O  O25  1  0.24946300  0.92447800  0.41585600  1
  O  O26  1  0.04805100  0.91642300  0.82676900  1
  O  O27  1  0.45203300  0.91630700  0.82659400  1
  O  O28  1  0.25002500  0.91309600  0.25410900  1
  O  O29  1  0.74973800  0.86640100  0.27122300  1
  O  O30  1  0.24950600  0.83419400  0.69837200  1
  O  O31  1  0.74961300  0.83686700  0.67045400  1
  O  O32  1  0.44950200  0.79458500  0.54216800  1
  O  O33  1  0.04614300  0.79527600  0.54180200  1
  O  O34  1  0.04737000  0.78249500  0.12872200  1
  O  O35  1  0.45268400  0.78233600  0.12881200  1
  O  O36  1  0.94896000  0.70941700  0.37561000  1
  O  O37  1  0.54673600  0.70938600  0.37494600  1
  O  O38  1  0.24957200  0.63092500  0.23400000  1
  O  O39  1  0.74957000  0.58784300  0.24610100  1
  O  O40  1  0.75007600  0.57494600  0.08249600  1
  O  O41  1  0.25000000  0.53121000  0.06887800  1
  O  O42  1  0.26079600  0.50018500  0.49996400  1
  O  O43  1  0.76079600  0.49981500  0.50003600  1
  O  O44  1  0.04612300  0.41634600  0.33296300  1
  O  O45  1  0.44955700  0.41739100  0.33330600  1
  O  O46  1  0.24977500  0.33945700  0.20249800  1
  O  O47  1  0.74998000  0.33785300  0.17098300  1
  O  O48  1  0.45225300  0.29872100  0.04481900  1
  O  O49  1  0.04778200  0.29867800  0.04479500  1
loop_
_geom_bond_atom_site_label_1
_geom_bond_atom_site_label_2
_geom_bond_distance
_geom_bond_site_symmetry_2
Cd0 O26 2.264484 1_655
Cd0 O27 2.265597 1_555
Cd0 O3 2.369929 1_555
Cd0 O1 2.471504 1_555
Cd0 O0 2.471836 1_555
Cd0 Cl1 2.647930 1_556
Cd1 O8 2.338691 1_555
Cd1 O7 2.351989 1_555
Cd1 O2 2.354232 1_555
Cd1 O6 2.418082 1_455
Cd1 O3 2.427574 1_455
Cd1 O9 2.431356 1_455
Cd2 O8 2.342050 1_555
Cd2 O7 2.351142 1_555
Cd2 O2 2.353506 1_555
Cd2 O6 2.419089 1_555
Cd2 O3 2.425644 1_555
Cd2 O9 2.427965 1_555
Cd3 O11 2.264174 1_555
Cd3 O10 2.277950 1_655
Cd3 O5 2.420193 1_555
Cd3 O4 2.421262 1_555
Cd3 O9 2.449256 1_555
Cd3 O43 2.462318 1_555
Cd4 O45 2.267840 1_555
Cd4 O44 2.281930 1_655
Cd4 O15 2.418351 1_555
Cd4 O14 2.419506 1_555
Cd4 O17 2.447337 1_555
Cd4 O43 2.462822 1_555
Cd5 O49 2.271355 1_656
Cd5 O48 2.271662 1_556
Cd5 O6 2.341214 1_555
Cd5 O13 2.474870 1_555
Cd5 O12 2.475936 1_555
Cd5 Cl1 2.631749 1_546
Cd6 O14 2.262722 1_455
Cd6 O15 2.275284 1_555
Cd6 O11 2.414457 1_555
Cd6 O10 2.415186 1_555
Cd6 O42 2.481130 1_555
Cd6 O23 2.486098 1_555
Cd7 O13 2.269591 1_555
Cd7 O12 2.270589 1_455
Cd7 O18 2.366701 1_555
Cd7 O26 2.468012 1_545
Cd7 O27 2.469646 1_545
Cd7 Cl0 2.645451 1_555
Cd8 O31 2.339669 1_555
Cd8 O22 2.341283 1_565
Cd8 O19 2.355500 1_565
Cd8 O18 2.421732 1_565
Cd8 O30 2.424392 1_555
Cd8 O23 2.430012 1_565
Cd9 O31 2.342047 1_555
Cd9 O22 2.343998 1_565
Cd9 O19 2.353281 1_565
Cd9 O18 2.420865 1_665
Cd9 O30 2.422325 1_655
Cd9 O23 2.424805 1_665
Cd10 O16 2.342047 1_555
Cd10 O25 2.343998 1_545
Cd10 O28 2.353281 1_545
Cd10 O29 2.420865 1_545
Cd10 O17 2.422325 1_555
Cd10 O24 2.424805 1_545
Cd11 O16 2.339669 1_655
Cd11 O25 2.341283 1_645
Cd11 O28 2.355500 1_645
Cd11 O29 2.421732 1_545
Cd11 O17 2.424392 1_555
Cd11 O24 2.430012 1_545
Cd12 O34 2.269591 1_655
Cd12 O35 2.270589 1_555
Cd12 O29 2.366701 1_555
Cd12 O20 2.468012 1_565
Cd12 O21 2.469646 1_565
Cd12 Cl1 2.645451 1_555
Cd13 O32 2.262722 1_555
Cd13 O33 2.275284 1_655
Cd13 O36 2.414457 1_555
Cd13 O37 2.415186 1_555
Cd13 O43 2.481130 1_555
Cd13 O24 2.486098 1_555
Cd14 O0 2.271355 1_554
Cd14 O1 2.271662 1_454
Cd14 O41 2.341214 1_555
Cd14 O34 2.474870 1_555
Cd14 O35 2.475936 1_555
Cd14 Cl0 2.631749 1_564
Cd15 O5 2.267840 1_455
Cd15 O4 2.281930 1_555
Cd15 O33 2.418351 1_555
Cd15 O32 2.419506 1_555
Cd15 O30 2.447337 1_555
Cd15 O42 2.462822 1_555
Cd16 O36 2.264174 1_455
Cd16 O37 2.277950 1_555
Cd16 O45 2.420193 1_555
Cd16 O44 2.421262 1_555
Cd16 O38 2.449256 1_555
Cd16 O42 2.462318 1_555
Cd17 O39 2.338691 1_555
Cd17 O40 2.351989 1_555
Cd17 O47 2.354232 1_555
Cd17 O41 2.418082 1_555
Cd17 O46 2.427574 1_555
Cd17 O38 2.431356 1_555
Cd18 O39 2.342050 1_555
Cd18 O40 2.351142 1_555
Cd18 O47 2.353506 1_555
Cd18 O41 2.419089 1_655
Cd18 O46 2.425644 1_655
Cd18 O38 2.427965 1_655
Cd19 O20 2.264484 1_555
Cd19 O21 2.265597 1_455
Cd19 O46 2.369929 1_555
Cd19 O48 2.471504 1_555
Cd19 O49 2.471836 1_555
Cd19 Cl0 2.647930 1_554
As0 O31 1.705552 1_555
As0 O4 1.728017 1_555
As0 O5 1.728725 1_555
As0 O3 1.751732 1_555
As1 O40 1.706155 1_556
As1 O1 1.723509 1_555
As1 O0 1.723552 1_555
As1 O6 1.754156 1_555
As2 O8 1.705535 1_555
As2 O10 1.727590 1_555
As2 O11 1.728424 1_555
As2 O18 1.752319 1_555
As3 O19 1.708400 1_555
As3 O13 1.728673 1_555
As3 O12 1.728716 1_555
As3 O9 1.750840 1_555
As4 O47 1.708509 1_555
As4 O20 1.728400 1_555
As4 O21 1.728451 1_555
As4 O17 1.751300 1_555
As5 O22 1.707829 1_555
As5 O15 1.733258 1_555
As5 O14 1.733894 1_555
As5 O24 1.749102 1_545
As6 O25 1.707829 1_555
As6 O33 1.733258 1_555
As6 O32 1.733894 1_555
As6 O23 1.749102 1_565
As7 O2 1.708509 1_555
As7 O26 1.728400 1_555
As7 O27 1.728451 1_555
As7 O30 1.751300 1_555
As8 O28 1.708400 1_555
As8 O34 1.728673 1_555
As8 O35 1.728716 1_555
As8 O38 1.750840 1_555
As9 O39 1.705535 1_555
As9 O37 1.727590 1_555
As9 O36 1.728424 1_555
As9 O29 1.752319 1_555
As10 O7 1.706155 1_554
As10 O48 1.723509 1_555
As10 O49 1.723552 1_555
As10 O41 1.754156 1_555
As11 O16 1.705552 1_555
As11 O44 1.728017 1_555
As11 O45 1.728725 1_555
As11 O46 1.751732 1_555
H0 O43 0.982459 1_555
H1 O42 0.982459 1_555
