# generated using pymatgen
data_RbBiC4(SN)4
_symmetry_space_group_name_H-M   'P 1'
_cell_length_a   6.54920900
_cell_length_b   7.73549000
_cell_length_c   11.29915600
_cell_angle_alpha   90.00000000
_cell_angle_beta   90.00000000
_cell_angle_gamma   90.00000000
_symmetry_Int_Tables_number   1
_chemical_formula_structural   RbBiC4(SN)4
_chemical_formula_sum   'Rb2 Bi2 C8 S8 N8'
_cell_volume   572.43039205
_cell_formula_units_Z   2
loop_
 _symmetry_equiv_pos_site_id
 _symmetry_equiv_pos_as_xyz
  1  'x, y, z'
loop_
 _atom_site_type_symbol
 _atom_site_label
 _atom_site_symmetry_multiplicity
 _atom_site_fract_x
 _atom_site_fract_y
 _atom_site_fract_z
 _atom_site_occupancy
  Rb  Rb0  1  0.68403000  0.00000000  0.50000000  1
  Rb  Rb1  1  0.31597000  0.50000000  0.00000000  1
  Bi  Bi0  1  0.92558000  0.00000000  0.00000000  1
  Bi  Bi1  1  0.07442000  0.50000000  0.50000000  1
  C  C0  1  0.56297800  0.53466800  0.63137600  1
  C  C1  1  0.11646100  0.79409700  0.74190200  1
  C  C2  1  0.56297800  0.46533200  0.36862400  1
  C  C3  1  0.43702200  0.03466800  0.86862400  1
  C  C4  1  0.11646100  0.20590300  0.25809800  1
  C  C5  1  0.43702200  0.96533200  0.13137600  1
  C  C6  1  0.88353900  0.70590300  0.24190200  1
  C  C7  1  0.88353900  0.29409700  0.75809800  1
  S  S0  1  0.37844000  0.39633900  0.66195000  1
  S  S1  1  0.17093200  0.16397500  0.39651100  1
  S  S2  1  0.17093200  0.83602500  0.60348900  1
  S  S3  1  0.62156000  0.89633900  0.83805000  1
  S  S4  1  0.82906800  0.33602500  0.89651100  1
  S  S5  1  0.82906800  0.66397500  0.10348900  1
  S  S6  1  0.37844000  0.60366100  0.33805000  1
  S  S7  1  0.62156000  0.10366100  0.16195000  1
  N  N0  1  0.92227300  0.73062800  0.34291800  1
  N  N1  1  0.69941500  0.37043500  0.38887300  1
  N  N2  1  0.69941500  0.62956500  0.61112700  1
  N  N3  1  0.30058500  0.12956500  0.88887300  1
  N  N4  1  0.92227300  0.26937200  0.65708200  1
  N  N5  1  0.07772700  0.23062800  0.15708200  1
  N  N6  1  0.07772700  0.76937200  0.84291800  1
  N  N7  1  0.30058500  0.87043500  0.11112700  1
loop_
_geom_bond_atom_site_label_1
_geom_bond_atom_site_label_2
_geom_bond_distance
_geom_bond_site_symmetry_2
Rb0 S1 3.625583 1_655
Rb0 S2 3.625583 1_645
Rb0 S1 3.777361 1_555
Rb0 S2 3.777361 1_545
Rb1 S5 3.625583 1_455
Rb1 S4 3.625583 1_454
Rb1 S5 3.777361 1_555
Rb1 S4 3.777361 1_554
Bi0 N5 2.706636 1_655
Bi0 N6 2.706636 1_644
Bi0 S7 2.820632 1_555
Bi0 S3 2.820632 1_544
Bi0 S5 2.919474 1_545
Bi0 S4 2.919474 1_554
Bi0 N3 2.934792 1_654
Bi0 N7 2.934792 1_645
Bi1 N0 2.706636 1_455
Bi1 N4 2.706636 1_455
Bi1 S6 2.820632 1_555
Bi1 S0 2.820632 1_555
Bi1 S1 2.919474 1_555
Bi1 S2 2.919474 1_555
Bi1 N1 2.934792 1_455
Bi1 N2 2.934792 1_455
C0 N2 1.178836 1_555
C0 S0 1.650756 1_555
C1 N6 1.184785 1_555
C1 S2 1.636581 1_555
C2 N1 1.178836 1_555
C2 S6 1.650756 1_555
C3 N3 1.178836 1_555
C3 S3 1.650756 1_545
C4 N5 1.184785 1_555
C4 S1 1.636581 1_555
C5 N7 1.178836 1_555
C5 S7 1.650756 1_565
C6 N0 1.184785 1_555
C6 S5 1.636581 1_555
C7 N4 1.184785 1_555
C7 S4 1.636581 1_555
N0 Rb0 3.150667 1_565
N1 Rb0 3.130153 1_555
N2 Rb0 3.130153 1_565
N3 Rb1 3.130153 1_556
N4 Rb0 3.150667 1_555
N5 Rb1 3.150667 1_555
N6 Rb1 3.150667 1_556
N7 Rb1 3.130153 1_555
