# generated using pymatgen
data_Li2Y5In9
_symmetry_space_group_name_H-M   'P 1'
_cell_length_a   10.16442848
_cell_length_b   10.16452667
_cell_length_c   15.18627698
_cell_angle_alpha   89.99998775
_cell_angle_beta   90.00295271
_cell_angle_gamma   89.99923818
_symmetry_Int_Tables_number   1
_chemical_formula_structural   Li2Y5In9
_chemical_formula_sum   'Li8 Y20 In36'
_cell_volume   1568.99456846
_cell_formula_units_Z   4
loop_
 _symmetry_equiv_pos_site_id
 _symmetry_equiv_pos_as_xyz
  1  'x, y, z'
loop_
 _atom_site_type_symbol
 _atom_site_label
 _atom_site_symmetry_multiplicity
 _atom_site_fract_x
 _atom_site_fract_y
 _atom_site_fract_z
 _atom_site_occupancy
  Li  Li0  1  0.49999759  0.50000361  0.90023764  1
  Li  Li1  1  0.00000709  0.00000063  0.40826567  1
  Li  Li2  1  0.50001183  0.49999882  0.40826776  1
  Li  Li3  1  0.00000169  0.00000394  0.59176849  1
  Li  Li4  1  0.50000791  0.49999957  0.59176972  1
  Li  Li5  1  0.00000238  -0.00000017  0.90025407  1
  Li  Li6  1  0.00000763  0.00000119  0.09973313  1
  Li  Li7  1  0.49999513  0.49999706  0.09971404  1
  Y  Y0  1  0.78168213  0.28168310  0.62683044  1
  Y  Y1  1  0.78431766  0.28431696  0.12718357  1
  Y  Y2  1  0.28167877  0.21831781  0.37320839  1
  Y  Y3  1  0.71568211  0.21567924  0.87276641  1
  Y  Y4  1  0.00000969  0.49998531  0.30309602  1
  Y  Y5  1  0.78431927  0.71567960  0.12718484  1
  Y  Y6  1  0.71832130  0.78168179  0.37321864  1
  Y  Y7  1  0.49999403  0.00000047  0.16891732  1
  Y  Y8  1  0.28431701  0.78431858  0.87277020  1
  Y  Y9  1  0.71832258  0.21831187  0.37321777  1
  Y  Y10  1  0.28431388  0.21568596  0.87276928  1
  Y  Y11  1  0.78168173  0.71831885  0.62683249  1
  Y  Y12  1  0.21568324  0.28432372  0.12719120  1
  Y  Y13  1  0.21831539  0.71831675  0.62682888  1
  Y  Y14  1  0.28168722  0.78168191  0.37321225  1
  Y  Y15  1  0.71567960  0.78432281  0.87276609  1
  Y  Y16  1  0.21831680  0.28168528  0.62682894  1
  Y  Y17  1  0.21568580  0.71567774  0.12718719  1
  Y  Y18  1  0.50000621  0.00000157  0.69684712  1
  Y  Y19  1  -0.00000259  0.50000197  0.83106688  1
  In  In0  1  0.77287963  0.50000340  0.47162187  1
  In  In1  1  0.30095861  0.50000545  0.26884703  1
  In  In2  1  0.49998112  0.00000636  0.38155367  1
  In  In3  1  -0.00002224  0.50002581  0.09177919  1
  In  In4  1  0.20726761  -0.00000710  0.23082070  1
  In  In5  1  0.49998410  0.77283130  0.52841514  1
  In  In6  1  0.49999818  0.25073191  0.02541311  1
  In  In7  1  -0.00000788  0.75073882  0.97453354  1
  In  In8  1  0.19911543  0.00000166  0.73116532  1
  In  In9  1  0.50001137  0.29273139  0.23082377  1
  In  In10  1  0.00000233  0.79274813  0.76918878  1
  In  In11  1  -0.00000628  0.19904075  0.26884144  1
  In  In12  1  0.80088422  0.00000071  0.73116637  1
  In  In13  1  -0.00000184  0.50000398  0.61858018  1
  In  In14  1  0.79272345  -0.00000990  0.23081170  1
  In  In15  1  0.50000508  0.74927311  0.02541455  1
  In  In16  1  0.00000628  0.72712196  0.47162367  1
  In  In17  1  -0.00000051  0.24926991  0.97453196  1
  In  In18  1  0.50000248  0.30087865  0.73116863  1
  In  In19  1  0.49996395  0.00001166  0.90814424  1
  In  In20  1  0.25072156  0.50000085  0.97452343  1
  In  In21  1  0.29275369  0.50000201  0.76917138  1
  In  In22  1  0.49998319  0.22716897  0.52841487  1
  In  In23  1  0.00000175  0.80091022  0.26885085  1
  In  In24  1  0.72716910  -0.00001379  0.52841493  1
  In  In25  1  0.27283077  -0.00000435  0.52841533  1
  In  In26  1  0.00000304  0.20725347  0.76918972  1
  In  In27  1  0.70724327  0.50000735  0.76918915  1
  In  In28  1  0.69909874  0.49999374  0.26885165  1
  In  In29  1  0.50002214  0.70726420  0.23082298  1
  In  In30  1  0.74926081  0.50000612  0.97453448  1
  In  In31  1  0.75072483  -0.00000152  0.02541353  1
  In  In32  1  0.24926826  0.00000026  0.02541568  1
  In  In33  1  0.50000392  0.69912326  0.73116901  1
  In  In34  1  0.22712107  0.50000531  0.47162231  1
  In  In35  1  0.00000570  0.27288003  0.47162139  1
loop_
_geom_bond_atom_site_label_1
_geom_bond_atom_site_label_2
_geom_bond_distance
_geom_bond_site_symmetry_2
In0 Li2 2.935633 1_555
In0 In28 3.169292 1_555
In0 In13 3.210839 1_655
In0 Y11 3.238528 1_555
In0 Y0 3.238537 1_555
In0 In35 3.264838 1_655
In0 In16 3.264851 1_655
In0 Y6 3.276899 1_555
In0 Y9 3.277033 1_555
In0 Li4 3.320008 1_555
In0 Y4 3.446792 1_655
In1 Li2 2.928486 1_555
In1 In9 2.977548 1_555
In1 In29 2.977553 1_555
In1 Y4 3.102902 1_555
In1 In34 3.169578 1_555
In1 Y17 3.191365 1_555
In1 Y12 3.191413 1_555
In1 Li7 3.269653 1_555
In1 Y14 3.278375 1_555
In1 Y2 3.278455 1_555
In2 Y2 3.140638 1_555
In2 Y14 3.140710 1_545
In2 Y9 3.140921 1_555
In2 Y6 3.141007 1_545
In2 In25 3.210217 1_555
In2 In22 3.210235 1_555
In2 In24 3.210322 1_555
In2 In5 3.210329 1_545
In2 Y7 3.229155 1_555
In3 Y5 3.146284 1_455
In3 Y17 3.146630 1_555
In3 Y1 3.146722 1_455
In3 Y12 3.146936 1_555
In3 Y4 3.209116 1_555
In4 Li6 2.898393 1_555
In4 Y7 3.120421 1_555
In4 Y14 3.189361 1_545
In4 Y2 3.189414 1_555
In4 Y17 3.291791 1_545
In4 Y12 3.291903 1_555
In4 Li1 3.420565 1_555
In5 Li4 2.935361 1_555
In5 Y14 3.238230 1_555
In5 Y6 3.238608 1_555
In5 Y13 3.276881 1_555
In5 Y11 3.277012 1_555
In5 Li2 3.319615 1_555
In5 Y18 3.445935 1_565
In6 Li7 2.773559 1_555
In6 In9 3.148500 1_555
In6 Li0 3.167552 1_554
In6 Y10 3.210320 1_554
In6 Y3 3.210513 1_554
In6 Y1 3.294920 1_555
In6 Y12 3.295073 1_555
In6 Y7 3.353284 1_555
In7 Li5 2.773388 1_565
In7 Li6 3.167697 1_566
In7 Y5 3.210501 1_456
In7 Y17 3.210503 1_556
In7 Y15 3.294828 1_455
In7 Y8 3.295052 1_555
In7 Y19 3.352956 1_555
In8 Li3 2.928649 1_555
In8 Y18 3.102496 1_555
In8 Y8 3.190681 1_545
In8 Y10 3.190688 1_555
In8 Li5 3.269607 1_555
In8 Y16 3.278189 1_555
In8 Y13 3.278196 1_545
In9 Li7 2.898755 1_555
In9 Y7 3.120460 1_555
In9 Y9 3.189323 1_555
In9 Y2 3.189533 1_555
In9 Y12 3.291801 1_555
In9 Y1 3.291804 1_555
In9 Li2 3.420524 1_555
In10 Li5 2.898189 1_565
In10 In12 2.977802 1_465
In10 In8 2.977856 1_565
In10 Y19 3.120478 1_555
In10 In7 3.147521 1_555
In10 Y11 3.189039 1_455
In10 Y13 3.189169 1_555
In10 Y8 3.291314 1_555
In10 Y15 3.291499 1_455
In10 Li3 3.420167 1_565
In11 Li1 2.928521 1_555
In11 In4 2.977505 1_555
In11 In14 2.977521 1_455
In11 Y4 3.102876 1_555
In11 In35 3.169616 1_555
In11 Y1 3.191322 1_455
In11 Y12 3.191525 1_555
In11 Li6 3.269309 1_555
In11 Y2 3.278372 1_555
In11 Y9 3.278452 1_455
In12 Li3 2.928837 1_655
In12 In26 2.977849 1_655
In12 Y18 3.102318 1_555
In12 In24 3.168857 1_555
In12 Y3 3.190662 1_555
In12 Y15 3.190676 1_545
In12 Li5 3.269463 1_655
In12 Y11 3.278146 1_545
In12 Y0 3.278161 1_555
In13 Y11 3.140716 1_455
In13 Y13 3.140737 1_555
In13 Y16 3.140748 1_555
In13 Y0 3.140797 1_455
In13 In16 3.210914 1_555
In13 In35 3.210983 1_555
In13 In34 3.211032 1_555
In13 Y19 3.226882 1_555
In14 Li6 2.898627 1_655
In14 In23 2.977770 1_645
In14 Y7 3.120317 1_555
In14 In31 3.148288 1_555
In14 Y6 3.189525 1_545
In14 Y9 3.189595 1_555
In14 Y5 3.291695 1_545
In14 Y1 3.291849 1_555
In14 Li1 3.420647 1_655
In15 Li7 2.773651 1_555
In15 In29 3.148479 1_555
In15 Li0 3.167548 1_554
In15 Y8 3.210345 1_554
In15 Y15 3.210470 1_554
In15 Y5 3.294873 1_555
In15 Y17 3.295085 1_555
In15 Y7 3.353239 1_565
In16 Li1 2.935828 1_565
In16 In23 3.169387 1_555
In16 Y13 3.238328 1_555
In16 Y11 3.238643 1_455
In16 In34 3.264708 1_555
In16 Y6 3.276895 1_455
In16 Y14 3.277051 1_555
In16 Li3 3.320014 1_565
In16 Y4 3.446784 1_555
In17 Li5 2.773462 1_555
In17 In26 3.147493 1_555
In17 Li6 3.167762 1_556
In17 Y12 3.210494 1_556
In17 Y1 3.210546 1_456
In17 Y3 3.294873 1_455
In17 Y10 3.294950 1_555
In17 Y19 3.352903 1_555
In18 Li4 2.928811 1_555
In18 In21 2.977793 1_555
In18 In27 2.977821 1_555
In18 Y18 3.102370 1_555
In18 In22 3.168918 1_555
In18 Y3 3.190520 1_555
In18 Y10 3.190762 1_555
In18 Li0 3.269377 1_555
In18 Y16 3.278126 1_555
In18 Y0 3.278201 1_555
In19 Y10 3.146251 1_555
In19 Y8 3.146400 1_545
In19 Y3 3.146772 1_555
In19 Y15 3.146866 1_545
In19 Y18 3.208817 1_555
In20 Li0 2.773597 1_555
In20 In21 3.147684 1_555
In20 Li7 3.167608 1_556
In20 Y17 3.210578 1_556
In20 Y12 3.210633 1_556
In20 Y10 3.294866 1_555
In20 Y8 3.294895 1_555
In20 Y19 3.352654 1_555
In21 Li0 2.898052 1_555
In21 In33 2.977826 1_555
In21 Y19 3.120675 1_555
In21 Y13 3.188928 1_555
In21 Y16 3.188952 1_555
In21 Y10 3.291548 1_555
In21 Y8 3.291557 1_555
In21 Li4 3.420008 1_555
In22 Li4 2.935352 1_555
In22 Y2 3.238324 1_555
In22 Y9 3.238631 1_555
In22 In25 3.265429 1_555
In22 In24 3.265695 1_555
In22 Y16 3.276853 1_555
In22 Y0 3.277027 1_555
In22 Li2 3.319590 1_555
In22 Y18 3.445917 1_555
In23 Li1 2.928772 1_565
In23 In4 2.977754 1_565
In23 Y4 3.102655 1_555
In23 Y5 3.191341 1_455
In23 Y17 3.191469 1_555
In23 Li6 3.269744 1_565
In23 Y14 3.278301 1_555
In23 Y6 3.278450 1_455
In24 Li3 2.935292 1_655
In24 Y6 3.238305 1_545
In24 Y9 3.238460 1_555
In24 In5 3.265531 1_545
In24 Y11 3.276822 1_545
In24 Y0 3.277084 1_555
In24 Li1 3.319734 1_655
In24 Y18 3.445960 1_555
In25 Li3 2.935350 1_555
In25 In8 3.168911 1_555
In25 Y14 3.238453 1_545
In25 Y2 3.238553 1_555
In25 In5 3.265328 1_545
In25 Y13 3.276940 1_545
In25 Y16 3.277021 1_555
In25 Li1 3.319458 1_555
In25 Y18 3.445864 1_555
In26 Li5 2.898193 1_555
In26 In8 2.977803 1_555
In26 Y19 3.120497 1_555
In26 Y0 3.189059 1_455
In26 Y16 3.189198 1_555
In26 Y10 3.291269 1_555
In26 Y3 3.291477 1_455
In26 Li3 3.420140 1_555
In27 Li0 2.898028 1_555
In27 In33 2.977683 1_555
In27 Y19 3.120480 1_655
In27 In30 3.147519 1_555
In27 Y11 3.189118 1_555
In27 Y0 3.189217 1_555
In27 Y15 3.291386 1_555
In27 Y3 3.291499 1_555
In27 Li4 3.419931 1_555
In28 Li2 2.928823 1_555
In28 In29 2.977662 1_555
In28 In9 2.977714 1_555
In28 Y4 3.102457 1_655
In28 Y1 3.191393 1_555
In28 Y5 3.191463 1_555
In28 Li7 3.269967 1_555
In28 Y9 3.278391 1_555
In28 Y6 3.278456 1_555
In29 Li7 2.898758 1_555
In29 Y7 3.120508 1_565
In29 Y6 3.189265 1_555
In29 Y14 3.189593 1_555
In29 Y5 3.291710 1_555
In29 Y17 3.291897 1_555
In29 Li2 3.420520 1_555
In30 Li0 2.773440 1_555
In30 Li7 3.167600 1_556
In30 Y5 3.210413 1_556
In30 Y1 3.210499 1_556
In30 Y15 3.294954 1_555
In30 Y3 3.295049 1_555
In30 Y19 3.353030 1_655
In31 Li6 2.773763 1_655
In31 Li5 3.167513 1_654
In31 Y15 3.210382 1_544
In31 Y3 3.210403 1_554
In31 Y1 3.295003 1_555
In31 Y5 3.295008 1_545
In31 Y7 3.353342 1_555
In32 Li6 2.773650 1_555
In32 In4 3.148437 1_555
In32 Li5 3.167281 1_554
In32 Y8 3.210426 1_544
In32 Y10 3.210466 1_554
In32 Y17 3.295054 1_545
In32 Y12 3.295086 1_555
In32 Y7 3.353111 1_555
In33 Li4 2.928835 1_555
In33 Y18 3.102383 1_565
In33 In5 3.168915 1_555
In33 Y15 3.190502 1_555
In33 Y8 3.190747 1_555
In33 Li0 3.269339 1_555
In33 Y13 3.278150 1_555
In33 Y11 3.278177 1_555
In34 Li2 2.935949 1_555
In34 Y13 3.238461 1_555
In34 Y16 3.238522 1_555
In34 In35 3.264818 1_555
In34 Y14 3.276983 1_555
In34 Y2 3.277080 1_555
In34 Li4 3.319976 1_555
In34 Y4 3.446493 1_555
In35 Li1 2.935825 1_555
In35 Y16 3.238370 1_555
In35 Y0 3.238637 1_455
In35 Y9 3.276896 1_455
In35 Y2 3.276984 1_555
In35 Li3 3.319983 1_555
In35 Y4 3.446544 1_555
