# generated using pymatgen
data_Cr4Cu3Te8
_symmetry_space_group_name_H-M   'P 1'
_cell_length_a   8.01226567
_cell_length_b   8.01226567
_cell_length_c   8.01226567
_cell_angle_alpha   120.04246811
_cell_angle_beta   119.87405034
_cell_angle_gamma   90.07237416
_symmetry_Int_Tables_number   1
_chemical_formula_structural   Cr4Cu3Te8
_chemical_formula_sum   'Cr4 Cu3 Te8'
_cell_volume   363.93463933
_cell_formula_units_Z   1
loop_
 _symmetry_equiv_pos_site_id
 _symmetry_equiv_pos_as_xyz
  1  'x, y, z'
loop_
 _atom_site_type_symbol
 _atom_site_label
 _atom_site_symmetry_multiplicity
 _atom_site_fract_x
 _atom_site_fract_y
 _atom_site_fract_z
 _atom_site_occupancy
  Cr  Cr0  1  0.75502000  0.51163000  0.75660900  1
  Cr  Cr1  1  0.76089100  0.50377500  0.25711600  1
  Cr  Cr2  1  0.24665900  0.50377500  0.74288400  1
  Cr  Cr3  1  0.75502000  0.99841100  0.24339100  1
  Cu  Cu0  1  0.37512200  0.87512200  0.50000000  1
  Cu  Cu1  1  0.61074200  0.11074200  0.50000000  1
  Cu  Cu2  1  0.12435700  0.12435700  0.00000000  1
  Te  Te0  1  0.97863700  0.74318500  0.23545100  1
  Te  Te1  1  0.50141200  0.72521500  0.22380200  1
  Te  Te2  1  0.50773400  0.74318500  0.76454900  1
  Te  Te3  1  0.50141200  0.27761000  0.77619800  1
  Te  Te4  1  0.99341400  0.72894400  0.73553000  1
  Te  Te5  1  0.99341400  0.25788400  0.26447000  1
  Te  Te6  1  0.00539700  0.26198300  0.74341400  1
  Te  Te7  1  0.51856900  0.26198300  0.25658600  1
loop_
_geom_bond_atom_site_label_1
_geom_bond_atom_site_label_2
_geom_bond_distance
_geom_bond_site_symmetry_2
Cr0 Cu1 2.625089 1_555
Cr0 Te4 2.704815 1_555
Cr0 Te2 2.718165 1_555
Cr0 Te0 2.718170 1_556
Cr0 Te7 2.836575 1_555
Cr0 Te6 2.836581 1_655
Cr0 Te3 2.876116 1_555
Cr1 Te5 2.715142 1_555
Cr1 Te4 2.715142 1_555
Cr1 Te0 2.716632 1_555
Cr1 Te3 2.733518 1_554
Cr1 Te1 2.733524 1_555
Cr1 Te7 2.738031 1_555
Cr2 Te5 2.715142 1_455
Cr2 Te4 2.715142 1_455
Cr2 Te2 2.716627 1_555
Cr2 Te1 2.733518 1_556
Cr2 Te3 2.733518 1_555
Cr2 Te6 2.738031 1_555
Cr3 Cu1 2.625082 1_565
Cr3 Te5 2.704820 1_565
Cr3 Te2 2.718170 1_554
Cr3 Te0 2.718175 1_555
Cr3 Te6 2.836575 1_665
Cr3 Te7 2.836575 1_565
Cr3 Te1 2.876105 1_555
Cu0 Te0 2.596556 1_455
Cu0 Te2 2.596562 1_555
Cu0 Te1 2.633653 1_555
Cu0 Te3 2.633653 1_565
Cu0 Cu1 2.668136 1_565
Cu1 Te1 2.534497 1_545
Cu1 Te3 2.534503 1_555
Cu1 Te7 2.598322 1_555
Cu1 Te6 2.598322 1_655
Cu2 Te6 2.582899 1_554
Cu2 Te7 2.582899 1_555
Cu2 Te4 2.585163 1_444
Cu2 Te5 2.585163 1_455
