# generated using pymatgen
data_Ho4Si2S3O7
_symmetry_space_group_name_H-M   'P 1'
_cell_length_a   10.71719846
_cell_length_b   10.71719846
_cell_length_c   10.71719846
_cell_angle_alpha   113.83847925
_cell_angle_beta   113.83847925
_cell_angle_gamma   101.05088037
_symmetry_Int_Tables_number   1
_chemical_formula_structural   Ho4Si2S3O7
_chemical_formula_sum   'Ho16 Si8 S12 O28'
_cell_volume   932.56732517
_cell_formula_units_Z   4
loop_
 _symmetry_equiv_pos_site_id
 _symmetry_equiv_pos_as_xyz
  1  'x, y, z'
loop_
 _atom_site_type_symbol
 _atom_site_label
 _atom_site_symmetry_multiplicity
 _atom_site_fract_x
 _atom_site_fract_y
 _atom_site_fract_z
 _atom_site_occupancy
  Ho  Ho0  1  0.42231500  0.92231500  0.84463000  1
  Ho  Ho1  1  0.67231500  0.32768500  0.00000000  1
  Ho  Ho2  1  0.32768500  0.67231500  0.00000000  1
  Ho  Ho3  1  0.07768500  0.57768500  0.15537000  1
  Ho  Ho4  1  0.32768500  0.32768500  0.65537000  1
  Ho  Ho5  1  0.07768500  0.92231500  0.50000000  1
  Ho  Ho6  1  0.42231500  0.57768500  0.50000000  1
  Ho  Ho7  1  0.67231500  0.67231500  0.34463000  1
  Ho  Ho8  1  0.71631700  0.98076600  0.26444900  1
  Ho  Ho9  1  0.71631700  0.45186700  0.73555100  1
  Ho  Ho10  1  0.01923400  0.28368300  0.73555100  1
  Ho  Ho11  1  0.20186700  0.96631700  0.23555100  1
  Ho  Ho12  1  0.73076600  0.96631700  0.76444900  1
  Ho  Ho13  1  0.03368300  0.79813300  0.76444900  1
  Ho  Ho14  1  0.03368300  0.26923400  0.23555100  1
  Ho  Ho15  1  0.54813300  0.28368300  0.26444900  1
  Si  Si0  1  0.47073000  0.84562100  0.37489100  1
  Si  Si1  1  0.47073000  0.09583900  0.62510900  1
  Si  Si2  1  0.15437900  0.52927000  0.62510900  1
  Si  Si3  1  0.84583900  0.72073000  0.12510900  1
  Si  Si4  1  0.59562100  0.72073000  0.87489100  1
  Si  Si5  1  0.27927000  0.15416100  0.87489100  1
  Si  Si6  1  0.27927000  0.40437900  0.12510900  1
  Si  Si7  1  0.90416100  0.52927000  0.37489100  1
  S  S0  1  0.37500000  0.97908300  0.10408300  1
  S  S1  1  0.72908300  0.12500000  0.10408300  1
  S  S2  1  0.02091700  0.62500000  0.89591700  1
  S  S3  1  0.87500000  0.27091700  0.89591700  1
  S  S4  1  0.37500000  0.27091700  0.39591700  1
  S  S5  1  0.02091700  0.12500000  0.39591700  1
  S  S6  1  0.72908300  0.62500000  0.60408300  1
  S  S7  1  0.87500000  0.97908300  0.60408300  1
  S  S8  1  0.00000000  0.00000000  0.00000000  1
  S  S9  1  0.75000000  0.25000000  0.50000000  1
  S  S10  1  0.25000000  0.75000000  0.50000000  1
  S  S11  1  0.50000000  0.50000000  0.00000000  1
  O  O0  1  0.54900800  0.81586800  0.26686000  1
  O  O1  1  0.54900800  0.28214700  0.73314000  1
  O  O2  1  0.18413200  0.45099200  0.73314000  1
  O  O3  1  0.03214700  0.79900800  0.23314000  1
  O  O4  1  0.56586800  0.79900800  0.76686000  1
  O  O5  1  0.20099200  0.96785300  0.76686000  1
  O  O6  1  0.20099200  0.43413200  0.23314000  1
  O  O7  1  0.71785300  0.45099200  0.26686000  1
  O  O8  1  0.52456700  0.02456700  0.50000000  1
  O  O9  1  0.77456700  0.77456700  0.00000000  1
  O  O10  1  0.22543300  0.22543300  0.00000000  1
  O  O11  1  0.97543300  0.47543300  0.50000000  1
  O  O12  1  0.20976500  0.47498600  0.01742200  1
  O  O13  1  0.45756400  0.19234300  0.98257800  1
  O  O14  1  0.52501400  0.79023500  0.98257800  1
  O  O15  1  0.94234300  0.45976500  0.23477900  1
  O  O16  1  0.22498600  0.70756400  0.76522100  1
  O  O17  1  0.54023500  0.05765700  0.76522100  1
  O  O18  1  0.29243600  0.77501400  0.23477900  1
  O  O19  1  0.80765700  0.54243600  0.01742200  1
  O  O20  1  0.54023500  0.77501400  0.48257800  1
  O  O21  1  0.29243600  0.05765700  0.51742200  1
  O  O22  1  0.22498600  0.45976500  0.51742200  1
  O  O23  1  0.80765700  0.79023500  0.26522100  1
  O  O24  1  0.52501400  0.54243600  0.73477900  1
  O  O25  1  0.20976500  0.19234300  0.73477900  1
  O  O26  1  0.45756400  0.47498600  0.26522100  1
  O  O27  1  0.94234300  0.70756400  0.48257800  1
loop_
_geom_bond_atom_site_label_1
_geom_bond_atom_site_label_2
_geom_bond_distance
_geom_bond_site_symmetry_2
Ho0 O16 2.364265 1_555
Ho0 O17 2.364265 1_565
Ho0 O4 2.394494 1_555
Ho0 O5 2.394500 1_555
Ho0 O13 2.524762 1_565
Ho0 O14 2.524762 1_555
Ho0 S10 2.851014 1_555
Ho0 S1 2.872217 1_566
Ho0 S0 2.872217 1_556
Ho1 O19 2.364265 1_555
Ho1 O13 2.364265 1_554
Ho1 O7 2.394490 1_555
Ho1 O1 2.394490 1_554
Ho1 O15 2.524762 1_555
Ho1 O17 2.524762 1_554
Ho1 S11 2.851014 1_555
Ho1 S1 2.872217 1_555
Ho1 S3 2.872217 1_554
Ho2 O14 2.364265 1_554
Ho2 O12 2.364265 1_555
Ho2 O0 2.394494 1_555
Ho2 O2 2.394494 1_554
Ho2 O18 2.524762 1_555
Ho2 O16 2.524762 1_554
Ho2 S11 2.851014 1_555
Ho2 S0 2.872217 1_555
Ho2 S2 2.872217 1_554
Ho3 O15 2.364265 1_455
Ho3 O18 2.364265 1_555
Ho3 O6 2.394494 1_555
Ho3 O3 2.394500 1_555
Ho3 O19 2.524762 1_455
Ho3 O12 2.524762 1_555
Ho3 S10 2.851014 1_555
Ho3 S2 2.872217 1_554
Ho3 S3 2.872217 1_454
Ho4 O24 2.364265 1_555
Ho4 O25 2.364265 1_555
Ho4 O2 2.394494 1_555
Ho4 O1 2.394500 1_555
Ho4 O21 2.524762 1_555
Ho4 O22 2.524762 1_555
Ho4 S11 2.851014 1_556
Ho4 S5 2.872217 1_555
Ho4 S4 2.872217 1_555
Ho5 O27 2.364265 1_455
Ho5 O21 2.364265 1_565
Ho5 O5 2.394490 1_555
Ho5 O3 2.394490 1_555
Ho5 O23 2.524762 1_455
Ho5 O25 2.524762 1_565
Ho5 S10 2.851014 1_555
Ho5 S7 2.872217 1_455
Ho5 S5 2.872217 1_565
Ho6 O22 2.364265 1_555
Ho6 O20 2.364265 1_555
Ho6 O4 2.394494 1_555
Ho6 O6 2.394494 1_555
Ho6 O26 2.524762 1_555
Ho6 O24 2.524762 1_555
Ho6 S10 2.851014 1_555
Ho6 S6 2.872217 1_555
Ho6 S4 2.872217 1_555
Ho7 O23 2.364265 1_555
Ho7 O26 2.364265 1_555
Ho7 O0 2.394494 1_555
Ho7 O7 2.394500 1_555
Ho7 O27 2.524762 1_555
Ho7 O20 2.524762 1_555
Ho7 S11 2.851014 1_555
Ho7 S6 2.872217 1_555
Ho7 S7 2.872217 1_555
Ho8 O0 2.280029 1_555
Ho8 O23 2.429266 1_555
Ho8 O14 2.429266 1_554
Ho8 S5 2.760157 1_665
Ho8 S1 2.760157 1_565
Ho8 S9 2.793751 1_565
Ho8 S7 3.347047 1_555
Ho8 S0 3.347047 1_555
Ho9 O1 2.280029 1_555
Ho9 O19 2.429264 1_556
Ho9 O24 2.429272 1_555
Ho9 S2 2.760159 1_655
Ho9 S6 2.760166 1_555
Ho9 S9 2.793747 1_555
Ho9 S3 3.347037 1_555
Ho9 S4 3.347048 1_555
Ho10 O2 2.280029 1_555
Ho10 O25 2.429266 1_555
Ho10 O12 2.429266 1_556
Ho10 S3 2.760157 1_455
Ho10 S7 2.760157 1_445
Ho10 S9 2.793751 1_455
Ho10 S5 3.347047 1_555
Ho10 S2 3.347047 1_555
Ho11 O3 2.280029 1_555
Ho11 O21 2.429264 1_565
Ho11 O18 2.429272 1_555
Ho11 S4 2.760159 1_565
Ho11 S0 2.760166 1_555
Ho11 S8 2.793747 1_565
Ho11 S5 3.347037 1_565
Ho11 S2 3.347048 1_554
Ho12 O4 2.280029 1_555
Ho12 O17 2.429266 1_565
Ho12 O20 2.429266 1_555
Ho12 S3 2.760157 1_565
Ho12 S7 2.760157 1_555
Ho12 S8 2.793751 1_666
Ho12 S6 3.347047 1_555
Ho12 S1 3.347047 1_566
Ho13 O5 2.280029 1_555
Ho13 O27 2.429264 1_455
Ho13 O16 2.429272 1_555
Ho13 S6 2.760159 1_455
Ho13 S2 2.760166 1_555
Ho13 S8 2.793747 1_566
Ho13 S7 3.347037 1_455
Ho13 S0 3.347048 1_556
Ho14 O6 2.280029 1_555
Ho14 O22 2.429266 1_555
Ho14 O15 2.429266 1_455
Ho14 S5 2.760157 1_555
Ho14 S1 2.760157 1_455
Ho14 S8 2.793751 1_555
Ho14 S3 3.347047 1_454
Ho14 S4 3.347047 1_555
Ho15 O7 2.280029 1_555
Ho15 O13 2.429264 1_554
Ho15 O26 2.429272 1_555
Ho15 S0 2.760159 1_545
Ho15 S4 2.760166 1_555
Ho15 S9 2.793747 1_555
Ho15 S1 3.347037 1_555
Ho15 S6 3.347048 1_555
O0 Si0 1.653841 1_555
O1 Si1 1.653833 1_555
O2 Si2 1.653841 1_555
O3 Si3 1.653833 1_455
O4 Si4 1.653841 1_555
O5 Si5 1.653833 1_565
O6 Si6 1.653841 1_555
O7 Si7 1.653833 1_555
O8 Si1 1.637250 1_555
O8 Si0 1.637250 1_545
O9 Si3 1.637250 1_555
O9 Si4 1.637250 1_554
O10 Si6 1.637250 1_555
O10 Si5 1.637250 1_554
O11 Si7 1.637250 1_555
O11 Si2 1.637250 1_655
O12 Si6 1.639068 1_555
O13 Si5 1.639068 1_555
O14 Si4 1.639068 1_555
O15 Si7 1.639068 1_555
O16 Si2 1.639068 1_555
O17 Si1 1.639068 1_555
O18 Si0 1.639068 1_555
O19 Si3 1.639068 1_555
O20 Si0 1.639068 1_555
O21 Si1 1.639068 1_555
O22 Si2 1.639068 1_555
O23 Si3 1.639068 1_555
O24 Si4 1.639068 1_555
O25 Si5 1.639068 1_555
O26 Si6 1.639068 1_555
O27 Si7 1.639068 1_555
