# generated using pymatgen
data_Ag(CO)2
_symmetry_space_group_name_H-M   'P 1'
_cell_length_a   10.78638861
_cell_length_b   10.78638861
_cell_length_c   7.63557949
_cell_angle_alpha   77.20002921
_cell_angle_beta   77.20002921
_cell_angle_gamma   39.04362404
_symmetry_Int_Tables_number   1
_chemical_formula_structural   Ag(CO)2
_chemical_formula_sum   'Ag8 C16 O16'
_cell_volume   543.91570516
_cell_formula_units_Z   8
loop_
 _symmetry_equiv_pos_site_id
 _symmetry_equiv_pos_as_xyz
  1  'x, y, z'
loop_
 _atom_site_type_symbol
 _atom_site_label
 _atom_site_symmetry_multiplicity
 _atom_site_fract_x
 _atom_site_fract_y
 _atom_site_fract_z
 _atom_site_occupancy
  Ag  Ag0  1  0.07744400  0.09567500  0.05609000  1
  Ag  Ag1  1  0.92121200  0.91058300  0.44124300  1
  Ag  Ag2  1  0.90432500  0.92255600  0.94391000  1
  Ag  Ag3  1  0.08941700  0.07878800  0.55875700  1
  Ag  Ag4  1  0.53397800  0.15438200  0.18840800  1
  Ag  Ag5  1  0.14913700  0.53938200  0.68993500  1
  Ag  Ag6  1  0.84561800  0.46602200  0.81159200  1
  Ag  Ag7  1  0.46061800  0.85086300  0.31006500  1
  C  C0  1  0.38866900  0.01910900  0.77166900  1
  C  C1  1  0.45868100  0.44568600  0.83602500  1
  C  C2  1  0.60746800  0.99116900  0.73025600  1
  C  C3  1  0.44510300  0.45975700  0.33544400  1
  C  C4  1  0.00883100  0.39253200  0.26974400  1
  C  C5  1  0.50439800  0.00515800  0.61235900  1
  C  C6  1  0.63320600  0.35556500  0.22934300  1
  C  C7  1  0.35478100  0.63331100  0.72902900  1
  C  C8  1  0.98089100  0.61133100  0.22833100  1
  C  C9  1  0.64443500  0.36679400  0.77065700  1
  C  C10  1  0.00005600  0.50844700  0.11388900  1
  C  C11  1  0.54024300  0.55489700  0.66455600  1
  C  C12  1  0.55431400  0.54131900  0.16397500  1
  C  C13  1  0.49155300  0.99994400  0.88611100  1
  C  C14  1  0.99484200  0.49560200  0.38764100  1
  C  C15  1  0.36668900  0.64521900  0.27097100  1
  O  O0  1  0.25344200  0.04067500  0.79269500  1
  O  O1  1  0.82740900  0.20355000  0.80073400  1
  O  O2  1  0.99896300  0.51346300  0.94760600  1
  O  O3  1  0.51209500  0.00263100  0.44637700  1
  O  O4  1  0.40053000  0.38493800  0.93425200  1
  O  O5  1  0.17511200  0.79546900  0.70406300  1
  O  O6  1  0.48653700  0.00103700  0.05239400  1
  O  O7  1  0.79645000  0.17259100  0.19926600  1
  O  O8  1  0.99736900  0.48790500  0.55362300  1
  O  O9  1  0.95932500  0.74655800  0.20730500  1
  O  O10  1  0.60078300  0.61442100  0.56412900  1
  O  O11  1  0.03406100  0.25840100  0.29509100  1
  O  O12  1  0.20453100  0.82488800  0.29593700  1
  O  O13  1  0.38557900  0.39921700  0.43587100  1
  O  O14  1  0.74159900  0.96593900  0.70490900  1
  O  O15  1  0.61506200  0.59947000  0.06574800  1
loop_
_geom_bond_atom_site_label_1
_geom_bond_atom_site_label_2
_geom_bond_distance
_geom_bond_site_symmetry_2
Ag0 O0 2.255698 1_554
Ag0 O7 2.469331 1_455
Ag0 O12 2.507398 1_545
Ag0 O11 2.528867 1_555
Ag1 O14 2.273894 1_555
Ag1 O12 2.447181 1_655
Ag1 O7 2.468219 1_565
Ag1 O9 2.536739 1_555
Ag2 O9 2.255698 1_556
Ag2 O1 2.469331 1_565
Ag2 O5 2.507398 1_655
Ag2 O14 2.528867 1_555
Ag3 O11 2.273894 1_555
Ag3 O5 2.447181 1_545
Ag3 O1 2.468219 1_455
Ag3 O0 2.536739 1_555
Ag4 O4 2.358264 1_554
Ag4 O3 2.362283 1_555
Ag4 O6 2.527379 1_555
Ag4 O13 2.722383 1_555
Ag5 O2 2.370768 1_455
Ag5 O13 2.381464 1_555
Ag5 O8 2.548419 1_455
Ag5 O4 2.730524 1_555
Ag6 O15 2.358264 1_556
Ag6 O8 2.362283 1_555
Ag6 O2 2.527379 1_555
Ag6 O10 2.722383 1_555
Ag7 O6 2.370768 1_565
Ag7 O10 2.381464 1_555
Ag7 O3 2.548419 1_565
Ag7 O15 2.730524 1_555
C0 O0 1.262209 1_555
C1 O4 1.263931 1_555
C2 O14 1.221634 1_555
C3 O13 1.279799 1_555
C4 O11 1.221634 1_555
C5 O3 1.256594 1_555
C6 O7 1.293035 1_555
C7 O5 1.265719 1_555
C8 O9 1.262209 1_555
C9 O1 1.293035 1_555
C10 O2 1.261081 1_454
C11 O10 1.279799 1_555
C12 O15 1.263931 1_555
C13 O6 1.261081 1_566
C14 O8 1.256594 1_555
C15 O12 1.265719 1_555
