# generated using pymatgen
data_Si2H2O3
_symmetry_space_group_name_H-M   'P 1'
_cell_length_a   8.47771500
_cell_length_b   10.43123858
_cell_length_c   12.39390091
_cell_angle_alpha   82.18130796
_cell_angle_beta   70.24206384
_cell_angle_gamma   68.76962758
_symmetry_Int_Tables_number   1
_chemical_formula_structural   Si2H2O3
_chemical_formula_sum   'Si20 H20 O30'
_cell_volume   961.38418227
_cell_formula_units_Z   10
loop_
 _symmetry_equiv_pos_site_id
 _symmetry_equiv_pos_as_xyz
  1  'x, y, z'
loop_
 _atom_site_type_symbol
 _atom_site_label
 _atom_site_symmetry_multiplicity
 _atom_site_fract_x
 _atom_site_fract_y
 _atom_site_fract_z
 _atom_site_occupancy
  Si  Si0  1  0.54561100  0.14040200  0.13198700  1
  Si  Si1  1  0.31788100  0.31493900  0.38679800  1
  Si  Si2  1  0.43737100  0.88587100  0.86272600  1
  Si  Si3  1  0.67856700  0.65092600  0.65043400  1
  Si  Si4  1  0.85397600  0.88802700  0.30018000  1
  Si  Si5  1  0.55473700  0.56269800  0.23109400  1
  Si  Si6  1  0.17107800  0.11874800  0.74055800  1
  Si  Si7  1  0.55065600  0.40747200  0.80646800  1
  Si  Si8  1  0.19996100  0.98638600  0.21652400  1
  Si  Si9  1  0.91927800  0.50122200  0.28641700  1
  Si  Si10  1  0.82866300  0.00750500  0.78935200  1
  Si  Si11  1  0.09873700  0.49071600  0.69703600  1
  Si  Si12  1  0.92989700  0.25774700  0.47627700  1
  Si  Si13  1  0.27723500  0.22661400  0.06181500  1
  Si  Si14  1  0.05839200  0.77228200  0.52909400  1
  Si  Si15  1  0.86950100  0.69152000  0.96163200  1
  Si  Si16  1  0.59340000  0.12073300  0.52021600  1
  Si  Si17  1  0.69514200  0.36844900  0.98668900  1
  Si  Si18  1  0.41333300  0.85880600  0.47431200  1
  Si  Si19  1  0.23701100  0.63063300  0.01654400  1
  H  H0  1  0.81957800  0.98496500  0.08977800  1
  H  H1  1  0.33050300  0.54767500  0.39321500  1
  H  H2  1  0.83933900  0.40520200  0.14046800  1
  H  H3  1  0.36353400  0.52164100  0.66236500  1
  H  H4  1  0.05100800  0.83698400  0.86719000  1
  H  H5  1  0.03647800  0.73117100  0.72876400  1
  H  H6  1  0.61376000  0.33973000  0.48245000  1
  H  H7  1  0.96246000  0.25087100  0.02757400  1
  H  H8  1  0.18504300  0.85785500  0.04692200  1
  H  H9  1  0.57720300  0.61243900  0.50376800  1
  H  H10  1  0.60651400  0.16012400  0.29584800  1
  H  H11  1  0.37332500  0.83348400  0.70201700  1
  H  H12  1  0.84559800  0.10807700  0.34702900  1
  H  H13  1  0.42567900  0.52931700  0.09770500  1
  H  H14  1  0.16392600  0.94123300  0.62571500  1
  H  H15  1  0.38311200  0.65089400  0.82139300  1
  H  H16  1  0.01401700  0.21946300  0.27950000  1
  H  H17  1  0.19364200  0.43665200  0.14809300  1
  H  H18  1  0.82183800  0.97359400  0.60057100  1
  H  H19  1  0.99799500  0.46163500  0.90369800  1
  O  O0  1  0.70722100  0.98972400  0.14963300  1
  O  O1  1  0.42802400  0.47021600  0.34882100  1
  O  O2  1  0.28269900  0.02209900  0.83036900  1
  O  O3  1  0.63033900  0.50552100  0.69590400  1
  O  O4  1  0.04060000  0.92194100  0.21516600  1
  O  O5  1  0.77614000  0.44561100  0.22023300  1
  O  O6  1  0.99081200  0.06385300  0.78288900  1
  O  O7  1  0.32065300  0.44325000  0.67717000  1
  O  O8  1  0.16280800  0.11589400  0.11605300  1
  O  O9  1  0.86471300  0.41279400  0.40868600  1
  O  O10  1  0.95277200  0.82434800  0.84938200  1
  O  O11  1  0.08052700  0.67288700  0.65992800  1
  O  O12  1  0.68753100  0.25387200  0.51005600  1
  O  O13  1  0.89554600  0.34705600  0.01211700  1
  O  O14  1  0.26458700  0.78305700  0.47862100  1
  O  O15  1  0.02505000  0.66771900  0.02562600  1
  O  O16  1  0.67476600  0.21766900  0.03684600  1
  O  O17  1  0.41869300  0.22701100  0.48142500  1
  O  O18  1  0.25114600  0.79956200  0.97883900  1
  O  O19  1  0.56164000  0.69562800  0.54052500  1
  O  O20  1  0.50529200  0.21414700  0.26394900  1
  O  O21  1  0.44921200  0.77437000  0.75230300  1
  O  O22  1  0.74664100  0.06604900  0.36267600  1
  O  O23  1  0.55042800  0.47708900  0.11317100  1
  O  O24  1  0.28732500  0.93349700  0.61624700  1
  O  O25  1  0.36150100  0.57280600  0.87569900  1
  O  O26  1  0.00281800  0.15397000  0.34418300  1
  O  O27  1  0.13614200  0.36550300  0.18029400  1
  O  O28  1  0.93150500  0.92674800  0.62377000  1
  O  O29  1  0.00553600  0.54541900  0.85556300  1
loop_
_geom_bond_atom_site_label_1
_geom_bond_atom_site_label_2
_geom_bond_distance
_geom_bond_site_symmetry_2
H0 O0 0.978842 1_555
H1 O1 0.984236 1_555
H2 O5 1.016746 1_555
H2 O13 1.632851 1_555
H3 O7 0.981760 1_555
H4 O10 0.985577 1_455
H5 O11 0.999119 1_555
H6 O12 0.982827 1_555
H7 O13 0.986985 1_555
H8 O18 0.984337 1_554
H9 O19 0.980796 1_555
H10 O20 1.014292 1_555
H10 O22 1.630964 1_555
H11 O21 1.030424 1_555
H11 O24 1.556073 1_555
H12 O22 1.032884 1_555
H12 O26 1.559707 1_655
H13 O23 1.069299 1_555
H14 O24 0.986475 1_555
H15 O25 1.012732 1_555
H15 O21 1.613834 1_555
H16 O26 0.982306 1_555
H17 O27 0.998810 1_555
H18 O28 0.999660 1_555
H19 O29 0.998319 1_655
O0 Si0 1.716054 1_565
O1 Si5 1.876551 1_555
O1 Si1 2.075518 1_555
O2 Si2 1.658473 1_545
O2 Si6 1.693152 1_555
O3 Si3 1.687035 1_555
O3 Si7 1.695107 1_555
O4 Si4 1.707453 1_455
O4 Si8 1.718619 1_555
O5 Si5 1.801818 1_555
O5 Si9 1.947861 1_555
O6 Si10 1.655142 1_555
O6 Si6 1.717161 1_655
O7 Si11 1.700169 1_555
O8 Si13 1.698865 1_555
O8 Si8 1.724564 1_545
O9 Si9 1.678098 1_555
O9 Si12 1.708794 1_555
O10 Si15 1.968134 1_555
O10 Si10 1.999361 1_565
O11 Si14 1.829478 1_555
O11 Si11 1.855837 1_555
O12 Si16 1.807929 1_555
O12 Si12 1.967918 1_555
O13 Si17 1.761788 1_554
O14 Si14 1.686275 1_555
O14 Si18 1.697648 1_555
O15 Si19 1.662220 1_555
O15 Si15 1.687043 1_454
O16 Si0 1.657286 1_555
O16 Si17 1.657769 1_554
O17 Si1 1.662656 1_555
O17 Si16 1.673648 1_555
O18 Si19 1.796913 1_556
O18 Si2 2.124821 1_555
O19 Si3 1.860378 1_555
O19 Si18 1.979685 1_555
O20 Si0 1.776917 1_555
O20 Si1 1.881009 1_555
O21 Si2 1.868554 1_555
O21 Si3 2.000530 1_555
O22 Si4 1.888758 1_545
O22 Si16 1.968977 1_555
O23 Si5 1.830214 1_555
O23 Si17 1.850119 1_554
O24 Si18 1.828206 1_555
O24 Si6 2.341662 1_565
O25 Si19 1.762029 1_556
O25 Si7 1.936885 1_555
O26 Si12 1.883499 1_455
O26 Si8 2.280627 1_545
O27 Si13 1.955050 1_555
O27 Si9 2.025094 1_455
O28 Si14 1.880412 1_655
O28 Si10 2.100017 1_565
O29 Si15 1.904732 1_455
O29 Si11 1.933687 1_555
