# generated using pymatgen
data_UNiH14O9F4
_symmetry_space_group_name_H-M   'P 1'
_cell_length_a   9.45578300
_cell_length_b   10.15794700
_cell_length_c   12.21327387
_cell_angle_alpha   83.15463831
_cell_angle_beta   90.00000000
_cell_angle_gamma   90.00000000
_symmetry_Int_Tables_number   1
_chemical_formula_structural   UNiH14O9F4
_chemical_formula_sum   'U4 Ni4 H56 O36 F16'
_cell_volume   1164.73884669
_cell_formula_units_Z   4
loop_
 _symmetry_equiv_pos_site_id
 _symmetry_equiv_pos_as_xyz
  1  'x, y, z'
loop_
 _atom_site_type_symbol
 _atom_site_label
 _atom_site_symmetry_multiplicity
 _atom_site_fract_x
 _atom_site_fract_y
 _atom_site_fract_z
 _atom_site_occupancy
  U  U0  1  0.33899500  0.86970400  0.49482000  1
  U  U1  1  0.66100500  0.13029600  0.50518000  1
  U  U2  1  0.16100500  0.86970400  0.99482000  1
  U  U3  1  0.83899500  0.13029600  0.00518000  1
  Ni  Ni0  1  0.81695800  0.62761600  0.69890400  1
  Ni  Ni1  1  0.31695800  0.37238400  0.80109600  1
  Ni  Ni2  1  0.68304200  0.62761600  0.19890400  1
  Ni  Ni3  1  0.18304200  0.37238400  0.30109600  1
  H  H0  1  0.94608000  0.49891400  0.32876400  1
  H  H1  1  0.16263400  0.24413900  0.51065000  1
  H  H2  1  0.67837600  0.39288900  0.71371900  1
  H  H3  1  0.14475800  0.11274800  0.32316900  1
  H  H4  1  0.45945300  0.33123500  0.31532600  1
  H  H5  1  0.61706300  0.46525400  0.38778600  1
  H  H6  1  0.35524200  0.11274800  0.82316900  1
  H  H7  1  0.45541000  0.17551600  0.72671900  1
  H  H8  1  0.18873800  0.23378700  0.95755000  1
  H  H9  1  0.33736600  0.24413900  0.01065000  1
  H  H10  1  0.83736600  0.75586100  0.48935000  1
  H  H11  1  0.34712600  0.07355200  0.14443400  1
  H  H12  1  0.39992300  0.38587400  0.59051000  1
  H  H13  1  0.59664000  0.73395900  0.79028400  1
  H  H14  1  0.49512100  0.89517500  0.89153000  1
  H  H15  1  0.60007700  0.61412600  0.40949000  1
  H  H16  1  0.68873800  0.76621300  0.54245000  1
  H  H17  1  0.92448100  0.36085400  0.40732800  1
  H  H18  1  0.88293700  0.46525400  0.88778600  1
  H  H19  1  0.54459000  0.82448400  0.27328100  1
  H  H20  1  0.64475800  0.88725200  0.17683100  1
  H  H21  1  0.57551900  0.36085400  0.90732800  1
  H  H22  1  0.95541000  0.82448400  0.77328100  1
  H  H23  1  0.00487900  0.89517500  0.39153000  1
  H  H24  1  0.31126200  0.23378700  0.45755000  1
  H  H25  1  0.05392000  0.50108600  0.67123600  1
  H  H26  1  0.85524200  0.88725200  0.67683100  1
  H  H27  1  0.11706300  0.53474600  0.11221400  1
  H  H28  1  0.81126200  0.76621300  0.04245000  1
  H  H29  1  0.90336000  0.73395900  0.29028400  1
  H  H30  1  0.10007700  0.38587400  0.09051000  1
  H  H31  1  0.78070100  0.38671100  0.60932700  1
  H  H32  1  0.95945300  0.66876500  0.18467400  1
  H  H33  1  0.07551900  0.63914600  0.59267200  1
  H  H34  1  0.04459000  0.17551600  0.22671900  1
  H  H35  1  0.04054700  0.33123500  0.81532600  1
  H  H36  1  0.50487900  0.10482500  0.10847000  1
  H  H37  1  0.55392000  0.49891400  0.82876400  1
  H  H38  1  0.21929900  0.61328900  0.39067300  1
  H  H39  1  0.09664000  0.26604100  0.70971600  1
  H  H40  1  0.65287400  0.92644800  0.85556600  1
  H  H41  1  0.99512100  0.10482500  0.60847000  1
  H  H42  1  0.15287400  0.07355200  0.64443400  1
  H  H43  1  0.44608000  0.50108600  0.17123600  1
  H  H44  1  0.17837600  0.60711100  0.78628100  1
  H  H45  1  0.40336000  0.26604100  0.20971600  1
  H  H46  1  0.66263400  0.75586100  0.98935000  1
  H  H47  1  0.32162400  0.60711100  0.28628100  1
  H  H48  1  0.54054700  0.66876500  0.68467400  1
  H  H49  1  0.84712600  0.92644800  0.35556600  1
  H  H50  1  0.89992300  0.61412600  0.90949000  1
  H  H51  1  0.28070100  0.61328900  0.89067300  1
  H  H52  1  0.38293700  0.53474600  0.61221400  1
  H  H53  1  0.42448100  0.63914600  0.09267200  1
  H  H54  1  0.82162400  0.39288900  0.21371900  1
  H  H55  1  0.71929900  0.38671100  0.10932700  1
  O  O0  1  0.63787300  0.81485800  0.23857900  1
  O  O1  1  0.76854400  0.70461900  0.53933100  1
  O  O2  1  0.85282100  0.55737800  0.86205100  1
  O  O3  1  0.90218000  0.16543700  0.13986100  1
  O  O4  1  0.22038100  0.91027300  0.12834300  1
  O  O5  1  0.97067900  0.40333800  0.33887900  1
  O  O6  1  0.91397800  0.85344200  0.37435200  1
  O  O7  1  0.08602200  0.14655800  0.62564800  1
  O  O8  1  0.39545300  0.34568500  0.25055000  1
  O  O9  1  0.23145600  0.29538100  0.46066900  1
  O  O10  1  0.59782000  0.16543700  0.63986100  1
  O  O11  1  0.75578400  0.43744200  0.67096000  1
  O  O12  1  0.52932100  0.40333800  0.83887900  1
  O  O13  1  0.86212700  0.81485800  0.73857900  1
  O  O14  1  0.47067900  0.59666200  0.16112100  1
  O  O15  1  0.77961900  0.08972700  0.87165700  1
  O  O16  1  0.40218000  0.83456300  0.36013900  1
  O  O17  1  0.73145600  0.70461900  0.03933100  1
  O  O18  1  0.74421600  0.43744200  0.17096000  1
  O  O19  1  0.58602200  0.85344200  0.87435200  1
  O  O20  1  0.35282100  0.44262200  0.63794900  1
  O  O21  1  0.14717900  0.44262200  0.13794900  1
  O  O22  1  0.64717900  0.55737800  0.36205100  1
  O  O23  1  0.24421600  0.56255800  0.32904000  1
  O  O24  1  0.60454700  0.65431500  0.74945000  1
  O  O25  1  0.02932100  0.59666200  0.66112100  1
  O  O26  1  0.27961900  0.91027300  0.62834300  1
  O  O27  1  0.36212700  0.18514200  0.76142100  1
  O  O28  1  0.41397800  0.14655800  0.12564800  1
  O  O29  1  0.72038100  0.08972700  0.37165700  1
  O  O30  1  0.09782000  0.83456300  0.86013900  1
  O  O31  1  0.25578400  0.56255800  0.82904000  1
  O  O32  1  0.89545300  0.65431500  0.24945000  1
  O  O33  1  0.26854400  0.29538100  0.96066900  1
  O  O34  1  0.10454700  0.34568500  0.75055000  1
  O  O35  1  0.13787300  0.18514200  0.26142100  1
  F  F0  1  0.17267600  0.70848100  0.48870800  1
  F  F1  1  0.84584500  0.01889200  0.58463700  1
  F  F2  1  0.41907600  0.09221200  0.45673600  1
  F  F3  1  0.05254900  0.67676400  0.06941000  1
  F  F4  1  0.94745100  0.32323600  0.93059000  1
  F  F5  1  0.67267600  0.29151900  0.01129200  1
  F  F6  1  0.82732400  0.29151900  0.51129200  1
  F  F7  1  0.34584500  0.98110800  0.91536300  1
  F  F8  1  0.32732400  0.70848100  0.98870800  1
  F  F9  1  0.91907600  0.90778800  0.04326400  1
  F  F10  1  0.15415500  0.98110800  0.41536300  1
  F  F11  1  0.55254900  0.32323600  0.43059000  1
  F  F12  1  0.08092400  0.09221200  0.95673600  1
  F  F13  1  0.58092400  0.90778800  0.54326400  1
  F  F14  1  0.44745100  0.67676400  0.56941000  1
  F  F15  1  0.65415500  0.01889200  0.08463700  1
loop_
_geom_bond_atom_site_label_1
_geom_bond_atom_site_label_2
_geom_bond_distance
_geom_bond_site_symmetry_2
Ni0 O13 2.062645 1_555
Ni0 O2 2.062873 1_555
Ni0 O1 2.063069 1_555
Ni0 O11 2.083268 1_555
Ni0 O25 2.092532 1_655
Ni0 O24 2.128071 1_555
Ni1 O27 2.062645 1_555
Ni1 O20 2.062873 1_555
Ni1 O33 2.063069 1_555
Ni1 O31 2.083268 1_555
Ni1 O12 2.092532 1_555
Ni1 O34 2.128071 1_555
Ni2 O0 2.062645 1_555
Ni2 O22 2.062873 1_555
Ni2 O17 2.063069 1_555
Ni2 O18 2.083268 1_555
Ni2 O14 2.092532 1_555
Ni2 O32 2.128071 1_555
Ni3 O35 2.062645 1_555
Ni3 O21 2.062873 1_555
Ni3 O9 2.063069 1_555
Ni3 O23 2.083268 1_555
Ni3 O5 2.092532 1_455
Ni3 O8 2.128071 1_555
H0 O5 0.991633 1_555
H1 O9 0.995648 1_555
H2 O11 0.978240 1_555
H3 O35 0.990731 1_555
H4 O8 0.992963 1_555
H5 O22 0.992711 1_555
H6 O27 0.990731 1_555
H7 O27 0.988486 1_555
H7 O10 1.724830 1_555
H8 O33 0.983899 1_555
H9 O33 0.995648 1_554
H10 O1 0.995648 1_555
H11 O28 0.980631 1_555
H12 O20 0.972604 1_555
H13 O24 1.002497 1_555
H14 O19 0.991835 1_555
H15 O22 0.972604 1_555
H16 O1 0.983899 1_555
H17 O5 0.994955 1_555
H18 O2 0.992711 1_555
H19 O0 0.988486 1_555
H19 O16 1.724830 1_555
H20 O0 0.990731 1_555
H21 O12 0.994955 1_555
H22 O13 0.988486 1_555
H22 O30 1.724830 1_655
H23 O6 0.991835 1_455
H24 O9 0.983899 1_555
H25 O25 0.991633 1_555
H26 O13 0.990731 1_555
H27 O21 0.992711 1_555
H28 O17 0.983899 1_555
H29 O32 1.002497 1_555
H30 O21 0.972604 1_555
H31 O11 0.990029 1_555
H32 O32 0.992963 1_555
H33 O25 0.994955 1_555
H34 O35 0.988486 1_555
H34 O3 1.724830 1_455
H35 O34 0.992963 1_555
H36 O28 0.991835 1_555
H37 O12 0.991633 1_555
H38 O23 0.990029 1_555
H39 O34 1.002497 1_555
H40 O19 0.980631 1_555
H41 O7 0.991835 1_655
H42 O7 0.980631 1_555
H43 O14 0.991633 1_555
H44 O31 0.978240 1_555
H45 O8 1.002497 1_555
H46 O17 0.995648 1_556
H47 O23 0.978240 1_555
H48 O24 0.992963 1_555
H49 O6 0.980631 1_555
H50 O2 0.972604 1_555
H51 O31 0.990029 1_555
H52 O20 0.992711 1_555
H53 O14 0.994955 1_555
H54 O18 0.978240 1_555
H55 O18 0.990029 1_555
O3 U3 1.824838 1_555
O4 U2 1.817856 1_554
O10 U1 1.824838 1_555
O15 U3 1.817856 1_556
O16 U0 1.824838 1_555
O26 U0 1.817856 1_555
O29 U1 1.817856 1_555
O30 U2 1.824838 1_555
F0 H33 1.655024 1_555
F0 H38 1.684915 1_555
F0 U0 2.278172 1_555
F1 H26 1.644662 1_545
F1 H41 1.702835 1_555
F1 U1 2.239505 1_555
F2 U0 2.376499 1_545
F2 U1 2.405727 1_555
F3 H27 1.595864 1_555
F3 H32 1.654091 1_455
F3 U2 2.301548 1_554
F4 H18 1.595864 1_555
F4 H35 1.654091 1_655
F4 U3 2.301548 1_556
F5 H21 1.655024 1_554
F5 H55 1.684915 1_555
F5 U3 2.278172 1_555
F6 H17 1.655024 1_555
F6 H31 1.684915 1_555
F6 U1 2.278172 1_555
F7 H6 1.644662 1_565
F7 H14 1.702835 1_555
F7 U2 2.239505 1_555
F8 H53 1.655024 1_556
F8 H51 1.684915 1_555
F8 U2 2.278172 1_555
F9 U3 2.376499 1_565
F9 U2 2.405727 1_654
F10 H3 1.644662 1_565
F10 H23 1.702835 1_555
F10 U0 2.239505 1_555
F11 H5 1.595864 1_555
F11 H4 1.654091 1_555
F11 U1 2.301548 1_555
F12 U2 2.376499 1_545
F12 U3 2.405727 1_456
F13 U1 2.376499 1_565
F13 U0 2.405727 1_555
F14 H52 1.595864 1_555
F14 H48 1.654091 1_555
F14 U0 2.301548 1_555
F15 H20 1.644662 1_545
F15 H36 1.702835 1_555
F15 U3 2.239505 1_555
