# generated using pymatgen
data_Zn10Fe(B4Rh9)2
_symmetry_space_group_name_H-M   'P 1'
_cell_length_a   17.89576500
_cell_length_b   17.89576500
_cell_length_c   2.87724900
_cell_angle_alpha   90.00000000
_cell_angle_beta   90.00000000
_cell_angle_gamma   90.00000000
_symmetry_Int_Tables_number   1
_chemical_formula_structural   Zn10Fe(B4Rh9)2
_chemical_formula_sum   'Zn20 Fe2 B16 Rh36'
_cell_volume   921.46317534
_cell_formula_units_Z   2
loop_
 _symmetry_equiv_pos_site_id
 _symmetry_equiv_pos_as_xyz
  1  'x, y, z'
loop_
 _atom_site_type_symbol
 _atom_site_label
 _atom_site_symmetry_multiplicity
 _atom_site_fract_x
 _atom_site_fract_y
 _atom_site_fract_z
 _atom_site_occupancy
  Zn  Zn0  1  0.70912800  0.79087200  0.50000000  1
  Zn  Zn1  1  0.20912800  0.70912800  0.50000000  1
  Zn  Zn2  1  0.96812400  0.81217300  0.50000000  1
  Zn  Zn3  1  0.16898100  0.33101900  0.50000000  1
  Zn  Zn4  1  0.44974700  0.94974700  0.50000000  1
  Zn  Zn5  1  0.33101900  0.83101900  0.50000000  1
  Zn  Zn6  1  0.94974700  0.55025300  0.50000000  1
  Zn  Zn7  1  0.66898100  0.16898100  0.50000000  1
  Zn  Zn8  1  0.05025300  0.44974700  0.50000000  1
  Zn  Zn9  1  0.46812400  0.68782700  0.50000000  1
  Zn  Zn10  1  0.53187600  0.31217400  0.50000000  1
  Zn  Zn11  1  0.79087200  0.29087200  0.50000000  1
  Zn  Zn12  1  0.83101900  0.66898100  0.50000000  1
  Zn  Zn13  1  0.03187600  0.18782700  0.50000000  1
  Zn  Zn14  1  0.18782700  0.96812400  0.50000000  1
  Zn  Zn15  1  0.68782700  0.53187600  0.50000000  1
  Zn  Zn16  1  0.29087200  0.20912800  0.50000000  1
  Zn  Zn17  1  0.55025300  0.05025300  0.50000000  1
  Zn  Zn18  1  0.81217300  0.03187600  0.50000000  1
  Zn  Zn19  1  0.31217400  0.46812400  0.50000000  1
  Fe  Fe0  1  0.50000000  0.50000000  0.50000000  1
  Fe  Fe1  1  0.00000000  0.00000000  0.50000000  1
  B  B0  1  0.87563800  0.16623100  0.50000000  1
  B  B1  1  0.66627200  0.96137400  0.50000000  1
  B  B2  1  0.03862600  0.66627200  0.50000000  1
  B  B3  1  0.33376900  0.62436200  0.50000000  1
  B  B4  1  0.96137400  0.33372800  0.50000000  1
  B  B5  1  0.83372800  0.46137400  0.50000000  1
  B  B6  1  0.12436200  0.83376900  0.50000000  1
  B  B7  1  0.66623100  0.37563800  0.50000000  1
  B  B8  1  0.33372800  0.03862600  0.50000000  1
  B  B9  1  0.62436200  0.66623100  0.50000000  1
  B  B10  1  0.53862600  0.83372800  0.50000000  1
  B  B11  1  0.83376900  0.87563800  0.50000000  1
  B  B12  1  0.16627200  0.53862600  0.50000000  1
  B  B13  1  0.16623100  0.12436200  0.50000000  1
  B  B14  1  0.46137400  0.16627200  0.50000000  1
  B  B15  1  0.37563800  0.33376900  0.50000000  1
  Rh  Rh0  1  0.91260300  0.25498900  0.00000000  1
  Rh  Rh1  1  0.58739700  0.75498900  0.00000000  1
  Rh  Rh2  1  0.17390200  0.45210800  0.00000000  1
  Rh  Rh3  1  0.66047500  0.28922300  0.00000000  1
  Rh  Rh4  1  0.06685000  0.90206500  0.00000000  1
  Rh  Rh5  1  0.43315000  0.40206500  0.00000000  1
  Rh  Rh6  1  0.41768500  0.08231500  0.00000000  1
  Rh  Rh7  1  0.41260300  0.24501100  0.00000000  1
  Rh  Rh8  1  0.21077700  0.83952500  0.00000000  1
  Rh  Rh9  1  0.28922300  0.33952500  0.00000000  1
  Rh  Rh10  1  0.24501100  0.58739700  0.00000000  1
  Rh  Rh11  1  0.04789200  0.32609800  0.00000000  1
  Rh  Rh12  1  0.08231500  0.58231500  0.00000000  1
  Rh  Rh13  1  0.95210800  0.67390200  0.00000000  1
  Rh  Rh14  1  0.54789200  0.17390200  0.00000000  1
  Rh  Rh15  1  0.09793500  0.06685000  0.00000000  1
  Rh  Rh16  1  0.93315000  0.09793500  0.00000000  1
  Rh  Rh17  1  0.78922300  0.16047500  0.00000000  1
  Rh  Rh18  1  0.32609800  0.95210800  0.00000000  1
  Rh  Rh19  1  0.67390200  0.04789200  0.00000000  1
  Rh  Rh20  1  0.16047500  0.21077700  0.00000000  1
  Rh  Rh21  1  0.59793500  0.43315000  0.00000000  1
  Rh  Rh22  1  0.74501100  0.91260300  0.00000000  1
  Rh  Rh23  1  0.08739700  0.74501100  0.00000000  1
  Rh  Rh24  1  0.82609800  0.54789200  0.00000000  1
  Rh  Rh25  1  0.71077700  0.66047500  0.00000000  1
  Rh  Rh26  1  0.83952500  0.78922300  0.00000000  1
  Rh  Rh27  1  0.25498900  0.08739700  0.00000000  1
  Rh  Rh28  1  0.58231500  0.91768500  0.00000000  1
  Rh  Rh29  1  0.91768500  0.41768500  0.00000000  1
  Rh  Rh30  1  0.75498900  0.41260300  0.00000000  1
  Rh  Rh31  1  0.90206500  0.93315000  0.00000000  1
  Rh  Rh32  1  0.40206500  0.56685000  0.00000000  1
  Rh  Rh33  1  0.33952500  0.71077700  0.00000000  1
  Rh  Rh34  1  0.45210800  0.82609800  0.00000000  1
  Rh  Rh35  1  0.56685000  0.59793500  0.00000000  1
loop_
_geom_bond_atom_site_label_1
_geom_bond_atom_site_label_2
_geom_bond_distance
_geom_bond_site_symmetry_2
Zn6 Zn8 2.543649 1_655
Zn17 Zn4 2.543649 1_545
Fe0 Rh35 2.563695 1_555
Fe0 Rh32 2.563695 1_555
Fe0 Rh35 2.563695 1_556
Fe0 Rh32 2.563695 1_556
Fe0 Rh5 2.563695 1_556
Fe0 Rh5 2.563695 1_555
Fe0 Rh21 2.563695 1_556
Fe0 Rh21 2.563695 1_555
Fe1 Rh16 2.563695 1_456
Fe1 Rh16 2.563695 1_455
Fe1 Rh31 2.563695 1_445
Fe1 Rh31 2.563695 1_446
Fe1 Rh15 2.563695 1_555
Fe1 Rh4 2.563695 1_546
Fe1 Rh15 2.563695 1_556
Fe1 Rh4 2.563695 1_545
B0 Rh17 2.114662 1_556
B0 Rh17 2.114662 1_555
B0 Rh16 2.150054 1_556
B0 Rh16 2.150054 1_555
B0 Rh0 2.242819 1_556
B0 Rh0 2.242819 1_555
B0 Zn18 2.659137 1_555
B1 Rh19 2.117908 1_566
B1 Rh19 2.117908 1_565
B1 Rh22 2.194757 1_556
B1 Rh22 2.194757 1_555
B1 Rh28 2.222241 1_555
B1 Rh28 2.222241 1_556
B1 Zn17 2.615470 1_565
B2 Rh13 2.117908 1_456
B2 Rh13 2.117908 1_455
B2 Rh23 2.194757 1_555
B2 Rh23 2.194757 1_556
B2 Rh12 2.222241 1_555
B2 Rh12 2.222241 1_556
B2 Zn6 2.615470 1_455
B3 Rh33 2.114662 1_556
B3 Rh33 2.114662 1_555
B3 Rh32 2.150054 1_555
B3 Rh32 2.150054 1_556
B3 Rh10 2.242819 1_555
B3 Rh10 2.242819 1_556
B3 Zn9 2.659137 1_555
B4 Rh11 2.117908 1_656
B4 Rh11 2.117908 1_655
B4 Rh0 2.194757 1_556
B4 Rh0 2.194757 1_555
B4 Rh29 2.222241 1_556
B4 Rh29 2.222241 1_555
B4 Zn8 2.615470 1_655
B5 Rh24 2.117908 1_555
B5 Rh24 2.117908 1_556
B5 Rh30 2.194757 1_556
B5 Rh30 2.194757 1_555
B5 Rh29 2.222241 1_556
B5 Rh29 2.222241 1_555
B5 Zn6 2.615470 1_555
B6 Rh8 2.114662 1_556
B6 Rh8 2.114662 1_555
B6 Rh4 2.150054 1_555
B6 Rh4 2.150054 1_556
B6 Rh23 2.242819 1_556
B6 Rh23 2.242819 1_555
B6 Zn14 2.659137 1_555
B7 Rh3 2.114662 1_555
B7 Rh3 2.114662 1_556
B7 Rh21 2.150054 1_556
B7 Rh21 2.150054 1_555
B7 Rh30 2.242819 1_556
B7 Rh30 2.242819 1_555
B7 Zn10 2.659129 1_555
B8 Rh18 2.117908 1_545
B8 Rh18 2.117908 1_546
B8 Rh27 2.194757 1_556
B8 Rh27 2.194757 1_555
B8 Rh6 2.222241 1_555
B8 Rh6 2.222241 1_556
B8 Zn4 2.615470 1_545
B9 Rh25 2.114662 1_556
B9 Rh25 2.114662 1_555
B9 Rh35 2.150054 1_555
B9 Rh35 2.150054 1_556
B9 Rh1 2.242819 1_556
B9 Rh1 2.242819 1_555
B9 Zn15 2.659137 1_555
B10 Rh34 2.117908 1_555
B10 Rh34 2.117908 1_556
B10 Rh1 2.194757 1_555
B10 Rh1 2.194757 1_556
B10 Rh28 2.222241 1_555
B10 Rh28 2.222241 1_556
B10 Zn4 2.615470 1_555
B11 Rh26 2.114662 1_556
B11 Rh26 2.114662 1_555
B11 Rh31 2.150054 1_555
B11 Rh31 2.150054 1_556
B11 Rh22 2.242819 1_556
B11 Rh22 2.242819 1_555
B11 Zn2 2.659137 1_555
B12 Rh2 2.117908 1_555
B12 Rh2 2.117908 1_556
B12 Rh10 2.194757 1_555
B12 Rh10 2.194757 1_556
B12 Rh12 2.222241 1_555
B12 Rh12 2.222241 1_556
B12 Zn8 2.615470 1_555
B13 Rh20 2.114662 1_556
B13 Rh20 2.114662 1_555
B13 Rh15 2.150054 1_555
B13 Rh15 2.150054 1_556
B13 Rh27 2.242819 1_556
B13 Rh27 2.242819 1_555
B13 Zn13 2.659137 1_555
B14 Rh14 2.117908 1_555
B14 Rh14 2.117908 1_556
B14 Rh7 2.194757 1_556
B14 Rh7 2.194757 1_555
B14 Rh6 2.222241 1_555
B14 Rh6 2.222241 1_556
B14 Zn17 2.615470 1_555
B15 Rh9 2.114662 1_556
B15 Rh9 2.114662 1_555
B15 Rh5 2.150054 1_556
B15 Rh5 2.150054 1_555
B15 Rh7 2.242819 1_556
B15 Rh7 2.242819 1_555
B15 Zn19 2.659129 1_555
Rh0 Zn11 2.688444 1_555
Rh0 Zn11 2.688444 1_554
Rh0 Zn13 2.840819 1_654
Rh0 Zn13 2.840819 1_655
Rh1 Zn0 2.688444 1_554
Rh1 Zn0 2.688444 1_555
Rh1 Zn9 2.840819 1_555
Rh1 Zn9 2.840819 1_554
Rh2 Zn3 2.602537 1_555
Rh2 Zn3 2.602537 1_554
Rh2 Zn8 2.639674 1_555
Rh2 Zn8 2.639674 1_554
Rh2 Zn19 2.876605 1_555
Rh2 Zn19 2.876605 1_554
Rh3 Zn7 2.592904 1_555
Rh3 Zn7 2.592904 1_554
Rh3 Zn11 2.741530 1_555
Rh3 Zn11 2.741530 1_554
Rh3 Zn10 2.744936 1_555
Rh3 Zn10 2.744936 1_554
Rh4 Zn2 2.789088 1_454
Rh4 Zn2 2.789088 1_455
Rh4 Zn14 2.855574 1_554
Rh4 Zn14 2.855574 1_555
Rh5 Zn10 2.789078 1_554
Rh5 Zn10 2.789078 1_555
Rh5 Zn19 2.855560 1_555
Rh5 Zn19 2.855560 1_554
Rh6 Zn17 2.833225 1_555
Rh6 Zn17 2.833225 1_554
Rh6 Zn4 2.833225 1_545
Rh6 Zn4 2.833225 1_544
Rh7 Zn16 2.688444 1_555
Rh7 Zn16 2.688444 1_554
Rh7 Zn10 2.840827 1_555
Rh7 Zn10 2.840827 1_554
Rh8 Zn5 2.592904 1_554
Rh8 Zn5 2.592904 1_555
Rh8 Zn1 2.741530 1_555
Rh8 Zn1 2.741530 1_554
Rh8 Zn14 2.744933 1_554
Rh8 Zn14 2.744933 1_555
Rh9 Zn3 2.592904 1_555
Rh9 Zn3 2.592904 1_554
Rh9 Zn16 2.741530 1_555
Rh9 Zn16 2.741530 1_554
Rh9 Zn19 2.744936 1_555
Rh9 Zn19 2.744936 1_554
Rh10 Zn1 2.688444 1_554
Rh10 Zn1 2.688444 1_555
Rh10 Zn19 2.840827 1_555
Rh10 Zn19 2.840827 1_554
Rh11 Zn3 2.602537 1_555
Rh11 Zn3 2.602537 1_554
Rh11 Zn8 2.639674 1_555
Rh11 Zn8 2.639674 1_554
Rh11 Zn13 2.876590 1_555
Rh11 Zn13 2.876590 1_554
Rh12 Zn8 2.833225 1_554
Rh12 Zn6 2.833225 1_455
Rh12 Zn6 2.833225 1_454
Rh12 Zn8 2.833225 1_555
Rh13 Zn12 2.602537 1_554
Rh13 Zn12 2.602537 1_555
Rh13 Zn6 2.639674 1_554
Rh13 Zn6 2.639674 1_555
Rh13 Zn2 2.876590 1_555
Rh13 Zn2 2.876590 1_554
Rh14 Zn7 2.602537 1_555
Rh14 Zn7 2.602537 1_554
Rh14 Zn17 2.639674 1_555
Rh14 Zn17 2.639674 1_554
Rh14 Zn10 2.876605 1_554
Rh14 Zn10 2.876605 1_555
Rh15 Zn14 2.789088 1_545
Rh15 Zn14 2.789088 1_544
Rh15 Zn13 2.855574 1_555
Rh15 Zn13 2.855574 1_554
Rh16 Zn13 2.789088 1_654
Rh16 Zn13 2.789088 1_655
Rh16 Zn18 2.855574 1_555
Rh16 Zn18 2.855574 1_554
Rh17 Zn7 2.592904 1_554
Rh17 Zn7 2.592904 1_555
Rh17 Zn11 2.741530 1_554
Rh17 Zn11 2.741530 1_555
Rh17 Zn18 2.744933 1_554
Rh17 Zn18 2.744933 1_555
Rh18 Zn5 2.602537 1_554
Rh18 Zn5 2.602537 1_555
Rh18 Zn4 2.639674 1_554
Rh18 Zn4 2.639674 1_555
Rh18 Zn14 2.876590 1_554
Rh18 Zn14 2.876590 1_555
Rh19 Zn7 2.602537 1_555
Rh19 Zn7 2.602537 1_554
Rh19 Zn17 2.639674 1_555
Rh19 Zn17 2.639674 1_554
Rh19 Zn18 2.876590 1_555
Rh19 Zn18 2.876590 1_554
Rh20 Zn3 2.592904 1_554
Rh20 Zn3 2.592904 1_555
Rh20 Zn16 2.741530 1_555
Rh20 Zn16 2.741530 1_554
Rh20 Zn13 2.744933 1_555
Rh20 Zn13 2.744933 1_554
Rh21 Zn15 2.789088 1_555
Rh21 Zn15 2.789088 1_554
Rh21 Zn10 2.855560 1_555
Rh21 Zn10 2.855560 1_554
Rh22 Zn0 2.688444 1_554
Rh22 Zn0 2.688444 1_555
Rh22 Zn18 2.840819 1_565
Rh22 Zn18 2.840819 1_564
Rh23 Zn1 2.688444 1_554
Rh23 Zn1 2.688444 1_555
Rh23 Zn2 2.840819 1_455
Rh23 Zn2 2.840819 1_454
Rh24 Zn12 2.602537 1_554
Rh24 Zn12 2.602537 1_555
Rh24 Zn6 2.639674 1_554
Rh24 Zn6 2.639674 1_555
Rh24 Zn15 2.876590 1_555
Rh24 Zn15 2.876590 1_554
Rh25 Zn12 2.592904 1_555
Rh25 Zn12 2.592904 1_554
Rh25 Zn0 2.741530 1_555
Rh25 Zn0 2.741530 1_554
Rh25 Zn15 2.744933 1_555
Rh25 Zn15 2.744933 1_554
Rh26 Zn12 2.592904 1_555
Rh26 Zn12 2.592904 1_554
Rh26 Zn0 2.741530 1_555
Rh26 Zn0 2.741530 1_554
Rh26 Zn2 2.744933 1_554
Rh26 Zn2 2.744933 1_555
Rh27 Zn16 2.688444 1_554
Rh27 Zn16 2.688444 1_555
Rh27 Zn14 2.840819 1_544
Rh27 Zn14 2.840819 1_545
Rh28 Zn4 2.833225 1_555
Rh28 Zn4 2.833225 1_554
Rh28 Zn17 2.833225 1_564
Rh28 Zn17 2.833225 1_565
Rh29 Zn6 2.833225 1_555
Rh29 Zn6 2.833225 1_554
Rh29 Zn8 2.833225 1_655
Rh29 Zn8 2.833225 1_654
Rh30 Zn11 2.688444 1_554
Rh30 Zn11 2.688444 1_555
Rh30 Zn15 2.840819 1_555
Rh30 Zn15 2.840819 1_554
Rh31 Zn18 2.789088 1_565
Rh31 Zn18 2.789088 1_564
Rh31 Zn2 2.855574 1_555
Rh31 Zn2 2.855574 1_554
Rh32 Zn19 2.789078 1_554
Rh32 Zn19 2.789078 1_555
Rh32 Zn9 2.855574 1_554
Rh32 Zn9 2.855574 1_555
Rh33 Zn5 2.592904 1_555
Rh33 Zn5 2.592904 1_554
Rh33 Zn1 2.741530 1_554
Rh33 Zn1 2.741530 1_555
Rh33 Zn9 2.744933 1_555
Rh33 Zn9 2.744933 1_554
Rh34 Zn5 2.602537 1_554
Rh34 Zn5 2.602537 1_555
Rh34 Zn4 2.639674 1_554
Rh34 Zn4 2.639674 1_555
Rh34 Zn9 2.876590 1_554
Rh34 Zn9 2.876590 1_555
Rh35 Zn9 2.789088 1_554
Rh35 Zn9 2.789088 1_555
Rh35 Zn15 2.855574 1_555
Rh35 Zn15 2.855574 1_554
