# generated using pymatgen
data_Li2FeP2HO8
_symmetry_space_group_name_H-M   'P 1'
_cell_length_a   7.55730300
_cell_length_b   6.27238200
_cell_length_c   7.87920701
_cell_angle_alpha   55.52161500
_cell_angle_beta   90.00000000
_cell_angle_gamma   90.00000000
_symmetry_Int_Tables_number   1
_chemical_formula_structural   Li2FeP2HO8
_chemical_formula_sum   'Li4 Fe2 P4 H2 O16'
_cell_volume   307.88470796
_cell_formula_units_Z   2
loop_
 _symmetry_equiv_pos_site_id
 _symmetry_equiv_pos_as_xyz
  1  'x, y, z'
loop_
 _atom_site_type_symbol
 _atom_site_label
 _atom_site_symmetry_multiplicity
 _atom_site_fract_x
 _atom_site_fract_y
 _atom_site_fract_z
 _atom_site_occupancy
  Li  Li0  1  0.04627100  0.97480700  0.65886500  1
  Li  Li1  1  0.37650100  0.01140100  0.81153200  1
  Li  Li2  1  0.95372900  0.97480700  0.15886500  1
  Li  Li3  1  0.62349900  0.01140100  0.31153200  1
  Fe  Fe0  1  0.24885200  0.59861900  0.43192400  1
  Fe  Fe1  1  0.75114800  0.59861900  0.93192400  1
  P  P0  1  0.67305500  0.52316500  0.37822300  1
  P  P1  1  0.19468500  0.18278700  0.30228900  1
  P  P2  1  0.32694500  0.52316500  0.87822300  1
  P  P3  1  0.80531500  0.18278700  0.80228900  1
  H  H0  1  0.73769200  0.98023900  0.59552500  1
  H  H1  1  0.26230800  0.98023900  0.09552500  1
  O  O0  1  0.77059000  0.89025500  0.95474600  1
  O  O1  1  0.32864800  0.39216700  0.76102400  1
  O  O2  1  0.65375000  0.27471400  0.62521200  1
  O  O3  1  0.49567600  0.68529800  0.84489700  1
  O  O4  1  0.24161300  0.28350400  0.43762700  1
  O  O5  1  0.98664400  0.24481800  0.71032700  1
  O  O6  1  0.16756500  0.67670200  0.86086200  1
  O  O7  1  0.67135200  0.39216700  0.26102400  1
  O  O8  1  0.81862800  0.83452300  0.64494800  1
  O  O9  1  0.34625000  0.27471400  0.12521200  1
  O  O10  1  0.50432400  0.68529800  0.34489700  1
  O  O11  1  0.22941000  0.89025500  0.45474600  1
  O  O12  1  0.01335600  0.24481800  0.21032700  1
  O  O13  1  0.83243500  0.67670200  0.36086200  1
  O  O14  1  0.18137200  0.83452300  0.14494800  1
  O  O15  1  0.75838700  0.28350400  0.93762700  1
loop_
_geom_bond_atom_site_label_1
_geom_bond_atom_site_label_2
_geom_bond_distance
_geom_bond_site_symmetry_2
Li0 O6 1.870898 1_555
Li0 O8 1.963461 1_455
Li0 O5 2.003322 1_465
Li0 O4 2.268414 1_565
Li0 O11 2.397736 1_555
Li1 O3 2.110757 1_545
Li1 O1 2.217449 1_555
Li1 O6 2.475431 1_545
Li1 O2 2.554976 1_555
Li1 O4 2.634124 1_555
Li2 O13 1.870898 1_555
Li2 O14 1.963461 1_655
Li2 O12 2.003322 1_665
Li2 O15 2.268414 1_564
Li2 O0 2.397736 1_554
Li3 O10 2.110757 1_545
Li3 O7 2.217449 1_555
Li3 O13 2.475431 1_545
Li3 O9 2.554976 1_555
Li3 O15 2.634124 1_554
Fe0 O11 1.942294 1_555
Fe0 O14 1.942740 1_555
Fe0 O4 1.952202 1_555
Fe0 O10 2.017726 1_555
Fe0 O1 2.227713 1_555
Fe1 O0 1.942294 1_555
Fe1 O8 1.942740 1_555
Fe1 O15 1.952202 1_555
Fe1 O3 2.017726 1_555
Fe1 O7 2.227713 1_556
H0 O8 0.978862 1_555
H0 Li3 2.301044 1_565
H1 O14 0.978862 1_555
H1 Li1 2.301044 1_564
O0 P3 1.543735 1_565
O1 P2 1.545024 1_555
O2 P3 1.637157 1_555
O2 P0 1.674343 1_555
O3 P2 1.557829 1_555
O4 P1 1.557141 1_555
O5 P3 1.495026 1_555
O6 P2 1.499264 1_555
O7 P0 1.545024 1_555
O9 P1 1.637157 1_555
O9 P2 1.674343 1_554
O10 P0 1.557829 1_555
O11 P1 1.543735 1_565
O12 P1 1.495026 1_555
O13 P0 1.499264 1_555
O15 P3 1.557141 1_555
