# generated using pymatgen
data_CeZn3
_symmetry_space_group_name_H-M   'P 1'
_cell_length_a   4.56528605
_cell_length_b   6.53395086
_cell_length_c   10.35002772
_cell_angle_alpha   90.00000000
_cell_angle_beta   90.00000000
_cell_angle_gamma   90.00000000
_symmetry_Int_Tables_number   1
_chemical_formula_structural   CeZn3
_chemical_formula_sum   'Ce4 Zn12'
_cell_volume   308.73464814
_cell_formula_units_Z   4
loop_
 _symmetry_equiv_pos_site_id
 _symmetry_equiv_pos_as_xyz
  1  'x, y, z'
loop_
 _atom_site_type_symbol
 _atom_site_label
 _atom_site_symmetry_multiplicity
 _atom_site_fract_x
 _atom_site_fract_y
 _atom_site_fract_z
 _atom_site_occupancy
  Ce  Ce0  1  0.25000000  0.25117616  0.64954814  1
  Ce  Ce1  1  0.25000000  0.75117616  0.85045186  1
  Ce  Ce2  1  0.75000000  0.74882384  0.35045186  1
  Ce  Ce3  1  0.75000000  0.24882384  0.14954814  1
  Zn  Zn0  1  0.25000000  0.55797958  0.12984449  1
  Zn  Zn1  1  0.25000000  0.05797958  0.37015551  1
  Zn  Zn2  1  0.75000000  0.44202042  0.87015551  1
  Zn  Zn3  1  0.75000000  0.94202042  0.62984449  1
  Zn  Zn4  1  0.25000000  0.93913289  0.13123080  1
  Zn  Zn5  1  0.25000000  0.43913289  0.36876920  1
  Zn  Zn6  1  0.75000000  0.06086711  0.86876920  1
  Zn  Zn7  1  0.75000000  0.56086711  0.63123080  1
  Zn  Zn8  1  0.25000000  0.24921530  0.95226988  1
  Zn  Zn9  1  0.25000000  0.74921530  0.54773012  1
  Zn  Zn10  1  0.75000000  0.75078470  0.04773012  1
  Zn  Zn11  1  0.75000000  0.25078470  0.45226988  1
loop_
_geom_bond_atom_site_label_1
_geom_bond_atom_site_label_2
_geom_bond_distance
_geom_bond_site_symmetry_2
Ce0 Zn3 3.054911 1_445
Ce0 Zn3 3.054911 1_545
Ce0 Zn7 3.056301 1_555
Ce0 Zn7 3.056301 1_455
Ce0 Zn11 3.062606 1_455
Ce0 Zn11 3.062606 1_555
Ce0 Zn8 3.133205 1_555
Ce0 Zn5 3.154912 1_555
Ce0 Zn1 3.155241 1_555
Ce0 Zn9 3.420543 1_555
Ce0 Zn9 3.444930 1_545
Ce0 Zn6 3.450331 1_555
Ce0 Zn6 3.450331 1_455
Ce0 Zn2 3.461042 1_455
Ce0 Zn2 3.461042 1_555
Ce1 Zn2 3.054911 1_555
Ce1 Zn2 3.054911 1_455
Ce1 Zn6 3.056301 1_465
Ce1 Zn6 3.056301 1_565
Ce1 Zn10 3.062606 1_556
Ce1 Zn10 3.062606 1_456
Ce1 Zn9 3.133205 1_555
Ce1 Zn4 3.154912 1_556
Ce1 Zn0 3.155241 1_556
Ce1 Zn8 3.420543 1_565
Ce1 Zn8 3.444930 1_555
Ce1 Zn7 3.450331 1_455
Ce1 Zn7 3.450331 1_555
Ce1 Zn3 3.461042 1_455
Ce1 Zn3 3.461042 1_555
Ce2 Zn1 3.054911 1_665
Ce2 Zn1 3.054911 1_565
Ce2 Zn5 3.056301 1_555
Ce2 Zn5 3.056301 1_655
Ce2 Zn9 3.062606 1_555
Ce2 Zn9 3.062606 1_655
Ce2 Zn10 3.133205 1_555
Ce2 Zn7 3.154912 1_555
Ce2 Zn3 3.155241 1_555
Ce2 Zn11 3.420543 1_555
Ce2 Zn11 3.444930 1_565
Ce2 Zn4 3.450331 1_655
Ce2 Zn4 3.450331 1_555
Ce2 Zn0 3.461042 1_555
Ce2 Zn0 3.461042 1_655
Ce3 Zn0 3.054911 1_655
Ce3 Zn0 3.054911 1_555
Ce3 Zn4 3.056301 1_545
Ce3 Zn4 3.056301 1_645
Ce3 Zn8 3.062606 1_654
Ce3 Zn8 3.062606 1_554
Ce3 Zn11 3.133205 1_555
Ce3 Zn6 3.154912 1_554
Ce3 Zn2 3.155241 1_554
Ce3 Zn10 3.420543 1_545
Ce3 Zn10 3.444930 1_555
Ce3 Zn5 3.450331 1_655
Ce3 Zn5 3.450331 1_555
Ce3 Zn1 3.461042 1_655
Ce3 Zn1 3.461042 1_555
Zn0 Zn4 2.490478 1_555
Zn0 Zn5 2.591936 1_555
Zn0 Zn8 2.729101 1_554
Zn0 Zn10 2.742227 1_455
Zn0 Zn10 2.742227 1_555
Zn1 Zn5 2.490478 1_555
Zn1 Zn4 2.591936 1_545
Zn1 Zn9 2.729101 1_545
Zn1 Zn11 2.742227 1_455
Zn1 Zn11 2.742227 1_555
Zn2 Zn6 2.490478 1_555
Zn2 Zn7 2.591936 1_555
Zn2 Zn8 2.742227 1_655
Zn2 Zn8 2.742227 1_555
Zn3 Zn7 2.490478 1_555
Zn3 Zn6 2.591936 1_565
Zn3 Zn9 2.742227 1_555
Zn3 Zn9 2.742227 1_655
Zn4 Zn8 2.745135 1_564
Zn5 Zn9 2.745135 1_555
Zn6 Zn8 2.733474 1_555
Zn6 Zn8 2.733474 1_655
Zn7 Zn9 2.733474 1_655
Zn7 Zn9 2.733474 1_555
Zn10 Zn2 2.729101 1_554
Zn10 Zn4 2.733474 1_555
Zn10 Zn4 2.733474 1_655
Zn10 Zn6 2.745135 1_564
Zn11 Zn3 2.729101 1_545
Zn11 Zn5 2.733474 1_655
Zn11 Zn5 2.733474 1_555
Zn11 Zn7 2.745135 1_555
