# generated using pymatgen
data_Na(VS2)2
_symmetry_space_group_name_H-M   'P 1'
_cell_length_a   3.50310119
_cell_length_b   5.75748394
_cell_length_c   7.10585046
_cell_angle_alpha   76.56020182
_cell_angle_beta   90.00000000
_cell_angle_gamma   90.00000000
_symmetry_Int_Tables_number   1
_chemical_formula_structural   Na(VS2)2
_chemical_formula_sum   'Na1 V2 S4'
_cell_volume   139.39342750
_cell_formula_units_Z   1
loop_
 _symmetry_equiv_pos_site_id
 _symmetry_equiv_pos_as_xyz
  1  'x, y, z'
loop_
 _atom_site_type_symbol
 _atom_site_label
 _atom_site_symmetry_multiplicity
 _atom_site_fract_x
 _atom_site_fract_y
 _atom_site_fract_z
 _atom_site_occupancy
  Na  Na0  1  0.50000000  0.65328527  0.50451269  1
  V  V0  1  0.00000000  0.01054395  0.00161129  1
  V  V1  1  0.50000000  0.48650368  0.01344114  1
  S  S0  1  -0.00000000  0.60831536  0.20453745  1
  S  S1  1  0.00000000  0.39640124  0.80437544  1
  S  S2  1  0.50000000  0.10417948  0.20900268  1
  S  S3  1  0.50000000  0.89077003  0.81252030  1
loop_
_geom_bond_atom_site_label_1
_geom_bond_atom_site_label_2
_geom_bond_distance
_geom_bond_site_symmetry_2
Na0 S0 2.816938 1_555
Na0 S0 2.816938 1_655
Na0 S3 2.837403 1_555
Na0 S1 2.886291 1_655
Na0 S1 2.886291 1_555
Na0 S2 2.935077 1_565
S0 V1 2.417929 1_455
S0 V1 2.417929 1_555
S0 V0 2.426937 1_565
S1 V0 2.335016 1_556
S1 V1 2.429458 1_456
S1 V1 2.429458 1_556
S2 V1 2.313990 1_555
S2 V0 2.428918 1_555
S2 V0 2.428918 1_655
S3 V0 2.404078 1_666
S3 V0 2.404078 1_566
S3 V1 2.431288 1_556
