# generated using pymatgen
data_H2SeNO4
_symmetry_space_group_name_H-M   'P 1'
_cell_length_a   10.05288725
_cell_length_b   10.05288725
_cell_length_c   4.75431873
_cell_angle_alpha   88.11149059
_cell_angle_beta   88.11149059
_cell_angle_gamma   49.43665721
_symmetry_Int_Tables_number   1
_chemical_formula_structural   H2SeNO4
_chemical_formula_sum   'H6 Se3 N3 O12'
_cell_volume   364.76983446
_cell_formula_units_Z   3
loop_
 _symmetry_equiv_pos_site_id
 _symmetry_equiv_pos_as_xyz
  1  'x, y, z'
loop_
 _atom_site_type_symbol
 _atom_site_label
 _atom_site_symmetry_multiplicity
 _atom_site_fract_x
 _atom_site_fract_y
 _atom_site_fract_z
 _atom_site_occupancy
  H  H0  1  0.06643800  0.12362700  0.70740900  1
  H  H1  1  0.87637300  0.93356200  0.29259100  1
  H  H2  1  0.93640600  0.40086200  0.96423900  1
  H  H3  1  0.59913800  0.06359400  0.03576100  1
  H  H4  1  0.99920300  0.63565900  0.40861500  1
  H  H5  1  0.36434100  0.00079700  0.59138500  1
  Se  Se0  1  0.05349800  0.94650200  0.00000000  1
  Se  Se1  1  0.74847300  0.59651300  0.61142800  1
  Se  Se2  1  0.40348700  0.25152700  0.38857200  1
  N  N0  1  0.23345500  0.11404300  0.58740100  1
  N  N1  1  0.88595700  0.76654500  0.41259900  1
  N  N2  1  0.57111100  0.42888900  0.00000000  1
  O  O0  1  0.96297700  0.14479700  0.81103700  1
  O  O1  1  0.85520300  0.03702300  0.18896300  1
  O  O2  1  0.20153000  0.90376300  0.21078100  1
  O  O3  1  0.09623700  0.79847000  0.78921900  1
  O  O4  1  0.87149000  0.52800700  0.94127500  1
  O  O5  1  0.47199300  0.12851000  0.05872500  1
  O  O6  1  0.75244100  0.78951600  0.53881200  1
  O  O7  1  0.21048400  0.24755900  0.46118800  1
  O  O8  1  0.48004200  0.45196500  0.80985500  1
  O  O9  1  0.54803500  0.51995800  0.19014500  1
  O  O10  1  0.54381100  0.72632400  0.70706200  1
  O  O11  1  0.27367600  0.45618900  0.29293800  1
loop_
_geom_bond_atom_site_label_1
_geom_bond_atom_site_label_2
_geom_bond_distance
_geom_bond_site_symmetry_2
H0 O0 1.027157 1_455
H0 N0 1.698223 1_555
H1 O1 1.027157 1_565
H1 N1 1.698223 1_555
H2 O4 0.991049 1_555
H3 O5 0.991049 1_555
H4 N1 1.039100 1_555
H5 N0 1.039100 1_555
N0 O7 1.329618 1_555
N1 O6 1.329618 1_555
N2 O8 1.213965 1_554
N2 O9 1.213965 1_555
O0 Se0 1.784815 1_646
O1 Se0 1.784815 1_645
O2 Se0 1.625354 1_555
O3 Se0 1.625354 1_556
O4 Se1 1.847123 1_555
O5 Se2 1.847123 1_555
O6 Se1 1.985171 1_555
O7 Se2 1.985171 1_555
O10 Se1 1.621197 1_555
O11 Se2 1.621197 1_555
