# generated using pymatgen
data_Ba2Pr(CuO2)4
_symmetry_space_group_name_H-M   'P 1'
_cell_length_a   13.95458511
_cell_length_b   13.95458511
_cell_length_c   3.94970800
_cell_angle_alpha   90.00000000
_cell_angle_beta   90.00000000
_cell_angle_gamma   163.81379556
_symmetry_Int_Tables_number   1
_chemical_formula_structural   Ba2Pr(CuO2)4
_chemical_formula_sum   'Ba2 Pr1 Cu4 O8'
_cell_volume   214.40214033
_cell_formula_units_Z   1
loop_
 _symmetry_equiv_pos_site_id
 _symmetry_equiv_pos_as_xyz
  1  'x, y, z'
loop_
 _atom_site_type_symbol
 _atom_site_label
 _atom_site_symmetry_multiplicity
 _atom_site_fract_x
 _atom_site_fract_y
 _atom_site_fract_z
 _atom_site_occupancy
  Ba  Ba0  1  0.63701900  0.36298100  0.50000000  1
  Ba  Ba1  1  0.36298100  0.63701900  0.50000000  1
  Pr  Pr0  1  0.50000000  0.50000000  0.50000000  1
  Cu  Cu0  1  0.06506100  0.93493900  0.00000000  1
  Cu  Cu1  1  0.93493900  0.06506100  0.00000000  1
  Cu  Cu2  1  0.21300200  0.78699800  0.00000000  1
  Cu  Cu3  1  0.78699800  0.21300200  0.00000000  1
  O  O0  1  0.71857900  0.28142100  0.00000000  1
  O  O1  1  0.28142100  0.71857900  0.00000000  1
  O  O2  1  0.55578600  0.44421400  0.00000000  1
  O  O3  1  0.44421400  0.55578600  0.00000000  1
  O  O4  1  0.05634500  0.94365500  0.50000000  1
  O  O5  1  0.94365500  0.05634500  0.50000000  1
  O  O6  1  0.14629600  0.85370400  0.00000000  1
  O  O7  1  0.85370400  0.14629600  0.00000000  1
loop_
_geom_bond_atom_site_label_1
_geom_bond_atom_site_label_2
_geom_bond_distance
_geom_bond_site_symmetry_2
Ba0 O6 2.797362 1_546
Ba0 O6 2.797362 1_545
Ba0 O6 2.797362 1_655
Ba0 O6 2.797362 1_656
Ba0 O4 2.971271 1_655
Ba0 O4 2.971271 1_545
Ba0 O2 2.989670 1_555
Ba0 O2 2.989670 1_556
Ba0 O0 2.996459 1_555
Ba0 O0 2.996459 1_556
Ba1 O7 2.797362 1_566
Ba1 O7 2.797362 1_565
Ba1 O7 2.797362 1_455
Ba1 O7 2.797362 1_456
Ba1 O5 2.971271 1_565
Ba1 O5 2.971271 1_455
Ba1 O3 2.989670 1_556
Ba1 O3 2.989670 1_555
Ba1 O1 2.996459 1_555
Ba1 O1 2.996459 1_556
Cu0 O2 1.981201 1_455
Cu0 O2 1.981201 1_565
Cu0 O4 1.989485 1_555
Cu0 O4 1.989485 1_554
Cu0 O6 2.244622 1_555
Cu1 O3 1.981201 1_545
Cu1 O3 1.981201 1_655
Cu1 O5 1.989485 1_555
Cu1 O5 1.989485 1_554
Cu1 O7 2.244622 1_555
Cu2 O6 1.843168 1_555
Cu2 O1 1.890500 1_555
Cu2 O0 1.970589 1_565
Cu2 O0 1.970589 1_455
Cu3 O7 1.843168 1_555
Cu3 O0 1.890500 1_555
Cu3 O1 1.970589 1_655
Cu3 O1 1.970589 1_545
O2 Pr0 2.505208 1_555
O2 Pr0 2.505208 1_554
O3 Pr0 2.505208 1_555
O3 Pr0 2.505208 1_554
O4 Pr0 2.506662 1_565
O4 Pr0 2.506662 1_455
O5 Pr0 2.506662 1_655
O5 Pr0 2.506662 1_545
