# generated using pymatgen
data_TiNi
_symmetry_space_group_name_H-M   'P 1'
_cell_length_a   5.47969800
_cell_length_b   9.38080499
_cell_length_c   25.58603713
_cell_angle_alpha   89.99409912
_cell_angle_beta   90.09492109
_cell_angle_gamma   94.96047383
_symmetry_Int_Tables_number   1
_chemical_formula_structural   TiNi
_chemical_formula_sum   'Ti48 Ni48'
_cell_volume   1310.29624185
_cell_formula_units_Z   48
loop_
 _symmetry_equiv_pos_site_id
 _symmetry_equiv_pos_as_xyz
  1  'x, y, z'
loop_
 _atom_site_type_symbol
 _atom_site_label
 _atom_site_symmetry_multiplicity
 _atom_site_fract_x
 _atom_site_fract_y
 _atom_site_fract_z
 _atom_site_occupancy
  Ti  Ti0_0  1  0.28893200  0.39863550  0.04120800  1
  Ti  Ti0_1  1  0.28893200  0.39863550  0.54120800  1
  Ti  Ti0_2  1  0.28893200  0.89863550  0.04120800  1
  Ti  Ti0_3  1  0.28893200  0.89863550  0.54120800  1
  Ti  Ti0_4  1  0.78893200  0.39863550  0.04120800  1
  Ti  Ti0_5  1  0.78893200  0.39863550  0.54120800  1
  Ti  Ti0_6  1  0.78893200  0.89863550  0.04120800  1
  Ti  Ti0_7  1  0.78893200  0.89863550  0.54120800  1
  Ti  Ti1_0  1  0.21106800  0.10136450  0.45879200  1
  Ti  Ti1_1  1  0.21106800  0.10136450  0.95879200  1
  Ti  Ti1_2  1  0.21106800  0.60136450  0.45879200  1
  Ti  Ti1_3  1  0.21106800  0.60136450  0.95879200  1
  Ti  Ti1_4  1  0.71106800  0.10136450  0.45879200  1
  Ti  Ti1_5  1  0.71106800  0.10136450  0.95879200  1
  Ti  Ti1_6  1  0.71106800  0.60136450  0.45879200  1
  Ti  Ti1_7  1  0.71106800  0.60136450  0.95879200  1
  Ti  Ti2_0  1  0.23951000  0.11211500  0.12559200  1
  Ti  Ti2_1  1  0.23951000  0.11211500  0.62559200  1
  Ti  Ti2_2  1  0.23951000  0.61211500  0.12559200  1
  Ti  Ti2_3  1  0.23951000  0.61211500  0.62559200  1
  Ti  Ti2_4  1  0.73951000  0.11211500  0.12559200  1
  Ti  Ti2_5  1  0.73951000  0.11211500  0.62559200  1
  Ti  Ti2_6  1  0.73951000  0.61211500  0.12559200  1
  Ti  Ti2_7  1  0.73951000  0.61211500  0.62559200  1
  Ti  Ti3_0  1  0.20312850  0.09744800  0.29254500  1
  Ti  Ti3_1  1  0.20312850  0.09744800  0.79254500  1
  Ti  Ti3_2  1  0.20312850  0.59744800  0.29254500  1
  Ti  Ti3_3  1  0.20312850  0.59744800  0.79254500  1
  Ti  Ti3_4  1  0.70312850  0.09744800  0.29254500  1
  Ti  Ti3_5  1  0.70312850  0.09744800  0.79254500  1
  Ti  Ti3_6  1  0.70312850  0.59744800  0.29254500  1
  Ti  Ti3_7  1  0.70312850  0.59744800  0.79254500  1
  Ti  Ti4_0  1  0.29687150  0.40255200  0.20745500  1
  Ti  Ti4_1  1  0.29687150  0.40255200  0.70745500  1
  Ti  Ti4_2  1  0.29687150  0.90255200  0.20745500  1
  Ti  Ti4_3  1  0.29687150  0.90255200  0.70745500  1
  Ti  Ti4_4  1  0.79687150  0.40255200  0.20745500  1
  Ti  Ti4_5  1  0.79687150  0.40255200  0.70745500  1
  Ti  Ti4_6  1  0.79687150  0.90255200  0.20745500  1
  Ti  Ti4_7  1  0.79687150  0.90255200  0.70745500  1
  Ti  Ti5_0  1  0.26049000  0.38788500  0.37440800  1
  Ti  Ti5_1  1  0.26049000  0.38788500  0.87440800  1
  Ti  Ti5_2  1  0.26049000  0.88788500  0.37440800  1
  Ti  Ti5_3  1  0.26049000  0.88788500  0.87440800  1
  Ti  Ti5_4  1  0.76049000  0.38788500  0.37440800  1
  Ti  Ti5_5  1  0.76049000  0.38788500  0.87440800  1
  Ti  Ti5_6  1  0.76049000  0.88788500  0.37440800  1
  Ti  Ti5_7  1  0.76049000  0.88788500  0.87440800  1
  Ni  Ni0_0  1  0.49638950  0.33641900  0.45758650  1
  Ni  Ni0_1  1  0.49638950  0.33641900  0.95758650  1
  Ni  Ni0_2  1  0.49638950  0.83641900  0.45758650  1
  Ni  Ni0_3  1  0.49638950  0.83641900  0.95758650  1
  Ni  Ni0_4  1  0.99638950  0.33641900  0.45758650  1
  Ni  Ni0_5  1  0.99638950  0.33641900  0.95758650  1
  Ni  Ni0_6  1  0.99638950  0.83641900  0.45758650  1
  Ni  Ni0_7  1  0.99638950  0.83641900  0.95758650  1
  Ni  Ni1_0  1  0.49421300  0.33303150  0.29115100  1
  Ni  Ni1_1  1  0.49421300  0.33303150  0.79115100  1
  Ni  Ni1_2  1  0.49421300  0.83303150  0.29115100  1
  Ni  Ni1_3  1  0.49421300  0.83303150  0.79115100  1
  Ni  Ni1_4  1  0.99421300  0.33303150  0.29115100  1
  Ni  Ni1_5  1  0.99421300  0.33303150  0.79115100  1
  Ni  Ni1_6  1  0.99421300  0.83303150  0.29115100  1
  Ni  Ni1_7  1  0.99421300  0.83303150  0.79115100  1
  Ni  Ni2_0  1  0.02688500  0.34467000  0.12379950  1
  Ni  Ni2_1  1  0.02688500  0.34467000  0.62379950  1
  Ni  Ni2_2  1  0.02688500  0.84467000  0.12379950  1
  Ni  Ni2_3  1  0.02688500  0.84467000  0.62379950  1
  Ni  Ni2_4  1  0.52688500  0.34467000  0.12379950  1
  Ni  Ni2_5  1  0.52688500  0.34467000  0.62379950  1
  Ni  Ni2_6  1  0.52688500  0.84467000  0.12379950  1
  Ni  Ni2_7  1  0.52688500  0.84467000  0.62379950  1
  Ni  Ni3_0  1  0.00361050  0.16358100  0.04241350  1
  Ni  Ni3_1  1  0.00361050  0.16358100  0.54241350  1
  Ni  Ni3_2  1  0.00361050  0.66358100  0.04241350  1
  Ni  Ni3_3  1  0.00361050  0.66358100  0.54241350  1
  Ni  Ni3_4  1  0.50361050  0.16358100  0.04241350  1
  Ni  Ni3_5  1  0.50361050  0.16358100  0.54241350  1
  Ni  Ni3_6  1  0.50361050  0.66358100  0.04241350  1
  Ni  Ni3_7  1  0.50361050  0.66358100  0.54241350  1
  Ni  Ni4_0  1  0.00578700  0.16696850  0.20884900  1
  Ni  Ni4_1  1  0.00578700  0.16696850  0.70884900  1
  Ni  Ni4_2  1  0.00578700  0.66696850  0.20884900  1
  Ni  Ni4_3  1  0.00578700  0.66696850  0.70884900  1
  Ni  Ni4_4  1  0.50578700  0.16696850  0.20884900  1
  Ni  Ni4_5  1  0.50578700  0.16696850  0.70884900  1
  Ni  Ni4_6  1  0.50578700  0.66696850  0.20884900  1
  Ni  Ni4_7  1  0.50578700  0.66696850  0.70884900  1
  Ni  Ni5_0  1  0.47311500  0.15533000  0.37620050  1
  Ni  Ni5_1  1  0.47311500  0.15533000  0.87620050  1
  Ni  Ni5_2  1  0.47311500  0.65533000  0.37620050  1
  Ni  Ni5_3  1  0.47311500  0.65533000  0.87620050  1
  Ni  Ni5_4  1  0.97311500  0.15533000  0.37620050  1
  Ni  Ni5_5  1  0.97311500  0.15533000  0.87620050  1
  Ni  Ni5_6  1  0.97311500  0.65533000  0.37620050  1
  Ni  Ni5_7  1  0.97311500  0.65533000  0.87620050  1
loop_
_geom_bond_atom_site_label_1
_geom_bond_atom_site_label_2
_geom_bond_distance
_geom_bond_site_symmetry_2
Ti0_0 Ti0_4 2.739849 1_455
Ti0_0 Ti0_4 2.739849 1_555
Ti0_0 Ti1_3 2.895147 1_554
Ti0_0 Ti2_2 2.973535 1_555
Ti0_1 Ti0_5 2.739849 1_555
Ti0_1 Ti0_5 2.739849 1_455
Ti0_1 Ti1_2 2.895147 1_555
Ti0_1 Ti2_3 2.973535 1_555
Ti0_2 Ti0_6 2.739849 1_455
Ti0_2 Ti0_6 2.739849 1_555
Ti0_2 Ti1_1 2.895147 1_564
Ti0_2 Ti2_0 2.973535 1_565
Ti0_3 Ti0_7 2.739849 1_455
Ti0_3 Ti0_7 2.739849 1_555
Ti0_3 Ti1_0 2.895147 1_565
Ti0_3 Ti2_1 2.973535 1_565
Ti0_4 Ti1_7 2.895147 1_554
Ti0_4 Ti2_6 2.973535 1_555
Ti0_5 Ti1_6 2.895147 1_555
Ti0_5 Ti2_7 2.973535 1_555
Ti0_6 Ti1_5 2.895147 1_564
Ti0_6 Ti2_4 2.973535 1_565
Ti0_7 Ti1_4 2.895147 1_565
Ti0_7 Ti2_5 2.973535 1_565
Ti1_0 Ti1_4 2.739849 1_555
Ti1_0 Ti1_4 2.739849 1_455
Ti1_0 Ti5_2 2.973535 1_545
Ti1_1 Ti1_5 2.739849 1_455
Ti1_1 Ti1_5 2.739849 1_555
Ti1_1 Ti5_3 2.973535 1_545
Ti1_2 Ti1_6 2.739849 1_555
Ti1_2 Ti1_6 2.739849 1_455
Ti1_2 Ti5_0 2.973535 1_555
Ti1_3 Ti1_7 2.739849 1_455
Ti1_3 Ti1_7 2.739849 1_555
Ti1_3 Ti5_1 2.973535 1_555
Ti1_4 Ti5_6 2.973535 1_545
Ti1_5 Ti5_7 2.973535 1_545
Ti1_6 Ti5_4 2.973535 1_555
Ti1_7 Ti5_5 2.973535 1_555
Ti2_0 Ti2_4 2.739849 1_455
Ti2_0 Ti2_4 2.739849 1_555
Ti2_0 Ti4_2 2.907647 1_545
Ti2_1 Ti2_5 2.739849 1_555
Ti2_1 Ti2_5 2.739849 1_455
Ti2_1 Ti4_3 2.907647 1_545
Ti2_2 Ti2_6 2.739849 1_555
Ti2_2 Ti2_6 2.739849 1_455
Ti2_2 Ti4_0 2.907647 1_555
Ti2_3 Ti2_7 2.739849 1_455
Ti2_3 Ti2_7 2.739849 1_555
Ti2_3 Ti4_1 2.907647 1_555
Ti2_4 Ti4_6 2.907647 1_545
Ti2_5 Ti4_7 2.907647 1_545
Ti2_6 Ti4_4 2.907647 1_555
Ti2_7 Ti4_5 2.907647 1_555
Ti3_0 Ti3_4 2.739849 1_555
Ti3_0 Ti3_4 2.739849 1_455
Ti3_0 Ti5_2 2.907647 1_545
Ti3_0 Ti4_2 2.917749 1_545
Ti3_1 Ti3_5 2.739849 1_455
Ti3_1 Ti3_5 2.739849 1_555
Ti3_1 Ti5_3 2.907647 1_545
Ti3_1 Ti4_3 2.917749 1_545
Ti3_2 Ti3_6 2.739849 1_455
Ti3_2 Ti3_6 2.739849 1_555
Ti3_2 Ti5_0 2.907647 1_555
Ti3_2 Ti4_0 2.917749 1_555
Ti3_3 Ti3_7 2.739849 1_555
Ti3_3 Ti3_7 2.739849 1_455
Ti3_3 Ti5_1 2.907647 1_555
Ti3_3 Ti4_1 2.917749 1_555
Ti3_4 Ti5_6 2.907647 1_545
Ti3_4 Ti4_6 2.917749 1_545
Ti3_5 Ti5_7 2.907647 1_545
Ti3_5 Ti4_7 2.917749 1_545
Ti3_6 Ti5_4 2.907647 1_555
Ti3_6 Ti4_4 2.917749 1_555
Ti3_7 Ti5_5 2.907647 1_555
Ti3_7 Ti4_5 2.917749 1_555
Ti4_0 Ti4_4 2.739849 1_555
Ti4_0 Ti4_4 2.739849 1_455
Ti4_1 Ti4_5 2.739849 1_555
Ti4_1 Ti4_5 2.739849 1_455
Ti4_2 Ti4_6 2.739849 1_455
Ti4_2 Ti4_6 2.739849 1_555
Ti4_3 Ti4_7 2.739849 1_455
Ti4_3 Ti4_7 2.739849 1_555
Ti5_0 Ti5_4 2.739849 1_555
Ti5_0 Ti5_4 2.739849 1_455
Ti5_1 Ti5_5 2.739849 1_455
Ti5_1 Ti5_5 2.739849 1_555
Ti5_2 Ti5_6 2.739849 1_555
Ti5_2 Ti5_6 2.739849 1_455
Ti5_3 Ti5_7 2.739849 1_555
Ti5_3 Ti5_7 2.739849 1_455
Ni0_0 Ti0_1 2.516677 1_555
Ni0_0 Ti5_0 2.555763 1_555
Ni0_0 Ti1_4 2.587524 1_555
Ni0_0 Ti1_0 2.590634 1_555
Ni0_0 Ti5_4 2.597284 1_555
Ni0_0 Ti1_6 2.656369 1_555
Ni0_0 Ni5_0 2.683393 1_555
Ni0_0 Ti0_5 2.704649 1_555
Ni0_0 Ni3_5 2.711280 1_555
Ni0_0 Ni0_4 2.739849 1_555
Ni0_0 Ni0_4 2.739849 1_455
Ni0_0 Ti1_2 3.048740 1_555
Ni0_1 Ti0_0 2.516677 1_556
Ni0_1 Ti5_1 2.555763 1_555
Ni0_1 Ti1_5 2.587524 1_555
Ni0_1 Ti1_1 2.590634 1_555
Ni0_1 Ti5_5 2.597284 1_555
Ni0_1 Ti1_7 2.656369 1_555
Ni0_1 Ni5_1 2.683393 1_555
Ni0_1 Ti0_4 2.704649 1_556
Ni0_1 Ni3_4 2.711280 1_556
Ni0_1 Ni0_5 2.739849 1_555
Ni0_1 Ni0_5 2.739849 1_455
Ni0_1 Ti1_3 3.048740 1_555
Ni0_2 Ti0_3 2.516677 1_555
Ni0_2 Ti5_2 2.555763 1_555
Ni0_2 Ti1_6 2.587524 1_555
Ni0_2 Ti1_2 2.590634 1_555
Ni0_2 Ti5_6 2.597284 1_555
Ni0_2 Ti1_4 2.656369 1_565
Ni0_2 Ni5_2 2.683393 1_555
Ni0_2 Ti0_7 2.704649 1_555
Ni0_2 Ni3_7 2.711280 1_555
Ni0_2 Ni0_6 2.739849 1_555
Ni0_2 Ni0_6 2.739849 1_455
Ni0_2 Ti1_0 3.048740 1_565
Ni0_3 Ti0_2 2.516677 1_556
Ni0_3 Ti5_3 2.555763 1_555
Ni0_3 Ti1_7 2.587524 1_555
Ni0_3 Ti1_3 2.590634 1_555
Ni0_3 Ti5_7 2.597284 1_555
Ni0_3 Ti1_5 2.656369 1_565
Ni0_3 Ni5_3 2.683393 1_555
Ni0_3 Ti0_6 2.704649 1_556
Ni0_3 Ni3_6 2.711280 1_556
Ni0_3 Ni0_7 2.739849 1_455
Ni0_3 Ni0_7 2.739849 1_555
Ni0_3 Ti1_1 3.048740 1_565
Ni0_4 Ti0_5 2.516677 1_555
Ni0_4 Ti5_4 2.555763 1_555
Ni0_4 Ti1_0 2.587524 1_655
Ni0_4 Ti1_4 2.590634 1_555
Ni0_4 Ti5_0 2.597284 1_655
Ni0_4 Ti1_2 2.656369 1_655
Ni0_4 Ni5_4 2.683393 1_555
Ni0_4 Ti0_1 2.704649 1_655
Ni0_4 Ni3_1 2.711280 1_655
Ni0_4 Ti1_6 3.048740 1_555
Ni0_5 Ti0_4 2.516677 1_556
Ni0_5 Ti5_5 2.555763 1_555
Ni0_5 Ti1_1 2.587524 1_655
Ni0_5 Ti1_5 2.590634 1_555
Ni0_5 Ti5_1 2.597284 1_655
Ni0_5 Ti1_3 2.656369 1_655
Ni0_5 Ni5_5 2.683393 1_555
Ni0_5 Ti0_0 2.704649 1_656
Ni0_5 Ni3_0 2.711280 1_656
Ni0_5 Ti1_7 3.048740 1_555
Ni0_6 Ti0_7 2.516677 1_555
Ni0_6 Ti5_6 2.555763 1_555
Ni0_6 Ti1_2 2.587524 1_655
Ni0_6 Ti1_6 2.590634 1_555
Ni0_6 Ti5_2 2.597284 1_655
Ni0_6 Ti1_0 2.656369 1_665
Ni0_6 Ni5_6 2.683393 1_555
Ni0_6 Ti0_3 2.704649 1_655
Ni0_6 Ni3_3 2.711280 1_655
Ni0_6 Ti1_4 3.048740 1_565
Ni0_7 Ti0_6 2.516677 1_556
Ni0_7 Ti5_7 2.555763 1_555
Ni0_7 Ti1_3 2.587524 1_655
Ni0_7 Ti1_7 2.590634 1_555
Ni0_7 Ti5_3 2.597284 1_655
Ni0_7 Ti1_1 2.656369 1_665
Ni0_7 Ni5_7 2.683393 1_555
Ni0_7 Ti0_2 2.704649 1_656
Ni0_7 Ni3_2 2.711280 1_656
Ni0_7 Ti1_5 3.048740 1_565
Ni1_0 Ti4_0 2.508880 1_555
Ni1_0 Ti5_0 2.562443 1_555
Ni1_0 Ti3_4 2.575487 1_555
Ni1_0 Ti5_4 2.606091 1_555
Ni1_0 Ti3_0 2.611508 1_555
Ni1_0 Ni4_4 2.623604 1_555
Ni1_0 Ti3_6 2.640685 1_555
Ni1_0 Ni5_0 2.737568 1_555
Ni1_0 Ni1_4 2.739849 1_555
Ni1_0 Ni1_4 2.739849 1_455
Ni1_0 Ti4_4 2.754286 1_555
Ni1_0 Ti3_2 3.063083 1_555
Ni1_1 Ti4_1 2.508880 1_555
Ni1_1 Ti5_1 2.562443 1_555
Ni1_1 Ti3_5 2.575487 1_555
Ni1_1 Ti5_5 2.606091 1_555
Ni1_1 Ti3_1 2.611508 1_555
Ni1_1 Ni4_5 2.623604 1_555
Ni1_1 Ti3_7 2.640685 1_555
Ni1_1 Ni5_1 2.737568 1_555
Ni1_1 Ni1_5 2.739849 1_455
Ni1_1 Ni1_5 2.739849 1_555
Ni1_1 Ti4_5 2.754286 1_555
Ni1_1 Ti3_3 3.063083 1_555
Ni1_2 Ti4_2 2.508880 1_555
Ni1_2 Ti5_2 2.562443 1_555
Ni1_2 Ti3_6 2.575487 1_555
Ni1_2 Ti5_6 2.606091 1_555
Ni1_2 Ti3_2 2.611508 1_555
Ni1_2 Ni4_6 2.623604 1_555
Ni1_2 Ti3_4 2.640685 1_565
Ni1_2 Ni5_2 2.737568 1_555
Ni1_2 Ni1_6 2.739849 1_555
Ni1_2 Ni1_6 2.739849 1_455
Ni1_2 Ti4_6 2.754286 1_555
Ni1_2 Ti3_0 3.063083 1_565
Ni1_3 Ti4_3 2.508880 1_555
Ni1_3 Ti5_3 2.562443 1_555
Ni1_3 Ti3_7 2.575487 1_555
Ni1_3 Ti5_7 2.606091 1_555
Ni1_3 Ti3_3 2.611508 1_555
Ni1_3 Ni4_7 2.623604 1_555
Ni1_3 Ti3_5 2.640685 1_565
Ni1_3 Ni5_3 2.737568 1_555
Ni1_3 Ni1_7 2.739849 1_555
Ni1_3 Ni1_7 2.739849 1_455
Ni1_3 Ti4_7 2.754286 1_555
Ni1_3 Ti3_1 3.063083 1_565
Ni1_4 Ti4_4 2.508880 1_555
Ni1_4 Ti5_4 2.562443 1_555
Ni1_4 Ti3_0 2.575487 1_655
Ni1_4 Ti5_0 2.606091 1_655
Ni1_4 Ti3_4 2.611508 1_555
Ni1_4 Ni4_0 2.623604 1_655
Ni1_4 Ti3_2 2.640685 1_655
Ni1_4 Ni5_4 2.737568 1_555
Ni1_4 Ti4_0 2.754286 1_655
Ni1_4 Ti3_6 3.063083 1_555
Ni1_5 Ti4_5 2.508880 1_555
Ni1_5 Ti5_5 2.562443 1_555
Ni1_5 Ti3_1 2.575487 1_655
Ni1_5 Ti5_1 2.606091 1_655
Ni1_5 Ti3_5 2.611508 1_555
Ni1_5 Ni4_1 2.623604 1_655
Ni1_5 Ti3_3 2.640685 1_655
Ni1_5 Ni5_5 2.737568 1_555
Ni1_5 Ti4_1 2.754286 1_655
Ni1_5 Ti3_7 3.063083 1_555
Ni1_6 Ti4_6 2.508880 1_555
Ni1_6 Ti5_6 2.562443 1_555
Ni1_6 Ti3_2 2.575487 1_655
Ni1_6 Ti5_2 2.606091 1_655
Ni1_6 Ti3_6 2.611508 1_555
Ni1_6 Ni4_2 2.623604 1_655
Ni1_6 Ti3_0 2.640685 1_665
Ni1_6 Ni5_6 2.737568 1_555
Ni1_6 Ti4_2 2.754286 1_655
Ni1_6 Ti3_4 3.063083 1_565
Ni1_7 Ti4_7 2.508880 1_555
Ni1_7 Ti5_7 2.562443 1_555
Ni1_7 Ti3_3 2.575487 1_655
Ni1_7 Ti5_3 2.606091 1_655
Ni1_7 Ti3_7 2.611508 1_555
Ni1_7 Ni4_3 2.623604 1_655
Ni1_7 Ti3_1 2.640685 1_665
Ni1_7 Ni5_7 2.737568 1_555
Ni1_7 Ti4_3 2.754286 1_655
Ni1_7 Ti3_5 3.063083 1_565
Ni2_0 Ti0_4 2.554767 1_455
Ni2_0 Ti2_0 2.560889 1_555
Ni2_0 Ti4_4 2.567556 1_455
Ni2_0 Ti2_4 2.578210 1_455
Ni2_0 Ti0_0 2.582225 1_555
Ni2_0 Ti4_0 2.629786 1_555
Ni2_0 Ti2_2 2.673624 1_555
Ni2_0 Ni3_0 2.683393 1_555
Ni2_0 Ni4_0 2.737568 1_555
Ni2_0 Ni2_4 2.739849 1_555
Ni2_0 Ni2_4 2.739849 1_455
Ni2_0 Ti2_6 3.075661 1_455
Ni2_1 Ti0_5 2.554767 1_455
Ni2_1 Ti2_1 2.560889 1_555
Ni2_1 Ti4_5 2.567556 1_455
Ni2_1 Ti2_5 2.578210 1_455
Ni2_1 Ti0_1 2.582225 1_555
Ni2_1 Ti4_1 2.629786 1_555
Ni2_1 Ti2_3 2.673624 1_555
Ni2_1 Ni3_1 2.683393 1_555
Ni2_1 Ni4_1 2.737568 1_555
Ni2_1 Ni2_5 2.739849 1_555
Ni2_1 Ni2_5 2.739849 1_455
Ni2_1 Ti2_7 3.075661 1_455
Ni2_2 Ti0_6 2.554767 1_455
Ni2_2 Ti2_2 2.560889 1_555
Ni2_2 Ti4_6 2.567556 1_455
Ni2_2 Ti2_6 2.578210 1_455
Ni2_2 Ti0_2 2.582225 1_555
Ni2_2 Ti4_2 2.629786 1_555
Ni2_2 Ti2_0 2.673624 1_565
Ni2_2 Ni3_2 2.683393 1_555
Ni2_2 Ni4_2 2.737568 1_555
Ni2_2 Ni2_6 2.739849 1_555
Ni2_2 Ni2_6 2.739849 1_455
Ni2_2 Ti2_4 3.075661 1_465
Ni2_3 Ti0_7 2.554767 1_455
Ni2_3 Ti2_3 2.560889 1_555
Ni2_3 Ti4_7 2.567556 1_455
Ni2_3 Ti2_7 2.578210 1_455
Ni2_3 Ti0_3 2.582225 1_555
Ni2_3 Ti4_3 2.629786 1_555
Ni2_3 Ti2_1 2.673624 1_565
Ni2_3 Ni3_3 2.683393 1_555
Ni2_3 Ni4_3 2.737568 1_555
Ni2_3 Ni2_7 2.739849 1_455
Ni2_3 Ni2_7 2.739849 1_555
Ni2_3 Ti2_5 3.075661 1_465
Ni2_4 Ti0_0 2.554767 1_555
Ni2_4 Ti2_4 2.560889 1_555
Ni2_4 Ti4_0 2.567556 1_555
Ni2_4 Ti2_0 2.578210 1_555
Ni2_4 Ti0_4 2.582225 1_555
Ni2_4 Ti4_4 2.629786 1_555
Ni2_4 Ti2_6 2.673624 1_555
Ni2_4 Ni3_4 2.683393 1_555
Ni2_4 Ni4_4 2.737568 1_555
Ni2_4 Ti2_2 3.075661 1_555
Ni2_5 Ti0_1 2.554767 1_555
Ni2_5 Ti2_5 2.560889 1_555
Ni2_5 Ti4_1 2.567556 1_555
Ni2_5 Ti2_1 2.578210 1_555
Ni2_5 Ti0_5 2.582225 1_555
Ni2_5 Ti4_5 2.629786 1_555
Ni2_5 Ti2_7 2.673624 1_555
Ni2_5 Ni3_5 2.683393 1_555
Ni2_5 Ni4_5 2.737568 1_555
Ni2_5 Ti2_3 3.075661 1_555
Ni2_6 Ti0_2 2.554767 1_555
Ni2_6 Ti2_6 2.560889 1_555
Ni2_6 Ti4_2 2.567556 1_555
Ni2_6 Ti2_2 2.578210 1_555
Ni2_6 Ti0_6 2.582225 1_555
Ni2_6 Ti4_6 2.629786 1_555
Ni2_6 Ti2_4 2.673624 1_565
Ni2_6 Ni3_6 2.683393 1_555
Ni2_6 Ni4_6 2.737568 1_555
Ni2_6 Ti2_0 3.075661 1_565
Ni2_7 Ti0_3 2.554767 1_555
Ni2_7 Ti2_7 2.560889 1_555
Ni2_7 Ti4_3 2.567556 1_555
Ni2_7 Ti2_3 2.578210 1_555
Ni2_7 Ti0_7 2.582225 1_555
Ni2_7 Ti4_7 2.629786 1_555
Ni2_7 Ti2_5 2.673624 1_565
Ni2_7 Ni3_7 2.683393 1_555
Ni2_7 Ni4_7 2.737568 1_555
Ni2_7 Ti2_1 3.075661 1_565
Ni3_0 Ti1_1 2.516677 1_554
Ni3_0 Ti2_0 2.555763 1_555
Ni3_0 Ti0_4 2.587524 1_455
Ni3_0 Ti0_0 2.590634 1_555
Ni3_0 Ti2_4 2.597284 1_455
Ni3_0 Ti0_6 2.656369 1_445
Ni3_0 Ti1_5 2.704649 1_454
Ni3_0 Ni3_4 2.739849 1_455
Ni3_0 Ni3_4 2.739849 1_555
Ni3_0 Ti0_2 3.048740 1_545
Ni3_1 Ti1_0 2.516677 1_555
Ni3_1 Ti2_1 2.555763 1_555
Ni3_1 Ti0_5 2.587524 1_455
Ni3_1 Ti0_1 2.590634 1_555
Ni3_1 Ti2_5 2.597284 1_455
Ni3_1 Ti0_7 2.656369 1_445
Ni3_1 Ti1_4 2.704649 1_455
Ni3_1 Ni3_5 2.739849 1_555
Ni3_1 Ni3_5 2.739849 1_455
Ni3_1 Ti0_3 3.048740 1_545
Ni3_2 Ti1_3 2.516677 1_554
Ni3_2 Ti2_2 2.555763 1_555
Ni3_2 Ti0_6 2.587524 1_455
Ni3_2 Ti0_2 2.590634 1_555
Ni3_2 Ti2_6 2.597284 1_455
Ni3_2 Ti0_4 2.656369 1_455
Ni3_2 Ti1_7 2.704649 1_454
Ni3_2 Ni3_6 2.739849 1_455
Ni3_2 Ni3_6 2.739849 1_555
Ni3_2 Ti0_0 3.048740 1_555
Ni3_3 Ti1_2 2.516677 1_555
Ni3_3 Ti2_3 2.555763 1_555
Ni3_3 Ti0_7 2.587524 1_455
Ni3_3 Ti0_3 2.590634 1_555
Ni3_3 Ti2_7 2.597284 1_455
Ni3_3 Ti0_5 2.656369 1_455
Ni3_3 Ti1_6 2.704649 1_455
Ni3_3 Ni3_7 2.739849 1_455
Ni3_3 Ni3_7 2.739849 1_555
Ni3_3 Ti0_1 3.048740 1_555
Ni3_4 Ti1_5 2.516677 1_554
Ni3_4 Ti2_4 2.555763 1_555
Ni3_4 Ti0_0 2.587524 1_555
Ni3_4 Ti0_4 2.590634 1_555
Ni3_4 Ti2_0 2.597284 1_555
Ni3_4 Ti0_2 2.656369 1_545
Ni3_4 Ti1_1 2.704649 1_554
Ni3_4 Ti0_6 3.048740 1_545
Ni3_5 Ti1_4 2.516677 1_555
Ni3_5 Ti2_5 2.555763 1_555
Ni3_5 Ti0_1 2.587524 1_555
Ni3_5 Ti0_5 2.590634 1_555
Ni3_5 Ti2_1 2.597284 1_555
Ni3_5 Ti0_3 2.656369 1_545
Ni3_5 Ti1_0 2.704649 1_555
Ni3_5 Ti0_7 3.048740 1_545
Ni3_6 Ti1_7 2.516677 1_554
Ni3_6 Ti2_6 2.555763 1_555
Ni3_6 Ti0_2 2.587524 1_555
Ni3_6 Ti0_6 2.590634 1_555
Ni3_6 Ti2_2 2.597284 1_555
Ni3_6 Ti0_0 2.656369 1_555
Ni3_6 Ti1_3 2.704649 1_554
Ni3_6 Ti0_4 3.048740 1_555
Ni3_7 Ti1_6 2.516677 1_555
Ni3_7 Ti2_7 2.555763 1_555
Ni3_7 Ti0_3 2.587524 1_555
Ni3_7 Ti0_7 2.590634 1_555
Ni3_7 Ti2_3 2.597284 1_555
Ni3_7 Ti0_1 2.656369 1_555
Ni3_7 Ti1_2 2.704649 1_555
Ni3_7 Ti0_5 3.048740 1_555
Ni4_0 Ti3_0 2.508880 1_555
Ni4_0 Ti2_0 2.562443 1_555
Ni4_0 Ti4_4 2.575487 1_455
Ni4_0 Ti2_4 2.606091 1_455
Ni4_0 Ti4_0 2.611508 1_555
Ni4_0 Ti4_6 2.640685 1_445
Ni4_0 Ni4_4 2.739849 1_555
Ni4_0 Ni4_4 2.739849 1_455
Ni4_0 Ti3_4 2.754286 1_455
Ni4_0 Ti4_2 3.063083 1_545
Ni4_1 Ti3_1 2.508880 1_555
Ni4_1 Ti2_1 2.562443 1_555
Ni4_1 Ti4_5 2.575487 1_455
Ni4_1 Ti2_5 2.606091 1_455
Ni4_1 Ti4_1 2.611508 1_555
Ni4_1 Ti4_7 2.640685 1_445
Ni4_1 Ni4_5 2.739849 1_555
Ni4_1 Ni4_5 2.739849 1_455
Ni4_1 Ti3_5 2.754286 1_455
Ni4_1 Ti4_3 3.063083 1_545
Ni4_2 Ti3_2 2.508880 1_555
Ni4_2 Ti2_2 2.562443 1_555
Ni4_2 Ti4_6 2.575487 1_455
Ni4_2 Ti2_6 2.606091 1_455
Ni4_2 Ti4_2 2.611508 1_555
Ni4_2 Ti4_4 2.640685 1_455
Ni4_2 Ni4_6 2.739849 1_455
Ni4_2 Ni4_6 2.739849 1_555
Ni4_2 Ti3_6 2.754286 1_455
Ni4_2 Ti4_0 3.063083 1_555
Ni4_3 Ti3_3 2.508880 1_555
Ni4_3 Ti2_3 2.562443 1_555
Ni4_3 Ti4_7 2.575487 1_455
Ni4_3 Ti2_7 2.606091 1_455
Ni4_3 Ti4_3 2.611508 1_555
Ni4_3 Ti4_5 2.640685 1_455
Ni4_3 Ni4_7 2.739849 1_555
Ni4_3 Ni4_7 2.739849 1_455
Ni4_3 Ti3_7 2.754286 1_455
Ni4_3 Ti4_1 3.063083 1_555
Ni4_4 Ti3_4 2.508880 1_555
Ni4_4 Ti2_4 2.562443 1_555
Ni4_4 Ti4_0 2.575487 1_555
Ni4_4 Ti2_0 2.606091 1_555
Ni4_4 Ti4_4 2.611508 1_555
Ni4_4 Ti4_2 2.640685 1_545
Ni4_4 Ti3_0 2.754286 1_555
Ni4_4 Ti4_6 3.063083 1_545
Ni4_5 Ti3_5 2.508880 1_555
Ni4_5 Ti2_5 2.562443 1_555
Ni4_5 Ti4_1 2.575487 1_555
Ni4_5 Ti2_1 2.606091 1_555
Ni4_5 Ti4_5 2.611508 1_555
Ni4_5 Ti4_3 2.640685 1_545
Ni4_5 Ti3_1 2.754286 1_555
Ni4_5 Ti4_7 3.063083 1_545
Ni4_6 Ti3_6 2.508880 1_555
Ni4_6 Ti2_6 2.562443 1_555
Ni4_6 Ti4_2 2.575487 1_555
Ni4_6 Ti2_2 2.606091 1_555
Ni4_6 Ti4_6 2.611508 1_555
Ni4_6 Ti4_0 2.640685 1_555
Ni4_6 Ti3_2 2.754286 1_555
Ni4_6 Ti4_4 3.063083 1_555
Ni4_7 Ti3_7 2.508880 1_555
Ni4_7 Ti2_7 2.562443 1_555
Ni4_7 Ti4_3 2.575487 1_555
Ni4_7 Ti2_3 2.606091 1_555
Ni4_7 Ti4_7 2.611508 1_555
Ni4_7 Ti4_1 2.640685 1_555
Ni4_7 Ti3_3 2.754286 1_555
Ni4_7 Ti4_5 3.063083 1_555
Ni5_0 Ti1_4 2.554767 1_555
Ni5_0 Ti5_0 2.560889 1_555
Ni5_0 Ti3_4 2.567556 1_555
Ni5_0 Ti5_4 2.578210 1_555
Ni5_0 Ti1_0 2.582225 1_555
Ni5_0 Ti3_0 2.629786 1_555
Ni5_0 Ti5_2 2.673624 1_545
Ni5_0 Ni5_4 2.739849 1_555
Ni5_0 Ni5_4 2.739849 1_455
Ni5_0 Ti5_6 3.075661 1_545
Ni5_1 Ti1_5 2.554767 1_555
Ni5_1 Ti5_1 2.560889 1_555
Ni5_1 Ti3_5 2.567556 1_555
Ni5_1 Ti5_5 2.578210 1_555
Ni5_1 Ti1_1 2.582225 1_555
Ni5_1 Ti3_1 2.629786 1_555
Ni5_1 Ti5_3 2.673624 1_545
Ni5_1 Ni5_5 2.739849 1_455
Ni5_1 Ni5_5 2.739849 1_555
Ni5_1 Ti5_7 3.075661 1_545
Ni5_2 Ti1_6 2.554767 1_555
Ni5_2 Ti5_2 2.560889 1_555
Ni5_2 Ti3_6 2.567556 1_555
Ni5_2 Ti5_6 2.578210 1_555
Ni5_2 Ti1_2 2.582225 1_555
Ni5_2 Ti3_2 2.629786 1_555
Ni5_2 Ti5_0 2.673624 1_555
Ni5_2 Ni5_6 2.739849 1_555
Ni5_2 Ni5_6 2.739849 1_455
Ni5_2 Ti5_4 3.075661 1_555
Ni5_3 Ti1_7 2.554767 1_555
Ni5_3 Ti5_3 2.560889 1_555
Ni5_3 Ti3_7 2.567556 1_555
Ni5_3 Ti5_7 2.578210 1_555
Ni5_3 Ti1_3 2.582225 1_555
Ni5_3 Ti3_3 2.629786 1_555
Ni5_3 Ti5_1 2.673624 1_555
Ni5_3 Ni5_7 2.739849 1_555
Ni5_3 Ni5_7 2.739849 1_455
Ni5_3 Ti5_5 3.075661 1_555
Ni5_4 Ti1_0 2.554767 1_655
Ni5_4 Ti5_4 2.560889 1_555
Ni5_4 Ti3_0 2.567556 1_655
Ni5_4 Ti5_0 2.578210 1_655
Ni5_4 Ti1_4 2.582225 1_555
Ni5_4 Ti3_4 2.629786 1_555
Ni5_4 Ti5_6 2.673624 1_545
Ni5_4 Ti5_2 3.075661 1_645
Ni5_5 Ti1_1 2.554767 1_655
Ni5_5 Ti5_5 2.560889 1_555
Ni5_5 Ti3_1 2.567556 1_655
Ni5_5 Ti5_1 2.578210 1_655
Ni5_5 Ti1_5 2.582225 1_555
Ni5_5 Ti3_5 2.629786 1_555
Ni5_5 Ti5_7 2.673624 1_545
Ni5_5 Ti5_3 3.075661 1_645
Ni5_6 Ti1_2 2.554767 1_655
Ni5_6 Ti5_6 2.560889 1_555
Ni5_6 Ti3_2 2.567556 1_655
Ni5_6 Ti5_2 2.578210 1_655
Ni5_6 Ti1_6 2.582225 1_555
Ni5_6 Ti3_6 2.629786 1_555
Ni5_6 Ti5_4 2.673624 1_555
Ni5_6 Ti5_0 3.075661 1_655
Ni5_7 Ti1_3 2.554767 1_655
Ni5_7 Ti5_7 2.560889 1_555
Ni5_7 Ti3_3 2.567556 1_655
Ni5_7 Ti5_3 2.578210 1_655
Ni5_7 Ti1_7 2.582225 1_555
Ni5_7 Ti3_7 2.629786 1_555
Ni5_7 Ti5_5 2.673624 1_555
Ni5_7 Ti5_1 3.075661 1_655
