# generated using pymatgen
data_BaCO3
_symmetry_space_group_name_H-M   'P 1'
_cell_length_a   7.62660811
_cell_length_b   7.62660811
_cell_length_c   7.62660788
_cell_angle_alpha   41.66562433
_cell_angle_beta   41.66562433
_cell_angle_gamma   41.66562198
_symmetry_Int_Tables_number   1
_chemical_formula_structural   BaCO3
_chemical_formula_sum   'Ba2 C2 O6'
_cell_volume   177.21712272
_cell_formula_units_Z   2
loop_
 _symmetry_equiv_pos_site_id
 _symmetry_equiv_pos_as_xyz
  1  'x, y, z'
loop_
 _atom_site_type_symbol
 _atom_site_label
 _atom_site_symmetry_multiplicity
 _atom_site_fract_x
 _atom_site_fract_y
 _atom_site_fract_z
 _atom_site_occupancy
  Ba  Ba0  1  0.50000000  0.50000000  0.50000000  1
  Ba  Ba1  1  0.00000000  0.00000000  0.00000000  1
  C  C0  1  0.75000000  0.75000000  0.75000000  1
  C  C1  1  0.25000000  0.25000000  0.25000000  1
  O  O0  1  0.75000000  0.50936200  0.99063800  1
  O  O1  1  0.50936200  0.99063800  0.75000000  1
  O  O2  1  0.99063800  0.75000000  0.50936200  1
  O  O3  1  0.49063800  0.00936200  0.25000000  1
  O  O4  1  0.25000000  0.49063800  0.00936200  1
  O  O5  1  0.00936200  0.25000000  0.49063800  1
loop_
_geom_bond_atom_site_label_1
_geom_bond_atom_site_label_2
_geom_bond_distance
_geom_bond_site_symmetry_2
Ba0 O0 2.730212 1_554
Ba0 O4 2.730212 1_556
Ba0 O2 2.730212 1_455
Ba0 O5 2.730212 1_655
Ba0 O1 2.730212 1_545
Ba0 O3 2.730212 1_565
Ba1 O2 2.730212 1_445
Ba1 O5 2.730212 1_554
Ba1 O4 2.730212 1_545
Ba1 O0 2.730212 1_454
Ba1 O3 2.730212 1_455
Ba1 O1 2.730212 1_544
C0 O1 1.305386 1_555
C0 O2 1.305386 1_555
C0 O0 1.305386 1_555
C1 O3 1.305386 1_555
C1 O5 1.305386 1_555
C1 O4 1.305386 1_555
