# generated using pymatgen
data_Y5Pb4
_symmetry_space_group_name_H-M   'P 1'
_cell_length_a   9.06231400
_cell_length_b   9.18245400
_cell_length_c   17.51300900
_cell_angle_alpha   90.00000000
_cell_angle_beta   90.00000000
_cell_angle_gamma   90.00000000
_symmetry_Int_Tables_number   1
_chemical_formula_structural   Y5Pb4
_chemical_formula_sum   'Y20 Pb16'
_cell_volume   1457.33245976
_cell_formula_units_Z   4
loop_
 _symmetry_equiv_pos_site_id
 _symmetry_equiv_pos_as_xyz
  1  'x, y, z'
loop_
 _atom_site_type_symbol
 _atom_site_label
 _atom_site_symmetry_multiplicity
 _atom_site_fract_x
 _atom_site_fract_y
 _atom_site_fract_z
 _atom_site_occupancy
  Y  Y0  1  0.79022300  0.00203100  0.25000000  1
  Y  Y1  1  0.47326800  0.81919500  0.40003400  1
  Y  Y2  1  0.02673200  0.31919500  0.90003400  1
  Y  Y3  1  0.02673200  0.31919500  0.59996600  1
  Y  Y4  1  0.87955600  0.83894300  0.88291900  1
  Y  Y5  1  0.47326800  0.81919500  0.09996600  1
  Y  Y6  1  0.70977700  0.50203100  0.75000000  1
  Y  Y7  1  0.37955600  0.66105700  0.88291900  1
  Y  Y8  1  0.62044400  0.33894300  0.11708100  1
  Y  Y9  1  0.29022300  0.49796900  0.25000000  1
  Y  Y10  1  0.62044400  0.33894300  0.38291900  1
  Y  Y11  1  0.20977700  0.99796900  0.75000000  1
  Y  Y12  1  0.52673200  0.18080500  0.59996600  1
  Y  Y13  1  0.37955600  0.66105700  0.61708100  1
  Y  Y14  1  0.52673200  0.18080500  0.90003400  1
  Y  Y15  1  0.97326800  0.68080500  0.40003400  1
  Y  Y16  1  0.97326800  0.68080500  0.09996600  1
  Y  Y17  1  0.12044400  0.16105700  0.11708100  1
  Y  Y18  1  0.87955600  0.83894300  0.61708100  1
  Y  Y19  1  0.12044400  0.16105700  0.38291900  1
  Pb  Pb0  1  0.83145600  0.14032300  0.75000000  1
  Pb  Pb1  1  0.71783400  0.53037100  0.54356600  1
  Pb  Pb2  1  0.92336000  0.38116600  0.25000000  1
  Pb  Pb3  1  0.21783400  0.96962900  0.95643400  1
  Pb  Pb4  1  0.28216600  0.46962900  0.04356600  1
  Pb  Pb5  1  0.57664000  0.88116600  0.75000000  1
  Pb  Pb6  1  0.33145600  0.35967700  0.75000000  1
  Pb  Pb7  1  0.07664000  0.61883400  0.75000000  1
  Pb  Pb8  1  0.78216600  0.03037100  0.45643400  1
  Pb  Pb9  1  0.28216600  0.46962900  0.45643400  1
  Pb  Pb10  1  0.16854400  0.85967700  0.25000000  1
  Pb  Pb11  1  0.21783400  0.96962900  0.54356600  1
  Pb  Pb12  1  0.78216600  0.03037100  0.04356600  1
  Pb  Pb13  1  0.66854400  0.64032300  0.25000000  1
  Pb  Pb14  1  0.71783400  0.53037100  0.95643400  1
  Pb  Pb15  1  0.42336000  0.11883400  0.25000000  1
loop_
_geom_bond_atom_site_label_1
_geom_bond_atom_site_label_2
_geom_bond_distance
_geom_bond_site_symmetry_2
Pb0 Pb5 3.315941 1_545
Pb0 Y6 3.499630 1_555
Pb0 Y2 3.568393 1_655
Pb0 Y3 3.568393 1_655
Pb0 Y4 3.642425 1_545
Pb0 Y18 3.642425 1_545
Pb0 Y11 3.669200 1_645
Pb0 Y14 3.829894 1_555
Pb0 Y12 3.829894 1_555
Pb1 Y10 3.432786 1_555
Pb1 Y18 3.440046 1_555
Pb1 Y13 3.534885 1_555
Pb1 Y3 3.545706 1_655
Pb1 Y6 3.625370 1_555
Pb1 Y15 3.685799 1_555
Pb1 Y12 3.778641 1_555
Pb2 Y9 3.493349 1_655
Pb2 Y19 3.562814 1_655
Pb2 Y17 3.562814 1_655
Pb2 Y10 3.620043 1_555
Pb2 Y8 3.620043 1_555
Pb2 Y0 3.684534 1_555
Pb2 Y16 3.831303 1_555
Pb2 Y15 3.831303 1_555
Pb3 Y17 3.432786 1_566
Pb3 Y7 3.440046 1_555
Pb3 Y4 3.534885 1_455
Pb3 Y14 3.545706 1_565
Pb3 Y11 3.625370 1_555
Pb3 Y5 3.685799 1_556
Pb3 Y2 3.778641 1_565
Pb4 Y7 3.432786 1_554
Pb4 Y17 3.440046 1_555
Pb4 Y8 3.534885 1_555
Pb4 Y16 3.545706 1_455
Pb4 Y9 3.625370 1_555
Pb4 Y2 3.685799 1_554
Pb4 Y5 3.778641 1_555
Pb5 Y11 3.493349 1_555
Pb5 Y13 3.562814 1_555
Pb5 Y7 3.562814 1_555
Pb5 Y18 3.620043 1_555
Pb5 Y4 3.620043 1_555
Pb5 Y6 3.684534 1_555
Pb5 Y12 3.831303 1_565
Pb5 Y14 3.831303 1_565
Pb6 Pb7 3.315941 1_555
Pb6 Y11 3.499630 1_545
Pb6 Y14 3.568393 1_555
Pb6 Y12 3.568393 1_555
Pb6 Y13 3.642425 1_555
Pb6 Y7 3.642425 1_555
Pb6 Y6 3.669200 1_555
Pb6 Y2 3.829894 1_555
Pb6 Y3 3.829894 1_555
Pb7 Y6 3.493349 1_455
Pb7 Y4 3.562814 1_455
Pb7 Y18 3.562814 1_455
Pb7 Y13 3.620043 1_555
Pb7 Y7 3.620043 1_555
Pb7 Y11 3.684534 1_555
Pb7 Y2 3.831303 1_555
Pb7 Y3 3.831303 1_555
Pb8 Y18 3.432786 1_545
Pb8 Y10 3.440046 1_555
Pb8 Y19 3.534885 1_655
Pb8 Y1 3.545706 1_545
Pb8 Y0 3.625370 1_555
Pb8 Y12 3.685799 1_555
Pb8 Y15 3.778641 1_545
Pb9 Y13 3.432786 1_555
Pb9 Y19 3.440046 1_555
Pb9 Y10 3.534885 1_555
Pb9 Y15 3.545706 1_455
Pb9 Y9 3.625370 1_555
Pb9 Y3 3.685799 1_555
Pb9 Y1 3.778641 1_555
Pb10 Pb15 3.315941 1_565
Pb10 Y9 3.499630 1_555
Pb10 Y16 3.568393 1_455
Pb10 Y15 3.568393 1_455
Pb10 Y19 3.642425 1_565
Pb10 Y17 3.642425 1_565
Pb10 Y0 3.669200 1_465
Pb10 Y5 3.829894 1_555
Pb10 Y1 3.829894 1_555
Pb11 Y19 3.432786 1_565
Pb11 Y13 3.440046 1_555
Pb11 Y18 3.534885 1_455
Pb11 Y12 3.545706 1_565
Pb11 Y11 3.625370 1_555
Pb11 Y1 3.685799 1_555
Pb11 Y3 3.778641 1_565
Pb12 Y4 3.432786 1_544
Pb12 Y8 3.440046 1_555
Pb12 Y17 3.534885 1_655
Pb12 Y5 3.545706 1_545
Pb12 Y0 3.625370 1_555
Pb12 Y14 3.685799 1_554
Pb12 Y16 3.778641 1_545
Pb13 Pb2 3.315941 1_555
Pb13 Y0 3.499630 1_565
Pb13 Y1 3.568393 1_555
Pb13 Y5 3.568393 1_555
Pb13 Y10 3.642425 1_555
Pb13 Y8 3.642425 1_555
Pb13 Y9 3.669200 1_555
Pb13 Y15 3.829894 1_555
Pb13 Y16 3.829894 1_555
Pb14 Y8 3.432786 1_556
Pb14 Y4 3.440046 1_555
Pb14 Y7 3.534885 1_555
Pb14 Y2 3.545706 1_655
Pb14 Y6 3.625370 1_555
Pb14 Y16 3.685799 1_556
Pb14 Y14 3.778641 1_555
Pb15 Y0 3.493349 1_555
Pb15 Y10 3.562814 1_555
Pb15 Y8 3.562814 1_555
Pb15 Y19 3.620043 1_555
Pb15 Y17 3.620043 1_555
Pb15 Y9 3.684534 1_555
Pb15 Y1 3.831303 1_545
Pb15 Y5 3.831303 1_545
