# generated using pymatgen
data_Sc5Bi3
_symmetry_space_group_name_H-M   'P 1'
_cell_length_a   7.82967367
_cell_length_b   8.95686832
_cell_length_c   11.33686064
_cell_angle_alpha   90.00000000
_cell_angle_beta   90.00000000
_cell_angle_gamma   90.00000000
_symmetry_Int_Tables_number   1
_chemical_formula_structural   Sc5Bi3
_chemical_formula_sum   'Sc20 Bi12'
_cell_volume   795.04673632
_cell_formula_units_Z   4
loop_
 _symmetry_equiv_pos_site_id
 _symmetry_equiv_pos_as_xyz
  1  'x, y, z'
loop_
 _atom_site_type_symbol
 _atom_site_label
 _atom_site_symmetry_multiplicity
 _atom_site_fract_x
 _atom_site_fract_y
 _atom_site_fract_z
 _atom_site_occupancy
  Sc  Sc0  1  0.19347713  0.06483646  0.06447898  1
  Sc  Sc1  1  0.30652287  0.06483646  0.56447898  1
  Sc  Sc2  1  0.30652287  0.43516354  0.56447898  1
  Sc  Sc3  1  0.32411667  0.75000000  0.26944912  1
  Sc  Sc4  1  0.47904205  0.75000000  0.99397986  1
  Sc  Sc5  1  0.16034228  0.25000000  0.78713782  1
  Sc  Sc6  1  0.80652287  0.93516354  0.93552102  1
  Sc  Sc7  1  0.66034228  0.75000000  0.71286218  1
  Sc  Sc8  1  0.02095795  0.75000000  0.49397986  1
  Sc  Sc9  1  0.69347713  0.93516354  0.43552102  1
  Sc  Sc10  1  0.19347713  0.43516354  0.06447898  1
  Sc  Sc11  1  0.33965772  0.25000000  0.28713782  1
  Sc  Sc12  1  0.17588333  0.75000000  0.76944912  1
  Sc  Sc13  1  0.97904205  0.25000000  0.50602014  1
  Sc  Sc14  1  0.69347713  0.56483646  0.43552102  1
  Sc  Sc15  1  0.67588333  0.25000000  0.73055088  1
  Sc  Sc16  1  0.80652287  0.56483646  0.93552102  1
  Sc  Sc17  1  0.52095795  0.25000000  0.00602014  1
  Sc  Sc18  1  0.82411667  0.25000000  0.23055088  1
  Sc  Sc19  1  0.83965772  0.75000000  0.21286218  1
  Bi  Bi0  1  0.06429094  0.49065370  0.32428610  1
  Bi  Bi1  1  0.56429094  0.50934630  0.17571390  1
  Bi  Bi2  1  0.40193595  0.75000000  0.52590106  1
  Bi  Bi3  1  0.93570906  0.99065370  0.67571390  1
  Bi  Bi4  1  0.43570906  0.00934630  0.82428610  1
  Bi  Bi5  1  0.56429094  0.99065370  0.17571390  1
  Bi  Bi6  1  0.09806405  0.75000000  0.02590106  1
  Bi  Bi7  1  0.43570906  0.49065370  0.82428610  1
  Bi  Bi8  1  0.06429094  0.00934630  0.32428610  1
  Bi  Bi9  1  0.93570906  0.50934630  0.67571390  1
  Bi  Bi10  1  0.59806405  0.25000000  0.47409894  1
  Bi  Bi11  1  0.90193595  0.25000000  0.97409894  1
loop_
_geom_bond_atom_site_label_1
_geom_bond_atom_site_label_2
_geom_bond_distance
_geom_bond_site_symmetry_2
Bi0 Sc8 3.035145 1_555
Bi0 Sc18 3.051504 1_455
Bi0 Sc13 3.055572 1_455
Bi0 Sc11 3.077667 1_555
Bi0 Sc3 3.149774 1_555
Bi0 Sc10 3.153648 1_555
Bi0 Sc19 3.175700 1_455
Bi0 Sc14 3.234377 1_455
Bi0 Sc2 3.355446 1_555
Bi1 Sc17 3.035145 1_555
Bi1 Sc3 3.051504 1_555
Bi1 Sc4 3.055572 1_554
Bi1 Sc19 3.077667 1_555
Bi1 Sc18 3.149774 1_555
Bi1 Sc14 3.153648 1_555
Bi1 Sc11 3.175700 1_555
Bi1 Sc10 3.234377 1_555
Bi1 Sc16 3.355446 1_554
Bi2 Sc7 2.930186 1_555
Bi2 Sc1 2.949827 1_565
Bi2 Sc2 2.949827 1_555
Bi2 Sc3 2.970520 1_555
Bi2 Sc9 3.001837 1_555
Bi2 Sc14 3.001837 1_555
Bi2 Sc8 3.004805 1_555
Bi2 Sc12 3.279652 1_555
Bi3 Sc13 3.035145 1_565
Bi3 Sc12 3.051504 1_655
Bi3 Sc8 3.055572 1_655
Bi3 Sc7 3.077667 1_555
Bi3 Sc15 3.149774 1_565
Bi3 Sc6 3.153648 1_555
Bi3 Sc5 3.175700 1_665
Bi3 Sc1 3.234377 1_665
Bi3 Sc9 3.355446 1_555
Bi4 Sc4 3.035145 1_545
Bi4 Sc15 3.051504 1_555
Bi4 Sc17 3.055572 1_556
Bi4 Sc5 3.077667 1_555
Bi4 Sc12 3.149774 1_545
Bi4 Sc1 3.153648 1_555
Bi4 Sc7 3.175700 1_545
Bi4 Sc6 3.234377 1_545
Bi4 Sc0 3.355446 1_556
Bi5 Sc17 3.035145 1_565
Bi5 Sc3 3.051504 1_555
Bi5 Sc4 3.055572 1_554
Bi5 Sc19 3.077667 1_555
Bi5 Sc18 3.149774 1_565
Bi5 Sc9 3.153648 1_555
Bi5 Sc11 3.175700 1_565
Bi5 Sc0 3.234377 1_565
Bi5 Sc6 3.355446 1_554
Bi6 Sc19 2.930186 1_455
Bi6 Sc10 2.949827 1_555
Bi6 Sc0 2.949827 1_565
Bi6 Sc12 2.970520 1_554
Bi6 Sc16 3.001837 1_454
Bi6 Sc6 3.001837 1_454
Bi6 Sc4 3.004805 1_554
Bi6 Sc3 3.279652 1_555
Bi7 Sc4 3.035145 1_555
Bi7 Sc15 3.051504 1_555
Bi7 Sc17 3.055572 1_556
Bi7 Sc5 3.077667 1_555
Bi7 Sc12 3.149774 1_555
Bi7 Sc2 3.153648 1_555
Bi7 Sc7 3.175700 1_555
Bi7 Sc16 3.234377 1_555
Bi7 Sc10 3.355446 1_556
Bi8 Sc8 3.035145 1_545
Bi8 Sc18 3.051504 1_455
Bi8 Sc13 3.055572 1_455
Bi8 Sc11 3.077667 1_555
Bi8 Sc3 3.149774 1_545
Bi8 Sc0 3.153648 1_555
Bi8 Sc19 3.175700 1_445
Bi8 Sc9 3.234377 1_445
Bi8 Sc1 3.355446 1_555
Bi9 Sc13 3.035145 1_555
Bi9 Sc12 3.051504 1_655
Bi9 Sc8 3.055572 1_655
Bi9 Sc7 3.077667 1_555
Bi9 Sc15 3.149774 1_555
Bi9 Sc16 3.153648 1_555
Bi9 Sc5 3.175700 1_655
Bi9 Sc2 3.234377 1_655
Bi9 Sc14 3.355446 1_555
Bi10 Sc11 2.930186 1_555
Bi10 Sc9 2.949827 1_545
Bi10 Sc14 2.949827 1_555
Bi10 Sc15 2.970520 1_555
Bi10 Sc1 3.001837 1_555
Bi10 Sc2 3.001837 1_555
Bi10 Sc13 3.004805 1_555
Bi10 Sc18 3.279652 1_555
Bi11 Sc5 2.930186 1_655
Bi11 Sc16 2.949827 1_555
Bi11 Sc6 2.949827 1_545
Bi11 Sc18 2.970520 1_556
Bi11 Sc10 3.001837 1_656
Bi11 Sc0 3.001837 1_656
Bi11 Sc17 3.004805 1_556
Bi11 Sc15 3.279652 1_555
