# generated using pymatgen
data_V23Se40
_symmetry_space_group_name_H-M   'P 1'
_cell_length_a   12.54052220
_cell_length_b   12.54052220
_cell_length_c   30.69989667
_cell_angle_alpha   76.45556854
_cell_angle_beta   76.45556854
_cell_angle_gamma   15.67739270
_symmetry_Int_Tables_number   1
_chemical_formula_structural   V23Se40
_chemical_formula_sum   'V23 Se40'
_cell_volume   1267.64637312
_cell_formula_units_Z   1
loop_
 _symmetry_equiv_pos_site_id
 _symmetry_equiv_pos_as_xyz
  1  'x, y, z'
loop_
 _atom_site_type_symbol
 _atom_site_label
 _atom_site_symmetry_multiplicity
 _atom_site_fract_x
 _atom_site_fract_y
 _atom_site_fract_z
 _atom_site_occupancy
  V  V0  1  0.87662500  0.87662500  0.73558900  1
  V  V1  1  0.62490400  0.62490400  0.77247500  1
  V  V2  1  0.37688900  0.37688900  0.61504100  1
  V  V3  1  0.12338400  0.12338400  0.68568600  1
  V  V4  1  0.25057900  0.25057900  0.65057500  1
  V  V5  1  0.87578700  0.87578700  0.52597700  1
  V  V6  1  0.62394200  0.62394200  0.56640900  1
  V  V7  1  0.87661600  0.87661600  0.31431400  1
  V  V8  1  0.12421300  0.12421300  0.47402300  1
  V  V9  1  0.62311100  0.62311100  0.38495900  1
  V  V10  1  0.37605800  0.37605800  0.43359100  1
  V  V11  1  0.37509600  0.37509600  0.22752500  1
  V  V12  1  0.74942100  0.74942100  0.34942500  1
  V  V13  1  0.12337500  0.12337500  0.26441100  1
  V  V14  1  0.62506900  0.62506900  0.17468000  1
  V  V15  1  0.37257100  0.37257100  0.03496700  1
  V  V16  1  0.87480000  0.87480000  0.12293700  1
  V  V17  1  0.12665400  0.12665400  0.08452500  1
  V  V18  1  0.87334600  0.87334600  0.91547500  1
  V  V19  1  0.12520000  0.12520000  0.87706300  1
  V  V20  1  0.50000000  0.50000000  0.00000000  1
  V  V21  1  0.62742900  0.62742900  0.96503300  1
  V  V22  1  0.37493100  0.37493100  0.82532000  1
  Se  Se0  1  0.06397400  0.06397400  0.82024500  1
  Se  Se1  1  0.31008400  0.31008400  0.77269900  1
  Se  Se2  1  0.19367100  0.19367100  0.73166500  1
  Se  Se3  1  0.94195700  0.94195700  0.78181300  1
  Se  Se4  1  0.68246400  0.68246400  0.63055100  1
  Se  Se5  1  0.55667300  0.55667300  0.72318300  1
  Se  Se6  1  0.42906600  0.42906600  0.68122900  1
  Se  Se7  1  0.81808500  0.81808500  0.67105100  1
  Se  Se8  1  0.94247200  0.94247200  0.57685900  1
  Se  Se9  1  0.18983500  0.18983500  0.52813000  1
  Se  Se10  1  0.30837800  0.30837800  0.56892100  1
  Se  Se11  1  0.07107000  0.07107000  0.62088400  1
  Se  Se12  1  0.81016500  0.81016500  0.47187000  1
  Se  Se13  1  0.44075100  0.44075100  0.48106900  1
  Se  Se14  1  0.69162200  0.69162200  0.43107900  1
  Se  Se15  1  0.55924900  0.55924900  0.51893100  1
  Se  Se16  1  0.18191500  0.18191500  0.32894900  1
  Se  Se17  1  0.92893000  0.92893000  0.37911600  1
  Se  Se18  1  0.31753600  0.31753600  0.36944900  1
  Se  Se19  1  0.05752800  0.05752800  0.42314100  1
  Se  Se20  1  0.80632900  0.80632900  0.26833500  1
  Se  Se21  1  0.57093400  0.57093400  0.31877100  1
  Se  Se22  1  0.44332700  0.44332700  0.27681700  1
  Se  Se23  1  0.68991600  0.68991600  0.22730100  1
  Se  Se24  1  0.05804300  0.05804300  0.21818700  1
  Se  Se25  1  0.31374600  0.31374600  0.16966800  1
  Se  Se26  1  0.93602600  0.93602600  0.17975500  1
  Se  Se27  1  0.19204500  0.19204500  0.13041800  1
  Se  Se28  1  0.56043100  0.56043100  0.12169200  1
  Se  Se29  1  0.80657000  0.80657000  0.07215600  1
  Se  Se30  1  0.44298800  0.44298800  0.08062300  1
  Se  Se31  1  0.67878500  0.67878500  0.03031600  1
  Se  Se32  1  0.06763500  0.06763500  0.02071200  1
  Se  Se33  1  0.32121500  0.32121500  0.96968400  1
  Se  Se34  1  0.19343000  0.19343000  0.92784400  1
  Se  Se35  1  0.93236500  0.93236500  0.97928800  1
  Se  Se36  1  0.55701200  0.55701200  0.91937700  1
  Se  Se37  1  0.80795500  0.80795500  0.86958200  1
  Se  Se38  1  0.43956900  0.43956900  0.87830800  1
  Se  Se39  1  0.68625400  0.68625400  0.83033200  1
loop_
_geom_bond_atom_site_label_1
_geom_bond_atom_site_label_2
_geom_bond_distance
_geom_bond_site_symmetry_2
Se0 V1 2.513591 1_455
Se0 V1 2.513591 1_545
Se0 V19 2.571282 1_555
Se1 V0 2.462940 1_455
Se1 V0 2.462940 1_545
Se1 V22 2.537019 1_555
Se2 V3 2.491574 1_555
Se2 V1 2.530254 1_455
Se2 V1 2.530254 1_545
Se2 V4 2.555853 1_555
Se3 V0 2.395407 1_555
Se3 V22 2.535938 1_565
Se3 V22 2.535938 1_655
Se4 V4 2.580579 1_565
Se4 V4 2.580579 1_655
Se4 V3 2.601984 1_655
Se4 V3 2.601984 1_565
Se4 V6 2.710299 1_555
Se5 V3 2.468944 1_655
Se5 V3 2.468944 1_565
Se5 V1 2.525279 1_555
Se6 V0 2.525853 1_545
Se6 V0 2.525853 1_455
Se6 V2 2.656151 1_555
Se7 V4 2.575317 1_565
Se7 V4 2.575317 1_655
Se7 V2 2.613202 1_655
Se7 V2 2.613202 1_565
Se7 V0 2.720997 1_555
Se8 V2 2.459974 1_655
Se8 V2 2.459974 1_565
Se8 V5 2.531627 1_555
Se9 V6 2.465167 1_455
Se9 V6 2.465167 1_545
Se9 V8 2.588096 1_555
Se10 V2 2.458054 1_555
Se10 V5 2.534675 1_545
Se10 V5 2.534675 1_455
Se10 V4 2.577629 1_555
Se11 V6 2.531622 1_455
Se11 V6 2.531622 1_545
Se11 V3 2.621066 1_555
Se12 V10 2.465167 1_565
Se12 V10 2.465167 1_655
Se12 V5 2.588096 1_555
Se13 V10 2.411645 1_555
Se13 V5 2.525715 1_545
Se13 V5 2.525715 1_455
Se14 V9 2.458054 1_555
Se14 V8 2.534675 1_655
Se14 V8 2.534675 1_565
Se14 V12 2.577629 1_555
Se15 V6 2.411645 1_555
Se15 V8 2.525715 1_655
Se15 V8 2.525715 1_565
Se16 V12 2.575317 1_455
Se16 V12 2.575317 1_545
Se16 V9 2.613202 1_545
Se16 V9 2.613202 1_455
Se16 V13 2.720997 1_555
Se17 V10 2.531622 1_655
Se17 V10 2.531622 1_565
Se17 V7 2.621066 1_555
Se18 V12 2.580579 1_545
Se18 V12 2.580579 1_455
Se18 V7 2.601984 1_455
Se18 V7 2.601984 1_545
Se18 V10 2.710299 1_555
Se19 V9 2.459974 1_455
Se19 V9 2.459974 1_545
Se19 V8 2.531627 1_555
Se20 V7 2.491574 1_555
Se20 V11 2.530254 1_655
Se20 V11 2.530254 1_565
Se20 V12 2.555853 1_555
Se21 V13 2.525853 1_655
Se21 V13 2.525853 1_565
Se21 V9 2.656151 1_555
Se22 V7 2.468944 1_455
Se22 V7 2.468944 1_545
Se22 V11 2.525279 1_555
Se23 V13 2.462940 1_565
Se23 V13 2.462940 1_655
Se23 V14 2.537019 1_555
Se24 V13 2.395407 1_555
Se24 V14 2.535938 1_455
Se24 V14 2.535938 1_545
Se25 V16 2.501136 1_455
Se25 V16 2.501136 1_545
Se25 V11 2.599750 1_555
Se26 V11 2.513591 1_565
Se26 V11 2.513591 1_655
Se26 V16 2.571282 1_555
Se27 V17 2.388970 1_555
Se27 V14 2.543983 1_545
Se27 V14 2.543983 1_455
Se28 V17 2.459044 1_565
Se28 V17 2.459044 1_655
Se28 V14 2.541826 1_555
Se29 V15 2.456170 1_655
Se29 V15 2.456170 1_565
Se29 V16 2.560080 1_555
Se30 V15 2.487024 1_555
Se30 V16 2.538226 1_545
Se30 V16 2.538226 1_455
Se30 V20 2.544618 1_555
Se31 V17 2.520592 1_565
Se31 V17 2.520592 1_655
Se31 V21 2.618045 1_554
Se32 V20 2.580483 1_545
Se32 V20 2.580483 1_455
Se32 V21 2.617939 1_544
Se32 V21 2.617939 1_454
Se32 V17 2.710462 1_555
Se33 V18 2.520592 1_545
Se33 V18 2.520592 1_455
Se33 V15 2.618045 1_556
Se34 V21 2.456170 1_545
Se34 V21 2.456170 1_455
Se34 V19 2.560080 1_555
Se35 V20 2.580483 1_656
Se35 V20 2.580483 1_566
Se35 V15 2.617939 1_656
Se35 V15 2.617939 1_566
Se35 V18 2.710462 1_555
Se36 V21 2.487024 1_555
Se36 V19 2.538226 1_655
Se36 V19 2.538226 1_565
Se36 V20 2.544618 1_556
Se37 V18 2.388970 1_555
Se37 V22 2.543983 1_565
Se37 V22 2.543983 1_655
Se38 V18 2.459044 1_455
Se38 V18 2.459044 1_545
Se38 V22 2.541826 1_555
Se39 V19 2.501136 1_565
Se39 V19 2.501136 1_655
Se39 V1 2.599750 1_555
