# generated using pymatgen
data_MnNiSb
_symmetry_space_group_name_H-M   'P 1'
_cell_length_a   4.16444635
_cell_length_b   4.16444540
_cell_length_c   4.16444506
_cell_angle_alpha   59.99999459
_cell_angle_beta   60.00000201
_cell_angle_gamma   59.99998906
_symmetry_Int_Tables_number   1
_chemical_formula_structural   MnNiSb
_chemical_formula_sum   'Mn1 Ni1 Sb1'
_cell_volume   51.06890388
_cell_formula_units_Z   1
loop_
 _symmetry_equiv_pos_site_id
 _symmetry_equiv_pos_as_xyz
  1  'x, y, z'
loop_
 _atom_site_type_symbol
 _atom_site_label
 _atom_site_symmetry_multiplicity
 _atom_site_fract_x
 _atom_site_fract_y
 _atom_site_fract_z
 _atom_site_occupancy
  Mn  Mn0  1  0.25000000  0.25000000  0.25000000  1
  Ni  Ni0  1  -0.00000000  -0.00000000  0.00000000  1
  Sb  Sb0  1  0.75000000  0.75000000  0.75000000  1
loop_
_geom_bond_atom_site_label_1
_geom_bond_atom_site_label_2
_geom_bond_distance
_geom_bond_site_symmetry_2
Mn0 Ni0 2.550191 1_565
Mn0 Ni0 2.550191 1_556
Mn0 Ni0 2.550192 1_555
Mn0 Ni0 2.550192 1_655
Mn0 Sb0 2.944707 1_455
Mn0 Sb0 2.944707 1_544
Mn0 Sb0 2.944707 1_454
Mn0 Sb0 2.944707 1_545
Mn0 Sb0 2.944708 1_445
Mn0 Sb0 2.944708 1_554
Ni0 Sb0 2.550191 1_454
Ni0 Sb0 2.550191 1_445
Ni0 Sb0 2.550192 1_444
Ni0 Sb0 2.550192 1_544
