# generated using pymatgen
data_Na2UI6
_symmetry_space_group_name_H-M   'P 1'
_cell_length_a   9.13890751
_cell_length_b   9.18623825
_cell_length_c   34.76501956
_cell_angle_alpha   51.45269435
_cell_angle_beta   53.27951896
_cell_angle_gamma   54.11757830
_symmetry_Int_Tables_number   1
_chemical_formula_structural   Na2UI6
_chemical_formula_sum   'Na8 U4 I24'
_cell_volume   1720.25361401
_cell_formula_units_Z   4
loop_
 _symmetry_equiv_pos_site_id
 _symmetry_equiv_pos_as_xyz
  1  'x, y, z'
loop_
 _atom_site_type_symbol
 _atom_site_label
 _atom_site_symmetry_multiplicity
 _atom_site_fract_x
 _atom_site_fract_y
 _atom_site_fract_z
 _atom_site_occupancy
  Na  Na0  1  0.49639700  0.49812900  0.12450800  1
  Na  Na1  1  0.68115100  0.67515000  0.17132300  1
  Na  Na2  1  0.49624900  0.49658600  0.37497200  1
  Na  Na3  1  0.68022600  0.67449600  0.42168800  1
  Na  Na4  1  0.49484000  0.50100900  0.62364800  1
  Na  Na5  1  0.31730900  0.32677300  0.83036700  1
  Na  Na6  1  0.68298400  0.67928100  0.67028200  1
  Na  Na7  1  0.67811700  0.66962200  0.92141700  1
  U  U0  1  0.99512500  0.00228300  0.00045200  1
  U  U1  1  0.00110500  0.00248200  0.24859600  1
  U  U2  1  0.00089700  0.00241100  0.49885200  1
  U  U3  1  0.00871800  0.99698400  0.74886500  1
  I  I0  1  0.09105200  0.37165400  0.19151000  1
  I  I1  1  0.36329600  0.77517700  0.02338800  1
  I  I2  1  0.76668900  0.08635400  0.09838400  1
  I  I3  1  0.24761700  0.90193200  0.15332400  1
  I  I4  1  0.64129700  0.23894700  0.22427800  1
  I  I5  1  0.09037000  0.37242400  0.44149200  1
  I  I6  1  0.89653900  0.63460300  0.06093400  1
  I  I7  1  0.36347000  0.77606400  0.27325600  1
  I  I8  1  0.76659200  0.08525800  0.34781800  1
  I  I9  1  0.24709000  0.90311600  0.40373300  1
  I  I10  1  0.64133800  0.24082800  0.47387400  1
  I  I11  1  0.09119500  0.37170300  0.69175800  1
  I  I12  1  0.89571900  0.63810600  0.31050100  1
  I  I13  1  0.36360700  0.77544900  0.52333500  1
  I  I14  1  0.76706400  0.08627900  0.59725100  1
  I  I15  1  0.24752000  0.90428600  0.65281600  1
  I  I16  1  0.63152400  0.24262500  0.72474800  1
  I  I17  1  0.09111900  0.37148800  0.94060600  1
  I  I18  1  0.89715400  0.63679800  0.56063900  1
  I  I19  1  0.36654400  0.75968700  0.77500100  1
  I  I20  1  0.75824000  0.08358800  0.84671700  1
  I  I21  1  0.24297600  0.91065500  0.90332600  1
  I  I22  1  0.64555300  0.23244600  0.97553100  1
  I  I23  1  0.90832000  0.63032600  0.80956100  1
loop_
_geom_bond_atom_site_label_1
_geom_bond_atom_site_label_2
_geom_bond_distance
_geom_bond_site_symmetry_2
I0 U1 3.007344 1_555
I0 Na1 3.280339 1_455
I0 Na0 3.442688 1_555
I1 U0 3.035728 1_465
I1 Na7 3.256118 1_554
I1 Na0 3.263272 1_555
I2 U0 3.071424 1_555
I2 Na1 3.234675 1_545
I2 Na0 3.446846 1_555
I3 U1 3.057678 1_565
I3 Na0 3.457456 1_555
I3 Na1 3.477571 1_555
I4 U1 2.984672 1_655
I4 Na0 3.310146 1_555
I4 Na1 3.360570 1_555
I5 U2 3.009828 1_555
I5 Na3 3.276565 1_455
I5 Na2 3.438324 1_555
I6 U0 3.015238 1_565
I6 Na1 3.260338 1_555
I6 Na0 3.476362 1_555
I7 U1 3.020961 1_565
I7 Na1 3.237659 1_555
I7 Na2 3.276071 1_555
I8 U1 3.096506 1_655
I8 Na3 3.232092 1_545
I8 Na2 3.462057 1_555
I9 U2 3.047242 1_565
I9 Na3 3.470566 1_555
I9 Na2 3.477631 1_555
I10 U2 2.992308 1_655
I10 Na2 3.291223 1_555
I10 Na3 3.342016 1_555
I11 U3 3.015538 1_545
I11 Na6 3.286851 1_455
I11 Na4 3.436773 1_555
I12 U1 3.014232 1_665
I12 Na3 3.266069 1_555
I12 Na2 3.491223 1_555
I13 U2 3.019898 1_565
I13 Na3 3.229772 1_555
I13 Na4 3.233511 1_555
I14 U2 3.078205 1_655
I14 Na6 3.196742 1_545
I14 Na4 3.473131 1_555
I15 U3 3.047758 1_555
I15 Na4 3.462160 1_555
I15 Na6 3.487341 1_555
I16 U3 3.107642 1_645
I16 Na5 3.263834 1_555
I16 Na4 3.305256 1_555
I16 Na6 3.402469 1_555
I17 U0 3.018608 1_456
I17 Na5 3.259234 1_555
I17 Na7 3.287558 1_455
I18 U2 3.016481 1_665
I18 Na6 3.248010 1_555
I18 Na4 3.494611 1_555
I19 U3 2.999916 1_555
I19 Na6 3.227996 1_555
I19 Na5 3.353277 1_555
I20 U3 3.061292 1_645
I20 Na7 3.228547 1_545
I20 Na5 3.486457 1_555
I21 U0 3.066222 1_466
I21 Na5 3.225924 1_565
I21 Na7 3.470711 1_555
I22 U0 2.921612 1_556
I22 Na7 3.327364 1_555
I23 U3 3.014767 1_655
I23 Na7 3.279378 1_555
I23 Na5 3.281878 1_655
