# generated using pymatgen
data_Y5Ga3
_symmetry_space_group_name_H-M   'P 1'
_cell_length_a   7.64557430
_cell_length_b   7.64557430
_cell_length_c   14.16449461
_cell_angle_alpha   90.00000000
_cell_angle_beta   90.00000000
_cell_angle_gamma   90.00000000
_symmetry_Int_Tables_number   1
_chemical_formula_structural   Y5Ga3
_chemical_formula_sum   'Y20 Ga12'
_cell_volume   827.98278985
_cell_formula_units_Z   4
loop_
 _symmetry_equiv_pos_site_id
 _symmetry_equiv_pos_as_xyz
  1  'x, y, z'
loop_
 _atom_site_type_symbol
 _atom_site_label
 _atom_site_symmetry_multiplicity
 _atom_site_fract_x
 _atom_site_fract_y
 _atom_site_fract_z
 _atom_site_occupancy
  Y  Y0  1  0.83240248  0.82834671  0.89645989  1
  Y  Y1  1  0.17165329  0.16759752  0.60354011  1
  Y  Y2  1  0.83240248  0.17165329  0.39645989  1
  Y  Y3  1  0.16759752  0.82834671  0.39645989  1
  Y  Y4  1  0.32834671  0.33240248  0.39645989  1
  Y  Y5  1  0.82834671  0.16759752  0.10354011  1
  Y  Y6  1  0.32834671  0.66759752  0.89645989  1
  Y  Y7  1  0.17165329  0.83240248  0.10354011  1
  Y  Y8  1  0.50000000  -0.00000000  0.75376800  1
  Y  Y9  1  0.00000000  0.50000000  0.24623200  1
  Y  Y10  1  0.33240248  0.67165329  0.60354011  1
  Y  Y11  1  0.66759752  0.67165329  0.10354011  1
  Y  Y12  1  0.66759752  0.32834671  0.60354011  1
  Y  Y13  1  0.00000000  0.50000000  0.74623200  1
  Y  Y14  1  0.82834671  0.83240248  0.60354011  1
  Y  Y15  1  0.67165329  0.33240248  0.89645989  1
  Y  Y16  1  0.16759752  0.17165329  0.89645989  1
  Y  Y17  1  0.50000000  -0.00000000  0.25376800  1
  Y  Y18  1  0.67165329  0.66759752  0.39645989  1
  Y  Y19  1  0.33240248  0.32834671  0.10354011  1
  Ga  Ga0  1  0.62170915  0.37829085  0.25000000  1
  Ga  Ga1  1  0.37829085  0.62170915  0.25000000  1
  Ga  Ga2  1  0.00000000  0.50000000  0.00158660  1
  Ga  Ga3  1  0.50000000  -0.00000000  0.99841340  1
  Ga  Ga4  1  0.12170915  0.12170915  0.25000000  1
  Ga  Ga5  1  0.37829085  0.37829085  0.75000000  1
  Ga  Ga6  1  0.50000000  -0.00000000  0.49841340  1
  Ga  Ga7  1  0.00000000  0.50000000  0.50158660  1
  Ga  Ga8  1  0.12170915  0.87829085  0.75000000  1
  Ga  Ga9  1  0.87829085  0.87829085  0.25000000  1
  Ga  Ga10  1  0.62170915  0.62170915  0.75000000  1
  Ga  Ga11  1  0.87829085  0.12170915  0.75000000  1
loop_
_geom_bond_atom_site_label_1
_geom_bond_atom_site_label_2
_geom_bond_distance
_geom_bond_site_symmetry_2
Y0 Y11 3.409763 1_556
Y0 Y8 3.502313 1_565
Y0 Y13 3.531573 1_655
Y1 Y4 3.409763 1_555
Y1 Y13 3.502313 1_555
Y1 Y8 3.531573 1_555
Y2 Y9 3.531573 1_655
Y3 Y9 3.531573 1_555
Y4 Y9 3.531573 1_555
Y5 Y9 3.502313 1_655
Y6 Y7 3.409763 1_556
Y6 Y8 3.502313 1_565
Y7 Y9 3.502313 1_555
Y10 Y3 3.409763 1_555
Y10 Y13 3.502313 1_555
Y10 Y8 3.531573 1_565
Y11 Y9 3.502313 1_655
Y11 Y17 3.531573 1_565
Y12 Y2 3.409763 1_555
Y12 Y13 3.502313 1_655
Y12 Y8 3.531573 1_555
Y13 Y14 3.502313 1_455
Y13 Y15 3.531573 1_455
Y13 Y16 3.531573 1_555
Y13 Y6 3.531573 1_555
Y14 Y18 3.409763 1_555
Y14 Y8 3.531573 1_565
Y15 Y5 3.409763 1_556
Y15 Y8 3.502313 1_555
Y16 Y19 3.409763 1_556
Y16 Y8 3.502313 1_555
Y17 Y18 3.502313 1_545
Y17 Y3 3.502313 1_545
Y17 Y2 3.502313 1_555
Y17 Y4 3.502313 1_555
Y17 Y7 3.531573 1_545
Y17 Y5 3.531573 1_555
Y17 Y19 3.531573 1_555
Y18 Y9 3.531573 1_655
Y19 Y9 3.502313 1_555
Ga0 Ga1 2.631954 1_555
Ga0 Y9 3.038727 1_655
Ga0 Y17 3.038727 1_555
Ga0 Y18 3.056478 1_555
Ga0 Y19 3.056478 1_555
Ga0 Y5 3.065053 1_555
Ga0 Y2 3.065053 1_555
Ga0 Y4 3.075301 1_555
Ga0 Y11 3.075301 1_555
Ga1 Y17 3.038727 1_565
Ga1 Y9 3.038727 1_555
Ga1 Y4 3.056478 1_555
Ga1 Y11 3.056478 1_555
Ga1 Y3 3.065053 1_555
Ga1 Y7 3.065053 1_555
Ga1 Y18 3.075301 1_555
Ga1 Y19 3.075301 1_555
Ga2 Y15 3.187688 1_454
Ga2 Y16 3.187688 1_554
Ga2 Y6 3.187688 1_554
Ga2 Y0 3.187688 1_454
Ga2 Y5 3.204153 1_455
Ga2 Y11 3.204153 1_455
Ga2 Y19 3.204153 1_555
Ga2 Y7 3.204153 1_555
Ga2 Y9 3.465278 1_555
Ga2 Y13 3.616969 1_554
Ga3 Y11 3.187688 1_546
Ga3 Y7 3.187688 1_546
Ga3 Y19 3.187688 1_556
Ga3 Y5 3.187688 1_556
Ga3 Y6 3.204153 1_545
Ga3 Y16 3.204153 1_555
Ga3 Y0 3.204153 1_545
Ga3 Y15 3.204153 1_555
Ga3 Y8 3.465278 1_555
Ga3 Y17 3.616969 1_556
Ga4 Ga9 2.631954 1_445
Ga4 Y17 3.038727 1_555
Ga4 Y9 3.038727 1_555
Ga4 Y7 3.056478 1_545
Ga4 Y2 3.056478 1_455
Ga4 Y19 3.065053 1_555
Ga4 Y4 3.065053 1_555
Ga4 Y3 3.075301 1_545
Ga4 Y5 3.075301 1_455
Ga5 Y13 3.038727 1_555
Ga5 Y8 3.038727 1_555
Ga5 Y12 3.056478 1_555
Ga5 Y6 3.056478 1_555
Ga5 Y1 3.065053 1_555
Ga5 Y16 3.065053 1_555
Ga5 Y15 3.075301 1_555
Ga5 Y10 3.075301 1_555
Ga6 Y10 3.187688 1_545
Ga6 Y1 3.187688 1_555
Ga6 Y14 3.187688 1_545
Ga6 Y12 3.187688 1_555
Ga6 Y18 3.204153 1_545
Ga6 Y3 3.204153 1_545
Ga6 Y4 3.204153 1_555
Ga6 Y2 3.204153 1_555
Ga6 Y17 3.465278 1_555
Ga6 Y8 3.616969 1_555
Ga7 Y2 3.187688 1_455
Ga7 Y4 3.187688 1_555
Ga7 Y18 3.187688 1_455
Ga7 Y3 3.187688 1_555
Ga7 Y12 3.204153 1_455
Ga7 Y14 3.204153 1_455
Ga7 Y10 3.204153 1_555
Ga7 Y1 3.204153 1_555
Ga7 Y13 3.465278 1_555
Ga7 Y9 3.616969 1_555
Ga8 Y8 3.038727 1_565
Ga8 Y13 3.038727 1_555
Ga8 Y1 3.056478 1_565
Ga8 Y0 3.056478 1_455
Ga8 Y6 3.065053 1_555
Ga8 Y10 3.065053 1_555
Ga8 Y14 3.075301 1_455
Ga8 Y16 3.075301 1_565
Ga9 Y17 3.038727 1_565
Ga9 Y9 3.038727 1_655
Ga9 Y5 3.056478 1_565
Ga9 Y3 3.056478 1_655
Ga9 Y18 3.065053 1_555
Ga9 Y11 3.065053 1_555
Ga9 Y2 3.075301 1_565
Ga9 Y7 3.075301 1_655
Ga10 Ga5 2.631954 1_555
Ga10 Y8 3.038727 1_565
Ga10 Y13 3.038727 1_655
Ga10 Y15 3.056478 1_555
Ga10 Y10 3.056478 1_555
Ga10 Y14 3.065053 1_555
Ga10 Y0 3.065053 1_555
Ga10 Y12 3.075301 1_555
Ga10 Y6 3.075301 1_555
Ga11 Ga8 2.631954 1_645
Ga11 Y13 3.038727 1_655
Ga11 Y8 3.038727 1_555
Ga11 Y16 3.056478 1_655
Ga11 Y14 3.056478 1_545
Ga11 Y15 3.065053 1_555
Ga11 Y12 3.065053 1_555
Ga11 Y0 3.075301 1_545
Ga11 Y1 3.075301 1_655
