# generated using pymatgen
data_Ag2Hg7(P4I3)2
_symmetry_space_group_name_H-M   'P 1'
_cell_length_a   8.75598763
_cell_length_b   8.75598763
_cell_length_c   8.53356982
_cell_angle_alpha   80.29614334
_cell_angle_beta   80.29614334
_cell_angle_gamma   79.78256598
_symmetry_Int_Tables_number   1
_chemical_formula_structural   Ag2Hg7(P4I3)2
_chemical_formula_sum   'Ag2 Hg7 P8 I6'
_cell_volume   628.14154515
_cell_formula_units_Z   1
loop_
 _symmetry_equiv_pos_site_id
 _symmetry_equiv_pos_as_xyz
  1  'x, y, z'
loop_
 _atom_site_type_symbol
 _atom_site_label
 _atom_site_symmetry_multiplicity
 _atom_site_fract_x
 _atom_site_fract_y
 _atom_site_fract_z
 _atom_site_occupancy
  Ag  Ag0  1  0.50000000  0.00000000  0.50000000  1
  Ag  Ag1  1  0.00000000  0.50000000  0.50000000  1
  Hg  Hg0  1  0.36450200  0.72959300  0.23450600  1
  Hg  Hg1  1  0.72796300  0.72796300  0.86776200  1
  Hg  Hg2  1  0.63549800  0.27040700  0.76549400  1
  Hg  Hg3  1  0.27203700  0.27203700  0.13223800  1
  Hg  Hg4  1  0.27040700  0.63549800  0.76549400  1
  Hg  Hg5  1  0.00000000  0.00000000  0.00000000  1
  Hg  Hg6  1  0.72959300  0.36450200  0.23450600  1
  P  P0  1  0.23640200  0.92150400  0.42102300  1
  P  P1  1  0.43841200  0.43841200  0.93432700  1
  P  P2  1  0.56158800  0.56158800  0.06567300  1
  P  P3  1  0.08527300  0.08527300  0.25776800  1
  P  P4  1  0.07849600  0.76359800  0.57897700  1
  P  P5  1  0.92150400  0.23640200  0.42102300  1
  P  P6  1  0.76359800  0.07849600  0.57897700  1
  P  P7  1  0.91472700  0.91472700  0.74223200  1
  I  I0  1  0.96241500  0.35992200  0.85173900  1
  I  I1  1  0.64623400  0.64623400  0.53507000  1
  I  I2  1  0.03758500  0.64007800  0.14826100  1
  I  I3  1  0.35992200  0.96241500  0.85173900  1
  I  I4  1  0.64007800  0.03758500  0.14826100  1
  I  I5  1  0.35376600  0.35376600  0.46493000  1
loop_
_geom_bond_atom_site_label_1
_geom_bond_atom_site_label_2
_geom_bond_distance
_geom_bond_site_symmetry_2
Ag0 P0 2.738081 1_545
Ag0 P6 2.738081 1_555
Ag0 I3 3.031718 1_545
Ag0 I4 3.031718 1_555
Ag0 I5 3.119869 1_555
Ag0 I1 3.119869 1_545
Ag1 P4 2.738081 1_555
Ag1 P5 2.738081 1_455
Ag1 I0 3.031718 1_455
Ag1 I2 3.031718 1_555
Ag1 I5 3.119869 1_555
Ag1 I1 3.119869 1_455
Hg0 P2 2.488664 1_555
Hg0 P0 2.499246 1_555
Hg0 I2 3.324216 1_555
Hg1 P2 2.488136 1_556
Hg1 P7 2.502716 1_555
Hg1 I1 3.261274 1_555
Hg2 P1 2.488664 1_555
Hg2 P6 2.499246 1_555
Hg2 I0 3.324216 1_555
Hg3 P1 2.488136 1_554
Hg3 P3 2.502716 1_555
Hg3 I5 3.261274 1_555
Hg4 P1 2.488664 1_555
Hg4 P4 2.499246 1_555
Hg4 I3 3.324216 1_555
Hg5 P3 2.694194 1_555
Hg5 P7 2.694194 1_444
Hg5 I0 3.173182 1_454
Hg5 I3 3.173182 1_544
Hg5 I4 3.173182 1_455
Hg5 I2 3.173182 1_545
Hg6 P2 2.488664 1_555
Hg6 P5 2.499246 1_555
Hg6 I4 3.324216 1_555
P0 P3 2.241209 1_565
P0 P4 2.249852 1_555
P1 P2 2.193278 1_556
P3 P5 2.241209 1_455
P4 P7 2.241209 1_455
P5 P6 2.249852 1_555
P6 P7 2.241209 1_545
