# generated using pymatgen
data_CdI2
_symmetry_space_group_name_H-M   'P 1'
_cell_length_a   4.34280349
_cell_length_b   4.34280349
_cell_length_c   110.42134700
_cell_angle_alpha   90.00000000
_cell_angle_beta   90.00000000
_cell_angle_gamma   119.99999225
_symmetry_Int_Tables_number   1
_chemical_formula_structural   CdI2
_chemical_formula_sum   'Cd15 I30'
_cell_volume   1803.53287399
_cell_formula_units_Z   15
loop_
 _symmetry_equiv_pos_site_id
 _symmetry_equiv_pos_as_xyz
  1  'x, y, z'
loop_
 _atom_site_type_symbol
 _atom_site_label
 _atom_site_symmetry_multiplicity
 _atom_site_fract_x
 _atom_site_fract_y
 _atom_site_fract_z
 _atom_site_occupancy
  Cd  Cd0  1  0.00000000  0.00000000  0.01666800  1
  Cd  Cd1  1  0.00000000  0.00000000  0.81666200  1
  Cd  Cd2  1  0.33333300  0.66666700  0.61666200  1
  Cd  Cd3  1  0.33333300  0.66666700  0.41667000  1
  Cd  Cd4  1  0.00000000  0.00000000  0.68332900  1
  Cd  Cd5  1  0.33333300  0.66666700  0.48333700  1
  Cd  Cd6  1  0.00000000  0.00000000  0.28333800  1
  Cd  Cd7  1  0.00000000  0.00000000  0.34999800  1
  Cd  Cd8  1  0.33333300  0.66666700  0.21666000  1
  Cd  Cd9  1  0.33333300  0.66666700  0.08332800  1
  Cd  Cd10  1  0.00000000  0.00000000  0.15000100  1
  Cd  Cd11  1  0.33333300  0.66666700  0.88333300  1
  Cd  Cd12  1  0.33333300  0.66666700  0.74999500  1
  Cd  Cd13  1  0.33333300  0.66666700  0.94999200  1
  Cd  Cd14  1  0.00000000  0.00000000  0.55001100  1
  I  I0  1  0.66666700  0.33333300  0.56565900  1
  I  I1  1  0.33333300  0.66666700  0.80101800  1
  I  I2  1  0.66666700  0.33333300  0.16565500  1
  I  I3  1  0.66666700  0.33333300  0.36565400  1
  I  I4  1  0.66666700  0.33333300  0.89899000  1
  I  I5  1  0.66666700  0.33333300  0.96564300  1
  I  I6  1  0.66666700  0.33333300  0.23231900  1
  I  I7  1  0.33333300  0.66666700  0.53435900  1
  I  I8  1  0.00000000  0.00000000  0.40101200  1
  I  I9  1  0.66666700  0.33333300  0.69898500  1
  I  I10  1  0.00000000  0.00000000  0.86768300  1
  I  I11  1  0.66666700  0.33333300  0.76565100  1
  I  I12  1  0.33333300  0.66666700  0.66768200  1
  I  I13  1  0.00000000  0.00000000  0.46768600  1
  I  I14  1  0.00000000  0.00000000  0.73434200  1
  I  I15  1  0.66666700  0.33333300  0.63231200  1
  I  I16  1  0.00000000  0.00000000  0.20101000  1
  I  I17  1  0.66666700  0.33333300  0.09898400  1
  I  I18  1  0.00000000  0.00000000  0.60100200  1
  I  I19  1  0.33333300  0.66666700  0.00101900  1
  I  I20  1  0.33333300  0.66666700  0.13435300  1
  I  I21  1  0.00000000  0.00000000  0.06767300  1
  I  I22  1  0.66666700  0.33333300  0.03232300  1
  I  I23  1  0.33333300  0.66666700  0.26768500  1
  I  I24  1  0.66666700  0.33333300  0.29899200  1
  I  I25  1  0.33333300  0.66666700  0.33435000  1
  I  I26  1  0.00000000  0.00000000  0.93433400  1
  I  I27  1  0.66666700  0.33333300  0.83231900  1
  I  I28  1  0.66666700  0.33333300  0.43232200  1
  I  I29  1  0.66666700  0.33333300  0.49899600  1
loop_
_geom_bond_atom_site_label_1
_geom_bond_atom_site_label_2
_geom_bond_distance
_geom_bond_site_symmetry_2
Cd0 I19 3.045088 1_545
Cd0 I19 3.045091 1_445
Cd0 I19 3.045091 1_555
Cd0 I22 3.045464 1_455
Cd0 I22 3.045468 1_445
Cd0 I22 3.045468 1_555
Cd1 I1 3.044775 1_545
Cd1 I1 3.044778 1_555
Cd1 I1 3.044778 1_445
Cd1 I27 3.045590 1_455
Cd1 I27 3.045593 1_445
Cd1 I27 3.045593 1_555
Cd2 I15 3.045151 1_455
Cd2 I15 3.045151 1_565
Cd2 I15 3.045157 1_555
Cd2 I18 3.045778 1_565
Cd2 I18 3.045781 1_665
Cd2 I18 3.045781 1_555
Cd3 I28 3.045276 1_455
Cd3 I28 3.045276 1_565
Cd3 I28 3.045282 1_555
Cd3 I8 3.045652 1_565
Cd3 I8 3.045656 1_555
Cd3 I8 3.045656 1_665
Cd4 I12 3.044963 1_545
Cd4 I12 3.044966 1_445
Cd4 I12 3.044966 1_555
Cd4 I9 3.045527 1_455
Cd4 I9 3.045530 1_555
Cd4 I9 3.045530 1_445
Cd5 I13 3.045213 1_565
Cd5 I13 3.045217 1_555
Cd5 I13 3.045217 1_665
Cd5 I29 3.045715 1_455
Cd5 I29 3.045715 1_565
Cd5 I29 3.045721 1_555
Cd6 I23 3.045339 1_545
Cd6 I23 3.045342 1_445
Cd6 I23 3.045342 1_555
Cd6 I24 3.045401 1_455
Cd6 I24 3.045405 1_555
Cd6 I24 3.045405 1_445
Cd7 I25 3.045025 1_545
Cd7 I25 3.045029 1_445
Cd7 I25 3.045029 1_555
Cd7 I3 3.045527 1_455
Cd7 I3 3.045530 1_445
Cd7 I3 3.045530 1_555
Cd8 I16 3.045151 1_565
Cd8 I16 3.045154 1_555
Cd8 I16 3.045154 1_665
Cd8 I6 3.045715 1_565
Cd8 I6 3.045715 1_455
Cd8 I6 3.045721 1_555
Cd9 I21 3.045464 1_565
Cd9 I21 3.045468 1_555
Cd9 I21 3.045468 1_665
Cd9 I17 3.045527 1_455
Cd9 I17 3.045527 1_565
Cd9 I17 3.045533 1_555
Cd10 I20 3.045025 1_545
Cd10 I20 3.045029 1_555
Cd10 I20 3.045029 1_445
Cd10 I2 3.045401 1_455
Cd10 I2 3.045405 1_445
Cd10 I2 3.045405 1_555
Cd11 I10 3.045151 1_565
Cd11 I10 3.045154 1_665
Cd11 I10 3.045154 1_555
Cd11 I4 3.045590 1_565
Cd11 I4 3.045590 1_455
Cd11 I4 3.045596 1_555
Cd12 I14 3.045339 1_565
Cd12 I14 3.045342 1_555
Cd12 I14 3.045342 1_665
Cd12 I11 3.045527 1_565
Cd12 I11 3.045527 1_455
Cd12 I11 3.045533 1_555
Cd13 I5 3.045214 1_455
Cd13 I5 3.045214 1_565
Cd13 I5 3.045220 1_555
Cd13 I26 3.045652 1_565
Cd13 I26 3.045656 1_665
Cd13 I26 3.045656 1_555
Cd14 I0 3.045025 1_455
Cd14 I0 3.045029 1_445
Cd14 I0 3.045029 1_555
Cd14 I7 3.045276 1_545
Cd14 I7 3.045279 1_555
Cd14 I7 3.045279 1_445
