# generated using pymatgen
data_LiAl3Si9(N7O)2
_symmetry_space_group_name_H-M   'P 1'
_cell_length_a   5.71185100
_cell_length_b   7.86513597
_cell_length_c   7.87685235
_cell_angle_alpha   60.36749327
_cell_angle_beta   89.76608387
_cell_angle_gamma   89.87415534
_symmetry_Int_Tables_number   1
_chemical_formula_structural   LiAl3Si9(N7O)2
_chemical_formula_sum   'Li1 Al3 Si9 N14 O2'
_cell_volume   307.58076290
_cell_formula_units_Z   1
loop_
 _symmetry_equiv_pos_site_id
 _symmetry_equiv_pos_as_xyz
  1  'x, y, z'
loop_
 _atom_site_type_symbol
 _atom_site_label
 _atom_site_symmetry_multiplicity
 _atom_site_fract_x
 _atom_site_fract_y
 _atom_site_fract_z
 _atom_site_occupancy
  Li  Li0  1  0.27675900  0.33201000  0.33758000  1
  Al  Al0  1  0.54426300  0.75498400  0.16640700  1
  Al  Al1  1  0.84359900  0.42277000  0.49826700  1
  Al  Al2  1  0.33896900  0.57629500  0.90873800  1
  Si  Si0  1  0.85013800  0.48250000  0.08002200  1
  Si  Si1  1  0.54372900  0.17107700  0.08192600  1
  Si  Si2  1  0.83842500  0.08368500  0.42732800  1
  Si  Si3  1  0.05320200  0.83189000  0.25290500  1
  Si  Si4  1  0.34052900  0.91093000  0.51389300  1
  Si  Si5  1  0.53963200  0.09426600  0.74108100  1
  Si  Si6  1  0.03891800  0.91620000  0.83199800  1
  Si  Si7  1  0.33248300  0.51209100  0.57223500  1
  Si  Si8  1  0.05241100  0.24958700  0.92261500  1
  N  N0  1  0.04486500  0.99624200  0.00421700  1
  N  N1  1  0.79696600  0.31553400  0.00113100  1
  N  N2  1  0.91330900  0.33219100  0.32429800  1
  N  N3  1  0.54669400  0.01397400  0.98775400  1
  N  N4  1  0.54317700  0.34575100  0.59197900  1
  N  N5  1  0.56349500  0.05123900  0.34268900  1
  N  N6  1  0.06581500  0.94999400  0.39195900  1
  N  N7  1  0.28255500  0.66819200  0.32121800  1
  N  N8  1  0.79887100  0.01486400  0.67557700  1
  N  N9  1  0.29706700  0.99257400  0.68481000  1
  N  N10  1  0.41382400  0.67043000  0.65277800  1
  N  N11  1  0.07467100  0.38572600  0.67238200  1
  N  N12  1  0.05271500  0.66330200  0.95509900  1
  N  N13  1  0.29308400  0.30915200  0.01940100  1
  O  O0  1  0.58070300  0.59586900  0.05811800  1
  O  O1  1  0.80793300  0.69001400  0.31492800  1
loop_
_geom_bond_atom_site_label_1
_geom_bond_atom_site_label_2
_geom_bond_distance
_geom_bond_site_symmetry_2
Li0 N2 2.078995 1_455
Li0 N4 2.565661 1_555
Li0 N7 2.583104 1_555
Al0 N3 1.815261 1_564
Al0 O1 1.821471 1_555
Al0 N7 1.831383 1_555
Al0 O0 1.841206 1_555
Al1 N11 1.823675 1_655
Al1 N4 1.846189 1_555
Al1 N2 1.871779 1_555
Al1 O1 1.882529 1_555
Al2 N10 1.820469 1_555
Al2 N13 1.852739 1_556
Al2 O0 1.872963 1_556
Al2 N12 1.874123 1_555
N0 Si3 1.734055 1_555
N0 Si6 1.755748 1_554
N0 Si8 1.766088 1_564
N1 Si0 1.735849 1_555
N1 Si1 1.752943 1_555
N1 Si8 1.756961 1_654
N2 Si0 1.727559 1_555
N2 Si2 1.758992 1_555
N3 Si5 1.721298 1_555
N3 Si1 1.727279 1_556
N4 Si7 1.725546 1_555
N4 Si5 1.730579 1_555
N5 Si2 1.776000 1_555
N5 Si4 1.782934 1_545
N5 Si1 1.790814 1_555
N6 Si3 1.753511 1_555
N6 Si2 1.775083 1_465
N6 Si4 1.788130 1_555
N7 Si3 1.725299 1_555
N7 Si7 1.760870 1_555
N8 Si6 1.750388 1_645
N8 Si2 1.765778 1_555
N8 Si5 1.776835 1_555
N9 Si5 1.765282 1_565
N9 Si4 1.771417 1_555
N9 Si6 1.783373 1_555
N10 Si4 1.704123 1_555
N10 Si7 1.719161 1_555
N11 Si8 1.720246 1_555
N11 Si7 1.732116 1_555
N12 Si0 1.715667 1_456
N12 Si6 1.730766 1_555
N13 Si1 1.715096 1_555
N13 Si8 1.747863 1_554
O0 Si0 1.742778 1_555
O1 Si3 1.705484 1_655
