# generated using pymatgen
data_RbAl3Cd(SiO4)3
_symmetry_space_group_name_H-M   'P 1'
_cell_length_a   12.29791000
_cell_length_b   12.32493278
_cell_length_c   12.39028007
_cell_angle_alpha   89.36473968
_cell_angle_beta   89.61907905
_cell_angle_gamma   89.79000993
_symmetry_Int_Tables_number   1
_chemical_formula_structural   RbAl3Cd(SiO4)3
_chemical_formula_sum   'Rb4 Al12 Cd4 Si12 O48'
_cell_volume   1877.83703166
_cell_formula_units_Z   4
loop_
 _symmetry_equiv_pos_site_id
 _symmetry_equiv_pos_as_xyz
  1  'x, y, z'
loop_
 _atom_site_type_symbol
 _atom_site_label
 _atom_site_symmetry_multiplicity
 _atom_site_fract_x
 _atom_site_fract_y
 _atom_site_fract_z
 _atom_site_occupancy
  Rb  Rb0  1  0.53137100  0.03157300  0.50720200  1
  Rb  Rb1  1  0.02838500  0.47148300  0.55356100  1
  Rb  Rb2  1  0.47696700  0.48787700  0.02461100  1
  Rb  Rb3  1  0.71187200  0.66844100  0.72919000  1
  Al  Al0  1  0.62504500  0.99701200  0.18681700  1
  Al  Al1  1  0.00217800  0.36094400  0.81443900  1
  Al  Al2  1  0.19361500  0.61640500  0.01093900  1
  Al  Al3  1  0.98546900  0.61471200  0.19224200  1
  Al  Al4  1  0.80613300  0.62231900  0.99094400  1
  Al  Al5  1  0.01004000  0.62501600  0.81307400  1
  Al  Al6  1  0.35869600  0.83164200  0.00207300  1
  Al  Al7  1  0.63190400  0.82689900  0.99641600  1
  Al  Al8  1  0.99673000  0.82682700  0.36707300  1
  Al  Al9  1  0.00555500  0.83596900  0.63767300  1
  Al  Al10  1  0.81758600  0.00554100  0.63168600  1
  Al  Al11  1  0.36877100  0.00300200  0.81113000  1
  Cd  Cd0  1  0.18986700  0.78881800  0.18334900  1
  Cd  Cd1  1  0.81481600  0.79762900  0.19600800  1
  Cd  Cd2  1  0.18359800  0.79564400  0.80227200  1
  Cd  Cd3  1  0.85078700  0.84747200  0.86041700  1
  Si  Si0  1  0.36924900  0.00366300  0.18922900  1
  Si  Si1  1  0.18341000  0.99944000  0.36648700  1
  Si  Si2  1  0.80761800  0.00193700  0.37522800  1
  Si  Si3  1  0.62873600  0.01125400  0.81238700  1
  Si  Si4  1  0.37502000  0.18334400  0.00220600  1
  Si  Si5  1  0.62086500  0.18651900  0.99677800  1
  Si  Si6  1  0.99439400  0.18012300  0.36993100  1
  Si  Si7  1  0.01045900  0.18973300  0.61357500  1
  Si  Si8  1  0.18383600  0.36229500  0.00247000  1
  Si  Si9  1  0.99071700  0.35700700  0.17472100  1
  Si  Si10  1  0.81715200  0.35660600  0.98821900  1
  Si  Si11  1  0.19562100  0.01194700  0.61905500  1
  O  O0  1  0.29360300  0.02289400  0.29705500  1
  O  O1  1  0.69548200  0.01216500  0.30874900  1
  O  O2  1  0.31042700  0.01794400  0.68133100  1
  O  O3  1  0.50620500  0.97634900  0.78307800  1
  O  O4  1  0.77741100  0.97331900  0.49986200  1
  O  O5  1  0.69445200  0.02436500  0.69953300  1
  O  O6  1  0.36882400  0.11223900  0.11465600  1
  O  O7  1  0.09926700  0.09990500  0.35356100  1
  O  O8  1  0.63627300  0.10735000  0.09911800  1
  O  O9  1  0.12780000  0.12486000  0.61926000  1
  O  O10  1  0.88177300  0.11155700  0.36636100  1
  O  O11  1  0.35319200  0.11288500  0.89678300  1
  O  O12  1  0.90873100  0.11137000  0.63570300  1
  O  O13  1  0.63550000  0.12257400  0.88222500  1
  O  O14  1  0.49690400  0.24088700  0.99785600  1
  O  O15  1  0.00441800  0.23961100  0.48707500  1
  O  O16  1  0.29020000  0.28263700  0.01564800  1
  O  O17  1  0.99487600  0.27146100  0.27622100  1
  O  O18  1  0.70096200  0.29114600  0.99840200  1
  O  O19  1  0.01504800  0.29393900  0.68948300  1
  O  O20  1  0.10302000  0.33900500  0.10663000  1
  O  O21  1  0.88366500  0.33248100  0.10170100  1
  O  O22  1  0.12136400  0.34490800  0.89105600  1
  O  O23  1  0.88687900  0.31700400  0.88635800  1
  O  O24  1  0.23873100  0.48287000  0.01383900  1
  O  O25  1  0.98457900  0.47764700  0.22473100  1
  O  O26  1  0.78326800  0.48485600  0.97775200  1
  O  O27  1  0.98515300  0.49632100  0.77056000  1
  O  O28  1  0.10642100  0.65125800  0.12146800  1
  O  O29  1  0.86849300  0.65444900  0.11479600  1
  O  O30  1  0.12865300  0.65167000  0.88928700  1
  O  O31  1  0.89256300  0.67871200  0.88426700  1
  O  O32  1  0.30198000  0.70498900  0.03234200  1
  O  O33  1  0.68805300  0.69916900  0.96920400  1
  O  O34  1  0.97913900  0.70603700  0.29916700  1
  O  O35  1  0.03475500  0.71409000  0.70395000  1
  O  O36  1  0.99497200  0.83098500  0.50249800  1
  O  O37  1  0.49549000  0.83786300  0.99445900  1
  O  O38  1  0.30937500  0.90558400  0.12077100  1
  O  O39  1  0.68295500  0.88006900  0.12012500  1
  O  O40  1  0.12514100  0.88781800  0.31888100  1
  O  O41  1  0.88200200  0.90428900  0.31800500  1
  O  O42  1  0.12199600  0.91487100  0.67641100  1
  O  O43  1  0.88349600  0.89065100  0.69603700  1
  O  O44  1  0.30504100  0.88852000  0.87917800  1
  O  O45  1  0.68849200  0.91110100  0.88607000  1
  O  O46  1  0.48978000  0.97205800  0.22957800  1
  O  O47  1  0.22073100  0.98057200  0.49151500  1
loop_
_geom_bond_atom_site_label_1
_geom_bond_atom_site_label_2
_geom_bond_distance
_geom_bond_site_symmetry_2
Al0 O8 1.736596 1_565
Al0 O1 1.758552 1_565
Al0 O46 1.769428 1_555
Al0 O39 1.810653 1_555
Al1 O23 1.753856 1_455
Al1 O22 1.760924 1_555
Al1 O27 1.761303 1_455
Al1 O19 1.768681 1_555
Al2 O24 1.734958 1_555
Al2 O32 1.749317 1_555
Al2 O30 1.760127 1_554
Al2 O28 1.788852 1_555
Al3 O25 1.732326 1_555
Al3 O34 1.749059 1_555
Al3 O28 1.778536 1_655
Al3 O29 1.798020 1_555
Al4 O26 1.728126 1_555
Al4 O33 1.751529 1_555
Al4 O29 1.769513 1_556
Al4 O31 1.823804 1_555
Al5 O27 1.706245 1_455
Al5 O35 1.757781 1_555
Al5 O30 1.776544 1_555
Al5 O31 1.814468 1_455
Al6 O37 1.686274 1_554
Al6 O32 1.747958 1_555
Al6 O44 1.797706 1_554
Al6 O38 1.837169 1_555
Al7 O37 1.682861 1_555
Al7 O33 1.752000 1_555
Al7 O39 1.791961 1_556
Al7 O45 1.841672 1_555
Al8 O36 1.679297 1_555
Al8 O34 1.733084 1_555
Al8 O41 1.805670 1_555
Al8 O40 1.844357 1_655
Al9 O36 1.682585 1_455
Al9 O35 1.741372 1_555
Al9 O43 1.794247 1_455
Al9 O42 1.804529 1_555
Al10 O12 1.724258 1_555
Al10 O5 1.743103 1_555
Al10 O4 1.759590 1_545
Al10 O43 1.809133 1_545
Al11 O11 1.739076 1_555
Al11 O3 1.753847 1_545
Al11 O2 1.772850 1_555
Al11 O44 1.813545 1_545
Cd0 O28 2.137161 1_555
Cd0 O38 2.192694 1_555
Cd0 O40 2.227766 1_555
Cd0 O32 2.543084 1_555
Cd1 O39 2.129093 1_555
Cd1 O29 2.141117 1_555
Cd1 O41 2.182726 1_555
Cd1 O34 2.641483 1_555
Cd2 O44 2.122376 1_555
Cd2 O30 2.173567 1_555
Cd2 O42 2.263156 1_555
Cd2 O35 2.432137 1_555
Cd3 O43 2.135384 1_555
Cd3 O31 2.158250 1_555
Cd3 O45 2.164538 1_555
O0 Si1 1.625397 1_545
O0 Si0 1.641760 1_555
O1 Si2 1.614818 1_555
O1 Rb0 3.181209 1_555
O2 Si11 1.615784 1_555
O2 Rb0 3.461693 1_555
O3 Si3 1.613417 1_565
O3 Rb0 3.489827 1_565
O4 Si2 1.621225 1_565
O4 Rb0 3.108208 1_565
O5 Si3 1.617218 1_555
O5 Rb0 3.125148 1_555
O6 Si0 1.617751 1_555
O6 Si4 1.639229 1_555
O7 Si1 1.618036 1_545
O7 Si6 1.635123 1_455
O8 Si5 1.603209 1_554
O9 Si11 1.619838 1_555
O9 Si7 1.648723 1_555
O10 Si6 1.626210 1_555
O10 Si2 1.635082 1_555
O11 Si4 1.601224 1_556
O12 Si7 1.603592 1_655
O13 Si3 1.632856 1_555
O13 Si5 1.639642 1_555
O14 Si4 1.660878 1_556
O14 Si5 1.663012 1_555
O14 Rb2 3.074507 1_556
O15 Si6 1.638931 1_455
O15 Si7 1.679264 1_555
O15 Rb1 2.999025 1_555
O16 Si4 1.614405 1_555
O16 Si8 1.640558 1_555
O16 Rb2 3.426186 1_555
O17 Si6 1.608237 1_555
O17 Si9 1.633070 1_555
O18 Si5 1.625944 1_555
O18 Si10 1.646925 1_555
O19 Si7 1.601654 1_555
O19 Rb1 2.751122 1_555
O20 Si9 1.629364 1_455
O20 Si8 1.646987 1_555
O21 Si9 1.633389 1_555
O21 Si10 1.654923 1_554
O22 Si8 1.601150 1_556
O23 Si10 1.600812 1_555
O24 Si8 1.642341 1_555
O24 Rb2 2.934636 1_555
O25 Si9 1.618470 1_555
O26 Si10 1.637172 1_555
O27 Rb1 2.757430 1_655
O31 Rb3 2.951277 1_555
O32 Rb2 3.429474 1_555
O33 Rb3 3.014223 1_555
O38 Si0 1.661459 1_565
O40 Si1 1.668804 1_555
O41 Si2 1.670373 1_565
O42 Si11 1.654352 1_565
O45 Si3 1.695434 1_565
O46 Si0 1.612490 1_565
O46 Rb0 3.565705 1_565
O47 Si1 1.632552 1_555
O47 Si11 1.657796 1_565
