# generated using pymatgen
data_Rb2VCuS4
_symmetry_space_group_name_H-M   'P 1'
_cell_length_a   13.76106155
_cell_length_b   12.26238729
_cell_length_c   7.33926788
_cell_angle_alpha   85.26302931
_cell_angle_beta   62.62915234
_cell_angle_gamma   32.10781835
_symmetry_Int_Tables_number   1
_chemical_formula_structural   Rb2VCuS4
_chemical_formula_sum   'Rb4 V2 Cu2 S8'
_cell_volume   444.18674511
_cell_formula_units_Z   2
loop_
 _symmetry_equiv_pos_site_id
 _symmetry_equiv_pos_as_xyz
  1  'x, y, z'
loop_
 _atom_site_type_symbol
 _atom_site_label
 _atom_site_symmetry_multiplicity
 _atom_site_fract_x
 _atom_site_fract_y
 _atom_site_fract_z
 _atom_site_occupancy
  Rb  Rb0  1  0.94721600  0.94351100  0.30326200  1
  Rb  Rb1  1  0.30026200  0.30163900  0.95377800  1
  Rb  Rb2  1  0.69048100  0.70435500  0.06245400  1
  Rb  Rb3  1  0.05685300  0.04965600  0.70009500  1
  V  V0  1  0.12156900  0.12626800  0.12218200  1
  V  V1  1  0.87576000  0.87526700  0.86770600  1
  Cu  Cu0  1  0.38020900  0.37100700  0.37675500  1
  Cu  Cu1  1  0.62745900  0.62298100  0.62975600  1
  S  S0  1  0.60308600  0.25352200  0.96678000  1
  S  S1  1  0.69214800  0.95601200  0.24778800  1
  S  S2  1  0.96008600  0.68445400  0.61070600  1
  S  S3  1  0.24951800  0.60194000  0.68202100  1
  S  S4  1  0.75830000  0.38786100  0.30639700  1
  S  S5  1  0.32210200  0.03017200  0.74537600  1
  S  S6  1  0.03628800  0.32163100  0.40141500  1
  S  S7  1  0.38925500  0.75351300  0.04139700  1
loop_
_geom_bond_atom_site_label_1
_geom_bond_atom_site_label_2
_geom_bond_distance
_geom_bond_site_symmetry_2
Rb0 S3 3.439949 1_654
Rb0 S0 3.456409 1_565
Rb0 S7 3.479174 1_655
Rb0 S4 3.523745 1_565
Rb0 S0 3.568432 1_654
Rb0 S1 3.591878 1_555
Rb0 S3 3.597053 1_565
Rb0 S2 3.666661 1_555
Rb1 S1 3.401710 1_456
Rb1 S6 3.420521 1_556
Rb1 S2 3.430981 1_545
Rb1 S5 3.497752 1_555
Rb1 S2 3.599045 1_456
Rb1 S1 3.620237 1_545
Rb1 S3 3.706363 1_555
Rb1 S0 3.730092 1_555
Rb2 S6 3.406568 1_565
Rb2 S2 3.479365 1_554
Rb2 S5 3.486491 1_654
Rb2 S1 3.495065 1_555
Rb2 S5 3.523552 1_565
Rb2 S6 3.592451 1_654
Rb2 S4 3.659387 1_555
Rb2 S7 3.729672 1_555
Rb3 S4 3.354471 1_456
Rb3 S7 3.450734 1_545
Rb3 S0 3.492426 1_455
Rb3 S3 3.510817 1_545
Rb3 S4 3.591962 1_545
Rb3 S5 3.621558 1_555
Rb3 S7 3.640064 1_456
Rb3 S6 3.711069 1_555
Cu0 S3 2.233421 1_555
Cu0 S1 2.296010 1_545
Cu0 S0 2.297990 1_554
Cu0 S2 2.337285 1_455
Cu1 S5 2.277116 1_565
Cu1 S7 2.288769 1_556
Cu1 S6 2.291062 1_655
Cu1 S4 2.365013 1_555
S0 V1 2.164723 1_545
S1 V1 2.209771 1_554
S2 V1 2.120296 1_555
S3 V1 2.156378 1_455
S4 V0 2.107936 1_655
S5 V0 2.159594 1_556
S6 V0 2.269972 1_555
S7 V0 2.174552 1_565
