# generated using pymatgen
data_BaZn(SeO3)2
_symmetry_space_group_name_H-M   'P 1'
_cell_length_a   13.72921100
_cell_length_b   5.93992500
_cell_length_c   8.76549068
_cell_angle_alpha   84.05677228
_cell_angle_beta   90.00000000
_cell_angle_gamma   90.00000000
_symmetry_Int_Tables_number   1
_chemical_formula_structural   BaZn(SeO3)2
_chemical_formula_sum   'Ba4 Zn4 Se8 O24'
_cell_volume   710.98777944
_cell_formula_units_Z   4
loop_
 _symmetry_equiv_pos_site_id
 _symmetry_equiv_pos_as_xyz
  1  'x, y, z'
loop_
 _atom_site_type_symbol
 _atom_site_label
 _atom_site_symmetry_multiplicity
 _atom_site_fract_x
 _atom_site_fract_y
 _atom_site_fract_z
 _atom_site_occupancy
  Ba  Ba0  1  0.29729500  0.27565400  0.76758400  1
  Ba  Ba1  1  0.20270500  0.27565400  0.26758400  1
  Ba  Ba2  1  0.70270500  0.72434600  0.23241600  1
  Ba  Ba3  1  0.79729500  0.72434600  0.73241600  1
  Zn  Zn0  1  0.63603000  0.17098400  0.54192300  1
  Zn  Zn1  1  0.36397000  0.82901600  0.45807700  1
  Zn  Zn2  1  0.13603000  0.82901600  0.95807700  1
  Zn  Zn3  1  0.86397000  0.17098400  0.04192300  1
  Se  Se0  1  0.49061800  0.22634300  0.25392300  1
  Se  Se1  1  0.99061800  0.77365700  0.24607700  1
  Se  Se2  1  0.35656200  0.73399400  0.08917400  1
  Se  Se3  1  0.00938200  0.22634300  0.75392300  1
  Se  Se4  1  0.64343800  0.26600600  0.91082600  1
  Se  Se5  1  0.85656200  0.26600600  0.41082600  1
  Se  Se6  1  0.50938200  0.77365700  0.74607700  1
  Se  Se7  1  0.14343800  0.73399400  0.58917400  1
  O  O0  1  0.66845400  0.33981600  0.71744800  1
  O  O1  1  0.80775800  0.50176200  0.47795500  1
  O  O2  1  0.19224200  0.49823800  0.52204500  1
  O  O3  1  0.57411800  0.35284800  0.37005000  1
  O  O4  1  0.42588200  0.64715200  0.62995000  1
  O  O5  1  0.07411800  0.64715200  0.12995000  1
  O  O6  1  0.33154600  0.66018400  0.28255200  1
  O  O7  1  0.39185500  0.14755700  0.37474400  1
  O  O8  1  0.92588200  0.35284800  0.87005000  1
  O  O9  1  0.95885500  0.97233500  0.73193100  1
  O  O10  1  0.60814500  0.85244300  0.62525600  1
  O  O11  1  0.69224200  0.50176200  0.97795500  1
  O  O12  1  0.54114500  0.97233500  0.23193100  1
  O  O13  1  0.76816600  0.05690800  0.46288300  1
  O  O14  1  0.83154600  0.33981600  0.21744800  1
  O  O15  1  0.04114500  0.02766500  0.26806900  1
  O  O16  1  0.30775800  0.49823800  0.02204500  1
  O  O17  1  0.89185500  0.85244300  0.12525600  1
  O  O18  1  0.73183400  0.05690800  0.96288300  1
  O  O19  1  0.23183400  0.94309200  0.53711700  1
  O  O20  1  0.26816600  0.94309200  0.03711700  1
  O  O21  1  0.45885500  0.02766500  0.76806900  1
  O  O22  1  0.10814500  0.14755700  0.87474400  1
  O  O23  1  0.16845400  0.66018400  0.78255200  1
loop_
_geom_bond_atom_site_label_1
_geom_bond_atom_site_label_2
_geom_bond_distance
_geom_bond_site_symmetry_2
Ba0 O21 2.662421 1_555
Ba0 O16 2.711897 1_556
Ba0 O2 2.805572 1_555
Ba0 O22 2.838491 1_555
Ba0 O23 2.902627 1_555
Ba0 O20 2.945753 1_546
Ba0 O4 2.981643 1_555
Ba0 O19 3.101180 1_545
Ba1 O15 2.662421 1_555
Ba1 O2 2.711897 1_555
Ba1 O16 2.805572 1_555
Ba1 O7 2.838491 1_555
Ba1 O6 2.902627 1_555
Ba1 O19 2.945753 1_545
Ba1 O5 2.981643 1_555
Ba1 O20 3.101180 1_545
Ba2 O12 2.662421 1_555
Ba2 O11 2.711897 1_554
Ba2 O1 2.805572 1_555
Ba2 O17 2.838491 1_555
Ba2 O14 2.902627 1_555
Ba2 O18 2.945753 1_564
Ba2 O3 2.981643 1_555
Ba2 O13 3.101180 1_565
Ba3 O9 2.662421 1_555
Ba3 O1 2.711897 1_555
Ba3 O11 2.805572 1_555
Ba3 O10 2.838491 1_555
Ba3 O0 2.902627 1_555
Ba3 O13 2.945753 1_565
Ba3 O8 2.981643 1_555
Ba3 O18 3.101180 1_565
O0 Se4 1.740541 1_555
O0 Zn0 1.972452 1_555
O1 Se5 1.710811 1_555
O2 Se7 1.710811 1_555
O3 Se0 1.753110 1_555
O3 Zn0 1.955028 1_555
O4 Se6 1.753110 1_555
O4 Zn1 1.955028 1_555
O5 Se1 1.753110 1_455
O5 Zn2 1.955028 1_554
O6 Se2 1.740541 1_555
O6 Zn1 1.972452 1_555
O7 Se0 1.754006 1_555
O7 Zn1 1.993488 1_545
O8 Se3 1.753110 1_655
O8 Zn3 1.955028 1_556
O9 Se3 1.689689 1_665
O10 Se6 1.754006 1_555
O10 Zn0 1.993488 1_565
O11 Se4 1.710811 1_555
O12 Se0 1.689689 1_565
O13 Se5 1.762476 1_555
O13 Zn0 2.080243 1_555
O14 Se5 1.740541 1_555
O14 Zn3 1.972452 1_555
O15 Se1 1.689689 1_445
O16 Se2 1.710811 1_555
O17 Se1 1.754006 1_555
O17 Zn3 1.993488 1_565
O18 Se4 1.762476 1_555
O18 Zn3 2.080243 1_556
O19 Se7 1.762476 1_555
O19 Zn1 2.080243 1_555
O20 Se2 1.762476 1_555
O20 Zn2 2.080243 1_554
O21 Se6 1.689689 1_545
O22 Se3 1.754006 1_555
O22 Zn2 1.993488 1_545
O23 Se7 1.740541 1_555
O23 Zn2 1.972452 1_555
