# generated using pymatgen
data_KNd(PO3)4
_symmetry_space_group_name_H-M   'P 1'
_cell_length_a   8.45097464
_cell_length_b   7.28164484
_cell_length_c   8.00591481
_cell_angle_alpha   88.06085541
_cell_angle_beta   90.00000000
_cell_angle_gamma   90.00000000
_symmetry_Int_Tables_number   1
_chemical_formula_structural   KNd(PO3)4
_chemical_formula_sum   'K2 Nd2 P8 O24'
_cell_volume   492.37781561
_cell_formula_units_Z   2
loop_
 _symmetry_equiv_pos_site_id
 _symmetry_equiv_pos_as_xyz
  1  'x, y, z'
loop_
 _atom_site_type_symbol
 _atom_site_label
 _atom_site_symmetry_multiplicity
 _atom_site_fract_x
 _atom_site_fract_y
 _atom_site_fract_z
 _atom_site_occupancy
  K  K0  1  0.43523235  0.26899462  0.28003821  1
  K  K1  1  0.93523235  0.73100538  0.71996179  1
  Nd  Nd0  1  0.25050282  0.76476565  0.24290737  1
  Nd  Nd1  1  0.75050282  0.23523435  0.75709263  1
  P  P0  1  0.39808830  0.00136568  0.62005392  1
  P  P1  1  0.89808830  -0.00136568  0.37994608  1
  P  P2  1  0.00373009  0.37883785  0.39699635  1
  P  P3  1  0.50373009  0.62116215  0.60300365  1
  P  P4  1  0.87397658  0.56596695  0.09841259  1
  P  P5  1  0.37397658  0.43403305  0.90158741  1
  P  P6  1  0.67108460  0.89785911  0.10323710  1
  P  P7  1  0.17108460  0.10214089  0.89676290  1
  O  O0  1  0.44622689  0.60981157  0.42874869  1
  O  O1  1  0.94622689  0.39018843  0.57125131  1
  O  O2  1  0.20078405  0.03769321  0.07211481  1
  O  O3  1  0.70078405  0.96230679  0.92788519  1
  O  O4  1  0.15790265  0.46282173  0.34994496  1
  O  O5  1  0.65790265  0.53717827  0.65005504  1
  O  O6  1  0.36846191  0.54217103  0.72537744  1
  O  O7  1  0.86846191  0.45782897  0.27462256  1
  O  O8  1  0.51090948  0.82994483  0.65532617  1
  O  O9  1  0.01090948  0.17005517  0.34467383  1
  O  O10  1  0.29665945  0.97014367  0.47188628  1
  O  O11  1  0.79665945  0.02985633  0.52811372  1
  O  O12  1  0.01097928  0.08433509  0.82350949  1
  O  O13  1  0.51097928  0.91566491  0.17649051  1
  O  O14  1  0.71945509  0.68743037  0.12525761  1
  O  O15  1  0.21945509  0.31256963  0.87474239  1
  O  O16  1  0.79440103  0.00789425  0.21440934  1
  O  O17  1  0.29440103  0.99210575  0.78559066  1
  O  O18  1  -0.00215099  0.83046798  0.38668570  1
  O  O19  1  0.49784901  0.16953202  0.61331430  1
  O  O20  1  0.01561603  0.68431119  0.07359693  1
  O  O21  1  0.51561603  0.31568881  0.92640307  1
  O  O22  1  0.84323939  0.43516352  0.96370584  1
  O  O23  1  0.34323939  0.56483648  0.03629416  1
loop_
_geom_bond_atom_site_label_1
_geom_bond_atom_site_label_2
_geom_bond_distance
_geom_bond_site_symmetry_2
K0 O0 2.790145 1_555
K0 O19 2.791589 1_555
K0 O4 2.802077 1_555
K0 O13 2.803704 1_545
K0 O10 2.870505 1_545
K0 O21 2.920184 1_554
K0 O23 2.961163 1_555
K0 O2 3.118176 1_555
K1 O1 2.790145 1_555
K1 O18 2.791589 1_655
K1 O5 2.802077 1_555
K1 O12 2.803704 1_665
K1 O11 2.870505 1_565
K1 O20 2.920184 1_656
K1 O22 2.961163 1_555
K1 O3 3.118176 1_555
Nd0 O23 2.373333 1_555
Nd0 O2 2.410787 1_565
Nd0 O10 2.436134 1_555
Nd0 O4 2.460342 1_555
Nd0 O0 2.471648 1_555
Nd0 O18 2.479937 1_555
Nd0 O20 2.484875 1_555
Nd0 O13 2.509219 1_555
Nd1 O22 2.373333 1_555
Nd1 O3 2.410787 1_545
Nd1 O11 2.436134 1_555
Nd1 O5 2.460342 1_555
Nd1 O1 2.471648 1_555
Nd1 O19 2.479937 1_555
Nd1 O21 2.484875 1_555
Nd1 O12 2.509219 1_655
O0 P3 1.482232 1_555
O1 P2 1.482232 1_655
O2 P7 1.486419 1_554
O3 P6 1.486419 1_556
O4 P2 1.482517 1_555
O5 P3 1.482517 1_555
O6 P5 1.592848 1_555
O6 P3 1.599790 1_555
O7 P4 1.592848 1_555
O7 P2 1.599790 1_655
O8 P0 1.588402 1_565
O8 P3 1.591698 1_555
O9 P1 1.588402 1_455
O9 P2 1.591698 1_555
O10 P0 1.487210 1_565
O11 P1 1.487210 1_555
O12 P7 1.482102 1_555
O13 P6 1.482102 1_555
O14 P6 1.589887 1_555
O14 P4 1.595799 1_555
O15 P7 1.589887 1_555
O15 P5 1.595799 1_555
O16 P1 1.588294 1_555
O16 P6 1.602645 1_545
O17 P0 1.588294 1_565
O17 P7 1.602645 1_565
O18 P1 1.486164 1_465
O19 P0 1.486164 1_555
O20 P4 1.484341 1_455
O21 P5 1.484341 1_555
O22 P4 1.485676 1_556
O23 P5 1.485676 1_554
