# generated using pymatgen
data_Sr5La3Mn8(O5F)4
_symmetry_space_group_name_H-M   'P 1'
_cell_length_a   5.62855800
_cell_length_b   5.68952920
_cell_length_c   15.55925563
_cell_angle_alpha   89.88712299
_cell_angle_beta   89.93328182
_cell_angle_gamma   89.81643661
_symmetry_Int_Tables_number   1
_chemical_formula_structural   Sr5La3Mn8(O5F)4
_chemical_formula_sum   'Sr5 La3 Mn8 O20 F4'
_cell_volume   498.26333374
_cell_formula_units_Z   1
loop_
 _symmetry_equiv_pos_site_id
 _symmetry_equiv_pos_as_xyz
  1  'x, y, z'
loop_
 _atom_site_type_symbol
 _atom_site_label
 _atom_site_symmetry_multiplicity
 _atom_site_fract_x
 _atom_site_fract_y
 _atom_site_fract_z
 _atom_site_occupancy
  Sr  Sr0  1  0.00945800  0.49782200  0.87689600  1
  Sr  Sr1  1  0.00557900  0.49892400  0.37654400  1
  Sr  Sr2  1  0.49882700  0.99981400  0.62084200  1
  Sr  Sr3  1  0.48667800  0.99843700  0.12551100  1
  Sr  Sr4  1  0.50026500  0.99327200  0.87844500  1
  La  La0  1  0.52825100  0.00032000  0.38187900  1
  La  La1  1  0.97536900  0.50067200  0.61670700  1
  La  La2  1  0.00005000  0.50285300  0.12305700  1
  Mn  Mn0  1  0.01066800  0.98517400  0.99845200  1
  Mn  Mn1  1  0.50118900  0.49998800  0.75082200  1
  Mn  Mn2  1  0.50965300  0.48792200  0.24886900  1
  Mn  Mn3  1  0.48734400  0.51051000  0.99845900  1
  Mn  Mn4  1  0.49798500  0.50154100  0.49972200  1
  Mn  Mn5  1  0.00304100  0.99804400  0.75082900  1
  Mn  Mn6  1  0.00366900  0.00174600  0.50010400  1
  Mn  Mn7  1  0.98800000  0.01335300  0.24915900  1
  O  O0  1  0.99040200  0.92656600  0.62587700  1
  O  O1  1  0.01084600  0.92536100  0.12618300  1
  O  O2  1  0.23323500  0.26728300  0.51890000  1
  O  O3  1  0.23445600  0.26484400  0.23216600  1
  O  O4  1  0.22666200  0.26675800  0.01747300  1
  O  O5  1  0.25751400  0.75571800  0.98742400  1
  O  O6  1  0.25079500  0.74969400  0.76258000  1
  O  O7  1  0.26856600  0.76794700  0.48290700  1
  O  O8  1  0.49357100  0.43437400  0.87469900  1
  O  O9  1  0.49659400  0.42663100  0.37425400  1
  O  O10  1  0.49735100  0.55599700  0.12572100  1
  O  O11  1  0.52528300  0.56057000  0.62566700  1
  O  O12  1  0.76351500  0.26075900  0.73207200  1
  O  O13  1  0.74209000  0.24421300  0.51232100  1
  O  O14  1  0.74849500  0.25123400  0.22965200  1
  O  O15  1  0.76182700  0.73234600  0.98832600  1
  O  O16  1  0.75887000  0.74556900  0.48426600  1
  O  O17  1  0.74740600  0.75439000  0.26699500  1
  O  O18  1  0.00060700  0.05726000  0.87525000  1
  O  O19  1  0.99072800  0.05766200  0.37427400  1
  F  F0  1  0.24740400  0.25508300  0.72313500  1
  F  F1  1  0.25979400  0.76107300  0.27020800  1
  F  F2  1  0.73806100  0.23728700  0.01999300  1
  F  F3  1  0.74990300  0.75098900  0.77336100  1
loop_
_geom_bond_atom_site_label_1
_geom_bond_atom_site_label_2
_geom_bond_distance
_geom_bond_site_symmetry_2
La0 O9 2.434145 1_555
La0 O16 2.511426 1_545
La0 O7 2.520741 1_545
La0 O17 2.582300 1_545
La0 O19 2.626981 1_555
La0 O13 2.742423 1_555
La0 O2 3.098046 1_555
La1 O0 2.429364 1_555
La1 O2 2.485197 1_655
La1 O12 2.550077 1_555
La1 O13 2.552959 1_555
La1 O11 2.558749 1_555
La1 O16 2.767024 1_555
La1 O7 3.060304 1_655
La2 O1 2.405423 1_555
La2 O4 2.474455 1_555
La2 O3 2.537956 1_555
La2 O14 2.608280 1_455
La2 O15 2.807460 1_454
La2 O10 2.816696 1_555
La2 O10 2.844880 1_455
La2 O5 2.935591 1_554
La2 O17 3.012990 1_455
Mn0 O5 1.911247 1_555
Mn0 O18 1.960370 1_565
Mn0 O1 2.015665 1_556
Mn0 O15 2.017441 1_455
Mn0 O4 2.036528 1_566
Mn1 O8 1.962977 1_555
Mn1 O11 1.981486 1_555
Mn1 O6 2.006431 1_555
Mn1 O12 2.026201 1_555
Mn2 O14 1.923315 1_555
Mn2 O10 1.955358 1_555
Mn2 O9 1.982462 1_555
Mn2 O3 2.023005 1_555
Mn2 O17 2.045578 1_555
Mn3 O5 1.907164 1_555
Mn3 O8 1.974814 1_555
Mn3 O10 1.998331 1_556
Mn3 O15 2.003960 1_555
Mn3 O4 2.043063 1_556
Mn4 O11 1.995019 1_555
Mn4 O9 1.999021 1_555
Mn4 O7 2.004995 1_555
Mn4 O13 2.014030 1_555
Mn4 O2 2.023894 1_555
Mn4 O16 2.037803 1_555
Mn5 O18 1.965675 1_565
Mn5 O0 1.988423 1_455
Mn5 O6 1.990366 1_555
Mn5 O12 2.030583 1_465
Mn6 O19 1.984265 1_455
Mn6 O0 2.003670 1_445
Mn6 O7 2.012922 1_545
Mn6 O2 2.013133 1_555
Mn6 O13 2.023435 1_455
Mn6 O16 2.024524 1_445
Mn7 O14 1.931017 1_555
Mn7 O19 1.963528 1_555
Mn7 O1 1.982704 1_645
Mn7 O3 2.012947 1_655
Mn7 O17 2.022870 1_545
O0 Sr2 2.797911 1_555
O0 Sr2 2.894155 1_655
O1 Sr3 2.711648 1_555
O1 Sr3 2.978170 1_455
O2 Sr2 2.654769 1_545
O2 Sr1 2.875615 1_555
O3 Sr3 2.656561 1_545
O3 Sr1 2.910965 1_555
O4 Sr3 2.698051 1_545
O4 Sr0 2.826955 1_554
O4 Sr4 3.076067 1_544
O5 Sr4 2.562459 1_555
O5 Sr0 2.662424 1_555
O5 Sr3 2.866449 1_556
O6 Sr0 2.656926 1_555
O6 Sr4 2.677764 1_555
O6 Sr2 2.971668 1_555
O7 Sr1 2.702384 1_555
O7 Sr2 2.838073 1_555
O8 Sr4 2.510388 1_545
O8 Sr0 2.747701 1_555
O8 Sr0 2.927448 1_655
O8 Sr4 3.180860 1_555
O9 Sr1 2.793039 1_555
O9 Sr1 2.895802 1_655
O10 Sr3 2.517795 1_555
O10 Sr3 3.173023 1_545
O11 Sr2 2.504031 1_555
O11 Sr2 3.195421 1_545
O12 Sr2 2.729324 1_545
O12 Sr0 2.973937 1_655
O12 Sr4 3.113089 1_545
O13 Sr2 2.580099 1_545
O13 Sr1 2.959233 1_655
O14 Sr3 2.625686 1_545
O14 Sr1 3.055635 1_655
O15 Sr0 2.592423 1_655
O15 Sr4 2.697428 1_555
O15 Sr3 3.039165 1_556
O16 Sr1 2.588064 1_655
O16 Sr2 2.956653 1_555
O17 Sr1 2.666838 1_655
O17 Sr3 2.984981 1_555
O18 Sr0 2.507427 1_555
O18 Sr4 2.835144 1_545
O18 Sr4 2.841160 1_445
O18 Sr0 3.183222 1_545
O19 Sr1 2.512551 1_655
O19 Sr1 3.179915 1_645
F0 Mn1 2.045514 1_555
F0 Mn5 2.055519 1_545
F0 Sr2 2.576022 1_545
F0 La1 2.649923 1_455
F0 Sr0 3.068937 1_555
F0 Sr4 3.172416 1_545
F1 Mn2 2.119013 1_555
F1 Mn7 2.119684 1_465
F1 Sr1 2.647224 1_555
F1 La0 2.680234 1_565
F1 Sr3 2.918168 1_555
F1 La2 3.093978 1_555
F2 Mn3 2.122539 1_554
F2 Mn0 2.123859 1_644
F2 Sr3 2.557793 1_545
F2 La2 2.656750 1_655
F2 Sr4 2.932611 1_544
F2 Sr0 3.079216 1_654
F3 Mn1 2.034217 1_555
F3 Mn5 2.034326 1_655
F3 Sr4 2.557136 1_555
F3 Sr0 2.605184 1_655
F3 Sr2 3.100741 1_555
