# generated using pymatgen
data_Ce2Dy2O7
_symmetry_space_group_name_H-M   'P 1'
_cell_length_a   3.76034000
_cell_length_b   7.79039800
_cell_length_c   10.90326100
_cell_angle_alpha   90.00000000
_cell_angle_beta   90.00000000
_cell_angle_gamma   90.00000000
_symmetry_Int_Tables_number   1
_chemical_formula_structural   Ce2Dy2O7
_chemical_formula_sum   'Ce4 Dy4 O14'
_cell_volume   319.40607236
_cell_formula_units_Z   2
loop_
 _symmetry_equiv_pos_site_id
 _symmetry_equiv_pos_as_xyz
  1  'x, y, z'
loop_
 _atom_site_type_symbol
 _atom_site_label
 _atom_site_symmetry_multiplicity
 _atom_site_fract_x
 _atom_site_fract_y
 _atom_site_fract_z
 _atom_site_occupancy
  Ce  Ce0  1  0.00000000  0.75000000  0.74584400  1
  Ce  Ce1  1  0.00000000  0.25000000  0.25415600  1
  Ce  Ce2  1  0.50000000  0.00000000  0.00000000  1
  Ce  Ce3  1  0.50000000  0.50000000  0.00000000  1
  Dy  Dy0  1  0.00000000  0.75000000  0.23177100  1
  Dy  Dy1  1  0.50000000  0.00000000  0.50000000  1
  Dy  Dy2  1  0.00000000  0.25000000  0.76822900  1
  Dy  Dy3  1  0.50000000  0.50000000  0.50000000  1
  O  O0  1  0.50000000  0.75000000  0.60822300  1
  O  O1  1  0.00000000  0.95758500  0.37467600  1
  O  O2  1  0.50000000  0.75000000  0.12886200  1
  O  O3  1  0.50000000  0.25000000  0.13310700  1
  O  O4  1  0.00000000  0.01079400  0.12252600  1
  O  O5  1  0.00000000  0.98920600  0.87747400  1
  O  O6  1  0.00000000  0.51079400  0.87747400  1
  O  O7  1  0.50000000  0.25000000  0.87113800  1
  O  O8  1  0.50000000  0.75000000  0.86689300  1
  O  O9  1  0.00000000  0.45758500  0.62532400  1
  O  O10  1  0.00000000  0.54241500  0.37467600  1
  O  O11  1  0.00000000  0.04241500  0.62532400  1
  O  O12  1  0.50000000  0.25000000  0.39177700  1
  O  O13  1  0.00000000  0.48920600  0.12252600  1
loop_
_geom_bond_atom_site_label_1
_geom_bond_atom_site_label_2
_geom_bond_distance
_geom_bond_site_symmetry_2
Ce0 O8 2.297169 1_455
Ce0 O8 2.297169 1_555
Ce0 O5 2.352118 1_555
Ce0 O6 2.352118 1_555
Ce0 O0 2.405534 1_555
Ce0 O0 2.405534 1_455
Ce0 O11 2.629862 1_565
Ce0 O9 2.629862 1_555
Ce1 O3 2.297169 1_455
Ce1 O3 2.297169 1_555
Ce1 O13 2.352118 1_555
Ce1 O4 2.352118 1_555
Ce1 O12 2.405534 1_455
Ce1 O12 2.405534 1_555
Ce1 O10 2.629862 1_555
Ce1 O1 2.629862 1_545
Ce2 O4 2.307992 1_655
Ce2 O4 2.307992 1_555
Ce2 O5 2.307992 1_544
Ce2 O5 2.307992 1_644
Ce2 O2 2.401502 1_545
Ce2 O7 2.401502 1_554
Ce2 O3 2.428871 1_555
Ce2 O8 2.428871 1_544
Ce3 O13 2.307992 1_655
Ce3 O6 2.307992 1_654
Ce3 O6 2.307992 1_554
Ce3 O13 2.307992 1_555
Ce3 O2 2.401502 1_555
Ce3 O7 2.401502 1_554
Ce3 O3 2.428871 1_555
Ce3 O8 2.428871 1_554
Dy0 O2 2.189525 1_455
Dy0 O2 2.189525 1_555
Dy0 O1 2.245664 1_555
Dy0 O10 2.245664 1_555
Dy0 O4 2.355110 1_565
Dy0 O13 2.355110 1_555
Dy1 O0 2.277170 1_545
Dy1 O12 2.277170 1_555
Dy1 O11 2.347633 1_655
Dy1 O11 2.347633 1_555
Dy1 O1 2.347633 1_645
Dy1 O1 2.347633 1_545
Dy2 O7 2.189525 1_455
Dy2 O7 2.189525 1_555
Dy2 O9 2.245664 1_555
Dy2 O11 2.245664 1_555
Dy2 O6 2.355110 1_555
Dy2 O5 2.355110 1_545
Dy3 O0 2.277170 1_555
Dy3 O12 2.277170 1_555
Dy3 O10 2.347633 1_655
Dy3 O10 2.347633 1_555
Dy3 O9 2.347633 1_655
Dy3 O9 2.347633 1_555
