# generated using pymatgen
data_Ba2NF
_symmetry_space_group_name_H-M   'P 1'
_cell_length_a   7.09765332
_cell_length_b   7.09765332
_cell_length_c   7.09765332
_cell_angle_alpha   132.29079701
_cell_angle_beta   132.29079701
_cell_angle_gamma   69.77013058
_symmetry_Int_Tables_number   1
_chemical_formula_structural   Ba2NF
_chemical_formula_sum   'Ba4 N2 F2'
_cell_volume   191.88299138
_cell_formula_units_Z   2
loop_
 _symmetry_equiv_pos_site_id
 _symmetry_equiv_pos_as_xyz
  1  'x, y, z'
loop_
 _atom_site_type_symbol
 _atom_site_label
 _atom_site_symmetry_multiplicity
 _atom_site_fract_x
 _atom_site_fract_y
 _atom_site_fract_z
 _atom_site_occupancy
  Ba  Ba0  1  0.76907800  0.76907800  0.00000000  1
  Ba  Ba1  1  0.23092200  0.23092200  0.00000000  1
  Ba  Ba2  1  0.98092200  0.48092200  0.50000000  1
  Ba  Ba3  1  0.51907800  0.01907800  0.50000000  1
  N  N0  1  0.00000000  0.00000000  0.00000000  1
  N  N1  1  0.75000000  0.25000000  0.50000000  1
  F  F0  1  0.50000000  0.50000000  0.00000000  1
  F  F1  1  0.25000000  0.75000000  0.50000000  1
loop_
_geom_bond_atom_site_label_1
_geom_bond_atom_site_label_2
_geom_bond_distance
_geom_bond_site_symmetry_2
Ba0 N0 2.688954 1_665
Ba0 F1 2.878996 1_655
Ba0 N1 2.878996 1_565
Ba0 F1 2.878996 1_554
Ba0 N1 2.878996 1_554
Ba0 F0 3.133258 1_555
Ba1 N0 2.688954 1_555
Ba1 F1 2.878996 1_544
Ba1 N1 2.878996 1_454
Ba1 N1 2.878996 1_555
Ba1 F1 2.878996 1_555
Ba1 F0 3.133258 1_555
Ba2 N1 2.688954 1_555
Ba2 F0 2.878996 1_656
Ba2 N0 2.878996 1_666
Ba2 N0 2.878996 1_655
Ba2 F0 2.878996 1_555
Ba2 F1 3.133258 1_655
Ba3 N1 2.688954 1_555
Ba3 N0 2.878996 1_555
Ba3 F0 2.878996 1_545
Ba3 F0 2.878996 1_556
Ba3 N0 2.878996 1_656
Ba3 F1 3.133258 1_545
