# generated using pymatgen
data_BaSm5Al3Si9N20O
_symmetry_space_group_name_H-M   'P 1'
_cell_length_a   6.07295300
_cell_length_b   9.56262917
_cell_length_c   9.65272979
_cell_angle_alpha   60.84709918
_cell_angle_beta   89.90854258
_cell_angle_gamma   89.94651866
_symmetry_Int_Tables_number   1
_chemical_formula_structural   BaSm5Al3Si9N20O
_chemical_formula_sum   'Ba1 Sm5 Al3 Si9 N20 O1'
_cell_volume   489.55515924
_cell_formula_units_Z   1
loop_
 _symmetry_equiv_pos_site_id
 _symmetry_equiv_pos_as_xyz
  1  'x, y, z'
loop_
 _atom_site_type_symbol
 _atom_site_label
 _atom_site_symmetry_multiplicity
 _atom_site_fract_x
 _atom_site_fract_y
 _atom_site_fract_z
 _atom_site_occupancy
  Ba  Ba0  1  0.00017200  0.00479600  0.99788900  1
  Sm  Sm0  1  0.49876600  0.75555300  0.99681900  1
  Sm  Sm1  1  0.49628600  0.33093400  0.33051700  1
  Sm  Sm2  1  0.50150600  0.00030900  0.24545500  1
  Sm  Sm3  1  0.50614600  0.66389900  0.67231100  1
  Sm  Sm4  1  0.49859500  0.24454300  0.75808800  1
  Al  Al0  1  0.98603000  0.17822000  0.28348200  1
  Al  Al1  1  0.01604100  0.71807200  0.81873600  1
  Al  Al2  1  0.01544100  0.46578100  0.71657600  1
  Si  Si0  1  0.74116000  0.39297200  0.99024900  1
  Si  Si1  1  0.98393000  0.52750300  0.18616200  1
  Si  Si2  1  0.74764000  0.61353000  0.39502900  1
  Si  Si3  1  0.98469600  0.28868200  0.52318500  1
  Si  Si4  1  0.74549000  0.99033000  0.61480400  1
  Si  Si5  1  0.25448700  0.01231100  0.60470200  1
  Si  Si6  1  0.01824200  0.80977500  0.47682100  1
  Si  Si7  1  0.25041000  0.60417300  0.38425200  1
  Si  Si8  1  0.25695900  0.38026300  0.01440300  1
  N  N0  1  0.99701800  0.50770100  0.00889700  1
  N  N1  1  0.49831300  0.48806900  0.00249100  1
  N  N2  1  0.78581300  0.65150600  0.20022800  1
  N  N3  1  0.24433500  0.57739800  0.21921500  1
  N  N4  1  0.77196900  0.19913700  0.14068500  1
  N  N5  1  0.26306000  0.21684600  0.20061400  1
  N  N6  1  0.90599500  0.33701600  0.33274400  1
  N  N7  1  0.24466000  0.20818500  0.57050500  1
  N  N8  1  0.00121200  0.99194800  0.49252000  1
  N  N9  1  0.78699200  0.15482300  0.64388700  1
  N  N10  1  0.50078500  0.00555200  0.51120300  1
  N  N11  1  0.20879900  0.79952200  0.34680700  1
  N  N12  1  0.75639100  0.77665600  0.42688500  1
  N  N13  1  0.22535800  0.86774400  0.79998000  1
  N  N14  1  0.49832900  0.51700800  0.48095400  1
  N  N15  1  0.73855200  0.80548800  0.78069600  1
  N  N16  1  0.10447900  0.67028700  0.66246800  1
  N  N17  1  0.99742500  0.48498400  0.50699700  1
  N  N18  1  0.73790100  0.41995200  0.80065300  1
  N  N19  1  0.22317800  0.33861000  0.86154500  1
  O  O0  1  0.50743900  0.99992000  0.00054500  1
loop_
_geom_bond_atom_site_label_1
_geom_bond_atom_site_label_2
_geom_bond_distance
_geom_bond_site_symmetry_2
Ba0 O0 2.992625 1_446
Ba0 O0 3.080877 1_546
Ba0 N13 3.108839 1_545
Ba0 N19 3.108901 1_555
Ba0 N4 3.123943 1_456
Ba0 N11 3.220199 1_546
Ba0 N2 3.239475 1_446
Ba0 N9 3.262693 1_455
Al0 N5 1.820911 1_655
Al0 N4 1.834807 1_555
Al0 N6 1.862688 1_555
Al0 N8 1.936840 1_645
Al1 N15 1.836769 1_455
Al1 N16 1.855011 1_555
Al1 N13 1.856706 1_555
Al1 N0 1.957474 1_456
Al2 N18 1.828132 1_455
Al2 N19 1.836688 1_555
Al2 N16 1.842699 1_555
Al2 N17 1.943449 1_455
N0 Si1 1.812519 1_555
N0 Si0 1.961344 1_554
N0 Si8 1.978256 1_655
N1 Si8 1.763847 1_555
N1 Si0 1.765672 1_554
N1 Sm0 2.531635 1_554
N1 Sm1 2.765541 1_555
N1 Sm3 2.786725 1_554
N2 Si1 1.739484 1_555
N2 Si2 1.747813 1_555
N2 Sm0 2.447098 1_554
N3 Si1 1.726757 1_455
N3 Si7 1.732729 1_555
N3 Sm0 2.515834 1_554
N3 Sm1 2.565474 1_555
N4 Si0 1.719656 1_554
N4 Sm2 2.337252 1_555
N5 Si8 1.713965 1_555
N5 Sm2 2.386440 1_555
N5 Sm1 2.471848 1_555
N6 Si3 1.730870 1_555
N6 Si1 1.741398 1_555
N6 Sm1 2.489249 1_555
N7 Si3 1.717875 1_455
N7 Si5 1.737349 1_555
N7 Sm4 2.530003 1_555
N7 Sm1 2.534188 1_555
N8 Si6 1.823519 1_555
N8 Si4 1.944658 1_455
N8 Si5 1.946190 1_565
N9 Si3 1.727109 1_555
N9 Si4 1.745798 1_545
N9 Sm4 2.435412 1_555
N10 Si4 1.758468 1_545
N10 Si5 1.763051 1_555
N10 Sm2 2.589984 1_555
N10 Sm1 2.727065 1_555
N10 Sm3 2.853645 1_545
N11 Si7 1.739450 1_555
N11 Si6 1.743233 1_555
N11 Sm2 2.444229 1_565
N12 Si2 1.731546 1_555
N12 Si6 1.735951 1_655
N12 Sm2 2.527925 1_565
N12 Sm3 2.566582 1_555
N13 Si5 1.719326 1_565
N13 Sm0 2.353456 1_555
N14 Si7 1.754142 1_555
N14 Si2 1.756404 1_555
N14 Sm4 2.674700 1_555
N14 Sm1 2.791495 1_555
N14 Sm3 2.813439 1_555
N15 Si4 1.712474 1_555
N15 Sm0 2.392016 1_555
N15 Sm3 2.511610 1_555
N16 Si6 1.713948 1_555
N16 Sm3 2.440855 1_555
N17 Si3 1.807923 1_555
N17 Si2 1.920311 1_555
N17 Si7 1.935214 1_655
N18 Si0 1.719410 1_555
N18 Sm4 2.402574 1_555
N18 Sm3 2.478157 1_555
N19 Si8 1.718006 1_556
N19 Sm4 2.339033 1_555
O0 Sm0 2.355160 1_554
O0 Sm2 2.366081 1_565
O0 Sm4 2.370344 1_564
