# generated using pymatgen
data_Cu7Te4
_symmetry_space_group_name_H-M   'P 1'
_cell_length_a   7.74112260
_cell_length_b   7.74112260
_cell_length_c   7.85125300
_cell_angle_alpha   90.00000000
_cell_angle_beta   90.00000000
_cell_angle_gamma   120.00000514
_symmetry_Int_Tables_number   1
_chemical_formula_structural   Cu7Te4
_chemical_formula_sum   'Cu14 Te8'
_cell_volume   407.45295611
_cell_formula_units_Z   2
loop_
 _symmetry_equiv_pos_site_id
 _symmetry_equiv_pos_as_xyz
  1  'x, y, z'
loop_
 _atom_site_type_symbol
 _atom_site_label
 _atom_site_symmetry_multiplicity
 _atom_site_fract_x
 _atom_site_fract_y
 _atom_site_fract_z
 _atom_site_occupancy
  Cu  Cu0  1  0.33333300  0.66666700  0.20526700  1
  Cu  Cu1  1  0.66666700  0.33333300  0.97144300  1
  Cu  Cu2  1  0.79942900  0.20057100  0.47893300  1
  Cu  Cu3  1  0.79942900  0.59885800  0.47893300  1
  Cu  Cu4  1  0.40114200  0.20057100  0.47893300  1
  Cu  Cu5  1  0.20408100  0.79591900  0.44723400  1
  Cu  Cu6  1  0.20408100  0.40816200  0.44723400  1
  Cu  Cu7  1  0.59183800  0.79591900  0.44723400  1
  Cu  Cu8  1  0.85359700  0.14640300  0.84849600  1
  Cu  Cu9  1  0.85359700  0.70719300  0.84849600  1
  Cu  Cu10  1  0.29280700  0.14640300  0.84849600  1
  Cu  Cu11  1  0.20752700  0.79247300  0.96363700  1
  Cu  Cu12  1  0.20752700  0.41505400  0.96363700  1
  Cu  Cu13  1  0.58494600  0.79247300  0.96363700  1
  Te  Te0  1  0.00000000  0.00000000  0.06452000  1
  Te  Te1  1  0.00000000  0.00000000  0.54682300  1
  Te  Te2  1  0.51886300  0.48113700  0.22747500  1
  Te  Te3  1  0.51886300  0.03772600  0.22747500  1
  Te  Te4  1  0.96227400  0.48113700  0.22747500  1
  Te  Te5  1  0.49380800  0.50619200  0.71554000  1
  Te  Te6  1  0.49380800  0.98761600  0.71554000  1
  Te  Te7  1  0.01238400  0.50619200  0.71554000  1
loop_
_geom_bond_atom_site_label_1
_geom_bond_atom_site_label_2
_geom_bond_distance
_geom_bond_site_symmetry_2
Cu0 Te3 2.493686 1_565
Cu0 Te4 2.493686 1_455
Cu0 Te2 2.493693 1_555
Cu0 Cu11 2.538564 1_554
Cu0 Cu13 2.538568 1_554
Cu0 Cu12 2.538568 1_554
Cu0 Cu5 2.571451 1_555
Cu0 Cu7 2.571456 1_555
Cu0 Cu6 2.571456 1_555
Cu1 Cu9 2.685819 1_555
Cu1 Cu10 2.685819 1_555
Cu1 Cu8 2.685819 1_555
Cu1 Te4 2.822788 1_556
Cu1 Te3 2.822788 1_556
Cu1 Te2 2.822793 1_556
Cu1 Te7 3.067313 1_655
Cu1 Te6 3.067313 1_545
Cu1 Te5 3.067318 1_555
Cu2 Cu6 2.724488 1_655
Cu2 Cu7 2.724488 1_545
Cu2 Te4 2.732409 1_555
Cu2 Te3 2.732409 1_555
Cu2 Te1 2.741574 1_655
Cu2 Te7 2.804569 1_655
Cu2 Te6 2.804569 1_545
Cu2 Cu8 2.991050 1_555
Cu2 Cu3 3.083188 1_555
Cu2 Cu4 3.083188 1_555
Cu3 Cu5 2.724488 1_655
Cu3 Cu7 2.724488 1_555
Cu3 Te2 2.732409 1_555
Cu3 Te4 2.732409 1_555
Cu3 Te1 2.741574 1_665
Cu3 Te5 2.804569 1_555
Cu3 Te7 2.804569 1_655
Cu3 Cu9 2.991049 1_555
Cu3 Cu4 3.083188 1_555
Cu4 Cu5 2.724488 1_545
Cu4 Cu6 2.724488 1_555
Cu4 Te2 2.732409 1_555
Cu4 Te3 2.732409 1_555
Cu4 Te1 2.741574 1_555
Cu4 Te5 2.804569 1_555
Cu4 Te6 2.804569 1_545
Cu5 Te4 2.803096 1_455
Cu5 Te3 2.803096 1_565
Cu5 Te1 2.845843 1_565
Cu5 Te7 2.888182 1_555
Cu5 Te6 2.888182 1_555
Cu5 Cu6 3.001674 1_555
Cu5 Cu7 3.001674 1_555
Cu6 Te2 2.803096 1_555
Cu6 Te4 2.803096 1_455
Cu6 Te1 2.845843 1_555
Cu6 Te5 2.888182 1_555
Cu6 Te7 2.888182 1_555
Cu6 Cu7 3.001674 1_555
Cu7 Te2 2.803096 1_555
Cu7 Te3 2.803096 1_565
Cu7 Te1 2.845843 1_665
Cu7 Te5 2.888182 1_555
Cu7 Te6 2.888182 1_555
Cu8 Te0 2.594202 1_656
Cu8 Te7 2.633296 1_655
Cu8 Te6 2.633296 1_545
Cu8 Te1 3.076217 1_655
Cu9 Te0 2.594207 1_666
Cu9 Te7 2.633290 1_655
Cu9 Te5 2.633295 1_555
Cu9 Te1 3.076221 1_665
Cu10 Te0 2.594207 1_556
Cu10 Te6 2.633290 1_545
Cu10 Te5 2.633295 1_555
Cu10 Cu11 2.636455 1_545
Cu10 Cu12 2.636463 1_555
Cu10 Cu4 2.991049 1_555
Cu10 Te1 3.076221 1_555
Cu11 Cu9 2.636455 1_455
Cu11 Te6 2.764001 1_555
Cu11 Te7 2.764001 1_555
Cu11 Te0 2.893062 1_566
Cu11 Cu13 2.921647 1_555
Cu11 Cu12 2.921647 1_555
Cu11 Te3 3.021302 1_566
Cu11 Te4 3.021302 1_456
Cu12 Cu8 2.636457 1_455
Cu12 Te5 2.764001 1_555
Cu12 Te7 2.764002 1_555
Cu12 Te0 2.893061 1_556
Cu12 Cu13 2.921647 1_555
Cu12 Te2 3.021303 1_556
Cu12 Te4 3.021303 1_456
Cu13 Cu8 2.636457 1_565
Cu13 Cu9 2.636463 1_555
Cu13 Te5 2.764001 1_555
Cu13 Te6 2.764002 1_555
Cu13 Te0 2.893061 1_666
Cu13 Te2 3.021303 1_556
Cu13 Te3 3.021303 1_566
