# generated using pymatgen
data_UInNi4
_symmetry_space_group_name_H-M   'P 1'
_cell_length_a   4.95677752
_cell_length_b   4.95677752
_cell_length_c   4.95677752
_cell_angle_alpha   60.00000000
_cell_angle_beta   60.00000000
_cell_angle_gamma   60.00000000
_symmetry_Int_Tables_number   1
_chemical_formula_structural   UInNi4
_chemical_formula_sum   'U1 In1 Ni4'
_cell_volume   86.11588767
_cell_formula_units_Z   1
loop_
 _symmetry_equiv_pos_site_id
 _symmetry_equiv_pos_as_xyz
  1  'x, y, z'
loop_
 _atom_site_type_symbol
 _atom_site_label
 _atom_site_symmetry_multiplicity
 _atom_site_fract_x
 _atom_site_fract_y
 _atom_site_fract_z
 _atom_site_occupancy
  U  U0  1  0.00000000  0.00000000  0.00000000  1
  In  In0  1  0.25000000  0.25000000  0.25000000  1
  Ni  Ni0  1  0.62451400  0.62451400  0.12645900  1
  Ni  Ni1  1  0.62451400  0.12645900  0.62451400  1
  Ni  Ni2  1  0.12645900  0.62451400  0.62451400  1
  Ni  Ni3  1  0.62451400  0.62451400  0.62451400  1
loop_
_geom_bond_atom_site_label_1
_geom_bond_atom_site_label_2
_geom_bond_distance
_geom_bond_site_symmetry_2
In0 Ni0 2.905145 1_455
In0 Ni1 2.905145 1_554
In0 Ni2 2.905145 1_545
In0 Ni1 2.905145 1_455
In0 Ni2 2.905145 1_554
In0 Ni0 2.905145 1_545
In0 Ni3 2.905147 1_545
In0 Ni3 2.905147 1_455
In0 Ni3 2.905147 1_554
In0 Ni1 2.905149 1_555
In0 Ni2 2.905149 1_555
In0 Ni0 2.905149 1_555
In0 U0 3.035394 1_565
In0 U0 3.035394 1_556
In0 U0 3.035394 1_555
In0 U0 3.035394 1_655
Ni0 Ni2 2.468748 1_555
Ni0 Ni3 2.468748 1_555
Ni0 Ni1 2.468748 1_555
Ni0 Ni3 2.488030 1_554
Ni0 Ni1 2.488030 1_564
Ni0 Ni2 2.488030 1_654
Ni0 U0 2.907199 1_665
Ni0 U0 2.907204 1_655
Ni0 U0 2.907204 1_565
Ni1 Ni2 2.468748 1_555
Ni1 Ni3 2.468748 1_555
Ni1 Ni3 2.488030 1_545
Ni1 Ni2 2.488030 1_645
Ni1 U0 2.907199 1_656
Ni1 U0 2.907204 1_556
Ni1 U0 2.907204 1_655
Ni2 Ni3 2.468748 1_555
Ni2 Ni3 2.488030 1_455
Ni2 U0 2.907199 1_566
Ni2 U0 2.907204 1_556
Ni2 U0 2.907204 1_565
Ni3 U0 2.907201 1_566
Ni3 U0 2.907201 1_656
Ni3 U0 2.907201 1_665
