# generated using pymatgen
data_Ce17O32
_symmetry_space_group_name_H-M   'P 1'
_cell_length_a   66.29136774
_cell_length_b   41.07550474
_cell_length_c   10.30843234
_cell_angle_alpha   18.01949028
_cell_angle_beta   19.05567014
_cell_angle_gamma   4.70807612
_symmetry_Int_Tables_number   1
_chemical_formula_structural   Ce17O32
_chemical_formula_sum   'Ce17 O32'
_cell_volume   709.11343642
_cell_formula_units_Z   1
loop_
 _symmetry_equiv_pos_site_id
 _symmetry_equiv_pos_as_xyz
  1  'x, y, z'
loop_
 _atom_site_type_symbol
 _atom_site_label
 _atom_site_symmetry_multiplicity
 _atom_site_fract_x
 _atom_site_fract_y
 _atom_site_fract_z
 _atom_site_occupancy
  Ce  Ce0  1  0.98911829  0.02121190  0.98681691  1
  Ce  Ce1  1  0.06228481  0.97988956  0.06090190  1
  Ce  Ce2  1  0.10737417  0.01540108  0.99847191  1
  Ce  Ce3  1  0.19047912  0.97814341  0.98222323  1
  Ce  Ce4  1  0.24571389  0.98755263  0.99258546  1
  Ce  Ce5  1  0.28369811  0.01244737  0.00741454  1
  Ce  Ce6  1  0.33893288  0.02185659  0.01777677  1
  Ce  Ce7  1  0.42203783  0.98459892  0.00152809  1
  Ce  Ce8  1  0.46712719  0.02011044  0.93909810  1
  Ce  Ce9  1  0.54029371  0.97878810  0.01318309  1
  Ce  Ce10  1  0.56560268  0.04487384  0.96507684  1
  Ce  Ce11  1  0.64251048  0.00984171  0.99264357  1
  Ce  Ce12  1  0.70794875  0.99718478  0.99712881  1
  Ce  Ce13  1  0.76470600  0.00000000  0.00000000  1
  Ce  Ce14  1  0.82146225  0.00281522  0.00287119  1
  Ce  Ce15  1  0.88690152  0.99015829  0.00735643  1
  Ce  Ce16  1  0.96380832  0.95512616  0.03492316  1
  O  O0  1  0.06986485  0.25772344  0.24241369  1
  O  O1  1  0.16663790  0.20636221  0.19890459  1
  O  O2  1  0.19486692  0.24599551  0.24936155  1
  O  O3  1  0.28447068  0.19145367  0.27893635  1
  O  O4  1  0.32905449  0.20031858  0.29970654  1
  O  O5  1  0.37265600  0.24334568  0.24511560  1
  O  O6  1  0.03367676  0.77198988  0.72235985  1
  O  O7  1  0.41166288  0.28502796  0.21095865  1
  O  O8  1  0.11774912  0.71497204  0.78904135  1
  O  O9  1  0.49573524  0.22801012  0.27764015  1
  O  O10  1  0.15675600  0.75665432  0.75488440  1
  O  O11  1  0.52787127  0.27831706  0.23168991  1
  O  O12  1  0.20035751  0.79968142  0.70029346  1
  O  O13  1  0.60774316  0.23993024  0.25043446  1
  O  O14  1  0.66781488  0.23889431  0.25888784  1
  O  O15  1  0.24494132  0.80854633  0.72106365  1
  O  O16  1  0.33454408  0.75400449  0.75063845  1
  O  O17  1  0.70588487  0.28518409  0.22195548  1
  O  O18  1  0.36277410  0.79363779  0.80109541  1
  O  O19  1  0.74287666  0.31099747  0.22526827  1
  O  O20  1  0.83945856  0.24516489  0.26578602  1
  O  O21  1  0.45954615  0.74227656  0.75758631  1
  O  O22  1  0.86159157  0.29171923  0.31110472  1
  O  O23  1  0.95507544  0.25075481  0.24591683  1
  O  O24  1  0.57433556  0.74924519  0.75408317  1
  O  O25  1  0.66782043  0.70828077  0.68889528  1
  O  O26  1  0.68995244  0.75483511  0.73421398  1
  O  O27  1  0.78653534  0.68900253  0.77473173  1
  O  O28  1  0.82352713  0.71481591  0.77804452  1
  O  O29  1  0.86159712  0.76110569  0.74111216  1
  O  O30  1  0.92166884  0.76006976  0.74956554  1
  O  O31  1  0.00154073  0.72168294  0.76831009  1
loop_
_geom_bond_atom_site_label_1
_geom_bond_atom_site_label_2
_geom_bond_distance
_geom_bond_site_symmetry_2
Ce0 O24 2.314544 1_555
Ce0 O6 2.335213 1_646
Ce0 O7 2.341716 1_646
Ce0 O23 2.352772 1_555
Ce0 O10 2.403789 1_645
Ce0 O20 2.405315 1_556
Ce0 O12 2.561218 1_645
Ce0 O19 2.586531 1_556
Ce1 O15 2.293892 1_554
Ce1 O8 2.312653 1_555
Ce1 O12 2.313817 1_554
Ce1 O20 2.314375 1_465
Ce1 O25 2.355604 1_464
Ce1 O9 2.393465 1_555
Ce1 O22 2.451747 1_465
Ce2 O11 2.343265 1_546
Ce2 O26 2.351006 1_455
Ce2 O23 2.358975 1_456
Ce2 O16 2.396113 1_545
Ce2 O0 2.399966 1_555
Ce2 O10 2.400615 1_546
Ce2 O15 2.449642 1_545
Ce2 O22 2.524885 1_456
Ce3 O16 2.261068 1_555
Ce3 O27 2.281515 1_465
Ce3 O12 2.313434 1_556
Ce3 O18 2.331803 1_555
Ce3 O13 2.348038 1_556
Ce3 O23 2.386647 1_466
Ce3 O1 2.491135 1_565
Ce4 O21 2.269020 1_555
Ce4 O18 2.302548 1_555
Ce4 O0 2.328469 1_566
Ce4 O28 2.333602 1_465
Ce4 O15 2.338209 1_556
Ce4 O2 2.358620 1_565
Ce4 O14 2.381182 1_556
Ce5 O0 2.269074 1_555
Ce5 O1 2.302548 1_555
Ce5 O21 2.328521 1_544
Ce5 O17 2.333602 1_545
Ce5 O3 2.338209 1_554
Ce5 O16 2.358619 1_545
Ce5 O29 2.381182 1_454
Ce6 O2 2.261013 1_555
Ce6 O19 2.281515 1_545
Ce6 O4 2.313434 1_554
Ce6 O1 2.331803 1_555
Ce6 O30 2.348038 1_454
Ce6 O24 2.386595 1_544
Ce6 O18 2.491135 1_545
Ce7 O31 2.343265 1_564
Ce7 O20 2.351007 1_555
Ce7 O24 2.359029 1_554
Ce7 O2 2.396167 1_565
Ce7 O21 2.399967 1_555
Ce7 O5 2.400615 1_564
Ce7 O3 2.449642 1_565
Ce7 O25 2.524885 1_554
Ce8 O3 2.293892 1_556
Ce8 O7 2.312653 1_555
Ce8 O4 2.313817 1_556
Ce8 O26 2.314320 1_545
Ce8 O22 2.355604 1_546
Ce8 O6 2.393465 1_555
Ce8 O25 2.451747 1_545
Ce9 O23 2.314545 1_555
Ce9 O9 2.335213 1_564
Ce9 O8 2.341716 1_564
Ce9 O24 2.352770 1_555
Ce9 O5 2.403789 1_565
Ce9 O26 2.405369 1_554
Ce9 O4 2.561218 1_565
Ce9 O27 2.586531 1_554
Ce10 O10 2.264232 1_555
Ce10 O28 2.283501 1_545
Ce10 O25 2.319562 1_546
Ce10 O11 2.328943 1_555
Ce10 O5 2.347319 1_556
Ce10 O27 2.349539 1_545
Ce10 O7 2.424055 1_556
Ce11 O29 2.338071 1_545
Ce11 O7 2.346577 1_556
Ce11 O26 2.354020 1_546
Ce11 O13 2.358513 1_555
Ce11 O0 2.390634 1_646
Ce11 O9 2.417547 1_556
Ce11 O12 2.518232 1_555
Ce11 O28 2.587064 1_545
Ce12 O11 2.338281 1_566
Ce12 O14 2.342701 1_565
Ce12 O9 2.354155 1_566
Ce12 O29 2.393188 1_555
Ce12 O30 2.444506 1_555
Ce12 O27 2.478617 1_556
Ce12 O1 2.522284 1_656
Ce12 O15 2.584345 1_565
Ce13 O30 2.295091 1_544
Ce13 O13 2.295091 1_555
Ce13 O2 2.397802 1_645
Ce13 O16 2.397804 1_554
Ce13 O17 2.477785 1_554
Ce13 O28 2.477785 1_545
Ce13 O11 2.485105 1_555
Ce13 O31 2.485105 1_644
Ce14 O31 2.338228 1_644
Ce14 O29 2.342700 1_545
Ce14 O6 2.354208 1_644
Ce14 O14 2.393243 1_555
Ce14 O13 2.444450 1_555
Ce14 O19 2.478612 1_554
Ce14 O18 2.522284 1_554
Ce14 O3 2.584349 1_645
Ce15 O14 2.338071 1_565
Ce15 O8 2.346577 1_654
Ce15 O20 2.354018 1_564
Ce15 O30 2.358513 1_555
Ce15 O21 2.390634 1_564
Ce15 O6 2.417547 1_654
Ce15 O4 2.518232 1_655
Ce15 O17 2.587064 1_565
Ce16 O5 2.264232 1_655
Ce16 O17 2.283450 1_565
Ce16 O22 2.319561 1_564
Ce16 O31 2.328945 1_655
Ce16 O10 2.347373 1_654
Ce16 O19 2.349589 1_565
Ce16 O8 2.423999 1_654
