# generated using pymatgen
data_Nd2Zr8O19
_symmetry_space_group_name_H-M   'P 1'
_cell_length_a   3.58499300
_cell_length_b   3.71821100
_cell_length_c   26.33702400
_cell_angle_alpha   90.00000000
_cell_angle_beta   90.00000000
_cell_angle_gamma   90.00000000
_symmetry_Int_Tables_number   1
_chemical_formula_structural   Nd2Zr8O19
_chemical_formula_sum   'Nd2 Zr8 O19'
_cell_volume   351.06621977
_cell_formula_units_Z   1
loop_
 _symmetry_equiv_pos_site_id
 _symmetry_equiv_pos_as_xyz
  1  'x, y, z'
loop_
 _atom_site_type_symbol
 _atom_site_label
 _atom_site_symmetry_multiplicity
 _atom_site_fract_x
 _atom_site_fract_y
 _atom_site_fract_z
 _atom_site_occupancy
  Nd  Nd0  1  0.00000000  0.50000000  0.99153500  1
  Nd  Nd1  1  0.50000000  0.00000000  0.11277200  1
  Zr  Zr0  1  0.00000000  0.50000000  0.21229000  1
  Zr  Zr1  1  0.00000000  0.50000000  0.40661800  1
  Zr  Zr2  1  0.50000000  0.00000000  0.30945800  1
  Zr  Zr3  1  0.50000000  0.00000000  0.50352900  1
  Zr  Zr4  1  0.50000000  0.00000000  0.69796200  1
  Zr  Zr5  1  0.00000000  0.50000000  0.60055000  1
  Zr  Zr6  1  0.00000000  0.50000000  0.79537200  1
  Zr  Zr7  1  0.50000000  0.00000000  0.89274700  1
  O  O0  1  0.50000000  0.50000000  0.25477400  1
  O  O1  1  0.00000000  0.00000000  0.35844800  1
  O  O2  1  0.50000000  0.50000000  0.45247800  1
  O  O3  1  0.00000000  0.00000000  0.54975900  1
  O  O4  1  0.50000000  0.50000000  0.64902500  1
  O  O5  1  0.00000000  0.00000000  0.74244500  1
  O  O6  1  0.50000000  0.50000000  0.84523100  1
  O  O7  1  0.00000000  0.00000000  0.83785200  1
  O  O8  1  0.00000000  0.00000000  0.93634200  1
  O  O9  1  0.50000000  0.50000000  0.94051000  1
  O  O10  1  0.00000000  0.00000000  0.04252400  1
  O  O11  1  0.00000000  0.00000000  0.16738100  1
  O  O12  1  0.50000000  0.50000000  0.15403300  1
  O  O13  1  0.00000000  0.00000000  0.26099300  1
  O  O14  1  0.50000000  0.50000000  0.35233200  1
  O  O15  1  0.00000000  0.00000000  0.45233900  1
  O  O16  1  0.50000000  0.50000000  0.54885100  1
  O  O17  1  0.00000000  0.00000000  0.64438800  1
  O  O18  1  0.50000000  0.50000000  0.74529700  1
loop_
_geom_bond_atom_site_label_1
_geom_bond_atom_site_label_2
_geom_bond_distance
_geom_bond_site_symmetry_2
Nd0 O9 2.240305 1_455
Nd0 O9 2.240305 1_555
Nd0 O10 2.293393 1_556
Nd0 O10 2.293393 1_566
Nd0 O8 2.359933 1_555
Nd0 O8 2.359933 1_565
Nd1 O12 2.153410 1_545
Nd1 O12 2.153410 1_555
Nd1 O11 2.298167 1_555
Nd1 O11 2.298167 1_655
Nd1 O10 2.576043 1_555
Nd1 O10 2.576043 1_655
O0 Zr0 2.113051 1_555
O0 Zr0 2.113051 1_655
O0 Zr2 2.351699 1_555
O0 Zr2 2.351699 1_565
O1 Zr2 2.208572 1_555
O1 Zr2 2.208572 1_455
O1 Zr1 2.250724 1_555
O1 Zr1 2.250724 1_545
O2 Zr1 2.161449 1_555
O2 Zr1 2.161449 1_655
O2 Zr3 2.294349 1_555
O2 Zr3 2.294349 1_565
O3 Zr3 2.166910 1_555
O3 Zr3 2.166910 1_455
O3 Zr5 2.290343 1_555
O3 Zr5 2.290343 1_545
O4 Zr5 2.200676 1_655
O4 Zr5 2.200676 1_555
O4 Zr4 2.262172 1_565
O4 Zr4 2.262172 1_555
O5 Zr4 2.141395 1_555
O5 Zr4 2.141395 1_455
O5 Zr6 2.323648 1_555
O5 Zr6 2.323648 1_545
O6 Zr6 2.222020 1_555
O6 Zr6 2.222020 1_655
O6 Zr7 2.241060 1_555
O6 Zr7 2.241060 1_565
O7 Zr6 2.169788 1_555
O7 Zr6 2.169788 1_545
O7 Zr7 2.302889 1_455
O7 Zr7 2.302889 1_555
O8 Zr7 2.128690 1_455
O8 Zr7 2.128690 1_555
O9 Zr7 2.244699 1_565
O9 Zr7 2.244699 1_555
O11 Zr0 2.203456 1_545
O11 Zr0 2.203456 1_555
O12 Zr0 2.359485 1_655
O12 Zr0 2.359485 1_555
O13 Zr2 2.200523 1_555
O13 Zr2 2.200523 1_455
O13 Zr0 2.258666 1_555
O13 Zr0 2.258666 1_545
O14 Zr2 2.175157 1_555
O14 Zr2 2.175157 1_565
O14 Zr1 2.292853 1_655
O14 Zr1 2.292853 1_555
O15 Zr1 2.215009 1_555
O15 Zr1 2.215009 1_545
O15 Zr3 2.242915 1_455
O15 Zr3 2.242915 1_555
O16 Zr3 2.209313 1_555
O16 Zr3 2.209313 1_565
O16 Zr5 2.250998 1_555
O16 Zr5 2.250998 1_655
O17 Zr5 2.188444 1_545
O17 Zr5 2.188444 1_555
O17 Zr4 2.281207 1_555
O17 Zr4 2.281207 1_455
O18 Zr6 2.225387 1_655
O18 Zr6 2.225387 1_555
O18 Zr4 2.238402 1_555
O18 Zr4 2.238402 1_565
