# generated using pymatgen
data_NaSn4(PO4)3
_symmetry_space_group_name_H-M   'P 1'
_cell_length_a   10.06075409
_cell_length_b   10.06075409
_cell_length_c   10.06075435
_cell_angle_alpha   58.67374348
_cell_angle_beta   58.67374348
_cell_angle_gamma   58.67374828
_symmetry_Int_Tables_number   1
_chemical_formula_structural   NaSn4(PO4)3
_chemical_formula_sum   'Na2 Sn8 P6 O24'
_cell_volume   698.24812839
_cell_formula_units_Z   2
loop_
 _symmetry_equiv_pos_site_id
 _symmetry_equiv_pos_as_xyz
  1  'x, y, z'
loop_
 _atom_site_type_symbol
 _atom_site_label
 _atom_site_symmetry_multiplicity
 _atom_site_fract_x
 _atom_site_fract_y
 _atom_site_fract_z
 _atom_site_occupancy
  Na  Na0  1  0.66130600  0.66130600  0.66130600  1
  Na  Na1  1  0.16130600  0.16130600  0.16130600  1
  Sn  Sn0  1  0.87528400  0.74343000  0.20886400  1
  Sn  Sn1  1  0.74343000  0.20886400  0.87528400  1
  Sn  Sn2  1  0.20886400  0.87528400  0.74343000  1
  Sn  Sn3  1  0.24343000  0.37528400  0.70886400  1
  Sn  Sn4  1  0.70886400  0.24343000  0.37528400  1
  Sn  Sn5  1  0.37528400  0.70886400  0.24343000  1
  Sn  Sn6  1  0.31043400  0.31043400  0.31043400  1
  Sn  Sn7  1  0.81043400  0.81043400  0.81043400  1
  P  P0  1  0.44960700  0.90976700  0.34929500  1
  P  P1  1  0.90976700  0.34929500  0.44960700  1
  P  P2  1  0.34929500  0.44960700  0.90976700  1
  P  P3  1  0.84929500  0.40976700  0.94960700  1
  P  P4  1  0.94960700  0.84929500  0.40976700  1
  P  P5  1  0.40976700  0.94960700  0.84929500  1
  O  O0  1  0.11871400  0.76587300  0.29563000  1
  O  O1  1  0.61871400  0.79563000  0.26587300  1
  O  O2  1  0.85464300  0.37900100  0.80955100  1
  O  O3  1  0.80955100  0.85464300  0.37900100  1
  O  O4  1  0.37900100  0.80955100  0.85464300  1
  O  O5  1  0.35464300  0.30955100  0.87900100  1
  O  O6  1  0.87900100  0.35464300  0.30955100  1
  O  O7  1  0.30955100  0.87900100  0.35464300  1
  O  O8  1  0.09404500  0.24413900  0.43602800  1
  O  O9  1  0.43602800  0.09404500  0.24413900  1
  O  O10  1  0.24413900  0.43602800  0.09404500  1
  O  O11  1  0.59404500  0.93602800  0.74413900  1
  O  O12  1  0.26587300  0.61871400  0.79563000  1
  O  O13  1  0.93602800  0.74413900  0.59404500  1
  O  O14  1  0.36940300  0.93130400  0.02851500  1
  O  O15  1  0.93130400  0.02851500  0.36940300  1
  O  O16  1  0.02851500  0.36940300  0.93130400  1
  O  O17  1  0.43130400  0.86940300  0.52851500  1
  O  O18  1  0.86940300  0.52851500  0.43130400  1
  O  O19  1  0.52851500  0.43130400  0.86940300  1
  O  O20  1  0.74413900  0.59404500  0.93602800  1
  O  O21  1  0.76587300  0.29563000  0.11871400  1
  O  O22  1  0.29563000  0.11871400  0.76587300  1
  O  O23  1  0.79563000  0.26587300  0.61871400  1
loop_
_geom_bond_atom_site_label_1
_geom_bond_atom_site_label_2
_geom_bond_distance
_geom_bond_site_symmetry_2
Na0 O19 2.606001 1_555
Na0 O18 2.606001 1_555
Na0 O17 2.606001 1_555
Na0 O3 2.634769 1_555
Na0 O4 2.634769 1_555
Na0 O2 2.634769 1_555
Na0 O13 2.942019 1_555
Na0 O11 2.942019 1_555
Na0 O20 2.942019 1_555
Na1 O15 2.606001 1_455
Na1 O16 2.606001 1_554
Na1 O14 2.606001 1_545
Na1 O5 2.634769 1_554
Na1 O7 2.634769 1_545
Na1 O6 2.634769 1_455
Na1 O10 2.942019 1_555
Na1 O9 2.942019 1_555
Na1 O8 2.942019 1_555
O0 P4 1.550315 1_455
O0 Sn5 2.152199 1_555
O1 P0 1.550315 1_555
O1 Sn0 2.152199 1_555
O2 P3 1.562544 1_555
O2 Sn1 2.159673 1_555
O3 P4 1.562544 1_555
O3 Sn0 2.159673 1_555
O4 P5 1.562544 1_555
O4 Sn2 2.159673 1_555
O5 P2 1.562544 1_555
O5 Sn3 2.159673 1_555
O6 P1 1.562544 1_555
O6 Sn4 2.159673 1_555
O7 P0 1.562544 1_555
O7 Sn5 2.159673 1_555
O8 P1 1.556454 1_455
O8 Sn6 2.134034 1_555
O9 P0 1.556454 1_545
O9 Sn6 2.134034 1_555
O10 P2 1.556454 1_554
O10 Sn6 2.134034 1_555
O11 P5 1.556454 1_555
O11 Sn7 2.134034 1_555
O12 P2 1.550315 1_555
O12 Sn2 2.152199 1_555
O13 P4 1.556454 1_555
O13 Sn7 2.134034 1_555
O14 P5 1.555982 1_554
O14 Sn5 2.156553 1_555
O15 P4 1.555982 1_545
O15 Sn4 2.156553 1_555
O16 P3 1.555982 1_455
O16 Sn3 2.156553 1_555
O17 P0 1.555982 1_555
O17 Sn2 2.156553 1_555
O18 P1 1.555982 1_555
O18 Sn0 2.156553 1_555
O19 P2 1.555982 1_555
O19 Sn1 2.156553 1_555
O20 P3 1.556454 1_555
O20 Sn7 2.134034 1_555
O21 P3 1.550315 1_554
O21 Sn4 2.152199 1_555
O22 P5 1.550315 1_545
O22 Sn3 2.152199 1_555
O23 P1 1.550315 1_555
O23 Sn1 2.152199 1_555
