# generated using pymatgen
data_CeCu4Sn
_symmetry_space_group_name_H-M   'P 1'
_cell_length_a   5.09871600
_cell_length_b   8.51256100
_cell_length_c   10.60032200
_cell_angle_alpha   90.00000000
_cell_angle_beta   90.00000000
_cell_angle_gamma   90.00000000
_symmetry_Int_Tables_number   1
_chemical_formula_structural   CeCu4Sn
_chemical_formula_sum   'Ce4 Cu16 Sn4'
_cell_volume   460.08716411
_cell_formula_units_Z   4
loop_
 _symmetry_equiv_pos_site_id
 _symmetry_equiv_pos_as_xyz
  1  'x, y, z'
loop_
 _atom_site_type_symbol
 _atom_site_label
 _atom_site_symmetry_multiplicity
 _atom_site_fract_x
 _atom_site_fract_y
 _atom_site_fract_z
 _atom_site_occupancy
  Ce  Ce0  1  0.97914300  0.49376900  0.68735800  1
  Ce  Ce1  1  0.47914300  0.00623100  0.31264200  1
  Ce  Ce2  1  0.02085700  0.99376900  0.81264200  1
  Ce  Ce3  1  0.52085700  0.50623100  0.18735800  1
  Cu  Cu0  1  0.79947500  0.83224900  0.56705400  1
  Cu  Cu1  1  0.70052500  0.16775100  0.06705400  1
  Cu  Cu2  1  0.29947500  0.66775100  0.43294600  1
  Cu  Cu3  1  0.50964600  0.40771200  0.49304400  1
  Cu  Cu4  1  0.48755300  0.63537000  0.63789400  1
  Cu  Cu5  1  0.52933300  0.86712600  0.76096400  1
  Cu  Cu6  1  0.00964600  0.09228800  0.50695600  1
  Cu  Cu7  1  0.97066700  0.13287400  0.26096400  1
  Cu  Cu8  1  0.01244700  0.36463000  0.13789400  1
  Cu  Cu9  1  0.47066700  0.36712600  0.73903600  1
  Cu  Cu10  1  0.49035400  0.90771200  0.00695600  1
  Cu  Cu11  1  0.99035400  0.59228800  0.99304400  1
  Cu  Cu12  1  0.02933300  0.63287400  0.23903600  1
  Cu  Cu13  1  0.20052500  0.33224900  0.93294600  1
  Cu  Cu14  1  0.51244700  0.13537000  0.86210600  1
  Cu  Cu15  1  0.98755300  0.86463000  0.36210600  1
  Sn  Sn0  1  0.49215000  0.61709800  0.89449100  1
  Sn  Sn1  1  0.00785000  0.38290200  0.39449100  1
  Sn  Sn2  1  0.99215000  0.88290200  0.10550900  1
  Sn  Sn3  1  0.50785000  0.11709800  0.60550900  1
loop_
_geom_bond_atom_site_label_1
_geom_bond_atom_site_label_2
_geom_bond_distance
_geom_bond_site_symmetry_2
Ce0 Cu9 2.782631 1_655
Ce0 Cu4 2.830250 1_555
Ce0 Cu9 2.860723 1_555
Ce0 Cu4 2.906473 1_655
Ce0 Sn1 3.248066 1_655
Ce1 Cu7 2.782631 1_555
Ce1 Cu15 2.830250 1_445
Ce1 Cu7 2.860723 1_455
Ce1 Cu15 2.906473 1_545
Ce1 Sn3 3.248066 1_555
Ce2 Cu5 2.782631 1_455
Ce2 Cu14 2.830250 1_565
Ce2 Cu5 2.860723 1_555
Ce2 Cu14 2.906473 1_465
Ce2 Sn2 3.248066 1_456
Ce3 Cu12 2.782631 1_555
Ce3 Cu8 2.830250 1_655
Ce3 Cu12 2.860723 1_655
Ce3 Cu8 2.906473 1_555
Ce3 Sn0 3.248066 1_554
Cu0 Cu15 2.390690 1_555
Cu0 Cu4 2.429415 1_555
Cu0 Cu5 2.492073 1_555
Cu0 Cu6 2.540510 1_665
Cu0 Sn3 2.873448 1_565
Cu1 Cu14 2.390690 1_554
Cu1 Cu8 2.429415 1_655
Cu1 Cu7 2.492073 1_555
Cu1 Cu10 2.540510 1_545
Cu1 Sn2 2.873448 1_545
Cu2 Cu4 2.390690 1_555
Cu2 Cu3 2.540510 1_555
Cu2 Sn1 2.873448 1_555
Cu3 Cu4 2.475071 1_555
Cu3 Cu9 2.637880 1_555
Cu3 Sn3 2.746156 1_555
Cu3 Sn1 2.754743 1_655
Cu3 Sn1 2.771640 1_555
Cu4 Cu5 2.374742 1_555
Cu4 Cu9 2.524085 1_555
Cu4 Sn0 2.724555 1_555
Cu5 Sn0 2.563080 1_555
Cu5 Sn3 2.693594 1_565
Cu6 Cu7 2.637880 1_455
Cu6 Sn1 2.746156 1_555
Cu6 Sn3 2.754743 1_555
Cu6 Sn3 2.771640 1_455
Cu7 Cu8 2.374742 1_655
Cu7 Sn1 2.563080 1_655
Cu7 Sn2 2.693594 1_545
Cu8 Sn1 2.724555 1_555
Cu9 Sn3 2.563080 1_555
Cu9 Sn0 2.693594 1_555
Cu10 Cu14 2.475071 1_564
Cu10 Cu5 2.637880 1_554
Cu10 Sn0 2.746156 1_554
Cu10 Sn2 2.754743 1_455
Cu10 Sn2 2.771640 1_555
Cu11 Cu8 2.475071 1_656
Cu11 Cu13 2.540510 1_655
Cu11 Cu12 2.637880 1_656
Cu11 Sn2 2.746156 1_556
Cu11 Sn0 2.754743 1_555
Cu11 Sn0 2.771640 1_655
Cu12 Cu15 2.374742 1_455
Cu12 Cu2 2.492073 1_555
Cu12 Cu8 2.524085 1_555
Cu12 Sn2 2.563080 1_455
Cu12 Sn1 2.693594 1_555
Cu13 Cu8 2.390690 1_556
Cu13 Cu14 2.429415 1_555
Cu13 Cu9 2.492073 1_555
Cu13 Sn0 2.873448 1_555
Cu14 Cu9 2.374742 1_555
Cu14 Cu5 2.524085 1_545
Cu14 Sn3 2.724555 1_555
Cu15 Cu2 2.429415 1_655
Cu15 Cu6 2.475071 1_665
Cu15 Cu7 2.524085 1_565
Cu15 Sn2 2.724555 1_555
