# generated using pymatgen
data_CsLiSO4
_symmetry_space_group_name_H-M   'P 1'
_cell_length_a   9.16010200
_cell_length_b   5.49866200
_cell_length_c   10.94763661
_cell_angle_alpha   60.10745946
_cell_angle_beta   90.00000000
_cell_angle_gamma   90.00000000
_symmetry_Int_Tables_number   1
_chemical_formula_structural   CsLiSO4
_chemical_formula_sum   'Cs4 Li4 S4 O16'
_cell_volume   478.05469736
_cell_formula_units_Z   4
loop_
 _symmetry_equiv_pos_site_id
 _symmetry_equiv_pos_as_xyz
  1  'x, y, z'
loop_
 _atom_site_type_symbol
 _atom_site_label
 _atom_site_symmetry_multiplicity
 _atom_site_fract_x
 _atom_site_fract_y
 _atom_site_fract_z
 _atom_site_occupancy
  Cs  Cs0  1  0.50047200  0.95797100  0.78451000  1
  Cs  Cs1  1  0.00047200  0.04202900  0.71549000  1
  Cs  Cs2  1  0.49952800  0.04202900  0.21549000  1
  Cs  Cs3  1  0.99952800  0.95797100  0.28451000  1
  Li  Li0  1  0.82530300  0.33964800  0.91413400  1
  Li  Li1  1  0.32530300  0.66035200  0.58586600  1
  Li  Li2  1  0.17469700  0.66035200  0.08586600  1
  Li  Li3  1  0.67469700  0.33964800  0.41413400  1
  S  S0  1  0.69989600  0.67096000  0.58281200  1
  S  S1  1  0.19989600  0.32904000  0.91718800  1
  S  S2  1  0.30010400  0.32904000  0.41718800  1
  S  S3  1  0.80010400  0.67096000  0.08281200  1
  O  O0  1  0.75455500  0.46498300  0.54196800  1
  O  O1  1  0.25455500  0.53501700  0.95803200  1
  O  O2  1  0.24544500  0.53501700  0.45803200  1
  O  O3  1  0.74544500  0.46498300  0.04196800  1
  O  O4  1  0.96179600  0.65480000  0.09442700  1
  O  O5  1  0.46179600  0.34520000  0.40557300  1
  O  O6  1  0.03820400  0.34520000  0.90557300  1
  O  O7  1  0.53820400  0.65480000  0.59442700  1
  O  O8  1  0.75424700  0.95969600  0.97311600  1
  O  O9  1  0.25424700  0.04030400  0.52688400  1
  O  O10  1  0.24575300  0.04030400  0.02688400  1
  O  O11  1  0.74575300  0.95969600  0.47311600  1
  O  O12  1  0.73584900  0.60605200  0.22086900  1
  O  O13  1  0.23584900  0.39394800  0.27913100  1
  O  O14  1  0.26415100  0.39394800  0.77913100  1
  O  O15  1  0.76415100  0.60605200  0.72086900  1
loop_
_geom_bond_atom_site_label_1
_geom_bond_atom_site_label_2
_geom_bond_distance
_geom_bond_site_symmetry_2
Cs0 O8 3.112355 1_555
Cs0 O1 3.112582 1_555
Cs0 O14 3.208705 1_565
Cs0 O7 3.269039 1_555
Cs0 O7 3.344200 1_565
Cs0 O15 3.377513 1_555
Cs0 O9 3.460336 1_565
Cs0 O3 3.565439 1_556
Cs0 O0 3.586242 1_565
Cs0 O5 3.614494 1_565
Cs0 O10 3.726530 1_566
Cs1 O9 3.112355 1_555
Cs1 O0 3.112582 1_455
Cs1 O15 3.208705 1_445
Cs1 O6 3.269039 1_555
Cs1 O6 3.344200 1_545
Cs1 O14 3.377513 1_555
Cs1 O8 3.460336 1_445
Cs1 O2 3.565439 1_555
Cs1 O1 3.586242 1_545
Cs1 O4 3.614494 1_446
Cs1 O11 3.726530 1_445
Cs2 O10 3.112355 1_555
Cs2 O3 3.112582 1_555
Cs2 O12 3.208705 1_545
Cs2 O5 3.269039 1_555
Cs2 O5 3.344200 1_545
Cs2 O13 3.377513 1_555
Cs2 O11 3.460336 1_545
Cs2 O1 3.565439 1_554
Cs2 O2 3.586242 1_545
Cs2 O7 3.614494 1_545
Cs2 O8 3.726530 1_544
Cs3 O11 3.112355 1_555
Cs3 O2 3.112582 1_655
Cs3 O13 3.208705 1_665
Cs3 O4 3.269039 1_555
Cs3 O4 3.344200 1_565
Cs3 O12 3.377513 1_555
Cs3 O10 3.460336 1_665
Cs3 O0 3.565439 1_555
Cs3 O3 3.586242 1_565
Cs3 O6 3.614494 1_664
Cs3 O9 3.726530 1_665
Li0 O6 1.951954 1_655
Li0 O15 1.961356 1_555
Li0 O8 1.964893 1_545
Li0 O3 1.982413 1_556
Li1 O7 1.951954 1_555
Li1 O14 1.961356 1_555
Li1 O9 1.964893 1_565
Li1 O2 1.982413 1_555
Li2 O4 1.951954 1_455
Li2 O13 1.961356 1_555
Li2 O10 1.964893 1_565
Li2 O1 1.982413 1_554
Li3 O5 1.951954 1_555
Li3 O12 1.961356 1_555
Li3 O11 1.964893 1_545
Li3 O0 1.982413 1_555
O0 S0 1.496058 1_555
O1 S1 1.496058 1_555
O2 S2 1.496058 1_555
O3 S3 1.496058 1_555
O4 S3 1.485431 1_555
O5 S2 1.485431 1_555
O6 S1 1.485431 1_555
O7 S0 1.485431 1_555
O8 S3 1.496282 1_556
O9 S2 1.496282 1_555
O10 S1 1.496282 1_554
O11 S0 1.496282 1_555
O12 S3 1.490121 1_555
O13 S2 1.490121 1_555
O14 S1 1.490121 1_555
O15 S0 1.490121 1_555
