# generated using pymatgen
data_U2MoO8
_symmetry_space_group_name_H-M   'P 1'
_cell_length_a   23.83950500
_cell_length_b   4.15034000
_cell_length_c   6.65081299
_cell_angle_alpha   89.51022238
_cell_angle_beta   90.00000000
_cell_angle_gamma   90.00000000
_symmetry_Int_Tables_number   1
_chemical_formula_structural   U2MoO8
_chemical_formula_sum   'U8 Mo4 O32'
_cell_volume   658.02103733
_cell_formula_units_Z   4
loop_
 _symmetry_equiv_pos_site_id
 _symmetry_equiv_pos_as_xyz
  1  'x, y, z'
loop_
 _atom_site_type_symbol
 _atom_site_label
 _atom_site_symmetry_multiplicity
 _atom_site_fract_x
 _atom_site_fract_y
 _atom_site_fract_z
 _atom_site_occupancy
  U  U0  1  0.87969700  0.49276600  0.69618000  1
  U  U1  1  0.28722900  0.50151000  0.33234300  1
  U  U2  1  0.78722900  0.49849000  0.16765700  1
  U  U3  1  0.62030300  0.49276600  0.19618000  1
  U  U4  1  0.71277100  0.49849000  0.66765700  1
  U  U5  1  0.37969700  0.50723400  0.80382000  1
  U  U6  1  0.21277100  0.50151000  0.83234300  1
  U  U7  1  0.12030300  0.50723400  0.30382000  1
  Mo  Mo0  1  0.45237500  0.41385500  0.33409000  1
  Mo  Mo1  1  0.95237500  0.58614500  0.16591000  1
  Mo  Mo2  1  0.04762500  0.41385500  0.83409000  1
  Mo  Mo3  1  0.54762500  0.58614500  0.66591000  1
  O  O0  1  0.70828000  0.49780800  0.34199500  1
  O  O1  1  0.43150500  0.50775900  0.04653600  1
  O  O2  1  0.06849500  0.50775900  0.54653600  1
  O  O3  1  0.45501100  0.99408100  0.31841900  1
  O  O4  1  0.18720900  0.50120200  0.53415100  1
  O  O5  1  0.29172000  0.50219200  0.65800500  1
  O  O6  1  0.20828000  0.50219200  0.15800500  1
  O  O7  1  0.21486900  0.00119200  0.83448500  1
  O  O8  1  0.37428400  0.50902600  0.41737400  1
  O  O9  1  0.12230700  0.00462500  0.29059200  1
  O  O10  1  0.95501100  0.00591900  0.18158100  1
  O  O11  1  0.96360900  0.50809000  0.86226300  1
  O  O12  1  0.46360900  0.49191000  0.63773700  1
  O  O13  1  0.68720900  0.49879800  0.96584900  1
  O  O14  1  0.28513100  0.00119200  0.33448500  1
  O  O15  1  0.87769300  0.99537500  0.70940800  1
  O  O16  1  0.37769300  0.00462500  0.79059200  1
  O  O17  1  0.31279100  0.50120200  0.03415100  1
  O  O18  1  0.12571600  0.50902600  0.91737400  1
  O  O19  1  0.56849500  0.49224100  0.95346400  1
  O  O20  1  0.78513100  0.99880800  0.16551500  1
  O  O21  1  0.04498900  0.99408100  0.81841900  1
  O  O22  1  0.79172000  0.49780800  0.84199500  1
  O  O23  1  0.62230700  0.99537500  0.20940800  1
  O  O24  1  0.81279100  0.49879800  0.46584900  1
  O  O25  1  0.53639100  0.50809000  0.36226300  1
  O  O26  1  0.93150500  0.49224100  0.45346400  1
  O  O27  1  0.87428400  0.49097400  0.08262600  1
  O  O28  1  0.54498900  0.00591900  0.68158100  1
  O  O29  1  0.03639100  0.49191000  0.13773700  1
  O  O30  1  0.62571600  0.49097400  0.58262600  1
  O  O31  1  0.71486900  0.99880800  0.66551500  1
loop_
_geom_bond_atom_site_label_1
_geom_bond_atom_site_label_2
_geom_bond_distance
_geom_bond_site_symmetry_2
Mo0 O3 1.747339 1_545
Mo0 O8 1.983007 1_555
Mo0 O1 2.011024 1_555
Mo0 O25 2.049618 1_555
Mo0 O12 2.065486 1_555
Mo0 O3 2.410319 1_555
Mo1 O10 1.747339 1_565
Mo1 O27 1.983007 1_555
Mo1 O26 2.011024 1_555
Mo1 O29 2.049618 1_655
Mo1 O11 2.065486 1_554
Mo1 O10 2.410319 1_555
Mo2 O21 1.747339 1_545
Mo2 O18 1.983007 1_555
Mo2 O2 2.011024 1_555
Mo2 O11 2.049618 1_455
Mo2 O29 2.065486 1_556
Mo2 O21 2.410319 1_555
Mo3 O28 1.747339 1_565
Mo3 O30 1.983007 1_555
Mo3 O19 2.011024 1_555
Mo3 O12 2.049618 1_555
Mo3 O25 2.065486 1_555
Mo3 O28 2.410319 1_555
O0 U4 2.168588 1_555
O0 U2 2.210585 1_555
O0 U3 2.310857 1_555
O1 U5 2.032563 1_554
O2 U7 2.032563 1_555
O4 U6 2.074742 1_555
O4 U7 2.211492 1_555
O5 U1 2.168588 1_555
O5 U6 2.210585 1_555
O5 U5 2.310857 1_555
O6 U6 2.168588 1_554
O6 U1 2.210585 1_555
O6 U7 2.310857 1_555
O7 U6 2.074624 1_545
O7 U6 2.077019 1_555
O8 U1 2.151317 1_555
O8 U5 2.573365 1_555
O9 U7 2.066017 1_545
O9 U7 2.089150 1_555
O11 U0 2.286272 1_555
O12 U5 2.286272 1_555
O13 U4 2.074742 1_555
O13 U3 2.211492 1_556
O14 U1 2.074624 1_545
O14 U1 2.077019 1_555
O15 U0 2.066017 1_565
O15 U0 2.089150 1_555
O16 U5 2.066017 1_545
O16 U5 2.089150 1_555
O17 U1 2.074742 1_555
O17 U5 2.211492 1_554
O18 U6 2.151317 1_555
O18 U7 2.573365 1_556
O19 U3 2.032563 1_556
O20 U2 2.074624 1_565
O20 U2 2.077019 1_555
O22 U2 2.168588 1_556
O22 U4 2.210585 1_555
O22 U0 2.310857 1_555
O23 U3 2.066017 1_565
O23 U3 2.089150 1_555
O24 U2 2.074742 1_555
O24 U0 2.211492 1_555
O25 U3 2.286272 1_555
O26 U0 2.032563 1_555
O27 U2 2.151317 1_555
O27 U0 2.573365 1_554
O29 U7 2.286272 1_555
O30 U4 2.151317 1_555
O30 U3 2.573365 1_555
O31 U4 2.074624 1_565
O31 U4 2.077019 1_555
