# generated using pymatgen
data_LiCrP2O7
_symmetry_space_group_name_H-M   'P 1'
_cell_length_a   8.09757318
_cell_length_b   8.09757318
_cell_length_c   8.31405305
_cell_angle_alpha   63.10320550
_cell_angle_beta   63.10320550
_cell_angle_gamma   39.71872056
_symmetry_Int_Tables_number   1
_chemical_formula_structural   LiCrP2O7
_chemical_formula_sum   'Li2 Cr2 P4 O14'
_cell_volume   305.42211481
_cell_formula_units_Z   2
loop_
 _symmetry_equiv_pos_site_id
 _symmetry_equiv_pos_as_xyz
  1  'x, y, z'
loop_
 _atom_site_type_symbol
 _atom_site_label
 _atom_site_symmetry_multiplicity
 _atom_site_fract_x
 _atom_site_fract_y
 _atom_site_fract_z
 _atom_site_occupancy
  Li  Li0  1  0.41439700  0.04512400  0.67588200  1
  Li  Li1  1  0.04512400  0.41439700  0.17588200  1
  Cr  Cr0  1  0.97355700  0.02164100  0.49383800  1
  Cr  Cr1  1  0.02164100  0.97355700  0.99383800  1
  P  P0  1  0.24860600  0.53678100  0.35584300  1
  P  P1  1  0.45924000  0.75409300  0.15137300  1
  P  P2  1  0.75409300  0.45924000  0.65137300  1
  P  P3  1  0.53678100  0.24860600  0.85584300  1
  O  O0  1  0.25155300  0.95479500  0.28292600  1
  O  O1  1  0.69249500  0.09337300  0.70053600  1
  O  O2  1  0.09485600  0.70828500  0.50156400  1
  O  O3  1  0.50274600  0.49732000  0.25842400  1
  O  O4  1  0.70828500  0.09485600  0.00156400  1
  O  O5  1  0.09337300  0.69249500  0.20053600  1
  O  O6  1  0.95479500  0.25155300  0.78292600  1
  O  O7  1  0.87647800  0.32742200  0.48580600  1
  O  O8  1  0.65519000  0.72128300  0.59484000  1
  O  O9  1  0.72128300  0.65519000  0.09484000  1
  O  O10  1  0.32742200  0.87647800  0.98580600  1
  O  O11  1  0.34208000  0.27607500  0.43875600  1
  O  O12  1  0.27607500  0.34208000  0.93875600  1
  O  O13  1  0.49732000  0.50274600  0.75842400  1
loop_
_geom_bond_atom_site_label_1
_geom_bond_atom_site_label_2
_geom_bond_distance
_geom_bond_site_symmetry_2
Li0 O8 1.917420 1_545
Li0 O11 1.936760 1_555
Li0 O10 2.377896 1_545
Li0 O6 2.493166 1_455
Li0 O1 2.666344 1_555
Li1 O9 1.917420 1_455
Li1 O12 1.936760 1_554
Li1 O7 2.377896 1_455
Li1 O0 2.493166 1_545
Li1 O5 2.666344 1_555
Cr0 O2 1.866247 1_645
Cr0 O7 1.912304 1_555
Cr0 O1 1.949658 1_555
Cr0 O0 1.961659 1_645
Cr1 O4 1.866247 1_466
Cr1 O10 1.912304 1_555
Cr1 O5 1.949658 1_556
Cr1 O6 1.961659 1_465
O0 P1 1.550866 1_555
O1 P3 1.547383 1_555
O2 P0 1.563398 1_555
O3 P0 1.645484 1_555
O3 P1 1.649839 1_555
O4 P3 1.563398 1_554
O5 P0 1.547383 1_555
O6 P2 1.550866 1_555
O7 P2 1.576109 1_555
O8 P2 1.479440 1_555
O9 P1 1.479440 1_555
O10 P1 1.576109 1_556
O11 P0 1.483917 1_555
O12 P3 1.483917 1_555
O13 P3 1.645484 1_555
O13 P2 1.649839 1_555
