# generated using pymatgen
data_Ho2Zr8O19
_symmetry_space_group_name_H-M   'P 1'
_cell_length_a   3.63842000
_cell_length_b   3.63842000
_cell_length_c   25.69179000
_cell_angle_alpha   90.00000000
_cell_angle_beta   90.00000000
_cell_angle_gamma   90.00000000
_symmetry_Int_Tables_number   1
_chemical_formula_structural   Ho2Zr8O19
_chemical_formula_sum   'Ho2 Zr8 O19'
_cell_volume   340.11048768
_cell_formula_units_Z   1
loop_
 _symmetry_equiv_pos_site_id
 _symmetry_equiv_pos_as_xyz
  1  'x, y, z'
loop_
 _atom_site_type_symbol
 _atom_site_label
 _atom_site_symmetry_multiplicity
 _atom_site_fract_x
 _atom_site_fract_y
 _atom_site_fract_z
 _atom_site_occupancy
  Ho  Ho0  1  0.50000000  0.00000000  0.94377000  1
  Ho  Ho1  1  0.00000000  0.50000000  0.05623000  1
  Zr  Zr0  1  0.50000000  0.00000000  0.15229100  1
  Zr  Zr1  1  0.00000000  0.50000000  0.25161900  1
  Zr  Zr2  1  0.50000000  0.00000000  0.35096900  1
  Zr  Zr3  1  0.00000000  0.50000000  0.45034200  1
  Zr  Zr4  1  0.50000000  0.00000000  0.54965800  1
  Zr  Zr5  1  0.00000000  0.50000000  0.64903100  1
  Zr  Zr6  1  0.50000000  0.00000000  0.74838100  1
  Zr  Zr7  1  0.00000000  0.50000000  0.84770900  1
  O  O0  1  0.50000000  0.50000000  0.19659900  1
  O  O1  1  0.00000000  0.00000000  0.30521900  1
  O  O2  1  0.50000000  0.50000000  0.39828400  1
  O  O3  1  0.00000000  0.00000000  0.50000000  1
  O  O4  1  0.50000000  0.50000000  0.60171600  1
  O  O5  1  0.00000000  0.00000000  0.69478100  1
  O  O6  1  0.50000000  0.50000000  0.80340100  1
  O  O7  1  0.00000000  0.00000000  0.79276600  1
  O  O8  1  0.00000000  0.00000000  0.89146700  1
  O  O9  1  0.50000000  0.50000000  0.90309500  1
  O  O10  1  0.00000000  0.00000000  0.00000000  1
  O  O11  1  0.00000000  0.00000000  0.10853300  1
  O  O12  1  0.50000000  0.50000000  0.09690500  1
  O  O13  1  0.00000000  0.00000000  0.20723400  1
  O  O14  1  0.50000000  0.50000000  0.29715200  1
  O  O15  1  0.00000000  0.00000000  0.40276700  1
  O  O16  1  0.50000000  0.50000000  0.50000000  1
  O  O17  1  0.00000000  0.00000000  0.59723300  1
  O  O18  1  0.50000000  0.50000000  0.70284800  1
loop_
_geom_bond_atom_site_label_1
_geom_bond_atom_site_label_2
_geom_bond_distance
_geom_bond_site_symmetry_2
Ho0 O9 2.097994 1_555
Ho0 O9 2.097994 1_545
Ho0 O8 2.261683 1_555
Ho0 O8 2.261683 1_655
Ho0 O10 2.323045 1_656
Ho0 O10 2.323045 1_556
Ho1 O12 2.097994 1_455
Ho1 O12 2.097994 1_555
Ho1 O11 2.261683 1_565
Ho1 O11 2.261683 1_555
Ho1 O10 2.323045 1_555
Ho1 O10 2.323045 1_565
O0 Zr0 2.146013 1_565
O0 Zr0 2.146013 1_555
O0 Zr1 2.303841 1_655
O0 Zr1 2.303841 1_555
O1 Zr2 2.165892 1_555
O1 Zr2 2.165892 1_455
O1 Zr1 2.281638 1_555
O1 Zr1 2.281638 1_545
O2 Zr2 2.187973 1_565
O2 Zr2 2.187973 1_555
O2 Zr3 2.257949 1_555
O2 Zr3 2.257949 1_655
O3 Zr4 2.221981 1_455
O3 Zr3 2.221981 1_545
O3 Zr3 2.221981 1_555
O3 Zr4 2.221981 1_555
O4 Zr5 2.187973 1_655
O4 Zr5 2.187973 1_555
O4 Zr4 2.257949 1_565
O4 Zr4 2.257949 1_555
O5 Zr5 2.165892 1_555
O5 Zr5 2.165892 1_545
O5 Zr6 2.281638 1_555
O5 Zr6 2.281638 1_455
O6 Zr7 2.146013 1_655
O6 Zr7 2.146013 1_555
O6 Zr6 2.303841 1_555
O6 Zr6 2.303841 1_565
O7 Zr6 2.147063 1_455
O7 Zr6 2.147063 1_555
O7 Zr7 2.302628 1_545
O7 Zr7 2.302628 1_555
O8 Zr7 2.138551 1_555
O8 Zr7 2.138551 1_545
O9 Zr7 2.309622 1_555
O9 Zr7 2.309622 1_655
O11 Zr0 2.138551 1_555
O11 Zr0 2.138551 1_455
O12 Zr0 2.309622 1_565
O12 Zr0 2.309622 1_555
O13 Zr1 2.147063 1_555
O13 Zr1 2.147063 1_545
O13 Zr0 2.302628 1_555
O13 Zr0 2.302628 1_455
O14 Zr1 2.162872 1_655
O14 Zr1 2.162872 1_555
O14 Zr2 2.285008 1_555
O14 Zr2 2.285008 1_565
O15 Zr3 2.191691 1_545
O15 Zr3 2.191691 1_555
O15 Zr2 2.253999 1_555
O15 Zr2 2.253999 1_455
O16 Zr4 2.221981 1_565
O16 Zr3 2.221981 1_655
O16 Zr3 2.221981 1_555
O16 Zr4 2.221981 1_555
O17 Zr4 2.191691 1_455
O17 Zr4 2.191691 1_555
O17 Zr5 2.253999 1_545
O17 Zr5 2.253999 1_555
O18 Zr6 2.162872 1_555
O18 Zr6 2.162872 1_565
O18 Zr5 2.285008 1_555
O18 Zr5 2.285008 1_655
