# generated using pymatgen
data_H7NO6
_symmetry_space_group_name_H-M   'P 1'
_cell_length_a   3.47383800
_cell_length_b   9.95883900
_cell_length_c   15.35106400
_cell_angle_alpha   90.00000000
_cell_angle_beta   90.00000000
_cell_angle_gamma   90.00000000
_symmetry_Int_Tables_number   1
_chemical_formula_structural   H7NO6
_chemical_formula_sum   'H28 N4 O24'
_cell_volume   531.07609748
_cell_formula_units_Z   4
loop_
 _symmetry_equiv_pos_site_id
 _symmetry_equiv_pos_as_xyz
  1  'x, y, z'
loop_
 _atom_site_type_symbol
 _atom_site_label
 _atom_site_symmetry_multiplicity
 _atom_site_fract_x
 _atom_site_fract_y
 _atom_site_fract_z
 _atom_site_occupancy
  H  H0  1  0.35908300  0.58681200  0.74791700  1
  H  H1  1  0.85908300  0.91318800  0.25208300  1
  H  H2  1  0.64091700  0.08681200  0.75208300  1
  H  H3  1  0.14091700  0.41318800  0.24791700  1
  H  H4  1  0.95541800  0.47996700  0.66784700  1
  H  H5  1  0.24902000  0.53665600  0.59660100  1
  H  H6  1  0.74902000  0.96334400  0.40339900  1
  H  H7  1  0.45541800  0.02003300  0.33215300  1
  H  H8  1  0.75098000  0.03665600  0.90339900  1
  H  H9  1  0.04458200  0.97996700  0.83215300  1
  H  H10  1  0.25098000  0.46334400  0.09660100  1
  H  H11  1  0.54458200  0.52003300  0.16784700  1
  H  H12  1  0.97945100  0.55710900  0.97963900  1
  H  H13  1  0.15120800  0.41124900  0.96079200  1
  H  H14  1  0.47945100  0.94289100  0.02036100  1
  H  H15  1  0.65120800  0.08875100  0.03920800  1
  H  H16  1  0.02054900  0.05710900  0.52036100  1
  H  H17  1  0.84879200  0.91124900  0.53920800  1
  H  H18  1  0.52054900  0.44289100  0.47963900  1
  H  H19  1  0.34879200  0.58875100  0.46079200  1
  H  H20  1  0.57236400  0.29202500  0.88314900  1
  H  H21  1  0.19831600  0.20333600  0.88187400  1
  H  H22  1  0.69831600  0.29666400  0.11812600  1
  H  H23  1  0.07236400  0.20797500  0.11685100  1
  H  H24  1  0.42763600  0.79202500  0.61685100  1
  H  H25  1  0.80168400  0.70333600  0.61812600  1
  H  H26  1  0.92763600  0.70797500  0.38314900  1
  H  H27  1  0.30168400  0.79666400  0.38187400  1
  N  N0  1  0.31269100  0.72718300  0.83553400  1
  N  N1  1  0.81269100  0.77281700  0.16446600  1
  N  N2  1  0.68730900  0.22718300  0.66446600  1
  N  N3  1  0.18730900  0.27281700  0.33553400  1
  O  O0  1  0.42821900  0.59921200  0.81308900  1
  O  O1  1  0.92821900  0.90078800  0.18691100  1
  O  O2  1  0.57178100  0.09921200  0.68691100  1
  O  O3  1  0.07178100  0.40078800  0.31308900  1
  O  O4  1  0.27546100  0.81017400  0.77619000  1
  O  O5  1  0.77546100  0.68982600  0.22381000  1
  O  O6  1  0.72453900  0.31017400  0.72381000  1
  O  O7  1  0.22453900  0.18982600  0.27619000  1
  O  O8  1  0.25692900  0.74569700  0.91318800  1
  O  O9  1  0.75692900  0.75430300  0.08681200  1
  O  O10  1  0.74307100  0.24569700  0.58681200  1
  O  O11  1  0.24307100  0.25430300  0.41318800  1
  O  O12  1  0.12940400  0.55560500  0.65661500  1
  O  O13  1  0.62940400  0.94439500  0.34338500  1
  O  O14  1  0.87059600  0.05560500  0.84338500  1
  O  O15  1  0.37059600  0.44439500  0.15661500  1
  O  O16  1  0.04099700  0.47144100  0.00668600  1
  O  O17  1  0.54099700  0.02855900  0.99331400  1
  O  O18  1  0.95900300  0.97144100  0.49331400  1
  O  O19  1  0.45900300  0.52855900  0.50668600  1
  O  O20  1  0.29524200  0.29524100  0.89147900  1
  O  O21  1  0.79524200  0.20475900  0.10852100  1
  O  O22  1  0.70475800  0.79524100  0.60852100  1
  O  O23  1  0.20475800  0.70475900  0.39147900  1
loop_
_geom_bond_atom_site_label_1
_geom_bond_atom_site_label_2
_geom_bond_distance
_geom_bond_site_symmetry_2
H0 O0 1.036267 1_555
H0 O12 1.642442 1_555
H1 O1 1.036267 1_555
H1 O13 1.642442 1_555
H2 O2 1.036267 1_555
H2 O14 1.642442 1_555
H3 O3 1.036267 1_555
H3 O15 1.642442 1_555
H4 O12 0.981040 1_655
H5 O12 1.028119 1_555
H5 O19 1.563265 1_555
H6 O13 1.028119 1_555
H6 O18 1.563265 1_555
H7 O13 0.981040 1_545
H8 O14 1.028119 1_555
H8 O17 1.563265 1_555
H9 O14 0.981040 1_465
H10 O15 1.028119 1_555
H10 O16 1.563265 1_555
H11 O15 0.981040 1_555
H12 O16 0.972612 1_656
H13 O16 1.001129 1_556
H14 O17 0.972612 1_564
H15 O17 1.001129 1_554
H16 O18 0.972612 1_445
H17 O18 1.001129 1_555
H18 O19 0.972612 1_555
H19 O19 1.001129 1_555
H20 O20 0.971661 1_555
H21 O20 0.986319 1_555
H22 O21 0.986319 1_555
H23 O21 0.971661 1_455
H24 O22 0.971661 1_555
H25 O22 0.986319 1_555
H26 O23 0.971661 1_655
H27 O23 0.986319 1_555
N0 O8 1.221701 1_555
N0 O4 1.236822 1_555
N0 O0 1.379849 1_555
N1 O9 1.221701 1_555
N1 O5 1.236822 1_555
N1 O1 1.379849 1_555
N2 O10 1.221701 1_555
N2 O6 1.236822 1_555
N2 O2 1.379849 1_555
N3 O11 1.221701 1_555
N3 O7 1.236822 1_555
N3 O3 1.379849 1_555
