# generated using pymatgen
data_ReC5BrO5
_symmetry_space_group_name_H-M   'P 1'
_cell_length_a   6.18953200
_cell_length_b   11.78002800
_cell_length_c   12.17488200
_cell_angle_alpha   90.00000000
_cell_angle_beta   90.00000000
_cell_angle_gamma   90.00000000
_symmetry_Int_Tables_number   1
_chemical_formula_structural   ReC5BrO5
_chemical_formula_sum   'Re4 C20 Br4 O20'
_cell_volume   887.70547003
_cell_formula_units_Z   4
loop_
 _symmetry_equiv_pos_site_id
 _symmetry_equiv_pos_as_xyz
  1  'x, y, z'
loop_
 _atom_site_type_symbol
 _atom_site_label
 _atom_site_symmetry_multiplicity
 _atom_site_fract_x
 _atom_site_fract_y
 _atom_site_fract_z
 _atom_site_occupancy
  Re  Re0  1  0.95631800  0.75000000  0.87536700  1
  Re  Re1  1  0.45631800  0.25000000  0.62463300  1
  Re  Re2  1  0.04368200  0.25000000  0.12463300  1
  Re  Re3  1  0.54368200  0.75000000  0.37536700  1
  C  C0  1  0.18541400  0.12684300  0.03464400  1
  C  C1  1  0.81458600  0.62684300  0.96535600  1
  C  C2  1  0.91559900  0.12761400  0.22060500  1
  C  C3  1  0.58440100  0.12761400  0.72060500  1
  C  C4  1  0.79586900  0.25000000  0.02821900  1
  C  C5  1  0.41559900  0.62761400  0.27939500  1
  C  C6  1  0.68541400  0.87315700  0.46535600  1
  C  C7  1  0.68541400  0.62684300  0.46535600  1
  C  C8  1  0.91559900  0.37238600  0.22060500  1
  C  C9  1  0.18541400  0.37315700  0.03464400  1
  C  C10  1  0.81458600  0.87315700  0.96535600  1
  C  C11  1  0.08440100  0.62761400  0.77939500  1
  C  C12  1  0.08440100  0.87238600  0.77939500  1
  C  C13  1  0.31458600  0.37315700  0.53464400  1
  C  C14  1  0.70413100  0.25000000  0.52821900  1
  C  C15  1  0.41559900  0.87238600  0.27939500  1
  C  C16  1  0.31458600  0.12684300  0.53464400  1
  C  C17  1  0.58440100  0.37238600  0.72060500  1
  C  C18  1  0.20413100  0.75000000  0.97178100  1
  C  C19  1  0.29586900  0.75000000  0.47178100  1
  Br  Br0  1  0.10988600  0.25000000  0.75286900  1
  Br  Br1  1  0.39011400  0.25000000  0.25286900  1
  Br  Br2  1  0.60988600  0.75000000  0.74713100  1
  Br  Br3  1  0.89011400  0.75000000  0.24713100  1
  O  O0  1  0.73873100  0.94560200  0.01610700  1
  O  O1  1  0.73873100  0.55439800  0.01610700  1
  O  O2  1  0.23873100  0.44560200  0.48389300  1
  O  O3  1  0.84674700  0.44415800  0.27437600  1
  O  O4  1  0.15418600  0.75000000  0.53503200  1
  O  O5  1  0.34581400  0.75000000  0.03503200  1
  O  O6  1  0.84581400  0.25000000  0.46496800  1
  O  O7  1  0.76126900  0.94560200  0.51610700  1
  O  O8  1  0.65418600  0.25000000  0.96496800  1
  O  O9  1  0.34674700  0.94415800  0.22562400  1
  O  O10  1  0.84674700  0.05584200  0.27437600  1
  O  O11  1  0.15325300  0.55584200  0.72562400  1
  O  O12  1  0.65325300  0.44415800  0.77437600  1
  O  O13  1  0.26126900  0.05439800  0.98389300  1
  O  O14  1  0.65325300  0.05584200  0.77437600  1
  O  O15  1  0.23873100  0.05439800  0.48389300  1
  O  O16  1  0.15325300  0.94415800  0.72562400  1
  O  O17  1  0.34674700  0.55584200  0.22562400  1
  O  O18  1  0.26126900  0.44560200  0.98389300  1
  O  O19  1  0.76126900  0.55439800  0.51610700  1
loop_
_geom_bond_atom_site_label_1
_geom_bond_atom_site_label_2
_geom_bond_distance
_geom_bond_site_symmetry_2
C0 O13 1.153482 1_554
C0 Re2 2.018595 1_555
C1 O1 1.153482 1_556
C1 Re0 2.018595 1_555
C2 O10 1.151094 1_555
C2 Re2 2.017992 1_655
C3 O14 1.151094 1_555
C3 Re1 2.017992 1_555
C4 O8 1.167072 1_554
C4 Re2 1.931466 1_655
C5 O17 1.151094 1_555
C5 Re3 2.017992 1_555
C6 O7 1.153482 1_555
C6 Re3 2.018595 1_555
C7 O19 1.153482 1_555
C7 Re3 2.018595 1_555
C8 O3 1.151094 1_555
C8 Re2 2.017992 1_655
C9 O18 1.153482 1_554
C9 Re2 2.018595 1_555
C10 O0 1.153482 1_556
C10 Re0 2.018595 1_555
C11 O11 1.151094 1_555
C11 Re0 2.017992 1_455
C12 O16 1.151094 1_555
C12 Re0 2.017992 1_455
C13 O2 1.153482 1_555
C13 Re1 2.018595 1_555
C14 O6 1.167072 1_555
C14 Re1 1.931466 1_555
C15 O9 1.151094 1_555
C15 Re3 2.017992 1_555
C16 O15 1.153482 1_555
C16 Re1 2.018595 1_555
C17 O12 1.151094 1_555
C17 Re1 2.017992 1_555
C18 O5 1.167072 1_556
C18 Re0 1.931466 1_455
C19 O4 1.167072 1_555
C19 Re3 1.931466 1_555
Br0 Re1 2.652422 1_555
Br1 Re2 2.652422 1_555
Br2 Re0 2.652422 1_555
Br3 Re3 2.652422 1_555
