# generated using pymatgen
data_Yb2Se3
_symmetry_space_group_name_H-M   'P 1'
_cell_length_a   15.06458616
_cell_length_b   15.06458616
_cell_length_c   15.06458616
_cell_angle_alpha   145.96223719
_cell_angle_beta   145.96223719
_cell_angle_gamma   48.90285669
_symmetry_Int_Tables_number   1
_chemical_formula_structural   Yb2Se3
_chemical_formula_sum   'Yb16 Se24'
_cell_volume   1066.42048751
_cell_formula_units_Z   8
loop_
 _symmetry_equiv_pos_site_id
 _symmetry_equiv_pos_as_xyz
  1  'x, y, z'
loop_
 _atom_site_type_symbol
 _atom_site_label
 _atom_site_symmetry_multiplicity
 _atom_site_fract_x
 _atom_site_fract_y
 _atom_site_fract_z
 _atom_site_occupancy
  Yb  Yb0  1  0.23949500  0.34407100  0.66157300  1
  Yb  Yb1  1  0.68249800  0.57792200  0.33842700  1
  Yb  Yb2  1  0.40981400  0.90981400  0.50000000  1
  Yb  Yb3  1  0.73751900  0.12500000  0.11251900  1
  Yb  Yb4  1  0.51050500  0.67207800  0.60457600  1
  Yb  Yb5  1  0.34018600  0.34018600  0.00000000  1
  Yb  Yb6  1  0.06750200  0.90592900  0.39542400  1
  Yb  Yb7  1  0.01248100  0.62500000  0.88748100  1
  Yb  Yb8  1  0.09407100  0.48949500  0.16157300  1
  Yb  Yb9  1  0.87500000  0.98751900  0.61251900  1
  Yb  Yb10  1  0.65981400  0.65981400  0.00000000  1
  Yb  Yb11  1  0.37500000  0.26248100  0.38748100  1
  Yb  Yb12  1  0.32792200  0.93249800  0.83842700  1
  Yb  Yb13  1  0.09018600  0.59018600  0.50000000  1
  Yb  Yb14  1  0.42207800  0.76050500  0.10457600  1
  Yb  Yb15  1  0.65592900  0.31750200  0.89542400  1
  Se  Se0  1  0.34223100  0.61517700  0.09068800  1
  Se  Se1  1  0.07194300  0.02661200  0.30432300  1
  Se  Se2  1  0.52448900  0.25154300  0.90931200  1
  Se  Se3  1  0.40776900  0.99845700  0.77294600  1
  Se  Se4  1  0.22551100  0.63482300  0.22705400  1
  Se  Se5  1  0.72228900  0.76762000  0.69567700  1
  Se  Se6  1  0.02771100  0.22338800  0.54533100  1
  Se  Se7  1  0.71701400  0.89363500  0.07957900  1
  Se  Se8  1  0.67805700  0.48238000  0.45466900  1
  Se  Se9  1  0.36256500  0.28298600  0.17662100  1
  Se  Se10  1  0.81405600  0.63743500  0.92042100  1
  Se  Se11  1  0.77661200  0.32194300  0.80432300  1
  Se  Se12  1  0.51762000  0.97228900  0.19567700  1
  Se  Se13  1  0.10636500  0.18594400  0.82337900  1
  Se  Se14  1  0.36517700  0.59223100  0.59068800  1
  Se  Se15  1  0.97338800  0.27771100  0.04533100  1
  Se  Se16  1  0.00154300  0.77448900  0.40931200  1
  Se  Se17  1  0.74845700  0.65776900  0.27294600  1
  Se  Se18  1  0.23238000  0.92805700  0.95466900  1
  Se  Se19  1  0.03298600  0.61256500  0.67662100  1
  Se  Se20  1  0.93594400  0.35636500  0.32337900  1
  Se  Se21  1  0.38482300  0.47551100  0.72705400  1
  Se  Se22  1  0.64363500  0.96701400  0.57957900  1
  Se  Se23  1  0.38743500  0.06405600  0.42042100  1
loop_
_geom_bond_atom_site_label_1
_geom_bond_atom_site_label_2
_geom_bond_distance
_geom_bond_site_symmetry_2
Se0 Yb1 2.915909 1_555
Se0 Yb14 2.927389 1_555
Se0 Yb7 2.941276 1_554
Se0 Yb0 2.972633 1_554
Se0 Yb2 2.989272 1_555
Se0 Yb5 3.122012 1_555
Se1 Se6 2.447175 1_555
Se1 Yb0 2.984272 1_555
Se1 Yb3 3.013638 1_455
Se1 Yb6 3.104912 1_545
Se1 Yb2 3.106115 1_545
Se1 Yb7 3.416987 1_544
Se2 Yb0 2.915909 1_555
Se2 Yb15 2.927389 1_555
Se2 Yb3 2.941276 1_556
Se2 Yb1 2.972633 1_556
Se2 Yb2 2.989272 1_545
Se2 Yb5 3.122012 1_556
Se3 Yb6 2.915909 1_555
Se3 Yb12 2.927389 1_555
Se3 Yb3 2.941276 1_566
Se3 Yb4 2.972633 1_555
Se3 Yb5 2.989272 1_566
Se3 Yb2 3.122012 1_555
Se4 Yb4 2.915909 1_555
Se4 Yb8 2.927389 1_555
Se4 Yb7 2.941276 1_554
Se4 Yb6 2.972633 1_555
Se4 Yb5 2.989272 1_555
Se4 Yb2 3.122012 1_555
Se5 Se8 2.447175 1_555
Se5 Yb1 2.984272 1_555
Se5 Yb7 3.013638 1_655
Se5 Yb4 3.104912 1_555
Se5 Yb2 3.106115 1_555
Se5 Yb3 3.416987 1_566
Se6 Yb6 2.984272 1_545
Se6 Yb3 3.013638 1_455
Se6 Yb0 3.104912 1_555
Se6 Yb5 3.106115 1_556
Se6 Yb7 3.416987 1_555
Se7 Yb6 2.956397 1_655
Se7 Yb4 3.032494 1_554
Se7 Yb10 3.141159 1_555
Se7 Yb3 3.284011 1_565
Se7 Yb12 3.408777 1_554
Se8 Yb4 2.984272 1_555
Se8 Yb7 3.013638 1_655
Se8 Yb1 3.104912 1_555
Se8 Yb5 3.106115 1_555
Se8 Yb3 3.416987 1_555
Se9 Yb12 2.956397 1_544
Se9 Yb8 3.032494 1_555
Se9 Yb5 3.141159 1_555
Se9 Yb11 3.284011 1_555
Se9 Yb4 3.408777 1_555
Se10 Se7 2.415916 1_556
Se10 Yb4 2.956397 1_555
Se10 Yb6 3.032494 1_656
Se10 Yb10 3.141159 1_556
Se10 Yb7 3.284011 1_655
Se10 Yb8 3.408777 1_656
Se11 Se15 2.447175 1_556
Se11 Yb8 2.984272 1_656
Se11 Yb9 3.013638 1_545
Se11 Yb15 3.104912 1_555
Se11 Yb10 3.106115 1_556
Se11 Yb11 3.416987 1_555
Se12 Se18 2.447175 1_554
Se12 Yb12 2.984272 1_554
Se12 Yb11 3.013638 1_565
Se12 Yb14 3.104912 1_555
Se12 Yb10 3.106115 1_555
Se12 Yb9 3.416987 1_555
Se13 Se9 2.415916 1_556
Se13 Yb8 2.956397 1_556
Se13 Yb12 3.032494 1_545
Se13 Yb5 3.141159 1_556
Se13 Yb9 3.284011 1_445
Se13 Yb6 3.408777 1_545
Se14 Yb12 2.915909 1_555
Se14 Yb4 2.927389 1_555
Se14 Yb11 2.941276 1_555
Se14 Yb8 2.972633 1_555
Se14 Yb10 2.989272 1_556
Se14 Yb13 3.122012 1_555
Se15 Yb15 2.984272 1_554
Se15 Yb9 3.013638 1_544
Se15 Yb8 3.104912 1_655
Se15 Yb13 3.106115 1_655
Se15 Yb11 3.416987 1_655
Se16 Yb8 2.915909 1_555
Se16 Yb6 2.927389 1_555
Se16 Yb9 2.941276 1_455
Se16 Yb12 2.972633 1_555
Se16 Yb10 2.989272 1_455
Se16 Yb13 3.122012 1_555
Se17 Yb15 2.915909 1_554
Se17 Yb1 2.927389 1_555
Se17 Yb9 2.941276 1_555
Se17 Yb14 2.972633 1_555
Se17 Yb13 2.989272 1_655
Se17 Yb10 3.122012 1_555
Se18 Yb14 2.984272 1_556
Se18 Yb11 3.013638 1_566
Se18 Yb12 3.104912 1_555
Se18 Yb13 3.106115 1_555
Se18 Yb9 3.416987 1_455
Se19 Se20 2.415916 1_455
Se19 Yb1 2.956397 1_455
Se19 Yb0 3.032494 1_555
Se19 Yb13 3.141159 1_555
Se19 Yb7 3.284011 1_555
Se19 Yb14 3.408777 1_556
Se20 Yb0 2.956397 1_655
Se20 Yb1 3.032494 1_555
Se20 Yb13 3.141159 1_655
Se20 Yb3 3.284011 1_555
Se20 Yb15 3.408777 1_554
Se21 Yb14 2.915909 1_556
Se21 Yb0 2.927389 1_555
Se21 Yb11 2.941276 1_555
Se21 Yb15 2.972633 1_555
Se21 Yb13 2.989272 1_555
Se21 Yb10 3.122012 1_556
Se22 Se23 2.415916 1_565
Se22 Yb15 2.956397 1_565
Se22 Yb14 3.032494 1_555
Se22 Yb2 3.141159 1_555
Se22 Yb9 3.284011 1_555
Se22 Yb1 3.408777 1_555
Se23 Yb14 2.956397 1_545
Se23 Yb15 3.032494 1_555
Se23 Yb2 3.141159 1_545
Se23 Yb11 3.284011 1_555
Se23 Yb0 3.408777 1_555
