# generated using pymatgen
data_As5Pb3S10
_symmetry_space_group_name_H-M   'P 1'
_cell_length_a   8.17179400
_cell_length_b   8.74002400
_cell_length_c   26.46405561
_cell_angle_alpha   75.96959512
_cell_angle_beta   90.00000000
_cell_angle_gamma   90.00000000
_symmetry_Int_Tables_number   1
_chemical_formula_structural   As5Pb3S10
_chemical_formula_sum   'As20 Pb12 S40'
_cell_volume   1833.72002620
_cell_formula_units_Z   4
loop_
 _symmetry_equiv_pos_site_id
 _symmetry_equiv_pos_as_xyz
  1  'x, y, z'
loop_
 _atom_site_type_symbol
 _atom_site_label
 _atom_site_symmetry_multiplicity
 _atom_site_fract_x
 _atom_site_fract_y
 _atom_site_fract_z
 _atom_site_occupancy
  As  As0  1  0.33759100  0.28964600  0.04727400  1
  As  As1  1  0.66240900  0.71035400  0.95272600  1
  As  As2  1  0.16240900  0.28964600  0.54727400  1
  As  As3  1  0.80536400  0.14204100  0.43251300  1
  As  As4  1  0.15695000  0.25293400  0.35176100  1
  As  As5  1  0.99184200  0.38901300  0.95218600  1
  As  As6  1  0.50815800  0.38901300  0.45218600  1
  As  As7  1  0.49184200  0.61098700  0.54781400  1
  As  As8  1  0.64940300  0.30841600  0.16063700  1
  As  As9  1  0.85059700  0.30841600  0.66063700  1
  As  As10  1  0.84305000  0.74706600  0.64823900  1
  As  As11  1  0.69463600  0.14204100  0.93251300  1
  As  As12  1  0.19463600  0.85795900  0.56748700  1
  As  As13  1  0.34305000  0.25293400  0.85176100  1
  As  As14  1  0.30536400  0.85795900  0.06748700  1
  As  As15  1  0.00815800  0.61098700  0.04781400  1
  As  As16  1  0.83759100  0.71035400  0.45272600  1
  As  As17  1  0.14940300  0.69158400  0.33936300  1
  As  As18  1  0.35059700  0.69158400  0.83936300  1
  As  As19  1  0.65695000  0.74706600  0.14823900  1
  Pb  Pb0  1  0.72639300  0.98448100  0.80131800  1
  Pb  Pb1  1  0.76282100  0.47500000  0.29081200  1
  Pb  Pb2  1  0.41328500  0.90232500  0.42082000  1
  Pb  Pb3  1  0.91328500  0.09767500  0.07918000  1
  Pb  Pb4  1  0.26282100  0.52500000  0.20918800  1
  Pb  Pb5  1  0.23717900  0.52500000  0.70918800  1
  Pb  Pb6  1  0.08671500  0.90232500  0.92082000  1
  Pb  Pb7  1  0.73717900  0.47500000  0.79081200  1
  Pb  Pb8  1  0.27360700  0.01551900  0.19868200  1
  Pb  Pb9  1  0.22639300  0.01551900  0.69868200  1
  Pb  Pb10  1  0.77360700  0.98448100  0.30131800  1
  Pb  Pb11  1  0.58671500  0.09767500  0.57918000  1
  S  S0  1  0.31503100  0.48284600  0.32471300  1
  S  S1  1  0.01915400  0.05438200  0.58854500  1
  S  S2  1  0.49707800  0.73770200  0.76460700  1
  S  S3  1  0.82952200  0.82301200  0.00658600  1
  S  S4  1  0.01291900  0.25776800  0.27815200  1
  S  S5  1  0.32952200  0.17698800  0.49341400  1
  S  S6  1  0.65575500  0.70833700  0.38876500  1
  S  S7  1  0.02972800  0.63805800  0.60150500  1
  S  S8  1  0.68360900  0.40740800  0.51444100  1
  S  S9  1  0.82435800  0.10758500  0.18278400  1
  S  S10  1  0.62465500  0.16436100  0.36638300  1
  S  S11  1  0.17047800  0.17698800  0.99341400  1
  S  S12  1  0.18496900  0.48284600  0.82471300  1
  S  S13  1  0.00292200  0.73770200  0.26460700  1
  S  S14  1  0.32435800  0.89241500  0.31721600  1
  S  S15  1  0.81503100  0.51715400  0.17528700  1
  S  S16  1  0.48084600  0.05438200  0.08854500  1
  S  S17  1  0.18360900  0.59259200  0.98555900  1
  S  S18  1  0.67564200  0.10758500  0.68278400  1
  S  S19  1  0.98084600  0.94561800  0.41145500  1
  S  S20  1  0.17564200  0.89241500  0.81721600  1
  S  S21  1  0.51291900  0.74223200  0.22184800  1
  S  S22  1  0.31639100  0.59259200  0.48555900  1
  S  S23  1  0.84424500  0.70833700  0.88876500  1
  S  S24  1  0.47027200  0.63805800  0.10150500  1
  S  S25  1  0.99707800  0.26229800  0.73539300  1
  S  S26  1  0.34424500  0.29166300  0.61123500  1
  S  S27  1  0.52972800  0.36194200  0.89849500  1
  S  S28  1  0.87534500  0.16436100  0.86638300  1
  S  S29  1  0.67047800  0.82301200  0.50658600  1
  S  S30  1  0.50292200  0.26229800  0.23539300  1
  S  S31  1  0.37534500  0.83563900  0.63361700  1
  S  S32  1  0.12465500  0.83563900  0.13361700  1
  S  S33  1  0.15575500  0.29166300  0.11123500  1
  S  S34  1  0.97027200  0.36194200  0.39849500  1
  S  S35  1  0.98708100  0.74223200  0.72184800  1
  S  S36  1  0.68496900  0.51715400  0.67528700  1
  S  S37  1  0.51915400  0.94561800  0.91145500  1
  S  S38  1  0.81639100  0.40740800  0.01444100  1
  S  S39  1  0.48708100  0.25776800  0.77815200  1
loop_
_geom_bond_atom_site_label_1
_geom_bond_atom_site_label_2
_geom_bond_distance
_geom_bond_site_symmetry_2
As0 S33 2.255633 1_555
As0 S11 2.355108 1_554
As0 S16 2.387971 1_555
As1 S23 2.255633 1_555
As1 S3 2.355108 1_556
As1 S37 2.387971 1_555
As2 S26 2.255633 1_555
As2 S5 2.355108 1_555
As2 S1 2.387971 1_555
As3 S10 2.261847 1_555
As3 S34 2.341234 1_555
As3 S19 2.403749 1_545
As4 S4 2.267568 1_555
As4 S34 2.309928 1_455
As4 S0 2.349797 1_555
As5 S38 2.219062 1_556
As5 S11 2.403126 1_655
As5 S17 2.676483 1_655
As6 S8 2.219062 1_555
As6 S5 2.403126 1_555
As6 S22 2.676483 1_555
As7 S22 2.219062 1_555
As7 S29 2.403126 1_555
As7 S8 2.676483 1_555
As8 S9 2.229280 1_555
As8 S30 2.263298 1_555
As8 S15 2.377711 1_555
As9 S18 2.229280 1_555
As9 S25 2.263298 1_555
As9 S36 2.377711 1_555
As10 S35 2.267568 1_555
As10 S7 2.309928 1_655
As10 S36 2.349797 1_555
As11 S28 2.261847 1_555
As11 S27 2.341234 1_555
As11 S37 2.403749 1_545
As12 S31 2.261847 1_555
As12 S7 2.341234 1_555
As12 S1 2.403749 1_565
As13 S39 2.267568 1_555
As13 S27 2.309928 1_555
As13 S12 2.349797 1_555
As14 S32 2.261847 1_555
As14 S24 2.341234 1_555
As14 S16 2.403749 1_565
As15 S17 2.219062 1_554
As15 S3 2.403126 1_455
As15 S38 2.676483 1_455
As16 S6 2.255633 1_555
As16 S29 2.355108 1_555
As16 S19 2.387971 1_555
As17 S14 2.229280 1_555
As17 S13 2.263298 1_555
As17 S0 2.377711 1_555
As18 S20 2.229280 1_555
As18 S2 2.263298 1_555
As18 S12 2.377711 1_555
As19 S21 2.267568 1_555
As19 S24 2.309928 1_555
As19 S15 2.349797 1_555
Pb0 S28 2.868925 1_565
Pb0 S39 3.032382 1_565
Pb0 S23 3.065917 1_555
Pb0 S18 3.087592 1_565
Pb0 S2 3.181737 1_555
Pb1 S4 2.863969 1_655
Pb1 S13 2.971575 1_655
Pb1 S15 3.019678 1_555
Pb1 S10 3.164314 1_555
Pb2 S14 2.857989 1_555
Pb2 S6 2.866634 1_555
Pb2 S22 2.939667 1_555
Pb2 S10 2.950277 1_565
Pb2 S29 3.047378 1_555
Pb3 S9 2.857989 1_555
Pb3 S33 2.866634 1_655
Pb3 S38 2.939667 1_555
Pb3 S32 2.950277 1_645
Pb3 S11 3.047378 1_654
Pb4 S21 2.863969 1_555
Pb4 S30 2.971575 1_555
Pb4 S0 3.019678 1_555
Pb4 S32 3.164314 1_555
Pb5 S35 2.863969 1_455
Pb5 S25 2.971575 1_455
Pb5 S12 3.019678 1_555
Pb5 S31 3.164314 1_555
Pb6 S20 2.857989 1_555
Pb6 S23 2.866634 1_455
Pb6 S17 2.939667 1_555
Pb6 S28 2.950277 1_465
Pb6 S3 3.047378 1_456
Pb7 S39 2.863969 1_555
Pb7 S2 2.971575 1_555
Pb7 S36 3.019678 1_555
Pb7 S28 3.164314 1_555
Pb8 S32 2.868925 1_545
Pb8 S21 3.032382 1_545
Pb8 S33 3.065917 1_555
Pb8 S14 3.087592 1_545
Pb8 S30 3.181737 1_555
Pb9 S31 2.868925 1_545
Pb9 S35 3.032382 1_445
Pb9 S26 3.065917 1_555
Pb9 S20 3.087592 1_545
Pb9 S25 3.181737 1_455
Pb10 S10 2.868925 1_565
Pb10 S4 3.032382 1_665
Pb10 S6 3.065917 1_555
Pb10 S9 3.087592 1_565
Pb10 S13 3.181737 1_655
Pb11 S18 2.857989 1_555
Pb11 S26 2.866634 1_555
Pb11 S8 2.939667 1_555
Pb11 S31 2.950277 1_545
Pb11 S5 3.047378 1_555
