# generated using pymatgen
data_NaMgFe(SO4)3
_symmetry_space_group_name_H-M   'P 1'
_cell_length_a   8.62830309
_cell_length_b   8.62830309
_cell_length_c   8.93705821
_cell_angle_alpha   61.15212293
_cell_angle_beta   61.15212293
_cell_angle_gamma   59.81398301
_symmetry_Int_Tables_number   1
_chemical_formula_structural   NaMgFe(SO4)3
_chemical_formula_sum   'Na2 Mg2 Fe2 S6 O24'
_cell_volume   477.79684180
_cell_formula_units_Z   2
loop_
 _symmetry_equiv_pos_site_id
 _symmetry_equiv_pos_as_xyz
  1  'x, y, z'
loop_
 _atom_site_type_symbol
 _atom_site_label
 _atom_site_symmetry_multiplicity
 _atom_site_fract_x
 _atom_site_fract_y
 _atom_site_fract_z
 _atom_site_occupancy
  Na  Na0  1  0.00128800  0.50073100  0.99711000  1
  Na  Na1  1  0.50073100  0.00128800  0.49711000  1
  Mg  Mg0  1  0.14605100  0.65105900  0.55760700  1
  Mg  Mg1  1  0.65105900  0.14605100  0.05760700  1
  Fe  Fe0  1  0.34783000  0.85251300  0.94729200  1
  Fe  Fe1  1  0.85251300  0.34783000  0.44729200  1
  S  S0  1  0.24785400  0.45769800  0.25205600  1
  S  S1  1  0.04636700  0.95257900  0.75291100  1
  S  S2  1  0.54134700  0.74942500  0.25263400  1
  S  S3  1  0.45769800  0.24785400  0.75205600  1
  S  S4  1  0.95257900  0.04636700  0.25291100  1
  S  S5  1  0.74942500  0.54134700  0.75263400  1
  O  O0  1  0.07965300  0.43569200  0.26423500  1
  O  O1  1  0.28049800  0.61900700  0.08339900  1
  O  O2  1  0.01338500  0.11088900  0.58504000  1
  O  O3  1  0.11088900  0.01338500  0.08504000  1
  O  O4  1  0.41225700  0.28249900  0.23778000  1
  O  O5  1  0.22681400  0.93558200  0.75620700  1
  O  O6  1  0.07119600  0.77527400  0.74319100  1
  O  O7  1  0.56912000  0.91406700  0.23300400  1
  O  O8  1  0.38544200  0.71362200  0.41614500  1
  O  O9  1  0.21099500  0.49648700  0.41020300  1
  O  O10  1  0.50445700  0.78373400  0.08950400  1
  O  O11  1  0.28249900  0.41225700  0.73778000  1
  O  O12  1  0.72107300  0.58159200  0.25854900  1
  O  O13  1  0.49648700  0.21099500  0.91020300  1
  O  O14  1  0.78373400  0.50445700  0.58950400  1
  O  O15  1  0.61900700  0.28049800  0.58339900  1
  O  O16  1  0.43569200  0.07965300  0.76423500  1
  O  O17  1  0.93558200  0.22681400  0.25620700  1
  O  O18  1  0.77527400  0.07119600  0.24319100  1
  O  O19  1  0.58159200  0.72107300  0.75854900  1
  O  O20  1  0.89210600  0.98912900  0.91461600  1
  O  O21  1  0.98912900  0.89210600  0.41461600  1
  O  O22  1  0.71362200  0.38544200  0.91614500  1
  O  O23  1  0.91406700  0.56912000  0.73300400  1
loop_
_geom_bond_atom_site_label_1
_geom_bond_atom_site_label_2
_geom_bond_distance
_geom_bond_site_symmetry_2
Na0 O6 2.460417 1_555
Na0 O17 2.463484 1_456
Na0 O12 2.493412 1_456
Na0 O11 2.501930 1_555
Na0 O0 2.520847 1_556
Na0 O23 2.531647 1_455
Na1 O18 2.460417 1_555
Na1 O5 2.463484 1_545
Na1 O19 2.493412 1_545
Na1 O4 2.501930 1_555
Na1 O16 2.520847 1_555
Na1 O7 2.531647 1_545
Mg0 O9 2.014871 1_555
Mg0 O21 2.016198 1_455
Mg0 O8 2.024600 1_555
Mg0 O23 2.071105 1_455
Mg0 O6 2.074180 1_555
Mg0 O11 2.100637 1_555
Mg1 O13 2.014871 1_554
Mg1 O20 2.016198 1_544
Mg1 O22 2.024600 1_554
Mg1 O7 2.071105 1_545
Mg1 O18 2.074180 1_555
Mg1 O4 2.100637 1_555
Fe0 O10 1.979134 1_556
Fe0 O3 1.997096 1_566
Fe0 O1 2.001660 1_556
Fe0 O16 2.072550 1_565
Fe0 O5 2.075409 1_555
Fe0 O19 2.112419 1_555
Fe1 O14 1.979134 1_555
Fe1 O2 1.997096 1_655
Fe1 O15 2.001660 1_555
Fe1 O0 2.072550 1_655
Fe1 O17 2.075409 1_555
Fe1 O12 2.112419 1_555
O0 S0 1.502956 1_555
O1 S0 1.499531 1_555
O2 S1 1.497061 1_545
O3 S4 1.497061 1_455
O4 S0 1.472654 1_555
O5 S1 1.502312 1_555
O6 S1 1.474637 1_555
O7 S2 1.472253 1_555
O8 S2 1.458010 1_555
O9 S0 1.458233 1_555
O10 S2 1.500334 1_555
O11 S3 1.472654 1_555
O12 S2 1.500526 1_555
O13 S3 1.458233 1_555
O14 S5 1.500334 1_555
O15 S3 1.499531 1_555
O16 S3 1.502956 1_555
O17 S4 1.502312 1_555
O18 S4 1.474637 1_555
O19 S5 1.500526 1_555
O20 S1 1.456391 1_655
O21 S4 1.456391 1_565
O22 S5 1.458010 1_555
O23 S5 1.472253 1_555
