# generated using pymatgen
data_Nb12Br17F13
_symmetry_space_group_name_H-M   'P 1'
_cell_length_a   9.76600261
_cell_length_b   9.84747367
_cell_length_c   13.17879176
_cell_angle_alpha   90.42410600
_cell_angle_beta   111.03246570
_cell_angle_gamma   119.94893793
_symmetry_Int_Tables_number   1
_chemical_formula_structural   Nb12Br17F13
_chemical_formula_sum   'Nb12 Br17 F13'
_cell_volume   997.36193706
_cell_formula_units_Z   1
loop_
 _symmetry_equiv_pos_site_id
 _symmetry_equiv_pos_as_xyz
  1  'x, y, z'
loop_
 _atom_site_type_symbol
 _atom_site_label
 _atom_site_symmetry_multiplicity
 _atom_site_fract_x
 _atom_site_fract_y
 _atom_site_fract_z
 _atom_site_occupancy
  Nb  Nb0  1  0.88241755  0.88016041  0.10222443  1
  Nb  Nb1  1  0.21568996  0.99803620  0.10126906  1
  Nb  Nb2  1  0.09502127  0.20930260  0.09955347  1
  Nb  Nb3  1  0.90115884  0.61602253  0.39829407  1
  Nb  Nb4  1  0.78319005  0.28440426  0.39860107  1
  Nb  Nb5  1  0.11641517  0.49783601  0.39703510  1
  Nb  Nb6  1  0.88369681  0.50220802  0.60088709  1
  Nb  Nb7  1  0.21757126  0.71587293  0.59990292  1
  Nb  Nb8  1  0.09970413  0.38528292  0.60120343  1
  Nb  Nb9  1  0.90070303  0.78264630  0.89894563  1
  Nb  Nb10  1  0.77728978  0.99194959  0.89965759  1
  Nb  Nb11  1  0.11192815  0.11508100  0.90182490  1
  Br  Br0  1  0.25535608  0.26867134  0.76042882  1
  Br  Br1  1  0.74825477  0.49979693  0.75014157  1
  Br  Br2  1  0.49785797  0.99548728  0.75065890  1
  Br  Br3  1  0.73093778  0.58326523  0.00092494  1
  Br  Br4  1  0.41595173  0.15457216  0.00233996  1
  Br  Br5  1  0.85612700  0.26832365  0.99719649  1
  Br  Br6  1  0.72985736  0.64568289  0.50034267  1
  Br  Br7  1  0.14616655  0.91421023  0.49996828  1
  Br  Br8  1  0.58424587  0.23177520  0.50063241  1
  Br  Br9  1  0.41569954  0.76816610  0.49685050  1
  Br  Br10  1  0.85580324  0.08705639  0.50059874  1
  Br  Br11  1  0.27076210  0.35461704  0.49930034  1
  Br  Br12  1  0.14827233  0.73135226  0.99787381  1
  Br  Br13  1  0.58177526  0.85088155  0.00335638  1
  Br  Br14  1  0.50085058  0.00177851  0.24954640  1
  Br  Br15  1  0.25014413  0.49746964  0.24367418  1
  Br  Br16  1  0.74919102  0.74825484  0.25217182  1
  F  F0  1  0.31500078  0.21499517  0.20641500  1
  F  F1  1  0.10519856  0.88897278  0.20976315  1
  F  F2  1  0.68342486  0.39843231  0.29149909  1
  F  F3  1  0.00939466  0.60773537  0.28989976  1
  F  F4  1  0.89463711  0.28363142  0.29032530  1
  F  F5  1  0.98941122  0.09987375  0.20914803  1
  F  F6  1  0.01169736  0.90287714  0.79206949  1
  F  F7  1  0.10532369  0.71642842  0.70786519  1
  F  F8  1  0.98937756  0.39218403  0.70835704  1
  F  F9  1  0.31779600  0.60297683  0.70712821  1
  F  F10  1  0.89304918  0.10974241  0.79474757  1
  F  F11  1  0.68189560  0.78046073  0.79104848  1
  F  F12  1  0.21888712  0.34002161  0.00143477  1
loop_
_geom_bond_atom_site_label_1
_geom_bond_atom_site_label_2
_geom_bond_distance
_geom_bond_site_symmetry_2
Br0 Nb8 2.742551 1_555
Br0 Nb11 2.742617 1_555
Br1 Nb6 2.730590 1_555
Br1 Nb9 2.739246 1_555
Br2 Nb7 2.740742 1_555
Br2 Nb10 2.748393 1_555
Br3 Nb0 2.593205 1_555
Br3 Nb9 2.607336 1_554
Br4 Nb11 2.595744 1_554
Br4 Nb1 2.598243 1_545
Br5 Nb2 2.589794 1_656
Br5 Nb10 2.607262 1_545
Br6 Nb6 2.593708 1_555
Br6 Nb3 2.605708 1_555
Br7 Nb3 2.601596 1_455
Br7 Nb7 2.602736 1_555
Br8 Nb4 2.594549 1_555
Br8 Nb6 2.605467 1_555
Br9 Nb7 2.599093 1_555
Br9 Nb5 2.603749 1_555
Br10 Nb8 2.597546 1_655
Br10 Nb4 2.610927 1_555
Br11 Nb5 2.601943 1_555
Br11 Nb8 2.606440 1_555
Br12 Nb1 2.600697 1_556
Br12 Nb9 2.601346 1_455
Br13 Nb10 2.587663 1_554
Br13 Nb0 2.608561 1_555
Br14 Nb1 2.750587 1_545
Br14 Nb4 2.752544 1_555
Br15 Nb2 2.741840 1_555
Br15 Nb5 2.773048 1_555
Br16 Nb0 2.735188 1_555
Br16 Nb3 2.742596 1_555
F0 Nb2 2.075730 1_555
F0 Nb1 2.085185 1_545
F1 Nb1 2.082139 1_555
F1 Nb0 2.084718 1_455
F2 Nb4 2.081131 1_555
F2 Nb3 2.086046 1_555
F3 Nb3 2.081552 1_455
F3 Nb5 2.085627 1_555
F4 Nb5 2.079992 1_655
F4 Nb4 2.084160 1_555
F5 Nb2 2.072113 1_655
F5 Nb0 2.097479 1_545
F6 Nb11 2.076949 1_565
F6 Nb9 2.097578 1_455
F7 Nb6 2.080683 1_455
F7 Nb7 2.086029 1_555
F8 Nb8 2.079309 1_655
F8 Nb6 2.082068 1_555
F9 Nb7 2.075523 1_555
F9 Nb8 2.084079 1_555
F10 Nb11 2.069987 1_655
F10 Nb10 2.090803 1_545
F11 Nb10 2.077375 1_555
F11 Nb9 2.088356 1_555
F12 Nb11 2.093681 1_554
F12 Nb2 2.094057 1_555
