# generated using pymatgen
data_CaGdTh(PO4)3
_symmetry_space_group_name_H-M   'P 1'
_cell_length_a   6.44786200
_cell_length_b   6.76211885
_cell_length_c   20.88324397
_cell_angle_alpha   89.76153728
_cell_angle_beta   89.71115548
_cell_angle_gamma   75.91225369
_symmetry_Int_Tables_number   1
_chemical_formula_structural   CaGdTh(PO4)3
_chemical_formula_sum   'Ca4 Gd4 Th4 P12 O48'
_cell_volume   883.13426758
_cell_formula_units_Z   4
loop_
 _symmetry_equiv_pos_site_id
 _symmetry_equiv_pos_as_xyz
  1  'x, y, z'
loop_
 _atom_site_type_symbol
 _atom_site_label
 _atom_site_symmetry_multiplicity
 _atom_site_fract_x
 _atom_site_fract_y
 _atom_site_fract_z
 _atom_site_occupancy
  Ca  Ca0  1  0.90227600  0.28613400  0.77805500  1
  Ca  Ca1  1  0.39629400  0.78335100  0.05602900  1
  Ca  Ca2  1  0.09906900  0.71838300  0.21706700  1
  Ca  Ca3  1  0.09340900  0.71445700  0.55231500  1
  Gd  Gd0  1  0.90708600  0.28660500  0.45107900  1
  Gd  Gd1  1  0.60260600  0.21347500  0.61292600  1
  Gd  Gd2  1  0.59825900  0.21201000  0.28104200  1
  Gd  Gd3  1  0.09482300  0.71108500  0.88590600  1
  Th  Th0  1  0.90086600  0.28708100  0.11658400  1
  Th  Th1  1  0.60398900  0.21461000  0.94547400  1
  Th  Th2  1  0.39557100  0.78198200  0.71830500  1
  Th  Th3  1  0.39388600  0.77773000  0.38671700  1
  P  P0  1  0.88460000  0.80381000  0.72195300  1
  P  P1  1  0.88542200  0.80526600  0.38740600  1
  P  P2  1  0.88929600  0.80671900  0.05280500  1
  P  P3  1  0.61371600  0.69111600  0.88780700  1
  P  P4  1  0.61560100  0.69730600  0.55405400  1
  P  P5  1  0.61047800  0.70032100  0.22179600  1
  P  P6  1  0.38562800  0.30595500  0.77885800  1
  P  P7  1  0.38831900  0.30403600  0.44575900  1
  P  P8  1  0.38428300  0.30238100  0.11206200  1
  P  P9  1  0.11750000  0.19301800  0.94510400  1
  P  P10  1  0.11248500  0.19976500  0.61133900  1
  P  P11  1  0.11317700  0.20005300  0.28034000  1
  O  O0  1  0.99813800  0.87987200  0.77937500  1
  O  O1  1  0.99825200  0.89112200  0.44270600  1
  O  O2  1  0.99210500  0.89319600  0.11001900  1
  O  O3  1  0.94305900  0.25618000  0.99832600  1
  O  O4  1  0.93437700  0.25125600  0.66269600  1
  O  O5  1  0.93603600  0.24973000  0.33217800  1
  O  O6  1  0.80572100  0.52222200  0.53368900  1
  O  O7  1  0.81305600  0.52425100  0.86889100  1
  O  O8  1  0.80329400  0.52231700  0.20107300  1
  O  O9  1  0.77660400  0.63046400  0.73879000  1
  O  O10  1  0.78347400  0.62783100  0.40566400  1
  O  O11  1  0.79048700  0.62790200  0.07106300  1
  O  O12  1  0.71210300  0.87617600  0.57125100  1
  O  O13  1  0.71202900  0.87168000  0.90479400  1
  O  O14  1  0.71292300  0.87637500  0.23837100  1
  O  O15  1  0.68747700  0.97363800  0.70091200  1
  O  O16  1  0.68259200  0.96972500  0.36709300  1
  O  O17  1  0.69422700  0.98011700  0.03189600  1
  O  O18  1  0.49821200  0.60917100  0.94373100  1
  O  O19  1  0.50723800  0.61832300  0.61322700  1
  O  O20  1  0.51282100  0.61667300  0.28255300  1
  O  O21  1  0.55779600  0.24742900  0.83226500  1
  O  O22  1  0.56363900  0.24524000  0.49703900  1
  O  O23  1  0.55953500  0.24693600  0.16417800  1
  O  O24  1  0.43881600  0.75529000  0.83571700  1
  O  O25  1  0.44205200  0.75064400  0.50110100  1
  O  O26  1  0.43628700  0.74963800  0.17067600  1
  O  O27  1  0.49571700  0.38444500  0.72091300  1
  O  O28  1  0.50343000  0.37634000  0.05463300  1
  O  O29  1  0.50110500  0.38182900  0.38750600  1
  O  O30  1  0.31883900  0.03075300  0.96490300  1
  O  O31  1  0.30740300  0.02384200  0.63355300  1
  O  O32  1  0.30699400  0.02395200  0.30126500  1
  O  O33  1  0.28859900  0.12618200  0.76233800  1
  O  O34  1  0.28693900  0.12532700  0.42886400  1
  O  O35  1  0.28097600  0.12686700  0.09484100  1
  O  O36  1  0.21461600  0.37345200  0.92701000  1
  O  O37  1  0.22568200  0.36939900  0.59562900  1
  O  O38  1  0.22465400  0.36947300  0.26340600  1
  O  O39  1  0.19614600  0.48208300  0.79912500  1
  O  O40  1  0.19112700  0.47595200  0.46323500  1
  O  O41  1  0.18766700  0.47178700  0.13137100  1
  O  O42  1  0.06155300  0.74684600  0.67032800  1
  O  O43  1  0.05963300  0.74937500  0.99944400  1
  O  O44  1  0.06136100  0.74492700  0.33565200  1
  O  O45  1  0.99636700  0.11058000  0.89154000  1
  O  O46  1  0.00669400  0.12171000  0.55292400  1
  O  O47  1  0.00350800  0.12483500  0.22146000  1
loop_
_geom_bond_atom_site_label_1
_geom_bond_atom_site_label_2
_geom_bond_distance
_geom_bond_site_symmetry_2
Ca0 O9 2.413036 1_555
Ca0 O4 2.424463 1_555
Ca0 O7 2.466884 1_555
Ca0 O33 2.483062 1_655
Ca0 O21 2.557116 1_555
Ca0 O39 2.602925 1_655
Ca0 O45 2.652240 1_555
Ca0 O0 2.665104 1_545
Ca0 O27 2.813259 1_555
Ca1 O35 2.403005 1_565
Ca1 O26 2.413241 1_555
Ca1 O30 2.499199 1_564
Ca1 O11 2.523572 1_555
Ca1 O43 2.536176 1_554
Ca1 O17 2.635091 1_555
Ca1 O18 2.636188 1_554
Ca1 O28 2.669808 1_555
Ca1 O2 2.765856 1_455
Ca2 O41 2.420835 1_555
Ca2 O26 2.431406 1_555
Ca2 O44 2.490074 1_555
Ca2 O38 2.493516 1_555
Ca2 O14 2.497271 1_455
Ca2 O2 2.543070 1_455
Ca2 O8 2.597590 1_455
Ca2 O47 2.668202 1_565
Ca2 O20 2.931930 1_555
Ca3 O40 2.444834 1_555
Ca3 O37 2.451818 1_555
Ca3 O12 2.466158 1_455
Ca3 O42 2.478181 1_555
Ca3 O6 2.543098 1_455
Ca3 O25 2.549240 1_555
Ca3 O1 2.584115 1_455
Ca3 O46 2.673452 1_565
Ca3 O19 2.888509 1_555
Gd0 O6 2.333763 1_555
Gd0 O46 2.413446 1_655
Gd0 O10 2.439878 1_555
Gd0 O34 2.468966 1_655
Gd0 O22 2.486229 1_555
Gd0 O40 2.491391 1_655
Gd0 O5 2.498064 1_555
Gd0 O1 2.601073 1_545
Gd0 O29 2.870006 1_555
Gd1 O12 2.384240 1_545
Gd1 O15 2.420571 1_545
Gd1 O37 2.430436 1_555
Gd1 O22 2.437553 1_555
Gd1 O4 2.452031 1_555
Gd1 O27 2.552511 1_555
Gd1 O31 2.574548 1_555
Gd1 O19 2.655819 1_555
Gd1 O46 2.816076 1_655
Gd2 O14 2.384347 1_545
Gd2 O16 2.400177 1_545
Gd2 O38 2.414427 1_555
Gd2 O23 2.459024 1_555
Gd2 O5 2.499002 1_555
Gd2 O29 2.512217 1_555
Gd2 O32 2.544148 1_555
Gd2 O20 2.656867 1_555
Gd2 O47 2.819021 1_655
Gd3 O39 2.372347 1_555
Gd3 O36 2.382840 1_555
Gd3 O43 2.389864 1_555
Gd3 O13 2.473020 1_455
Gd3 O7 2.480083 1_455
Gd3 O0 2.507419 1_455
Gd3 O24 2.530654 1_555
Gd3 O45 2.623284 1_465
Gd3 O18 2.801871 1_555
O0 P0 1.560689 1_555
O0 Th2 2.789236 1_655
O1 P1 1.555527 1_555
O1 Th3 2.736380 1_655
O2 P2 1.552894 1_555
O2 Th0 2.588152 1_565
O3 P9 1.562156 1_655
O3 Th0 2.487268 1_556
O3 Th1 2.530438 1_555
O4 P10 1.544792 1_655
O5 P11 1.546966 1_655
O6 P4 1.541988 1_555
O7 P3 1.540729 1_555
O8 P5 1.565955 1_555
O8 Th0 2.358860 1_555
O9 P0 1.540781 1_555
O9 Th2 2.459755 1_555
O10 P1 1.547486 1_555
O10 Th3 2.502265 1_555
O11 P2 1.543421 1_555
O11 Th0 2.431423 1_555
O12 P4 1.533423 1_555
O13 P3 1.549574 1_555
O13 Th1 2.410074 1_565
O14 P5 1.536875 1_555
O15 P0 1.555071 1_555
O15 Th2 2.555540 1_555
O16 P1 1.555867 1_555
O16 Th3 2.546223 1_555
O17 P2 1.559114 1_555
O17 Th1 2.376492 1_564
O18 P3 1.553185 1_555
O18 Th1 2.588177 1_555
O19 P4 1.570966 1_555
O19 Th2 2.484914 1_555
O20 P5 1.576599 1_555
O20 Th3 2.470299 1_555
O21 P6 1.558151 1_555
O21 Th1 2.387011 1_555
O22 P7 1.540338 1_555
O23 P8 1.550721 1_555
O23 Th0 2.484326 1_555
O24 P3 1.553583 1_555
O24 Th2 2.470033 1_555
O25 P4 1.554937 1_555
O25 Th3 2.410825 1_555
O26 P5 1.529429 1_555
O27 P6 1.555401 1_555
O27 Th2 2.607760 1_555
O28 P8 1.565697 1_555
O28 Th1 2.544337 1_554
O28 Th0 2.806955 1_555
O29 P7 1.567633 1_555
O29 Th3 2.596920 1_555
O30 P9 1.538976 1_555
O30 Th1 2.488350 1_555
O31 P10 1.575875 1_555
O31 Th2 2.379908 1_545
O32 P11 1.564439 1_555
O32 Th3 2.408691 1_545
O33 P6 1.537576 1_555
O33 Th2 2.443065 1_545
O34 P7 1.550024 1_555
O34 Th3 2.448892 1_545
O35 P8 1.540282 1_555
O35 Th0 2.467194 1_455
O36 P9 1.545734 1_555
O36 Th1 2.509810 1_555
O37 P10 1.535641 1_555
O38 P11 1.532692 1_555
O39 P6 1.543019 1_555
O40 P7 1.542905 1_555
O41 P8 1.540705 1_555
O41 Th0 2.491683 1_455
O42 P0 1.545827 1_455
O42 Th2 2.443678 1_555
O43 P2 1.543487 1_456
O44 P1 1.545153 1_455
O44 Th3 2.457646 1_555
O45 P9 1.548547 1_655
O45 Th1 2.697368 1_555
O46 P10 1.555973 1_555
O47 P11 1.568355 1_555
O47 Th0 2.465683 1_455
