# generated using pymatgen
data_CdH9C3NCl3
_symmetry_space_group_name_H-M   'P 1'
_cell_length_a   9.29711991
_cell_length_b   9.29711991
_cell_length_c   6.82666900
_cell_angle_alpha   90.00000000
_cell_angle_beta   90.00000000
_cell_angle_gamma   119.99999937
_symmetry_Int_Tables_number   1
_chemical_formula_structural   CdH9C3NCl3
_chemical_formula_sum   'Cd2 H18 C6 N2 Cl6'
_cell_volume   511.01817340
_cell_formula_units_Z   2
loop_
 _symmetry_equiv_pos_site_id
 _symmetry_equiv_pos_as_xyz
  1  'x, y, z'
loop_
 _atom_site_type_symbol
 _atom_site_label
 _atom_site_symmetry_multiplicity
 _atom_site_fract_x
 _atom_site_fract_y
 _atom_site_fract_z
 _atom_site_occupancy
  Cd  Cd0  1  0.00000000  0.00000000  0.50000000  1
  Cd  Cd1  1  0.00000000  0.00000000  0.00000000  1
  H  H0  1  0.27068800  0.85438100  0.25000000  1
  H  H1  1  0.58369300  0.72931200  0.25000000  1
  H  H2  1  0.14561900  0.41630700  0.25000000  1
  H  H3  1  0.72931200  0.14561900  0.75000000  1
  H  H4  1  0.41630700  0.27068800  0.75000000  1
  H  H5  1  0.85438100  0.58369300  0.75000000  1
  H  H6  1  0.45948400  0.89958500  0.37827300  1
  H  H7  1  0.44010100  0.54051600  0.37827300  1
  H  H8  1  0.10041500  0.55989900  0.37827300  1
  H  H9  1  0.54051600  0.10041500  0.87827300  1
  H  H10  1  0.55989900  0.45948400  0.87827300  1
  H  H11  1  0.89958500  0.44010100  0.87827300  1
  H  H12  1  0.54051600  0.10041500  0.62172700  1
  H  H13  1  0.55989900  0.45948400  0.62172700  1
  H  H14  1  0.89958500  0.44010100  0.62172700  1
  H  H15  1  0.45948400  0.89958500  0.12172700  1
  H  H16  1  0.44010100  0.54051600  0.12172700  1
  H  H17  1  0.10041500  0.55989900  0.12172700  1
  C  C0  1  0.37992700  0.83904400  0.25000000  1
  C  C1  1  0.45911700  0.62007300  0.25000000  1
  C  C2  1  0.16095600  0.54088300  0.25000000  1
  C  C3  1  0.62007300  0.16095600  0.75000000  1
  C  C4  1  0.54088300  0.37992700  0.75000000  1
  C  C5  1  0.83904400  0.45911700  0.75000000  1
  N  N0  1  0.33333300  0.66666700  0.25000000  1
  N  N1  1  0.66666700  0.33333300  0.75000000  1
  Cl  Cl0  1  0.84814100  0.10472800  0.25000000  1
  Cl  Cl1  1  0.25658700  0.15185900  0.25000000  1
  Cl  Cl2  1  0.89527200  0.74341300  0.25000000  1
  Cl  Cl3  1  0.15185900  0.89527200  0.75000000  1
  Cl  Cl4  1  0.74341300  0.84814100  0.75000000  1
  Cl  Cl5  1  0.10472800  0.25658700  0.75000000  1
loop_
_geom_bond_atom_site_label_1
_geom_bond_atom_site_label_2
_geom_bond_distance
_geom_bond_site_symmetry_2
Cd0 Cl3 2.688632 1_545
Cd0 Cl0 2.688632 1_455
Cd0 Cl2 2.688632 1_445
Cd0 Cl5 2.688632 1_555
Cd0 Cl1 2.688632 1_555
Cd0 Cl4 2.688632 1_445
Cd1 Cl3 2.688632 1_544
Cd1 Cl0 2.688632 1_455
Cd1 Cl5 2.688632 1_554
Cd1 Cl2 2.688632 1_445
Cd1 Cl1 2.688632 1_555
Cd1 Cl4 2.688632 1_444
C0 H0 1.093895 1_555
C0 H6 1.101991 1_555
C0 H15 1.101991 1_555
C0 N0 1.435889 1_555
C1 H1 1.093895 1_555
C1 H7 1.101991 1_555
C1 H16 1.101991 1_555
C1 N0 1.435898 1_555
C2 H2 1.093895 1_555
C2 H8 1.101991 1_555
C2 H17 1.101991 1_555
C2 N0 1.435891 1_555
C3 H3 1.093895 1_555
C3 H9 1.101991 1_555
C3 H12 1.101991 1_555
C3 N1 1.435889 1_555
C4 H4 1.093895 1_555
C4 H10 1.101991 1_555
C4 H13 1.101991 1_555
C4 N1 1.435898 1_555
C5 H5 1.093895 1_555
C5 H11 1.101991 1_555
C5 H14 1.101991 1_555
C5 N1 1.435891 1_555
