# generated using pymatgen
data_Cd2Bi6O11
_symmetry_space_group_name_H-M   'P 1'
_cell_length_a   3.67554200
_cell_length_b   3.68728019
_cell_length_c   23.86020501
_cell_angle_alpha   88.32867943
_cell_angle_beta   89.86680875
_cell_angle_gamma   89.22628585
_symmetry_Int_Tables_number   1
_chemical_formula_structural   Cd2Bi6O11
_chemical_formula_sum   'Cd2 Bi6 O11'
_cell_volume   323.20382845
_cell_formula_units_Z   1
loop_
 _symmetry_equiv_pos_site_id
 _symmetry_equiv_pos_as_xyz
  1  'x, y, z'
loop_
 _atom_site_type_symbol
 _atom_site_label
 _atom_site_symmetry_multiplicity
 _atom_site_fract_x
 _atom_site_fract_y
 _atom_site_fract_z
 _atom_site_occupancy
  Cd  Cd0  1  0.93710500  0.86637800  0.24711900  1
  Cd  Cd1  1  0.44835900  0.38966800  0.14067000  1
  Bi  Bi0  1  0.37622900  0.38000100  0.89028900  1
  Bi  Bi1  1  0.98790800  0.02022500  0.74938700  1
  Bi  Bi2  1  0.47954200  0.50108900  0.61013300  1
  Bi  Bi3  1  0.94294400  0.06148400  0.47724900  1
  Bi  Bi4  1  0.44743300  0.54637600  0.36292400  1
  Bi  Bi5  1  0.96517500  0.98651800  0.01929500  1
  O  O0  1  0.05557400  0.87597100  0.91492000  1
  O  O1  1  0.46753000  0.30041100  0.99056600  1
  O  O2  1  0.97352000  0.39671100  0.81838300  1
  O  O3  1  0.48802900  0.31187600  0.72229500  1
  O  O4  1  0.94915600  0.56053500  0.42076100  1
  O  O5  1  0.96087800  0.86592800  0.61898200  1
  O  O6  1  0.48196500  0.50443400  0.52108100  1
  O  O7  1  0.45142900  0.06269300  0.41783800  1
  O  O8  1  0.94827500  0.34592000  0.30022600  1
  O  O9  1  0.43817500  0.87764200  0.19196600  1
  O  O10  1  0.95077300  0.39614100  0.08591600  1
loop_
_geom_bond_atom_site_label_1
_geom_bond_atom_site_label_2
_geom_bond_distance
_geom_bond_site_symmetry_2
Cd0 O8 2.206080 1_565
Cd0 O9 2.258853 1_555
Cd0 O9 2.261186 1_655
Cd0 O8 2.268579 1_555
Cd1 O9 2.205291 1_555
Cd1 O9 2.220540 1_545
Cd1 O10 2.249520 1_455
Cd1 O10 2.259559 1_555
Bi0 O0 2.253918 1_555
Bi0 O2 2.267485 1_455
Bi0 O0 2.276113 1_545
Bi0 O1 2.425599 1_555
Bi0 O2 2.783345 1_555
Bi1 O2 2.184264 1_555
Bi1 O3 2.204931 1_555
Bi1 O3 2.227261 1_655
Bi1 O2 2.789407 1_545
Bi2 O6 2.124474 1_555
Bi2 O5 2.250969 1_555
Bi2 O5 2.331094 1_455
Bi2 O3 2.746035 1_555
Bi3 O4 2.249348 1_555
Bi3 O7 2.298817 1_555
Bi3 O4 2.317972 1_545
Bi3 O7 2.343082 1_655
Bi3 O6 2.578540 1_555
Bi4 O7 2.181937 1_555
Bi4 O4 2.291543 1_455
Bi4 O4 2.307918 1_555
Bi4 O7 2.342610 1_565
Bi4 O8 2.487577 1_555
Bi4 O8 2.502843 1_455
Bi5 O10 2.224498 1_565
Bi5 O1 2.248893 1_564
Bi5 O1 2.285679 1_664
Bi5 O0 2.555464 1_654
Bi5 O10 2.658816 1_555
