# generated using pymatgen
data_SrB8O13
_symmetry_space_group_name_H-M   'P 1'
_cell_length_a   16.85018000
_cell_length_b   8.49758800
_cell_length_c   14.05763739
_cell_angle_alpha   73.56897748
_cell_angle_beta   90.00000000
_cell_angle_gamma   90.00000000
_symmetry_Int_Tables_number   1
_chemical_formula_structural   SrB8O13
_chemical_formula_sum   'Sr8 B64 O104'
_cell_volume   1930.65221018
_cell_formula_units_Z   8
loop_
 _symmetry_equiv_pos_site_id
 _symmetry_equiv_pos_as_xyz
  1  'x, y, z'
loop_
 _atom_site_type_symbol
 _atom_site_label
 _atom_site_symmetry_multiplicity
 _atom_site_fract_x
 _atom_site_fract_y
 _atom_site_fract_z
 _atom_site_occupancy
  Sr  Sr0  1  0.50148900  0.48885300  0.27980900  1
  Sr  Sr1  1  0.99851100  0.48885300  0.77980900  1
  Sr  Sr2  1  0.74253400  0.90391100  0.95829800  1
  Sr  Sr3  1  0.49851100  0.51114700  0.72019100  1
  Sr  Sr4  1  0.00148900  0.51114700  0.22019100  1
  Sr  Sr5  1  0.75746600  0.90391100  0.45829800  1
  Sr  Sr6  1  0.25746600  0.09608900  0.04170200  1
  Sr  Sr7  1  0.24253400  0.09608900  0.54170200  1
  B  B0  1  0.90060500  0.57020300  0.52544400  1
  B  B1  1  0.34541200  0.22511700  0.31524600  1
  B  B2  1  0.21492400  0.73263700  0.26954500  1
  B  B3  1  0.46513100  0.07097800  0.38607900  1
  B  B4  1  0.84541200  0.77488300  0.18475400  1
  B  B5  1  0.91301100  0.05026300  0.55426100  1
  B  B6  1  0.31648300  0.61182900  0.38422700  1
  B  B7  1  0.52497800  0.05831100  0.84404500  1
  B  B8  1  0.85097800  0.17002300  0.25956800  1
  B  B9  1  0.28549600  0.29598500  0.75137800  1
  B  B10  1  0.14902200  0.82997700  0.74043200  1
  B  B11  1  0.58792500  0.75444800  0.14475100  1
  B  B12  1  0.32995100  0.38985100  0.13736700  1
  B  B13  1  0.87530200  0.34034500  0.46501900  1
  B  B14  1  0.96513100  0.92902200  0.11392100  1
  B  B15  1  0.89190800  0.54849200  0.97143200  1
  B  B16  1  0.15316500  0.72328100  0.02446200  1
  B  B17  1  0.71492400  0.26736300  0.23045500  1
  B  B18  1  0.44600100  0.15448500  0.60273000  1
  B  B19  1  0.35097800  0.82997700  0.24043200  1
  B  B20  1  0.58698900  0.05026300  0.05426100  1
  B  B21  1  0.47502200  0.94168900  0.15595500  1
  B  B22  1  0.67004900  0.61014900  0.86263300  1
  B  B23  1  0.68351700  0.38817100  0.61577300  1
  B  B24  1  0.21450400  0.29598500  0.25137800  1
  B  B25  1  0.89071000  0.13221000  0.84897200  1
  B  B26  1  0.62469800  0.34034500  0.96501900  1
  B  B27  1  0.41207500  0.24555200  0.85524900  1
  B  B28  1  0.59939500  0.57020300  0.02544400  1
  B  B29  1  0.78507600  0.26736300  0.73045500  1
  B  B30  1  0.94600100  0.84551500  0.89727000  1
  B  B31  1  0.91207500  0.75444800  0.64475100  1
  B  B32  1  0.15458800  0.22511700  0.81524600  1
  B  B33  1  0.53486900  0.92902200  0.61392100  1
  B  B34  1  0.39071000  0.86779000  0.65102800  1
  B  B35  1  0.08792500  0.24555200  0.35524900  1
  B  B36  1  0.81648300  0.38817100  0.11577300  1
  B  B37  1  0.82995100  0.61014900  0.36263300  1
  B  B38  1  0.28507600  0.73263700  0.76954500  1
  B  B39  1  0.03486900  0.07097800  0.88607900  1
  B  B40  1  0.60809200  0.54849200  0.47143200  1
  B  B41  1  0.60929000  0.13221000  0.34897200  1
  B  B42  1  0.40060500  0.42979700  0.97455600  1
  B  B43  1  0.34683500  0.72328100  0.52446200  1
  B  B44  1  0.02497800  0.94168900  0.65595500  1
  B  B45  1  0.71450400  0.70401500  0.24862200  1
  B  B46  1  0.97502200  0.05831100  0.34404500  1
  B  B47  1  0.17004900  0.38985100  0.63736700  1
  B  B48  1  0.55399900  0.84551500  0.39727000  1
  B  B49  1  0.78549600  0.70401500  0.74862200  1
  B  B50  1  0.05399900  0.15448500  0.10273000  1
  B  B51  1  0.10929000  0.86779000  0.15102800  1
  B  B52  1  0.37530200  0.65965500  0.03498100  1
  B  B53  1  0.64902200  0.17002300  0.75956800  1
  B  B54  1  0.84683500  0.27671900  0.97553800  1
  B  B55  1  0.09939500  0.42979700  0.47455600  1
  B  B56  1  0.41301100  0.94973700  0.94573900  1
  B  B57  1  0.39190800  0.45150800  0.52856800  1
  B  B58  1  0.65458800  0.77488300  0.68475400  1
  B  B59  1  0.08698900  0.94973700  0.44573900  1
  B  B60  1  0.18351700  0.61182900  0.88422700  1
  B  B61  1  0.10809200  0.45150800  0.02856800  1
  B  B62  1  0.12469800  0.65965500  0.53498100  1
  B  B63  1  0.65316500  0.27671900  0.47553800  1
  O  O0  1  0.43985600  0.32236600  0.57772400  1
  O  O1  1  0.60357600  0.41370000  0.43354700  1
  O  O2  1  0.10357600  0.58630000  0.06645300  1
  O  O3  1  0.88475700  0.95021400  0.85923900  1
  O  O4  1  0.58419400  0.40811200  0.02881700  1
  O  O5  1  0.35611300  0.33165700  0.05163400  1
  O  O6  1  0.47915700  0.90443300  0.41185300  1
  O  O7  1  0.51419800  0.07535000  0.09343500  1
  O  O8  1  0.85135100  0.54689300  0.05574900  1
  O  O9  1  0.62180800  0.30991700  0.69420500  1
  O  O10  1  0.52493500  0.18071200  0.35593300  1
  O  O11  1  0.69754400  0.27469100  0.55563400  1
  O  O12  1  0.30245600  0.72530900  0.44436600  1
  O  O13  1  0.73538400  0.77329300  0.66713600  1
  O  O14  1  0.62260900  0.89935400  0.07550300  1
  O  O15  1  0.60209000  0.04036700  0.81470900  1
  O  O16  1  0.23538400  0.22670700  0.83286400  1
  O  O17  1  0.93985600  0.67763400  0.92227600  1
  O  O18  1  0.87739100  0.89935400  0.57550300  1
  O  O19  1  0.24160600  0.59294300  0.33643900  1
  O  O20  1  0.62747500  0.17024400  0.98502700  1
  O  O21  1  0.51073400  0.79308700  0.18484900  1
  O  O22  1  0.01419800  0.92465000  0.40656500  1
  O  O23  1  0.74160600  0.40705700  0.16356100  1
  O  O24  1  0.86306900  0.24170100  0.75601200  1
  O  O25  1  0.37739100  0.10064600  0.92449700  1
  O  O26  1  0.87252500  0.17024400  0.48502700  1
  O  O27  1  0.12180800  0.69008300  0.80579500  1
  O  O28  1  0.37819200  0.69008300  0.30579500  1
  O  O29  1  0.89791000  0.04036700  0.31470900  1
  O  O30  1  0.85611300  0.66834300  0.44836600  1
  O  O31  1  0.25350600  0.33536700  0.65725100  1
  O  O32  1  0.84220800  0.15127900  0.93262000  1
  O  O33  1  0.66267500  0.43221200  0.88306100  1
  O  O34  1  0.35135100  0.45310700  0.44425100  1
  O  O35  1  0.37252500  0.82975600  0.01497300  1
  O  O36  1  0.11524300  0.04978600  0.14076100  1
  O  O37  1  0.75839400  0.40705700  0.66356100  1
  O  O38  1  0.41580600  0.59188800  0.97118300  1
  O  O39  1  0.11170600  0.12430400  0.89273800  1
  O  O40  1  0.39642400  0.58630000  0.56645300  1
  O  O41  1  0.16267500  0.56778800  0.61693900  1
  O  O42  1  0.36362300  0.31456100  0.76628000  1
  O  O43  1  0.75350600  0.66463300  0.84274900  1
  O  O44  1  0.43110100  0.37936800  0.89806800  1
  O  O45  1  0.89642400  0.41370000  0.93354700  1
  O  O46  1  0.02493500  0.81928800  0.14406700  1
  O  O47  1  0.23001700  0.85905700  0.72356700  1
  O  O48  1  0.98926600  0.79308700  0.68484900  1
  O  O49  1  0.97915700  0.09556700  0.08814700  1
  O  O50  1  0.38475700  0.04978600  0.64076100  1
  O  O51  1  0.97506500  0.18071200  0.85593300  1
  O  O52  1  0.33732500  0.56778800  0.11693900  1
  O  O53  1  0.11987800  0.31348800  0.72891100  1
  O  O54  1  0.38829400  0.12430400  0.39273800  1
  O  O55  1  0.01073400  0.20691300  0.31515100  1
  O  O56  1  0.12747500  0.82975600  0.51497300  1
  O  O57  1  0.61170600  0.87569600  0.60726200  1
  O  O58  1  0.36306900  0.75829900  0.74398800  1
  O  O59  1  0.88829400  0.87569600  0.10726200  1
  O  O60  1  0.73001700  0.14094300  0.77643300  1
  O  O61  1  0.65779200  0.15127900  0.43262000  1
  O  O62  1  0.34220800  0.84872100  0.56738000  1
  O  O63  1  0.08419400  0.59188800  0.47118300  1
  O  O64  1  0.26998300  0.85905700  0.22356700  1
  O  O65  1  0.14864900  0.45310700  0.94425100  1
  O  O66  1  0.87819200  0.30991700  0.19420500  1
  O  O67  1  0.64388700  0.66834300  0.94836600  1
  O  O68  1  0.83732500  0.43221200  0.38306100  1
  O  O69  1  0.12260900  0.10064600  0.42449700  1
  O  O70  1  0.63693100  0.24170100  0.25601200  1
  O  O71  1  0.98580200  0.07535000  0.59343500  1
  O  O72  1  0.63637700  0.68543900  0.23372000  1
  O  O73  1  0.13637700  0.31456100  0.26628000  1
  O  O74  1  0.26461600  0.22670700  0.33286400  1
  O  O75  1  0.48926600  0.20691300  0.81515100  1
  O  O76  1  0.38012200  0.31348800  0.22891100  1
  O  O77  1  0.06014400  0.32236600  0.07772400  1
  O  O78  1  0.91580600  0.40811200  0.52881700  1
  O  O79  1  0.61524300  0.95021400  0.35923900  1
  O  O80  1  0.39791000  0.95963300  0.18529100  1
  O  O81  1  0.02084300  0.90443300  0.91185300  1
  O  O82  1  0.61987800  0.68651200  0.77108900  1
  O  O83  1  0.48580200  0.92465000  0.90656500  1
  O  O84  1  0.47506500  0.81928800  0.64406700  1
  O  O85  1  0.74649400  0.66463300  0.34274900  1
  O  O86  1  0.56889900  0.62063200  0.10193200  1
  O  O87  1  0.76461600  0.77329300  0.16713600  1
  O  O88  1  0.25839400  0.59294300  0.83643900  1
  O  O89  1  0.80245600  0.27469100  0.05563400  1
  O  O90  1  0.52084300  0.09556700  0.58814700  1
  O  O91  1  0.76998300  0.14094300  0.27643300  1
  O  O92  1  0.88012200  0.68651200  0.27108900  1
  O  O93  1  0.10209000  0.95963300  0.68529100  1
  O  O94  1  0.19754400  0.72530900  0.94436600  1
  O  O95  1  0.56014400  0.67763400  0.42227600  1
  O  O96  1  0.24649400  0.33536700  0.15725200  1
  O  O97  1  0.93110100  0.62063200  0.60193200  1
  O  O98  1  0.86362300  0.68543900  0.73372000  1
  O  O99  1  0.06889900  0.37936800  0.39806800  1
  O  O100  1  0.15779200  0.84872100  0.06738000  1
  O  O101  1  0.14388700  0.33165700  0.55163400  1
  O  O102  1  0.13693100  0.75829900  0.24398800  1
  O  O103  1  0.64864900  0.54689300  0.55574900  1
loop_
_geom_bond_atom_site_label_1
_geom_bond_atom_site_label_2
_geom_bond_distance
_geom_bond_site_symmetry_2
B0 O97 1.365466 1_555
B0 O30 1.385777 1_555
B0 O78 1.388557 1_555
B1 O76 1.365055 1_555
B1 O54 1.383741 1_555
B1 O74 1.384521 1_555
B2 O102 1.363605 1_555
B2 O19 1.365302 1_555
B2 O64 1.428190 1_555
B3 O10 1.356842 1_555
B3 O6 1.378379 1_545
B3 O54 1.383615 1_555
B4 O92 1.365055 1_555
B4 O59 1.383741 1_555
B4 O87 1.384521 1_555
B5 O18 1.370123 1_545
B5 O26 1.375048 1_555
B5 O71 1.385470 1_555
B6 O19 1.459420 1_555
B6 O12 1.470262 1_555
B6 O34 1.494152 1_555
B6 O28 1.524556 1_555
B7 O75 1.353324 1_555
B7 O15 1.384632 1_555
B7 O83 1.390507 1_545
B8 O66 1.360067 1_555
B8 O91 1.395261 1_555
B8 O29 1.398922 1_555
B9 O42 1.349281 1_555
B9 O31 1.379460 1_555
B9 O16 1.410760 1_555
B10 O27 1.360067 1_555
B10 O47 1.395261 1_555
B10 O93 1.398922 1_555
B11 O14 1.458527 1_555
B11 O86 1.464701 1_555
B11 O72 1.469609 1_555
B11 O21 1.490645 1_555
B12 O52 1.462366 1_555
B12 O96 1.482181 1_555
B12 O5 1.492833 1_555
B12 O76 1.522969 1_555
B13 O68 1.355547 1_555
B13 O78 1.376199 1_555
B13 O26 1.393063 1_555
B14 O46 1.356842 1_655
B14 O49 1.378379 1_565
B14 O59 1.383615 1_555
B15 O8 1.364929 1_556
B15 O17 1.380413 1_555
B15 O45 1.395163 1_555
B16 O94 1.347703 1_554
B16 O100 1.367524 1_555
B16 O2 1.418750 1_555
B17 O70 1.363605 1_555
B17 O23 1.365302 1_555
B17 O91 1.428190 1_555
B18 O50 1.368668 1_555
B18 O0 1.373220 1_555
B18 O90 1.393243 1_555
B19 O28 1.360067 1_555
B19 O64 1.395261 1_555
B19 O80 1.398922 1_555
B20 O14 1.370123 1_545
B20 O20 1.375048 1_554
B20 O7 1.385470 1_555
B21 O21 1.353324 1_555
B21 O80 1.384632 1_555
B21 O7 1.390507 1_565
B22 O33 1.462366 1_555
B22 O43 1.482179 1_555
B22 O67 1.492833 1_555
B22 O82 1.522969 1_555
B23 O37 1.459420 1_555
B23 O11 1.470262 1_555
B23 O103 1.494152 1_555
B23 O9 1.524556 1_555
B24 O73 1.349281 1_555
B24 O96 1.379448 1_555
B24 O74 1.410760 1_555
B25 O24 1.449991 1_555
B25 O32 1.478074 1_555
B25 O51 1.490848 1_555
B25 O3 1.515376 1_545
B26 O33 1.355547 1_555
B26 O4 1.376199 1_556
B26 O20 1.393063 1_555
B27 O25 1.458527 1_555
B27 O44 1.464701 1_555
B27 O42 1.469609 1_555
B27 O75 1.490645 1_555
B28 O86 1.365466 1_555
B28 O67 1.385777 1_554
B28 O4 1.388557 1_555
B29 O24 1.363605 1_555
B29 O37 1.365302 1_555
B29 O60 1.428190 1_555
B30 O3 1.368668 1_555
B30 O17 1.373220 1_555
B30 O81 1.393243 1_655
B31 O18 1.458527 1_555
B31 O97 1.464701 1_555
B31 O98 1.469609 1_555
B31 O48 1.490645 1_555
B32 O53 1.365055 1_555
B32 O39 1.383741 1_555
B32 O16 1.384521 1_555
B33 O84 1.356842 1_555
B33 O90 1.378379 1_565
B33 O57 1.383615 1_555
B34 O58 1.449991 1_555
B34 O62 1.478074 1_555
B34 O84 1.490848 1_555
B34 O50 1.515376 1_565
B35 O69 1.458527 1_555
B35 O99 1.464701 1_555
B35 O73 1.469609 1_555
B35 O55 1.490645 1_555
B36 O23 1.459420 1_555
B36 O89 1.470262 1_555
B36 O8 1.494152 1_555
B36 O66 1.524556 1_555
B37 O68 1.462366 1_555
B37 O85 1.482179 1_555
B37 O30 1.492833 1_555
B37 O92 1.522969 1_555
B38 O58 1.363605 1_555
B38 O88 1.365302 1_555
B38 O47 1.428190 1_555
B39 O51 1.356842 1_455
B39 O81 1.378379 1_545
B39 O39 1.383615 1_555
B40 O103 1.364929 1_555
B40 O95 1.380413 1_555
B40 O1 1.395163 1_555
B41 O70 1.449991 1_555
B41 O61 1.478074 1_555
B41 O10 1.490848 1_555
B41 O79 1.515376 1_545
B42 O44 1.365466 1_555
B42 O5 1.385777 1_556
B42 O38 1.388557 1_555
B43 O12 1.347703 1_555
B43 O62 1.367524 1_555
B43 O40 1.418750 1_555
B44 O48 1.353324 1_455
B44 O93 1.384632 1_555
B44 O71 1.390507 1_465
B45 O72 1.349281 1_555
B45 O85 1.379460 1_555
B45 O87 1.410760 1_555
B46 O55 1.353324 1_655
B46 O29 1.384632 1_555
B46 O22 1.390507 1_645
B47 O41 1.462366 1_555
B47 O31 1.482179 1_555
B47 O101 1.492833 1_555
B47 O53 1.522969 1_555
B48 O79 1.368668 1_555
B48 O95 1.373220 1_555
B48 O6 1.393243 1_555
B49 O98 1.349281 1_555
B49 O43 1.379460 1_555
B49 O13 1.410760 1_555
B50 O36 1.368668 1_555
B50 O77 1.373220 1_555
B50 O49 1.393243 1_455
B51 O102 1.449991 1_555
B51 O100 1.478074 1_555
B51 O46 1.490848 1_555
B51 O36 1.515376 1_565
B52 O52 1.355547 1_555
B52 O38 1.376199 1_554
B52 O35 1.393063 1_555
B53 O9 1.360067 1_555
B53 O60 1.395261 1_555
B53 O15 1.398922 1_555
B54 O89 1.347703 1_556
B54 O32 1.367524 1_555
B54 O45 1.418750 1_555
B55 O99 1.365466 1_555
B55 O101 1.385777 1_555
B55 O63 1.388557 1_555
B56 O25 1.370123 1_565
B56 O35 1.375048 1_556
B56 O83 1.385470 1_555
B57 O34 1.364929 1_555
B57 O0 1.380413 1_555
B57 O40 1.395163 1_555
B58 O82 1.365055 1_555
B58 O57 1.383741 1_555
B58 O13 1.384521 1_555
B59 O69 1.370123 1_565
B59 O56 1.375048 1_555
B59 O22 1.385470 1_555
B60 O88 1.459420 1_555
B60 O94 1.470262 1_555
B60 O65 1.494152 1_555
B60 O27 1.524556 1_555
B61 O65 1.364929 1_554
B61 O77 1.380413 1_555
B61 O2 1.395163 1_555
B62 O41 1.355547 1_555
B62 O63 1.376199 1_555
B62 O56 1.393063 1_555
B63 O11 1.347703 1_555
B63 O61 1.367524 1_555
B63 O1 1.418750 1_555
O0 Sr3 3.062479 1_555
O1 Sr0 2.693850 1_555
O2 Sr4 2.693850 1_555
O3 Sr2 2.743562 1_555
O5 Sr6 2.635834 1_555
O9 Sr3 2.779775 1_555
O10 Sr0 2.563661 1_555
O13 Sr5 2.854073 1_555
O14 Sr2 2.600680 1_554
O15 Sr2 3.113715 1_545
O16 Sr6 2.854073 1_556
O17 Sr1 3.062479 1_555
O18 Sr5 2.600680 1_555
O20 Sr2 3.082709 1_545
O21 Sr0 2.556843 1_555
O24 Sr1 3.182567 1_555
O25 Sr6 2.600680 1_556
O26 Sr5 3.082709 1_545
O27 Sr1 2.779775 1_455
O28 Sr0 2.779775 1_555
O29 Sr5 3.113715 1_545
O30 Sr5 2.635834 1_555
O31 Sr7 2.945399 1_555
O32 Sr2 2.634461 1_545
O35 Sr6 3.082709 1_565
O36 Sr6 2.743562 1_555
O39 Sr6 3.192330 1_556
O40 Sr3 2.693850 1_555
O42 Sr3 2.786412 1_555
O43 Sr2 2.945399 1_555
O44 Sr3 2.685654 1_555
O45 Sr1 2.693850 1_555
O46 Sr4 2.563661 1_555
O47 Sr7 2.779294 1_565
O48 Sr1 2.556843 1_555
O50 Sr7 2.743562 1_555
O51 Sr1 2.563661 1_555
O53 Sr1 2.741902 1_455
O54 Sr7 3.192330 1_555
O55 Sr4 2.556843 1_555
O56 Sr7 3.082709 1_565
O57 Sr5 3.192330 1_555
O58 Sr3 3.182567 1_555
O59 Sr2 3.192330 1_554
O60 Sr2 2.779294 1_545
O61 Sr5 2.634461 1_545
O62 Sr7 2.634461 1_565
O64 Sr6 2.779294 1_565
O66 Sr4 2.779775 1_655
O67 Sr2 2.635834 1_555
O69 Sr7 2.600680 1_555
O70 Sr0 3.182567 1_555
O72 Sr0 2.786412 1_555
O73 Sr4 2.786412 1_555
O74 Sr7 2.854073 1_555
O75 Sr3 2.556843 1_555
O76 Sr0 2.741902 1_555
O77 Sr4 3.062479 1_555
O79 Sr5 2.743562 1_555
O80 Sr6 3.113715 1_565
O82 Sr3 2.741902 1_555
O84 Sr3 2.563661 1_555
O85 Sr5 2.945399 1_555
O86 Sr0 2.685654 1_555
O87 Sr2 2.854073 1_554
O91 Sr5 2.779294 1_545
O92 Sr4 2.741902 1_655
O93 Sr7 3.113715 1_565
O95 Sr0 3.062479 1_555
O96 Sr6 2.945409 1_555
O97 Sr1 2.685654 1_555
O98 Sr1 2.786412 1_555
O99 Sr4 2.685654 1_555
O100 Sr6 2.634461 1_565
O101 Sr7 2.635834 1_555
O102 Sr4 3.182567 1_555
