# generated using pymatgen
data_Ba6Ca6Tl5Cu9O29
_symmetry_space_group_name_H-M   'P 1'
_cell_length_a   3.88043100
_cell_length_b   3.88043100
_cell_length_c   52.81969000
_cell_angle_alpha   90.00000000
_cell_angle_beta   90.00000000
_cell_angle_gamma   90.00000000
_symmetry_Int_Tables_number   1
_chemical_formula_structural   Ba6Ca6Tl5Cu9O29
_chemical_formula_sum   'Ba6 Ca6 Tl5 Cu9 O29'
_cell_volume   795.34540957
_cell_formula_units_Z   1
loop_
 _symmetry_equiv_pos_site_id
 _symmetry_equiv_pos_as_xyz
  1  'x, y, z'
loop_
 _atom_site_type_symbol
 _atom_site_label
 _atom_site_symmetry_multiplicity
 _atom_site_fract_x
 _atom_site_fract_y
 _atom_site_fract_z
 _atom_site_occupancy
  Ba  Ba0  1  0.50000000  0.50000000  0.74888600  1
  Ba  Ba1  1  0.50000000  0.50000000  0.05107500  1
  Ba  Ba2  1  0.50000000  0.50000000  0.25111400  1
  Ba  Ba3  1  0.50000000  0.50000000  0.94892500  1
  Ba  Ba4  1  0.00000000  0.00000000  0.59875900  1
  Ba  Ba5  1  0.00000000  0.00000000  0.40124100  1
  Ca  Ca0  1  0.00000000  0.00000000  0.46872000  1
  Ca  Ca1  1  0.00000000  0.00000000  0.53128000  1
  Ca  Ca2  1  0.50000000  0.50000000  0.81607900  1
  Ca  Ca3  1  0.50000000  0.50000000  0.87859400  1
  Ca  Ca4  1  0.50000000  0.50000000  0.18392100  1
  Ca  Ca5  1  0.50000000  0.50000000  0.12140600  1
  Tl  Tl0  1  0.50000000  0.50000000  0.34771300  1
  Tl  Tl1  1  0.50000000  0.50000000  0.65228700  1
  Tl  Tl2  1  0.00000000  0.00000000  0.30435700  1
  Tl  Tl3  1  0.00000000  0.00000000  0.00000000  1
  Tl  Tl4  1  0.00000000  0.00000000  0.69564300  1
  Cu  Cu0  1  0.00000000  0.00000000  0.21428500  1
  Cu  Cu1  1  0.00000000  0.00000000  0.84638300  1
  Cu  Cu2  1  0.50000000  0.50000000  0.43806200  1
  Cu  Cu3  1  0.00000000  0.00000000  0.15361700  1
  Cu  Cu4  1  0.50000000  0.50000000  0.56193800  1
  Cu  Cu5  1  0.00000000  0.00000000  0.09085300  1
  Cu  Cu6  1  0.00000000  0.00000000  0.90914700  1
  Cu  Cu7  1  0.00000000  0.00000000  0.78571500  1
  Cu  Cu8  1  0.50000000  0.50000000  0.50000000  1
  O  O0  1  0.00000000  0.50000000  0.78593000  1
  O  O1  1  0.50000000  0.00000000  0.15388000  1
  O  O2  1  0.00000000  0.50000000  0.21407000  1
  O  O3  1  0.50000000  0.50000000  0.61369300  1
  O  O4  1  0.00000000  0.50000000  0.56132500  1
  O  O5  1  0.00000000  0.50000000  0.90629900  1
  O  O6  1  0.50000000  0.00000000  0.78593000  1
  O  O7  1  0.50000000  0.50000000  0.69175300  1
  O  O8  1  0.00000000  0.00000000  0.26585200  1
  O  O9  1  0.00000000  0.00000000  0.96016800  1
  O  O10  1  0.50000000  0.00000000  0.43867500  1
  O  O11  1  0.50000000  0.00000000  0.90629900  1
  O  O12  1  0.50000000  0.50000000  0.30824700  1
  O  O13  1  0.00000000  0.50000000  0.15388000  1
  O  O14  1  0.50000000  0.00000000  0.56132500  1
  O  O15  1  0.00000000  0.00000000  0.34382900  1
  O  O16  1  0.50000000  0.50000000  0.38630700  1
  O  O17  1  0.50000000  0.00000000  0.09370100  1
  O  O18  1  0.50000000  0.00000000  0.21407000  1
  O  O19  1  0.50000000  0.00000000  0.50000000  1
  O  O20  1  0.00000000  0.00000000  0.73414800  1
  O  O21  1  0.00000000  0.50000000  0.84612000  1
  O  O22  1  0.00000000  0.00000000  0.03983200  1
  O  O23  1  0.00000000  0.00000000  0.65617100  1
  O  O24  1  0.00000000  0.50000000  0.43867500  1
  O  O25  1  0.50000000  0.00000000  0.84612000  1
  O  O26  1  0.00000000  0.50000000  0.09370100  1
  O  O27  1  0.00000000  0.50000000  0.50000000  1
  O  O28  1  0.50000000  0.50000000  0.00000000  1
loop_
_geom_bond_atom_site_label_1
_geom_bond_atom_site_label_2
_geom_bond_distance
_geom_bond_site_symmetry_2
Ba0 O6 2.755526 1_555
Ba0 O0 2.755526 1_555
Ba0 O0 2.755526 1_655
Ba0 O6 2.755526 1_565
Ba0 O20 2.852169 1_555
Ba0 O20 2.852169 1_565
Ba0 O20 2.852169 1_655
Ba0 O20 2.852169 1_665
Ba0 O7 3.017747 1_555
Ba1 O28 2.697766 1_555
Ba1 O22 2.807407 1_655
Ba1 O22 2.807407 1_565
Ba1 O22 2.807407 1_665
Ba1 O22 2.807407 1_555
Ba1 O26 2.972146 1_555
Ba1 O17 2.972146 1_555
Ba1 O26 2.972146 1_655
Ba1 O17 2.972146 1_565
Ba2 O2 2.755526 1_555
Ba2 O18 2.755526 1_555
Ba2 O2 2.755526 1_655
Ba2 O18 2.755526 1_565
Ba2 O8 2.852169 1_665
Ba2 O8 2.852169 1_555
Ba2 O8 2.852169 1_655
Ba2 O8 2.852169 1_565
Ba2 O12 3.017747 1_555
Ba3 O28 2.697766 1_556
Ba3 O9 2.807407 1_555
Ba3 O9 2.807407 1_655
Ba3 O9 2.807407 1_665
Ba3 O9 2.807407 1_565
Ba3 O11 2.972146 1_555
Ba3 O5 2.972146 1_555
Ba3 O5 2.972146 1_655
Ba3 O11 2.972146 1_565
Ba4 O14 2.770192 1_555
Ba4 O4 2.770192 1_545
Ba4 O14 2.770192 1_455
Ba4 O4 2.770192 1_555
Ba4 O3 2.855012 1_445
Ba4 O3 2.855012 1_455
Ba4 O3 2.855012 1_545
Ba4 O3 2.855012 1_555
Ba4 O23 3.032484 1_555
Ba5 O24 2.770192 1_555
Ba5 O10 2.770192 1_455
Ba5 O10 2.770192 1_555
Ba5 O24 2.770192 1_545
Ba5 O16 2.855012 1_445
Ba5 O16 2.855012 1_545
Ba5 O16 2.855012 1_555
Ba5 O16 2.855012 1_455
Ba5 O15 3.032484 1_555
Ca0 O24 2.506572 1_555
Ca0 O10 2.506572 1_455
Ca0 O10 2.506572 1_555
Ca0 O24 2.506572 1_545
Ca0 O19 2.548372 1_455
Ca0 O19 2.548372 1_555
Ca0 O27 2.548372 1_545
Ca0 O27 2.548372 1_555
Ca1 O14 2.506572 1_555
Ca1 O4 2.506572 1_555
Ca1 O4 2.506572 1_545
Ca1 O14 2.506572 1_455
Ca1 O19 2.548372 1_455
Ca1 O19 2.548372 1_555
Ca1 O27 2.548372 1_545
Ca1 O27 2.548372 1_555
Ca2 O21 2.506438 1_555
Ca2 O21 2.506438 1_655
Ca2 O25 2.506438 1_555
Ca2 O25 2.506438 1_565
Ca2 O6 2.510053 1_555
Ca2 O0 2.510053 1_555
Ca2 O0 2.510053 1_655
Ca2 O6 2.510053 1_565
Ca3 O11 2.430203 1_555
Ca3 O5 2.430203 1_555
Ca3 O5 2.430203 1_655
Ca3 O11 2.430203 1_565
Ca3 O21 2.589706 1_555
Ca3 O25 2.589706 1_565
Ca3 O25 2.589706 1_555
Ca3 O21 2.589706 1_655
Ca4 O13 2.506438 1_555
Ca4 O13 2.506438 1_655
Ca4 O1 2.506438 1_555
Ca4 O1 2.506438 1_565
Ca4 O2 2.510053 1_555
Ca4 O18 2.510053 1_555
Ca4 O2 2.510053 1_655
Ca4 O18 2.510053 1_565
Ca5 O26 2.430203 1_655
Ca5 O17 2.430203 1_555
Ca5 O26 2.430203 1_555
Ca5 O17 2.430203 1_565
Ca5 O1 2.589706 1_555
Ca5 O13 2.589706 1_555
Ca5 O13 2.589706 1_655
Ca5 O1 2.589706 1_565
Cu0 O2 1.940249 1_545
Cu0 O18 1.940249 1_455
Cu0 O18 1.940249 1_555
Cu0 O2 1.940249 1_555
Cu1 O25 1.940265 1_555
Cu1 O21 1.940265 1_545
Cu1 O21 1.940265 1_555
Cu1 O25 1.940265 1_455
Cu2 O10 1.940486 1_555
Cu2 O24 1.940486 1_555
Cu2 O10 1.940486 1_565
Cu2 O24 1.940486 1_655
Cu3 O1 1.940265 1_455
Cu3 O1 1.940265 1_555
Cu3 O13 1.940265 1_555
Cu3 O13 1.940265 1_545
Cu4 O4 1.940486 1_655
Cu4 O14 1.940486 1_565
Cu4 O14 1.940486 1_555
Cu4 O4 1.940486 1_555
Cu5 O26 1.946038 1_545
Cu5 O17 1.946038 1_455
Cu5 O17 1.946038 1_555
Cu5 O26 1.946038 1_555
Cu5 O22 2.694913 1_555
Cu6 O5 1.946038 1_545
Cu6 O11 1.946038 1_455
Cu6 O11 1.946038 1_555
Cu6 O5 1.946038 1_555
Cu6 O9 2.694913 1_555
Cu7 O6 1.940249 1_555
Cu7 O6 1.940249 1_455
Cu7 O0 1.940249 1_545
Cu7 O0 1.940249 1_555
Cu8 O19 1.940216 1_555
Cu8 O27 1.940216 1_655
Cu8 O19 1.940216 1_565
Cu8 O27 1.940216 1_555
O3 Tl1 2.038523 1_555
O7 Tl1 2.084582 1_555
O7 Tl4 2.751561 1_555
O7 Tl4 2.751561 1_565
O7 Tl4 2.751561 1_655
O7 Tl4 2.751561 1_665
O8 Tl2 2.033822 1_555
O9 Tl3 2.103914 1_556
O12 Tl0 2.084582 1_555
O12 Tl2 2.751561 1_555
O12 Tl2 2.751561 1_655
O12 Tl2 2.751561 1_565
O12 Tl2 2.751561 1_665
O15 Tl2 2.084899 1_555
O15 Tl0 2.751538 1_555
O15 Tl0 2.751538 1_545
O15 Tl0 2.751538 1_445
O15 Tl0 2.751538 1_455
O16 Tl0 2.038523 1_555
O20 Tl4 2.033822 1_555
O22 Tl3 2.103914 1_555
O23 Tl4 2.084899 1_555
O23 Tl1 2.751538 1_555
O23 Tl1 2.751538 1_455
O23 Tl1 2.751538 1_445
O23 Tl1 2.751538 1_545
O28 Tl3 2.743879 1_655
O28 Tl3 2.743879 1_665
O28 Tl3 2.743879 1_555
O28 Tl3 2.743879 1_565
