# generated using pymatgen
data_U5(B12Mo5)2
_symmetry_space_group_name_H-M   'P 1'
_cell_length_a   3.09938300
_cell_length_b   14.64970400
_cell_length_c   17.99326100
_cell_angle_alpha   90.00000000
_cell_angle_beta   90.00000000
_cell_angle_gamma   90.00000000
_symmetry_Int_Tables_number   1
_chemical_formula_structural   U5(B12Mo5)2
_chemical_formula_sum   'U10 B48 Mo20'
_cell_volume   816.98479900
_cell_formula_units_Z   2
loop_
 _symmetry_equiv_pos_site_id
 _symmetry_equiv_pos_as_xyz
  1  'x, y, z'
loop_
 _atom_site_type_symbol
 _atom_site_label
 _atom_site_symmetry_multiplicity
 _atom_site_fract_x
 _atom_site_fract_y
 _atom_site_fract_z
 _atom_site_occupancy
  U  U0  1  0.00000000  0.52534400  0.38613500  1
  U  U1  1  0.50000000  0.02208000  0.50000000  1
  U  U2  1  0.50000000  0.82394600  0.24500900  1
  U  U3  1  0.00000000  0.97792000  0.00000000  1
  U  U4  1  0.50000000  0.82394600  0.75499100  1
  U  U5  1  0.50000000  0.47465600  0.11386500  1
  U  U6  1  0.00000000  0.17605400  0.74500900  1
  U  U7  1  0.50000000  0.47465600  0.88613500  1
  U  U8  1  0.00000000  0.17605400  0.25499100  1
  U  U9  1  0.00000000  0.52534400  0.61386500  1
  B  B0  1  0.50000000  0.18834900  0.86859200  1
  B  B1  1  0.00000000  0.16752700  0.50000000  1
  B  B2  1  0.50000000  0.52775400  0.26374300  1
  B  B3  1  0.00000000  0.11094000  0.40587900  1
  B  B4  1  0.50000000  0.18834900  0.13140800  1
  B  B5  1  0.00000000  0.91367400  0.14467700  1
  B  B6  1  0.00000000  0.61404100  0.08727400  1
  B  B7  1  0.00000000  0.35892200  0.80717800  1
  B  B8  1  0.50000000  0.38595900  0.58727400  1
  B  B9  1  0.00000000  0.33681900  0.62529200  1
  B  B10  1  0.00000000  0.33681900  0.37470800  1
  B  B11  1  0.50000000  0.29676100  0.17690300  1
  B  B12  1  0.00000000  0.13543100  0.09913800  1
  B  B13  1  0.00000000  0.53999000  0.00000000  1
  B  B14  1  0.00000000  0.97856800  0.22951500  1
  B  B15  1  0.00000000  0.47224600  0.23625700  1
  B  B16  1  0.50000000  0.08632600  0.35532300  1
  B  B17  1  0.50000000  0.64107800  0.69282200  1
  B  B18  1  0.00000000  0.70323900  0.32309700  1
  B  B19  1  0.00000000  0.41887200  0.00000000  1
  B  B20  1  0.50000000  0.86456900  0.59913800  1
  B  B21  1  0.50000000  0.29676100  0.82309700  1
  B  B22  1  0.00000000  0.35892200  0.19282200  1
  B  B23  1  0.00000000  0.81165100  0.63140800  1
  B  B24  1  0.00000000  0.70323900  0.67690300  1
  B  B25  1  0.50000000  0.64107800  0.30717800  1
  B  B26  1  0.00000000  0.91367400  0.85532300  1
  B  B27  1  0.50000000  0.66318100  0.12529200  1
  B  B28  1  0.50000000  0.08632600  0.64467700  1
  B  B29  1  0.00000000  0.47224600  0.76374300  1
  B  B30  1  0.50000000  0.86456900  0.40086200  1
  B  B31  1  0.50000000  0.46001000  0.50000000  1
  B  B32  1  0.00000000  0.97856800  0.77048500  1
  B  B33  1  0.00000000  0.64072600  0.50000000  1
  B  B34  1  0.50000000  0.83247300  0.00000000  1
  B  B35  1  0.00000000  0.13543100  0.90086200  1
  B  B36  1  0.50000000  0.02143200  0.27048500  1
  B  B37  1  0.50000000  0.66318100  0.87470800  1
  B  B38  1  0.50000000  0.38595900  0.41272600  1
  B  B39  1  0.50000000  0.88906000  0.90587900  1
  B  B40  1  0.50000000  0.02143200  0.72951500  1
  B  B41  1  0.00000000  0.81165100  0.36859200  1
  B  B42  1  0.00000000  0.61404100  0.91272600  1
  B  B43  1  0.00000000  0.11094000  0.59412100  1
  B  B44  1  0.50000000  0.52775400  0.73625700  1
  B  B45  1  0.50000000  0.35927400  0.00000000  1
  B  B46  1  0.50000000  0.58112800  0.50000000  1
  B  B47  1  0.50000000  0.88906000  0.09412100  1
  Mo  Mo0  1  0.00000000  0.96681500  0.35601800  1
  Mo  Mo1  1  0.50000000  0.37197200  0.28704200  1
  Mo  Mo2  1  0.00000000  0.34585900  0.50000000  1
  Mo  Mo3  1  0.50000000  0.70948600  0.41991100  1
  Mo  Mo4  1  0.50000000  0.22509000  0.58773300  1
  Mo  Mo5  1  0.00000000  0.29051400  0.08008900  1
  Mo  Mo6  1  0.00000000  0.84516600  0.50000000  1
  Mo  Mo7  1  0.00000000  0.77491000  0.08773300  1
  Mo  Mo8  1  0.50000000  0.03318500  0.85601800  1
  Mo  Mo9  1  0.50000000  0.15483400  0.00000000  1
  Mo  Mo10  1  0.50000000  0.65414100  0.00000000  1
  Mo  Mo11  1  0.00000000  0.77491000  0.91226700  1
  Mo  Mo12  1  0.00000000  0.62802800  0.78704200  1
  Mo  Mo13  1  0.00000000  0.62802800  0.21295800  1
  Mo  Mo14  1  0.50000000  0.22509000  0.41226700  1
  Mo  Mo15  1  0.00000000  0.29051400  0.91991100  1
  Mo  Mo16  1  0.50000000  0.70948600  0.58008900  1
  Mo  Mo17  1  0.50000000  0.03318500  0.14398200  1
  Mo  Mo18  1  0.50000000  0.37197200  0.71295800  1
  Mo  Mo19  1  0.00000000  0.96681500  0.64398200  1
loop_
_geom_bond_atom_site_label_1
_geom_bond_atom_site_label_2
_geom_bond_distance
_geom_bond_site_symmetry_2
B0 B21 1.786758 1_555
B0 B35 1.827478 1_655
B0 B35 1.827478 1_555
B0 Mo8 2.284338 1_555
B0 Mo15 2.343987 1_555
B0 Mo15 2.343987 1_655
B0 Mo9 2.414897 1_556
B0 U6 2.716368 1_555
B0 U6 2.716368 1_655
B1 B43 1.885551 1_555
B1 B3 1.885551 1_555
B1 Mo4 2.367415 1_455
B1 Mo4 2.367415 1_555
B1 Mo14 2.367415 1_455
B1 Mo14 2.367415 1_555
B1 Mo2 2.612511 1_555
B1 U1 2.634704 1_555
B1 U1 2.634704 1_455
B2 B25 1.834923 1_555
B2 Mo1 2.320346 1_555
B2 Mo13 2.322599 1_555
B2 Mo13 2.322599 1_655
B2 U0 2.693067 1_655
B2 U0 2.693067 1_555
B2 U5 2.806738 1_555
B3 Mo14 2.282810 1_455
B3 Mo14 2.282810 1_555
B3 Mo0 2.294093 1_545
B3 U1 2.638986 1_455
B3 U1 2.638986 1_555
B3 U8 2.877668 1_555
B4 Mo17 2.284338 1_555
B4 Mo5 2.343987 1_555
B4 Mo5 2.343987 1_655
B4 Mo9 2.414897 1_555
B4 U8 2.716368 1_655
B4 U8 2.716368 1_555
B5 Mo7 2.276468 1_555
B5 Mo17 2.338162 1_565
B5 Mo17 2.338162 1_465
B5 U2 2.718185 1_455
B5 U2 2.718185 1_555
B5 U3 2.768129 1_555
B6 Mo13 2.270729 1_555
B6 Mo10 2.283117 1_455
B6 Mo10 2.283117 1_555
B6 Mo7 2.356698 1_555
B6 U5 2.607685 1_455
B6 U5 2.607685 1_555
B7 Mo15 2.262491 1_555
B7 Mo18 2.304825 1_455
B7 Mo18 2.304825 1_555
B7 U7 2.700839 1_455
B7 U7 2.700839 1_555
B7 U6 2.903129 1_555
B8 B9 1.840578 1_655
B8 B9 1.840578 1_555
B8 Mo18 2.270729 1_555
B8 Mo2 2.283117 1_655
B8 Mo2 2.283117 1_555
B8 Mo4 2.356698 1_555
B8 U9 2.607685 1_555
B8 U9 2.607685 1_655
B9 Mo2 2.258298 1_555
B9 Mo18 2.270447 1_555
B9 Mo18 2.270447 1_455
B9 Mo4 2.353161 1_455
B9 Mo4 2.353161 1_555
B9 U9 2.769478 1_555
B9 U6 3.191696 1_555
B10 B38 1.840578 1_555
B10 B38 1.840578 1_455
B10 Mo2 2.258298 1_555
B10 Mo1 2.270447 1_455
B10 Mo1 2.270447 1_555
B10 Mo14 2.353161 1_555
B10 Mo14 2.353161 1_455
B10 U0 2.769478 1_555
B10 U8 3.191696 1_555
B11 B4 1.786758 1_555
B11 B22 1.820125 1_555
B11 B22 1.820125 1_655
B11 Mo1 2.267460 1_555
B11 Mo5 2.333341 1_555
B11 Mo5 2.333341 1_655
B11 U8 2.739104 1_655
B11 U8 2.739104 1_555
B11 U5 2.842244 1_555
B12 B4 1.827478 1_555
B12 B4 1.827478 1_455
B12 Mo5 2.297629 1_555
B12 Mo17 2.301356 1_455
B12 Mo17 2.301356 1_555
B12 Mo9 2.379987 1_555
B12 Mo9 2.379987 1_455
B12 U8 2.866754 1_555
B12 U3 2.916592 1_545
B13 B19 1.774343 1_555
B13 B6 1.908619 1_555
B13 B42 1.908619 1_554
B13 Mo10 2.279925 1_455
B13 Mo10 2.279925 1_555
B13 U7 2.741391 1_454
B13 U5 2.741391 1_455
B13 U5 2.741391 1_555
B13 U7 2.741391 1_554
B14 B5 1.798340 1_555
B14 B36 1.827375 1_565
B14 B36 1.827375 1_465
B14 Mo0 2.282704 1_555
B14 Mo17 2.326008 1_465
B14 Mo17 2.326008 1_565
B14 U2 2.758667 1_455
B14 U2 2.758667 1_555
B14 U8 2.929201 1_565
B15 B2 1.818623 1_555
B15 B2 1.818623 1_455
B15 B22 1.834923 1_555
B15 Mo13 2.320346 1_555
B15 Mo1 2.322599 1_455
B15 Mo1 2.322599 1_555
B15 U5 2.693067 1_455
B15 U5 2.693067 1_555
B15 U0 2.806738 1_555
B16 B36 1.798340 1_555
B16 B3 1.832774 1_555
B16 B3 1.832774 1_655
B16 Mo14 2.276468 1_555
B16 Mo0 2.338162 1_645
B16 Mo0 2.338162 1_545
B16 U8 2.718185 1_655
B16 U8 2.718185 1_555
B16 U1 2.768129 1_555
B17 B24 1.820125 1_555
B17 B24 1.820125 1_655
B17 B44 1.834923 1_555
B17 Mo16 2.262491 1_555
B17 Mo12 2.304825 1_655
B17 Mo12 2.304825 1_555
B17 U9 2.700839 1_655
B17 U9 2.700839 1_555
B17 U4 2.903129 1_555
B18 B41 1.786758 1_555
B18 B25 1.820125 1_555
B18 B25 1.820125 1_455
B18 Mo13 2.267460 1_555
B18 Mo3 2.333341 1_555
B18 Mo3 2.333341 1_455
B18 U2 2.739104 1_455
B18 U2 2.739104 1_555
B18 U0 2.842244 1_555
B19 B45 1.778717 1_555
B19 B45 1.778717 1_455
B19 Mo5 2.369091 1_555
B19 Mo15 2.369091 1_554
B19 U7 2.695734 1_554
B19 U7 2.695734 1_454
B19 U5 2.695734 1_455
B19 U5 2.695734 1_555
B20 B23 1.827478 1_555
B20 B23 1.827478 1_655
B20 Mo16 2.297629 1_555
B20 Mo19 2.301356 1_555
B20 Mo19 2.301356 1_655
B20 Mo6 2.379987 1_655
B20 Mo6 2.379987 1_555
B20 U4 2.866754 1_555
B20 U1 2.916592 1_565
B21 B7 1.820125 1_555
B21 B7 1.820125 1_655
B21 Mo18 2.267460 1_555
B21 Mo15 2.333341 1_655
B21 Mo15 2.333341 1_555
B21 U6 2.739104 1_655
B21 U6 2.739104 1_555
B21 U7 2.842244 1_555
B22 Mo5 2.262491 1_555
B22 Mo1 2.304825 1_455
B22 Mo1 2.304825 1_555
B22 U5 2.700839 1_455
B22 U5 2.700839 1_555
B22 U8 2.903129 1_555
B23 B24 1.786758 1_555
B23 Mo19 2.284338 1_555
B23 Mo16 2.343987 1_555
B23 Mo16 2.343987 1_455
B23 Mo6 2.414897 1_555
B23 U4 2.716368 1_455
B23 U4 2.716368 1_555
B24 Mo12 2.267460 1_555
B24 Mo16 2.333341 1_455
B24 Mo16 2.333341 1_555
B24 U4 2.739104 1_555
B24 U4 2.739104 1_455
B24 U9 2.842244 1_555
B25 Mo3 2.262491 1_555
B25 Mo13 2.304825 1_655
B25 Mo13 2.304825 1_555
B25 U0 2.700839 1_555
B25 U0 2.700839 1_655
B25 U2 2.903129 1_555
B26 B32 1.798340 1_555
B26 B39 1.832774 1_455
B26 B39 1.832774 1_555
B26 Mo11 2.276468 1_555
B26 Mo8 2.338162 1_565
B26 Mo8 2.338162 1_465
B26 U4 2.718185 1_555
B26 U4 2.718185 1_455
B26 U3 2.768129 1_556
B27 B6 1.840578 1_555
B27 B6 1.840578 1_655
B27 Mo10 2.258298 1_555
B27 Mo13 2.270447 1_555
B27 Mo13 2.270447 1_655
B27 Mo7 2.353161 1_655
B27 Mo7 2.353161 1_555
B27 U5 2.769478 1_555
B27 U2 3.191696 1_555
B28 B40 1.798340 1_555
B28 B43 1.832774 1_655
B28 B43 1.832774 1_555
B28 Mo4 2.276468 1_555
B28 Mo19 2.338162 1_645
B28 Mo19 2.338162 1_545
B28 U6 2.718185 1_555
B28 U6 2.718185 1_655
B28 U1 2.768129 1_555
B29 B44 1.818623 1_455
B29 B44 1.818623 1_555
B29 B7 1.834923 1_555
B29 Mo12 2.320346 1_555
B29 Mo18 2.322599 1_455
B29 Mo18 2.322599 1_555
B29 U7 2.693067 1_455
B29 U7 2.693067 1_555
B29 U9 2.806738 1_555
B30 B41 1.827478 1_555
B30 B41 1.827478 1_655
B30 Mo3 2.297629 1_555
B30 Mo0 2.301356 1_555
B30 Mo0 2.301356 1_655
B30 Mo6 2.379987 1_655
B30 Mo6 2.379987 1_555
B30 U2 2.866754 1_555
B30 U1 2.916592 1_565
B31 B46 1.774343 1_555
B31 B8 1.908619 1_555
B31 B38 1.908619 1_555
B31 Mo2 2.279925 1_655
B31 Mo2 2.279925 1_555
B31 U0 2.741391 1_655
B31 U9 2.741391 1_555
B31 U9 2.741391 1_655
B31 U0 2.741391 1_555
B32 B40 1.827375 1_465
B32 B40 1.827375 1_565
B32 Mo19 2.282704 1_555
B32 Mo8 2.326008 1_565
B32 Mo8 2.326008 1_465
B32 U4 2.758667 1_555
B32 U4 2.758667 1_455
B32 U6 2.929201 1_565
B33 B46 1.778717 1_455
B33 B46 1.778717 1_555
B33 Mo16 2.343690 1_555
B33 Mo16 2.343690 1_455
B33 Mo3 2.343690 1_455
B33 Mo3 2.343690 1_555
B33 U0 2.656077 1_555
B33 U9 2.656077 1_555
B34 B47 1.885551 1_555
B34 B39 1.885551 1_554
B34 Mo7 2.367415 1_555
B34 Mo7 2.367415 1_655
B34 Mo11 2.367415 1_554
B34 Mo11 2.367415 1_654
B34 Mo10 2.612511 1_555
B34 U3 2.634704 1_655
B34 U3 2.634704 1_555
B35 Mo15 2.297629 1_555
B35 Mo8 2.301356 1_555
B35 Mo8 2.301356 1_455
B35 Mo9 2.379987 1_556
B35 Mo9 2.379987 1_456
B35 U6 2.866754 1_555
B35 U3 2.916592 1_546
B36 Mo17 2.282704 1_555
B36 Mo0 2.326008 1_645
B36 Mo0 2.326008 1_545
B36 U8 2.758667 1_555
B36 U8 2.758667 1_655
B36 U2 2.929201 1_545
B37 B42 1.840578 1_655
B37 B42 1.840578 1_555
B37 Mo10 2.258298 1_556
B37 Mo12 2.270447 1_655
B37 Mo12 2.270447 1_555
B37 Mo11 2.353161 1_555
B37 Mo11 2.353161 1_655
B37 U7 2.769478 1_555
B37 U4 3.191696 1_555
B38 Mo1 2.270729 1_555
B38 Mo2 2.283117 1_655
B38 Mo2 2.283117 1_555
B38 Mo14 2.356698 1_555
B38 U0 2.607685 1_655
B38 U0 2.607685 1_555
B39 Mo11 2.282810 1_555
B39 Mo11 2.282810 1_655
B39 Mo8 2.294093 1_565
B39 U3 2.638986 1_656
B39 U3 2.638986 1_556
B39 U4 2.877668 1_555
B40 Mo8 2.282704 1_555
B40 Mo19 2.326008 1_645
B40 Mo19 2.326008 1_545
B40 U6 2.758667 1_555
B40 U6 2.758667 1_655
B40 U4 2.929201 1_545
B41 Mo0 2.284338 1_555
B41 Mo3 2.343987 1_455
B41 Mo3 2.343987 1_555
B41 Mo6 2.414897 1_555
B41 U2 2.716368 1_555
B41 U2 2.716368 1_455
B42 Mo12 2.270729 1_555
B42 Mo10 2.283117 1_456
B42 Mo10 2.283117 1_556
B42 Mo11 2.356698 1_555
B42 U7 2.607685 1_455
B42 U7 2.607685 1_555
B43 Mo4 2.282810 1_455
B43 Mo4 2.282810 1_555
B43 Mo19 2.294093 1_545
B43 U1 2.638986 1_455
B43 U1 2.638986 1_555
B43 U6 2.877668 1_555
B44 Mo18 2.320346 1_555
B44 Mo12 2.322599 1_655
B44 Mo12 2.322599 1_555
B44 U9 2.693067 1_555
B44 U9 2.693067 1_655
B44 U7 2.806738 1_555
B45 Mo5 2.343690 1_655
B45 Mo5 2.343690 1_555
B45 Mo15 2.343690 1_554
B45 Mo15 2.343690 1_654
B45 U5 2.656077 1_555
B45 U7 2.656077 1_554
B46 Mo16 2.369091 1_555
B46 Mo3 2.369091 1_555
B46 U9 2.695734 1_555
B46 U9 2.695734 1_655
B46 U0 2.695734 1_655
B46 U0 2.695734 1_555
B47 B5 1.832774 1_555
B47 B5 1.832774 1_655
B47 Mo7 2.282810 1_655
B47 Mo7 2.282810 1_555
B47 Mo17 2.294093 1_565
B47 U3 2.638986 1_655
B47 U3 2.638986 1_555
B47 U2 2.877668 1_555
Mo6 U1 3.019710 1_565
Mo6 U1 3.019710 1_465
Mo9 U3 3.019710 1_545
Mo9 U3 3.019710 1_645
