# generated using pymatgen
data_Sc2CrC3
_symmetry_space_group_name_H-M   'P 1'
_cell_length_a   3.29237870
_cell_length_b   5.78245476
_cell_length_c   14.10551413
_cell_angle_alpha   90.00000000
_cell_angle_beta   90.00000000
_cell_angle_gamma   90.00000000
_symmetry_Int_Tables_number   1
_chemical_formula_structural   Sc2CrC3
_chemical_formula_sum   'Sc8 Cr4 C12'
_cell_volume   268.54121366
_cell_formula_units_Z   4
loop_
 _symmetry_equiv_pos_site_id
 _symmetry_equiv_pos_as_xyz
  1  'x, y, z'
loop_
 _atom_site_type_symbol
 _atom_site_label
 _atom_site_symmetry_multiplicity
 _atom_site_fract_x
 _atom_site_fract_y
 _atom_site_fract_z
 _atom_site_occupancy
  Sc  Sc0  1  0.00000000  0.37685469  0.81275567  1
  Sc  Sc1  1  0.00000000  0.62314531  0.18724433  1
  Sc  Sc2  1  -0.00000000  0.87685469  0.68724433  1
  Sc  Sc3  1  -0.00000000  0.12314531  0.31275567  1
  Sc  Sc4  1  0.50000000  0.50000000  -0.00000000  1
  Sc  Sc5  1  -0.00000000  -0.00000000  -0.00000000  1
  Sc  Sc6  1  0.50000000  -0.00000000  0.50000000  1
  Sc  Sc7  1  -0.00000000  0.50000000  0.50000000  1
  Cr  Cr0  1  0.50000000  0.79943965  0.84593174  1
  Cr  Cr1  1  0.50000000  0.20056035  0.15406826  1
  Cr  Cr2  1  0.50000000  0.29943965  0.65406826  1
  Cr  Cr3  1  0.50000000  0.70056035  0.34593174  1
  C  C0  1  -0.00000000  0.31740477  0.09200255  1
  C  C1  1  -0.00000000  0.18259523  0.59200255  1
  C  C2  1  -0.00000000  0.68259523  0.90799745  1
  C  C3  1  0.50000000  0.60618838  0.72160499  1
  C  C4  1  -0.00000000  0.81740477  0.40799745  1
  C  C5  1  0.50000000  0.10618838  0.77839501  1
  C  C6  1  0.50000000  0.36141090  0.38254644  1
  C  C7  1  0.50000000  0.13858910  0.88254644  1
  C  C8  1  0.50000000  0.86141090  0.11745356  1
  C  C9  1  0.50000000  0.89381162  0.22160499  1
  C  C10  1  0.50000000  0.39381162  0.27839501  1
  C  C11  1  0.50000000  0.63858910  0.61745356  1
loop_
_geom_bond_atom_site_label_1
_geom_bond_atom_site_label_2
_geom_bond_distance
_geom_bond_site_symmetry_2
C0 Cr1 1.983150 1_455
C0 Cr1 1.983150 1_555
C0 Sc1 2.220449 1_555
C0 Sc5 2.247833 1_555
C0 Sc4 2.347103 1_555
C0 Sc4 2.347103 1_455
C1 Cr2 1.983150 1_555
C1 Cr2 1.983150 1_455
C1 Sc2 2.220449 1_545
C1 Sc7 2.247833 1_555
C1 Sc6 2.347103 1_455
C1 Sc6 2.347103 1_555
C2 Cr0 1.983150 1_455
C2 Cr0 1.983150 1_555
C2 Sc0 2.220449 1_555
C2 Sc5 2.247833 1_566
C2 Sc4 2.347103 1_456
C2 Sc4 2.347103 1_556
C3 Cr2 2.013393 1_555
C3 Cr0 2.079464 1_555
C3 Sc2 2.322593 1_555
C3 Sc2 2.322593 1_655
C3 Sc0 2.474188 1_555
C3 Sc0 2.474188 1_655
C4 Cr3 1.983150 1_455
C4 Cr3 1.983150 1_555
C4 Sc3 2.220449 1_565
C4 Sc7 2.247833 1_555
C4 Sc6 2.347103 1_565
C4 Sc6 2.347103 1_465
C5 C7 1.481008 1_555
C5 Cr0 2.013393 1_545
C5 Cr2 2.079464 1_555
C5 Sc0 2.322593 1_655
C5 Sc0 2.322593 1_555
C5 Sc2 2.474188 1_545
C5 Sc2 2.474188 1_645
C6 Cr3 2.027984 1_555
C6 Sc3 2.361625 1_555
C6 Sc3 2.361625 1_655
C6 Sc7 2.469201 1_655
C6 Sc7 2.469201 1_555
C6 Sc6 2.666878 1_555
C7 Cr0 2.027984 1_545
C7 Sc0 2.361625 1_555
C7 Sc0 2.361625 1_655
C7 Sc5 2.469201 1_556
C7 Sc5 2.469201 1_656
C7 Sc4 2.666878 1_556
C8 C9 1.481008 1_555
C8 Cr1 2.027984 1_565
C8 Sc1 2.361625 1_555
C8 Sc1 2.361625 1_655
C8 Sc5 2.469201 1_665
C8 Sc5 2.469201 1_565
C8 Sc4 2.666878 1_555
C9 Cr1 2.013393 1_565
C9 Cr3 2.079464 1_555
C9 Sc1 2.322593 1_655
C9 Sc1 2.322593 1_555
C9 Sc3 2.474188 1_565
C9 Sc3 2.474188 1_665
C10 C6 1.481008 1_555
C10 Cr3 2.013393 1_555
C10 Cr1 2.079464 1_555
C10 Sc3 2.322593 1_555
C10 Sc3 2.322593 1_655
C10 Sc1 2.474188 1_555
C10 Sc1 2.474188 1_655
C11 C3 1.481008 1_555
C11 Cr2 2.027984 1_555
C11 Sc2 2.361625 1_655
C11 Sc2 2.361625 1_555
C11 Sc7 2.469201 1_655
C11 Sc7 2.469201 1_555
C11 Sc6 2.666878 1_565
