# generated using pymatgen
data_Na7Ca3Ta7Ti3O30
_symmetry_space_group_name_H-M   'P 1'
_cell_length_a   5.49438300
_cell_length_b   5.57744660
_cell_length_c   38.99047310
_cell_angle_alpha   90.08875294
_cell_angle_beta   90.04882500
_cell_angle_gamma   90.18666668
_symmetry_Int_Tables_number   1
_chemical_formula_structural   Na7Ca3Ta7Ti3O30
_chemical_formula_sum   'Na14 Ca6 Ta14 Ti6 O60'
_cell_volume   1194.84032167
_cell_formula_units_Z   2
loop_
 _symmetry_equiv_pos_site_id
 _symmetry_equiv_pos_as_xyz
  1  'x, y, z'
loop_
 _atom_site_type_symbol
 _atom_site_label
 _atom_site_symmetry_multiplicity
 _atom_site_fract_x
 _atom_site_fract_y
 _atom_site_fract_z
 _atom_site_occupancy
  Na  Na0  1  0.99442800  0.03228000  0.14889100  1
  Na  Na1  1  0.99149200  0.02197800  0.35197700  1
  Na  Na2  1  0.99129900  0.02173400  0.55191900  1
  Na  Na3  1  0.99180800  0.02130300  0.75200100  1
  Na  Na4  1  0.98734300  0.02447800  0.95277500  1
  Na  Na5  1  0.50976800  0.52092700  0.35236900  1
  Na  Na6  1  0.51077400  0.52086500  0.55237500  1
  Na  Na7  1  0.51147300  0.52019700  0.75256000  1
  Na  Na8  1  0.50665800  0.52265800  0.95282700  1
  Na  Na9  1  0.48685000  0.47466600  0.04878700  1
  Na  Na10  1  0.49776900  0.47553100  0.24826700  1
  Na  Na11  1  0.49092800  0.47169000  0.64758100  1
  Na  Na12  1  0.49068000  0.47194200  0.44746800  1
  Na  Na13  1  0.49176700  0.47138200  0.84777800  1
  Ca  Ca0  1  0.52050400  0.53967400  0.14951100  1
  Ca  Ca1  1  0.01401900  0.94943600  0.24787900  1
  Ca  Ca2  1  0.00910300  0.95339500  0.04900600  1
  Ca  Ca3  1  0.00914500  0.95272700  0.64753500  1
  Ca  Ca4  1  0.00911700  0.95250800  0.44743800  1
  Ca  Ca5  1  0.01000500  0.95227100  0.84772900  1
  Ta  Ta0  1  0.00126300  0.49338500  0.29972200  1
  Ta  Ta1  1  0.00067900  0.49495100  0.50043100  1
  Ta  Ta2  1  0.00092600  0.49500400  0.70078900  1
  Ta  Ta3  1  0.00054900  0.49451400  0.90088200  1
  Ta  Ta4  1  0.50561100  0.00483500  0.10002000  1
  Ta  Ta5  1  0.50407100  0.99841300  0.30062400  1
  Ta  Ta6  1  0.49399800  0.99509700  0.99976500  1
  Ta  Ta7  1  0.50252800  0.99979500  0.50022300  1
  Ta  Ta8  1  0.50292900  0.99897500  0.90032800  1
  Ta  Ta9  1  0.50272800  0.99990000  0.70019600  1
  Ta  Ta10  1  0.50803700  0.00561900  0.19972400  1
  Ta  Ta11  1  0.50227900  0.99296900  0.59939800  1
  Ta  Ta12  1  0.50262900  0.99296200  0.39960400  1
  Ta  Ta13  1  0.50277300  0.99257200  0.79948400  1
  Ti  Ti0  1  0.98927700  0.48985200  0.99980400  1
  Ti  Ti1  1  0.00642000  0.49447000  0.09744600  1
  Ti  Ti2  1  0.01592800  0.49422800  0.19746400  1
  Ti  Ti3  1  0.99815000  0.48355200  0.39927900  1
  Ti  Ti4  1  0.99782400  0.48372300  0.59990900  1
  Ti  Ti5  1  0.99829900  0.48343400  0.80015600  1
  O  O0  1  0.92722700  0.51481700  0.05074300  1
  O  O1  1  0.92948600  0.52095800  0.25031000  1
  O  O2  1  0.92769500  0.51807700  0.45019000  1
  O  O3  1  0.92789100  0.51820000  0.65027300  1
  O  O4  1  0.92800500  0.51755500  0.85044000  1
  O  O5  1  0.77875700  0.78209200  0.19245100  1
  O  O6  1  0.78029000  0.78371100  0.39407700  1
  O  O7  1  0.78051700  0.78389400  0.59419700  1
  O  O8  1  0.77222700  0.77733500  0.10750600  1
  O  O9  1  0.78510700  0.78810400  0.30664600  1
  O  O10  1  0.78145900  0.78347800  0.79432000  1
  O  O11  1  0.77860700  0.78010400  0.99472500  1
  O  O12  1  0.78397000  0.78827600  0.50652400  1
  O  O13  1  0.78384100  0.78789100  0.70669200  1
  O  O14  1  0.78532300  0.78833900  0.90680600  1
  O  O15  1  0.71215300  0.28542600  0.10915900  1
  O  O16  1  0.71169300  0.28974200  0.19112600  1
  O  O17  1  0.71393500  0.28553500  0.30771500  1
  O  O18  1  0.72321600  0.28151200  0.39264600  1
  O  O19  1  0.71296200  0.28626000  0.90849100  1
  O  O20  1  0.72393100  0.28185800  0.59289700  1
  O  O21  1  0.71408000  0.28610900  0.70823800  1
  O  O22  1  0.72526400  0.28138300  0.79309700  1
  O  O23  1  0.71422000  0.28570600  0.50811300  1
  O  O24  1  0.72395400  0.27923300  0.99298800  1
  O  O25  1  0.58138100  0.01938200  0.05036200  1
  O  O26  1  0.58572100  0.01839400  0.24988000  1
  O  O27  1  0.58183600  0.02080300  0.65038100  1
  O  O28  1  0.58169000  0.02101500  0.45025100  1
  O  O29  1  0.58235500  0.01972800  0.85055400  1
  O  O30  1  0.42544500  0.98908800  0.34958800  1
  O  O31  1  0.42331600  0.98207400  0.14995900  1
  O  O32  1  0.42555400  0.98993600  0.54970900  1
  O  O33  1  0.42637200  0.99039500  0.74982700  1
  O  O34  1  0.42524900  0.98597300  0.94993000  1
  O  O35  1  0.27120500  0.73119400  0.00916800  1
  O  O36  1  0.27177700  0.72394100  0.09227300  1
  O  O37  1  0.27810400  0.72462000  0.20759900  1
  O  O38  1  0.27244300  0.73374000  0.60859300  1
  O  O39  1  0.27923200  0.72709900  0.29083500  1
  O  O40  1  0.27211900  0.73362900  0.40840800  1
  O  O41  1  0.27702700  0.72818600  0.49090300  1
  O  O42  1  0.27324600  0.73327100  0.80873600  1
  O  O43  1  0.27663800  0.72830900  0.69107700  1
  O  O44  1  0.27763700  0.72640300  0.89119100  1
  O  O45  1  0.20937000  0.21474700  0.09159200  1
  O  O46  1  0.21702200  0.22172900  0.00858300  1
  O  O47  1  0.21285400  0.21553000  0.20843000  1
  O  O48  1  0.21742800  0.22381700  0.40822500  1
  O  O49  1  0.21776600  0.22419100  0.60845600  1
  O  O50  1  0.21416400  0.21387200  0.29062900  1
  O  O51  1  0.21304200  0.21582700  0.49082500  1
  O  O52  1  0.21263100  0.21574400  0.69095600  1
  O  O53  1  0.21224400  0.21473000  0.89122200  1
  O  O54  1  0.21902500  0.22423500  0.80868600  1
  O  O55  1  0.08406400  0.48686100  0.15075000  1
  O  O56  1  0.07308700  0.49106800  0.34982900  1
  O  O57  1  0.07375900  0.49204400  0.54994200  1
  O  O58  1  0.07473500  0.49138900  0.75007300  1
  O  O59  1  0.07281700  0.49154500  0.95028200  1
loop_
_geom_bond_atom_site_label_1
_geom_bond_atom_site_label_2
_geom_bond_distance
_geom_bond_site_symmetry_2
Na0 O31 2.374297 1_645
Na0 O8 2.468685 1_545
Na0 O5 2.497197 1_545
Na0 O55 2.582111 1_655
Na0 O15 2.610696 1_555
Na0 O16 2.683031 1_555
Na0 O45 2.724957 1_655
Na0 O47 2.802491 1_655
Na1 O30 2.393827 1_645
Na1 O6 2.409791 1_545
Na1 O9 2.468026 1_545
Na1 O18 2.606397 1_555
Na1 O56 2.654478 1_655
Na1 O17 2.735474 1_555
Na1 O48 2.756225 1_655
Na1 O50 2.892802 1_655
Na1 O56 2.997364 1_645
Na2 O32 2.394736 1_645
Na2 O7 2.412118 1_545
Na2 O12 2.470967 1_545
Na2 O20 2.612746 1_555
Na2 O57 2.661759 1_655
Na2 O23 2.724070 1_555
Na2 O49 2.767889 1_655
Na2 O51 2.887026 1_655
Na2 O57 2.991200 1_645
Na3 O33 2.395999 1_645
Na3 O10 2.412029 1_545
Na3 O13 2.470047 1_545
Na3 O22 2.612874 1_555
Na3 O58 2.660900 1_655
Na3 O21 2.727547 1_555
Na3 O54 2.775397 1_655
Na3 O52 2.884049 1_655
Na3 O58 2.992787 1_645
Na4 O11 2.418329 1_545
Na4 O34 2.418909 1_645
Na4 O14 2.481728 1_545
Na4 O24 2.565527 1_555
Na4 O59 2.647476 1_655
Na4 O19 2.720954 1_555
Na4 O46 2.741641 1_656
Na4 O53 2.901244 1_655
Na5 O18 2.374499 1_555
Na5 O56 2.406468 1_555
Na5 O17 2.453415 1_555
Na5 O6 2.641266 1_555
Na5 O30 2.655777 1_555
Na5 O9 2.772289 1_555
Na5 O40 2.809524 1_555
Na6 O20 2.378761 1_555
Na6 O57 2.407759 1_555
Na6 O23 2.440074 1_555
Na6 O7 2.642360 1_555
Na6 O32 2.661463 1_555
Na6 O12 2.769823 1_555
Na6 O38 2.817108 1_555
Na7 O22 2.380266 1_555
Na7 O58 2.406319 1_555
Na7 O21 2.436402 1_555
Na7 O10 2.642395 1_555
Na7 O33 2.667636 1_555
Na7 O13 2.768645 1_555
Na7 O42 2.816036 1_555
Na7 O43 2.961761 1_555
Na7 O33 2.991923 1_545
Na8 O59 2.391397 1_555
Na8 O24 2.394730 1_555
Na8 O19 2.453089 1_555
Na8 O34 2.626562 1_555
Na8 O11 2.633953 1_555
Na8 O14 2.785315 1_555
Na8 O35 2.803368 1_556
Na8 O44 2.943267 1_555
Na9 O35 2.419093 1_555
Na9 O0 2.430336 1_555
Na9 O36 2.492199 1_555
Na9 O46 2.573123 1_555
Na9 O25 2.594362 1_555
Na9 O45 2.684936 1_555
Na9 O24 2.761407 1_554
Na9 O15 2.863332 1_555
Na10 O1 2.385940 1_555
Na10 O37 2.432198 1_555
Na10 O39 2.484425 1_555
Na10 O26 2.597442 1_555
Na10 O47 2.634426 1_555
Na10 O50 2.698724 1_555
Na10 O16 2.724760 1_555
Na10 O17 2.813784 1_555
Na11 O3 2.416150 1_555
Na11 O38 2.429678 1_555
Na11 O43 2.513533 1_555
Na11 O49 2.541917 1_555
Na11 O27 2.567986 1_555
Na11 O52 2.689562 1_555
Na11 O20 2.704167 1_555
Na11 O21 2.859894 1_555
Na12 O2 2.416267 1_555
Na12 O40 2.430422 1_555
Na12 O41 2.509090 1_555
Na12 O48 2.546850 1_555
Na12 O28 2.568287 1_555
Na12 O51 2.687567 1_555
Na12 O18 2.708501 1_555
Na12 O23 2.861757 1_555
Na13 O4 2.411949 1_555
Na13 O42 2.430553 1_555
Na13 O44 2.505864 1_555
Na13 O54 2.538729 1_555
Na13 O29 2.571792 1_555
Na13 O53 2.697168 1_555
Na13 O22 2.705731 1_555
Na13 O19 2.856172 1_555
Ca0 O15 2.366585 1_555
Ca0 O16 2.386022 1_555
Ca0 O55 2.415573 1_555
Ca0 O8 2.520106 1_555
Ca0 O31 2.526319 1_555
Ca0 O5 2.573140 1_555
Ca0 O36 2.813460 1_555
Ca0 O37 2.823893 1_555
Ca1 O26 2.387014 1_465
Ca1 O47 2.400284 1_565
Ca1 O1 2.435047 1_455
Ca1 O50 2.478226 1_565
Ca1 O37 2.480693 1_555
Ca1 O39 2.545666 1_555
Ca1 O5 2.682120 1_455
Ca1 O9 2.765102 1_455
Ca2 O25 2.380516 1_465
Ca2 O46 2.455255 1_565
Ca2 O35 2.456009 1_555
Ca2 O45 2.464062 1_565
Ca2 O0 2.486761 1_455
Ca2 O36 2.565398 1_555
Ca2 O11 2.645461 1_454
Ca2 O8 2.804371 1_455
Ca3 O27 2.382176 1_465
Ca3 O38 2.428902 1_555
Ca3 O49 2.434503 1_565
Ca3 O3 2.465388 1_455
Ca3 O52 2.499326 1_565
Ca3 O43 2.573583 1_555
Ca3 O7 2.602210 1_455
Ca3 O13 2.775226 1_455
Ca4 O28 2.383147 1_465
Ca4 O40 2.429773 1_555
Ca4 O48 2.436449 1_565
Ca4 O2 2.465051 1_455
Ca4 O51 2.500489 1_565
Ca4 O41 2.572653 1_555
Ca4 O6 2.603380 1_455
Ca4 O12 2.771424 1_455
Ca5 O29 2.383427 1_465
Ca5 O42 2.429994 1_555
Ca5 O54 2.436386 1_565
Ca5 O4 2.467109 1_455
Ca5 O53 2.496369 1_565
Ca5 O44 2.575931 1_555
Ca5 O10 2.604124 1_455
Ca5 O14 2.769441 1_455
O0 Ti1 1.875568 1_655
O0 Ti0 2.020139 1_554
O1 Ta0 1.972555 1_655
O1 Ti2 2.120047 1_655
O2 Ta1 2.003644 1_655
O2 Ti3 2.031734 1_555
O3 Ti4 2.010322 1_555
O3 Ta2 2.014209 1_655
O4 Ti5 2.007471 1_555
O4 Ta3 2.010796 1_655
O5 Ta10 1.964404 1_565
O5 Ti2 2.080443 1_655
O6 Ta12 1.935793 1_555
O6 Ti3 2.071313 1_555
O7 Ta11 1.936337 1_555
O7 Ti4 2.071664 1_555
O8 Ta4 1.963074 1_565
O8 Ti1 2.076239 1_655
O9 Ta5 1.956367 1_555
O9 Ta0 2.048728 1_655
O10 Ta13 1.938200 1_555
O10 Ti5 2.070135 1_555
O11 Ta6 1.983385 1_555
O11 Ti0 2.003138 1_555
O12 Ta7 1.963535 1_555
O12 Ta1 2.040256 1_655
O13 Ta9 1.964728 1_555
O13 Ta2 2.038662 1_655
O14 Ta8 1.965581 1_555
O14 Ta3 2.036984 1_655
O15 Ta4 1.962134 1_555
O15 Ti1 2.042715 1_655
O16 Ta10 1.966319 1_555
O16 Ti2 2.035196 1_655
O17 Ta0 1.980741 1_655
O17 Ta5 1.989115 1_545
O18 Ti3 1.898933 1_555
O18 Ta12 2.030222 1_545
O19 Ta3 1.980865 1_655
O19 Ta8 1.996544 1_545
O20 Ti4 1.895871 1_555
O20 Ta11 2.032870 1_545
O21 Ta2 1.978784 1_655
O21 Ta9 1.995192 1_545
O22 Ti5 1.893018 1_555
O22 Ta13 2.034724 1_545
O23 Ta1 1.979610 1_655
O23 Ta7 1.994037 1_545
O24 Ti0 1.887575 1_555
O24 Ta6 2.041184 1_545
O25 Ta4 1.982515 1_555
O25 Ta6 2.034192 1_544
O26 Ta10 2.002399 1_555
O26 Ta5 2.032274 1_545
O27 Ta9 1.994215 1_545
O27 Ta11 2.040550 1_545
O28 Ta7 2.000349 1_545
O28 Ta12 2.027302 1_545
O29 Ta8 1.992991 1_545
O29 Ta13 2.043608 1_545
O30 Ta5 1.958487 1_555
O30 Ta12 1.995441 1_555
O31 Ta10 1.999050 1_565
O31 Ta4 2.003455 1_565
O32 Ta7 1.976451 1_555
O32 Ta11 1.982414 1_555
O33 Ta13 1.980794 1_555
O33 Ta9 1.981192 1_555
O34 Ta6 1.979694 1_555
O34 Ta8 1.982281 1_555
O35 Ta6 1.946808 1_554
O35 Ti0 2.080530 1_454
O36 Ti1 1.947706 1_555
O36 Ta4 2.044774 1_565
O37 Ti2 1.966673 1_555
O37 Ta10 2.033680 1_565
O38 Ta11 1.950420 1_555
O38 Ti4 2.078407 1_455
O39 Ta5 1.986678 1_555
O39 Ta0 2.034976 1_555
O40 Ta12 1.950473 1_555
O40 Ti3 2.078920 1_455
O41 Ta7 1.986786 1_555
O41 Ta1 2.031071 1_555
O42 Ta13 1.950036 1_555
O42 Ti5 2.078391 1_455
O43 Ta9 1.987318 1_555
O43 Ta2 2.030054 1_555
O44 Ta8 1.988883 1_555
O44 Ta3 2.030511 1_555
O45 Ti1 1.933964 1_555
O45 Ta4 2.034865 1_555
O46 Ti0 1.983018 1_454
O46 Ta6 2.010962 1_544
O47 Ti2 1.944729 1_555
O47 Ta10 2.031845 1_555
O48 Ti3 1.919384 1_455
O48 Ta12 2.058897 1_545
O49 Ti4 1.918055 1_455
O49 Ta11 2.060147 1_545
O50 Ta0 1.983758 1_555
O50 Ta5 2.036186 1_545
O51 Ta1 1.983963 1_555
O51 Ta7 2.031939 1_545
O52 Ta2 1.984112 1_555
O52 Ta9 2.032847 1_545
O53 Ta3 1.985093 1_555
O53 Ta8 2.034173 1_545
O54 Ti5 1.919263 1_455
O54 Ta13 2.059468 1_545
O55 Ti2 1.860207 1_555
O55 Ti1 2.121840 1_555
O56 Ti3 1.972374 1_455
O56 Ta0 1.992893 1_555
O57 Ta1 1.971541 1_555
O57 Ti4 1.993336 1_455
O58 Ta2 1.963742 1_555
O58 Ti5 1.998289 1_455
O59 Ta3 1.966405 1_555
O59 Ti0 1.985102 1_455
