# generated using pymatgen
data_AlPO4
_symmetry_space_group_name_H-M   'P 1'
_cell_length_a   14.13956099
_cell_length_b   14.13956099
_cell_length_c   8.60353600
_cell_angle_alpha   90.00000000
_cell_angle_beta   90.00000000
_cell_angle_gamma   120.79505199
_symmetry_Int_Tables_number   1
_chemical_formula_structural   AlPO4
_chemical_formula_sum   'Al12 P12 O48'
_cell_volume   1477.55642417
_cell_formula_units_Z   12
loop_
 _symmetry_equiv_pos_site_id
 _symmetry_equiv_pos_as_xyz
  1  'x, y, z'
loop_
 _atom_site_type_symbol
 _atom_site_label
 _atom_site_symmetry_multiplicity
 _atom_site_fract_x
 _atom_site_fract_y
 _atom_site_fract_z
 _atom_site_occupancy
  Al  Al0  1  0.32975600  0.45670500  0.43908600  1
  Al  Al1  1  0.32975600  0.45670500  0.06091400  1
  Al  Al2  1  0.54329500  0.67024400  0.93908600  1
  Al  Al3  1  0.54329500  0.67024400  0.56091400  1
  Al  Al4  1  0.45597900  0.12785500  0.06562000  1
  Al  Al5  1  0.45597900  0.12785500  0.43438000  1
  Al  Al6  1  0.67064000  0.12465800  0.56650700  1
  Al  Al7  1  0.67064000  0.12465800  0.93349300  1
  Al  Al8  1  0.87214500  0.54402100  0.93438000  1
  Al  Al9  1  0.87214500  0.54402100  0.56562000  1
  Al  Al10  1  0.87534200  0.32936000  0.43349300  1
  Al  Al11  1  0.87534200  0.32936000  0.06650700  1
  P  P0  1  0.13033800  0.66196200  0.43028500  1
  P  P1  1  0.13033800  0.66196200  0.06971500  1
  P  P2  1  0.12312600  0.45926400  0.92244700  1
  P  P3  1  0.12312600  0.45926400  0.57755300  1
  P  P4  1  0.33803800  0.86966200  0.56971500  1
  P  P5  1  0.33803800  0.86966200  0.93028500  1
  P  P6  1  0.54073600  0.87687400  0.07755300  1
  P  P7  1  0.54073600  0.87687400  0.42244700  1
  P  P8  1  0.45825900  0.33973500  0.92781100  1
  P  P9  1  0.45825900  0.33973500  0.57218900  1
  P  P10  1  0.66026500  0.54174100  0.42781100  1
  P  P11  1  0.66026500  0.54174100  0.07218900  1
  O  O0  1  0.01946600  0.64110300  0.46584600  1
  O  O1  1  0.16210100  0.68050600  0.25000000  1
  O  O2  1  0.22151500  0.77848500  0.00000000  1
  O  O3  1  0.22151500  0.77848500  0.50000000  1
  O  O4  1  0.00558700  0.38176700  0.55540900  1
  O  O5  1  0.35889700  0.98053400  0.53415400  1
  O  O6  1  0.16505600  0.57905100  0.01543700  1
  O  O7  1  0.16505600  0.57905100  0.48456300  1
  O  O8  1  0.14921700  0.51073100  0.75000000  1
  O  O9  1  0.31949400  0.83789900  0.75000000  1
  O  O10  1  0.42094900  0.83494400  0.98456300  1
  O  O11  1  0.42094900  0.83494400  0.51543700  1
  O  O12  1  0.20152700  0.42271400  0.53503100  1
  O  O13  1  0.20152700  0.42271400  0.96496900  1
  O  O14  1  0.48926900  0.85078300  0.25000000  1
  O  O15  1  0.30949200  0.41822200  0.25000000  1
  O  O16  1  0.41190600  0.58809400  0.00000000  1
  O  O17  1  0.41190600  0.58809400  0.50000000  1
  O  O18  1  0.61823300  0.99441300  0.44459100  1
  O  O19  1  0.37565800  0.37339500  0.95951200  1
  O  O20  1  0.37565800  0.37339500  0.54048800  1
  O  O21  1  0.57728600  0.79847300  0.03503100  1
  O  O22  1  0.57728600  0.79847300  0.46496900  1
  O  O23  1  0.58177800  0.69050800  0.75000000  1
  O  O24  1  0.49255200  0.35991600  0.75000000  1
  O  O25  1  0.42227800  0.22398900  0.97199900  1
  O  O26  1  0.42227800  0.22398900  0.52800100  1
  O  O27  1  0.62660500  0.62434200  0.04048800  1
  O  O28  1  0.62660500  0.62434200  0.45951200  1
  O  O29  1  0.35889700  0.98053400  0.96584600  1
  O  O30  1  0.57693100  0.42306900  0.00000000  1
  O  O31  1  0.57693100  0.42306900  0.50000000  1
  O  O32  1  0.64008400  0.50744800  0.25000000  1
  O  O33  1  0.40386000  0.10252700  0.25000000  1
  O  O34  1  0.77601100  0.57772200  0.02800100  1
  O  O35  1  0.77601100  0.57772200  0.47199900  1
  O  O36  1  0.58192200  0.16452300  0.00720100  1
  O  O37  1  0.58192200  0.16452300  0.49279900  1
  O  O38  1  0.63308100  0.06857400  0.75000000  1
  O  O39  1  0.89747300  0.59614000  0.75000000  1
  O  O40  1  0.83547700  0.41807800  0.50720100  1
  O  O41  1  0.83547700  0.41807800  0.99279900  1
  O  O42  1  0.61823300  0.99441300  0.05540900  1
  O  O43  1  0.01946600  0.64110300  0.03415400  1
  O  O44  1  0.80186200  0.19813800  0.00000000  1
  O  O45  1  0.80186200  0.19813800  0.50000000  1
  O  O46  1  0.93142600  0.36691900  0.25000000  1
  O  O47  1  0.00558700  0.38176700  0.94459100  1
loop_
_geom_bond_atom_site_label_1
_geom_bond_atom_site_label_2
_geom_bond_distance
_geom_bond_site_symmetry_2
Al0 O15 1.692644 1_555
Al0 O17 1.692824 1_555
Al0 O12 1.818642 1_555
Al0 O20 1.831066 1_555
Al1 O15 1.692644 1_555
Al1 O16 1.692824 1_555
Al1 O13 1.818642 1_554
Al1 O19 1.831066 1_554
Al2 O23 1.692644 1_555
Al2 O16 1.692824 1_556
Al2 O21 1.818642 1_556
Al2 O27 1.831066 1_556
Al3 O23 1.692644 1_555
Al3 O17 1.692824 1_555
Al3 O22 1.818642 1_555
Al3 O28 1.831066 1_555
Al4 O36 1.657474 1_555
Al4 O33 1.708072 1_555
Al4 O25 1.840315 1_554
Al4 O29 2.008091 1_544
Al5 O37 1.657474 1_555
Al5 O33 1.708072 1_555
Al5 O26 1.840315 1_555
Al5 O5 2.008091 1_545
Al6 O45 1.695755 1_555
Al6 O38 1.723927 1_555
Al6 O37 1.737094 1_555
Al6 O18 1.908797 1_545
Al7 O44 1.695755 1_556
Al7 O38 1.723927 1_555
Al7 O36 1.737094 1_556
Al7 O42 1.908797 1_546
Al8 O41 1.657474 1_555
Al8 O39 1.708072 1_555
Al8 O34 1.840315 1_556
Al8 O43 2.008091 1_656
Al9 O40 1.657474 1_555
Al9 O39 1.708072 1_555
Al9 O35 1.840315 1_555
Al9 O0 2.008091 1_655
Al10 O45 1.695755 1_555
Al10 O46 1.723927 1_555
Al10 O40 1.737094 1_555
Al10 O4 1.908797 1_655
Al11 O44 1.695755 1_555
Al11 O46 1.723927 1_555
Al11 O41 1.737094 1_554
Al11 O47 1.908797 1_654
O0 P0 1.471320 1_555
O1 P0 1.598672 1_555
O1 P1 1.598672 1_555
O2 P5 1.600443 1_554
O2 P1 1.600443 1_555
O3 P4 1.600443 1_555
O3 P0 1.600443 1_555
O4 P3 1.460952 1_555
O5 P4 1.471320 1_555
O6 P1 1.556492 1_555
O6 P2 1.682885 1_554
O7 P0 1.556492 1_555
O7 P3 1.682885 1_555
O8 P2 1.609972 1_555
O8 P3 1.609972 1_555
O9 P5 1.598672 1_555
O9 P4 1.598672 1_555
O10 P5 1.556492 1_555
O10 P6 1.682885 1_556
O11 P4 1.556492 1_555
O11 P7 1.682885 1_555
O12 P3 1.488769 1_555
O13 P2 1.488769 1_555
O14 P7 1.609972 1_555
O14 P6 1.609972 1_555
O18 P7 1.460952 1_555
O19 P8 1.494713 1_555
O20 P9 1.494713 1_555
O21 P6 1.488769 1_555
O22 P7 1.488769 1_555
O24 P8 1.585927 1_555
O24 P9 1.585927 1_555
O25 P8 1.493069 1_555
O26 P9 1.493069 1_555
O27 P11 1.494713 1_555
O28 P10 1.494713 1_555
O29 P5 1.471320 1_555
O30 P11 1.601636 1_555
O30 P8 1.601636 1_554
O31 P10 1.601636 1_555
O31 P9 1.601636 1_555
O32 P10 1.585927 1_555
O32 P11 1.585927 1_555
O34 P11 1.493069 1_555
O35 P10 1.493069 1_555
O42 P6 1.460952 1_555
O43 P1 1.471320 1_555
O47 P2 1.460952 1_555
