# generated using pymatgen
data_Sc(VN)9
_symmetry_space_group_name_H-M   'P 1'
_cell_length_a   5.07202100
_cell_length_b   5.86144545
_cell_length_c   6.53348587
_cell_angle_alpha   76.75921224
_cell_angle_beta   75.13534726
_cell_angle_gamma   73.42552703
_symmetry_Int_Tables_number   1
_chemical_formula_structural   Sc(VN)9
_chemical_formula_sum   'Sc1 V9 N9'
_cell_volume   177.37060334
_cell_formula_units_Z   1
loop_
 _symmetry_equiv_pos_site_id
 _symmetry_equiv_pos_as_xyz
  1  'x, y, z'
loop_
 _atom_site_type_symbol
 _atom_site_label
 _atom_site_symmetry_multiplicity
 _atom_site_fract_x
 _atom_site_fract_y
 _atom_site_fract_z
 _atom_site_occupancy
  Sc  Sc0  1  0.50000000  0.00000000  0.00000000  1
  V  V0  1  0.90571800  0.58723900  0.21494100  1
  V  V1  1  0.10293600  0.87670000  0.79011200  1
  V  V2  1  0.89706400  0.12330000  0.20988800  1
  V  V3  1  0.28191100  0.21081300  0.41062500  1
  V  V4  1  0.09428200  0.41276100  0.78505900  1
  V  V5  1  0.27901400  0.68800200  0.40652200  1
  V  V6  1  0.72098600  0.31199800  0.59347800  1
  V  V7  1  0.50000000  0.50000000  0.00000000  1
  V  V8  1  0.71808900  0.78918700  0.58937500  1
  N  N0  1  0.80540100  0.68659200  0.90574000  1
  N  N1  1  0.18170200  0.79863700  0.10532500  1
  N  N2  1  0.00000000  0.00000000  0.50000000  1
  N  N3  1  0.40191200  0.10271800  0.68661600  1
  N  N4  1  0.19459900  0.31340800  0.09426000  1
  N  N5  1  0.58579100  0.40589700  0.30582300  1
  N  N6  1  0.41420900  0.59410300  0.69417700  1
  N  N7  1  0.59808800  0.89728200  0.31338400  1
  N  N8  1  0.81829800  0.20136300  0.89467500  1
loop_
_geom_bond_atom_site_label_1
_geom_bond_atom_site_label_2
_geom_bond_distance
_geom_bond_site_symmetry_2
N0 V4 1.997489 1_655
N0 V1 2.019561 1_655
N0 V7 2.035535 1_556
N0 V0 2.120962 1_556
N0 Sc0 2.135106 1_566
N0 V8 2.139721 1_555
N1 V0 2.019009 1_455
N1 V5 2.065862 1_555
N1 V1 2.120479 1_554
N1 V7 2.124489 1_555
N1 Sc0 2.148949 1_565
N1 V2 2.166663 1_465
N2 V2 2.013094 1_455
N2 V1 2.013094 1_545
N2 V3 2.039963 1_555
N2 V8 2.039963 1_445
N2 V6 2.076470 1_455
N2 V5 2.076470 1_545
N3 V3 1.960380 1_555
N3 V4 2.133918 1_555
N3 Sc0 2.142255 1_556
N3 V8 2.164109 1_545
N3 V1 2.172901 1_545
N3 V6 2.186205 1_555
N4 V0 1.997489 1_455
N4 V2 2.019561 1_455
N4 V7 2.035535 1_555
N4 V4 2.120962 1_554
N4 Sc0 2.135106 1_555
N4 V3 2.139721 1_555
N5 V5 2.023205 1_555
N5 V2 2.026094 1_555
N5 V3 2.063323 1_555
N5 V6 2.068158 1_555
N5 V7 2.071289 1_555
N5 V0 2.077504 1_555
N6 V6 2.023205 1_555
N6 V1 2.026094 1_555
N6 V8 2.063323 1_555
N6 V5 2.068158 1_555
N6 V7 2.071289 1_556
N6 V4 2.077504 1_555
N7 V8 1.960380 1_555
N7 V0 2.133918 1_555
N7 Sc0 2.142255 1_565
N7 V3 2.164109 1_565
N7 V2 2.172901 1_565
N7 V5 2.186205 1_555
N8 V4 2.019009 1_655
N8 V6 2.065862 1_555
N8 V2 2.120479 1_556
N8 V7 2.124489 1_556
N8 Sc0 2.148949 1_556
N8 V1 2.166663 1_645
