# generated using pymatgen
data_Te16Rh11
_symmetry_space_group_name_H-M   'P 1'
_cell_length_a   7.38311500
_cell_length_b   9.39423544
_cell_length_c   10.25785116
_cell_angle_alpha   96.34628905
_cell_angle_beta   94.81704083
_cell_angle_gamma   112.05667747
_symmetry_Int_Tables_number   1
_chemical_formula_structural   Te16Rh11
_chemical_formula_sum   'Te16 Rh11'
_cell_volume   649.25050289
_cell_formula_units_Z   1
loop_
 _symmetry_equiv_pos_site_id
 _symmetry_equiv_pos_as_xyz
  1  'x, y, z'
loop_
 _atom_site_type_symbol
 _atom_site_label
 _atom_site_symmetry_multiplicity
 _atom_site_fract_x
 _atom_site_fract_y
 _atom_site_fract_z
 _atom_site_occupancy
  Te  Te0  1  0.19742800  0.07527300  0.92664300  1
  Te  Te1  1  0.05135000  0.69748300  0.03391700  1
  Te  Te2  1  0.36118600  0.54830900  0.62933200  1
  Te  Te3  1  0.04263100  0.73544000  0.70922200  1
  Te  Te4  1  0.49249100  0.38231400  0.86897100  1
  Te  Te5  1  0.57413000  0.89430100  0.72891600  1
  Te  Te6  1  0.84866400  0.25364000  0.62629100  1
  Te  Te7  1  0.23451400  0.11229000  0.55373800  1
  Te  Te8  1  0.76548600  0.88771000  0.44626200  1
  Te  Te9  1  0.15133600  0.74636000  0.37370900  1
  Te  Te10  1  0.42587000  0.10569900  0.27108400  1
  Te  Te11  1  0.50750900  0.61768600  0.13102900  1
  Te  Te12  1  0.95736900  0.26456000  0.29077800  1
  Te  Te13  1  0.63881400  0.45169100  0.37066800  1
  Te  Te14  1  0.94865000  0.30251700  0.96608300  1
  Te  Te15  1  0.80257200  0.92472700  0.07335700  1
  Rh  Rh0  1  0.27024500  0.54545100  0.89750900  1
  Rh  Rh1  1  0.54990800  0.36061400  0.61516300  1
  Rh  Rh2  1  0.50000000  0.00000000  0.50000000  1
  Rh  Rh3  1  0.34679900  0.86730400  0.91127400  1
  Rh  Rh4  1  0.04622500  0.01396200  0.30200800  1
  Rh  Rh5  1  0.72975500  0.45454900  0.10249100  1
  Rh  Rh6  1  0.86599800  0.49109600  0.82464000  1
  Rh  Rh7  1  0.13400200  0.50890400  0.17536000  1
  Rh  Rh8  1  0.95377500  0.98603800  0.69799200  1
  Rh  Rh9  1  0.65320100  0.13269600  0.08872600  1
  Rh  Rh10  1  0.45009200  0.63938600  0.38483700  1
loop_
_geom_bond_atom_site_label_1
_geom_bond_atom_site_label_2
_geom_bond_distance
_geom_bond_site_symmetry_2
Rh0 Te4 2.645184 1_555
Rh0 Te11 2.703743 1_556
Rh0 Te14 2.811843 1_455
Rh0 Rh3 2.844301 1_555
Rh0 Rh6 2.850201 1_455
Rh0 Te1 2.877699 1_556
Rh0 Te2 2.886537 1_555
Rh1 Te7 2.571027 1_555
Rh1 Te2 2.625676 1_555
Rh1 Te4 2.670680 1_555
Rh1 Te6 2.745204 1_555
Rh1 Te13 2.789627 1_555
Rh2 Te8 2.620022 1_545
Rh2 Te7 2.620022 1_555
Rh2 Te5 2.739943 1_545
Rh2 Te10 2.739943 1_555
Rh2 Te6 2.851874 1_555
Rh2 Te9 2.851874 1_545
Rh3 Te0 2.576309 1_565
Rh3 Te5 2.587086 1_555
Rh3 Te1 2.678991 1_556
Rh3 Te3 2.726688 1_555
Rh4 Te8 2.636151 1_445
Rh4 Te10 2.663731 1_555
Rh4 Te15 2.676596 1_445
Rh4 Te12 2.681975 1_455
Rh4 Te7 2.712743 1_555
Rh4 Te9 3.039920 1_545
Rh5 Te11 2.645184 1_555
Rh5 Te4 2.703743 1_554
Rh5 Te1 2.811843 1_655
Rh5 Rh9 2.844301 1_555
Rh5 Rh7 2.850201 1_655
Rh5 Te14 2.877699 1_554
Rh5 Te13 2.886537 1_555
Rh6 Te1 2.614200 1_656
Rh6 Te14 2.616747 1_555
Rh6 Te3 2.642584 1_655
Rh6 Te4 2.655662 1_555
Rh6 Te6 2.805474 1_555
Rh7 Te14 2.614200 1_454
Rh7 Te1 2.616747 1_555
Rh7 Te12 2.642584 1_455
Rh7 Te11 2.655662 1_555
Rh7 Te9 2.805474 1_555
Rh8 Te7 2.636151 1_665
Rh8 Te5 2.663731 1_555
Rh8 Te0 2.676596 1_665
Rh8 Te3 2.681975 1_655
Rh8 Te8 2.712743 1_555
Rh8 Te6 3.039920 1_565
Rh9 Te15 2.576309 1_545
Rh9 Te10 2.587086 1_555
Rh9 Te14 2.678991 1_554
Rh9 Te12 2.726688 1_555
Rh10 Te8 2.571027 1_555
Rh10 Te13 2.625676 1_555
Rh10 Te11 2.670680 1_555
Rh10 Te9 2.745204 1_555
Rh10 Te2 2.789627 1_555
