# generated using pymatgen
data_C2SN2
_symmetry_space_group_name_H-M   'P 1'
_cell_length_a   6.87893200
_cell_length_b   8.56379200
_cell_length_c   12.86157700
_cell_angle_alpha   90.00000000
_cell_angle_beta   90.00000000
_cell_angle_gamma   90.00000000
_symmetry_Int_Tables_number   1
_chemical_formula_structural   C2SN2
_chemical_formula_sum   'C16 S8 N16'
_cell_volume   757.67219346
_cell_formula_units_Z   8
loop_
 _symmetry_equiv_pos_site_id
 _symmetry_equiv_pos_as_xyz
  1  'x, y, z'
loop_
 _atom_site_type_symbol
 _atom_site_label
 _atom_site_symmetry_multiplicity
 _atom_site_fract_x
 _atom_site_fract_y
 _atom_site_fract_z
 _atom_site_occupancy
  C  C0  1  0.61709300  0.59853300  0.39056800  1
  C  C1  1  0.88290700  0.59853300  0.89056800  1
  C  C2  1  0.61709300  0.09853300  0.10943200  1
  C  C3  1  0.74171200  0.82522500  0.13644700  1
  C  C4  1  0.25828800  0.17477500  0.86355300  1
  C  C5  1  0.25828800  0.67477500  0.63644700  1
  C  C6  1  0.38290700  0.40146700  0.60943200  1
  C  C7  1  0.24171200  0.17477500  0.36355300  1
  C  C8  1  0.75828800  0.32522500  0.86355300  1
  C  C9  1  0.24171200  0.67477500  0.13644700  1
  C  C10  1  0.38290700  0.90146700  0.89056800  1
  C  C11  1  0.88290700  0.09853300  0.60943200  1
  C  C12  1  0.74171200  0.32522500  0.36355300  1
  C  C13  1  0.11709300  0.40146700  0.10943200  1
  C  C14  1  0.11709300  0.90146700  0.39056800  1
  C  C15  1  0.75828800  0.82522500  0.63644700  1
  S  S0  1  0.16486600  0.99246800  0.87783100  1
  S  S1  1  0.66486600  0.50753200  0.87783100  1
  S  S2  1  0.16486600  0.49246800  0.62216900  1
  S  S3  1  0.33513400  0.99246800  0.37783100  1
  S  S4  1  0.83513400  0.00753200  0.12216900  1
  S  S5  1  0.83513400  0.50753200  0.37783100  1
  S  S6  1  0.33513400  0.49246800  0.12216900  1
  S  S7  1  0.66486600  0.00753200  0.62216900  1
  N  N0  1  0.32078800  0.80181200  0.64289600  1
  N  N1  1  0.47177000  0.66845400  0.39781600  1
  N  N2  1  0.17921200  0.80181200  0.14289600  1
  N  N3  1  0.67921200  0.69818800  0.14289600  1
  N  N4  1  0.47177000  0.16845400  0.10218400  1
  N  N5  1  0.52823000  0.83154600  0.89781600  1
  N  N6  1  0.82078800  0.19818800  0.85710400  1
  N  N7  1  0.82078800  0.69818800  0.64289600  1
  N  N8  1  0.02823000  0.16845400  0.60218400  1
  N  N9  1  0.97177000  0.83154600  0.39781600  1
  N  N10  1  0.97177000  0.33154600  0.10218400  1
  N  N11  1  0.52823000  0.33154600  0.60218400  1
  N  N12  1  0.02823000  0.66845400  0.89781600  1
  N  N13  1  0.67921200  0.19818800  0.35710400  1
  N  N14  1  0.32078800  0.30181200  0.85710400  1
  N  N15  1  0.17921200  0.30181200  0.35710400  1
loop_
_geom_bond_atom_site_label_1
_geom_bond_atom_site_label_2
_geom_bond_distance
_geom_bond_site_symmetry_2
C0 N1 1.169005 1_555
C0 S5 1.698185 1_555
C1 N12 1.169005 1_655
C1 S1 1.698185 1_555
C2 N4 1.169005 1_555
C2 S4 1.698185 1_555
C3 N3 1.172727 1_555
C3 S4 1.698288 1_565
C4 N14 1.172727 1_555
C4 S0 1.698288 1_545
C5 N0 1.172727 1_555
C5 S2 1.698288 1_555
C6 N11 1.169005 1_555
C6 S2 1.698185 1_555
C7 N15 1.172727 1_555
C7 S3 1.698288 1_545
C8 N6 1.172727 1_555
C8 S1 1.698288 1_555
C9 N2 1.172727 1_555
C9 S6 1.698288 1_555
C10 N5 1.169005 1_555
C10 S0 1.698185 1_555
C11 N8 1.169005 1_655
C11 S7 1.698185 1_555
C12 N13 1.172727 1_555
C12 S5 1.698288 1_555
C13 N10 1.169005 1_455
C13 S6 1.698185 1_555
C14 N9 1.169005 1_455
C14 S3 1.698185 1_555
C15 N7 1.172727 1_555
C15 S7 1.698288 1_565
