# generated using pymatgen
data_H22RhC3(N3O4)2
_symmetry_space_group_name_H-M   'P 1'
_cell_length_a   9.78481000
_cell_length_b   10.37610400
_cell_length_c   13.37428100
_cell_angle_alpha   90.00000000
_cell_angle_beta   90.00000000
_cell_angle_gamma   90.00000000
_symmetry_Int_Tables_number   1
_chemical_formula_structural   H22RhC3(N3O4)2
_chemical_formula_sum   'H88 Rh4 C12 N24 O32'
_cell_volume   1357.86675888
_cell_formula_units_Z   4
loop_
 _symmetry_equiv_pos_site_id
 _symmetry_equiv_pos_as_xyz
  1  'x, y, z'
loop_
 _atom_site_type_symbol
 _atom_site_label
 _atom_site_symmetry_multiplicity
 _atom_site_fract_x
 _atom_site_fract_y
 _atom_site_fract_z
 _atom_site_occupancy
  H  H0  1  0.23380900  0.85481800  0.27936800  1
  H  H1  1  0.06867100  0.26573000  0.56209000  1
  H  H2  1  0.47836000  0.85621300  0.66266100  1
  H  H3  1  0.15019100  0.48887000  0.33416900  1
  H  H4  1  0.91673300  0.28236100  0.91856600  1
  H  H5  1  0.66652500  0.24026300  0.77796500  1
  H  H6  1  0.25180300  0.42965700  0.93791900  1
  H  H7  1  0.75180300  0.07034300  0.56208100  1
  H  H8  1  0.76619100  0.14518200  0.72063200  1
  H  H9  1  0.14307400  0.59798400  0.84899600  1
  H  H10  1  0.66652500  0.24026300  0.22203500  1
  H  H11  1  0.52164000  0.14378700  0.66266100  1
  H  H12  1  0.60936200  0.85563500  0.85667100  1
  H  H13  1  0.73380900  0.64518200  0.22063200  1
  H  H14  1  0.73488000  0.92655700  0.07973100  1
  H  H15  1  0.02164000  0.35621300  0.83733900  1
  H  H16  1  0.26619100  0.35481800  0.22063200  1
  H  H17  1  0.23380900  0.85481800  0.72063200  1
  H  H18  1  0.25180300  0.42965700  0.06208100  1
  H  H19  1  0.58326700  0.78236100  0.58143400  1
  H  H20  1  0.14307400  0.59798400  0.15100400  1
  H  H21  1  0.39063800  0.14436500  0.85667100  1
  H  H22  1  0.08326700  0.71763900  0.91856600  1
  H  H23  1  0.32413500  0.81061000  0.50000000  1
  H  H24  1  0.76619100  0.14518200  0.27936800  1
  H  H25  1  0.47836000  0.85621300  0.33733900  1
  H  H26  1  0.16652500  0.25973700  0.72203500  1
  H  H27  1  0.16652500  0.25973700  0.27796500  1
  H  H28  1  0.30108900  0.83154500  0.00000000  1
  H  H29  1  0.41673300  0.21763900  0.58143400  1
  H  H30  1  0.80108900  0.66845500  0.50000000  1
  H  H31  1  0.91673300  0.28236100  0.08143400  1
  H  H32  1  0.60936200  0.85563500  0.14332900  1
  H  H33  1  0.06867100  0.26573000  0.43791000  1
  H  H34  1  0.43132900  0.76573000  0.06209000  1
  H  H35  1  0.26512000  0.07344300  0.07973100  1
  H  H36  1  0.82413500  0.68939000  0.00000000  1
  H  H37  1  0.89063800  0.35563500  0.35667100  1
  H  H38  1  0.74819700  0.57034300  0.93791900  1
  H  H39  1  0.52164000  0.14378700  0.33733900  1
  H  H40  1  0.75180300  0.07034300  0.43791900  1
  H  H41  1  0.24819700  0.92965700  0.43791900  1
  H  H42  1  0.10936200  0.64436500  0.64332900  1
  H  H43  1  0.43132900  0.76573000  0.93791000  1
  H  H44  1  0.76512000  0.42655700  0.42026900  1
  H  H45  1  0.65019100  0.01113000  0.83416900  1
  H  H46  1  0.76512000  0.42655700  0.57973100  1
  H  H47  1  0.73488000  0.92655700  0.92026900  1
  H  H48  1  0.64307400  0.90201600  0.34899600  1
  H  H49  1  0.67586500  0.18939000  0.50000000  1
  H  H50  1  0.83347500  0.74026300  0.27796500  1
  H  H51  1  0.34980900  0.98887000  0.83416900  1
  H  H52  1  0.23488000  0.57344300  0.57973100  1
  H  H53  1  0.85692600  0.40201600  0.84899600  1
  H  H54  1  0.84980900  0.51113000  0.33416900  1
  H  H55  1  0.64307400  0.90201600  0.65100400  1
  H  H56  1  0.33347500  0.75973700  0.77796500  1
  H  H57  1  0.73380900  0.64518200  0.77936800  1
  H  H58  1  0.10936200  0.64436500  0.35667100  1
  H  H59  1  0.02164000  0.35621300  0.16266100  1
  H  H60  1  0.35692600  0.09798400  0.34899600  1
  H  H61  1  0.24819700  0.92965700  0.56208100  1
  H  H62  1  0.34980900  0.98887000  0.16583100  1
  H  H63  1  0.93132900  0.73427000  0.56209000  1
  H  H64  1  0.17586500  0.31061000  0.00000000  1
  H  H65  1  0.97836000  0.64378700  0.16266100  1
  H  H66  1  0.56867100  0.23427000  0.93791000  1
  H  H67  1  0.85692600  0.40201600  0.15100400  1
  H  H68  1  0.74819700  0.57034300  0.06208100  1
  H  H69  1  0.26619100  0.35481800  0.77936800  1
  H  H70  1  0.23488000  0.57344300  0.42026900  1
  H  H71  1  0.84980900  0.51113000  0.66583100  1
  H  H72  1  0.56867100  0.23427000  0.06209000  1
  H  H73  1  0.26512000  0.07344300  0.92026900  1
  H  H74  1  0.58326700  0.78236100  0.41856600  1
  H  H75  1  0.89063800  0.35563500  0.64332900  1
  H  H76  1  0.83347500  0.74026300  0.72203500  1
  H  H77  1  0.97836000  0.64378700  0.83733900  1
  H  H78  1  0.65019100  0.01113000  0.16583100  1
  H  H79  1  0.41673300  0.21763900  0.41856600  1
  H  H80  1  0.33347500  0.75973700  0.22203500  1
  H  H81  1  0.15019100  0.48887000  0.66583100  1
  H  H82  1  0.19891100  0.33154500  0.50000000  1
  H  H83  1  0.39063800  0.14436500  0.14332900  1
  H  H84  1  0.35692600  0.09798400  0.65100400  1
  H  H85  1  0.93132900  0.73427000  0.43791000  1
  H  H86  1  0.08326700  0.71763900  0.08143400  1
  H  H87  1  0.69891100  0.16845500  0.00000000  1
  Rh  Rh0  1  0.50000000  0.00000000  0.50000000  1
  Rh  Rh1  1  0.00000000  0.50000000  0.00000000  1
  Rh  Rh2  1  0.50000000  0.00000000  0.00000000  1
  Rh  Rh3  1  0.00000000  0.50000000  0.50000000  1
  C  C0  1  0.97889700  0.92632100  0.67390700  1
  C  C1  1  0.47889700  0.57367900  0.17390700  1
  C  C2  1  0.49805900  0.42439500  0.50000000  1
  C  C3  1  0.52110300  0.42632100  0.82609300  1
  C  C4  1  0.47889700  0.57367900  0.82609300  1
  C  C5  1  0.02110300  0.07367900  0.67390700  1
  C  C6  1  0.02110300  0.07367900  0.32609300  1
  C  C7  1  0.50194100  0.57560500  0.50000000  1
  C  C8  1  0.52110300  0.42632100  0.17390700  1
  C  C9  1  0.00194100  0.92439500  0.00000000  1
  C  C10  1  0.97889700  0.92632100  0.32609300  1
  C  C11  1  0.99805900  0.07560500  0.00000000  1
  N  N0  1  0.36049400  0.05904100  0.11101200  1
  N  N1  1  0.19367000  0.40898900  0.00000000  1
  N  N2  1  0.36049400  0.05904100  0.88898800  1
  N  N3  1  0.86049400  0.44095900  0.38898800  1
  N  N4  1  0.59440900  0.18132600  0.00000000  1
  N  N5  1  0.94142000  0.37020800  0.88710900  1
  N  N6  1  0.86049400  0.44095900  0.61101200  1
  N  N7  1  0.55858000  0.87020800  0.38710900  1
  N  N8  1  0.05858000  0.62979200  0.88710900  1
  N  N9  1  0.30633000  0.90898900  0.50000000  1
  N  N10  1  0.44142000  0.12979200  0.61289100  1
  N  N11  1  0.09440900  0.31867400  0.50000000  1
  N  N12  1  0.94142000  0.37020800  0.11289100  1
  N  N13  1  0.90559100  0.68132600  0.50000000  1
  N  N14  1  0.55858000  0.87020800  0.61289100  1
  N  N15  1  0.13950600  0.55904100  0.61101200  1
  N  N16  1  0.63950600  0.94095900  0.11101200  1
  N  N17  1  0.40559100  0.81867400  0.00000000  1
  N  N18  1  0.63950600  0.94095900  0.88898800  1
  N  N19  1  0.69367000  0.09101100  0.50000000  1
  N  N20  1  0.05858000  0.62979200  0.11289100  1
  N  N21  1  0.80633000  0.59101100  0.00000000  1
  N  N22  1  0.13950600  0.55904100  0.38898800  1
  N  N23  1  0.44142000  0.12979200  0.38710900  1
  O  O0  1  0.17217300  0.34801000  0.75092900  1
  O  O1  1  0.92610200  0.15653800  0.66831400  1
  O  O2  1  0.85238300  0.89992500  0.67693400  1
  O  O3  1  0.64761700  0.39992500  0.17693400  1
  O  O4  1  0.07389800  0.84346200  0.33168600  1
  O  O5  1  0.32782700  0.84801000  0.74907100  1
  O  O6  1  0.42610200  0.34346200  0.16831400  1
  O  O7  1  0.38141500  0.37116000  0.50000000  1
  O  O8  1  0.67217300  0.15199000  0.25092900  1
  O  O9  1  0.57389800  0.65653800  0.83168600  1
  O  O10  1  0.88141500  0.12884000  0.00000000  1
  O  O11  1  0.42610200  0.34346200  0.83168600  1
  O  O12  1  0.57389800  0.65653800  0.16831400  1
  O  O13  1  0.92610200  0.15653800  0.33168600  1
  O  O14  1  0.35238300  0.60007500  0.82306600  1
  O  O15  1  0.17217300  0.34801000  0.24907100  1
  O  O16  1  0.82782700  0.65199000  0.24907100  1
  O  O17  1  0.38840100  0.63458200  0.50000000  1
  O  O18  1  0.11159900  0.13458200  0.00000000  1
  O  O19  1  0.07389800  0.84346200  0.66831400  1
  O  O20  1  0.67217300  0.15199000  0.74907100  1
  O  O21  1  0.14761700  0.10007500  0.67693400  1
  O  O22  1  0.61858500  0.62884000  0.50000000  1
  O  O23  1  0.14761700  0.10007500  0.32306600  1
  O  O24  1  0.88840100  0.86541800  0.00000000  1
  O  O25  1  0.61159900  0.36541800  0.50000000  1
  O  O26  1  0.11858500  0.87116000  0.00000000  1
  O  O27  1  0.85238300  0.89992500  0.32306600  1
  O  O28  1  0.35238300  0.60007500  0.17693400  1
  O  O29  1  0.82782700  0.65199000  0.75092900  1
  O  O30  1  0.32782700  0.84801000  0.25092900  1
  O  O31  1  0.64761700  0.39992500  0.82306600  1
loop_
_geom_bond_atom_site_label_1
_geom_bond_atom_site_label_2
_geom_bond_distance
_geom_bond_site_symmetry_2
H0 O30 0.997979 1_555
H1 N11 1.027030 1_555
H2 N14 1.039369 1_555
H3 N22 1.038553 1_555
H4 N5 1.032570 1_555
H5 O20 0.995648 1_555
H6 N1 1.029041 1_556
H7 N19 1.029041 1_555
H8 O20 0.997979 1_555
H9 N8 1.025810 1_555
H10 O8 0.995648 1_555
H11 N10 1.039369 1_555
H12 N18 1.028406 1_555
H13 O16 0.997979 1_555
H14 N16 1.033562 1_555
H15 N5 1.039369 1_455
H16 O15 0.997979 1_555
H17 O5 0.997979 1_555
H18 N1 1.029041 1_555
H19 N14 1.032570 1_555
H20 N20 1.025810 1_555
H21 N2 1.028406 1_555
H22 N8 1.032570 1_555
H23 N9 1.035551 1_555
H24 O8 0.997979 1_555
H25 N7 1.039369 1_555
H26 O0 0.995648 1_555
H27 O15 0.995648 1_555
H28 N17 1.031217 1_555
H29 N10 1.032570 1_555
H30 N13 1.031217 1_555
H31 N12 1.032570 1_555
H32 N16 1.028406 1_555
H33 N11 1.027030 1_555
H34 N17 1.027030 1_555
H35 N0 1.033562 1_555
H36 N21 1.035551 1_555
H37 N3 1.028406 1_555
H38 N21 1.029041 1_556
H39 N23 1.039369 1_555
H40 N19 1.029041 1_555
H41 N9 1.029041 1_555
H42 N15 1.028406 1_555
H43 N17 1.027030 1_556
H44 N3 1.033562 1_555
H45 N18 1.038553 1_545
H46 N6 1.033562 1_555
H47 N18 1.033562 1_555
H48 N7 1.025810 1_555
H49 N19 1.035551 1_555
H50 O16 0.995648 1_555
H51 N2 1.038553 1_565
H52 N15 1.033562 1_555
H53 N5 1.025810 1_555
H54 N3 1.038553 1_555
H55 N14 1.025810 1_555
H56 O5 0.995648 1_555
H57 O29 0.997979 1_555
H58 N22 1.028406 1_555
H59 N12 1.039369 1_455
H60 N23 1.025810 1_555
H61 N9 1.029041 1_555
H62 N0 1.038553 1_565
H63 N13 1.027030 1_555
H64 N1 1.035551 1_555
H65 N20 1.039369 1_655
H66 N4 1.027030 1_556
H67 N12 1.025810 1_555
H68 N21 1.029041 1_555
H69 O0 0.997979 1_555
H70 N22 1.033562 1_555
H71 N6 1.038553 1_555
H72 N4 1.027030 1_555
H73 N2 1.033562 1_555
H74 N7 1.032570 1_555
H75 N6 1.028406 1_555
H76 O29 0.995648 1_555
H77 N8 1.039369 1_655
H78 N16 1.038553 1_545
H79 N23 1.032570 1_555
H80 O30 0.995648 1_555
H81 N15 1.038553 1_555
H82 N11 1.031217 1_555
H83 N0 1.028406 1_555
H84 N10 1.025810 1_555
H85 N13 1.027030 1_555
H86 N20 1.032570 1_555
H87 N4 1.031217 1_555
C0 O19 1.268411 1_655
C0 O2 1.268498 1_555
C1 O12 1.268411 1_555
C1 O28 1.268498 1_555
C2 O7 1.267979 1_555
C2 O25 1.268358 1_555
C3 O11 1.268411 1_555
C3 O31 1.268498 1_555
C4 O9 1.268411 1_555
C4 O14 1.268498 1_555
C5 O1 1.268411 1_455
C5 O21 1.268498 1_555
C6 O13 1.268411 1_455
C6 O23 1.268498 1_555
C7 O22 1.267979 1_555
C7 O17 1.268358 1_555
C8 O6 1.268411 1_555
C8 O3 1.268498 1_555
C9 O26 1.267979 1_555
C9 O24 1.268358 1_455
C10 O4 1.268411 1_655
C10 O27 1.268498 1_555
C11 O10 1.267979 1_555
C11 O18 1.268358 1_655
N0 Rh2 2.107838 1_555
N1 Rh1 2.117285 1_555
N2 Rh2 2.107838 1_556
N3 Rh3 2.107838 1_655
N4 Rh2 2.096006 1_555
N5 Rh1 2.102820 1_656
N6 Rh3 2.107838 1_655
N7 Rh0 2.102820 1_565
N8 Rh1 2.102820 1_556
N9 Rh0 2.117285 1_565
N10 Rh0 2.102820 1_555
N11 Rh3 2.096006 1_555
N12 Rh1 2.102820 1_655
N13 Rh3 2.096006 1_655
N14 Rh0 2.102820 1_565
N15 Rh3 2.107838 1_555
N16 Rh2 2.107838 1_565
N17 Rh2 2.096006 1_565
N18 Rh2 2.107838 1_566
N19 Rh0 2.117285 1_555
N20 Rh1 2.102820 1_555
N21 Rh1 2.117285 1_655
N22 Rh3 2.107838 1_555
N23 Rh0 2.102820 1_555
