# generated using pymatgen
data_Sc2S3
_symmetry_space_group_name_H-M   'P 1'
_cell_length_a   6.40366205
_cell_length_b   6.40366205
_cell_length_c   6.37924870
_cell_angle_alpha   80.35540723
_cell_angle_beta   80.35540723
_cell_angle_gamma   119.94467012
_symmetry_Int_Tables_number   1
_chemical_formula_structural   Sc2S3
_chemical_formula_sum   'Sc4 S6'
_cell_volume   213.59168097
_cell_formula_units_Z   2
loop_
 _symmetry_equiv_pos_site_id
 _symmetry_equiv_pos_as_xyz
  1  'x, y, z'
loop_
 _atom_site_type_symbol
 _atom_site_label
 _atom_site_symmetry_multiplicity
 _atom_site_fract_x
 _atom_site_fract_y
 _atom_site_fract_z
 _atom_site_occupancy
  Sc  Sc0  1  0.66713399  0.33286601  0.50000000  1
  Sc  Sc1  1  0.33286601  0.66713399  0.50000000  1
  Sc  Sc2  1  -0.00000000  0.00000000  0.50000000  1
  Sc  Sc3  1  0.50000000  0.50000000  0.00000000  1
  S  S0  1  0.91071204  0.58647482  0.74086572  1
  S  S1  1  0.58647482  0.91071204  0.74086572  1
  S  S2  1  0.26169265  0.26169265  0.74468203  1
  S  S3  1  0.08928796  0.41352518  0.25913428  1
  S  S4  1  0.73830735  0.73830835  0.25531797  1
  S  S5  1  0.41352518  0.08928796  0.25913428  1
loop_
_geom_bond_atom_site_label_1
_geom_bond_atom_site_label_2
_geom_bond_distance
_geom_bond_site_symmetry_2
S0 Sc2 2.555560 1_665
S0 Sc0 2.557668 1_555
S0 Sc3 2.595968 1_556
S0 Sc1 2.623744 1_655
S1 Sc2 2.555560 1_665
S1 Sc1 2.557668 1_555
S1 Sc3 2.595968 1_556
S1 Sc0 2.623744 1_565
S2 Sc0 2.570469 1_555
S2 Sc1 2.570469 1_555
S2 Sc3 2.578979 1_556
S2 Sc2 2.646178 1_555
S3 Sc2 2.555560 1_555
S3 Sc1 2.557668 1_555
S3 Sc3 2.595968 1_555
S3 Sc0 2.623744 1_455
S4 Sc1 2.570466 1_555
S4 Sc0 2.570474 1_555
S4 Sc3 2.578982 1_555
S4 Sc2 2.646175 1_665
S5 Sc2 2.555560 1_555
S5 Sc0 2.557668 1_555
S5 Sc3 2.595968 1_555
S5 Sc1 2.623744 1_545
