# generated using pymatgen
data_SrLaMnFeO6
_symmetry_space_group_name_H-M   'P 1'
_cell_length_a   11.06962900
_cell_length_b   5.53450400
_cell_length_c   7.84325335
_cell_angle_alpha   89.55425999
_cell_angle_beta   90.00000000
_cell_angle_gamma   90.00000000
_symmetry_Int_Tables_number   1
_chemical_formula_structural   SrLaMnFeO6
_chemical_formula_sum   'Sr4 La4 Mn4 Fe4 O24'
_cell_volume   480.50163783
_cell_formula_units_Z   4
loop_
 _symmetry_equiv_pos_site_id
 _symmetry_equiv_pos_as_xyz
  1  'x, y, z'
loop_
 _atom_site_type_symbol
 _atom_site_label
 _atom_site_symmetry_multiplicity
 _atom_site_fract_x
 _atom_site_fract_y
 _atom_site_fract_z
 _atom_site_occupancy
  Sr  Sr0  1  0.37901200  0.75000000  0.50000000  1
  Sr  Sr1  1  0.61877900  0.25000000  0.00000000  1
  Sr  Sr2  1  0.38122100  0.75000000  0.00000000  1
  Sr  Sr3  1  0.62098800  0.25000000  0.50000000  1
  La  La0  1  0.87348300  0.75000000  0.50000000  1
  La  La1  1  0.13128500  0.25000000  0.00000000  1
  La  La2  1  0.86871500  0.75000000  0.00000000  1
  La  La3  1  0.12651700  0.25000000  0.50000000  1
  Mn  Mn0  1  0.37663400  0.25233700  0.75088000  1
  Mn  Mn1  1  0.62336600  0.74766300  0.24912000  1
  Mn  Mn2  1  0.37663400  0.24766300  0.24912000  1
  Mn  Mn3  1  0.62336600  0.75233700  0.75088000  1
  Fe  Fe0  1  0.87255800  0.24799200  0.74918300  1
  Fe  Fe1  1  0.12744200  0.75200800  0.25081700  1
  Fe  Fe2  1  0.87255800  0.25200800  0.25081700  1
  Fe  Fe3  1  0.12744200  0.74799200  0.74918300  1
  O  O0  1  0.50886100  0.01710900  0.26693400  1
  O  O1  1  0.38561300  0.25000000  0.00000000  1
  O  O2  1  0.50886100  0.48289100  0.73306600  1
  O  O3  1  0.76208600  0.53053900  0.76807400  1
  O  O4  1  0.49113900  0.51710900  0.26693400  1
  O  O5  1  0.64950600  0.75000000  0.50000000  1
  O  O6  1  0.61438700  0.75000000  0.00000000  1
  O  O7  1  0.76208600  0.96946100  0.23192600  1
  O  O8  1  0.49113900  0.98289100  0.73306600  1
  O  O9  1  0.01186600  0.02770700  0.27414000  1
  O  O10  1  0.74325200  0.00588300  0.77101000  1
  O  O11  1  0.89972200  0.25000000  0.00000000  1
  O  O12  1  0.85663700  0.25000000  0.50000000  1
  O  O13  1  0.01186600  0.47229300  0.72586000  1
  O  O14  1  0.74325200  0.49411700  0.22899000  1
  O  O15  1  0.25674800  0.50588300  0.77101000  1
  O  O16  1  0.98813400  0.52770700  0.27414000  1
  O  O17  1  0.14336300  0.75000000  0.50000000  1
  O  O18  1  0.10027800  0.75000000  0.00000000  1
  O  O19  1  0.25674800  0.99411700  0.22899000  1
  O  O20  1  0.98813400  0.97229300  0.72586000  1
  O  O21  1  0.23791400  0.03053900  0.76807400  1
  O  O22  1  0.35049400  0.25000000  0.50000000  1
  O  O23  1  0.23791400  0.46946100  0.23192600  1
loop_
_geom_bond_atom_site_label_1
_geom_bond_atom_site_label_2
_geom_bond_distance
_geom_bond_site_symmetry_2
La0 O5 2.479342 1_555
La0 O20 2.509255 1_555
La0 O16 2.509255 1_555
La0 O3 2.716052 1_555
La0 O7 2.716052 1_555
La0 O12 2.773528 1_555
La0 O12 2.773528 1_565
La0 O9 2.793673 1_665
La0 O13 2.793673 1_655
La0 O10 2.940889 1_565
La0 O14 2.940889 1_555
La0 O17 2.987471 1_655
La1 O23 2.492352 1_555
La1 O21 2.492352 1_554
La1 O11 2.563317 1_455
La1 O15 2.668438 1_554
La1 O19 2.668438 1_545
La1 O18 2.788457 1_545
La1 O18 2.788457 1_555
La1 O13 2.800546 1_554
La1 O9 2.800546 1_555
La1 O1 2.815317 1_555
La1 O16 3.089966 1_455
La1 O20 3.089966 1_444
La2 O7 2.492352 1_555
La2 O3 2.492352 1_554
La2 O18 2.563317 1_655
La2 O10 2.668438 1_564
La2 O14 2.668438 1_555
La2 O11 2.788457 1_555
La2 O11 2.788457 1_565
La2 O20 2.800546 1_554
La2 O16 2.800546 1_555
La2 O6 2.815317 1_555
La2 O9 3.089966 1_665
La2 O13 3.089966 1_654
La3 O22 2.479342 1_555
La3 O13 2.509255 1_555
La3 O9 2.509255 1_555
La3 O21 2.716052 1_555
La3 O23 2.716052 1_555
La3 O17 2.773528 1_545
La3 O17 2.773528 1_555
La3 O16 2.793673 1_455
La3 O20 2.793673 1_445
La3 O15 2.940889 1_555
La3 O19 2.940889 1_545
La3 O12 2.987471 1_455
Mn0 O15 1.938728 1_555
Mn0 O2 1.946114 1_555
Mn0 O1 1.956380 1_556
Mn0 O8 1.962961 1_545
Mn0 O21 1.969891 1_555
Mn0 O22 1.989019 1_555
Mn1 O14 1.938728 1_555
Mn1 O4 1.946114 1_555
Mn1 O6 1.956380 1_555
Mn1 O0 1.962961 1_565
Mn1 O7 1.969891 1_555
Mn1 O5 1.989019 1_555
Mn2 O19 1.938728 1_545
Mn2 O0 1.946114 1_555
Mn2 O1 1.956380 1_555
Mn2 O4 1.962961 1_555
Mn2 O23 1.969891 1_555
Mn2 O22 1.989019 1_555
Mn3 O10 1.938728 1_565
Mn3 O8 1.946114 1_555
Mn3 O6 1.956380 1_556
Mn3 O2 1.962961 1_555
Mn3 O3 1.969891 1_555
Mn3 O5 1.989019 1_555
Fe0 O12 1.962281 1_555
Fe0 O10 1.967240 1_555
Fe0 O13 1.987216 1_655
Fe0 O11 1.990186 1_556
Fe0 O3 1.991568 1_555
Fe0 O20 2.000717 1_545
Fe1 O17 1.962281 1_555
Fe1 O19 1.967240 1_555
Fe1 O16 1.987216 1_455
Fe1 O18 1.990186 1_555
Fe1 O23 1.991568 1_555
Fe1 O9 2.000717 1_565
Fe2 O12 1.962281 1_555
Fe2 O14 1.967240 1_555
Fe2 O9 1.987216 1_655
Fe2 O11 1.990186 1_555
Fe2 O7 1.991568 1_545
Fe2 O16 2.000717 1_555
Fe3 O17 1.962281 1_555
Fe3 O15 1.967240 1_555
Fe3 O20 1.987216 1_455
Fe3 O18 1.990186 1_556
Fe3 O21 1.991568 1_565
Fe3 O13 2.000717 1_555
O0 Sr3 2.565185 1_555
O0 Sr1 2.735534 1_555
O0 Sr0 2.747909 1_545
O0 Sr2 2.934830 1_545
O1 Sr1 2.581061 1_555
O1 Sr2 2.767679 1_545
O1 Sr2 2.767679 1_555
O2 Sr3 2.565185 1_555
O2 Sr1 2.735534 1_556
O2 Sr0 2.747909 1_555
O2 Sr2 2.934830 1_556
O3 Sr1 2.862209 1_556
O3 Sr3 3.053170 1_555
O4 Sr0 2.565185 1_555
O4 Sr2 2.735534 1_555
O4 Sr3 2.747909 1_555
O4 Sr1 2.934830 1_555
O5 Sr3 2.785200 1_555
O5 Sr3 2.785200 1_565
O5 Sr0 2.994268 1_555
O6 Sr2 2.581061 1_555
O6 Sr1 2.767679 1_565
O6 Sr1 2.767679 1_555
O7 Sr1 2.862209 1_565
O7 Sr3 3.053170 1_565
O8 Sr0 2.565185 1_555
O8 Sr2 2.735534 1_556
O8 Sr3 2.747909 1_565
O8 Sr1 2.934830 1_566
O10 Sr1 2.643364 1_556
O10 Sr3 2.851423 1_555
O11 Sr1 3.109935 1_555
O12 Sr3 2.608547 1_555
O14 Sr1 2.643364 1_555
O14 Sr3 2.851423 1_555
O15 Sr2 2.643364 1_556
O15 Sr0 2.851423 1_555
O17 Sr0 2.608547 1_555
O18 Sr2 3.109935 1_555
O19 Sr2 2.643364 1_555
O19 Sr0 2.851423 1_555
O21 Sr2 2.862209 1_546
O21 Sr0 3.053170 1_545
O22 Sr0 2.785200 1_545
O22 Sr0 2.785200 1_555
O22 Sr3 2.994268 1_555
O23 Sr2 2.862209 1_555
O23 Sr0 3.053170 1_555
