# generated using pymatgen
data_H2C3(N2Cl)2
_symmetry_space_group_name_H-M   'P 1'
_cell_length_a   12.39284100
_cell_length_b   8.47781900
_cell_length_c   14.19902593
_cell_angle_alpha   57.24626501
_cell_angle_beta   90.00000000
_cell_angle_gamma   90.00000000
_symmetry_Int_Tables_number   1
_chemical_formula_structural   H2C3(N2Cl)2
_chemical_formula_sum   'H16 C24 N32 Cl16'
_cell_volume   1254.61796110
_cell_formula_units_Z   8
loop_
 _symmetry_equiv_pos_site_id
 _symmetry_equiv_pos_as_xyz
  1  'x, y, z'
loop_
 _atom_site_type_symbol
 _atom_site_label
 _atom_site_symmetry_multiplicity
 _atom_site_fract_x
 _atom_site_fract_y
 _atom_site_fract_z
 _atom_site_occupancy
  H  H0  1  0.96238400  0.70753700  0.83133700  1
  H  H1  1  0.46238400  0.29246300  0.66866300  1
  H  H2  1  0.03761600  0.29246300  0.16866300  1
  H  H3  1  0.53761600  0.70753700  0.33133700  1
  H  H4  1  0.95398000  0.91765700  0.83203900  1
  H  H5  1  0.45398000  0.08234300  0.66796100  1
  H  H6  1  0.04602000  0.08234300  0.16796100  1
  H  H7  1  0.54602000  0.91765700  0.33203900  1
  H  H8  1  0.87822800  0.09680400  0.94890700  1
  H  H9  1  0.37822800  0.90319600  0.55109300  1
  H  H10  1  0.12177200  0.90319600  0.05109300  1
  H  H11  1  0.62177200  0.09680400  0.44890700  1
  H  H12  1  0.88859300  0.31067500  0.94451300  1
  H  H13  1  0.38859300  0.68932500  0.55548700  1
  H  H14  1  0.11140700  0.68932500  0.05548700  1
  H  H15  1  0.61140700  0.31067500  0.44451300  1
  C  C0  1  0.86700900  0.69256300  0.95203200  1
  C  C1  1  0.36700900  0.30743700  0.54796800  1
  C  C2  1  0.13299100  0.30743700  0.04796800  1
  C  C3  1  0.63299100  0.69256300  0.45203200  1
  C  C4  1  0.77790600  0.43137000  0.08208400  1
  C  C5  1  0.27790600  0.56863000  0.41791600  1
  C  C6  1  0.22209400  0.56863000  0.91791600  1
  C  C7  1  0.72209400  0.43137000  0.58208400  1
  C  C8  1  0.76331200  0.68976000  0.08356600  1
  C  C9  1  0.26331200  0.31024000  0.41643400  1
  C  C10  1  0.23668800  0.31024000  0.91643400  1
  C  C11  1  0.73668800  0.68976000  0.58356600  1
  C  C12  1  0.96727400  0.30546200  0.82072700  1
  C  C13  1  0.46727400  0.69453800  0.67927300  1
  C  C14  1  0.03272600  0.69453800  0.17927300  1
  C  C15  1  0.53272600  0.30546200  0.32072700  1
  C  C16  1  0.05824500  0.55282200  0.68072500  1
  C  C17  1  0.55824500  0.44717800  0.81927500  1
  C  C18  1  0.94175500  0.44717800  0.31927500  1
  C  C19  1  0.44175500  0.55282200  0.18072500  1
  C  C20  1  0.04304000  0.29381100  0.68011000  1
  C  C21  1  0.54304000  0.70618900  0.81989000  1
  C  C22  1  0.95696000  0.70618900  0.31989000  1
  C  C23  1  0.45696000  0.29381100  0.18011000  1
  N  N0  1  0.82843400  0.78914200  0.99685700  1
  N  N1  1  0.32843400  0.21085800  0.50314300  1
  N  N2  1  0.17156600  0.21085800  0.00314300  1
  N  N3  1  0.67156600  0.78914200  0.49685700  1
  N  N4  1  0.84389700  0.50821500  0.99485700  1
  N  N5  1  0.34389700  0.49178500  0.50514300  1
  N  N6  1  0.15610300  0.49178500  0.00514300  1
  N  N7  1  0.65610300  0.50821500  0.49485700  1
  N  N8  1  0.73236400  0.51157000  0.13130600  1
  N  N9  1  0.23236400  0.48843000  0.36869400  1
  N  N10  1  0.26763600  0.48843000  0.86869400  1
  N  N11  1  0.76763600  0.51157000  0.63130600  1
  N  N12  1  0.98880600  0.20191900  0.77560700  1
  N  N13  1  0.48880600  0.79808100  0.72439300  1
  N  N14  1  0.01119400  0.79808100  0.22439300  1
  N  N15  1  0.51119400  0.20191900  0.27560700  1
  N  N16  1  0.00448000  0.48435200  0.77568100  1
  N  N17  1  0.50448000  0.51564800  0.72431900  1
  N  N18  1  0.99552000  0.51564800  0.22431900  1
  N  N19  1  0.49552000  0.48435200  0.27568100  1
  N  N20  1  0.08036300  0.46927800  0.62568900  1
  N  N21  1  0.58036300  0.53072200  0.87431100  1
  N  N22  1  0.91963700  0.53072200  0.37431100  1
  N  N23  1  0.41963700  0.46927800  0.12568900  1
  N  N24  1  0.93090500  0.78173300  0.86248900  1
  N  N25  1  0.43090500  0.21826700  0.63751100  1
  N  N26  1  0.06909500  0.21826700  0.13751100  1
  N  N27  1  0.56909500  0.78173300  0.36248900  1
  N  N28  1  0.90881300  0.22926400  0.91411300  1
  N  N29  1  0.40881300  0.77073600  0.58588700  1
  N  N30  1  0.09118700  0.77073600  0.08588700  1
  N  N31  1  0.59118700  0.22926400  0.41411300  1
  Cl  Cl0  1  0.74880300  0.19753000  0.14147800  1
  Cl  Cl1  1  0.24880300  0.80247000  0.35852200  1
  Cl  Cl2  1  0.25119700  0.80247000  0.85852200  1
  Cl  Cl3  1  0.75119700  0.19753000  0.64147800  1
  Cl  Cl4  1  0.71151200  0.80383400  0.14433700  1
  Cl  Cl5  1  0.21151200  0.19616600  0.35566300  1
  Cl  Cl6  1  0.28848800  0.19616600  0.85566300  1
  Cl  Cl7  1  0.78848800  0.80383400  0.64433700  1
  Cl  Cl8  1  0.10701600  0.77840600  0.61877400  1
  Cl  Cl9  1  0.60701600  0.22159400  0.88122600  1
  Cl  Cl10  1  0.89298400  0.22159400  0.38122600  1
  Cl  Cl11  1  0.39298400  0.77840600  0.11877400  1
  Cl  Cl12  1  0.06932000  0.16997300  0.61833200  1
  Cl  Cl13  1  0.56932000  0.83002700  0.88166800  1
  Cl  Cl14  1  0.93068000  0.83002700  0.38166800  1
  Cl  Cl15  1  0.43068000  0.16997300  0.11833200  1
loop_
_geom_bond_atom_site_label_1
_geom_bond_atom_site_label_2
_geom_bond_distance
_geom_bond_site_symmetry_2
H0 N24 1.022044 1_555
H1 N25 1.022044 1_555
H2 N26 1.022044 1_555
H3 N27 1.022044 1_555
H4 N24 1.028342 1_555
H5 N25 1.028342 1_555
H6 N26 1.028342 1_555
H7 N27 1.028342 1_555
H8 N28 1.023958 1_555
H9 N29 1.023958 1_555
H10 N30 1.023958 1_555
H11 N31 1.023958 1_555
H12 N28 1.023640 1_555
H13 N29 1.023640 1_555
H14 N30 1.023640 1_555
H15 N31 1.023640 1_555
C0 N24 1.332295 1_555
C0 N4 1.366027 1_555
C0 N0 1.366720 1_555
C1 N25 1.332295 1_555
C1 N5 1.366027 1_555
C1 N1 1.366720 1_555
C2 N26 1.332295 1_555
C2 N6 1.366027 1_555
C2 N2 1.366720 1_555
C3 N27 1.332295 1_555
C3 N7 1.366027 1_555
C3 N3 1.366720 1_555
C4 N4 1.324436 1_554
C4 N8 1.335476 1_555
C4 Cl0 1.721148 1_555
C5 N5 1.324436 1_555
C5 N9 1.335476 1_555
C5 Cl1 1.721148 1_555
C6 N6 1.324436 1_556
C6 N10 1.335476 1_555
C6 Cl2 1.721148 1_555
C7 N7 1.324436 1_555
C7 N11 1.335476 1_555
C7 Cl3 1.721148 1_555
C8 N0 1.324601 1_554
C8 N8 1.334408 1_555
C8 Cl4 1.730587 1_555
C9 N1 1.324601 1_555
C9 N9 1.334408 1_555
C9 Cl5 1.730587 1_555
C10 N2 1.324601 1_556
C10 N10 1.334408 1_555
C10 Cl6 1.730587 1_555
C11 N3 1.324601 1_555
C11 N11 1.334408 1_555
C11 Cl7 1.730587 1_555
C12 N28 1.331760 1_555
C12 N12 1.364092 1_555
C12 N16 1.368262 1_655
C13 N29 1.331760 1_555
C13 N13 1.364092 1_555
C13 N17 1.368262 1_555
C14 N30 1.331760 1_555
C14 N14 1.364092 1_555
C14 N18 1.368262 1_455
C15 N31 1.331760 1_555
C15 N15 1.364092 1_555
C15 N19 1.368262 1_555
C16 N16 1.323596 1_555
C16 N20 1.336547 1_555
C16 Cl8 1.725184 1_555
C17 N17 1.323596 1_555
C17 N21 1.336547 1_555
C17 Cl9 1.725184 1_555
C18 N18 1.323596 1_555
C18 N22 1.336547 1_555
C18 Cl10 1.725184 1_555
C19 N19 1.323596 1_555
C19 N23 1.336547 1_555
C19 Cl11 1.725184 1_555
C20 N12 1.324480 1_455
C20 N20 1.334211 1_555
C20 Cl12 1.724609 1_555
C21 N13 1.324480 1_555
C21 N21 1.334211 1_555
C21 Cl13 1.724609 1_555
C22 N14 1.324480 1_655
C22 N22 1.334211 1_555
C22 Cl14 1.724609 1_555
C23 N15 1.324480 1_555
C23 N23 1.334211 1_555
C23 Cl15 1.724609 1_555
