# generated using pymatgen
data_NaH3CN4O
_symmetry_space_group_name_H-M   'P 1'
_cell_length_a   5.72283200
_cell_length_b   5.87714200
_cell_length_c   6.52669400
_cell_angle_alpha   90.00000000
_cell_angle_beta   90.00000000
_cell_angle_gamma   90.00000000
_symmetry_Int_Tables_number   1
_chemical_formula_structural   NaH3CN4O
_chemical_formula_sum   'Na2 H6 C2 N8 O2'
_cell_volume   219.51814922
_cell_formula_units_Z   2
loop_
 _symmetry_equiv_pos_site_id
 _symmetry_equiv_pos_as_xyz
  1  'x, y, z'
loop_
 _atom_site_type_symbol
 _atom_site_label
 _atom_site_symmetry_multiplicity
 _atom_site_fract_x
 _atom_site_fract_y
 _atom_site_fract_z
 _atom_site_occupancy
  Na  Na0  1  0.50000000  0.00000000  0.00000000  1
  Na  Na1  1  0.50000000  0.00000000  0.50000000  1
  H  H0  1  0.67580500  0.50000000  0.75000000  1
  H  H1  1  0.32419500  0.50000000  0.25000000  1
  H  H2  1  0.90985000  0.13580800  0.75000000  1
  H  H3  1  0.09015000  0.13580800  0.25000000  1
  H  H4  1  0.09015000  0.86419200  0.25000000  1
  H  H5  1  0.90985000  0.86419200  0.75000000  1
  C  C0  1  0.48527800  0.50000000  0.75000000  1
  C  C1  1  0.51472200  0.50000000  0.25000000  1
  N  N0  1  0.13138700  0.38788600  0.75000000  1
  N  N1  1  0.86861300  0.38788600  0.25000000  1
  N  N2  1  0.86861300  0.61211400  0.25000000  1
  N  N3  1  0.13138700  0.61211400  0.75000000  1
  N  N4  1  0.35447500  0.31125800  0.75000000  1
  N  N5  1  0.64552500  0.31125800  0.25000000  1
  N  N6  1  0.64552500  0.68874200  0.25000000  1
  N  N7  1  0.35447500  0.68874200  0.75000000  1
  O  O0  1  0.80655700  0.00000000  0.75000000  1
  O  O1  1  0.19344300  0.00000000  0.25000000  1
loop_
_geom_bond_atom_site_label_1
_geom_bond_atom_site_label_2
_geom_bond_distance
_geom_bond_site_symmetry_2
Na0 O0 2.395869 1_554
Na0 O1 2.395869 1_555
Na1 O1 2.395869 1_555
Na1 O0 2.395869 1_555
H2 O0 0.993226 1_555
H3 O1 0.993226 1_555
H4 O1 0.993226 1_565
H5 O0 0.993226 1_565
C0 H0 1.090354 1_555
C0 N7 1.338213 1_555
C0 N4 1.338213 1_555
C1 H1 1.090354 1_555
C1 N6 1.338213 1_555
C1 N5 1.338213 1_555
N0 N3 1.317820 1_555
N0 N4 1.353798 1_555
N1 N2 1.317820 1_555
N1 N5 1.353798 1_555
N2 N6 1.353798 1_555
N3 N7 1.353798 1_555
N4 Na1 2.588881 1_555
N4 Na0 2.588881 1_556
N5 Na0 2.588881 1_555
N5 Na1 2.588881 1_555
N6 Na1 2.588881 1_565
N6 Na0 2.588881 1_565
N7 Na1 2.588881 1_565
N7 Na0 2.588881 1_566
