# generated using pymatgen
data_Gd2S3
_symmetry_space_group_name_H-M   'P 1'
_cell_length_a   3.92406497
_cell_length_b   10.57249597
_cell_length_c   10.74766063
_cell_angle_alpha   89.98079378
_cell_angle_beta   90.00019998
_cell_angle_gamma   89.99997901
_symmetry_Int_Tables_number   1
_chemical_formula_structural   Gd2S3
_chemical_formula_sum   'Gd8 S12'
_cell_volume   445.88990291
_cell_formula_units_Z   4
loop_
 _symmetry_equiv_pos_site_id
 _symmetry_equiv_pos_as_xyz
  1  'x, y, z'
loop_
 _atom_site_type_symbol
 _atom_site_label
 _atom_site_symmetry_multiplicity
 _atom_site_fract_x
 _atom_site_fract_y
 _atom_site_fract_z
 _atom_site_occupancy
  Gd  Gd0  1  0.25000000  0.31320691  0.99072678  1
  Gd  Gd1  1  0.25000000  0.50584295  0.30894639  1
  Gd  Gd2  1  0.75000000  0.81396811  0.50955414  1
  Gd  Gd3  1  0.25000000  0.99465120  0.80811122  1
  Gd  Gd4  1  0.75000000  0.68634531  0.00900270  1
  Gd  Gd5  1  0.75000000  0.49530832  0.69133660  1
  Gd  Gd6  1  0.75000000  0.00425789  0.19118550  1
  Gd  Gd7  1  0.24999900  0.18802198  0.49081184  1
  S  S0  1  0.75000100  0.80260926  0.77234856  1
  S  S1  1  0.24999900  0.30353148  0.72851064  1
  S  S2  1  0.25000000  0.62757814  0.54700751  1
  S  S3  1  0.75000300  0.12698619  0.95337398  1
  S  S4  1  0.75000000  0.05503465  0.61979139  1
  S  S5  1  0.24999900  0.55522582  0.88053486  1
  S  S6  1  0.75000100  0.69710452  0.27211851  1
  S  S7  1  0.25000000  0.87255483  0.04623449  1
  S  S8  1  0.75000100  0.44406409  0.11976140  1
  S  S9  1  0.25000000  0.94401450  0.38006726  1
  S  S10  1  0.75000000  0.37444304  0.45261396  1
  S  S11  1  0.24999900  0.19524981  0.22796226  1
loop_
_geom_bond_atom_site_label_1
_geom_bond_atom_site_label_2
_geom_bond_distance
_geom_bond_site_symmetry_2
Gd0 S8 2.772754 1_556
Gd0 S8 2.772754 1_456
Gd0 S3 2.808463 1_455
Gd0 S3 2.808480 1_555
Gd0 S5 2.819170 1_555
Gd0 S1 2.820100 1_555
Gd0 S11 2.837998 1_556
Gd1 S6 2.845104 1_455
Gd1 S6 2.845112 1_555
Gd1 S10 2.856969 1_555
Gd1 S10 2.856977 1_455
Gd1 S2 2.864459 1_555
Gd1 S8 2.900229 1_455
Gd1 S8 2.900243 1_555
Gd1 S11 3.397422 1_555
Gd2 S9 2.770458 1_555
Gd2 S9 2.770465 1_655
Gd2 S2 2.809690 1_655
Gd2 S2 2.809693 1_555
Gd2 S4 2.810961 1_565
Gd2 S0 2.826937 1_555
Gd2 S6 2.835622 1_555
Gd3 S0 2.849594 1_455
Gd3 S0 2.849600 1_555
Gd3 S7 2.866002 1_556
Gd3 S3 2.871581 1_465
Gd3 S3 2.871590 1_565
Gd3 S4 2.890122 1_465
Gd3 S4 2.890131 1_565
Gd3 S1 3.375562 1_565
Gd4 S5 2.771098 1_554
Gd4 S5 2.771098 1_654
Gd4 S7 2.808202 1_655
Gd4 S7 2.808203 1_555
Gd4 S8 2.824247 1_555
Gd4 S0 2.824556 1_554
Gd4 S6 2.830204 1_555
Gd5 S1 2.849497 1_655
Gd5 S1 2.849505 1_555
Gd5 S2 2.865292 1_555
Gd5 S2 2.865300 1_655
Gd5 S10 2.866698 1_555
Gd5 S5 2.895956 1_655
Gd5 S5 2.895970 1_555
Gd5 S0 3.363866 1_555
Gd6 S11 2.843192 1_655
Gd6 S11 2.843198 1_555
Gd6 S3 2.866027 1_554
Gd6 S7 2.866509 1_545
Gd6 S7 2.866515 1_645
Gd6 S9 2.894028 1_645
Gd6 S9 2.894038 1_545
Gd6 S6 3.361576 1_545
Gd7 S4 2.783298 1_555
Gd7 S4 2.783300 1_455
Gd7 S10 2.811074 1_455
Gd7 S10 2.811082 1_555
Gd7 S11 2.826026 1_555
Gd7 S1 2.831961 1_555
Gd7 S9 2.841469 1_545
