# generated using pymatgen
data_Sr2La14Zn3Cu5O32
_symmetry_space_group_name_H-M   'P 1'
_cell_length_a   5.40187200
_cell_length_b   5.56178300
_cell_length_c   25.94146546
_cell_angle_alpha   89.83053839
_cell_angle_beta   90.00000000
_cell_angle_gamma   90.00000000
_symmetry_Int_Tables_number   1
_chemical_formula_structural   Sr2La14Zn3Cu5O32
_chemical_formula_sum   'Sr2 La14 Zn3 Cu5 O32'
_cell_volume   779.38301345
_cell_formula_units_Z   1
loop_
 _symmetry_equiv_pos_site_id
 _symmetry_equiv_pos_as_xyz
  1  'x, y, z'
loop_
 _atom_site_type_symbol
 _atom_site_label
 _atom_site_symmetry_multiplicity
 _atom_site_fract_x
 _atom_site_fract_y
 _atom_site_fract_z
 _atom_site_occupancy
  Sr  Sr0  1  0.00000000  0.50487100  0.31878100  1
  Sr  Sr1  1  0.00000000  0.99577800  0.07215500  1
  La  La0  1  0.00000000  0.51324200  0.82030400  1
  La  La1  1  0.00000000  0.01661700  0.93237600  1
  La  La2  1  0.50000000  0.51498800  0.56937400  1
  La  La3  1  0.50000000  0.01422000  0.67983400  1
  La  La4  1  0.50000000  0.98667300  0.82036200  1
  La  La5  1  0.50000000  0.48520300  0.93116000  1
  La  La6  1  0.00000000  0.02265700  0.42616900  1
  La  La7  1  0.00000000  0.98255800  0.56924000  1
  La  La8  1  0.00000000  0.48643000  0.68072100  1
  La  La9  1  0.50000000  0.51893800  0.07082500  1
  La  La10  1  0.50000000  0.01406800  0.18003200  1
  La  La11  1  0.50000000  0.97945600  0.31783400  1
  La  La12  1  0.50000000  0.49010900  0.42821800  1
  La  La13  1  0.00000000  0.48403000  0.18083300  1
  Zn  Zn0  1  0.00000000  0.99912900  0.75102900  1
  Zn  Zn1  1  0.50000000  0.00248300  0.49658600  1
  Zn  Zn2  1  0.50000000  0.50095100  0.75142100  1
  Cu  Cu0  1  0.00000000  0.99882000  0.24937500  1
  Cu  Cu1  1  0.00000000  0.49845800  0.49875900  1
  Cu  Cu2  1  0.50000000  0.00055800  0.00224500  1
  Cu  Cu3  1  0.50000000  0.49844800  0.25049300  1
  Cu  Cu4  1  0.00000000  0.50336800  0.00224300  1
  O  O0  1  0.25123600  0.74811200  0.99319400  1
  O  O1  1  0.00000000  0.94127300  0.84099100  1
  O  O2  1  0.00000000  0.44099800  0.90614100  1
  O  O3  1  0.74854400  0.75142300  0.74224000  1
  O  O4  1  0.74950800  0.24944000  0.75724400  1
  O  O5  1  0.74876400  0.74811200  0.99319400  1
  O  O6  1  0.50000000  0.94297100  0.59109000  1
  O  O7  1  0.50000000  0.43864100  0.65860100  1
  O  O8  1  0.50000000  0.55751000  0.84008700  1
  O  O9  1  0.50000000  0.05376700  0.90760500  1
  O  O10  1  0.24570400  0.74403600  0.49497500  1
  O  O11  1  0.24625800  0.25564500  0.50794400  1
  O  O12  1  0.25145600  0.75142300  0.74224000  1
  O  O13  1  0.25049200  0.24944000  0.75724400  1
  O  O14  1  0.00000000  0.96983200  0.33896700  1
  O  O15  1  0.00000000  0.43038700  0.41075600  1
  O  O16  1  0.00000000  0.56728000  0.59489500  1
  O  O17  1  0.00000000  0.06008600  0.65854100  1
  O  O18  1  0.74224800  0.74830100  0.24418000  1
  O  O19  1  0.74078400  0.24807100  0.25314300  1
  O  O20  1  0.75429600  0.74403600  0.49497500  1
  O  O21  1  0.75374200  0.25564500  0.50794400  1
  O  O22  1  0.50000000  0.94495300  0.09087700  1
  O  O23  1  0.50000000  0.44705300  0.15699800  1
  O  O24  1  0.50000000  0.56619600  0.34400900  1
  O  O25  1  0.50000000  0.05141700  0.41096000  1
  O  O26  1  0.25290800  0.25595100  0.00218500  1
  O  O27  1  0.25775200  0.74830100  0.24418000  1
  O  O28  1  0.25921600  0.24807100  0.25314300  1
  O  O29  1  0.00000000  0.52931700  0.09271600  1
  O  O30  1  0.00000000  0.04628900  0.16611500  1
  O  O31  1  0.74709200  0.25595100  0.00218500  1
loop_
_geom_bond_atom_site_label_1
_geom_bond_atom_site_label_2
_geom_bond_distance
_geom_bond_site_symmetry_2
La0 O2 2.261529 1_555
La0 O1 2.441901 1_555
La0 O4 2.583393 1_455
La0 O13 2.583393 1_555
La0 O8 2.760398 1_455
La0 O8 2.760398 1_555
La0 O3 2.772195 1_455
La0 O12 2.772195 1_555
La0 O1 3.224550 1_545
La1 O1 2.408632 1_545
La1 O2 2.454540 1_555
La1 O0 2.558752 1_545
La1 O5 2.558752 1_445
La1 O26 2.632892 1_556
La1 O31 2.632892 1_456
La1 O9 2.783863 1_455
La1 O9 2.783863 1_555
La2 O7 2.352070 1_555
La2 O6 2.447723 1_555
La2 O21 2.551945 1_555
La2 O11 2.551945 1_555
La2 O20 2.687056 1_555
La2 O10 2.687056 1_555
La2 O16 2.796264 1_555
La2 O16 2.796264 1_655
La2 O6 3.229285 1_545
La3 O6 2.337161 1_545
La3 O7 2.422363 1_555
La3 O12 2.558469 1_545
La3 O3 2.558469 1_545
La3 O13 2.752492 1_555
La3 O4 2.752492 1_555
La3 O17 2.768467 1_555
La3 O17 2.768467 1_655
La3 O7 3.249892 1_545
La4 O9 2.294858 1_565
La4 O8 2.439663 1_555
La4 O4 2.572795 1_565
La4 O13 2.572795 1_565
La4 O12 2.763568 1_555
La4 O3 2.763568 1_555
La4 O1 2.764850 1_555
La4 O1 2.764850 1_655
La4 O8 3.217336 1_565
La5 O8 2.395377 1_555
La5 O9 2.477885 1_555
La5 O0 2.558817 1_555
La5 O5 2.558817 1_555
La5 O31 2.605421 1_556
La5 O26 2.605421 1_556
La5 O2 2.788850 1_555
La5 O2 2.788850 1_655
La5 O9 3.218952 1_565
La6 O14 2.282008 1_545
La6 O15 2.301520 1_555
La6 O10 2.707874 1_545
La6 O20 2.707874 1_445
La6 O25 2.734215 1_555
La6 O25 2.734215 1_455
La6 O11 2.822267 1_555
La6 O21 2.822267 1_455
La7 O17 2.357640 1_565
La7 O16 2.401767 1_555
La7 O11 2.567224 1_565
La7 O21 2.567224 1_465
La7 O10 2.692248 1_555
La7 O20 2.692248 1_455
La7 O6 2.768407 1_555
La7 O6 2.768407 1_455
La8 O16 2.270104 1_555
La8 O17 2.441696 1_555
La8 O3 2.564769 1_455
La8 O12 2.564769 1_555
La8 O13 2.737430 1_555
La8 O4 2.737430 1_455
La8 O7 2.774145 1_455
La8 O7 2.774145 1_555
La9 O23 2.269761 1_555
La9 O22 2.427333 1_555
La9 O31 2.665901 1_555
La9 O26 2.665901 1_555
La9 O5 2.733290 1_554
La9 O0 2.733290 1_554
La9 O29 2.760629 1_655
La9 O29 2.760629 1_555
La9 O22 3.232963 1_545
La10 O22 2.345660 1_545
La10 O23 2.479478 1_555
La10 O18 2.579140 1_545
La10 O27 2.579140 1_545
La10 O19 2.645247 1_555
La10 O28 2.645247 1_555
La10 O30 2.730774 1_555
La10 O30 2.730774 1_655
La10 O23 3.211461 1_545
La11 O24 2.394736 1_555
La11 O25 2.449921 1_565
La11 O19 2.593300 1_565
La11 O28 2.593300 1_565
La11 O27 2.651518 1_555
La11 O18 2.651518 1_555
La11 O14 2.756500 1_555
La11 O14 2.756500 1_655
La12 O24 2.223887 1_555
La12 O25 2.481946 1_555
La12 O20 2.625842 1_555
La12 O10 2.625842 1_555
La12 O15 2.758890 1_655
La12 O15 2.758890 1_555
La12 O21 2.800146 1_555
La12 O11 2.800146 1_555
La12 O25 3.152500 1_565
La13 O29 2.298978 1_555
La13 O30 2.465492 1_555
La13 O18 2.610317 1_455
La13 O27 2.610317 1_555
La13 O19 2.680884 1_455
La13 O28 2.680884 1_555
La13 O23 2.778564 1_555
La13 O23 2.778564 1_455
La13 O30 3.149263 1_565
Cu0 O19 1.973026 1_465
Cu0 O28 1.973026 1_565
Cu0 O18 1.974656 1_455
Cu0 O27 1.974656 1_555
Cu0 O30 2.175187 1_565
Cu0 O14 2.329257 1_555
Cu1 O10 1.906834 1_555
Cu1 O20 1.906834 1_455
Cu1 O11 1.910033 1_555
Cu1 O21 1.910033 1_455
Cu1 O15 2.315211 1_555
Cu1 O16 2.524231 1_555
Cu2 O31 1.949160 1_555
Cu2 O26 1.949160 1_555
Cu2 O5 1.958114 1_544
Cu2 O0 1.958114 1_544
Cu2 O22 2.319043 1_545
Cu2 O9 2.472003 1_554
Cu3 O19 1.906598 1_555
Cu3 O28 1.906598 1_555
Cu3 O18 1.915452 1_555
Cu3 O27 1.915452 1_555
Cu3 O23 2.443023 1_555
Cu3 O24 2.456131 1_555
Cu4 O0 1.935964 1_554
Cu4 O5 1.935964 1_454
Cu4 O26 1.939084 1_555
Cu4 O31 1.939084 1_455
Cu4 O29 2.351861 1_555
Cu4 O2 2.518061 1_554
O0 Sr1 2.819882 1_556
O1 Zn0 2.354883 1_555
O3 Zn0 1.948572 1_655
O3 Zn2 1.948843 1_555
O4 Zn2 1.948061 1_555
O4 Zn0 1.948441 1_645
O5 Sr1 2.819882 1_656
O6 Zn1 2.472845 1_565
O7 Zn2 2.433712 1_555
O8 Zn2 2.322458 1_555
O10 Zn1 1.988788 1_565
O11 Zn1 1.987610 1_555
O12 Zn0 1.948572 1_555
O12 Zn2 1.948843 1_555
O13 Zn2 1.948061 1_555
O13 Zn0 1.948441 1_545
O14 Sr0 2.640016 1_555
O14 Sr0 3.019968 1_565
O15 Sr0 2.420455 1_555
O17 Zn0 2.422116 1_545
O18 Sr0 2.738870 1_655
O19 Sr0 2.629520 1_655
O20 Zn1 1.988788 1_565
O21 Zn1 1.987610 1_555
O22 Sr1 2.758628 1_555
O22 Sr1 2.758628 1_655
O24 Sr0 2.800181 1_555
O24 Sr0 2.800181 1_655
O25 Zn1 2.237076 1_555
O26 Sr1 2.690625 1_545
O27 Sr0 2.738870 1_555
O28 Sr0 2.629520 1_555
O29 Sr1 2.647072 1_555
O29 Sr1 3.016536 1_545
O30 Sr1 2.454421 1_545
O31 Sr1 2.690625 1_645
