# generated using pymatgen
data_AsS7IF6
_symmetry_space_group_name_H-M   'P 1'
_cell_length_a   11.93009900
_cell_length_b   12.24767342
_cell_length_c   15.93007815
_cell_angle_alpha   74.67968403
_cell_angle_beta   75.01496685
_cell_angle_gamma   72.67391352
_symmetry_Int_Tables_number   1
_chemical_formula_structural   AsS7IF6
_chemical_formula_sum   'As6 S42 I6 F36'
_cell_volume   2101.76122426
_cell_formula_units_Z   6
loop_
 _symmetry_equiv_pos_site_id
 _symmetry_equiv_pos_as_xyz
  1  'x, y, z'
loop_
 _atom_site_type_symbol
 _atom_site_label
 _atom_site_symmetry_multiplicity
 _atom_site_fract_x
 _atom_site_fract_y
 _atom_site_fract_z
 _atom_site_occupancy
  As  As0  1  0.26060500  0.77348400  0.00765300  1
  As  As1  1  0.58033700  0.12472700  0.63548500  1
  As  As2  1  0.41966300  0.87527300  0.36451500  1
  As  As3  1  0.06092100  0.65357200  0.67066900  1
  As  As4  1  0.73939500  0.22651600  0.99234700  1
  As  As5  1  0.93907900  0.34642800  0.32933100  1
  S  S0  1  0.73588600  0.58865000  0.53180500  1
  S  S1  1  0.38797700  0.19024000  0.04193900  1
  S  S2  1  0.23519900  0.43510800  0.90455500  1
  S  S3  1  0.02354100  0.70436400  0.28366000  1
  S  S4  1  0.48294400  0.44606600  0.18510800  1
  S  S5  1  0.12634100  0.13047100  0.05806400  1
  S  S6  1  0.46994600  0.25759200  0.22850300  1
  S  S7  1  0.63790300  0.46680600  0.61078200  1
  S  S8  1  0.06049400  0.38461700  0.92564500  1
  S  S9  1  0.66444000  0.46376100  0.76044500  1
  S  S10  1  0.02949400  0.88188600  0.40830700  1
  S  S11  1  0.53005400  0.74240800  0.77149700  1
  S  S12  1  0.87365900  0.86952900  0.94193600  1
  S  S13  1  0.97794400  0.30243700  0.59166200  1
  S  S14  1  0.93950600  0.61538300  0.07435500  1
  S  S15  1  0.25707300  0.10597100  0.12367800  1
  S  S16  1  0.14451500  0.95146000  0.75365300  1
  S  S17  1  0.03136200  0.31291400  0.05209600  1
  S  S18  1  0.33556000  0.53623900  0.23955500  1
  S  S19  1  0.27586500  0.39864200  0.01829000  1
  S  S20  1  0.94493700  0.04327300  0.71317800  1
  S  S21  1  0.85548500  0.04854000  0.24634700  1
  S  S22  1  0.72413500  0.60135800  0.98171000  1
  S  S23  1  0.02205600  0.69756300  0.40833800  1
  S  S24  1  0.16279400  0.22556100  0.72661900  1
  S  S25  1  0.61202300  0.80976000  0.95806100  1
  S  S26  1  0.97645900  0.29563600  0.71634000  1
  S  S27  1  0.83279900  0.92492100  0.18562000  1
  S  S28  1  0.65438700  0.74558000  0.56164600  1
  S  S29  1  0.51705600  0.55393400  0.81489200  1
  S  S30  1  0.83720600  0.77443900  0.27338100  1
  S  S31  1  0.05506300  0.95672700  0.28682200  1
  S  S32  1  0.16720100  0.07507900  0.81438000  1
  S  S33  1  0.34561300  0.25442000  0.43835400  1
  S  S34  1  0.31318400  0.26547000  0.30879100  1
  S  S35  1  0.76480100  0.56489200  0.09544500  1
  S  S36  1  0.68681600  0.73453000  0.69120900  1
  S  S37  1  0.26411400  0.41135000  0.46819500  1
  S  S38  1  0.36209700  0.53319400  0.38921800  1
  S  S39  1  0.97050600  0.11811400  0.59169300  1
  S  S40  1  0.74292700  0.89402900  0.87632200  1
  S  S41  1  0.96863800  0.68708600  0.94790400  1
  I  I0  1  0.43041100  0.55302900  0.62417100  1
  I  I1  1  0.57336300  0.84121700  0.10391800  1
  I  I2  1  0.56958900  0.44697100  0.37582900  1
  I  I3  1  0.42663700  0.15878300  0.89608200  1
  I  I4  1  0.26465400  0.96268600  0.61052100  1
  I  I5  1  0.73534600  0.03731400  0.38947900  1
  F  F0  1  0.73080800  0.27044900  0.09246700  1
  F  F1  1  0.44991700  0.95458700  0.43243800  1
  F  F2  1  0.93707200  0.65007800  0.75977900  1
  F  F3  1  0.67425900  0.10955500  0.05540200  1
  F  F4  1  0.74690200  0.18228200  0.89316800  1
  F  F5  1  0.49727200  0.95436600  0.26684400  1
  F  F6  1  0.25309800  0.81771800  0.10683200  1
  F  F7  1  0.44414000  0.23110000  0.62398500  1
  F  F8  1  0.00881400  0.20413400  0.37992200  1
  F  F9  1  0.65693200  0.20323800  0.53900500  1
  F  F10  1  0.99750100  0.59336700  0.60975900  1
  F  F11  1  0.50272800  0.04563400  0.73315600  1
  F  F12  1  0.81068100  0.34477400  0.41774100  1
  F  F13  1  0.86449500  0.49077500  0.28035900  1
  F  F14  1  0.12850600  0.71161400  0.73080500  1
  F  F15  1  0.80360200  0.34435000  0.92914300  1
  F  F16  1  0.55586000  0.76890000  0.37601500  1
  F  F17  1  0.55008300  0.04541300  0.56756200  1
  F  F18  1  0.00249900  0.40663300  0.39024100  1
  F  F19  1  0.61167400  0.20358200  0.70225600  1
  F  F20  1  0.13550500  0.50922500  0.71964100  1
  F  F21  1  0.18931900  0.65522600  0.58225900  1
  F  F22  1  0.71464200  0.01569200  0.64850800  1
  F  F23  1  0.26919200  0.72955100  0.90753300  1
  F  F24  1  0.28535800  0.98430800  0.35149200  1
  F  F25  1  0.88462500  0.13494900  0.00127000  1
  F  F26  1  0.40627800  0.68119300  0.01490400  1
  F  F27  1  0.32574100  0.89044500  0.94459800  1
  F  F28  1  0.59372200  0.31880700  0.98509600  1
  F  F29  1  0.19639800  0.65565000  0.07085700  1
  F  F30  1  0.11537500  0.86505100  0.99873000  1
  F  F31  1  0.87149400  0.28838600  0.26919500  1
  F  F32  1  0.34306800  0.79676200  0.46099500  1
  F  F33  1  0.38832600  0.79641800  0.29774400  1
  F  F34  1  0.06292800  0.34992200  0.24022100  1
  F  F35  1  0.99118600  0.79586600  0.62007800  1
loop_
_geom_bond_atom_site_label_1
_geom_bond_atom_site_label_2
_geom_bond_distance
_geom_bond_site_symmetry_2
As0 F6 1.774244 1_555
As0 F27 1.778731 1_554
As0 F30 1.779224 1_554
As0 F29 1.781868 1_555
As0 F26 1.782154 1_555
As0 F23 1.783243 1_554
As1 F9 1.771419 1_555
As1 F7 1.771434 1_555
As1 F22 1.773335 1_555
As1 F19 1.779733 1_555
As1 F11 1.791445 1_555
As1 F17 1.791897 1_555
As2 F32 1.771419 1_555
As2 F16 1.771434 1_555
As2 F24 1.773335 1_555
As2 F33 1.779733 1_555
As2 F5 1.791445 1_555
As2 F1 1.791897 1_555
As3 F35 1.766306 1_455
As3 F2 1.766612 1_455
As3 F10 1.774168 1_455
As3 F14 1.781535 1_555
As3 F21 1.793912 1_555
As3 F20 1.794174 1_555
As4 F4 1.774244 1_555
As4 F3 1.778731 1_556
As4 F25 1.779224 1_556
As4 F15 1.781868 1_555
As4 F28 1.782154 1_555
As4 F0 1.783243 1_556
As5 F8 1.766306 1_655
As5 F34 1.766612 1_655
As5 F18 1.774168 1_655
As5 F31 1.781535 1_555
As5 F12 1.793912 1_555
As5 F13 1.794174 1_555
S0 S28 1.999058 1_555
S0 S7 2.112491 1_555
S1 S15 2.097117 1_555
S1 S19 2.482913 1_555
S2 S8 2.266090 1_555
S3 S30 2.163959 1_455
S4 S6 2.268263 1_555
S7 S9 2.474282 1_555
S10 S31 1.897993 1_555
S10 S23 2.285391 1_555
S11 S36 1.965580 1_555
S11 S29 2.268263 1_555
S12 S40 2.003396 1_555
S12 S41 2.172868 1_555
S13 S26 1.961435 1_555
S13 S39 2.285391 1_555
S14 S41 1.958232 1_554
S14 S35 2.266090 1_555
S15 S5 2.003396 1_555
S16 S32 2.110652 1_565
S16 S20 2.483014 1_465
S17 S8 1.958232 1_554
S17 S5 2.172868 1_555
S18 S4 1.903824 1_555
S18 S38 2.474282 1_555
S19 S2 1.901417 1_554
S20 S39 1.897993 1_555
S21 S27 2.110652 1_545
S21 S31 2.483014 1_645
S22 S35 1.901417 1_556
S22 S25 2.482913 1_555
S23 S3 1.961435 1_555
S24 S32 1.993198 1_555
S24 S26 2.163959 1_455
S25 S40 2.097117 1_555
S27 S30 1.993198 1_555
S28 S36 2.159171 1_555
S29 S9 1.903824 1_555
S33 S37 1.999058 1_555
S33 S34 2.159171 1_555
S34 S6 1.965580 1_555
S37 S38 2.112491 1_555
I0 S7 2.361627 1_555
I1 S25 2.360698 1_554
I2 S38 2.361627 1_555
I3 S1 2.360698 1_556
I4 S16 2.352395 1_555
I5 S21 2.352395 1_555
