# generated using pymatgen
data_YHO2
_symmetry_space_group_name_H-M   'P 1'
_cell_length_a   4.30114907
_cell_length_b   3.63345779
_cell_length_c   6.10990944
_cell_angle_alpha   90.00000000
_cell_angle_beta   112.71148366
_cell_angle_gamma   90.00000000
_symmetry_Int_Tables_number   1
_chemical_formula_structural   YHO2
_chemical_formula_sum   'Y2 H2 O4'
_cell_volume   88.08202106
_cell_formula_units_Z   2
loop_
 _symmetry_equiv_pos_site_id
 _symmetry_equiv_pos_as_xyz
  1  'x, y, z'
loop_
 _atom_site_type_symbol
 _atom_site_label
 _atom_site_symmetry_multiplicity
 _atom_site_fract_x
 _atom_site_fract_y
 _atom_site_fract_z
 _atom_site_occupancy
  Y  Y0  1  0.64254740  0.25000000  0.31078936  1
  Y  Y1  1  0.35745260  0.75000000  0.68921064  1
  H  H0  1  0.09721231  0.75000000  0.07975429  1
  H  H1  1  0.90278769  0.25000000  0.92024571  1
  O  O0  1  0.78491616  0.75000000  0.55111219  1
  O  O1  1  0.21508384  0.25000000  0.44888781  1
  O  O2  1  0.31067388  0.75000000  0.06210232  1
  O  O3  1  0.68932612  0.25000000  0.93789768  1
loop_
_geom_bond_atom_site_label_1
_geom_bond_atom_site_label_2
_geom_bond_distance
_geom_bond_site_symmetry_2
H0 O2 0.964913 1_555
H1 O3 0.964913 1_555
O0 Y0 2.266545 1_555
O0 Y0 2.266545 1_565
O0 Y1 2.274138 1_655
O0 Y1 2.300056 1_555
O1 Y1 2.266545 1_545
O1 Y1 2.266545 1_555
O1 Y0 2.274138 1_455
O1 Y0 2.300056 1_555
O2 Y1 2.363316 1_554
O2 Y0 2.443772 1_555
O2 Y0 2.443772 1_565
O3 Y0 2.363316 1_556
O3 Y1 2.443772 1_545
O3 Y1 2.443772 1_555
