# generated using pymatgen
data_Nb5P3
_symmetry_space_group_name_H-M   'P 1'
_cell_length_a   3.44476756
_cell_length_b   11.54525737
_cell_length_c   25.53917363
_cell_angle_alpha   90.00000000
_cell_angle_beta   90.00000000
_cell_angle_gamma   90.00000000
_symmetry_Int_Tables_number   1
_chemical_formula_structural   Nb5P3
_chemical_formula_sum   'Nb40 P24'
_cell_volume   1015.71152932
_cell_formula_units_Z   8
loop_
 _symmetry_equiv_pos_site_id
 _symmetry_equiv_pos_as_xyz
  1  'x, y, z'
loop_
 _atom_site_type_symbol
 _atom_site_label
 _atom_site_symmetry_multiplicity
 _atom_site_fract_x
 _atom_site_fract_y
 _atom_site_fract_z
 _atom_site_occupancy
  Nb  Nb0  1  0.25000000  0.93210578  0.60096599  1
  Nb  Nb1  1  0.25000000  0.34434672  0.25978468  1
  Nb  Nb2  1  0.75000000  0.43210578  0.89903401  1
  Nb  Nb3  1  0.25000000  0.21175896  0.62436524  1
  Nb  Nb4  1  0.75000000  0.06789422  0.39903401  1
  Nb  Nb5  1  0.25000000  0.56789422  0.10096599  1
  Nb  Nb6  1  0.75000000  0.60744849  0.00074003  1
  Nb  Nb7  1  0.75000000  0.37962780  0.77424867  1
  Nb  Nb8  1  0.25000000  0.15565328  0.75978468  1
  Nb  Nb9  1  0.25000000  0.10744849  0.49925997  1
  Nb  Nb10  1  0.75000000  0.05632720  0.15173542  1
  Nb  Nb11  1  0.75000000  0.45915821  0.17700137  1
  Nb  Nb12  1  0.75000000  0.19365939  0.04548248  1
  Nb  Nb13  1  0.25000000  0.94367280  0.84826458  1
  Nb  Nb14  1  0.25000000  0.41443317  0.46438958  1
  Nb  Nb15  1  0.25000000  0.80634061  0.95451752  1
  Nb  Nb16  1  0.75000000  0.34317710  0.36245883  1
  Nb  Nb17  1  0.75000000  0.89255151  0.50074003  1
  Nb  Nb18  1  0.25000000  0.65682290  0.63754117  1
  Nb  Nb19  1  0.75000000  0.04084179  0.67700137  1
  Nb  Nb20  1  0.75000000  0.44367280  0.65173542  1
  Nb  Nb21  1  0.25000000  0.08556683  0.96438958  1
  Nb  Nb22  1  0.75000000  0.58556683  0.53561042  1
  Nb  Nb23  1  0.25000000  0.39255151  0.99925997  1
  Nb  Nb24  1  0.75000000  0.15682290  0.86245883  1
  Nb  Nb25  1  0.25000000  0.62037220  0.22575133  1
  Nb  Nb26  1  0.75000000  0.78824104  0.37563476  1
  Nb  Nb27  1  0.25000000  0.54084179  0.82299863  1
  Nb  Nb28  1  0.75000000  0.84434672  0.24021532  1
  Nb  Nb29  1  0.75000000  0.65565328  0.74021532  1
  Nb  Nb30  1  0.25000000  0.84317710  0.13754117  1
  Nb  Nb31  1  0.25000000  0.28824104  0.12436524  1
  Nb  Nb32  1  0.75000000  0.71175896  0.87563476  1
  Nb  Nb33  1  0.75000000  0.30634061  0.54548248  1
  Nb  Nb34  1  0.25000000  0.87962780  0.72575133  1
  Nb  Nb35  1  0.25000000  0.95915821  0.32299863  1
  Nb  Nb36  1  0.25000000  0.69365939  0.45451752  1
  Nb  Nb37  1  0.75000000  0.12037220  0.27424867  1
  Nb  Nb38  1  0.25000000  0.55632720  0.34826458  1
  Nb  Nb39  1  0.75000000  0.91443317  0.03561042  1
  P  P0  1  0.75000000  0.25071261  0.95098776  1
  P  P1  1  0.75000000  0.50029578  0.28014998  1
  P  P2  1  0.75000000  0.41858930  0.07285325  1
  P  P3  1  0.25000000  0.74553902  0.30287488  1
  P  P4  1  0.25000000  0.05104021  0.07679920  1
  P  P5  1  0.25000000  0.00029578  0.21985002  1
  P  P6  1  0.75000000  0.25446098  0.69712512  1
  P  P7  1  0.75000000  0.24553902  0.19712512  1
  P  P8  1  0.25000000  0.75071261  0.54901224  1
  P  P9  1  0.75000000  0.94895979  0.92320080  1
  P  P10  1  0.25000000  0.75446098  0.80287488  1
  P  P11  1  0.75000000  0.68776377  0.15805286  1
  P  P12  1  0.25000000  0.58141070  0.92714675  1
  P  P13  1  0.75000000  0.24928739  0.45098776  1
  P  P14  1  0.25000000  0.91858930  0.42714675  1
  P  P15  1  0.25000000  0.44895979  0.57679920  1
  P  P16  1  0.75000000  0.81223623  0.65805286  1
  P  P17  1  0.25000000  0.18776377  0.34194714  1
  P  P18  1  0.75000000  0.08141070  0.57285325  1
  P  P19  1  0.25000000  0.49970422  0.71985002  1
  P  P20  1  0.75000000  0.99970422  0.78014998  1
  P  P21  1  0.25000000  0.31223623  0.84194714  1
  P  P22  1  0.75000000  0.55104021  0.42320080  1
  P  P23  1  0.25000000  0.74928739  0.04901224  1
loop_
_geom_bond_atom_site_label_1
_geom_bond_atom_site_label_2
_geom_bond_distance
_geom_bond_site_symmetry_2
Nb0 P8 2.479183 1_555
Nb0 P18 2.540366 1_465
Nb0 P18 2.540366 1_565
Nb0 P16 2.647164 1_455
Nb0 P16 2.647164 1_555
Nb1 P1 2.545353 1_455
Nb1 P1 2.545353 1_555
Nb1 P7 2.613200 1_555
Nb1 P7 2.613200 1_455
Nb1 P17 2.769698 1_555
Nb2 P0 2.479183 1_555
Nb2 P12 2.540366 1_655
Nb2 P12 2.540366 1_555
Nb2 P21 2.647164 1_655
Nb2 P21 2.647164 1_555
Nb3 P6 2.581215 1_555
Nb3 P6 2.581215 1_455
Nb3 P18 2.638575 1_555
Nb3 P18 2.638575 1_455
Nb3 P15 2.995890 1_555
Nb4 P13 2.479183 1_555
Nb4 P14 2.540366 1_545
Nb4 P14 2.540366 1_645
Nb4 P17 2.647164 1_655
Nb4 P17 2.647164 1_555
Nb5 P23 2.479183 1_555
Nb5 P2 2.540366 1_555
Nb5 P2 2.540366 1_455
Nb5 P11 2.647164 1_455
Nb5 P11 2.647164 1_555
Nb6 P12 2.567009 1_554
Nb6 P12 2.567009 1_654
Nb6 P23 2.677332 1_555
Nb6 P23 2.677332 1_655
Nb6 P2 2.854149 1_555
Nb7 P6 2.442923 1_555
Nb7 P21 2.561501 1_555
Nb7 P21 2.561501 1_655
Nb7 P19 2.611248 1_655
Nb7 P19 2.611248 1_555
Nb8 P20 2.545353 1_445
Nb8 P20 2.545353 1_545
Nb8 P6 2.613200 1_555
Nb8 P6 2.613200 1_455
Nb8 P21 2.769698 1_555
Nb9 P18 2.567009 1_555
Nb9 P18 2.567009 1_455
Nb9 P13 2.677332 1_555
Nb9 P13 2.677332 1_455
Nb9 P14 2.854149 1_545
Nb10 P7 2.473018 1_555
Nb10 P5 2.532046 1_555
Nb10 P5 2.532046 1_655
Nb10 P4 2.575461 1_555
Nb10 P4 2.575461 1_655
Nb11 P7 2.519269 1_555
Nb11 P1 2.676802 1_555
Nb11 P11 2.683309 1_555
Nb11 P2 2.700781 1_555
Nb12 P0 2.501595 1_554
Nb12 P4 2.513464 1_555
Nb12 P4 2.513464 1_655
Nb12 P2 2.689311 1_555
Nb13 P10 2.473018 1_555
Nb13 P20 2.532046 1_455
Nb13 P20 2.532046 1_555
Nb13 P9 2.575461 1_555
Nb13 P9 2.575461 1_455
Nb14 P22 2.561367 1_455
Nb14 P22 2.561367 1_555
Nb14 P13 2.592117 1_555
Nb14 P13 2.592117 1_455
Nb14 P15 2.898391 1_555
Nb15 P23 2.501595 1_556
Nb15 P9 2.513464 1_555
Nb15 P9 2.513464 1_455
Nb15 P12 2.689311 1_555
Nb16 P13 2.507376 1_555
Nb16 P17 2.541750 1_555
Nb16 P17 2.541750 1_655
Nb16 P1 2.776568 1_555
Nb16 P22 2.857574 1_555
Nb17 P14 2.567009 1_655
Nb17 P14 2.567009 1_555
Nb17 P8 2.677332 1_655
Nb17 P8 2.677332 1_555
Nb17 P18 2.854149 1_565
Nb18 P8 2.507376 1_555
Nb18 P16 2.541750 1_455
Nb18 P16 2.541750 1_555
Nb18 P19 2.776568 1_555
Nb18 P15 2.857574 1_555
Nb19 P6 2.519269 1_555
Nb19 P20 2.676802 1_545
Nb19 P16 2.683309 1_545
Nb19 P18 2.700781 1_555
Nb20 P6 2.473018 1_555
Nb20 P19 2.532046 1_655
Nb20 P19 2.532046 1_555
Nb20 P15 2.575461 1_555
Nb20 P15 2.575461 1_655
Nb21 P9 2.561367 1_445
Nb21 P9 2.561367 1_545
Nb21 P0 2.592117 1_455
Nb21 P0 2.592117 1_555
Nb21 P4 2.898391 1_556
Nb22 P15 2.561367 1_555
Nb22 P15 2.561367 1_655
Nb22 P8 2.592117 1_655
Nb22 P8 2.592117 1_555
Nb22 P22 2.898391 1_555
Nb23 P2 2.567009 1_456
Nb23 P2 2.567009 1_556
Nb23 P0 2.677332 1_455
Nb23 P0 2.677332 1_555
Nb23 P12 2.854149 1_555
Nb24 P0 2.507376 1_555
Nb24 P21 2.541750 1_555
Nb24 P21 2.541750 1_655
Nb24 P20 2.776568 1_545
Nb24 P9 2.857574 1_545
Nb25 P3 2.442923 1_555
Nb25 P11 2.561501 1_455
Nb25 P11 2.561501 1_555
Nb25 P1 2.611248 1_455
Nb25 P1 2.611248 1_555
Nb26 P3 2.581215 1_655
Nb26 P3 2.581215 1_555
Nb26 P14 2.638575 1_555
Nb26 P14 2.638575 1_655
Nb26 P22 2.995890 1_555
Nb27 P10 2.519269 1_555
Nb27 P19 2.676802 1_555
Nb27 P21 2.683309 1_555
Nb27 P12 2.700781 1_555
Nb28 P5 2.545353 1_565
Nb28 P5 2.545353 1_665
Nb28 P3 2.613200 1_555
Nb28 P3 2.613200 1_655
Nb28 P11 2.769698 1_555
Nb29 P19 2.545353 1_655
Nb29 P19 2.545353 1_555
Nb29 P10 2.613200 1_655
Nb29 P10 2.613200 1_555
Nb29 P16 2.769698 1_555
Nb30 P23 2.507376 1_555
Nb30 P11 2.541750 1_455
Nb30 P11 2.541750 1_555
Nb30 P5 2.776568 1_565
Nb30 P4 2.857574 1_565
Nb31 P7 2.581215 1_555
Nb31 P7 2.581215 1_455
Nb31 P2 2.638575 1_555
Nb31 P2 2.638575 1_455
Nb31 P4 2.995890 1_555
Nb32 P10 2.581215 1_555
Nb32 P10 2.581215 1_655
Nb32 P12 2.638575 1_555
Nb32 P12 2.638575 1_655
Nb32 P9 2.995890 1_555
Nb33 P13 2.501595 1_555
Nb33 P15 2.513464 1_555
Nb33 P15 2.513464 1_655
Nb33 P18 2.689311 1_555
Nb34 P10 2.442923 1_555
Nb34 P16 2.561501 1_455
Nb34 P16 2.561501 1_555
Nb34 P20 2.611248 1_455
Nb34 P20 2.611248 1_555
Nb35 P3 2.519269 1_555
Nb35 P5 2.676802 1_565
Nb35 P17 2.683309 1_565
Nb35 P14 2.700781 1_555
Nb36 P8 2.501595 1_555
Nb36 P22 2.513464 1_555
Nb36 P22 2.513464 1_455
Nb36 P14 2.689311 1_555
Nb37 P7 2.442923 1_555
Nb37 P17 2.561501 1_655
Nb37 P17 2.561501 1_555
Nb37 P5 2.611248 1_655
Nb37 P5 2.611248 1_555
Nb38 P3 2.473018 1_555
Nb38 P1 2.532046 1_455
Nb38 P1 2.532046 1_555
Nb38 P22 2.575461 1_555
Nb38 P22 2.575461 1_455
Nb39 P4 2.561367 1_565
Nb39 P4 2.561367 1_665
Nb39 P23 2.592117 1_555
Nb39 P23 2.592117 1_655
Nb39 P9 2.898391 1_554
