# generated using pymatgen
data_SbHCSO3F8
_symmetry_space_group_name_H-M   'P 1'
_cell_length_a   9.70855000
_cell_length_b   8.84389700
_cell_length_c   10.82824612
_cell_angle_alpha   70.79173535
_cell_angle_beta   90.00000000
_cell_angle_gamma   90.00000000
_symmetry_Int_Tables_number   1
_chemical_formula_structural   SbHCSO3F8
_chemical_formula_sum   'Sb4 H4 C4 S4 O12 F32'
_cell_volume   877.96955781
_cell_formula_units_Z   4
loop_
 _symmetry_equiv_pos_site_id
 _symmetry_equiv_pos_as_xyz
  1  'x, y, z'
loop_
 _atom_site_type_symbol
 _atom_site_label
 _atom_site_symmetry_multiplicity
 _atom_site_fract_x
 _atom_site_fract_y
 _atom_site_fract_z
 _atom_site_occupancy
  Sb  Sb0  1  0.67172900  0.74132100  0.91977200  1
  Sb  Sb1  1  0.17172900  0.25867900  0.58022800  1
  Sb  Sb2  1  0.32827100  0.25867900  0.08022800  1
  Sb  Sb3  1  0.82827100  0.74132100  0.41977200  1
  H  H0  1  0.00332200  0.43412900  0.78601700  1
  H  H1  1  0.50332200  0.56587100  0.71398300  1
  H  H2  1  0.99667800  0.56587100  0.21398300  1
  H  H3  1  0.49667800  0.43412900  0.28601700  1
  C  C0  1  0.83706100  0.20190300  0.01432900  1
  C  C1  1  0.33706100  0.79809700  0.48567100  1
  C  C2  1  0.16293900  0.79809700  0.98567100  1
  C  C3  1  0.66293900  0.20190300  0.51432900  1
  S  S0  1  0.81007200  0.40802200  0.88853300  1
  S  S1  1  0.31007200  0.59197800  0.61146700  1
  S  S2  1  0.18992800  0.59197800  0.11146700  1
  S  S3  1  0.68992800  0.40802200  0.38853300  1
  O  O0  1  0.95898700  0.47116600  0.85522700  1
  O  O1  1  0.45898700  0.52883400  0.64477300  1
  O  O2  1  0.04101300  0.52883400  0.14477300  1
  O  O3  1  0.54101300  0.47116600  0.35522700  1
  O  O4  1  0.75306400  0.49977000  0.96933200  1
  O  O5  1  0.25306400  0.50023000  0.53066800  1
  O  O6  1  0.24693600  0.50023000  0.03066800  1
  O  O7  1  0.74693600  0.49977000  0.46933200  1
  O  O8  1  0.73263300  0.39658500  0.77977900  1
  O  O9  1  0.23263300  0.60341500  0.72022100  1
  O  O10  1  0.26736700  0.60341500  0.22022100  1
  O  O11  1  0.76736700  0.39658500  0.27977900  1
  F  F0  1  0.80155100  0.79731500  0.78097500  1
  F  F1  1  0.30155100  0.20268500  0.71902500  1
  F  F2  1  0.19844900  0.20268500  0.21902500  1
  F  F3  1  0.69844900  0.79731500  0.28097500  1
  F  F4  1  0.80788600  0.76405100  0.03835000  1
  F  F5  1  0.30788600  0.23594900  0.46165000  1
  F  F6  1  0.19211400  0.23594900  0.96165000  1
  F  F7  1  0.69211400  0.76405100  0.53835000  1
  F  F8  1  0.59964300  0.95051100  0.87827600  1
  F  F9  1  0.09964300  0.04948900  0.62172400  1
  F  F10  1  0.40035700  0.04948900  0.12172400  1
  F  F11  1  0.90035700  0.95051100  0.37827600  1
  F  F12  1  0.54764800  0.64872400  0.06002700  1
  F  F13  1  0.04764800  0.35127600  0.43997300  1
  F  F14  1  0.45235200  0.35127600  0.93997300  1
  F  F15  1  0.95235200  0.64872400  0.56002700  1
  F  F16  1  0.54261000  0.68366800  0.80561100  1
  F  F17  1  0.04261000  0.31633200  0.69438900  1
  F  F18  1  0.45739000  0.31633200  0.19438900  1
  F  F19  1  0.95739000  0.68366800  0.30561100  1
  F  F20  1  0.71765900  0.14845600  0.07394700  1
  F  F21  1  0.21765900  0.85154400  0.42605300  1
  F  F22  1  0.28234100  0.85154400  0.92605300  1
  F  F23  1  0.78234100  0.14845600  0.57394700  1
  F  F24  1  0.88112700  0.10862700  0.94638700  1
  F  F25  1  0.38112700  0.89137300  0.55361300  1
  F  F26  1  0.11887300  0.89137300  0.05361300  1
  F  F27  1  0.61887300  0.10862700  0.44638700  1
  F  F28  1  0.93165100  0.20954300  0.10151900  1
  F  F29  1  0.43165100  0.79045700  0.39848100  1
  F  F30  1  0.06834900  0.79045700  0.89848100  1
  F  F31  1  0.56834900  0.20954300  0.60151900  1
loop_
_geom_bond_atom_site_label_1
_geom_bond_atom_site_label_2
_geom_bond_distance
_geom_bond_site_symmetry_2
H0 O0 1.007828 1_455
H1 O1 1.007828 1_555
H2 O2 1.007828 1_655
H3 O3 1.007828 1_555
C0 F28 1.334626 1_555
C0 F20 1.335357 1_555
C0 F24 1.343170 1_554
C1 F29 1.334626 1_555
C1 F21 1.335357 1_555
C1 F25 1.343170 1_555
C2 F30 1.334626 1_555
C2 F22 1.335357 1_555
C2 F26 1.343170 1_556
C3 F31 1.334626 1_555
C3 F23 1.335357 1_555
C3 F27 1.343170 1_555
O0 S0 1.549060 1_555
O1 S1 1.549060 1_555
O2 S2 1.549060 1_555
O3 S3 1.549060 1_555
O4 S0 1.482331 1_555
O4 Sb0 2.172730 1_555
O5 S1 1.482331 1_555
O5 Sb1 2.172730 1_555
O6 S2 1.482331 1_555
O6 Sb2 2.172730 1_555
O7 S3 1.482331 1_555
O7 Sb3 2.172730 1_555
O8 S0 1.428502 1_555
O9 S1 1.428502 1_555
O10 S2 1.428502 1_555
O11 S3 1.428502 1_555
F0 Sb0 1.898120 1_555
F1 Sb1 1.898120 1_555
F2 Sb2 1.898120 1_555
F3 Sb3 1.898120 1_555
F4 Sb0 1.899018 1_554
F5 Sb1 1.899018 1_555
F6 Sb2 1.899018 1_556
F7 Sb3 1.899018 1_555
F8 Sb0 1.888756 1_555
F9 Sb1 1.888756 1_555
F10 Sb2 1.888756 1_555
F11 Sb3 1.888756 1_555
F12 Sb0 1.899982 1_554
F13 Sb1 1.899982 1_555
F14 Sb2 1.899982 1_556
F15 Sb3 1.899982 1_555
F16 Sb0 1.942735 1_555
F17 Sb1 1.942735 1_555
F18 Sb2 1.942735 1_555
F19 Sb3 1.942735 1_555
