# generated using pymatgen
data_Nd2InRh2
_symmetry_space_group_name_H-M   'P 1'
_cell_length_a   7.58675400
_cell_length_b   7.58675400
_cell_length_c   4.00338700
_cell_angle_alpha   90.00000000
_cell_angle_beta   90.00000000
_cell_angle_gamma   90.00000000
_symmetry_Int_Tables_number   1
_chemical_formula_structural   Nd2InRh2
_chemical_formula_sum   'Nd4 In2 Rh4'
_cell_volume   230.43029680
_cell_formula_units_Z   2
loop_
 _symmetry_equiv_pos_site_id
 _symmetry_equiv_pos_as_xyz
  1  'x, y, z'
loop_
 _atom_site_type_symbol
 _atom_site_label
 _atom_site_symmetry_multiplicity
 _atom_site_fract_x
 _atom_site_fract_y
 _atom_site_fract_z
 _atom_site_occupancy
  Nd  Nd0  1  0.67300500  0.17300500  0.50000000  1
  Nd  Nd1  1  0.32699500  0.82699500  0.50000000  1
  Nd  Nd2  1  0.82699500  0.67300500  0.50000000  1
  Nd  Nd3  1  0.17300500  0.32699500  0.50000000  1
  In  In0  1  0.50000000  0.50000000  0.00000000  1
  In  In1  1  0.00000000  0.00000000  0.00000000  1
  Rh  Rh0  1  0.36986200  0.13013800  0.00000000  1
  Rh  Rh1  1  0.13013800  0.63013800  0.00000000  1
  Rh  Rh2  1  0.86986200  0.36986200  0.00000000  1
  Rh  Rh3  1  0.63013800  0.86986200  0.00000000  1
loop_
_geom_bond_atom_site_label_1
_geom_bond_atom_site_label_2
_geom_bond_distance
_geom_bond_site_symmetry_2
Nd0 Rh2 2.909965 1_556
Nd0 Rh2 2.909965 1_555
Nd0 Rh3 3.066261 1_546
Nd0 Rh0 3.066261 1_555
Nd0 Rh3 3.066261 1_545
Nd0 Rh0 3.066261 1_556
Nd1 Rh1 2.909965 1_555
Nd1 Rh1 2.909965 1_556
Nd1 Rh3 3.066261 1_555
Nd1 Rh3 3.066261 1_556
Nd1 Rh0 3.066261 1_565
Nd1 Rh0 3.066261 1_566
Nd2 Rh3 2.909965 1_555
Nd2 Rh3 2.909965 1_556
Nd2 Rh2 3.066261 1_556
Nd2 Rh2 3.066261 1_555
Nd2 Rh1 3.066261 1_656
Nd2 Rh1 3.066261 1_655
Nd3 Rh0 2.909965 1_556
Nd3 Rh0 2.909965 1_555
Nd3 Rh2 3.066261 1_456
Nd3 Rh2 3.066261 1_455
Nd3 Rh1 3.066261 1_555
Nd3 Rh1 3.066261 1_556
In0 Rh0 2.974683 1_555
In0 Rh1 2.974683 1_555
In0 Rh3 2.974683 1_555
In0 Rh2 2.974683 1_555
In0 Nd0 3.447329 1_555
In0 Nd3 3.447329 1_555
In0 Nd2 3.447329 1_554
In0 Nd3 3.447329 1_554
In0 Nd0 3.447329 1_554
In0 Nd2 3.447329 1_555
In0 Nd1 3.447329 1_554
In0 Nd1 3.447329 1_555
In1 Rh0 2.974683 1_555
In1 Rh2 2.974683 1_455
In1 Rh1 2.974683 1_545
In1 Rh3 2.974683 1_445
In1 Nd1 3.447329 1_544
In1 Nd1 3.447329 1_545
In1 Nd3 3.447329 1_554
In1 Nd3 3.447329 1_555
In1 Nd0 3.447329 1_455
In1 Nd0 3.447329 1_454
In1 Nd2 3.447329 1_445
In1 Nd2 3.447329 1_444
Rh0 Rh3 2.792577 1_545
Rh1 Rh2 2.792577 1_455
