# generated using pymatgen
data_Mg3In
_symmetry_space_group_name_H-M   'P 1'
_cell_length_a   10.97227564
_cell_length_b   10.97227564
_cell_length_c   10.97227552
_cell_angle_alpha   33.27955158
_cell_angle_beta   33.27955158
_cell_angle_gamma   33.27955473
_symmetry_Int_Tables_number   1
_chemical_formula_structural   Mg3In
_chemical_formula_sum   'Mg12 In4'
_cell_volume   354.11485362
_cell_formula_units_Z   4
loop_
 _symmetry_equiv_pos_site_id
 _symmetry_equiv_pos_as_xyz
  1  'x, y, z'
loop_
 _atom_site_type_symbol
 _atom_site_label
 _atom_site_symmetry_multiplicity
 _atom_site_fract_x
 _atom_site_fract_y
 _atom_site_fract_z
 _atom_site_occupancy
  Mg  Mg0  1  0.00128238  0.49935040  0.49935040  1
  Mg  Mg1  1  0.49935040  0.49935040  0.00128238  1
  Mg  Mg2  1  0.49935040  0.00128238  0.49935040  1
  Mg  Mg3  1  0.41687735  0.91660806  0.91660806  1
  Mg  Mg4  1  0.91660806  0.91660806  0.41687735  1
  Mg  Mg5  1  0.91660806  0.41687735  0.91660806  1
  Mg  Mg6  1  0.83312265  0.33339094  0.33339094  1
  Mg  Mg7  1  0.33339094  0.33339094  0.83312265  1
  Mg  Mg8  1  0.33339094  0.83312265  0.33339094  1
  Mg  Mg9  1  0.24871762  0.75064960  0.75064960  1
  Mg  Mg10  1  0.75064960  0.75064960  0.24871762  1
  Mg  Mg11  1  0.75064960  0.24871762  0.75064960  1
  In  In0  1  0.99971619  0.99971619  0.99971619  1
  In  In1  1  0.25028381  0.25028381  0.25028381  1
  In  In2  1  0.41576953  0.41576953  0.41576953  1
  In  In3  1  0.83423047  0.83423047  0.83423047  1
loop_
_geom_bond_atom_site_label_1
_geom_bond_atom_site_label_2
_geom_bond_distance
_geom_bond_site_symmetry_2
Mg0 Mg1 3.129810 1_555
Mg0 Mg2 3.129810 1_555
Mg0 Mg1 3.154091 1_456
Mg0 Mg2 3.154091 1_465
Mg0 Mg5 3.163748 1_455
Mg0 Mg4 3.163748 1_455
Mg0 Mg11 3.164817 1_455
Mg0 Mg10 3.164817 1_455
Mg1 Mg2 3.129810 1_555
Mg1 Mg2 3.154091 1_564
Mg1 Mg5 3.163748 1_554
Mg1 Mg3 3.163748 1_554
Mg1 Mg11 3.164817 1_554
Mg1 Mg9 3.164817 1_554
Mg2 Mg3 3.163748 1_545
Mg2 Mg4 3.163748 1_545
Mg2 Mg9 3.164817 1_545
Mg3 Mg4 3.140258 1_555
Mg3 Mg5 3.140259 1_555
Mg3 Mg4 3.143643 1_456
Mg3 Mg5 3.143643 1_465
Mg3 Mg8 3.160032 1_556
Mg3 Mg7 3.160032 1_565
Mg4 Mg5 3.140258 1_555
Mg4 Mg5 3.143643 1_564
Mg4 Mg6 3.160032 1_565
Mg4 Mg8 3.160032 1_655
Mg5 Mg6 3.160032 1_556
Mg5 Mg7 3.160032 1_655
Mg6 Mg7 3.140265 1_555
Mg6 Mg8 3.140265 1_555
Mg6 Mg7 3.143636 1_654
Mg6 Mg8 3.143637 1_645
Mg7 Mg8 3.140265 1_555
Mg7 Mg8 3.143636 1_546
Mg7 Mg9 3.163766 1_555
Mg8 Mg9 3.163766 1_555
Mg10 Mg9 3.129810 1_654
Mg10 Mg11 3.129810 1_564
Mg10 Mg9 3.154091 1_555
Mg10 Mg11 3.154091 1_555
Mg10 Mg8 3.163766 1_555
Mg10 Mg6 3.163766 1_555
Mg10 Mg2 3.164817 1_565
Mg11 Mg9 3.129810 1_645
Mg11 Mg9 3.154091 1_555
Mg11 Mg6 3.163766 1_555
Mg11 Mg7 3.163766 1_555
In0 Mg0 3.141970 1_665
In0 Mg2 3.141970 1_665
In0 Mg2 3.141970 1_566
In0 Mg0 3.141970 1_656
In0 Mg1 3.141970 1_656
In0 Mg1 3.141970 1_566
In0 Mg10 3.149689 1_556
In0 Mg11 3.149689 1_565
In0 Mg9 3.149689 1_655
In0 Mg4 3.169652 1_556
In0 Mg5 3.169652 1_565
In0 Mg3 3.169652 1_655
In1 Mg9 3.141970 1_545
In1 Mg11 3.141970 1_455
In1 Mg9 3.141970 1_554
In1 Mg11 3.141970 1_554
In1 Mg10 3.141970 1_545
In1 Mg10 3.141970 1_455
In1 Mg1 3.149689 1_555
In1 Mg2 3.149689 1_555
In1 Mg0 3.149689 1_555
In1 Mg7 3.169666 1_554
In1 Mg6 3.169667 1_455
In1 Mg8 3.169667 1_545
In2 Mg1 3.134387 1_555
In2 Mg2 3.134387 1_555
In2 Mg0 3.134387 1_555
In2 Mg5 3.142083 1_554
In2 Mg3 3.142083 1_554
In2 Mg5 3.142083 1_455
In2 Mg3 3.142083 1_545
In2 Mg4 3.142083 1_545
In2 Mg4 3.142083 1_455
In2 Mg7 3.182571 1_555
In2 Mg8 3.182572 1_555
In2 Mg6 3.182572 1_555
In3 Mg10 3.134387 1_556
In3 Mg11 3.134387 1_565
In3 Mg9 3.134387 1_655
In3 Mg8 3.142083 1_556
In3 Mg6 3.142083 1_556
In3 Mg6 3.142083 1_565
In3 Mg8 3.142083 1_655
In3 Mg7 3.142083 1_565
In3 Mg7 3.142083 1_655
In3 Mg4 3.182586 1_555
In3 Mg3 3.182587 1_555
In3 Mg5 3.182587 1_555
