# generated using pymatgen
data_Pr2Fe14B
_symmetry_space_group_name_H-M   'P 1'
_cell_length_a   8.75066500
_cell_length_b   8.75066500
_cell_length_c   12.61242500
_cell_angle_alpha   90.00000000
_cell_angle_beta   90.00000000
_cell_angle_gamma   90.00000000
_symmetry_Int_Tables_number   1
_chemical_formula_structural   Pr2Fe14B
_chemical_formula_sum   'Pr8 Fe56 B4'
_cell_volume   965.78557174
_cell_formula_units_Z   4
loop_
 _symmetry_equiv_pos_site_id
 _symmetry_equiv_pos_as_xyz
  1  'x, y, z'
loop_
 _atom_site_type_symbol
 _atom_site_label
 _atom_site_symmetry_multiplicity
 _atom_site_fract_x
 _atom_site_fract_y
 _atom_site_fract_z
 _atom_site_occupancy
  Pr  Pr0  1  0.24178200  0.24178200  0.00000000  1
  Pr  Pr1  1  0.25821800  0.74178200  0.50000000  1
  Pr  Pr2  1  0.67999300  0.67999300  0.50000000  1
  Pr  Pr3  1  0.75821800  0.75821800  0.00000000  1
  Pr  Pr4  1  0.32000700  0.32000700  0.50000000  1
  Pr  Pr5  1  0.17999300  0.82000700  0.00000000  1
  Pr  Pr6  1  0.74178200  0.25821800  0.50000000  1
  Pr  Pr7  1  0.82000700  0.17999300  0.00000000  1
  Fe  Fe0  1  0.47481900  0.85641700  0.67806300  1
  Fe  Fe1  1  0.47481900  0.85641700  0.32193700  1
  Fe  Fe2  1  0.30488700  0.30488700  0.25010800  1
  Fe  Fe3  1  0.14358300  0.52518100  0.32193700  1
  Fe  Fe4  1  0.73244700  0.95866000  0.61446400  1
  Fe  Fe5  1  0.69511300  0.69511300  0.25010800  1
  Fe  Fe6  1  0.00000000  0.00000000  0.10115100  1
  Fe  Fe7  1  0.85641700  0.47481900  0.32193700  1
  Fe  Fe8  1  0.76755300  0.45866000  0.88553600  1
  Fe  Fe9  1  0.60259500  0.39740500  0.74492200  1
  Fe  Fe10  1  0.26755300  0.04134000  0.38553600  1
  Fe  Fe11  1  0.97481900  0.64358300  0.82193700  1
  Fe  Fe12  1  0.73244700  0.95866000  0.38553600  1
  Fe  Fe13  1  0.14358300  0.52518100  0.67806300  1
  Fe  Fe14  1  0.89740500  0.89740500  0.75507800  1
  Fe  Fe15  1  0.85641700  0.47481900  0.67806300  1
  Fe  Fe16  1  0.50000000  0.50000000  0.39884900  1
  Fe  Fe17  1  0.30488700  0.30488700  0.74989200  1
  Fe  Fe18  1  0.50000000  0.50000000  0.60115100  1
  Fe  Fe19  1  0.26755300  0.04134000  0.61446400  1
  Fe  Fe20  1  0.54134000  0.23244700  0.88553600  1
  Fe  Fe21  1  0.45866000  0.76755300  0.88553600  1
  Fe  Fe22  1  0.10259500  0.10259500  0.75507800  1
  Fe  Fe23  1  0.54134000  0.23244700  0.11446400  1
  Fe  Fe24  1  0.76755300  0.45866000  0.11446400  1
  Fe  Fe25  1  0.04134000  0.26755300  0.38553600  1
  Fe  Fe26  1  0.10259500  0.10259500  0.24492200  1
  Fe  Fe27  1  0.02518100  0.35641700  0.82193700  1
  Fe  Fe28  1  0.89740500  0.89740500  0.24492200  1
  Fe  Fe29  1  0.35641700  0.02518100  0.17806300  1
  Fe  Fe30  1  0.45866000  0.76755300  0.11446400  1
  Fe  Fe31  1  0.60259500  0.39740500  0.25507800  1
  Fe  Fe32  1  0.69511300  0.69511300  0.74989200  1
  Fe  Fe33  1  0.80488700  0.19511300  0.75010800  1
  Fe  Fe34  1  0.23244700  0.54134000  0.11446400  1
  Fe  Fe35  1  0.02518100  0.35641700  0.17806300  1
  Fe  Fe36  1  0.64358300  0.97481900  0.17806300  1
  Fe  Fe37  1  0.39740500  0.60259500  0.25507800  1
  Fe  Fe38  1  0.95866000  0.73244700  0.61446400  1
  Fe  Fe39  1  0.50000000  0.00000000  0.00000000  1
  Fe  Fe40  1  0.80488700  0.19511300  0.24989200  1
  Fe  Fe41  1  0.04134000  0.26755300  0.61446400  1
  Fe  Fe42  1  0.52518100  0.14358300  0.67806300  1
  Fe  Fe43  1  0.64358300  0.97481900  0.82193700  1
  Fe  Fe44  1  0.00000000  0.00000000  0.89884900  1
  Fe  Fe45  1  0.95866000  0.73244700  0.38553600  1
  Fe  Fe46  1  0.52518100  0.14358300  0.32193700  1
  Fe  Fe47  1  0.97481900  0.64358300  0.17806300  1
  Fe  Fe48  1  0.19511300  0.80488700  0.24989200  1
  Fe  Fe49  1  0.19511300  0.80488700  0.75010800  1
  Fe  Fe50  1  0.00000000  0.50000000  0.00000000  1
  Fe  Fe51  1  0.39740500  0.60259500  0.74492200  1
  Fe  Fe52  1  0.35641700  0.02518100  0.82193700  1
  Fe  Fe53  1  0.00000000  0.50000000  0.50000000  1
  Fe  Fe54  1  0.23244700  0.54134000  0.88553600  1
  Fe  Fe55  1  0.50000000  0.00000000  0.50000000  1
  B  B0  1  0.60373100  0.39626900  0.00000000  1
  B  B1  1  0.39626900  0.60373100  0.00000000  1
  B  B2  1  0.89626900  0.89626900  0.50000000  1
  B  B3  1  0.10373100  0.10373100  0.50000000  1
loop_
_geom_bond_atom_site_label_1
_geom_bond_atom_site_label_2
_geom_bond_distance
_geom_bond_site_symmetry_2
Fe0 Fe51 2.470489 1_555
Fe0 Fe42 2.551245 1_565
Fe0 Fe4 2.554662 1_555
Fe0 Fe32 2.555231 1_555
Fe0 Fe52 2.558749 1_565
Fe0 Fe43 2.558749 1_555
Fe0 Fe19 2.559601 1_565
Fe0 Fe55 2.582800 1_565
Fe0 Fe49 2.649492 1_555
Fe0 Fe21 2.733496 1_555
Fe0 Pr1 3.105233 1_555
Fe0 Pr2 3.263517 1_555
Fe1 Fe37 2.470489 1_555
Fe1 Fe46 2.551245 1_565
Fe1 Fe12 2.554662 1_555
Fe1 Fe5 2.555231 1_555
Fe1 Fe29 2.558749 1_565
Fe1 Fe36 2.558749 1_555
Fe1 Fe10 2.559601 1_565
Fe1 Fe55 2.582800 1_565
Fe1 Fe48 2.649492 1_555
Fe1 Fe30 2.733496 1_555
Fe1 Pr1 3.105233 1_555
Fe1 Pr2 3.263517 1_555
Fe2 Fe26 2.504280 1_555
Fe2 Fe46 2.555231 1_555
Fe2 Fe3 2.555231 1_555
Fe2 Fe35 2.649492 1_555
Fe2 Fe29 2.649492 1_555
Fe2 Fe31 2.728762 1_555
Fe2 Fe37 2.728762 1_555
Fe2 Fe23 2.758609 1_555
Fe2 Fe34 2.758609 1_555
Fe2 Fe25 2.888402 1_555
Fe2 Pr4 3.157294 1_555
Fe2 Pr0 3.249699 1_555
Fe3 Fe37 2.470489 1_555
Fe3 Fe7 2.551245 1_455
Fe3 Fe47 2.558749 1_455
Fe3 Fe35 2.558749 1_555
Fe3 Fe45 2.559601 1_455
Fe3 Fe53 2.582800 1_555
Fe3 Fe48 2.649492 1_555
Fe3 Fe34 2.733496 1_555
Fe3 Pr1 3.105233 1_555
Fe3 Pr4 3.263517 1_555
Fe4 Fe55 2.520410 1_565
Fe4 Fe42 2.559601 1_565
Fe4 Fe43 2.733496 1_555
Fe4 Pr2 2.870758 1_555
Fe4 Pr6 2.993699 1_565
Fe5 Fe7 2.555231 1_555
Fe5 Pr2 3.157294 1_555
Fe5 Pr3 3.249699 1_555
Fe6 Pr7 2.566940 1_455
Fe6 Pr5 2.566940 1_545
Fe6 Pr0 3.252751 1_555
Fe6 Pr3 3.252751 1_445
Fe7 Pr6 3.105233 1_555
Fe7 Pr2 3.263517 1_555
Fe8 Fe9 2.348666 1_555
Fe8 Pr7 2.870758 1_556
Fe8 Pr3 2.993699 1_556
Fe10 Fe26 2.348666 1_555
Fe10 Fe55 2.520410 1_555
Fe10 Fe46 2.554662 1_555
Fe10 Fe29 2.733496 1_555
Fe10 Fe48 2.758609 1_545
Fe10 Pr4 2.870758 1_555
Fe10 Fe2 2.888402 1_555
Fe10 Pr1 2.993699 1_545
Fe11 Fe14 2.470489 1_555
Fe11 Fe27 2.551245 1_655
Fe11 Fe54 2.554662 1_655
Fe11 Fe49 2.555231 1_655
Fe11 Fe13 2.558749 1_655
Fe11 Fe15 2.558749 1_555
Fe11 Fe8 2.559601 1_555
Fe11 Fe50 2.582800 1_656
Fe11 Fe32 2.649492 1_555
Fe11 Fe38 2.733496 1_555
Fe11 Pr3 3.105233 1_556
Fe11 Pr5 3.263517 1_656
Fe12 Fe28 2.348666 1_555
Fe12 Fe55 2.520410 1_565
Fe12 Fe46 2.559601 1_565
Fe12 Fe36 2.733496 1_555
Fe12 Fe40 2.758609 1_565
Fe12 Pr2 2.870758 1_555
Fe12 Fe5 2.888402 1_555
Fe12 Pr6 2.993699 1_565
Fe13 Fe51 2.470489 1_555
Fe13 Fe15 2.551245 1_455
Fe13 Fe41 2.554662 1_555
Fe13 Fe17 2.555231 1_555
Fe13 Fe27 2.558749 1_555
Fe13 Fe38 2.559601 1_455
Fe13 Fe53 2.582800 1_555
Fe13 Fe49 2.649492 1_555
Fe13 Fe54 2.733496 1_555
Fe13 Pr1 3.105233 1_555
Fe13 Pr4 3.263517 1_555
Fe14 Fe44 2.213608 1_665
Fe14 Fe38 2.348666 1_555
Fe14 Fe4 2.348666 1_555
Fe14 Fe43 2.470489 1_555
Fe14 Fe32 2.504280 1_555
Fe14 Fe22 2.539290 1_665
Fe14 Fe33 2.728762 1_565
Fe14 Fe49 2.728762 1_655
Fe15 Fe9 2.470489 1_555
Fe15 Fe38 2.554662 1_555
Fe15 Fe32 2.555231 1_555
Fe15 Fe27 2.558749 1_655
Fe15 Fe41 2.559601 1_655
Fe15 Fe53 2.582800 1_655
Fe15 Fe33 2.649492 1_555
Fe15 Fe8 2.733496 1_555
Fe15 Pr6 3.105233 1_555
Fe15 Pr2 3.263517 1_555
Fe16 Fe31 2.213608 1_555
Fe16 Fe37 2.213608 1_555
Fe16 Fe18 2.551519 1_555
Fe16 Pr2 2.566940 1_555
Fe16 Pr4 2.566940 1_555
Fe16 Fe5 3.057701 1_555
Fe16 Fe2 3.057701 1_555
Fe16 Pr1 3.252751 1_555
Fe16 Pr6 3.252751 1_555
Fe17 Fe22 2.504280 1_555
Fe17 Fe42 2.555231 1_555
Fe17 Fe27 2.649492 1_555
Fe17 Fe52 2.649492 1_555
Fe17 Fe9 2.728762 1_555
Fe17 Fe51 2.728762 1_555
Fe17 Fe54 2.758609 1_555
Fe17 Fe20 2.758609 1_555
Fe17 Fe19 2.888402 1_555
Fe17 Fe41 2.888402 1_555
Fe17 Fe18 3.057701 1_555
Fe17 Pr4 3.157294 1_555
Fe17 Pr0 3.249699 1_556
Fe18 Fe9 2.213608 1_555
Fe18 Fe51 2.213608 1_555
Fe18 Pr2 2.566940 1_555
Fe18 Pr4 2.566940 1_555
Fe18 Fe32 3.057701 1_555
Fe18 Pr1 3.252751 1_555
Fe18 Pr6 3.252751 1_555
Fe19 Fe22 2.348666 1_555
Fe19 Fe55 2.520410 1_555
Fe19 Fe42 2.554662 1_555
Fe19 Fe52 2.733496 1_555
Fe19 Fe49 2.758609 1_545
Fe19 Pr4 2.870758 1_555
Fe19 Pr1 2.993699 1_545
Fe20 Fe9 2.348666 1_555
Fe20 Fe39 2.520410 1_556
Fe20 Fe43 2.554662 1_545
Fe20 Fe52 2.559601 1_555
Fe20 Fe42 2.733496 1_555
Fe20 Pr7 2.870758 1_556
Fe20 Fe33 2.888402 1_555
Fe20 Pr0 2.993699 1_556
Fe21 Fe51 2.348666 1_555
Fe21 Fe39 2.520410 1_566
Fe21 Fe52 2.554662 1_565
Fe21 Fe43 2.559601 1_555
Fe21 Fe32 2.758609 1_555
Fe21 Pr5 2.870758 1_556
Fe21 Fe49 2.888402 1_555
Fe21 Pr3 2.993699 1_556
Fe22 Fe44 2.213608 1_555
Fe22 Fe41 2.348666 1_555
Fe22 Fe52 2.470489 1_555
Fe22 Fe27 2.470489 1_555
Fe22 Fe49 2.728762 1_545
Fe22 Fe33 2.728762 1_455
Fe23 Fe31 2.348666 1_555
Fe23 Fe39 2.520410 1_555
Fe23 Fe36 2.554662 1_545
Fe23 Fe29 2.559601 1_555
Fe23 Fe46 2.733496 1_555
Fe23 Pr7 2.870758 1_555
Fe23 Fe40 2.888402 1_555
Fe23 Pr0 2.993699 1_555
Fe24 Fe31 2.348666 1_555
Fe24 Fe50 2.520410 1_655
Fe24 Fe35 2.554662 1_655
Fe24 Fe47 2.559601 1_555
Fe24 Fe7 2.733496 1_555
Fe24 Fe5 2.758609 1_555
Fe24 Pr7 2.870758 1_555
Fe24 Fe40 2.888402 1_555
Fe24 Pr3 2.993699 1_555
Fe25 Fe26 2.348666 1_555
Fe25 Fe53 2.520410 1_555
Fe25 Fe3 2.554662 1_555
Fe25 Fe7 2.559601 1_455
Fe25 Fe35 2.733496 1_555
Fe25 Fe40 2.758609 1_455
Fe25 Pr4 2.870758 1_555
Fe25 Pr6 2.993699 1_455
Fe26 Fe6 2.213608 1_555
Fe26 Fe29 2.470489 1_555
Fe26 Fe35 2.470489 1_555
Fe26 Fe28 2.539290 1_445
Fe26 Fe48 2.728762 1_545
Fe26 Fe40 2.728762 1_455
Fe27 Fe8 2.554662 1_455
Fe27 Fe33 2.555231 1_455
Fe27 Fe54 2.559601 1_555
Fe27 Fe50 2.582800 1_556
Fe27 Fe41 2.733496 1_555
Fe27 Pr0 3.105233 1_556
Fe27 Pr7 3.263517 1_456
Fe28 Fe6 2.213608 1_665
Fe28 Fe45 2.348666 1_555
Fe28 Fe36 2.470489 1_555
Fe28 Fe47 2.470489 1_555
Fe28 Fe5 2.504280 1_555
Fe28 Fe40 2.728762 1_565
Fe28 Fe48 2.728762 1_655
Fe29 Fe36 2.551245 1_545
Fe29 Fe30 2.554662 1_545
Fe29 Fe48 2.555231 1_545
Fe29 Fe46 2.558749 1_555
Fe29 Fe39 2.582800 1_555
Fe29 Pr0 3.105233 1_555
Fe29 Pr5 3.263517 1_545
Fe30 Fe37 2.348666 1_555
Fe30 Fe39 2.520410 1_565
Fe30 Fe36 2.559601 1_555
Fe30 Fe5 2.758609 1_555
Fe30 Pr5 2.870758 1_555
Fe30 Fe48 2.888402 1_555
Fe30 Pr3 2.993699 1_555
Fe31 Fe7 2.470489 1_555
Fe31 Fe46 2.470489 1_555
Fe31 Fe40 2.504280 1_555
Fe31 Fe37 2.539290 1_555
Fe31 Fe5 2.728762 1_555
Fe32 Fe43 2.649492 1_555
Fe32 Fe9 2.728762 1_555
Fe32 Fe51 2.728762 1_555
Fe32 Fe8 2.758609 1_555
Fe32 Fe38 2.888402 1_555
Fe32 Fe4 2.888402 1_555
Fe32 Pr2 3.157294 1_555
Fe32 Pr3 3.249699 1_556
Fe33 Fe9 2.504280 1_555
Fe33 Fe43 2.555231 1_545
Fe33 Fe42 2.649492 1_555
Fe33 Fe41 2.758609 1_655
Fe33 Fe4 2.758609 1_545
Fe33 Fe8 2.888402 1_555
Fe33 Fe44 3.057701 1_655
Fe33 Pr7 3.157294 1_556
Fe33 Pr6 3.249699 1_555
Fe34 Fe37 2.348666 1_555
Fe34 Fe50 2.520410 1_555
Fe34 Fe47 2.554662 1_455
Fe34 Fe35 2.559601 1_555
Fe34 Pr5 2.870758 1_555
Fe34 Fe48 2.888402 1_555
Fe34 Pr0 2.993699 1_555
Fe35 Fe47 2.551245 1_455
Fe35 Fe40 2.555231 1_455
Fe35 Fe7 2.558749 1_455
Fe35 Fe50 2.582800 1_555
Fe35 Pr0 3.105233 1_555
Fe35 Pr7 3.263517 1_455
Fe36 Fe40 2.555231 1_565
Fe36 Fe46 2.558749 1_565
Fe36 Fe39 2.582800 1_565
Fe36 Fe5 2.649492 1_555
Fe36 Pr3 3.105233 1_555
Fe36 Pr7 3.263517 1_565
Fe37 Fe48 2.504280 1_555
Fe37 Fe5 2.728762 1_555
Fe38 Fe53 2.520410 1_655
Fe38 Fe49 2.758609 1_655
Fe38 Pr2 2.870758 1_555
Fe38 Pr1 2.993699 1_655
Fe39 Fe52 2.582800 1_554
Fe39 Fe43 2.582800 1_544
Fe39 Pr0 3.095498 1_555
Fe39 Pr3 3.095498 1_545
Fe39 Pr7 3.212840 1_555
Fe39 Pr5 3.212840 1_545
Fe40 Fe7 2.649492 1_555
Fe40 Fe46 2.649492 1_555
Fe40 Fe6 3.057701 1_655
Fe40 Pr7 3.157294 1_555
Fe40 Pr6 3.249699 1_555
Fe41 Fe53 2.520410 1_555
Fe41 Pr4 2.870758 1_555
Fe41 Pr6 2.993699 1_455
Fe42 Fe9 2.470489 1_555
Fe42 Fe43 2.558749 1_545
Fe42 Fe52 2.558749 1_555
Fe42 Fe55 2.582800 1_555
Fe42 Pr6 3.105233 1_555
Fe42 Pr4 3.263517 1_555
Fe43 Fe52 2.551245 1_565
Fe43 Pr3 3.105233 1_556
Fe43 Pr7 3.263517 1_566
Fe44 Fe6 2.551519 1_556
Fe44 Pr7 2.566940 1_456
Fe44 Pr5 2.566940 1_546
Fe44 Fe49 3.057701 1_545
Fe44 Pr0 3.252751 1_556
Fe44 Pr3 3.252751 1_446
Fe45 Fe53 2.520410 1_655
Fe45 Fe7 2.554662 1_555
Fe45 Fe47 2.733496 1_555
Fe45 Fe48 2.758609 1_655
Fe45 Pr2 2.870758 1_555
Fe45 Fe5 2.888402 1_555
Fe45 Pr1 2.993699 1_655
Fe46 Fe55 2.582800 1_555
Fe46 Pr6 3.105233 1_555
Fe46 Pr4 3.263517 1_555
Fe47 Fe48 2.555231 1_655
Fe47 Fe7 2.558749 1_555
Fe47 Fe50 2.582800 1_655
Fe47 Fe5 2.649492 1_555
Fe47 Pr3 3.105233 1_555
Fe47 Pr5 3.263517 1_655
Fe48 Fe6 3.057701 1_565
Fe48 Pr5 3.157294 1_555
Fe48 Pr1 3.249699 1_555
Fe49 Fe51 2.504280 1_555
Fe49 Fe52 2.555231 1_565
Fe49 Fe54 2.888402 1_555
Fe49 Pr5 3.157294 1_556
Fe49 Pr1 3.249699 1_555
Fe50 Fe8 2.520410 1_454
Fe50 Fe54 2.520410 1_554
Fe50 Pr3 3.095498 1_455
Fe50 Pr0 3.095498 1_555
Fe50 Pr5 3.212840 1_555
Fe50 Pr7 3.212840 1_455
Fe51 Fe54 2.348666 1_555
Fe51 Fe9 2.539290 1_555
Fe52 Pr0 3.105233 1_556
Fe52 Pr5 3.263517 1_546
Fe53 Fe7 2.582800 1_455
Fe53 Pr6 3.095498 1_455
Fe53 Pr1 3.095498 1_555
Fe53 Pr4 3.212840 1_555
Fe53 Pr2 3.212840 1_455
Fe54 Pr5 2.870758 1_556
Fe54 Pr0 2.993699 1_556
Fe55 Pr1 3.095498 1_545
Fe55 Pr6 3.095498 1_555
Fe55 Pr4 3.212840 1_555
Fe55 Pr2 3.212840 1_545
B0 Fe23 2.106496 1_555
B0 Fe20 2.106496 1_554
B0 Fe24 2.106496 1_555
B0 Fe8 2.106496 1_554
B0 Pr7 2.676482 1_555
B1 Fe34 2.106496 1_555
B1 Fe21 2.106496 1_554
B1 Fe30 2.106496 1_555
B1 Fe54 2.106496 1_554
B1 Pr5 2.676482 1_555
B2 Fe45 2.106496 1_555
B2 Fe4 2.106496 1_555
B2 Fe12 2.106496 1_555
B2 Fe38 2.106496 1_555
B2 Pr2 2.676482 1_555
B3 Fe41 2.106496 1_555
B3 Fe25 2.106496 1_555
B3 Fe19 2.106496 1_555
B3 Fe10 2.106496 1_555
B3 Pr4 2.676482 1_555
