# generated using pymatgen
data_BaBe2Si2O7
_symmetry_space_group_name_H-M   'P 1'
_cell_length_a   4.67397451
_cell_length_b   9.81031425
_cell_length_c   11.70088373
_cell_angle_alpha   90.00000000
_cell_angle_beta   90.00000000
_cell_angle_gamma   90.00000000
_symmetry_Int_Tables_number   1
_chemical_formula_structural   BaBe2Si2O7
_chemical_formula_sum   'Ba4 Be8 Si8 O28'
_cell_volume   536.52247907
_cell_formula_units_Z   4
loop_
 _symmetry_equiv_pos_site_id
 _symmetry_equiv_pos_as_xyz
  1  'x, y, z'
loop_
 _atom_site_type_symbol
 _atom_site_label
 _atom_site_symmetry_multiplicity
 _atom_site_fract_x
 _atom_site_fract_y
 _atom_site_fract_z
 _atom_site_occupancy
  Ba  Ba0  1  0.75192906  0.84859435  0.25000000  1
  Ba  Ba1  1  0.25192806  0.65140565  0.75000000  1
  Ba  Ba2  1  0.74807094  0.34859435  0.25000000  1
  Ba  Ba3  1  0.24807094  0.15140565  0.75000000  1
  Be  Be0  1  0.70455476  0.16346192  0.50067812  1
  Be  Be1  1  0.70455476  0.16346192  0.99932188  1
  Be  Be2  1  0.20455476  0.33653808  0.00067812  1
  Be  Be3  1  0.79544524  0.66346192  0.50067812  1
  Be  Be4  1  0.29544524  0.83653808  0.49932188  1
  Be  Be5  1  0.20455476  0.33653808  0.49932188  1
  Be  Be6  1  0.79544524  0.66346192  0.99932188  1
  Be  Be7  1  0.29544524  0.83653808  0.00067812  1
  Si  Si0  1  0.20262099  0.08855185  0.12182631  1
  Si  Si1  1  0.70262099  0.41144815  0.87817369  1
  Si  Si2  1  0.29737901  0.58855185  0.37817369  1
  Si  Si3  1  0.79737901  0.91144815  0.62182631  1
  Si  Si4  1  0.79737901  0.91144815  0.87817369  1
  Si  Si5  1  0.29737901  0.58855185  0.12182631  1
  Si  Si6  1  0.70262099  0.41144815  0.62182631  1
  Si  Si7  1  0.20262099  0.08855185  0.37817369  1
  O  O0  1  0.70236123  0.85595537  0.75000000  1
  O  O1  1  0.29763877  0.14404463  0.25000000  1
  O  O2  1  0.79763877  0.35595537  0.75000000  1
  O  O3  1  0.20236123  0.64404463  0.25000000  1
  O  O4  1  0.86106031  0.10893866  0.11235710  1
  O  O5  1  0.36106031  0.39106134  0.88764290  1
  O  O6  1  0.63893969  0.60893866  0.38764290  1
  O  O7  1  0.13893969  0.89106134  0.61235710  1
  O  O8  1  0.13893969  0.89106134  0.88764290  1
  O  O9  1  0.63893969  0.60893866  0.11235710  1
  O  O10  1  0.36106031  0.39106134  0.61235710  1
  O  O11  1  0.86106031  0.10893866  0.38764290  1
  O  O12  1  0.21535238  0.43003391  0.38638412  1
  O  O13  1  0.71535238  0.06996609  0.61361588  1
  O  O14  1  0.28464762  0.93003391  0.11361588  1
  O  O15  1  0.78464762  0.56996609  0.88638412  1
  O  O16  1  0.78464762  0.56996609  0.61361588  1
  O  O17  1  0.28464762  0.93003391  0.38638412  1
  O  O18  1  0.71535238  0.06996609  0.88638412  1
  O  O19  1  0.21535238  0.43003391  0.11361588  1
  O  O20  1  0.36171502  0.18863912  0.46945343  1
  O  O21  1  0.86171502  0.31136088  0.53054657  1
  O  O22  1  0.13828498  0.68863912  0.03054657  1
  O  O23  1  0.63828498  0.81136088  0.96945343  1
  O  O24  1  0.63828498  0.81136088  0.53054657  1
  O  O25  1  0.13828498  0.68863912  0.46945343  1
  O  O26  1  0.86171502  0.31136088  0.96945343  1
  O  O27  1  0.36171502  0.18863912  0.03054657  1
loop_
_geom_bond_atom_site_label_1
_geom_bond_atom_site_label_2
_geom_bond_distance
_geom_bond_site_symmetry_2
Ba0 O17 2.820473 1_555
Ba0 O14 2.820473 1_555
Ba0 O9 2.898346 1_555
Ba0 O6 2.898346 1_555
Ba0 O3 2.908463 1_655
Ba0 O11 3.062229 1_565
Ba0 O4 3.062229 1_565
Ba0 O14 3.063431 1_655
Ba0 O17 3.063431 1_655
Ba1 O16 2.820469 1_455
Ba1 O15 2.820469 1_455
Ba1 O7 2.898345 1_555
Ba1 O8 2.898345 1_555
Ba1 O0 2.908466 1_555
Ba1 O10 3.062230 1_555
Ba1 O5 3.062230 1_555
Ba1 O15 3.063435 1_555
Ba1 O16 3.063435 1_555
Ba2 O19 2.820473 1_655
Ba2 O12 2.820473 1_655
Ba2 O4 2.898346 1_555
Ba2 O11 2.898346 1_555
Ba2 O1 2.908463 1_555
Ba2 O9 3.062229 1_555
Ba2 O6 3.062229 1_555
Ba2 O12 3.063431 1_555
Ba2 O19 3.063431 1_555
Ba3 O13 2.820473 1_555
Ba3 O18 2.820473 1_555
Ba3 O5 2.898346 1_555
Ba3 O10 2.898346 1_555
Ba3 O2 2.908463 1_455
Ba3 O7 3.062229 1_545
Ba3 O8 3.062229 1_545
Ba3 O18 3.063431 1_455
Ba3 O13 3.063431 1_455
Be0 O11 1.603280 1_555
Be0 O13 1.609389 1_555
Be0 O20 1.662004 1_555
Be0 O21 1.663411 1_555
Be1 O4 1.603280 1_556
Be1 O18 1.609389 1_555
Be1 O27 1.662004 1_556
Be1 O26 1.663411 1_555
Be2 O5 1.603280 1_554
Be2 O19 1.609389 1_555
Be2 O26 1.662004 1_454
Be2 O27 1.663411 1_555
Be3 O6 1.603280 1_555
Be3 O16 1.609389 1_555
Be3 O25 1.662004 1_655
Be3 O24 1.663411 1_555
Be4 O7 1.603280 1_555
Be4 O17 1.609389 1_555
Be4 O24 1.662004 1_555
Be4 O25 1.663411 1_555
Be5 O10 1.603280 1_555
Be5 O12 1.609389 1_555
Be5 O21 1.662004 1_455
Be5 O20 1.663411 1_555
Be6 O9 1.603280 1_556
Be6 O15 1.609389 1_555
Be6 O22 1.662004 1_656
Be6 O23 1.663411 1_555
Be7 O8 1.603280 1_554
Be7 O14 1.609389 1_555
Be7 O23 1.662004 1_554
Be7 O22 1.663411 1_555
O0 Si4 1.656153 1_555
O0 Si3 1.656153 1_555
O1 Si0 1.656153 1_555
O1 Si7 1.656153 1_555
O2 Si1 1.656153 1_555
O2 Si6 1.656153 1_555
O3 Si2 1.656153 1_555
O3 Si5 1.656153 1_555
O4 Si0 1.612736 1_655
O5 Si1 1.612736 1_555
O6 Si2 1.612736 1_555
O7 Si3 1.612736 1_455
O8 Si4 1.612736 1_455
O9 Si5 1.612736 1_555
O10 Si6 1.612736 1_555
O11 Si7 1.612736 1_655
O12 Si2 1.604552 1_555
O13 Si3 1.604552 1_545
O14 Si0 1.604552 1_565
O15 Si1 1.604552 1_555
O16 Si6 1.604552 1_555
O17 Si7 1.604552 1_565
O18 Si4 1.604552 1_545
O19 Si5 1.604552 1_555
O20 Si7 1.630271 1_555
O21 Si6 1.630271 1_555
O22 Si5 1.630271 1_555
O23 Si4 1.630271 1_555
O24 Si3 1.630271 1_555
O25 Si2 1.630271 1_555
O26 Si1 1.630271 1_555
O27 Si0 1.630271 1_555
