# generated using pymatgen
data_Ca2ZnSi2O7
_symmetry_space_group_name_H-M   'P 1'
_cell_length_a   7.90614200
_cell_length_b   7.90614200
_cell_length_c   5.05938600
_cell_angle_alpha   90.00000000
_cell_angle_beta   90.00000000
_cell_angle_gamma   90.00000000
_symmetry_Int_Tables_number   1
_chemical_formula_structural   Ca2ZnSi2O7
_chemical_formula_sum   'Ca4 Zn2 Si4 O14'
_cell_volume   316.24745215
_cell_formula_units_Z   2
loop_
 _symmetry_equiv_pos_site_id
 _symmetry_equiv_pos_as_xyz
  1  'x, y, z'
loop_
 _atom_site_type_symbol
 _atom_site_label
 _atom_site_symmetry_multiplicity
 _atom_site_fract_x
 _atom_site_fract_y
 _atom_site_fract_z
 _atom_site_occupancy
  Ca  Ca0  1  0.16976900  0.33023100  0.49826200  1
  Ca  Ca1  1  0.33023100  0.83023100  0.50173800  1
  Ca  Ca2  1  0.66976900  0.16976900  0.50173800  1
  Ca  Ca3  1  0.83023100  0.66976900  0.49826200  1
  Zn  Zn0  1  0.00000000  0.00000000  0.00000000  1
  Zn  Zn1  1  0.50000000  0.50000000  0.00000000  1
  Si  Si0  1  0.14072300  0.64072300  0.93398200  1
  Si  Si1  1  0.35927700  0.14072300  0.06601800  1
  Si  Si2  1  0.85927700  0.35927700  0.93398200  1
  Si  Si3  1  0.64072300  0.85927700  0.06601800  1
  O  O0  1  0.68589100  0.41753600  0.77896800  1
  O  O1  1  0.31410900  0.58246400  0.77896800  1
  O  O2  1  0.41753600  0.31410900  0.22103200  1
  O  O3  1  0.58246400  0.68589100  0.22103200  1
  O  O4  1  0.91753600  0.18589100  0.77896800  1
  O  O5  1  0.81410900  0.91753600  0.22103200  1
  O  O6  1  0.18589100  0.08246400  0.22103200  1
  O  O7  1  0.08246400  0.81410900  0.77896800  1
  O  O8  1  0.85779500  0.35779500  0.25266800  1
  O  O9  1  0.64220500  0.85779500  0.74733200  1
  O  O10  1  0.50000000  0.00000000  0.18387600  1
  O  O11  1  0.00000000  0.50000000  0.81612400  1
  O  O12  1  0.14220500  0.64220500  0.25266800  1
  O  O13  1  0.35779500  0.14220500  0.74733200  1
loop_
_geom_bond_atom_site_label_1
_geom_bond_atom_site_label_2
_geom_bond_distance
_geom_bond_site_symmetry_2
Ca0 O2 2.412631 1_555
Ca0 O6 2.412631 1_555
Ca0 O13 2.451057 1_555
Ca0 O11 2.487843 1_555
Ca0 O1 2.701118 1_555
Ca0 O4 2.701118 1_455
Ca0 O8 2.770399 1_455
Ca0 O12 2.770399 1_555
Ca1 O1 2.412631 1_555
Ca1 O7 2.412631 1_555
Ca1 O12 2.451057 1_555
Ca1 O10 2.487843 1_565
Ca1 O3 2.701118 1_555
Ca1 O6 2.701118 1_565
Ca1 O9 2.770399 1_555
Ca1 O13 2.770399 1_565
Ca2 O0 2.412631 1_555
Ca2 O4 2.412631 1_555
Ca2 O8 2.451057 1_555
Ca2 O10 2.487843 1_555
Ca2 O2 2.701118 1_555
Ca2 O5 2.701118 1_545
Ca2 O13 2.770399 1_555
Ca2 O9 2.770399 1_545
Ca3 O5 2.412631 1_555
Ca3 O3 2.412631 1_555
Ca3 O9 2.451057 1_555
Ca3 O11 2.487843 1_655
Ca3 O0 2.701118 1_555
Ca3 O7 2.701118 1_655
Ca3 O8 2.770399 1_555
Ca3 O12 2.770399 1_655
O0 Si2 1.645107 1_555
O0 Zn1 1.958467 1_556
O1 Si0 1.645107 1_555
O1 Zn1 1.958467 1_556
O2 Si1 1.645107 1_555
O2 Zn1 1.958467 1_555
O3 Si3 1.645107 1_555
O3 Zn1 1.958467 1_555
O4 Si2 1.645107 1_555
O4 Zn0 1.958467 1_656
O5 Si3 1.645107 1_555
O5 Zn0 1.958467 1_665
O6 Si1 1.645107 1_555
O6 Zn0 1.958467 1_555
O7 Si0 1.645107 1_555
O7 Zn0 1.958467 1_566
O8 Si2 1.612441 1_554
O9 Si3 1.612441 1_556
O10 Si3 1.682620 1_545
O10 Si1 1.682620 1_555
O11 Si0 1.682620 1_555
O11 Si2 1.682620 1_455
O12 Si0 1.612441 1_554
O13 Si1 1.612441 1_556
