# generated using pymatgen
data_Rb3ZnH5
_symmetry_space_group_name_H-M   'P 1'
_cell_length_a   8.02936653
_cell_length_b   8.02936653
_cell_length_c   8.02936653
_cell_angle_alpha   121.51475264
_cell_angle_beta   121.51475264
_cell_angle_gamma   87.39580242
_symmetry_Int_Tables_number   1
_chemical_formula_structural   Rb3ZnH5
_chemical_formula_sum   'Rb6 Zn2 H10'
_cell_volume   357.25851235
_cell_formula_units_Z   2
loop_
 _symmetry_equiv_pos_site_id
 _symmetry_equiv_pos_as_xyz
  1  'x, y, z'
loop_
 _atom_site_type_symbol
 _atom_site_label
 _atom_site_symmetry_multiplicity
 _atom_site_fract_x
 _atom_site_fract_y
 _atom_site_fract_z
 _atom_site_occupancy
  Rb  Rb0  1  0.17979946  0.67979946  0.85959792  1
  Rb  Rb1  1  0.82020054  0.32020054  0.14040208  1
  Rb  Rb2  1  0.67979946  0.82020054  0.50000000  1
  Rb  Rb3  1  0.32020054  0.17979946  0.50000000  1
  Rb  Rb4  1  0.25000000  0.25000000  0.00000000  1
  Rb  Rb5  1  0.75000000  0.75000000  0.00000000  1
  Zn  Zn0  1  0.25000000  0.75000000  0.50000000  1
  Zn  Zn1  1  0.75000000  0.25000000  0.50000000  1
  H  H0  1  0.45411803  0.95411803  0.73993943  1
  H  H1  1  0.21417861  0.71417861  0.26006057  1
  H  H2  1  0.95411803  0.21417861  0.50000000  1
  H  H3  1  0.71417861  0.45411803  0.50000000  1
  H  H4  1  0.54588197  0.04588197  0.26006057  1
  H  H5  1  0.78582139  0.28582139  0.73993943  1
  H  H6  1  0.04588197  0.78582139  0.50000000  1
  H  H7  1  0.28582139  0.54588197  0.50000000  1
  H  H8  1  0.50000000  0.50000000  0.00000000  1
  H  H9  1  0.00000000  -0.00000000  0.00000000  1
loop_
_geom_bond_atom_site_label_1
_geom_bond_atom_site_label_2
_geom_bond_distance
_geom_bond_site_symmetry_2
H0 Zn0 1.651063 1_555
H0 Rb1 2.939830 1_566
H0 Rb3 3.075454 1_565
H0 Rb2 3.075454 1_555
H1 Zn0 1.651063 1_555
H1 Rb0 2.939838 1_554
H1 Rb3 3.075454 1_565
H1 Rb2 3.075454 1_555
H2 Zn1 1.651063 1_555
H2 Rb3 2.939830 1_655
H2 Rb1 3.075447 1_555
H2 Rb0 3.075454 1_655
H3 Zn1 1.651063 1_555
H3 Rb2 2.939830 1_555
H3 Rb1 3.075447 1_555
H3 Rb0 3.075454 1_655
H4 Zn1 1.651063 1_555
H4 Rb0 2.939830 1_544
H4 Rb2 3.075454 1_545
H4 Rb3 3.075454 1_555
H5 Zn1 1.651063 1_555
H5 Rb1 2.939838 1_556
H5 Rb3 3.075454 1_555
H5 Rb2 3.075454 1_545
H6 Zn0 1.651063 1_555
H6 Rb2 2.939830 1_455
H6 Rb0 3.075447 1_555
H6 Rb1 3.075454 1_455
H7 Zn0 1.651063 1_555
H7 Rb3 2.939830 1_555
H7 Rb0 3.075447 1_555
H7 Rb1 3.075454 1_455
H8 Rb2 2.880841 1_555
H8 Rb3 2.880841 1_554
H8 Rb1 2.880842 1_555
H8 Rb0 2.880842 1_554
H8 Rb4 2.902586 1_555
H8 Rb5 2.902586 1_555
H9 Rb2 2.880841 1_444
H9 Rb3 2.880841 1_555
H9 Rb0 2.880842 1_544
H9 Rb1 2.880842 1_455
H9 Rb4 2.902586 1_555
H9 Rb5 2.902586 1_445
