# generated using pymatgen
data_NaMg3Si4O11F
_symmetry_space_group_name_H-M   'P 1'
_cell_length_a   8.06729800
_cell_length_b   10.30034420
_cell_length_c   10.98627471
_cell_angle_alpha   82.76124116
_cell_angle_beta   78.12744594
_cell_angle_gamma   79.73863085
_symmetry_Int_Tables_number   1
_chemical_formula_structural   NaMg3Si4O11F
_chemical_formula_sum   'Na4 Mg12 Si16 O44 F4'
_cell_volume   875.30324962
_cell_formula_units_Z   4
loop_
 _symmetry_equiv_pos_site_id
 _symmetry_equiv_pos_as_xyz
  1  'x, y, z'
loop_
 _atom_site_type_symbol
 _atom_site_label
 _atom_site_symmetry_multiplicity
 _atom_site_fract_x
 _atom_site_fract_y
 _atom_site_fract_z
 _atom_site_occupancy
  Na  Na0  1  0.75518000  0.27730200  0.22881000  1
  Na  Na1  1  0.49651800  0.22115200  0.54449300  1
  Na  Na2  1  0.24482000  0.72269800  0.77119000  1
  Na  Na3  1  0.50348200  0.77884800  0.45550700  1
  Mg  Mg0  1  0.87852400  0.73727400  0.70485400  1
  Mg  Mg1  1  0.09925200  0.75966200  0.03928700  1
  Mg  Mg2  1  0.44674600  0.84834300  0.13781100  1
  Mg  Mg3  1  0.12147600  0.26272600  0.29514600  1
  Mg  Mg4  1  0.81665200  0.00453000  0.47804800  1
  Mg  Mg5  1  0.18334800  0.99547000  0.52195200  1
  Mg  Mg6  1  0.55325400  0.15165700  0.86218900  1
  Mg  Mg7  1  0.90074800  0.24033800  0.96071300  1
  Mg  Mg8  1  0.89570000  0.27667900  0.67559100  1
  Mg  Mg9  1  0.42581700  0.30857600  0.07143800  1
  Mg  Mg10  1  0.57418300  0.69142400  0.92856200  1
  Mg  Mg11  1  0.10430000  0.72332100  0.32440900  1
  Si  Si0  1  0.19363300  0.08776400  0.03500700  1
  Si  Si1  1  0.52121700  0.93696700  0.69700400  1
  Si  Si2  1  0.86527900  0.01065100  0.71085600  1
  Si  Si3  1  0.22365000  0.09578800  0.74250600  1
  Si  Si4  1  0.77635000  0.90421200  0.25749400  1
  Si  Si5  1  0.13472100  0.98934900  0.28914400  1
  Si  Si6  1  0.74077600  0.52355500  0.56291700  1
  Si  Si7  1  0.47878300  0.06303300  0.30299600  1
  Si  Si8  1  0.02906200  0.48066400  0.11483000  1
  Si  Si9  1  0.80636700  0.91223600  0.96499300  1
  Si  Si10  1  0.47729400  0.56591400  0.18768300  1
  Si  Si11  1  0.79299400  0.59801600  0.28824800  1
  Si  Si12  1  0.20700600  0.40198400  0.71175200  1
  Si  Si13  1  0.52270600  0.43408600  0.81231700  1
  Si  Si14  1  0.97093800  0.51933600  0.88517000  1
  Si  Si15  1  0.25922400  0.47644500  0.43708300  1
  O  O0  1  0.75909800  0.65643400  0.60861900  1
  O  O1  1  0.13816700  0.09066100  0.89539300  1
  O  O2  1  0.21258800  0.93144300  0.10613100  1
  O  O3  1  0.98472700  0.83780000  0.88611200  1
  O  O4  1  0.86183300  0.90933900  0.10460700  1
  O  O5  1  0.00323800  0.63151900  0.19222000  1
  O  O6  1  0.38174100  0.08703600  0.44155400  1
  O  O7  1  0.64379200  0.63457600  0.19857300  1
  O  O8  1  0.36979300  0.14896500  0.00292800  1
  O  O9  1  0.02203100  0.09798900  0.39395900  1
  O  O10  1  0.24176600  0.86046600  0.36528700  1
  O  O11  1  0.30055300  0.94990000  0.67306200  1
  O  O12  1  0.69944700  0.05010000  0.32693800  1
  O  O13  1  0.75823400  0.13953400  0.63471300  1
  O  O14  1  0.97796900  0.90201100  0.60604100  1
  O  O15  1  0.63020700  0.85103500  0.99707200  1
  O  O16  1  0.28813900  0.08751400  0.23860600  1
  O  O17  1  0.35620800  0.36542400  0.80142700  1
  O  O18  1  0.77980500  0.75034200  0.33689000  1
  O  O19  1  0.65597800  0.41654300  0.67337300  1
  O  O20  1  0.61825900  0.91296400  0.55844600  1
  O  O21  1  0.99676200  0.36848100  0.80778000  1
  O  O22  1  0.01527300  0.16220000  0.11388800  1
  O  O23  1  0.32388200  0.46083400  0.56930700  1
  O  O24  1  0.22019500  0.24965800  0.66311000  1
  O  O25  1  0.44200000  0.08636100  0.74892300  1
  O  O26  1  0.80524600  0.62367800  0.86123200  1
  O  O27  1  0.78741200  0.06855700  0.89386900  1
  O  O28  1  0.02909400  0.09662200  0.70057700  1
  O  O29  1  0.24090200  0.34356600  0.39138100  1
  O  O30  1  0.10881800  0.56090600  0.74160700  1
  O  O31  1  0.46700600  0.58040000  0.84613500  1
  O  O32  1  0.61767200  0.31991900  0.90674000  1
  O  O33  1  0.90592100  0.42376500  0.02582000  1
  O  O34  1  0.09407900  0.57623500  0.97418000  1
  O  O35  1  0.38232800  0.68008100  0.09326000  1
  O  O36  1  0.53299400  0.41960000  0.15386500  1
  O  O37  1  0.89118200  0.43909400  0.25839300  1
  O  O38  1  0.97090600  0.90337800  0.29942300  1
  O  O39  1  0.19475400  0.37632200  0.13876800  1
  O  O40  1  0.55800000  0.91363900  0.25107700  1
  O  O41  1  0.67611800  0.53916600  0.43069300  1
  O  O42  1  0.34402200  0.58345700  0.32662700  1
  O  O43  1  0.71186100  0.91248600  0.76139400  1
  F  F0  1  0.45000600  0.82661900  0.81945200  1
  F  F1  1  0.54999400  0.17338100  0.18054800  1
  F  F2  1  0.92185800  0.40898300  0.53333400  1
  F  F3  1  0.07814200  0.59101700  0.46666600  1
loop_
_geom_bond_atom_site_label_1
_geom_bond_atom_site_label_2
_geom_bond_distance
_geom_bond_site_symmetry_2
Na0 O37 2.240832 1_555
Na0 O36 2.325128 1_555
Na0 O22 2.408985 1_655
Na0 O12 2.526027 1_555
Na0 O33 2.723601 1_555
Na1 O6 2.307603 1_555
Na1 O24 2.328433 1_555
Na1 O13 2.483078 1_555
Na1 O25 2.488079 1_555
Na1 O23 2.626280 1_555
Na2 O30 2.240832 1_555
Na2 O31 2.325128 1_555
Na2 O3 2.408985 1_455
Na2 O11 2.526027 1_555
Na2 O34 2.723601 1_555
Na3 O20 2.307603 1_555
Na3 O18 2.328433 1_555
Na3 O10 2.483078 1_555
Na3 O40 2.488079 1_555
Na3 O41 2.626280 1_555
Mg0 O0 1.914732 1_555
Mg0 O26 1.998015 1_555
Mg0 O14 2.088977 1_555
Mg0 O43 2.127212 1_555
Mg0 O30 2.415827 1_655
Mg1 O3 2.089681 1_454
Mg1 O5 2.105939 1_555
Mg1 O34 2.112819 1_554
Mg1 O4 2.285079 1_455
Mg1 O2 2.384570 1_555
Mg1 O35 2.450793 1_555
Mg2 O15 1.908977 1_554
Mg2 O40 1.921427 1_555
Mg2 O2 2.010369 1_555
Mg2 O35 2.037840 1_555
Mg3 O29 1.914732 1_555
Mg3 O39 1.998015 1_555
Mg3 O9 2.088977 1_555
Mg3 O16 2.127212 1_555
Mg3 O37 2.415827 1_455
Mg4 O20 1.994366 1_545
Mg4 O12 2.040046 1_555
Mg4 O9 2.059042 1_655
Mg4 O14 2.162218 1_545
Mg4 O13 2.270277 1_555
Mg4 O38 2.352387 1_545
Mg5 O6 1.994366 1_565
Mg5 O11 2.040046 1_555
Mg5 O14 2.059042 1_455
Mg5 O9 2.162218 1_565
Mg5 O10 2.270277 1_555
Mg5 O28 2.352387 1_565
Mg6 O8 1.908977 1_556
Mg6 O25 1.921427 1_555
Mg6 O27 2.010369 1_555
Mg6 O32 2.037840 1_555
Mg7 O22 2.089681 1_656
Mg7 O21 2.105939 1_555
Mg7 O33 2.112819 1_556
Mg7 O1 2.285079 1_655
Mg7 O27 2.384570 1_555
Mg7 O32 2.450793 1_555
Mg8 O28 1.988795 1_655
Mg8 O13 2.085671 1_555
Mg8 O21 2.185374 1_555
Mg8 O19 2.198633 1_555
Mg8 O24 2.559584 1_655
Mg9 O39 1.899498 1_555
Mg9 O36 1.952140 1_555
Mg9 O8 2.047003 1_555
Mg9 O32 2.131195 1_554
Mg10 O26 1.899498 1_555
Mg10 O31 1.952140 1_555
Mg10 O15 2.047003 1_555
Mg10 O35 2.131195 1_556
Mg11 O38 1.988795 1_455
Mg11 O10 2.085671 1_555
Mg11 O5 2.185374 1_555
Mg11 O42 2.198633 1_555
Mg11 O18 2.559584 1_455
O0 Si6 1.556626 1_555
O1 Si3 1.677385 1_555
O1 Si0 1.679251 1_556
O2 Si0 1.694385 1_565
O2 Si5 2.107612 1_555
O3 Si9 1.634185 1_555
O4 Si4 1.677385 1_555
O4 Si9 1.679251 1_554
O5 Si8 1.823592 1_555
O5 Si11 1.867984 1_455
O6 Si7 1.589573 1_555
O7 Si10 1.656671 1_555
O7 Si11 1.671574 1_555
O8 Si0 1.611934 1_555
O9 Si5 1.713549 1_545
O10 Si5 1.678339 1_555
O11 Si3 1.728313 1_565
O11 Si1 1.831737 1_555
O12 Si4 1.728313 1_545
O12 Si7 1.831737 1_555
O13 Si2 1.678339 1_555
O14 Si2 1.713549 1_565
O15 Si9 1.611934 1_555
O16 Si5 1.698269 1_545
O16 Si7 1.787161 1_555
O17 Si13 1.656671 1_555
O17 Si12 1.671574 1_555
O18 Si11 1.699153 1_555
O18 Si4 1.708639 1_555
O19 Si6 1.656963 1_555
O19 Si13 1.686332 1_555
O20 Si1 1.589573 1_555
O21 Si14 1.823592 1_555
O21 Si12 1.867984 1_655
O22 Si0 1.634185 1_555
O23 Si15 1.622086 1_555
O23 Si12 1.750120 1_555
O24 Si12 1.699153 1_555
O24 Si3 1.708639 1_555
O25 Si1 1.680040 1_545
O25 Si3 1.762298 1_555
O26 Si14 1.603927 1_555
O27 Si9 1.694385 1_545
O27 Si2 2.107612 1_555
O28 Si2 1.695208 1_455
O28 Si3 1.722620 1_555
O29 Si15 1.556626 1_555
O30 Si12 1.726577 1_555
O30 Si14 1.784894 1_455
O31 Si13 1.562817 1_555
O32 Si13 1.656665 1_555
O33 Si8 1.743047 1_655
O33 Si14 1.760402 1_554
O34 Si14 1.743047 1_455
O34 Si8 1.760402 1_556
O35 Si10 1.656665 1_555
O36 Si10 1.562817 1_555
O37 Si11 1.726577 1_555
O37 Si8 1.784894 1_655
O38 Si5 1.695208 1_655
O38 Si4 1.722620 1_555
O39 Si8 1.603927 1_555
O40 Si7 1.680040 1_565
O40 Si4 1.762298 1_555
O41 Si6 1.622086 1_555
O41 Si11 1.750120 1_555
O42 Si15 1.656963 1_555
O42 Si10 1.686332 1_555
O43 Si2 1.698269 1_565
O43 Si1 1.787161 1_555
F0 Si1 1.720739 1_555
F0 Mg10 1.988993 1_555
F0 Na2 2.302691 1_555
F1 Si7 1.720739 1_555
F1 Mg9 1.988993 1_555
F1 Na0 2.302691 1_555
F2 Si6 1.708649 1_555
F2 Mg8 1.942751 1_555
F3 Si15 1.708649 1_555
F3 Mg11 1.942751 1_555
