# generated using pymatgen
data_Na8Al11Si13(AgO16)3
_symmetry_space_group_name_H-M   'P 1'
_cell_length_a   12.06695100
_cell_length_b   12.39927361
_cell_length_c   12.77223808
_cell_angle_alpha   90.15388435
_cell_angle_beta   91.48511853
_cell_angle_gamma   90.04370446
_symmetry_Int_Tables_number   1
_chemical_formula_structural   Na8Al11Si13(AgO16)3
_chemical_formula_sum   'Na8 Al11 Si13 Ag3 O48'
_cell_volume   1910.35101234
_cell_formula_units_Z   1
loop_
 _symmetry_equiv_pos_site_id
 _symmetry_equiv_pos_as_xyz
  1  'x, y, z'
loop_
 _atom_site_type_symbol
 _atom_site_label
 _atom_site_symmetry_multiplicity
 _atom_site_fract_x
 _atom_site_fract_y
 _atom_site_fract_z
 _atom_site_occupancy
  Na  Na0  1  0.19585200  0.21076600  0.79240700  1
  Na  Na1  1  0.55633300  0.99869900  0.38604700  1
  Na  Na2  1  0.99757600  0.38903500  0.43192500  1
  Na  Na3  1  0.00204500  0.60464400  0.40785300  1
  Na  Na4  1  0.81745700  0.18973900  0.21381900  1
  Na  Na5  1  0.19323500  0.19001500  0.21474400  1
  Na  Na6  1  0.18783000  0.81208500  0.21837000  1
  Na  Na7  1  0.82330900  0.81508700  0.21689900  1
  Al  Al0  1  0.99791600  0.36904300  0.81986300  1
  Al  Al1  1  0.79584000  0.00164300  0.62021100  1
  Al  Al2  1  0.99720300  0.81068700  0.62604700  1
  Al  Al3  1  0.20682400  0.99966900  0.38843200  1
  Al  Al4  1  0.00680800  0.17542900  0.38076800  1
  Al  Al5  1  0.80405600  0.00021500  0.38534600  1
  Al  Al6  1  0.00658400  0.82060000  0.38626000  1
  Al  Al7  1  0.36594400  0.99584700  0.17538100  1
  Al  Al8  1  0.64378600  0.99604400  0.16166300  1
  Al  Al9  1  0.00237400  0.37323700  0.18577200  1
  Al  Al10  1  0.00156100  0.63138800  0.18011800  1
  Si  Si0  1  0.36681800  0.18401500  0.00785100  1
  Si  Si1  1  0.18767800  0.37191400  0.00561100  1
  Si  Si2  1  0.63257600  0.18666000  0.00298500  1
  Si  Si3  1  0.18760500  0.62588800  0.00366700  1
  Si  Si4  1  0.81298700  0.37044400  0.99605700  1
  Si  Si5  1  0.36605200  0.81649000  0.99973600  1
  Si  Si6  1  0.81252400  0.62763000  0.99230500  1
  Si  Si7  1  0.63277000  0.81455000  0.99197300  1
  Si  Si8  1  0.62555600  0.00605600  0.82399000  1
  Si  Si9  1  0.99673200  0.62631900  0.82064300  1
  Si  Si10  1  0.36350700  0.00632000  0.83068700  1
  Si  Si11  1  0.18927000  0.00082000  0.63181400  1
  Si  Si12  1  0.00105600  0.18415000  0.62742200  1
  Ag  Ag0  1  0.81064900  0.81517500  0.79423400  1
  Ag  Ag1  1  0.81118300  0.18704900  0.79645500  1
  Ag  Ag2  1  0.18327800  0.80194800  0.80334700  1
  O  O0  1  0.30189100  0.29912100  0.99894900  1
  O  O1  1  0.22491200  0.49972800  0.00626000  1
  O  O2  1  0.69504400  0.30296000  0.99371500  1
  O  O3  1  0.29702600  0.70284300  0.98297600  1
  O  O4  1  0.49898600  0.79002200  0.99537100  1
  O  O5  1  0.65388700  0.11551500  0.89469400  1
  O  O6  1  0.10703400  0.64719200  0.89922000  1
  O  O7  1  0.88446900  0.65988100  0.88748400  1
  O  O8  1  0.65531800  0.89125300  0.88662500  1
  O  O9  1  0.33475100  0.11696200  0.89676600  1
  O  O10  1  0.11816300  0.34380300  0.89796100  1
  O  O11  1  0.87761700  0.33356200  0.88991500  1
  O  O12  1  0.33465600  0.89394800  0.89453900  1
  O  O13  1  0.49209200  0.00609000  0.80016500  1
  O  O14  1  0.99018100  0.50328700  0.78148600  1
  O  O15  1  0.28564200  0.01269300  0.72737100  1
  O  O16  1  0.01337300  0.28056200  0.71497200  1
  O  O17  1  0.00818100  0.71265900  0.72845000  1
  O  O18  1  0.69556900  0.01446300  0.72089900  1
  O  O19  1  0.11338300  0.10997500  0.65486400  1
  O  O20  1  0.88692700  0.11637300  0.64649700  1
  O  O21  1  0.11803600  0.89247100  0.65820000  1
  O  O22  1  0.87654800  0.88602700  0.65065500  1
  O  O23  1  0.00965600  0.23608700  0.51150300  1
  O  O24  1  0.72668900  0.00593300  0.50053200  1
  O  O25  1  0.24924800  0.00327300  0.52335700  1
  O  O26  1  0.00883200  0.74650800  0.50630300  1
  O  O27  1  0.13283400  0.11708500  0.36028900  1
  O  O28  1  0.87991800  0.11640100  0.36300500  1
  O  O29  1  0.13123000  0.88301400  0.36742000  1
  O  O30  1  0.88194500  0.88491900  0.37294700  1
  O  O31  1  0.31340800  0.99594300  0.29819600  1
  O  O32  1  0.00014200  0.28597700  0.29141400  1
  O  O33  1  0.99908400  0.72499200  0.27993500  1
  O  O34  1  0.70731100  0.99261100  0.28158600  1
  O  O35  1  0.50579600  0.99501900  0.17831300  1
  O  O36  1  0.00166300  0.50372800  0.24235200  1
  O  O37  1  0.68587100  0.11812700  0.09848600  1
  O  O38  1  0.12465000  0.66010400  0.10859100  1
  O  O39  1  0.88169000  0.65855800  0.09806100  1
  O  O40  1  0.68583500  0.87798000  0.09115600  1
  O  O41  1  0.32136700  0.11447000  0.10361200  1
  O  O42  1  0.12306300  0.34248700  0.11185100  1
  O  O43  1  0.88332200  0.34419100  0.10299300  1
  O  O44  1  0.32163000  0.87745500  0.10152400  1
  O  O45  1  0.49961000  0.20978900  0.00986000  1
  O  O46  1  0.78296100  0.49942600  0.98690200  1
  O  O47  1  0.69738700  0.69883400  0.97787600  1
loop_
_geom_bond_atom_site_label_1
_geom_bond_atom_site_label_2
_geom_bond_distance
_geom_bond_site_symmetry_2
Na0 O10 2.339523 1_555
Na0 O19 2.352437 1_555
Na0 O9 2.415407 1_555
Na0 O16 2.543694 1_555
Na0 O15 2.816991 1_555
Na1 O34 2.287044 1_555
Na1 O24 2.493026 1_565
Na1 O35 2.707218 1_555
Na2 O23 2.157288 1_655
Na2 O32 2.201181 1_655
Na3 O26 2.159747 1_555
Na3 O33 2.215281 1_455
Na3 O36 2.453414 1_555
Na4 O28 2.227462 1_555
Na4 O37 2.312826 1_555
Na4 O43 2.524570 1_555
Na4 O32 2.672474 1_655
Na4 O34 2.925081 1_545
Na5 O27 2.209716 1_555
Na5 O41 2.321975 1_555
Na5 O42 2.444650 1_555
Na5 O32 2.814256 1_555
Na6 O29 2.218860 1_555
Na6 O44 2.370735 1_555
Na6 O38 2.454906 1_555
Na6 O33 2.658104 1_455
Na6 O31 2.904304 1_555
Na7 O30 2.267032 1_555
Na7 O40 2.410385 1_555
Na7 O33 2.512967 1_555
Na7 O39 2.570732 1_555
Na7 O34 2.746252 1_555
Al0 O14 1.738353 1_555
Al0 O16 1.743148 1_655
Al0 O10 1.767968 1_655
Al0 O11 1.780393 1_555
Al1 O24 1.723379 1_555
Al1 O22 1.772075 1_545
Al1 O18 1.795260 1_555
Al1 O20 1.822211 1_555
Al2 O26 1.731117 1_655
Al2 O22 1.765054 1_555
Al2 O17 1.790357 1_655
Al2 O21 1.813133 1_655
Al3 O29 1.726124 1_555
Al3 O27 1.741861 1_565
Al3 O31 1.749638 1_555
Al3 O25 1.785394 1_565
Al4 O28 1.706179 1_455
Al4 O27 1.710472 1_555
Al4 O32 1.786504 1_555
Al4 O23 1.829005 1_555
Al5 O30 1.720676 1_545
Al5 O28 1.734517 1_555
Al5 O34 1.745566 1_545
Al5 O24 1.764007 1_555
Al6 O30 1.707715 1_455
Al6 O29 1.713797 1_555
Al6 O26 1.789113 1_555
Al6 O33 1.800704 1_455
Al7 O35 1.687072 1_555
Al7 O31 1.707046 1_555
Al7 O41 1.809932 1_565
Al7 O44 1.815478 1_555
Al8 O35 1.684144 1_555
Al8 O34 1.695587 1_555
Al8 O37 1.796398 1_565
Al8 O40 1.796992 1_555
Al9 O32 1.732517 1_555
Al9 O36 1.770386 1_555
Al9 O42 1.796636 1_555
Al9 O43 1.797157 1_455
Al10 O33 1.722600 1_455
Al10 O36 1.773153 1_555
Al10 O39 1.796737 1_455
Al10 O38 1.799663 1_555
Ag0 O22 2.202321 1_555
Ag0 O7 2.424793 1_555
Ag0 O8 2.430425 1_555
Ag1 O11 2.303111 1_555
Ag1 O20 2.314016 1_555
Ag1 O5 2.467923 1_555
Ag1 O18 2.715052 1_555
Ag2 O21 2.292000 1_555
Ag2 O12 2.423631 1_555
Ag2 O6 2.469058 1_555
Ag2 O17 2.547757 1_555
O0 Si0 1.631472 1_556
O0 Si1 1.651938 1_556
O1 Si3 1.628297 1_555
O1 Si1 1.646871 1_555
O2 Si2 1.632661 1_556
O2 Si4 1.649977 1_555
O3 Si5 1.647005 1_555
O3 Si3 1.655665 1_556
O4 Si5 1.639913 1_555
O4 Si7 1.644234 1_555
O5 Si8 1.658644 1_555
O5 Si2 1.664199 1_556
O6 Si3 1.652183 1_556
O6 Si9 1.665721 1_455
O7 Si6 1.663906 1_555
O7 Si9 1.672133 1_555
O8 Si8 1.669504 1_565
O8 Si7 1.677634 1_555
O9 Si10 1.650590 1_555
O9 Si0 1.678896 1_556
O10 Si1 1.628732 1_556
O11 Si4 1.645362 1_555
O12 Si10 1.657634 1_565
O12 Si5 1.688878 1_555
O13 Si10 1.609623 1_555
O13 Si8 1.631232 1_555
O14 Si9 1.605370 1_555
O15 Si10 1.602113 1_555
O15 Si11 1.669974 1_555
O16 Si12 1.638747 1_555
O17 Si9 1.602086 1_455
O18 Si8 1.586379 1_555
O19 Si11 1.664558 1_555
O19 Si12 1.668821 1_555
O20 Si12 1.636759 1_655
O21 Si11 1.634928 1_565
O23 Si12 1.621875 1_555
O25 Si11 1.579806 1_555
O37 Si2 1.609111 1_555
O38 Si3 1.613447 1_555
O39 Si6 1.614450 1_554
O40 Si7 1.607848 1_554
O41 Si0 1.606245 1_555
O42 Si1 1.624617 1_555
O43 Si4 1.623105 1_554
O44 Si5 1.606354 1_554
O45 Si0 1.633249 1_555
O45 Si2 1.634695 1_555
O46 Si6 1.629796 1_555
O46 Si4 1.643882 1_555
O47 Si7 1.645183 1_555
O47 Si6 1.653242 1_555
