# generated using pymatgen
data_GdSi2Rh3
_symmetry_space_group_name_H-M   'P 1'
_cell_length_a   5.51299630
_cell_length_b   5.51299322
_cell_length_c   3.64893402
_cell_angle_alpha   90.00003542
_cell_angle_beta   89.99996281
_cell_angle_gamma   120.00102638
_symmetry_Int_Tables_number   1
_chemical_formula_structural   GdSi2Rh3
_chemical_formula_sum   'Gd1 Si2 Rh3'
_cell_volume   96.04335221
_cell_formula_units_Z   1
loop_
 _symmetry_equiv_pos_site_id
 _symmetry_equiv_pos_as_xyz
  1  'x, y, z'
loop_
 _atom_site_type_symbol
 _atom_site_label
 _atom_site_symmetry_multiplicity
 _atom_site_fract_x
 _atom_site_fract_y
 _atom_site_fract_z
 _atom_site_occupancy
  Gd  Gd0  1  0.00000010  -0.00000000  0.00000259  1
  Si  Si0  1  0.66669105  0.33331346  0.99999916  1
  Si  Si1  1  0.33330951  0.66668654  -0.00000080  1
  Rh  Rh0  1  0.49999350  -0.00000000  0.49999913  1
  Rh  Rh1  1  -0.00000016  0.49999386  0.49999975  1
  Rh  Rh2  1  0.50000600  0.50000614  0.49999917  1
loop_
_geom_bond_atom_site_label_1
_geom_bond_atom_site_label_2
_geom_bond_distance
_geom_bond_site_symmetry_2
Gd0 Si0 3.182735 1_454
Gd0 Si1 3.182736 1_545
Gd0 Si1 3.182990 1_555
Gd0 Si0 3.182990 1_444
Gd0 Si1 3.183011 1_445
Gd0 Si0 3.183013 1_554
Gd0 Rh2 3.305525 1_445
Gd0 Rh2 3.305539 1_444
Gd0 Rh0 3.305559 1_555
Gd0 Rh1 3.305560 1_555
Gd0 Rh0 3.305571 1_554
Gd0 Rh1 3.305573 1_554
Gd0 Rh2 3.305580 1_555
Gd0 Rh2 3.305594 1_554
Gd0 Rh1 3.305617 1_545
Gd0 Rh0 3.305618 1_455
Gd0 Rh1 3.305627 1_544
Gd0 Rh0 3.305634 1_454
Rh0 Si1 2.420967 1_545
Rh0 Si0 2.420967 1_555
Rh0 Si0 2.420968 1_554
Rh0 Si1 2.420968 1_546
Rh1 Si0 2.420951 1_455
Rh1 Si1 2.420955 1_556
Rh1 Si0 2.420955 1_454
Rh1 Si1 2.420957 1_555
Rh2 Si1 2.421182 1_556
Rh2 Si1 2.421184 1_555
Rh2 Si0 2.421185 1_554
Rh2 Si0 2.421187 1_555
