# generated using pymatgen
data_K2P2H2O7
_symmetry_space_group_name_H-M   'P 1'
_cell_length_a   17.66883400
_cell_length_b   6.89560700
_cell_length_c   9.34575355
_cell_angle_alpha   72.53956310
_cell_angle_beta   90.00000000
_cell_angle_gamma   90.00000000
_symmetry_Int_Tables_number   1
_chemical_formula_structural   K2P2H2O7
_chemical_formula_sum   'K12 P12 H12 O42'
_cell_volume   1086.19714610
_cell_formula_units_Z   6
loop_
 _symmetry_equiv_pos_site_id
 _symmetry_equiv_pos_as_xyz
  1  'x, y, z'
loop_
 _atom_site_type_symbol
 _atom_site_label
 _atom_site_symmetry_multiplicity
 _atom_site_fract_x
 _atom_site_fract_y
 _atom_site_fract_z
 _atom_site_occupancy
  K  K0  1  0.95204800  0.77093100  0.40245500  1
  K  K1  1  0.45204800  0.22906900  0.59754500  1
  K  K2  1  0.04795200  0.22906900  0.59754500  1
  K  K3  1  0.54795200  0.77093100  0.40245500  1
  K  K4  1  0.08418200  0.63186400  0.84015400  1
  K  K5  1  0.58418200  0.36813600  0.15984600  1
  K  K6  1  0.91581800  0.36813600  0.15984600  1
  K  K7  1  0.41581800  0.63186400  0.84015400  1
  K  K8  1  0.75000000  0.73541600  0.43886600  1
  K  K9  1  0.25000000  0.26458400  0.56113400  1
  K  K10  1  0.25000000  0.62808400  0.15973600  1
  K  K11  1  0.75000000  0.37191600  0.84026400  1
  P  P0  1  0.33710800  0.11036700  0.96017200  1
  P  P1  1  0.83710800  0.88963300  0.03982800  1
  P  P2  1  0.66289200  0.88963300  0.03982800  1
  P  P3  1  0.16289200  0.11036700  0.96017200  1
  P  P4  1  0.38387900  0.16203400  0.25779700  1
  P  P5  1  0.88387900  0.83796600  0.74220300  1
  P  P6  1  0.61612100  0.83796600  0.74220300  1
  P  P7  1  0.11612100  0.16203400  0.25779700  1
  P  P8  1  0.33510100  0.79605200  0.48606500  1
  P  P9  1  0.83510100  0.20394800  0.51393500  1
  P  P10  1  0.66489900  0.20394800  0.51393500  1
  P  P11  1  0.16489900  0.79605200  0.48606500  1
  H  H0  1  0.05617800  0.75075200  0.12847300  1
  H  H1  1  0.55617800  0.24924800  0.87152700  1
  H  H2  1  0.94382200  0.24924800  0.87152700  1
  H  H3  1  0.44382200  0.75075200  0.12847300  1
  H  H4  1  0.06966500  0.53984600  0.24713900  1
  H  H5  1  0.56966500  0.46015400  0.75286100  1
  H  H6  1  0.93033500  0.46015400  0.75286100  1
  H  H7  1  0.43033500  0.53984600  0.24713900  1
  H  H8  1  0.25000000  0.50131800  0.83021300  1
  H  H9  1  0.75000000  0.49868200  0.16978700  1
  H  H10  1  0.25000000  0.73990600  0.78300300  1
  H  H11  1  0.75000000  0.26009400  0.21699700  1
  O  O0  1  0.25000000  0.05812300  0.01693600  1
  O  O1  1  0.75000000  0.94187700  0.98306400  1
  O  O2  1  0.36742200  0.22754200  0.07767800  1
  O  O3  1  0.86742200  0.77245800  0.92232200  1
  O  O4  1  0.63257800  0.77245800  0.92232200  1
  O  O5  1  0.13257800  0.22754200  0.07767800  1
  O  O6  1  0.33944000  0.26392700  0.80837000  1
  O  O7  1  0.83944000  0.73607300  0.19163000  1
  O  O8  1  0.66056000  0.73607300  0.19163000  1
  O  O9  1  0.16056000  0.26392700  0.80837000  1
  O  O10  1  0.37613900  0.90855800  0.98927100  1
  O  O11  1  0.87613900  0.09144200  0.01072900  1
  O  O12  1  0.62386100  0.09144200  0.01072900  1
  O  O13  1  0.12386100  0.90855800  0.98927100  1
  O  O14  1  0.46625400  0.11864200  0.28977500  1
  O  O15  1  0.96625400  0.88135800  0.71022500  1
  O  O16  1  0.53374600  0.88135800  0.71022500  1
  O  O17  1  0.03374600  0.11864200  0.28977500  1
  O  O18  1  0.34819300  0.32426000  0.31383200  1
  O  O19  1  0.84819300  0.67574000  0.68616800  1
  O  O20  1  0.65180700  0.67574000  0.68616800  1
  O  O21  1  0.15180700  0.32426000  0.31383200  1
  O  O22  1  0.33618400  0.94990100  0.31409000  1
  O  O23  1  0.83618400  0.05009900  0.68591000  1
  O  O24  1  0.66381600  0.05009900  0.68591000  1
  O  O25  1  0.16381600  0.94990100  0.31409000  1
  O  O26  1  0.33771900  0.91644000  0.59598800  1
  O  O27  1  0.83771900  0.08356000  0.40401200  1
  O  O28  1  0.66228100  0.08356000  0.40401200  1
  O  O29  1  0.16228100  0.91644000  0.59598800  1
  O  O30  1  0.39034300  0.62695900  0.50110400  1
  O  O31  1  0.89034300  0.37304100  0.49889600  1
  O  O32  1  0.60965700  0.37304100  0.49889600  1
  O  O33  1  0.10965700  0.62695900  0.50110400  1
  O  O34  1  0.25000000  0.69785700  0.48296300  1
  O  O35  1  0.75000000  0.30214300  0.51703700  1
  O  O36  1  0.02990900  0.62465100  0.18506800  1
  O  O37  1  0.52990900  0.37534900  0.81493200  1
  O  O38  1  0.97009100  0.37534900  0.81493200  1
  O  O39  1  0.47009100  0.62465100  0.18506800  1
  O  O40  1  0.25000000  0.61796600  0.87012300  1
  O  O41  1  0.75000000  0.38203400  0.12987700  1
loop_
_geom_bond_atom_site_label_1
_geom_bond_atom_site_label_2
_geom_bond_distance
_geom_bond_site_symmetry_2
K0 O17 2.725133 1_665
K0 O31 2.836351 1_555
K0 O7 2.860568 1_555
K0 O36 2.875308 1_655
K0 O27 2.957534 1_565
K0 O33 3.006869 1_655
K0 O19 3.127963 1_555
K0 O15 3.198517 1_555
K1 O16 2.725133 1_545
K1 O30 2.836351 1_555
K1 O6 2.860568 1_555
K1 O37 2.875308 1_555
K1 O26 2.957534 1_545
K1 O32 3.006869 1_555
K1 O18 3.127963 1_555
K1 O14 3.198517 1_555
K2 O15 2.725133 1_445
K2 O33 2.836351 1_555
K2 O9 2.860568 1_555
K2 O38 2.875308 1_455
K2 O29 2.957534 1_545
K2 O31 3.006869 1_455
K2 O21 3.127963 1_555
K2 O17 3.198517 1_555
K3 O14 2.725133 1_565
K3 O32 2.836351 1_555
K3 O8 2.860568 1_555
K3 O39 2.875308 1_555
K3 O28 2.957534 1_565
K3 O30 3.006869 1_555
K3 O20 3.127963 1_555
K3 O16 3.198517 1_555
K4 O38 2.738282 1_455
K4 O15 2.742675 1_455
K4 O13 2.769415 1_555
K4 O29 2.876611 1_555
K4 O40 2.941992 1_555
K4 O9 2.966277 1_555
K4 O5 3.117386 1_556
K4 O33 3.210698 1_555
K5 O39 2.738282 1_555
K5 O14 2.742675 1_555
K5 O12 2.769415 1_555
K5 O28 2.876611 1_555
K5 O41 2.941992 1_555
K5 O8 2.966277 1_555
K5 O4 3.117386 1_554
K5 O32 3.210698 1_555
K6 O36 2.738282 1_655
K6 O17 2.742675 1_655
K6 O11 2.769415 1_555
K6 O27 2.876611 1_555
K6 O41 2.941992 1_555
K6 O7 2.966277 1_555
K6 O3 3.117386 1_554
K6 O31 3.210698 1_555
K7 O37 2.738282 1_555
K7 O16 2.742675 1_555
K7 O10 2.769415 1_555
K7 O26 2.876611 1_555
K7 O40 2.941992 1_555
K7 O6 2.966277 1_555
K7 O2 3.117386 1_556
K7 O30 3.210698 1_555
K8 O27 2.793241 1_565
K8 O28 2.793241 1_565
K8 O8 2.798212 1_555
K8 O7 2.798212 1_555
K8 O19 2.819650 1_555
K8 O20 2.819650 1_555
K8 O35 2.854844 1_555
K9 O26 2.793241 1_545
K9 O29 2.793241 1_545
K9 O9 2.798212 1_555
K9 O6 2.798212 1_555
K9 O18 2.819650 1_555
K9 O21 2.819650 1_555
K9 O34 2.854844 1_555
K10 O40 2.728398 1_554
K10 O21 2.768164 1_555
K10 O18 2.768164 1_555
K10 O0 2.863508 1_565
K10 O13 3.065419 1_554
K10 O10 3.065419 1_554
K10 O34 3.198263 1_555
K10 O22 3.353406 1_555
K10 O25 3.353406 1_555
K11 O41 2.728398 1_556
K11 O20 2.768164 1_555
K11 O19 2.768164 1_555
K11 O1 2.863508 1_545
K11 O12 3.065419 1_556
K11 O11 3.065419 1_556
K11 O35 3.198263 1_555
K11 O24 3.353406 1_555
K11 O23 3.353406 1_555
H0 O36 0.987571 1_555
H1 O37 0.987571 1_555
H2 O38 0.987571 1_555
H3 O39 0.987571 1_555
H4 O36 0.984043 1_555
H5 O37 0.984043 1_555
H6 O38 0.984043 1_555
H7 O39 0.984043 1_555
H8 O40 0.982930 1_555
H9 O41 0.982930 1_555
H10 O40 0.979345 1_555
H11 O41 0.979345 1_555
O0 P3 1.632589 1_554
O0 P0 1.632589 1_554
O1 P1 1.632589 1_556
O1 P2 1.632589 1_556
O2 P4 1.632773 1_555
O2 P0 1.636525 1_554
O3 P5 1.632773 1_555
O3 P1 1.636525 1_556
O4 P6 1.632773 1_555
O4 P2 1.636525 1_556
O5 P7 1.632773 1_555
O5 P3 1.636525 1_554
O6 P0 1.494715 1_555
O7 P1 1.494715 1_555
O8 P2 1.494715 1_555
O9 P3 1.494715 1_555
O10 P0 1.502992 1_565
O11 P1 1.502992 1_545
O12 P2 1.502992 1_545
O13 P3 1.502992 1_565
O14 P4 1.497857 1_555
O15 P5 1.497857 1_555
O16 P6 1.497857 1_555
O17 P7 1.497857 1_555
O18 P4 1.508224 1_555
O19 P5 1.508224 1_555
O20 P6 1.508224 1_555
O21 P7 1.508224 1_555
O22 P4 1.632445 1_565
O22 P8 1.638851 1_555
O23 P5 1.632445 1_545
O23 P9 1.638851 1_555
O24 P6 1.632445 1_545
O24 P10 1.638851 1_555
O25 P7 1.632445 1_565
O25 P11 1.638851 1_555
O26 P8 1.502808 1_555
O27 P9 1.502808 1_555
O28 P10 1.502808 1_555
O29 P11 1.502808 1_555
O30 P8 1.494543 1_555
O31 P9 1.494543 1_555
O32 P10 1.494543 1_555
O33 P11 1.494543 1_555
O34 P8 1.652883 1_555
O34 P11 1.652883 1_555
O35 P9 1.652883 1_555
O35 P10 1.652883 1_555
