# generated using pymatgen
data_Na17Zr7Sc5Si6(PO6)12
_symmetry_space_group_name_H-M   'P 1'
_cell_length_a   9.16066100
_cell_length_b   9.24451847
_cell_length_c   22.45105395
_cell_angle_alpha   90.53786122
_cell_angle_beta   90.34276529
_cell_angle_gamma   119.46149194
_symmetry_Int_Tables_number   1
_chemical_formula_structural   Na17Zr7Sc5Si6(PO6)12
_chemical_formula_sum   'Na17 Zr7 Sc5 Si6 P12 O72'
_cell_volume   1655.22983426
_cell_formula_units_Z   1
loop_
 _symmetry_equiv_pos_site_id
 _symmetry_equiv_pos_as_xyz
  1  'x, y, z'
loop_
 _atom_site_type_symbol
 _atom_site_label
 _atom_site_symmetry_multiplicity
 _atom_site_fract_x
 _atom_site_fract_y
 _atom_site_fract_z
 _atom_site_occupancy
  Na  Na0  1  0.32353100  0.67048000  0.67098600  1
  Na  Na1  1  0.78934200  0.20288500  0.96469000  1
  Na  Na2  1  0.23571900  0.11784800  0.87277800  1
  Na  Na3  1  0.67512400  0.32694300  0.83017200  1
  Na  Na4  1  0.66299000  0.34016100  0.33457000  1
  Na  Na5  1  0.53512100  0.44705700  0.70543400  1
  Na  Na6  1  0.70888300  0.67659700  0.91995400  1
  Na  Na7  1  0.57196000  0.78531200  0.53622000  1
  Na  Na8  1  0.00564500  0.99450300  0.49889100  1
  Na  Na9  1  0.41973500  0.20994800  0.45971500  1
  Na  Na10  1  0.87478300  0.11914500  0.37305700  1
  Na  Na11  1  0.03833000  0.33721500  0.58258500  1
  Na  Na12  1  0.90660800  0.45414600  0.20329700  1
  Na  Na13  1  0.33898600  0.66128800  0.16593200  1
  Na  Na14  1  0.76051100  0.88185600  0.12349400  1
  Na  Na15  1  0.20377100  0.79326200  0.03922200  1
  Na  Na16  1  0.36966900  0.00291300  0.24931100  1
  Zr  Zr0  1  0.19032100  0.38288600  0.95477200  1
  Zr  Zr1  1  0.47173000  0.93802200  0.87867200  1
  Zr  Zr2  1  0.51997600  0.05248000  0.62029300  1
  Zr  Zr3  1  0.81578600  0.61489900  0.54661400  1
  Zr  Zr4  1  0.87555300  0.73446700  0.78339600  1
  Zr  Zr5  1  0.85303800  0.71912400  0.28733800  1
  Zr  Zr6  1  0.15004800  0.28084100  0.21362400  1
  Sc  Sc0  1  0.12933400  0.26763800  0.71971800  1
  Sc  Sc1  1  0.20744900  0.40912500  0.44923800  1
  Sc  Sc2  1  0.46224600  0.92546800  0.38531900  1
  Sc  Sc3  1  0.53873800  0.07490400  0.11695500  1
  Sc  Sc4  1  0.80087000  0.60212900  0.05253300  1
  Si  Si0  1  0.90030300  0.09903400  0.84633500  1
  Si  Si1  1  0.29664200  0.00736600  0.74895700  1
  Si  Si2  1  0.23676100  0.76532300  0.51373500  1
  Si  Si3  1  0.62462100  0.66526900  0.41676200  1
  Si  Si4  1  0.57055600  0.43260800  0.18017300  1
  Si  Si5  1  0.95807200  0.33549600  0.08450800  1
  P  P0  1  0.47451300  0.23706400  0.98593800  1
  P  P1  1  0.86313800  0.43012100  0.68082900  1
  P  P2  1  0.03743600  0.66331600  0.91678900  1
  P  P3  1  0.42900700  0.56307700  0.81771200  1
  P  P4  1  0.80676500  0.90516400  0.65216100  1
  P  P5  1  0.19601700  0.09774600  0.34835300  1
  P  P6  1  0.37258100  0.33662100  0.58294700  1
  P  P7  1  0.76410600  0.23168700  0.48522400  1
  P  P8  1  0.13784500  0.56860000  0.31891000  1
  P  P9  1  0.52814400  0.76495800  0.01501300  1
  P  P10  1  0.70640400  0.00330200  0.24965900  1
  P  P11  1  0.09716300  0.89729100  0.15283700  1
  O  O0  1  0.45394600  0.73993100  0.83126800  1
  O  O1  1  0.55201100  0.87685500  0.96012500  1
  O  O2  1  0.02020700  0.18200700  0.90571300  1
  O  O3  1  0.21221100  0.81847200  0.90592100  1
  O  O4  1  0.98615100  0.20709100  0.78849600  1
  O  O5  1  0.72166600  0.09325500  0.86132000  1
  O  O6  1  0.37985200  0.95811300  0.69379800  1
  O  O7  1  0.41029600  0.04352100  0.81053000  1
  O  O8  1  0.50366500  0.15829100  0.92791100  1
  O  O9  1  0.70721000  0.25707200  0.66955700  1
  O  O10  1  0.02732200  0.42410800  0.68594500  1
  O  O11  1  0.06128000  0.51077100  0.92642500  1
  O  O12  1  0.28197300  0.17309400  0.73992100  1
  O  O13  1  0.78165100  0.40546600  0.49857800  1
  O  O14  1  0.31477600  0.24906700  0.97323200  1
  O  O15  1  0.63080000  0.40949400  0.99397100  1
  O  O16  1  0.82034500  0.50034700  0.73768700  1
  O  O17  1  0.88067600  0.53791200  0.62596100  1
  O  O18  1  0.91450900  0.62342200  0.86247400  1
  O  O19  1  0.35876000  0.84226500  0.57373100  1
  O  O20  1  0.54751500  0.49071400  0.57307800  1
  O  O21  1  0.95846600  0.69983500  0.97101700  1
  O  O22  1  0.32767100  0.88750800  0.45790400  1
  O  O23  1  0.05705600  0.76004000  0.52469100  1
  O  O24  1  0.60426500  0.57319200  0.81045100  1
  O  O25  1  0.34761100  0.45524700  0.87299200  1
  O  O26  1  0.71340900  0.62513900  0.36058500  1
  O  O27  1  0.11179600  0.84490000  0.76049100  1
  O  O28  1  0.33207600  0.50012000  0.75852700  1
  O  O29  1  0.74380300  0.70931500  0.47749800  1
  O  O30  1  0.78039200  0.79075700  0.70631400  1
  O  O31  1  0.83028600  0.82563200  0.59408000  1
  O  O32  1  0.04175700  0.92454000  0.33611400  1
  O  O33  1  0.36280500  0.09364700  0.35494200  1
  O  O34  1  0.87985100  0.91195500  0.83842700  1
  O  O35  1  0.40245000  0.18624000  0.59339500  1
  O  O36  1  0.61087100  0.83344800  0.40743200  1
  O  O37  1  0.11453800  0.07138900  0.16576900  1
  O  O38  1  0.64007500  0.90867200  0.64207300  1
  O  O39  1  0.95776000  0.07909200  0.66078500  1
  O  O40  1  0.15858600  0.16684100  0.40607700  1
  O  O41  1  0.21499300  0.20409500  0.29289200  1
  O  O42  1  0.25165500  0.28756300  0.52824600  1
  O  O43  1  0.69186100  0.50849200  0.24037100  1
  O  O44  1  0.88058400  0.15783100  0.23987700  1
  O  O45  1  0.29392800  0.37599400  0.63720900  1
  O  O46  1  0.66015200  0.55338200  0.12430200  1
  O  O47  1  0.39031000  0.42641200  0.19128500  1
  O  O48  1  0.93577200  0.23885700  0.47722800  1
  O  O49  1  0.67968700  0.12245800  0.54023400  1
  O  O50  1  0.04043900  0.30139000  0.02503100  1
  O  O51  1  0.44544900  0.49923400  0.42854600  1
  O  O52  1  0.65857700  0.16712100  0.42672800  1
  O  O53  1  0.07726700  0.37594100  0.14428200  1
  O  O54  1  0.11017700  0.45496600  0.37240300  1
  O  O55  1  0.16353700  0.49227700  0.26025900  1
  O  O56  1  0.37161600  0.59407300  0.00099900  1
  O  O57  1  0.68792200  0.75176100  0.02179500  1
  O  O58  1  0.21590600  0.58002700  0.50617600  1
  O  O59  1  0.73551800  0.85299300  0.26017200  1
  O  O60  1  0.94155300  0.50098900  0.07491600  1
  O  O61  1  0.97268000  0.57508000  0.30812000  1
  O  O62  1  0.28945800  0.74435100  0.32748000  1
  O  O63  1  0.49077100  0.83426400  0.07266200  1
  O  O64  1  0.58576100  0.95522400  0.19492000  1
  O  O65  1  0.62685800  0.04197600  0.30425800  1
  O  O66  1  0.27024200  0.90681400  0.14436100  1
  O  O67  1  0.01615300  0.79056900  0.20870100  1
  O  O68  1  0.77652700  0.16780500  0.09249500  1
  O  O69  1  0.98980100  0.82739400  0.09595600  1
  O  O70  1  0.44550100  0.12262500  0.03907100  1
  O  O71  1  0.54906200  0.24654900  0.17306500  1
loop_
_geom_bond_atom_site_label_1
_geom_bond_atom_site_label_2
_geom_bond_distance
_geom_bond_site_symmetry_2
Na0 O6 2.494133 1_555
Na0 O28 2.554743 1_555
Na0 O10 2.570817 1_555
Na0 O19 2.638765 1_555
Na0 O45 2.700469 1_555
Na0 O38 2.728922 1_555
Na1 O50 2.415491 1_656
Na1 O5 2.473460 1_555
Na1 O8 2.570394 1_555
Na1 O2 2.587163 1_655
Na1 O1 2.714248 1_545
Na1 O11 2.853384 1_655
Na1 O68 2.887250 1_556
Na1 O15 2.984316 1_555
Na2 O2 2.440739 1_555
Na2 O7 2.464232 1_555
Na2 O14 2.479372 1_555
Na2 O8 2.597890 1_555
Na2 O25 2.762997 1_555
Na2 O3 2.777391 1_545
Na3 O5 2.503733 1_555
Na3 O16 2.578499 1_555
Na3 O7 2.580265 1_555
Na3 O18 2.622642 1_555
Na3 O24 2.696047 1_555
Na3 O8 2.722053 1_555
Na4 O26 2.503181 1_555
Na4 O43 2.574454 1_555
Na4 O33 2.614320 1_555
Na4 O52 2.615541 1_555
Na4 O61 2.664809 1_555
Na4 O65 2.689976 1_555
Na5 O28 2.456472 1_555
Na5 O45 2.484429 1_555
Na5 O16 2.509672 1_555
Na5 O24 2.554178 1_555
Na5 O12 2.583127 1_555
Na5 O30 2.849566 1_555
Na5 O9 2.988449 1_555
Na5 O20 2.997875 1_555
Na6 O57 2.419538 1_556
Na6 O21 2.463467 1_555
Na6 O18 2.526509 1_555
Na6 O24 2.627317 1_555
Na6 O34 2.700775 1_555
Na6 O15 2.779225 1_555
Na7 O29 2.409383 1_555
Na7 O19 2.413238 1_555
Na7 O31 2.552032 1_555
Na7 O38 2.563022 1_555
Na7 O20 2.756179 1_555
Na7 O49 2.768436 1_565
Na7 O58 2.925042 1_555
Na7 O36 2.926753 1_555
Na8 O23 2.505955 1_555
Na8 O29 2.583939 1_455
Na8 O40 2.597081 1_565
Na8 O42 2.606868 1_565
Na8 O48 2.681090 1_465
Na8 O31 2.687317 1_455
Na9 O42 2.519365 1_555
Na9 O33 2.519395 1_555
Na9 O40 2.520080 1_555
Na9 O52 2.521575 1_555
Na9 O51 2.667310 1_555
Na9 O22 2.668809 1_545
Na10 O48 2.516783 1_555
Na10 O40 2.519178 1_655
Na10 O65 2.529123 1_555
Na10 O52 2.540472 1_555
Na10 O36 2.682463 1_545
Na10 O54 2.775632 1_655
Na11 O10 2.467353 1_555
Na11 O45 2.499312 1_555
Na11 O48 2.529259 1_455
Na11 O42 2.533429 1_555
Na11 O58 2.672346 1_555
Na11 O39 2.771804 1_455
Na12 O43 2.408139 1_555
Na12 O53 2.416782 1_655
Na12 O61 2.534281 1_555
Na12 O55 2.537470 1_655
Na12 O67 2.759656 1_655
Na12 O44 2.763550 1_555
Na12 O60 2.914738 1_555
Na12 O71 2.938951 1_555
Na13 O47 2.506763 1_555
Na13 O53 2.585278 1_555
Na13 O63 2.604965 1_555
Na13 O64 2.612346 1_555
Na13 O55 2.672423 1_555
Na13 O66 2.684397 1_555
Na14 O69 2.469325 1_555
Na14 O57 2.499083 1_555
Na14 O63 2.547397 1_555
Na14 O64 2.583118 1_555
Na14 O68 2.673579 1_565
Na14 O46 2.705825 1_555
Na15 O21 2.483003 1_454
Na15 O69 2.488915 1_455
Na15 O66 2.520339 1_555
Na15 O63 2.571050 1_555
Na15 O60 2.718819 1_455
Na15 O70 2.746332 1_565
Na16 O66 2.511922 1_545
Na16 O65 2.514558 1_555
Na16 O33 2.519521 1_555
Na16 O64 2.545861 1_545
Na16 O71 2.677474 1_555
Na16 O62 2.774853 1_545
O0 P3 1.562122 1_555
O0 Zr1 2.044646 1_555
O1 P9 1.562397 1_556
O1 Zr1 2.148756 1_555
O2 Si0 1.645146 1_455
O2 Zr0 2.045620 1_555
O3 P2 1.559653 1_555
O3 Zr1 2.166360 1_555
O4 Si0 1.601988 1_555
O4 Sc0 1.932968 1_655
O5 Si0 1.647689 1_555
O5 Zr1 2.059720 1_545
O6 Si1 1.632191 1_565
O6 Zr2 2.020634 1_565
O7 Si1 1.654831 1_555
O7 Zr1 2.041077 1_545
O8 P0 1.573680 1_555
O8 Zr1 2.195898 1_545
O9 P1 1.550443 1_555
O9 Zr2 2.118807 1_555
O10 P1 1.535804 1_455
O10 Sc0 2.209601 1_555
O11 P2 1.546400 1_555
O11 Zr0 2.140072 1_555
O12 Si1 1.616940 1_555
O12 Sc0 2.031458 1_555
O13 P7 1.559796 1_555
O13 Zr3 2.090596 1_555
O14 P0 1.546041 1_555
O14 Zr0 2.096024 1_555
O15 P0 1.539418 1_555
O15 Sc4 2.128277 1_556
O16 P1 1.563784 1_555
O16 Zr4 2.206484 1_555
O17 P1 1.550532 1_555
O17 Zr3 2.112024 1_555
O18 P2 1.567708 1_655
O18 Zr4 2.172593 1_555
O19 Si2 1.658713 1_555
O19 Zr2 2.042216 1_565
O20 P6 1.552744 1_555
O20 Zr3 2.228336 1_555
O21 P2 1.537080 1_655
O21 Sc4 2.242620 1_556
O22 Si2 1.629213 1_555
O22 Sc2 1.976811 1_555
O23 Si2 1.642833 1_555
O23 Zr3 2.008930 1_455
O24 P3 1.571186 1_555
O24 Zr4 2.271175 1_555
O25 P3 1.546974 1_555
O25 Zr0 2.236352 1_555
O26 Si3 1.640180 1_555
O26 Zr5 2.013470 1_555
O27 Si1 1.643461 1_565
O27 Zr4 1.959606 1_455
O28 P3 1.534866 1_555
O28 Sc0 2.201500 1_555
O29 Si3 1.658803 1_555
O29 Zr3 2.045448 1_555
O30 P4 1.559302 1_555
O30 Zr4 2.114398 1_555
O31 P4 1.558382 1_555
O31 Zr3 2.157140 1_555
O32 P5 1.548421 1_565
O32 Zr5 2.122019 1_455
O33 P5 1.553098 1_555
O33 Sc2 2.262249 1_545
O34 Si0 1.653102 1_565
O34 Zr4 2.029292 1_555
O35 P6 1.562715 1_555
O35 Zr2 2.090126 1_555
O36 Si3 1.635657 1_555
O36 Sc2 1.990719 1_555
O37 P11 1.561618 1_545
O37 Zr6 2.084829 1_555
O38 P4 1.558448 1_555
O38 Zr2 2.159036 1_565
O39 P4 1.529464 1_545
O39 Sc0 2.120388 1_655
O40 P5 1.552522 1_555
O40 Sc1 2.263602 1_555
O41 P5 1.550700 1_555
O41 Zr6 2.109671 1_555
O42 P6 1.555670 1_555
O42 Sc1 2.247170 1_555
O43 Si4 1.658598 1_555
O43 Zr5 2.048951 1_555
O44 P10 1.550104 1_555
O44 Zr6 2.236657 1_655
O45 P6 1.547864 1_555
O45 Sc0 2.300180 1_555
O46 Si4 1.621984 1_555
O46 Sc4 1.981941 1_555
O47 Si4 1.644400 1_555
O47 Zr6 2.004764 1_555
O48 P7 1.552635 1_555
O48 Sc1 2.291327 1_655
O49 P7 1.552316 1_555
O49 Zr2 2.216300 1_555
O50 Si5 1.640118 1_455
O50 Zr0 1.992893 1_554
O51 Si3 1.629284 1_555
O51 Sc1 1.973834 1_555
O52 P7 1.555009 1_555
O52 Sc2 2.253515 1_545
O53 Si5 1.644519 1_455
O53 Zr6 2.056920 1_555
O54 P8 1.541276 1_555
O54 Sc1 2.077525 1_555
O55 P8 1.561005 1_555
O55 Zr6 2.157426 1_555
O56 P9 1.551680 1_555
O56 Zr0 2.097322 1_554
O57 P9 1.534190 1_555
O57 Sc4 2.208509 1_555
O58 Si2 1.634568 1_555
O58 Sc1 1.994167 1_555
O59 P10 1.558074 1_565
O59 Zr5 2.092697 1_555
O60 Si5 1.625856 1_555
O60 Sc4 1.993485 1_555
O61 P8 1.560944 1_655
O61 Zr5 2.152508 1_555
O62 P8 1.541742 1_555
O62 Sc2 2.079104 1_555
O63 P9 1.551894 1_555
O63 Sc3 2.263293 1_565
O64 P10 1.555496 1_565
O64 Sc3 2.229277 1_565
O65 P10 1.555682 1_555
O65 Sc2 2.284301 1_545
O66 P11 1.557065 1_555
O66 Sc3 2.262588 1_565
O67 P11 1.552830 1_555
O67 Zr5 2.206484 1_455
O68 Si5 1.635204 1_555
O68 Sc3 1.991753 1_555
O69 P11 1.536225 1_655
O69 Sc4 2.163065 1_555
O70 P0 1.537452 1_554
O70 Sc3 2.085405 1_555
O71 Si4 1.638308 1_555
O71 Sc3 1.981702 1_555
