# generated using pymatgen
data_Ba5Na2Ru3O14
_symmetry_space_group_name_H-M   'P 1'
_cell_length_a   5.95439808
_cell_length_b   5.95439808
_cell_length_c   24.51998000
_cell_angle_alpha   90.00000000
_cell_angle_beta   90.00000000
_cell_angle_gamma   119.70743169
_symmetry_Int_Tables_number   1
_chemical_formula_structural   Ba5Na2Ru3O14
_chemical_formula_sum   'Ba10 Na4 Ru6 O28'
_cell_volume   755.09099365
_cell_formula_units_Z   2
loop_
 _symmetry_equiv_pos_site_id
 _symmetry_equiv_pos_as_xyz
  1  'x, y, z'
loop_
 _atom_site_type_symbol
 _atom_site_label
 _atom_site_symmetry_multiplicity
 _atom_site_fract_x
 _atom_site_fract_y
 _atom_site_fract_z
 _atom_site_occupancy
  Ba  Ba0  1  0.00557200  0.99442800  0.15109500  1
  Ba  Ba1  1  0.67018900  0.32981100  0.93572000  1
  Ba  Ba2  1  0.32981100  0.67018900  0.43572000  1
  Ba  Ba3  1  0.99442800  0.00557200  0.65109500  1
  Ba  Ba4  1  0.99409800  0.00590200  0.32892600  1
  Ba  Ba5  1  0.66134000  0.33866000  0.54448500  1
  Ba  Ba6  1  0.66384900  0.33615100  0.24277000  1
  Ba  Ba7  1  0.33615100  0.66384900  0.74277000  1
  Ba  Ba8  1  0.33866000  0.66134000  0.04448500  1
  Ba  Ba9  1  0.00590200  0.99409800  0.82892600  1
  Na  Na0  1  0.33837600  0.66162400  0.89565400  1
  Na  Na1  1  0.65560500  0.34439500  0.09441100  1
  Na  Na2  1  0.66162400  0.33837600  0.39565400  1
  Na  Na3  1  0.34439500  0.65560500  0.59441100  1
  Ru  Ru0  1  0.00662700  0.99337300  0.99158700  1
  Ru  Ru1  1  0.33211500  0.66788500  0.18610300  1
  Ru  Ru2  1  0.32701700  0.67298300  0.29906300  1
  Ru  Ru3  1  0.66788500  0.33211500  0.68610300  1
  Ru  Ru4  1  0.67298300  0.32701700  0.79906300  1
  Ru  Ru5  1  0.99337200  0.00662800  0.49158700  1
  O  O0  1  0.88690300  0.67266300  0.46091300  1
  O  O1  1  0.62916900  0.82320300  0.24393300  1
  O  O2  1  0.48027000  0.98472100  0.33970600  1
  O  O3  1  0.02428900  0.50212600  0.14383200  1
  O  O4  1  0.27831200  0.16584200  0.04410200  1
  O  O5  1  0.49311800  0.50688200  0.15058400  1
  O  O6  1  0.37083100  0.17679700  0.74393300  1
  O  O7  1  0.17681300  0.82318700  0.24122300  1
  O  O8  1  0.50688200  0.49311800  0.65058400  1
  O  O9  1  0.14574900  0.85425100  0.94542900  1
  O  O10  1  0.67266300  0.88690300  0.96091300  1
  O  O11  1  0.16584200  0.27831200  0.54410200  1
  O  O12  1  0.49787400  0.97571100  0.14383200  1
  O  O13  1  0.83415800  0.72168800  0.04410200  1
  O  O14  1  0.98472100  0.48027000  0.83970600  1
  O  O15  1  0.32733700  0.11309700  0.46091300  1
  O  O16  1  0.97571100  0.49787400  0.64383200  1
  O  O17  1  0.72168800  0.83415800  0.54410200  1
  O  O18  1  0.01527900  0.51973000  0.33970600  1
  O  O19  1  0.50212600  0.02428900  0.64383200  1
  O  O20  1  0.51864500  0.48135500  0.84148900  1
  O  O21  1  0.11309700  0.32733700  0.96091300  1
  O  O22  1  0.85425100  0.14574900  0.44542900  1
  O  O23  1  0.17679700  0.37083100  0.24393300  1
  O  O24  1  0.82320300  0.62916900  0.74393300  1
  O  O25  1  0.48135500  0.51864500  0.34148900  1
  O  O26  1  0.82318700  0.17681300  0.74122300  1
  O  O27  1  0.51973000  0.01527900  0.83970600  1
loop_
_geom_bond_atom_site_label_1
_geom_bond_atom_site_label_2
_geom_bond_distance
_geom_bond_site_symmetry_2
Ba0 O7 2.827294 1_555
Ba0 O12 2.974719 1_455
Ba0 O3 2.974719 1_565
Ba0 O4 2.986442 1_565
Ba0 O13 2.986442 1_455
Ba0 O5 2.993130 1_565
Ba0 O5 2.993130 1_455
Ba0 O3 2.993463 1_555
Ba0 O12 2.993463 1_555
Ba0 O23 2.996632 1_565
Ba0 O1 2.996632 1_455
Ba1 O21 2.715770 1_655
Ba1 O10 2.715770 1_545
Ba1 O20 2.788211 1_555
Ba1 O27 2.861769 1_555
Ba1 O14 2.861769 1_555
Ba1 O9 3.010356 1_545
Ba1 O9 3.010356 1_655
Ba1 O4 3.346997 1_556
Ba1 O13 3.346997 1_556
Ba1 O21 3.367023 1_555
Ba1 O10 3.367023 1_555
Ba2 O15 2.715770 1_565
Ba2 O0 2.715770 1_455
Ba2 O25 2.788211 1_555
Ba2 O18 2.861769 1_555
Ba2 O2 2.861769 1_555
Ba2 O22 3.010356 1_455
Ba2 O22 3.010356 1_565
Ba2 O11 3.346997 1_555
Ba2 O17 3.346997 1_555
Ba2 O15 3.367023 1_555
Ba2 O0 3.367023 1_555
Ba3 O26 2.827294 1_555
Ba3 O16 2.974719 1_545
Ba3 O19 2.974719 1_655
Ba3 O17 2.986442 1_545
Ba3 O11 2.986442 1_655
Ba3 O8 2.993130 1_655
Ba3 O8 2.993130 1_545
Ba3 O19 2.993463 1_555
Ba3 O16 2.993463 1_555
Ba3 O6 2.996632 1_655
Ba3 O24 2.996632 1_545
Ba4 O23 2.811642 1_655
Ba4 O1 2.811642 1_545
Ba4 O7 2.857450 1_645
Ba4 O18 2.971172 1_645
Ba4 O2 2.971172 1_645
Ba4 O25 3.009042 1_545
Ba4 O25 3.009042 1_655
Ba4 O2 3.010662 1_545
Ba4 O18 3.010662 1_655
Ba4 O22 3.199141 1_555
Ba5 O0 2.703860 1_555
Ba5 O15 2.703860 1_555
Ba5 O17 2.789845 1_555
Ba5 O11 2.789845 1_555
Ba5 O16 2.928801 1_555
Ba5 O19 2.928801 1_555
Ba5 O8 3.049281 1_555
Ba5 O22 3.137826 1_555
Ba5 O17 3.197366 1_545
Ba5 O11 3.197366 1_655
Ba6 O5 2.863683 1_555
Ba6 O23 2.957543 1_655
Ba6 O1 2.957543 1_545
Ba6 O18 2.992665 1_655
Ba6 O2 2.992665 1_545
Ba6 O7 2.993574 1_545
Ba6 O7 2.993574 1_655
Ba6 O1 3.007924 1_555
Ba6 O23 3.007924 1_555
Ba6 O3 3.060375 1_655
Ba6 O12 3.060375 1_545
Ba6 O25 3.064500 1_555
Ba7 O8 2.863683 1_555
Ba7 O6 2.957543 1_565
Ba7 O24 2.957543 1_455
Ba7 O14 2.992665 1_455
Ba7 O27 2.992665 1_565
Ba7 O26 2.993574 1_455
Ba7 O26 2.993574 1_565
Ba7 O24 3.007924 1_555
Ba7 O6 3.007924 1_555
Ba7 O19 3.060375 1_565
Ba7 O16 3.060375 1_455
Ba7 O20 3.064500 1_555
Ba8 O10 2.703860 1_554
Ba8 O21 2.703860 1_554
Ba8 O13 2.789845 1_555
Ba8 O4 2.789845 1_555
Ba8 O12 2.928801 1_555
Ba8 O3 2.928801 1_555
Ba8 O5 3.049281 1_555
Ba8 O9 3.137826 1_554
Ba8 O13 3.197366 1_455
Ba8 O4 3.197366 1_565
Ba9 O6 2.811642 1_565
Ba9 O24 2.811642 1_455
Ba9 O26 2.857450 1_465
Ba9 O27 2.971172 1_465
Ba9 O14 2.971172 1_465
Ba9 O20 3.009042 1_455
Ba9 O20 3.009042 1_565
Ba9 O14 3.010662 1_455
Ba9 O27 3.010662 1_565
Ba9 O9 3.199141 1_555
Na0 O20 2.282593 1_555
Na0 O14 2.286619 1_455
Na0 O27 2.286619 1_565
Na0 O9 2.329077 1_555
Na0 O10 2.382322 1_555
Na0 O21 2.382322 1_555
Na1 O5 2.167273 1_555
Na1 O3 2.264136 1_655
Na1 O12 2.264136 1_545
Na1 O4 2.309053 1_555
Na1 O13 2.309053 1_555
Na2 O25 2.282593 1_555
Na2 O18 2.286619 1_655
Na2 O2 2.286619 1_545
Na2 O22 2.329077 1_555
Na2 O0 2.382322 1_555
Na2 O15 2.382322 1_555
Na3 O8 2.167273 1_555
Na3 O19 2.264136 1_565
Na3 O16 2.264136 1_455
Na3 O17 2.309053 1_555
Na3 O11 2.309053 1_555
O0 Ru5 1.916369 1_565
O1 Ru2 2.066220 1_555
O1 Ru1 2.091232 1_555
O2 Ru2 1.895397 1_555
O3 Ru1 1.901313 1_555
O4 Ru0 1.919148 1_544
O5 Ru1 1.872845 1_555
O6 Ru4 2.066220 1_555
O6 Ru3 2.091232 1_555
O7 Ru1 2.093912 1_555
O7 Ru2 2.098577 1_555
O8 Ru3 1.872845 1_555
O9 Ru0 1.825803 1_555
O10 Ru0 1.916363 1_655
O11 Ru5 1.919145 1_455
O12 Ru1 1.901313 1_555
O13 Ru0 1.919148 1_654
O14 Ru4 1.895397 1_555
O15 Ru5 1.916369 1_455
O16 Ru3 1.901313 1_555
O17 Ru5 1.919145 1_565
O18 Ru2 1.895397 1_555
O19 Ru3 1.901313 1_555
O20 Ru4 1.899563 1_555
O21 Ru0 1.916363 1_545
O22 Ru5 1.825795 1_555
O23 Ru2 2.066220 1_555
O23 Ru1 2.091232 1_555
O24 Ru4 2.066220 1_555
O24 Ru3 2.091232 1_555
O25 Ru2 1.899563 1_555
O26 Ru3 2.093912 1_555
O26 Ru4 2.098577 1_555
O27 Ru4 1.895397 1_555
