# generated using pymatgen
data_Co27Se32
_symmetry_space_group_name_H-M   'P 1'
_cell_length_a   10.33986900
_cell_length_b   10.73420579
_cell_length_c   10.77049827
_cell_angle_alpha   83.50152364
_cell_angle_beta   118.61309536
_cell_angle_gamma   118.09599158
_symmetry_Int_Tables_number   1
_chemical_formula_structural   Co27Se32
_chemical_formula_sum   'Co27 Se32'
_cell_volume   915.96796972
_cell_formula_units_Z   1
loop_
 _symmetry_equiv_pos_site_id
 _symmetry_equiv_pos_as_xyz
  1  'x, y, z'
loop_
 _atom_site_type_symbol
 _atom_site_label
 _atom_site_symmetry_multiplicity
 _atom_site_fract_x
 _atom_site_fract_y
 _atom_site_fract_z
 _atom_site_occupancy
  Co  Co0  1  0.48032500  0.36765700  0.12043000  1
  Co  Co1  1  0.97933300  0.61749100  0.87011800  1
  Co  Co2  1  0.50084600  0.24575400  0.75454500  1
  Co  Co3  1  0.74994800  0.87502600  0.62443600  1
  Co  Co4  1  0.24998100  0.51459700  0.48496000  1
  Co  Co5  1  0.47777100  0.86563500  0.61769600  1
  Co  Co6  1  0.00000000  0.50000000  0.50000000  1
  Co  Co7  1  0.99929700  0.74945000  0.24966400  1
  Co  Co8  1  0.25005200  0.12497400  0.37556400  1
  Co  Co9  1  0.75264400  0.76983000  0.23922900  1
  Co  Co10  1  0.97530900  0.11349100  0.36654900  1
  Co  Co11  1  0.74458100  0.98996800  0.01309000  1
  Co  Co12  1  0.49915400  0.75424600  0.24545500  1
  Co  Co13  1  0.74566900  0.36821300  0.12306400  1
  Co  Co14  1  0.25541900  0.01003200  0.98691000  1
  Co  Co15  1  0.24735600  0.23017000  0.76077100  1
  Co  Co16  1  0.00000000  0.00000000  0.00000000  1
  Co  Co17  1  0.00070300  0.25055000  0.75033600  1
  Co  Co18  1  0.25433100  0.63178700  0.87693600  1
  Co  Co19  1  0.75336600  0.26768300  0.73932400  1
  Co  Co20  1  0.52222900  0.13436500  0.38230400  1
  Co  Co21  1  0.75001900  0.48540300  0.51504000  1
  Co  Co22  1  0.50000000  0.50000000  0.50000000  1
  Co  Co23  1  0.02066700  0.38250900  0.12988200  1
  Co  Co24  1  0.24663400  0.73231700  0.26067600  1
  Co  Co25  1  0.51967500  0.63234300  0.87957000  1
  Co  Co26  1  0.02469100  0.88650900  0.63345100  1
  Se  Se0  1  0.03999300  0.42160000  0.91347800  1
  Se  Se1  1  0.69925700  0.45957800  0.71009600  1
  Se  Se2  1  0.53604200  0.66912600  0.66256000  1
  Se  Se3  1  0.53499000  0.91298600  0.41861700  1
  Se  Se4  1  0.19897000  0.70905200  0.45920000  1
  Se  Se5  1  0.21162900  0.95913600  0.20950300  1
  Se  Se6  1  0.78759500  0.53933800  0.29028100  1
  Se  Se7  1  0.03808100  0.91964800  0.41420300  1
  Se  Se8  1  0.03537500  0.16229800  0.16919500  1
  Se  Se9  1  0.46617900  0.58943300  0.08004400  1
  Se  Se10  1  0.69811800  0.96182000  0.20595000  1
  Se  Se11  1  0.72146300  0.21157000  0.95889600  1
  Se  Se12  1  0.27853700  0.78843000  0.04110400  1
  Se  Se13  1  0.53322300  0.16861000  0.16326200  1
  Se  Se14  1  0.30188200  0.03818000  0.79405000  1
  Se  Se15  1  0.53382100  0.41056700  0.91995600  1
  Se  Se16  1  0.96462500  0.83770200  0.83080500  1
  Se  Se17  1  0.20106500  0.20729200  0.95970900  1
  Se  Se18  1  0.96191900  0.08035200  0.58579700  1
  Se  Se19  1  0.21240500  0.46066200  0.70971900  1
  Se  Se20  1  0.78837100  0.04086400  0.79049700  1
  Se  Se21  1  0.80103000  0.29094800  0.54080000  1
  Se  Se22  1  0.03554600  0.66362800  0.67004500  1
  Se  Se23  1  0.46501000  0.08701400  0.58138300  1
  Se  Se24  1  0.46395800  0.33087400  0.33744000  1
  Se  Se25  1  0.71076700  0.70907600  0.45783000  1
  Se  Se26  1  0.28923300  0.29092400  0.54217000  1
  Se  Se27  1  0.30074300  0.54042200  0.28990400  1
  Se  Se28  1  0.96445400  0.33637200  0.32995500  1
  Se  Se29  1  0.96000700  0.57840000  0.08652200  1
  Se  Se30  1  0.79893500  0.79270800  0.04029100  1
  Se  Se31  1  0.46677700  0.83139000  0.83673800  1
loop_
_geom_bond_atom_site_label_1
_geom_bond_atom_site_label_2
_geom_bond_distance
_geom_bond_site_symmetry_2
Co0 Se17 2.345797 1_554
Co0 Se13 2.390199 1_555
Co0 Se24 2.398866 1_555
Co0 Se15 2.420562 1_554
Co0 Se9 2.431142 1_555
Co0 Se6 2.553111 1_555
Co1 Se1 2.342527 1_555
Co1 Se0 2.402583 1_655
Co1 Se29 2.407129 1_556
Co1 Se16 2.416668 1_555
Co1 Se22 2.431782 1_655
Co1 Se12 2.508112 1_656
Co2 Se14 2.384162 1_555
Co2 Se1 2.441902 1_555
Co2 Se11 2.445271 1_555
Co2 Se23 2.445784 1_555
Co2 Se15 2.446125 1_555
Co2 Se26 2.491863 1_555
Co3 Se20 2.428919 1_565
Co3 Se25 2.429979 1_555
Co3 Se16 2.436940 1_555
Co3 Se3 2.439207 1_555
Co3 Se18 2.439395 1_565
Co3 Se2 2.450594 1_555
Co4 Se4 2.340474 1_555
Co4 Se27 2.356516 1_555
Co4 Se2 2.416013 1_555
Co4 Se28 2.417755 1_455
Co4 Se26 2.579227 1_555
Co4 Se19 2.591907 1_555
Co5 Se4 2.328477 1_555
Co5 Se2 2.394466 1_555
Co5 Se31 2.394794 1_555
Co5 Se23 2.419265 1_565
Co5 Se3 2.427134 1_555
Co5 Se20 2.587218 1_565
Co6 Se21 2.399067 1_455
Co6 Se4 2.399067 1_555
Co6 Se6 2.451544 1_455
Co6 Se19 2.451544 1_555
Co6 Se22 2.459621 1_555
Co6 Se28 2.459621 1_455
Co7 Se4 2.388060 1_655
Co7 Se30 2.405690 1_555
Co7 Se29 2.442890 1_555
Co7 Se7 2.449736 1_655
Co7 Se5 2.471456 1_655
Co7 Se6 2.472537 1_555
Co8 Se5 2.428919 1_545
Co8 Se26 2.429979 1_555
Co8 Se8 2.436940 1_555
Co8 Se23 2.439207 1_555
Co8 Se7 2.439395 1_545
Co8 Se24 2.450594 1_555
Co9 Se10 2.329617 1_555
Co9 Se30 2.373365 1_555
Co9 Se7 2.395125 1_655
Co9 Se9 2.438810 1_555
Co9 Se25 2.553252 1_555
Co9 Se6 2.626457 1_555
Co10 Se10 2.313264 1_545
Co10 Se7 2.392797 1_645
Co10 Se18 2.408023 1_555
Co10 Se8 2.425751 1_655
Co10 Se28 2.426701 1_555
Co10 Se26 2.617885 1_655
Co11 Se10 2.305182 1_555
Co11 Se31 2.378449 1_554
Co11 Se30 2.389134 1_555
Co11 Se8 2.431580 1_665
Co11 Se11 2.478670 1_564
Co11 Se20 2.600272 1_564
Co12 Se10 2.384162 1_555
Co12 Se27 2.441902 1_555
Co12 Se12 2.445271 1_555
Co12 Se3 2.445784 1_555
Co12 Se9 2.446125 1_555
Co12 Se25 2.491863 1_555
Co13 Se11 2.422605 1_554
Co13 Se13 2.423072 1_555
Co13 Se15 2.431814 1_554
Co13 Se28 2.434660 1_555
Co13 Se6 2.461043 1_555
Co13 Se29 2.466105 1_555
Co14 Se14 2.305182 1_555
Co14 Se13 2.378449 1_556
Co14 Se17 2.389134 1_555
Co14 Se16 2.431580 1_445
Co14 Se12 2.478670 1_546
Co14 Se5 2.600272 1_546
Co15 Se14 2.329617 1_555
Co15 Se17 2.373365 1_555
Co15 Se18 2.395125 1_455
Co15 Se15 2.438810 1_555
Co15 Se26 2.553252 1_555
Co15 Se19 2.626457 1_555
Co16 Se17 2.397906 1_554
Co16 Se30 2.397906 1_445
Co16 Se8 2.443289 1_555
Co16 Se16 2.443289 1_444
Co16 Se20 2.454210 1_454
Co16 Se5 2.454210 1_545
Co17 Se21 2.388060 1_455
Co17 Se17 2.405690 1_555
Co17 Se0 2.442890 1_555
Co17 Se18 2.449736 1_455
Co17 Se20 2.471456 1_455
Co17 Se19 2.472537 1_555
Co18 Se12 2.422605 1_556
Co18 Se31 2.423072 1_555
Co18 Se9 2.431814 1_556
Co18 Se22 2.434660 1_555
Co18 Se19 2.461043 1_555
Co18 Se0 2.466105 1_555
Co19 Se1 2.329179 1_555
Co19 Se21 2.376905 1_555
Co19 Se0 2.407595 1_655
Co19 Se23 2.446855 1_555
Co19 Se11 2.510373 1_555
Co19 Se20 2.588025 1_555
Co20 Se21 2.328477 1_555
Co20 Se24 2.394466 1_555
Co20 Se13 2.394794 1_555
Co20 Se3 2.419265 1_545
Co20 Se23 2.427134 1_555
Co20 Se5 2.587218 1_545
Co21 Se21 2.340474 1_555
Co21 Se1 2.356516 1_555
Co21 Se24 2.416013 1_555
Co21 Se22 2.417755 1_655
Co21 Se25 2.579227 1_555
Co21 Se6 2.591907 1_555
Co22 Se1 2.389139 1_555
Co22 Se27 2.389139 1_555
Co22 Se24 2.440788 1_555
Co22 Se2 2.440788 1_555
Co22 Se26 2.470408 1_555
Co22 Se25 2.470408 1_555
Co23 Se27 2.342527 1_555
Co23 Se29 2.402583 1_455
Co23 Se0 2.407129 1_554
Co23 Se8 2.416668 1_555
Co23 Se28 2.431782 1_455
Co23 Se11 2.508112 1_454
Co24 Se27 2.329179 1_555
Co24 Se4 2.376905 1_555
Co24 Se29 2.407595 1_455
Co24 Se3 2.446855 1_555
Co24 Se12 2.510373 1_555
Co24 Se5 2.588025 1_555
Co25 Se30 2.345797 1_556
Co25 Se31 2.390199 1_555
Co25 Se2 2.398866 1_555
Co25 Se9 2.420562 1_556
Co25 Se15 2.431142 1_555
Co25 Se19 2.553111 1_555
Co26 Se14 2.313264 1_565
Co26 Se18 2.392797 1_465
Co26 Se7 2.408023 1_555
Co26 Se16 2.425751 1_455
Co26 Se22 2.426701 1_555
Co26 Se25 2.617885 1_455
