# generated using pymatgen
data_Te2Ru4(CO)11
_symmetry_space_group_name_H-M   'P 1'
_cell_length_a   6.99037800
_cell_length_b   16.51006700
_cell_length_c   18.16450800
_cell_angle_alpha   90.00000000
_cell_angle_beta   90.00000000
_cell_angle_gamma   90.00000000
_symmetry_Int_Tables_number   1
_chemical_formula_structural   Te2Ru4(CO)11
_chemical_formula_sum   'Te8 Ru16 C44 O44'
_cell_volume   2096.39509743
_cell_formula_units_Z   4
loop_
 _symmetry_equiv_pos_site_id
 _symmetry_equiv_pos_as_xyz
  1  'x, y, z'
loop_
 _atom_site_type_symbol
 _atom_site_label
 _atom_site_symmetry_multiplicity
 _atom_site_fract_x
 _atom_site_fract_y
 _atom_site_fract_z
 _atom_site_occupancy
  Te  Te0  1  0.99508700  0.29210800  0.73548800  1
  Te  Te1  1  0.50491300  0.29210800  0.23548800  1
  Te  Te2  1  0.00491300  0.70789200  0.26451200  1
  Te  Te3  1  0.50491300  0.20789200  0.73548800  1
  Te  Te4  1  0.49508700  0.79210800  0.26451200  1
  Te  Te5  1  0.49508700  0.70789200  0.76451200  1
  Te  Te6  1  0.00491300  0.79210800  0.76451200  1
  Te  Te7  1  0.99508700  0.20789200  0.23548800  1
  Ru  Ru0  1  0.17337200  0.66953200  0.84943600  1
  Ru  Ru1  1  0.67106300  0.33482300  0.81109600  1
  Ru  Ru2  1  0.17337200  0.83046800  0.34943600  1
  Ru  Ru3  1  0.32893700  0.83482300  0.68890400  1
  Ru  Ru4  1  0.82662800  0.33046800  0.15056400  1
  Ru  Ru5  1  0.32893700  0.66517700  0.18890400  1
  Ru  Ru6  1  0.82893700  0.33482300  0.31109600  1
  Ru  Ru7  1  0.82662800  0.16953200  0.65056400  1
  Ru  Ru8  1  0.67337200  0.33046800  0.65056400  1
  Ru  Ru9  1  0.17106300  0.83482300  0.18890400  1
  Ru  Ru10  1  0.32662800  0.83046800  0.84943600  1
  Ru  Ru11  1  0.82893700  0.16517700  0.81109600  1
  Ru  Ru12  1  0.17106300  0.66517700  0.68890400  1
  Ru  Ru13  1  0.67337200  0.16953200  0.15056400  1
  Ru  Ru14  1  0.67106300  0.16517700  0.31109600  1
  Ru  Ru15  1  0.32662800  0.66953200  0.34943600  1
  C  C0  1  0.56021100  0.86070400  0.89341100  1
  C  C1  1  0.08841000  0.92965800  0.24112700  1
  C  C2  1  0.43978900  0.13929600  0.10658900  1
  C  C3  1  0.41159000  0.57034200  0.24112700  1
  C  C4  1  0.20552100  0.91907800  0.89515400  1
  C  C5  1  0.70552100  0.08092200  0.60484600  1
  C  C6  1  0.17333700  0.88709100  0.61769100  1
  C  C7  1  0.46789500  0.16907900  0.38014400  1
  C  C8  1  0.82666300  0.38709100  0.88230900  1
  C  C9  1  0.75000000  0.25000000  0.06793100  1
  C  C10  1  0.91159000  0.07034200  0.75887300  1
  C  C11  1  0.06021100  0.13929600  0.60658900  1
  C  C12  1  0.93978900  0.63929600  0.89341100  1
  C  C13  1  0.58841000  0.42965800  0.75887300  1
  C  C14  1  0.20552100  0.58092200  0.39515400  1
  C  C15  1  0.32666300  0.61290900  0.61769100  1
  C  C16  1  0.67333700  0.38709100  0.38230900  1
  C  C17  1  0.03210500  0.16907900  0.88014400  1
  C  C18  1  0.08841000  0.57034200  0.74112700  1
  C  C19  1  0.29447900  0.91907800  0.39515400  1
  C  C20  1  0.56021100  0.63929600  0.39341100  1
  C  C21  1  0.53210500  0.83092100  0.61985600  1
  C  C22  1  0.82666300  0.11290900  0.38230900  1
  C  C23  1  0.93978900  0.86070400  0.39341100  1
  C  C24  1  0.03210500  0.33092100  0.38014400  1
  C  C25  1  0.17333700  0.61290900  0.11769100  1
  C  C26  1  0.46789500  0.33092100  0.88014400  1
  C  C27  1  0.58841000  0.07034200  0.25887300  1
  C  C28  1  0.75000000  0.25000000  0.56793100  1
  C  C29  1  0.29447900  0.58092200  0.89515400  1
  C  C30  1  0.79447900  0.41907800  0.60484600  1
  C  C31  1  0.67333700  0.11290900  0.88230900  1
  C  C32  1  0.41159000  0.92965800  0.74112700  1
  C  C33  1  0.32666300  0.88709100  0.11769100  1
  C  C34  1  0.91159000  0.42965800  0.25887300  1
  C  C35  1  0.96789500  0.66907900  0.61985600  1
  C  C36  1  0.25000000  0.75000000  0.43206900  1
  C  C37  1  0.25000000  0.75000000  0.93206900  1
  C  C38  1  0.70552100  0.41907800  0.10484600  1
  C  C39  1  0.79447900  0.08092200  0.10484600  1
  C  C40  1  0.96789500  0.83092100  0.11985600  1
  C  C41  1  0.43978900  0.36070400  0.60658900  1
  C  C42  1  0.06021100  0.36070400  0.10658900  1
  C  C43  1  0.53210500  0.66907900  0.11985600  1
  O  O0  1  0.13161700  0.97383100  0.92354000  1
  O  O1  1  0.25000000  0.75000000  0.49728200  1
  O  O2  1  0.42175800  0.91938200  0.07441000  1
  O  O3  1  0.75000000  0.25000000  0.00271800  1
  O  O4  1  0.29546800  0.37897200  0.57941500  1
  O  O5  1  0.65223300  0.82851200  0.57593500  1
  O  O6  1  0.20453200  0.37897200  0.07941500  1
  O  O7  1  0.47345700  0.50532200  0.25116800  1
  O  O8  1  0.52654300  0.00532200  0.24883200  1
  O  O9  1  0.15223300  0.32851200  0.42406500  1
  O  O10  1  0.25000000  0.75000000  0.99728200  1
  O  O11  1  0.57824200  0.41938200  0.42559000  1
  O  O12  1  0.86838300  0.47383100  0.57646000  1
  O  O13  1  0.07824200  0.58061800  0.07441000  1
  O  O14  1  0.79546800  0.87897200  0.42058500  1
  O  O15  1  0.92175800  0.41938200  0.92559000  1
  O  O16  1  0.75000000  0.25000000  0.50271800  1
  O  O17  1  0.70453200  0.87897200  0.92058500  1
  O  O18  1  0.57824200  0.08061800  0.92559000  1
  O  O19  1  0.36838300  0.52616900  0.92354000  1
  O  O20  1  0.97345700  0.00532200  0.74883200  1
  O  O21  1  0.13161700  0.52616900  0.42354000  1
  O  O22  1  0.52654300  0.49467800  0.74883200  1
  O  O23  1  0.34776700  0.32851200  0.92406500  1
  O  O24  1  0.63161700  0.02616900  0.57646000  1
  O  O25  1  0.29546800  0.12102800  0.07941500  1
  O  O26  1  0.84776700  0.67148800  0.57593500  1
  O  O27  1  0.63161700  0.47383100  0.07646000  1
  O  O28  1  0.86838300  0.02616900  0.07646000  1
  O  O29  1  0.36838300  0.97383100  0.42354000  1
  O  O30  1  0.84776700  0.82851200  0.07593500  1
  O  O31  1  0.42175800  0.58061800  0.57441000  1
  O  O32  1  0.70453200  0.62102800  0.42058500  1
  O  O33  1  0.79546800  0.62102800  0.92058500  1
  O  O34  1  0.97345700  0.49467800  0.24883200  1
  O  O35  1  0.47345700  0.99467800  0.75116800  1
  O  O36  1  0.07824200  0.91938200  0.57441000  1
  O  O37  1  0.34776700  0.17148800  0.42406500  1
  O  O38  1  0.02654300  0.50532200  0.75116800  1
  O  O39  1  0.02654300  0.99467800  0.25116800  1
  O  O40  1  0.15223300  0.17148800  0.92406500  1
  O  O41  1  0.92175800  0.08061800  0.42559000  1
  O  O42  1  0.20453200  0.12102800  0.57941500  1
  O  O43  1  0.65223300  0.67148800  0.07593500  1
loop_
_geom_bond_atom_site_label_1
_geom_bond_atom_site_label_2
_geom_bond_distance
_geom_bond_site_symmetry_2
Ru0 Te5 2.799700 1_555
Ru0 Te6 2.803901 1_555
Ru1 Te0 2.741163 1_555
Ru1 Te3 2.761676 1_555
Ru2 Te4 2.799700 1_555
Ru2 Te2 2.803901 1_555
Ru3 Te6 2.741163 1_555
Ru3 Te5 2.761676 1_555
Ru4 Te1 2.799700 1_555
Ru4 Te7 2.803901 1_555
Ru5 Te2 2.741163 1_555
Ru5 Te4 2.761676 1_555
Ru6 Te1 2.741163 1_555
Ru6 Te7 2.761676 1_555
Ru7 Te3 2.799700 1_555
Ru7 Te0 2.803901 1_555
Ru8 Te0 2.799700 1_555
Ru8 Te3 2.803901 1_555
Ru9 Te4 2.741163 1_555
Ru9 Te2 2.761676 1_555
Ru10 Te6 2.799700 1_555
Ru10 Te5 2.803901 1_555
Ru11 Te3 2.741163 1_555
Ru11 Te0 2.761676 1_555
Ru12 Te5 2.741163 1_555
Ru12 Te6 2.761676 1_555
Ru13 Te7 2.799700 1_555
Ru13 Te1 2.803901 1_555
Ru14 Te7 2.741163 1_555
Ru14 Te1 2.761676 1_555
Ru15 Te2 2.799700 1_555
Ru15 Te4 2.803901 1_555
C0 O17 1.162929 1_555
C0 Ru10 1.885047 1_555
C1 O39 1.171609 1_555
C1 Ru9 1.919686 1_555
C2 O25 1.162929 1_555
C2 Ru13 1.885047 1_555
C3 O7 1.171609 1_555
C3 Ru5 1.919686 1_555
C4 O0 1.161863 1_555
C4 Ru10 1.883238 1_555
C5 O24 1.161863 1_555
C5 Ru7 1.883238 1_555
C6 O36 1.159393 1_555
C6 Ru3 1.897642 1_555
C7 O37 1.158980 1_555
C7 Ru14 1.895852 1_555
C8 O15 1.159393 1_555
C8 Ru1 1.897642 1_555
C9 O3 1.184562 1_555
C9 Ru4 2.074823 1_555
C9 Ru13 2.074823 1_555
C10 O20 1.171609 1_555
C10 Ru11 1.919686 1_555
C11 O42 1.162929 1_555
C11 Ru7 1.885047 1_455
C12 O33 1.162929 1_555
C12 Ru0 1.885047 1_655
C13 O22 1.171609 1_555
C13 Ru1 1.919686 1_555
C14 O21 1.161863 1_555
C14 Ru15 1.883238 1_555
C15 O31 1.159393 1_555
C15 Ru12 1.897642 1_555
C16 O11 1.159393 1_555
C16 Ru6 1.897642 1_555
C17 O40 1.158980 1_555
C17 Ru11 1.895852 1_455
C18 O38 1.171609 1_555
C18 Ru12 1.919686 1_555
C19 O29 1.161863 1_555
C19 Ru2 1.883238 1_555
C20 O32 1.162929 1_555
C20 Ru15 1.885047 1_555
C21 O5 1.158980 1_555
C21 Ru3 1.895852 1_555
C22 O41 1.159393 1_555
C22 Ru14 1.897642 1_555
C23 O14 1.162929 1_555
C23 Ru2 1.885047 1_655
C24 O9 1.158980 1_555
C24 Ru6 1.895852 1_455
C25 O13 1.159393 1_555
C25 Ru5 1.897642 1_555
C26 O23 1.158980 1_555
C26 Ru1 1.895852 1_555
C27 O8 1.171609 1_555
C27 Ru14 1.919686 1_555
C28 O16 1.184562 1_555
C28 Ru7 2.074823 1_555
C28 Ru8 2.074823 1_555
C29 O19 1.161863 1_555
C29 Ru0 1.883238 1_555
C30 O12 1.161863 1_555
C30 Ru8 1.883238 1_555
C31 O18 1.159393 1_555
C31 Ru11 1.897642 1_555
C32 O35 1.171609 1_555
C32 Ru3 1.919686 1_555
C33 O2 1.159393 1_555
C33 Ru9 1.897642 1_555
C34 O34 1.171609 1_555
C34 Ru6 1.919686 1_555
C35 O26 1.158980 1_555
C35 Ru12 1.895852 1_655
C36 O1 1.184562 1_555
C36 Ru2 2.074823 1_555
C36 Ru15 2.074823 1_555
C37 O10 1.184562 1_555
C37 Ru0 2.074823 1_555
C37 Ru10 2.074823 1_555
C38 O27 1.161863 1_555
C38 Ru4 1.883238 1_555
C39 O28 1.161863 1_555
C39 Ru13 1.883238 1_555
C40 O30 1.158980 1_555
C40 Ru9 1.895852 1_655
C41 O4 1.162929 1_555
C41 Ru8 1.885047 1_555
C42 O6 1.162929 1_555
C42 Ru4 1.885047 1_455
C43 O43 1.158980 1_555
C43 Ru5 1.895852 1_555
