# generated using pymatgen
data_AgNO3
_symmetry_space_group_name_H-M   'P 1'
_cell_length_a   6.90205076
_cell_length_b   7.20285772
_cell_length_c   10.01382351
_cell_angle_alpha   90.00000000
_cell_angle_beta   90.00000000
_cell_angle_gamma   90.00000000
_symmetry_Int_Tables_number   1
_chemical_formula_structural   AgNO3
_chemical_formula_sum   'Ag8 N8 O24'
_cell_volume   497.83212475
_cell_formula_units_Z   8
loop_
 _symmetry_equiv_pos_site_id
 _symmetry_equiv_pos_as_xyz
  1  'x, y, z'
loop_
 _atom_site_type_symbol
 _atom_site_label
 _atom_site_symmetry_multiplicity
 _atom_site_fract_x
 _atom_site_fract_y
 _atom_site_fract_z
 _atom_site_occupancy
  Ag  Ag0  1  0.88683127  0.47519978  0.38081266  1
  Ag  Ag1  1  0.11316873  0.97519978  0.11918734  1
  Ag  Ag2  1  0.61316873  0.97519978  0.38081266  1
  Ag  Ag3  1  0.88683127  0.02480022  0.88081266  1
  Ag  Ag4  1  0.38683127  0.47519978  0.11918734  1
  Ag  Ag5  1  0.11316873  0.52480022  0.61918734  1
  Ag  Ag6  1  0.61316873  0.52480022  0.88081266  1
  Ag  Ag7  1  0.38683127  0.02480022  0.61918734  1
  N  N0  1  0.12310092  0.86387065  0.40300308  1
  N  N1  1  0.87689908  0.13612935  0.59699692  1
  N  N2  1  0.62310092  0.63612935  0.59699692  1
  N  N3  1  0.87689908  0.36387065  0.09699692  1
  N  N4  1  0.37689908  0.36387065  0.40300308  1
  N  N5  1  0.12310092  0.63612935  0.90300308  1
  N  N6  1  0.62310092  0.86387065  0.09699692  1
  N  N7  1  0.37689908  0.13612935  0.90300308  1
  O  O0  1  0.23776338  0.98316008  0.35562485  1
  O  O1  1  0.99557338  0.21568586  0.67326770  1
  O  O2  1  0.50442662  0.71568586  0.67326770  1
  O  O3  1  0.76223662  0.01683992  0.64437515  1
  O  O4  1  0.50442662  0.78431414  0.17326770  1
  O  O5  1  0.00442662  0.71568586  0.82673230  1
  O  O6  1  0.37228288  0.17235591  0.02689725  1
  O  O7  1  0.00442662  0.78431414  0.32673230  1
  O  O8  1  0.49557338  0.21568586  0.82673230  1
  O  O9  1  0.62771712  0.82764309  0.97310275  1
  O  O10  1  0.23776338  0.51683992  0.85562485  1
  O  O11  1  0.26223662  0.48316008  0.35562485  1
  O  O12  1  0.73776338  0.98316008  0.14437515  1
  O  O13  1  0.49557338  0.28431414  0.32673230  1
  O  O14  1  0.99557338  0.28431414  0.17326770  1
  O  O15  1  0.73776338  0.51683992  0.64437515  1
  O  O16  1  0.37228288  0.32764309  0.52689725  1
  O  O17  1  0.26223662  0.01683992  0.85562485  1
  O  O18  1  0.87228288  0.17235591  0.47310275  1
  O  O19  1  0.12771712  0.82764309  0.52689725  1
  O  O20  1  0.76223662  0.48316008  0.14437515  1
  O  O21  1  0.62771712  0.67235691  0.47310275  1
  O  O22  1  0.87228288  0.32764309  0.97310275  1
  O  O23  1  0.12771712  0.67235691  0.02689725  1
loop_
_geom_bond_atom_site_label_1
_geom_bond_atom_site_label_2
_geom_bond_distance
_geom_bond_site_symmetry_2
Ag0 O18 2.371168 1_555
Ag0 O7 2.430923 1_655
Ag0 O21 2.463578 1_555
Ag0 O20 2.519633 1_555
Ag0 O14 2.602525 1_555
Ag0 O11 2.603946 1_655
Ag1 O23 2.371161 1_555
Ag1 O14 2.430923 1_465
Ag1 O6 2.463573 1_565
Ag1 O0 2.519633 1_555
Ag1 O7 2.602525 1_555
Ag1 O12 2.603946 1_455
Ag2 O21 2.371161 1_555
Ag2 O13 2.430923 1_565
Ag2 O18 2.463573 1_565
Ag2 O12 2.519633 1_555
Ag2 O4 2.602525 1_555
Ag2 O0 2.603946 1_555
Ag3 O22 2.371161 1_555
Ag3 O5 2.430923 1_645
Ag3 O9 2.463578 1_545
Ag3 O3 2.519633 1_555
Ag3 O1 2.602525 1_555
Ag3 O17 2.603946 1_655
Ag4 O6 2.371168 1_555
Ag4 O4 2.430923 1_555
Ag4 O23 2.463578 1_555
Ag4 O11 2.519633 1_555
Ag4 O13 2.602525 1_555
Ag4 O20 2.603946 1_555
Ag5 O19 2.371161 1_555
Ag5 O1 2.430923 1_455
Ag5 O16 2.463578 1_555
Ag5 O10 2.519633 1_555
Ag5 O5 2.602525 1_555
Ag5 O15 2.603946 1_455
Ag6 O9 2.371161 1_555
Ag6 O8 2.430923 1_555
Ag6 O22 2.463578 1_555
Ag6 O15 2.519633 1_555
Ag6 O2 2.602525 1_555
Ag6 O10 2.603946 1_555
Ag7 O16 2.371161 1_555
Ag7 O2 2.430923 1_545
Ag7 O19 2.463578 1_545
Ag7 O17 2.519633 1_555
Ag7 O8 2.602525 1_555
Ag7 O3 2.603946 1_555
N0 O7 1.258022 1_555
N0 O0 1.260826 1_555
N0 O19 1.268199 1_555
N1 O1 1.258022 1_555
N1 O3 1.260826 1_555
N1 O18 1.268198 1_555
N2 O2 1.258022 1_555
N2 O15 1.260826 1_555
N2 O21 1.268199 1_555
N3 O14 1.258022 1_555
N3 O20 1.260826 1_555
N3 O22 1.268199 1_554
N4 O13 1.258022 1_555
N4 O11 1.260826 1_555
N4 O16 1.268199 1_555
N5 O5 1.258022 1_555
N5 O10 1.260826 1_555
N5 O23 1.268199 1_556
N6 O4 1.258022 1_555
N6 O12 1.260826 1_555
N6 O9 1.268199 1_554
N7 O8 1.258022 1_555
N7 O17 1.260826 1_555
N7 O6 1.268198 1_556
