# generated using pymatgen
data_UPb(SeO4)2
_symmetry_space_group_name_H-M   'P 1'
_cell_length_a   5.88973400
_cell_length_b   11.47505700
_cell_length_c   12.19299700
_cell_angle_alpha   90.00000000
_cell_angle_beta   90.00000000
_cell_angle_gamma   90.00000000
_symmetry_Int_Tables_number   1
_chemical_formula_structural   UPb(SeO4)2
_chemical_formula_sum   'U4 Pb4 Se8 O32'
_cell_volume   824.06410906
_cell_formula_units_Z   4
loop_
 _symmetry_equiv_pos_site_id
 _symmetry_equiv_pos_as_xyz
  1  'x, y, z'
loop_
 _atom_site_type_symbol
 _atom_site_label
 _atom_site_symmetry_multiplicity
 _atom_site_fract_x
 _atom_site_fract_y
 _atom_site_fract_z
 _atom_site_occupancy
  U  U0  1  0.00026300  0.22477500  0.25098500  1
  U  U1  1  0.00026300  0.22477500  0.74901500  1
  U  U2  1  0.99973700  0.72477500  0.74901500  1
  U  U3  1  0.99973700  0.72477500  0.25098500  1
  Pb  Pb0  1  0.05056100  0.97886400  0.00000000  1
  Pb  Pb1  1  0.48600100  0.77624500  0.50000000  1
  Pb  Pb2  1  0.51399900  0.27624500  0.50000000  1
  Pb  Pb3  1  0.94943900  0.47886400  0.00000000  1
  Se  Se0  1  0.13991300  0.03075100  0.50000000  1
  Se  Se1  1  0.86008700  0.53075100  0.50000000  1
  Se  Se2  1  0.62549100  0.94989400  0.23428000  1
  Se  Se3  1  0.37450900  0.44989400  0.23428000  1
  Se  Se4  1  0.62549100  0.94989400  0.76572000  1
  Se  Se5  1  0.40158800  0.71532400  0.00000000  1
  Se  Se6  1  0.59841200  0.21532400  0.00000000  1
  Se  Se7  1  0.37450900  0.44989400  0.76572000  1
  O  O0  1  0.16242900  0.13143400  0.60665000  1
  O  O1  1  0.75073700  0.27673000  0.89057000  1
  O  O2  1  0.16242900  0.13143400  0.39335000  1
  O  O3  1  0.25515900  0.57823600  0.72018400  1
  O  O4  1  0.75073700  0.27673000  0.10943000  1
  O  O5  1  0.17267100  0.81529800  0.65712800  1
  O  O6  1  0.24926300  0.77673000  0.10943000  1
  O  O7  1  0.25515900  0.57823600  0.27981600  1
  O  O8  1  0.74484100  0.07823600  0.72018400  1
  O  O9  1  0.16951300  0.13450800  0.84377000  1
  O  O10  1  0.83757100  0.63143400  0.60665000  1
  O  O11  1  0.83048700  0.63450800  0.15623000  1
  O  O12  1  0.24926300  0.77673000  0.89057000  1
  O  O13  1  0.74484100  0.07823600  0.27981600  1
  O  O14  1  0.69027400  0.84694700  0.66488000  1
  O  O15  1  0.17267100  0.81529800  0.34287200  1
  O  O16  1  0.59030400  0.47850400  0.50000000  1
  O  O17  1  0.83757100  0.63143400  0.39335000  1
  O  O18  1  0.67818100  0.07269900  0.00000000  1
  O  O19  1  0.83556100  0.89081900  0.14791200  1
  O  O20  1  0.32181900  0.57269900  0.00000000  1
  O  O21  1  0.82732900  0.31529800  0.65712800  1
  O  O22  1  0.30972600  0.34694700  0.33512000  1
  O  O23  1  0.83556100  0.89081900  0.85208800  1
  O  O24  1  0.16443900  0.39081900  0.14791200  1
  O  O25  1  0.16443900  0.39081900  0.85208800  1
  O  O26  1  0.82732900  0.31529800  0.34287200  1
  O  O27  1  0.69027400  0.84694700  0.33512000  1
  O  O28  1  0.83048700  0.63450800  0.84377000  1
  O  O29  1  0.16951300  0.13450800  0.15623000  1
  O  O30  1  0.30972600  0.34694700  0.66488000  1
  O  O31  1  0.40969600  0.97850400  0.50000000  1
loop_
_geom_bond_atom_site_label_1
_geom_bond_atom_site_label_2
_geom_bond_distance
_geom_bond_site_symmetry_2
O0 Se0 1.744534 1_555
O0 U1 2.252261 1_555
O1 Se6 1.755477 1_556
O1 U1 2.343990 1_655
O2 Se0 1.744534 1_555
O2 U0 2.252261 1_555
O3 Se7 1.723755 1_555
O3 U2 2.283482 1_455
O4 Se6 1.755477 1_555
O4 U0 2.343990 1_655
O5 U2 1.836212 1_455
O5 Pb1 2.697585 1_555
O6 Se5 1.755477 1_555
O6 U3 2.343990 1_455
O7 Se3 1.723755 1_555
O7 U3 2.283482 1_455
O8 Se4 1.723755 1_545
O8 U1 2.283482 1_655
O9 U1 1.844298 1_555
O9 Pb0 2.703591 1_546
O10 Se1 1.744534 1_555
O10 U2 2.252261 1_555
O11 U3 1.844298 1_555
O11 Pb3 2.703591 1_555
O12 Se5 1.755477 1_556
O12 U2 2.343990 1_455
O13 Se2 1.723755 1_545
O13 U0 2.283482 1_655
O14 Se4 1.747249 1_555
O14 Pb1 2.479383 1_555
O14 U2 2.517909 1_555
O15 U3 1.836212 1_455
O15 Pb1 2.697585 1_555
O16 Se1 1.698295 1_555
O16 Pb2 2.364045 1_555
O17 Se1 1.744534 1_555
O17 U3 2.252261 1_555
O18 Se6 1.702729 1_555
O18 Pb0 2.443282 1_645
O19 Se2 1.760490 1_555
O19 Pb0 2.424216 1_655
O19 U3 2.478887 1_555
O20 Se5 1.702729 1_555
O20 Pb3 2.443282 1_455
O21 U1 1.836212 1_655
O21 Pb2 2.697585 1_555
O22 Se3 1.747249 1_555
O22 Pb2 2.479383 1_555
O22 U0 2.517909 1_555
O23 Se4 1.760490 1_555
O23 Pb0 2.424216 1_656
O23 U2 2.478887 1_555
O24 Se3 1.760490 1_555
O24 Pb3 2.424216 1_455
O24 U0 2.478887 1_555
O25 Se7 1.760490 1_555
O25 Pb3 2.424216 1_456
O25 U1 2.478887 1_555
O26 U0 1.836212 1_655
O26 Pb2 2.697585 1_555
O27 Se2 1.747249 1_555
O27 Pb1 2.479383 1_555
O27 U3 2.517909 1_555
O28 U2 1.844298 1_555
O28 Pb3 2.703591 1_556
O29 U0 1.844298 1_555
O29 Pb0 2.703591 1_545
O30 Se7 1.747249 1_555
O30 Pb2 2.479383 1_555
O30 U1 2.517909 1_555
O31 Se0 1.698295 1_565
O31 Pb1 2.364045 1_555
