# generated using pymatgen
data_Ca4Al6O13
_symmetry_space_group_name_H-M   'P 1'
_cell_length_a   5.34297000
_cell_length_b   17.89883300
_cell_length_c   21.28524000
_cell_angle_alpha   90.00000000
_cell_angle_beta   90.00000000
_cell_angle_gamma   90.00000000
_symmetry_Int_Tables_number   1
_chemical_formula_structural   Ca4Al6O13
_chemical_formula_sum   'Ca32 Al48 O104'
_cell_volume   2035.56981915
_cell_formula_units_Z   8
loop_
 _symmetry_equiv_pos_site_id
 _symmetry_equiv_pos_as_xyz
  1  'x, y, z'
loop_
 _atom_site_type_symbol
 _atom_site_label
 _atom_site_symmetry_multiplicity
 _atom_site_fract_x
 _atom_site_fract_y
 _atom_site_fract_z
 _atom_site_occupancy
  Ca  Ca0  1  0.47720200  0.08687900  0.49429300  1
  Ca  Ca1  1  0.02279800  0.58687900  0.50570700  1
  Ca  Ca2  1  0.52976600  0.08702200  0.75629000  1
  Ca  Ca3  1  0.51021400  0.58272900  0.12470800  1
  Ca  Ca4  1  0.98978600  0.91727100  0.62470800  1
  Ca  Ca5  1  0.00696900  0.09815400  0.62492100  1
  Ca  Ca6  1  0.52279800  0.08687900  0.99429300  1
  Ca  Ca7  1  0.49303100  0.59815400  0.37507900  1
  Ca  Ca8  1  0.99303100  0.09815400  0.12492100  1
  Ca  Ca9  1  0.48978600  0.58272900  0.62470800  1
  Ca  Ca10  1  0.98978600  0.08272900  0.87529200  1
  Ca  Ca11  1  0.52976600  0.91297800  0.74371000  1
  Ca  Ca12  1  0.47023400  0.08702200  0.25629000  1
  Ca  Ca13  1  0.02279800  0.41312100  0.99429300  1
  Ca  Ca14  1  0.02976600  0.41297800  0.75629000  1
  Ca  Ca15  1  0.50696900  0.59815400  0.87507900  1
  Ca  Ca16  1  0.49303100  0.40184600  0.12492100  1
  Ca  Ca17  1  0.97023400  0.58702200  0.24371000  1
  Ca  Ca18  1  0.99303100  0.90184600  0.37507900  1
  Ca  Ca19  1  0.97720200  0.58687900  0.00570700  1
  Ca  Ca20  1  0.51021400  0.41727100  0.37529200  1
  Ca  Ca21  1  0.47023400  0.91297800  0.24371000  1
  Ca  Ca22  1  0.52279800  0.91312100  0.50570700  1
  Ca  Ca23  1  0.50696900  0.40184600  0.62492100  1
  Ca  Ca24  1  0.02976600  0.58702200  0.74371000  1
  Ca  Ca25  1  0.00696900  0.90184600  0.87507900  1
  Ca  Ca26  1  0.01021400  0.08272900  0.37529200  1
  Ca  Ca27  1  0.47720200  0.91312100  0.00570700  1
  Ca  Ca28  1  0.48978600  0.41727100  0.87529200  1
  Ca  Ca29  1  0.97023400  0.41297800  0.25629000  1
  Ca  Ca30  1  0.01021400  0.91727100  0.12470800  1
  Ca  Ca31  1  0.97720200  0.41312100  0.49429300  1
  Al  Al0  1  0.48393700  0.50000000  0.25000000  1
  Al  Al1  1  0.00237700  0.28375600  0.62484600  1
  Al  Al2  1  0.60817700  0.70682300  0.74277000  1
  Al  Al3  1  0.10122500  0.79337400  0.50731000  1
  Al  Al4  1  0.60122500  0.29337400  0.99269000  1
  Al  Al5  1  0.50237700  0.78375600  0.87515400  1
  Al  Al6  1  0.50413300  0.00948300  0.62494500  1
  Al  Al7  1  0.89182300  0.20682300  0.25723000  1
  Al  Al8  1  0.49586700  0.00948300  0.12494500  1
  Al  Al9  1  0.99762300  0.71624400  0.37515400  1
  Al  Al10  1  0.93608100  0.29682700  0.87538600  1
  Al  Al11  1  0.89182300  0.79317700  0.24277000  1
  Al  Al12  1  0.60122500  0.70662600  0.50731000  1
  Al  Al13  1  0.99762300  0.28375600  0.12484600  1
  Al  Al14  1  0.93608100  0.70317300  0.62461400  1
  Al  Al15  1  0.39877500  0.70662600  0.00731000  1
  Al  Al16  1  0.00413300  0.49051700  0.62494500  1
  Al  Al17  1  0.43608100  0.79682700  0.62461400  1
  Al  Al18  1  0.99586700  0.50948300  0.37505500  1
  Al  Al19  1  0.00000000  0.00000000  0.00000000  1
  Al  Al20  1  0.00413300  0.50948300  0.87505500  1
  Al  Al21  1  0.89877500  0.79337400  0.00731000  1
  Al  Al22  1  0.56391900  0.20317300  0.37538600  1
  Al  Al23  1  0.51606300  0.50000000  0.75000000  1
  Al  Al24  1  0.60817700  0.29317700  0.75723000  1
  Al  Al25  1  0.39877500  0.29337400  0.49269000  1
  Al  Al26  1  0.39182300  0.29317700  0.25723000  1
  Al  Al27  1  0.49586700  0.99051700  0.37505500  1
  Al  Al28  1  0.10817700  0.20682300  0.75723000  1
  Al  Al29  1  0.99586700  0.49051700  0.12494500  1
  Al  Al30  1  0.50413300  0.99051700  0.87505500  1
  Al  Al31  1  0.98393700  0.00000000  0.25000000  1
  Al  Al32  1  0.01606300  0.00000000  0.75000000  1
  Al  Al33  1  0.39182300  0.70682300  0.24277000  1
  Al  Al34  1  0.10122500  0.20662600  0.99269000  1
  Al  Al35  1  0.56391900  0.79682700  0.12461400  1
  Al  Al36  1  0.00000000  0.00000000  0.50000000  1
  Al  Al37  1  0.50000000  0.50000000  0.50000000  1
  Al  Al38  1  0.06391900  0.29682700  0.37538600  1
  Al  Al39  1  0.43608100  0.20317300  0.87538600  1
  Al  Al40  1  0.89877500  0.20662600  0.49269000  1
  Al  Al41  1  0.49762300  0.21624400  0.12484600  1
  Al  Al42  1  0.10817700  0.79317700  0.74277000  1
  Al  Al43  1  0.50000000  0.50000000  0.00000000  1
  Al  Al44  1  0.49762300  0.78375600  0.37515400  1
  Al  Al45  1  0.00237700  0.71624400  0.87515400  1
  Al  Al46  1  0.50237700  0.21624400  0.62484600  1
  Al  Al47  1  0.06391900  0.70317300  0.12461400  1
  O  O0  1  0.97925300  0.11566300  0.99036600  1
  O  O1  1  0.73795300  0.99453100  0.31172400  1
  O  O2  1  0.46922100  0.89200600  0.12496300  1
  O  O3  1  0.53077900  0.89200600  0.62496300  1
  O  O4  1  0.75137700  0.99040600  0.93845200  1
  O  O5  1  0.73795300  0.00546900  0.18827600  1
  O  O6  1  0.82691300  0.22257500  0.57462100  1
  O  O7  1  0.43100700  0.21321100  0.78300600  1
  O  O8  1  0.49483800  0.61514700  0.74025100  1
  O  O9  1  0.47925300  0.38433700  0.99036600  1
  O  O10  1  0.49483800  0.38485300  0.75974900  1
  O  O11  1  0.49543800  0.88156300  0.87579700  1
  O  O12  1  0.99483800  0.11514700  0.75974900  1
  O  O13  1  0.99543800  0.61843700  0.87579700  1
  O  O14  1  0.10115300  0.79068400  0.62417200  1
  O  O15  1  0.24897900  0.99563400  0.93709400  1
  O  O16  1  0.50456200  0.88156300  0.37579700  1
  O  O17  1  0.18045200  0.77564800  0.82412300  1
  O  O18  1  0.23795300  0.49453100  0.18827600  1
  O  O19  1  0.03077900  0.39200600  0.87503700  1
  O  O20  1  0.73679400  0.50861300  0.31270900  1
  O  O21  1  0.26204700  0.00546900  0.68827600  1
  O  O22  1  0.00456200  0.38156300  0.12420300  1
  O  O23  1  0.96922100  0.60799400  0.12496300  1
  O  O24  1  0.74862300  0.50959400  0.43845200  1
  O  O25  1  0.57382700  0.78748000  0.03215000  1
  O  O26  1  0.17308700  0.77742500  0.42537900  1
  O  O27  1  0.76204700  0.49453100  0.68827600  1
  O  O28  1  0.39884700  0.29068400  0.37582800  1
  O  O29  1  0.50516200  0.61514700  0.24025100  1
  O  O30  1  0.39884700  0.70931600  0.12417200  1
  O  O31  1  0.81954800  0.22435200  0.17587700  1
  O  O32  1  0.93100700  0.71321100  0.71699400  1
  O  O33  1  0.67308700  0.72257500  0.42537900  1
  O  O34  1  0.60115300  0.70931600  0.62417200  1
  O  O35  1  0.06899300  0.71321100  0.21699400  1
  O  O36  1  0.17308700  0.22257500  0.07462100  1
  O  O37  1  0.68045200  0.72435200  0.82412300  1
  O  O38  1  0.31954800  0.72435200  0.32412300  1
  O  O39  1  0.68045200  0.27564800  0.67587700  1
  O  O40  1  0.96922100  0.39200600  0.37503700  1
  O  O41  1  0.75102100  0.00436600  0.06290600  1
  O  O42  1  0.74862300  0.49040600  0.06154800  1
  O  O43  1  0.32691300  0.27742500  0.57462100  1
  O  O44  1  0.81954800  0.77564800  0.32412300  1
  O  O45  1  0.07382700  0.28748000  0.46785000  1
  O  O46  1  0.49543800  0.11843700  0.62420300  1
  O  O47  1  0.23679400  0.99138700  0.31270900  1
  O  O48  1  0.56899300  0.78678900  0.21699400  1
  O  O49  1  0.00516200  0.11514700  0.25974900  1
  O  O50  1  0.26320600  0.49138700  0.68729100  1
  O  O51  1  0.53077900  0.10799400  0.87503700  1
  O  O52  1  0.92617300  0.71252000  0.53215000  1
  O  O53  1  0.42617300  0.78748000  0.53215000  1
  O  O54  1  0.46922100  0.10799400  0.37503700  1
  O  O55  1  0.76320600  0.99138700  0.81270900  1
  O  O56  1  0.52074700  0.61566300  0.00963400  1
  O  O57  1  0.89884700  0.20931600  0.37582800  1
  O  O58  1  0.97925300  0.88433700  0.50963400  1
  O  O59  1  0.60115300  0.29068400  0.87582800  1
  O  O60  1  0.50456200  0.11843700  0.12420300  1
  O  O61  1  0.26204700  0.99453100  0.81172400  1
  O  O62  1  0.25102100  0.50436600  0.43709400  1
  O  O63  1  0.82691300  0.77742500  0.92537900  1
  O  O64  1  0.26320600  0.50861300  0.81270900  1
  O  O65  1  0.23679400  0.00861300  0.18729100  1
  O  O66  1  0.18045200  0.22435200  0.67587700  1
  O  O67  1  0.75137700  0.00959400  0.56154800  1
  O  O68  1  0.00516200  0.88485300  0.24025100  1
  O  O69  1  0.06899300  0.28678900  0.28300600  1
  O  O70  1  0.47925300  0.61566300  0.50963400  1
  O  O71  1  0.31954800  0.27564800  0.17587700  1
  O  O72  1  0.07382700  0.71252000  0.03215000  1
  O  O73  1  0.42617300  0.21252000  0.96785000  1
  O  O74  1  0.52074700  0.38433700  0.49036600  1
  O  O75  1  0.99483800  0.88485300  0.74025100  1
  O  O76  1  0.23795300  0.50546900  0.31172400  1
  O  O77  1  0.99543800  0.38156300  0.62420300  1
  O  O78  1  0.74897900  0.49563400  0.56290600  1
  O  O79  1  0.56899300  0.21321100  0.28300600  1
  O  O80  1  0.00456200  0.61843700  0.37579700  1
  O  O81  1  0.24897900  0.00436600  0.56290600  1
  O  O82  1  0.32691300  0.72257500  0.92537900  1
  O  O83  1  0.89884700  0.79068400  0.12417200  1
  O  O84  1  0.74897900  0.50436600  0.93709400  1
  O  O85  1  0.10115300  0.20931600  0.87582800  1
  O  O86  1  0.92617300  0.28748000  0.96785000  1
  O  O87  1  0.57382700  0.21252000  0.46785000  1
  O  O88  1  0.76320600  0.00861300  0.68729100  1
  O  O89  1  0.73679400  0.49138700  0.18729100  1
  O  O90  1  0.76204700  0.50546900  0.81172400  1
  O  O91  1  0.03077900  0.60799400  0.62496300  1
  O  O92  1  0.93100700  0.28678900  0.78300600  1
  O  O93  1  0.25102100  0.49563400  0.06290600  1
  O  O94  1  0.67308700  0.27742500  0.07462100  1
  O  O95  1  0.25137700  0.49040600  0.56154800  1
  O  O96  1  0.43100700  0.78678900  0.71699400  1
  O  O97  1  0.24862300  0.99040600  0.43845200  1
  O  O98  1  0.50516200  0.38485300  0.25974900  1
  O  O99  1  0.75102100  0.99563400  0.43709400  1
  O  O100  1  0.02074700  0.88433700  0.00963400  1
  O  O101  1  0.25137700  0.50959400  0.93845200  1
  O  O102  1  0.02074700  0.11566300  0.49036600  1
  O  O103  1  0.24862300  0.00959400  0.06154800  1
loop_
_geom_bond_atom_site_label_1
_geom_bond_atom_site_label_2
_geom_bond_distance
_geom_bond_site_symmetry_2
Ca0 O87 2.374984 1_555
Ca0 O81 2.408526 1_555
Ca0 O97 2.426103 1_545
Ca0 O67 2.471601 1_555
Ca0 O102 2.494050 1_555
Ca0 O99 2.507978 1_545
Ca0 O54 2.566727 1_555
Ca0 O46 2.823950 1_555
Ca0 O102 2.950673 1_655
Ca1 O52 2.374984 1_455
Ca1 O62 2.408526 1_555
Ca1 O95 2.426103 1_555
Ca1 O24 2.471601 1_455
Ca1 O70 2.494050 1_555
Ca1 O78 2.507978 1_455
Ca1 O91 2.566727 1_555
Ca1 O80 2.823950 1_555
Ca1 O70 2.950673 1_455
Ca2 O88 2.383745 1_555
Ca2 O7 2.388145 1_555
Ca2 O55 2.434730 1_545
Ca2 O61 2.485745 1_545
Ca2 O21 2.504524 1_555
Ca2 O12 2.536414 1_555
Ca2 O51 2.555286 1_555
Ca2 O46 2.873041 1_555
Ca2 O12 2.903032 1_455
Ca3 O30 2.342618 1_555
Ca3 O89 2.431666 1_555
Ca3 O93 2.465455 1_555
Ca3 O42 2.482058 1_555
Ca3 O23 2.493810 1_555
Ca3 O56 2.519942 1_555
Ca3 O29 2.527027 1_555
Ca3 O18 2.537515 1_555
Ca3 O23 2.925675 1_455
Ca4 O14 2.342618 1_655
Ca4 O88 2.431666 1_565
Ca4 O81 2.465455 1_665
Ca4 O67 2.482058 1_565
Ca4 O3 2.493810 1_555
Ca4 O58 2.519942 1_555
Ca4 O75 2.527027 1_555
Ca4 O21 2.537515 1_665
Ca4 O3 2.925675 1_655
Ca5 O88 2.455054 1_455
Ca5 O67 2.489394 1_455
Ca5 O81 2.496480 1_555
Ca5 O21 2.535365 1_555
Ca5 O46 2.635049 1_555
Ca5 O6 2.651657 1_455
Ca5 O66 2.671650 1_555
Ca5 O46 2.757143 1_455
Ca5 O102 2.882071 1_555
Ca5 O12 2.886647 1_455
Ca6 O73 2.374984 1_555
Ca6 O41 2.408526 1_556
Ca6 O4 2.426103 1_545
Ca6 O103 2.471601 1_556
Ca6 O0 2.494050 1_555
Ca6 O15 2.507978 1_545
Ca6 O51 2.566727 1_555
Ca6 O60 2.823950 1_556
Ca6 O0 2.950673 1_455
Ca7 O20 2.455054 1_555
Ca7 O24 2.489394 1_555
Ca7 O62 2.496480 1_555
Ca7 O76 2.535365 1_555
Ca7 O80 2.635049 1_555
Ca7 O33 2.651657 1_555
Ca7 O38 2.671650 1_555
Ca7 O80 2.757143 1_655
Ca7 O70 2.882071 1_555
Ca7 O29 2.886647 1_555
Ca8 O65 2.455054 1_655
Ca8 O103 2.489394 1_655
Ca8 O41 2.496480 1_555
Ca8 O5 2.535365 1_555
Ca8 O60 2.635049 1_555
Ca8 O36 2.651657 1_655
Ca8 O31 2.671650 1_555
Ca8 O60 2.757143 1_655
Ca8 O0 2.882071 1_554
Ca8 O49 2.886647 1_655
Ca9 O34 2.342618 1_555
Ca9 O50 2.431666 1_555
Ca9 O78 2.465455 1_555
Ca9 O95 2.482058 1_555
Ca9 O91 2.493810 1_555
Ca9 O70 2.519942 1_555
Ca9 O8 2.527027 1_555
Ca9 O27 2.537515 1_555
Ca9 O91 2.925675 1_655
Ca10 O85 2.342618 1_655
Ca10 O55 2.431666 1_545
Ca10 O15 2.465455 1_645
Ca10 O4 2.482058 1_545
Ca10 O51 2.493810 1_555
Ca10 O0 2.519942 1_555
Ca10 O12 2.527027 1_555
Ca10 O61 2.537515 1_645
Ca10 O51 2.925675 1_655
Ca11 O55 2.383745 1_555
Ca11 O96 2.388145 1_555
Ca11 O88 2.434730 1_565
Ca11 O21 2.485745 1_565
Ca11 O61 2.504524 1_555
Ca11 O75 2.536414 1_555
Ca11 O3 2.555286 1_555
Ca11 O11 2.873041 1_555
Ca11 O75 2.903032 1_455
Ca12 O65 2.383745 1_555
Ca12 O79 2.388145 1_555
Ca12 O47 2.434730 1_545
Ca12 O1 2.485745 1_545
Ca12 O5 2.504524 1_555
Ca12 O49 2.536414 1_555
Ca12 O54 2.555286 1_555
Ca12 O60 2.873041 1_555
Ca12 O49 2.903032 1_655
Ca13 O86 2.374984 1_455
Ca13 O93 2.408526 1_556
Ca13 O101 2.426103 1_555
Ca13 O42 2.471601 1_456
Ca13 O9 2.494050 1_555
Ca13 O84 2.507978 1_455
Ca13 O19 2.566727 1_555
Ca13 O22 2.823950 1_556
Ca13 O9 2.950673 1_455
Ca14 O50 2.383745 1_555
Ca14 O92 2.388145 1_455
Ca14 O64 2.434730 1_555
Ca14 O90 2.485745 1_455
Ca14 O27 2.504524 1_455
Ca14 O10 2.536414 1_555
Ca14 O19 2.555286 1_555
Ca14 O77 2.873041 1_455
Ca14 O10 2.903032 1_455
Ca15 O64 2.455054 1_555
Ca15 O101 2.489394 1_555
Ca15 O84 2.496480 1_555
Ca15 O90 2.535365 1_555
Ca15 O13 2.635049 1_555
Ca15 O82 2.651657 1_555
Ca15 O37 2.671650 1_555
Ca15 O13 2.757143 1_455
Ca15 O56 2.882071 1_556
Ca15 O8 2.886647 1_555
Ca16 O89 2.455054 1_555
Ca16 O42 2.489394 1_555
Ca16 O93 2.496480 1_555
Ca16 O18 2.535365 1_555
Ca16 O22 2.635049 1_555
Ca16 O94 2.651657 1_555
Ca16 O71 2.671650 1_555
Ca16 O22 2.757143 1_655
Ca16 O9 2.882071 1_554
Ca16 O98 2.886647 1_555
Ca17 O20 2.383745 1_555
Ca17 O35 2.388145 1_655
Ca17 O89 2.434730 1_555
Ca17 O18 2.485745 1_655
Ca17 O76 2.504524 1_655
Ca17 O29 2.536414 1_555
Ca17 O23 2.555286 1_555
Ca17 O80 2.873041 1_655
Ca17 O29 2.903032 1_655
Ca18 O47 2.455054 1_655
Ca18 O97 2.489394 1_655
Ca18 O99 2.496480 1_555
Ca18 O1 2.535365 1_555
Ca18 O16 2.635049 1_555
Ca18 O26 2.651657 1_655
Ca18 O44 2.671650 1_555
Ca18 O16 2.757143 1_655
Ca18 O58 2.882071 1_555
Ca18 O68 2.886647 1_655
Ca19 O72 2.374984 1_655
Ca19 O84 2.408526 1_554
Ca19 O42 2.426103 1_555
Ca19 O101 2.471601 1_654
Ca19 O56 2.494050 1_555
Ca19 O93 2.507978 1_655
Ca19 O23 2.566727 1_555
Ca19 O13 2.823950 1_554
Ca19 O56 2.950673 1_655
Ca20 O28 2.342618 1_555
Ca20 O20 2.431666 1_555
Ca20 O62 2.465455 1_555
Ca20 O24 2.482058 1_555
Ca20 O40 2.493810 1_555
Ca20 O74 2.519942 1_555
Ca20 O98 2.527027 1_555
Ca20 O76 2.537515 1_555
Ca20 O40 2.925675 1_455
Ca21 O47 2.383745 1_555
Ca21 O48 2.388145 1_555
Ca21 O65 2.434730 1_565
Ca21 O5 2.485745 1_565
Ca21 O1 2.504524 1_555
Ca21 O68 2.536414 1_555
Ca21 O2 2.555286 1_555
Ca21 O16 2.873041 1_555
Ca21 O68 2.903032 1_655
Ca22 O53 2.374984 1_555
Ca22 O99 2.408526 1_555
Ca22 O67 2.426103 1_565
Ca22 O97 2.471601 1_555
Ca22 O58 2.494050 1_555
Ca22 O81 2.507978 1_565
Ca22 O3 2.566727 1_555
Ca22 O16 2.823950 1_555
Ca22 O58 2.950673 1_455
Ca23 O50 2.455054 1_555
Ca23 O95 2.489394 1_555
Ca23 O78 2.496480 1_555
Ca23 O27 2.535365 1_555
Ca23 O77 2.635049 1_555
Ca23 O43 2.651657 1_555
Ca23 O39 2.671650 1_555
Ca23 O77 2.757143 1_455
Ca23 O74 2.882071 1_555
Ca23 O10 2.886647 1_555
Ca24 O64 2.383745 1_555
Ca24 O32 2.388145 1_455
Ca24 O50 2.434730 1_555
Ca24 O27 2.485745 1_455
Ca24 O90 2.504524 1_455
Ca24 O8 2.536414 1_555
Ca24 O91 2.555286 1_555
Ca24 O13 2.873041 1_455
Ca24 O8 2.903032 1_455
Ca25 O55 2.455054 1_455
Ca25 O4 2.489394 1_455
Ca25 O15 2.496480 1_555
Ca25 O61 2.535365 1_555
Ca25 O11 2.635049 1_555
Ca25 O63 2.651657 1_455
Ca25 O17 2.671650 1_555
Ca25 O11 2.757143 1_455
Ca25 O100 2.882071 1_556
Ca25 O75 2.886647 1_455
Ca26 O57 2.342618 1_455
Ca26 O47 2.431666 1_545
Ca26 O99 2.465455 1_445
Ca26 O97 2.482058 1_545
Ca26 O54 2.493810 1_555
Ca26 O102 2.519942 1_555
Ca26 O49 2.527027 1_555
Ca26 O1 2.537515 1_445
Ca26 O54 2.925675 1_455
Ca27 O25 2.374984 1_555
Ca27 O15 2.408526 1_554
Ca27 O103 2.426103 1_565
Ca27 O4 2.471601 1_554
Ca27 O100 2.494050 1_555
Ca27 O41 2.507978 1_565
Ca27 O2 2.566727 1_555
Ca27 O11 2.823950 1_554
Ca27 O100 2.950673 1_655
Ca28 O59 2.342618 1_555
Ca28 O64 2.431666 1_555
Ca28 O84 2.465455 1_555
Ca28 O101 2.482058 1_555
Ca28 O19 2.493810 1_555
Ca28 O9 2.519942 1_555
Ca28 O10 2.527027 1_555
Ca28 O90 2.537515 1_555
Ca28 O19 2.925675 1_655
Ca29 O89 2.383745 1_555
Ca29 O69 2.388145 1_655
Ca29 O20 2.434730 1_555
Ca29 O76 2.485745 1_655
Ca29 O18 2.504524 1_655
Ca29 O98 2.536414 1_555
Ca29 O40 2.555286 1_555
Ca29 O22 2.873041 1_655
Ca29 O98 2.903032 1_655
Ca30 O83 2.342618 1_455
Ca30 O65 2.431666 1_565
Ca30 O41 2.465455 1_465
Ca30 O103 2.482058 1_565
Ca30 O2 2.493810 1_555
Ca30 O100 2.519942 1_555
Ca30 O68 2.527027 1_555
Ca30 O5 2.537515 1_465
Ca30 O2 2.925675 1_455
Ca31 O45 2.374984 1_655
Ca31 O78 2.408526 1_555
Ca31 O24 2.426103 1_555
Ca31 O95 2.471601 1_655
Ca31 O74 2.494050 1_555
Ca31 O62 2.507978 1_655
Ca31 O40 2.566727 1_555
Ca31 O77 2.823950 1_555
Ca31 O74 2.950673 1_655
Al0 O76 1.860920 1_555
Al0 O18 1.860920 1_555
Al0 O89 1.905417 1_555
Al0 O20 1.905417 1_555
Al0 O98 2.074519 1_555
Al0 O29 2.074519 1_555
Al1 O77 1.751077 1_455
Al1 O66 1.793217 1_555
Al1 O6 1.794700 1_455
Al1 O39 2.039468 1_455
Al1 O43 2.040201 1_555
Al2 O8 1.749891 1_555
Al2 O96 1.801585 1_555
Al2 O37 1.801683 1_555
Al2 O32 1.813634 1_555
Al3 O58 1.754412 1_455
Al3 O52 1.802414 1_455
Al3 O26 1.808363 1_555
Al3 O53 1.817973 1_555
Al4 O9 1.754412 1_555
Al4 O73 1.802414 1_555
Al4 O94 1.808363 1_556
Al4 O86 1.817973 1_555
Al5 O11 1.751077 1_555
Al5 O37 1.793217 1_555
Al5 O82 1.794700 1_555
Al5 O17 2.039468 1_555
Al5 O63 2.040201 1_555
Al6 O21 1.869583 1_555
Al6 O67 1.888392 1_555
Al6 O81 1.900179 1_555
Al6 O88 1.917646 1_555
Al6 O46 1.950767 1_555
Al6 O3 2.107515 1_545
Al7 O49 1.749891 1_655
Al7 O69 1.801585 1_655
Al7 O31 1.801683 1_555
Al7 O79 1.813634 1_555
Al8 O5 1.869583 1_555
Al8 O103 1.888392 1_555
Al8 O41 1.900179 1_555
Al8 O65 1.917646 1_555
Al8 O60 1.950767 1_555
Al8 O2 2.107515 1_545
Al9 O80 1.751077 1_655
Al9 O44 1.793217 1_555
Al9 O26 1.794700 1_655
Al9 O38 2.039468 1_655
Al9 O33 2.040201 1_555
Al10 O19 1.777157 1_655
Al10 O59 1.792910 1_555
Al10 O85 1.797611 1_655
Al10 O92 1.974708 1_555
Al10 O86 1.975926 1_555
Al11 O68 1.749891 1_655
Al11 O35 1.801585 1_655
Al11 O44 1.801683 1_555
Al11 O48 1.813634 1_555
Al12 O70 1.754412 1_555
Al12 O53 1.802414 1_555
Al12 O33 1.808363 1_555
Al12 O52 1.817973 1_555
Al13 O22 1.751077 1_655
Al13 O31 1.793217 1_555
Al13 O36 1.794700 1_655
Al13 O71 2.039468 1_655
Al13 O94 2.040201 1_555
Al14 O91 1.777157 1_655
Al14 O34 1.792910 1_555
Al14 O14 1.797611 1_655
Al14 O32 1.974708 1_555
Al14 O52 1.975926 1_555
Al15 O56 1.754412 1_555
Al15 O25 1.802414 1_555
Al15 O82 1.808363 1_554
Al15 O72 1.817973 1_555
Al16 O27 1.869583 1_455
Al16 O95 1.888392 1_555
Al16 O78 1.900179 1_455
Al16 O50 1.917646 1_555
Al16 O77 1.950767 1_455
Al16 O91 2.107515 1_555
Al17 O3 1.777157 1_555
Al17 O14 1.792910 1_555
Al17 O34 1.797611 1_555
Al17 O96 1.974708 1_555
Al17 O53 1.975926 1_555
Al18 O76 1.869583 1_655
Al18 O24 1.888392 1_555
Al18 O62 1.900179 1_655
Al18 O20 1.917646 1_555
Al18 O80 1.950767 1_655
Al18 O40 2.107515 1_555
Al19 O103 1.873596 1_555
Al19 O4 1.873596 1_444
Al19 O41 1.889077 1_455
Al19 O15 1.889077 1_544
Al19 O100 2.083315 1_545
Al19 O0 2.083315 1_454
Al20 O90 1.869583 1_455
Al20 O101 1.888392 1_555
Al20 O84 1.900179 1_455
Al20 O64 1.917646 1_555
Al20 O13 1.950767 1_455
Al20 O19 2.107515 1_555
Al21 O100 1.754412 1_655
Al21 O72 1.802414 1_655
Al21 O63 1.808363 1_554
Al21 O25 1.817973 1_555
Al22 O54 1.777157 1_555
Al22 O57 1.792910 1_555
Al22 O28 1.797611 1_555
Al22 O79 1.974708 1_555
Al22 O87 1.975926 1_555
Al23 O90 1.860920 1_555
Al23 O27 1.860920 1_555
Al23 O64 1.905417 1_555
Al23 O50 1.905417 1_555
Al23 O10 2.074519 1_555
Al23 O8 2.074519 1_555
Al24 O10 1.749891 1_555
Al24 O7 1.801585 1_555
Al24 O39 1.801683 1_555
Al24 O92 1.813634 1_555
Al25 O74 1.754412 1_555
Al25 O87 1.802414 1_555
Al25 O43 1.808363 1_555
Al25 O45 1.817973 1_555
Al26 O98 1.749891 1_555
Al26 O79 1.801585 1_555
Al26 O71 1.801683 1_555
Al26 O69 1.813634 1_555
Al27 O1 1.869583 1_555
Al27 O97 1.888392 1_555
Al27 O99 1.900179 1_555
Al27 O47 1.917646 1_555
Al27 O16 1.950767 1_555
Al27 O54 2.107515 1_565
Al28 O12 1.749891 1_455
Al28 O92 1.801585 1_455
Al28 O66 1.801683 1_555
Al28 O7 1.813634 1_555
Al29 O18 1.869583 1_655
Al29 O42 1.888392 1_555
Al29 O93 1.900179 1_655
Al29 O89 1.917646 1_555
Al29 O22 1.950767 1_655
Al29 O23 2.107515 1_555
Al30 O61 1.869583 1_555
Al30 O4 1.888392 1_555
Al30 O15 1.900179 1_555
Al30 O55 1.917646 1_555
Al30 O11 1.950767 1_555
Al30 O51 2.107515 1_565
Al31 O5 1.860920 1_555
Al31 O1 1.860920 1_545
Al31 O65 1.905417 1_655
Al31 O47 1.905417 1_645
Al31 O49 2.074519 1_655
Al31 O68 2.074519 1_645
Al32 O61 1.860920 1_545
Al32 O21 1.860920 1_555
Al32 O88 1.905417 1_455
Al32 O55 1.905417 1_445
Al32 O12 2.074519 1_455
Al32 O75 2.074519 1_445
Al33 O29 1.749891 1_555
Al33 O48 1.801585 1_555
Al33 O38 1.801683 1_555
Al33 O35 1.813634 1_555
Al34 O0 1.754412 1_455
Al34 O86 1.802414 1_455
Al34 O36 1.808363 1_556
Al34 O73 1.817973 1_555
Al35 O2 1.777157 1_555
Al35 O83 1.792910 1_555
Al35 O30 1.797611 1_555
Al35 O48 1.974708 1_555
Al35 O25 1.975926 1_555
Al36 O97 1.873596 1_545
Al36 O67 1.873596 1_455
Al36 O99 1.889077 1_445
Al36 O81 1.889077 1_555
Al36 O58 2.083315 1_445
Al36 O102 2.083315 1_555
Al37 O24 1.873596 1_555
Al37 O95 1.873596 1_555
Al37 O78 1.889077 1_555
Al37 O62 1.889077 1_555
Al37 O70 2.083315 1_555
Al37 O74 2.083315 1_555
Al38 O40 1.777157 1_455
Al38 O28 1.792910 1_555
Al38 O57 1.797611 1_455
Al38 O69 1.974708 1_555
Al38 O45 1.975926 1_555
Al39 O51 1.777157 1_555
Al39 O85 1.792910 1_555
Al39 O59 1.797611 1_555
Al39 O7 1.974708 1_555
Al39 O73 1.975926 1_555
Al40 O102 1.754412 1_655
Al40 O45 1.802414 1_655
Al40 O6 1.808363 1_555
Al40 O87 1.817973 1_555
Al41 O60 1.751077 1_555
Al41 O71 1.793217 1_555
Al41 O94 1.794700 1_555
Al41 O31 2.039468 1_555
Al41 O36 2.040201 1_555
Al42 O75 1.749891 1_455
Al42 O32 1.801585 1_455
Al42 O17 1.801683 1_555
Al42 O96 1.813634 1_555
Al43 O42 1.873596 1_555
Al43 O101 1.873596 1_554
Al43 O93 1.889077 1_555
Al43 O84 1.889077 1_554
Al43 O56 2.083315 1_555
Al43 O9 2.083315 1_554
Al44 O16 1.751077 1_555
Al44 O38 1.793217 1_555
Al44 O33 1.794700 1_555
Al44 O44 2.039468 1_555
Al44 O26 2.040201 1_555
Al45 O13 1.751077 1_455
Al45 O17 1.793217 1_555
Al45 O63 1.794700 1_455
Al45 O37 2.039468 1_455
Al45 O82 2.040201 1_555
Al46 O46 1.751077 1_555
Al46 O39 1.793217 1_555
Al46 O43 1.794700 1_555
Al46 O66 2.039468 1_555
Al46 O6 2.040201 1_555
Al47 O23 1.777157 1_455
Al47 O30 1.792910 1_555
Al47 O83 1.797611 1_455
Al47 O35 1.974708 1_555
Al47 O72 1.975926 1_555
