# generated using pymatgen
data_Sr(YbS2)2
_symmetry_space_group_name_H-M   'P 1'
_cell_length_a   7.43405488
_cell_length_b   7.43405488
_cell_length_c   7.43405488
_cell_angle_alpha   110.93996914
_cell_angle_beta   110.93996914
_cell_angle_gamma   106.57204648
_symmetry_Int_Tables_number   1
_chemical_formula_structural   Sr(YbS2)2
_chemical_formula_sum   'Sr2 Yb4 S8'
_cell_volume   315.66467800
_cell_formula_units_Z   2
loop_
 _symmetry_equiv_pos_site_id
 _symmetry_equiv_pos_as_xyz
  1  'x, y, z'
loop_
 _atom_site_type_symbol
 _atom_site_label
 _atom_site_symmetry_multiplicity
 _atom_site_fract_x
 _atom_site_fract_y
 _atom_site_fract_z
 _atom_site_occupancy
  Sr  Sr0  1  0.75000000  0.25000000  0.50000000  1
  Sr  Sr1  1  0.00000000  0.00000000  0.00000000  1
  Yb  Yb0  1  0.87500000  0.49934800  0.12434800  1
  Yb  Yb1  1  0.24934800  0.12500000  0.62434800  1
  Yb  Yb2  1  0.37500000  0.75065200  0.87565200  1
  Yb  Yb3  1  0.50065200  0.62500000  0.37565200  1
  S  S0  1  0.60049300  0.03141700  0.75705100  1
  S  S1  1  0.59344100  0.52436500  0.74294900  1
  S  S2  1  0.15655900  0.39950700  0.43092400  1
  S  S3  1  0.78141700  0.85049300  0.25705100  1
  S  S4  1  0.14950700  0.40655900  0.93092400  1
  S  S5  1  0.47563500  0.21858300  0.06907600  1
  S  S6  1  0.96858300  0.72563500  0.56907600  1
  S  S7  1  0.27436500  0.84344100  0.24294900  1
loop_
_geom_bond_atom_site_label_1
_geom_bond_atom_site_label_2
_geom_bond_distance
_geom_bond_site_symmetry_2
S0 Yb1 2.820883 1_555
S0 Yb2 2.884419 1_545
S0 Yb3 2.968481 1_545
S0 Yb0 2.983181 1_556
S0 Sr1 3.000046 1_656
S0 Sr0 3.199194 1_555
S1 Yb2 2.820881 1_555
S1 Yb1 2.884410 1_555
S1 Yb0 2.968480 1_556
S1 Yb3 2.983186 1_555
S1 Sr0 3.000048 1_555
S1 Sr1 3.199202 1_666
S2 Yb2 2.820884 1_555
S2 Yb3 2.884413 1_555
S2 Yb0 2.968485 1_455
S2 Yb1 2.983179 1_555
S2 Sr1 3.000044 1_555
S2 Sr0 3.199201 1_455
S3 Yb0 2.820883 1_555
S3 Yb3 2.884419 1_555
S3 Yb2 2.968481 1_554
S3 Yb1 2.983181 1_665
S3 Sr0 3.000046 1_565
S3 Sr1 3.199194 1_665
S4 Yb3 2.820884 1_556
S4 Yb2 2.884413 1_555
S4 Yb1 2.968485 1_555
S4 Yb0 2.983179 1_456
S4 Sr0 3.000044 1_455
S4 Sr1 3.199201 1_556
S5 Yb1 2.820884 1_554
S5 Yb0 2.884413 1_555
S5 Yb3 2.968485 1_555
S5 Yb2 2.983179 1_544
S5 Sr0 3.000044 1_555
S5 Sr1 3.199201 1_555
S6 Yb0 2.820884 1_555
S6 Yb1 2.884413 1_665
S6 Yb2 2.968485 1_655
S6 Yb3 2.983179 1_555
S6 Sr1 3.000044 1_666
S6 Sr0 3.199201 1_555
S7 Yb3 2.820881 1_555
S7 Yb0 2.884410 1_455
S7 Yb1 2.968480 1_565
S7 Yb2 2.983186 1_554
S7 Sr1 3.000048 1_565
S7 Sr0 3.199202 1_565
