# generated using pymatgen
data_Nb3ZnFe3(O6F)2
_symmetry_space_group_name_H-M   'P 1'
_cell_length_a   4.72739400
_cell_length_b   5.16571083
_cell_length_c   11.03187657
_cell_angle_alpha   92.78770032
_cell_angle_beta   90.31525136
_cell_angle_gamma   90.61526053
_symmetry_Int_Tables_number   1
_chemical_formula_structural   Nb3ZnFe3(O6F)2
_chemical_formula_sum   'Nb3 Zn1 Fe3 O12 F2'
_cell_volume   269.06307179
_cell_formula_units_Z   1
loop_
 _symmetry_equiv_pos_site_id
 _symmetry_equiv_pos_as_xyz
  1  'x, y, z'
loop_
 _atom_site_type_symbol
 _atom_site_label
 _atom_site_symmetry_multiplicity
 _atom_site_fract_x
 _atom_site_fract_y
 _atom_site_fract_z
 _atom_site_occupancy
  Nb  Nb0  1  0.50889400  0.71515300  0.83910200  1
  Nb  Nb1  1  0.51052700  0.76957500  0.33766400  1
  Nb  Nb2  1  0.08136100  0.80896200  0.62038500  1
  Zn  Zn0  1  0.49760000  0.25081400  0.18010800  1
  Fe  Fe0  1  0.01868700  0.26715300  0.40081700  1
  Fe  Fe1  1  0.03791500  0.24007800  0.88296600  1
  Fe  Fe2  1  0.03390600  0.78230500  0.09343200  1
  O  O0  1  0.76299100  0.92917400  0.93376900  1
  O  O1  1  0.76575800  0.96450600  0.44213300  1
  O  O2  1  0.71191400  0.79769100  0.67384500  1
  O  O3  1  0.72424200  0.91313300  0.18503800  1
  O  O4  1  0.70590000  0.40391700  0.83998600  1
  O  O5  1  0.72912200  0.44782900  0.31713400  1
  O  O6  1  0.21939800  0.53636700  0.70281100  1
  O  O7  1  0.23308000  0.01164300  0.77385700  1
  O  O8  1  0.26834800  0.58001300  0.19246900  1
  O  O9  1  0.25644600  0.06621400  0.29942900  1
  O  O10  1  0.21126900  0.58180000  0.94801300  1
  O  O11  1  0.22063800  0.62503800  0.45691800  1
  F  F0  1  0.22587800  0.10421400  0.03802900  1
  F  F1  1  0.22612700  0.14642200  0.54709500  1
loop_
_geom_bond_atom_site_label_1
_geom_bond_atom_site_label_2
_geom_bond_distance
_geom_bond_site_symmetry_2
Nb0 O4 1.867062 1_555
Nb0 O0 1.897696 1_555
Nb0 O10 1.994000 1_555
Nb0 O2 2.124305 1_555
Nb0 O7 2.168805 1_565
Nb0 O6 2.191280 1_555
Nb1 O1 1.908859 1_555
Nb1 O5 1.970894 1_555
Nb1 O9 2.016329 1_565
Nb1 O11 2.063908 1_555
Nb1 O3 2.128328 1_555
Nb1 O8 2.153711 1_555
Nb2 O6 1.836658 1_555
Nb2 O2 1.847712 1_455
Nb2 O7 2.067664 1_565
Nb2 O11 2.109053 1_555
Fe0 O9 1.875570 1_555
Fe0 O5 1.922120 1_455
Fe0 O1 2.028984 1_445
Fe0 O11 2.134618 1_555
Fe1 O4 1.861190 1_455
Fe1 O7 1.894724 1_555
Fe1 O10 2.035152 1_555
Fe1 O0 2.152526 1_445
Fe2 O3 1.895290 1_455
Fe2 O8 1.906991 1_555
Fe2 O10 2.054564 1_554
Fe2 O0 2.333312 1_454
O3 Zn0 2.059718 1_565
O5 Zn0 2.080145 1_555
O8 Zn0 2.025747 1_555
O9 Zn0 2.014201 1_555
F0 Fe2 2.008712 1_545
F0 Fe1 2.078908 1_554
F0 Zn0 2.126443 1_555
F1 Fe0 2.012049 1_555
F1 Nb2 2.068443 1_545
