# generated using pymatgen
data_Tm7Cl15
_symmetry_space_group_name_H-M   'P 1'
_cell_length_a   6.60750700
_cell_length_b   6.80891200
_cell_length_c   45.68596700
_cell_angle_alpha   90.00000000
_cell_angle_beta   90.00000000
_cell_angle_gamma   90.00000000
_symmetry_Int_Tables_number   1
_chemical_formula_structural   Tm7Cl15
_chemical_formula_sum   'Tm28 Cl60'
_cell_volume   2055.40862646
_cell_formula_units_Z   4
loop_
 _symmetry_equiv_pos_site_id
 _symmetry_equiv_pos_as_xyz
  1  'x, y, z'
loop_
 _atom_site_type_symbol
 _atom_site_label
 _atom_site_symmetry_multiplicity
 _atom_site_fract_x
 _atom_site_fract_y
 _atom_site_fract_z
 _atom_site_occupancy
  Tm  Tm0  1  0.13711300  0.45244900  0.60760600  1
  Tm  Tm1  1  0.36288700  0.95244900  0.10760600  1
  Tm  Tm2  1  0.35599400  0.03481000  0.95644500  1
  Tm  Tm3  1  0.74317700  0.00707700  0.75000000  1
  Tm  Tm4  1  0.86667600  0.47632400  0.67186600  1
  Tm  Tm5  1  0.86667600  0.47632400  0.82813400  1
  Tm  Tm6  1  0.36288700  0.95244900  0.39239400  1
  Tm  Tm7  1  0.35599400  0.03481000  0.54355500  1
  Tm  Tm8  1  0.75682300  0.50707700  0.25000000  1
  Tm  Tm9  1  0.86288700  0.54755100  0.10760600  1
  Tm  Tm10  1  0.14400600  0.53481000  0.45644500  1
  Tm  Tm11  1  0.14400600  0.53481000  0.04355500  1
  Tm  Tm12  1  0.36667600  0.02367600  0.82813400  1
  Tm  Tm13  1  0.13711300  0.45244900  0.89239400  1
  Tm  Tm14  1  0.85599400  0.46519000  0.95644500  1
  Tm  Tm15  1  0.64400600  0.96519000  0.45644500  1
  Tm  Tm16  1  0.63711300  0.04755100  0.89239400  1
  Tm  Tm17  1  0.63711300  0.04755100  0.60760600  1
  Tm  Tm18  1  0.13332400  0.52367600  0.17186600  1
  Tm  Tm19  1  0.64400600  0.96519000  0.04355500  1
  Tm  Tm20  1  0.85599400  0.46519000  0.54355500  1
  Tm  Tm21  1  0.86288700  0.54755100  0.39239400  1
  Tm  Tm22  1  0.36667600  0.02367600  0.67186600  1
  Tm  Tm23  1  0.63332400  0.97632400  0.32813400  1
  Tm  Tm24  1  0.13332400  0.52367600  0.32813400  1
  Tm  Tm25  1  0.25682300  0.99292300  0.25000000  1
  Tm  Tm26  1  0.24317700  0.49292300  0.75000000  1
  Tm  Tm27  1  0.63332400  0.97632400  0.17186600  1
  Cl  Cl0  1  0.99571100  0.14974500  0.92597200  1
  Cl  Cl1  1  0.65255100  0.18760100  0.50876800  1
  Cl  Cl2  1  0.12458800  0.28778500  0.37251400  1
  Cl  Cl3  1  0.49571100  0.35025500  0.57402800  1
  Cl  Cl4  1  0.80705700  0.33935600  0.30645100  1
  Cl  Cl5  1  0.87601000  0.63458500  0.75000000  1
  Cl  Cl6  1  0.45332600  0.71290200  0.28458400  1
  Cl  Cl7  1  0.12458800  0.28778500  0.12748600  1
  Cl  Cl8  1  0.34744900  0.81239900  0.49123200  1
  Cl  Cl9  1  0.15255100  0.31239900  0.50876800  1
  Cl  Cl10  1  0.87541200  0.71221500  0.87251400  1
  Cl  Cl11  1  0.15702300  0.70099400  0.94012900  1
  Cl  Cl12  1  0.00428900  0.85025500  0.42597200  1
  Cl  Cl13  1  0.00428900  0.85025500  0.07402800  1
  Cl  Cl14  1  0.34297700  0.20099400  0.44012900  1
  Cl  Cl15  1  0.15702300  0.70099400  0.55987100  1
  Cl  Cl16  1  0.84744900  0.68760100  0.00876800  1
  Cl  Cl17  1  0.87541200  0.71221500  0.62748600  1
  Cl  Cl18  1  0.15255100  0.31239900  0.99123200  1
  Cl  Cl19  1  0.01711200  0.15402600  0.64701600  1
  Cl  Cl20  1  0.69294300  0.83935600  0.69354900  1
  Cl  Cl21  1  0.95332600  0.78709800  0.28458400  1
  Cl  Cl22  1  0.48288800  0.65402600  0.35298400  1
  Cl  Cl23  1  0.62458800  0.21221500  0.37251400  1
  Cl  Cl24  1  0.49571100  0.35025500  0.92597200  1
  Cl  Cl25  1  0.65255100  0.18760100  0.99123200  1
  Cl  Cl26  1  0.99571100  0.14974500  0.57402800  1
  Cl  Cl27  1  0.95332600  0.78709800  0.21541600  1
  Cl  Cl28  1  0.50428900  0.64974500  0.42597200  1
  Cl  Cl29  1  0.50428900  0.64974500  0.07402800  1
  Cl  Cl30  1  0.12399000  0.36541500  0.25000000  1
  Cl  Cl31  1  0.84297700  0.29900600  0.05987100  1
  Cl  Cl32  1  0.34297700  0.20099400  0.05987100  1
  Cl  Cl33  1  0.48288800  0.65402600  0.14701600  1
  Cl  Cl34  1  0.37601000  0.86541500  0.75000000  1
  Cl  Cl35  1  0.19294300  0.66064400  0.69354900  1
  Cl  Cl36  1  0.80705700  0.33935600  0.19354900  1
  Cl  Cl37  1  0.01711200  0.15402600  0.85298400  1
  Cl  Cl38  1  0.51711200  0.34597400  0.64701600  1
  Cl  Cl39  1  0.04667400  0.21290200  0.71541600  1
  Cl  Cl40  1  0.84744900  0.68760100  0.49123200  1
  Cl  Cl41  1  0.84297700  0.29900600  0.44012900  1
  Cl  Cl42  1  0.54667400  0.28709800  0.78458400  1
  Cl  Cl43  1  0.65702300  0.79900600  0.94012900  1
  Cl  Cl44  1  0.37541200  0.78778500  0.87251400  1
  Cl  Cl45  1  0.37541200  0.78778500  0.62748600  1
  Cl  Cl46  1  0.65702300  0.79900600  0.55987100  1
  Cl  Cl47  1  0.54667400  0.28709800  0.71541600  1
  Cl  Cl48  1  0.62458800  0.21221500  0.12748600  1
  Cl  Cl49  1  0.04667400  0.21290200  0.78458400  1
  Cl  Cl50  1  0.51711200  0.34597400  0.85298400  1
  Cl  Cl51  1  0.69294300  0.83935600  0.80645100  1
  Cl  Cl52  1  0.98288800  0.84597400  0.14701600  1
  Cl  Cl53  1  0.62399000  0.13458500  0.25000000  1
  Cl  Cl54  1  0.19294300  0.66064400  0.80645100  1
  Cl  Cl55  1  0.98288800  0.84597400  0.35298400  1
  Cl  Cl56  1  0.45332600  0.71290200  0.21541600  1
  Cl  Cl57  1  0.30705700  0.16064400  0.30645100  1
  Cl  Cl58  1  0.30705700  0.16064400  0.19354900  1
  Cl  Cl59  1  0.34744900  0.81239900  0.00876800  1
loop_
_geom_bond_atom_site_label_1
_geom_bond_atom_site_label_2
_geom_bond_distance
_geom_bond_site_symmetry_2
Cl0 Tm14 2.720966 1_555
Cl0 Tm13 2.733917 1_655
Cl0 Tm2 2.866662 1_655
Cl0 Tm16 2.907182 1_555
Cl1 Tm7 2.729059 1_555
Cl1 Tm20 2.811621 1_555
Cl1 Tm15 2.830312 1_545
Cl2 Tm24 2.587280 1_555
Cl2 Tm21 2.635030 1_455
Cl2 Tm6 2.918472 1_545
Cl3 Tm7 2.720966 1_555
Cl3 Tm17 2.733917 1_555
Cl3 Tm20 2.866662 1_555
Cl3 Tm0 2.907182 1_555
Cl4 Tm24 2.684008 1_655
Cl4 Tm8 2.840012 1_555
Cl4 Tm23 2.899851 1_545
Cl5 Tm26 2.610775 1_655
Cl5 Tm3 2.683839 1_565
Cl6 Tm25 2.795981 1_555
Cl6 Tm8 2.912374 1_555
Cl6 Tm23 2.930903 1_555
Cl6 Tm24 3.176380 1_555
Cl7 Tm18 2.587280 1_555
Cl7 Tm9 2.635030 1_455
Cl7 Tm1 2.918472 1_545
Cl8 Tm15 2.729059 1_555
Cl8 Tm10 2.811621 1_555
Cl8 Tm7 2.830312 1_565
Cl9 Tm20 2.729059 1_455
Cl9 Tm7 2.811621 1_555
Cl9 Tm10 2.830312 1_555
Cl10 Tm5 2.587280 1_555
Cl10 Tm13 2.635030 1_655
Cl10 Tm16 2.918472 1_565
Cl11 Tm14 2.662671 1_455
Cl11 Tm2 2.729517 1_565
Cl11 Tm13 2.763554 1_555
Cl12 Tm10 2.720966 1_555
Cl12 Tm21 2.733917 1_455
Cl12 Tm15 2.866662 1_455
Cl12 Tm6 2.907182 1_555
Cl13 Tm11 2.720966 1_555
Cl13 Tm9 2.733917 1_455
Cl13 Tm19 2.866662 1_455
Cl13 Tm1 2.907182 1_555
Cl14 Tm15 2.662671 1_545
Cl14 Tm10 2.729517 1_555
Cl14 Tm6 2.763554 1_545
Cl15 Tm20 2.662671 1_455
Cl15 Tm7 2.729517 1_565
Cl15 Tm0 2.763554 1_555
Cl16 Tm11 2.729059 1_655
Cl16 Tm19 2.811621 1_555
Cl16 Tm14 2.830312 1_554
Cl17 Tm4 2.587280 1_555
Cl17 Tm0 2.635030 1_655
Cl17 Tm17 2.918472 1_565
Cl18 Tm14 2.729059 1_455
Cl18 Tm2 2.811621 1_555
Cl18 Tm11 2.830312 1_556
Cl19 Tm4 2.663226 1_455
Cl19 Tm22 2.722418 1_555
Cl19 Tm0 2.828287 1_555
Cl19 Tm17 3.173592 1_455
Cl20 Tm22 2.684008 1_565
Cl20 Tm3 2.840012 1_565
Cl20 Tm4 2.899851 1_555
Cl21 Tm8 2.795981 1_555
Cl21 Tm25 2.912374 1_655
Cl21 Tm24 2.930903 1_655
Cl21 Tm23 3.176380 1_555
Cl22 Tm23 2.663226 1_555
Cl22 Tm24 2.722418 1_555
Cl22 Tm6 2.828287 1_555
Cl22 Tm21 3.173592 1_555
Cl23 Tm23 2.587280 1_545
Cl23 Tm6 2.635030 1_545
Cl23 Tm21 2.918472 1_555
Cl24 Tm2 2.720966 1_555
Cl24 Tm16 2.733917 1_555
Cl24 Tm14 2.866662 1_555
Cl24 Tm13 2.907182 1_555
Cl25 Tm2 2.729059 1_555
Cl25 Tm14 2.811621 1_555
Cl25 Tm19 2.830312 1_546
Cl26 Tm20 2.720966 1_555
Cl26 Tm0 2.733917 1_655
Cl26 Tm7 2.866662 1_655
Cl26 Tm17 2.907182 1_555
Cl27 Tm8 2.795981 1_555
Cl27 Tm25 2.912374 1_655
Cl27 Tm18 2.930903 1_655
Cl27 Tm27 3.176380 1_555
Cl28 Tm15 2.720966 1_555
Cl28 Tm6 2.733917 1_555
Cl28 Tm10 2.866662 1_555
Cl28 Tm21 2.907182 1_555
Cl29 Tm19 2.720966 1_555
Cl29 Tm1 2.733917 1_555
Cl29 Tm11 2.866662 1_555
Cl29 Tm9 2.907182 1_555
Cl30 Tm8 2.610775 1_455
Cl30 Tm25 2.683839 1_545
Cl31 Tm11 2.662671 1_655
Cl31 Tm19 2.729517 1_545
Cl31 Tm9 2.763554 1_555
Cl32 Tm19 2.662671 1_545
Cl32 Tm11 2.729517 1_555
Cl32 Tm1 2.763554 1_545
Cl33 Tm27 2.663226 1_555
Cl33 Tm18 2.722418 1_555
Cl33 Tm1 2.828287 1_555
Cl33 Tm9 3.173592 1_555
Cl34 Tm3 2.610775 1_565
Cl34 Tm26 2.683839 1_555
Cl35 Tm4 2.684008 1_455
Cl35 Tm26 2.840012 1_555
Cl35 Tm22 2.899851 1_565
Cl36 Tm18 2.684008 1_655
Cl36 Tm8 2.840012 1_555
Cl36 Tm27 2.899851 1_545
Cl37 Tm5 2.663226 1_455
Cl37 Tm12 2.722418 1_555
Cl37 Tm13 2.828287 1_555
Cl37 Tm16 3.173592 1_455
Cl38 Tm22 2.663226 1_555
Cl38 Tm4 2.722418 1_555
Cl38 Tm17 2.828287 1_555
Cl38 Tm0 3.173592 1_555
Cl39 Tm26 2.795981 1_555
Cl39 Tm3 2.912374 1_455
Cl39 Tm4 2.930903 1_455
Cl39 Tm22 3.176380 1_555
Cl40 Tm10 2.729059 1_655
Cl40 Tm15 2.811621 1_555
Cl40 Tm20 2.830312 1_555
Cl41 Tm10 2.662671 1_655
Cl41 Tm15 2.729517 1_545
Cl41 Tm21 2.763554 1_555
Cl42 Tm3 2.795981 1_555
Cl42 Tm26 2.912374 1_555
Cl42 Tm12 2.930903 1_555
Cl42 Tm5 3.176380 1_555
Cl43 Tm2 2.662671 1_565
Cl43 Tm14 2.729517 1_555
Cl43 Tm16 2.763554 1_565
Cl44 Tm12 2.587280 1_565
Cl44 Tm16 2.635030 1_565
Cl44 Tm13 2.918472 1_555
Cl45 Tm22 2.587280 1_565
Cl45 Tm17 2.635030 1_565
Cl45 Tm0 2.918472 1_555
Cl46 Tm7 2.662671 1_565
Cl46 Tm20 2.729517 1_555
Cl46 Tm17 2.763554 1_565
Cl47 Tm3 2.795981 1_555
Cl47 Tm26 2.912374 1_555
Cl47 Tm22 2.930903 1_555
Cl47 Tm4 3.176380 1_555
Cl48 Tm27 2.587280 1_545
Cl48 Tm1 2.635030 1_545
Cl48 Tm9 2.918472 1_555
Cl49 Tm26 2.795981 1_555
Cl49 Tm3 2.912374 1_455
Cl49 Tm5 2.930903 1_455
Cl49 Tm12 3.176380 1_555
Cl50 Tm12 2.663226 1_555
Cl50 Tm5 2.722418 1_555
Cl50 Tm16 2.828287 1_555
Cl50 Tm13 3.173592 1_555
Cl51 Tm12 2.684008 1_565
Cl51 Tm3 2.840012 1_565
Cl51 Tm5 2.899851 1_555
Cl52 Tm18 2.663226 1_655
Cl52 Tm27 2.722418 1_555
Cl52 Tm9 2.828287 1_555
Cl52 Tm1 3.173592 1_655
Cl53 Tm25 2.610775 1_545
Cl53 Tm8 2.683839 1_555
Cl54 Tm5 2.684008 1_455
Cl54 Tm26 2.840012 1_555
Cl54 Tm12 2.899851 1_565
Cl55 Tm24 2.663226 1_655
Cl55 Tm23 2.722418 1_555
Cl55 Tm21 2.828287 1_555
Cl55 Tm6 3.173592 1_655
Cl56 Tm25 2.795981 1_555
Cl56 Tm8 2.912374 1_555
Cl56 Tm27 2.930903 1_555
Cl56 Tm18 3.176380 1_555
Cl57 Tm23 2.684008 1_545
Cl57 Tm25 2.840012 1_545
Cl57 Tm24 2.899851 1_555
Cl58 Tm27 2.684008 1_545
Cl58 Tm25 2.840012 1_545
Cl58 Tm18 2.899851 1_555
Cl59 Tm19 2.729059 1_555
Cl59 Tm11 2.811621 1_555
Cl59 Tm2 2.830312 1_564
