# generated using pymatgen
data_ScRe2Si3
_symmetry_space_group_name_H-M   'P 1'
_cell_length_a   12.09556598
_cell_length_b   9.98495861
_cell_length_c   7.76311899
_cell_angle_alpha   84.94396110
_cell_angle_beta   55.31505888
_cell_angle_gamma   39.74098002
_symmetry_Int_Tables_number   1
_chemical_formula_structural   ScRe2Si3
_chemical_formula_sum   'Sc4 Re8 Si12'
_cell_volume   368.23745219
_cell_formula_units_Z   4
loop_
 _symmetry_equiv_pos_site_id
 _symmetry_equiv_pos_as_xyz
  1  'x, y, z'
loop_
 _atom_site_type_symbol
 _atom_site_label
 _atom_site_symmetry_multiplicity
 _atom_site_fract_x
 _atom_site_fract_y
 _atom_site_fract_z
 _atom_site_occupancy
  Sc  Sc0  1  0.80058400  0.46738800  0.55036400  1
  Sc  Sc1  1  0.18166400  0.55036400  0.46738800  1
  Sc  Sc2  1  0.44963600  0.81833600  0.19941600  1
  Sc  Sc3  1  0.53261200  0.19941600  0.81833600  1
  Re  Re0  1  0.07388300  0.33077100  0.69987000  1
  Re  Re1  1  0.89547600  0.69987000  0.33077100  1
  Re  Re2  1  0.30013000  0.10452400  0.92611700  1
  Re  Re3  1  0.66922900  0.92611700  0.10452400  1
  Re  Re4  1  0.33397200  0.84032900  0.66602800  1
  Re  Re5  1  0.15967100  0.66602800  0.84032900  1
  Re  Re6  1  0.48368900  0.51631100  0.05308200  1
  Re  Re7  1  0.94691800  0.05308200  0.51631100  1
  Si  Si0  1  0.92514900  0.22384100  0.78805700  1
  Si  Si1  1  0.06295300  0.78805700  0.22384100  1
  Si  Si2  1  0.21194300  0.93704700  0.07485100  1
  Si  Si3  1  0.77615900  0.07485100  0.93704700  1
  Si  Si4  1  0.73674400  0.76325600  0.76325600  1
  Si  Si5  1  0.23674400  0.26325600  0.26325600  1
  Si  Si6  1  0.62682000  0.13206100  0.37318000  1
  Si  Si7  1  0.86793900  0.37318000  0.13206100  1
  Si  Si8  1  0.55557800  0.86586100  0.44442200  1
  Si  Si9  1  0.13413900  0.44442200  0.86586100  1
  Si  Si10  1  0.51673000  0.48327000  0.70346000  1
  Si  Si11  1  0.29654000  0.70346000  0.48327000  1
loop_
_geom_bond_atom_site_label_1
_geom_bond_atom_site_label_2
_geom_bond_distance
_geom_bond_site_symmetry_2
Sc0 Si10 2.788804 1_555
Sc0 Si5 2.799176 1_655
Sc0 Si4 2.820474 1_555
Sc0 Si2 2.878582 1_556
Sc0 Si0 2.885692 1_555
Sc0 Si7 2.905614 1_555
Sc0 Si2 2.906234 1_645
Sc0 Si8 3.058281 1_555
Sc1 Si11 2.788804 1_555
Sc1 Si5 2.799176 1_555
Sc1 Si4 2.820474 1_455
Sc1 Si3 2.878582 1_465
Sc1 Si1 2.885692 1_555
Sc1 Si6 2.905614 1_555
Sc1 Si3 2.906234 1_554
Sc1 Si9 3.058281 1_555
Sc2 Si11 2.788804 1_555
Sc2 Si4 2.799176 1_554
Sc2 Si5 2.820474 1_565
Sc2 Si0 2.878582 1_465
Sc2 Si2 2.885692 1_555
Sc2 Si7 2.905614 1_555
Sc2 Si0 2.906234 1_554
Sc2 Si8 3.058281 1_555
Sc3 Si10 2.788804 1_555
Sc3 Si4 2.799176 1_545
Sc3 Si5 2.820474 1_556
Sc3 Si1 2.878582 1_556
Sc3 Si3 2.885692 1_555
Sc3 Si6 2.905614 1_555
Sc3 Si1 2.906234 1_645
Sc3 Si9 3.058281 1_555
Re0 Si9 2.465375 1_555
Re0 Si0 2.503702 1_455
Re0 Si8 2.511226 1_545
Re0 Si4 2.555079 1_455
Re0 Si5 2.566095 1_555
Re0 Si7 2.599531 1_456
Re0 Sc2 3.036819 1_456
Re0 Sc2 3.094264 1_545
Re1 Si8 2.465375 1_555
Re1 Si1 2.503702 1_655
Re1 Si9 2.511226 1_654
Re1 Si4 2.555079 1_555
Re1 Si5 2.566095 1_655
Re1 Si6 2.599531 1_565
Re1 Sc3 3.036819 1_565
Re1 Sc3 3.094264 1_654
Re2 Si9 2.465375 1_555
Re2 Si2 2.503702 1_546
Re2 Si8 2.511226 1_545
Re2 Si5 2.555079 1_556
Re2 Si4 2.566095 1_545
Re2 Si7 2.599531 1_456
Re2 Sc0 3.036819 1_456
Re2 Sc0 3.094264 1_545
Re3 Si8 2.465375 1_555
Re3 Si3 2.503702 1_564
Re3 Si9 2.511226 1_654
Re3 Si5 2.555079 1_565
Re3 Si4 2.566095 1_554
Re3 Si6 2.599531 1_565
Re3 Sc1 3.036819 1_565
Re3 Sc1 3.094264 1_654
Re4 Si8 2.436134 1_555
Re4 Si11 2.471845 1_555
Re4 Si10 2.471845 1_555
Re4 Si0 2.490068 1_465
Re4 Si2 2.490068 1_556
Re4 Si7 2.689002 1_466
Re4 Si7 2.694667 1_555
Re4 Sc2 3.004494 1_555
Re4 Sc0 3.004494 1_555
Re5 Si9 2.436134 1_555
Re5 Si10 2.471845 1_555
Re5 Si11 2.471845 1_555
Re5 Si1 2.490068 1_556
Re5 Si3 2.490068 1_465
Re5 Si6 2.689002 1_466
Re5 Si6 2.694667 1_555
Re5 Sc3 3.004494 1_555
Re5 Sc1 3.004494 1_555
Re6 Si11 2.399945 1_555
Re6 Si3 2.418276 1_554
Re6 Si0 2.418276 1_554
Re6 Si10 2.521058 1_554
Re6 Si2 2.595802 1_555
Re6 Si1 2.595802 1_555
Re6 Re7 2.668398 1_554
Re6 Re7 2.668398 1_465
Re6 Sc1 2.952235 1_555
Re6 Sc2 2.952235 1_555
Re6 Sc3 3.254643 1_554
Re6 Sc0 3.254643 1_554
Re7 Si10 2.399945 1_555
Re7 Si1 2.418276 1_645
Re7 Si2 2.418276 1_645
Re7 Si11 2.521058 1_645
Re7 Si3 2.595802 1_555
Re7 Si0 2.595802 1_555
Re7 Sc0 2.952235 1_555
Re7 Sc3 2.952235 1_555
Re7 Sc2 3.254643 1_645
Re7 Sc1 3.254643 1_645
Si0 Si7 2.616476 1_556
Si0 Si11 2.636287 1_645
Si0 Si3 2.871576 1_555
Si1 Si6 2.616476 1_465
Si1 Si10 2.636287 1_554
Si1 Si2 2.871576 1_555
Si2 Si7 2.616476 1_465
Si3 Si6 2.616476 1_556
Si4 Si5 2.613685 1_566
Si4 Si5 2.613685 1_655
Si6 Si9 2.728915 1_555
Si7 Si8 2.728915 1_555
Si10 Si2 2.636287 1_556
Si11 Si3 2.636287 1_465
