# generated using pymatgen
data_SiO2
_symmetry_space_group_name_H-M   'P 1'
_cell_length_a   5.00591938
_cell_length_b   12.69127132
_cell_length_c   23.89479056
_cell_angle_alpha   76.62368031
_cell_angle_beta   83.96967150
_cell_angle_gamma   78.63712530
_symmetry_Int_Tables_number   1
_chemical_formula_structural   SiO2
_chemical_formula_sum   'Si28 O56'
_cell_volume   1445.12244906
_cell_formula_units_Z   28
loop_
 _symmetry_equiv_pos_site_id
 _symmetry_equiv_pos_as_xyz
  1  'x, y, z'
loop_
 _atom_site_type_symbol
 _atom_site_label
 _atom_site_symmetry_multiplicity
 _atom_site_fract_x
 _atom_site_fract_y
 _atom_site_fract_z
 _atom_site_occupancy
  Si  Si0  1  0.80729513  0.95538572  0.61925640  1
  Si  Si1  1  0.71698938  0.67800506  0.05317917  1
  Si  Si2  1  0.90599921  0.03524061  0.08710924  1
  Si  Si3  1  0.09512459  0.96524591  0.91310890  1
  Si  Si4  1  0.61849348  0.45566172  0.11943470  1
  Si  Si5  1  0.63078553  0.13885541  0.42804386  1
  Si  Si6  1  0.80290030  0.63953907  0.92795796  1
  Si  Si7  1  0.44788717  0.82195659  0.44697520  1
  Si  Si8  1  0.27197468  0.17456671  0.25473143  1
  Si  Si9  1  0.40587049  0.61316094  0.63820334  1
  Si  Si10  1  0.70146891  0.32524441  0.24558607  1
  Si  Si11  1  0.28361423  0.32224620  0.94720738  1
  Si  Si12  1  0.38178312  0.54470489  0.88095060  1
  Si  Si13  1  0.02890249  0.46446190  0.41328021  1
  Si  Si14  1  0.19758141  0.36089220  0.07244851  1
  Si  Si15  1  0.97213508  0.53510923  0.58709317  1
  Si  Si16  1  0.19328332  0.04423162  0.38095673  1
  Si  Si17  1  0.29731322  0.67463472  0.75472048  1
  Si  Si18  1  0.65792512  0.88725758  0.86196523  1
  Si  Si19  1  -0.00759088  0.32365036  0.54078074  1
  Si  Si20  1  0.00818168  0.67601525  0.45956039  1
  Si  Si21  1  0.55247622  0.17778772  0.55326717  1
  Si  Si22  1  0.36995503  0.86078597  0.57216240  1
  Si  Si23  1  0.14423469  0.82400849  0.04059883  1
  Si  Si24  1  0.85657472  0.17639243  0.95966258  1
  Si  Si25  1  0.72694594  0.82525089  0.74557146  1
  Si  Si26  1  0.34311613  0.11317066  0.13831805  1
  Si  Si27  1  0.59521862  0.38644052  0.36210199  1
  O  O0  1  0.06383800  0.07266412  0.13258543  1
  O  O1  1  0.03774315  0.58633663  0.42052349  1
  O  O2  1  0.08018719  0.87885907  0.97426133  1
  O  O3  1  0.93718108  0.92781500  0.86764873  1
  O  O4  1  0.74123970  0.46477739  0.38862661  1
  O  O5  1  0.12409059  0.61768694  0.90922659  1
  O  O6  1  0.29354320  0.71883211  0.45452330  1
  O  O7  1  0.40850842  0.59177589  0.81242551  1
  O  O8  1  0.61976432  0.89380499  0.79506706  1
  O  O9  1  0.87652904  0.38259579  0.09133290  1
  O  O10  1  0.40701345  0.96584319  0.88835153  1
  O  O11  1  0.92142007  0.12161645  0.02597496  1
  O  O12  1  0.38579645  0.87503502  0.50325659  1
  O  O13  1  0.34476776  0.44857596  0.09121333  1
  O  O14  1  0.67890444  0.26139373  0.39756162  1
  O  O15  1  0.59397710  0.03480324  0.11178185  1
  O  O16  1  0.65629311  0.08234126  0.60778009  1
  O  O17  1  0.61331808  0.12481071  0.49694152  1
  O  O18  1  0.95631130  0.08692695  0.92051589  1
  O  O19  1  0.06969058  0.37827592  0.47447136  1
  O  O20  1  0.65580368  0.55213332  0.90893826  1
  O  O21  1  0.96243562  0.41332236  0.57983610  1
  O  O22  1  0.77054452  0.77861035  0.43728107  1
  O  O23  1  0.65481311  0.58257242  0.10779235  1
  O  O24  1  0.66372522  0.76231727  0.89763707  1
  O  O25  1  0.65047109  0.88265327  0.59090843  1
  O  O26  1  0.22994305  0.22111257  0.56319706  1
  O  O27  1  0.81361663  0.90769045  0.68772676  1
  O  O28  1  0.34625866  0.41771899  0.89267637  1
  O  O29  1  0.04439597  0.91349836  0.07973049  1
  O  O30  1  0.76379670  0.62495045  0.99688685  1
  O  O31  1  0.73138466  0.57263935  0.63256009  1
  O  O32  1  0.98682913  0.72135412  0.06273074  1
  O  O33  1  0.01378635  0.27908218  0.93745947  1
  O  O34  1  0.98676462  0.73234552  0.76794013  1
  O  O35  1  0.46728149  0.78116874  0.04573194  1
  O  O36  1  0.59037880  0.40831335  0.18792470  1
  O  O37  1  0.88470089  0.05111542  0.40945422  1
  O  O38  1  0.53339292  0.21908327  0.95470565  1
  O  O39  1  0.25996680  0.53469454  0.61171871  1
  O  O40  1  0.11643778  0.94835263  0.59104316  1
  O  O41  1  0.69357150  0.39332786  0.29516655  1
  O  O42  1  0.33729763  0.23825528  0.10287692  1
  O  O43  1  0.35074958  0.11713279  0.40902826  1
  O  O44  1  0.18556182  0.09186566  0.31249930  1
  O  O45  1  0.48699154  0.76751637  0.73251059  1
  O  O46  1  0.30722432  0.60645525  0.70511046  1
  O  O47  1  0.93163836  0.62135178  0.52590006  1
  O  O48  1  0.32255749  0.73813606  0.60261109  1
  O  O49  1  0.70709256  0.28087321  0.54561447  1
  O  O50  1  0.38154032  0.10617686  0.20525856  1
  O  O51  1  0.34474736  0.91733988  0.39238004  1
  O  O52  1  0.26977965  0.42698555  0.36783057  1
  O  O53  1  0.51021546  0.23298997  0.26798330  1
  O  O54  1  0.23609632  0.37515735  0.00354469  1
  O  O55  1  0.01118236  0.26681203  0.23221565  1
loop_
_geom_bond_atom_site_label_1
_geom_bond_atom_site_label_2
_geom_bond_distance
_geom_bond_site_symmetry_2
O0 Si26 1.610462 1_555
O0 Si2 1.611752 1_455
O1 Si13 1.605236 1_555
O1 Si20 1.607223 1_555
O2 Si23 1.615015 1_556
O2 Si3 1.615820 1_555
O3 Si18 1.610394 1_555
O3 Si3 1.611825 1_655
O4 Si13 1.611077 1_655
O4 Si27 1.612358 1_555
O5 Si6 1.610265 1_455
O5 Si12 1.616816 1_555
O6 Si20 1.609305 1_555
O6 Si7 1.613184 1_555
O7 Si17 1.605184 1_555
O7 Si12 1.608946 1_555
O8 Si18 1.610932 1_555
O8 Si25 1.613203 1_555
O9 Si14 1.610327 1_655
O9 Si4 1.616527 1_555
O10 Si3 1.611264 1_555
O10 Si18 1.612704 1_555
O11 Si24 1.615188 1_554
O11 Si2 1.615638 1_555
O12 Si22 1.609463 1_555
O12 Si7 1.614867 1_555
O13 Si14 1.614205 1_555
O13 Si4 1.615911 1_555
O14 Si5 1.610506 1_555
O14 Si27 1.613206 1_555
O15 Si2 1.611127 1_555
O15 Si26 1.612634 1_555
O16 Si21 1.611904 1_555
O16 Si0 1.613023 1_545
O17 Si5 1.609294 1_555
O17 Si21 1.614962 1_555
O18 Si3 1.605238 1_645
O18 Si24 1.607285 1_555
O19 Si19 1.615368 1_555
O19 Si13 1.615774 1_555
O20 Si6 1.613917 1_555
O20 Si12 1.615745 1_555
O21 Si15 1.605227 1_555
O21 Si19 1.607255 1_655
O22 Si7 1.611015 1_555
O22 Si20 1.611179 1_655
O23 Si1 1.612030 1_555
O23 Si4 1.613106 1_555
O24 Si6 1.610670 1_555
O24 Si18 1.613497 1_555
O25 Si22 1.610216 1_555
O25 Si0 1.616712 1_555
O26 Si21 1.611066 1_555
O26 Si19 1.611163 1_555
O27 Si25 1.605337 1_555
O27 Si0 1.609126 1_555
O28 Si11 1.611732 1_555
O28 Si12 1.612749 1_555
O29 Si2 1.605263 1_465
O29 Si23 1.607327 1_555
O30 Si6 1.609592 1_555
O30 Si1 1.614998 1_556
O31 Si9 1.610475 1_555
O31 Si15 1.611758 1_555
O32 Si1 1.610936 1_555
O32 Si23 1.611226 1_655
O33 Si11 1.611070 1_555
O33 Si24 1.611156 1_455
O34 Si17 1.614978 1_655
O34 Si25 1.617947 1_555
O35 Si23 1.609401 1_555
O35 Si1 1.613213 1_555
O36 Si10 1.605284 1_555
O36 Si4 1.609074 1_555
O37 Si5 1.614129 1_555
O37 Si16 1.615819 1_655
O38 Si24 1.609379 1_555
O38 Si11 1.613434 1_555
O39 Si15 1.611233 1_455
O39 Si9 1.612749 1_555
O40 Si22 1.614036 1_555
O40 Si0 1.616027 1_455
O41 Si27 1.610891 1_555
O41 Si10 1.613092 1_555
O42 Si14 1.610763 1_555
O42 Si26 1.613398 1_555
O43 Si5 1.609871 1_555
O43 Si16 1.616450 1_555
O44 Si8 1.605371 1_555
O44 Si16 1.609114 1_555
O45 Si25 1.615095 1_555
O45 Si17 1.618170 1_555
O46 Si9 1.610829 1_555
O46 Si17 1.612986 1_555
O47 Si20 1.615295 1_655
O47 Si15 1.616000 1_555
O48 Si22 1.610545 1_555
O48 Si9 1.613276 1_555
O49 Si19 1.609319 1_655
O49 Si21 1.613290 1_555
O50 Si26 1.611086 1_555
O50 Si8 1.613246 1_555
O51 Si7 1.611941 1_555
O51 Si16 1.613008 1_565
O52 Si27 1.610268 1_555
O52 Si13 1.611669 1_555
O53 Si8 1.615176 1_555
O53 Si10 1.618019 1_555
O54 Si14 1.609305 1_555
O54 Si11 1.614841 1_554
O55 Si10 1.615008 1_455
O55 Si8 1.618105 1_555
