# generated using pymatgen
data_Mg2Al4Si5O18
_symmetry_space_group_name_H-M   'P 1'
_cell_length_a   9.93464530
_cell_length_b   9.93464530
_cell_length_c   9.44016000
_cell_angle_alpha   90.00000000
_cell_angle_beta   90.00000000
_cell_angle_gamma   120.69407460
_symmetry_Int_Tables_number   1
_chemical_formula_structural   Mg2Al4Si5O18
_chemical_formula_sum   'Mg4 Al8 Si10 O36'
_cell_volume   801.18829348
_cell_formula_units_Z   2
loop_
 _symmetry_equiv_pos_site_id
 _symmetry_equiv_pos_as_xyz
  1  'x, y, z'
loop_
 _atom_site_type_symbol
 _atom_site_label
 _atom_site_symmetry_multiplicity
 _atom_site_fract_x
 _atom_site_fract_y
 _atom_site_fract_z
 _atom_site_occupancy
  Mg  Mg0  1  0.33746900  0.66253100  0.25000000  1
  Mg  Mg1  1  0.66253100  0.33746900  0.25000000  1
  Mg  Mg2  1  0.66253100  0.33746900  0.75000000  1
  Mg  Mg3  1  0.33746900  0.66253100  0.75000000  1
  Al  Al0  1  0.00000000  0.50000000  0.24992400  1
  Al  Al1  1  0.50000000  0.00000000  0.25007600  1
  Al  Al2  1  0.50000000  0.00000000  0.74992400  1
  Al  Al3  1  0.00000000  0.50000000  0.75007600  1
  Al  Al4  1  0.25761500  0.35838700  0.50000000  1
  Al  Al5  1  0.74238500  0.64161300  0.50000000  1
  Al  Al6  1  0.35838700  0.25761500  0.00000000  1
  Al  Al7  1  0.64161300  0.74238500  0.00000000  1
  Si  Si0  1  0.11348800  0.72910900  0.50000000  1
  Si  Si1  1  0.88651200  0.27089100  0.50000000  1
  Si  Si2  1  0.27089100  0.88651200  0.00000000  1
  Si  Si3  1  0.72910900  0.11348800  0.00000000  1
  Si  Si4  1  0.50000000  0.50000000  0.75000000  1
  Si  Si5  1  0.50000000  0.50000000  0.25000000  1
  Si  Si6  1  0.89846100  0.62790600  0.00000000  1
  Si  Si7  1  0.10153900  0.37209400  0.00000000  1
  Si  Si8  1  0.62790600  0.89846100  0.50000000  1
  Si  Si9  1  0.37209400  0.10153900  0.50000000  1
  O  O0  1  0.35379300  0.47872700  0.34893800  1
  O  O1  1  0.13658900  0.48345700  0.85819500  1
  O  O2  1  0.48345700  0.13658900  0.35819500  1
  O  O3  1  0.51654300  0.86341100  0.35819500  1
  O  O4  1  0.24300600  0.91458200  0.50000000  1
  O  O5  1  0.75699400  0.08541800  0.50000000  1
  O  O6  1  0.91458200  0.24300600  0.00000000  1
  O  O7  1  0.08541800  0.75699400  0.00000000  1
  O  O8  1  0.29190500  0.20502200  0.50000000  1
  O  O9  1  0.70809500  0.79497800  0.50000000  1
  O  O10  1  0.20502200  0.29190500  0.00000000  1
  O  O11  1  0.79497800  0.70809500  0.00000000  1
  O  O12  1  0.06319300  0.30715500  0.50000000  1
  O  O13  1  0.93680700  0.69284500  0.50000000  1
  O  O14  1  0.30715500  0.06319300  0.00000000  1
  O  O15  1  0.69284500  0.93680700  0.00000000  1
  O  O16  1  0.51654300  0.86341100  0.64180500  1
  O  O17  1  0.48345700  0.13658900  0.64180500  1
  O  O18  1  0.64990100  0.14415000  0.14151200  1
  O  O19  1  0.13658900  0.48345700  0.14180500  1
  O  O20  1  0.14415000  0.64990100  0.35848800  1
  O  O21  1  0.85585000  0.35009900  0.35848800  1
  O  O22  1  0.35009900  0.85585000  0.85848800  1
  O  O23  1  0.64990100  0.14415000  0.85848800  1
  O  O24  1  0.85585000  0.35009900  0.64151200  1
  O  O25  1  0.14415000  0.64990100  0.64151200  1
  O  O26  1  0.52127300  0.64620700  0.15106200  1
  O  O27  1  0.47872700  0.35379300  0.15106200  1
  O  O28  1  0.64620700  0.52127300  0.34893800  1
  O  O29  1  0.35009900  0.85585000  0.14151200  1
  O  O30  1  0.47872700  0.35379300  0.84893800  1
  O  O31  1  0.52127300  0.64620700  0.84893800  1
  O  O32  1  0.35379300  0.47872700  0.65106200  1
  O  O33  1  0.64620700  0.52127300  0.65106200  1
  O  O34  1  0.86341100  0.51654300  0.14180500  1
  O  O35  1  0.86341100  0.51654300  0.85819500  1
loop_
_geom_bond_atom_site_label_1
_geom_bond_atom_site_label_2
_geom_bond_distance
_geom_bond_site_symmetry_2
Mg0 O20 2.123000 1_555
Mg0 O29 2.123000 1_555
Mg0 O26 2.129634 1_555
Mg0 O0 2.129634 1_555
Mg0 O3 2.136887 1_555
Mg0 O19 2.136887 1_555
Mg1 O21 2.123000 1_555
Mg1 O18 2.123000 1_555
Mg1 O27 2.129634 1_555
Mg1 O28 2.129634 1_555
Mg1 O2 2.136887 1_555
Mg1 O34 2.136887 1_555
Mg2 O23 2.123000 1_555
Mg2 O24 2.123000 1_555
Mg2 O30 2.129634 1_555
Mg2 O33 2.129634 1_555
Mg2 O35 2.136887 1_555
Mg2 O17 2.136887 1_555
Mg3 O22 2.123000 1_555
Mg3 O25 2.123000 1_555
Mg3 O31 2.129634 1_555
Mg3 O32 2.129634 1_555
Mg3 O1 2.136887 1_555
Mg3 O16 2.136887 1_555
Al0 O34 1.771380 1_455
Al0 O19 1.771380 1_555
Al0 O20 1.772480 1_555
Al0 O21 1.772480 1_455
Al1 O3 1.771380 1_545
Al1 O2 1.771380 1_555
Al1 O18 1.772480 1_555
Al1 O29 1.772480 1_545
Al2 O16 1.771380 1_545
Al2 O17 1.771380 1_555
Al2 O23 1.772480 1_555
Al2 O22 1.772480 1_545
Al3 O35 1.771380 1_455
Al3 O1 1.771380 1_555
Al3 O25 1.772480 1_555
Al3 O24 1.772480 1_455
Al4 O8 1.722608 1_555
Al4 O12 1.728050 1_555
Al4 O0 1.791558 1_555
Al4 O32 1.791558 1_555
Al5 O9 1.722608 1_555
Al5 O13 1.728050 1_555
Al5 O28 1.791558 1_555
Al5 O33 1.791558 1_555
Al6 O10 1.722608 1_555
Al6 O14 1.728050 1_555
Al6 O30 1.791558 1_554
Al6 O27 1.791558 1_555
Al7 O11 1.722608 1_555
Al7 O15 1.728050 1_555
Al7 O26 1.791558 1_555
Al7 O31 1.791558 1_554
O0 Si5 1.647243 1_555
O1 Si7 1.656497 1_556
O2 Si9 1.656497 1_555
O3 Si8 1.656497 1_555
O4 Si0 1.621838 1_555
O4 Si9 1.631768 1_565
O5 Si1 1.621838 1_555
O5 Si8 1.631768 1_545
O6 Si3 1.621838 1_555
O6 Si7 1.631768 1_655
O7 Si2 1.621838 1_555
O7 Si6 1.631768 1_455
O8 Si9 1.589876 1_555
O9 Si8 1.589876 1_555
O10 Si7 1.589876 1_555
O11 Si6 1.589876 1_555
O12 Si1 1.601609 1_455
O13 Si0 1.601609 1_655
O14 Si2 1.601609 1_545
O15 Si3 1.601609 1_565
O16 Si8 1.656497 1_555
O17 Si9 1.656497 1_555
O18 Si3 1.655700 1_555
O19 Si7 1.656497 1_555
O20 Si0 1.655700 1_555
O21 Si1 1.655700 1_555
O22 Si2 1.655700 1_556
O23 Si3 1.655700 1_556
O24 Si1 1.655700 1_555
O25 Si0 1.655700 1_555
O26 Si5 1.647243 1_555
O27 Si5 1.647243 1_555
O28 Si5 1.647243 1_555
O29 Si2 1.655700 1_555
O30 Si4 1.647243 1_555
O31 Si4 1.647243 1_555
O32 Si4 1.647243 1_555
O33 Si4 1.647243 1_555
O34 Si6 1.656497 1_555
O35 Si6 1.656497 1_556
