# generated using pymatgen
data_In4SbTe3
_symmetry_space_group_name_H-M   'P 1'
_cell_length_a   8.83811745
_cell_length_b   11.71277103
_cell_length_c   7.63835360
_cell_angle_alpha   29.26368435
_cell_angle_beta   54.69270184
_cell_angle_gamma   40.72265341
_symmetry_Int_Tables_number   1
_chemical_formula_structural   In4SbTe3
_chemical_formula_sum   'In4 Sb1 Te3'
_cell_volume   243.43614596
_cell_formula_units_Z   1
loop_
 _symmetry_equiv_pos_site_id
 _symmetry_equiv_pos_as_xyz
  1  'x, y, z'
loop_
 _atom_site_type_symbol
 _atom_site_label
 _atom_site_symmetry_multiplicity
 _atom_site_fract_x
 _atom_site_fract_y
 _atom_site_fract_z
 _atom_site_occupancy
  In  In0  1  0.99943300  0.00142900  0.00298700  1
  In  In1  1  0.50197400  0.99175100  0.01112500  1
  In  In2  1  0.25395000  0.49735800  0.00046300  1
  In  In3  1  0.74238000  0.50877400  0.99721100  1
  Sb  Sb0  1  0.50065900  0.49649200  0.50553900  1
  Te  Te0  1  0.24683900  0.00591400  0.49284600  1
  Te  Te1  1  0.74686100  0.00452500  0.49889900  1
  Te  Te2  1  0.00186500  0.50147500  0.49970400  1
loop_
_geom_bond_atom_site_label_1
_geom_bond_atom_site_label_2
_geom_bond_distance
_geom_bond_site_symmetry_2
In0 Sb0 3.109414 1_554
In0 Sb0 3.109848 1_645
In0 Te1 3.110580 1_555
In0 Te2 3.134584 1_645
In0 Te2 3.145393 1_654
In0 Te0 3.152112 1_654
In1 Te0 3.091682 1_565
In1 Te2 3.104002 1_655
In1 Te1 3.113821 1_564
In1 Te2 3.115894 1_564
In1 Sb0 3.121080 1_555
In1 Sb0 3.158806 1_564
In2 Te1 3.083009 1_555
In2 Sb0 3.090477 1_554
In2 Te0 3.128178 1_555
In2 Te1 3.136374 1_464
In2 Te2 3.137706 1_555
In2 Te0 3.152216 1_564
In3 Sb0 3.092512 1_556
In3 Te0 3.104503 1_565
In3 Te0 3.115086 1_656
In3 Te1 3.133445 1_565
In3 Te1 3.146601 1_556
In3 Te2 3.146987 1_655
