# generated using pymatgen
data_Ti2Se
_symmetry_space_group_name_H-M   'P 1'
_cell_length_a   3.44041957
_cell_length_b   11.73952271
_cell_length_c   14.50288962
_cell_angle_alpha   90.00000000
_cell_angle_beta   90.00000000
_cell_angle_gamma   90.00000000
_symmetry_Int_Tables_number   1
_chemical_formula_structural   Ti2Se
_chemical_formula_sum   'Ti24 Se12'
_cell_volume   585.75552180
_cell_formula_units_Z   12
loop_
 _symmetry_equiv_pos_site_id
 _symmetry_equiv_pos_as_xyz
  1  'x, y, z'
loop_
 _atom_site_type_symbol
 _atom_site_label
 _atom_site_symmetry_multiplicity
 _atom_site_fract_x
 _atom_site_fract_y
 _atom_site_fract_z
 _atom_site_occupancy
  Ti  Ti0  1  0.50000000  0.35541498  0.52073226  1
  Ti  Ti1  1  0.00000000  0.88588642  0.42590592  1
  Ti  Ti2  1  0.50000000  0.91336707  0.57646616  1
  Ti  Ti3  1  0.50000000  0.97119531  0.10860072  1
  Ti  Ti4  1  0.50000000  0.61411358  0.92590592  1
  Ti  Ti5  1  0.50000000  0.64458502  0.47926774  1
  Ti  Ti6  1  -0.00000000  0.47119531  0.39139928  1
  Ti  Ti7  1  0.50000000  0.38588642  0.07409408  1
  Ti  Ti8  1  0.00000000  0.18660270  0.79470317  1
  Ti  Ti9  1  -0.00000000  0.09256654  0.26178576  1
  Ti  Ti10  1  0.00000000  0.81339730  0.20529683  1
  Ti  Ti11  1  0.50000000  0.08663293  0.42353384  1
  Ti  Ti12  1  -0.00000000  0.85541498  0.97926774  1
  Ti  Ti13  1  0.00000000  0.52880469  0.60860072  1
  Ti  Ti14  1  0.50000000  0.02880469  0.89139928  1
  Ti  Ti15  1  -0.00000000  0.41336707  0.92353384  1
  Ti  Ti16  1  0.50000000  0.59256654  0.23821424  1
  Ti  Ti17  1  -0.00000000  0.58663293  0.07646616  1
  Ti  Ti18  1  -0.00000000  0.11411358  0.57409408  1
  Ti  Ti19  1  -0.00000000  0.14458502  0.02073226  1
  Ti  Ti20  1  0.50000000  0.31339730  0.29470317  1
  Ti  Ti21  1  0.50000000  0.40743346  0.76178576  1
  Ti  Ti22  1  0.00000000  0.90743346  0.73821424  1
  Ti  Ti23  1  0.50000000  0.68660270  0.70529683  1
  Se  Se0  1  -0.00000000  0.31217565  0.65018391  1
  Se  Se1  1  0.50000000  0.18782435  0.15018391  1
  Se  Se2  1  0.00000000  0.56661906  0.79422518  1
  Se  Se3  1  0.50000000  0.93338094  0.29422518  1
  Se  Se4  1  0.50000000  0.74557508  0.08623631  1
  Se  Se5  1  0.00000000  0.68782435  0.34981609  1
  Se  Se6  1  -0.00000000  0.43338094  0.20577482  1
  Se  Se7  1  -0.00000000  0.24557508  0.41376369  1
  Se  Se8  1  0.50000000  0.06661906  0.70577482  1
  Se  Se9  1  0.50000000  0.81217565  0.84981609  1
  Se  Se10  1  0.00000000  0.75442492  0.58623631  1
  Se  Se11  1  0.50000000  0.25442492  0.91376369  1
loop_
_geom_bond_atom_site_label_1
_geom_bond_atom_site_label_2
_geom_bond_distance
_geom_bond_site_symmetry_2
Se0 Ti8 2.562452 1_555
Se0 Ti18 2.573733 1_555
Se0 Ti0 2.596441 1_555
Se0 Ti0 2.596441 1_455
Se0 Ti21 2.613308 1_455
Se0 Ti21 2.613308 1_555
Se0 Ti13 2.613650 1_555
Se1 Ti20 2.562452 1_555
Se1 Ti7 2.573733 1_555
Se1 Ti19 2.596441 1_555
Se1 Ti19 2.596441 1_655
Se1 Ti9 2.613308 1_555
Se1 Ti9 2.613308 1_655
Se1 Ti3 2.613650 1_545
Se2 Ti23 2.570313 1_455
Se2 Ti23 2.570313 1_555
Se2 Ti21 2.583164 1_455
Se2 Ti21 2.583164 1_555
Se2 Ti15 2.598791 1_555
Se2 Ti4 2.630047 1_555
Se2 Ti4 2.630047 1_455
Se2 Ti13 2.728447 1_555
Se3 Ti10 2.570313 1_655
Se3 Ti10 2.570313 1_555
Se3 Ti9 2.583164 1_565
Se3 Ti9 2.583164 1_665
Se3 Ti11 2.598791 1_565
Se3 Ti1 2.630047 1_555
Se3 Ti1 2.630047 1_655
Se3 Ti3 2.728447 1_555
Se4 Ti17 2.541811 1_655
Se4 Ti17 2.541811 1_555
Se4 Ti10 2.564103 1_655
Se4 Ti10 2.564103 1_555
Se4 Ti12 2.651141 1_654
Se4 Ti12 2.651141 1_554
Se4 Ti3 2.668459 1_555
Se4 Ti4 2.790800 1_554
Se4 Ti16 2.843351 1_555
Se5 Ti10 2.562452 1_555
Se5 Ti1 2.573733 1_555
Se5 Ti5 2.596441 1_555
Se5 Ti5 2.596441 1_455
Se5 Ti16 2.613308 1_455
Se5 Ti16 2.613308 1_555
Se5 Ti6 2.613650 1_555
Se6 Ti20 2.570313 1_455
Se6 Ti20 2.570313 1_555
Se6 Ti16 2.583164 1_455
Se6 Ti16 2.583164 1_555
Se6 Ti17 2.598791 1_555
Se6 Ti7 2.630047 1_455
Se6 Ti7 2.630047 1_555
Se6 Ti6 2.728447 1_555
Se7 Ti11 2.541811 1_455
Se7 Ti11 2.541811 1_555
Se7 Ti20 2.564103 1_555
Se7 Ti20 2.564103 1_455
Se7 Ti0 2.651141 1_455
Se7 Ti0 2.651141 1_555
Se7 Ti6 2.668459 1_555
Se7 Ti18 2.790800 1_555
Se7 Ti9 2.843351 1_555
Se8 Ti8 2.570313 1_555
Se8 Ti8 2.570313 1_655
Se8 Ti22 2.583164 1_545
Se8 Ti22 2.583164 1_645
Se8 Ti2 2.598791 1_545
Se8 Ti18 2.630047 1_655
Se8 Ti18 2.630047 1_555
Se8 Ti14 2.728447 1_555
Se9 Ti23 2.562452 1_555
Se9 Ti4 2.573733 1_555
Se9 Ti12 2.596441 1_555
Se9 Ti12 2.596441 1_655
Se9 Ti22 2.613308 1_555
Se9 Ti22 2.613308 1_655
Se9 Ti14 2.613650 1_565
Se10 Ti2 2.541811 1_455
Se10 Ti2 2.541811 1_555
Se10 Ti23 2.564103 1_455
Se10 Ti23 2.564103 1_555
Se10 Ti5 2.651141 1_455
Se10 Ti5 2.651141 1_555
Se10 Ti13 2.668459 1_555
Se10 Ti1 2.790800 1_555
Se10 Ti22 2.843351 1_555
Se11 Ti15 2.541811 1_555
Se11 Ti15 2.541811 1_655
Se11 Ti8 2.564103 1_555
Se11 Ti8 2.564103 1_655
Se11 Ti19 2.651141 1_656
Se11 Ti19 2.651141 1_556
Se11 Ti14 2.668459 1_555
Se11 Ti7 2.790800 1_556
Se11 Ti21 2.843351 1_555
