# generated using pymatgen
data_Ti8Se3
_symmetry_space_group_name_H-M   'P 1'
_cell_length_a   12.88632102
_cell_length_b   12.88632102
_cell_length_c   19.74119005
_cell_angle_alpha   58.09792282
_cell_angle_beta   58.09792282
_cell_angle_gamma   15.34379246
_symmetry_Int_Tables_number   1
_chemical_formula_structural   Ti8Se3
_chemical_formula_sum   'Ti32 Se12'
_cell_volume   733.81901947
_cell_formula_units_Z   4
loop_
 _symmetry_equiv_pos_site_id
 _symmetry_equiv_pos_as_xyz
  1  'x, y, z'
loop_
 _atom_site_type_symbol
 _atom_site_label
 _atom_site_symmetry_multiplicity
 _atom_site_fract_x
 _atom_site_fract_y
 _atom_site_fract_z
 _atom_site_occupancy
  Ti  Ti0  1  0.92552500  0.92552500  0.56711200  1
  Ti  Ti1  1  0.29810600  0.29810600  0.46425700  1
  Ti  Ti2  1  0.83152100  0.83152100  0.34095500  1
  Ti  Ti3  1  0.20961100  0.20961100  0.86997900  1
  Ti  Ti4  1  0.70189400  0.70189400  0.53574300  1
  Ti  Ti5  1  0.26170000  0.26170000  0.04358700  1
  Ti  Ti6  1  0.93470200  0.93470200  0.05433800  1
  Ti  Ti7  1  0.48980800  0.48980800  0.91679300  1
  Ti  Ti8  1  0.77554500  0.77554500  0.60394900  1
  Ti  Ti9  1  0.09539300  0.09539300  0.58670100  1
  Ti  Ti10  1  0.48797600  0.48797600  0.42520800  1
  Ti  Ti11  1  0.16847900  0.16847900  0.65904500  1
  Ti  Ti12  1  0.07447500  0.07447500  0.43288800  1
  Ti  Ti13  1  0.73830000  0.73830000  0.95641300  1
  Ti  Ti14  1  0.51202400  0.51202400  0.57479200  1
  Ti  Ti15  1  0.65070500  0.65070500  0.80375400  1
  Ti  Ti16  1  0.34929500  0.34929500  0.19624600  1
  Ti  Ti17  1  0.66636200  0.66636200  0.15319600  1
  Ti  Ti18  1  0.56203500  0.56203500  0.71290800  1
  Ti  Ti19  1  0.79038900  0.79038900  0.13002100  1
  Ti  Ti20  1  0.33363800  0.33363800  0.84680400  1
  Ti  Ti21  1  0.51019200  0.51019200  0.08320700  1
  Ti  Ti22  1  0.87228400  0.87228400  0.93320000  1
  Ti  Ti23  1  0.43796400  0.43796400  0.28709200  1
  Ti  Ti24  1  0.04601900  0.04601900  0.28267400  1
  Ti  Ti25  1  0.12771600  0.12771600  0.06680000  1
  Ti  Ti26  1  0.80253100  0.80253100  0.75433000  1
  Ti  Ti27  1  0.19746900  0.19746900  0.24567000  1
  Ti  Ti28  1  0.95398100  0.95398100  0.71732600  1
  Ti  Ti29  1  0.90460700  0.90460700  0.41329900  1
  Ti  Ti30  1  0.06529800  0.06529800  0.94566200  1
  Ti  Ti31  1  0.22445500  0.22445500  0.39605100  1
  Se  Se0  1  0.75798200  0.75798200  0.28075100  1
  Se  Se1  1  0.39251500  0.39251500  0.68392900  1
  Se  Se2  1  0.36746000  0.36746000  0.53058500  1
  Se  Se3  1  0.63043700  0.63043700  0.96439300  1
  Se  Se4  1  0.07020100  0.07020100  0.80863700  1
  Se  Se5  1  0.36956300  0.36956300  0.03560700  1
  Se  Se6  1  0.44536700  0.44536700  0.82400400  1
  Se  Se7  1  0.60748500  0.60748500  0.31607100  1
  Se  Se8  1  0.55463300  0.55463300  0.17599600  1
  Se  Se9  1  0.92979900  0.92979900  0.19136300  1
  Se  Se10  1  0.24201800  0.24201800  0.71924900  1
  Se  Se11  1  0.63254000  0.63254000  0.46941500  1
loop_
_geom_bond_atom_site_label_1
_geom_bond_atom_site_label_2
_geom_bond_distance
_geom_bond_site_symmetry_2
Se0 Ti31 2.606718 1_565
Se0 Ti31 2.606718 1_655
Se0 Ti19 2.629168 1_555
Se0 Ti27 2.640008 1_565
Se0 Ti27 2.640008 1_655
Se0 Ti16 2.651919 1_655
Se0 Ti16 2.651919 1_565
Se0 Ti2 2.705820 1_555
Se1 Ti26 2.601329 1_545
Se1 Ti26 2.601329 1_455
Se1 Ti0 2.629618 1_455
Se1 Ti0 2.629618 1_545
Se1 Ti14 2.635477 1_555
Se1 Ti28 2.638722 1_455
Se1 Ti28 2.638722 1_545
Se1 Ti20 2.728213 1_555
Se2 Ti0 2.611434 1_455
Se2 Ti0 2.611434 1_545
Se2 Ti29 2.622552 1_455
Se2 Ti29 2.622552 1_545
Se2 Ti8 2.634865 1_455
Se2 Ti8 2.634865 1_545
Se2 Ti10 2.640770 1_555
Se2 Ti1 2.706698 1_555
Se3 Ti3 2.550136 1_655
Se3 Ti3 2.550136 1_565
Se3 Ti30 2.553532 1_565
Se3 Ti30 2.553532 1_655
Se3 Ti25 2.627074 1_656
Se3 Ti25 2.627074 1_566
Se3 Ti13 2.674349 1_555
Se3 Ti21 2.692878 1_556
Se3 Ti15 2.928090 1_555
Se4 Ti30 2.640384 1_555
Se4 Ti15 2.643009 1_545
Se4 Ti15 2.643009 1_455
Se4 Ti18 2.644760 1_455
Se4 Ti18 2.644760 1_545
Se4 Ti7 2.656873 1_455
Se4 Ti7 2.656873 1_545
Se4 Ti11 2.667637 1_555
Se5 Ti19 2.550136 1_545
Se5 Ti19 2.550136 1_455
Se5 Ti6 2.553532 1_545
Se5 Ti6 2.553532 1_455
Se5 Ti22 2.627074 1_454
Se5 Ti22 2.627074 1_544
Se5 Ti5 2.674349 1_555
Se5 Ti7 2.692878 1_554
Se5 Ti16 2.928090 1_555
Se6 Ti18 2.592289 1_555
Se6 Ti22 2.607571 1_545
Se6 Ti22 2.607571 1_455
Se6 Ti7 2.619414 1_555
Se6 Ti28 2.636058 1_545
Se6 Ti28 2.636058 1_455
Se6 Ti20 2.641353 1_555
Se7 Ti27 2.601329 1_655
Se7 Ti27 2.601329 1_565
Se7 Ti12 2.629618 1_565
Se7 Ti12 2.629618 1_655
Se7 Ti10 2.635477 1_555
Se7 Ti24 2.638722 1_655
Se7 Ti24 2.638722 1_565
Se7 Ti17 2.728213 1_555
Se8 Ti23 2.592307 1_555
Se8 Ti25 2.607571 1_565
Se8 Ti25 2.607571 1_655
Se8 Ti21 2.619414 1_555
Se8 Ti24 2.636058 1_655
Se8 Ti24 2.636058 1_565
Se8 Ti17 2.641353 1_555
Se9 Ti6 2.640384 1_555
Se9 Ti16 2.643009 1_565
Se9 Ti16 2.643009 1_655
Se9 Ti23 2.644748 1_565
Se9 Ti23 2.644748 1_655
Se9 Ti21 2.656873 1_565
Se9 Ti21 2.656873 1_655
Se9 Ti2 2.667637 1_555
Se10 Ti8 2.606718 1_455
Se10 Ti8 2.606718 1_545
Se10 Ti3 2.629168 1_555
Se10 Ti26 2.640008 1_545
Se10 Ti26 2.640008 1_455
Se10 Ti15 2.651919 1_455
Se10 Ti15 2.651919 1_545
Se10 Ti11 2.705820 1_555
Se11 Ti12 2.611434 1_565
Se11 Ti12 2.611434 1_655
Se11 Ti9 2.622552 1_565
Se11 Ti9 2.622552 1_655
Se11 Ti31 2.634865 1_655
Se11 Ti31 2.634865 1_565
Se11 Ti14 2.640770 1_555
Se11 Ti4 2.706698 1_555
