# generated using pymatgen
data_Sc5(In2Ni)2
_symmetry_space_group_name_H-M   'P 1'
_cell_length_a   7.21843000
_cell_length_b   16.01262400
_cell_length_c   37.34149800
_cell_angle_alpha   90.00000000
_cell_angle_beta   90.00000000
_cell_angle_gamma   90.00000000
_symmetry_Int_Tables_number   1
_chemical_formula_structural   Sc5(In2Ni)2
_chemical_formula_sum   'Sc80 In64 Ni32'
_cell_volume   4316.15459172
_cell_formula_units_Z   16
loop_
 _symmetry_equiv_pos_site_id
 _symmetry_equiv_pos_as_xyz
  1  'x, y, z'
loop_
 _atom_site_type_symbol
 _atom_site_label
 _atom_site_symmetry_multiplicity
 _atom_site_fract_x
 _atom_site_fract_y
 _atom_site_fract_z
 _atom_site_occupancy
  Sc  Sc0_0  1  0.25000000  0.05648750  0.45250650  1
  Sc  Sc0_1  1  0.25000000  0.05648750  0.95250650  1
  Sc  Sc0_2  1  0.25000000  0.55648750  0.45250650  1
  Sc  Sc0_3  1  0.25000000  0.55648750  0.95250650  1
  Sc  Sc0_4  1  0.75000000  0.05648750  0.45250650  1
  Sc  Sc0_5  1  0.75000000  0.05648750  0.95250650  1
  Sc  Sc0_6  1  0.75000000  0.55648750  0.45250650  1
  Sc  Sc0_7  1  0.75000000  0.55648750  0.95250650  1
  Sc  Sc1_0  1  0.25000000  0.30648750  0.29749350  1
  Sc  Sc1_1  1  0.25000000  0.30648750  0.79749350  1
  Sc  Sc1_2  1  0.25000000  0.80648750  0.29749350  1
  Sc  Sc1_3  1  0.25000000  0.80648750  0.79749350  1
  Sc  Sc1_4  1  0.75000000  0.30648750  0.29749350  1
  Sc  Sc1_5  1  0.75000000  0.30648750  0.79749350  1
  Sc  Sc1_6  1  0.75000000  0.80648750  0.29749350  1
  Sc  Sc1_7  1  0.75000000  0.80648750  0.79749350  1
  Sc  Sc2_0  1  0.25000000  0.19351250  0.20250650  1
  Sc  Sc2_1  1  0.25000000  0.19351250  0.70250650  1
  Sc  Sc2_2  1  0.25000000  0.69351250  0.20250650  1
  Sc  Sc2_3  1  0.25000000  0.69351250  0.70250650  1
  Sc  Sc2_4  1  0.75000000  0.19351250  0.20250650  1
  Sc  Sc2_5  1  0.75000000  0.19351250  0.70250650  1
  Sc  Sc2_6  1  0.75000000  0.69351250  0.20250650  1
  Sc  Sc2_7  1  0.75000000  0.69351250  0.70250650  1
  Sc  Sc3_0  1  0.25000000  0.44351250  0.04749350  1
  Sc  Sc3_1  1  0.25000000  0.44351250  0.54749350  1
  Sc  Sc3_2  1  0.25000000  0.94351250  0.04749350  1
  Sc  Sc3_3  1  0.25000000  0.94351250  0.54749350  1
  Sc  Sc3_4  1  0.75000000  0.44351250  0.04749350  1
  Sc  Sc3_5  1  0.75000000  0.44351250  0.54749350  1
  Sc  Sc3_6  1  0.75000000  0.94351250  0.04749350  1
  Sc  Sc3_7  1  0.75000000  0.94351250  0.54749350  1
  Sc  Sc4_0  1  0.25000000  0.00000000  0.25000000  1
  Sc  Sc4_1  1  0.25000000  0.00000000  0.75000000  1
  Sc  Sc4_2  1  0.25000000  0.50000000  0.25000000  1
  Sc  Sc4_3  1  0.25000000  0.50000000  0.75000000  1
  Sc  Sc4_4  1  0.75000000  0.00000000  0.25000000  1
  Sc  Sc4_5  1  0.75000000  0.00000000  0.75000000  1
  Sc  Sc4_6  1  0.75000000  0.50000000  0.25000000  1
  Sc  Sc4_7  1  0.75000000  0.50000000  0.75000000  1
  Sc  Sc5_0  1  0.25000000  0.37978100  0.38846200  1
  Sc  Sc5_1  1  0.25000000  0.37978100  0.88846200  1
  Sc  Sc5_2  1  0.25000000  0.87978100  0.38846200  1
  Sc  Sc5_3  1  0.25000000  0.87978100  0.88846200  1
  Sc  Sc5_4  1  0.75000000  0.37978100  0.38846200  1
  Sc  Sc5_5  1  0.75000000  0.37978100  0.88846200  1
  Sc  Sc5_6  1  0.75000000  0.87978100  0.38846200  1
  Sc  Sc5_7  1  0.75000000  0.87978100  0.88846200  1
  Sc  Sc6_0  1  0.25000000  0.37021900  0.13846200  1
  Sc  Sc6_1  1  0.25000000  0.37021900  0.63846200  1
  Sc  Sc6_2  1  0.25000000  0.87021900  0.13846200  1
  Sc  Sc6_3  1  0.25000000  0.87021900  0.63846200  1
  Sc  Sc6_4  1  0.75000000  0.37021900  0.13846200  1
  Sc  Sc6_5  1  0.75000000  0.37021900  0.63846200  1
  Sc  Sc6_6  1  0.75000000  0.87021900  0.13846200  1
  Sc  Sc6_7  1  0.75000000  0.87021900  0.63846200  1
  Sc  Sc7_0  1  0.25000000  0.12978100  0.36153800  1
  Sc  Sc7_1  1  0.25000000  0.12978100  0.86153800  1
  Sc  Sc7_2  1  0.25000000  0.62978100  0.36153800  1
  Sc  Sc7_3  1  0.25000000  0.62978100  0.86153800  1
  Sc  Sc7_4  1  0.75000000  0.12978100  0.36153800  1
  Sc  Sc7_5  1  0.75000000  0.12978100  0.86153800  1
  Sc  Sc7_6  1  0.75000000  0.62978100  0.36153800  1
  Sc  Sc7_7  1  0.75000000  0.62978100  0.86153800  1
  Sc  Sc8_0  1  0.25000000  0.25000000  0.00000000  1
  Sc  Sc8_1  1  0.25000000  0.25000000  0.50000000  1
  Sc  Sc8_2  1  0.25000000  0.75000000  0.00000000  1
  Sc  Sc8_3  1  0.25000000  0.75000000  0.50000000  1
  Sc  Sc8_4  1  0.75000000  0.25000000  0.00000000  1
  Sc  Sc8_5  1  0.75000000  0.25000000  0.50000000  1
  Sc  Sc8_6  1  0.75000000  0.75000000  0.00000000  1
  Sc  Sc8_7  1  0.75000000  0.75000000  0.50000000  1
  Sc  Sc9_0  1  0.25000000  0.12021900  0.11153800  1
  Sc  Sc9_1  1  0.25000000  0.12021900  0.61153800  1
  Sc  Sc9_2  1  0.25000000  0.62021900  0.11153800  1
  Sc  Sc9_3  1  0.25000000  0.62021900  0.61153800  1
  Sc  Sc9_4  1  0.75000000  0.12021900  0.11153800  1
  Sc  Sc9_5  1  0.75000000  0.12021900  0.61153800  1
  Sc  Sc9_6  1  0.75000000  0.62021900  0.11153800  1
  Sc  Sc9_7  1  0.75000000  0.62021900  0.61153800  1
  In  In0_0  1  0.00000000  0.09792250  0.03470400  1
  In  In0_1  1  0.00000000  0.09792250  0.53470400  1
  In  In0_2  1  0.00000000  0.59792250  0.03470400  1
  In  In0_3  1  0.00000000  0.59792250  0.53470400  1
  In  In0_4  1  0.50000000  0.09792250  0.03470400  1
  In  In0_5  1  0.50000000  0.09792250  0.53470400  1
  In  In0_6  1  0.50000000  0.59792250  0.03470400  1
  In  In0_7  1  0.50000000  0.59792250  0.53470400  1
  In  In1_0  1  0.00000000  0.34792250  0.21529600  1
  In  In1_1  1  0.00000000  0.34792250  0.71529600  1
  In  In1_2  1  0.00000000  0.84792250  0.21529600  1
  In  In1_3  1  0.00000000  0.84792250  0.71529600  1
  In  In1_4  1  0.50000000  0.34792250  0.21529600  1
  In  In1_5  1  0.50000000  0.34792250  0.71529600  1
  In  In1_6  1  0.50000000  0.84792250  0.21529600  1
  In  In1_7  1  0.50000000  0.84792250  0.71529600  1
  In  In2_0  1  0.00000000  0.46411500  0.32799900  1
  In  In2_1  1  0.00000000  0.46411500  0.82799900  1
  In  In2_2  1  0.00000000  0.96411500  0.32799900  1
  In  In2_3  1  0.00000000  0.96411500  0.82799900  1
  In  In2_4  1  0.50000000  0.46411500  0.32799900  1
  In  In2_5  1  0.50000000  0.46411500  0.82799900  1
  In  In2_6  1  0.50000000  0.96411500  0.32799900  1
  In  In2_7  1  0.50000000  0.96411500  0.82799900  1
  In  In3_0  1  0.00000000  0.03588500  0.17200100  1
  In  In3_1  1  0.00000000  0.03588500  0.67200100  1
  In  In3_2  1  0.00000000  0.53588500  0.17200100  1
  In  In3_3  1  0.00000000  0.53588500  0.67200100  1
  In  In3_4  1  0.50000000  0.03588500  0.17200100  1
  In  In3_5  1  0.50000000  0.03588500  0.67200100  1
  In  In3_6  1  0.50000000  0.53588500  0.17200100  1
  In  In3_7  1  0.50000000  0.53588500  0.67200100  1
  In  In4_0  1  0.00000000  0.15207750  0.28470400  1
  In  In4_1  1  0.00000000  0.15207750  0.78470400  1
  In  In4_2  1  0.00000000  0.65207750  0.28470400  1
  In  In4_3  1  0.00000000  0.65207750  0.78470400  1
  In  In4_4  1  0.50000000  0.15207750  0.28470400  1
  In  In4_5  1  0.50000000  0.15207750  0.78470400  1
  In  In4_6  1  0.50000000  0.65207750  0.28470400  1
  In  In4_7  1  0.50000000  0.65207750  0.78470400  1
  In  In5_0  1  0.00000000  0.21411500  0.42200100  1
  In  In5_1  1  0.00000000  0.21411500  0.92200100  1
  In  In5_2  1  0.00000000  0.71411500  0.42200100  1
  In  In5_3  1  0.00000000  0.71411500  0.92200100  1
  In  In5_4  1  0.50000000  0.21411500  0.42200100  1
  In  In5_5  1  0.50000000  0.21411500  0.92200100  1
  In  In5_6  1  0.50000000  0.71411500  0.42200100  1
  In  In5_7  1  0.50000000  0.71411500  0.92200100  1
  In  In6_0  1  0.00000000  0.28588500  0.07799900  1
  In  In6_1  1  0.00000000  0.28588500  0.57799900  1
  In  In6_2  1  0.00000000  0.78588500  0.07799900  1
  In  In6_3  1  0.00000000  0.78588500  0.57799900  1
  In  In6_4  1  0.50000000  0.28588500  0.07799900  1
  In  In6_5  1  0.50000000  0.28588500  0.57799900  1
  In  In6_6  1  0.50000000  0.78588500  0.07799900  1
  In  In6_7  1  0.50000000  0.78588500  0.57799900  1
  In  In7_0  1  0.00000000  0.40207750  0.46529600  1
  In  In7_1  1  0.00000000  0.40207750  0.96529600  1
  In  In7_2  1  0.00000000  0.90207750  0.46529600  1
  In  In7_3  1  0.00000000  0.90207750  0.96529600  1
  In  In7_4  1  0.50000000  0.40207750  0.46529600  1
  In  In7_5  1  0.50000000  0.40207750  0.96529600  1
  In  In7_6  1  0.50000000  0.90207750  0.46529600  1
  In  In7_7  1  0.50000000  0.90207750  0.96529600  1
  Ni  Ni0_0  1  0.00000000  0.23287050  0.15324750  1
  Ni  Ni0_1  1  0.00000000  0.23287050  0.65324750  1
  Ni  Ni0_2  1  0.00000000  0.73287050  0.15324750  1
  Ni  Ni0_3  1  0.00000000  0.73287050  0.65324750  1
  Ni  Ni0_4  1  0.50000000  0.23287050  0.15324750  1
  Ni  Ni0_5  1  0.50000000  0.23287050  0.65324750  1
  Ni  Ni0_6  1  0.50000000  0.73287050  0.15324750  1
  Ni  Ni0_7  1  0.50000000  0.73287050  0.65324750  1
  Ni  Ni1_0  1  0.00000000  0.26712950  0.34675250  1
  Ni  Ni1_1  1  0.00000000  0.26712950  0.84675250  1
  Ni  Ni1_2  1  0.00000000  0.76712950  0.34675250  1
  Ni  Ni1_3  1  0.00000000  0.76712950  0.84675250  1
  Ni  Ni1_4  1  0.50000000  0.26712950  0.34675250  1
  Ni  Ni1_5  1  0.50000000  0.26712950  0.84675250  1
  Ni  Ni1_6  1  0.50000000  0.76712950  0.34675250  1
  Ni  Ni1_7  1  0.50000000  0.76712950  0.84675250  1
  Ni  Ni2_0  1  0.00000000  0.01712950  0.40324750  1
  Ni  Ni2_1  1  0.00000000  0.01712950  0.90324750  1
  Ni  Ni2_2  1  0.00000000  0.51712950  0.40324750  1
  Ni  Ni2_3  1  0.00000000  0.51712950  0.90324750  1
  Ni  Ni2_4  1  0.50000000  0.01712950  0.40324750  1
  Ni  Ni2_5  1  0.50000000  0.01712950  0.90324750  1
  Ni  Ni2_6  1  0.50000000  0.51712950  0.40324750  1
  Ni  Ni2_7  1  0.50000000  0.51712950  0.90324750  1
  Ni  Ni3_0  1  0.00000000  0.48287050  0.09675250  1
  Ni  Ni3_1  1  0.00000000  0.48287050  0.59675250  1
  Ni  Ni3_2  1  0.00000000  0.98287050  0.09675250  1
  Ni  Ni3_3  1  0.00000000  0.98287050  0.59675250  1
  Ni  Ni3_4  1  0.50000000  0.48287050  0.09675250  1
  Ni  Ni3_5  1  0.50000000  0.48287050  0.59675250  1
  Ni  Ni3_6  1  0.50000000  0.98287050  0.09675250  1
  Ni  Ni3_7  1  0.50000000  0.98287050  0.59675250  1
loop_
_geom_bond_atom_site_label_1
_geom_bond_atom_site_label_2
_geom_bond_distance
_geom_bond_site_symmetry_2
Sc0_0 Sc8_1 3.570268 1_555
Sc0_1 Sc8_0 3.570268 1_556
Sc0_2 Sc8_3 3.570268 1_555
Sc0_3 Sc8_2 3.570268 1_556
Sc0_4 Sc8_5 3.570268 1_555
Sc0_5 Sc8_4 3.570268 1_556
Sc0_6 Sc8_7 3.570268 1_555
Sc0_7 Sc8_6 3.570268 1_556
Sc1_0 Sc4_2 3.570268 1_555
Sc1_1 Sc4_3 3.570268 1_555
Sc1_2 Sc4_0 3.570268 1_565
Sc1_3 Sc4_1 3.570268 1_565
Sc1_4 Sc4_6 3.570268 1_555
Sc1_5 Sc4_7 3.570268 1_555
Sc1_6 Sc4_4 3.570268 1_565
Sc1_7 Sc4_5 3.570268 1_565
Sc2_0 Sc4_0 3.570268 1_555
Sc2_1 Sc4_1 3.570268 1_555
Sc2_2 Sc4_2 3.570268 1_555
Sc2_3 Sc4_3 3.570268 1_555
Sc2_4 Sc4_4 3.570268 1_555
Sc2_5 Sc4_5 3.570268 1_555
Sc2_6 Sc4_6 3.570268 1_555
Sc2_7 Sc4_7 3.570268 1_555
Sc3_0 Sc8_0 3.570268 1_555
Sc3_1 Sc8_1 3.570268 1_555
Sc3_2 Sc8_2 3.570268 1_555
Sc3_3 Sc8_3 3.570268 1_555
Sc3_4 Sc8_4 3.570268 1_555
Sc3_5 Sc8_5 3.570268 1_555
Sc3_6 Sc8_6 3.570268 1_555
Sc3_7 Sc8_7 3.570268 1_555
Sc4_0 Sc4_4 3.609215 1_455
Sc4_0 Sc4_4 3.609215 1_555
Sc4_1 Sc4_5 3.609215 1_455
Sc4_1 Sc4_5 3.609215 1_555
Sc4_2 Sc4_6 3.609215 1_555
Sc4_2 Sc4_6 3.609215 1_455
Sc4_3 Sc4_7 3.609215 1_555
Sc4_3 Sc4_7 3.609215 1_455
Sc8_0 Sc8_4 3.609215 1_555
Sc8_0 Sc8_4 3.609215 1_455
Sc8_1 Sc8_5 3.609215 1_455
Sc8_1 Sc8_5 3.609215 1_555
Sc8_2 Sc8_6 3.609215 1_555
Sc8_2 Sc8_6 3.609215 1_455
Sc8_3 Sc8_7 3.609215 1_455
Sc8_3 Sc8_7 3.609215 1_555
In0_0 Ni3_2 2.960140 1_545
In0_0 Sc3_2 3.098063 1_545
In0_0 Sc3_6 3.098063 1_445
In0_0 Sc8_4 3.296357 1_455
In0_0 Sc8_0 3.296357 1_555
In0_0 Sc9_4 3.408195 1_455
In0_0 Sc9_0 3.408195 1_555
In0_0 In6_0 3.416497 1_555
In0_0 Sc0_5 3.621864 1_454
In0_0 Sc0_1 3.621864 1_554
In0_1 Ni3_3 2.960140 1_545
In0_1 Sc3_3 3.098063 1_545
In0_1 Sc3_7 3.098063 1_445
In0_1 Sc8_1 3.296357 1_555
In0_1 Sc8_5 3.296357 1_455
In0_1 Sc9_1 3.408195 1_555
In0_1 Sc9_5 3.408195 1_455
In0_1 In6_1 3.416497 1_555
In0_1 Sc0_4 3.621864 1_455
In0_1 Sc0_0 3.621864 1_555
In0_2 Ni3_0 2.960140 1_555
In0_2 Sc3_4 3.098063 1_455
In0_2 Sc3_0 3.098063 1_555
In0_2 Sc8_2 3.296357 1_555
In0_2 Sc8_6 3.296357 1_455
In0_2 Sc9_6 3.408195 1_455
In0_2 Sc9_2 3.408195 1_555
In0_2 In6_2 3.416497 1_555
In0_2 Sc0_3 3.621864 1_554
In0_2 Sc0_7 3.621864 1_454
In0_3 Ni3_1 2.960140 1_555
In0_3 Sc3_1 3.098063 1_555
In0_3 Sc3_5 3.098063 1_455
In0_3 Sc8_7 3.296357 1_455
In0_3 Sc8_3 3.296357 1_555
In0_3 Sc9_7 3.408195 1_455
In0_3 Sc9_3 3.408195 1_555
In0_3 In6_3 3.416497 1_555
In0_3 Sc0_2 3.621864 1_555
In0_3 Sc0_6 3.621864 1_455
In0_4 Ni3_6 2.960140 1_545
In0_4 Sc3_6 3.098063 1_545
In0_4 Sc3_2 3.098063 1_545
In0_4 Sc8_0 3.296357 1_555
In0_4 Sc8_4 3.296357 1_555
In0_4 Sc9_4 3.408195 1_555
In0_4 Sc9_0 3.408195 1_555
In0_4 In6_4 3.416497 1_555
In0_4 Sc0_5 3.621864 1_554
In0_4 Sc0_1 3.621864 1_554
In0_5 Ni3_7 2.960140 1_545
In0_5 Sc3_3 3.098063 1_545
In0_5 Sc3_7 3.098063 1_545
In0_5 Sc8_1 3.296357 1_555
In0_5 Sc8_5 3.296357 1_555
In0_5 Sc9_1 3.408195 1_555
In0_5 Sc9_5 3.408195 1_555
In0_5 In6_5 3.416497 1_555
In0_5 Sc0_0 3.621864 1_555
In0_5 Sc0_4 3.621864 1_555
In0_6 Ni3_4 2.960140 1_555
In0_6 Sc3_0 3.098063 1_555
In0_6 Sc3_4 3.098063 1_555
In0_6 Sc8_2 3.296357 1_555
In0_6 Sc8_6 3.296357 1_555
In0_6 Sc9_6 3.408195 1_555
In0_6 Sc9_2 3.408195 1_555
In0_6 In6_6 3.416497 1_555
In0_6 Sc0_3 3.621864 1_554
In0_6 Sc0_7 3.621864 1_554
In0_7 Ni3_5 2.960140 1_555
In0_7 Sc3_1 3.098063 1_555
In0_7 Sc3_5 3.098063 1_555
In0_7 Sc8_7 3.296357 1_555
In0_7 Sc8_3 3.296357 1_555
In0_7 Sc9_3 3.408195 1_555
In0_7 Sc9_7 3.408195 1_555
In0_7 In6_7 3.416497 1_555
In0_7 Sc0_2 3.621864 1_555
In0_7 Sc0_6 3.621864 1_555
In1_0 Ni0_0 2.960140 1_555
In1_0 Sc2_4 3.098063 1_455
In1_0 Sc2_0 3.098063 1_555
In1_0 Sc4_2 3.296357 1_555
In1_0 Sc4_6 3.296357 1_455
In1_0 Sc6_4 3.408195 1_455
In1_0 Sc6_0 3.408195 1_555
In1_0 In3_2 3.416497 1_555
In1_0 Sc1_0 3.621864 1_555
In1_0 Sc1_4 3.621864 1_455
In1_1 Ni0_1 2.960140 1_555
In1_1 Sc2_1 3.098063 1_555
In1_1 Sc2_5 3.098063 1_455
In1_1 Sc4_7 3.296357 1_455
In1_1 Sc4_3 3.296357 1_555
In1_1 Sc6_1 3.408195 1_555
In1_1 Sc6_5 3.408195 1_455
In1_1 In3_3 3.416497 1_555
In1_1 Sc1_1 3.621864 1_555
In1_1 Sc1_5 3.621864 1_455
In1_2 Ni0_2 2.960140 1_555
In1_2 Sc2_2 3.098063 1_555
In1_2 Sc2_6 3.098063 1_455
In1_2 Sc4_0 3.296357 1_565
In1_2 Sc4_4 3.296357 1_465
In1_2 Sc6_6 3.408195 1_455
In1_2 Sc6_2 3.408195 1_555
In1_2 In3_0 3.416497 1_565
In1_2 Sc1_6 3.621864 1_455
In1_2 Sc1_2 3.621864 1_555
In1_3 Ni0_3 2.960140 1_555
In1_3 Sc2_3 3.098063 1_555
In1_3 Sc2_7 3.098063 1_455
In1_3 Sc4_1 3.296357 1_565
In1_3 Sc4_5 3.296357 1_465
In1_3 Sc6_3 3.408195 1_555
In1_3 Sc6_7 3.408195 1_455
In1_3 In3_1 3.416497 1_565
In1_3 Sc1_7 3.621864 1_455
In1_3 Sc1_3 3.621864 1_555
In1_4 Ni0_4 2.960140 1_555
In1_4 Sc2_0 3.098063 1_555
In1_4 Sc2_4 3.098063 1_555
In1_4 Sc4_2 3.296357 1_555
In1_4 Sc4_6 3.296357 1_555
In1_4 Sc6_0 3.408195 1_555
In1_4 Sc6_4 3.408195 1_555
In1_4 In3_6 3.416497 1_555
In1_4 Sc1_0 3.621864 1_555
In1_4 Sc1_4 3.621864 1_555
In1_5 Ni0_5 2.960140 1_555
In1_5 Sc2_1 3.098063 1_555
In1_5 Sc2_5 3.098063 1_555
In1_5 Sc4_7 3.296357 1_555
In1_5 Sc4_3 3.296357 1_555
In1_5 Sc6_5 3.408195 1_555
In1_5 Sc6_1 3.408195 1_555
In1_5 In3_7 3.416497 1_555
In1_5 Sc1_5 3.621864 1_555
In1_5 Sc1_1 3.621864 1_555
In1_6 Ni0_6 2.960140 1_555
In1_6 Sc2_2 3.098063 1_555
In1_6 Sc2_6 3.098063 1_555
In1_6 Sc4_0 3.296357 1_565
In1_6 Sc4_4 3.296357 1_565
In1_6 Sc6_6 3.408195 1_555
In1_6 Sc6_2 3.408195 1_555
In1_6 In3_4 3.416497 1_565
In1_6 Sc1_2 3.621864 1_555
In1_6 Sc1_6 3.621864 1_555
In1_7 Ni0_7 2.960140 1_555
In1_7 Sc2_3 3.098063 1_555
In1_7 Sc2_7 3.098063 1_555
In1_7 Sc4_1 3.296357 1_565
In1_7 Sc4_5 3.296357 1_565
In1_7 Sc6_3 3.408195 1_555
In1_7 Sc6_7 3.408195 1_555
In1_7 In3_5 3.416497 1_565
In1_7 Sc1_3 3.621864 1_555
In1_7 Sc1_7 3.621864 1_555
In2_0 Ni2_2 2.935324 1_555
In2_0 Sc5_4 3.190263 1_455
In2_0 Sc5_0 3.190263 1_555
In2_0 Ni1_0 3.231056 1_555
In2_0 Sc1_0 3.305288 1_555
In2_0 Sc1_4 3.305288 1_455
In2_0 In4_2 3.416497 1_555
In2_0 Sc7_2 3.444151 1_555
In2_0 Sc7_6 3.444151 1_455
In2_0 Sc4_2 3.474194 1_555
In2_0 Sc4_6 3.474194 1_455
In2_1 Ni2_3 2.935324 1_555
In2_1 Sc5_1 3.190263 1_555
In2_1 Sc5_5 3.190263 1_455
In2_1 Ni1_1 3.231056 1_555
In2_1 Sc1_1 3.305288 1_555
In2_1 Sc1_5 3.305288 1_455
In2_1 In4_3 3.416497 1_555
In2_1 Sc7_3 3.444151 1_555
In2_1 Sc7_7 3.444151 1_455
In2_1 Sc4_3 3.474194 1_555
In2_1 Sc4_7 3.474194 1_455
In2_2 Ni2_0 2.935324 1_565
In2_2 Sc5_2 3.190263 1_555
In2_2 Sc5_6 3.190263 1_455
In2_2 Ni1_2 3.231056 1_555
In2_2 Sc1_6 3.305288 1_455
In2_2 Sc1_2 3.305288 1_555
In2_2 In4_0 3.416497 1_565
In2_2 Sc7_4 3.444151 1_465
In2_2 Sc7_0 3.444151 1_565
In2_2 Sc4_4 3.474194 1_465
In2_2 Sc4_0 3.474194 1_565
In2_3 Ni2_1 2.935324 1_565
In2_3 Sc5_7 3.190263 1_455
In2_3 Sc5_3 3.190263 1_555
In2_3 Ni1_3 3.231056 1_555
In2_3 Sc1_7 3.305288 1_455
In2_3 Sc1_3 3.305288 1_555
In2_3 In4_1 3.416497 1_565
In2_3 Sc7_5 3.444151 1_465
In2_3 Sc7_1 3.444151 1_565
In2_3 Sc4_1 3.474194 1_565
In2_3 Sc4_5 3.474194 1_465
In2_4 Ni2_6 2.935324 1_555
In2_4 Sc5_4 3.190263 1_555
In2_4 Sc5_0 3.190263 1_555
In2_4 Ni1_4 3.231056 1_555
In2_4 Sc1_0 3.305288 1_555
In2_4 Sc1_4 3.305288 1_555
In2_4 In4_6 3.416497 1_555
In2_4 Sc7_2 3.444151 1_555
In2_4 Sc7_6 3.444151 1_555
In2_4 Sc4_2 3.474194 1_555
In2_4 Sc4_6 3.474194 1_555
In2_5 Ni2_7 2.935324 1_555
In2_5 Sc5_5 3.190263 1_555
In2_5 Sc5_1 3.190263 1_555
In2_5 Ni1_5 3.231056 1_555
In2_5 Sc1_5 3.305288 1_555
In2_5 Sc1_1 3.305288 1_555
In2_5 In4_7 3.416497 1_555
In2_5 Sc7_3 3.444151 1_555
In2_5 Sc7_7 3.444151 1_555
In2_5 Sc4_7 3.474194 1_555
In2_5 Sc4_3 3.474194 1_555
In2_6 Ni2_4 2.935324 1_565
In2_6 Sc5_6 3.190263 1_555
In2_6 Sc5_2 3.190263 1_555
In2_6 Ni1_6 3.231056 1_555
In2_6 Sc1_6 3.305288 1_555
In2_6 Sc1_2 3.305288 1_555
In2_6 In4_4 3.416497 1_565
In2_6 Sc7_4 3.444151 1_565
In2_6 Sc7_0 3.444151 1_565
In2_6 Sc4_4 3.474194 1_565
In2_6 Sc4_0 3.474194 1_565
In2_7 Ni2_5 2.935324 1_565
In2_7 Sc5_7 3.190263 1_555
In2_7 Sc5_3 3.190263 1_555
In2_7 Ni1_7 3.231056 1_555
In2_7 Sc1_7 3.305288 1_555
In2_7 Sc1_3 3.305288 1_555
In2_7 In4_5 3.416497 1_565
In2_7 Sc7_5 3.444151 1_565
In2_7 Sc7_1 3.444151 1_565
In2_7 Sc4_1 3.474194 1_565
In2_7 Sc4_5 3.474194 1_565
In3_0 Ni3_2 2.935324 1_545
In3_0 Sc9_4 3.190263 1_455
In3_0 Sc9_0 3.190263 1_555
In3_0 Ni0_0 3.231056 1_555
In3_0 Sc2_0 3.305288 1_555
In3_0 Sc2_4 3.305288 1_455
In3_0 Sc6_2 3.444151 1_545
In3_0 Sc6_6 3.444151 1_445
In3_0 Sc4_0 3.474194 1_555
In3_0 Sc4_4 3.474194 1_455
In3_1 Ni3_3 2.935324 1_545
In3_1 Sc9_5 3.190263 1_455
In3_1 Sc9_1 3.190263 1_555
In3_1 Ni0_1 3.231056 1_555
In3_1 Sc2_5 3.305288 1_455
In3_1 Sc2_1 3.305288 1_555
In3_1 Sc6_7 3.444151 1_445
In3_1 Sc6_3 3.444151 1_545
In3_1 Sc4_1 3.474194 1_555
In3_1 Sc4_5 3.474194 1_455
In3_2 Ni3_0 2.935324 1_555
In3_2 Sc9_2 3.190263 1_555
In3_2 Sc9_6 3.190263 1_455
In3_2 Ni0_2 3.231056 1_555
In3_2 Sc2_2 3.305288 1_555
In3_2 Sc2_6 3.305288 1_455
In3_2 Sc6_4 3.444151 1_455
In3_2 Sc6_0 3.444151 1_555
In3_2 Sc4_6 3.474194 1_455
In3_2 Sc4_2 3.474194 1_555
In3_3 Ni3_1 2.935324 1_555
In3_3 Sc9_7 3.190263 1_455
In3_3 Sc9_3 3.190263 1_555
In3_3 Ni0_3 3.231056 1_555
In3_3 Sc2_3 3.305288 1_555
In3_3 Sc2_7 3.305288 1_455
In3_3 Sc6_1 3.444151 1_555
In3_3 Sc6_5 3.444151 1_455
In3_3 Sc4_7 3.474194 1_455
In3_3 Sc4_3 3.474194 1_555
In3_4 Ni3_6 2.935324 1_545
In3_4 Sc9_0 3.190263 1_555
In3_4 Sc9_4 3.190263 1_555
In3_4 Ni0_4 3.231056 1_555
In3_4 Sc2_0 3.305288 1_555
In3_4 Sc2_4 3.305288 1_555
In3_4 Sc6_2 3.444151 1_545
In3_4 Sc6_6 3.444151 1_545
In3_4 Sc4_0 3.474194 1_555
In3_4 Sc4_4 3.474194 1_555
In3_5 Ni3_7 2.935324 1_545
In3_5 Sc9_1 3.190263 1_555
In3_5 Sc9_5 3.190263 1_555
In3_5 Ni0_5 3.231056 1_555
In3_5 Sc2_1 3.305288 1_555
In3_5 Sc2_5 3.305288 1_555
In3_5 Sc6_7 3.444151 1_545
In3_5 Sc6_3 3.444151 1_545
In3_5 Sc4_1 3.474194 1_555
In3_5 Sc4_5 3.474194 1_555
In3_6 Ni3_4 2.935324 1_555
In3_6 Sc9_2 3.190263 1_555
In3_6 Sc9_6 3.190263 1_555
In3_6 Ni0_6 3.231056 1_555
In3_6 Sc2_6 3.305288 1_555
In3_6 Sc2_2 3.305288 1_555
In3_6 Sc6_4 3.444151 1_555
In3_6 Sc6_0 3.444151 1_555
In3_6 Sc4_6 3.474194 1_555
In3_6 Sc4_2 3.474194 1_555
In3_7 Ni3_5 2.935324 1_555
In3_7 Sc9_3 3.190263 1_555
In3_7 Sc9_7 3.190263 1_555
In3_7 Ni0_7 3.231056 1_555
In3_7 Sc2_7 3.305288 1_555
In3_7 Sc2_3 3.305288 1_555
In3_7 Sc6_5 3.444151 1_555
In3_7 Sc6_1 3.444151 1_555
In3_7 Sc4_3 3.474194 1_555
In3_7 Sc4_7 3.474194 1_555
In4_0 Ni1_0 2.960140 1_555
In4_0 Sc1_0 3.098063 1_555
In4_0 Sc1_4 3.098063 1_455
In4_0 Sc4_0 3.296357 1_555
In4_0 Sc4_4 3.296357 1_455
In4_0 Sc7_0 3.408195 1_555
In4_0 Sc7_4 3.408195 1_455
In4_0 Sc2_4 3.621864 1_455
In4_0 Sc2_0 3.621864 1_555
In4_1 Ni1_1 2.960140 1_555
In4_1 Sc1_1 3.098063 1_555
In4_1 Sc1_5 3.098063 1_455
In4_1 Sc4_1 3.296357 1_555
In4_1 Sc4_5 3.296357 1_455
In4_1 Sc7_1 3.408195 1_555
In4_1 Sc7_5 3.408195 1_455
In4_1 Sc2_1 3.621864 1_555
In4_1 Sc2_5 3.621864 1_455
In4_2 Ni1_2 2.960140 1_555
In4_2 Sc1_6 3.098063 1_455
In4_2 Sc1_2 3.098063 1_555
In4_2 Sc4_2 3.296357 1_555
In4_2 Sc4_6 3.296357 1_455
In4_2 Sc7_2 3.408195 1_555
In4_2 Sc7_6 3.408195 1_455
In4_2 Sc2_6 3.621864 1_455
In4_2 Sc2_2 3.621864 1_555
In4_3 Ni1_3 2.960140 1_555
In4_3 Sc1_7 3.098063 1_455
In4_3 Sc1_3 3.098063 1_555
In4_3 Sc4_3 3.296357 1_555
In4_3 Sc4_7 3.296357 1_455
In4_3 Sc7_7 3.408195 1_455
In4_3 Sc7_3 3.408195 1_555
In4_3 Sc2_3 3.621864 1_555
In4_3 Sc2_7 3.621864 1_455
In4_4 Ni1_4 2.960140 1_555
In4_4 Sc1_0 3.098063 1_555
In4_4 Sc1_4 3.098063 1_555
In4_4 Sc4_0 3.296357 1_555
In4_4 Sc4_4 3.296357 1_555
In4_4 Sc7_0 3.408195 1_555
In4_4 Sc7_4 3.408195 1_555
In4_4 Sc2_4 3.621864 1_555
In4_4 Sc2_0 3.621864 1_555
In4_5 Ni1_5 2.960140 1_555
In4_5 Sc1_5 3.098063 1_555
In4_5 Sc1_1 3.098063 1_555
In4_5 Sc4_1 3.296357 1_555
In4_5 Sc4_5 3.296357 1_555
In4_5 Sc7_1 3.408195 1_555
In4_5 Sc7_5 3.408195 1_555
In4_5 Sc2_1 3.621864 1_555
In4_5 Sc2_5 3.621864 1_555
In4_6 Ni1_6 2.960140 1_555
In4_6 Sc1_6 3.098063 1_555
In4_6 Sc1_2 3.098063 1_555
In4_6 Sc4_2 3.296357 1_555
In4_6 Sc4_6 3.296357 1_555
In4_6 Sc7_2 3.408195 1_555
In4_6 Sc7_6 3.408195 1_555
In4_6 Sc2_6 3.621864 1_555
In4_6 Sc2_2 3.621864 1_555
In4_7 Ni1_7 2.960140 1_555
In4_7 Sc1_3 3.098063 1_555
In4_7 Sc1_7 3.098063 1_555
In4_7 Sc4_3 3.296357 1_555
In4_7 Sc4_7 3.296357 1_555
In4_7 Sc7_7 3.408195 1_555
In4_7 Sc7_3 3.408195 1_555
In4_7 Sc2_7 3.621864 1_555
In4_7 Sc2_3 3.621864 1_555
In5_0 Ni1_0 2.935324 1_555
In5_0 Sc7_4 3.190263 1_455
In5_0 Sc7_0 3.190263 1_555
In5_0 Ni2_0 3.231056 1_555
In5_0 Sc0_0 3.305288 1_555
In5_0 Sc0_4 3.305288 1_455
In5_0 In7_0 3.416497 1_555
In5_0 Sc5_0 3.444151 1_555
In5_0 Sc5_4 3.444151 1_455
In5_0 Sc8_1 3.474194 1_555
In5_0 Sc8_5 3.474194 1_455
In5_1 Ni1_1 2.935324 1_555
In5_1 Sc7_1 3.190263 1_555
In5_1 Sc7_5 3.190263 1_455
In5_1 Ni2_1 3.231056 1_555
In5_1 Sc0_1 3.305288 1_555
In5_1 Sc0_5 3.305288 1_455
In5_1 In7_1 3.416497 1_555
In5_1 Sc5_1 3.444151 1_555
In5_1 Sc5_5 3.444151 1_455
In5_1 Sc8_4 3.474194 1_456
In5_1 Sc8_0 3.474194 1_556
In5_2 Ni1_2 2.935324 1_555
In5_2 Sc7_2 3.190263 1_555
In5_2 Sc7_6 3.190263 1_455
In5_2 Ni2_2 3.231056 1_555
In5_2 Sc0_6 3.305288 1_455
In5_2 Sc0_2 3.305288 1_555
In5_2 In7_2 3.416497 1_555
In5_2 Sc5_2 3.444151 1_555
In5_2 Sc5_6 3.444151 1_455
In5_2 Sc8_3 3.474194 1_555
In5_2 Sc8_7 3.474194 1_455
In5_3 Ni1_3 2.935324 1_555
In5_3 Sc7_3 3.190263 1_555
In5_3 Sc7_7 3.190263 1_455
In5_3 Ni2_3 3.231056 1_555
In5_3 Sc0_3 3.305288 1_555
In5_3 Sc0_7 3.305288 1_455
In5_3 In7_3 3.416497 1_555
In5_3 Sc5_7 3.444151 1_455
In5_3 Sc5_3 3.444151 1_555
In5_3 Sc8_2 3.474194 1_556
In5_3 Sc8_6 3.474194 1_456
In5_4 Ni1_4 2.935324 1_555
In5_4 Sc7_4 3.190263 1_555
In5_4 Sc7_0 3.190263 1_555
In5_4 Ni2_4 3.231056 1_555
In5_4 Sc0_0 3.305288 1_555
In5_4 Sc0_4 3.305288 1_555
In5_4 In7_4 3.416497 1_555
In5_4 Sc5_0 3.444151 1_555
In5_4 Sc5_4 3.444151 1_555
In5_4 Sc8_1 3.474194 1_555
In5_4 Sc8_5 3.474194 1_555
In5_5 Ni1_5 2.935324 1_555
In5_5 Sc7_1 3.190263 1_555
In5_5 Sc7_5 3.190263 1_555
In5_5 Ni2_5 3.231056 1_555
In5_5 Sc0_1 3.305288 1_555
In5_5 Sc0_5 3.305288 1_555
In5_5 In7_5 3.416497 1_555
In5_5 Sc5_5 3.444151 1_555
In5_5 Sc5_1 3.444151 1_555
In5_5 Sc8_4 3.474194 1_556
In5_5 Sc8_0 3.474194 1_556
In5_6 Ni1_6 2.935324 1_555
In5_6 Sc7_2 3.190263 1_555
In5_6 Sc7_6 3.190263 1_555
In5_6 Ni2_6 3.231056 1_555
In5_6 Sc0_2 3.305288 1_555
In5_6 Sc0_6 3.305288 1_555
In5_6 In7_6 3.416497 1_555
In5_6 Sc5_2 3.444151 1_555
In5_6 Sc5_6 3.444151 1_555
In5_6 Sc8_3 3.474194 1_555
In5_6 Sc8_7 3.474194 1_555
In5_7 Ni1_7 2.935324 1_555
In5_7 Sc7_3 3.190263 1_555
In5_7 Sc7_7 3.190263 1_555
In5_7 Ni2_7 3.231056 1_555
In5_7 Sc0_3 3.305288 1_555
In5_7 Sc0_7 3.305288 1_555
In5_7 In7_7 3.416497 1_555
In5_7 Sc5_7 3.444151 1_555
In5_7 Sc5_3 3.444151 1_555
In5_7 Sc8_2 3.474194 1_556
In5_7 Sc8_6 3.474194 1_556
In6_0 Ni0_0 2.935324 1_555
In6_0 Sc6_4 3.190263 1_455
In6_0 Sc6_0 3.190263 1_555
In6_0 Ni3_0 3.231056 1_555
In6_0 Sc3_0 3.305288 1_555
In6_0 Sc3_4 3.305288 1_455
In6_0 Sc9_4 3.444151 1_455
In6_0 Sc9_0 3.444151 1_555
In6_0 Sc8_0 3.474194 1_555
In6_0 Sc8_4 3.474194 1_455
In6_1 Ni0_1 2.935324 1_555
In6_1 Sc6_1 3.190263 1_555
In6_1 Sc6_5 3.190263 1_455
In6_1 Ni3_1 3.231056 1_555
In6_1 Sc3_1 3.305288 1_555
In6_1 Sc3_5 3.305288 1_455
In6_1 Sc9_5 3.444151 1_455
In6_1 Sc9_1 3.444151 1_555
In6_1 Sc8_1 3.474194 1_555
In6_1 Sc8_5 3.474194 1_455
In6_2 Ni0_2 2.935324 1_555
In6_2 Sc6_2 3.190263 1_555
In6_2 Sc6_6 3.190263 1_455
In6_2 Ni3_2 3.231056 1_555
In6_2 Sc3_6 3.305288 1_455
In6_2 Sc3_2 3.305288 1_555
In6_2 Sc9_6 3.444151 1_455
In6_2 Sc9_2 3.444151 1_555
In6_2 Sc8_6 3.474194 1_455
In6_2 Sc8_2 3.474194 1_555
In6_3 Ni0_3 2.935324 1_555
In6_3 Sc6_3 3.190263 1_555
In6_3 Sc6_7 3.190263 1_455
In6_3 Ni3_3 3.231056 1_555
In6_3 Sc3_3 3.305288 1_555
In6_3 Sc3_7 3.305288 1_455
In6_3 Sc9_7 3.444151 1_455
In6_3 Sc9_3 3.444151 1_555
In6_3 Sc8_3 3.474194 1_555
In6_3 Sc8_7 3.474194 1_455
In6_4 Ni0_4 2.935324 1_555
In6_4 Sc6_0 3.190263 1_555
In6_4 Sc6_4 3.190263 1_555
In6_4 Ni3_4 3.231056 1_555
In6_4 Sc3_0 3.305288 1_555
In6_4 Sc3_4 3.305288 1_555
In6_4 Sc9_4 3.444151 1_555
In6_4 Sc9_0 3.444151 1_555
In6_4 Sc8_0 3.474194 1_555
In6_4 Sc8_4 3.474194 1_555
In6_5 Ni0_5 2.935324 1_555
In6_5 Sc6_1 3.190263 1_555
In6_5 Sc6_5 3.190263 1_555
In6_5 Ni3_5 3.231056 1_555
In6_5 Sc3_1 3.305288 1_555
In6_5 Sc3_5 3.305288 1_555
In6_5 Sc9_1 3.444151 1_555
In6_5 Sc9_5 3.444151 1_555
In6_5 Sc8_5 3.474194 1_555
In6_5 Sc8_1 3.474194 1_555
In6_6 Ni0_6 2.935324 1_555
In6_6 Sc6_6 3.190263 1_555
In6_6 Sc6_2 3.190263 1_555
In6_6 Ni3_6 3.231056 1_555
In6_6 Sc3_6 3.305288 1_555
In6_6 Sc3_2 3.305288 1_555
In6_6 Sc9_2 3.444151 1_555
In6_6 Sc9_6 3.444151 1_555
In6_6 Sc8_6 3.474194 1_555
In6_6 Sc8_2 3.474194 1_555
In6_7 Ni0_7 2.935324 1_555
In6_7 Sc6_3 3.190263 1_555
In6_7 Sc6_7 3.190263 1_555
In6_7 Ni3_7 3.231056 1_555
In6_7 Sc3_3 3.305288 1_555
In6_7 Sc3_7 3.305288 1_555
In6_7 Sc9_7 3.444151 1_555
In6_7 Sc9_3 3.444151 1_555
In6_7 Sc8_3 3.474194 1_555
In6_7 Sc8_7 3.474194 1_555
In7_0 Ni2_2 2.960140 1_555
In7_0 Sc0_6 3.098063 1_455
In7_0 Sc0_2 3.098063 1_555
In7_0 Sc8_1 3.296357 1_555
In7_0 Sc8_5 3.296357 1_455
In7_0 Sc5_0 3.408195 1_555
In7_0 Sc5_4 3.408195 1_455
In7_0 Sc3_1 3.621864 1_555
In7_0 Sc3_5 3.621864 1_455
In7_1 Ni2_3 2.960140 1_555
In7_1 Sc0_3 3.098063 1_555
In7_1 Sc0_7 3.098063 1_455
In7_1 Sc8_0 3.296357 1_556
In7_1 Sc8_4 3.296357 1_456
In7_1 Sc5_1 3.408195 1_555
In7_1 Sc5_5 3.408195 1_455
In7_1 Sc3_0 3.621864 1_556
In7_1 Sc3_4 3.621864 1_456
In7_2 Ni2_0 2.960140 1_565
In7_2 Sc0_4 3.098063 1_465
In7_2 Sc0_0 3.098063 1_565
In7_2 Sc8_7 3.296357 1_455
In7_2 Sc8_3 3.296357 1_555
In7_2 Sc5_6 3.408195 1_455
In7_2 Sc5_2 3.408195 1_555
In7_2 Sc3_3 3.621864 1_555
In7_2 Sc3_7 3.621864 1_455
In7_3 Ni2_1 2.960140 1_565
In7_3 Sc0_1 3.098063 1_565
In7_3 Sc0_5 3.098063 1_465
In7_3 Sc8_6 3.296357 1_456
In7_3 Sc8_2 3.296357 1_556
In7_3 Sc5_3 3.408195 1_555
In7_3 Sc5_7 3.408195 1_455
In7_3 Sc3_2 3.621864 1_556
In7_3 Sc3_6 3.621864 1_456
In7_4 Ni2_6 2.960140 1_555
In7_4 Sc0_6 3.098063 1_555
In7_4 Sc0_2 3.098063 1_555
In7_4 Sc8_1 3.296357 1_555
In7_4 Sc8_5 3.296357 1_555
In7_4 Sc5_4 3.408195 1_555
In7_4 Sc5_0 3.408195 1_555
In7_4 Sc3_5 3.621864 1_555
In7_4 Sc3_1 3.621864 1_555
In7_5 Ni2_7 2.960140 1_555
In7_5 Sc0_3 3.098063 1_555
In7_5 Sc0_7 3.098063 1_555
In7_5 Sc8_0 3.296357 1_556
In7_5 Sc8_4 3.296357 1_556
In7_5 Sc5_5 3.408195 1_555
In7_5 Sc5_1 3.408195 1_555
In7_5 Sc3_0 3.621864 1_556
In7_5 Sc3_4 3.621864 1_556
In7_6 Ni2_4 2.960140 1_565
In7_6 Sc0_4 3.098063 1_565
In7_6 Sc0_0 3.098063 1_565
In7_6 Sc8_7 3.296357 1_555
In7_6 Sc8_3 3.296357 1_555
In7_6 Sc5_2 3.408195 1_555
In7_6 Sc5_6 3.408195 1_555
In7_6 Sc3_3 3.621864 1_555
In7_6 Sc3_7 3.621864 1_555
In7_7 Ni2_5 2.960140 1_565
In7_7 Sc0_1 3.098063 1_565
In7_7 Sc0_5 3.098063 1_565
In7_7 Sc8_6 3.296357 1_556
In7_7 Sc8_2 3.296357 1_556
In7_7 Sc5_3 3.408195 1_555
In7_7 Sc5_7 3.408195 1_555
In7_7 Sc3_2 3.621864 1_556
In7_7 Sc3_6 3.621864 1_556
Ni0_0 Sc2_0 2.652772 1_555
Ni0_0 Sc2_4 2.652772 1_455
Ni0_0 Sc6_4 2.897999 1_455
Ni0_0 Sc6_0 2.897999 1_555
Ni0_0 Sc9_4 2.989358 1_455
Ni0_0 Sc9_0 2.989358 1_555
Ni0_1 Sc2_1 2.652772 1_555
Ni0_1 Sc2_5 2.652772 1_455
Ni0_1 Sc6_5 2.897999 1_455
Ni0_1 Sc6_1 2.897999 1_555
Ni0_1 Sc9_5 2.989358 1_455
Ni0_1 Sc9_1 2.989358 1_555
Ni0_2 Sc2_2 2.652772 1_555
Ni0_2 Sc2_6 2.652772 1_455
Ni0_2 Sc6_6 2.897999 1_455
Ni0_2 Sc6_2 2.897999 1_555
Ni0_2 Sc9_2 2.989358 1_555
Ni0_2 Sc9_6 2.989358 1_455
Ni0_3 Sc2_7 2.652772 1_455
Ni0_3 Sc2_3 2.652772 1_555
Ni0_3 Sc6_3 2.897999 1_555
Ni0_3 Sc6_7 2.897999 1_455
Ni0_3 Sc9_3 2.989358 1_555
Ni0_3 Sc9_7 2.989358 1_455
Ni0_4 Sc2_0 2.652772 1_555
Ni0_4 Sc2_4 2.652772 1_555
Ni0_4 Sc6_0 2.897999 1_555
Ni0_4 Sc6_4 2.897999 1_555
Ni0_4 Sc9_0 2.989358 1_555
Ni0_4 Sc9_4 2.989358 1_555
Ni0_5 Sc2_1 2.652772 1_555
Ni0_5 Sc2_5 2.652772 1_555
Ni0_5 Sc6_5 2.897999 1_555
Ni0_5 Sc6_1 2.897999 1_555
Ni0_5 Sc9_1 2.989358 1_555
Ni0_5 Sc9_5 2.989358 1_555
Ni0_6 Sc2_2 2.652772 1_555
Ni0_6 Sc2_6 2.652772 1_555
Ni0_6 Sc6_6 2.897999 1_555
Ni0_6 Sc6_2 2.897999 1_555
Ni0_6 Sc9_2 2.989358 1_555
Ni0_6 Sc9_6 2.989358 1_555
Ni0_7 Sc2_7 2.652772 1_555
Ni0_7 Sc2_3 2.652772 1_555
Ni0_7 Sc6_3 2.897999 1_555
Ni0_7 Sc6_7 2.897999 1_555
Ni0_7 Sc9_3 2.989358 1_555
Ni0_7 Sc9_7 2.989358 1_555
Ni1_0 Sc1_0 2.652772 1_555
Ni1_0 Sc1_4 2.652772 1_455
Ni1_0 Sc7_0 2.897999 1_555
Ni1_0 Sc7_4 2.897999 1_455
Ni1_0 Sc5_4 2.989358 1_455
Ni1_0 Sc5_0 2.989358 1_555
Ni1_1 Sc1_1 2.652772 1_555
Ni1_1 Sc1_5 2.652772 1_455
Ni1_1 Sc7_1 2.897999 1_555
Ni1_1 Sc7_5 2.897999 1_455
Ni1_1 Sc5_1 2.989358 1_555
Ni1_1 Sc5_5 2.989358 1_455
Ni1_2 Sc1_6 2.652772 1_455
Ni1_2 Sc1_2 2.652772 1_555
Ni1_2 Sc7_2 2.897999 1_555
Ni1_2 Sc7_6 2.897999 1_455
Ni1_2 Sc5_2 2.989358 1_555
Ni1_2 Sc5_6 2.989358 1_455
Ni1_3 Sc1_7 2.652772 1_455
Ni1_3 Sc1_3 2.652772 1_555
Ni1_3 Sc7_3 2.897999 1_555
Ni1_3 Sc7_7 2.897999 1_455
Ni1_3 Sc5_3 2.989358 1_555
Ni1_3 Sc5_7 2.989358 1_455
Ni1_4 Sc1_0 2.652772 1_555
Ni1_4 Sc1_4 2.652772 1_555
Ni1_4 Sc7_0 2.897999 1_555
Ni1_4 Sc7_4 2.897999 1_555
Ni1_4 Sc5_4 2.989358 1_555
Ni1_4 Sc5_0 2.989358 1_555
Ni1_5 Sc1_1 2.652772 1_555
Ni1_5 Sc1_5 2.652772 1_555
Ni1_5 Sc7_1 2.897999 1_555
Ni1_5 Sc7_5 2.897999 1_555
Ni1_5 Sc5_5 2.989358 1_555
Ni1_5 Sc5_1 2.989358 1_555
Ni1_6 Sc1_2 2.652772 1_555
Ni1_6 Sc1_6 2.652772 1_555
Ni1_6 Sc7_2 2.897999 1_555
Ni1_6 Sc7_6 2.897999 1_555
Ni1_6 Sc5_6 2.989358 1_555
Ni1_6 Sc5_2 2.989358 1_555
Ni1_7 Sc1_3 2.652772 1_555
Ni1_7 Sc1_7 2.652772 1_555
Ni1_7 Sc7_3 2.897999 1_555
Ni1_7 Sc7_7 2.897999 1_555
Ni1_7 Sc5_3 2.989358 1_555
Ni1_7 Sc5_7 2.989358 1_555
Ni2_0 Sc0_4 2.652772 1_455
Ni2_0 Sc0_0 2.652772 1_555
Ni2_0 Sc5_2 2.897999 1_545
Ni2_0 Sc5_6 2.897999 1_445
Ni2_0 Sc7_0 2.989358 1_555
Ni2_0 Sc7_4 2.989358 1_455
Ni2_1 Sc0_1 2.652772 1_555
Ni2_1 Sc0_5 2.652772 1_455
Ni2_1 Sc5_7 2.897999 1_445
Ni2_1 Sc5_3 2.897999 1_545
Ni2_1 Sc7_1 2.989358 1_555
Ni2_1 Sc7_5 2.989358 1_455
Ni2_2 Sc0_6 2.652772 1_455
Ni2_2 Sc0_2 2.652772 1_555
Ni2_2 Sc5_4 2.897999 1_455
Ni2_2 Sc5_0 2.897999 1_555
Ni2_2 Sc7_2 2.989358 1_555
Ni2_2 Sc7_6 2.989358 1_455
Ni2_3 Sc0_7 2.652772 1_455
Ni2_3 Sc0_3 2.652772 1_555
Ni2_3 Sc5_1 2.897999 1_555
Ni2_3 Sc5_5 2.897999 1_455
Ni2_3 Sc7_7 2.989358 1_455
Ni2_3 Sc7_3 2.989358 1_555
Ni2_4 Sc0_4 2.652772 1_555
Ni2_4 Sc0_0 2.652772 1_555
Ni2_4 Sc5_2 2.897999 1_545
Ni2_4 Sc5_6 2.897999 1_545
Ni2_4 Sc7_0 2.989358 1_555
Ni2_4 Sc7_4 2.989358 1_555
Ni2_5 Sc0_1 2.652772 1_555
Ni2_5 Sc0_5 2.652772 1_555
Ni2_5 Sc5_3 2.897999 1_545
Ni2_5 Sc5_7 2.897999 1_545
Ni2_5 Sc7_1 2.989358 1_555
Ni2_5 Sc7_5 2.989358 1_555
Ni2_6 Sc0_6 2.652772 1_555
Ni2_6 Sc0_2 2.652772 1_555
Ni2_6 Sc5_4 2.897999 1_555
Ni2_6 Sc5_0 2.897999 1_555
Ni2_6 Sc7_6 2.989358 1_555
Ni2_6 Sc7_2 2.989358 1_555
Ni2_7 Sc0_7 2.652772 1_555
Ni2_7 Sc0_3 2.652772 1_555
Ni2_7 Sc5_5 2.897999 1_555
Ni2_7 Sc5_1 2.897999 1_555
Ni2_7 Sc7_7 2.989358 1_555
Ni2_7 Sc7_3 2.989358 1_555
Ni3_0 Sc3_0 2.652772 1_555
Ni3_0 Sc3_4 2.652772 1_455
Ni3_0 Sc9_2 2.897999 1_555
Ni3_0 Sc9_6 2.897999 1_455
Ni3_0 Sc6_4 2.989358 1_455
Ni3_0 Sc6_0 2.989358 1_555
Ni3_1 Sc3_1 2.652772 1_555
Ni3_1 Sc3_5 2.652772 1_455
Ni3_1 Sc9_7 2.897999 1_455
Ni3_1 Sc9_3 2.897999 1_555
Ni3_1 Sc6_1 2.989358 1_555
Ni3_1 Sc6_5 2.989358 1_455
Ni3_2 Sc3_2 2.652772 1_555
Ni3_2 Sc3_6 2.652772 1_455
Ni3_2 Sc9_4 2.897999 1_465
Ni3_2 Sc9_0 2.897999 1_565
Ni3_2 Sc6_6 2.989358 1_455
Ni3_2 Sc6_2 2.989358 1_555
Ni3_3 Sc3_3 2.652772 1_555
Ni3_3 Sc3_7 2.652772 1_455
Ni3_3 Sc9_5 2.897999 1_465
Ni3_3 Sc9_1 2.897999 1_565
Ni3_3 Sc6_3 2.989358 1_555
Ni3_3 Sc6_7 2.989358 1_455
Ni3_4 Sc3_0 2.652772 1_555
Ni3_4 Sc3_4 2.652772 1_555
Ni3_4 Sc9_2 2.897999 1_555
Ni3_4 Sc9_6 2.897999 1_555
Ni3_4 Sc6_4 2.989358 1_555
Ni3_4 Sc6_0 2.989358 1_555
Ni3_5 Sc3_1 2.652772 1_555
Ni3_5 Sc3_5 2.652772 1_555
Ni3_5 Sc9_3 2.897999 1_555
Ni3_5 Sc9_7 2.897999 1_555
Ni3_5 Sc6_5 2.989358 1_555
Ni3_5 Sc6_1 2.989358 1_555
Ni3_6 Sc3_6 2.652772 1_555
Ni3_6 Sc3_2 2.652772 1_555
Ni3_6 Sc9_0 2.897999 1_565
Ni3_6 Sc9_4 2.897999 1_565
Ni3_6 Sc6_2 2.989358 1_555
Ni3_6 Sc6_6 2.989358 1_555
Ni3_7 Sc3_7 2.652772 1_555
Ni3_7 Sc3_3 2.652772 1_555
Ni3_7 Sc9_1 2.897999 1_565
Ni3_7 Sc9_5 2.897999 1_565
Ni3_7 Sc6_3 2.989358 1_555
Ni3_7 Sc6_7 2.989358 1_555
