# generated using pymatgen
data_H3ClO5
_symmetry_space_group_name_H-M   'P 1'
_cell_length_a   5.85680800
_cell_length_b   6.95079000
_cell_length_c   9.29533191
_cell_angle_alpha   88.23063376
_cell_angle_beta   90.00000000
_cell_angle_gamma   90.00000000
_symmetry_Int_Tables_number   1
_chemical_formula_structural   H3ClO5
_chemical_formula_sum   'H12 Cl4 O20'
_cell_volume   378.22735912
_cell_formula_units_Z   4
loop_
 _symmetry_equiv_pos_site_id
 _symmetry_equiv_pos_as_xyz
  1  'x, y, z'
loop_
 _atom_site_type_symbol
 _atom_site_label
 _atom_site_symmetry_multiplicity
 _atom_site_fract_x
 _atom_site_fract_y
 _atom_site_fract_z
 _atom_site_occupancy
  H  H0  1  0.13716500  0.90866200  0.14563100  1
  H  H1  1  0.86283500  0.90866200  0.14563100  1
  H  H2  1  0.00000000  0.73663500  0.24207300  1
  H  H3  1  0.00000000  0.60962900  0.59281200  1
  H  H4  1  0.00000000  0.83587100  0.67958300  1
  H  H5  1  0.00000000  0.60502000  0.77179800  1
  H  H6  1  0.50000000  0.11337400  0.91593000  1
  H  H7  1  0.50000000  0.33417300  0.82137300  1
  H  H8  1  0.50000000  0.10808100  0.73608100  1
  H  H9  1  0.50000000  0.38019400  0.41341900  1
  H  H10  1  0.50000000  0.39926300  0.23284800  1
  H  H11  1  0.50000000  0.16776600  0.31688800  1
  Cl  Cl0  1  0.50000000  0.68133800  0.93540800  1
  Cl  Cl1  1  0.50000000  0.81359200  0.42239800  1
  Cl  Cl2  1  0.00000000  0.29674300  0.07481000  1
  Cl  Cl3  1  0.00000000  0.18374500  0.57174800  1
  O  O0  1  0.50000000  0.54231800  0.81690900  1
  O  O1  1  0.50000000  0.95774700  0.29897800  1
  O  O2  1  0.00000000  0.42654400  0.19325200  1
  O  O3  1  0.00000000  0.03701400  0.69331300  1
  O  O4  1  0.50000000  0.57892600  0.07422900  1
  O  O5  1  0.50000000  0.91246100  0.55691500  1
  O  O6  1  0.00000000  0.40214200  0.93768200  1
  O  O7  1  0.00000000  0.08776800  0.43658300  1
  O  O8  1  0.29820000  0.80143400  0.92025900  1
  O  O9  1  0.70262500  0.69406600  0.40853300  1
  O  O10  1  0.79613900  0.17138500  0.08411300  1
  O  O11  1  0.20217900  0.30357600  0.58771100  1
  O  O12  1  0.20386100  0.17138500  0.08411300  1
  O  O13  1  0.79782100  0.30357600  0.58771100  1
  O  O14  1  0.70180000  0.80143400  0.92025900  1
  O  O15  1  0.29737500  0.69406600  0.40853300  1
  O  O16  1  0.00000000  0.82449400  0.15650100  1
  O  O17  1  0.00000000  0.68171500  0.68118700  1
  O  O18  1  0.50000000  0.18326200  0.82320800  1
  O  O19  1  0.50000000  0.31727200  0.32096500  1
loop_
_geom_bond_atom_site_label_1
_geom_bond_atom_site_label_2
_geom_bond_distance
_geom_bond_site_symmetry_2
H0 O16 0.997092 1_555
H1 O16 0.997092 1_655
H2 O16 0.987744 1_555
H3 O17 0.975343 1_555
H4 O17 1.071149 1_555
H4 O3 1.407835 1_565
H5 O17 0.982782 1_555
H6 O18 0.976199 1_555
H7 O18 1.048563 1_555
H7 O0 1.446086 1_555
H8 O18 0.977296 1_555
H9 O19 0.976240 1_555
H10 O19 0.983285 1_555
H11 O19 1.041044 1_555
H11 O1 1.474359 1_545
Cl0 O8 1.451308 1_555
Cl0 O14 1.451308 1_555
Cl0 O4 1.454338 1_556
Cl0 O0 1.487527 1_555
Cl1 O5 1.445262 1_555
Cl1 O9 1.456637 1_555
Cl1 O15 1.456637 1_555
Cl1 O1 1.499712 1_555
Cl2 O2 1.444800 1_555
Cl2 O6 1.450441 1_554
Cl2 O12 1.479064 1_555
Cl2 O10 1.479064 1_455
Cl3 O7 1.440608 1_555
Cl3 O13 1.457928 1_455
Cl3 O11 1.457928 1_555
Cl3 O3 1.498630 1_555
