# generated using pymatgen
data_Fe2(MoO4)3
_symmetry_space_group_name_H-M   'P 1'
_cell_length_a   8.95997700
_cell_length_b   10.42880700
_cell_length_c   10.61837800
_cell_angle_alpha   90.00000000
_cell_angle_beta   90.00000000
_cell_angle_gamma   90.00000000
_symmetry_Int_Tables_number   1
_chemical_formula_structural   Fe2(MoO4)3
_chemical_formula_sum   'Fe8 Mo12 O48'
_cell_volume   992.20110579
_cell_formula_units_Z   4
loop_
 _symmetry_equiv_pos_site_id
 _symmetry_equiv_pos_as_xyz
  1  'x, y, z'
loop_
 _atom_site_type_symbol
 _atom_site_label
 _atom_site_symmetry_multiplicity
 _atom_site_fract_x
 _atom_site_fract_y
 _atom_site_fract_z
 _atom_site_occupancy
  Fe  Fe0  1  0.93785200  0.15084900  0.85884400  1
  Fe  Fe1  1  0.06214800  0.84915100  0.85884400  1
  Fe  Fe2  1  0.43785200  0.34915100  0.14115600  1
  Fe  Fe3  1  0.56214800  0.65084900  0.14115600  1
  Fe  Fe4  1  0.09005400  0.30257400  0.29712600  1
  Fe  Fe5  1  0.90994600  0.69742600  0.29712600  1
  Fe  Fe6  1  0.59005400  0.19742600  0.70287400  1
  Fe  Fe7  1  0.40994600  0.80257400  0.70287400  1
  Mo  Mo0  1  0.77993800  0.70767800  0.75703500  1
  Mo  Mo1  1  0.22006200  0.29232200  0.75703500  1
  Mo  Mo2  1  0.19681100  0.56505300  0.51708700  1
  Mo  Mo3  1  0.80318900  0.43494700  0.51708700  1
  Mo  Mo4  1  0.69681100  0.93494700  0.48291300  1
  Mo  Mo5  1  0.30318900  0.06505300  0.48291300  1
  Mo  Mo6  1  0.27993800  0.79232200  0.24296500  1
  Mo  Mo7  1  0.72006200  0.20767800  0.24296500  1
  Mo  Mo8  1  0.18927200  0.08599400  0.06634400  1
  Mo  Mo9  1  0.81072800  0.91400600  0.06634400  1
  Mo  Mo10  1  0.68927200  0.41400600  0.93365600  1
  Mo  Mo11  1  0.31072800  0.58599400  0.93365600  1
  O  O0  1  0.85568200  0.32771900  0.90207100  1
  O  O1  1  0.14431800  0.67228100  0.90207100  1
  O  O2  1  0.03622700  0.25540800  0.70584800  1
  O  O3  1  0.96377300  0.74459200  0.70584800  1
  O  O4  1  0.42847600  0.63899600  0.80773400  1
  O  O5  1  0.57152400  0.36100400  0.80773400  1
  O  O6  1  0.24378900  0.41919700  0.21795600  1
  O  O7  1  0.75621100  0.58080300  0.21795600  1
  O  O8  1  0.00000000  0.00000000  0.97606100  1
  O  O9  1  0.67174900  0.33073800  0.09838200  1
  O  O10  1  0.32825100  0.66926200  0.09838200  1
  O  O11  1  0.75285900  0.08015400  0.10138900  1
  O  O12  1  0.24714100  0.91984600  0.10138900  1
  O  O13  1  0.74714100  0.58015400  0.89861100  1
  O  O14  1  0.25285900  0.41984600  0.89861100  1
  O  O15  1  0.82825100  0.83073800  0.90161800  1
  O  O16  1  0.17174900  0.16926200  0.90161800  1
  O  O17  1  0.50000000  0.50000000  0.02393900  1
  O  O18  1  0.25621100  0.91919700  0.78204400  1
  O  O19  1  0.74378900  0.08080300  0.78204400  1
  O  O20  1  0.92847600  0.86100400  0.19226600  1
  O  O21  1  0.07152400  0.13899600  0.19226600  1
  O  O22  1  0.46377300  0.75540800  0.29415200  1
  O  O23  1  0.53622700  0.24459200  0.29415200  1
  O  O24  1  0.35568200  0.17228100  0.09792900  1
  O  O25  1  0.64431800  0.82771900  0.09792900  1
  O  O26  1  0.89124700  0.60323600  0.14393900  1
  O  O27  1  0.10875300  0.39676400  0.14393900  1
  O  O28  1  0.30038300  0.95806000  0.34869900  1
  O  O29  1  0.69961700  0.04194000  0.34869900  1
  O  O30  1  0.63236300  0.79318700  0.66372700  1
  O  O31  1  0.36763700  0.20681300  0.66372700  1
  O  O32  1  0.00000000  0.50000000  0.44909100  1
  O  O33  1  0.27413800  0.71246400  0.58060300  1
  O  O34  1  0.72586200  0.28753600  0.58060300  1
  O  O35  1  0.33550100  0.49811200  0.42864400  1
  O  O36  1  0.66449900  0.50188800  0.42864400  1
  O  O37  1  0.16449900  0.99811200  0.57135600  1
  O  O38  1  0.83550100  0.00188800  0.57135600  1
  O  O39  1  0.77413800  0.78753600  0.41939700  1
  O  O40  1  0.22586200  0.21246400  0.41939700  1
  O  O41  1  0.50000000  0.00000000  0.55090900  1
  O  O42  1  0.86763700  0.29318700  0.33627300  1
  O  O43  1  0.13236300  0.70681300  0.33627300  1
  O  O44  1  0.80038300  0.54194000  0.65130100  1
  O  O45  1  0.19961700  0.45806000  0.65130100  1
  O  O46  1  0.39124700  0.89676400  0.85606100  1
  O  O47  1  0.60875300  0.10323600  0.85606100  1
loop_
_geom_bond_atom_site_label_1
_geom_bond_atom_site_label_2
_geom_bond_distance
_geom_bond_site_symmetry_2
Fe0 O0 2.038399 1_555
Fe0 O19 2.054769 1_555
Fe0 O8 2.081855 1_655
Fe0 O2 2.145970 1_655
Fe0 O16 2.152945 1_655
Fe1 O1 2.038399 1_555
Fe1 O18 2.054769 1_555
Fe1 O8 2.081855 1_565
Fe1 O3 2.145970 1_455
Fe1 O15 2.152945 1_455
Fe2 O24 2.038399 1_555
Fe2 O6 2.054769 1_555
Fe2 O17 2.081855 1_555
Fe2 O23 2.145970 1_555
Fe2 O9 2.152945 1_555
Fe3 O25 2.038399 1_555
Fe3 O7 2.054769 1_555
Fe3 O17 2.081855 1_555
Fe3 O22 2.145970 1_555
Fe3 O10 2.152945 1_555
Fe4 O27 1.907559 1_555
Fe4 O40 2.012321 1_555
Fe4 O6 2.020728 1_555
Fe4 O42 2.038094 1_455
Fe4 O21 2.043892 1_555
Fe5 O26 1.907559 1_555
Fe5 O39 2.012321 1_555
Fe5 O7 2.020728 1_555
Fe5 O43 2.038094 1_655
Fe5 O20 2.043892 1_555
Fe6 O47 1.907559 1_555
Fe6 O34 2.012321 1_555
Fe6 O19 2.020728 1_555
Fe6 O31 2.038094 1_555
Fe6 O5 2.043892 1_555
Fe7 O46 1.907559 1_555
Fe7 O33 2.012321 1_555
Fe7 O18 2.020728 1_555
Fe7 O30 2.038094 1_555
Fe7 O4 2.043892 1_555
Mo0 O3 1.776723 1_555
Mo0 O30 1.877570 1_555
Mo0 O13 2.028542 1_555
Mo0 O15 2.047285 1_555
Mo0 O44 2.069204 1_555
Mo1 O2 1.776723 1_555
Mo1 O31 1.877570 1_555
Mo1 O14 2.028542 1_555
Mo1 O16 2.047285 1_555
Mo1 O45 2.069204 1_555
Mo2 O35 1.706902 1_555
Mo2 O45 1.810158 1_555
Mo2 O33 1.816111 1_555
Mo2 O32 2.022675 1_555
Mo2 O43 2.491043 1_555
Mo3 O36 1.706902 1_555
Mo3 O44 1.810158 1_555
Mo3 O34 1.816111 1_555
Mo3 O32 2.022675 1_655
Mo3 O42 2.491043 1_555
Mo4 O38 1.706902 1_565
Mo4 O29 1.810158 1_565
Mo4 O39 1.816111 1_555
Mo4 O41 2.022675 1_565
Mo4 O30 2.491043 1_555
Mo5 O37 1.706902 1_545
Mo5 O28 1.810158 1_545
Mo5 O40 1.816111 1_555
Mo5 O41 2.022675 1_555
Mo5 O31 2.491043 1_555
Mo6 O22 1.776723 1_555
Mo6 O43 1.877570 1_555
Mo6 O12 2.028542 1_555
Mo6 O10 2.047285 1_555
Mo6 O28 2.069204 1_555
Mo7 O23 1.776723 1_555
Mo7 O42 1.877570 1_555
Mo7 O11 2.028542 1_555
Mo7 O9 2.047285 1_555
Mo7 O29 2.069204 1_555
Mo8 O24 1.773532 1_555
Mo8 O21 1.790642 1_555
Mo8 O12 1.846526 1_545
Mo8 O16 1.959126 1_554
Mo8 O8 2.144595 1_554
Mo9 O25 1.773532 1_555
Mo9 O20 1.790642 1_555
Mo9 O11 1.846526 1_565
Mo9 O15 1.959126 1_554
Mo9 O8 2.144595 1_664
Mo10 O0 1.773532 1_555
Mo10 O5 1.790642 1_555
Mo10 O13 1.846526 1_555
Mo10 O9 1.959126 1_556
Mo10 O17 2.144595 1_556
Mo11 O1 1.773532 1_555
Mo11 O4 1.790642 1_555
Mo11 O14 1.846526 1_555
Mo11 O10 1.959126 1_556
Mo11 O17 2.144595 1_556
O18 O46 1.461622 1_555
O19 O47 1.461622 1_555
O26 O7 1.461622 1_555
O27 O6 1.461622 1_555
