# generated using pymatgen
data_Ba8Zr3(SbO6)4
_symmetry_space_group_name_H-M   'P 1'
_cell_length_a   10.31500841
_cell_length_b   10.31500841
_cell_length_c   10.31500841
_cell_angle_alpha   131.99198479
_cell_angle_beta   131.99198479
_cell_angle_gamma   70.24168634
_symmetry_Int_Tables_number   1
_chemical_formula_structural   Ba8Zr3(SbO6)4
_chemical_formula_sum   'Ba8 Zr3 Sb4 O24'
_cell_volume   594.22853027
_cell_formula_units_Z   1
loop_
 _symmetry_equiv_pos_site_id
 _symmetry_equiv_pos_as_xyz
  1  'x, y, z'
loop_
 _atom_site_type_symbol
 _atom_site_label
 _atom_site_symmetry_multiplicity
 _atom_site_fract_x
 _atom_site_fract_y
 _atom_site_fract_z
 _atom_site_occupancy
  Ba  Ba0  1  0.35164100  0.35164100  0.46688700  1
  Ba  Ba1  1  0.35164100  0.88475500  0.00000000  1
  Ba  Ba2  1  0.64835900  0.11524500  0.00000000  1
  Ba  Ba3  1  0.64835900  0.64835900  0.53311300  1
  Ba  Ba4  1  0.88475500  0.88475500  0.53311300  1
  Ba  Ba5  1  0.11524500  0.64835900  0.00000000  1
  Ba  Ba6  1  0.11524500  0.11524500  0.46688700  1
  Ba  Ba7  1  0.88475500  0.35164100  0.00000000  1
  Zr  Zr0  1  0.25000000  0.75000000  0.50000000  1
  Zr  Zr1  1  0.75000000  0.25000000  0.50000000  1
  Zr  Zr2  1  0.50000000  0.50000000  0.00000000  1
  Sb  Sb0  1  0.25639100  0.25639100  0.00000000  1
  Sb  Sb1  1  0.74360900  0.74360900  0.00000000  1
  Sb  Sb2  1  0.00000000  0.50000000  0.50000000  1
  Sb  Sb3  1  0.50000000  0.00000000  0.50000000  1
  O  O0  1  0.75237300  0.50000000  0.25237300  1
  O  O1  1  0.00000000  0.72940300  0.72940300  1
  O  O2  1  0.50000000  0.75237300  0.25237300  1
  O  O3  1  0.50000000  0.24762700  0.74762700  1
  O  O4  1  0.37611300  0.87611300  0.50000000  1
  O  O5  1  0.72940300  0.00000000  0.72940300  1
  O  O6  1  0.00000000  0.27059700  0.27059700  1
  O  O7  1  0.25459900  0.50051700  0.24591800  1
  O  O8  1  0.24762700  0.50000000  0.74762700  1
  O  O9  1  0.14102400  0.14102400  0.00000000  1
  O  O10  1  0.27059700  0.00000000  0.27059700  1
  O  O11  1  0.99131900  0.74540100  0.24591800  1
  O  O12  1  0.49948300  0.74540100  0.75408200  1
  O  O13  1  0.62588300  0.62588300  0.00000000  1
  O  O14  1  0.00868100  0.25459900  0.75408200  1
  O  O15  1  0.85897600  0.85897600  0.00000000  1
  O  O16  1  0.74540100  0.99131900  0.24591800  1
  O  O17  1  0.50051700  0.25459900  0.24591800  1
  O  O18  1  0.37411700  0.37411700  0.00000000  1
  O  O19  1  0.25459900  0.00868100  0.75408200  1
  O  O20  1  0.74540100  0.49948300  0.75408200  1
  O  O21  1  0.12388700  0.62388700  0.50000000  1
  O  O22  1  0.62388700  0.12388700  0.50000000  1
  O  O23  1  0.87611300  0.37611300  0.50000000  1
loop_
_geom_bond_atom_site_label_1
_geom_bond_atom_site_label_2
_geom_bond_distance
_geom_bond_site_symmetry_2
Ba0 O9 2.797272 1_555
Ba0 O6 2.813068 1_555
Ba0 O10 2.813068 1_555
Ba0 O21 2.975176 1_555
Ba0 O22 2.975176 1_555
Ba0 O8 2.999398 1_555
Ba0 O3 2.999398 1_555
Ba0 O7 3.024362 1_555
Ba0 O17 3.024362 1_555
Ba0 O20 3.105078 1_555
Ba0 O12 3.105078 1_555
Ba0 O13 3.166285 1_556
Ba1 O9 2.797265 1_565
Ba1 O10 2.813072 1_565
Ba1 O1 2.813072 1_554
Ba1 O21 2.975176 1_554
Ba1 O22 2.975176 1_565
Ba1 O8 2.999407 1_554
Ba1 O2 2.999407 1_555
Ba1 O17 3.024353 1_565
Ba1 O19 3.024353 1_564
Ba1 O12 3.105075 1_554
Ba1 O16 3.105075 1_555
Ba1 O13 3.166290 1_555
Ba2 O15 2.797265 1_545
Ba2 O6 2.813072 1_655
Ba2 O5 2.813072 1_554
Ba2 O4 2.975176 1_544
Ba2 O23 2.975176 1_555
Ba2 O3 2.999407 1_554
Ba2 O0 2.999407 1_555
Ba2 O12 3.024353 1_544
Ba2 O16 3.024353 1_545
Ba2 O17 3.105075 1_555
Ba2 O19 3.105075 1_554
Ba2 O18 3.166290 1_555
Ba3 O15 2.797272 1_556
Ba3 O1 2.813068 1_655
Ba3 O5 2.813068 1_565
Ba3 O23 2.975176 1_555
Ba3 O4 2.975176 1_555
Ba3 O0 2.999398 1_555
Ba3 O2 2.999398 1_555
Ba3 O20 3.024362 1_555
Ba3 O12 3.024362 1_555
Ba3 O17 3.105078 1_555
Ba3 O7 3.105078 1_555
Ba3 O18 3.166285 1_555
Ba4 O9 2.797269 1_666
Ba4 O5 2.813080 1_565
Ba4 O1 2.813080 1_655
Ba4 O21 2.975175 1_655
Ba4 O22 2.975175 1_565
Ba4 O2 2.999409 1_555
Ba4 O0 2.999409 1_555
Ba4 O19 3.024349 1_665
Ba4 O14 3.024349 1_665
Ba4 O16 3.105066 1_555
Ba4 O11 3.105066 1_555
Ba4 O13 3.166284 1_555
Ba5 O15 2.797265 1_455
Ba5 O10 2.813072 1_565
Ba5 O1 2.813072 1_554
Ba5 O23 2.975176 1_454
Ba5 O4 2.975176 1_555
Ba5 O8 2.999407 1_554
Ba5 O2 2.999407 1_555
Ba5 O20 3.024353 1_454
Ba5 O11 3.024353 1_455
Ba5 O7 3.105075 1_555
Ba5 O14 3.105075 1_554
Ba5 O18 3.166290 1_555
Ba6 O15 2.797269 1_445
Ba6 O10 2.813080 1_555
Ba6 O6 2.813080 1_555
Ba6 O23 2.975175 1_455
Ba6 O4 2.975175 1_545
Ba6 O3 2.999409 1_555
Ba6 O8 2.999409 1_555
Ba6 O11 3.024349 1_445
Ba6 O16 3.024349 1_445
Ba6 O14 3.105066 1_555
Ba6 O19 3.105066 1_555
Ba6 O18 3.166284 1_556
Ba7 O9 2.797265 1_655
Ba7 O6 2.813072 1_655
Ba7 O5 2.813072 1_554
Ba7 O22 2.975176 1_554
Ba7 O21 2.975176 1_655
Ba7 O3 2.999407 1_554
Ba7 O0 2.999407 1_555
Ba7 O7 3.024353 1_655
Ba7 O14 3.024353 1_654
Ba7 O20 3.105075 1_554
Ba7 O11 3.105075 1_555
Ba7 O13 3.166290 1_555
O0 Sb2 2.078161 1_655
O0 Zr2 2.117990 1_555
O1 Sb2 1.925219 1_555
O2 Sb3 2.078161 1_565
O2 Zr2 2.117990 1_555
O3 Sb3 2.078161 1_555
O3 Zr2 2.117990 1_556
O4 Sb3 2.090485 1_565
O4 Zr0 2.128047 1_555
O5 Sb3 1.925219 1_555
O6 Sb2 1.925219 1_555
O7 Sb0 2.064040 1_555
O7 Zr0 2.133745 1_555
O8 Sb2 2.078161 1_555
O8 Zr2 2.117990 1_556
O9 Sb0 1.946717 1_555
O10 Sb3 1.925219 1_555
O11 Sb1 2.064040 1_555
O11 Zr0 2.133745 1_655
O12 Sb1 2.064040 1_556
O12 Zr0 2.133745 1_555
O13 Sb1 1.986523 1_555
O13 Zr2 2.124166 1_555
O14 Sb0 2.064040 1_556
O14 Zr1 2.133745 1_455
O15 Sb1 1.946717 1_555
O16 Sb1 2.064040 1_555
O16 Zr1 2.133745 1_565
O17 Sb0 2.064040 1_555
O17 Zr1 2.133745 1_555
O18 Sb0 1.986523 1_555
O18 Zr2 2.124166 1_555
O19 Sb0 2.064040 1_556
O19 Zr0 2.133745 1_545
O20 Sb1 2.064040 1_556
O20 Zr1 2.133745 1_555
O21 Sb2 2.090485 1_555
O21 Zr0 2.128047 1_555
O22 Sb3 2.090485 1_555
O22 Zr1 2.128047 1_555
O23 Sb2 2.090485 1_655
O23 Zr1 2.128047 1_555
