# generated using pymatgen
data_Mo2H2O7
_symmetry_space_group_name_H-M   'P 1'
_cell_length_a   3.80801400
_cell_length_b   7.40245700
_cell_length_c   9.46779607
_cell_angle_alpha   75.60711090
_cell_angle_beta   90.00000000
_cell_angle_gamma   90.00000000
_symmetry_Int_Tables_number   1
_chemical_formula_structural   Mo2H2O7
_chemical_formula_sum   'Mo4 H4 O14'
_cell_volume   258.50805194
_cell_formula_units_Z   2
loop_
 _symmetry_equiv_pos_site_id
 _symmetry_equiv_pos_as_xyz
  1  'x, y, z'
loop_
 _atom_site_type_symbol
 _atom_site_label
 _atom_site_symmetry_multiplicity
 _atom_site_fract_x
 _atom_site_fract_y
 _atom_site_fract_z
 _atom_site_occupancy
  Mo  Mo0  1  0.25089500  0.81601900  0.97499500  1
  Mo  Mo1  1  0.75089500  0.18398100  0.02500500  1
  Mo  Mo2  1  0.71677500  0.83251900  0.44049100  1
  Mo  Mo3  1  0.21677500  0.16748100  0.55950900  1
  H  H0  1  0.94963300  0.68846100  0.71835700  1
  H  H1  1  0.44963300  0.31153900  0.28164300  1
  H  H2  1  0.85779800  0.59881100  0.29611000  1
  H  H3  1  0.35779800  0.40118900  0.70389000  1
  O  O0  1  0.76370600  0.71420000  0.64359100  1
  O  O1  1  0.26370600  0.28580000  0.35640900  1
  O  O2  1  0.22516300  0.64457800  0.87970600  1
  O  O3  1  0.72516300  0.35542200  0.12029400  1
  O  O4  1  0.75109000  0.89966000  0.96660200  1
  O  O5  1  0.25109000  0.10034000  0.03339800  1
  O  O6  1  0.24211700  0.68677600  0.15439800  1
  O  O7  1  0.74211700  0.31322400  0.84560200  1
  O  O8  1  0.24694400  0.88988800  0.46962700  1
  O  O9  1  0.74694400  0.11011200  0.53037300  1
  O  O10  1  0.26810100  0.02391600  0.73935500  1
  O  O11  1  0.76810100  0.97608400  0.26064500  1
  O  O12  1  0.75450700  0.60524600  0.39071900  1
  O  O13  1  0.25450700  0.39475400  0.60928100  1
loop_
_geom_bond_atom_site_label_1
_geom_bond_atom_site_label_2
_geom_bond_distance
_geom_bond_site_symmetry_2
Mo0 O6 1.730211 1_556
Mo0 O2 1.733002 1_555
Mo0 O4 1.996902 1_455
Mo0 O4 1.998317 1_555
Mo0 O5 2.305203 1_566
Mo0 O10 2.375523 1_565
Mo1 O7 1.730211 1_554
Mo1 O3 1.733002 1_555
Mo1 O5 1.996902 1_555
Mo1 O5 1.998317 1_655
Mo1 O4 2.305203 1_544
Mo1 O11 2.375523 1_545
Mo2 O11 1.779702 1_555
Mo2 O12 1.862050 1_555
Mo2 O8 1.875004 1_555
Mo2 O0 1.912946 1_555
Mo2 O8 2.095376 1_655
Mo2 O9 2.414372 1_565
Mo3 O10 1.779702 1_555
Mo3 O13 1.862050 1_555
Mo3 O9 1.875004 1_455
Mo3 O1 1.912946 1_555
Mo3 O9 2.095376 1_555
Mo3 O8 2.414372 1_545
H0 O0 0.985704 1_555
H1 O1 0.985704 1_555
H2 O12 0.990222 1_555
H3 O13 0.990222 1_555
