# generated using pymatgen
data_Co(Mo3Se4)4
_symmetry_space_group_name_H-M   'P 1'
_cell_length_a   9.32985800
_cell_length_b   9.40719296
_cell_length_c   9.40878091
_cell_angle_alpha   62.22141055
_cell_angle_beta   62.40136669
_cell_angle_gamma   62.50444461
_symmetry_Int_Tables_number   1
_chemical_formula_structural   Co(Mo3Se4)4
_chemical_formula_sum   'Co1 Mo12 Se16'
_cell_volume   614.85672907
_cell_formula_units_Z   1
loop_
 _symmetry_equiv_pos_site_id
 _symmetry_equiv_pos_as_xyz
  1  'x, y, z'
loop_
 _atom_site_type_symbol
 _atom_site_label
 _atom_site_symmetry_multiplicity
 _atom_site_fract_x
 _atom_site_fract_y
 _atom_site_fract_z
 _atom_site_occupancy
  Co  Co0  1  0.29816000  0.20590700  0.85077900  1
  Mo  Mo0  1  0.13118800  0.45373600  0.32478200  1
  Mo  Mo1  1  0.32088500  0.13345500  0.44710900  1
  Mo  Mo2  1  0.04945200  0.18635300  0.36450200  1
  Mo  Mo3  1  0.44753700  0.32316600  0.13453900  1
  Mo  Mo4  1  0.17419900  0.37404800  0.05241900  1
  Mo  Mo5  1  0.36986600  0.04876500  0.17063800  1
  Mo  Mo6  1  0.63248700  0.95256700  0.82069700  1
  Mo  Mo7  1  0.81991200  0.63271700  0.95090400  1
  Mo  Mo8  1  0.54876900  0.67914100  0.86840500  1
  Mo  Mo9  1  0.95081200  0.82163700  0.63120300  1
  Mo  Mo10  1  0.68116900  0.86806300  0.54639600  1
  Mo  Mo11  1  0.86675400  0.54898700  0.67943200  1
  Se  Se0  1  0.12152700  0.49726900  0.75551400  1
  Se  Se1  1  0.00578400  0.25401500  0.61830500  1
  Se  Se2  1  0.39115500  0.39232900  0.39266300  1
  Se  Se3  1  0.24841900  0.62152900  0.00942200  1
  Se  Se4  1  0.24729700  0.88375700  0.48913600  1
  Se  Se5  1  0.61609600  0.00503200  0.25558800  1
  Se  Se6  1  0.10501300  0.09829200  0.11401100  1
  Se  Se7  1  0.51215600  0.24352000  0.87804500  1
  Se  Se8  1  0.50672900  0.75167300  0.11843600  1
  Se  Se9  1  0.89408300  0.88965300  0.88907000  1
  Se  Se10  1  0.37756500  0.98934400  0.74195700  1
  Se  Se11  1  0.75653600  0.11748400  0.50478700  1
  Se  Se12  1  0.74481500  0.38188400  0.99474400  1
  Se  Se13  1  0.60725800  0.60876000  0.60987200  1
  Se  Se14  1  0.99450500  0.74604700  0.38252500  1
  Se  Se15  1  0.87937300  0.49837300  0.24662100  1
loop_
_geom_bond_atom_site_label_1
_geom_bond_atom_site_label_2
_geom_bond_distance
_geom_bond_site_symmetry_2
Co0 Se7 2.321361 1_555
Co0 Se10 2.365469 1_545
Co0 Se6 2.370302 1_556
Co0 Se0 2.437139 1_555
Co0 Mo4 2.552208 1_556
Mo0 Se2 2.534191 1_555
Mo0 Se15 2.576604 1_455
Mo0 Se3 2.591026 1_555
Mo0 Se1 2.593304 1_555
Mo0 Se14 2.644922 1_455
Mo1 Se4 2.552867 1_545
Mo1 Se2 2.573526 1_555
Mo1 Se5 2.578919 1_555
Mo1 Se1 2.600012 1_555
Mo1 Se10 2.646740 1_545
Mo2 Se1 2.559191 1_555
Mo2 Se15 2.580541 1_455
Mo2 Se6 2.607855 1_555
Mo2 Se4 2.632068 1_545
Mo2 Se11 2.669459 1_455
Mo3 Se2 2.563478 1_555
Mo3 Se7 2.582454 1_554
Mo3 Se3 2.616636 1_555
Mo3 Se5 2.619830 1_555
Mo3 Se12 2.661779 1_554
Mo4 Se3 2.532654 1_555
Mo4 Se15 2.576298 1_455
Mo4 Se0 2.667686 1_554
Mo4 Se6 2.698167 1_555
Mo4 Se7 2.766069 1_554
Mo5 Se6 2.555856 1_555
Mo5 Se5 2.570556 1_555
Mo5 Se4 2.612539 1_545
Mo5 Se7 2.618390 1_554
Mo5 Se8 2.661925 1_545
Mo6 Se9 2.546960 1_555
Mo6 Se11 2.598727 1_565
Mo6 Se8 2.619743 1_556
Mo6 Se10 2.638025 1_555
Mo6 Se7 2.649714 1_565
Mo7 Se9 2.553452 1_555
Mo7 Se12 2.565243 1_555
Mo7 Se8 2.575301 1_556
Mo7 Se0 2.645994 1_655
Mo7 Se15 2.674235 1_556
Mo8 Se8 2.558854 1_556
Mo8 Se13 2.567252 1_555
Mo8 Se10 2.589039 1_555
Mo8 Se12 2.602218 1_555
Mo8 Se3 2.682113 1_556
Mo9 Se9 2.553533 1_555
Mo9 Se14 2.558459 1_555
Mo9 Se11 2.588398 1_565
Mo9 Se4 2.668046 1_655
Mo9 Se0 2.669761 1_655
Mo10 Se11 2.562268 1_565
Mo10 Se13 2.568290 1_555
Mo10 Se14 2.572129 1_555
Mo10 Se10 2.618085 1_555
Mo10 Se5 2.654429 1_565
Mo11 Se13 2.544434 1_555
Mo11 Se0 2.565804 1_655
Mo11 Se12 2.596890 1_555
Mo11 Se14 2.605581 1_555
Mo11 Se1 2.680672 1_655
