# generated using pymatgen
data_FeS2
_symmetry_space_group_name_H-M   'P 1'
_cell_length_a   5.68831900
_cell_length_b   5.76743500
_cell_length_c   6.51549300
_cell_angle_alpha   90.00000000
_cell_angle_beta   90.00000000
_cell_angle_gamma   90.00000000
_symmetry_Int_Tables_number   1
_chemical_formula_structural   FeS2
_chemical_formula_sum   'Fe4 S8'
_cell_volume   213.75384460
_cell_formula_units_Z   4
loop_
 _symmetry_equiv_pos_site_id
 _symmetry_equiv_pos_as_xyz
  1  'x, y, z'
loop_
 _atom_site_type_symbol
 _atom_site_label
 _atom_site_symmetry_multiplicity
 _atom_site_fract_x
 _atom_site_fract_y
 _atom_site_fract_z
 _atom_site_occupancy
  Fe  Fe0  1  0.75000000  0.50000000  0.10419800  1
  Fe  Fe1  1  0.25000000  0.00000000  0.10419800  1
  Fe  Fe2  1  0.75000000  0.00000000  0.89580200  1
  Fe  Fe3  1  0.25000000  0.50000000  0.89580200  1
  S  S0  1  0.38898000  0.13541700  0.77430500  1
  S  S1  1  0.11102000  0.63541700  0.22569500  1
  S  S2  1  0.61102000  0.63541700  0.77430500  1
  S  S3  1  0.88898000  0.13541700  0.22569500  1
  S  S4  1  0.61102000  0.86458300  0.22569500  1
  S  S5  1  0.38898000  0.36458300  0.22569500  1
  S  S6  1  0.11102000  0.86458300  0.77430500  1
  S  S7  1  0.88898000  0.36458300  0.77430500  1
loop_
_geom_bond_atom_site_label_1
_geom_bond_atom_site_label_2
_geom_bond_distance
_geom_bond_site_symmetry_2
Fe0 S1 2.335356 1_655
Fe0 S5 2.335356 1_555
Fe0 S4 2.381811 1_555
Fe0 S3 2.381811 1_555
Fe0 S7 2.419701 1_554
Fe0 S2 2.419701 1_554
Fe1 S3 2.335356 1_455
Fe1 S4 2.335356 1_545
Fe1 S5 2.381811 1_555
Fe1 S1 2.381811 1_545
Fe1 S0 2.419701 1_554
Fe1 S6 2.419701 1_544
Fe2 S0 2.335356 1_555
Fe2 S6 2.335356 1_645
Fe2 S2 2.381811 1_545
Fe2 S7 2.381811 1_555
Fe2 S3 2.419701 1_556
Fe2 S4 2.419701 1_546
Fe3 S2 2.335356 1_555
Fe3 S7 2.335356 1_455
Fe3 S6 2.381811 1_555
Fe3 S0 2.381811 1_555
Fe3 S5 2.419701 1_556
Fe3 S1 2.419701 1_556
S0 S6 2.222579 1_545
S1 S5 2.222579 1_555
S2 S7 2.222579 1_555
S3 S4 2.222579 1_545
