# generated using pymatgen
data_Na3V2P2O8F3
_symmetry_space_group_name_H-M   'P 1'
_cell_length_a   9.16654900
_cell_length_b   9.19762600
_cell_length_c   10.92377900
_cell_angle_alpha   90.00000000
_cell_angle_beta   90.00000000
_cell_angle_gamma   90.00000000
_symmetry_Int_Tables_number   1
_chemical_formula_structural   Na3V2P2O8F3
_chemical_formula_sum   'Na12 V8 P8 O32 F12'
_cell_volume   920.98915373
_cell_formula_units_Z   4
loop_
 _symmetry_equiv_pos_site_id
 _symmetry_equiv_pos_as_xyz
  1  'x, y, z'
loop_
 _atom_site_type_symbol
 _atom_site_label
 _atom_site_symmetry_multiplicity
 _atom_site_fract_x
 _atom_site_fract_y
 _atom_site_fract_z
 _atom_site_occupancy
  Na  Na0  1  0.03006400  0.27758900  0.50000000  1
  Na  Na1  1  0.04849000  0.80657400  0.00000000  1
  Na  Na2  1  0.24001300  0.51730300  0.00000000  1
  Na  Na3  1  0.25998700  0.01730300  0.50000000  1
  Na  Na4  1  0.45151000  0.30657400  0.50000000  1
  Na  Na5  1  0.46993600  0.77758900  0.00000000  1
  Na  Na6  1  0.53006400  0.22241100  0.00000000  1
  Na  Na7  1  0.54849000  0.69342600  0.50000000  1
  Na  Na8  1  0.74001300  0.98269700  0.50000000  1
  Na  Na9  1  0.75998700  0.48269700  0.00000000  1
  Na  Na10  1  0.95151000  0.19342600  0.00000000  1
  Na  Na11  1  0.96993600  0.72241100  0.50000000  1
  V  V0  1  0.24879400  0.24502800  0.18530500  1
  V  V1  1  0.24879400  0.24502800  0.81469500  1
  V  V2  1  0.25120600  0.74502800  0.31469500  1
  V  V3  1  0.25120600  0.74502800  0.68530500  1
  V  V4  1  0.74879400  0.25497200  0.31469500  1
  V  V5  1  0.74879400  0.25497200  0.68530500  1
  V  V6  1  0.75120600  0.75497200  0.18530500  1
  V  V7  1  0.75120600  0.75497200  0.81469500  1
  P  P0  1  0.00000000  0.00000000  0.74275500  1
  P  P1  1  0.00000000  0.00000000  0.25724500  1
  P  P2  1  0.50000000  0.50000000  0.75724500  1
  P  P3  1  0.50000000  0.50000000  0.24275500  1
  P  P4  1  0.50000000  0.00000000  0.74810800  1
  P  P5  1  0.50000000  0.00000000  0.25189200  1
  P  P6  1  0.00000000  0.50000000  0.75189200  1
  P  P7  1  0.00000000  0.50000000  0.24810800  1
  O  O0  1  0.09259300  0.59763000  0.33296900  1
  O  O1  1  0.09259300  0.59763000  0.66703100  1
  O  O2  1  0.09172900  0.09662900  0.16964400  1
  O  O3  1  0.09172900  0.09662900  0.83035600  1
  O  O4  1  0.09666300  0.40531200  0.16256900  1
  O  O5  1  0.09689900  0.90554100  0.65841300  1
  O  O6  1  0.09666300  0.40531200  0.83743100  1
  O  O7  1  0.09689900  0.90554100  0.34158700  1
  O  O8  1  0.40333700  0.90531200  0.66256900  1
  O  O9  1  0.40333700  0.90531200  0.33743100  1
  O  O10  1  0.40310100  0.40554100  0.15841300  1
  O  O11  1  0.40310100  0.40554100  0.84158700  1
  O  O12  1  0.40827100  0.59662900  0.33035600  1
  O  O13  1  0.40827100  0.59662900  0.66964400  1
  O  O14  1  0.40740700  0.09763000  0.16703100  1
  O  O15  1  0.40740700  0.09763000  0.83296900  1
  O  O16  1  0.59259300  0.90237000  0.16703100  1
  O  O17  1  0.59259300  0.90237000  0.83296900  1
  O  O18  1  0.59172900  0.40337100  0.33035600  1
  O  O19  1  0.59172900  0.40337100  0.66964400  1
  O  O20  1  0.59689900  0.59445900  0.15841300  1
  O  O21  1  0.59689900  0.59445900  0.84158700  1
  O  O22  1  0.59666300  0.09468800  0.66256900  1
  O  O23  1  0.59666300  0.09468800  0.33743100  1
  O  O24  1  0.90333700  0.59468800  0.16256900  1
  O  O25  1  0.90333700  0.59468800  0.83743100  1
  O  O26  1  0.90310100  0.09445900  0.65841300  1
  O  O27  1  0.90310100  0.09445900  0.34158700  1
  O  O28  1  0.90827100  0.90337100  0.16964400  1
  O  O29  1  0.90827100  0.90337100  0.83035600  1
  O  O30  1  0.90740700  0.40237000  0.33296900  1
  O  O31  1  0.90740700  0.40237000  0.66703100  1
  F  F0  1  0.24908000  0.23869800  0.37041000  1
  F  F1  1  0.24908000  0.23869800  0.62959000  1
  F  F2  1  0.24619800  0.24872500  0.00000000  1
  F  F3  1  0.25380200  0.74872500  0.50000000  1
  F  F4  1  0.25092000  0.73869800  0.12959000  1
  F  F5  1  0.25092000  0.73869800  0.87041000  1
  F  F6  1  0.74908000  0.26130200  0.12959000  1
  F  F7  1  0.74908000  0.26130200  0.87041000  1
  F  F8  1  0.74619800  0.25127500  0.50000000  1
  F  F9  1  0.75380200  0.75127500  0.00000000  1
  F  F10  1  0.75092000  0.76130200  0.37041000  1
  F  F11  1  0.75092000  0.76130200  0.62959000  1
loop_
_geom_bond_atom_site_label_1
_geom_bond_atom_site_label_2
_geom_bond_distance
_geom_bond_site_symmetry_2
Na0 O31 2.431159 1_455
Na0 O30 2.431159 1_455
Na0 O26 2.680682 1_455
Na0 O27 2.680682 1_455
Na1 O28 2.424639 1_455
Na1 O29 2.424639 1_454
Na1 O24 2.953318 1_455
Na1 O25 2.953318 1_454
Na2 O4 2.437493 1_555
Na2 O6 2.437493 1_554
Na2 O10 2.507206 1_555
Na2 O11 2.507206 1_554
Na3 O8 2.437493 1_545
Na3 O9 2.437493 1_545
Na3 O5 2.507206 1_545
Na3 O7 2.507206 1_545
Na4 O18 2.424639 1_555
Na4 O19 2.424639 1_555
Na4 O22 2.953318 1_555
Na4 O23 2.953318 1_555
Na5 O16 2.431159 1_555
Na5 O17 2.431159 1_554
Na5 O20 2.680682 1_555
Na5 O21 2.680682 1_554
Na6 O14 2.431159 1_555
Na6 O15 2.431159 1_554
Na6 O10 2.680682 1_555
Na6 O11 2.680682 1_554
Na7 O12 2.424639 1_555
Na7 O13 2.424639 1_555
Na7 O8 2.953318 1_555
Na7 O9 2.953318 1_555
Na8 O22 2.437493 1_565
Na8 O23 2.437493 1_565
Na8 O26 2.507206 1_565
Na8 O27 2.507206 1_565
Na9 O24 2.437493 1_555
Na9 O25 2.437493 1_554
Na9 O20 2.507206 1_555
Na9 O21 2.507206 1_554
Na10 O2 2.424639 1_655
Na10 O3 2.424639 1_654
Na10 O4 2.953318 1_655
Na10 O6 2.953318 1_654
Na11 O1 2.431159 1_655
Na11 O0 2.431159 1_655
Na11 O5 2.680682 1_655
Na11 O7 2.680682 1_655
O0 P7 1.544689 1_555
O0 V2 1.997931 1_555
O1 P6 1.544689 1_555
O1 V3 1.997931 1_555
O2 P1 1.553262 1_555
O2 V0 1.991264 1_555
O3 P0 1.553262 1_555
O3 V1 1.991264 1_555
O4 P7 1.554577 1_555
O4 V0 2.044437 1_555
O5 P0 1.546809 1_565
O5 V3 2.065569 1_555
O6 P6 1.554577 1_555
O6 V1 2.044437 1_555
O7 P1 1.546809 1_565
O7 V2 2.065569 1_555
O8 P4 1.554577 1_565
O8 V3 2.044437 1_555
O9 P5 1.554577 1_565
O9 V2 2.044437 1_555
O10 P3 1.546809 1_555
O10 V0 2.065569 1_555
O11 P2 1.546809 1_555
O11 V1 2.065569 1_555
O12 P3 1.553262 1_555
O12 V2 1.991264 1_555
O13 P2 1.553262 1_555
O13 V3 1.991264 1_555
O14 P5 1.544689 1_555
O14 V0 1.997931 1_555
O15 P4 1.544689 1_555
O15 V1 1.997931 1_555
O16 P5 1.544689 1_565
O16 V6 1.997931 1_555
O17 P4 1.544689 1_565
O17 V7 1.997931 1_555
O18 P3 1.553262 1_555
O18 V4 1.991264 1_555
O19 P2 1.553262 1_555
O19 V5 1.991264 1_555
O20 P3 1.546809 1_555
O20 V6 2.065569 1_555
O21 P2 1.546809 1_555
O21 V7 2.065569 1_555
O22 P4 1.554577 1_555
O22 V5 2.044437 1_555
O23 P5 1.554577 1_555
O23 V4 2.044437 1_555
O24 P7 1.554577 1_655
O24 V6 2.044437 1_555
O25 P6 1.554577 1_655
O25 V7 2.044437 1_555
O26 P0 1.546809 1_655
O26 V5 2.065569 1_555
O27 P1 1.546809 1_655
O27 V4 2.065569 1_555
O28 P1 1.553262 1_665
O28 V6 1.991264 1_555
O29 P0 1.553262 1_665
O29 V7 1.991264 1_555
O30 P7 1.544689 1_655
O30 V4 1.997931 1_555
O31 P6 1.544689 1_655
O31 V5 1.997931 1_555
F0 V0 2.022886 1_555
F0 Na4 2.415968 1_555
F0 Na3 2.482037 1_555
F0 Na0 2.482429 1_555
F1 V1 2.022886 1_555
F1 Na4 2.415968 1_555
F1 Na3 2.482037 1_555
F1 Na0 2.482429 1_555
F2 V0 2.024656 1_555
F2 V1 2.024656 1_554
F2 Na2 2.470931 1_555
F2 Na6 2.613303 1_555
F2 Na10 2.748739 1_455
F3 V3 2.024656 1_555
F3 V2 2.024656 1_555
F3 Na3 2.470931 1_565
F3 Na11 2.613303 1_455
F3 Na7 2.748739 1_555
F4 V2 2.022886 1_555
F4 Na1 2.415968 1_555
F4 Na2 2.482037 1_555
F4 Na5 2.482429 1_555
F5 V3 2.022886 1_555
F5 Na1 2.415968 1_556
F5 Na2 2.482037 1_556
F5 Na5 2.482429 1_556
F6 V4 2.022886 1_555
F6 Na10 2.415968 1_555
F6 Na9 2.482037 1_555
F6 Na6 2.482429 1_555
F7 V5 2.022886 1_555
F7 Na10 2.415968 1_556
F7 Na9 2.482037 1_556
F7 Na6 2.482429 1_556
F8 V5 2.024656 1_555
F8 V4 2.024656 1_555
F8 Na8 2.470931 1_545
F8 Na0 2.613303 1_655
F8 Na4 2.748739 1_555
F9 V6 2.024656 1_555
F9 V7 2.024656 1_554
F9 Na9 2.470931 1_555
F9 Na5 2.613303 1_555
F9 Na1 2.748739 1_655
F10 V6 2.022886 1_555
F10 Na7 2.415968 1_555
F10 Na8 2.482037 1_555
F10 Na11 2.482429 1_555
F11 V7 2.022886 1_555
F11 Na7 2.415968 1_555
F11 Na8 2.482037 1_555
F11 Na11 2.482429 1_555
