# generated using pymatgen
data_Pr5NiPb3
_symmetry_space_group_name_H-M   'P 1'
_cell_length_a   9.41590394
_cell_length_b   9.41590394
_cell_length_c   6.96527200
_cell_angle_alpha   90.00000000
_cell_angle_beta   90.00000000
_cell_angle_gamma   119.99999961
_symmetry_Int_Tables_number   1
_chemical_formula_structural   Pr5NiPb3
_chemical_formula_sum   'Pr10 Ni2 Pb6'
_cell_volume   534.80166783
_cell_formula_units_Z   2
loop_
 _symmetry_equiv_pos_site_id
 _symmetry_equiv_pos_as_xyz
  1  'x, y, z'
loop_
 _atom_site_type_symbol
 _atom_site_label
 _atom_site_symmetry_multiplicity
 _atom_site_fract_x
 _atom_site_fract_y
 _atom_site_fract_z
 _atom_site_occupancy
  Pr  Pr0  1  0.00000000  0.76140000  0.75000000  1
  Pr  Pr1  1  0.23860000  0.00000000  0.25000000  1
  Pr  Pr2  1  0.33333300  0.66666700  0.50000000  1
  Pr  Pr3  1  0.66666700  0.33333300  0.50000000  1
  Pr  Pr4  1  0.76140000  0.76140000  0.25000000  1
  Pr  Pr5  1  0.00000000  0.23860000  0.25000000  1
  Pr  Pr6  1  0.23860000  0.23860000  0.75000000  1
  Pr  Pr7  1  0.76140000  0.00000000  0.75000000  1
  Pr  Pr8  1  0.33333300  0.66666700  0.00000000  1
  Pr  Pr9  1  0.66666700  0.33333300  0.00000000  1
  Ni  Ni0  1  0.00000000  0.00000000  0.00000000  1
  Ni  Ni1  1  0.00000000  0.00000000  0.50000000  1
  Pb  Pb0  1  0.59731100  0.59731100  0.75000000  1
  Pb  Pb1  1  0.00000000  0.59731100  0.25000000  1
  Pb  Pb2  1  0.00000000  0.40268900  0.75000000  1
  Pb  Pb3  1  0.59731100  0.00000000  0.25000000  1
  Pb  Pb4  1  0.40268900  0.00000000  0.75000000  1
  Pb  Pb5  1  0.40268900  0.40268900  0.25000000  1
loop_
_geom_bond_atom_site_label_1
_geom_bond_atom_site_label_2
_geom_bond_distance
_geom_bond_site_symmetry_2
Ni0 Pr5 2.842456 1_555
Ni0 Pr1 2.842456 1_555
Ni0 Pr0 2.842456 1_544
Ni0 Pr7 2.842456 1_454
Ni0 Pr4 2.842456 1_445
Ni0 Pr6 2.842456 1_554
Ni1 Pr5 2.842456 1_555
Ni1 Pr1 2.842456 1_555
Ni1 Pr0 2.842456 1_545
Ni1 Pr7 2.842456 1_455
Ni1 Pr6 2.842456 1_555
Ni1 Pr4 2.842456 1_445
Pb0 Pr7 3.302376 1_565
Pb0 Pr0 3.302376 1_655
Pb0 Pr8 3.355598 1_556
Pb0 Pr9 3.355598 1_556
Pb0 Pr3 3.355598 1_555
Pb0 Pr2 3.355598 1_555
Pb0 Pr6 3.377588 1_555
Pb0 Pr4 3.809977 1_555
Pb0 Pr4 3.809977 1_556
Pb1 Pr4 3.302376 1_455
Pb1 Pr1 3.302376 1_565
Pb1 Pr2 3.355591 1_555
Pb1 Pr8 3.355591 1_555
Pb1 Pr9 3.355593 1_455
Pb1 Pr3 3.355593 1_455
Pb1 Pr5 3.377588 1_555
Pb1 Pr0 3.809977 1_555
Pb1 Pr0 3.809977 1_554
Pb2 Pr6 3.302376 1_555
Pb2 Pr7 3.302376 1_455
Pb2 Pr9 3.355591 1_456
Pb2 Pr3 3.355591 1_455
Pb2 Pr2 3.355593 1_555
Pb2 Pr8 3.355593 1_556
Pb2 Pr0 3.377588 1_555
Pb2 Pr5 3.809977 1_555
Pb2 Pr5 3.809977 1_556
Pb3 Pr4 3.302376 1_545
Pb3 Pr5 3.302376 1_655
Pb3 Pr3 3.355591 1_555
Pb3 Pr9 3.355591 1_555
Pb3 Pr8 3.355593 1_545
Pb3 Pr2 3.355593 1_545
Pb3 Pr1 3.377588 1_555
Pb3 Pr7 3.809977 1_555
Pb3 Pr7 3.809977 1_554
Pb4 Pr6 3.302376 1_555
Pb4 Pr0 3.302376 1_545
Pb4 Pr8 3.355591 1_546
Pb4 Pr2 3.355591 1_545
Pb4 Pr9 3.355593 1_556
Pb4 Pr3 3.355593 1_555
Pb4 Pr7 3.377588 1_555
Pb4 Pr1 3.809977 1_556
Pb4 Pr1 3.809977 1_555
Pb5 Pr5 3.302376 1_555
Pb5 Pr1 3.302376 1_555
Pb5 Pr3 3.355598 1_555
Pb5 Pr9 3.355598 1_555
Pb5 Pr2 3.355598 1_555
Pb5 Pr8 3.355598 1_555
Pb5 Pr4 3.377588 1_555
Pb5 Pr6 3.809977 1_555
Pb5 Pr6 3.809977 1_554
