# generated using pymatgen
data_BaLi2P2O7
_symmetry_space_group_name_H-M   'P 1'
_cell_length_a   7.15397951
_cell_length_b   7.15397951
_cell_length_c   13.99632256
_cell_angle_alpha   89.66497662
_cell_angle_beta   89.66497662
_cell_angle_gamma   119.34855330
_symmetry_Int_Tables_number   1
_chemical_formula_structural   BaLi2P2O7
_chemical_formula_sum   'Ba4 Li8 P8 O28'
_cell_volume   624.34473647
_cell_formula_units_Z   4
loop_
 _symmetry_equiv_pos_site_id
 _symmetry_equiv_pos_as_xyz
  1  'x, y, z'
loop_
 _atom_site_type_symbol
 _atom_site_label
 _atom_site_symmetry_multiplicity
 _atom_site_fract_x
 _atom_site_fract_y
 _atom_site_fract_z
 _atom_site_occupancy
  Ba  Ba0  1  0.16060800  0.21171700  0.37859400  1
  Ba  Ba1  1  0.78828300  0.83939200  0.12140600  1
  Ba  Ba2  1  0.83939200  0.78828300  0.62140600  1
  Ba  Ba3  1  0.21171700  0.16060800  0.87859400  1
  Li  Li0  1  0.23411100  0.76588900  0.25000000  1
  Li  Li1  1  0.76588900  0.23411100  0.75000000  1
  Li  Li2  1  0.76743400  0.23256600  0.25000000  1
  Li  Li3  1  0.23256600  0.76743400  0.75000000  1
  Li  Li4  1  0.26926200  0.80055800  0.49121300  1
  Li  Li5  1  0.19944200  0.73073800  0.00878700  1
  Li  Li6  1  0.73073800  0.19944200  0.50878700  1
  Li  Li7  1  0.80055800  0.26926200  0.99121300  1
  P  P0  1  0.85033600  0.59054700  0.36528500  1
  P  P1  1  0.40945300  0.14966400  0.13471500  1
  P  P2  1  0.14966400  0.40945300  0.63471500  1
  P  P3  1  0.59054700  0.85033600  0.86528500  1
  P  P4  1  0.57574100  0.78608900  0.38053500  1
  P  P5  1  0.21391100  0.42425900  0.11946500  1
  P  P6  1  0.42425900  0.21391100  0.61946500  1
  P  P7  1  0.78608900  0.57574100  0.88053500  1
  O  O0  1  0.99089400  0.76332200  0.43724700  1
  O  O1  1  0.23667800  0.00910600  0.06275300  1
  O  O2  1  0.00910600  0.23667800  0.56275300  1
  O  O3  1  0.76332200  0.99089400  0.93724700  1
  O  O4  1  0.93939900  0.71685000  0.80114700  1
  O  O5  1  0.28315000  0.06060100  0.69885300  1
  O  O6  1  0.06060100  0.28315000  0.19885300  1
  O  O7  1  0.71685000  0.93939900  0.30114700  1
  O  O8  1  0.88711600  0.63570700  0.97958800  1
  O  O9  1  0.36429300  0.11288400  0.52041200  1
  O  O10  1  0.11288400  0.36429400  0.02041200  1
  O  O11  1  0.63570700  0.88711600  0.47958800  1
  O  O12  1  0.68065300  0.33314200  0.86547300  1
  O  O13  1  0.66685800  0.31934700  0.63452700  1
  O  O14  1  0.31934700  0.66685800  0.13452700  1
  O  O15  1  0.33314200  0.68065300  0.36547300  1
  O  O16  1  0.57420000  0.61146900  0.87801100  1
  O  O17  1  0.38853100  0.42580000  0.62198900  1
  O  O18  1  0.42580000  0.38853100  0.12198900  1
  O  O19  1  0.61146900  0.57420000  0.37801100  1
  O  O20  1  0.36405100  0.81024100  0.88697000  1
  O  O21  1  0.18975900  0.63594900  0.61303000  1
  O  O22  1  0.63594900  0.18975900  0.11303000  1
  O  O23  1  0.81024100  0.36405100  0.38697000  1
  O  O24  1  0.65290100  0.91948700  0.76094200  1
  O  O25  1  0.08051300  0.34709900  0.73905800  1
  O  O26  1  0.34709900  0.08051300  0.23905800  1
  O  O27  1  0.91948700  0.65290100  0.26094200  1
loop_
_geom_bond_atom_site_label_1
_geom_bond_atom_site_label_2
_geom_bond_distance
_geom_bond_site_symmetry_2
Ba0 O6 2.732441 1_555
Ba0 O9 2.755089 1_555
Ba0 O26 2.773746 1_555
Ba0 O2 2.830687 1_555
Ba0 O0 2.928800 1_445
Ba0 O15 2.956823 1_555
Ba0 O19 2.988099 1_555
Ba0 O7 3.008500 1_445
Ba0 O23 3.187430 1_455
Ba1 O7 2.732441 1_555
Ba1 O8 2.755089 1_554
Ba1 O27 2.773746 1_555
Ba1 O3 2.830687 1_554
Ba1 O1 2.928800 1_665
Ba1 O14 2.956823 1_555
Ba1 O18 2.988099 1_555
Ba1 O6 3.008500 1_665
Ba1 O22 3.187430 1_565
Ba2 O4 2.732441 1_555
Ba2 O11 2.755089 1_555
Ba2 O24 2.773746 1_555
Ba2 O0 2.830687 1_555
Ba2 O2 2.928800 1_665
Ba2 O13 2.956823 1_555
Ba2 O17 2.988099 1_555
Ba2 O5 3.008500 1_665
Ba2 O21 3.187430 1_655
Ba3 O5 2.732441 1_555
Ba3 O10 2.755094 1_556
Ba3 O25 2.773746 1_555
Ba3 O1 2.830687 1_556
Ba3 O3 2.928800 1_445
Ba3 O12 2.956823 1_555
Ba3 O16 2.988099 1_555
Ba3 O4 3.008500 1_445
Ba3 O20 3.187430 1_545
Li0 O15 1.977671 1_555
Li0 O14 1.977671 1_555
Li0 O27 1.988490 1_455
Li0 O26 1.988490 1_565
Li1 O13 1.977671 1_555
Li1 O12 1.977671 1_555
Li1 O24 1.988490 1_545
Li1 O25 1.988490 1_655
Li2 O6 2.068230 1_655
Li2 O7 2.068230 1_545
Li2 O22 2.097464 1_555
Li2 O23 2.097464 1_555
Li3 O5 2.068230 1_565
Li3 O4 2.068230 1_455
Li3 O21 2.097464 1_555
Li3 O20 2.097464 1_555
Li4 O21 1.981383 1_555
Li4 O0 2.026633 1_455
Li4 O9 2.036306 1_565
Li4 O15 2.105805 1_555
Li4 O11 2.384315 1_555
Li5 O20 1.981383 1_554
Li5 O1 2.026633 1_565
Li5 O8 2.036306 1_454
Li5 O14 2.105805 1_555
Li5 O10 2.384308 1_555
Li6 O23 1.981383 1_555
Li6 O2 2.026633 1_655
Li6 O11 2.036306 1_545
Li6 O13 2.105805 1_555
Li6 O9 2.384315 1_555
Li7 O22 1.981383 1_556
Li7 O3 2.026633 1_545
Li7 O10 2.036304 1_656
Li7 O12 2.105805 1_555
Li7 O8 2.384315 1_555
O0 P0 1.536693 1_555
O1 P1 1.536693 1_555
O2 P2 1.536693 1_555
O3 P3 1.536693 1_555
O4 P7 1.530994 1_555
O5 P6 1.530994 1_555
O6 P5 1.530994 1_555
O7 P4 1.530994 1_555
O8 P7 1.530747 1_555
O9 P6 1.530747 1_555
O10 P5 1.530746 1_555
O11 P4 1.530747 1_555
O12 P7 1.532456 1_555
O13 P6 1.532456 1_555
O14 P5 1.532456 1_555
O15 P4 1.532456 1_555
O16 P7 1.656711 1_555
O16 P3 1.663091 1_555
O17 P6 1.656711 1_555
O17 P2 1.663091 1_555
O18 P5 1.656711 1_555
O18 P1 1.663091 1_555
O19 P4 1.656711 1_555
O19 P0 1.663091 1_555
O20 P3 1.528907 1_555
O21 P2 1.528907 1_555
O22 P1 1.528907 1_555
O23 P0 1.528907 1_555
O24 P3 1.531064 1_555
O25 P2 1.531064 1_555
O26 P1 1.531064 1_555
O27 P0 1.531064 1_555
