# generated using pymatgen
data_SiO2
_symmetry_space_group_name_H-M   'P 1'
_cell_length_a   15.90721817
_cell_length_b   15.90721817
_cell_length_c   15.90721817
_cell_angle_alpha   100.60947517
_cell_angle_beta   100.60947517
_cell_angle_gamma   129.18099375
_symmetry_Int_Tables_number   1
_chemical_formula_structural   SiO2
_chemical_formula_sum   'Si48 O96'
_cell_volume   2818.28903398
_cell_formula_units_Z   48
loop_
 _symmetry_equiv_pos_site_id
 _symmetry_equiv_pos_as_xyz
  1  'x, y, z'
loop_
 _atom_site_type_symbol
 _atom_site_label
 _atom_site_symmetry_multiplicity
 _atom_site_fract_x
 _atom_site_fract_y
 _atom_site_fract_z
 _atom_site_occupancy
  Si  Si0  1  0.92254500  0.07745500  0.00000000  1
  Si  Si1  1  0.94131900  0.85444900  0.52381400  1
  Si  Si2  1  0.33063600  0.41750500  0.47618600  1
  Si  Si3  1  0.71997800  0.26400100  0.69815700  1
  Si  Si4  1  0.58249500  0.66936400  0.52381400  1
  Si  Si5  1  0.57703800  0.43116000  0.30297300  1
  Si  Si6  1  0.56584400  0.26400100  0.54402200  1
  Si  Si7  1  0.14555100  0.05868100  0.47618600  1
  Si  Si8  1  0.72593600  0.87181400  0.30297300  1
  Si  Si9  1  0.07745500  0.07745500  0.15491100  1
  Si  Si10  1  0.69238400  0.07718400  0.76466900  1
  Si  Si11  1  0.92281600  0.68748600  0.61520100  1
  Si  Si12  1  0.73599900  0.43415600  0.45597800  1
  Si  Si13  1  0.97817800  0.28002200  0.54402200  1
  Si  Si14  1  0.56884000  0.87181400  0.14587800  1
  Si  Si15  1  0.71997800  0.02182200  0.45597800  1
  Si  Si16  1  0.07228500  0.68748600  0.76466900  1
  Si  Si17  1  0.58249500  0.05868100  0.91313000  1
  Si  Si18  1  0.68321200  0.68321200  0.36642500  1
  Si  Si19  1  0.57703800  0.27406400  0.14587800  1
  Si  Si20  1  0.92254500  0.92254500  0.84508900  1
  Si  Si21  1  0.68321200  0.31678800  0.00000000  1
  Si  Si22  1  0.07745500  0.92254500  0.00000000  1
  Si  Si23  1  0.73988500  0.67312700  0.68631300  1
  Si  Si24  1  0.31251400  0.07718400  0.38479900  1
  Si  Si25  1  0.31678800  0.68321200  0.00000000  1
  Si  Si26  1  0.92281600  0.30761600  0.23533100  1
  Si  Si27  1  0.32687300  0.01318600  0.06675800  1
  Si  Si28  1  0.73599900  0.28002200  0.30184300  1
  Si  Si29  1  0.12818600  0.27406400  0.69702700  1
  Si  Si30  1  0.97817800  0.43415600  0.69815700  1
  Si  Si31  1  0.72593600  0.42296200  0.85412200  1
  Si  Si32  1  0.32687300  0.26011500  0.31368700  1
  Si  Si33  1  0.31251400  0.92771500  0.23533100  1
  Si  Si34  1  0.07228500  0.30761600  0.38479900  1
  Si  Si35  1  0.73988500  0.05357200  0.06675800  1
  Si  Si36  1  0.31678800  0.31678800  0.63357500  1
  Si  Si37  1  0.98681400  0.67312700  0.93324200  1
  Si  Si38  1  0.94131900  0.41750500  0.08687000  1
  Si  Si39  1  0.94642800  0.01318600  0.68631300  1
  Si  Si40  1  0.69238400  0.92771500  0.61520100  1
  Si  Si41  1  0.14555100  0.66936400  0.08687000  1
  Si  Si42  1  0.56884000  0.42296200  0.69702700  1
  Si  Si43  1  0.98681400  0.05357200  0.31368700  1
  Si  Si44  1  0.33063600  0.85444900  0.91313000  1
  Si  Si45  1  0.12818600  0.43116000  0.85412200  1
  Si  Si46  1  0.94642800  0.26011500  0.93324200  1
  Si  Si47  1  0.56584400  0.02182200  0.30184300  1
  O  O0  1  0.82180900  0.39230100  0.05735700  1
  O  O1  1  0.02126500  0.11203400  0.09076900  1
  O  O2  1  0.02175100  0.55945000  0.70420600  1
  O  O3  1  0.97735400  0.99372400  0.77975800  1
  O  O4  1  0.60402400  0.03679800  0.81871400  1
  O  O5  1  0.07659200  0.67385400  0.00155900  1
  O  O6  1  0.61301700  0.22715100  0.61413400  1
  O  O7  1  0.05245500  0.25502400  0.59878400  1
  O  O8  1  0.83826800  0.16173200  0.50000000  1
  O  O9  1  0.00627600  0.78603500  0.98363000  1
  O  O10  1  0.44620000  0.55380000  0.50000000  1
  O  O11  1  0.83686900  0.17149200  0.16228800  1
  O  O12  1  0.67040500  0.74321000  0.29936800  1
  O  O13  1  0.21396500  0.99372400  0.01637000  1
  O  O14  1  0.23554800  0.66505600  0.05735700  1
  O  O15  1  0.82850800  0.99079600  0.66537700  1
  O  O16  1  0.21469000  0.39597600  0.43277300  1
  O  O17  1  0.07659200  0.07503300  0.40273800  1
  O  O18  1  0.82180900  0.76445200  0.42950800  1
  O  O19  1  0.04015500  0.34668000  0.30652500  1
  O  O20  1  0.44384200  0.74321000  0.07280500  1
  O  O21  1  0.68245500  0.14475600  0.70420600  1
  O  O22  1  0.21396500  0.19759500  0.22024200  1
  O  O23  1  0.02175100  0.31754500  0.46230100  1
  O  O24  1  0.05875700  0.14757800  0.70463700  1
  O  O25  1  0.66173200  0.16173200  0.32346400  1
  O  O26  1  0.65332000  0.95984500  0.69347500  1
  O  O27  1  0.92496700  0.32770500  0.00155900  1
  O  O28  1  0.80240500  0.02264600  0.01637000  1
  O  O29  1  0.66173200  0.33826800  0.50000000  1
  O  O30  1  0.05875700  0.35412000  0.91118000  1
  O  O31  1  0.65624000  0.25502400  0.20257000  1
  O  O32  1  0.44384200  0.37103700  0.70063200  1
  O  O33  1  0.14735200  0.36337700  0.78397600  1
  O  O34  1  0.00920400  0.17149200  0.33462300  1
  O  O35  1  0.02126500  0.93049600  0.90923100  1
  O  O36  1  0.62896300  0.55615800  0.29936800  1
  O  O37  1  0.63662300  0.85264800  0.21602400  1
  O  O38  1  0.21808400  0.03679800  0.43277300  1
  O  O39  1  0.97735400  0.19759500  0.98363000  1
  O  O40  1  0.23554800  0.17819100  0.57049200  1
  O  O41  1  0.21469000  0.78191600  0.81871400  1
  O  O42  1  0.54632900  0.34376000  0.59878400  1
  O  O43  1  0.65624000  0.45367100  0.40121600  1
  O  O44  1  0.25679000  0.55615800  0.92719500  1
  O  O45  1  0.32614600  0.32770500  0.40273800  1
  O  O46  1  0.61301700  0.99888300  0.38586600  1
  O  O47  1  0.05245500  0.45367100  0.79743000  1
  O  O48  1  0.88796600  0.97873500  0.90923100  1
  O  O49  1  0.54632900  0.94754500  0.20257000  1
  O  O50  1  0.62896300  0.32959500  0.07280500  1
  O  O51  1  0.96320200  0.78191600  0.56722700  1
  O  O52  1  0.00920400  0.67458100  0.83771200  1
  O  O53  1  0.77284900  0.38698300  0.38586600  1
  O  O54  1  0.85242200  0.55705900  0.91118000  1
  O  O55  1  0.44294100  0.35412000  0.29536300  1
  O  O56  1  0.64588000  0.94124300  0.08882000  1
  O  O57  1  0.67229500  0.07503300  0.99844100  1
  O  O58  1  0.60402400  0.78531000  0.56722700  1
  O  O59  1  0.05380000  0.94620000  0.50000000  1
  O  O60  1  0.80240500  0.78603500  0.77975800  1
  O  O61  1  0.82850800  0.16313100  0.83771200  1
  O  O62  1  0.85242200  0.94124300  0.29536300  1
  O  O63  1  0.00627600  0.02264600  0.22024200  1
  O  O64  1  0.04015500  0.73363000  0.69347500  1
  O  O65  1  0.32614600  0.92340800  0.99844100  1
  O  O66  1  0.64588000  0.55705900  0.70463700  1
  O  O67  1  0.32541900  0.99079600  0.16228800  1
  O  O68  1  0.68245500  0.97824900  0.53769900  1
  O  O69  1  0.44055000  0.97824900  0.29579400  1
  O  O70  1  0.32541900  0.16313100  0.33462300  1
  O  O71  1  0.33494400  0.39230100  0.57049200  1
  O  O72  1  0.92496700  0.92340800  0.59726200  1
  O  O73  1  0.21808400  0.78531000  0.18128600  1
  O  O74  1  0.05380000  0.55380000  0.10760000  1
  O  O75  1  0.74497600  0.94754500  0.40121600  1
  O  O76  1  0.57940100  0.36337700  0.21602400  1
  O  O77  1  0.25679000  0.32959500  0.70063200  1
  O  O78  1  0.74497600  0.34376000  0.79743000  1
  O  O79  1  0.83826800  0.33826800  0.67653600  1
  O  O80  1  0.96320200  0.39597600  0.18128600  1
  O  O81  1  0.26637000  0.95984500  0.30652500  1
  O  O82  1  0.67229500  0.67385400  0.59726200  1
  O  O83  1  0.67040500  0.37103700  0.92719500  1
  O  O84  1  0.60769900  0.17819100  0.94264300  1
  O  O85  1  0.60769900  0.66505600  0.42950800  1
  O  O86  1  0.85524400  0.31754500  0.29579400  1
  O  O87  1  0.44055000  0.14475600  0.46230100  1
  O  O88  1  0.85524400  0.55945000  0.53769900  1
  O  O89  1  0.63662300  0.42059900  0.78397600  1
  O  O90  1  0.44294100  0.14757800  0.08882000  1
  O  O91  1  0.00111700  0.38698300  0.61413400  1
  O  O92  1  0.33494400  0.76445200  0.94264300  1
  O  O93  1  0.44620000  0.94620000  0.89240000  1
  O  O94  1  0.83686900  0.67458100  0.66537700  1
  O  O95  1  0.06950400  0.97873500  0.09076900  1
loop_
_geom_bond_atom_site_label_1
_geom_bond_atom_site_label_2
_geom_bond_distance
_geom_bond_site_symmetry_2
O0 Si38 1.623024 1_555
O0 Si21 1.626506 1_555
O1 Si0 1.623139 1_455
O1 Si9 1.623148 1_555
O2 Si30 1.619055 1_455
O2 Si16 1.626245 1_555
O3 Si39 1.624811 1_565
O3 Si20 1.625346 1_555
O4 Si10 1.623204 1_555
O4 Si17 1.625319 1_555
O5 Si37 1.619773 1_454
O5 Si41 1.623742 1_555
O6 Si3 1.624462 1_555
O6 Si6 1.624473 1_555
O7 Si13 1.629482 1_455
O7 Si29 1.629931 1_555
O8 Si13 1.622865 1_555
O8 Si15 1.622865 1_555
O9 Si37 1.624825 1_455
O9 Si22 1.625346 1_556
O10 Si4 1.621296 1_555
O10 Si2 1.621296 1_555
O11 Si35 1.624331 1_555
O11 Si26 1.629711 1_555
O12 Si8 1.619698 1_555
O12 Si18 1.621957 1_555
O13 Si27 1.624825 1_565
O13 Si22 1.625346 1_555
O14 Si41 1.623016 1_555
O14 Si25 1.626506 1_555
O15 Si39 1.624331 1_565
O15 Si40 1.629709 1_555
O16 Si34 1.623204 1_555
O16 Si2 1.625336 1_555
O17 Si43 1.619773 1_455
O17 Si7 1.623733 1_555
O18 Si1 1.623024 1_555
O18 Si18 1.626502 1_555
O19 Si34 1.627746 1_555
O19 Si26 1.627758 1_455
O20 Si14 1.619693 1_555
O20 Si25 1.621945 1_555
O21 Si3 1.619061 1_555
O21 Si10 1.626232 1_555
O22 Si32 1.624816 1_555
O22 Si9 1.625346 1_555
O23 Si13 1.619051 1_455
O23 Si34 1.626245 1_555
O24 Si39 1.612480 1_455
O24 Si29 1.616741 1_555
O25 Si47 1.622861 1_555
O25 Si28 1.622873 1_555
O26 Si40 1.627746 1_555
O26 Si10 1.627758 1_565
O27 Si46 1.619773 1_554
O27 Si38 1.623733 1_555
O28 Si35 1.624825 1_555
O28 Si0 1.625346 1_555
O29 Si6 1.622861 1_555
O29 Si12 1.622861 1_555
O30 Si46 1.612471 1_455
O30 Si45 1.616761 1_555
O31 Si28 1.629450 1_555
O31 Si19 1.629925 1_555
O32 Si42 1.619687 1_555
O32 Si36 1.621950 1_555
O33 Si45 1.611903 1_555
O33 Si29 1.611912 1_555
O34 Si43 1.624331 1_455
O34 Si34 1.629709 1_555
O35 Si22 1.623139 1_556
O35 Si20 1.623146 1_455
O36 Si5 1.619687 1_555
O36 Si18 1.621950 1_555
O37 Si14 1.611903 1_555
O37 Si8 1.611912 1_555
O38 Si24 1.623192 1_555
O38 Si7 1.625327 1_555
O39 Si46 1.624825 1_555
O39 Si0 1.625346 1_556
O40 Si7 1.623024 1_555
O40 Si36 1.626502 1_555
O41 Si16 1.623205 1_555
O41 Si44 1.625327 1_555
O42 Si6 1.629469 1_555
O42 Si42 1.629931 1_555
O43 Si12 1.629469 1_555
O43 Si5 1.629931 1_555
O44 Si45 1.619693 1_555
O44 Si25 1.621945 1_556
O45 Si32 1.619773 1_555
O45 Si2 1.623722 1_555
O46 Si15 1.624460 1_565
O46 Si47 1.624473 1_565
O47 Si30 1.629456 1_455
O47 Si45 1.629926 1_555
O48 Si0 1.623139 1_566
O48 Si20 1.623148 1_555
O49 Si47 1.629456 1_565
O49 Si14 1.629926 1_555
O50 Si19 1.619693 1_555
O50 Si21 1.621945 1_555
O51 Si11 1.623192 1_555
O51 Si1 1.625327 1_555
O52 Si37 1.624331 1_455
O52 Si16 1.629709 1_555
O53 Si28 1.624462 1_555
O53 Si12 1.624473 1_555
O54 Si37 1.612484 1_555
O54 Si31 1.616749 1_555
O55 Si32 1.612480 1_555
O55 Si5 1.616753 1_555
O56 Si35 1.612471 1_565
O56 Si14 1.616761 1_555
O57 Si35 1.619773 1_556
O57 Si17 1.623733 1_555
O58 Si40 1.623204 1_555
O58 Si4 1.625336 1_555
O59 Si7 1.621300 1_565
O59 Si1 1.621300 1_455
O60 Si23 1.624816 1_555
O60 Si20 1.625346 1_555
O61 Si46 1.624331 1_555
O61 Si10 1.629711 1_555
O62 Si43 1.612480 1_565
O62 Si8 1.616741 1_555
O63 Si43 1.624811 1_455
O63 Si9 1.625346 1_555
O64 Si16 1.627746 1_555
O64 Si11 1.627757 1_455
O65 Si27 1.619773 1_566
O65 Si44 1.623742 1_555
O66 Si23 1.612480 1_555
O66 Si42 1.616753 1_555
O67 Si27 1.624331 1_565
O67 Si33 1.629709 1_555
O68 Si15 1.619051 1_565
O68 Si40 1.626245 1_555
O69 Si47 1.619055 1_565
O69 Si33 1.626245 1_555
O70 Si32 1.624331 1_555
O70 Si24 1.629695 1_555
O71 Si2 1.623024 1_555
O71 Si36 1.626493 1_555
O72 Si39 1.619773 1_565
O72 Si1 1.623733 1_555
O73 Si33 1.623205 1_555
O73 Si41 1.625327 1_555
O74 Si41 1.621290 1_555
O74 Si38 1.621300 1_455
O75 Si15 1.629482 1_565
O75 Si8 1.629931 1_555
O76 Si5 1.611903 1_555
O76 Si19 1.611914 1_555
O77 Si29 1.619698 1_555
O77 Si36 1.621957 1_555
O78 Si3 1.629450 1_555
O78 Si31 1.629925 1_555
O79 Si30 1.622861 1_555
O79 Si3 1.622873 1_555
O80 Si26 1.623204 1_555
O80 Si38 1.625319 1_555
O81 Si33 1.627746 1_555
O81 Si24 1.627757 1_565
O82 Si23 1.619773 1_555
O82 Si4 1.623722 1_555
O83 Si31 1.619693 1_555
O83 Si21 1.621945 1_556
O84 Si17 1.623024 1_555
O84 Si21 1.626506 1_556
O85 Si4 1.623024 1_555
O85 Si18 1.626493 1_555
O86 Si28 1.619061 1_555
O86 Si26 1.626232 1_555
O87 Si6 1.619055 1_555
O87 Si24 1.626249 1_555
O88 Si12 1.619055 1_555
O88 Si11 1.626249 1_555
O89 Si42 1.611903 1_555
O89 Si31 1.611914 1_555
O90 Si27 1.612484 1_555
O90 Si19 1.616749 1_555
O91 Si13 1.624460 1_455
O91 Si30 1.624473 1_455
O92 Si44 1.623016 1_555
O92 Si25 1.626506 1_556
O93 Si44 1.621290 1_555
O93 Si17 1.621300 1_565
O94 Si23 1.624331 1_555
O94 Si11 1.629695 1_555
O95 Si22 1.623139 1_555
O95 Si9 1.623146 1_565
