# generated using pymatgen
data_Re3S4Br
_symmetry_space_group_name_H-M   'P 1'
_cell_length_a   11.59746925
_cell_length_b   6.41717382
_cell_length_c   11.24304214
_cell_angle_alpha   66.25458431
_cell_angle_beta   90.00000000
_cell_angle_gamma   90.00000000
_symmetry_Int_Tables_number   1
_chemical_formula_structural   Re3S4Br
_chemical_formula_sum   'Re12 S16 Br4'
_cell_volume   765.90528873
_cell_formula_units_Z   4
loop_
 _symmetry_equiv_pos_site_id
 _symmetry_equiv_pos_as_xyz
  1  'x, y, z'
loop_
 _atom_site_type_symbol
 _atom_site_label
 _atom_site_symmetry_multiplicity
 _atom_site_fract_x
 _atom_site_fract_y
 _atom_site_fract_z
 _atom_site_occupancy
  Re  Re0  1  0.52271778  0.30782815  0.43811091  1
  Re  Re1  1  0.43674834  0.03395829  0.34276705  1
  Re  Re2  1  0.35480778  0.03475492  0.55694519  1
  Re  Re3  1  0.47728222  0.69217185  0.56188909  1
  Re  Re4  1  0.02271778  0.69217185  0.06188909  1
  Re  Re5  1  0.97728222  0.30782815  0.93811091  1
  Re  Re6  1  0.56325166  0.96604171  0.65723295  1
  Re  Re7  1  0.06325166  0.03395829  0.84276705  1
  Re  Re8  1  0.64519222  0.96524508  0.44305481  1
  Re  Re9  1  0.93674834  0.96604171  0.15723295  1
  Re  Re10  1  0.85480778  0.96524508  0.94305481  1
  Re  Re11  1  0.14519222  0.03475492  0.05694519  1
  S  S0  1  0.66864003  0.65168650  0.65070842  1
  S  S1  1  0.55939910  0.72653021  0.34687246  1
  S  S2  1  0.94060090  0.72653021  0.84687246  1
  S  S3  1  0.28839799  0.77724345  0.46679279  1
  S  S4  1  0.78839799  0.22275655  0.03320721  1
  S  S5  1  0.90402028  0.28528329  0.74530707  1
  S  S6  1  0.09597972  0.71471671  0.25469293  1
  S  S7  1  0.71160201  0.22275655  0.53320721  1
  S  S8  1  0.05939910  0.27346979  0.15312754  1
  S  S9  1  0.44060090  0.27346979  0.65312754  1
  S  S10  1  0.40402028  0.71471671  0.75469293  1
  S  S11  1  0.33135997  0.34831350  0.34929158  1
  S  S12  1  0.16864003  0.34831350  0.84929158  1
  S  S13  1  0.59597972  0.28528329  0.24530707  1
  S  S14  1  0.83135997  0.65168650  0.15070842  1
  S  S15  1  0.21160201  0.77724345  0.96679279  1
  Br  Br0  1  0.64043650  0.90016013  0.88886315  1
  Br  Br1  1  0.85956350  0.90016013  0.38886315  1
  Br  Br2  1  0.35956350  0.09983987  0.11113685  1
  Br  Br3  1  0.14043650  0.09983987  0.61113685  1
loop_
_geom_bond_atom_site_label_1
_geom_bond_atom_site_label_2
_geom_bond_distance
_geom_bond_site_symmetry_2
Re0 S13 2.386281 1_555
Re0 S7 2.402026 1_555
Re0 S11 2.404351 1_555
Re0 S1 2.496574 1_555
Re0 S9 2.523954 1_555
Re1 S11 2.384913 1_555
Re1 S3 2.401744 1_545
Re1 S13 2.405989 1_555
Re1 S1 2.417466 1_545
Re2 S3 2.387510 1_545
Re2 S11 2.406259 1_555
Re2 S10 2.410257 1_545
Re2 S9 2.416632 1_555
Re3 S10 2.386281 1_555
Re3 S3 2.402026 1_555
Re3 S0 2.404351 1_555
Re3 S9 2.496574 1_555
Re3 S1 2.523954 1_555
Re4 S6 2.386281 1_555
Re4 S15 2.402026 1_554
Re4 S14 2.404351 1_455
Re4 S8 2.496574 1_555
Re4 S2 2.523954 1_454
Re5 S5 2.386281 1_555
Re5 S4 2.402026 1_556
Re5 S12 2.404351 1_655
Re5 S2 2.496574 1_555
Re5 S8 2.523954 1_656
Re6 S0 2.384913 1_555
Re6 S7 2.401744 1_565
Re6 S10 2.405989 1_555
Re6 S9 2.417466 1_565
Re7 S12 2.384913 1_555
Re7 S15 2.401744 1_545
Re7 S5 2.405989 1_455
Re7 S2 2.417466 1_445
Re8 S7 2.387510 1_565
Re8 S0 2.406259 1_555
Re8 S13 2.410257 1_565
Re8 S1 2.416632 1_555
Re9 S14 2.384913 1_555
Re9 S4 2.401744 1_565
Re9 S6 2.405989 1_655
Re9 S8 2.417466 1_665
Re10 S4 2.387510 1_566
Re10 S14 2.406259 1_556
Re10 S5 2.410257 1_565
Re10 S2 2.416632 1_555
Re11 S15 2.387510 1_544
Re11 S12 2.406259 1_554
Re11 S6 2.410257 1_545
Re11 S8 2.416632 1_555
Br0 Re6 2.622088 1_555
Br0 Re10 2.632796 1_555
Br1 Re9 2.622088 1_555
Br1 Re8 2.632796 1_555
Br2 Re1 2.622088 1_555
Br2 Re11 2.632796 1_555
Br3 Re7 2.622088 1_555
Br3 Re2 2.632796 1_555
