# generated using pymatgen
data_NaH6RuN(ClO)4
_symmetry_space_group_name_H-M   'P 1'
_cell_length_a   15.32111800
_cell_length_b   8.32480600
_cell_length_c   12.03623474
_cell_angle_alpha   81.44420568
_cell_angle_beta   90.00000000
_cell_angle_gamma   90.00000000
_symmetry_Int_Tables_number   1
_chemical_formula_structural   NaH6RuN(ClO)4
_chemical_formula_sum   'Na4 H24 Ru4 N4 Cl16 O16'
_cell_volume   1518.08143840
_cell_formula_units_Z   4
loop_
 _symmetry_equiv_pos_site_id
 _symmetry_equiv_pos_as_xyz
  1  'x, y, z'
loop_
 _atom_site_type_symbol
 _atom_site_label
 _atom_site_symmetry_multiplicity
 _atom_site_fract_x
 _atom_site_fract_y
 _atom_site_fract_z
 _atom_site_occupancy
  Na  Na0  1  0.60172900  0.70994200  0.38483300  1
  Na  Na1  1  0.89827100  0.20994200  0.88483300  1
  Na  Na2  1  0.39827100  0.29005800  0.61516700  1
  Na  Na3  1  0.10172900  0.79005800  0.11516700  1
  H  H0  1  0.81098100  0.01197900  0.21983000  1
  H  H1  1  0.68901900  0.51197900  0.71983000  1
  H  H2  1  0.18901900  0.98802100  0.78017000  1
  H  H3  1  0.31098100  0.48802100  0.28017000  1
  H  H4  1  0.19951200  0.36806900  0.40277800  1
  H  H5  1  0.30048800  0.86806900  0.90277800  1
  H  H6  1  0.80048800  0.63193100  0.59722200  1
  H  H7  1  0.69951200  0.13193100  0.09722200  1
  H  H8  1  0.20364000  0.45868200  0.39599400  1
  H  H9  1  0.29636000  0.95868200  0.89599400  1
  H  H10  1  0.79636000  0.54131800  0.60400600  1
  H  H11  1  0.70364000  0.04131800  0.10400600  1
  H  H12  1  0.46546300  0.17091200  0.29325200  1
  H  H13  1  0.03453700  0.67091200  0.79325200  1
  H  H14  1  0.53453700  0.82908800  0.70674800  1
  H  H15  1  0.96546300  0.32908800  0.20674800  1
  H  H16  1  0.24616600  0.93318400  0.28420700  1
  H  H17  1  0.25383400  0.43318400  0.78420700  1
  H  H18  1  0.75383400  0.06681600  0.71579300  1
  H  H19  1  0.74616600  0.56681600  0.21579300  1
  H  H20  1  0.00092100  0.54235900  0.48389000  1
  H  H21  1  0.49907900  0.04235900  0.98389000  1
  H  H22  1  0.99907900  0.45764100  0.51611000  1
  H  H23  1  0.50092100  0.95764100  0.01611000  1
  Ru  Ru0  1  0.38647600  0.44813900  0.20103200  1
  Ru  Ru1  1  0.11352400  0.94813900  0.70103200  1
  Ru  Ru2  1  0.61352400  0.55186100  0.79896800  1
  Ru  Ru3  1  0.88647600  0.05186100  0.29896800  1
  N  N0  1  0.46893400  0.62046100  0.19705200  1
  N  N1  1  0.03106600  0.12046100  0.69705200  1
  N  N2  1  0.53106600  0.37953900  0.80294800  1
  N  N3  1  0.96893400  0.87953900  0.30294800  1
  Cl  Cl0  1  0.43743000  0.34228600  0.39202100  1
  Cl  Cl1  1  0.06257000  0.84228600  0.89202100  1
  Cl  Cl2  1  0.56257000  0.65771400  0.60797900  1
  Cl  Cl3  1  0.93743000  0.15771400  0.10797900  1
  Cl  Cl4  1  0.26511800  0.83094300  0.21719600  1
  Cl  Cl5  1  0.23488200  0.33094300  0.71719600  1
  Cl  Cl6  1  0.73488200  0.16905700  0.78280400  1
  Cl  Cl7  1  0.76511800  0.66905700  0.28280400  1
  Cl  Cl8  1  0.29683000  0.53242200  0.05084600  1
  Cl  Cl9  1  0.20317000  0.03242200  0.55084600  1
  Cl  Cl10  1  0.70317000  0.46757800  0.94915400  1
  Cl  Cl11  1  0.79683000  0.96757800  0.44915400  1
  Cl  Cl12  1  0.45924800  0.14537600  0.18709200  1
  Cl  Cl13  1  0.04075200  0.64537600  0.68709200  1
  Cl  Cl14  1  0.54075200  0.85462400  0.81290800  1
  Cl  Cl15  1  0.95924800  0.35462400  0.31290800  1
  O  O0  1  0.64958300  0.36687900  0.41516800  1
  O  O1  1  0.85041700  0.86687900  0.91516800  1
  O  O2  1  0.35041700  0.63312100  0.58483200  1
  O  O3  1  0.14958300  0.13312100  0.08483200  1
  O  O4  1  0.51317900  0.62838300  0.10884100  1
  O  O5  1  0.98682100  0.12838300  0.60884100  1
  O  O6  1  0.48682100  0.37161700  0.89115900  1
  O  O7  1  0.01317900  0.87161700  0.39115900  1
  O  O8  1  0.62569200  0.23500900  0.46832700  1
  O  O9  1  0.87430800  0.73500900  0.96832700  1
  O  O10  1  0.37430800  0.76499100  0.53167300  1
  O  O11  1  0.12569200  0.26499100  0.03167300  1
  O  O12  1  0.01506100  0.20641600  0.77273000  1
  O  O13  1  0.48493900  0.70641600  0.27273000  1
  O  O14  1  0.98493900  0.79358400  0.22727000  1
  O  O15  1  0.51506100  0.29358400  0.72727000  1
loop_
_geom_bond_atom_site_label_1
_geom_bond_atom_site_label_2
_geom_bond_distance
_geom_bond_site_symmetry_2
Na0 O13 2.243889 1_555
Na0 O0 2.918381 1_555
Na1 O12 2.243889 1_655
Na1 O1 2.918381 1_545
Na2 O15 2.243889 1_555
Na2 O2 2.918381 1_555
Na3 O14 2.243889 1_455
Na3 O3 2.918381 1_565
H0 Ru3 1.565091 1_555
H1 Ru2 1.565091 1_555
H2 Ru1 1.565091 1_555
H3 Ru0 1.565091 1_555
H4 H8 0.749241 1_555
H5 H9 0.749241 1_555
H10 H6 0.749241 1_555
H11 H7 0.749241 1_555
H20 H22 0.753129 1_455
H21 H23 0.753129 1_546
N0 O4 1.253119 1_555
N0 O13 1.263246 1_555
N0 Ru0 1.906783 1_555
N1 O5 1.253119 1_455
N1 O12 1.263246 1_555
N1 Ru1 1.906783 1_545
N2 O6 1.253119 1_555
N2 O15 1.263246 1_555
N2 Ru2 1.906783 1_555
N3 O7 1.253119 1_655
N3 O14 1.263246 1_555
N3 Ru3 1.906783 1_565
Cl0 H12 2.034138 1_555
Cl0 Ru0 2.463263 1_555
Cl0 Na2 2.723096 1_555
Cl1 H13 2.034138 1_555
Cl1 Ru1 2.463263 1_555
Cl1 Na3 2.723096 1_556
Cl2 H14 2.034138 1_555
Cl2 Ru2 2.463263 1_555
Cl2 Na0 2.723096 1_555
Cl3 H15 2.034138 1_555
Cl3 Ru3 2.463263 1_555
Cl3 Na1 2.723096 1_554
Cl4 H16 1.289786 1_555
Cl4 Na3 2.831047 1_555
Cl5 H17 1.289786 1_555
Cl5 Na2 2.831047 1_555
Cl6 H18 1.289786 1_555
Cl6 Na1 2.831047 1_555
Cl7 H19 1.289786 1_555
Cl7 Na0 2.831047 1_555
Cl8 Ru0 2.295438 1_555
Cl9 Ru1 2.295438 1_545
Cl10 Ru2 2.295438 1_555
Cl11 Ru3 2.295438 1_565
Cl12 H12 1.329574 1_555
Cl13 H13 1.329574 1_555
Cl14 H14 1.329574 1_555
Cl15 H15 1.329574 1_555
O0 O8 1.240775 1_555
O1 O9 1.240775 1_555
O10 O2 1.240775 1_555
O11 O3 1.240775 1_555
