# generated using pymatgen
data_ReC5IO5
_symmetry_space_group_name_H-M   'P 1'
_cell_length_a   6.78063484
_cell_length_b   6.78063484
_cell_length_c   10.99374300
_cell_angle_alpha   90.00000000
_cell_angle_beta   90.00000000
_cell_angle_gamma   110.32517841
_symmetry_Int_Tables_number   1
_chemical_formula_structural   ReC5IO5
_chemical_formula_sum   'Re2 C10 I2 O10'
_cell_volume   473.98768878
_cell_formula_units_Z   2
loop_
 _symmetry_equiv_pos_site_id
 _symmetry_equiv_pos_as_xyz
  1  'x, y, z'
loop_
 _atom_site_type_symbol
 _atom_site_label
 _atom_site_symmetry_multiplicity
 _atom_site_fract_x
 _atom_site_fract_y
 _atom_site_fract_z
 _atom_site_occupancy
  Re  Re0  1  0.14006600  0.85993400  0.75000000  1
  Re  Re1  1  0.85993400  0.14006600  0.25000000  1
  C  C0  1  0.68252300  0.94648500  0.12207400  1
  C  C1  1  0.31747700  0.05351500  0.62207400  1
  C  C2  1  0.68403600  0.31596400  0.25000000  1
  C  C3  1  0.05351500  0.31747700  0.37792600  1
  C  C4  1  0.94648500  0.68252300  0.62207400  1
  C  C5  1  0.31596400  0.68403600  0.75000000  1
  C  C6  1  0.94648500  0.68252300  0.87792600  1
  C  C7  1  0.05351500  0.31747700  0.12207400  1
  C  C8  1  0.31747700  0.05351500  0.87792600  1
  C  C9  1  0.68252300  0.94648500  0.37792600  1
  I  I0  1  0.11549600  0.88450400  0.25000000  1
  I  I1  1  0.88450400  0.11549600  0.75000000  1
  O  O0  1  0.41886000  0.16708300  0.54988000  1
  O  O1  1  0.83291700  0.58114000  0.95012000  1
  O  O2  1  0.58114000  0.83291700  0.45012000  1
  O  O3  1  0.42042200  0.57957800  0.75000000  1
  O  O4  1  0.58114000  0.83291700  0.04988000  1
  O  O5  1  0.16708300  0.41886000  0.04988000  1
  O  O6  1  0.57957800  0.42042200  0.25000000  1
  O  O7  1  0.83291700  0.58114000  0.54988000  1
  O  O8  1  0.41886000  0.16708300  0.95012000  1
  O  O9  1  0.16708300  0.41886000  0.45012000  1
loop_
_geom_bond_atom_site_label_1
_geom_bond_atom_site_label_2
_geom_bond_distance
_geom_bond_site_symmetry_2
C0 O4 1.152281 1_555
C0 Re1 2.012716 1_565
C1 O0 1.152281 1_555
C1 Re0 2.012716 1_545
C2 O6 1.162698 1_555
C2 Re1 1.957880 1_555
C3 O9 1.152281 1_555
C3 Re1 2.012716 1_455
C4 O7 1.152281 1_555
C4 Re0 2.012716 1_655
C5 O3 1.162698 1_555
C5 Re0 1.957880 1_555
C6 O1 1.152281 1_555
C6 Re0 2.012716 1_655
C7 O5 1.152281 1_555
C7 Re1 2.012716 1_455
C8 O8 1.152281 1_555
C8 Re0 2.012716 1_545
C9 O2 1.152281 1_555
C9 Re1 2.012716 1_565
I0 Re1 2.844602 1_465
I1 Re0 2.844602 1_645
