# generated using pymatgen
data_LaReB
_symmetry_space_group_name_H-M   'P 1'
_cell_length_a   4.31049324
_cell_length_b   4.31049324
_cell_length_c   4.31049324
_cell_angle_alpha   60.00000000
_cell_angle_beta   60.00000000
_cell_angle_gamma   60.00000000
_symmetry_Int_Tables_number   1
_chemical_formula_structural   LaReB
_chemical_formula_sum   'La1 Re1 B1'
_cell_volume   56.63252261
_cell_formula_units_Z   1
loop_
 _symmetry_equiv_pos_site_id
 _symmetry_equiv_pos_as_xyz
  1  'x, y, z'
loop_
 _atom_site_type_symbol
 _atom_site_label
 _atom_site_symmetry_multiplicity
 _atom_site_fract_x
 _atom_site_fract_y
 _atom_site_fract_z
 _atom_site_occupancy
  La  La0  1  0.50000000  0.50000000  0.50000000  1
  Re  Re0  1  0.75000000  0.75000000  0.75000000  1
  B  B0  1  0.00000000  0.00000000  0.00000000  1
loop_
_geom_bond_atom_site_label_1
_geom_bond_atom_site_label_2
_geom_bond_distance
_geom_bond_site_symmetry_2
La0 Re0 2.639627 1_554
La0 Re0 2.639627 1_555
La0 Re0 2.639627 1_545
La0 Re0 2.639627 1_455
B0 Re0 2.639627 1_445
B0 Re0 2.639627 1_444
B0 Re0 2.639627 1_544
B0 Re0 2.639627 1_454
B0 La0 3.047979 1_544
B0 La0 3.047979 1_445
B0 La0 3.047979 1_455
B0 La0 3.047979 1_454
B0 La0 3.047979 1_545
B0 La0 3.047979 1_554
