# generated using pymatgen
data_CeB2Rh2C
_symmetry_space_group_name_H-M   'P 1'
_cell_length_a   5.78775437
_cell_length_b   5.78775437
_cell_length_c   5.78775437
_cell_angle_alpha   141.03016219
_cell_angle_beta   141.03016219
_cell_angle_gamma   56.29243333
_symmetry_Int_Tables_number   1
_chemical_formula_structural   CeB2Rh2C
_chemical_formula_sum   'Ce1 B2 Rh2 C1'
_cell_volume   76.08143695
_cell_formula_units_Z   1
loop_
 _symmetry_equiv_pos_site_id
 _symmetry_equiv_pos_as_xyz
  1  'x, y, z'
loop_
 _atom_site_type_symbol
 _atom_site_label
 _atom_site_symmetry_multiplicity
 _atom_site_fract_x
 _atom_site_fract_y
 _atom_site_fract_z
 _atom_site_occupancy
  Ce  Ce0  1  0.00000000  0.00000000  0.00000000  1
  B  B0  1  0.35257900  0.35257900  0.00000000  1
  B  B1  1  0.64742100  0.64742100  0.00000000  1
  Rh  Rh0  1  0.25000000  0.75000000  0.50000000  1
  Rh  Rh1  1  0.75000000  0.25000000  0.50000000  1
  C  C0  1  0.50000000  0.50000000  0.00000000  1
loop_
_geom_bond_atom_site_label_1
_geom_bond_atom_site_label_2
_geom_bond_distance
_geom_bond_site_symmetry_2
B0 C0 1.504677 1_555
B0 Rh0 2.196186 1_555
B0 Rh0 2.196186 1_544
B0 Rh1 2.196186 1_555
B0 Rh1 2.196186 1_454
B1 C0 1.504677 1_555
B1 Rh0 2.196186 1_554
B1 Rh0 2.196186 1_655
B1 Rh1 2.196186 1_554
B1 Rh1 2.196186 1_565
C0 Ce0 2.730218 1_554
C0 Ce0 2.730218 1_666
C0 Ce0 2.730218 1_565
C0 Ce0 2.730218 1_655
