# generated using pymatgen
data_Gd3RuO7
_symmetry_space_group_name_H-M   'P 1'
_cell_length_a   7.44050000
_cell_length_b   10.66609700
_cell_length_c   14.78366000
_cell_angle_alpha   90.00000000
_cell_angle_beta   90.00000000
_cell_angle_gamma   90.00000000
_symmetry_Int_Tables_number   1
_chemical_formula_structural   Gd3RuO7
_chemical_formula_sum   'Gd24 Ru8 O56'
_cell_volume   1173.24744169
_cell_formula_units_Z   8
loop_
 _symmetry_equiv_pos_site_id
 _symmetry_equiv_pos_as_xyz
  1  'x, y, z'
loop_
 _atom_site_type_symbol
 _atom_site_label
 _atom_site_symmetry_multiplicity
 _atom_site_fract_x
 _atom_site_fract_y
 _atom_site_fract_z
 _atom_site_occupancy
  Gd  Gd0  1  0.25000200  0.72943500  0.47194700  1
  Gd  Gd1  1  0.74310900  0.71736600  0.27283300  1
  Gd  Gd2  1  0.24999800  0.72943500  0.97194700  1
  Gd  Gd3  1  0.24310900  0.21736600  0.22716700  1
  Gd  Gd4  1  0.25689100  0.21736600  0.72716700  1
  Gd  Gd5  1  0.75000200  0.22943500  0.02805300  1
  Gd  Gd6  1  0.75530800  0.26950600  0.77745900  1
  Gd  Gd7  1  0.75689100  0.71736600  0.77283300  1
  Gd  Gd8  1  0.76359600  0.77984100  0.02155500  1
  Gd  Gd9  1  0.00362500  0.00724300  0.38865000  1
  Gd  Gd10  1  0.25530800  0.76950600  0.72254100  1
  Gd  Gd11  1  0.50362500  0.50724300  0.11135000  1
  Gd  Gd12  1  0.00415100  0.49068300  0.13836800  1
  Gd  Gd13  1  0.24469200  0.76950600  0.22254100  1
  Gd  Gd14  1  0.50415100  0.99068300  0.36163200  1
  Gd  Gd15  1  0.99637500  0.50724300  0.61135000  1
  Gd  Gd16  1  0.26359600  0.27984100  0.47844500  1
  Gd  Gd17  1  0.74469200  0.26950600  0.27745900  1
  Gd  Gd18  1  0.73640400  0.77984100  0.52155500  1
  Gd  Gd19  1  0.99584900  0.99068300  0.86163200  1
  Gd  Gd20  1  0.49584900  0.49068300  0.63836800  1
  Gd  Gd21  1  0.74999800  0.22943500  0.52805300  1
  Gd  Gd22  1  0.23640400  0.27984100  0.97844500  1
  Gd  Gd23  1  0.49637500  0.00724300  0.88865000  1
  Ru  Ru0  1  0.49748300  0.49975700  0.37302400  1
  Ru  Ru1  1  0.99748300  0.99975700  0.12697600  1
  Ru  Ru2  1  0.99844900  0.49816600  0.37558800  1
  Ru  Ru3  1  0.00251700  0.49975700  0.87302400  1
  Ru  Ru4  1  0.49844900  0.99816600  0.12441200  1
  Ru  Ru5  1  0.00155100  0.99816600  0.62441200  1
  Ru  Ru6  1  0.50251700  0.99975700  0.62697600  1
  Ru  Ru7  1  0.50155100  0.49816600  0.87558800  1
  O  O0  1  0.95732000  0.62674400  0.46893100  1
  O  O1  1  0.26653900  0.63384200  0.60574000  1
  O  O2  1  0.73346100  0.13384200  0.39426000  1
  O  O3  1  0.26504200  0.36859000  0.11873300  1
  O  O4  1  0.23346100  0.63384200  0.10574000  1
  O  O5  1  0.03714900  0.36806200  0.27985900  1
  O  O6  1  0.95892400  0.10564500  0.23728900  1
  O  O7  1  0.54268000  0.62674400  0.96893100  1
  O  O8  1  0.04268000  0.12674400  0.53106900  1
  O  O9  1  0.54107600  0.10564500  0.73728900  1
  O  O10  1  0.46583800  0.87127300  0.02950600  1
  O  O11  1  0.23495800  0.36859000  0.61873300  1
  O  O12  1  0.45892400  0.60564500  0.26271100  1
  O  O13  1  0.46285100  0.36806200  0.77985900  1
  O  O14  1  0.53714900  0.86806200  0.22014100  1
  O  O15  1  0.95988600  0.39627500  0.98465500  1
  O  O16  1  0.96468400  0.12389000  0.71985400  1
  O  O17  1  0.74134200  0.63007300  0.63138400  1
  O  O18  1  0.03416200  0.87127300  0.52950600  1
  O  O19  1  0.45732000  0.12674400  0.03106900  1
  O  O20  1  0.24134200  0.13007300  0.86861600  1
  O  O21  1  0.95595000  0.65610400  0.93810200  1
  O  O22  1  0.75099400  0.49095800  0.83070300  1
  O  O23  1  0.25099400  0.99095800  0.66929700  1
  O  O24  1  0.76242100  0.36603600  0.64389000  1
  O  O25  1  0.95089500  0.84862700  0.19418800  1
  O  O26  1  0.04107600  0.60564500  0.76271100  1
  O  O27  1  0.53416200  0.37127300  0.97049400  1
  O  O28  1  0.54011400  0.39627500  0.48465500  1
  O  O29  1  0.25114900  0.50737600  0.91898400  1
  O  O30  1  0.96583800  0.37127300  0.47049400  1
  O  O31  1  0.74885100  0.00737600  0.08101600  1
  O  O32  1  0.04910500  0.34862700  0.80581200  1
  O  O33  1  0.24900600  0.99095800  0.16929700  1
  O  O34  1  0.03531600  0.62389000  0.28014600  1
  O  O35  1  0.54405000  0.65610400  0.43810200  1
  O  O36  1  0.75865800  0.63007300  0.13138400  1
  O  O37  1  0.73495800  0.86859000  0.88126700  1
  O  O38  1  0.45988600  0.89627500  0.51534500  1
  O  O39  1  0.26242100  0.86603500  0.85611000  1
  O  O40  1  0.04405000  0.15610400  0.06189800  1
  O  O41  1  0.45595000  0.15610400  0.56189800  1
  O  O42  1  0.25865800  0.13007300  0.36861600  1
  O  O43  1  0.74900600  0.49095800  0.33070300  1
  O  O44  1  0.96285100  0.86806200  0.72014100  1
  O  O45  1  0.24885100  0.50737600  0.41898400  1
  O  O46  1  0.53531600  0.12389000  0.21985400  1
  O  O47  1  0.54910500  0.84862700  0.69418800  1
  O  O48  1  0.04011400  0.89627500  0.01534500  1
  O  O49  1  0.76653900  0.13384200  0.89426000  1
  O  O50  1  0.23757900  0.86603500  0.35611000  1
  O  O51  1  0.46468400  0.62389000  0.78014600  1
  O  O52  1  0.73757900  0.36603600  0.14389000  1
  O  O53  1  0.75114900  0.00737600  0.58101600  1
  O  O54  1  0.45089500  0.34862700  0.30581200  1
  O  O55  1  0.76504200  0.86859000  0.38126700  1
loop_
_geom_bond_atom_site_label_1
_geom_bond_atom_site_label_2
_geom_bond_distance
_geom_bond_site_symmetry_2
Gd0 O1 2.228681 1_555
Gd0 O50 2.250333 1_555
Gd0 O18 2.364725 1_555
Gd0 O35 2.376735 1_555
Gd0 O0 2.438048 1_455
Gd0 O38 2.452975 1_555
Gd0 O45 2.494584 1_555
Gd1 O55 2.279929 1_555
Gd1 O36 2.291970 1_555
Gd1 O14 2.353452 1_555
Gd1 O25 2.387910 1_555
Gd1 O34 2.394315 1_655
Gd1 O12 2.431746 1_555
Gd1 O43 2.562333 1_555
Gd1 O35 2.930911 1_555
Gd2 O4 2.228681 1_556
Gd2 O39 2.250333 1_555
Gd2 O10 2.364725 1_556
Gd2 O21 2.376735 1_455
Gd2 O7 2.438048 1_555
Gd2 O48 2.452975 1_556
Gd2 O29 2.494584 1_555
Gd3 O3 2.279929 1_555
Gd3 O42 2.291970 1_555
Gd3 O5 2.353452 1_555
Gd3 O54 2.387910 1_555
Gd3 O46 2.394315 1_555
Gd3 O6 2.431746 1_455
Gd3 O33 2.562333 1_545
Gd3 O40 2.930911 1_555
Gd4 O11 2.279929 1_555
Gd4 O20 2.291970 1_555
Gd4 O13 2.353452 1_555
Gd4 O32 2.387910 1_555
Gd4 O16 2.394315 1_455
Gd4 O9 2.431746 1_555
Gd4 O23 2.562333 1_545
Gd4 O41 2.930911 1_555
Gd5 O49 2.228681 1_554
Gd5 O52 2.250340 1_555
Gd5 O27 2.364725 1_554
Gd5 O40 2.376735 1_655
Gd5 O19 2.438048 1_555
Gd5 O15 2.452975 1_554
Gd5 O31 2.494584 1_555
Gd6 O24 2.227571 1_555
Gd6 O49 2.254431 1_555
Gd6 O16 2.358912 1_555
Gd6 O32 2.380434 1_655
Gd6 O13 2.416896 1_555
Gd6 O9 2.438881 1_555
Gd6 O22 2.489940 1_555
Gd7 O37 2.279929 1_555
Gd7 O17 2.291970 1_555
Gd7 O44 2.353452 1_555
Gd7 O47 2.387910 1_555
Gd7 O51 2.394315 1_555
Gd7 O26 2.431746 1_655
Gd7 O22 2.562333 1_555
Gd7 O21 2.930911 1_555
Gd8 O36 2.278044 1_555
Gd8 O37 2.289720 1_554
Gd8 O21 2.304848 1_554
Gd8 O48 2.404945 1_655
Gd8 O10 2.423464 1_555
Gd8 O7 2.444094 1_554
Gd8 O31 2.583537 1_565
Gd9 O55 2.313065 1_445
Gd9 O42 2.324846 1_555
Gd9 O50 2.351601 1_545
Gd9 O2 2.423006 1_455
Gd9 O8 2.478324 1_555
Gd9 O6 2.493867 1_455
Gd9 O18 2.547775 1_545
Gd10 O39 2.227566 1_555
Gd10 O1 2.254431 1_555
Gd10 O51 2.358912 1_555
Gd10 O47 2.380434 1_555
Gd10 O44 2.416896 1_455
Gd10 O26 2.438881 1_555
Gd10 O23 2.489940 1_555
Gd11 O3 2.313065 1_555
Gd11 O36 2.324846 1_555
Gd11 O52 2.351594 1_555
Gd11 O4 2.423006 1_555
Gd11 O7 2.478324 1_554
Gd11 O12 2.493867 1_555
Gd11 O27 2.547775 1_554
Gd12 O4 2.339935 1_555
Gd12 O3 2.355468 1_555
Gd12 O36 2.357437 1_455
Gd12 O52 2.389188 1_455
Gd12 O5 2.479171 1_555
Gd12 O15 2.507277 1_454
Gd12 O34 2.542763 1_555
Gd13 O50 2.227566 1_555
Gd13 O4 2.254431 1_555
Gd13 O34 2.358912 1_555
Gd13 O25 2.380434 1_455
Gd13 O14 2.416896 1_555
Gd13 O12 2.438881 1_555
Gd13 O33 2.489940 1_555
Gd14 O2 2.339935 1_565
Gd14 O55 2.355468 1_555
Gd14 O42 2.357437 1_565
Gd14 O50 2.389193 1_555
Gd14 O14 2.479171 1_555
Gd14 O38 2.507277 1_555
Gd14 O46 2.542763 1_565
Gd15 O11 2.313065 1_655
Gd15 O17 2.324846 1_555
Gd15 O24 2.351594 1_555
Gd15 O1 2.423006 1_655
Gd15 O0 2.478324 1_555
Gd15 O26 2.493867 1_655
Gd15 O30 2.547775 1_555
Gd16 O42 2.278044 1_555
Gd16 O11 2.289720 1_555
Gd16 O41 2.304848 1_555
Gd16 O28 2.404945 1_555
Gd16 O30 2.423464 1_455
Gd16 O8 2.444094 1_555
Gd16 O45 2.583537 1_555
Gd17 O52 2.227571 1_555
Gd17 O2 2.254431 1_555
Gd17 O46 2.358912 1_555
Gd17 O54 2.380434 1_555
Gd17 O5 2.416896 1_655
Gd17 O6 2.438881 1_555
Gd17 O43 2.489940 1_555
Gd18 O17 2.278044 1_555
Gd18 O55 2.289720 1_555
Gd18 O35 2.304848 1_555
Gd18 O38 2.404945 1_555
Gd18 O18 2.423464 1_655
Gd18 O0 2.444094 1_555
Gd18 O53 2.583537 1_565
Gd19 O49 2.339935 1_565
Gd19 O37 2.355468 1_555
Gd19 O20 2.357437 1_665
Gd19 O39 2.389193 1_655
Gd19 O44 2.479171 1_555
Gd19 O48 2.507277 1_656
Gd19 O16 2.542763 1_565
Gd20 O1 2.339935 1_555
Gd20 O11 2.355468 1_555
Gd20 O17 2.357437 1_555
Gd20 O24 2.389188 1_555
Gd20 O13 2.479171 1_555
Gd20 O28 2.507277 1_555
Gd20 O51 2.542763 1_555
Gd21 O2 2.228681 1_555
Gd21 O24 2.250340 1_555
Gd21 O30 2.364725 1_555
Gd21 O41 2.376735 1_555
Gd21 O8 2.438048 1_655
Gd21 O28 2.452975 1_555
Gd21 O53 2.494584 1_555
Gd22 O20 2.278044 1_555
Gd22 O3 2.289720 1_556
Gd22 O40 2.304848 1_556
Gd22 O15 2.404945 1_455
Gd22 O27 2.423464 1_555
Gd22 O19 2.444094 1_556
Gd22 O29 2.583537 1_555
Gd23 O37 2.313065 1_545
Gd23 O20 2.324846 1_555
Gd23 O39 2.351601 1_545
Gd23 O49 2.423006 1_555
Gd23 O19 2.478324 1_556
Gd23 O9 2.493867 1_555
Gd23 O10 2.547775 1_546
O0 Ru2 1.969447 1_555
O5 Ru2 2.002871 1_455
O6 Ru1 2.004367 1_545
O7 Ru7 1.969447 1_555
O8 Ru5 1.969447 1_545
O9 Ru6 2.004367 1_545
O10 Ru4 1.964506 1_555
O12 Ru0 2.004367 1_555
O13 Ru7 2.002871 1_555
O14 Ru4 2.002871 1_555
O15 Ru3 2.010576 1_655
O16 Ru5 1.965796 1_645
O18 Ru5 1.964506 1_555
O19 Ru4 1.969447 1_545
O21 Ru3 1.956170 1_655
O22 Ru7 1.972535 1_555
O22 Ru3 1.975502 1_655
O23 Ru5 1.972535 1_555
O23 Ru6 1.975502 1_555
O25 Ru1 1.925075 1_555
O26 Ru3 2.004367 1_555
O27 Ru7 1.964506 1_555
O28 Ru0 2.010576 1_555
O29 Ru3 1.972452 1_555
O29 Ru7 1.972927 1_555
O30 Ru2 1.964506 1_555
O31 Ru1 1.972452 1_545
O31 Ru4 1.972927 1_545
O32 Ru3 1.925075 1_555
O33 Ru4 1.972535 1_555
O33 Ru1 1.975502 1_455
O34 Ru2 1.965796 1_455
O35 Ru0 1.956170 1_555
O38 Ru6 2.010576 1_555
O40 Ru1 1.956170 1_445
O41 Ru6 1.956170 1_545
O43 Ru2 1.972535 1_555
O43 Ru0 1.975502 1_555
O44 Ru5 2.002871 1_655
O45 Ru0 1.972452 1_555
O45 Ru2 1.972927 1_455
O46 Ru4 1.965796 1_545
O47 Ru6 1.925075 1_555
O48 Ru1 2.010576 1_455
O51 Ru7 1.965796 1_555
O53 Ru6 1.972452 1_545
O53 Ru5 1.972927 1_645
O54 Ru0 1.925075 1_555
