# generated using pymatgen
data_Dy14(PbS8)3
_symmetry_space_group_name_H-M   'P 1'
_cell_length_a   7.30471635
_cell_length_b   7.30471635
_cell_length_c   18.86991683
_cell_angle_alpha   75.05478590
_cell_angle_beta   75.05478590
_cell_angle_gamma   70.09043212
_symmetry_Int_Tables_number   1
_chemical_formula_structural   Dy14(PbS8)3
_chemical_formula_sum   'Dy14 Pb3 S24'
_cell_volume   898.50109509
_cell_formula_units_Z   1
loop_
 _symmetry_equiv_pos_site_id
 _symmetry_equiv_pos_as_xyz
  1  'x, y, z'
loop_
 _atom_site_type_symbol
 _atom_site_label
 _atom_site_symmetry_multiplicity
 _atom_site_fract_x
 _atom_site_fract_y
 _atom_site_fract_z
 _atom_site_occupancy
  Dy  Dy0  1  0.79037600  0.29255200  0.80319700  1
  Dy  Dy1  1  0.81411500  0.82828600  0.96269900  1
  Dy  Dy2  1  0.13341300  0.61857800  0.12135500  1
  Dy  Dy3  1  0.38142200  0.86658700  0.87864500  1
  Dy  Dy4  1  0.45865900  0.96215300  0.46052200  1
  Dy  Dy5  1  0.16425800  0.17226900  0.28662400  1
  Dy  Dy6  1  0.17171400  0.18588500  0.03730100  1
  Dy  Dy7  1  0.70744800  0.20962400  0.19680300  1
  Dy  Dy8  1  0.20463200  0.45725900  0.83752400  1
  Dy  Dy9  1  0.49626700  0.49198900  0.62943100  1
  Dy  Dy10  1  0.50801100  0.50373300  0.37056900  1
  Dy  Dy11  1  0.03784700  0.54134100  0.53947800  1
  Dy  Dy12  1  0.54274100  0.79536800  0.16247600  1
  Dy  Dy13  1  0.82773100  0.83574200  0.71337600  1
  Pb  Pb0  1  0.95856500  0.71408100  0.33141100  1
  Pb  Pb1  1  0.28591900  0.04143500  0.66858900  1
  Pb  Pb2  1  0.87681900  0.12318100  0.50000000  1
  S  S0  1  0.04249500  0.16072500  0.91492400  1
  S  S1  1  0.51737100  0.16325000  0.91740100  1
  S  S2  1  0.37428500  0.50091900  0.24415000  1
  S  S3  1  0.41655500  0.80289100  0.03777600  1
  S  S4  1  0.85822700  0.49778300  0.24542500  1
  S  S5  1  0.83675000  0.48262900  0.08259900  1
  S  S6  1  0.76727600  0.62258100  0.86599700  1
  S  S7  1  0.03776100  0.90433100  0.80351700  1
  S  S8  1  0.69363100  0.81595200  0.58893400  1
  S  S9  1  0.19710900  0.58344500  0.96222400  1
  S  S10  1  0.74961500  0.13000100  0.36359900  1
  S  S11  1  0.19630100  0.81542400  0.58311400  1
  S  S12  1  0.18457600  0.80369900  0.41688600  1
  S  S13  1  0.09566900  0.96223900  0.19648300  1
  S  S14  1  0.37741900  0.23272400  0.13400300  1
  S  S15  1  0.83927500  0.95750500  0.08507600  1
  S  S16  1  0.53614100  0.91336100  0.29327100  1
  S  S17  1  0.08663900  0.46385900  0.70672900  1
  S  S18  1  0.50221700  0.14177300  0.75457500  1
  S  S19  1  0.41913200  0.29998000  0.53248100  1
  S  S20  1  0.70002000  0.58086800  0.46751900  1
  S  S21  1  0.18404800  0.30636900  0.41106600  1
  S  S22  1  0.86999900  0.25038500  0.63640100  1
  S  S23  1  0.49908100  0.62571500  0.75585000  1
loop_
_geom_bond_atom_site_label_1
_geom_bond_atom_site_label_2
_geom_bond_distance
_geom_bond_site_symmetry_2
Dy0 S1 2.743989 1_555
Dy0 S23 2.753319 1_555
Dy0 S7 2.795381 1_645
Dy0 S17 2.863648 1_655
Dy0 S6 2.887544 1_555
Dy0 S0 2.917450 1_655
Dy0 S18 3.095459 1_555
Dy0 S22 3.126222 1_555
Dy1 S9 2.759207 1_655
Dy1 S1 2.771427 1_565
Dy1 S15 2.778251 1_556
Dy1 S6 2.791253 1_555
Dy1 S5 2.912661 1_556
Dy1 S3 2.929901 1_556
Dy1 S7 3.037491 1_655
Dy1 S0 3.216676 1_665
Dy2 S15 2.734244 1_455
Dy2 S14 2.762069 1_555
Dy2 S3 2.774274 1_555
Dy2 S4 2.831182 1_455
Dy2 S5 2.979057 1_455
Dy2 S9 2.982384 1_554
Dy2 S2 3.041277 1_555
Dy2 S13 3.090344 1_555
Dy3 S0 2.734244 1_565
Dy3 S6 2.762069 1_555
Dy3 S9 2.774274 1_555
Dy3 S18 2.831182 1_565
Dy3 S1 2.979057 1_565
Dy3 S3 2.982384 1_556
Dy3 S23 3.041277 1_555
Dy3 S7 3.090344 1_555
Dy4 S20 2.732962 1_555
Dy4 S21 2.745372 1_565
Dy4 S10 2.824641 1_565
Dy4 S11 2.829553 1_555
Dy4 S12 2.991034 1_555
Dy4 S19 3.009597 1_565
Dy4 S8 3.085468 1_555
Dy4 S16 3.151070 1_555
Dy5 S16 2.743401 1_545
Dy5 S4 2.752869 1_455
Dy5 S13 2.794132 1_545
Dy5 S21 2.820017 1_555
Dy5 S14 2.900512 1_555
Dy5 S10 3.084715 1_455
Dy5 S2 3.105036 1_555
Dy5 S12 3.132902 1_545
Dy6 S3 2.759207 1_545
Dy6 S5 2.771427 1_455
Dy6 S0 2.778251 1_554
Dy6 S14 2.791253 1_555
Dy6 S1 2.912661 1_554
Dy6 S9 2.929901 1_554
Dy6 S13 3.037491 1_545
Dy6 S15 3.216676 1_445
Dy7 S5 2.743989 1_555
Dy7 S2 2.753319 1_555
Dy7 S13 2.795381 1_645
Dy7 S16 2.863648 1_545
Dy7 S14 2.887544 1_555
Dy7 S15 2.917450 1_545
Dy7 S4 3.095459 1_555
Dy7 S10 3.126222 1_555
Dy8 S9 2.721610 1_555
Dy8 S0 2.729672 1_555
Dy8 S23 2.762297 1_555
Dy8 S17 2.800754 1_555
Dy8 S6 2.962300 1_455
Dy8 S1 2.977908 1_555
Dy8 S7 3.028860 1_555
Dy8 S18 3.029829 1_555
Dy9 S22 2.714582 1_555
Dy9 S11 2.746610 1_555
Dy9 S23 2.808237 1_555
Dy9 S19 2.832828 1_555
Dy9 S18 2.997356 1_555
Dy9 S8 3.014161 1_555
Dy9 S17 3.022603 1_555
Dy9 S20 3.043172 1_555
Dy10 S10 2.714582 1_555
Dy10 S12 2.746610 1_555
Dy10 S2 2.808237 1_555
Dy10 S20 2.832828 1_555
Dy10 S4 2.997356 1_555
Dy10 S21 3.014161 1_555
Dy10 S16 3.022603 1_555
Dy10 S19 3.043172 1_555
Dy11 S19 2.732962 1_555
Dy11 S8 2.745372 1_455
Dy11 S22 2.824641 1_455
Dy11 S12 2.829553 1_555
Dy11 S11 2.991034 1_555
Dy11 S20 3.009597 1_455
Dy11 S21 3.085468 1_555
Dy11 S17 3.151070 1_555
Dy12 S3 2.721610 1_555
Dy12 S15 2.729672 1_555
Dy12 S2 2.762297 1_555
Dy12 S16 2.800754 1_555
Dy12 S14 2.962300 1_565
Dy12 S5 2.977908 1_555
Dy12 S13 3.028860 1_555
Dy12 S4 3.029829 1_555
Dy13 S17 2.743401 1_655
Dy13 S18 2.752869 1_565
Dy13 S7 2.794132 1_655
Dy13 S8 2.820017 1_555
Dy13 S6 2.900512 1_555
Dy13 S22 3.084715 1_565
Dy13 S23 3.105036 1_555
Dy13 S11 3.132902 1_655
Pb0 S13 2.883087 1_655
Pb0 S4 2.896662 1_555
Pb0 S12 2.899962 1_655
Pb0 S20 2.927592 1_555
Pb0 S10 3.040467 1_565
Pb0 S21 3.077179 1_655
Pb0 S16 3.115172 1_555
Pb0 S2 3.143314 1_655
Pb1 S7 2.883087 1_545
Pb1 S18 2.896662 1_555
Pb1 S11 2.899962 1_545
Pb1 S19 2.927592 1_555
Pb1 S22 3.040467 1_455
Pb1 S8 3.077179 1_545
Pb1 S17 3.115172 1_555
Pb1 S23 3.143314 1_545
Pb2 S8 2.930509 1_545
Pb2 S21 2.930509 1_655
Pb2 S22 2.937111 1_555
Pb2 S10 2.937111 1_555
Pb2 S11 3.075056 1_645
Pb2 S12 3.075056 1_645
Pb2 S20 3.103497 1_555
Pb2 S19 3.103497 1_555
