# generated using pymatgen
data_Yb2S3
_symmetry_space_group_name_H-M   'P 1'
_cell_length_a   6.94455288
_cell_length_b   6.94455288
_cell_length_c   5.72676643
_cell_angle_alpha   70.97380403
_cell_angle_beta   70.97380403
_cell_angle_gamma   105.47247066
_symmetry_Int_Tables_number   1
_chemical_formula_structural   Yb2S3
_chemical_formula_sum   'Yb4 S6'
_cell_volume   224.30037992
_cell_formula_units_Z   2
loop_
 _symmetry_equiv_pos_site_id
 _symmetry_equiv_pos_as_xyz
  1  'x, y, z'
loop_
 _atom_site_type_symbol
 _atom_site_label
 _atom_site_symmetry_multiplicity
 _atom_site_fract_x
 _atom_site_fract_y
 _atom_site_fract_z
 _atom_site_occupancy
  Yb  Yb0  1  0.56844300  0.83472400  0.79247700  1
  Yb  Yb1  1  0.43155700  0.16527600  0.20752300  1
  Yb  Yb2  1  0.83472400  0.56844300  0.29247700  1
  Yb  Yb3  1  0.16527600  0.43155700  0.70752300  1
  S  S0  1  0.18769100  0.43085900  0.20585600  1
  S  S1  1  0.88320800  0.11679200  0.25000000  1
  S  S2  1  0.56914100  0.81230900  0.29414400  1
  S  S3  1  0.81230900  0.56914100  0.79414400  1
  S  S4  1  0.11679200  0.88320800  0.75000000  1
  S  S5  1  0.43085900  0.18769100  0.70585600  1
loop_
_geom_bond_atom_site_label_1
_geom_bond_atom_site_label_2
_geom_bond_distance
_geom_bond_site_symmetry_2
S0 S1 2.474538 1_455
S0 Yb2 2.816588 1_455
S0 Yb1 2.816987 1_555
S0 Yb3 2.827699 1_555
S0 Yb0 2.845150 1_554
S0 Yb3 2.906830 1_554
S1 S2 2.474538 1_545
S1 Yb0 2.754369 1_545
S1 Yb3 2.754369 1_654
S2 Yb1 2.816588 1_565
S2 Yb2 2.816987 1_555
S2 Yb0 2.827699 1_554
S2 Yb3 2.845150 1_555
S2 Yb0 2.906830 1_555
S3 S4 2.474538 1_655
S3 Yb3 2.816588 1_655
S3 Yb0 2.816987 1_555
S3 Yb2 2.827699 1_555
S3 Yb1 2.845150 1_556
S3 Yb2 2.906830 1_556
S4 S5 2.474538 1_565
S4 Yb2 2.754369 1_456
S4 Yb1 2.754369 1_565
S5 Yb0 2.816588 1_545
S5 Yb3 2.816987 1_555
S5 Yb1 2.827699 1_556
S5 Yb2 2.845150 1_555
S5 Yb1 2.906830 1_555
