# generated using pymatgen
data_Ba3LiTa3Ti5O21
_symmetry_space_group_name_H-M   'P 1'
_cell_length_a   9.21835687
_cell_length_b   9.21835687
_cell_length_c   11.73045800
_cell_angle_alpha   90.00000000
_cell_angle_beta   90.00000000
_cell_angle_gamma   120.29334046
_symmetry_Int_Tables_number   1
_chemical_formula_structural   Ba3LiTa3Ti5O21
_chemical_formula_sum   'Ba6 Li2 Ta6 Ti10 O42'
_cell_volume   860.71882705
_cell_formula_units_Z   2
loop_
 _symmetry_equiv_pos_site_id
 _symmetry_equiv_pos_as_xyz
  1  'x, y, z'
loop_
 _atom_site_type_symbol
 _atom_site_label
 _atom_site_symmetry_multiplicity
 _atom_site_fract_x
 _atom_site_fract_y
 _atom_site_fract_z
 _atom_site_occupancy
  Ba  Ba0  1  0.59772500  0.00505000  0.25027600  1
  Ba  Ba1  1  0.40100000  0.40100000  0.24959000  1
  Ba  Ba2  1  0.59900000  0.59900000  0.74959000  1
  Ba  Ba3  1  0.99495000  0.40227500  0.75027600  1
  Ba  Ba4  1  0.00505000  0.59772500  0.25027600  1
  Ba  Ba5  1  0.40227500  0.99495000  0.75027600  1
  Li  Li0  1  0.99178000  0.99178000  0.75550600  1
  Li  Li1  1  0.00822000  0.00822000  0.25550600  1
  Ta  Ta0  1  0.24217200  0.24217200  0.58867400  1
  Ta  Ta1  1  0.66522200  0.33213500  0.49868200  1
  Ta  Ta2  1  0.66786500  0.33477800  0.99868200  1
  Ta  Ta3  1  0.33477800  0.66786500  0.99868200  1
  Ta  Ta4  1  0.33213500  0.66522200  0.49868200  1
  Ta  Ta5  1  0.75782800  0.75782800  0.08867400  1
  Ti  Ti0  1  0.25130300  0.25130300  0.91368500  1
  Ti  Ti1  1  0.99121500  0.24712200  0.40687300  1
  Ti  Ti2  1  0.00177300  0.25608600  0.08899300  1
  Ti  Ti3  1  0.74869700  0.74869700  0.41368500  1
  Ti  Ti4  1  0.00878500  0.75287800  0.90687300  1
  Ti  Ti5  1  0.99822700  0.74391400  0.58899300  1
  Ti  Ti6  1  0.25608600  0.00177300  0.08899300  1
  Ti  Ti7  1  0.24712200  0.99121500  0.40687300  1
  Ti  Ti8  1  0.75287800  0.00878500  0.90687300  1
  Ti  Ti9  1  0.74391400  0.99822700  0.58899300  1
  O  O0  1  0.20492900  0.99715300  0.24977000  1
  O  O1  1  0.19886400  0.19886400  0.42234700  1
  O  O2  1  0.19667500  0.19667500  0.75149000  1
  O  O3  1  0.48219100  0.16796500  0.10155000  1
  O  O4  1  0.48062900  0.16651600  0.40245800  1
  O  O5  1  0.79454200  0.99660900  0.07453200  1
  O  O6  1  0.79562600  0.00328000  0.42684200  1
  O  O7  1  0.48390800  0.31829100  0.60090900  1
  O  O8  1  0.48022300  0.31334600  0.90045700  1
  O  O9  1  0.68707900  0.16966000  0.59913400  1
  O  O10  1  0.68282400  0.16855600  0.89720200  1
  O  O11  1  0.83034000  0.31292100  0.09913400  1
  O  O12  1  0.83144400  0.31717600  0.39720200  1
  O  O13  1  0.68665400  0.51977700  0.40045700  1
  O  O14  1  0.68170900  0.51609200  0.10090900  1
  O  O15  1  0.99672000  0.20437400  0.92684200  1
  O  O16  1  0.00339100  0.20545800  0.57453200  1
  O  O17  1  0.99715300  0.20492900  0.24977000  1
  O  O18  1  0.83203500  0.51780900  0.60155000  1
  O  O19  1  0.83348400  0.51937100  0.90245800  1
  O  O20  1  0.20224300  0.20224300  0.07335100  1
  O  O21  1  0.80332500  0.80332500  0.25149000  1
  O  O22  1  0.80113600  0.80113600  0.92234700  1
  O  O23  1  0.79775700  0.79775700  0.57335100  1
  O  O24  1  0.16796500  0.48219100  0.10155000  1
  O  O25  1  0.16651600  0.48062900  0.40245800  1
  O  O26  1  0.00284700  0.79507100  0.74977000  1
  O  O27  1  0.99660900  0.79454200  0.07453200  1
  O  O28  1  0.00328000  0.79562600  0.42684200  1
  O  O29  1  0.31829100  0.48390800  0.60090900  1
  O  O30  1  0.31334600  0.48022300  0.90045700  1
  O  O31  1  0.16966000  0.68707900  0.59913400  1
  O  O32  1  0.16855600  0.68282400  0.89720200  1
  O  O33  1  0.31717600  0.83144400  0.39720200  1
  O  O34  1  0.31292100  0.83034000  0.09913400  1
  O  O35  1  0.51609200  0.68170900  0.10090900  1
  O  O36  1  0.51977700  0.68665400  0.40045700  1
  O  O37  1  0.20437400  0.99672000  0.92684200  1
  O  O38  1  0.20545800  0.00339100  0.57453200  1
  O  O39  1  0.51937100  0.83348400  0.90245800  1
  O  O40  1  0.51780900  0.83203500  0.60155000  1
  O  O41  1  0.79507100  0.00284700  0.74977000  1
loop_
_geom_bond_atom_site_label_1
_geom_bond_atom_site_label_2
_geom_bond_distance
_geom_bond_site_symmetry_2
Ba0 O6 2.765559 1_555
Ba0 O5 2.773138 1_545
Ba0 O33 2.836296 1_545
Ba0 O3 2.836737 1_555
Ba0 O4 2.861535 1_555
Ba0 O34 2.892111 1_545
Ba0 O12 3.104375 1_555
Ba0 O11 3.107496 1_555
Ba0 O36 3.179140 1_545
Ba0 O17 3.179339 1_555
Ba0 O35 3.202784 1_545
Ba0 O21 3.256685 1_545
Ba1 O1 2.747390 1_555
Ba1 O20 2.757041 1_555
Ba1 O14 2.844968 1_555
Ba1 O35 2.844968 1_555
Ba1 O13 2.890700 1_555
Ba1 O36 2.890700 1_555
Ba1 O24 3.132521 1_555
Ba1 O3 3.132521 1_555
Ba1 O25 3.166623 1_555
Ba1 O4 3.166623 1_555
Ba1 O0 3.215244 1_545
Ba1 O17 3.215244 1_455
Ba2 O22 2.747390 1_555
Ba2 O23 2.757041 1_555
Ba2 O29 2.844968 1_555
Ba2 O7 2.844968 1_555
Ba2 O30 2.890700 1_555
Ba2 O8 2.890700 1_555
Ba2 O40 3.132521 1_555
Ba2 O18 3.132521 1_555
Ba2 O19 3.166623 1_555
Ba2 O39 3.166623 1_555
Ba2 O26 3.215244 1_655
Ba2 O41 3.215244 1_565
Ba3 O15 2.765559 1_555
Ba3 O16 2.773138 1_655
Ba3 O32 2.836296 1_655
Ba3 O18 2.836737 1_555
Ba3 O19 2.861535 1_555
Ba3 O31 2.892111 1_655
Ba3 O10 3.104375 1_555
Ba3 O9 3.107496 1_555
Ba3 O30 3.179140 1_655
Ba3 O41 3.179339 1_555
Ba3 O29 3.202784 1_655
Ba3 O2 3.256685 1_655
Ba4 O28 2.765559 1_555
Ba4 O27 2.773138 1_455
Ba4 O12 2.836296 1_455
Ba4 O24 2.836737 1_555
Ba4 O25 2.861535 1_555
Ba4 O11 2.892111 1_455
Ba4 O33 3.104375 1_555
Ba4 O34 3.107496 1_555
Ba4 O13 3.179140 1_455
Ba4 O0 3.179339 1_555
Ba4 O14 3.202784 1_455
Ba4 O21 3.256685 1_455
Ba5 O37 2.765559 1_555
Ba5 O38 2.773138 1_565
Ba5 O10 2.836296 1_565
Ba5 O40 2.836737 1_555
Ba5 O39 2.861535 1_555
Ba5 O9 2.892111 1_565
Ba5 O32 3.104375 1_555
Ba5 O31 3.107496 1_555
Ba5 O8 3.179140 1_565
Ba5 O26 3.179339 1_555
Ba5 O7 3.202784 1_565
Ba5 O2 3.256685 1_565
Li0 O26 1.868087 1_655
Li0 O41 1.868087 1_565
Li0 O2 1.881004 1_665
Li0 O22 2.625170 1_555
Li1 O0 1.868087 1_545
Li1 O17 1.868087 1_455
Li1 O21 1.881004 1_445
Li1 O1 2.625170 1_555
O0 Ti7 1.889974 1_555
O0 Ti6 1.939302 1_565
O1 Ta0 1.991163 1_555
O1 Ti1 2.180373 1_455
O1 Ti7 2.180373 1_545
O2 Ta0 1.955016 1_555
O2 Ti0 1.967566 1_555
O3 Ti6 1.868600 1_555
O3 Ta2 2.023619 1_554
O4 Ti7 1.933462 1_545
O4 Ta1 1.969677 1_555
O5 Ti8 2.017815 1_564
O5 Ta5 2.058067 1_555
O5 Ti2 2.188536 1_665
O6 Ti9 1.955765 1_545
O6 Ti1 2.066322 1_555
O6 Ti3 2.166648 1_545
O7 Ta0 1.975164 1_555
O7 Ta1 2.008167 1_555
O8 Ti0 1.893882 1_555
O8 Ta2 2.003478 1_555
O9 Ti9 1.902998 1_545
O9 Ta1 1.994194 1_555
O10 Ti8 1.886444 1_555
O10 Ta2 1.999295 1_555
O11 Ti2 1.902998 1_655
O11 Ta2 1.994194 1_554
O12 Ti1 1.886444 1_555
O12 Ta1 1.999295 1_555
O13 Ti3 1.893882 1_555
O13 Ta1 2.003478 1_555
O14 Ta5 1.975164 1_555
O14 Ta2 2.008167 1_554
O15 Ti2 1.955765 1_656
O15 Ti8 2.066322 1_555
O15 Ti0 2.166648 1_655
O16 Ti1 2.017815 1_455
O16 Ta0 2.058067 1_555
O16 Ti9 2.188536 1_445
O17 Ti1 1.889974 1_555
O17 Ti2 1.939302 1_655
O18 Ti5 1.868600 1_555
O18 Ta1 2.023619 1_555
O19 Ti4 1.933462 1_655
O19 Ta2 1.969677 1_555
O20 Ti0 1.926313 1_554
O20 Ti2 2.149537 1_555
O20 Ti6 2.149537 1_555
O21 Ta5 1.955016 1_555
O21 Ti3 1.967566 1_555
O22 Ta5 1.991163 1_556
O22 Ti4 2.180373 1_655
O22 Ti8 2.180373 1_565
O23 Ti3 1.926313 1_555
O23 Ti5 2.149537 1_555
O23 Ti9 2.149537 1_555
O24 Ti2 1.868600 1_555
O24 Ta3 2.023619 1_554
O25 Ti1 1.933462 1_455
O25 Ta4 1.969677 1_555
O26 Ti4 1.889974 1_555
O26 Ti5 1.939302 1_455
O27 Ti4 2.017815 1_654
O27 Ta5 2.058067 1_555
O27 Ti6 2.188536 1_665
O28 Ti5 1.955765 1_455
O28 Ti7 2.066322 1_555
O28 Ti3 2.166648 1_455
O29 Ta0 1.975164 1_555
O29 Ta4 2.008167 1_555
O30 Ti0 1.893882 1_555
O30 Ta3 2.003478 1_555
O31 Ti5 1.902998 1_455
O31 Ta4 1.994194 1_555
O32 Ti4 1.886444 1_555
O32 Ta3 1.999295 1_555
O33 Ti7 1.886444 1_555
O33 Ta4 1.999295 1_555
O34 Ti6 1.902998 1_565
O34 Ta3 1.994194 1_554
O35 Ta5 1.975164 1_555
O35 Ta3 2.008167 1_554
O36 Ti3 1.893882 1_555
O36 Ta4 2.003478 1_555
O37 Ti6 1.955765 1_566
O37 Ti4 2.066322 1_555
O37 Ti0 2.166648 1_565
O38 Ti7 2.017815 1_545
O38 Ta0 2.058067 1_555
O38 Ti5 2.188536 1_445
O39 Ti8 1.933462 1_565
O39 Ta3 1.969677 1_555
O40 Ti9 1.868600 1_555
O40 Ta4 2.023619 1_555
O41 Ti8 1.889974 1_555
O41 Ti9 1.939302 1_545
