# generated using pymatgen
data_TlGaSe2
_symmetry_space_group_name_H-M   'P 1'
_cell_length_a   7.75384024
_cell_length_b   7.75384024
_cell_length_c   15.89755644
_cell_angle_alpha   82.87836028
_cell_angle_beta   82.87836028
_cell_angle_gamma   89.99214152
_symmetry_Int_Tables_number   1
_chemical_formula_structural   TlGaSe2
_chemical_formula_sum   'Tl8 Ga8 Se16'
_cell_volume   940.99021585
_cell_formula_units_Z   8
loop_
 _symmetry_equiv_pos_site_id
 _symmetry_equiv_pos_as_xyz
  1  'x, y, z'
loop_
 _atom_site_type_symbol
 _atom_site_label
 _atom_site_symmetry_multiplicity
 _atom_site_fract_x
 _atom_site_fract_y
 _atom_site_fract_z
 _atom_site_occupancy
  Tl  Tl0  1  0.30503100  0.17936200  0.76056800  1
  Tl  Tl1  1  0.67609200  0.29634500  0.27051900  1
  Tl  Tl2  1  0.74932100  0.86932400  0.99375800  1
  Tl  Tl3  1  0.37236200  0.74708400  0.48654900  1
  Tl  Tl4  1  0.17936200  0.30503100  0.26056800  1
  Tl  Tl5  1  0.29634500  0.67609200  0.77051900  1
  Tl  Tl6  1  0.74708400  0.37236200  0.98654900  1
  Tl  Tl7  1  0.86932400  0.74932100  0.49375800  1
  Ga  Ga0  1  0.44417700  0.81659500  0.21350600  1
  Ga  Ga1  1  0.81725700  0.94415900  0.71391200  1
  Ga  Ga2  1  0.61693600  0.23658900  0.53888300  1
  Ga  Ga3  1  0.10848600  0.23719400  0.53770400  1
  Ga  Ga4  1  0.23719400  0.10848600  0.03770400  1
  Ga  Ga5  1  0.23658900  0.61693600  0.03888300  1
  Ga  Ga6  1  0.81659500  0.44417700  0.71350600  1
  Ga  Ga7  1  0.94415900  0.81725700  0.21391200  1
  Se  Se0  1  0.25955300  0.88625700  0.94135000  1
  Se  Se1  1  0.79155800  0.17066400  0.80798100  1
  Se  Se2  1  0.80076800  0.66951800  0.80891700  1
  Se  Se3  1  0.09837200  0.95340100  0.62455500  1
  Se  Se4  1  0.58027000  0.47804200  0.62482000  1
  Se  Se5  1  0.57971600  0.95267200  0.62595700  1
  Se  Se6  1  0.26555500  0.38708700  0.94592200  1
  Se  Se7  1  0.66951800  0.80076800  0.30891700  1
  Se  Se8  1  0.47742300  0.09803200  0.12419900  1
  Se  Se9  1  0.09803200  0.47742300  0.62419900  1
  Se  Se10  1  0.38708700  0.26555500  0.44592200  1
  Se  Se11  1  0.47804200  0.58027000  0.12482000  1
  Se  Se12  1  0.95340100  0.09837200  0.12455500  1
  Se  Se13  1  0.17066400  0.79155800  0.30798100  1
  Se  Se14  1  0.88625700  0.25955300  0.44135000  1
  Se  Se15  1  0.95267200  0.57971600  0.12595700  1
loop_
_geom_bond_atom_site_label_1
_geom_bond_atom_site_label_2
_geom_bond_distance
_geom_bond_site_symmetry_2
Ga0 Se13 2.434990 1_555
Ga0 Se11 2.441965 1_555
Ga0 Se7 2.445318 1_555
Ga0 Se8 2.446517 1_565
Ga1 Se1 2.436784 1_565
Ga1 Se5 2.442868 1_555
Ga1 Se3 2.445678 1_655
Ga1 Se2 2.446847 1_555
Ga2 Se14 2.434243 1_555
Ga2 Se10 2.445697 1_555
Ga2 Se4 2.447475 1_555
Ga2 Se5 2.447725 1_545
Ga3 Se14 2.436012 1_455
Ga3 Se9 2.444260 1_555
Ga3 Se3 2.444285 1_545
Ga3 Se10 2.446010 1_555
Ga4 Se0 2.436012 1_544
Ga4 Se8 2.444260 1_555
Ga4 Se12 2.444285 1_455
Ga4 Se6 2.446010 1_554
Ga5 Se0 2.434243 1_554
Ga5 Se6 2.445697 1_554
Ga5 Se11 2.447475 1_555
Ga5 Se15 2.447725 1_455
Ga6 Se1 2.434990 1_555
Ga6 Se4 2.441965 1_555
Ga6 Se2 2.445318 1_555
Ga6 Se9 2.446517 1_655
Ga7 Se13 2.436784 1_655
Ga7 Se15 2.442868 1_555
Ga7 Se12 2.445678 1_565
Ga7 Se7 2.446847 1_555
Se0 Tl5 3.319276 1_555
Se1 Tl6 3.388439 1_555
Se2 Tl6 3.398841 1_555
Se3 Tl3 3.405827 1_555
Se4 Tl3 3.394604 1_555
Se5 Tl3 3.434836 1_555
Se6 Tl5 3.337655 1_555
Se7 Tl3 3.398841 1_555
Se8 Tl6 3.376048 1_554
Se9 Tl3 3.376048 1_555
Se10 Tl1 3.337655 1_555
Se11 Tl6 3.394604 1_554
Se12 Tl6 3.405827 1_554
Se13 Tl3 3.388439 1_555
Se14 Tl1 3.319276 1_555
Se15 Tl6 3.434836 1_554
