# generated using pymatgen
data_K2FeH4(SO5)2
_symmetry_space_group_name_H-M   'P 1'
_cell_length_a   6.57199800
_cell_length_b   7.46552309
_cell_length_c   10.79970610
_cell_angle_alpha   72.90134198
_cell_angle_beta   73.86646694
_cell_angle_gamma   69.75505440
_symmetry_Int_Tables_number   1
_chemical_formula_structural   K2FeH4(SO5)2
_chemical_formula_sum   'K4 Fe2 H8 S4 O20'
_cell_volume   465.90660761
_cell_formula_units_Z   2
loop_
 _symmetry_equiv_pos_site_id
 _symmetry_equiv_pos_as_xyz
  1  'x, y, z'
loop_
 _atom_site_type_symbol
 _atom_site_label
 _atom_site_symmetry_multiplicity
 _atom_site_fract_x
 _atom_site_fract_y
 _atom_site_fract_z
 _atom_site_occupancy
  K  K0  1  0.29192300  0.24856600  0.89958900  1
  K  K1  1  0.23998700  0.76098300  0.57782000  1
  K  K2  1  0.70807700  0.75143400  0.10041100  1
  K  K3  1  0.76001300  0.23901700  0.42218000  1
  Fe  Fe0  1  0.75309800  0.52161300  0.75115600  1
  Fe  Fe1  1  0.24690200  0.47838700  0.24884400  1
  H  H0  1  0.77370100  0.15237900  0.85932800  1
  H  H1  1  0.86723400  0.17777500  0.70396600  1
  H  H2  1  0.86348900  0.81948800  0.79590400  1
  H  H3  1  0.66521400  0.91577600  0.71408900  1
  H  H4  1  0.22629900  0.84762100  0.14067200  1
  H  H5  1  0.13276600  0.82222500  0.29603400  1
  H  H6  1  0.13651100  0.18051200  0.20409600  1
  H  H7  1  0.33478600  0.08422400  0.28591100  1
  S  S0  1  0.24956200  0.72142700  0.92734600  1
  S  S1  1  0.23088900  0.26981800  0.58415400  1
  S  S2  1  0.75043800  0.27857300  0.07265400  1
  S  S3  1  0.76911100  0.73018200  0.41584600  1
  O  O0  1  0.19292800  0.56929500  0.04740700  1
  O  O1  1  0.04285000  0.84408400  0.87889500  1
  O  O2  1  0.35603900  0.84225400  0.96049300  1
  O  O3  1  0.40268000  0.61760700  0.82084700  1
  O  O4  1  0.10464400  0.40696600  0.67699200  1
  O  O5  1  0.08237200  0.16466100  0.57392200  1
  O  O6  1  0.42748900  0.13187600  0.63569400  1
  O  O7  1  0.30576600  0.39109500  0.45211400  1
  O  O8  1  0.73706000  0.22641500  0.77237200  1
  O  O9  1  0.79209800  0.80126500  0.73228300  1
  O  O10  1  0.80707200  0.43070500  0.95259300  1
  O  O11  1  0.95715000  0.15591600  0.12110500  1
  O  O12  1  0.64396100  0.15774600  0.03950700  1
  O  O13  1  0.59732000  0.38239300  0.17915300  1
  O  O14  1  0.89535600  0.59303400  0.32300800  1
  O  O15  1  0.91762800  0.83533900  0.42607800  1
  O  O16  1  0.57251100  0.86812400  0.36430600  1
  O  O17  1  0.69423400  0.60890500  0.54788600  1
  O  O18  1  0.26294000  0.77358500  0.22762800  1
  O  O19  1  0.20790200  0.19873500  0.26771700  1
loop_
_geom_bond_atom_site_label_1
_geom_bond_atom_site_label_2
_geom_bond_distance
_geom_bond_site_symmetry_2
K0 O4 2.767275 1_555
K0 O2 2.812030 1_545
K0 O8 2.835177 1_555
K0 O11 2.863062 1_456
K0 O12 2.889741 1_556
K0 O3 2.917130 1_555
K0 O10 2.962337 1_455
K0 O6 3.030969 1_555
K0 O0 3.049155 1_556
K1 O17 2.763947 1_555
K1 O5 2.818891 1_565
K1 O16 2.838531 1_555
K1 O15 2.839469 1_455
K1 O3 2.879780 1_555
K1 O4 2.890720 1_555
K1 O9 2.913933 1_455
K1 O7 3.272222 1_555
K2 O14 2.767275 1_555
K2 O12 2.812030 1_565
K2 O18 2.835177 1_555
K2 O1 2.863062 1_654
K2 O2 2.889741 1_554
K2 O13 2.917130 1_555
K2 O0 2.962337 1_655
K2 O16 3.030969 1_555
K2 O10 3.049155 1_554
K3 O7 2.763947 1_555
K3 O15 2.818891 1_545
K3 O6 2.838531 1_555
K3 O5 2.839469 1_655
K3 O13 2.879780 1_555
K3 O14 2.890720 1_555
K3 O19 2.913933 1_655
K3 O17 3.272222 1_555
Fe0 O9 2.134713 1_555
Fe0 O3 2.143668 1_555
Fe0 O10 2.170970 1_555
Fe0 O4 2.172103 1_655
Fe0 O8 2.184212 1_555
Fe0 O17 2.202213 1_555
Fe1 O19 2.134713 1_555
Fe1 O13 2.143668 1_555
Fe1 O0 2.170970 1_555
Fe1 O14 2.172103 1_455
Fe1 O18 2.184212 1_555
Fe1 O7 2.202213 1_555
H0 O8 0.986779 1_555
H1 O8 1.000513 1_555
H1 O5 1.691919 1_655
H2 O9 0.994499 1_555
H2 K1 2.911793 1_655
H3 O9 0.981693 1_555
H4 O18 0.986779 1_555
H5 O18 1.000513 1_555
H5 O15 1.691919 1_455
H6 O19 0.994499 1_555
H6 K3 2.911793 1_455
H7 O19 0.981693 1_555
O0 S0 1.506010 1_554
O1 S0 1.486685 1_555
O2 S0 1.482375 1_555
O3 S0 1.509114 1_555
O4 S1 1.515057 1_555
O5 S1 1.490789 1_555
O6 S1 1.476993 1_555
O7 S1 1.501501 1_555
O10 S2 1.506010 1_556
O11 S2 1.486685 1_555
O12 S2 1.482375 1_555
O13 S2 1.509114 1_555
O14 S3 1.515057 1_555
O15 S3 1.490789 1_555
O16 S3 1.476993 1_555
O17 S3 1.501501 1_555
