# generated using pymatgen
data_Ca2YbF7
_symmetry_space_group_name_H-M   'P 1'
_cell_length_a   8.87600762
_cell_length_b   8.91202588
_cell_length_c   10.21967531
_cell_angle_alpha   116.09845076
_cell_angle_beta   116.12147265
_cell_angle_gamma   89.61889970
_symmetry_Int_Tables_number   1
_chemical_formula_structural   Ca2YbF7
_chemical_formula_sum   'Ca10 Yb5 F35'
_cell_volume   634.05486291
_cell_formula_units_Z   5
loop_
 _symmetry_equiv_pos_site_id
 _symmetry_equiv_pos_as_xyz
  1  'x, y, z'
loop_
 _atom_site_type_symbol
 _atom_site_label
 _atom_site_symmetry_multiplicity
 _atom_site_fract_x
 _atom_site_fract_y
 _atom_site_fract_z
 _atom_site_occupancy
  Ca  Ca0  1  0.02060300  0.47361400  0.68302000  1
  Ca  Ca1  1  0.20966500  0.02017200  0.68504900  1
  Ca  Ca2  1  0.47156100  0.66258400  0.68118400  1
  Ca  Ca3  1  0.33814700  0.78843100  0.31785400  1
  Ca  Ca4  1  0.66332200  0.20934500  0.68212000  1
  Ca  Ca5  1  0.52866000  0.34024200  0.31766600  1
  Ca  Ca6  1  0.49882600  0.49837200  0.99979300  1
  Ca  Ca7  1  0.79048300  0.98161700  0.31626400  1
  Ca  Ca8  1  0.68727900  0.09937500  0.99924200  1
  Ca  Ca9  1  0.97918700  0.52621000  0.31707600  1
  Yb  Yb0  1  0.18915300  0.18905300  0.37918600  1
  Yb  Yb1  1  0.10241600  0.31769300  0.00131000  1
  Yb  Yb2  1  0.31088500  0.90071200  0.00055700  1
  Yb  Yb3  1  0.81206400  0.81076900  0.62092900  1
  Yb  Yb4  1  0.89804000  0.68359300  0.99890600  1
  F  F0  1  0.08537800  0.78732300  0.73992900  1
  F  F1  1  0.06603400  0.17079300  0.53725300  1
  F  F2  1  0.21328500  0.34795200  0.84219100  1
  F  F3  1  0.17363400  0.46953400  0.53895600  1
  F  F4  1  0.04300600  0.91603200  0.25515400  1
  F  F5  1  0.34775000  0.63025800  0.84450600  1
  F  F6  1  0.00899000  0.99620200  0.00107300  1
  F  F7  1  0.08461500  0.58575200  0.16925600  1
  F  F8  1  0.25142700  0.74749100  0.49936100  1
  F  F9  1  0.41440600  0.91374400  0.83077200  1
  F  F10  1  0.21874800  0.34211300  0.26100900  1
  F  F11  1  0.36221000  0.06554000  0.53628800  1
  F  F12  1  0.49195400  0.21537700  0.83675400  1
  F  F13  1  0.14706500  0.70749100  0.99611500  1
  F  F14  1  0.34172900  0.03836600  0.26228000  1
  F  F15  1  0.46966800  0.36450600  0.54033900  1
  F  F16  1  0.62911800  0.49703100  0.84362700  1
  F  F17  1  0.28739600  0.14771800  0.99699900  1
  F  F18  1  0.37030600  0.50349400  0.15617900  1
  F  F19  1  0.53182800  0.63614400  0.46180100  1
  F  F20  1  0.65554400  0.95821200  0.73410200  1
  F  F21  1  0.50173200  0.78358400  0.15638800  1
  F  F22  1  0.63788000  0.93187500  0.45829300  1
  F  F23  1  0.78302300  0.65923700  0.74112300  1
  F  F24  1  0.57930300  0.08341200  0.17028800  1
  F  F25  1  0.74876300  0.25311400  0.50064800  1
  F  F26  1  0.91612400  0.41559900  0.83096200  1
  F  F27  1  0.65059500  0.37396500  0.15959800  1
  F  F28  1  0.95502600  0.08416600  0.74268900  1
  F  F29  1  0.83272000  0.53390900  0.46705800  1
  F  F30  1  0.78545100  0.65201000  0.15675500  1
  F  F31  1  0.71073800  0.84901800  0.00320000  1
  F  F32  1  0.93332900  0.82701200  0.46055600  1
  F  F33  1  0.91667600  0.21548500  0.26455500  1
  F  F34  1  0.85425700  0.29475800  0.00379100  1
loop_
_geom_bond_atom_site_label_1
_geom_bond_atom_site_label_2
_geom_bond_distance
_geom_bond_site_symmetry_2
Ca0 F26 2.311270 1_455
Ca0 F3 2.393141 1_555
Ca0 F29 2.394053 1_455
Ca0 F2 2.439839 1_555
Ca0 F25 2.457231 1_455
Ca0 F1 2.577272 1_555
Ca0 F0 2.604140 1_555
Ca0 F13 2.615972 1_555
Ca0 F5 2.628958 1_555
Ca0 F23 2.779935 1_455
Ca1 F9 2.292759 1_545
Ca1 F1 2.402927 1_555
Ca1 F32 2.422655 1_445
Ca1 F12 2.443870 1_555
Ca1 F8 2.488801 1_545
Ca1 F28 2.576875 1_455
Ca1 F11 2.582387 1_555
Ca1 F17 2.610918 1_555
Ca1 F2 2.634711 1_555
Ca1 F0 2.727103 1_545
Ca2 F9 2.293851 1_555
Ca2 F15 2.396683 1_555
Ca2 F8 2.421480 1_555
Ca2 F19 2.440885 1_555
Ca2 F5 2.473661 1_555
Ca2 F3 2.557601 1_555
Ca2 F23 2.557853 1_555
Ca2 F16 2.640419 1_555
Ca2 F31 2.679882 1_556
Ca2 F20 2.815420 1_555
Ca3 F7 2.294421 1_555
Ca3 F22 2.416765 1_555
Ca3 F11 2.421683 1_565
Ca3 F18 2.444173 1_555
Ca3 F8 2.454152 1_555
Ca3 F14 2.532763 1_565
Ca3 F19 2.541674 1_555
Ca3 F21 2.622835 1_555
Ca3 F13 2.688344 1_554
Ca3 F4 2.773056 1_555
Ca4 F26 2.305834 1_555
Ca4 F11 2.421661 1_555
Ca4 F22 2.444196 1_545
Ca4 F25 2.458793 1_555
Ca4 F16 2.469317 1_555
Ca4 F20 2.525179 1_545
Ca4 F15 2.550349 1_555
Ca4 F12 2.618147 1_555
Ca4 F34 2.677339 1_556
Ca4 F28 2.736677 1_555
Ca5 F24 2.293220 1_555
Ca5 F19 2.381519 1_555
Ca5 F27 2.417065 1_555
Ca5 F25 2.440699 1_555
Ca5 F15 2.472704 1_555
Ca5 F10 2.551024 1_555
Ca5 F29 2.590155 1_555
Ca5 F18 2.618922 1_555
Ca5 F17 2.681688 1_554
Ca5 F14 2.864227 1_555
Ca6 F27 2.312390 1_556
Ca6 F12 2.314307 1_555
Ca6 F2 2.316409 1_555
Ca6 F18 2.323396 1_556
Ca6 F21 2.325548 1_556
Ca6 F30 2.332529 1_556
Ca6 F5 2.333338 1_555
Ca6 F16 2.343702 1_555
Ca7 F24 2.295186 1_565
Ca7 F1 2.401205 1_665
Ca7 F32 2.408023 1_555
Ca7 F25 2.476563 1_565
Ca7 F21 2.487736 1_555
Ca7 F22 2.538375 1_555
Ca7 F4 2.578668 1_655
Ca7 F31 2.612330 1_555
Ca7 F30 2.648139 1_555
Ca7 F33 2.720152 1_565
Ca8 F31 2.255881 1_546
Ca8 F34 2.265655 1_556
Ca8 F33 2.294884 1_556
Ca8 F20 2.310328 1_545
Ca8 F9 2.332961 1_545
Ca8 F24 2.385412 1_556
Ca8 F27 2.389776 1_556
Ca8 F12 2.404898 1_555
Ca8 F6 2.988794 1_646
Ca9 F7 2.322948 1_655
Ca9 F29 2.388539 1_555
Ca9 F3 2.434263 1_655
Ca9 F30 2.451127 1_555
Ca9 F8 2.462870 1_655
Ca9 F32 2.560231 1_555
Ca9 F33 2.591298 1_555
Ca9 F34 2.613200 1_555
Ca9 F27 2.633576 1_555
Ca9 F10 2.782228 1_655
F0 Yb3 2.242050 1_455
F0 Yb2 2.255273 1_556
F1 Yb0 2.370296 1_555
F2 Yb1 2.341778 1_556
F3 Yb0 2.352823 1_555
F4 Yb0 2.256171 1_565
F4 Yb4 2.258356 1_454
F5 Yb2 2.350949 1_556
F6 Yb2 2.807629 1_555
F6 Yb4 2.948728 1_454
F6 Yb1 2.986704 1_565
F6 Yb0 3.032353 1_565
F6 Yb3 3.047846 1_454
F7 Yb1 2.303071 1_555
F7 Yb4 2.304630 1_454
F9 Yb2 2.334769 1_556
F10 Yb0 2.263162 1_555
F10 Yb1 2.288920 1_555
F11 Yb0 2.347268 1_555
F13 Yb2 2.233390 1_556
F13 Yb4 2.235830 1_455
F14 Yb0 2.248063 1_555
F14 Yb2 2.281836 1_545
F15 Yb0 2.352013 1_555
F16 Yb4 2.318662 1_555
F17 Yb2 2.224469 1_546
F17 Yb1 2.228071 1_556
F18 Yb1 2.309435 1_555
F19 Yb3 2.348730 1_555
F20 Yb3 2.246748 1_555
F21 Yb2 2.357737 1_555
F22 Yb3 2.368776 1_555
F23 Yb3 2.267582 1_555
F23 Yb4 2.271848 1_555
F24 Yb2 2.294307 1_545
F26 Yb4 2.303634 1_555
F26 Yb1 2.304065 1_656
F28 Yb3 2.253538 1_545
F28 Yb1 2.276035 1_656
F29 Yb3 2.329917 1_555
F30 Yb4 2.345843 1_554
F31 Yb4 2.216755 1_554
F32 Yb3 2.372733 1_555
F33 Yb0 2.239966 1_655
F34 Yb1 2.225728 1_655
