# generated using pymatgen
data_Ca3(PO4)2
_symmetry_space_group_name_H-M   'P 1'
_cell_length_a   14.40690110
_cell_length_b   14.40690110
_cell_length_c   14.40690181
_cell_angle_alpha   43.44266059
_cell_angle_beta   43.44266059
_cell_angle_gamma   43.44266096
_symmetry_Int_Tables_number   1
_chemical_formula_structural   Ca3(PO4)2
_chemical_formula_sum   'Ca21 P14 O56'
_cell_volume   1282.72628506
_cell_formula_units_Z   7
loop_
 _symmetry_equiv_pos_site_id
 _symmetry_equiv_pos_as_xyz
  1  'x, y, z'
loop_
 _atom_site_type_symbol
 _atom_site_label
 _atom_site_symmetry_multiplicity
 _atom_site_fract_x
 _atom_site_fract_y
 _atom_site_fract_z
 _atom_site_occupancy
  Ca  Ca0  1  0.76765100  0.76765100  0.76765100  1
  Ca  Ca1  1  0.39643900  0.82984300  0.85615100  1
  Ca  Ca2  1  0.85615100  0.39643900  0.82984300  1
  Ca  Ca3  1  0.82984300  0.85615100  0.39643900  1
  Ca  Ca4  1  0.78580100  0.20883900  0.81576200  1
  Ca  Ca5  1  0.20883900  0.81576200  0.78580100  1
  Ca  Ca6  1  0.36844200  0.35015600  0.88416400  1
  Ca  Ca7  1  0.81576200  0.78580100  0.20883900  1
  Ca  Ca8  1  0.67119000  0.09968000  0.72268600  1
  Ca  Ca9  1  0.09968000  0.72268600  0.67119000  1
  Ca  Ca10  1  0.35015600  0.88416400  0.36844200  1
  Ca  Ca11  1  0.88416400  0.36844200  0.35015600  1
  Ca  Ca12  1  0.30198400  0.32356800  0.69932800  1
  Ca  Ca13  1  0.72268600  0.67119000  0.09968000  1
  Ca  Ca14  1  0.69932800  0.30198400  0.32356800  1
  Ca  Ca15  1  0.32356800  0.69932800  0.30198400  1
  Ca  Ca16  1  0.17931500  0.21593100  0.59983300  1
  Ca  Ca17  1  0.59983300  0.17931500  0.21593100  1
  Ca  Ca18  1  0.21593100  0.59983300  0.17931500  1
  Ca  Ca19  1  0.26773300  0.26773300  0.26773300  1
  Ca  Ca20  1  0.07975500  0.07975500  0.07975500  1
  P  P0  1  0.00260900  0.00260900  0.00260900  1
  P  P1  1  0.43181800  0.96141300  0.00642200  1
  P  P2  1  0.00642200  0.43181800  0.96141300  1
  P  P3  1  0.96141300  0.00642200  0.43181800  1
  P  P4  1  0.48801900  0.46022500  0.94551400  1
  P  P5  1  0.46022500  0.94551400  0.48801900  1
  P  P6  1  0.94551400  0.48801900  0.46022500  1
  P  P7  1  0.49934900  0.49934900  0.49934900  1
  P  P8  1  0.02660200  0.61029900  0.57921600  1
  P  P9  1  0.61029900  0.57921600  0.02660200  1
  P  P10  1  0.57921600  0.02660200  0.61029900  1
  P  P11  1  0.53151800  0.08333200  0.10138000  1
  P  P12  1  0.10138000  0.53151800  0.08333200  1
  P  P13  1  0.08333200  0.10138000  0.53151800  1
  O  O0  1  0.96372900  0.96372900  0.96372900  1
  O  O1  1  0.90625600  0.60243800  0.89199500  1
  O  O2  1  0.60243800  0.89199500  0.90625600  1
  O  O3  1  0.89199500  0.90625600  0.60243800  1
  O  O4  1  0.62691800  0.04888000  0.46056700  1
  O  O5  1  0.46056700  0.62691800  0.04888000  1
  O  O6  1  0.04888000  0.46056700  0.62691800  1
  O  O7  1  0.65114600  0.39213100  0.91378400  1
  O  O8  1  0.40031000  0.63199600  0.89464700  1
  O  O9  1  0.39213100  0.91378400  0.65114600  1
  O  O10  1  0.89464700  0.40031000  0.63199600  1
  O  O11  1  0.49266100  0.40816800  0.87866700  1
  O  O12  1  0.91378400  0.65114600  0.39213100  1
  O  O13  1  0.63199600  0.89464700  0.40031000  1
  O  O14  1  0.82456600  0.09062300  0.73594800  1
  O  O15  1  0.19310800  0.58694700  0.89744200  1
  O  O16  1  0.40816800  0.87866700  0.49266100  1
  O  O17  1  0.87866700  0.49266100  0.40816800  1
  O  O18  1  0.89744200  0.19310800  0.58694700  1
  O  O19  1  0.09062300  0.73594800  0.82456600  1
  O  O20  1  0.15997100  0.42814900  0.88025700  1
  O  O21  1  0.52146600  0.36798900  0.64560800  1
  O  O22  1  0.38065200  0.13210400  0.91999000  1
  O  O23  1  0.36798900  0.64560800  0.52146600  1
  O  O24  1  0.58694700  0.89744200  0.19310800  1
  O  O25  1  0.64560800  0.52146600  0.36798900  1
  O  O26  1  0.73594800  0.82456600  0.09062300  1
  O  O27  1  0.03727700  0.33046600  0.92337500  1
  O  O28  1  0.88025700  0.15997100  0.42814900  1
  O  O29  1  0.13210400  0.91999000  0.38065200  1
  O  O30  1  0.45969400  0.45969400  0.45969400  1
  O  O31  1  0.58894300  0.14552100  0.58593400  1
  O  O32  1  0.14552100  0.58593400  0.58894300  1
  O  O33  1  0.42814900  0.88025700  0.15997100  1
  O  O34  1  0.91999000  0.38065200  0.13210400  1
  O  O35  1  0.39553400  0.07464300  0.70604300  1
  O  O36  1  0.92337500  0.03727700  0.33046600  1
  O  O37  1  0.02798300  0.14908500  0.87737500  1
  O  O38  1  0.31477200  0.23124500  0.61256000  1
  O  O39  1  0.58593400  0.58894300  0.14552100  1
  O  O40  1  0.61256000  0.31477200  0.23124500  1
  O  O41  1  0.07464300  0.70604300  0.39553400  1
  O  O42  1  0.33046600  0.92337500  0.03727700  1
  O  O43  1  0.70604300  0.39553400  0.07464300  1
  O  O44  1  0.23124500  0.61256000  0.31477200  1
  O  O45  1  0.87737500  0.02798300  0.14908500  1
  O  O46  1  0.09514700  0.07740000  0.64887200  1
  O  O47  1  0.12177000  0.40406000  0.39158100  1
  O  O48  1  0.39158100  0.12177000  0.40406000  1
  O  O49  1  0.14908500  0.87737500  0.02798300  1
  O  O50  1  0.40406000  0.39158100  0.12177000  1
  O  O51  1  0.55623700  0.12715200  0.95185100  1
  O  O52  1  0.64887200  0.09514700  0.07740000  1
  O  O53  1  0.07740000  0.64887200  0.09514700  1
  O  O54  1  0.12715200  0.95185100  0.55623700  1
  O  O55  1  0.95185100  0.55623700  0.12715200  1
loop_
_geom_bond_atom_site_label_1
_geom_bond_atom_site_label_2
_geom_bond_distance
_geom_bond_site_symmetry_2
Ca0 O3 2.227763 1_555
Ca0 O1 2.227763 1_555
Ca0 O2 2.227763 1_555
Ca1 O5 2.263947 1_556
Ca1 O9 2.271562 1_555
Ca1 O49 2.324679 1_556
Ca1 O8 2.440036 1_555
Ca1 O35 2.452365 1_565
Ca1 O42 3.028718 1_556
Ca2 O6 2.263947 1_655
Ca2 O7 2.271562 1_555
Ca2 O37 2.324679 1_655
Ca2 O10 2.440036 1_555
Ca2 O43 2.452365 1_556
Ca2 O27 3.028718 1_655
Ca3 O4 2.263947 1_565
Ca3 O12 2.271562 1_555
Ca3 O45 2.324679 1_565
Ca3 O13 2.440036 1_555
Ca3 O41 2.452365 1_655
Ca3 O36 3.028718 1_565
Ca4 O14 2.250514 1_555
Ca4 O52 2.389871 1_556
Ca4 O18 2.522211 1_555
Ca4 O10 2.593325 1_555
Ca4 O7 2.594005 1_555
Ca4 O0 2.728438 1_545
Ca4 O11 2.741149 1_555
Ca4 O46 2.832885 1_655
Ca5 O19 2.250514 1_555
Ca5 O46 2.389871 1_565
Ca5 O15 2.522211 1_555
Ca5 O8 2.593326 1_555
Ca5 O9 2.594005 1_555
Ca5 O0 2.728438 1_455
Ca5 O16 2.741149 1_555
Ca5 O53 2.832885 1_556
Ca6 O51 2.291782 1_555
Ca6 O21 2.296935 1_555
Ca6 O20 2.353581 1_555
Ca6 O11 2.403650 1_555
Ca6 O15 2.405763 1_555
Ca6 O22 2.672253 1_555
Ca7 O26 2.250514 1_555
Ca7 O53 2.389871 1_655
Ca7 O24 2.522211 1_555
Ca7 O13 2.593326 1_555
Ca7 O12 2.594005 1_555
Ca7 O0 2.728438 1_554
Ca7 O17 2.741149 1_555
Ca7 O52 2.832885 1_565
Ca8 O14 2.257071 1_555
Ca8 O2 2.436577 1_545
Ca8 O21 2.442381 1_555
Ca8 O31 2.466977 1_555
Ca8 O51 2.608727 1_555
Ca8 O3 2.649747 1_545
Ca8 O22 2.762243 1_555
Ca8 O28 2.778486 1_555
Ca9 O19 2.257071 1_555
Ca9 O3 2.436577 1_455
Ca9 O23 2.442381 1_555
Ca9 O32 2.466977 1_555
Ca9 O54 2.608727 1_555
Ca9 O1 2.649747 1_455
Ca9 O29 2.762243 1_555
Ca9 O20 2.778486 1_555
Ca10 O54 2.291782 1_555
Ca10 O23 2.296934 1_555
Ca10 O33 2.353581 1_555
Ca10 O16 2.403650 1_555
Ca10 O24 2.405763 1_555
Ca10 O29 2.672253 1_555
Ca11 O55 2.291782 1_555
Ca11 O25 2.296934 1_555
Ca11 O28 2.353581 1_555
Ca11 O17 2.403650 1_555
Ca11 O18 2.405763 1_555
Ca11 O34 2.672253 1_555
Ca12 O38 2.256076 1_555
Ca12 O32 2.449823 1_555
Ca12 O30 2.485070 1_555
Ca12 O20 2.594796 1_555
Ca12 O22 2.637828 1_555
Ca12 O27 2.648136 1_555
Ca12 O31 2.686739 1_555
Ca13 O26 2.257071 1_555
Ca13 O1 2.436577 1_554
Ca13 O25 2.442381 1_555
Ca13 O39 2.466977 1_555
Ca13 O55 2.608727 1_555
Ca13 O2 2.649747 1_554
Ca13 O34 2.762243 1_555
Ca13 O33 2.778486 1_555
Ca14 O40 2.256076 1_555
Ca14 O31 2.449823 1_555
Ca14 O30 2.485071 1_555
Ca14 O28 2.594796 1_555
Ca14 O34 2.637828 1_555
Ca14 O36 2.648136 1_555
Ca14 O39 2.686739 1_555
Ca15 O44 2.256076 1_555
Ca15 O39 2.449823 1_555
Ca15 O30 2.485071 1_555
Ca15 O33 2.594796 1_555
Ca15 O29 2.637828 1_555
Ca15 O42 2.648136 1_555
Ca15 O32 2.686739 1_555
Ca16 O38 2.257051 1_555
Ca16 O47 2.361266 1_555
Ca16 O48 2.480775 1_555
Ca16 O46 2.485053 1_555
Ca16 O37 2.543035 1_555
Ca16 O10 2.701612 1_455
Ca16 O6 2.723981 1_555
Ca16 O9 2.851911 1_545
Ca17 O40 2.257051 1_555
Ca17 O48 2.361266 1_555
Ca17 O50 2.480775 1_555
Ca17 O52 2.485053 1_555
Ca17 O45 2.543035 1_555
Ca17 O13 2.701612 1_545
Ca17 O4 2.723981 1_555
Ca17 O7 2.851911 1_554
Ca18 O44 2.257051 1_555
Ca18 O50 2.361266 1_555
Ca18 O47 2.480775 1_555
Ca18 O53 2.485053 1_555
Ca18 O49 2.543035 1_555
Ca18 O8 2.701612 1_554
Ca18 O5 2.723981 1_555
Ca18 O12 2.851911 1_455
Ca19 O50 2.259643 1_555
Ca19 O47 2.259643 1_555
Ca19 O48 2.259643 1_555
Ca20 O27 2.339253 1_554
Ca20 O42 2.339253 1_545
Ca20 O36 2.339253 1_455
Ca20 O45 2.811100 1_455
Ca20 O49 2.811100 1_545
Ca20 O37 2.811100 1_554
O0 P0 1.519249 1_666
O1 P2 1.581084 1_655
O2 P1 1.581084 1_556
O3 P3 1.581084 1_565
O4 P10 1.546238 1_555
O5 P9 1.546238 1_555
O6 P8 1.546238 1_555
O7 P4 1.561345 1_555
O8 P4 1.558265 1_555
O9 P5 1.561345 1_555
O10 P6 1.558265 1_555
O11 P4 1.541719 1_555
O12 P6 1.561345 1_555
O13 P5 1.558265 1_555
O14 O18 1.505389 1_555
O15 O19 1.505389 1_555
O15 P12 1.686392 1_556
O16 P5 1.541719 1_555
O17 P6 1.541719 1_555
O18 P13 1.686392 1_655
O20 P2 1.558065 1_555
O21 P7 1.559392 1_555
O22 P1 1.547654 1_546
O23 P7 1.559392 1_555
O24 O26 1.505389 1_555
O24 P11 1.686392 1_565
O25 P7 1.559392 1_555
O27 P2 1.579775 1_555
O28 P3 1.558065 1_555
O29 P3 1.547654 1_465
O30 P7 1.549532 1_555
O31 P10 1.575438 1_555
O32 P8 1.575438 1_555
O33 P1 1.558065 1_555
O34 P2 1.547654 1_654
O35 O38 1.519556 1_555
O35 P10 1.676501 1_555
O36 P3 1.579775 1_555
O37 P0 1.573444 1_556
O39 P9 1.575438 1_555
O40 O43 1.519556 1_555
O41 O44 1.519556 1_555
O41 P8 1.676502 1_555
O42 P1 1.579775 1_555
O43 P9 1.676501 1_555
O45 P0 1.573444 1_655
O46 P13 1.578335 1_555
O47 P6 1.587258 1_455
O48 P5 1.587258 1_545
O49 P0 1.573444 1_565
O50 P4 1.587258 1_554
O51 P11 1.550390 1_556
O52 P11 1.578335 1_555
O53 P12 1.578335 1_555
O54 P13 1.550390 1_565
O55 P12 1.550390 1_655
