# generated using pymatgen
data_Cs2NaGaF6
_symmetry_space_group_name_H-M   'P 1'
_cell_length_a   10.91302003
_cell_length_b   10.91302003
_cell_length_c   10.91302006
_cell_angle_alpha   33.80219797
_cell_angle_beta   33.80219797
_cell_angle_gamma   33.80219640
_symmetry_Int_Tables_number   1
_chemical_formula_structural   Cs2NaGaF6
_chemical_formula_sum   'Cs4 Na2 Ga2 F12'
_cell_volume   358.43821287
_cell_formula_units_Z   2
loop_
 _symmetry_equiv_pos_site_id
 _symmetry_equiv_pos_as_xyz
  1  'x, y, z'
loop_
 _atom_site_type_symbol
 _atom_site_label
 _atom_site_symmetry_multiplicity
 _atom_site_fract_x
 _atom_site_fract_y
 _atom_site_fract_z
 _atom_site_occupancy
  Cs  Cs0  1  0.71847500  0.71847500  0.71847500  1
  Cs  Cs1  1  0.28152500  0.28152500  0.28152500  1
  Cs  Cs2  1  0.87198100  0.87198100  0.87198100  1
  Cs  Cs3  1  0.12801900  0.12801900  0.12801900  1
  Na  Na0  1  0.40301500  0.40301500  0.40301500  1
  Na  Na1  1  0.59698500  0.59698500  0.59698500  1
  Ga  Ga0  1  0.00000000  0.00000000  0.00000000  1
  Ga  Ga1  1  0.50000000  0.50000000  0.50000000  1
  F  F0  1  0.18146000  0.18146000  0.74487900  1
  F  F1  1  0.74487900  0.18146000  0.18146000  1
  F  F2  1  0.18146000  0.74487900  0.18146000  1
  F  F3  1  0.81854000  0.25512100  0.81854000  1
  F  F4  1  0.81854000  0.81854000  0.25512100  1
  F  F5  1  0.25512100  0.81854000  0.81854000  1
  F  F6  1  0.39661100  0.39661100  0.81986400  1
  F  F7  1  0.81986400  0.39661100  0.39661100  1
  F  F8  1  0.18013600  0.60338900  0.60338900  1
  F  F9  1  0.60338900  0.60338900  0.18013600  1
  F  F10  1  0.60338900  0.18013600  0.60338900  1
  F  F11  1  0.39661100  0.81986400  0.39661100  1
loop_
_geom_bond_atom_site_label_1
_geom_bond_atom_site_label_2
_geom_bond_distance
_geom_bond_site_symmetry_2
Cs0 F8 3.182294 1_655
Cs0 F10 3.182294 1_565
Cs0 F9 3.182294 1_556
Cs0 F0 3.218588 1_655
Cs0 F0 3.218588 1_565
Cs0 F1 3.218588 1_556
Cs0 F2 3.218588 1_556
Cs0 F2 3.218588 1_655
Cs0 F1 3.218588 1_565
Cs0 F3 3.403247 1_555
Cs0 F5 3.403247 1_555
Cs0 F4 3.403247 1_555
Cs1 F11 3.182294 1_545
Cs1 F7 3.182294 1_455
Cs1 F6 3.182294 1_554
Cs1 F4 3.218588 1_545
Cs1 F4 3.218588 1_455
Cs1 F5 3.218588 1_554
Cs1 F3 3.218588 1_554
Cs1 F5 3.218588 1_545
Cs1 F3 3.218588 1_455
Cs1 F1 3.403247 1_555
Cs1 F2 3.403247 1_555
Cs1 F0 3.403247 1_555
Cs2 F10 3.163429 1_565
Cs2 F8 3.163429 1_655
Cs2 F9 3.163429 1_556
Cs2 F6 3.185208 1_655
Cs2 F6 3.185208 1_565
Cs2 F7 3.185208 1_565
Cs2 F11 3.185208 1_655
Cs2 F11 3.185208 1_556
Cs2 F7 3.185208 1_556
Cs2 F5 3.259274 1_655
Cs2 F3 3.259274 1_565
Cs2 F4 3.259274 1_556
Cs3 F11 3.163429 1_545
Cs3 F7 3.163429 1_455
Cs3 F6 3.163429 1_554
Cs3 F9 3.185208 1_455
Cs3 F9 3.185208 1_545
Cs3 F8 3.185208 1_545
Cs3 F10 3.185208 1_455
Cs3 F10 3.185208 1_554
Cs3 F8 3.185208 1_554
Cs3 F2 3.259274 1_545
Cs3 F1 3.259274 1_455
Cs3 F0 3.259274 1_554
F0 Ga0 1.945776 1_556
F0 Na0 2.311614 1_555
F1 Ga0 1.945775 1_655
F1 Na0 2.311614 1_555
F2 Ga0 1.945775 1_565
F2 Na0 2.311614 1_555
F3 Ga0 1.945775 1_656
F3 Na1 2.311614 1_555
F4 Ga0 1.945776 1_665
F4 Na1 2.311614 1_555
F5 Ga0 1.945775 1_566
F5 Na1 2.311614 1_555
F6 Ga1 1.937950 1_555
F6 Na1 2.397389 1_555
F7 Ga1 1.937949 1_555
F7 Na1 2.397389 1_555
F8 Ga1 1.937949 1_555
F8 Na0 2.397389 1_555
F9 Ga1 1.937950 1_555
F9 Na0 2.397389 1_555
F10 Ga1 1.937949 1_555
F10 Na0 2.397389 1_555
F11 Ga1 1.937949 1_555
F11 Na1 2.397389 1_555
