# generated using pymatgen
data_SrTeO3
_symmetry_space_group_name_H-M   'P 1'
_cell_length_a   5.99654594
_cell_length_b   14.58929409
_cell_length_c   26.71530825
_cell_angle_alpha   83.54535156
_cell_angle_beta   83.55722438
_cell_angle_gamma   78.15374116
_symmetry_Int_Tables_number   1
_chemical_formula_structural   SrTeO3
_chemical_formula_sum   'Sr24 Te24 O72'
_cell_volume   2263.35443390
_cell_formula_units_Z   24
loop_
 _symmetry_equiv_pos_site_id
 _symmetry_equiv_pos_as_xyz
  1  'x, y, z'
loop_
 _atom_site_type_symbol
 _atom_site_label
 _atom_site_symmetry_multiplicity
 _atom_site_fract_x
 _atom_site_fract_y
 _atom_site_fract_z
 _atom_site_occupancy
  Sr  Sr0  1  0.72363982  0.56228806  0.55467404  1
  Sr  Sr1  1  0.84406325  0.93732696  0.94515468  1
  Sr  Sr2  1  0.04853246  0.32818574  0.07620054  1
  Sr  Sr3  1  0.86957685  0.34674397  0.36191117  1
  Sr  Sr4  1  0.08619700  0.53983674  0.79003818  1
  Sr  Sr5  1  0.57990470  0.15501768  0.13746292  1
  Sr  Sr6  1  0.42638823  0.84656244  0.86116659  1
  Sr  Sr7  1  0.66888851  0.44461587  0.69751301  1
  Sr  Sr8  1  0.41493831  0.96194887  0.71004252  1
  Sr  Sr9  1  0.95148367  0.67316202  0.92274282  1
  Sr  Sr10  1  0.12839526  0.65207012  0.63756480  1
  Sr  Sr11  1  0.78675952  0.75188323  0.25010359  1
  Sr  Sr12  1  0.50153120  0.49980258  0.99965842  1
  Sr  Sr13  1  0.33452548  0.55618645  0.30179747  1
  Sr  Sr14  1  0.45053873  0.17147749  0.42296783  1
  Sr  Sr15  1  0.19368948  0.94391000  0.19756152  1
  Sr  Sr16  1  0.54591070  0.82647181  0.57682628  1
  Sr  Sr17  1  0.27478228  0.43590492  0.44426904  1
  Sr  Sr18  1  0.00068295  0.99889434  0.49903887  1
  Sr  Sr19  1  0.91445818  0.46251554  0.21017638  1
  Sr  Sr20  1  0.21087617  0.25044031  0.75064980  1
  Sr  Sr21  1  0.58662320  0.03823050  0.28911797  1
  Sr  Sr22  1  0.80372352  0.05644330  0.80316372  1
  Sr  Sr23  1  0.15825852  0.06451006  0.05461796  1
  Te  Te0  1  0.25646119  0.40350164  0.61538620  1
  Te  Te1  1  0.56885258  0.68581013  0.70764663  1
  Te  Te2  1  0.86072072  0.29564918  0.50003977  1
  Te  Te3  1  0.27518462  0.09464511  0.88552537  1
  Te  Te4  1  0.65773694  0.20603363  0.99944031  1
  Te  Te5  1  0.14457515  0.84112304  0.32729411  1
  Te  Te6  1  0.13833265  0.70343940  0.49956495  1
  Te  Te7  1  0.59956145  0.88369287  0.42585236  1
  Te  Te8  1  0.96609089  0.81390738  0.79199828  1
  Te  Te9  1  0.40649649  0.11407603  0.57345091  1
  Te  Te10  1  0.72320887  0.90641515  0.11535963  1
  Te  Te11  1  0.46559640  0.41395861  0.13974375  1
  Te  Te12  1  0.03557191  0.18569538  0.20744410  1
  Te  Te13  1  0.34399737  0.79645995  0.99986917  1
  Te  Te14  1  0.90910783  0.61496341  0.07267941  1
  Te  Te15  1  0.74538085  0.59405558  0.38411361  1
  Te  Te16  1  0.01607715  0.08655852  0.35991767  1
  Te  Te17  1  0.43063688  0.31485966  0.29208022  1
  Te  Te18  1  0.53613247  0.58628360  0.86047236  1
  Te  Te19  1  0.09111117  0.38476237  0.92597909  1
  Te  Te20  1  0.68400712  0.34063232  0.82728336  1
  Te  Te21  1  0.31184848  0.66116916  0.17235200  1
  Te  Te22  1  0.98285182  0.91220263  0.63912856  1
  Te  Te23  1  0.85346833  0.15830466  0.67363802  1
  O  O0  1  0.18083488  0.89517865  0.78593517  1
  O  O1  1  0.91635713  0.70077724  0.55612064  1
  O  O2  1  0.25413760  0.66376980  0.84321966  1
  O  O3  1  0.28421875  0.89818064  0.44332426  1
  O  O4  1  0.56356494  0.67265565  0.63791968  1
  O  O5  1  0.26840539  0.33716282  0.17422390  1
  O  O6  1  0.85880724  0.60450370  0.71422787  1
  O  O7  1  0.39671818  0.69706028  0.53527464  1
  O  O8  1  0.61132662  -0.00012293  0.38653022  1
  O  O9  1  0.77283848  0.07785212  0.99056392  1
  O  O10  1  0.08234262  0.29612992  0.44342837  1
  O  O11  1  0.76790420  0.83167230  0.65533494  1
  O  O12  1  0.53767431  0.99802957  0.88945064  1
  O  O13  1  0.31973119  0.36511475  0.68229970  1
  O  O14  1  0.99051822  0.49794759  0.11170631  1
  O  O15  1  0.83658963  0.21911160  0.81284370  1
  O  O16  1  0.40040532  0.99742420  0.61271973  1
  O  O17  1  0.87212748  0.28079429  0.68603524  1
  O  O18  1  0.96698600  0.48334475  0.62362720  1
  O  O19  1  0.08650206  0.87959285  0.57310582  1
  O  O20  1  0.44061182  0.32556347  0.36199609  1
  O  O21  1  0.46422083  0.00422291  0.11034207  1
  O  O22  1  0.77610036  0.16467503  0.32614447  1
  O  O23  1  0.07319723  0.01620585  0.87591561  1
  O  O24  1  0.70400065  0.90105286  0.48771343  1
  O  O25  1  0.81820980  0.10539407  0.21311616  1
  O  O26  1  0.99869187  0.50241994  0.88836549  1
  O  O27  1  0.09377611  0.59725061  0.01099823  1
  O  O28  1  0.82350351  0.20290023  0.05636704  1
  O  O29  1  0.38140368  0.59351042  0.72657713  1
  O  O30  1  0.91404612  0.11974356  0.42597144  1
  O  O31  1  0.36379771  0.13620501  0.81893594  1
  O  O32  1  0.73382443  0.66448326  0.82752164  1
  O  O33  1  0.72113352  0.09988512  0.55517642  1
  O  O34  1  0.62549973  0.60244240  0.05445744  1
  O  O35  1  0.37300716  0.39936645  0.94419672  1
  O  O36  1  0.87498932  0.82606813  0.86176166  1
  O  O37  1  0.23185840  0.92525470  0.00770055  1
  O  O38  1  0.03230836  0.51290743  0.37521315  1
  O  O39  1  0.14105926  0.39674662  0.28645753  1
  O  O40  1  0.57169081  0.49886092  0.38813190  1
  O  O41  1  0.42582997  0.50038464  0.61003780  1
  O  O42  1  0.63330013  0.86862725  0.18252323  1
  O  O43  1  0.11510566  0.59620246  0.21753675  1
  O  O44  1  0.29299551  0.09232622  0.22709571  1
  O  O45  1  0.46045017  0.38014396  0.07393963  1
  O  O46  1  0.56762607  0.63014901  0.21116450  1
  O  O47  1  0.18101326  0.79878072  0.94258174  1
  O  O48  1  0.90600889  0.39921784  0.98781531  1
  O  O49  1  0.36879468  0.19925061  0.03445902  1
  O  O50  1  0.07097980  0.09527540  0.71911070  1
  O  O51  1  0.43108873  0.37203390  0.78755297  1
  O  O52  1  0.40879258  0.87200233  0.28842726  1
  O  O53  1  0.60087528  0.30326683  0.46463374  1
  O  O54  1  0.61829751  0.40702305  0.27253853  1
  O  O55  1  0.74663561  0.33469062  0.15572373  1
  O  O56  1  0.84545780  0.42390096  0.50765420  1
  O  O57  1  0.68434277  0.63446445  0.31722535  1
  O  O58  1  0.92922213  0.90400082  0.28122864  1
  O  O59  1  0.16399475  0.57513864  0.49070741  1
  O  O60  1  0.53417942  0.62055084  0.92637926  1
  O  O61  1  0.22567097  0.83562826  0.67270565  1
  O  O62  1  0.12822093  0.71888092  0.31391525  1
  O  O63  1  0.88398643  0.40539550  0.78276988  1
  O  O64  1  0.15868580  0.78191102  0.18798027  1
  O  O65  1  0.92983602  0.98405254  0.12317897  1
  O  O66  1  0.59088105  0.12846011  0.71366378  1
  O  O67  1  0.12576995  0.17470107  0.13755320  1
  O  O68  1  0.70374630  0.90534217  0.77296471  1
  O  O69  1  0.23771888  0.16431962  0.34399838  1
  O  O70  1  0.29627038  0.09747993  0.51211510  1
  O  O71  1  0.63556629  0.80178016  0.96590867  1
loop_
_geom_bond_atom_site_label_1
_geom_bond_atom_site_label_2
_geom_bond_distance
_geom_bond_site_symmetry_2
O0 Te8 1.904525 1_455
O0 Sr8 2.551275 1_555
O0 Sr6 2.574008 1_555
O0 Sr22 2.947281 1_465
O1 Te6 1.900741 1_655
O1 Sr0 2.530905 1_555
O1 Sr10 2.599629 1_655
O1 Sr16 2.623585 1_555
O2 Te18 1.903358 1_555
O2 Sr9 2.631359 1_455
O2 Sr4 2.819258 1_555
O2 Sr6 3.152500 1_555
O3 Te7 1.870375 1_555
O3 Sr18 2.482593 1_555
O4 Te1 1.898395 1_555
O4 Sr16 2.613170 1_555
O4 Sr10 2.688460 1_555
O4 Sr0 2.855070 1_555
O5 Te11 1.889306 1_555
O5 Sr19 2.667520 1_455
O5 Sr2 3.088063 1_555
O5 Sr5 3.106816 1_555
O6 Te1 1.906850 1_555
O6 Sr4 2.552092 1_655
O6 Sr10 2.586039 1_655
O6 Sr7 2.894250 1_555
O7 Te6 1.889982 1_555
O7 Sr0 2.528664 1_555
O7 Sr16 2.642885 1_555
O7 Sr10 3.087235 1_555
O8 Te7 1.901008 1_545
O8 Sr21 2.613925 1_555
O8 Sr14 2.736990 1_555
O9 Te4 1.887549 1_555
O9 Sr1 2.437343 1_545
O9 Sr23 2.989273 1_656
O10 Te2 1.898394 1_455
O10 Sr17 2.544179 1_555
O10 Sr14 2.604801 1_555
O10 Sr3 2.605936 1_455
O11 Te22 1.900347 1_555
O11 Sr16 2.623106 1_555
O11 Sr8 2.916685 1_555
O11 Sr10 3.080247 1_655
O12 Te3 1.888992 1_565
O12 Sr1 2.454326 1_555
O12 Sr6 2.644530 1_555
O12 Sr22 2.806519 1_565
O13 Te0 1.868967 1_555
O13 Sr20 2.460359 1_555
O13 Sr7 2.681087 1_555
O14 Te14 1.900444 1_555
O14 Sr19 2.630093 1_555
O14 Sr2 2.693552 1_655
O15 Te20 1.880878 1_555
O15 Sr22 2.465629 1_555
O15 Sr20 2.724072 1_655
O16 Te9 1.900989 1_565
O16 Sr8 2.601017 1_555
O16 Sr16 2.712505 1_555
O17 Te23 1.881274 1_555
O17 Sr7 2.485278 1_555
O17 Sr20 2.747337 1_655
O18 Te0 1.886862 1_655
O18 Sr0 2.507075 1_555
O18 Sr7 2.604399 1_555
O18 Sr10 2.898281 1_655
O19 Te22 1.882801 1_455
O19 Sr18 2.509191 1_555
O19 Sr16 2.714284 1_555
O20 Te17 1.900321 1_555
O20 Sr14 2.617988 1_555
O20 Sr3 2.652762 1_555
O20 Sr17 2.838847 1_555
O21 Te10 1.886771 1_545
O21 Sr23 2.451939 1_555
O21 Sr5 2.635130 1_555
O21 Sr15 2.848174 1_545
O22 Te16 1.889596 1_655
O22 Sr21 2.682452 1_555
O22 Sr14 3.058894 1_555
O22 Sr3 3.095979 1_555
O23 Te3 1.883481 1_555
O23 Sr1 2.496796 1_445
O23 Sr22 2.606177 1_455
O23 Sr6 2.940443 1_545
O24 Te7 1.891847 1_555
O24 Sr18 2.560228 1_655
O24 Sr16 2.661739 1_555
O25 Te12 1.907114 1_655
O25 Sr21 2.547516 1_555
O25 Sr5 2.558411 1_555
O25 Sr15 2.936828 1_645
O26 Te19 1.899994 1_655
O26 Sr4 2.638088 1_655
O26 Sr9 2.700963 1_555
O27 Te14 1.891331 1_455
O27 Sr12 2.568069 1_554
O27 Sr9 2.643880 1_454
O28 Te4 1.899483 1_554
O28 Sr23 2.538562 1_655
O28 Sr5 2.585340 1_555
O28 Sr2 2.614085 1_655
O29 Te1 1.916587 1_555
O29 Sr4 2.493651 1_555
O29 Sr7 2.614349 1_555
O29 Sr10 2.916726 1_555
O30 Te16 1.884379 1_655
O30 Sr18 2.503307 1_645
O30 Sr14 2.734326 1_555
O31 Te3 1.868771 1_555
O31 Sr20 2.451710 1_555
O31 Sr22 2.662950 1_555
O32 Te18 1.891333 1_555
O32 Sr4 2.670486 1_655
O32 Sr9 3.012679 1_555
O32 Sr6 3.068775 1_555
O33 Te9 1.869922 1_555
O33 Sr18 2.479653 1_645
O34 Te14 1.869750 1_555
O34 Sr12 2.476353 1_554
O35 Te19 1.869637 1_555
O35 Sr12 2.478809 1_555
O36 Te8 1.899877 1_555
O36 Sr9 2.602189 1_555
O36 Sr6 2.646574 1_555
O36 Sr1 2.868672 1_555
O37 Te13 1.888049 1_554
O37 Sr23 2.444100 1_565
O37 Sr1 2.977980 1_454
O38 Te15 1.885118 1_455
O38 Sr17 2.499006 1_555
O38 Sr13 2.631242 1_555
O38 Sr3 2.863228 1_455
O39 Te17 1.905669 1_555
O39 Sr19 2.562521 1_455
O39 Sr3 2.581909 1_455
O39 Sr13 2.890268 1_555
O40 Te15 1.886914 1_555
O40 Sr17 2.454620 1_555
O40 Sr3 2.654770 1_555
O40 Sr13 2.802830 1_555
O41 Te0 1.887111 1_555
O41 Sr0 2.441624 1_555
O41 Sr10 2.658995 1_555
O41 Sr7 2.845624 1_555
O42 Te10 1.869928 1_555
O42 Sr11 2.458720 1_555
O42 Sr15 2.643816 1_555
O43 Te21 1.905163 1_555
O43 Sr19 2.528478 1_455
O43 Sr13 2.682003 1_555
O43 Sr11 2.831278 1_455
O44 Te12 1.916195 1_555
O44 Sr21 2.501753 1_555
O44 Sr15 2.585457 1_545
O44 Sr5 2.959658 1_555
O45 Te11 1.883674 1_555
O45 Sr12 2.516796 1_554
O45 Sr2 2.721132 1_555
O46 Te21 1.897064 1_555
O46 Sr11 2.764679 1_555
O46 Sr19 2.867281 1_555
O46 Sr13 2.872829 1_555
O47 Te13 1.899756 1_555
O47 Sr1 2.548757 1_455
O47 Sr6 2.596872 1_555
O47 Sr9 2.636636 1_455
O48 Te19 1.891097 1_655
O48 Sr12 2.570461 1_555
O48 Sr2 2.630380 1_656
O49 Te4 1.890217 1_554
O49 Sr23 2.525173 1_555
O49 Sr2 2.641582 1_555
O49 Sr5 3.104584 1_555
O50 Te23 1.906464 1_455
O50 Sr8 2.538312 1_545
O50 Sr22 2.685283 1_455
O50 Sr20 2.811654 1_555
O51 Te20 1.898243 1_555
O51 Sr20 2.740408 1_555
O51 Sr4 2.863906 1_555
O51 Sr7 2.866770 1_555
O52 Te5 1.900023 1_555
O52 Sr11 2.740107 1_555
O52 Sr21 2.845190 1_565
O52 Sr15 2.869092 1_555
O53 Te2 1.889705 1_555
O53 Sr17 2.512521 1_555
O53 Sr14 2.677052 1_555
O53 Sr3 3.092809 1_555
O54 Te17 1.917915 1_555
O54 Sr19 2.491606 1_555
O54 Sr13 2.608823 1_555
O54 Sr3 2.921614 1_555
O55 Te11 1.900014 1_555
O55 Sr2 2.628960 1_655
O55 Sr19 2.883703 1_555
O55 Sr5 3.095454 1_555
O56 Te2 1.887292 1_555
O56 Sr0 2.438548 1_555
O56 Sr17 2.943817 1_655
O57 Te15 1.869763 1_555
O57 Sr11 2.453851 1_555
O57 Sr13 2.675415 1_555
O58 Te5 1.907913 1_655
O58 Sr21 2.538472 1_565
O58 Sr15 2.672290 1_655
O58 Sr11 2.774740 1_555
O59 Te6 1.885876 1_555
O59 Sr17 2.436045 1_555
O59 Sr0 3.007787 1_455
O60 Te18 1.881780 1_555
O60 Sr12 2.500874 1_555
O60 Sr9 2.752778 1_555
O61 Te22 1.890188 1_455
O61 Sr8 2.684319 1_555
O61 Sr16 3.022292 1_555
O61 Sr10 3.118126 1_555
O62 Te5 1.881746 1_555
O62 Sr13 2.479212 1_555
O62 Sr11 2.743112 1_455
O63 Te20 1.907222 1_555
O63 Sr4 2.543632 1_655
O63 Sr7 2.691121 1_555
O63 Sr20 2.815795 1_655
O64 Te21 1.880405 1_555
O64 Sr15 2.459112 1_555
O64 Sr11 2.706926 1_455
O65 Te10 1.883967 1_555
O65 Sr23 2.494517 1_665
O65 Sr15 2.618902 1_655
O65 Sr5 2.942031 1_565
O66 Te23 1.900355 1_555
O66 Sr20 2.749720 1_555
O66 Sr22 2.831845 1_555
O66 Sr8 2.855161 1_545
O67 Te12 1.899901 1_555
O67 Sr2 2.614297 1_555
O67 Sr5 2.678826 1_555
O67 Sr23 2.847243 1_555
O68 Te8 1.917884 1_555
O68 Sr8 2.502208 1_555
O68 Sr22 2.630776 1_565
O68 Sr6 2.881960 1_555
O69 Te16 1.902135 1_555
O69 Sr14 2.607457 1_555
O69 Sr21 2.872056 1_555
O69 Sr3 3.134119 1_455
O70 Te9 1.891697 1_555
O70 Sr18 2.575098 1_545
O70 Sr14 2.651561 1_555
O71 Te13 1.889437 1_555
O71 Sr1 2.528681 1_555
O71 Sr9 2.641298 1_555
O71 Sr6 3.141728 1_555
