# generated using pymatgen
data_Fe2Re3
_symmetry_space_group_name_H-M   'P 1'
_cell_length_a   6.43019807
_cell_length_b   6.43020859
_cell_length_c   6.43021257
_cell_angle_alpha   89.99942252
_cell_angle_beta   90.00032068
_cell_angle_gamma   89.99955056
_symmetry_Int_Tables_number   1
_chemical_formula_structural   Fe2Re3
_chemical_formula_sum   'Fe8 Re12'
_cell_volume   265.87330981
_cell_formula_units_Z   4
loop_
 _symmetry_equiv_pos_site_id
 _symmetry_equiv_pos_as_xyz
  1  'x, y, z'
loop_
 _atom_site_type_symbol
 _atom_site_label
 _atom_site_symmetry_multiplicity
 _atom_site_fract_x
 _atom_site_fract_y
 _atom_site_fract_z
 _atom_site_occupancy
  Fe  Fe0  1  0.18937295  0.81065000  0.31060660  1
  Fe  Fe1  1  0.31064002  0.18935473  0.81063210  1
  Fe  Fe2  1  0.81062975  0.31060990  0.18933059  1
  Fe  Fe3  1  0.68935630  0.68936637  0.68936525  1
  Fe  Fe4  1  0.56064966  0.43935236  0.93935418  1
  Fe  Fe5  1  0.43938848  0.93936684  0.56062778  1
  Fe  Fe6  1  0.93935376  0.56061747  0.43934983  1
  Fe  Fe7  1  0.06062516  0.06064571  0.06060828  1
  Re  Re0  1  0.80107613  0.94896064  0.37503688  1
  Re  Re1  1  0.69894578  0.05103567  0.87503755  1
  Re  Re2  1  0.19893456  0.44893473  0.12498115  1
  Re  Re3  1  0.30104550  0.55107293  0.62502098  1
  Re  Re4  1  0.94898164  0.37504046  0.80106806  1
  Re  Re5  1  0.05107809  0.87500031  0.69893915  1
  Re  Re6  1  0.44891778  0.12503415  0.19896180  1
  Re  Re7  1  0.55102707  0.62495891  0.30106909  1
  Re  Re8  1  0.37504921  0.80109630  0.94895927  1
  Re  Re9  1  0.87496777  0.69898363  0.05107011  1
  Re  Re10  1  0.12496034  0.19889756  0.44893962  1
  Re  Re11  1  0.62500106  0.30102332  0.55104073  1
loop_
_geom_bond_atom_site_label_1
_geom_bond_atom_site_label_2
_geom_bond_distance
_geom_bond_site_symmetry_2
Fe0 Fe7 2.419424 1_565
Fe0 Fe5 2.419559 1_555
Fe0 Fe6 2.419683 1_455
Fe0 Re8 2.614784 1_554
Fe0 Re7 2.614846 1_555
Fe0 Re2 2.615029 1_555
Fe0 Re10 2.682422 1_565
Fe0 Re0 2.682674 1_455
Fe0 Re5 2.682790 1_555
Fe0 Re6 2.717980 1_565
Fe0 Re9 2.718079 1_455
Fe0 Re3 2.718275 1_555
Fe1 Fe7 2.419348 1_556
Fe1 Fe5 2.419446 1_545
Fe1 Fe4 2.419452 1_555
Fe1 Re4 2.614857 1_455
Fe1 Re3 2.614987 1_555
Fe1 Re10 2.615038 1_555
Fe1 Re8 2.682453 1_545
Fe1 Re6 2.682690 1_556
Fe1 Re1 2.682714 1_555
Fe1 Re5 2.717993 1_545
Fe1 Re2 2.718061 1_556
Fe1 Re11 2.718093 1_555
Fe2 Fe7 2.419238 1_655
Fe2 Fe4 2.419253 1_554
Fe2 Fe6 2.419542 1_555
Fe2 Re0 2.614867 1_545
Fe2 Re6 2.614869 1_555
Fe2 Re11 2.615008 1_555
Fe2 Re4 2.682566 1_554
Fe2 Re2 2.682682 1_655
Fe2 Re9 2.682938 1_555
Fe2 Re1 2.717735 1_554
Fe2 Re10 2.718069 1_655
Fe2 Re7 2.718191 1_555
Fe3 Fe5 2.419291 1_555
Fe3 Fe4 2.419387 1_555
Fe3 Fe6 2.419532 1_555
Fe3 Re1 2.614908 1_565
Fe3 Re9 2.614921 1_556
Fe3 Re5 2.615087 1_655
Fe3 Re3 2.682644 1_555
Fe3 Re7 2.682695 1_555
Fe3 Re11 2.682923 1_555
Fe3 Re8 2.717950 1_555
Fe3 Re0 2.718025 1_555
Fe3 Re4 2.718093 1_555
Fe4 Re7 2.614982 1_556
Fe4 Re2 2.615027 1_556
Fe4 Re8 2.615107 1_555
Fe4 Re1 2.682653 1_555
Fe4 Re4 2.682721 1_555
Fe4 Re11 2.682752 1_555
Fe4 Re6 2.718050 1_556
Fe4 Re3 2.718077 1_555
Fe4 Re9 2.718130 1_556
Fe5 Re11 2.614655 1_565
Fe5 Re0 2.614766 1_555
Fe5 Re6 2.614845 1_565
Fe5 Re3 2.682698 1_555
Fe5 Re5 2.682703 1_555
Fe5 Re8 2.682708 1_555
Fe5 Re7 2.718144 1_555
Fe5 Re10 2.718183 1_565
Fe5 Re1 2.718188 1_565
Fe6 Re4 2.614893 1_555
Fe6 Re10 2.614983 1_655
Fe6 Re3 2.615005 1_655
Fe6 Re9 2.682642 1_555
Fe6 Re7 2.682695 1_555
Fe6 Re0 2.682760 1_555
Fe6 Re11 2.718103 1_555
Fe6 Re2 2.718115 1_655
Fe6 Re5 2.718294 1_655
Fe7 Re1 2.614651 1_454
Fe7 Re9 2.614812 1_445
Fe7 Re5 2.614822 1_544
Fe7 Re2 2.682583 1_555
Fe7 Re10 2.682676 1_555
Fe7 Re6 2.682701 1_555
Fe7 Re4 2.717986 1_454
Fe7 Re8 2.718186 1_544
Fe7 Re0 2.718276 1_445
Re0 Re10 2.673236 1_665
Re0 Re5 2.673622 1_655
Re0 Re9 2.673797 1_555
Re0 Re7 2.674335 1_555
Re0 Re11 2.772669 1_565
Re0 Re6 2.773330 1_565
Re1 Re8 2.673327 1_545
Re1 Re6 2.673898 1_556
Re1 Re11 2.674020 1_555
Re1 Re4 2.674297 1_555
Re1 Re9 2.772525 1_546
Re1 Re5 2.773174 1_645
Re2 Re4 2.673423 1_454
Re2 Re6 2.673561 1_555
Re2 Re9 2.674066 1_455
Re2 Re7 2.772913 1_555
Re2 Re8 2.773335 1_554
Re3 Re5 2.673573 1_555
Re3 Re7 2.673725 1_555
Re3 Re8 2.673962 1_555
Re3 Re4 2.772678 1_455
Re4 Re9 2.673914 1_556
Re5 Re8 2.673971 1_555
Re5 Re9 2.773149 1_456
Re6 Re8 2.673725 1_544
Re7 Re9 2.673895 1_555
Re7 Re8 2.772990 1_554
Re10 Re5 2.673504 1_545
Re10 Re6 2.673713 1_555
Re10 Re2 2.674062 1_555
Re10 Re4 2.773133 1_455
Re10 Re3 2.773500 1_555
Re11 Re7 2.673684 1_555
Re11 Re3 2.674102 1_555
Re11 Re4 2.674188 1_555
Re11 Re6 2.772741 1_555
