# generated using pymatgen
data_HPb3ClO3
_symmetry_space_group_name_H-M   'P 1'
_cell_length_a   5.94097600
_cell_length_b   6.99672300
_cell_length_c   15.58106000
_cell_angle_alpha   90.00000000
_cell_angle_beta   90.00000000
_cell_angle_gamma   90.00000000
_symmetry_Int_Tables_number   1
_chemical_formula_structural   HPb3ClO3
_chemical_formula_sum   'H4 Pb12 Cl4 O12'
_cell_volume   647.66358351
_cell_formula_units_Z   4
loop_
 _symmetry_equiv_pos_site_id
 _symmetry_equiv_pos_as_xyz
  1  'x, y, z'
loop_
 _atom_site_type_symbol
 _atom_site_label
 _atom_site_symmetry_multiplicity
 _atom_site_fract_x
 _atom_site_fract_y
 _atom_site_fract_z
 _atom_site_occupancy
  H  H0  1  0.50000000  0.78529800  0.22854100  1
  H  H1  1  0.50000000  0.21470200  0.72854100  1
  H  H2  1  0.00000000  0.79610700  0.94203700  1
  H  H3  1  0.00000000  0.20389300  0.44203700  1
  Pb  Pb0  1  0.50000000  0.58522200  0.80113800  1
  Pb  Pb1  1  0.50000000  0.41477800  0.30113800  1
  Pb  Pb2  1  0.50000000  0.79287200  0.59250100  1
  Pb  Pb3  1  0.50000000  0.20712800  0.09250100  1
  Pb  Pb4  1  0.50000000  0.70914400  0.03971700  1
  Pb  Pb5  1  0.50000000  0.29085600  0.53971700  1
  Pb  Pb6  1  0.00000000  0.53277900  0.16166100  1
  Pb  Pb7  1  0.00000000  0.46722100  0.66166100  1
  Pb  Pb8  1  0.00000000  0.61111200  0.43847300  1
  Pb  Pb9  1  0.00000000  0.38888800  0.93847300  1
  Pb  Pb10  1  0.00000000  0.92673500  0.77331400  1
  Pb  Pb11  1  0.00000000  0.07326500  0.27331400  1
  Cl  Cl0  1  0.00000000  0.97130700  0.06035900  1
  Cl  Cl1  1  0.00000000  0.02869300  0.56035900  1
  Cl  Cl2  1  0.50000000  0.94678000  0.36346800  1
  Cl  Cl3  1  0.50000000  0.05322000  0.86346800  1
  O  O0  1  0.24960800  0.54099300  0.54243100  1
  O  O1  1  0.75039200  0.54099300  0.54243100  1
  O  O2  1  0.75039200  0.45900700  0.04243100  1
  O  O3  1  0.24960800  0.45900700  0.04243100  1
  O  O4  1  0.24978200  0.71537300  0.71266400  1
  O  O5  1  0.75021800  0.71537300  0.71266400  1
  O  O6  1  0.75021800  0.28462700  0.21266400  1
  O  O7  1  0.24978200  0.28462700  0.21266400  1
  O  O8  1  0.50000000  0.66866300  0.19302400  1
  O  O9  1  0.50000000  0.33133700  0.69302400  1
  O  O10  1  0.00000000  0.71282500  0.89102700  1
  O  O11  1  0.00000000  0.28717500  0.39102700  1
loop_
_geom_bond_atom_site_label_1
_geom_bond_atom_site_label_2
_geom_bond_distance
_geom_bond_site_symmetry_2
H0 O8 0.986003 1_555
H1 O9 0.986003 1_555
H2 O10 0.985511 1_555
H3 O11 0.985511 1_555
O0 Pb8 2.250201 1_555
O0 Pb5 2.297313 1_555
O0 Pb7 2.432410 1_555
O0 Pb2 2.434604 1_555
O1 Pb8 2.250201 1_655
O1 Pb5 2.297313 1_555
O1 Pb7 2.432410 1_655
O1 Pb2 2.434604 1_555
O2 Pb9 2.250201 1_654
O2 Pb4 2.297313 1_555
O2 Pb6 2.432410 1_655
O2 Pb3 2.434604 1_555
O3 Pb9 2.250201 1_554
O3 Pb4 2.297313 1_555
O3 Pb6 2.432410 1_555
O3 Pb3 2.434604 1_555
O4 Pb0 2.222467 1_555
O4 Pb10 2.298279 1_555
O4 Pb7 2.418303 1_555
O4 Pb2 2.451368 1_555
O5 Pb0 2.222467 1_555
O5 Pb10 2.298279 1_655
O5 Pb7 2.418303 1_655
O5 Pb2 2.451368 1_555
O6 Pb1 2.222467 1_555
O6 Pb11 2.298279 1_655
O6 Pb6 2.418303 1_655
O6 Pb3 2.451368 1_555
O7 Pb1 2.222467 1_555
O7 Pb11 2.298279 1_555
O7 Pb6 2.418303 1_555
O7 Pb3 2.451368 1_555
O8 Pb4 2.405419 1_555
O8 Pb1 2.448083 1_555
O9 Pb5 2.405419 1_555
O9 Pb0 2.448083 1_555
O10 Pb10 2.367259 1_555
O10 Pb9 2.384012 1_555
O11 Pb11 2.367259 1_555
O11 Pb8 2.384012 1_555
