# generated using pymatgen
data_CsHgCl3
_symmetry_space_group_name_H-M   'P 1'
_cell_length_a   6.43033600
_cell_length_b   6.43033600
_cell_length_c   8.83519200
_cell_angle_alpha   90.00000000
_cell_angle_beta   90.00000000
_cell_angle_gamma   90.00000000
_symmetry_Int_Tables_number   1
_chemical_formula_structural   CsHgCl3
_chemical_formula_sum   'Cs2 Hg2 Cl6'
_cell_volume   365.32830723
_cell_formula_units_Z   2
loop_
 _symmetry_equiv_pos_site_id
 _symmetry_equiv_pos_as_xyz
  1  'x, y, z'
loop_
 _atom_site_type_symbol
 _atom_site_label
 _atom_site_symmetry_multiplicity
 _atom_site_fract_x
 _atom_site_fract_y
 _atom_site_fract_z
 _atom_site_occupancy
  Cs  Cs0  1  0.00000000  0.00000000  0.00000000  1
  Cs  Cs1  1  0.50000000  0.50000000  0.00000000  1
  Hg  Hg0  1  0.00000000  0.50000000  0.38005200  1
  Hg  Hg1  1  0.50000000  0.00000000  0.61994800  1
  Cl  Cl0  1  0.00000000  0.50000000  0.06029200  1
  Cl  Cl1  1  0.26280400  0.76280400  0.37473500  1
  Cl  Cl2  1  0.23719600  0.26280400  0.62526500  1
  Cl  Cl3  1  0.76280400  0.73719600  0.62526500  1
  Cl  Cl4  1  0.73719600  0.23719600  0.37473500  1
  Cl  Cl5  1  0.50000000  0.00000000  0.93970800  1
loop_
_geom_bond_atom_site_label_1
_geom_bond_atom_site_label_2
_geom_bond_distance
_geom_bond_site_symmetry_2
Cl0 Hg0 2.825141 1_555
Cl0 Cs1 3.258998 1_555
Cl0 Cs1 3.258998 1_455
Cl0 Cs0 3.258998 1_565
Cl0 Cs0 3.258998 1_555
Cl1 Hg0 2.390367 1_555
Cl1 Hg1 3.057207 1_565
Cl1 Cs1 4.017957 1_555
Cl1 Cs0 4.017957 1_565
Cl2 Hg1 2.390367 1_555
Cl2 Hg0 3.057207 1_555
Cl2 Cs1 4.017957 1_556
Cl2 Cs0 4.017957 1_556
Cl3 Hg1 2.390367 1_565
Cl3 Hg0 3.057207 1_655
Cl3 Cs1 4.017957 1_556
Cl3 Cs0 4.017957 1_666
Cl4 Hg0 2.390367 1_655
Cl4 Hg1 3.057207 1_555
Cl4 Cs0 4.017957 1_655
Cl4 Cs1 4.017957 1_555
Cl5 Hg1 2.825141 1_555
Cl5 Cs1 3.258998 1_556
Cl5 Cs1 3.258998 1_546
Cl5 Cs0 3.258998 1_556
Cl5 Cs0 3.258998 1_656
