# generated using pymatgen
data_FeHO2
_symmetry_space_group_name_H-M   'P 1'
_cell_length_a   10.54668578
_cell_length_b   6.18258886
_cell_length_c   10.71790257
_cell_angle_alpha   90.07887649
_cell_angle_beta   90.12361217
_cell_angle_gamma   90.05107332
_symmetry_Int_Tables_number   1
_chemical_formula_structural   FeHO2
_chemical_formula_sum   'Fe16 H16 O32'
_cell_volume   698.86707892
_cell_formula_units_Z   16
loop_
 _symmetry_equiv_pos_site_id
 _symmetry_equiv_pos_as_xyz
  1  'x, y, z'
loop_
 _atom_site_type_symbol
 _atom_site_label
 _atom_site_symmetry_multiplicity
 _atom_site_fract_x
 _atom_site_fract_y
 _atom_site_fract_z
 _atom_site_occupancy
  Fe  Fe0  1  0.35150900  0.98799200  0.12422900  1
  Fe  Fe1  1  0.14548500  0.99331500  0.62920300  1
  Fe  Fe2  1  0.84229500  0.24376300  0.62235100  1
  Fe  Fe3  1  0.67221800  0.24186000  0.10844500  1
  Fe  Fe4  1  0.65644200  0.00269000  0.81717700  1
  Fe  Fe5  1  0.86205700  0.99882700  0.32182000  1
  Fe  Fe6  1  0.15954400  0.24599200  0.33788500  1
  Fe  Fe7  1  0.35129100  0.24541000  0.82995300  1
  Fe  Fe8  1  0.34835000  0.50825500  0.11800700  1
  Fe  Fe9  1  0.14468400  0.49288600  0.63018300  1
  Fe  Fe10  1  0.84828300  0.74291800  0.61074800  1
  Fe  Fe11  1  0.65323000  0.74300900  0.11831500  1
  Fe  Fe12  1  0.65747200  0.48361100  0.81973900  1
  Fe  Fe13  1  0.86073000  0.49494300  0.32146400  1
  Fe  Fe14  1  0.15610400  0.74461800  0.33766600  1
  Fe  Fe15  1  0.35970500  0.74533200  0.82935400  1
  H  H0  1  0.35964400  0.98377000  0.39286000  1
  H  H1  1  0.41383500  0.99768000  0.64061200  1
  H  H2  1  0.92330600  0.26979900  0.11910700  1
  H  H3  1  0.64875500  0.97969100  0.54237100  1
  H  H4  1  0.60396500  0.02265400  0.31898900  1
  H  H5  1  0.15703800  0.23526900  0.07556300  1
  H  H6  1  0.48809200  0.28302300  0.23921400  1
  H  H7  1  0.07628800  0.23978700  0.82067500  1
  H  H8  1  0.35698400  0.50918500  0.39267300  1
  H  H9  1  0.41169300  0.48336700  0.63878600  1
  H  H10  1  0.85966700  0.75706400  0.85915100  1
  H  H11  1  0.91233100  0.76118700  0.11435900  1
  H  H12  1  0.64695300  0.49525000  0.54840400  1
  H  H13  1  0.61582300  0.55689600  0.33127100  1
  H  H14  1  0.14225800  0.75070800  0.08193900  1
  H  H15  1  0.08948000  0.74109700  0.83038300  1
  O  O0  1  0.30482900  0.99561000  0.32036900  1
  O  O1  1  0.04827700  0.99652400  0.30777400  1
  O  O2  1  0.33939500  0.99339800  0.69380800  1
  O  O3  1  0.33361100  0.99685900  0.94627700  1
  O  O4  1  0.78468700  0.24251000  0.79987100  1
  O  O5  1  0.53262200  0.24480600  0.80531400  1
  O  O6  1  0.85364600  0.25173700  0.17715900  1
  O  O7  1  0.83335100  0.24630800  0.43077000  1
  O  O8  1  0.70217200  0.98719900  0.61603800  1
  O  O9  1  0.96064900  0.99266000  0.63589600  1
  O  O10  1  0.66846000  0.00326500  0.25559200  1
  O  O11  1  0.67455600  0.98985800  0.00424500  1
  O  O12  1  0.22010300  0.24642500  0.14132000  1
  O  O13  1  0.47465000  0.25259700  0.15063100  1
  O  O14  1  0.15324400  0.24248000  0.77055200  1
  O  O15  1  0.17824100  0.24386200  0.51811300  1
  O  O16  1  0.30371100  0.49307600  0.31918700  1
  O  O17  1  0.04743100  0.49388500  0.30734700  1
  O  O18  1  0.33915000  0.49365700  0.69407500  1
  O  O19  1  0.33498800  0.49510300  0.94322800  1
  O  O20  1  0.79069400  0.74443200  0.79971200  1
  O  O21  1  0.54004200  0.74397900  0.80747400  1
  O  O22  1  0.84804500  0.75015400  0.17859500  1
  O  O23  1  0.83296500  0.74665000  0.42818500  1
  O  O24  1  0.70289100  0.50048700  0.62011000  1
  O  O25  1  0.96013200  0.49454500  0.63727600  1
  O  O26  1  0.66590600  0.50280100  0.26196600  1
  O  O27  1  0.67375100  0.49529000  0.00704200  1
  O  O28  1  0.21094300  0.74686000  0.14204700  1
  O  O29  1  0.46628300  0.74470900  0.14185400  1
  O  O30  1  0.15861500  0.74325200  0.77058100  1
  O  O31  1  0.17730600  0.74270300  0.51758000  1
loop_
_geom_bond_atom_site_label_1
_geom_bond_atom_site_label_2
_geom_bond_distance
_geom_bond_site_symmetry_2
Fe0 O3 1.917049 1_554
Fe0 O29 1.940715 1_555
Fe0 O13 2.106285 1_565
Fe0 O28 2.110664 1_555
Fe0 O12 2.124011 1_565
Fe0 O0 2.160582 1_555
Fe1 O9 1.950882 1_455
Fe1 O31 1.985500 1_555
Fe1 O15 1.985545 1_565
Fe1 O2 2.157733 1_555
Fe1 O14 2.160491 1_565
Fe1 O30 2.170574 1_555
Fe2 O25 1.992268 1_555
Fe2 O9 1.998157 1_545
Fe2 O4 1.998568 1_555
Fe2 O7 2.055391 1_555
Fe2 O24 2.164622 1_555
Fe2 O8 2.167899 1_545
Fe3 O27 1.908194 1_555
Fe3 O11 1.915907 1_545
Fe3 O6 2.049646 1_555
Fe3 O13 2.134204 1_555
Fe3 O10 2.161349 1_555
Fe3 O26 2.303891 1_555
Fe4 O5 1.991364 1_555
Fe4 O4 2.015071 1_555
Fe4 O11 2.015325 1_546
Fe4 O21 2.017871 1_545
Fe4 O20 2.143283 1_545
Fe4 O8 2.212060 1_545
Fe5 O7 1.947762 1_565
Fe5 O23 1.957071 1_555
Fe5 O1 1.970151 1_655
Fe5 O10 2.160435 1_565
Fe5 O22 2.175806 1_555
Fe5 O6 2.205243 1_565
Fe6 O15 1.941346 1_555
Fe6 O1 1.963132 1_545
Fe6 O17 1.963954 1_555
Fe6 O16 2.164179 1_555
Fe6 O0 2.187262 1_545
Fe6 O12 2.202775 1_555
Fe7 O5 1.931158 1_555
Fe7 O19 1.970509 1_555
Fe7 O3 1.989053 1_545
Fe7 O18 2.120996 1_555
Fe7 O2 2.136635 1_545
Fe7 O14 2.182350 1_555
Fe8 O19 1.879897 1_554
Fe8 O29 1.934909 1_555
Fe8 O28 2.084974 1_555
Fe8 O13 2.097203 1_555
Fe8 O12 2.123923 1_555
Fe8 O16 2.210120 1_555
Fe9 O25 1.948095 1_455
Fe9 O15 1.983974 1_555
Fe9 O31 1.991585 1_555
Fe9 O18 2.160869 1_555
Fe9 O30 2.161985 1_555
Fe9 O14 2.162041 1_555
Fe10 O25 1.957906 1_555
Fe10 O23 1.963172 1_555
Fe10 O9 1.963516 1_555
Fe10 O20 2.115676 1_555
Fe10 O24 2.145910 1_555
Fe10 O8 2.159425 1_555
Fe11 O27 1.952299 1_555
Fe11 O11 1.969825 1_555
Fe11 O29 1.988322 1_555
Fe11 O26 2.144682 1_555
Fe11 O22 2.152904 1_555
Fe11 O10 2.184411 1_565
Fe12 O5 1.983085 1_555
Fe12 O27 2.015644 1_556
Fe12 O4 2.017769 1_555
Fe12 O21 2.036143 1_555
Fe12 O20 2.149132 1_555
Fe12 O24 2.196179 1_555
Fe13 O23 1.952742 1_555
Fe13 O7 1.955633 1_555
Fe13 O17 1.975223 1_655
Fe13 O26 2.150723 1_555
Fe13 O6 2.156742 1_555
Fe13 O22 2.204188 1_555
Fe14 O31 1.940797 1_555
Fe14 O17 1.953491 1_555
Fe14 O1 1.955622 1_555
Fe14 O28 2.176198 1_555
Fe14 O16 2.210459 1_555
Fe14 O0 2.213700 1_555
Fe15 O21 1.916887 1_555
Fe15 O19 1.989173 1_555
Fe15 O3 2.015281 1_555
Fe15 O2 2.124618 1_555
Fe15 O18 2.135932 1_555
Fe15 O30 2.211123 1_555
H0 O0 0.970322 1_555
H1 O2 0.971639 1_555
H2 O6 0.970244 1_555
H3 O8 0.969987 1_555
H4 O10 0.969879 1_555
H5 O12 0.970373 1_555
H6 O13 0.977635 1_555
H7 O14 0.974424 1_555
H8 O16 0.971448 1_555
H9 O18 0.970824 1_555
H10 O20 0.968954 1_555
H11 O22 0.969743 1_555
H12 O24 0.968346 1_555
H13 O26 0.971567 1_555
H14 O28 0.968718 1_555
H15 O30 0.971943 1_555
