# generated using pymatgen
data_K2Sn(GeO3)3
_symmetry_space_group_name_H-M   'P 1'
_cell_length_a   12.14325225
_cell_length_b   12.14325225
_cell_length_c   10.74229300
_cell_angle_alpha   90.00000000
_cell_angle_beta   90.00000000
_cell_angle_gamma   120.00000134
_symmetry_Int_Tables_number   1
_chemical_formula_structural   K2Sn(GeO3)3
_chemical_formula_sum   'K12 Sn6 Ge18 O54'
_cell_volume   1371.82164991
_cell_formula_units_Z   6
loop_
 _symmetry_equiv_pos_site_id
 _symmetry_equiv_pos_as_xyz
  1  'x, y, z'
loop_
 _atom_site_type_symbol
 _atom_site_label
 _atom_site_symmetry_multiplicity
 _atom_site_fract_x
 _atom_site_fract_y
 _atom_site_fract_z
 _atom_site_occupancy
  K  K0  1  0.34611700  0.34641000  0.99141700  1
  K  K1  1  0.99970700  0.34611700  0.00858300  1
  K  K2  1  0.99970700  0.65359000  0.50858300  1
  K  K3  1  0.65359000  0.99970700  0.99141700  1
  K  K4  1  0.00029300  0.34641000  0.49141700  1
  K  K5  1  0.65388300  0.65359000  0.00858300  1
  K  K6  1  0.34641000  0.34611700  0.50858300  1
  K  K7  1  0.00029300  0.65388300  0.99141700  1
  K  K8  1  0.34641000  0.00029300  0.00858300  1
  K  K9  1  0.65388300  0.00029300  0.50858300  1
  K  K10  1  0.34611700  0.99970700  0.49141700  1
  K  K11  1  0.65359000  0.65388300  0.49141700  1
  Sn  Sn0  1  0.33333300  0.66666700  0.49342400  1
  Sn  Sn1  1  0.66666700  0.33333300  0.50657600  1
  Sn  Sn2  1  0.66666700  0.33333300  0.00657600  1
  Sn  Sn3  1  0.33333300  0.66666700  0.99342400  1
  Sn  Sn4  1  0.00000000  0.00000000  0.50000000  1
  Sn  Sn5  1  0.00000000  0.00000000  0.00000000  1
  Ge  Ge0  1  0.54897100  0.83166700  0.23686200  1
  Ge  Ge1  1  0.81879000  0.00000000  0.75000000  1
  Ge  Ge2  1  0.18121000  0.18121000  0.75000000  1
  Ge  Ge3  1  0.83166700  0.54897100  0.26313800  1
  Ge  Ge4  1  0.28269600  0.83166700  0.73686200  1
  Ge  Ge5  1  0.16833300  0.71730400  0.23686200  1
  Ge  Ge6  1  0.71730400  0.16833300  0.26313800  1
  Ge  Ge7  1  0.81879000  0.81879000  0.25000000  1
  Ge  Ge8  1  0.00000000  0.18121000  0.25000000  1
  Ge  Ge9  1  0.16833300  0.45102900  0.73686200  1
  Ge  Ge10  1  0.28269600  0.45102900  0.23686200  1
  Ge  Ge11  1  0.54897100  0.71730400  0.73686200  1
  Ge  Ge12  1  0.83166700  0.28269600  0.76313800  1
  Ge  Ge13  1  0.00000000  0.81879000  0.75000000  1
  Ge  Ge14  1  0.45102900  0.16833300  0.76313800  1
  Ge  Ge15  1  0.45102900  0.28269600  0.26313800  1
  Ge  Ge16  1  0.71730400  0.54897100  0.76313800  1
  Ge  Ge17  1  0.18121000  0.00000000  0.25000000  1
  O  O0  1  0.66610400  0.79051600  0.19083700  1
  O  O1  1  0.91177300  0.07111000  0.61676000  1
  O  O2  1  0.81740100  0.36829500  0.88902500  1
  O  O3  1  0.50336900  0.27326600  0.11377700  1
  O  O4  1  0.27326600  0.76989700  0.88622400  1
  O  O5  1  0.79051600  0.12441200  0.80916300  1
  O  O6  1  0.00000000  0.63267500  0.25000000  1
  O  O7  1  0.84066400  0.91177300  0.38324000  1
  O  O8  1  0.63170500  0.18259900  0.38902500  1
  O  O9  1  0.55089400  0.18259900  0.88902500  1
  O  O10  1  0.18259900  0.63170500  0.11097500  1
  O  O11  1  0.33389600  0.20948400  0.80916300  1
  O  O12  1  0.87558800  0.20948400  0.30916300  1
  O  O13  1  0.72673400  0.23010300  0.11377700  1
  O  O14  1  0.15933600  0.07111000  0.11676000  1
  O  O15  1  0.18259900  0.55089400  0.61097500  1
  O  O16  1  0.23010300  0.72673400  0.38622300  1
  O  O17  1  0.92889000  0.84066400  0.61676000  1
  O  O18  1  0.66610400  0.87558800  0.69083700  1
  O  O19  1  0.36732500  0.00000000  0.75000000  1
  O  O20  1  0.84066400  0.92889000  0.88324000  1
  O  O21  1  0.91177300  0.84066400  0.11676000  1
  O  O22  1  0.63170500  0.44910600  0.88902500  1
  O  O23  1  0.36829500  0.81740100  0.61097500  1
  O  O24  1  0.63267500  0.63267500  0.75000000  1
  O  O25  1  0.08822700  0.15933600  0.88324000  1
  O  O26  1  0.92889000  0.08822700  0.11676000  1
  O  O27  1  0.63267500  0.00000000  0.25000000  1
  O  O28  1  0.49663100  0.72673400  0.88622400  1
  O  O29  1  0.36732500  0.36732500  0.25000000  1
  O  O30  1  0.76989700  0.27326600  0.61377600  1
  O  O31  1  0.27326600  0.50336900  0.38622300  1
  O  O32  1  0.12441200  0.79051600  0.69083700  1
  O  O33  1  0.33389600  0.12441200  0.30916300  1
  O  O34  1  0.36829500  0.55089400  0.11097500  1
  O  O35  1  0.79051600  0.66610400  0.30916300  1
  O  O36  1  0.12441200  0.33389600  0.19083700  1
  O  O37  1  0.87558800  0.66610400  0.80916300  1
  O  O38  1  0.76989700  0.49663100  0.11377700  1
  O  O39  1  0.81740100  0.44910600  0.38902500  1
  O  O40  1  0.44910600  0.81740100  0.11097500  1
  O  O41  1  0.15933600  0.08822700  0.61676000  1
  O  O42  1  0.55089400  0.36829500  0.38902500  1
  O  O43  1  0.20948400  0.33389600  0.69083700  1
  O  O44  1  0.72673400  0.49663100  0.61377600  1
  O  O45  1  0.00000000  0.36732500  0.75000000  1
  O  O46  1  0.08822700  0.92889000  0.38324000  1
  O  O47  1  0.50336900  0.23010300  0.61377600  1
  O  O48  1  0.07111000  0.91177300  0.88324000  1
  O  O49  1  0.44910600  0.63170500  0.61097500  1
  O  O50  1  0.07111000  0.15933600  0.38324000  1
  O  O51  1  0.49663100  0.76989700  0.38622300  1
  O  O52  1  0.20948400  0.87558800  0.19083700  1
  O  O53  1  0.23010300  0.50336900  0.88622400  1
loop_
_geom_bond_atom_site_label_1
_geom_bond_atom_site_label_2
_geom_bond_distance
_geom_bond_site_symmetry_2
K0 O11 2.524483 1_555
K0 O34 2.686835 1_556
K0 O29 2.789525 1_556
K0 O3 2.803406 1_556
K0 O25 3.033803 1_555
K0 O53 3.095086 1_555
K0 O22 3.235278 1_555
K0 O14 3.248208 1_556
K1 O36 2.524483 1_655
K1 O2 2.686835 1_554
K1 O45 2.789525 1_654
K1 O53 2.803401 1_654
K1 O26 3.033800 1_555
K1 O13 3.095090 1_555
K1 O10 3.235278 1_655
K1 O25 3.248216 1_654
K2 O32 2.524483 1_655
K2 O39 2.686835 1_555
K2 O6 2.789525 1_655
K2 O16 2.803406 1_655
K2 O17 3.033811 1_555
K2 O44 3.095086 1_555
K2 O15 3.235278 1_655
K2 O46 3.248205 1_655
K3 O5 2.524483 1_565
K3 O40 2.686835 1_556
K3 O27 2.789525 1_566
K3 O13 2.803406 1_566
K3 O20 3.033811 1_555
K3 O28 3.095086 1_555
K3 O9 3.235278 1_565
K3 O26 3.248205 1_566
K4 O12 2.524483 1_455
K4 O15 2.686835 1_555
K4 O45 2.789525 1_555
K4 O30 2.803401 1_455
K4 O50 3.033811 1_555
K4 O31 3.095090 1_555
K4 O39 3.235278 1_455
K4 O1 3.248205 1_455
K5 O0 2.524483 1_555
K5 O22 2.686835 1_554
K5 O24 2.789525 1_554
K5 O28 2.803401 1_554
K5 O21 3.033803 1_555
K5 O38 3.095090 1_555
K5 O34 3.235278 1_555
K5 O20 3.248208 1_554
K6 O43 2.524483 1_555
K6 O42 2.686835 1_555
K6 O29 2.789525 1_555
K6 O31 2.803406 1_555
K6 O41 3.033803 1_555
K6 O47 3.095086 1_555
K6 O49 3.235278 1_555
K6 O50 3.248208 1_555
K7 O37 2.524483 1_455
K7 O10 2.686835 1_556
K7 O6 2.789525 1_556
K7 O38 2.803406 1_456
K7 O48 3.033800 1_555
K7 O4 3.095086 1_555
K7 O2 3.235278 1_455
K7 O21 3.248216 1_456
K8 O52 2.524483 1_545
K8 O9 2.686835 1_554
K8 O19 2.789525 1_554
K8 O4 2.803401 1_544
K8 O14 3.033811 1_555
K8 O3 3.095090 1_555
K8 O40 3.235278 1_545
K8 O48 3.248205 1_544
K9 O18 2.524483 1_545
K9 O8 2.686835 1_555
K9 O27 2.789525 1_555
K9 O51 2.803406 1_545
K9 O1 3.033800 1_555
K9 O30 3.095086 1_555
K9 O23 3.235278 1_545
K9 O7 3.248216 1_545
K10 O33 2.524483 1_565
K10 O23 2.686835 1_555
K10 O19 2.789525 1_565
K10 O47 2.803401 1_565
K10 O46 3.033800 1_555
K10 O16 3.095090 1_555
K10 O8 3.235278 1_565
K10 O41 3.248216 1_565
K11 O35 2.524483 1_555
K11 O49 2.686835 1_555
K11 O24 2.789525 1_555
K11 O44 2.803401 1_555
K11 O7 3.033803 1_555
K11 O51 3.095090 1_555
K11 O42 3.235278 1_555
K11 O17 3.248208 1_555
Ge0 O51 1.750488 1_555
Ge0 O40 1.766152 1_555
Ge0 O27 1.775877 1_565
Ge0 O0 1.796685 1_555
Ge1 O1 1.759027 1_555
Ge1 O20 1.759032 1_545
Ge1 O18 1.822888 1_545
Ge1 O5 1.822888 1_555
Ge2 O41 1.759025 1_555
Ge2 O25 1.759025 1_555
Ge2 O11 1.822888 1_555
Ge2 O43 1.822888 1_555
Ge3 O38 1.750488 1_555
Ge3 O39 1.766152 1_555
Ge3 O6 1.775877 1_655
Ge3 O35 1.796685 1_555
Ge4 O4 1.750498 1_555
Ge4 O23 1.766152 1_555
Ge4 O19 1.775877 1_565
Ge4 O32 1.796685 1_555
Ge5 O16 1.750488 1_555
Ge5 O10 1.766152 1_555
Ge5 O6 1.775877 1_555
Ge5 O52 1.796685 1_555
Ge6 O13 1.750488 1_555
Ge6 O8 1.766152 1_555
Ge6 O27 1.775877 1_555
Ge6 O12 1.796685 1_555
Ge7 O21 1.759025 1_555
Ge7 O7 1.759025 1_555
Ge7 O0 1.822888 1_555
Ge7 O35 1.822888 1_555
Ge8 O26 1.759027 1_455
Ge8 O50 1.759032 1_555
Ge8 O36 1.822888 1_555
Ge8 O12 1.822888 1_455
Ge9 O53 1.750498 1_555
Ge9 O15 1.766152 1_555
Ge9 O45 1.775877 1_555
Ge9 O43 1.796685 1_555
Ge10 O31 1.750488 1_555
Ge10 O34 1.766152 1_555
Ge10 O29 1.775877 1_555
Ge10 O36 1.796685 1_555
Ge11 O28 1.750498 1_555
Ge11 O49 1.766152 1_555
Ge11 O24 1.775877 1_555
Ge11 O18 1.796685 1_555
Ge12 O30 1.750498 1_555
Ge12 O2 1.766152 1_555
Ge12 O45 1.775877 1_655
Ge12 O5 1.796685 1_555
Ge13 O48 1.759027 1_555
Ge13 O17 1.759032 1_455
Ge13 O37 1.822888 1_455
Ge13 O32 1.822888 1_555
Ge14 O47 1.750498 1_555
Ge14 O9 1.766152 1_555
Ge14 O19 1.775877 1_555
Ge14 O11 1.796685 1_555
Ge15 O3 1.750488 1_555
Ge15 O42 1.766152 1_555
Ge15 O29 1.775877 1_555
Ge15 O33 1.796685 1_555
Ge16 O44 1.750498 1_555
Ge16 O22 1.766152 1_555
Ge16 O24 1.775877 1_555
Ge16 O37 1.796685 1_555
Ge17 O46 1.759027 1_545
Ge17 O14 1.759032 1_555
Ge17 O33 1.822888 1_555
Ge17 O52 1.822888 1_545
O1 Sn4 2.095658 1_655
O2 Sn2 2.085208 1_556
O3 Sn2 2.084216 1_555
O4 Sn3 2.084200 1_555
O7 Sn4 2.095650 1_665
O8 Sn1 2.085208 1_555
O9 Sn2 2.085211 1_556
O10 Sn3 2.085208 1_554
O13 Sn2 2.084206 1_555
O14 Sn5 2.095650 1_555
O15 Sn0 2.085211 1_555
O16 Sn0 2.084206 1_555
O17 Sn4 2.095650 1_665
O20 Sn5 2.095650 1_666
O21 Sn5 2.095650 1_665
O22 Sn2 2.085217 1_556
O23 Sn0 2.085208 1_555
O25 Sn5 2.095650 1_556
O26 Sn5 2.095658 1_655
O28 Sn3 2.084210 1_555
O30 Sn1 2.084200 1_555
O31 Sn0 2.084216 1_555
O34 Sn3 2.085217 1_554
O38 Sn2 2.084214 1_555
O39 Sn1 2.085211 1_555
O40 Sn3 2.085211 1_554
O41 Sn4 2.095650 1_555
O42 Sn1 2.085217 1_555
O44 Sn1 2.084210 1_555
O46 Sn4 2.095658 1_565
O47 Sn1 2.084208 1_555
O48 Sn5 2.095658 1_566
O49 Sn0 2.085217 1_555
O50 Sn4 2.095650 1_555
O51 Sn0 2.084214 1_555
O53 Sn3 2.084208 1_555
