# generated using pymatgen
data_Cu3H4SO8
_symmetry_space_group_name_H-M   'P 1'
_cell_length_a   6.13567200
_cell_length_b   8.34539000
_cell_length_c   12.29961100
_cell_angle_alpha   90.00000000
_cell_angle_beta   90.00000000
_cell_angle_gamma   90.00000000
_symmetry_Int_Tables_number   1
_chemical_formula_structural   Cu3H4SO8
_chemical_formula_sum   'Cu12 H16 S4 O32'
_cell_volume   629.79636317
_cell_formula_units_Z   4
loop_
 _symmetry_equiv_pos_site_id
 _symmetry_equiv_pos_as_xyz
  1  'x, y, z'
loop_
 _atom_site_type_symbol
 _atom_site_label
 _atom_site_symmetry_multiplicity
 _atom_site_fract_x
 _atom_site_fract_y
 _atom_site_fract_z
 _atom_site_occupancy
  Cu  Cu0  1  0.25000000  0.50008500  0.49628100  1
  Cu  Cu1  1  0.25000000  0.00008500  0.00371900  1
  Cu  Cu2  1  0.75000000  0.49991500  0.50371900  1
  Cu  Cu3  1  0.75000000  0.99991500  0.99628100  1
  Cu  Cu4  1  0.00372500  0.79162300  0.37322900  1
  Cu  Cu5  1  0.49627500  0.29162300  0.12677100  1
  Cu  Cu6  1  0.50372500  0.20837700  0.62677100  1
  Cu  Cu7  1  0.99627500  0.70837700  0.87322900  1
  Cu  Cu8  1  0.99627500  0.20837700  0.62677100  1
  Cu  Cu9  1  0.50372500  0.70837700  0.87322900  1
  Cu  Cu10  1  0.49627500  0.79162300  0.37322900  1
  Cu  Cu11  1  0.00372500  0.29162300  0.12677100  1
  H  H0  1  0.25000000  0.86713800  0.52561900  1
  H  H1  1  0.25000000  0.36713800  0.97438100  1
  H  H2  1  0.75000000  0.13286200  0.47438100  1
  H  H3  1  0.75000000  0.63286200  0.02561900  1
  H  H4  1  0.25000000  0.78485000  0.72810400  1
  H  H5  1  0.25000000  0.28485000  0.77189600  1
  H  H6  1  0.75000000  0.21515000  0.27189600  1
  H  H7  1  0.75000000  0.71515000  0.22810400  1
  H  H8  1  0.02583200  0.01275700  0.83153000  1
  H  H9  1  0.47416800  0.51275700  0.66847000  1
  H  H10  1  0.52583200  0.98724300  0.16847000  1
  H  H11  1  0.97416800  0.48724300  0.33153000  1
  H  H12  1  0.97416800  0.98724300  0.16847000  1
  H  H13  1  0.52583200  0.48724300  0.33153000  1
  H  H14  1  0.47416800  0.01275700  0.83153000  1
  H  H15  1  0.02583200  0.51275700  0.66847000  1
  S  S0  1  0.25000000  0.63014500  0.13543100  1
  S  S1  1  0.25000000  0.13014500  0.36456900  1
  S  S2  1  0.75000000  0.36985500  0.86456900  1
  S  S3  1  0.75000000  0.86985500  0.63543100  1
  O  O0  1  0.25000000  0.76119000  0.21637900  1
  O  O1  1  0.25000000  0.26119000  0.28362100  1
  O  O2  1  0.75000000  0.23881000  0.78362100  1
  O  O3  1  0.75000000  0.73881000  0.71637900  1
  O  O4  1  0.25000000  0.69677400  0.02305000  1
  O  O5  1  0.25000000  0.19677400  0.47695000  1
  O  O6  1  0.75000000  0.30322600  0.97695000  1
  O  O7  1  0.75000000  0.80322600  0.52305000  1
  O  O8  1  0.04667600  0.53091500  0.15183700  1
  O  O9  1  0.45332400  0.03091500  0.34816300  1
  O  O10  1  0.54667600  0.46908500  0.84816300  1
  O  O11  1  0.95332400  0.96908500  0.65183700  1
  O  O12  1  0.95332400  0.46908500  0.84816300  1
  O  O13  1  0.54667600  0.96908500  0.65183700  1
  O  O14  1  0.45332400  0.53091500  0.15183700  1
  O  O15  1  0.04667600  0.03091500  0.34816300  1
  O  O16  1  0.25000000  0.77958700  0.47277300  1
  O  O17  1  0.25000000  0.27958700  0.02722700  1
  O  O18  1  0.75000000  0.22041300  0.52722700  1
  O  O19  1  0.75000000  0.72041300  0.97277300  1
  O  O20  1  0.25000000  0.19423100  0.72111600  1
  O  O21  1  0.25000000  0.69423100  0.77888400  1
  O  O22  1  0.75000000  0.80576900  0.27888400  1
  O  O23  1  0.75000000  0.30576900  0.22111600  1
  O  O24  1  0.51170200  0.54974200  0.39872300  1
  O  O25  1  0.98829800  0.04974200  0.10127700  1
  O  O26  1  0.01170200  0.45025800  0.60127700  1
  O  O27  1  0.48829800  0.95025800  0.89872300  1
  O  O28  1  0.48829800  0.45025800  0.60127700  1
  O  O29  1  0.01170200  0.95025800  0.89872300  1
  O  O30  1  0.98829800  0.54974200  0.39872300  1
  O  O31  1  0.51170200  0.04974200  0.10127700  1
loop_
_geom_bond_atom_site_label_1
_geom_bond_atom_site_label_2
_geom_bond_distance
_geom_bond_site_symmetry_2
Cu0 O28 1.994603 1_555
Cu0 O26 1.994603 1_555
Cu0 O30 2.046920 1_455
Cu0 O24 2.046920 1_555
Cu0 O16 2.350405 1_555
Cu0 O5 2.542391 1_555
Cu1 O27 1.994603 1_544
Cu1 O29 1.994603 1_544
Cu1 O25 2.046920 1_455
Cu1 O31 2.046920 1_555
Cu1 O17 2.350405 1_555
Cu1 O4 2.542391 1_545
Cu2 O24 1.994603 1_555
Cu2 O30 1.994603 1_555
Cu2 O26 2.046920 1_655
Cu2 O28 2.046920 1_555
Cu2 O18 2.350405 1_555
Cu2 O7 2.542391 1_555
Cu3 O25 1.994603 1_566
Cu3 O31 1.994603 1_566
Cu3 O29 2.046920 1_655
Cu3 O27 2.046920 1_555
Cu3 O19 2.350405 1_555
Cu3 O6 2.542391 1_565
Cu4 O22 1.945257 1_455
Cu4 O16 1.947418 1_555
Cu4 O15 2.037756 1_565
Cu4 O30 2.044992 1_455
Cu4 O7 2.414252 1_455
Cu4 O0 2.463656 1_555
Cu5 O23 1.945257 1_555
Cu5 O17 1.947418 1_555
Cu5 O14 2.037756 1_555
Cu5 O31 2.044992 1_555
Cu5 O6 2.414252 1_554
Cu5 O1 2.463656 1_555
Cu6 O20 1.945257 1_555
Cu6 O18 1.947418 1_555
Cu6 O13 2.037756 1_545
Cu6 O28 2.044992 1_555
Cu6 O5 2.414252 1_555
Cu6 O2 2.463656 1_555
Cu7 O21 1.945257 1_655
Cu7 O19 1.947418 1_555
Cu7 O12 2.037756 1_555
Cu7 O29 2.044992 1_655
Cu7 O4 2.414252 1_656
Cu7 O3 2.463656 1_555
Cu8 O20 1.945257 1_655
Cu8 O18 1.947418 1_555
Cu8 O11 2.037756 1_545
Cu8 O26 2.044992 1_655
Cu8 O5 2.414252 1_655
Cu8 O2 2.463656 1_555
Cu9 O21 1.945257 1_555
Cu9 O19 1.947418 1_555
Cu9 O10 2.037756 1_555
Cu9 O27 2.044992 1_555
Cu9 O4 2.414252 1_556
Cu9 O3 2.463656 1_555
Cu10 O22 1.945257 1_555
Cu10 O16 1.947418 1_555
Cu10 O9 2.037756 1_565
Cu10 O24 2.044992 1_555
Cu10 O7 2.414252 1_555
Cu10 O0 2.463656 1_555
Cu11 O23 1.945257 1_455
Cu11 O17 1.947418 1_555
Cu11 O8 2.037756 1_555
Cu11 O25 2.044992 1_455
Cu11 O6 2.414252 1_454
Cu11 O1 2.463656 1_555
H0 O16 0.977919 1_555
H1 O17 0.977919 1_556
H2 O18 0.977919 1_555
H3 O19 0.977919 1_554
H4 O21 0.980820 1_555
H5 O20 0.980820 1_555
H6 O23 0.980820 1_555
H7 O22 0.980820 1_555
H8 O29 0.981110 1_545
H9 O28 0.981110 1_555
H10 O31 0.981110 1_565
H11 O30 0.981110 1_555
H12 O25 0.981110 1_565
H13 O24 0.981110 1_555
H14 O27 0.981110 1_545
H15 O26 0.981110 1_555
O0 S0 1.478947 1_555
O1 S1 1.478947 1_555
O2 S2 1.478947 1_555
O3 S3 1.478947 1_555
O4 S0 1.489893 1_555
O5 S1 1.489893 1_555
O6 S2 1.489893 1_555
O7 S3 1.489893 1_555
O8 S0 1.510900 1_555
O9 S1 1.510900 1_555
O10 S2 1.510900 1_555
O11 S3 1.510900 1_555
O12 S2 1.510900 1_555
O13 S3 1.510900 1_555
O14 S0 1.510900 1_555
O15 S1 1.510900 1_555
