# generated using pymatgen
data_Sr21In8Pb7
_symmetry_space_group_name_H-M   'P 1'
_cell_length_a   12.51508575
_cell_length_b   12.51508575
_cell_length_c   12.51508575
_cell_angle_alpha   60.00000000
_cell_angle_beta   60.00000000
_cell_angle_gamma   60.00000000
_symmetry_Int_Tables_number   1
_chemical_formula_structural   Sr21In8Pb7
_chemical_formula_sum   'Sr21 In8 Pb7'
_cell_volume   1386.07423554
_cell_formula_units_Z   1
loop_
 _symmetry_equiv_pos_site_id
 _symmetry_equiv_pos_as_xyz
  1  'x, y, z'
loop_
 _atom_site_type_symbol
 _atom_site_label
 _atom_site_symmetry_multiplicity
 _atom_site_fract_x
 _atom_site_fract_y
 _atom_site_fract_z
 _atom_site_occupancy
  Sr  Sr0  1  0.11694800  0.62768400  0.62768400  1
  Sr  Sr1  1  0.00000000  0.68217100  0.00000000  1
  Sr  Sr2  1  0.31782900  0.68217100  0.00000000  1
  Sr  Sr3  1  0.62768400  0.62768400  0.62768400  1
  Sr  Sr4  1  0.37231600  0.37231600  0.37231600  1
  Sr  Sr5  1  0.00000000  0.00000000  0.31782900  1
  Sr  Sr6  1  0.88305200  0.37231600  0.37231600  1
  Sr  Sr7  1  0.68217100  0.31782900  0.00000000  1
  Sr  Sr8  1  0.31782900  0.00000000  0.68217100  1
  Sr  Sr9  1  0.68217100  0.00000000  0.00000000  1
  Sr  Sr10  1  0.00000000  0.68217100  0.31782900  1
  Sr  Sr11  1  0.37231600  0.37231600  0.88305200  1
  Sr  Sr12  1  0.37231600  0.88305200  0.37231600  1
  Sr  Sr13  1  0.31782900  0.00000000  0.00000000  1
  Sr  Sr14  1  0.00000000  0.31782900  0.00000000  1
  Sr  Sr15  1  0.50000000  0.50000000  0.50000000  1
  Sr  Sr16  1  0.62768400  0.11694800  0.62768400  1
  Sr  Sr17  1  0.00000000  0.31782900  0.68217100  1
  Sr  Sr18  1  0.68217100  0.00000000  0.31782900  1
  Sr  Sr19  1  0.62768400  0.62768400  0.11694800  1
  Sr  Sr20  1  0.00000000  0.00000000  0.68217100  1
  In  In0  1  0.81093600  0.56719200  0.81093600  1
  In  In1  1  0.81093600  0.81093600  0.81093600  1
  In  In2  1  0.18906400  0.18906400  0.43280800  1
  In  In3  1  0.81093600  0.81093600  0.56719200  1
  In  In4  1  0.18906400  0.18906400  0.18906400  1
  In  In5  1  0.43280800  0.18906400  0.18906400  1
  In  In6  1  0.56719200  0.81093600  0.81093600  1
  In  In7  1  0.18906400  0.43280800  0.18906400  1
  Pb  Pb0  1  0.71266000  0.71266000  0.28734000  1
  Pb  Pb1  1  0.71266000  0.28734000  0.71266000  1
  Pb  Pb2  1  0.28734000  0.71266000  0.28734000  1
  Pb  Pb3  1  0.28734000  0.71266000  0.71266000  1
  Pb  Pb4  1  0.28734000  0.28734000  0.71266000  1
  Pb  Pb5  1  0.71266000  0.28734000  0.28734000  1
  Pb  Pb6  1  0.00000000  0.00000000  0.00000000  1
loop_
_geom_bond_atom_site_label_1
_geom_bond_atom_site_label_2
_geom_bond_distance
_geom_bond_site_symmetry_2
In0 In1 3.050477 1_555
In0 In6 3.050477 1_555
In0 In3 3.050477 1_555
In0 Sr14 3.430283 1_656
In0 Sr7 3.430283 1_556
In0 Sr17 3.430283 1_655
In0 Sr3 3.588855 1_555
In0 Sr19 3.588855 1_556
In0 Sr0 3.588855 1_655
In1 In6 3.050477 1_555
In1 In3 3.050477 1_555
In1 Sr20 3.430283 1_665
In1 Sr9 3.430283 1_566
In1 Sr1 3.430283 1_656
In1 Sr16 3.588855 1_565
In1 Sr19 3.588855 1_556
In1 Sr0 3.588855 1_655
In2 In5 3.050477 1_555
In2 In4 3.050477 1_555
In2 In7 3.050477 1_555
In2 Sr8 3.430283 1_555
In2 Sr17 3.430283 1_555
In2 Sr20 3.430283 1_555
In2 Sr4 3.588855 1_555
In2 Sr12 3.588855 1_545
In2 Sr6 3.588855 1_455
In3 In6 3.050477 1_555
In3 Sr5 3.430283 1_665
In3 Sr10 3.430283 1_655
In3 Sr18 3.430283 1_565
In3 Sr3 3.588855 1_555
In3 Sr16 3.588855 1_565
In3 Sr0 3.588855 1_655
In4 In5 3.050477 1_555
In4 In7 3.050477 1_555
In4 Sr5 3.430283 1_555
In4 Sr14 3.430283 1_555
In4 Sr13 3.430283 1_555
In4 Sr11 3.588855 1_554
In4 Sr12 3.588855 1_545
In4 Sr6 3.588855 1_455
In5 In7 3.050477 1_555
In5 Sr18 3.430283 1_555
In5 Sr7 3.430283 1_555
In5 Sr9 3.430283 1_555
In5 Sr4 3.588855 1_555
In5 Sr11 3.588855 1_554
In5 Sr12 3.588855 1_545
In6 Sr13 3.430283 1_566
In6 Sr2 3.430283 1_556
In6 Sr8 3.430283 1_565
In6 Sr3 3.588855 1_555
In6 Sr16 3.588855 1_565
In6 Sr19 3.588855 1_556
In7 Sr2 3.430283 1_555
In7 Sr10 3.430283 1_555
In7 Sr1 3.430283 1_555
In7 Sr4 3.588855 1_555
In7 Sr11 3.588855 1_554
In7 Sr6 3.588855 1_455
Pb0 Sr19 3.532152 1_555
Pb0 Sr12 3.532152 1_555
Pb0 Sr6 3.532152 1_555
Pb0 Sr3 3.532152 1_555
Pb0 Sr18 3.616272 1_565
Pb0 Sr9 3.616272 1_565
Pb0 Sr1 3.616272 1_655
Pb0 Sr10 3.616272 1_655
Pb0 Sr15 3.763870 1_555
Pb1 Sr16 3.532152 1_555
Pb1 Sr11 3.532152 1_555
Pb1 Sr6 3.532152 1_555
Pb1 Sr3 3.532152 1_555
Pb1 Sr20 3.616272 1_655
Pb1 Sr9 3.616272 1_556
Pb1 Sr7 3.616272 1_556
Pb1 Sr17 3.616272 1_655
Pb1 Sr15 3.763870 1_555
Pb2 Sr12 3.532152 1_555
Pb2 Sr4 3.532152 1_555
Pb2 Sr19 3.532152 1_555
Pb2 Sr0 3.532152 1_555
Pb2 Sr2 3.616272 1_555
Pb2 Sr5 3.616272 1_565
Pb2 Sr10 3.616272 1_555
Pb2 Sr13 3.616272 1_565
Pb2 Sr15 3.763870 1_555
Pb3 Sr0 3.532152 1_555
Pb3 Sr11 3.532152 1_555
Pb3 Sr12 3.532152 1_555
Pb3 Sr3 3.532152 1_555
Pb3 Sr2 3.616272 1_556
Pb3 Sr20 3.616272 1_565
Pb3 Sr1 3.616272 1_556
Pb3 Sr8 3.616272 1_565
Pb3 Sr15 3.763870 1_555
Pb4 Sr11 3.532152 1_555
Pb4 Sr4 3.532152 1_555
Pb4 Sr0 3.532152 1_555
Pb4 Sr16 3.532152 1_555
Pb4 Sr8 3.616272 1_555
Pb4 Sr14 3.616272 1_556
Pb4 Sr13 3.616272 1_556
Pb4 Sr17 3.616272 1_555
Pb4 Sr15 3.763870 1_555
Pb5 Sr6 3.532152 1_555
Pb5 Sr4 3.532152 1_555
Pb5 Sr19 3.532152 1_555
Pb5 Sr16 3.532152 1_555
Pb5 Sr7 3.616272 1_555
Pb5 Sr14 3.616272 1_655
Pb5 Sr5 3.616272 1_655
Pb5 Sr18 3.616272 1_555
Pb5 Sr15 3.763870 1_555
Pb6 Sr14 3.977657 1_555
Pb6 Sr5 3.977657 1_555
Pb6 Sr13 3.977657 1_555
Pb6 Sr17 3.977657 1_554
Pb6 Sr7 3.977657 1_455
Pb6 Sr8 3.977657 1_554
Pb6 Sr18 3.977657 1_455
Pb6 Sr2 3.977657 1_545
Pb6 Sr10 3.977657 1_545
Pb6 Sr9 3.977657 1_455
Pb6 Sr1 3.977657 1_545
Pb6 Sr20 3.977657 1_554
