# generated using pymatgen
data_Ag3(Bi2Br3)7
_symmetry_space_group_name_H-M   'P 1'
_cell_length_a   15.00285800
_cell_length_b   13.02264900
_cell_length_c   14.18459370
_cell_angle_alpha   72.11746103
_cell_angle_beta   90.00000000
_cell_angle_gamma   90.00000000
_symmetry_Int_Tables_number   1
_chemical_formula_structural   Ag3(Bi2Br3)7
_chemical_formula_sum   'Ag6 Bi28 Br42'
_cell_volume   2637.45367451
_cell_formula_units_Z   2
loop_
 _symmetry_equiv_pos_site_id
 _symmetry_equiv_pos_as_xyz
  1  'x, y, z'
loop_
 _atom_site_type_symbol
 _atom_site_label
 _atom_site_symmetry_multiplicity
 _atom_site_fract_x
 _atom_site_fract_y
 _atom_site_fract_z
 _atom_site_occupancy
  Ag  Ag0  1  0.84106800  0.54092000  0.61772400  1
  Ag  Ag1  1  0.15893200  0.54092000  0.61772400  1
  Ag  Ag2  1  0.34763100  0.44992200  0.39030700  1
  Ag  Ag3  1  0.65236900  0.44992200  0.39030700  1
  Ag  Ag4  1  0.33689400  0.13402700  0.37802300  1
  Ag  Ag5  1  0.66310600  0.13402700  0.37802300  1
  Bi  Bi0  1  0.00000000  0.89961900  0.93071500  1
  Bi  Bi1  1  0.81473700  0.88068100  0.61287000  1
  Bi  Bi2  1  0.18526300  0.88068100  0.61287000  1
  Bi  Bi3  1  0.82480500  0.75452200  0.97049500  1
  Bi  Bi4  1  0.17519500  0.75452200  0.97049500  1
  Bi  Bi5  1  0.00000000  0.63965300  0.91974400  1
  Bi  Bi6  1  0.32414600  0.77949800  0.39315500  1
  Bi  Bi7  1  0.67585400  0.77949800  0.39315500  1
  Bi  Bi8  1  0.89290800  0.84366800  0.14032700  1
  Bi  Bi9  1  0.10709200  0.84366800  0.14032700  1
  Bi  Bi10  1  0.50000000  0.74063000  0.02484800  1
  Bi  Bi11  1  0.00000000  0.65163700  0.28290200  1
  Bi  Bi12  1  0.39795400  0.45765900  0.85949200  1
  Bi  Bi13  1  0.60204600  0.45765900  0.85949200  1
  Bi  Bi14  1  0.10525600  0.55523500  0.13662000  1
  Bi  Bi15  1  0.89474400  0.55523500  0.13662000  1
  Bi  Bi16  1  0.50000000  0.34578500  0.72043100  1
  Bi  Bi17  1  0.00000000  0.26454000  0.97914800  1
  Bi  Bi18  1  0.39683400  0.14521200  0.85661200  1
  Bi  Bi19  1  0.60316600  0.14521200  0.85661200  1
  Bi  Bi20  1  0.17454400  0.22629300  0.59944600  1
  Bi  Bi21  1  0.82545600  0.22629300  0.59944600  1
  Bi  Bi22  1  0.50000000  0.36181100  0.08671400  1
  Bi  Bi23  1  0.33928700  0.24509100  0.02741700  1
  Bi  Bi24  1  0.66071300  0.24509100  0.02741700  1
  Bi  Bi25  1  0.87132500  0.18937500  0.17611200  1
  Bi  Bi26  1  0.12867500  0.18937500  0.17611200  1
  Bi  Bi27  1  0.50000000  0.08834400  0.07175600  1
  Br  Br0  1  0.77761000  0.99797500  0.74849600  1
  Br  Br1  1  0.22239000  0.99797500  0.74849600  1
  Br  Br2  1  0.50000000  0.01507800  0.74835900  1
  Br  Br3  1  0.36056200  0.90841300  0.53553200  1
  Br  Br4  1  0.63943800  0.90841300  0.53553200  1
  Br  Br5  1  0.00000000  0.85147600  0.69443300  1
  Br  Br6  1  0.50000000  0.65835100  0.74937000  1
  Br  Br7  1  0.50000000  0.81999000  0.30216900  1
  Br  Br8  1  0.85891100  0.76424800  0.46505400  1
  Br  Br9  1  0.14108900  0.76424800  0.46505400  1
  Br  Br10  1  0.36160300  0.89563400  0.01991600  1
  Br  Br11  1  0.63839700  0.89563400  0.01991600  1
  Br  Br12  1  0.77765800  0.68268700  0.75233700  1
  Br  Br13  1  0.22234200  0.68268700  0.75233700  1
  Br  Br14  1  0.27755500  0.66542600  0.26173000  1
  Br  Br15  1  0.72244500  0.66542600  0.26173000  1
  Br  Br16  1  0.00000000  0.53086500  0.70574500  1
  Br  Br17  1  0.34663000  0.57472100  0.53588200  1
  Br  Br18  1  0.65337000  0.57472100  0.53588200  1
  Br  Br19  1  0.86268600  0.42969400  0.96852000  1
  Br  Br20  1  0.13731400  0.42969400  0.96852000  1
  Br  Br21  1  0.35788200  0.58825000  0.02529800  1
  Br  Br22  1  0.64211800  0.58825000  0.02529800  1
  Br  Br23  1  0.85829300  0.42422200  0.46193200  1
  Br  Br24  1  0.14170700  0.42422200  0.46193200  1
  Br  Br25  1  0.50000000  0.47212900  0.28810100  1
  Br  Br26  1  0.78119400  0.32723800  0.74211600  1
  Br  Br27  1  0.21880600  0.32723800  0.74211600  1
  Br  Br28  1  0.74886500  0.32605800  0.24338500  1
  Br  Br29  1  0.25113500  0.32605800  0.24338500  1
  Br  Br30  1  0.86341300  0.09361900  0.99012900  1
  Br  Br31  1  0.13658700  0.09361900  0.99012900  1
  Br  Br32  1  0.35346300  0.24154800  0.52815800  1
  Br  Br33  1  0.64653700  0.24154800  0.52815800  1
  Br  Br34  1  0.00000000  0.17800000  0.69777900  1
  Br  Br35  1  0.00000000  0.29535100  0.26687100  1
  Br  Br36  1  0.50000000  0.15679100  0.28690200  1
  Br  Br37  1  0.85536700  0.09099200  0.46450700  1
  Br  Br38  1  0.14463300  0.09099200  0.46450700  1
  Br  Br39  1  0.00000000  0.01434300  0.25520200  1
  Br  Br40  1  0.27006500  0.99086400  0.25496400  1
  Br  Br41  1  0.72993500  0.99086400  0.25496400  1
loop_
_geom_bond_atom_site_label_1
_geom_bond_atom_site_label_2
_geom_bond_distance
_geom_bond_site_symmetry_2
Ag0 Br16 2.676028 1_655
Ag0 Br26 2.940796 1_555
Ag0 Br18 3.026137 1_555
Ag0 Br23 3.053230 1_555
Ag0 Br8 3.058064 1_555
Ag0 Br12 3.181864 1_555
Ag1 Br16 2.676028 1_555
Ag1 Br27 2.940796 1_555
Ag1 Br17 3.026137 1_555
Ag1 Br24 3.053230 1_555
Ag1 Br9 3.058064 1_555
Ag1 Br13 3.181864 1_555
Ag2 Br25 2.674620 1_555
Ag2 Br32 2.817092 1_555
Ag2 Br17 2.994402 1_555
Ag2 Br14 3.027258 1_555
Ag2 Br24 3.237295 1_555
Ag2 Br29 3.332481 1_555
Ag3 Br25 2.674620 1_555
Ag3 Br33 2.817092 1_555
Ag3 Br18 2.994402 1_555
Ag3 Br15 3.027258 1_555
Ag3 Br23 3.237295 1_555
Ag3 Br28 3.332481 1_555
Ag4 Br36 2.740665 1_555
Ag4 Br32 2.896354 1_555
Ag4 Br29 2.936566 1_555
Ag4 Br40 3.086520 1_545
Ag4 Br38 3.117193 1_555
Ag4 Br3 3.117496 1_545
Ag5 Br36 2.740665 1_555
Ag5 Br33 2.896354 1_555
Ag5 Br28 2.936566 1_555
Ag5 Br41 3.086520 1_545
Ag5 Br37 3.117193 1_555
Ag5 Br4 3.117496 1_545
Bi1 Br12 2.781845 1_555
Bi1 Br4 2.829730 1_555
Bi1 Br0 2.854668 1_555
Bi1 Br37 2.960020 1_565
Bi1 Br5 2.989717 1_655
Bi1 Br8 3.014450 1_555
Bi2 Br13 2.781845 1_555
Bi2 Br3 2.829730 1_555
Bi2 Br1 2.854668 1_555
Bi2 Br38 2.960020 1_565
Bi2 Br5 2.989717 1_555
Bi2 Br9 3.014450 1_555
Bi5 Br20 3.322184 1_555
Bi5 Br19 3.322184 1_455
Bi6 Br14 2.805598 1_555
Bi6 Br17 2.829903 1_555
Bi6 Br7 2.913151 1_555
Bi6 Br9 2.915091 1_555
Bi6 Br40 2.960337 1_555
Bi6 Br3 3.045937 1_555
Bi7 Br15 2.805598 1_555
Bi7 Br18 2.829903 1_555
Bi7 Br7 2.913151 1_555
Bi7 Br8 2.915091 1_555
Bi7 Br41 2.960337 1_555
Bi7 Br4 3.045937 1_555
Bi8 Br30 3.327328 1_564
Bi9 Br31 3.327328 1_564
Bi10 Br10 2.881665 1_555
Bi10 Br11 2.881665 1_555
Bi10 Br22 2.911399 1_555
Bi10 Br21 2.911399 1_555
Bi11 Bi9 3.133566 1_555
Bi11 Bi8 3.133566 1_455
Bi11 Bi14 3.158310 1_555
Bi11 Bi15 3.158310 1_455
Bi12 Br6 3.017829 1_555
Bi12 Bi23 3.172048 1_556
Bi12 Bi16 3.181536 1_555
Bi13 Br6 3.017829 1_555
Bi13 Bi24 3.172048 1_556
Bi13 Bi16 3.181536 1_555
Bi14 Br20 3.314166 1_554
Bi15 Br19 3.314166 1_554
Bi16 Bi19 3.138611 1_555
Bi16 Bi18 3.138611 1_555
Bi17 Br20 2.948444 1_555
Bi17 Br19 2.948444 1_455
Bi17 Br31 2.994149 1_555
Bi17 Br30 2.994149 1_455
Bi18 Br2 3.037033 1_555
Bi18 Bi23 3.200388 1_556
Bi19 Br2 3.037033 1_555
Bi19 Bi24 3.200388 1_556
Bi20 Br24 2.757459 1_555
Bi20 Br27 2.810389 1_555
Bi20 Br32 2.853778 1_555
Bi20 Br34 2.942733 1_555
Bi20 Br38 3.006780 1_555
Bi20 Br1 3.156763 1_545
Bi21 Br23 2.757459 1_555
Bi21 Br26 2.810389 1_555
Bi21 Br33 2.853778 1_555
Bi21 Br34 2.942733 1_655
Bi21 Br37 3.006780 1_555
Bi21 Br0 3.156763 1_545
Bi22 Bi24 3.101079 1_555
Bi22 Bi23 3.101079 1_555
Bi22 Br36 3.245863 1_555
Bi23 Bi27 3.096374 1_555
Bi24 Bi27 3.096374 1_555
Bi25 Br35 2.894809 1_655
Bi25 Br28 2.915046 1_555
Bi25 Br39 2.934368 1_655
Bi25 Br30 3.247913 1_554
Bi25 Br41 3.264650 1_545
Bi26 Br35 2.894809 1_555
Bi26 Br29 2.915046 1_555
Bi26 Br39 2.934368 1_555
Bi26 Br31 3.247913 1_554
Bi26 Br40 3.264650 1_545
