# generated using pymatgen
data_Ba4Yb3F17
_symmetry_space_group_name_H-M   'P 1'
_cell_length_a   9.37321800
_cell_length_b   9.39747290
_cell_length_c   9.46629695
_cell_angle_alpha   72.27817075
_cell_angle_beta   72.61897011
_cell_angle_gamma   72.81139465
_symmetry_Int_Tables_number   1
_chemical_formula_structural   Ba4Yb3F17
_chemical_formula_sum   'Ba8 Yb6 F34'
_cell_volume   738.55294584
_cell_formula_units_Z   2
loop_
 _symmetry_equiv_pos_site_id
 _symmetry_equiv_pos_as_xyz
  1  'x, y, z'
loop_
 _atom_site_type_symbol
 _atom_site_label
 _atom_site_symmetry_multiplicity
 _atom_site_fract_x
 _atom_site_fract_y
 _atom_site_fract_z
 _atom_site_occupancy
  Ba  Ba0  1  0.92858500  0.12988800  0.67800300  1
  Ba  Ba1  1  0.72809300  0.72577300  0.72581600  1
  Ba  Ba2  1  0.67843400  0.93124500  0.12817100  1
  Ba  Ba3  1  0.87134000  0.32234900  0.06956300  1
  Ba  Ba4  1  0.12653600  0.67907300  0.93754900  1
  Ba  Ba5  1  0.32305100  0.06703600  0.87066100  1
  Ba  Ba6  1  0.27352900  0.27106100  0.27358000  1
  Ba  Ba7  1  0.06512500  0.87590600  0.31597900  1
  Yb  Yb0  1  0.84224400  0.53067400  0.39145400  1
  Yb  Yb1  1  0.53513700  0.39106000  0.83984500  1
  Yb  Yb2  1  0.61087600  0.15763500  0.46853800  1
  Yb  Yb3  1  0.40020000  0.84072400  0.52978100  1
  Yb  Yb4  1  0.46948100  0.60960700  0.15818300  1
  Yb  Yb5  1  0.16097500  0.46076000  0.60606600  1
  F  F0  1  0.00019900  0.99835900  0.00127600  1
  F  F1  1  0.98239100  0.54577000  0.82211900  1
  F  F2  1  0.86378800  0.86242200  0.86195000  1
  F  F3  1  0.96280400  0.63957800  0.50969400  1
  F  F4  1  0.82560500  0.97849300  0.54399400  1
  F  F5  1  0.92583300  0.73566500  0.20536900  1
  F  F6  1  0.54581200  0.82276200  0.97880000  1
  F  F7  1  0.63948000  0.50872600  0.95874900  1
  F  F8  1  0.73620200  0.20610400  0.92574200  1
  F  F9  1  0.73487300  0.45520100  0.64942500  1
  F  F10  1  0.79236900  0.30139400  0.41163200  1
  F  F11  1  0.65371900  0.73662700  0.45421700  1
  F  F12  1  0.51127800  0.95736000  0.63904100  1
  F  F13  1  0.70019900  0.58646900  0.20756200  1
  F  F14  1  0.79414900  0.07506700  0.26337300  1
  F  F15  1  0.45368600  0.65540100  0.74526700  1
  F  F16  1  0.58984900  0.20793100  0.69929800  1
  F  F17  1  0.40446900  0.55136800  0.54050800  1
  F  F18  1  0.41318800  0.79715900  0.29709500  1
  F  F19  1  0.54501500  0.35149500  0.26679300  1
  F  F20  1  0.20599300  0.92350700  0.73377300  1
  F  F21  1  0.29535000  0.40678600  0.80191300  1
  F  F22  1  0.49233900  0.04098800  0.36023600  1
  F  F23  1  0.34889000  0.25864900  0.54578600  1
  F  F24  1  0.20592500  0.70105800  0.59143600  1
  F  F25  1  0.25883400  0.54667900  0.34553500  1
  F  F26  1  0.26464100  0.79503700  0.07389900  1
  F  F27  1  0.36134300  0.48942100  0.04251800  1
  F  F28  1  0.45616000  0.17576400  0.01937700  1
  F  F29  1  0.07472500  0.26267600  0.79316800  1
  F  F30  1  0.17750100  0.01484500  0.45710900  1
  F  F31  1  0.04274700  0.35958800  0.48988300  1
  F  F32  1  0.13747000  0.13802400  0.13649400  1
  F  F33  1  0.02157100  0.45483800  0.17677500  1
loop_
_geom_bond_atom_site_label_1
_geom_bond_atom_site_label_2
_geom_bond_distance
_geom_bond_site_symmetry_2
Ba0 F31 2.619607 1_655
Ba0 F8 2.645220 1_555
Ba0 F4 2.684614 1_545
Ba0 F2 2.706397 1_545
Ba0 F29 2.711592 1_655
Ba0 F30 2.820551 1_655
Ba0 F20 2.831518 1_645
Ba0 F10 2.969696 1_555
Ba0 F16 2.998461 1_555
Ba0 F9 3.037299 1_555
Ba0 F0 3.126867 1_646
Ba1 F12 2.614610 1_555
Ba1 F7 2.623230 1_555
Ba1 F3 2.635960 1_555
Ba1 F4 2.700495 1_555
Ba1 F1 2.711153 1_555
Ba1 F6 2.729277 1_555
Ba1 F15 2.781200 1_555
Ba1 F2 2.807058 1_555
Ba1 F11 2.824139 1_555
Ba1 F9 2.826428 1_555
Ba2 F22 2.637953 1_565
Ba2 F5 2.639176 1_555
Ba2 F6 2.694571 1_554
Ba2 F14 2.718465 1_565
Ba2 F2 2.738626 1_554
Ba2 F28 2.773651 1_565
Ba2 F8 2.798288 1_564
Ba2 F18 2.928435 1_555
Ba2 F11 3.051468 1_555
Ba2 F13 3.053310 1_555
Ba2 F0 3.071705 1_655
Ba3 F7 2.623919 1_554
Ba3 F14 2.625789 1_555
Ba3 F33 2.687456 1_655
Ba3 F32 2.710480 1_655
Ba3 F8 2.721207 1_554
Ba3 F1 2.796327 1_554
Ba3 F29 2.841802 1_654
Ba3 F13 2.968018 1_555
Ba3 F19 3.053011 1_555
Ba3 F10 3.055827 1_555
Ba3 F0 3.115293 1_645
Ba4 F27 2.630175 1_556
Ba4 F20 2.647158 1_555
Ba4 F26 2.686561 1_556
Ba4 F1 2.702679 1_455
Ba4 F2 2.709350 1_455
Ba4 F33 2.743326 1_556
Ba4 F5 2.762148 1_456
Ba4 F21 3.015485 1_555
Ba4 F15 3.045383 1_555
Ba4 F0 3.056834 1_556
Ba4 F24 3.090858 1_555
Ba5 F12 2.640516 1_545
Ba5 F29 2.646861 1_555
Ba5 F28 2.694642 1_556
Ba5 F20 2.736880 1_545
Ba5 F32 2.743048 1_556
Ba5 F6 2.773210 1_545
Ba5 F26 2.781868 1_546
Ba5 F16 2.977266 1_555
Ba5 F21 3.005142 1_555
Ba5 F23 3.033214 1_555
Ba5 F0 3.088046 1_546
Ba6 F22 2.618884 1_555
Ba6 F27 2.619686 1_555
Ba6 F31 2.625104 1_555
Ba6 F33 2.705311 1_555
Ba6 F30 2.725052 1_555
Ba6 F28 2.732724 1_555
Ba6 F32 2.791465 1_555
Ba6 F25 2.828209 1_555
Ba6 F23 2.829871 1_555
Ba6 F19 2.839113 1_555
Ba7 F3 2.635082 1_455
Ba7 F26 2.643129 1_555
Ba7 F32 2.676785 1_565
Ba7 F5 2.685462 1_455
Ba7 F30 2.704564 1_565
Ba7 F14 2.753312 1_465
Ba7 F4 2.778690 1_455
Ba7 F0 3.025170 1_555
Ba7 F25 3.066520 1_555
Ba7 F24 3.067069 1_555
Ba7 F18 3.086821 1_555
F1 Yb5 2.404592 1_655
F3 Yb5 2.310994 1_655
F3 Yb0 2.390353 1_555
F4 Yb2 2.349364 1_565
F5 Yb0 2.330127 1_555
F6 Yb4 2.336299 1_556
F7 Yb4 2.324105 1_556
F7 Yb1 2.345377 1_555
F8 Yb1 2.313684 1_555
F9 Yb1 2.259842 1_555
F9 Yb0 2.319163 1_555
F10 Yb0 2.277936 1_555
F10 Yb2 2.318854 1_555
F11 Yb3 2.269787 1_555
F11 Yb0 2.296283 1_555
F12 Yb2 2.303851 1_565
F12 Yb3 2.315855 1_555
F13 Yb4 2.281804 1_555
F13 Yb0 2.344000 1_555
F14 Yb2 2.336961 1_555
F15 Yb3 2.318962 1_555
F15 Yb1 2.342827 1_555
F16 Yb2 2.313078 1_555
F16 Yb1 2.336546 1_555
F17 Yb5 2.509947 1_555
F17 Yb3 2.678817 1_555
F18 Yb3 2.322399 1_555
F18 Yb4 2.358143 1_555
F19 Yb2 2.295392 1_555
F19 Yb4 2.311606 1_555
F20 Yb3 2.371760 1_555
F21 Yb1 2.335791 1_555
F21 Yb5 2.392870 1_555
F22 Yb3 2.270961 1_545
F22 Yb2 2.360458 1_555
F23 Yb5 2.262203 1_555
F23 Yb2 2.331969 1_555
F24 Yb5 2.373439 1_555
F24 Yb3 2.385491 1_555
F25 Yb4 2.313661 1_555
F25 Yb5 2.334444 1_555
F26 Yb4 2.334721 1_555
F27 Yb1 2.347638 1_554
F27 Yb4 2.365253 1_555
F28 Yb1 2.360094 1_554
F29 Yb5 2.298374 1_555
F30 Yb3 2.379470 1_545
F31 Yb5 2.308484 1_555
F31 Yb0 2.309422 1_455
F33 Yb0 2.365587 1_455
