# generated using pymatgen
data_Li3(Mo3S4)2
_symmetry_space_group_name_H-M   'P 1'
_cell_length_a   6.65127119
_cell_length_b   6.69984729
_cell_length_c   13.30032597
_cell_angle_alpha   94.00808641
_cell_angle_beta   94.67228121
_cell_angle_gamma   95.61568658
_symmetry_Int_Tables_number   1
_chemical_formula_structural   Li3(Mo3S4)2
_chemical_formula_sum   'Li6 Mo12 S16'
_cell_volume   586.07672957
_cell_formula_units_Z   2
loop_
 _symmetry_equiv_pos_site_id
 _symmetry_equiv_pos_as_xyz
  1  'x, y, z'
loop_
 _atom_site_type_symbol
 _atom_site_label
 _atom_site_symmetry_multiplicity
 _atom_site_fract_x
 _atom_site_fract_y
 _atom_site_fract_z
 _atom_site_occupancy
  Li  Li0  1  0.01298555  0.40899231  0.98772657  1
  Li  Li1  1  0.15038599  0.93652510  0.96728674  1
  Li  Li2  1  0.39669913  0.95995298  0.50981535  1
  Li  Li3  1  0.98718936  0.00467468  0.71467172  1
  Li  Li4  1  0.92418669  0.13648013  0.47132827  1
  Li  Li5  1  0.96169376  0.02029987  0.20043064  1
  Mo  Mo0  1  0.24092123  0.40442152  0.77257342  1
  Mo  Mo1  1  0.23627530  0.41442276  0.27352822  1
  Mo  Mo2  1  0.46551424  0.76348610  0.79347425  1
  Mo  Mo3  1  0.41772760  0.53923426  0.61717425  1
  Mo  Mo4  1  0.45361174  0.77168048  0.29422698  1
  Mo  Mo5  1  0.41008279  0.55053869  0.11668706  1
  Mo  Mo6  1  0.59458801  0.45145728  0.88063447  1
  Mo  Mo7  1  0.55057787  0.22884872  0.70527583  1
  Mo  Mo8  1  0.58996934  0.45820785  0.38366984  1
  Mo  Mo9  1  0.54257381  0.23730570  0.20449009  1
  Mo  Mo10  1  0.77441754  0.58300790  0.72534900  1
  Mo  Mo11  1  0.75985323  0.59600329  0.22701752  1
  S  S0  1  0.14174844  0.70277645  0.68864964  1
  S  S1  1  0.13043639  0.71446163  0.18724644  1
  S  S2  1  0.29410736  0.61844679  0.93303129  1
  S  S3  1  0.21619648  0.20537159  0.60724444  1
  S  S4  1  0.29123156  0.61929236  0.43619132  1
  S  S5  1  0.21075567  0.21564874  0.10569268  1
  S  S6  1  0.38034470  0.12459849  0.85672828  1
  S  S7  1  0.37777403  0.13320902  0.35628562  1
  S  S8  1  0.63484634  0.86883958  0.64346247  1
  S  S9  1  0.61466709  0.87634683  0.14177580  1
  S  S10  1  0.79879683  0.78362573  0.88843704  1
  S  S11  1  0.72026540  0.37249034  0.56539029  1
  S  S12  1  0.78106306  0.79164643  0.39315390  1
  S  S13  1  0.70441366  0.38238015  0.06578718  1
  S  S14  1  0.87542501  0.28472841  0.81172825  1
  S  S15  1  0.86867382  0.29359881  0.31033612  1
loop_
_geom_bond_atom_site_label_1
_geom_bond_atom_site_label_2
_geom_bond_distance
_geom_bond_site_symmetry_2
Li0 S13 2.371381 1_456
Li0 S2 2.417744 1_555
Li0 S5 2.480206 1_556
Li0 S14 2.497868 1_455
Li1 S2 2.448833 1_555
Li1 S5 2.509687 1_566
Li1 S6 2.517476 1_565
Li1 S10 2.568914 1_455
Li2 S7 2.418905 1_565
Li2 S4 2.433622 1_555
Li2 S8 2.433836 1_555
Li2 S3 2.483168 1_565
Li3 S0 2.373784 1_645
Li3 S14 2.414595 1_555
Li3 S8 2.513538 1_545
Li3 S3 2.528235 1_655
Li4 S15 2.468149 1_555
Li4 S11 2.514899 1_555
Li4 S3 2.527672 1_655
Li4 S12 2.529315 1_545
Li5 S15 2.422241 1_555
Li5 S1 2.433318 1_645
Li5 S9 2.456057 1_545
Li5 S5 2.488216 1_655
Mo0 S2 2.466943 1_555
Mo0 S6 2.468206 1_555
Mo0 S0 2.475235 1_555
Mo0 S3 2.475692 1_555
Mo0 S14 2.589829 1_455
Mo1 S4 2.460911 1_555
Mo1 S7 2.472907 1_555
Mo1 S5 2.502768 1_555
Mo1 S1 2.514218 1_555
Mo1 S15 2.595402 1_455
Mo2 S10 2.447237 1_555
Mo2 S0 2.450874 1_555
Mo2 S2 2.463622 1_555
Mo2 S8 2.480916 1_555
Mo2 S6 2.635054 1_565
Mo3 S0 2.450730 1_555
Mo3 S3 2.482071 1_555
Mo3 S8 2.503998 1_555
Mo3 S11 2.515907 1_555
Mo3 S4 2.593982 1_555
Mo4 S12 2.438069 1_555
Mo4 S1 2.460936 1_555
Mo4 S9 2.481178 1_555
Mo4 S4 2.481929 1_555
Mo4 S7 2.613459 1_565
Mo5 S9 2.443512 1_555
Mo5 S1 2.467099 1_555
Mo5 S13 2.470031 1_555
Mo5 S5 2.480663 1_555
Mo5 S2 2.585693 1_554
Mo6 S14 2.474070 1_555
Mo6 S6 2.479010 1_555
Mo6 S10 2.482242 1_555
Mo6 S2 2.507433 1_555
Mo6 S13 2.597032 1_556
Mo7 S11 2.457918 1_555
Mo7 S14 2.466253 1_555
Mo7 S3 2.470153 1_555
Mo7 S6 2.498205 1_555
Mo7 S8 2.621121 1_545
Mo8 S12 2.449668 1_555
Mo8 S7 2.463698 1_555
Mo8 S4 2.478159 1_555
Mo8 S15 2.479570 1_555
Mo8 S11 2.621580 1_555
Mo9 S13 2.424075 1_555
Mo9 S5 2.461069 1_555
Mo9 S15 2.469172 1_555
Mo9 S7 2.484298 1_555
Mo9 S9 2.604672 1_545
Mo10 S11 2.449813 1_555
Mo10 S10 2.455705 1_555
Mo10 S8 2.487988 1_555
Mo10 S14 2.494584 1_555
Mo10 S0 2.591680 1_655
Mo11 S13 2.474224 1_555
Mo11 S12 2.475642 1_555
Mo11 S9 2.494004 1_555
Mo11 S15 2.515361 1_555
Mo11 S1 2.621720 1_655
