# generated using pymatgen
data_CsH(CO2)2
_symmetry_space_group_name_H-M   'P 1'
_cell_length_a   7.06778100
_cell_length_b   7.05843300
_cell_length_c   10.49723250
_cell_angle_alpha   82.08658373
_cell_angle_beta   90.00000000
_cell_angle_gamma   90.00000000
_symmetry_Int_Tables_number   1
_chemical_formula_structural   CsH(CO2)2
_chemical_formula_sum   'Cs4 H4 C8 O16'
_cell_volume   518.69337717
_cell_formula_units_Z   4
loop_
 _symmetry_equiv_pos_site_id
 _symmetry_equiv_pos_as_xyz
  1  'x, y, z'
loop_
 _atom_site_type_symbol
 _atom_site_label
 _atom_site_symmetry_multiplicity
 _atom_site_fract_x
 _atom_site_fract_y
 _atom_site_fract_z
 _atom_site_occupancy
  Cs  Cs0  1  0.98292500  0.99368200  0.77109200  1
  Cs  Cs1  1  0.48292500  0.50631800  0.22890800  1
  Cs  Cs2  1  0.01707500  0.00631800  0.22890800  1
  Cs  Cs3  1  0.51707500  0.49368200  0.77109200  1
  H  H0  1  0.57185000  0.94134600  0.28712400  1
  H  H1  1  0.07185000  0.55865400  0.71287600  1
  H  H2  1  0.42815000  0.05865400  0.71287600  1
  H  H3  1  0.92815000  0.44134600  0.28712400  1
  C  C0  1  0.01792700  0.53636500  0.06677600  1
  C  C1  1  0.51792700  0.96363500  0.93322400  1
  C  C2  1  0.98207300  0.46363500  0.93322400  1
  C  C3  1  0.48207300  0.03636500  0.06677600  1
  C  C4  1  0.91650000  0.42834100  0.49749800  1
  C  C5  1  0.41650000  0.07165900  0.50250200  1
  C  C6  1  0.08350000  0.57165900  0.50250200  1
  C  C7  1  0.58350000  0.92834100  0.49749800  1
  O  O0  1  0.93113700  0.43646600  0.16143800  1
  O  O1  1  0.43113700  0.06353400  0.83856200  1
  O  O2  1  0.06886300  0.56353400  0.83856200  1
  O  O3  1  0.56886300  0.93646600  0.16143800  1
  O  O4  1  0.62276100  0.82276200  0.92793700  1
  O  O5  1  0.12276100  0.67723800  0.07206300  1
  O  O6  1  0.37723900  0.17723800  0.07206300  1
  O  O7  1  0.87723900  0.32276200  0.92793700  1
  O  O8  1  0.63427200  0.88789900  0.38492100  1
  O  O9  1  0.13427200  0.61210100  0.61507900  1
  O  O10  1  0.36572800  0.11210100  0.61507900  1
  O  O11  1  0.86572800  0.38789900  0.38492100  1
  O  O12  1  0.33763300  0.14241100  0.40212400  1
  O  O13  1  0.83763300  0.35758900  0.59787600  1
  O  O14  1  0.66236700  0.85758900  0.59787600  1
  O  O15  1  0.16236700  0.64241100  0.40212400  1
loop_
_geom_bond_atom_site_label_1
_geom_bond_atom_site_label_2
_geom_bond_distance
_geom_bond_site_symmetry_2
Cs0 O2 3.081682 1_655
Cs0 O13 3.110052 1_565
Cs0 O7 3.117227 1_565
Cs0 O14 3.137352 1_555
Cs0 O4 3.177919 1_555
Cs0 O10 3.213082 1_665
Cs0 O1 3.297912 1_665
Cs1 O3 3.081682 1_555
Cs1 O12 3.110052 1_555
Cs1 O6 3.117227 1_555
Cs1 O15 3.137352 1_555
Cs1 O5 3.177919 1_555
Cs1 O11 3.213082 1_555
Cs1 O0 3.297912 1_555
Cs2 O0 3.081682 1_455
Cs2 O15 3.110052 1_545
Cs2 O5 3.117227 1_545
Cs2 O12 3.137352 1_555
Cs2 O6 3.177919 1_555
Cs2 O8 3.213082 1_445
Cs2 O3 3.297912 1_445
Cs3 O1 3.081682 1_555
Cs3 O14 3.110052 1_555
Cs3 O4 3.117227 1_555
Cs3 O13 3.137352 1_555
Cs3 O7 3.177919 1_555
Cs3 O9 3.213082 1_555
Cs3 O2 3.297912 1_555
H0 O8 1.133237 1_555
H0 O3 1.324705 1_555
H1 O9 1.133237 1_555
H1 O2 1.324705 1_555
H2 O10 1.133237 1_555
H2 O1 1.324705 1_555
H3 O11 1.133237 1_555
H3 O0 1.324705 1_555
C0 O5 1.247393 1_555
C0 O0 1.291498 1_455
C1 O4 1.247393 1_555
C1 O1 1.291498 1_565
C2 O7 1.247393 1_555
C2 O2 1.291498 1_655
C3 O6 1.247393 1_555
C3 O3 1.291498 1_545
C4 O13 1.235104 1_555
C4 O11 1.303713 1_555
C5 O12 1.235104 1_555
C5 O10 1.303713 1_555
C6 O15 1.235104 1_555
C6 O9 1.303713 1_555
C7 O14 1.235104 1_555
C7 O8 1.303713 1_555
