# generated using pymatgen
data_Ba3WO6
_symmetry_space_group_name_H-M   'P 1'
_cell_length_a   6.61587000
_cell_length_b   6.91937571
_cell_length_c   8.06584679
_cell_angle_alpha   90.22282810
_cell_angle_beta   90.09071889
_cell_angle_gamma   95.68834431
_symmetry_Int_Tables_number   1
_chemical_formula_structural   Ba3WO6
_chemical_formula_sum   'Ba6 W2 O12'
_cell_volume   367.41412924
_cell_formula_units_Z   2
loop_
 _symmetry_equiv_pos_site_id
 _symmetry_equiv_pos_as_xyz
  1  'x, y, z'
loop_
 _atom_site_type_symbol
 _atom_site_label
 _atom_site_symmetry_multiplicity
 _atom_site_fract_x
 _atom_site_fract_y
 _atom_site_fract_z
 _atom_site_occupancy
  Ba  Ba0  1  0.03588400  0.02023800  0.02184400  1
  Ba  Ba1  1  0.02842600  0.02770000  0.54758400  1
  Ba  Ba2  1  0.92999400  0.53886300  0.28739800  1
  Ba  Ba3  1  0.44563100  0.41394800  0.01851300  1
  Ba  Ba4  1  0.44506700  0.41253400  0.56593400  1
  Ba  Ba5  1  0.55140300  0.91106600  0.79052900  1
  W  W0  1  0.94957700  0.51826100  0.79245000  1
  W  W1  1  0.47592400  0.95881500  0.29028400  1
  O  O0  1  0.04179100  0.40112400  0.57912600  1
  O  O1  1  0.81612100  0.67935900  0.95503300  1
  O  O2  1  0.73281300  0.30952200  0.78979100  1
  O  O3  1  0.82139000  0.68935300  0.63621500  1
  O  O4  1  0.61077200  0.05145100  0.10214500  1
  O  O5  1  0.57315200  0.70970700  0.29069500  1
  O  O6  1  0.61260700  0.05382200  0.47780900  1
  O  O7  1  0.27439100  0.13325300  0.78393000  1
  O  O8  1  0.31655500  0.19069600  0.29027900  1
  O  O9  1  0.20446600  0.82439300  0.29019400  1
  O  O10  1  0.22998500  0.65060100  0.79777500  1
  O  O11  1  0.04205200  0.39229400  0.00247200  1
loop_
_geom_bond_atom_site_label_1
_geom_bond_atom_site_label_2
_geom_bond_distance
_geom_bond_site_symmetry_2
Ba0 O7 2.561349 1_554
Ba0 O11 2.576027 1_555
Ba0 O1 2.697302 1_444
Ba0 O9 2.842535 1_545
Ba0 O4 2.915703 1_455
Ba0 O8 3.010032 1_555
Ba1 O7 2.561110 1_555
Ba1 O0 2.588128 1_555
Ba1 O3 2.692326 1_445
Ba1 O9 2.820493 1_545
Ba1 O6 2.830528 1_455
Ba1 O8 2.969420 1_555
Ba2 O9 2.547466 1_655
Ba2 O11 2.645004 1_655
Ba2 O0 2.672795 1_655
Ba2 O5 2.743138 1_555
Ba2 O1 2.976307 1_554
Ba2 O3 3.106170 1_555
Ba3 O11 2.662270 1_555
Ba3 O8 2.773311 1_555
Ba3 O2 2.794322 1_554
Ba3 O7 2.857317 1_554
Ba3 O10 2.892148 1_554
Ba3 O4 2.914465 1_555
Ba3 O1 2.960021 1_554
Ba3 O5 3.055555 1_555
Ba4 O0 2.663663 1_555
Ba4 O2 2.767739 1_555
Ba4 O7 2.775111 1_555
Ba4 O8 2.780515 1_555
Ba4 O6 2.903210 1_555
Ba4 O10 2.946917 1_555
Ba4 O3 3.038178 1_555
Ba4 O5 3.093680 1_555
Ba5 O7 2.506787 1_565
Ba5 O10 2.648559 1_555
Ba5 O4 2.705090 1_566
Ba5 O6 2.728600 1_565
Ba5 O3 2.761997 1_555
Ba5 O1 2.822062 1_555
Ba5 O2 2.895875 1_565
O0 W0 2.019956 1_455
O1 W0 1.982221 1_555
O2 W0 1.931900 1_555
O3 W0 1.978885 1_555
O4 W1 1.846095 1_545
O5 W1 1.898592 1_555
O6 W1 1.846015 1_545
O8 W1 2.005335 1_545
O9 W1 1.938902 1_555
O10 W0 1.986104 1_455
O11 W0 2.029182 1_454
