# generated using pymatgen
data_UMnO4
_symmetry_space_group_name_H-M   'P 1'
_cell_length_a   5.85533704
_cell_length_b   5.85533757
_cell_length_c   5.85535908
_cell_angle_alpha   106.78686535
_cell_angle_beta   110.71833384
_cell_angle_gamma   110.94129505
_symmetry_Int_Tables_number   1
_chemical_formula_structural   UMnO4
_chemical_formula_sum   'U2 Mn2 O8'
_cell_volume   154.28482345
_cell_formula_units_Z   2
loop_
 _symmetry_equiv_pos_site_id
 _symmetry_equiv_pos_as_xyz
  1  'x, y, z'
loop_
 _atom_site_type_symbol
 _atom_site_label
 _atom_site_symmetry_multiplicity
 _atom_site_fract_x
 _atom_site_fract_y
 _atom_site_fract_z
 _atom_site_occupancy
  U  U0  1  0.00921623  0.24999894  0.25921517  1
  U  U1  1  0.99078377  0.75000106  0.74078483  1
  Mn  Mn0  1  0.50000000  0.00000000  0.50000000  1
  Mn  Mn1  1  0.50000000  0.50000000  0.00000000  1
  O  O0  1  0.80645130  0.49311580  0.29956710  1
  O  O1  1  0.19354870  0.50688420  0.70043290  1
  O  O2  1  0.80645034  0.00688479  0.81333513  1
  O  O3  1  0.19354966  0.99311521  0.18666487  1
  O  O4  1  0.30579486  0.54664209  0.25915218  1
  O  O5  1  0.28749090  0.04664068  0.74084882  1
  O  O6  1  0.71250910  0.95335932  0.25915218  1
  O  O7  1  0.69420514  0.45335791  0.74084882  1
loop_
_geom_bond_atom_site_label_1
_geom_bond_atom_site_label_2
_geom_bond_distance
_geom_bond_site_symmetry_2
Mn0 O2 2.040519 1_555
Mn0 O3 2.040519 1_545
Mn0 O6 2.207657 1_545
Mn0 O5 2.207661 1_555
Mn0 O4 2.207663 1_545
Mn0 O7 2.207664 1_555
Mn1 O0 2.040525 1_555
Mn1 O1 2.040525 1_554
Mn1 O7 2.207656 1_554
Mn1 O4 2.207660 1_555
Mn1 O5 2.207670 1_554
Mn1 O6 2.207670 1_555
O0 U0 2.168909 1_655
O0 U1 2.173421 1_555
O1 U1 2.168909 1_455
O1 U0 2.173421 1_555
O2 U0 2.168910 1_656
O2 U1 2.173405 1_545
O3 U1 2.168910 1_454
O3 U0 2.173405 1_565
O4 U0 1.969095 1_555
O5 U1 1.969088 1_445
O6 U0 1.969092 1_665
O7 U1 1.969098 1_555
