# generated using pymatgen
data_Cd3(PO4)2
_symmetry_space_group_name_H-M   'P 1'
_cell_length_a   10.38499310
_cell_length_b   9.22253307
_cell_length_c   22.20085298
_cell_angle_alpha   75.43996460
_cell_angle_beta   90.00000000
_cell_angle_gamma   90.00000000
_symmetry_Int_Tables_number   1
_chemical_formula_structural   Cd3(PO4)2
_chemical_formula_sum   'Cd36 P24 O96'
_cell_volume   2058.02072789
_cell_formula_units_Z   12
loop_
 _symmetry_equiv_pos_site_id
 _symmetry_equiv_pos_as_xyz
  1  'x, y, z'
loop_
 _atom_site_type_symbol
 _atom_site_label
 _atom_site_symmetry_multiplicity
 _atom_site_fract_x
 _atom_site_fract_y
 _atom_site_fract_z
 _atom_site_occupancy
  Cd  Cd0  1  0.71118229  0.88497044  0.36308144  1
  Cd  Cd1  1  0.29570249  0.79856086  0.29609671  1
  Cd  Cd2  1  0.39507235  0.51667136  0.58385186  1
  Cd  Cd3  1  0.78910402  0.50900896  0.54326268  1
  Cd  Cd4  1  0.20429751  0.79856086  0.79609671  1
  Cd  Cd5  1  0.59270321  0.87848016  0.56020028  1
  Cd  Cd6  1  0.10319122  0.78788093  0.60721164  1
  Cd  Cd7  1  0.21089598  0.49099104  0.45673732  1
  Cd  Cd8  1  0.89523069  0.14430238  0.57679959  1
  Cd  Cd9  1  0.71089598  0.50900896  0.04326268  1
  Cd  Cd10  1  0.28881771  0.11502956  0.63691856  1
  Cd  Cd11  1  0.70429751  0.20143914  0.70390329  1
  Cd  Cd12  1  0.89687346  0.80465957  0.24715165  1
  Cd  Cd13  1  0.60319122  0.21211907  0.89278836  1
  Cd  Cd14  1  0.78881771  0.88497044  0.86308144  1
  Cd  Cd15  1  0.39687346  0.19534043  0.25284835  1
  Cd  Cd16  1  0.10312654  0.19534043  0.75284835  1
  Cd  Cd17  1  0.58828217  0.57140378  0.21995528  1
  Cd  Cd18  1  0.21118229  0.11502956  0.13691856  1
  Cd  Cd19  1  0.28910402  0.49099104  0.95673732  1
  Cd  Cd20  1  0.10476931  0.85569762  0.42320041  1
  Cd  Cd21  1  0.79570249  0.20143914  0.20390329  1
  Cd  Cd22  1  0.08828217  0.42859622  0.28004472  1
  Cd  Cd23  1  0.41171783  0.42859622  0.78004472  1
  Cd  Cd24  1  0.60476931  0.14430238  0.07679959  1
  Cd  Cd25  1  0.39523069  0.85569762  0.92320041  1
  Cd  Cd26  1  0.60492765  0.48332864  0.41614814  1
  Cd  Cd27  1  0.09270321  0.12151984  0.93979972  1
  Cd  Cd28  1  0.60312654  0.80465957  0.74715165  1
  Cd  Cd29  1  0.90729679  0.87848016  0.06020028  1
  Cd  Cd30  1  0.40729679  0.12151984  0.43979972  1
  Cd  Cd31  1  0.89507235  0.48332864  0.91614814  1
  Cd  Cd32  1  0.89680878  0.21211907  0.39278836  1
  Cd  Cd33  1  0.39680878  0.78788093  0.10721164  1
  Cd  Cd34  1  0.91171783  0.57140378  0.71995528  1
  Cd  Cd35  1  0.10492765  0.51667136  0.08385186  1
  P  P0  1  0.14408955  0.46929145  0.83135954  1
  P  P1  1  0.36350331  0.77904453  0.67131059  1
  P  P2  1  0.64408955  0.53070855  0.66864046  1
  P  P3  1  0.43480998  0.75951743  0.43934571  1
  P  P4  1  0.35591045  0.46929145  0.33135954  1
  P  P5  1  0.57281486  0.93027575  0.21993487  1
  P  P6  1  0.58082709  0.57114784  0.89455657  1
  P  P7  1  0.06519002  0.75951743  0.93934571  1
  P  P8  1  0.85250582  0.87312565  0.49873832  1
  P  P9  1  0.14749418  0.12687435  0.50126168  1
  P  P10  1  0.64749418  0.87312565  0.99873832  1
  P  P11  1  0.08082709  0.42885216  0.60544343  1
  P  P12  1  0.41917291  0.42885216  0.10544343  1
  P  P13  1  0.91917291  0.57114784  0.39455657  1
  P  P14  1  0.07281486  0.06972425  0.28006513  1
  P  P15  1  0.63649669  0.22095547  0.32868941  1
  P  P16  1  0.86350331  0.22095547  0.82868941  1
  P  P17  1  0.13649669  0.77904453  0.17131059  1
  P  P18  1  0.42718514  0.06972425  0.78006513  1
  P  P19  1  0.56519002  0.24048257  0.56065429  1
  P  P20  1  0.35250582  0.12687435  0.00126168  1
  P  P21  1  0.85591045  0.53070855  0.16864046  1
  P  P22  1  0.93480998  0.24048257  0.06065429  1
  P  P23  1  0.92718514  0.93027575  0.71993487  1
  O  O0  1  0.30696638  0.69240973  0.62658876  1
  O  O1  1  0.46686773  0.62264604  0.92882340  1
  O  O2  1  0.24944801  0.86733032  0.68991341  1
  O  O3  1  0.04457166  0.95779351  0.75820396  1
  O  O4  1  0.75055199  0.13266968  0.31008659  1
  O  O5  1  0.18427637  0.13681333  0.23651521  1
  O  O6  1  0.14324290  0.04007424  0.57127786  1
  O  O7  1  0.70115054  0.63320101  0.70711634  1
  O  O8  1  0.81634432  0.49702726  0.44213691  1
  O  O9  1  0.91930081  0.32464365  0.76890975  1
  O  O10  1  0.53313227  0.37735396  0.07117660  1
  O  O11  1  0.29884946  0.36679899  0.29288366  1
  O  O12  1  0.17643671  0.82436835  0.89528648  1
  O  O13  1  0.45542834  0.95779351  0.25820396  1
  O  O14  1  0.41930081  0.67535635  0.73109025  1
  O  O15  1  0.31572363  0.13681333  0.73651521  1
  O  O16  1  0.00989881  0.18121107  0.48267623  1
  O  O17  1  0.24566282  0.25364304  0.49452546  1
  O  O18  1  0.03550104  0.54561848  0.63979820  1
  O  O19  1  0.86010567  0.70877797  0.34903709  1
  O  O20  1  0.35675710  0.04007424  0.07127786  1
  O  O21  1  0.68365568  0.49702726  0.94213691  1
  O  O22  1  0.03253327  0.89318881  0.14106460  1
  O  O23  1  0.96746673  0.10681119  0.85893540  1
  O  O24  1  0.64324290  0.95992576  0.92872214  1
  O  O25  1  0.50989881  0.81878893  0.01732377  1
  O  O26  1  0.13989433  0.29122203  0.65096291  1
  O  O27  1  0.94565560  0.40901117  0.20645207  1
  O  O28  1  0.53253327  0.10681119  0.35893540  1
  O  O29  1  0.54209630  0.82345510  0.17861634  1
  O  O30  1  0.92431238  0.62418919  0.11018719  1
  O  O31  1  0.20080176  0.02887514  0.45987843  1
  O  O32  1  0.95790370  0.82345510  0.67861634  1
  O  O33  1  0.05434440  0.59098883  0.79354793  1
  O  O34  1  0.42431238  0.37581081  0.38981281  1
  O  O35  1  0.57568762  0.62418919  0.61018719  1
  O  O36  1  0.29919824  0.02887514  0.95987843  1
  O  O37  1  0.58069919  0.32464365  0.26890975  1
  O  O38  1  0.67643671  0.17563165  0.60471352  1
  O  O39  1  0.46449896  0.54561848  0.13979820  1
  O  O40  1  0.61237075  0.08590297  0.17956670  1
  O  O41  1  0.89202862  0.39387348  0.01962569  1
  O  O42  1  0.60797138  0.39387348  0.51962569  1
  O  O43  1  0.79919824  0.97112486  0.54012157  1
  O  O44  1  0.63989433  0.70877797  0.84903709  1
  O  O45  1  0.18365568  0.50297274  0.55786309  1
  O  O46  1  0.96836093  0.13032765  0.02154095  1
  O  O47  1  0.96686773  0.37735396  0.57117660  1
  O  O48  1  0.39202862  0.60612652  0.48037431  1
  O  O49  1  0.46836093  0.86967235  0.47845905  1
  O  O50  1  0.24040232  0.55299730  0.35121706  1
  O  O51  1  0.96449896  0.45438152  0.36020180  1
  O  O52  1  0.44565560  0.59098883  0.29354793  1
  O  O53  1  0.53163907  0.13032765  0.52154095  1
  O  O54  1  0.74566282  0.74635696  0.00547454  1
  O  O55  1  0.53550104  0.45438152  0.86020180  1
  O  O56  1  0.32356329  0.82436835  0.39528648  1
  O  O57  1  0.38762925  0.91409703  0.82043330  1
  O  O58  1  0.75959768  0.44700270  0.64878294  1
  O  O59  1  0.20115054  0.36679899  0.79288366  1
  O  O60  1  0.70080176  0.97112486  0.04012157  1
  O  O61  1  0.79884946  0.63320101  0.20711634  1
  O  O62  1  0.05413818  0.27216285  0.09770004  1
  O  O63  1  0.85675710  0.95992576  0.42872214  1
  O  O64  1  0.44586182  0.27216285  0.59770004  1
  O  O65  1  0.68427637  0.86318667  0.26348479  1
  O  O66  1  0.99010119  0.81878893  0.51732377  1
  O  O67  1  0.54457166  0.04220649  0.74179604  1
  O  O68  1  0.55413818  0.72783715  0.40229996  1
  O  O69  1  0.10797138  0.60612652  0.98037431  1
  O  O70  1  0.25959768  0.55299730  0.85121706  1
  O  O71  1  0.95542834  0.04220649  0.24179604  1
  O  O72  1  0.94586182  0.72783715  0.90229996  1
  O  O73  1  0.55434440  0.40901117  0.70645207  1
  O  O74  1  0.49010119  0.18121107  0.98267623  1
  O  O75  1  0.69303362  0.30759027  0.37341124  1
  O  O76  1  0.46746673  0.89318881  0.64106460  1
  O  O77  1  0.80696638  0.30759027  0.87341124  1
  O  O78  1  0.74944801  0.13266968  0.81008659  1
  O  O79  1  0.74040232  0.44700270  0.14878294  1
  O  O80  1  0.88762925  0.08590297  0.67956670  1
  O  O81  1  0.36010567  0.29122203  0.15096291  1
  O  O82  1  0.03313227  0.62264604  0.42882340  1
  O  O83  1  0.08069919  0.67535635  0.23109025  1
  O  O84  1  0.25433718  0.25364304  0.99452546  1
  O  O85  1  0.11237075  0.91409703  0.32043330  1
  O  O86  1  0.07568762  0.37581081  0.88981281  1
  O  O87  1  0.04209630  0.17654490  0.32138366  1
  O  O88  1  0.19303362  0.69240973  0.12658876  1
  O  O89  1  0.31634432  0.50297274  0.05786309  1
  O  O90  1  0.03163907  0.86967235  0.97845905  1
  O  O91  1  0.25055199  0.86733032  0.18991341  1
  O  O92  1  0.82356329  0.17563165  0.10471352  1
  O  O93  1  0.45790370  0.17654490  0.82138366  1
  O  O94  1  0.81572363  0.86318667  0.76348479  1
  O  O95  1  0.75433718  0.74635696  0.50547454  1
loop_
_geom_bond_atom_site_label_1
_geom_bond_atom_site_label_2
_geom_bond_distance
_geom_bond_site_symmetry_2
Cd0 O68 2.209890 1_555
Cd0 O65 2.287112 1_555
Cd0 O19 2.320401 1_555
Cd0 O63 2.322402 1_555
Cd0 O4 2.327788 1_565
Cd0 O28 2.746207 1_565
Cd1 O13 2.234858 1_555
Cd1 O56 2.291968 1_555
Cd1 O85 2.311184 1_555
Cd1 O91 2.329705 1_555
Cd1 O50 2.358565 1_555
Cd1 O52 2.479401 1_555
Cd2 O48 2.237465 1_555
Cd2 O64 2.260336 1_555
Cd2 O35 2.266005 1_555
Cd2 O0 2.266586 1_555
Cd2 O45 2.281665 1_555
Cd3 O95 2.168491 1_555
Cd3 O47 2.210877 1_555
Cd3 O42 2.285045 1_555
Cd3 O58 2.288081 1_555
Cd3 O8 2.292891 1_555
Cd4 O3 2.234858 1_555
Cd4 O12 2.291968 1_555
Cd4 O57 2.311184 1_555
Cd4 O2 2.329705 1_555
Cd4 O70 2.358565 1_555
Cd4 O33 2.479401 1_555
Cd5 O49 2.245302 1_555
Cd5 O76 2.248399 1_555
Cd5 O43 2.309958 1_555
Cd5 O35 2.335426 1_555
Cd5 O53 2.351867 1_565
Cd5 O95 2.553983 1_555
Cd6 O66 2.270886 1_455
Cd6 O32 2.271265 1_455
Cd6 O18 2.279652 1_555
Cd6 O0 2.290893 1_555
Cd6 O6 2.299161 1_565
Cd6 O2 2.625140 1_555
Cd7 O17 2.168491 1_555
Cd7 O82 2.210877 1_555
Cd7 O48 2.285045 1_555
Cd7 O50 2.288081 1_555
Cd7 O45 2.292891 1_555
Cd8 O43 2.205082 1_545
Cd8 O80 2.209933 1_555
Cd8 O47 2.248053 1_555
Cd8 O16 2.354319 1_655
Cd8 O38 2.391721 1_555
Cd8 O6 2.762610 1_655
Cd9 O54 2.168491 1_555
Cd9 O10 2.210877 1_555
Cd9 O41 2.285045 1_555
Cd9 O79 2.288081 1_555
Cd9 O21 2.292891 1_554
Cd10 O64 2.209890 1_555
Cd10 O15 2.287112 1_555
Cd10 O26 2.320401 1_555
Cd10 O6 2.322402 1_555
Cd10 O2 2.327788 1_545
Cd10 O76 2.746207 1_545
Cd11 O67 2.234858 1_555
Cd11 O38 2.291968 1_555
Cd11 O80 2.311184 1_555
Cd11 O78 2.329705 1_555
Cd11 O58 2.358565 1_555
Cd11 O73 2.479401 1_555
Cd12 O61 2.243521 1_555
Cd12 O19 2.244651 1_555
Cd12 O71 2.247773 1_565
Cd12 O65 2.322867 1_555
Cd12 O83 2.325381 1_655
Cd12 O22 2.689171 1_655
Cd13 O74 2.270886 1_555
Cd13 O93 2.271265 1_555
Cd13 O55 2.279652 1_555
Cd13 O77 2.290893 1_555
Cd13 O24 2.299161 1_545
Cd13 O78 2.625140 1_555
Cd14 O72 2.209890 1_555
Cd14 O94 2.287112 1_555
Cd14 O44 2.320401 1_555
Cd14 O24 2.322402 1_555
Cd14 O78 2.327788 1_565
Cd14 O23 2.746207 1_565
Cd15 O11 2.243521 1_555
Cd15 O81 2.244651 1_555
Cd15 O13 2.247773 1_545
Cd15 O5 2.322867 1_555
Cd15 O37 2.325381 1_555
Cd15 O28 2.689171 1_555
Cd16 O59 2.243521 1_555
Cd16 O26 2.244651 1_555
Cd16 O3 2.247773 1_545
Cd16 O15 2.322867 1_555
Cd16 O9 2.325381 1_455
Cd16 O23 2.689171 1_455
Cd17 O52 2.245941 1_555
Cd17 O39 2.255798 1_555
Cd17 O61 2.259694 1_555
Cd17 O37 2.263378 1_555
Cd17 O29 2.324487 1_555
Cd17 O79 2.687022 1_555
Cd18 O62 2.209890 1_555
Cd18 O5 2.287112 1_555
Cd18 O81 2.320401 1_555
Cd18 O20 2.322402 1_555
Cd18 O91 2.327788 1_545
Cd18 O22 2.746207 1_545
Cd19 O84 2.168491 1_555
Cd19 O1 2.210877 1_555
Cd19 O69 2.285045 1_555
Cd19 O70 2.288081 1_555
Cd19 O89 2.292891 1_556
Cd20 O31 2.205082 1_565
Cd20 O85 2.209933 1_555
Cd20 O82 2.248053 1_555
Cd20 O66 2.354319 1_455
Cd20 O56 2.391721 1_555
Cd20 O63 2.762610 1_455
Cd21 O71 2.234858 1_555
Cd21 O92 2.291968 1_555
Cd21 O40 2.311184 1_555
Cd21 O4 2.329705 1_555
Cd21 O79 2.358565 1_555
Cd21 O27 2.479401 1_555
Cd22 O27 2.245941 1_455
Cd22 O51 2.255798 1_455
Cd22 O11 2.259694 1_555
Cd22 O83 2.263378 1_555
Cd22 O87 2.324487 1_555
Cd22 O50 2.687022 1_555
Cd23 O73 2.245941 1_555
Cd23 O55 2.255798 1_555
Cd23 O59 2.259694 1_555
Cd23 O14 2.263378 1_555
Cd23 O93 2.324487 1_555
Cd23 O70 2.687022 1_555
Cd24 O60 2.205082 1_545
Cd24 O40 2.209933 1_555
Cd24 O10 2.248053 1_555
Cd24 O74 2.354319 1_554
Cd24 O92 2.391721 1_555
Cd24 O20 2.762610 1_555
Cd25 O36 2.205082 1_565
Cd25 O57 2.209933 1_555
Cd25 O1 2.248053 1_555
Cd25 O25 2.354319 1_556
Cd25 O12 2.391721 1_555
Cd25 O24 2.762610 1_555
Cd26 O42 2.237465 1_555
Cd26 O68 2.260336 1_555
Cd26 O34 2.266005 1_555
Cd26 O75 2.266586 1_555
Cd26 O8 2.281665 1_555
Cd27 O46 2.245302 1_456
Cd27 O23 2.248399 1_455
Cd27 O36 2.309958 1_555
Cd27 O86 2.335426 1_555
Cd27 O90 2.351867 1_545
Cd27 O84 2.553983 1_555
Cd28 O7 2.243521 1_555
Cd28 O44 2.244651 1_555
Cd28 O67 2.247773 1_565
Cd28 O94 2.322867 1_555
Cd28 O14 2.325381 1_555
Cd28 O76 2.689171 1_555
Cd29 O90 2.245302 1_654
Cd29 O22 2.248399 1_655
Cd29 O60 2.309958 1_555
Cd29 O30 2.335426 1_555
Cd29 O46 2.351867 1_565
Cd29 O54 2.553983 1_555
Cd30 O53 2.245302 1_555
Cd30 O28 2.248399 1_555
Cd30 O31 2.309958 1_555
Cd30 O34 2.335426 1_555
Cd30 O49 2.351867 1_545
Cd30 O17 2.553983 1_555
Cd31 O41 2.237465 1_556
Cd31 O72 2.260336 1_555
Cd31 O86 2.266005 1_655
Cd31 O77 2.266586 1_555
Cd31 O21 2.281665 1_555
Cd32 O16 2.270886 1_655
Cd32 O87 2.271265 1_655
Cd32 O51 2.279652 1_555
Cd32 O75 2.290893 1_555
Cd32 O63 2.299161 1_545
Cd32 O4 2.625140 1_555
Cd33 O25 2.270886 1_555
Cd33 O29 2.271265 1_555
Cd33 O39 2.279652 1_555
Cd33 O88 2.290893 1_555
Cd33 O20 2.299161 1_565
Cd33 O91 2.625140 1_555
Cd34 O33 2.245941 1_655
Cd34 O18 2.255798 1_655
Cd34 O7 2.259694 1_555
Cd34 O9 2.263378 1_555
Cd34 O32 2.324487 1_555
Cd34 O58 2.687022 1_555
Cd35 O69 2.237465 1_554
Cd35 O62 2.260336 1_555
Cd35 O30 2.266005 1_455
Cd35 O88 2.266586 1_555
Cd35 O89 2.281665 1_555
O0 P1 1.538750 1_555
O1 P6 1.544855 1_555
O2 P1 1.550983 1_555
O3 P23 1.542968 1_455
O4 P15 1.550983 1_555
O5 P14 1.535158 1_555
O6 P9 1.559922 1_555
O7 P2 1.542804 1_555
O8 P13 1.536360 1_555
O9 P16 1.540607 1_555
O10 P12 1.544855 1_555
O11 P4 1.542804 1_555
O12 P7 1.534620 1_555
O13 P5 1.542968 1_555
O14 P1 1.540607 1_555
O15 P18 1.535158 1_555
O16 P9 1.535983 1_555
O17 P9 1.529921 1_555
O18 P11 1.541403 1_555
O19 P13 1.537437 1_555
O20 P20 1.559922 1_555
O21 P6 1.536360 1_555
O22 P17 1.539262 1_555
O23 P16 1.539262 1_555
O24 P10 1.559922 1_555
O25 P10 1.535983 1_554
O26 P11 1.537437 1_555
O27 P21 1.535996 1_555
O28 P15 1.539262 1_555
O29 P5 1.538870 1_555
O30 P21 1.539288 1_555
O31 P9 1.544317 1_555
O32 P23 1.538870 1_555
O33 P0 1.535996 1_555
O34 P4 1.539288 1_555
O35 P2 1.539288 1_555
O36 P20 1.544317 1_556
O37 P15 1.540607 1_555
O38 P19 1.534620 1_555
O39 P12 1.541403 1_555
O40 P5 1.544414 1_545
O41 P22 1.542867 1_555
O42 P19 1.542867 1_555
O43 P8 1.544317 1_555
O44 P6 1.537437 1_555
O45 P11 1.536360 1_555
O46 P22 1.533310 1_555
O47 P11 1.544855 1_655
O48 P3 1.542867 1_555
O49 P3 1.533310 1_555
O50 P4 1.549304 1_555
O51 P13 1.541403 1_555
O52 P4 1.535996 1_555
O53 P19 1.533310 1_555
O54 P10 1.529921 1_554
O55 P6 1.541403 1_555
O56 P3 1.534620 1_555
O57 P18 1.544414 1_565
O58 P2 1.549304 1_555
O59 P0 1.542804 1_555
O60 P10 1.544317 1_554
O61 P21 1.542804 1_555
O62 P22 1.555080 1_455
O63 P8 1.559922 1_555
O64 P19 1.555080 1_555
O65 P5 1.535158 1_555
O66 P8 1.535983 1_555
O67 P18 1.542968 1_555
O68 P3 1.555080 1_555
O69 P7 1.542867 1_555
O70 P0 1.549304 1_555
O71 P14 1.542968 1_655
O72 P7 1.555080 1_655
O73 P2 1.535996 1_555
O74 P20 1.535983 1_556
O75 P15 1.538750 1_555
O76 P1 1.539262 1_555
O77 P16 1.538750 1_555
O78 P16 1.550983 1_555
O79 P21 1.549304 1_555
O80 P23 1.544414 1_545
O81 P12 1.537437 1_555
O82 P13 1.544855 1_455
O83 P17 1.540607 1_555
O84 P20 1.529921 1_556
O85 P14 1.544414 1_565
O86 P0 1.539288 1_555
O87 P14 1.538870 1_555
O88 P17 1.538750 1_555
O89 P12 1.536360 1_555
O90 P7 1.533310 1_555
O91 P17 1.550983 1_555
O92 P22 1.534620 1_555
O93 P18 1.538870 1_555
O94 P23 1.535158 1_555
O95 P8 1.529921 1_555
