# generated using pymatgen
data_K2TaCuSe4
_symmetry_space_group_name_H-M   'P 1'
_cell_length_a   14.03645240
_cell_length_b   12.55419607
_cell_length_c   7.48871514
_cell_angle_alpha   84.91470317
_cell_angle_beta   62.98391137
_cell_angle_gamma   32.10138546
_symmetry_Int_Tables_number   1
_chemical_formula_structural   K2TaCuSe4
_chemical_formula_sum   'K4 Ta2 Cu2 Se8'
_cell_volume   487.42512878
_cell_formula_units_Z   2
loop_
 _symmetry_equiv_pos_site_id
 _symmetry_equiv_pos_as_xyz
  1  'x, y, z'
loop_
 _atom_site_type_symbol
 _atom_site_label
 _atom_site_symmetry_multiplicity
 _atom_site_fract_x
 _atom_site_fract_y
 _atom_site_fract_z
 _atom_site_occupancy
  K  K0  1  0.32684500  0.31295400  0.67092900  1
  K  K1  1  0.67924800  0.67936700  0.31417800  1
  K  K2  1  0.92680600  0.92850700  0.57283500  1
  K  K3  1  0.56350400  0.57791200  0.93028100  1
  Ta  Ta0  1  0.49483300  0.50548500  0.49811100  1
  Ta  Ta1  1  0.75580600  0.74690800  0.74938500  1
  Cu  Cu0  1  0.25944900  0.24087200  0.24250900  1
  Cu  Cu1  1  0.99073900  0.00922100  0.00535100  1
  Se  Se0  1  0.95040200  0.65959800  0.34599500  1
  Se  Se1  1  0.22098300  0.89326800  0.57738300  1
  Se  Se2  1  0.90346500  0.20707000  0.29757900  1
  Se  Se3  1  0.59001300  0.29803000  0.20222300  1
  Se  Se4  1  0.34482300  0.04026500  0.94431800  1
  Se  Se5  1  0.67269100  0.94386200  0.03073800  1
  Se  Se6  1  0.30043200  0.58326100  0.89848100  1
  Se  Se7  1  0.03228400  0.35385100  0.66489800  1
loop_
_geom_bond_atom_site_label_1
_geom_bond_atom_site_label_2
_geom_bond_distance
_geom_bond_site_symmetry_2
K0 Se0 3.516520 1_545
K0 Se5 3.520910 1_456
K0 Se5 3.564582 1_545
K0 Se6 3.588417 1_555
K0 Se0 3.617952 1_456
K0 Se3 3.628408 1_555
K0 Se4 3.706494 1_555
K0 Se7 3.732226 1_555
K1 Se7 3.495994 1_654
K1 Se4 3.530532 1_565
K1 Se1 3.553502 1_555
K1 Se4 3.572589 1_654
K1 Se7 3.614154 1_565
K1 Se2 3.638255 1_555
K1 Se0 3.717168 1_555
K1 Se5 3.734971 1_555
K2 Se5 3.515533 1_556
K2 Se6 3.528210 1_565
K2 Se3 3.544414 1_566
K2 Se3 3.549531 1_655
K2 Se0 3.606041 1_555
K2 Se6 3.619614 1_654
K2 Se2 3.739084 1_565
K2 Se1 3.778540 1_655
K3 Se1 3.501295 1_556
K3 Se2 3.536746 1_466
K3 Se2 3.553408 1_555
K3 Se4 3.571300 1_565
K3 Se7 3.593228 1_655
K3 Se1 3.675659 1_645
K3 Se3 3.719764 1_556
K3 Se6 3.751324 1_555
Cu0 Se0 2.466948 1_455
Cu0 Se5 2.472232 1_545
Cu0 Se7 2.480842 1_555
Cu0 Se4 2.493598 1_554
Cu1 Se3 2.412398 1_555
Cu1 Se2 2.415017 1_555
Cu1 Se1 2.506389 1_644
Cu1 Se6 2.519523 1_644
Se0 Ta1 2.409626 1_555
Se1 Ta0 2.358661 1_555
Se2 Ta0 2.440422 1_555
Se3 Ta0 2.432373 1_555
Se4 Ta1 2.506188 1_545
Se5 Ta1 2.391103 1_554
Se6 Ta0 2.441545 1_555
Se7 Ta1 2.385193 1_455
