# generated using pymatgen
data_Gd7Ti8O26
_symmetry_space_group_name_H-M   'P 1'
_cell_length_a   7.21672173
_cell_length_b   14.47264813
_cell_length_c   12.43051010
_cell_angle_alpha   30.47189418
_cell_angle_beta   55.89209917
_cell_angle_gamma   61.34398117
_symmetry_Int_Tables_number   1
_chemical_formula_structural   Gd7Ti8O26
_chemical_formula_sum   'Gd7 Ti8 O26'
_cell_volume   545.11485671
_cell_formula_units_Z   1
loop_
 _symmetry_equiv_pos_site_id
 _symmetry_equiv_pos_as_xyz
  1  'x, y, z'
loop_
 _atom_site_type_symbol
 _atom_site_label
 _atom_site_symmetry_multiplicity
 _atom_site_fract_x
 _atom_site_fract_y
 _atom_site_fract_z
 _atom_site_occupancy
  Gd  Gd0  1  0.99474300  0.25398800  0.98765300  1
  Gd  Gd1  1  0.98401600  0.52990200  0.98097400  1
  Gd  Gd2  1  0.48319600  0.99576400  0.98177300  1
  Gd  Gd3  1  0.00707600  0.74462800  0.02723400  1
  Gd  Gd4  1  0.48900300  0.48894500  0.02832200  1
  Gd  Gd5  1  0.99841600  0.23208300  0.51375000  1
  Gd  Gd6  1  0.98171400  0.76514300  0.48590900  1
  Ti  Ti0  1  0.02058300  0.99580900  0.48890000  1
  Ti  Ti1  1  0.49716400  0.29070900  0.96119600  1
  Ti  Ti2  1  0.97454500  0.53151500  0.49119400  1
  Ti  Ti3  1  0.51343800  0.74669600  0.99692200  1
  Ti  Ti4  1  0.55112000  0.24047900  0.48712600  1
  Ti  Ti5  1  0.50643100  0.50000800  0.50229400  1
  Ti  Ti6  1  0.48654700  0.71424400  0.53764900  1
  Ti  Ti7  1  0.49296700  0.99381100  0.50061800  1
  O  O0  1  0.19850700  0.17745500  0.18302300  1
  O  O1  1  0.11339900  0.50305300  0.13332000  1
  O  O2  1  0.57127700  0.20207700  0.17524600  1
  O  O3  1  0.38880300  0.21773000  0.42844500  1
  O  O4  1  0.19968100  0.64833200  0.21789300  1
  O  O5  1  0.59901900  0.49565700  0.16655600  1
  O  O6  1  0.16544300  0.50665400  0.58017700  1
  O  O7  1  0.12512800  0.00506400  0.12735100  1
  O  O8  1  0.54302600  0.30540900  0.57069800  1
  O  O9  1  0.57808300  0.69219200  0.18202900  1
  O  O10  1  0.85309700  0.20849300  0.40823600  1
  O  O11  1  0.43583000  0.72170700  0.39712000  1
  O  O12  1  0.17127600  0.79610200  0.57310700  1
  O  O13  1  0.43784300  0.28293800  0.83553000  1
  O  O14  1  0.83130400  0.48426900  0.44109200  1
  O  O15  1  0.38698000  0.50146100  0.85451300  1
  O  O16  1  0.17409400  0.00048900  0.57762700  1
  O  O17  1  0.81485300  0.31683800  0.81631400  1
  O  O18  1  0.81443500  0.71828700  0.41128700  1
  O  O19  1  0.57145500  0.81645700  0.55100300  1
  O  O20  1  0.42040500  0.78894600  0.83489300  1
  O  O21  1  0.86672700  0.50330900  0.87344900  1
  O  O22  1  0.81060000  0.00402500  0.43252100  1
  O  O23  1  0.45984400  0.99616900  0.80421900  1
  O  O24  1  0.83378200  0.79537300  0.82583900  1
  O  O25  1  0.85286300  0.00020000  0.87614200  1
loop_
_geom_bond_atom_site_label_1
_geom_bond_atom_site_label_2
_geom_bond_distance
_geom_bond_site_symmetry_2
Gd0 O7 2.162657 1_656
Gd0 O21 2.309262 1_555
Gd0 O17 2.382826 1_555
Gd0 O6 2.437272 1_655
Gd0 O2 2.555669 1_556
Gd0 O0 2.663314 1_656
Gd0 O13 2.667311 1_655
Gd0 O22 2.705258 1_556
Gd1 O1 2.230632 1_656
Gd1 O21 2.262532 1_555
Gd1 O24 2.287776 1_555
Gd1 O5 2.334214 1_556
Gd1 O15 2.436775 1_655
Gd1 O12 2.452240 1_655
Gd1 O10 2.596092 1_556
Gd2 O7 2.193666 1_566
Gd2 O25 2.221641 1_565
Gd2 O23 2.300774 1_555
Gd2 O9 2.478370 1_556
Gd2 O8 2.507715 1_565
Gd2 O11 2.554762 1_556
Gd2 O13 2.650374 1_565
Gd3 O25 2.206468 1_464
Gd3 O1 2.272849 1_555
Gd3 O4 2.373658 1_555
Gd3 O14 2.474690 1_455
Gd3 O20 2.493711 1_554
Gd3 O9 2.630295 1_455
Gd3 O16 2.729857 1_564
Gd3 O24 2.798525 1_454
Gd4 O1 2.248002 1_555
Gd4 O21 2.268982 1_554
Gd4 O5 2.341827 1_555
Gd4 O3 2.388324 1_555
Gd4 O20 2.481097 1_554
Gd4 O15 2.494859 1_554
Gd4 O2 2.589694 1_555
Gd4 O19 2.879713 1_554
Gd5 O25 2.161800 1_555
Gd5 O1 2.276733 1_655
Gd5 O3 2.360677 1_655
Gd5 O10 2.365287 1_555
Gd5 O16 2.436805 1_655
Gd5 O14 2.628486 1_555
Gd5 O8 2.787244 1_555
Gd6 O7 2.142301 1_665
Gd6 O21 2.306657 1_555
Gd6 O18 2.429595 1_555
Gd6 O19 2.492461 1_555
Gd6 O12 2.516967 1_655
Gd6 O6 2.560277 1_655
Gd6 O22 2.605270 1_565
Gd6 O11 2.741725 1_655
O0 Ti0 1.883820 1_545
O0 Ti1 1.966629 1_554
O2 Ti7 1.954230 1_545
O2 Ti1 2.016390 1_554
O3 Ti4 1.937728 1_555
O3 Ti7 2.297903 1_545
O4 Ti2 1.892917 1_455
O4 Ti3 2.018520 1_554
O5 Ti4 1.987336 1_555
O5 Ti3 2.032362 1_554
O6 Ti2 1.948953 1_455
O6 Ti5 2.064892 1_555
O8 Ti4 1.878219 1_555
O8 Ti5 2.033512 1_555
O9 Ti5 1.958594 1_555
O9 Ti3 1.963824 1_554
O10 Ti4 1.828498 1_555
O10 Ti0 2.100416 1_645
O11 Ti6 1.884412 1_555
O11 Ti5 2.052336 1_555
O12 Ti0 1.918097 1_555
O12 Ti6 1.991137 1_555
O13 Ti1 1.932631 1_555
O13 Ti5 2.008290 1_555
O14 Ti5 1.978274 1_555
O14 Ti2 2.014457 1_555
O15 Ti6 1.885086 1_555
O15 Ti1 1.891648 1_555
O16 Ti7 1.922740 1_545
O16 Ti0 2.004848 1_545
O17 Ti1 1.915638 1_555
O17 Ti2 1.969953 1_555
O18 Ti2 1.814332 1_555
O18 Ti6 1.968720 1_555
O19 Ti7 1.879838 1_555
O19 Ti6 1.999516 1_555
O20 Ti3 1.970071 1_555
O20 Ti7 2.035457 1_555
O22 Ti0 1.917363 1_645
O22 Ti7 1.981426 1_545
O23 Ti3 1.927434 1_555
O23 Ti4 1.941779 1_565
O24 Ti3 1.956832 1_555
O24 Ti0 2.061453 1_655
