# generated using pymatgen
data_Dy2Fe3Si5
_symmetry_space_group_name_H-M   'P 1'
_cell_length_a   10.29349440
_cell_length_b   10.29351907
_cell_length_c   5.44705082
_cell_angle_alpha   90.00000460
_cell_angle_beta   90.00000038
_cell_angle_gamma   90.00019320
_symmetry_Int_Tables_number   1
_chemical_formula_structural   Dy2Fe3Si5
_chemical_formula_sum   'Dy8 Fe12 Si20'
_cell_volume   577.14924678
_cell_formula_units_Z   4
loop_
 _symmetry_equiv_pos_site_id
 _symmetry_equiv_pos_as_xyz
  1  'x, y, z'
loop_
 _atom_site_type_symbol
 _atom_site_label
 _atom_site_symmetry_multiplicity
 _atom_site_fract_x
 _atom_site_fract_y
 _atom_site_fract_z
 _atom_site_occupancy
  Dy  Dy0  1  0.93066918  0.23670563  1.00000205  1
  Dy  Dy1  1  0.43067858  0.26326990  0.49999841  1
  Dy  Dy2  1  0.23672124  0.06930944  1.00000161  1
  Dy  Dy3  1  0.76327879  0.93067708  1.00000168  1
  Dy  Dy4  1  0.26328394  0.56934028  0.49999781  1
  Dy  Dy5  1  0.56932250  0.73672977  0.49999839  1
  Dy  Dy6  1  0.06932959  0.76329444  1.00000218  1
  Dy  Dy7  1  0.73671622  0.43067250  0.49999796  1
  Fe  Fe0  1  0.35506589  0.37663519  1.00000165  1
  Fe  Fe1  1  0.64493405  0.62337433  0.00000180  1
  Fe  Fe2  1  0.62336274  0.35506124  1.00000164  1
  Fe  Fe3  1  0.12336057  0.14491515  0.49999843  1
  Fe  Fe4  1  0.37663905  0.64494807  1.00000149  1
  Fe  Fe5  1  0.49999962  0.99999305  0.74999752  1
  Fe  Fe6  1  0.14493514  0.87663706  0.49999808  1
  Fe  Fe7  1  0.85506212  0.12335223  0.49999845  1
  Fe  Fe8  1  0.87664200  0.85507572  0.49999855  1
  Fe  Fe9  1  0.49999955  0.99999321  0.25000257  1
  Fe  Fe10  1  -0.00000039  0.50000649  0.74999663  1
  Fe  Fe11  1  -0.00000046  0.50000654  0.25000333  1
  Si  Si0  1  0.50000059  0.50000448  0.22828115  1
  Si  Si1  1  0.67762584  0.17761498  0.75000248  1
  Si  Si2  1  0.32237372  0.82238164  0.75000061  1
  Si  Si3  1  0.82054744  0.47951264  1.00000305  1
  Si  Si4  1  0.32054480  0.02048050  0.49999750  1
  Si  Si5  1  0.17762099  0.32237534  0.75000212  1
  Si  Si6  1  0.67762501  0.17761419  0.24999745  1
  Si  Si7  1  0.52048649  0.82054958  1.00000256  1
  Si  Si8  1  0.32237453  0.82238243  0.24999941  1
  Si  Si9  1  0.17761994  0.32237634  0.24999784  1
  Si  Si10  1  0.17945369  0.52049490  1.00000296  1
  Si  Si11  1  0.47951219  0.17944493  1.00000245  1
  Si  Si12  1  0.82237992  0.67762790  0.24999735  1
  Si  Si13  1  0.97950725  0.32054037  0.49999691  1
  Si  Si14  1  0.00000040  0.99999553  0.72827492  1
  Si  Si15  1  0.50000063  0.50000452  0.77171920  1
  Si  Si16  1  0.02049189  0.67946501  0.49999689  1
  Si  Si17  1  0.82237887  0.67762889  0.75000270  1
  Si  Si18  1  0.00000041  0.99999550  0.27172478  1
  Si  Si19  1  0.67945548  0.97951303  0.49999745  1
loop_
_geom_bond_atom_site_label_1
_geom_bond_atom_site_label_2
_geom_bond_distance
_geom_bond_site_symmetry_2
Dy0 Si3 2.744380 1_555
Dy0 Si13 2.900836 1_556
Dy0 Si13 2.900888 1_555
Dy0 Si18 2.938861 1_646
Dy0 Si14 2.938873 1_645
Dy0 Si6 3.001467 1_556
Dy0 Si1 3.001468 1_555
Dy0 Si9 3.015573 1_656
Dy0 Si5 3.015589 1_655
Dy0 Fe7 3.063430 1_556
Dy0 Fe7 3.063465 1_555
Dy0 Fe11 3.115989 1_656
Dy0 Fe10 3.115999 1_655
Dy1 Si4 2.744259 1_555
Dy1 Si11 2.900804 1_554
Dy1 Si11 2.900846 1_555
Dy1 Si0 2.939028 1_555
Dy1 Si15 2.939038 1_555
Dy1 Si5 3.001640 1_555
Dy1 Si9 3.001644 1_555
Dy1 Si6 3.015508 1_555
Dy1 Si1 3.015520 1_555
Dy1 Fe0 3.063495 1_554
Dy1 Fe0 3.063526 1_555
Dy1 Fe9 3.115742 1_545
Dy1 Fe5 3.115751 1_545
Dy2 Si11 2.744276 1_555
Dy2 Si4 2.900791 1_556
Dy2 Si4 2.900833 1_555
Dy2 Si18 2.938902 1_546
Dy2 Si14 2.938912 1_545
Dy2 Si5 3.001699 1_555
Dy2 Si9 3.001701 1_556
Dy2 Si8 3.015329 1_546
Dy2 Si2 3.015341 1_545
Dy2 Fe3 3.063458 1_556
Dy2 Fe3 3.063489 1_555
Dy2 Fe9 3.115752 1_546
Dy2 Fe5 3.115760 1_545
Dy3 Si7 2.744255 1_555
Dy3 Si19 2.900802 1_556
Dy3 Si19 2.900845 1_555
Dy3 Si18 2.938920 1_656
Dy3 Si14 2.938930 1_655
Dy3 Si17 3.001539 1_555
Dy3 Si12 3.001542 1_556
Dy3 Si6 3.015413 1_566
Dy3 Si1 3.015426 1_565
Dy3 Fe8 3.063457 1_556
Dy3 Fe8 3.063487 1_555
Dy3 Fe9 3.115760 1_556
Dy3 Fe5 3.115767 1_555
Dy4 Si16 2.744248 1_555
Dy4 Si10 2.900834 1_554
Dy4 Si10 2.900887 1_555
Dy4 Si0 2.938907 1_555
Dy4 Si15 2.938920 1_555
Dy4 Si8 3.001460 1_555
Dy4 Si2 3.001462 1_555
Dy4 Si9 3.015682 1_555
Dy4 Si5 3.015698 1_555
Dy4 Fe4 3.063438 1_554
Dy4 Fe4 3.063473 1_555
Dy4 Fe11 3.115828 1_555
Dy4 Fe10 3.115838 1_555
Dy5 Si19 2.744198 1_555
Dy5 Si7 2.900792 1_554
Dy5 Si7 2.900835 1_555
Dy5 Si0 2.938948 1_555
Dy5 Si15 2.938958 1_555
Dy5 Si17 3.001621 1_555
Dy5 Si12 3.001625 1_555
Dy5 Si8 3.015507 1_555
Dy5 Si2 3.015520 1_555
Dy5 Fe1 3.063452 1_555
Dy5 Fe1 3.063486 1_556
Dy5 Fe9 3.115628 1_555
Dy5 Fe5 3.115634 1_555
Dy6 Si10 2.744320 1_555
Dy6 Si16 2.900818 1_556
Dy6 Si16 2.900872 1_555
Dy6 Si18 2.938778 1_556
Dy6 Si14 2.938792 1_555
Dy6 Si8 3.001471 1_556
Dy6 Si2 3.001473 1_555
Dy6 Si12 3.015549 1_456
Dy6 Si17 3.015566 1_455
Dy6 Fe6 3.063381 1_556
Dy6 Fe6 3.063421 1_555
Dy6 Fe11 3.115872 1_556
Dy6 Fe10 3.115883 1_555
Dy7 Si13 2.744270 1_555
Dy7 Si3 2.900828 1_554
Dy7 Si3 2.900880 1_555
Dy7 Si0 2.938889 1_555
Dy7 Si15 2.938901 1_555
Dy7 Si6 3.001611 1_555
Dy7 Si1 3.001612 1_555
Dy7 Si12 3.015608 1_555
Dy7 Si17 3.015624 1_555
Dy7 Fe2 3.063440 1_554
Dy7 Fe2 3.063476 1_555
Dy7 Fe11 3.115820 1_655
Dy7 Fe10 3.115830 1_655
Fe0 Si0 2.320459 1_556
Fe0 Si15 2.320468 1_555
Fe0 Si10 2.336771 1_555
Fe0 Si9 2.345744 1_556
Fe0 Si5 2.345749 1_555
Fe0 Si11 2.400200 1_555
Fe1 Si0 2.320454 1_555
Fe1 Si15 2.320463 1_554
Fe1 Si3 2.336794 1_554
Fe1 Si12 2.345729 1_555
Fe1 Si17 2.345734 1_554
Fe1 Si7 2.400076 1_554
Fe2 Si0 2.320482 1_556
Fe2 Si15 2.320490 1_555
Fe2 Si11 2.336738 1_555
Fe2 Si6 2.345767 1_556
Fe2 Si1 2.345773 1_555
Fe2 Si3 2.400170 1_555
Fe3 Si18 2.320292 1_545
Fe3 Si14 2.320300 1_545
Fe3 Si13 2.336834 1_455
Fe3 Si9 2.345885 1_555
Fe3 Si5 2.345889 1_555
Fe3 Si4 2.400081 1_555
Fe4 Si0 2.320481 1_556
Fe4 Si15 2.320489 1_555
Fe4 Si7 2.336600 1_555
Fe4 Si8 2.345677 1_556
Fe4 Si2 2.345682 1_555
Fe4 Si10 2.400185 1_555
Fe5 Si7 2.304505 1_555
Fe5 Si11 2.304574 1_565
Fe5 Si4 2.304579 1_565
Fe5 Si19 2.304581 1_555
Fe5 Si2 2.585629 1_555
Fe5 Si1 2.585708 1_565
Fe5 Fe9 2.723498 1_555
Fe5 Fe9 2.723553 1_556
Fe6 Si18 2.320386 1_555
Fe6 Si14 2.320396 1_555
Fe6 Si4 2.336637 1_565
Fe6 Si8 2.345692 1_555
Fe6 Si2 2.345700 1_555
Fe6 Si16 2.400017 1_555
Fe7 Si18 2.320401 1_645
Fe7 Si14 2.320409 1_645
Fe7 Si19 2.336586 1_545
Fe7 Si6 2.345699 1_555
Fe7 Si1 2.345704 1_555
Fe7 Si13 2.400168 1_555
Fe8 Si18 2.320283 1_655
Fe8 Si14 2.320291 1_655
Fe8 Si16 2.336696 1_655
Fe8 Si12 2.345786 1_555
Fe8 Si17 2.345790 1_555
Fe8 Si19 2.400116 1_555
Fe9 Si7 2.304490 1_554
Fe9 Si11 2.304558 1_564
Fe9 Si4 2.304562 1_565
Fe9 Si19 2.304565 1_555
Fe9 Si8 2.585618 1_555
Fe9 Si6 2.585695 1_565
Fe10 Si3 2.304583 1_455
Fe10 Si10 2.304593 1_555
Fe10 Si16 2.304616 1_555
Fe10 Si13 2.304678 1_455
Fe10 Si17 2.585680 1_455
Fe10 Si5 2.585748 1_555
Fe10 Fe11 2.723489 1_555
Fe10 Fe11 2.723562 1_556
Fe11 Si3 2.304563 1_454
Fe11 Si10 2.304575 1_554
Fe11 Si16 2.304595 1_555
Fe11 Si13 2.304659 1_455
Fe11 Si12 2.585664 1_455
Fe11 Si9 2.585734 1_555
Si1 Si19 2.452147 1_545
Si1 Si11 2.452228 1_555
Si1 Si6 2.723498 1_556
Si1 Si6 2.723553 1_555
Si2 Si4 2.452115 1_565
Si2 Si7 2.452227 1_555
Si2 Si8 2.723519 1_556
Si2 Si8 2.723532 1_555
Si4 Si8 2.452093 1_545
Si5 Si9 2.723502 1_556
Si5 Si9 2.723549 1_555
Si7 Si8 2.452204 1_556
Si10 Si9 2.452259 1_556
Si10 Si5 2.452285 1_555
Si11 Si6 2.452206 1_556
Si12 Si16 2.452213 1_655
Si12 Si3 2.452229 1_554
Si12 Si17 2.723496 1_554
Si12 Si17 2.723555 1_555
Si13 Si9 2.452217 1_655
Si13 Si5 2.452245 1_655
Si16 Si17 2.452241 1_455
Si17 Si3 2.452256 1_555
Si19 Si6 2.452125 1_565
