# generated using pymatgen
data_CaAl2Si2(H2O5)2
_symmetry_space_group_name_H-M   'P 1'
_cell_length_a   5.80403889
_cell_length_b   5.80403889
_cell_length_c   14.06625600
_cell_angle_alpha   90.00000000
_cell_angle_beta   90.00000000
_cell_angle_gamma   118.78789246
_symmetry_Int_Tables_number   1
_chemical_formula_structural   CaAl2Si2(H2O5)2
_chemical_formula_sum   'Ca2 Al4 Si4 H8 O20'
_cell_volume   415.28448535
_cell_formula_units_Z   2
loop_
 _symmetry_equiv_pos_site_id
 _symmetry_equiv_pos_as_xyz
  1  'x, y, z'
loop_
 _atom_site_type_symbol
 _atom_site_label
 _atom_site_symmetry_multiplicity
 _atom_site_fract_x
 _atom_site_fract_y
 _atom_site_fract_z
 _atom_site_occupancy
  Ca  Ca0  1  0.89703500  0.10296500  0.25000000  1
  Ca  Ca1  1  0.10296500  0.89703500  0.75000000  1
  Al  Al0  1  0.50000000  0.00000000  0.50000000  1
  Al  Al1  1  0.00000000  0.50000000  0.50000000  1
  Al  Al2  1  0.50000000  0.00000000  0.00000000  1
  Al  Al3  1  0.00000000  0.50000000  0.00000000  1
  Si  Si0  1  0.24259500  0.75740500  0.35042900  1
  Si  Si1  1  0.75740500  0.24259500  0.64957100  1
  Si  Si2  1  0.24259500  0.75740500  0.14957100  1
  Si  Si3  1  0.75740500  0.24259500  0.85042900  1
  H  H0  1  0.51763400  0.48236600  0.30549900  1
  H  H1  1  0.48236600  0.51763400  0.69450100  1
  H  H2  1  0.51763400  0.48236600  0.19450100  1
  H  H3  1  0.48236600  0.51763400  0.80549900  1
  H  H4  1  0.66758300  0.33241700  0.38745000  1
  H  H5  1  0.33241700  0.66758300  0.61255000  1
  H  H6  1  0.66758300  0.33241700  0.11255000  1
  H  H7  1  0.33241700  0.66758300  0.88745000  1
  O  O0  1  0.15430800  0.84569200  0.25000000  1
  O  O1  1  0.84569200  0.15430800  0.75000000  1
  O  O2  1  0.56078300  0.90583600  0.36559400  1
  O  O3  1  0.90583600  0.56078300  0.63440600  1
  O  O4  1  0.56078300  0.90583600  0.13440600  1
  O  O5  1  0.90583600  0.56078300  0.86559400  1
  O  O6  1  0.43921700  0.09416400  0.63440600  1
  O  O7  1  0.09416400  0.43921700  0.36559400  1
  O  O8  1  0.43921700  0.09416400  0.86559400  1
  O  O9  1  0.09416400  0.43921700  0.13440600  1
  O  O10  1  0.14585800  0.85414200  0.44601400  1
  O  O11  1  0.85414200  0.14585800  0.55398600  1
  O  O12  1  0.14585800  0.85414200  0.05398600  1
  O  O13  1  0.85414200  0.14585800  0.94601400  1
  O  O14  1  0.64734700  0.35265300  0.45495900  1
  O  O15  1  0.35265300  0.64734700  0.54504100  1
  O  O16  1  0.64734700  0.35265300  0.04504100  1
  O  O17  1  0.35265300  0.64734700  0.95495900  1
  O  O18  1  0.57694800  0.42305200  0.25000000  1
  O  O19  1  0.42305200  0.57694800  0.75000000  1
loop_
_geom_bond_atom_site_label_1
_geom_bond_atom_site_label_2
_geom_bond_distance
_geom_bond_site_symmetry_2
Ca0 O9 2.368767 1_655
Ca0 O7 2.368767 1_655
Ca0 O2 2.368767 1_545
Ca0 O4 2.368767 1_545
Ca0 O0 2.570398 1_645
Ca1 O8 2.368767 1_565
Ca1 O6 2.368767 1_565
Ca1 O5 2.368767 1_455
Ca1 O3 2.368767 1_455
Ca1 O1 2.570398 1_465
Al0 O15 1.906906 1_545
Al0 O14 1.906906 1_555
Al0 O11 1.960176 1_555
Al0 O10 1.960176 1_545
Al0 O2 2.045283 1_545
Al0 O6 2.045283 1_555
Al1 O15 1.906906 1_555
Al1 O14 1.906906 1_455
Al1 O11 1.960176 1_455
Al1 O10 1.960176 1_555
Al1 O3 2.045283 1_455
Al1 O7 2.045283 1_555
Al2 O17 1.906906 1_544
Al2 O16 1.906906 1_555
Al2 O12 1.960176 1_545
Al2 O13 1.960176 1_554
Al2 O4 2.045283 1_545
Al2 O8 2.045283 1_554
Al3 O16 1.906906 1_455
Al3 O17 1.906906 1_554
Al3 O12 1.960176 1_555
Al3 O13 1.960176 1_454
Al3 O5 2.045283 1_454
Al3 O9 2.045283 1_555
H0 O18 0.980108 1_555
H1 O19 0.980108 1_555
H2 O18 0.980108 1_555
H3 O19 0.980108 1_555
H4 O14 0.970883 1_555
H5 O15 0.970883 1_555
H6 O16 0.970883 1_555
H7 O17 0.970883 1_555
O0 Si0 1.665429 1_555
O0 Si2 1.665429 1_555
O1 Si1 1.665429 1_555
O1 Si3 1.665429 1_555
O2 Si0 1.632764 1_555
O3 Si1 1.632764 1_555
O4 Si2 1.632764 1_555
O5 Si3 1.632764 1_555
O6 Si1 1.632764 1_555
O7 Si0 1.632764 1_555
O8 Si3 1.632764 1_555
O9 Si2 1.632764 1_555
O10 Si0 1.655854 1_555
O11 Si1 1.655854 1_555
O12 Si2 1.655854 1_555
O13 Si3 1.655854 1_555
