# generated using pymatgen
data_Er(BO2)3
_symmetry_space_group_name_H-M   'P 1'
_cell_length_a   7.41579500
_cell_length_b   12.26217000
_cell_length_c   15.96397300
_cell_angle_alpha   90.00000000
_cell_angle_beta   90.00000000
_cell_angle_gamma   90.00000000
_symmetry_Int_Tables_number   1
_chemical_formula_structural   Er(BO2)3
_chemical_formula_sum   'Er16 B48 O96'
_cell_volume   1451.66375379
_cell_formula_units_Z   16
loop_
 _symmetry_equiv_pos_site_id
 _symmetry_equiv_pos_as_xyz
  1  'x, y, z'
loop_
 _atom_site_type_symbol
 _atom_site_label
 _atom_site_symmetry_multiplicity
 _atom_site_fract_x
 _atom_site_fract_y
 _atom_site_fract_z
 _atom_site_occupancy
  Er  Er0  1  0.75000000  0.00953000  0.12116500  1
  Er  Er1  1  0.75000000  0.43533000  0.32733200  1
  Er  Er2  1  0.25000000  0.50953000  0.37883500  1
  Er  Er3  1  0.75000000  0.76549700  0.62784900  1
  Er  Er4  1  0.25000000  0.26549700  0.87215100  1
  Er  Er5  1  0.75000000  0.49047000  0.62116500  1
  Er  Er6  1  0.25000000  0.91141400  0.54819300  1
  Er  Er7  1  0.75000000  0.41141400  0.95180700  1
  Er  Er8  1  0.25000000  0.99047000  0.87883500  1
  Er  Er9  1  0.75000000  0.73450300  0.12784900  1
  Er  Er10  1  0.75000000  0.06467000  0.82733200  1
  Er  Er11  1  0.75000000  0.08858600  0.45180700  1
  Er  Er12  1  0.25000000  0.23450300  0.37215100  1
  Er  Er13  1  0.25000000  0.58858600  0.04819300  1
  Er  Er14  1  0.25000000  0.56467000  0.67266800  1
  Er  Er15  1  0.25000000  0.93533000  0.17266800  1
  B  B0  1  0.07626100  0.14282100  0.10962800  1
  B  B1  1  0.93109600  0.12855000  0.25833500  1
  B  B2  1  0.42185200  0.51655600  0.84773500  1
  B  B3  1  0.06000200  0.67699300  0.53213500  1
  B  B4  1  0.57343400  0.65393500  0.94342200  1
  B  B5  1  0.43109600  0.87145000  0.74166500  1
  B  B6  1  0.42185200  0.98344400  0.34773500  1
  B  B7  1  0.07031000  0.18524500  0.71774700  1
  B  B8  1  0.06000200  0.82300700  0.03213500  1
  B  B9  1  0.57031000  0.81475500  0.28225300  1
  B  B10  1  0.07031000  0.31475500  0.21774700  1
  B  B11  1  0.07343400  0.34606500  0.05657800  1
  B  B12  1  0.42656600  0.34606500  0.05657800  1
  B  B13  1  0.43999800  0.67699300  0.53213500  1
  B  B14  1  0.42969000  0.31475500  0.21774700  1
  B  B15  1  0.92656600  0.84606500  0.44342200  1
  B  B16  1  0.93109600  0.37145000  0.75833500  1
  B  B17  1  0.42373900  0.14282100  0.10962800  1
  B  B18  1  0.42656600  0.15393500  0.55657800  1
  B  B19  1  0.07814800  0.51655600  0.84773500  1
  B  B20  1  0.07814800  0.98344400  0.34773500  1
  B  B21  1  0.57626100  0.64282100  0.39037200  1
  B  B22  1  0.43999800  0.82300700  0.03213500  1
  B  B23  1  0.92969000  0.68524500  0.78225300  1
  B  B24  1  0.92185200  0.48344400  0.15226500  1
  B  B25  1  0.93999800  0.32300700  0.46786500  1
  B  B26  1  0.56000200  0.32300700  0.46786500  1
  B  B27  1  0.92373900  0.64282100  0.39037200  1
  B  B28  1  0.93999800  0.17699300  0.96786500  1
  B  B29  1  0.43109600  0.62855000  0.24166500  1
  B  B30  1  0.07626100  0.35717900  0.60962800  1
  B  B31  1  0.57031000  0.68524500  0.78225300  1
  B  B32  1  0.06890400  0.87145000  0.74166500  1
  B  B33  1  0.56890400  0.37145000  0.75833500  1
  B  B34  1  0.42969000  0.18524500  0.71774700  1
  B  B35  1  0.57343400  0.84606500  0.44342200  1
  B  B36  1  0.56000200  0.17699300  0.96786500  1
  B  B37  1  0.56890400  0.12855000  0.25833500  1
  B  B38  1  0.57814800  0.48344400  0.15226500  1
  B  B39  1  0.92969000  0.81475500  0.28225300  1
  B  B40  1  0.06890400  0.62855000  0.24166500  1
  B  B41  1  0.57814800  0.01655600  0.65226500  1
  B  B42  1  0.07343400  0.15393500  0.55657800  1
  B  B43  1  0.42373900  0.35717900  0.60962800  1
  B  B44  1  0.92373900  0.85717900  0.89037200  1
  B  B45  1  0.92185200  0.01655600  0.65226500  1
  B  B46  1  0.57626100  0.85717900  0.89037200  1
  B  B47  1  0.92656600  0.65393500  0.94342200  1
  O  O0  1  0.06025800  0.56838000  0.93099600  1
  O  O1  1  0.53425400  0.57676400  0.31451800  1
  O  O2  1  0.25000000  0.14287400  0.74561400  1
  O  O3  1  0.92603500  0.76543700  0.37109600  1
  O  O4  1  0.56586700  0.39956500  0.21823100  1
  O  O5  1  0.93351600  0.06461900  0.33644600  1
  O  O6  1  0.45729300  0.12088900  0.90376000  1
  O  O7  1  0.03425400  0.07676400  0.18548200  1
  O  O8  1  0.06586700  0.60043500  0.78176900  1
  O  O9  1  0.56671100  0.37780000  0.54853600  1
  O  O10  1  0.47797000  0.26975300  0.77716500  1
  O  O11  1  0.97664700  0.79033500  0.52234600  1
  O  O12  1  0.95729300  0.87911100  0.09624000  1
  O  O13  1  0.75000000  0.64287400  0.75438600  1
  O  O14  1  0.93413300  0.39956500  0.21823100  1
  O  O15  1  0.96574600  0.57676400  0.31451800  1
  O  O16  1  0.75000000  0.60065100  0.95149900  1
  O  O17  1  0.54270700  0.87911100  0.09624000  1
  O  O18  1  0.95729300  0.62088900  0.59624000  1
  O  O19  1  0.04270700  0.37911100  0.40376000  1
  O  O20  1  0.93974200  0.43162000  0.06900400  1
  O  O21  1  0.53425400  0.92323600  0.81451800  1
  O  O22  1  0.93974200  0.06838000  0.56900400  1
  O  O23  1  0.52203000  0.76975300  0.72283500  1
  O  O24  1  0.93328900  0.37780000  0.54853600  1
  O  O25  1  0.47664700  0.20966500  0.47765400  1
  O  O26  1  0.93413300  0.10043500  0.71823100  1
  O  O27  1  0.25000000  0.39934900  0.04850100  1
  O  O28  1  0.42603500  0.23456300  0.62890400  1
  O  O29  1  0.02203000  0.26975300  0.77716500  1
  O  O30  1  0.25000000  0.35712600  0.24561400  1
  O  O31  1  0.97797000  0.76975300  0.72283500  1
  O  O32  1  0.52335300  0.70966500  0.02234600  1
  O  O33  1  0.93328900  0.12220000  0.04853600  1
  O  O34  1  0.75000000  0.35993500  0.72388300  1
  O  O35  1  0.56648400  0.06461900  0.33644600  1
  O  O36  1  0.43974200  0.56838000  0.93099600  1
  O  O37  1  0.92603500  0.73456300  0.87109600  1
  O  O38  1  0.25000000  0.64006500  0.27611700  1
  O  O39  1  0.54270700  0.62088900  0.59624000  1
  O  O40  1  0.43351600  0.93538100  0.66355400  1
  O  O41  1  0.52335300  0.79033500  0.52234600  1
  O  O42  1  0.75000000  0.89934900  0.45149900  1
  O  O43  1  0.25000000  0.45723600  0.84149300  1
  O  O44  1  0.02335300  0.29033500  0.97765400  1
  O  O45  1  0.46574600  0.42323600  0.68548200  1
  O  O46  1  0.02335300  0.20966500  0.47765400  1
  O  O47  1  0.25000000  0.85993500  0.77611700  1
  O  O48  1  0.47664700  0.29033500  0.97765400  1
  O  O49  1  0.06671100  0.87780000  0.95146400  1
  O  O50  1  0.93351600  0.43538100  0.83644600  1
  O  O51  1  0.04270700  0.12088900  0.90376000  1
  O  O52  1  0.57396500  0.73456300  0.87109600  1
  O  O53  1  0.96574600  0.92323600  0.81451800  1
  O  O54  1  0.75000000  0.19632000  0.93342500  1
  O  O55  1  0.02203000  0.23024700  0.27716500  1
  O  O56  1  0.56025800  0.06838000  0.56900400  1
  O  O57  1  0.25000000  0.04276400  0.34149300  1
  O  O58  1  0.43328900  0.62220000  0.45146400  1
  O  O59  1  0.06586700  0.89956500  0.28176900  1
  O  O60  1  0.75000000  0.89535800  0.92232000  1
  O  O61  1  0.56025800  0.43162000  0.06900400  1
  O  O62  1  0.46574600  0.07676400  0.18548200  1
  O  O63  1  0.25000000  0.69632000  0.56657500  1
  O  O64  1  0.25000000  0.10065100  0.54850100  1
  O  O65  1  0.43974200  0.93162000  0.43099600  1
  O  O66  1  0.25000000  0.39535800  0.57768000  1
  O  O67  1  0.06648400  0.56461900  0.16355400  1
  O  O68  1  0.47797000  0.23024700  0.27716500  1
  O  O69  1  0.03425400  0.42323600  0.68548200  1
  O  O70  1  0.75000000  0.85712600  0.25438600  1
  O  O71  1  0.42603500  0.26543700  0.12890400  1
  O  O72  1  0.07396500  0.23456300  0.62890400  1
  O  O73  1  0.75000000  0.60464200  0.42232000  1
  O  O74  1  0.07396500  0.26543700  0.12890400  1
  O  O75  1  0.56648400  0.43538100  0.83644600  1
  O  O76  1  0.25000000  0.10464200  0.07768000  1
  O  O77  1  0.06671100  0.62220000  0.45146400  1
  O  O78  1  0.56586700  0.10043500  0.71823100  1
  O  O79  1  0.56671100  0.12220000  0.04853600  1
  O  O80  1  0.25000000  0.80368000  0.06657500  1
  O  O81  1  0.52203000  0.73024700  0.22283500  1
  O  O82  1  0.43328900  0.87780000  0.95146400  1
  O  O83  1  0.75000000  0.54276400  0.15850700  1
  O  O84  1  0.43413300  0.60043500  0.78176900  1
  O  O85  1  0.75000000  0.14006500  0.22388300  1
  O  O86  1  0.75000000  0.95723600  0.65850700  1
  O  O87  1  0.45729300  0.37911100  0.40376000  1
  O  O88  1  0.43413300  0.89956500  0.28176900  1
  O  O89  1  0.97664700  0.70966500  0.02234600  1
  O  O90  1  0.06648400  0.93538100  0.66355400  1
  O  O91  1  0.75000000  0.30368000  0.43342500  1
  O  O92  1  0.43351600  0.56461900  0.16355400  1
  O  O93  1  0.57396500  0.76543700  0.37109600  1
  O  O94  1  0.97797000  0.73024700  0.22283500  1
  O  O95  1  0.06025800  0.93162000  0.43099600  1
loop_
_geom_bond_atom_site_label_1
_geom_bond_atom_site_label_2
_geom_bond_distance
_geom_bond_site_symmetry_2
Er0 O12 2.253651 1_545
Er0 O17 2.253651 1_545
Er0 O33 2.258449 1_555
Er0 O79 2.258449 1_555
Er0 O85 2.291497 1_555
Er0 O7 2.485448 1_655
Er0 O62 2.485448 1_555
Er0 O70 2.831154 1_545
Er1 O4 2.256185 1_555
Er1 O14 2.256185 1_555
Er1 O91 2.339768 1_555
Er1 O1 2.368411 1_555
Er1 O15 2.368411 1_555
Er1 O73 2.570944 1_555
Er1 O19 2.583718 1_655
Er1 O87 2.583718 1_555
Er2 O87 2.253651 1_555
Er2 O19 2.253651 1_555
Er2 O58 2.258449 1_555
Er2 O77 2.258449 1_555
Er2 O38 2.291497 1_555
Er2 O1 2.485448 1_555
Er2 O15 2.485448 1_455
Er2 O30 2.831154 1_555
Er3 O23 2.271587 1_555
Er3 O31 2.271587 1_555
Er3 O11 2.398839 1_555
Er3 O41 2.398839 1_555
Er3 O18 2.400418 1_555
Er3 O39 2.400418 1_555
Er3 O86 2.401536 1_555
Er3 O13 2.518218 1_555
Er4 O10 2.271587 1_555
Er4 O29 2.271587 1_555
Er4 O44 2.398839 1_555
Er4 O48 2.398839 1_555
Er4 O6 2.400418 1_555
Er4 O51 2.400418 1_555
Er4 O43 2.401536 1_555
Er4 O2 2.518218 1_555
Er5 O18 2.253651 1_555
Er5 O39 2.253651 1_555
Er5 O24 2.258449 1_555
Er5 O9 2.258449 1_555
Er5 O34 2.291497 1_555
Er5 O69 2.485448 1_655
Er5 O45 2.485448 1_555
Er5 O13 2.831154 1_555
Er6 O40 2.308686 1_555
Er6 O90 2.308686 1_555
Er6 O64 2.320461 1_565
Er6 O65 2.354074 1_555
Er6 O95 2.354074 1_555
Er6 O41 2.546335 1_555
Er6 O11 2.546335 1_455
Er6 O63 2.653794 1_555
Er7 O75 2.308686 1_555
Er7 O50 2.308686 1_555
Er7 O16 2.320461 1_555
Er7 O20 2.354074 1_556
Er7 O61 2.354074 1_556
Er7 O44 2.546335 1_655
Er7 O48 2.546335 1_555
Er7 O54 2.653794 1_555
Er8 O6 2.253651 1_565
Er8 O51 2.253651 1_565
Er8 O82 2.258449 1_555
Er8 O49 2.258449 1_555
Er8 O47 2.291497 1_555
Er8 O21 2.485448 1_555
Er8 O53 2.485448 1_455
Er8 O2 2.831154 1_565
Er9 O81 2.271587 1_555
Er9 O94 2.271587 1_555
Er9 O89 2.398839 1_555
Er9 O32 2.398839 1_555
Er9 O12 2.400418 1_555
Er9 O17 2.400418 1_555
Er9 O83 2.401536 1_555
Er9 O70 2.518218 1_555
Er10 O78 2.256185 1_555
Er10 O26 2.256185 1_555
Er10 O54 2.339768 1_555
Er10 O21 2.368411 1_545
Er10 O53 2.368411 1_545
Er10 O60 2.570944 1_545
Er10 O51 2.583718 1_655
Er10 O6 2.583718 1_555
Er11 O35 2.308686 1_555
Er11 O5 2.308686 1_555
Er11 O42 2.320461 1_545
Er11 O22 2.354074 1_555
Er11 O56 2.354074 1_555
Er11 O46 2.546335 1_655
Er11 O25 2.546335 1_555
Er11 O91 2.653794 1_555
Er12 O55 2.271587 1_555
Er12 O68 2.271587 1_555
Er12 O46 2.398839 1_555
Er12 O25 2.398839 1_555
Er12 O87 2.400418 1_555
Er12 O19 2.400418 1_555
Er12 O57 2.401536 1_555
Er12 O30 2.518218 1_555
Er13 O92 2.308686 1_555
Er13 O67 2.308686 1_555
Er13 O27 2.320461 1_555
Er13 O36 2.354074 1_554
Er13 O0 2.354074 1_554
Er13 O32 2.546335 1_555
Er13 O89 2.546335 1_455
Er13 O80 2.653794 1_555
Er14 O84 2.256185 1_555
Er14 O8 2.256185 1_555
Er14 O63 2.339768 1_555
Er14 O69 2.368411 1_555
Er14 O45 2.368411 1_555
Er14 O66 2.570944 1_555
Er14 O39 2.583718 1_555
Er14 O18 2.583718 1_455
Er15 O59 2.256185 1_555
Er15 O88 2.256185 1_555
Er15 O80 2.339768 1_555
Er15 O7 2.368411 1_565
Er15 O62 2.368411 1_565
Er15 O76 2.570944 1_565
Er15 O17 2.583718 1_555
Er15 O12 2.583718 1_455
B0 O33 1.462608 1_455
B0 O76 1.462633 1_555
B0 O7 1.489799 1_555
B0 O74 1.534800 1_555
B1 O55 1.449200 1_655
B1 O85 1.458080 1_555
B1 O5 1.473020 1_555
B1 O7 1.530060 1_655
B2 O43 1.470773 1_555
B2 O75 1.474331 1_555
B2 O84 1.474843 1_555
B2 O36 1.479236 1_555
B3 O18 1.449383 1_455
B3 O77 1.453411 1_555
B3 O11 1.529091 1_455
B3 O63 1.530910 1_555
B4 O36 1.457010 1_555
B4 O16 1.469012 1_555
B4 O32 1.480668 1_556
B4 O52 1.520071 1_555
B5 O23 1.449200 1_555
B5 O47 1.458080 1_555
B5 O40 1.473020 1_555
B5 O21 1.530060 1_555
B6 O57 1.470773 1_565
B6 O35 1.474331 1_565
B6 O88 1.474843 1_555
B6 O65 1.479236 1_555
B7 O26 1.449615 1_455
B7 O29 1.449741 1_555
B7 O2 1.497840 1_555
B7 O72 1.542074 1_555
B8 O12 1.449383 1_455
B8 O49 1.453411 1_554
B8 O89 1.529091 1_455
B8 O80 1.530910 1_555
B9 O88 1.449615 1_555
B9 O81 1.449741 1_555
B9 O70 1.497840 1_555
B9 O93 1.542074 1_555
B10 O14 1.449615 1_455
B10 O55 1.449741 1_555
B10 O30 1.497840 1_555
B10 O74 1.542074 1_555
B11 O20 1.457010 1_455
B11 O27 1.469012 1_555
B11 O44 1.480668 1_554
B11 O74 1.520071 1_555
B12 O61 1.457010 1_555
B12 O27 1.469012 1_555
B12 O48 1.480668 1_554
B12 O71 1.520071 1_555
B13 O39 1.449383 1_555
B13 O58 1.453411 1_555
B13 O41 1.529091 1_555
B13 O63 1.530910 1_555
B14 O4 1.449615 1_555
B14 O68 1.449741 1_555
B14 O30 1.497840 1_555
B14 O71 1.542074 1_555
B15 O95 1.457010 1_655
B15 O42 1.469012 1_555
B15 O11 1.480668 1_555
B15 O3 1.520071 1_555
B16 O29 1.449200 1_655
B16 O34 1.458080 1_555
B16 O50 1.473020 1_555
B16 O69 1.530060 1_655
B17 O79 1.462608 1_555
B17 O76 1.462633 1_555
B17 O62 1.489799 1_555
B17 O71 1.534800 1_555
B18 O56 1.457010 1_555
B18 O64 1.469012 1_555
B18 O25 1.480668 1_555
B18 O28 1.520071 1_555
B19 O43 1.470773 1_555
B19 O50 1.474331 1_455
B19 O8 1.474843 1_555
B19 O0 1.479236 1_555
B20 O57 1.470773 1_565
B20 O5 1.474331 1_465
B20 O59 1.474843 1_555
B20 O95 1.479236 1_555
B21 O58 1.462608 1_555
B21 O73 1.462633 1_555
B21 O1 1.489799 1_555
B21 O93 1.534800 1_555
B22 O17 1.449383 1_555
B22 O82 1.453411 1_554
B22 O32 1.529091 1_555
B22 O80 1.530910 1_555
B23 O8 1.449615 1_655
B23 O31 1.449741 1_555
B23 O13 1.497840 1_555
B23 O37 1.542074 1_555
B24 O83 1.470773 1_555
B24 O67 1.474331 1_655
B24 O14 1.474843 1_555
B24 O20 1.479236 1_555
B25 O19 1.449383 1_655
B25 O24 1.453411 1_555
B25 O46 1.529091 1_655
B25 O91 1.530910 1_555
B26 O87 1.449383 1_555
B26 O9 1.453411 1_555
B26 O25 1.529091 1_555
B26 O91 1.530910 1_555
B27 O77 1.462608 1_655
B27 O73 1.462633 1_555
B27 O15 1.489799 1_555
B27 O3 1.534800 1_555
B28 O51 1.449383 1_655
B28 O33 1.453411 1_556
B28 O44 1.529091 1_655
B28 O54 1.530910 1_555
B29 O81 1.449200 1_555
B29 O38 1.458080 1_555
B29 O92 1.473020 1_555
B29 O1 1.530060 1_555
B30 O24 1.462608 1_455
B30 O66 1.462633 1_555
B30 O69 1.489799 1_555
B30 O72 1.534800 1_555
B31 O84 1.449615 1_555
B31 O23 1.449741 1_555
B31 O13 1.497840 1_555
B31 O52 1.542074 1_555
B32 O31 1.449200 1_455
B32 O47 1.458080 1_555
B32 O90 1.473020 1_555
B32 O53 1.530060 1_455
B33 O10 1.449200 1_555
B33 O34 1.458080 1_555
B33 O75 1.473020 1_555
B33 O45 1.530060 1_555
B34 O78 1.449615 1_555
B34 O10 1.449741 1_555
B34 O2 1.497840 1_555
B34 O28 1.542074 1_555
B35 O65 1.457010 1_555
B35 O42 1.469012 1_555
B35 O41 1.480668 1_555
B35 O93 1.520071 1_555
B36 O6 1.449383 1_555
B36 O79 1.453411 1_556
B36 O48 1.529091 1_555
B36 O54 1.530910 1_555
B37 O68 1.449200 1_555
B37 O85 1.458080 1_555
B37 O35 1.473020 1_555
B37 O62 1.530060 1_555
B38 O83 1.470773 1_555
B38 O92 1.474331 1_555
B38 O4 1.474843 1_555
B38 O61 1.479236 1_555
B39 O59 1.449615 1_655
B39 O94 1.449741 1_555
B39 O70 1.497840 1_555
B39 O3 1.542074 1_555
B40 O94 1.449200 1_455
B40 O38 1.458080 1_555
B40 O67 1.473020 1_555
B40 O15 1.530060 1_455
B41 O86 1.470773 1_545
B41 O40 1.474331 1_545
B41 O78 1.474843 1_555
B41 O56 1.479236 1_555
B42 O22 1.457010 1_455
B42 O64 1.469012 1_555
B42 O46 1.480668 1_555
B42 O72 1.520071 1_555
B43 O9 1.462608 1_555
B43 O66 1.462633 1_555
B43 O45 1.489799 1_555
B43 O28 1.534800 1_555
B44 O49 1.462608 1_655
B44 O60 1.462633 1_555
B44 O53 1.489799 1_555
B44 O37 1.534800 1_555
B45 O86 1.470773 1_545
B45 O90 1.474331 1_645
B45 O26 1.474843 1_555
B45 O22 1.479236 1_555
B46 O82 1.462608 1_555
B46 O60 1.462633 1_555
B46 O21 1.489799 1_555
B46 O52 1.534800 1_555
B47 O0 1.457010 1_655
B47 O16 1.469012 1_555
B47 O89 1.480668 1_556
B47 O37 1.520071 1_555
