# generated using pymatgen
data_Ca4Mn4O11
_symmetry_space_group_name_H-M   'P 1'
_cell_length_a   5.47929100
_cell_length_b   7.54896300
_cell_length_c   10.86538728
_cell_angle_alpha   89.86034341
_cell_angle_beta   90.00000000
_cell_angle_gamma   90.00000000
_symmetry_Int_Tables_number   1
_chemical_formula_structural   Ca4Mn4O11
_chemical_formula_sum   'Ca8 Mn8 O22'
_cell_volume   449.42329885
_cell_formula_units_Z   2
loop_
 _symmetry_equiv_pos_site_id
 _symmetry_equiv_pos_as_xyz
  1  'x, y, z'
loop_
 _atom_site_type_symbol
 _atom_site_label
 _atom_site_symmetry_multiplicity
 _atom_site_fract_x
 _atom_site_fract_y
 _atom_site_fract_z
 _atom_site_occupancy
  Ca  Ca0  1  0.02246000  0.48915600  0.61481200  1
  Ca  Ca1  1  0.55282100  0.49927600  0.88308000  1
  Ca  Ca2  1  0.49039400  0.01559900  0.88039500  1
  Ca  Ca3  1  0.99039400  0.98440100  0.11960500  1
  Ca  Ca4  1  0.05282100  0.50072400  0.11692000  1
  Ca  Ca5  1  0.52246000  0.51084400  0.38518800  1
  Ca  Ca6  1  0.44174500  0.98216500  0.37859900  1
  Ca  Ca7  1  0.94174500  0.01783500  0.62140100  1
  Mn  Mn0  1  0.49318900  0.25602600  0.62794600  1
  Mn  Mn1  1  0.51314000  0.74867700  0.62331300  1
  Mn  Mn2  1  0.99785900  0.74917800  0.88057000  1
  Mn  Mn3  1  0.00987600  0.25406700  0.87113100  1
  Mn  Mn4  1  0.50987600  0.74593300  0.12886900  1
  Mn  Mn5  1  0.49785900  0.25082200  0.11943000  1
  Mn  Mn6  1  0.99318900  0.74397400  0.37205400  1
  Mn  Mn7  1  0.01314000  0.25132300  0.37668700  1
  O  O0  1  0.46460300  0.50800400  0.67364300  1
  O  O1  1  0.72121200  0.21472300  0.76483900  1
  O  O2  1  0.73170800  0.80108100  0.76210400  1
  O  O3  1  0.21373300  0.20232600  0.73110900  1
  O  O4  1  0.98826700  0.50576500  0.82870500  1
  O  O5  1  0.04451100  0.99823900  0.90635900  1
  O  O6  1  0.79661000  0.28841800  0.02092400  1
  O  O7  1  0.78415200  0.70701000  0.02595400  1
  O  O8  1  0.28415200  0.29299000  0.97404600  1
  O  O9  1  0.29661000  0.71158200  0.97907600  1
  O  O10  1  0.54451100  0.00176100  0.09364100  1
  O  O11  1  0.48826700  0.49423500  0.17129500  1
  O  O12  1  0.71373300  0.79767400  0.26889100  1
  O  O13  1  0.22121200  0.78527700  0.23516100  1
  O  O14  1  0.23170800  0.19891900  0.23789600  1
  O  O15  1  0.96460300  0.49199600  0.32635700  1
  O  O16  1  0.99273100  0.00066400  0.40889700  1
  O  O17  1  0.76388200  0.28819500  0.50862500  1
  O  O18  1  0.78050500  0.70183900  0.50705600  1
  O  O19  1  0.28050500  0.29816100  0.49294400  1
  O  O20  1  0.26388200  0.71180500  0.49137500  1
  O  O21  1  0.49273100  0.99933600  0.59110300  1
loop_
_geom_bond_atom_site_label_1
_geom_bond_atom_site_label_2
_geom_bond_distance
_geom_bond_site_symmetry_2
Ca0 O4 2.335243 1_455
Ca0 O17 2.376662 1_455
Ca0 O18 2.386833 1_455
Ca0 O19 2.416736 1_555
Ca0 O0 2.509667 1_555
Ca0 O20 2.522428 1_555
Ca0 O3 2.714803 1_555
Ca1 O0 2.327161 1_555
Ca1 O8 2.358290 1_555
Ca1 O9 2.373919 1_555
Ca1 O4 2.458454 1_555
Ca1 O7 2.547070 1_556
Ca1 O6 2.559219 1_556
Ca1 O1 2.670122 1_555
Ca1 O2 2.804397 1_555
Ca2 O1 2.329441 1_555
Ca2 O10 2.337980 1_556
Ca2 O2 2.456175 1_545
Ca2 O5 2.462809 1_545
Ca2 O8 2.589930 1_555
Ca2 O3 2.627704 1_555
Ca2 O9 2.744473 1_545
Ca3 O13 2.329441 1_655
Ca3 O5 2.337980 1_654
Ca3 O14 2.456175 1_665
Ca3 O10 2.462809 1_565
Ca3 O7 2.589930 1_555
Ca3 O12 2.627704 1_555
Ca3 O6 2.744473 1_565
Ca4 O15 2.327161 1_455
Ca4 O7 2.358290 1_455
Ca4 O6 2.373919 1_455
Ca4 O11 2.458454 1_555
Ca4 O8 2.547070 1_554
Ca4 O9 2.559219 1_554
Ca4 O13 2.670122 1_555
Ca4 O14 2.804397 1_555
Ca5 O11 2.335243 1_555
Ca5 O20 2.376662 1_555
Ca5 O19 2.386833 1_555
Ca5 O18 2.416736 1_555
Ca5 O15 2.509667 1_555
Ca5 O17 2.522428 1_555
Ca5 O12 2.714803 1_555
Ca6 O21 2.329700 1_555
Ca6 O12 2.364246 1_555
Ca6 O13 2.471736 1_555
Ca6 O16 2.486175 1_465
Ca6 O14 2.515323 1_565
Ca6 O20 2.569923 1_555
Ca7 O16 2.329700 1_555
Ca7 O3 2.364246 1_655
Ca7 O1 2.471736 1_555
Ca7 O21 2.486175 1_545
Ca7 O2 2.515323 1_545
Ca7 O17 2.569923 1_555
Mn0 O19 1.899632 1_555
Mn0 O3 1.939893 1_555
Mn0 O1 1.966802 1_555
Mn0 O0 1.973303 1_555
Mn0 O21 1.979618 1_545
Mn0 O17 1.984482 1_555
Mn1 O0 1.914631 1_555
Mn1 O21 1.926717 1_555
Mn1 O2 1.966663 1_555
Mn1 O18 1.966965 1_555
Mn1 O20 1.999950 1_555
Mn2 O5 1.918697 1_655
Mn2 O4 1.924018 1_555
Mn2 O9 1.975907 1_655
Mn2 O2 1.983578 1_555
Mn2 O7 1.991316 1_556
Mn3 O8 1.896538 1_555
Mn3 O3 1.928151 1_555
Mn3 O4 1.957670 1_455
Mn3 O5 1.977016 1_545
Mn3 O1 1.981257 1_455
Mn3 O6 2.020829 1_456
Mn4 O7 1.896538 1_555
Mn4 O12 1.928151 1_555
Mn4 O11 1.957670 1_555
Mn4 O10 1.977016 1_565
Mn4 O13 1.981257 1_555
Mn4 O9 2.020829 1_554
Mn5 O10 1.918697 1_555
Mn5 O11 1.924018 1_555
Mn5 O6 1.975907 1_555
Mn5 O14 1.983578 1_555
Mn5 O8 1.991316 1_554
Mn6 O18 1.899632 1_555
Mn6 O12 1.939893 1_555
Mn6 O13 1.966802 1_655
Mn6 O15 1.973303 1_555
Mn6 O16 1.979618 1_565
Mn6 O20 1.984482 1_655
Mn7 O15 1.914631 1_455
Mn7 O16 1.926717 1_455
Mn7 O14 1.966663 1_555
Mn7 O19 1.966965 1_555
Mn7 O17 1.999950 1_455
