# generated using pymatgen
data_NdNi4B
_symmetry_space_group_name_H-M   'P 1'
_cell_length_a   13.78365298
_cell_length_b   13.78365298
_cell_length_c   13.78365298
_cell_angle_alpha   158.91962202
_cell_angle_beta   150.81140492
_cell_angle_gamma   36.28377094
_symmetry_Int_Tables_number   1
_chemical_formula_structural   NdNi4B
_chemical_formula_sum   'Nd6 Ni24 B6'
_cell_volume   458.81323007
_cell_formula_units_Z   6
loop_
 _symmetry_equiv_pos_site_id
 _symmetry_equiv_pos_as_xyz
  1  'x, y, z'
loop_
 _atom_site_type_symbol
 _atom_site_label
 _atom_site_symmetry_multiplicity
 _atom_site_fract_x
 _atom_site_fract_y
 _atom_site_fract_z
 _atom_site_occupancy
  Nd  Nd0  1  0.08069100  0.33069100  0.75000000  1
  Nd  Nd1  1  0.24043400  0.99043400  0.25000000  1
  Nd  Nd2  1  0.41447800  0.66447800  0.75000000  1
  Nd  Nd3  1  0.75956600  0.00956600  0.75000000  1
  Nd  Nd4  1  0.91930900  0.66930900  0.25000000  1
  Nd  Nd5  1  0.58552200  0.33552200  0.25000000  1
  Ni  Ni0  1  0.13425000  0.82925900  0.80228100  1
  Ni  Ni1  1  0.78805600  0.83278300  0.95527300  1
  Ni  Ni2  1  0.81348100  0.56348100  0.25000000  1
  Ni  Ni3  1  0.70650900  0.50000000  0.70650900  1
  Ni  Ni4  1  0.37751000  0.83278300  0.54472700  1
  Ni  Ni5  1  0.29349100  0.00000000  0.79349100  1
  Ni  Ni6  1  0.47302200  0.66803000  0.30228100  1
  Ni  Ni7  1  0.86288400  0.11288400  0.75000000  1
  Ni  Ni8  1  0.02737300  0.77737300  0.25000000  1
  Ni  Ni9  1  0.62249000  0.16721700  0.45527300  1
  Ni  Ni10  1  0.52697800  0.33197000  0.69771900  1
  Ni  Ni11  1  0.13711600  0.88711600  0.25000000  1
  Ni  Ni12  1  0.00000000  0.50000000  0.50000000  1
  Ni  Ni13  1  0.21194400  0.16721700  0.04472700  1
  Ni  Ni14  1  0.47302200  0.17074100  0.80499100  1
  Ni  Ni15  1  0.86575000  0.17074100  0.19771900  1
  Ni  Ni16  1  0.52697800  0.82925900  0.19500900  1
  Ni  Ni17  1  0.13425000  0.33197000  0.30499100  1
  Ni  Ni18  1  0.86575000  0.66803000  0.69500900  1
  Ni  Ni19  1  0.18651900  0.43651900  0.75000000  1
  Ni  Ni20  1  0.70650900  0.00000000  0.20650900  1
  Ni  Ni21  1  0.29349100  0.50000000  0.29349100  1
  Ni  Ni22  1  0.50000000  0.50000000  0.00000000  1
  Ni  Ni23  1  0.97262700  0.22262700  0.75000000  1
  B  B0  1  0.29574900  0.54574900  0.75000000  1
  B  B1  1  0.35911500  0.10911500  0.25000000  1
  B  B2  1  0.64088500  0.89088500  0.75000000  1
  B  B3  1  0.70425100  0.45425100  0.25000000  1
  B  B4  1  0.47138600  0.22138600  0.25000000  1
  B  B5  1  0.52861400  0.77861400  0.75000000  1
loop_
_geom_bond_atom_site_label_1
_geom_bond_atom_site_label_2
_geom_bond_distance
_geom_bond_site_symmetry_2
Nd0 Ni19 2.772364 1_555
Nd0 Ni23 2.830941 1_455
Nd0 Ni8 2.882412 1_545
Nd0 Ni8 2.882412 1_556
Nd0 Ni11 2.922721 1_556
Nd0 Ni11 2.922721 1_545
Nd1 Ni11 2.706610 1_555
Nd1 Ni19 2.890023 1_565
Nd1 Ni19 2.890023 1_554
Nd1 Ni16 3.008018 1_555
Nd1 Ni0 3.008018 1_554
Nd1 Ni10 3.008028 1_565
Nd1 Ni17 3.008031 1_565
Nd1 Ni22 3.071769 1_555
Nd1 Ni22 3.071769 1_566
Nd1 Ni12 3.071769 1_554
Nd1 Ni12 3.071769 1_565
Nd1 Ni15 3.085321 1_465
Nd1 Ni14 3.085321 1_565
Nd1 Ni18 3.085328 1_454
Nd1 Ni6 3.085333 1_555
Nd2 Ni10 2.873890 1_555
Nd2 Ni17 2.873893 1_555
Nd2 Ni0 2.873903 1_555
Nd2 Ni16 2.873903 1_556
Nd2 Ni13 2.897516 1_566
Nd2 Ni9 2.897516 1_566
Nd2 Ni9 2.897516 1_555
Nd2 Ni13 2.897516 1_555
Nd2 Ni20 2.943882 1_566
Nd2 Ni5 2.943882 1_565
Nd2 Ni21 2.943882 1_555
Nd2 Ni3 2.943882 1_555
Nd3 Ni7 2.706610 1_555
Nd3 Ni2 2.890023 1_556
Nd3 Ni2 2.890023 1_545
Nd3 Ni15 3.008018 1_556
Nd3 Ni14 3.008018 1_555
Nd3 Ni6 3.008028 1_545
Nd3 Ni18 3.008031 1_545
Nd3 Ni12 3.071769 1_645
Nd3 Ni22 3.071769 1_556
Nd3 Ni12 3.071769 1_656
Nd3 Ni22 3.071769 1_545
Nd3 Ni16 3.085321 1_545
Nd3 Ni0 3.085321 1_645
Nd3 Ni17 3.085328 1_656
Nd3 Ni10 3.085333 1_555
Nd4 Ni2 2.772364 1_555
Nd4 Ni8 2.830941 1_655
Nd4 Ni23 2.882412 1_554
Nd4 Ni23 2.882412 1_565
Nd4 Ni7 2.922721 1_565
Nd4 Ni7 2.922721 1_554
Nd5 Ni6 2.873890 1_555
Nd5 Ni18 2.873893 1_555
Nd5 Ni14 2.873903 1_554
Nd5 Ni15 2.873903 1_555
Nd5 Ni1 2.897516 1_555
Nd5 Ni4 2.897516 1_555
Nd5 Ni4 2.897516 1_544
Nd5 Ni1 2.897516 1_544
Nd5 Ni3 2.943882 1_555
Nd5 Ni21 2.943882 1_555
Nd5 Ni5 2.943882 1_554
Nd5 Ni20 2.943882 1_555
Ni0 Ni2 2.494393 1_455
Ni0 Ni7 2.601857 1_465
Ni1 Ni11 2.493416 1_656
Ni1 Ni8 2.509629 1_656
Ni2 Ni22 2.404414 1_555
Ni2 Ni7 2.834133 1_554
Ni2 Ni7 2.834133 1_565
Ni3 Ni8 2.501930 1_656
Ni4 Ni8 2.509629 1_555
Ni5 Ni8 2.501930 1_545
Ni7 Ni9 2.493416 1_555
Ni10 Ni2 2.494397 1_556
Ni10 Ni7 2.601857 1_555
Ni11 Ni4 2.493416 1_555
Ni11 Ni18 2.601852 1_454
Ni11 Ni6 2.601857 1_555
Ni11 Ni14 2.601857 1_565
Ni11 Ni15 2.601857 1_465
Ni11 Ni19 2.834133 1_554
Ni11 Ni19 2.834133 1_565
Ni11 Ni8 2.874925 1_555
Ni12 Ni19 2.404414 1_555
Ni12 Ni2 2.404414 1_455
Ni13 Ni7 2.493416 1_454
Ni13 Ni23 2.509629 1_454
Ni14 Ni19 2.494393 1_555
Ni15 Ni19 2.494393 1_655
Ni16 Ni2 2.494393 1_555
Ni16 Ni7 2.601857 1_565
Ni17 Ni2 2.494392 1_455
Ni17 Ni7 2.601852 1_454
Ni18 Ni19 2.494392 1_655
Ni19 Ni22 2.404414 1_556
Ni19 Ni6 2.494397 1_556
Ni20 Ni8 2.501930 1_645
Ni20 Ni23 2.501930 1_555
Ni21 Ni8 2.501930 1_555
Ni21 Ni23 2.501930 1_454
Ni23 Ni3 2.501930 1_555
Ni23 Ni5 2.501930 1_655
Ni23 Ni9 2.509629 1_555
Ni23 Ni7 2.874925 1_555
B0 Ni16 2.065631 1_556
B0 Ni0 2.065631 1_555
B0 Ni10 2.065633 1_555
B0 Ni17 2.065638 1_555
B0 Ni22 2.109971 1_556
B0 Ni12 2.109971 1_555
B0 Nd1 2.908123 1_545
B0 Nd1 2.908123 1_556
B1 Ni10 2.006120 1_555
B1 Ni17 2.006124 1_555
B1 Ni0 2.006125 1_544
B1 Ni16 2.006125 1_545
B1 Ni9 2.085635 1_555
B1 Ni13 2.085635 1_555
B1 Nd2 2.908749 1_544
B1 Nd2 2.908749 1_555
B1 Nd1 3.109073 1_545
B2 Ni6 2.006120 1_555
B2 Ni18 2.006124 1_555
B2 Ni14 2.006125 1_565
B2 Ni15 2.006125 1_566
B2 Ni1 2.085635 1_555
B2 Ni4 2.085635 1_555
B2 Nd5 2.908749 1_566
B2 Nd5 2.908749 1_555
B2 Nd3 3.109073 1_565
B3 Ni15 2.065631 1_555
B3 Ni14 2.065631 1_554
B3 Ni6 2.065633 1_555
B3 Ni18 2.065638 1_555
B3 Ni12 2.109971 1_655
B3 Ni22 2.109971 1_555
B3 Nd3 2.908123 1_554
B3 Nd3 2.908123 1_565
B4 Ni13 2.011675 1_555
B4 Ni9 2.011675 1_555
B4 Ni20 2.051560 1_555
B4 Ni3 2.051560 1_555
B4 Ni21 2.051560 1_555
B4 Ni5 2.051560 1_554
B4 Nd2 2.929141 1_555
B4 Nd2 2.929141 1_544
B4 Nd5 2.990008 1_555
B5 Ni4 2.011675 1_555
B5 Ni1 2.011675 1_555
B5 Ni3 2.051560 1_555
B5 Ni21 2.051560 1_555
B5 Ni20 2.051560 1_566
B5 Ni5 2.051560 1_565
B5 Nd5 2.929141 1_555
B5 Nd5 2.929141 1_566
B5 Nd2 2.990008 1_555
