# generated using pymatgen
data_Sr2Pr2MnCuO8
_symmetry_space_group_name_H-M   'P 1'
_cell_length_a   7.04384039
_cell_length_b   7.04384039
_cell_length_c   16.17483331
_cell_angle_alpha   73.42046355
_cell_angle_beta   73.42046355
_cell_angle_gamma   31.36878319
_symmetry_Int_Tables_number   1
_chemical_formula_structural   Sr2Pr2MnCuO8
_chemical_formula_sum   'Sr4 Pr4 Mn2 Cu2 O16'
_cell_volume   398.98052888
_cell_formula_units_Z   2
loop_
 _symmetry_equiv_pos_site_id
 _symmetry_equiv_pos_as_xyz
  1  'x, y, z'
loop_
 _atom_site_type_symbol
 _atom_site_label
 _atom_site_symmetry_multiplicity
 _atom_site_fract_x
 _atom_site_fract_y
 _atom_site_fract_z
 _atom_site_occupancy
  Sr  Sr0  1  0.36495600  0.36495600  0.25911900  1
  Sr  Sr1  1  0.64087900  0.64087900  0.20812100  1
  Sr  Sr2  1  0.35912100  0.35912100  0.79187900  1
  Sr  Sr3  1  0.63504400  0.63504400  0.74088100  1
  Pr  Pr0  1  0.82642700  0.82642700  0.55241400  1
  Pr  Pr1  1  0.64162000  0.64162000  0.96851500  1
  Pr  Pr2  1  0.17357300  0.17357300  0.44758600  1
  Pr  Pr3  1  0.35838000  0.35838000  0.03148500  1
  Mn  Mn0  1  0.00234700  0.00234700  0.63859400  1
  Mn  Mn1  1  0.99765300  0.99765300  0.36140600  1
  Cu  Cu0  1  0.00082200  0.00082200  0.88171900  1
  Cu  Cu1  1  0.99917800  0.99917800  0.11828100  1
  O  O0  1  0.16572900  0.16572900  0.85472500  1
  O  O1  1  0.22453800  0.22453800  0.58104400  1
  O  O2  1  0.16579800  0.16579800  0.30684100  1
  O  O3  1  0.17319300  0.17319300  0.06716000  1
  O  O4  1  0.49930100  0.49930100  0.88869800  1
  O  O5  1  0.52941500  0.52941500  0.63162900  1
  O  O6  1  0.47058500  0.47058500  0.36837100  1
  O  O7  1  0.50069900  0.50069900  0.11130200  1
  O  O8  1  0.83420200  0.83420200  0.69315900  1
  O  O9  1  0.77546200  0.77546200  0.41895600  1
  O  O10  1  0.83427100  0.83427100  0.14527500  1
  O  O11  1  0.82680700  0.82680700  0.93284000  1
  O  O12  1  0.01059800  0.01059800  0.75704300  1
  O  O13  1  0.00000000  0.00000000  0.50000000  1
  O  O14  1  0.98940200  0.98940200  0.24295700  1
  O  O15  1  0.00000000  0.00000000  0.00000000  1
loop_
_geom_bond_atom_site_label_1
_geom_bond_atom_site_label_2
_geom_bond_distance
_geom_bond_site_symmetry_2
Mn0 O5 1.936235 1_455
Mn0 O5 1.936235 1_545
Mn0 O12 1.951989 1_555
Mn0 O8 2.187888 1_445
Mn0 O13 2.251375 1_555
Mn1 O6 1.936235 1_565
Mn1 O6 1.936235 1_655
Mn1 O14 1.951989 1_555
Mn1 O2 2.187888 1_665
Mn1 O13 2.251375 1_665
Cu0 O4 1.907312 1_545
Cu0 O4 1.907312 1_455
Cu0 O15 1.909901 1_556
Cu0 O12 1.981366 1_555
Cu0 O0 2.148113 1_555
Cu0 O11 2.257739 1_445
Cu1 O7 1.907312 1_565
Cu1 O7 1.907312 1_655
Cu1 O15 1.909901 1_665
Cu1 O14 1.981366 1_555
Cu1 O10 2.148113 1_555
Cu1 O3 2.257739 1_665
O0 Sr2 2.516534 1_555
O0 Pr1 2.600729 1_455
O0 Pr1 2.600729 1_545
O0 Sr3 2.764836 1_545
O0 Sr3 2.764836 1_455
O1 Pr0 2.317520 1_545
O1 Pr0 2.317520 1_455
O1 Pr2 2.454004 1_555
O1 Sr3 3.150112 1_455
O1 Sr3 3.150112 1_545
O2 Pr2 2.309978 1_555
O2 Sr1 2.570970 1_545
O2 Sr1 2.570970 1_455
O2 Sr0 2.579999 1_555
O3 Pr3 2.404696 1_555
O3 Pr1 2.600053 1_454
O3 Pr1 2.600053 1_544
O3 Sr1 2.902463 1_545
O3 Sr1 2.902463 1_455
O4 Pr3 2.524001 1_556
O4 Sr3 2.548888 1_555
O4 Pr1 2.621064 1_555
O4 Sr2 2.798616 1_555
O5 Sr3 2.583790 1_555
O5 Sr2 2.916262 1_555
O6 Sr0 2.583790 1_555
O6 Sr1 2.916262 1_555
O7 Pr1 2.524001 1_554
O7 Sr0 2.548888 1_555
O7 Pr3 2.621064 1_555
O7 Sr1 2.798616 1_555
O8 Pr0 2.309978 1_555
O8 Sr2 2.570970 1_565
O8 Sr2 2.570970 1_655
O8 Sr3 2.579999 1_555
O9 Pr2 2.317520 1_565
O9 Pr2 2.317520 1_655
O9 Pr0 2.454004 1_555
O9 Sr0 3.150112 1_565
O9 Sr0 3.150112 1_655
O10 Sr1 2.516534 1_555
O10 Pr3 2.600729 1_565
O10 Pr3 2.600729 1_655
O10 Sr0 2.764836 1_565
O10 Sr0 2.764836 1_655
O11 Pr1 2.404696 1_555
O11 Pr3 2.600053 1_656
O11 Pr3 2.600053 1_566
O11 Sr2 2.902463 1_565
O11 Sr2 2.902463 1_655
O12 Sr3 2.506346 1_455
O12 Sr3 2.506346 1_545
O12 Sr2 2.734651 1_545
O12 Sr2 2.734651 1_455
O13 Pr2 2.253420 1_555
O13 Pr0 2.253420 1_445
O14 Sr0 2.506346 1_565
O14 Sr0 2.506346 1_655
O14 Sr1 2.734651 1_655
O14 Sr1 2.734651 1_565
O15 Pr3 2.644820 1_455
O15 Pr3 2.644820 1_545
O15 Pr1 2.644820 1_544
O15 Pr1 2.644820 1_454
