# generated using pymatgen
data_Ca4Al3O10
_symmetry_space_group_name_H-M   'P 1'
_cell_length_a   7.59322000
_cell_length_b   7.79728301
_cell_length_c   8.53042125
_cell_angle_alpha   76.93288997
_cell_angle_beta   76.00129223
_cell_angle_gamma   83.35294783
_symmetry_Int_Tables_number   1
_chemical_formula_structural   Ca4Al3O10
_chemical_formula_sum   'Ca8 Al6 O20'
_cell_volume   476.36991787
_cell_formula_units_Z   2
loop_
 _symmetry_equiv_pos_site_id
 _symmetry_equiv_pos_as_xyz
  1  'x, y, z'
loop_
 _atom_site_type_symbol
 _atom_site_label
 _atom_site_symmetry_multiplicity
 _atom_site_fract_x
 _atom_site_fract_y
 _atom_site_fract_z
 _atom_site_occupancy
  Ca  Ca0  1  0.38733600  0.81562100  0.48708800  1
  Ca  Ca1  1  0.54668700  0.81163300  0.90728500  1
  Ca  Ca2  1  0.80807700  0.74237700  0.54224400  1
  Ca  Ca3  1  0.02732100  0.80201200  0.89923400  1
  Ca  Ca4  1  0.97267900  0.19798800  0.10076600  1
  Ca  Ca5  1  0.19192300  0.25762300  0.45775600  1
  Ca  Ca6  1  0.45331300  0.18836700  0.09271500  1
  Ca  Ca7  1  0.61266400  0.18437900  0.51291200  1
  Al  Al0  1  0.75081500  0.83903300  0.20317400  1
  Al  Al1  1  0.21094700  0.87473700  0.18319900  1
  Al  Al2  1  0.59895700  0.54399400  0.23380300  1
  Al  Al3  1  0.24918500  0.16096700  0.79682600  1
  Al  Al4  1  0.40104300  0.45600600  0.76619700  1
  Al  Al5  1  0.78905300  0.12526300  0.81680100  1
  O  O0  1  0.20129400  0.05073900  0.28879500  1
  O  O1  1  0.27375000  0.97217800  0.96717700  1
  O  O2  1  0.66205300  0.96845300  0.36426900  1
  O  O3  1  0.54254200  0.63501300  0.73669100  1
  O  O4  1  0.99059000  0.82473900  0.19047400  1
  O  O5  1  0.39767800  0.72662600  0.21347500  1
  O  O6  1  0.92756100  0.44928100  0.52433600  1
  O  O7  1  0.75080000  0.67893100  0.05929700  1
  O  O8  1  0.23591500  0.65344400  0.73421000  1
  O  O9  1  0.34328100  0.34703400  0.62220600  1
  O  O10  1  0.65671900  0.65296600  0.37779400  1
  O  O11  1  0.76408500  0.34655600  0.26579000  1
  O  O12  1  0.24920000  0.32106900  0.94070300  1
  O  O13  1  0.07243900  0.55071900  0.47566400  1
  O  O14  1  0.60232200  0.27337400  0.78652500  1
  O  O15  1  0.00941000  0.17526100  0.80952600  1
  O  O16  1  0.45745800  0.36498700  0.26330900  1
  O  O17  1  0.33794700  0.03154700  0.63573100  1
  O  O18  1  0.72625000  0.02782200  0.03282300  1
  O  O19  1  0.79870600  0.94926100  0.71120500  1
loop_
_geom_bond_atom_site_label_1
_geom_bond_atom_site_label_2
_geom_bond_distance
_geom_bond_site_symmetry_2
Ca0 O17 2.274240 1_565
Ca0 O8 2.307272 1_555
Ca0 O10 2.381849 1_555
Ca0 O2 2.413024 1_555
Ca0 O5 2.562516 1_555
Ca0 O0 2.715150 1_565
Ca0 O3 2.716535 1_555
Ca1 O3 2.225687 1_555
Ca1 O7 2.269052 1_556
Ca1 O1 2.302070 1_555
Ca1 O19 2.393019 1_555
Ca1 O5 2.550042 1_556
Ca1 O18 2.811076 1_566
Ca2 O10 2.276528 1_555
Ca2 O19 2.379029 1_555
Ca2 O3 2.379562 1_555
Ca2 O6 2.383298 1_555
Ca2 O13 2.392295 1_655
Ca2 O2 2.406971 1_555
Ca2 O4 2.942825 1_555
Ca3 O8 2.250839 1_555
Ca3 O7 2.383480 1_456
Ca3 O4 2.476659 1_456
Ca3 O19 2.637670 1_455
Ca3 O1 2.654231 1_555
Ca3 O15 2.832977 1_565
Ca3 O18 2.887907 1_466
Ca4 O11 2.250839 1_555
Ca4 O12 2.383480 1_654
Ca4 O15 2.476659 1_654
Ca4 O0 2.637670 1_655
Ca4 O18 2.654231 1_555
Ca4 O4 2.832977 1_545
Ca4 O1 2.887907 1_644
Ca5 O9 2.276528 1_555
Ca5 O0 2.379029 1_555
Ca5 O16 2.379562 1_555
Ca5 O13 2.383298 1_555
Ca5 O6 2.392295 1_455
Ca5 O17 2.406971 1_555
Ca5 O15 2.942825 1_555
Ca6 O16 2.225687 1_555
Ca6 O12 2.269052 1_554
Ca6 O18 2.302070 1_555
Ca6 O0 2.393019 1_555
Ca6 O14 2.550042 1_554
Ca6 O1 2.811076 1_544
Ca7 O2 2.274240 1_545
Ca7 O11 2.307272 1_555
Ca7 O9 2.381849 1_555
Ca7 O17 2.413024 1_555
Ca7 O14 2.562516 1_555
Ca7 O19 2.715150 1_545
Ca7 O16 2.716535 1_555
Al0 O4 1.789423 1_555
Al0 O2 1.839172 1_555
Al0 O18 1.847615 1_565
Al0 O10 1.892637 1_555
Al0 O7 1.938469 1_555
Al1 O4 1.745088 1_455
Al1 O5 1.753292 1_555
Al1 O0 1.789925 1_565
Al1 O1 1.796125 1_554
Al2 O16 1.795387 1_555
Al2 O10 1.800531 1_555
Al2 O7 1.842436 1_555
Al2 O11 1.882898 1_555
Al2 O5 1.976491 1_555
Al3 O15 1.789423 1_555
Al3 O17 1.839172 1_555
Al3 O1 1.847615 1_545
Al3 O9 1.892637 1_555
Al3 O12 1.938469 1_555
Al4 O3 1.795387 1_555
Al4 O9 1.800531 1_555
Al4 O12 1.842436 1_555
Al4 O8 1.882898 1_555
Al4 O14 1.976491 1_555
Al5 O15 1.745088 1_655
Al5 O14 1.753292 1_555
Al5 O19 1.789925 1_545
Al5 O18 1.796125 1_556
O13 O6 1.356516 1_455
