# generated using pymatgen
data_H4N2O3
_symmetry_space_group_name_H-M   'P 1'
_cell_length_a   6.46005800
_cell_length_b   6.69280300
_cell_length_c   7.42330300
_cell_angle_alpha   90.00000000
_cell_angle_beta   90.00000000
_cell_angle_gamma   90.00000000
_symmetry_Int_Tables_number   1
_chemical_formula_structural   H4N2O3
_chemical_formula_sum   'H16 N8 O12'
_cell_volume   320.95315324
_cell_formula_units_Z   4
loop_
 _symmetry_equiv_pos_site_id
 _symmetry_equiv_pos_as_xyz
  1  'x, y, z'
loop_
 _atom_site_type_symbol
 _atom_site_label
 _atom_site_symmetry_multiplicity
 _atom_site_fract_x
 _atom_site_fract_y
 _atom_site_fract_z
 _atom_site_occupancy
  H  H0  1  0.91943800  0.66430100  0.49557400  1
  H  H1  1  0.91943800  0.83569900  0.99557400  1
  H  H2  1  0.41943800  0.33569900  0.50442600  1
  H  H3  1  0.41943800  0.16430100  0.00442600  1
  H  H4  1  0.01303400  0.61177700  0.79397200  1
  H  H5  1  0.43127400  0.86280900  0.34902600  1
  H  H6  1  0.66495000  0.81625000  0.01675700  1
  H  H7  1  0.51303400  0.38822300  0.20602800  1
  H  H8  1  0.93127400  0.13719100  0.65097400  1
  H  H9  1  0.16495000  0.18375000  0.98324300  1
  H  H10  1  0.93127400  0.36280900  0.15097400  1
  H  H11  1  0.16495000  0.31625000  0.48324300  1
  H  H12  1  0.51303400  0.11177700  0.70602800  1
  H  H13  1  0.66495000  0.68375000  0.51675700  1
  H  H14  1  0.43127400  0.63719100  0.84902600  1
  H  H15  1  0.01303400  0.88822300  0.29397200  1
  N  N0  1  0.28381100  0.18097900  0.07573900  1
  N  N1  1  0.28381100  0.31902100  0.57573900  1
  N  N2  1  0.78381100  0.81902100  0.92426100  1
  N  N3  1  0.78381100  0.68097900  0.42426100  1
  N  N4  1  0.25845700  0.51223400  0.66564500  1
  N  N5  1  0.25845700  0.98776600  0.16564500  1
  N  N6  1  0.75845700  0.48776600  0.33435500  1
  N  N7  1  0.75845700  0.01223400  0.83435500  1
  O  O0  1  0.24819300  0.66988200  0.57346300  1
  O  O1  1  0.24819300  0.83011800  0.07346300  1
  O  O2  1  0.74819300  0.33011800  0.42653700  1
  O  O3  1  0.74819300  0.16988200  0.92653700  1
  O  O4  1  0.06923800  0.47544800  0.77560300  1
  O  O5  1  0.43618500  0.99616200  0.29215200  1
  O  O6  1  0.56923800  0.52455200  0.22439700  1
  O  O7  1  0.93618500  0.00383800  0.70784800  1
  O  O8  1  0.93618500  0.49616200  0.20784800  1
  O  O9  1  0.56923800  0.97544800  0.72439700  1
  O  O10  1  0.43618500  0.50383800  0.79215200  1
  O  O11  1  0.06923800  0.02455200  0.27560300  1
loop_
_geom_bond_atom_site_label_1
_geom_bond_atom_site_label_2
_geom_bond_distance
_geom_bond_site_symmetry_2
H0 N3 1.029735 1_555
H1 N2 1.029735 1_555
H2 N1 1.029735 1_555
H3 N0 1.029735 1_555
H4 O4 0.991432 1_555
H5 O5 0.987836 1_555
H6 N2 1.030238 1_554
H7 O6 0.991432 1_555
H8 O7 0.987836 1_555
H9 N0 1.030238 1_556
H10 O8 0.987836 1_555
H11 N1 1.030238 1_555
H12 O9 0.991432 1_545
H13 N3 1.030238 1_555
H14 O10 0.987836 1_555
H15 O11 0.991432 1_565
N0 N5 1.464394 1_545
N1 N4 1.464394 1_555
N2 N7 1.464394 1_565
N3 N6 1.464394 1_555
N4 O0 1.259328 1_555
N4 O10 1.484344 1_555
N4 O4 1.490322 1_555
N5 O1 1.259328 1_555
N5 O5 1.484344 1_555
N5 O11 1.490322 1_565
N6 O2 1.259328 1_555
N6 O8 1.484344 1_555
N6 O6 1.490322 1_555
N7 O3 1.259328 1_555
N7 O7 1.484344 1_555
N7 O9 1.490322 1_545
