# generated using pymatgen
data_Sr4Fe4O11
_symmetry_space_group_name_H-M   'P 1'
_cell_length_a   5.59350400
_cell_length_b   7.86015200
_cell_length_c   11.13613700
_cell_angle_alpha   90.00000000
_cell_angle_beta   90.00000000
_cell_angle_gamma   90.00000000
_symmetry_Int_Tables_number   1
_chemical_formula_structural   Sr4Fe4O11
_chemical_formula_sum   'Sr8 Fe8 O22'
_cell_volume   489.60907916
_cell_formula_units_Z   2
loop_
 _symmetry_equiv_pos_site_id
 _symmetry_equiv_pos_as_xyz
  1  'x, y, z'
loop_
 _atom_site_type_symbol
 _atom_site_label
 _atom_site_symmetry_multiplicity
 _atom_site_fract_x
 _atom_site_fract_y
 _atom_site_fract_z
 _atom_site_occupancy
  Sr  Sr0  1  0.25790000  0.24155800  0.62779300  1
  Sr  Sr1  1  0.74210000  0.75844200  0.37220700  1
  Sr  Sr2  1  0.74210000  0.24155800  0.37220700  1
  Sr  Sr3  1  0.24210000  0.25844200  0.12779300  1
  Sr  Sr4  1  0.24210000  0.74155800  0.12779300  1
  Sr  Sr5  1  0.75790000  0.74155800  0.87220700  1
  Sr  Sr6  1  0.75790000  0.25844200  0.87220700  1
  Sr  Sr7  1  0.25790000  0.75844200  0.62779300  1
  Fe  Fe0  1  0.75245900  0.00000000  0.62203300  1
  Fe  Fe1  1  0.73022700  0.50000000  0.63347100  1
  Fe  Fe2  1  0.24754100  0.00000000  0.37796700  1
  Fe  Fe3  1  0.26977300  0.50000000  0.36652900  1
  Fe  Fe4  1  0.74754100  0.50000000  0.12203300  1
  Fe  Fe5  1  0.76977300  0.00000000  0.13347100  1
  Fe  Fe6  1  0.23022700  0.00000000  0.86652900  1
  Fe  Fe7  1  0.25245900  0.50000000  0.87796700  1
  O  O0  1  0.76978300  0.73832800  0.61285600  1
  O  O1  1  0.50000000  0.50000000  0.50000000  1
  O  O2  1  0.23021700  0.73832800  0.38714400  1
  O  O3  1  0.50000000  0.00000000  0.50000000  1
  O  O4  1  0.48758100  0.00000000  0.24271800  1
  O  O5  1  0.00000000  0.00000000  0.50000000  1
  O  O6  1  0.00137800  0.00000000  0.25536200  1
  O  O7  1  0.23021700  0.26167200  0.38714400  1
  O  O8  1  0.73021700  0.23832800  0.11285600  1
  O  O9  1  0.98758100  0.50000000  0.25728200  1
  O  O10  1  0.50137800  0.50000000  0.24463800  1
  O  O11  1  0.00000000  0.50000000  0.00000000  1
  O  O12  1  0.50000000  0.50000000  0.00000000  1
  O  O13  1  0.73021700  0.76167200  0.11285600  1
  O  O14  1  0.26978300  0.76167200  0.88714400  1
  O  O15  1  0.51241900  0.00000000  0.75728200  1
  O  O16  1  0.00000000  0.00000000  0.00000000  1
  O  O17  1  0.99862200  0.00000000  0.74463800  1
  O  O18  1  0.26978300  0.23832800  0.88714400  1
  O  O19  1  0.01241900  0.50000000  0.74271800  1
  O  O20  1  0.76978300  0.26167200  0.61285600  1
  O  O21  1  0.49862200  0.50000000  0.75536200  1
loop_
_geom_bond_atom_site_label_1
_geom_bond_atom_site_label_2
_geom_bond_distance
_geom_bond_site_symmetry_2
Fe0 O17 1.939088 1_555
Fe0 O5 1.940101 1_655
Fe0 O3 1.959829 1_555
Fe0 O15 2.017732 1_555
Fe0 O0 2.061598 1_545
Fe0 O20 2.061598 1_555
Fe1 O21 1.876379 1_555
Fe1 O20 1.900234 1_555
Fe1 O0 1.900234 1_555
Fe1 O1 1.966623 1_555
Fe1 O19 1.992880 1_655
Fe2 O6 1.939088 1_555
Fe2 O5 1.940101 1_555
Fe2 O3 1.959829 1_555
Fe2 O4 2.017732 1_555
Fe2 O7 2.061598 1_555
Fe2 O2 2.061598 1_545
Fe3 O10 1.876379 1_555
Fe3 O7 1.900234 1_555
Fe3 O2 1.900234 1_555
Fe3 O1 1.966623 1_555
Fe3 O9 1.992880 1_455
Fe4 O10 1.939088 1_555
Fe4 O12 1.940101 1_555
Fe4 O11 1.959829 1_655
Fe4 O9 2.017732 1_555
Fe4 O8 2.061598 1_555
Fe4 O13 2.061598 1_555
Fe5 O6 1.876379 1_655
Fe5 O13 1.900234 1_545
Fe5 O8 1.900234 1_555
Fe5 O16 1.966623 1_655
Fe5 O4 1.992880 1_555
Fe6 O17 1.876379 1_455
Fe6 O14 1.900234 1_545
Fe6 O18 1.900234 1_555
Fe6 O16 1.966623 1_556
Fe6 O15 1.992880 1_555
Fe7 O21 1.939088 1_555
Fe7 O12 1.940101 1_556
Fe7 O11 1.959829 1_556
Fe7 O19 2.017732 1_555
Fe7 O18 2.061598 1_555
Fe7 O14 2.061598 1_555
O0 Sr1 2.689022 1_555
O0 Sr7 2.739912 1_655
O0 Sr7 2.872402 1_555
O0 Sr5 2.889045 1_555
O1 Sr1 2.825890 1_555
O1 Sr7 2.825890 1_555
O1 Sr2 2.825890 1_555
O1 Sr0 2.825890 1_555
O2 Sr7 2.689022 1_555
O2 Sr1 2.739912 1_455
O2 Sr1 2.872402 1_555
O2 Sr4 2.889045 1_555
O3 Sr2 2.732049 1_555
O3 Sr1 2.732049 1_545
O3 Sr0 2.732049 1_555
O3 Sr7 2.732049 1_545
O4 Sr4 2.765845 1_545
O4 Sr3 2.765845 1_555
O4 Sr2 2.776899 1_555
O4 Sr1 2.776899 1_545
O5 Sr2 2.776916 1_455
O5 Sr0 2.776916 1_555
O5 Sr7 2.776916 1_545
O5 Sr1 2.776916 1_445
O6 Sr2 2.720554 1_455
O6 Sr1 2.720554 1_445
O6 Sr4 2.820947 1_545
O6 Sr3 2.820947 1_555
O7 Sr0 2.689022 1_555
O7 Sr2 2.739912 1_455
O7 Sr2 2.872402 1_555
O7 Sr3 2.889045 1_555
O8 Sr6 2.689022 1_554
O8 Sr3 2.739912 1_555
O8 Sr3 2.872402 1_655
O8 Sr2 2.889045 1_555
O9 Sr1 2.765845 1_555
O9 Sr2 2.765845 1_555
O9 Sr3 2.776899 1_655
O9 Sr4 2.776899 1_655
O10 Sr3 2.720554 1_555
O10 Sr4 2.720554 1_555
O10 Sr2 2.820947 1_555
O10 Sr1 2.820947 1_555
O11 Sr6 2.732049 1_454
O11 Sr3 2.732049 1_555
O11 Sr4 2.732049 1_555
O11 Sr5 2.732049 1_454
O12 Sr3 2.776916 1_555
O12 Sr6 2.776916 1_554
O12 Sr4 2.776916 1_555
O12 Sr5 2.776916 1_554
O13 Sr5 2.689022 1_554
O13 Sr4 2.739912 1_555
O13 Sr4 2.872402 1_655
O13 Sr1 2.889045 1_555
O14 Sr4 2.689022 1_556
O14 Sr5 2.739912 1_555
O14 Sr5 2.872402 1_455
O14 Sr7 2.889045 1_555
O15 Sr5 2.765845 1_545
O15 Sr6 2.765845 1_555
O15 Sr0 2.776899 1_555
O15 Sr7 2.776899 1_545
O16 Sr5 2.825890 1_444
O16 Sr4 2.825890 1_545
O16 Sr6 2.825890 1_454
O16 Sr3 2.825890 1_555
O17 Sr0 2.720554 1_655
O17 Sr7 2.720554 1_645
O17 Sr6 2.820947 1_555
O17 Sr5 2.820947 1_545
O18 Sr3 2.689022 1_556
O18 Sr6 2.739912 1_555
O18 Sr6 2.872402 1_455
O18 Sr0 2.889045 1_555
O19 Sr7 2.765845 1_555
O19 Sr0 2.765845 1_555
O19 Sr5 2.776899 1_455
O19 Sr6 2.776899 1_455
O20 Sr2 2.689022 1_555
O20 Sr0 2.739912 1_655
O20 Sr0 2.872402 1_555
O20 Sr6 2.889045 1_555
O21 Sr6 2.720554 1_555
O21 Sr5 2.720554 1_555
O21 Sr0 2.820947 1_555
O21 Sr7 2.820947 1_555
