# generated using pymatgen
data_BaFe(Si2O5)2
_symmetry_space_group_name_H-M   'P 1'
_cell_length_a   10.88788597
_cell_length_b   10.88786546
_cell_length_c   11.13715230
_cell_angle_alpha   60.73805768
_cell_angle_beta   119.26190499
_cell_angle_gamma   89.99986976
_symmetry_Int_Tables_number   1
_chemical_formula_structural   BaFe(Si2O5)2
_chemical_formula_sum   'Ba4 Fe4 Si16 O40'
_cell_volume   954.01457980
_cell_formula_units_Z   4
loop_
 _symmetry_equiv_pos_site_id
 _symmetry_equiv_pos_as_xyz
  1  'x, y, z'
loop_
 _atom_site_type_symbol
 _atom_site_label
 _atom_site_symmetry_multiplicity
 _atom_site_fract_x
 _atom_site_fract_y
 _atom_site_fract_z
 _atom_site_occupancy
  Ba  Ba0  1  0.99999800  0.25000000  0.00000400  1
  Ba  Ba1  1  0.49999800  0.75000000  0.00000400  1
  Ba  Ba2  1  0.99999900  0.74999600  0.00000200  1
  Ba  Ba3  1  0.49999900  0.24999600  0.00000200  1
  Fe  Fe0  1  0.15985700  0.09014100  0.81971700  1
  Fe  Fe1  1  0.34014500  0.40985400  0.18028600  1
  Fe  Fe2  1  0.65986300  0.59013400  0.81973100  1
  Fe  Fe3  1  0.84014100  0.90986200  0.18027300  1
  Si  Si0  1  0.11077400  0.34684600  0.30630600  1
  Si  Si1  1  0.61077300  0.84684600  0.30630700  1
  Si  Si2  1  0.38922400  0.15315600  0.69369100  1
  Si  Si3  1  0.88922400  0.65315600  0.69369100  1
  Si  Si4  1  0.69553800  0.34684500  0.30630800  1
  Si  Si5  1  0.19553800  0.84684500  0.30630800  1
  Si  Si6  1  0.90315500  0.55446600  0.30630700  1
  Si  Si7  1  0.40315500  0.05446700  0.30630600  1
  Si  Si8  1  0.59684400  0.94553800  0.69369100  1
  Si  Si9  1  0.09684500  0.44553700  0.69369200  1
  Si  Si10  1  0.59684400  0.36077400  0.69369200  1
  Si  Si11  1  0.09684500  0.86077300  0.69369300  1
  Si  Si12  1  0.80446500  0.15315400  0.69369300  1
  Si  Si13  1  0.30446400  0.65315400  0.69369300  1
  Si  Si14  1  0.90315700  0.13922600  0.30630900  1
  Si  Si15  1  0.40315600  0.63922700  0.30630800  1
  O  O0  1  0.00000500  0.00000200  0.50000000  1
  O  O1  1  0.50000500  0.50000200  0.50000200  1
  O  O2  1  0.75001000  0.24999700  0.50000400  1
  O  O3  1  0.25001000  0.74999700  0.50000300  1
  O  O4  1  0.50000200  0.00000200  0.49999900  1
  O  O5  1  0.00000200  0.50000400  0.49999800  1
  O  O6  1  0.25000000  0.24999800  0.49999800  1
  O  O7  1  0.75000000  0.74999800  0.49999800  1
  O  O8  1  0.52054200  0.41391600  0.17216400  1
  O  O9  1  0.02054000  0.91391700  0.17216300  1
  O  O10  1  0.16391800  0.27053900  0.82784500  1
  O  O11  1  0.66391500  0.77054100  0.82784000  1
  O  O12  1  0.33607900  0.22946500  0.17215100  1
  O  O13  1  0.83608100  0.72946300  0.17215400  1
  O  O14  1  0.16391700  0.90162100  0.82784200  1
  O  O15  1  0.66391900  0.40162100  0.82784400  1
  O  O16  1  0.33608600  0.59837500  0.17216300  1
  O  O17  1  0.83608500  0.09837500  0.17216000  1
  O  O18  1  0.15161500  0.41392400  0.17215000  1
  O  O19  1  0.65161800  0.91392200  0.17215300  1
  O  O20  1  0.34836800  0.08608500  0.82783300  1
  O  O21  1  0.84836800  0.58608400  0.82783400  1
  O  O22  1  0.97946100  0.08607400  0.82785600  1
  O  O23  1  0.47946000  0.58607500  0.82785300  1
  O  O24  1  0.76301900  0.24040000  0.27261500  1
  O  O25  1  0.26301900  0.74040000  0.27261700  1
  O  O26  1  0.73698600  0.01301400  0.72738400  1
  O  O27  1  0.23698600  0.51301500  0.72738300  1
  O  O28  1  0.00959900  0.24040100  0.27261200  1
  O  O29  1  0.50960000  0.74040100  0.27261300  1
  O  O30  1  0.73698000  0.25960100  0.72738200  1
  O  O31  1  0.23698000  0.75960100  0.72738100  1
  O  O32  1  0.00960000  0.48698400  0.27261400  1
  O  O33  1  0.50960100  0.98698300  0.27261500  1
  O  O34  1  0.76301900  0.48698400  0.27261700  1
  O  O35  1  0.26301900  0.98698300  0.27261700  1
  O  O36  1  0.49040100  0.01302100  0.72738400  1
  O  O37  1  0.99040000  0.51302200  0.72738300  1
  O  O38  1  0.49039600  0.25960300  0.72737900  1
  O  O39  1  0.99039500  0.75960300  0.72737800  1
loop_
_geom_bond_atom_site_label_1
_geom_bond_atom_site_label_2
_geom_bond_distance
_geom_bond_site_symmetry_2
Ba0 O28 2.935838 1_655
Ba0 O35 2.935982 1_645
Ba0 O30 2.935987 1_554
Ba0 O37 2.936012 1_554
Ba0 O17 3.136455 1_555
Ba0 O18 3.136468 1_655
Ba0 O22 3.136478 1_554
Ba0 O10 3.136523 1_654
Ba0 O15 3.136546 1_554
Ba0 O9 3.136568 1_645
Ba0 O12 3.136573 1_655
Ba0 O21 3.136585 1_554
Ba1 O29 2.935844 1_555
Ba1 O34 2.935977 1_555
Ba1 O31 2.935993 1_554
Ba1 O36 2.936006 1_564
Ba1 O16 3.136467 1_555
Ba1 O19 3.136477 1_555
Ba1 O23 3.136495 1_554
Ba1 O11 3.136538 1_554
Ba1 O14 3.136560 1_554
Ba1 O8 3.136572 1_555
Ba1 O13 3.136587 1_555
Ba1 O20 3.136592 1_564
Ba2 O32 2.935892 1_655
Ba2 O26 2.935951 1_564
Ba2 O39 2.935959 1_554
Ba2 O25 2.935981 1_655
Ba2 O13 3.136453 1_555
Ba2 O18 3.136490 1_655
Ba2 O22 3.136530 1_564
Ba2 O14 3.136530 1_654
Ba2 O21 3.136544 1_554
Ba2 O9 3.136545 1_655
Ba2 O11 3.136577 1_554
Ba2 O16 3.136619 1_655
Ba3 O33 2.935898 1_545
Ba3 O38 2.935953 1_554
Ba3 O27 2.935957 1_554
Ba3 O24 2.935969 1_555
Ba3 O12 3.136448 1_555
Ba3 O19 3.136509 1_545
Ba3 O15 3.136535 1_554
Ba3 O23 3.136537 1_554
Ba3 O8 3.136540 1_555
Ba3 O20 3.136541 1_554
Ba3 O10 3.136554 1_554
Ba3 O17 3.136617 1_555
Fe0 O20 2.009366 1_555
Fe0 O14 2.009413 1_545
Fe0 O10 2.009462 1_555
Fe0 O22 2.009507 1_455
Fe1 O12 2.009404 1_555
Fe1 O8 2.009421 1_555
Fe1 O16 2.009434 1_555
Fe1 O18 2.009469 1_555
Fe2 O21 2.009368 1_555
Fe2 O15 2.009399 1_555
Fe2 O11 2.009452 1_555
Fe2 O23 2.009486 1_555
Fe3 O9 2.009374 1_655
Fe3 O17 2.009399 1_565
Fe3 O13 2.009422 1_555
Fe3 O19 2.009475 1_555
O0 Si14 1.625617 1_455
O0 Si11 1.625644 1_545
O1 Si10 1.625623 1_555
O1 Si15 1.625638 1_555
O2 Si12 1.625629 1_555
O2 Si4 1.625642 1_555
O3 Si5 1.625632 1_555
O3 Si13 1.625642 1_555
O4 Si8 1.625630 1_545
O4 Si7 1.625636 1_555
O5 Si6 1.625627 1_455
O5 Si9 1.625639 1_555
O6 Si2 1.625630 1_555
O6 Si0 1.625630 1_555
O7 Si1 1.625627 1_555
O7 Si3 1.625630 1_555
O8 Si4 1.595684 1_555
O9 Si5 1.595702 1_555
O10 Si9 1.595710 1_555
O11 Si8 1.595696 1_555
O12 Si7 1.595713 1_555
O13 Si6 1.595702 1_555
O14 Si11 1.595687 1_555
O15 Si10 1.595708 1_555
O16 Si15 1.595682 1_555
O17 Si14 1.595711 1_555
O18 Si0 1.595697 1_555
O19 Si1 1.595710 1_555
O20 Si2 1.595685 1_555
O21 Si3 1.595695 1_555
O22 Si12 1.595712 1_555
O23 Si13 1.595707 1_555
O24 Si14 1.648785 1_555
O24 Si4 1.648785 1_555
O25 Si5 1.648767 1_555
O25 Si15 1.648788 1_555
O26 Si12 1.648797 1_555
O26 Si8 1.648798 1_545
O27 Si13 1.648782 1_555
O27 Si9 1.648801 1_555
O28 Si14 1.648781 1_455
O28 Si0 1.648799 1_555
O29 Si1 1.648787 1_555
O29 Si15 1.648788 1_555
O30 Si10 1.648786 1_555
O30 Si12 1.648792 1_555
O31 Si13 1.648777 1_555
O31 Si11 1.648783 1_555
O32 Si6 1.648792 1_455
O32 Si0 1.648796 1_555
O33 Si1 1.648775 1_555
O33 Si7 1.648795 1_565
O34 Si6 1.648781 1_555
O34 Si4 1.648800 1_555
O35 Si5 1.648791 1_555
O35 Si7 1.648794 1_565
O36 Si8 1.648780 1_545
O36 Si2 1.648781 1_555
O37 Si3 1.648773 1_555
O37 Si9 1.648793 1_655
O38 Si2 1.648783 1_555
O38 Si10 1.648783 1_555
O39 Si3 1.648774 1_555
O39 Si11 1.648789 1_655
