# generated using pymatgen
data_Sm25Ni49P33
_symmetry_space_group_name_H-M   'P 1'
_cell_length_a   22.05336001
_cell_length_b   22.06502777
_cell_length_c   3.89262559
_cell_angle_alpha   89.99985601
_cell_angle_beta   90.00003554
_cell_angle_gamma   119.99928704
_symmetry_Int_Tables_number   1
_chemical_formula_structural   Sm25Ni49P33
_chemical_formula_sum   'Sm25 Ni49 P33'
_cell_volume   1640.42217183
_cell_formula_units_Z   1
loop_
 _symmetry_equiv_pos_site_id
 _symmetry_equiv_pos_as_xyz
  1  'x, y, z'
loop_
 _atom_site_type_symbol
 _atom_site_label
 _atom_site_symmetry_multiplicity
 _atom_site_fract_x
 _atom_site_fract_y
 _atom_site_fract_z
 _atom_site_occupancy
  Sm  Sm0  1  0.90719519  0.09274880  0.49999938  1
  Sm  Sm1  1  0.36989969  0.09490627  0.49999969  1
  Sm  Sm2  1  0.15619272  0.31242747  0.99999807  1
  Sm  Sm3  1  0.15379829  0.48804570  0.00000047  1
  Sm  Sm4  1  0.33419674  0.84613430  0.00000077  1
  Sm  Sm5  1  0.18557545  0.09278863  0.49999827  1
  Sm  Sm6  1  0.33331958  0.66666365  0.00000257  1
  Sm  Sm7  1  0.90509735  0.27503095  0.49999831  1
  Sm  Sm8  1  0.54727705  0.45275431  0.50000418  1
  Sm  Sm9  1  0.90552848  0.45277212  0.49999963  1
  Sm  Sm10  1  0.15375980  0.66574760  0.00000229  1
  Sm  Sm11  1  0.51200384  0.66580255  0.00000047  1
  Sm  Sm12  1  0.68767509  0.84383449  0.00000188  1
  Sm  Sm13  1  0.90508443  0.63008133  0.50000159  1
  Sm  Sm14  1  0.54724570  0.09449653  0.50000061  1
  Sm  Sm15  1  0.90714731  0.81433578  0.50000225  1
  Sm  Sm16  1  0.72611146  0.27400667  0.50000252  1
  Sm  Sm17  1  0.15617843  0.84376885  0.99999749  1
  Sm  Sm18  1  0.72501021  0.63008602  0.50000020  1
  Sm  Sm19  1  0.51198261  0.84614274  0.00000545  1
  Sm  Sm20  1  0.33421253  0.48810371  0.00000087  1
  Sm  Sm21  1  0.72611654  0.45217819  0.49999959  1
  Sm  Sm22  1  0.54793126  0.27399285  0.49999898  1
  Sm  Sm23  1  0.72500210  0.09492093  0.50000298  1
  Sm  Sm24  1  0.36991608  0.27496816  0.50000118  1
  Ni  Ni0  1  0.48491339  0.51511987  0.00000049  1
  Ni  Ni1  1  0.91728631  0.95861297  0.49999231  1
  Ni  Ni2  1  0.48819298  0.15428860  0.00000217  1
  Ni  Ni3  1  0.66259090  0.69267539  0.00000167  1
  Ni  Ni4  1  0.02884065  0.86174599  0.99999630  1
  Ni  Ni5  1  0.48491011  0.96978514  0.99999312  1
  Ni  Ni6  1  0.03011021  0.24945085  0.50000217  1
  Ni  Ni7  1  0.02882554  0.16709077  0.99999953  1
  Ni  Ni8  1  0.30727349  0.96984059  0.99999307  1
  Ni  Ni9  1  0.07217385  0.03606746  -0.00000156  1
  Ni  Ni10  1  0.66612595  0.15428818  0.00000576  1
  Ni  Ni11  1  0.75052467  0.96983019  0.49999551  1
  Ni  Ni12  1  0.21342379  0.60672671  0.49999985  1
  Ni  Ni13  1  0.03009272  0.33743161  0.99999864  1
  Ni  Ni14  1  0.02894185  0.42631138  0.49999747  1
  Ni  Ni15  1  0.75058629  0.78070649  0.50000009  1
  Ni  Ni16  1  0.39327894  0.60671840  0.49999740  1
  Ni  Ni17  1  0.96388714  0.92777224  0.99999138  1
  Ni  Ni18  1  0.83291057  0.97115417  0.00000391  1
  Ni  Ni19  1  0.21932003  0.96983612  0.49999640  1
  Ni  Ni20  1  0.13825407  0.97107635  0.00000586  1
  Ni  Ni21  1  0.66254556  0.96984619  0.00000187  1
  Ni  Ni22  1  0.83297673  0.86180422  0.00000041  1
  Ni  Ni23  1  0.57366404  0.60261830  0.49999925  1
  Ni  Ni24  1  0.03017065  0.51509761  0.00000640  1
  Ni  Ni25  1  0.03009178  0.78067277  0.50000457  1
  Ni  Ni26  1  0.57365904  0.97101348  0.49999457  1
  Ni  Ni27  1  0.39733832  0.42630349  0.49999898  1
  Ni  Ni28  1  0.03005361  0.69268765  0.99999348  1
  Ni  Ni29  1  0.04133101  0.95857865  0.50001150  1
  Ni  Ni30  1  0.30980587  0.15490077  0.00000486  1
  Ni  Ni31  1  0.13825609  0.16715002  0.00000259  1
  Ni  Ni32  1  0.96387076  0.03608604  -0.00000178  1
  Ni  Ni33  1  0.39734537  0.97101120  0.50000174  1
  Ni  Ni34  1  0.57123629  0.78558416  0.50000272  1
  Ni  Ni35  1  0.21438133  0.42878123  0.50000402  1
  Ni  Ni36  1  0.66672091  0.33339075  0.99999505  1
  Ni  Ni37  1  0.66617372  0.51190391  0.99999243  1
  Ni  Ni38  1  0.30734312  0.33747936  0.99999878  1
  Ni  Ni39  1  0.21435524  0.78555928  0.50000281  1
  Ni  Ni40  1  0.84506397  0.69015869  0.99999094  1
  Ni  Ni41  1  0.39325023  0.78649056  0.50000480  1
  Ni  Ni42  1  0.84574653  0.33395324  0.99999458  1
  Ni  Ni43  1  0.48822155  0.33396436  0.00000270  1
  Ni  Ni44  1  0.21934863  0.24947674  0.49999770  1
  Ni  Ni45  1  0.04132230  0.08269784  0.49999101  1
  Ni  Ni46  1  0.02894500  0.60264063  0.50000565  1
  Ni  Ni47  1  0.84573064  0.51188629  0.99999385  1
  Ni  Ni48  1  0.84507292  0.15493721  -0.00000636  1
  P  P0  1  0.62886055  0.72485954  0.50000422  1
  P  P1  1  0.09605126  0.37120396  0.49999806  1
  P  P2  1  0.60716338  0.39290229  0.00000023  1
  P  P3  1  0.78580291  0.39290930  0.00000264  1
  P  P4  1  0.45217041  0.90432490  0.49999980  1
  P  P5  1  0.96180924  0.74606367  0.99999917  1
  P  P6  1  0.25395392  0.03816398  0.00000197  1
  P  P7  1  0.27395309  0.54798675  0.49999812  1
  P  P8  1  0.42944881  0.39312224  -0.00000034  1
  P  P9  1  0.25394848  0.21579241  0.00000033  1
  P  P10  1  0.60715672  0.21427330  0.00000116  1
  P  P11  1  0.60689798  0.57057243  0.99999932  1
  P  P12  1  0.45217294  0.54782563  0.50000230  1
  P  P13  1  0.62884969  0.90393102  0.49999982  1
  P  P14  1  0.80380058  0.90190799  0.50000204  1
  P  P15  1  0.78423652  0.74607596  0.00000131  1
  P  P16  1  0.78419968  0.03813619  0.00000163  1
  P  P17  1  0.09811846  0.19621055  0.49999981  1
  P  P18  1  0.42941996  0.03628460  0.00000048  1
  P  P19  1  0.78534630  0.21471485  0.99999949  1
  P  P20  1  0.27512526  0.37121099  0.50000161  1
  P  P21  1  0.45202242  0.72598117  0.49999824  1
  P  P22  1  0.78534951  0.57068108  0.00000059  1
  P  P23  1  0.60687067  0.03629557  0.99999962  1
  P  P24  1  0.96369794  0.39313765  0.00000168  1
  P  P25  1  0.42938909  0.21468489  -0.00000110  1
  P  P26  1  0.96182391  0.21575718  0.00000076  1
  P  P27  1  0.27392035  0.72596401  0.50000106  1
  P  P28  1  0.09561235  0.54781629  0.50000019  1
  P  P29  1  0.96371891  0.57059935  0.00000069  1
  P  P30  1  0.09809381  0.90189712  0.50000006  1
  P  P31  1  0.27510328  0.90393575  0.50000305  1
  P  P32  1  0.09596902  0.72483473  0.50000167  1
loop_
_geom_bond_atom_site_label_1
_geom_bond_atom_site_label_2
_geom_bond_distance
_geom_bond_site_symmetry_2
Ni0 P12 2.313281 1_554
Ni0 P12 2.313296 1_555
Ni0 P11 2.332938 1_554
Ni0 P8 2.334483 1_555
Ni0 Sm20 3.069141 1_555
Ni0 Sm11 3.070019 1_555
Ni0 Sm8 3.076656 1_554
Ni0 Sm8 3.076669 1_555
Ni1 P14 2.167453 1_555
Ni1 Ni17 2.450859 1_555
Ni1 Ni17 2.450868 1_554
Ni1 Ni32 2.451432 1_565
Ni1 Ni32 2.451474 1_566
Ni1 Sm0 3.077022 1_565
Ni1 Sm15 3.077781 1_555
Ni2 P18 2.254947 1_555
Ni2 P10 2.272108 1_555
Ni2 P25 2.277249 1_555
Ni2 Sm1 2.982019 1_555
Ni2 Sm1 2.982034 1_554
Ni2 Sm14 2.990454 1_555
Ni2 Sm14 2.990467 1_554
Ni2 Sm22 3.003407 1_555
Ni2 Sm22 3.003416 1_554
Ni3 P0 2.318183 1_554
Ni3 P0 2.318203 1_555
Ni3 P15 2.329012 1_555
Ni3 P11 2.336292 1_554
Ni3 Sm11 3.067766 1_555
Ni3 Sm18 3.080794 1_555
Ni3 Sm18 3.080807 1_554
Ni3 Sm12 3.096031 1_555
Ni4 P5 2.219788 1_455
Ni4 P30 2.356366 1_555
Ni4 P30 2.356393 1_556
Ni4 Sm17 3.026116 1_555
Ni4 Sm15 3.045892 1_455
Ni4 Sm15 3.045920 1_456
Ni5 P4 2.313600 1_555
Ni5 P4 2.313639 1_556
Ni5 P23 2.332546 1_565
Ni5 P18 2.333695 1_566
Ni5 Sm4 3.069693 1_556
Ni5 Sm19 3.070534 1_556
Ni5 Sm14 3.076884 1_565
Ni5 Sm14 3.076929 1_566
Ni6 P17 2.321923 1_555
Ni6 P1 2.329228 1_555
Ni6 P26 2.342887 1_456
Ni6 P26 2.342898 1_455
Ni6 Sm7 3.078219 1_455
Ni6 Sm2 3.096244 1_555
Ni6 Sm2 3.096262 1_554
Ni6 Sm0 3.151302 1_455
Ni7 P26 2.218806 1_456
Ni7 P17 2.356763 1_555
Ni7 P17 2.356766 1_556
Ni7 Sm2 3.027581 1_555
Ni7 Sm0 3.045325 1_456
Ni7 Sm0 3.045329 1_455
Ni8 P31 2.318261 1_555
Ni8 P31 2.318321 1_556
Ni8 P6 2.329823 1_566
Ni8 P18 2.335910 1_566
Ni8 Sm4 3.069822 1_556
Ni8 Sm1 3.082133 1_565
Ni8 Sm1 3.082173 1_566
Ni8 Sm17 3.093933 1_555
Ni9 Sm5 2.911876 1_554
Ni9 Sm5 2.911877 1_555
Ni10 P23 2.254728 1_554
Ni10 P10 2.272509 1_555
Ni10 P19 2.277056 1_554
Ni10 Sm23 2.981730 1_555
Ni10 Sm23 2.981750 1_554
Ni10 Sm14 2.990521 1_555
Ni10 Sm14 2.990549 1_554
Ni10 Sm16 3.003613 1_555
Ni10 Sm16 3.003622 1_554
Ni11 P14 2.321066 1_555
Ni11 P13 2.326577 1_555
Ni11 P16 2.343470 1_565
Ni11 P16 2.343515 1_566
Ni11 Sm23 3.080367 1_565
Ni11 Sm12 3.095944 1_555
Ni11 Sm12 3.095968 1_556
Ni11 Sm0 3.150092 1_565
Ni12 P28 2.250070 1_555
Ni12 P7 2.278564 1_555
Ni12 P27 2.278584 1_555
Ni12 Sm10 2.988123 1_555
Ni12 Sm10 2.988141 1_556
Ni12 Sm3 2.988548 1_556
Ni12 Sm3 2.988552 1_555
Ni12 Sm6 3.005267 1_555
Ni12 Sm6 3.005283 1_556
Ni13 P1 2.318487 1_556
Ni13 P1 2.318490 1_555
Ni13 P26 2.330799 1_456
Ni13 P24 2.335490 1_456
Ni13 Sm3 3.069335 1_556
Ni13 Sm7 3.080131 1_456
Ni13 Sm7 3.080135 1_455
Ni13 Sm2 3.093899 1_555
Ni14 P24 2.311053 1_455
Ni14 P24 2.311079 1_456
Ni14 P28 2.325466 1_555
Ni14 P1 2.338469 1_555
Ni14 Sm9 3.055727 1_455
Ni14 Sm3 3.078102 1_555
Ni14 Sm3 3.078119 1_556
Ni14 Sm7 3.079797 1_455
Ni15 P14 2.321810 1_555
Ni15 P0 2.327427 1_555
Ni15 P15 2.343025 1_555
Ni15 P15 2.343029 1_556
Ni15 Sm18 3.080408 1_555
Ni15 Sm12 3.096079 1_555
Ni15 Sm12 3.096094 1_556
Ni15 Sm15 3.147979 1_555
Ni16 P12 2.250169 1_555
Ni16 P7 2.279080 1_555
Ni16 P21 2.279084 1_555
Ni16 Sm20 2.987584 1_555
Ni16 Sm20 2.987594 1_556
Ni16 Sm11 2.988267 1_555
Ni16 Sm11 2.988284 1_556
Ni16 Sm6 3.005830 1_555
Ni16 Sm6 3.005862 1_556
Ni17 Ni9 2.388837 1_666
Ni17 Ni32 2.390128 1_566
Ni17 Ni29 2.450690 1_655
Ni17 Ni29 2.450816 1_656
Ni17 Ni22 2.500275 1_556
Ni17 Ni4 2.502240 1_655
Ni17 Sm15 2.913200 1_555
Ni17 Sm15 2.913249 1_556
Ni18 P16 2.219460 1_565
Ni18 P14 2.356670 1_555
Ni18 P14 2.356688 1_554
Ni18 Ni32 2.501222 1_565
Ni18 Sm12 3.025419 1_555
Ni18 Sm0 3.045497 1_565
Ni18 Sm0 3.045512 1_564
Ni19 P30 2.320976 1_555
Ni19 P31 2.327359 1_555
Ni19 P6 2.343700 1_565
Ni19 P6 2.343742 1_566
Ni19 Sm1 3.078854 1_565
Ni19 Sm17 3.097016 1_555
Ni19 Sm17 3.097019 1_554
Ni19 Sm5 3.151633 1_565
Ni20 P6 2.219186 1_565
Ni20 P30 2.355966 1_555
Ni20 P30 2.356008 1_554
Ni20 Ni9 2.503976 1_565
Ni20 Sm17 3.026112 1_554
Ni20 Sm5 3.047441 1_565
Ni20 Sm5 3.047471 1_564
Ni21 P13 2.318376 1_555
Ni21 P13 2.318395 1_554
Ni21 P16 2.329341 1_565
Ni21 P23 2.336129 1_564
Ni21 Sm19 3.067981 1_555
Ni21 Sm23 3.082282 1_564
Ni21 Sm23 3.082295 1_565
Ni21 Sm12 3.094981 1_555
Ni22 P15 2.220646 1_555
Ni22 P14 2.356797 1_554
Ni22 P14 2.356811 1_555
Ni22 Sm12 3.025691 1_555
Ni22 Sm15 3.045307 1_554
Ni22 Sm15 3.045311 1_555
Ni23 P11 2.311603 1_555
Ni23 P11 2.311607 1_554
Ni23 P12 2.324020 1_555
Ni23 P0 2.339598 1_555
Ni23 Sm8 3.057617 1_555
Ni23 Sm11 3.078416 1_555
Ni23 Sm11 3.078427 1_556
Ni23 Sm18 3.079718 1_555
Ni24 P28 2.313051 1_555
Ni24 P28 2.313090 1_554
Ni24 P29 2.332824 1_455
Ni24 P24 2.333645 1_455
Ni24 Sm3 3.068702 1_555
Ni24 Sm10 3.068950 1_555
Ni24 Sm9 3.074889 1_455
Ni24 Sm9 3.074925 1_454
Ni25 P30 2.322156 1_555
Ni25 P32 2.327786 1_555
Ni25 P5 2.342840 1_455
Ni25 P5 2.342876 1_454
Ni25 Sm13 3.079113 1_455
Ni25 Sm17 3.096299 1_555
Ni25 Sm17 3.096331 1_554
Ni25 Sm15 3.149118 1_455
Ni26 P23 2.311794 1_564
Ni26 P23 2.311832 1_565
Ni26 P4 2.324046 1_555
Ni26 P13 2.339635 1_555
Ni26 Sm14 3.057802 1_565
Ni26 Sm19 3.079292 1_555
Ni26 Sm19 3.079338 1_556
Ni26 Sm23 3.080530 1_565
Ni27 P8 2.311729 1_555
Ni27 P8 2.311729 1_556
Ni27 P12 2.325881 1_555
Ni27 P20 2.337863 1_555
Ni27 Sm8 3.056917 1_555
Ni27 Sm20 3.079595 1_555
Ni27 Sm20 3.079610 1_556
Ni27 Sm24 3.081679 1_555
Ni28 P32 2.318010 1_555
Ni28 P32 2.318065 1_556
Ni28 P5 2.329087 1_455
Ni28 P29 2.335868 1_456
Ni28 Sm10 3.068834 1_556
Ni28 Sm13 3.079728 1_455
Ni28 Sm13 3.079765 1_456
Ni28 Sm17 3.094739 1_555
Ni29 P30 2.167212 1_555
Ni29 Ni9 2.451743 1_566
Ni29 Ni9 2.451817 1_565
Ni29 Sm15 3.077090 1_455
Ni29 Sm5 3.077133 1_565
Ni30 P9 2.231070 1_555
Ni30 P6 2.231431 1_555
Ni30 P25 2.283909 1_555
Ni30 Sm1 3.008505 1_555
Ni30 Sm1 3.008537 1_554
Ni30 Sm24 3.008693 1_555
Ni30 Sm24 3.008704 1_554
Ni30 Sm5 3.068806 1_555
Ni30 Sm5 3.068840 1_554
Ni31 P9 2.218847 1_555
Ni31 P17 2.355922 1_555
Ni31 P17 2.355936 1_554
Ni31 Ni9 2.504883 1_555
Ni31 Sm2 3.027219 1_554
Ni31 Sm5 3.046545 1_555
Ni31 Sm5 3.046572 1_554
Ni32 Ni9 2.388652 1_655
Ni32 Ni45 2.450841 1_655
Ni32 Ni45 2.450883 1_654
Ni32 Ni7 2.503404 1_654
Ni32 Sm0 2.911381 1_554
Ni32 Sm0 2.911392 1_555
Ni33 P18 2.311725 1_566
Ni33 P18 2.311728 1_565
Ni33 P4 2.325086 1_555
Ni33 P31 2.338426 1_555
Ni33 Sm14 3.056996 1_565
Ni33 Sm4 3.079387 1_556
Ni33 Sm4 3.079399 1_555
Ni33 Sm1 3.081290 1_565
Ni34 P0 2.261187 1_555
Ni34 P13 2.261763 1_555
Ni34 P21 2.276855 1_555
Ni34 Sm12 2.955276 1_556
Ni34 Sm12 2.955278 1_555
Ni34 Sm19 3.004533 1_555
Ni34 Sm19 3.004553 1_556
Ni34 Sm11 3.004565 1_556
Ni34 Sm11 3.004583 1_555
Ni35 P1 2.260236 1_555
Ni35 P20 2.260494 1_555
Ni35 P7 2.277900 1_555
Ni35 Sm2 2.954920 1_555
Ni35 Sm2 2.954958 1_554
Ni35 Sm20 3.004354 1_556
Ni35 Sm20 3.004367 1_555
Ni35 Sm3 3.005037 1_556
Ni35 Sm3 3.005050 1_555
Ni36 P3 2.274336 1_556
Ni36 P2 2.274666 1_556
Ni36 P10 2.276217 1_556
Ni36 Sm22 2.989200 1_555
Ni36 Sm22 2.989218 1_556
Ni36 Sm16 2.989412 1_555
Ni36 Sm16 2.989445 1_556
Ni36 Sm21 2.990073 1_555
Ni36 Sm21 2.990104 1_556
Ni37 P11 2.253184 1_555
Ni37 P2 2.274032 1_556
Ni37 P22 2.276192 1_556
Ni37 Sm18 2.981300 1_555
Ni37 Sm18 2.981347 1_556
Ni37 Sm8 2.990738 1_555
Ni37 Sm8 2.990795 1_556
Ni37 Sm21 3.002395 1_555
Ni37 Sm21 3.002426 1_556
Ni38 P20 2.318554 1_555
Ni38 P20 2.318576 1_556
Ni38 P9 2.331161 1_556
Ni38 P8 2.335101 1_556
Ni38 Sm20 3.070445 1_556
Ni38 Sm24 3.081913 1_555
Ni38 Sm24 3.081920 1_556
Ni38 Sm2 3.094251 1_555
Ni39 P32 2.261311 1_555
Ni39 P31 2.262309 1_555
Ni39 P27 2.276411 1_555
Ni39 Sm17 2.954937 1_555
Ni39 Sm17 2.954959 1_554
Ni39 Sm4 3.004519 1_556
Ni39 Sm4 3.004527 1_555
Ni39 Sm10 3.005003 1_556
Ni39 Sm10 3.005014 1_555
Ni40 P5 2.230355 1_555
Ni40 P15 2.230887 1_556
Ni40 P22 2.283099 1_556
Ni40 Sm18 3.007553 1_555
Ni40 Sm18 3.007597 1_556
Ni40 Sm13 3.008636 1_555
Ni40 Sm13 3.008684 1_556
Ni40 Sm15 3.068974 1_555
Ni40 Sm15 3.069037 1_556
Ni41 P4 2.251698 1_555
Ni41 P21 2.278818 1_555
Ni41 P27 2.279156 1_555
Ni41 Sm4 2.988309 1_556
Ni41 Sm4 2.988324 1_555
Ni41 Sm19 2.988385 1_555
Ni41 Sm19 2.988390 1_556
Ni41 Sm6 3.005186 1_556
Ni41 Sm6 3.005205 1_555
Ni42 P24 2.252749 1_556
Ni42 P3 2.271450 1_556
Ni42 P19 2.278588 1_555
Ni42 Sm7 2.982158 1_555
Ni42 Sm7 2.982171 1_556
Ni42 Sm9 2.990537 1_555
Ni42 Sm9 2.990570 1_556
Ni42 Sm16 3.001466 1_555
Ni42 Sm16 3.001504 1_556
Ni43 P8 2.252924 1_555
Ni43 P2 2.271686 1_555
Ni43 P25 2.279388 1_555
Ni43 Sm24 2.982193 1_555
Ni43 Sm24 2.982203 1_554
Ni43 Sm8 2.990128 1_554
Ni43 Sm8 2.990143 1_555
Ni43 Sm22 3.002586 1_555
Ni43 Sm22 3.002610 1_554
Ni44 P17 2.320984 1_555
Ni44 P20 2.328961 1_555
Ni44 P9 2.343047 1_555
Ni44 P9 2.343060 1_556
Ni44 Sm24 3.078078 1_555
Ni44 Sm2 3.097083 1_554
Ni44 Sm2 3.097090 1_555
Ni44 Sm5 3.151643 1_555
Ni45 P17 2.169116 1_555
Ni45 Ni9 2.451452 1_555
Ni45 Ni9 2.451493 1_556
Ni45 Sm0 3.074843 1_455
Ni45 Sm5 3.075992 1_555
Ni46 P29 2.310863 1_456
Ni46 P29 2.310897 1_455
Ni46 P28 2.324541 1_555
Ni46 P32 2.338626 1_555
Ni46 Sm9 3.056626 1_455
Ni46 Sm10 3.077496 1_556
Ni46 Sm10 3.077510 1_555
Ni46 Sm13 3.079251 1_455
Ni47 P29 2.253454 1_556
Ni47 P3 2.273551 1_556
Ni47 P22 2.276764 1_556
Ni47 Sm13 2.981484 1_555
Ni47 Sm13 2.981531 1_556
Ni47 Sm9 2.991415 1_555
Ni47 Sm9 2.991439 1_556
Ni47 Sm21 3.001165 1_555
Ni47 Sm21 3.001191 1_556
Ni48 P26 2.230486 1_555
Ni48 P16 2.232602 1_555
Ni48 P19 2.282980 1_554
Ni48 Sm23 3.007800 1_554
Ni48 Sm23 3.007845 1_555
Ni48 Sm7 3.009067 1_554
Ni48 Sm7 3.009098 1_555
Ni48 Sm0 3.070463 1_554
Ni48 Sm0 3.070486 1_555
P0 Sm11 2.961313 1_556
P0 Sm11 2.961334 1_555
P0 Sm12 2.992847 1_556
P0 Sm12 2.992852 1_555
P1 Sm3 2.961993 1_555
P1 Sm3 2.962012 1_556
P1 Sm2 2.991535 1_555
P1 Sm2 2.991541 1_554
P2 Sm21 2.991582 1_555
P2 Sm21 2.991583 1_554
P2 Sm22 2.991857 1_555
P2 Sm22 2.991871 1_554
P2 Sm8 3.003414 1_554
P2 Sm8 3.003439 1_555
P3 Sm16 2.991759 1_555
P3 Sm16 2.991767 1_554
P3 Sm21 2.992045 1_555
P3 Sm21 2.992055 1_554
P3 Sm9 3.002792 1_555
P3 Sm9 3.002805 1_554
P4 Sm4 2.977445 1_555
P4 Sm4 2.977447 1_556
P4 Sm19 2.978164 1_555
P4 Sm19 2.978188 1_556
P5 Sm13 2.949738 1_555
P5 Sm13 2.949743 1_556
P5 Sm15 3.053931 1_555
P5 Sm15 3.053952 1_556
P6 Sm1 2.948311 1_555
P6 Sm1 2.948321 1_554
P6 Sm5 3.054886 1_555
P6 Sm5 3.054900 1_554
P7 Sm6 2.988470 1_555
P7 Sm6 2.988500 1_556
P7 Sm3 3.009042 1_555
P7 Sm3 3.009052 1_556
P7 Sm20 3.009307 1_555
P7 Sm20 3.009316 1_556
P8 Sm8 2.975330 1_554
P8 Sm8 2.975356 1_555
P8 Sm24 2.980925 1_554
P8 Sm24 2.980926 1_555
P9 Sm24 2.948631 1_554
P9 Sm24 2.948637 1_555
P9 Sm5 3.055420 1_555
P9 Sm5 3.055438 1_554
P10 Sm16 2.991605 1_554
P10 Sm16 2.991614 1_555
P10 Sm22 2.991904 1_555
P10 Sm22 2.991910 1_554
P10 Sm14 3.004460 1_555
P10 Sm14 3.004470 1_554
P11 Sm8 2.976081 1_555
P11 Sm8 2.976098 1_556
P11 Sm18 2.979418 1_555
P11 Sm18 2.979424 1_556
P12 Sm20 2.977251 1_556
P12 Sm20 2.977260 1_555
P12 Sm11 2.978400 1_556
P12 Sm11 2.978402 1_555
P13 Sm19 2.961454 1_555
P13 Sm19 2.961481 1_556
P13 Sm12 2.991602 1_555
P13 Sm12 2.991607 1_556
P14 Sm12 2.950775 1_556
P14 Sm12 2.950778 1_555
P15 Sm18 2.949824 1_555
P15 Sm18 2.949837 1_554
P15 Sm15 3.053106 1_554
P15 Sm15 3.053113 1_555
P16 Sm23 2.949246 1_554
P16 Sm23 2.949258 1_555
P16 Sm0 3.054363 1_555
P16 Sm0 3.054373 1_554
P17 Sm2 2.952972 1_555
P17 Sm2 2.952973 1_554
P18 Sm14 2.975296 1_554
P18 Sm14 2.975299 1_555
P18 Sm1 2.980276 1_554
P18 Sm1 2.980277 1_555
P19 Sm16 2.985824 1_555
P19 Sm16 2.985845 1_556
P19 Sm7 3.003185 1_556
P19 Sm7 3.003189 1_555
P19 Sm23 3.004724 1_555
P19 Sm23 3.004734 1_556
P20 Sm20 2.962725 1_555
P20 Sm20 2.962729 1_556
P20 Sm2 2.991305 1_555
P20 Sm2 2.991325 1_554
P21 Sm6 2.987941 1_555
P21 Sm6 2.987961 1_556
P21 Sm11 3.009565 1_555
P21 Sm11 3.009571 1_556
P21 Sm19 3.010051 1_555
P21 Sm19 3.010094 1_556
P22 Sm21 2.985956 1_555
P22 Sm21 2.985969 1_554
P22 Sm13 3.002946 1_554
P22 Sm13 3.002953 1_555
P22 Sm18 3.003523 1_554
P22 Sm18 3.003527 1_555
P23 Sm14 2.975724 1_555
P23 Sm14 2.975735 1_556
P23 Sm23 2.979683 1_555
P23 Sm23 2.979702 1_556
P24 Sm9 2.975426 1_555
P24 Sm9 2.975431 1_554
P24 Sm7 2.980232 1_555
P24 Sm7 2.980256 1_554
P25 Sm22 2.985622 1_554
P25 Sm22 2.985625 1_555
P25 Sm24 3.003696 1_554
P25 Sm24 3.003713 1_555
P25 Sm1 3.004505 1_555
P25 Sm1 3.004509 1_554
P26 Sm7 2.949545 1_555
P26 Sm7 2.949553 1_554
P26 Sm0 3.055562 1_555
P26 Sm0 3.055577 1_554
P27 Sm6 2.988339 1_555
P27 Sm6 2.988341 1_556
P27 Sm10 3.009130 1_555
P27 Sm10 3.009134 1_556
P27 Sm4 3.010197 1_555
P27 Sm4 3.010203 1_556
P28 Sm3 2.977641 1_556
P28 Sm3 2.977645 1_555
P28 Sm10 2.977737 1_555
P28 Sm10 2.977756 1_556
P29 Sm9 2.976223 1_555
P29 Sm9 2.976236 1_554
P29 Sm13 2.979910 1_554
P29 Sm13 2.979920 1_555
P30 Sm17 2.952446 1_555
P30 Sm17 2.952464 1_554
P31 Sm4 2.962284 1_556
P31 Sm4 2.962301 1_555
P31 Sm17 2.991198 1_555
P31 Sm17 2.991229 1_554
P32 Sm10 2.962060 1_556
P32 Sm10 2.962062 1_555
P32 Sm17 2.992251 1_555
P32 Sm17 2.992265 1_554
