# generated using pymatgen
data_La3Ge3Br2
_symmetry_space_group_name_H-M   'P 1'
_cell_length_a   4.35351310
_cell_length_b   9.63175552
_cell_length_c   10.92561942
_cell_angle_alpha   97.90149532
_cell_angle_beta   89.99018561
_cell_angle_gamma   103.09004741
_symmetry_Int_Tables_number   1
_chemical_formula_structural   La3Ge3Br2
_chemical_formula_sum   'La6 Ge6 Br4'
_cell_volume   441.76411709
_cell_formula_units_Z   2
loop_
 _symmetry_equiv_pos_site_id
 _symmetry_equiv_pos_as_xyz
  1  'x, y, z'
loop_
 _atom_site_type_symbol
 _atom_site_label
 _atom_site_symmetry_multiplicity
 _atom_site_fract_x
 _atom_site_fract_y
 _atom_site_fract_z
 _atom_site_occupancy
  La  La0  1  0.46870329  0.93790075  0.16899050  1
  La  La1  1  0.67736049  0.35318893  0.14697585  1
  La  La2  1  0.32264195  0.64683063  0.85300669  1
  La  La3  1  0.53133220  0.06204831  0.83095203  1
  La  La4  1  0.61204773  0.22389259  0.48893347  1
  La  La5  1  0.38796450  0.77605795  0.51116203  1
  Ge  Ge0  1  0.93244713  0.86561059  0.95463727  1
  Ge  Ge1  1  0.97693432  0.95439091  0.38395116  1
  Ge  Ge2  1  0.09255636  0.18451134  0.28071887  1
  Ge  Ge3  1  0.02304663  0.04562243  0.61607248  1
  Ge  Ge4  1  0.90744140  0.81550791  0.71928447  1
  Ge  Ge5  1  0.06755455  0.13440099  0.04533749  1
  Br  Br0  1  0.22438211  0.44962467  0.60915405  1
  Br  Br1  1  0.30011579  0.59818884  0.12948589  1
  Br  Br2  1  0.77559148  0.55040652  0.39084017  1
  Br  Br3  1  0.69988207  0.40181964  0.87049759  1
loop_
_geom_bond_atom_site_label_1
_geom_bond_atom_site_label_2
_geom_bond_distance
_geom_bond_site_symmetry_2
Ge0 Ge4 2.547907 1_555
Ge0 Ge5 2.575958 1_666
Ge0 La2 3.088121 1_655
Ge0 La2 3.089499 1_555
Ge0 La0 3.198798 1_556
Ge0 La0 3.199544 1_656
Ge0 La3 3.264309 1_565
Ge0 La3 3.266646 1_665
Ge1 Ge3 2.559621 1_665
Ge1 Ge2 2.572927 1_665
Ge1 La5 3.180690 1_555
Ge1 La5 3.183325 1_655
Ge1 La0 3.189724 1_655
Ge1 La0 3.190085 1_555
Ge1 La4 3.409644 1_565
Ge1 La4 3.410306 1_665
Ge2 Ge5 2.548217 1_555
Ge2 La4 3.132054 1_555
Ge2 La4 3.132973 1_455
Ge2 La1 3.166355 1_455
Ge2 La1 3.167714 1_555
Ge2 La0 3.282947 1_545
Ge2 La0 3.284861 1_445
Ge3 Ge4 2.572754 1_445
Ge3 La4 3.180130 1_555
Ge3 La4 3.182392 1_455
Ge3 La3 3.188854 1_455
Ge3 La3 3.189730 1_555
Ge3 La5 3.410046 1_545
Ge3 La5 3.410358 1_445
Ge4 La5 3.131201 1_555
Ge4 La5 3.132417 1_655
Ge4 La2 3.166245 1_655
Ge4 La2 3.167578 1_555
Ge4 La3 3.282126 1_565
Ge4 La3 3.284461 1_665
Ge5 La1 3.088199 1_455
Ge5 La1 3.089557 1_555
Ge5 La3 3.199302 1_554
Ge5 La3 3.199662 1_454
Ge5 La0 3.264690 1_545
Ge5 La0 3.266648 1_445
Br0 La2 3.021594 1_555
Br0 La4 3.185835 1_455
Br0 La4 3.190127 1_555
Br0 La5 3.383774 1_555
Br1 La2 3.118008 1_554
Br1 La0 3.155175 1_555
Br1 La1 3.190826 1_455
Br1 La1 3.190913 1_555
Br2 La1 3.021749 1_555
Br2 La5 3.185964 1_655
Br2 La5 3.189785 1_555
Br2 La4 3.384984 1_555
Br3 La1 3.117968 1_556
Br3 La3 3.155726 1_555
Br3 La2 3.190901 1_655
Br3 La2 3.190994 1_555
