# generated using pymatgen
data_C
_symmetry_space_group_name_H-M   'P 1'
_cell_length_a   10.06696265
_cell_length_b   10.06696265
_cell_length_c   17.99996300
_cell_angle_alpha   90.00000000
_cell_angle_beta   90.00000000
_cell_angle_gamma   119.72477753
_symmetry_Int_Tables_number   1
_chemical_formula_structural   C
_chemical_formula_sum   C140
_cell_volume   1584.15229115
_cell_formula_units_Z   140
loop_
 _symmetry_equiv_pos_site_id
 _symmetry_equiv_pos_as_xyz
  1  'x, y, z'
loop_
 _atom_site_type_symbol
 _atom_site_label
 _atom_site_symmetry_multiplicity
 _atom_site_fract_x
 _atom_site_fract_y
 _atom_site_fract_z
 _atom_site_occupancy
  C  C0  1  0.17907800  0.37135400  0.42972000  1
  C  C1  1  0.51572900  0.62654200  0.81742600  1
  C  C2  1  0.02676500  0.48096000  0.68293000  1
  C  C3  1  0.95579000  0.43749000  0.25000000  1
  C  C4  1  0.62864600  0.82092200  0.42972000  1
  C  C5  1  0.12249800  0.73980900  0.11417200  1
  C  C6  1  0.04496600  0.28094000  0.31727600  1
  C  C7  1  0.43630000  0.56370000  0.01317400  1
  C  C8  1  0.05291600  0.35882900  0.11422600  1
  C  C9  1  0.87750200  0.26019100  0.61417200  1
  C  C10  1  0.37573400  0.76717100  0.03050100  1
  C  C11  1  0.51572900  0.62654200  0.68257400  1
  C  C12  1  0.82092200  0.62864600  0.92972000  1
  C  C13  1  0.49869300  0.73331500  0.02792800  1
  C  C14  1  0.94708400  0.64117100  0.88577400  1
  C  C15  1  0.01659900  0.47585100  0.11416400  1
  C  C16  1  0.30913700  0.40348800  0.75000000  1
  C  C17  1  0.69086300  0.59651200  0.25000000  1
  C  C18  1  0.23282900  0.62426600  0.03050100  1
  C  C19  1  0.94708400  0.64117100  0.61422600  1
  C  C20  1  0.49869300  0.73331500  0.47207200  1
  C  C21  1  0.62654200  0.51572900  0.31742600  1
  C  C22  1  0.00654200  0.68553600  0.75000000  1
  C  C23  1  0.83391000  0.75530100  0.68258400  1
  C  C24  1  0.37345800  0.48427100  0.81742600  1
  C  C25  1  0.51388500  0.48611500  0.06106500  1
  C  C26  1  0.38851300  0.89210800  0.42864600  1
  C  C27  1  0.69971200  0.74948000  0.11392300  1
  C  C28  1  0.59651200  0.69086300  0.75000000  1
  C  C29  1  0.97323500  0.51904000  0.31707000  1
  C  C30  1  0.61148700  0.10789200  0.92864600  1
  C  C31  1  0.97323500  0.51904000  0.18293000  1
  C  C32  1  0.76717100  0.37573400  0.96949900  1
  C  C33  1  0.50130700  0.26668500  0.52792800  1
  C  C34  1  0.69971200  0.74948000  0.38607700  1
  C  C35  1  0.38851300  0.89210800  0.07135400  1
  C  C36  1  0.76140100  0.75779100  0.75000000  1
  C  C37  1  0.87750200  0.26019100  0.88582800  1
  C  C38  1  0.62654200  0.51572900  0.18257400  1
  C  C39  1  0.36062900  0.40755200  0.61383600  1
  C  C40  1  0.23282900  0.62426600  0.46949900  1
  C  C41  1  0.48611500  0.51388500  0.56106500  1
  C  C42  1  0.35882900  0.05291600  0.88577400  1
  C  C43  1  0.08696000  0.76779100  0.25000000  1
  C  C44  1  0.01659900  0.47585100  0.38583600  1
  C  C45  1  0.83391000  0.75530100  0.81741600  1
  C  C46  1  0.50130700  0.26668500  0.97207200  1
  C  C47  1  0.59244800  0.63937100  0.88616400  1
  C  C48  1  0.95503400  0.71906000  0.68272400  1
  C  C49  1  0.40755200  0.36062900  0.11383600  1
  C  C50  1  0.37573400  0.76717100  0.46949900  1
  C  C51  1  0.23220900  0.91304000  0.25000000  1
  C  C52  1  0.56370000  0.43630000  0.98682600  1
  C  C53  1  0.40755200  0.36062900  0.38616400  1
  C  C54  1  0.05291600  0.35882900  0.38577400  1
  C  C55  1  0.68246200  0.03825500  0.81718300  1
  C  C56  1  0.43630000  0.56370000  0.48682600  1
  C  C57  1  0.56370000  0.43630000  0.51317400  1
  C  C58  1  0.04496600  0.28094000  0.18272400  1
  C  C59  1  0.76779100  0.08696000  0.75000000  1
  C  C60  1  0.62426600  0.23282900  0.53050100  1
  C  C61  1  0.12249800  0.73980900  0.38582800  1
  C  C62  1  0.62864600  0.82092200  0.07028000  1
  C  C63  1  0.28094000  0.04496600  0.68272400  1
  C  C64  1  0.51904000  0.97323500  0.81707000  1
  C  C65  1  0.68246200  0.03825500  0.68281700  1
  C  C66  1  0.17907800  0.37135400  0.07028000  1
  C  C67  1  0.37135400  0.17907800  0.92972000  1
  C  C68  1  0.26019100  0.87750200  0.11417200  1
  C  C69  1  0.63937100  0.59244800  0.38616400  1
  C  C70  1  0.73331500  0.49869300  0.97207200  1
  C  C71  1  0.48427100  0.37345800  0.18257400  1
  C  C72  1  0.89210800  0.38851300  0.57135400  1
  C  C73  1  0.68553600  0.00654200  0.25000000  1
  C  C74  1  0.99345800  0.31446400  0.25000000  1
  C  C75  1  0.03825500  0.68246200  0.31718300  1
  C  C76  1  0.71906000  0.95503400  0.18272400  1
  C  C77  1  0.98340100  0.52414900  0.61416400  1
  C  C78  1  0.31753800  0.96174500  0.18281700  1
  C  C79  1  0.52414900  0.98340100  0.11416400  1
  C  C80  1  0.48096000  0.02676500  0.31707000  1
  C  C81  1  0.25052000  0.30028800  0.38607700  1
  C  C82  1  0.91304000  0.23220900  0.75000000  1
  C  C83  1  0.30028800  0.25052000  0.88607700  1
  C  C84  1  0.47585100  0.01659900  0.88583600  1
  C  C85  1  0.43749000  0.95579000  0.75000000  1
  C  C86  1  0.73331500  0.49869300  0.52792800  1
  C  C87  1  0.89210800  0.38851300  0.92864600  1
  C  C88  1  0.37345800  0.48427100  0.68257400  1
  C  C89  1  0.10789200  0.61148700  0.42864600  1
  C  C90  1  0.16609000  0.24469900  0.18258400  1
  C  C91  1  0.37135400  0.17907800  0.57028000  1
  C  C92  1  0.75779100  0.76140100  0.25000000  1
  C  C93  1  0.64117100  0.94708400  0.11422600  1
  C  C94  1  0.56251000  0.04421000  0.25000000  1
  C  C95  1  0.28094000  0.04496600  0.81727600  1
  C  C96  1  0.48611500  0.51388500  0.93893500  1
  C  C97  1  0.26668500  0.50130700  0.02792800  1
  C  C98  1  0.10789200  0.61148700  0.07135400  1
  C  C99  1  0.96174500  0.31753800  0.68281700  1
  C  C100  1  0.62426600  0.23282900  0.96949900  1
  C  C101  1  0.51388500  0.48611500  0.43893500  1
  C  C102  1  0.74948000  0.69971200  0.61392300  1
  C  C103  1  0.76717100  0.37573400  0.53050100  1
  C  C104  1  0.36062900  0.40755200  0.88616400  1
  C  C105  1  0.73980900  0.12249800  0.61417200  1
  C  C106  1  0.61148700  0.10789200  0.57135400  1
  C  C107  1  0.74948000  0.69971200  0.88607700  1
  C  C108  1  0.26668500  0.50130700  0.47207200  1
  C  C109  1  0.51904000  0.97323500  0.68293000  1
  C  C110  1  0.24469900  0.16609000  0.81741600  1
  C  C111  1  0.04421000  0.56251000  0.75000000  1
  C  C112  1  0.64117100  0.94708400  0.38577400  1
  C  C113  1  0.23859900  0.24220900  0.25000000  1
  C  C114  1  0.16609000  0.24469900  0.31741600  1
  C  C115  1  0.24469900  0.16609000  0.68258400  1
  C  C116  1  0.75530100  0.83391000  0.18258400  1
  C  C117  1  0.47585100  0.01659900  0.61416400  1
  C  C118  1  0.25052000  0.30028800  0.11392300  1
  C  C119  1  0.75530100  0.83391000  0.31741600  1
  C  C120  1  0.48096000  0.02676500  0.18293000  1
  C  C121  1  0.52414900  0.98340100  0.38583600  1
  C  C122  1  0.31753800  0.96174500  0.31718300  1
  C  C123  1  0.98340100  0.52414900  0.88583600  1
  C  C124  1  0.40348800  0.30913700  0.25000000  1
  C  C125  1  0.30028800  0.25052000  0.61392300  1
  C  C126  1  0.82092200  0.62864600  0.57028000  1
  C  C127  1  0.71906000  0.95503400  0.31727600  1
  C  C128  1  0.03825500  0.68246200  0.18281700  1
  C  C129  1  0.24220900  0.23859900  0.75000000  1
  C  C130  1  0.31446400  0.99345800  0.75000000  1
  C  C131  1  0.95503400  0.71906000  0.81727600  1
  C  C132  1  0.96174500  0.31753800  0.81718300  1
  C  C133  1  0.35882900  0.05291600  0.61422600  1
  C  C134  1  0.59244800  0.63937100  0.61383600  1
  C  C135  1  0.02676500  0.48096000  0.81707000  1
  C  C136  1  0.73980900  0.12249800  0.88582800  1
  C  C137  1  0.48427100  0.37345800  0.31742600  1
  C  C138  1  0.63937100  0.59244800  0.11383600  1
  C  C139  1  0.26019100  0.87750200  0.38582800  1
loop_
_geom_bond_atom_site_label_1
_geom_bond_atom_site_label_2
_geom_bond_distance
_geom_bond_site_symmetry_2
C0 C108 1.387902 1_555
C0 C54 1.447718 1_555
C0 C81 1.468485 1_555
C1 C28 1.425279 1_555
C1 C47 1.430077 1_555
C1 C24 1.438191 1_555
C2 C99 1.437752 1_455
C2 C77 1.449117 1_455
C3 C31 1.421026 1_555
C3 C74 1.464036 1_555
C5 C68 1.391913 1_555
C5 C98 1.447774 1_555
C6 C74 1.422232 1_455
C7 C97 1.522192 1_555
C7 C96 1.593130 1_554
C9 C99 1.446968 1_555
C10 C35 1.406677 1_555
C10 C13 1.438362 1_555
C10 C18 1.444600 1_555
C11 C28 1.425279 1_555
C11 C134 1.430077 1_555
C11 C88 1.438191 1_555
C12 C70 1.387902 1_555
C12 C14 1.447718 1_555
C13 C62 1.387902 1_555
C13 C7 1.522192 1_555
C15 C8 1.395920 1_555
C15 C98 1.434719 1_555
C15 C31 1.449117 1_455
C16 C88 1.425279 1_555
C16 C24 1.425279 1_555
C17 C21 1.425279 1_555
C17 C38 1.425279 1_555
C17 C92 1.449223 1_555
C18 C98 1.406677 1_555
C18 C97 1.438362 1_555
C19 C77 1.395920 1_555
C19 C48 1.441940 1_555
C20 C4 1.387902 1_555
C20 C50 1.438362 1_555
C20 C56 1.522192 1_555
C21 C69 1.430077 1_555
C22 C48 1.422232 1_455
C23 C36 1.422723 1_555
C23 C48 1.435648 1_555
C25 C49 1.517553 1_555
C25 C52 1.593130 1_554
C25 C7 1.602535 1_555
C26 C50 1.406677 1_555
C27 C62 1.468485 1_555
C28 C36 1.449223 1_555
C29 C3 1.421026 1_555
C29 C75 1.437752 1_655
C29 C44 1.449117 1_655
C30 C84 1.434719 1_555
C32 C87 1.406677 1_555
C32 C70 1.438362 1_555
C33 C91 1.387902 1_555
C33 C60 1.438362 1_555
C33 C57 1.522192 1_555
C34 C69 1.384110 1_555
C34 C4 1.468485 1_555
C35 C79 1.434719 1_555
C35 C68 1.447774 1_555
C36 C45 1.422723 1_555
C37 C87 1.447774 1_555
C38 C71 1.438191 1_555
C39 C88 1.430077 1_555
C39 C41 1.517553 1_555
C40 C89 1.406677 1_555
C40 C50 1.444600 1_555
C41 C56 1.593130 1_555
C41 C57 1.602535 1_555
C42 C84 1.395920 1_555
C42 C95 1.441940 1_555
C42 C67 1.447718 1_555
C43 C75 1.422325 1_555
C43 C51 1.468295 1_555
C44 C54 1.395920 1_555
C44 C89 1.434719 1_555
C46 C67 1.387902 1_555
C46 C52 1.522192 1_555
C47 C96 1.517553 1_555
C49 C71 1.430077 1_555
C51 C78 1.422325 1_555
C52 C70 1.522192 1_555
C52 C96 1.602535 1_555
C53 C81 1.384110 1_555
C54 C6 1.441940 1_555
C55 C59 1.422325 1_555
C55 C64 1.437752 1_545
C57 C86 1.522192 1_555
C58 C74 1.422232 1_455
C58 C90 1.435648 1_555
C58 C8 1.441940 1_555
C59 C65 1.422325 1_555
C59 C82 1.468295 1_555
C61 C75 1.446968 1_555
C61 C89 1.447774 1_555
C62 C93 1.447718 1_555
C64 C85 1.421026 1_555
C64 C84 1.449117 1_565
C66 C97 1.387902 1_555
C66 C8 1.447718 1_555
C67 C83 1.468485 1_555
C68 C78 1.446968 1_555
C72 C77 1.434719 1_555
C72 C9 1.447774 1_555
C73 C76 1.422232 1_545
C73 C94 1.464036 1_555
C76 C93 1.441940 1_555
C79 C93 1.395920 1_555
C80 C94 1.421026 1_555
C82 C99 1.422325 1_555
C100 C30 1.406677 1_555
C100 C46 1.438362 1_555
C100 C32 1.444600 1_555
C101 C53 1.517553 1_555
C101 C69 1.517553 1_555
C101 C57 1.593130 1_555
C101 C56 1.602535 1_555
C102 C134 1.384110 1_555
C102 C23 1.446148 1_555
C102 C126 1.468485 1_555
C103 C72 1.406677 1_555
C103 C86 1.438362 1_555
C103 C60 1.444600 1_555
C104 C83 1.384110 1_555
C104 C24 1.430077 1_555
C104 C96 1.517553 1_555
C105 C9 1.391913 1_555
C105 C65 1.446968 1_555
C105 C106 1.447774 1_555
C106 C60 1.406677 1_555
C106 C117 1.434719 1_555
C107 C47 1.384110 1_555
C107 C45 1.446148 1_555
C107 C12 1.468485 1_555
C108 C40 1.438362 1_555
C108 C56 1.522192 1_555
C109 C85 1.421026 1_555
C109 C65 1.437752 1_565
C109 C117 1.449117 1_565
C110 C129 1.422723 1_555
C110 C95 1.435648 1_555
C110 C83 1.446148 1_555
C111 C2 1.421026 1_555
C111 C135 1.421026 1_555
C111 C22 1.464036 1_555
C112 C121 1.395920 1_555
C112 C127 1.441940 1_555
C112 C4 1.447718 1_555
C113 C114 1.422723 1_555
C113 C90 1.422723 1_555
C113 C124 1.449223 1_555
C114 C6 1.435648 1_555
C114 C81 1.446148 1_555
C115 C129 1.422723 1_555
C115 C63 1.435648 1_555
C115 C125 1.446148 1_555
C116 C92 1.422723 1_555
C116 C76 1.435648 1_555
C116 C27 1.446148 1_555
C117 C133 1.395920 1_555
C118 C49 1.384110 1_555
C118 C90 1.446148 1_555
C118 C66 1.468485 1_555
C119 C92 1.422723 1_555
C119 C127 1.435648 1_555
C119 C34 1.446148 1_555
C120 C94 1.421026 1_555
C120 C78 1.437752 1_545
C120 C79 1.449117 1_545
C121 C26 1.434719 1_555
C121 C80 1.449117 1_565
C122 C51 1.422325 1_555
C122 C80 1.437752 1_565
C122 C139 1.446968 1_555
C123 C14 1.395920 1_555
C123 C87 1.434719 1_555
C123 C135 1.449117 1_655
C124 C137 1.425279 1_555
C124 C71 1.425279 1_555
C125 C39 1.384110 1_555
C125 C91 1.468485 1_555
C126 C86 1.387902 1_555
C126 C19 1.447718 1_555
C127 C73 1.422232 1_565
C128 C43 1.422325 1_555
C128 C31 1.437752 1_455
C128 C5 1.446968 1_555
C129 C16 1.449223 1_555
C130 C95 1.422232 1_565
C130 C63 1.422232 1_565
C130 C85 1.464036 1_555
C131 C22 1.422232 1_655
C131 C45 1.435648 1_555
C131 C14 1.441940 1_555
C132 C82 1.422325 1_555
C132 C135 1.437752 1_655
C132 C37 1.446968 1_555
C133 C63 1.441940 1_555
C133 C91 1.447718 1_555
C134 C41 1.517553 1_555
C136 C37 1.391913 1_555
C136 C55 1.446968 1_555
C136 C30 1.447774 1_555
C137 C53 1.430077 1_555
C137 C21 1.438191 1_555
C138 C27 1.384110 1_555
C138 C38 1.430077 1_555
C138 C25 1.517553 1_555
C139 C61 1.391913 1_555
C139 C26 1.447774 1_555
