# generated using pymatgen
data_Sr2MgSi2O7
_symmetry_space_group_name_H-M   'P 1'
_cell_length_a   8.09718000
_cell_length_b   8.09718000
_cell_length_c   5.22654000
_cell_angle_alpha   90.00000000
_cell_angle_beta   90.00000000
_cell_angle_gamma   90.00000000
_symmetry_Int_Tables_number   1
_chemical_formula_structural   Sr2MgSi2O7
_chemical_formula_sum   'Sr4 Mg2 Si4 O14'
_cell_volume   342.67456171
_cell_formula_units_Z   2
loop_
 _symmetry_equiv_pos_site_id
 _symmetry_equiv_pos_as_xyz
  1  'x, y, z'
loop_
 _atom_site_type_symbol
 _atom_site_label
 _atom_site_symmetry_multiplicity
 _atom_site_fract_x
 _atom_site_fract_y
 _atom_site_fract_z
 _atom_site_occupancy
  Sr  Sr0  1  0.66614400  0.16614400  0.50787900  1
  Sr  Sr1  1  0.83385600  0.66614400  0.49212100  1
  Sr  Sr2  1  0.16614400  0.33385600  0.49212100  1
  Sr  Sr3  1  0.33385600  0.83385600  0.50787900  1
  Mg  Mg0  1  0.00000000  0.00000000  0.00000000  1
  Mg  Mg1  1  0.50000000  0.50000000  0.00000000  1
  Si  Si0  1  0.86130200  0.36130200  0.94352300  1
  Si  Si1  1  0.13869800  0.63869800  0.94352300  1
  Si  Si2  1  0.63869800  0.86130200  0.05647700  1
  Si  Si3  1  0.36130200  0.13869800  0.05647700  1
  O  O0  1  0.68990400  0.42045000  0.80149600  1
  O  O1  1  0.31009600  0.57955000  0.80149600  1
  O  O2  1  0.42045000  0.31009600  0.19850400  1
  O  O3  1  0.57955000  0.68990400  0.19850400  1
  O  O4  1  0.92045000  0.18990400  0.80149600  1
  O  O5  1  0.81009600  0.92045000  0.19850400  1
  O  O6  1  0.18990400  0.07955000  0.19850400  1
  O  O7  1  0.07955000  0.81009600  0.80149600  1
  O  O8  1  0.85997100  0.35997100  0.25353600  1
  O  O9  1  0.64002900  0.85997100  0.74646400  1
  O  O10  1  0.50000000  0.00000000  0.16477200  1
  O  O11  1  0.00000000  0.50000000  0.83522800  1
  O  O12  1  0.14002900  0.64002900  0.25353600  1
  O  O13  1  0.35997100  0.14002900  0.74646400  1
loop_
_geom_bond_atom_site_label_1
_geom_bond_atom_site_label_2
_geom_bond_distance
_geom_bond_site_symmetry_2
Mg0 O6 1.963611 1_555
Mg0 O4 1.963611 1_454
Mg0 O5 1.963611 1_445
Mg0 O7 1.963611 1_544
Mg1 O3 1.963611 1_555
Mg1 O2 1.963611 1_555
Mg1 O0 1.963611 1_554
Mg1 O1 1.963611 1_554
O0 Si0 1.645145 1_555
O0 Sr0 2.575298 1_555
O0 Sr1 2.816207 1_555
O1 Si1 1.645145 1_555
O1 Sr3 2.575298 1_555
O1 Sr2 2.816207 1_555
O2 Si3 1.645145 1_555
O2 Sr2 2.575298 1_555
O2 Sr0 2.816207 1_555
O3 Si2 1.645145 1_555
O3 Sr1 2.575298 1_555
O3 Sr3 2.816207 1_555
O4 Si0 1.645145 1_555
O4 Sr0 2.575298 1_555
O4 Sr2 2.816207 1_655
O5 Si2 1.645145 1_555
O5 Sr1 2.575298 1_555
O5 Sr0 2.816207 1_565
O6 Si3 1.645145 1_555
O6 Sr2 2.575298 1_555
O6 Sr3 2.816207 1_545
O7 Si1 1.645145 1_555
O7 Sr3 2.575298 1_555
O7 Sr1 2.816207 1_455
O8 Si0 1.620367 1_554
O8 Sr0 2.587178 1_555
O8 Sr1 2.783125 1_555
O8 Sr2 2.783125 1_655
O9 Si2 1.620367 1_556
O9 Sr1 2.587178 1_555
O9 Sr3 2.783125 1_555
O9 Sr0 2.783125 1_565
O10 Si2 1.686092 1_545
O10 Si3 1.686092 1_555
O10 Sr0 2.614468 1_555
O10 Sr3 2.614468 1_545
O11 Si1 1.686092 1_555
O11 Si0 1.686092 1_455
O11 Sr2 2.614468 1_555
O11 Sr1 2.614468 1_455
O12 Si1 1.620367 1_554
O12 Sr3 2.587178 1_555
O12 Sr2 2.783125 1_555
O12 Sr1 2.783125 1_455
O13 Si3 1.620367 1_556
O13 Sr2 2.587178 1_555
O13 Sr0 2.783125 1_555
O13 Sr3 2.783125 1_545
