# generated using pymatgen
data_Mn7(PbO5)3
_symmetry_space_group_name_H-M   'P 1'
_cell_length_a   10.27942861
_cell_length_b   10.27942861
_cell_length_c   13.83318200
_cell_angle_alpha   90.00000000
_cell_angle_beta   90.00000000
_cell_angle_gamma   120.70681137
_symmetry_Int_Tables_number   1
_chemical_formula_structural   Mn7(PbO5)3
_chemical_formula_sum   'Mn28 Pb12 O60'
_cell_volume   1256.76252959
_cell_formula_units_Z   4
loop_
 _symmetry_equiv_pos_site_id
 _symmetry_equiv_pos_as_xyz
  1  'x, y, z'
loop_
 _atom_site_type_symbol
 _atom_site_label
 _atom_site_symmetry_multiplicity
 _atom_site_fract_x
 _atom_site_fract_y
 _atom_site_fract_z
 _atom_site_occupancy
  Mn  Mn0  1  0.33482300  0.16907100  0.49990400  1
  Mn  Mn1  1  0.33482300  0.16907100  0.00009600  1
  Mn  Mn2  1  0.66342800  0.33069000  0.35331700  1
  Mn  Mn3  1  0.16620300  0.83379700  0.50000000  1
  Mn  Mn4  1  0.33657200  0.66931000  0.64668300  1
  Mn  Mn5  1  0.66517700  0.83092900  0.50009600  1
  Mn  Mn6  1  0.00000000  0.50000000  0.50000000  1
  Mn  Mn7  1  0.66342800  0.33069000  0.14668300  1
  Mn  Mn8  1  0.66517700  0.83092900  0.99990400  1
  Mn  Mn9  1  0.83379700  0.16620300  0.00000000  1
  Mn  Mn10  1  0.50000000  0.50000000  0.50000000  1
  Mn  Mn11  1  0.50000000  0.50000000  0.00000000  1
  Mn  Mn12  1  0.83092900  0.66517700  0.50009600  1
  Mn  Mn13  1  0.50000000  0.00000000  0.50000000  1
  Mn  Mn14  1  0.33657200  0.66931000  0.85331700  1
  Mn  Mn15  1  0.33069000  0.66342800  0.35331700  1
  Mn  Mn16  1  0.50000000  0.00000000  0.00000000  1
  Mn  Mn17  1  0.00000000  0.00000000  0.00000000  1
  Mn  Mn18  1  0.66931000  0.33657200  0.64668300  1
  Mn  Mn19  1  0.33069000  0.66342800  0.14668300  1
  Mn  Mn20  1  0.16907100  0.33482300  0.49990400  1
  Mn  Mn21  1  0.00000000  0.50000000  0.00000000  1
  Mn  Mn22  1  0.83092900  0.66517700  0.99990400  1
  Mn  Mn23  1  0.66931000  0.33657200  0.85331700  1
  Mn  Mn24  1  0.16620300  0.83379700  0.00000000  1
  Mn  Mn25  1  0.16907100  0.33482300  0.00009600  1
  Mn  Mn26  1  0.83379700  0.16620300  0.50000000  1
  Mn  Mn27  1  0.00000000  0.00000000  0.50000000  1
  Pb  Pb0  1  0.00322800  0.27171300  0.75000000  1
  Pb  Pb1  1  0.26333400  0.26333400  0.25000000  1
  Pb  Pb2  1  0.38721700  0.99730500  0.25000000  1
  Pb  Pb3  1  0.39506900  0.39506900  0.75000000  1
  Pb  Pb4  1  0.73666600  0.73666600  0.75000000  1
  Pb  Pb5  1  0.27171300  0.00322800  0.75000000  1
  Pb  Pb6  1  0.99677200  0.72828700  0.25000000  1
  Pb  Pb7  1  0.00269500  0.61278300  0.75000000  1
  Pb  Pb8  1  0.72828700  0.99677200  0.25000000  1
  Pb  Pb9  1  0.61278300  0.00269500  0.75000000  1
  Pb  Pb10  1  0.99730500  0.38721700  0.25000000  1
  Pb  Pb11  1  0.60493100  0.60493100  0.25000000  1
  O  O0  1  0.48683400  0.33176600  0.92279000  1
  O  O1  1  0.83654400  0.99992800  0.57166600  1
  O  O2  1  0.16280700  0.64511500  0.25000000  1
  O  O3  1  0.35488500  0.83719300  0.75000000  1
  O  O4  1  0.67349200  0.99684100  0.07412600  1
  O  O5  1  0.66823400  0.51316600  0.42279000  1
  O  O6  1  0.81916100  0.46967100  0.25000000  1
  O  O7  1  0.51316600  0.66823400  0.42279000  1
  O  O8  1  0.16345600  0.00007200  0.42833400  1
  O  O9  1  0.46967100  0.81916100  0.25000000  1
  O  O10  1  0.32650800  0.00315900  0.92587400  1
  O  O11  1  0.51316600  0.66823400  0.07721000  1
  O  O12  1  0.32728500  0.32728500  0.07448700  1
  O  O13  1  0.00007200  0.16345600  0.42833400  1
  O  O14  1  0.64511500  0.16280700  0.25000000  1
  O  O15  1  0.32650800  0.00315900  0.57412600  1
  O  O16  1  0.51127500  0.83742400  0.92219400  1
  O  O17  1  0.00007200  0.16345600  0.07166600  1
  O  O18  1  0.53032900  0.18083900  0.75000000  1
  O  O19  1  0.48683400  0.33176600  0.57721000  1
  O  O20  1  0.16345600  0.00007200  0.07166600  1
  O  O21  1  0.65470700  0.48471700  0.75000000  1
  O  O22  1  0.00315900  0.32650800  0.92587400  1
  O  O23  1  0.99992800  0.83654400  0.57166600  1
  O  O24  1  0.83654400  0.99992800  0.92833400  1
  O  O25  1  0.15461100  0.67059800  0.57702900  1
  O  O26  1  0.66823400  0.51316600  0.07721000  1
  O  O27  1  0.99992800  0.83654400  0.92833400  1
  O  O28  1  0.83742400  0.51127500  0.92219400  1
  O  O29  1  0.67059800  0.15461100  0.92297100  1
  O  O30  1  0.16416800  0.16416800  0.57151600  1
  O  O31  1  0.16257600  0.48872500  0.42219400  1
  O  O32  1  0.83742400  0.51127500  0.57780600  1
  O  O33  1  0.33176600  0.48683400  0.92279000  1
  O  O34  1  0.67059800  0.15461100  0.57702900  1
  O  O35  1  0.48872500  0.16257600  0.07780600  1
  O  O36  1  0.18083900  0.53032900  0.75000000  1
  O  O37  1  0.99684100  0.67349200  0.42587400  1
  O  O38  1  0.32940200  0.84538900  0.42297100  1
  O  O39  1  0.84538900  0.32940200  0.42297100  1
  O  O40  1  0.15461100  0.67059800  0.92297100  1
  O  O41  1  0.83583200  0.83583200  0.42848400  1
  O  O42  1  0.67349200  0.99684100  0.42587400  1
  O  O43  1  0.67271500  0.67271500  0.57448700  1
  O  O44  1  0.83719300  0.35488500  0.75000000  1
  O  O45  1  0.48471700  0.65470700  0.75000000  1
  O  O46  1  0.33176600  0.48683400  0.57721000  1
  O  O47  1  0.16416800  0.16416800  0.92848400  1
  O  O48  1  0.83583200  0.83583200  0.07151600  1
  O  O49  1  0.84538900  0.32940200  0.07702900  1
  O  O50  1  0.51528400  0.34529300  0.25000000  1
  O  O51  1  0.32940200  0.84538900  0.07702900  1
  O  O52  1  0.99684100  0.67349200  0.07412600  1
  O  O53  1  0.00315900  0.32650800  0.57412600  1
  O  O54  1  0.48872500  0.16257600  0.42219400  1
  O  O55  1  0.34529300  0.51528400  0.25000000  1
  O  O56  1  0.16257600  0.48872500  0.07780600  1
  O  O57  1  0.32728500  0.32728500  0.42551300  1
  O  O58  1  0.51127500  0.83742400  0.57780600  1
  O  O59  1  0.67271500  0.67271500  0.92551300  1
loop_
_geom_bond_atom_site_label_1
_geom_bond_atom_site_label_2
_geom_bond_distance
_geom_bond_site_symmetry_2
Mn0 O19 1.926993 1_555
Mn0 O54 1.941831 1_555
Mn0 O15 1.954804 1_555
Mn0 O57 1.959258 1_555
Mn0 O30 1.992717 1_555
Mn0 O8 1.993945 1_555
Mn1 O0 1.926993 1_554
Mn1 O35 1.941831 1_555
Mn1 O10 1.954804 1_554
Mn1 O12 1.959258 1_555
Mn1 O47 1.992717 1_554
Mn1 O20 1.993945 1_555
Mn2 O54 1.987398 1_555
Mn2 O6 2.076204 1_555
Mn2 O5 2.085622 1_555
Mn2 O39 2.110088 1_555
Mn2 O50 2.148870 1_555
Mn2 O14 2.173582 1_555
Mn3 O25 1.939012 1_555
Mn3 O38 1.939012 1_555
Mn3 O15 1.966682 1_565
Mn3 O37 1.966682 1_455
Mn3 O23 1.988544 1_455
Mn3 O8 1.988544 1_565
Mn4 O58 1.987398 1_555
Mn4 O36 2.076204 1_555
Mn4 O46 2.085622 1_555
Mn4 O25 2.110088 1_555
Mn4 O45 2.148878 1_555
Mn4 O3 2.173582 1_555
Mn5 O7 1.926993 1_555
Mn5 O58 1.941831 1_555
Mn5 O42 1.954804 1_555
Mn5 O43 1.959258 1_555
Mn5 O41 1.992717 1_555
Mn5 O1 1.993945 1_555
Mn6 O25 1.972353 1_555
Mn6 O39 1.972353 1_455
Mn6 O31 2.040233 1_555
Mn6 O32 2.040233 1_455
Mn6 O53 2.071751 1_555
Mn6 O37 2.071751 1_455
Mn7 O35 1.987398 1_555
Mn7 O6 2.076204 1_555
Mn7 O26 2.085622 1_555
Mn7 O49 2.110088 1_555
Mn7 O50 2.148870 1_555
Mn7 O14 2.173582 1_555
Mn8 O11 1.926993 1_556
Mn8 O16 1.941831 1_555
Mn8 O4 1.954804 1_556
Mn8 O59 1.959258 1_555
Mn8 O48 1.992717 1_556
Mn8 O24 1.993945 1_555
Mn9 O29 1.939012 1_554
Mn9 O49 1.939012 1_555
Mn9 O22 1.966682 1_654
Mn9 O4 1.966682 1_545
Mn9 O24 1.988544 1_544
Mn9 O17 1.988544 1_655
Mn10 O5 1.977546 1_555
Mn10 O19 1.977546 1_555
Mn10 O7 1.977546 1_555
Mn10 O46 1.977546 1_555
Mn10 O43 2.036341 1_555
Mn10 O57 2.036341 1_555
Mn11 O11 1.977546 1_555
Mn11 O26 1.977546 1_555
Mn11 O0 1.977546 1_554
Mn11 O33 1.977546 1_554
Mn11 O59 2.036341 1_554
Mn11 O12 2.036341 1_555
Mn12 O5 1.926993 1_555
Mn12 O32 1.941831 1_555
Mn12 O37 1.954804 1_555
Mn12 O43 1.959258 1_555
Mn12 O41 1.992717 1_555
Mn12 O23 1.993945 1_555
Mn13 O34 1.972353 1_555
Mn13 O38 1.972353 1_545
Mn13 O54 2.040233 1_555
Mn13 O58 2.040233 1_545
Mn13 O15 2.071751 1_555
Mn13 O42 2.071751 1_545
Mn14 O16 1.987398 1_555
Mn14 O36 2.076204 1_555
Mn14 O33 2.085622 1_555
Mn14 O40 2.110088 1_555
Mn14 O45 2.148878 1_555
Mn14 O3 2.173582 1_555
Mn15 O31 1.987398 1_555
Mn15 O9 2.076204 1_555
Mn15 O7 2.085622 1_555
Mn15 O38 2.110088 1_555
Mn15 O55 2.148870 1_555
Mn15 O2 2.173582 1_555
Mn16 O29 1.972353 1_554
Mn16 O51 1.972353 1_545
Mn16 O35 2.040233 1_555
Mn16 O16 2.040233 1_544
Mn16 O4 2.071751 1_545
Mn16 O10 2.071751 1_554
Mn17 O48 1.940595 1_445
Mn17 O47 1.940595 1_554
Mn17 O20 1.950572 1_555
Mn17 O17 1.950572 1_555
Mn17 O27 1.950572 1_444
Mn17 O24 1.950572 1_444
Mn18 O32 1.987398 1_555
Mn18 O18 2.076204 1_555
Mn18 O19 2.085622 1_555
Mn18 O34 2.110088 1_555
Mn18 O21 2.148878 1_555
Mn18 O44 2.173582 1_555
Mn19 O56 1.987398 1_555
Mn19 O9 2.076204 1_555
Mn19 O11 2.085622 1_555
Mn19 O51 2.110088 1_555
Mn19 O55 2.148870 1_555
Mn19 O2 2.173582 1_555
Mn20 O46 1.926993 1_555
Mn20 O31 1.941831 1_555
Mn20 O53 1.954804 1_555
Mn20 O57 1.959258 1_555
Mn20 O30 1.992717 1_555
Mn20 O13 1.993945 1_555
Mn21 O49 1.972353 1_455
Mn21 O40 1.972353 1_554
Mn21 O56 2.040233 1_555
Mn21 O28 2.040233 1_454
Mn21 O52 2.071751 1_455
Mn21 O22 2.071751 1_554
Mn22 O26 1.926993 1_556
Mn22 O28 1.941831 1_555
Mn22 O52 1.954804 1_556
Mn22 O59 1.959258 1_555
Mn22 O48 1.992717 1_556
Mn22 O27 1.993945 1_555
Mn23 O28 1.987398 1_555
Mn23 O18 2.076204 1_555
Mn23 O0 2.085622 1_555
Mn23 O29 2.110088 1_555
Mn23 O21 2.148878 1_555
Mn23 O44 2.173582 1_555
Mn24 O40 1.939012 1_554
Mn24 O51 1.939012 1_555
Mn24 O10 1.966682 1_564
Mn24 O52 1.966682 1_455
Mn24 O27 1.988544 1_454
Mn24 O20 1.988544 1_565
Mn25 O33 1.926993 1_554
Mn25 O56 1.941831 1_555
Mn25 O22 1.954804 1_554
Mn25 O12 1.959258 1_555
Mn25 O47 1.992717 1_554
Mn25 O17 1.993945 1_555
Mn26 O34 1.939012 1_555
Mn26 O39 1.939012 1_555
Mn26 O53 1.966682 1_655
Mn26 O42 1.966682 1_545
Mn26 O1 1.988544 1_545
Mn26 O13 1.988544 1_655
Mn27 O41 1.940595 1_445
Mn27 O30 1.940595 1_555
Mn27 O8 1.950572 1_555
Mn27 O13 1.950572 1_555
Mn27 O23 1.950572 1_445
Mn27 O1 1.950572 1_445
O0 Pb3 2.766468 1_555
O2 Pb6 2.265878 1_455
O2 Pb10 2.305686 1_455
O3 Pb5 2.265878 1_565
O3 Pb9 2.305686 1_565
O4 Pb8 2.497331 1_555
O5 Pb11 2.766468 1_555
O6 Pb6 2.333157 1_555
O6 Pb10 2.378424 1_555
O7 Pb11 2.766468 1_555
O9 Pb8 2.333157 1_555
O9 Pb2 2.378424 1_555
O10 Pb5 2.497331 1_555
O11 Pb11 2.766468 1_555
O12 Pb1 2.513496 1_555
O14 Pb8 2.265878 1_545
O14 Pb2 2.305686 1_545
O15 Pb5 2.497331 1_555
O18 Pb5 2.333157 1_555
O18 Pb9 2.378424 1_555
O19 Pb3 2.766468 1_555
O21 Pb4 2.277919 1_555
O21 Pb3 2.336781 1_555
O22 Pb0 2.497331 1_555
O26 Pb11 2.766468 1_555
O33 Pb3 2.766468 1_555
O36 Pb0 2.333157 1_555
O36 Pb7 2.378424 1_555
O37 Pb6 2.497331 1_555
O42 Pb8 2.497331 1_555
O43 Pb4 2.513496 1_555
O44 Pb0 2.265878 1_655
O44 Pb7 2.305686 1_655
O45 Pb4 2.277919 1_555
O45 Pb3 2.336781 1_555
O46 Pb3 2.766468 1_555
O50 Pb1 2.277929 1_555
O50 Pb11 2.336783 1_555
O52 Pb6 2.497331 1_555
O53 Pb0 2.497331 1_555
O55 Pb1 2.277929 1_555
O55 Pb11 2.336783 1_555
O57 Pb1 2.513496 1_555
O59 Pb4 2.513496 1_555
