# generated using pymatgen
data_SiO2
_symmetry_space_group_name_H-M   'P 1'
_cell_length_a   7.19367919
_cell_length_b   7.19367919
_cell_length_c   12.12717244
_cell_angle_alpha   90.00000000
_cell_angle_beta   90.00000000
_cell_angle_gamma   90.00000000
_symmetry_Int_Tables_number   1
_chemical_formula_structural   SiO2
_chemical_formula_sum   'Si10 O20'
_cell_volume   627.56929264
_cell_formula_units_Z   10
loop_
 _symmetry_equiv_pos_site_id
 _symmetry_equiv_pos_as_xyz
  1  'x, y, z'
loop_
 _atom_site_type_symbol
 _atom_site_label
 _atom_site_symmetry_multiplicity
 _atom_site_fract_x
 _atom_site_fract_y
 _atom_site_fract_z
 _atom_site_occupancy
  Si  Si0  1  0.00000000  0.00000000  -0.00000000  1
  Si  Si1  1  0.50000000  0.50000000  0.50000000  1
  Si  Si2  1  0.20599292  0.00000000  0.78777732  1
  Si  Si3  1  0.00000000  0.79400708  0.21222268  1
  Si  Si4  1  0.00000000  0.20599292  0.21222268  1
  Si  Si5  1  0.79400708  0.00000000  0.78777732  1
  Si  Si6  1  0.70599292  0.50000000  0.28777732  1
  Si  Si7  1  0.50000000  0.29400708  0.71222268  1
  Si  Si8  1  0.50000000  0.70599292  0.71222268  1
  Si  Si9  1  0.29400708  0.50000000  0.28777732  1
  O  O0  1  0.00000000  0.18151903  0.07909274  1
  O  O1  1  0.18151903  0.00000000  0.92090726  1
  O  O2  1  0.81848097  0.00000000  0.92090726  1
  O  O3  1  0.00000000  0.81848097  0.07909274  1
  O  O4  1  0.50000000  0.68151903  0.57909274  1
  O  O5  1  0.68151903  0.50000000  0.42090726  1
  O  O6  1  0.31848097  0.50000000  0.42090726  1
  O  O7  1  0.50000000  0.31848097  0.57909274  1
  O  O8  1  0.00000000  0.00000000  0.73371349  1
  O  O9  1  0.00000000  0.00000000  0.26628651  1
  O  O10  1  0.50000000  0.50000000  0.23371349  1
  O  O11  1  0.50000000  0.50000000  0.76628651  1
  O  O12  1  0.31677150  0.81677150  0.75000000  1
  O  O13  1  0.81677150  0.68322850  0.25000000  1
  O  O14  1  0.18322850  0.31677150  0.25000000  1
  O  O15  1  0.68322850  0.18322850  0.75000000  1
  O  O16  1  0.81677150  0.31677150  0.25000000  1
  O  O17  1  0.18322850  0.68322850  0.25000000  1
  O  O18  1  0.68322850  0.81677150  0.75000000  1
  O  O19  1  0.31677150  0.18322850  0.75000000  1
loop_
_geom_bond_atom_site_label_1
_geom_bond_atom_site_label_2
_geom_bond_distance
_geom_bond_site_symmetry_2
O0 Si0 1.620215 1_555
O0 Si4 1.624061 1_555
O1 Si0 1.620215 1_556
O1 Si2 1.624061 1_555
O2 Si0 1.620215 1_656
O2 Si5 1.624061 1_555
O3 Si0 1.620215 1_565
O3 Si3 1.624061 1_555
O4 Si1 1.620215 1_555
O4 Si8 1.624061 1_555
O5 Si1 1.620215 1_555
O5 Si6 1.624061 1_555
O6 Si1 1.620215 1_555
O6 Si9 1.624061 1_555
O7 Si1 1.620215 1_555
O7 Si7 1.624061 1_555
O8 Si5 1.620412 1_455
O8 Si2 1.620412 1_555
O9 Si4 1.620412 1_555
O9 Si3 1.620412 1_545
O10 Si9 1.620412 1_555
O10 Si6 1.620412 1_555
O11 Si7 1.620412 1_555
O11 Si8 1.620412 1_555
O12 Si8 1.606953 1_555
O12 Si2 1.606953 1_565
O13 Si3 1.606953 1_655
O13 Si6 1.606953 1_555
O14 Si4 1.606953 1_555
O14 Si9 1.606953 1_555
O15 Si5 1.606953 1_555
O15 Si7 1.606953 1_555
O16 Si6 1.606953 1_555
O16 Si4 1.606953 1_655
O17 Si3 1.606953 1_555
O17 Si9 1.606953 1_555
O18 Si8 1.606953 1_555
O18 Si5 1.606953 1_565
O19 Si2 1.606953 1_555
O19 Si7 1.606953 1_555
