# generated using pymatgen
data_DyGaCo
_symmetry_space_group_name_H-M   'P 1'
_cell_length_a   4.39578214
_cell_length_b   6.73157671
_cell_length_c   7.01931936
_cell_angle_alpha   90.00000000
_cell_angle_beta   90.00000000
_cell_angle_gamma   90.00000000
_symmetry_Int_Tables_number   1
_chemical_formula_structural   DyGaCo
_chemical_formula_sum   'Dy4 Ga4 Co4'
_cell_volume   207.70548312
_cell_formula_units_Z   4
loop_
 _symmetry_equiv_pos_site_id
 _symmetry_equiv_pos_as_xyz
  1  'x, y, z'
loop_
 _atom_site_type_symbol
 _atom_site_label
 _atom_site_symmetry_multiplicity
 _atom_site_fract_x
 _atom_site_fract_y
 _atom_site_fract_z
 _atom_site_occupancy
  Dy  Dy0  1  0.25000000  0.19498626  0.52612554  1
  Dy  Dy1  1  0.25000000  0.30501374  0.02612554  1
  Dy  Dy2  1  0.75000000  0.69498626  0.97387446  1
  Dy  Dy3  1  0.75000000  0.80501374  0.47387446  1
  Ga  Ga0  1  0.25000000  0.89007940  0.19370083  1
  Ga  Ga1  1  0.75000000  0.39007940  0.30629917  1
  Ga  Ga2  1  0.25000000  0.60992060  0.69370083  1
  Ga  Ga3  1  0.75000000  0.10992060  0.80629917  1
  Co  Co0  1  0.25000000  0.93753086  0.85042823  1
  Co  Co1  1  0.25000000  0.56246914  0.35042823  1
  Co  Co2  1  0.75000000  0.06246914  0.14957177  1
  Co  Co3  1  0.75000000  0.43753086  0.64957177  1
loop_
_geom_bond_atom_site_label_1
_geom_bond_atom_site_label_2
_geom_bond_distance
_geom_bond_site_symmetry_2
Dy0 Ga1 2.989379 1_555
Dy0 Ga1 2.989379 1_455
Dy0 Ga3 3.004372 1_455
Dy0 Ga3 3.004372 1_555
Dy0 Ga2 3.030735 1_555
Dy0 Ga0 3.107653 1_545
Dy1 Ga3 2.989379 1_554
Dy1 Ga3 2.989379 1_454
Dy1 Ga1 3.004372 1_555
Dy1 Ga1 3.004372 1_455
Dy1 Ga0 3.030735 1_545
Dy1 Ga2 3.107653 1_554
Dy2 Ga0 2.989379 1_556
Dy2 Ga0 2.989379 1_656
Dy2 Ga2 3.004372 1_655
Dy2 Ga2 3.004372 1_555
Dy2 Ga3 3.030735 1_565
Dy2 Ga1 3.107653 1_556
Dy3 Ga2 2.989379 1_655
Dy3 Ga2 2.989379 1_555
Dy3 Ga0 3.004372 1_655
Dy3 Ga0 3.004372 1_555
Dy3 Ga1 3.030735 1_555
Dy3 Ga3 3.107653 1_565
Co0 Ga0 2.430620 1_556
Co0 Ga2 2.464500 1_555
Co0 Ga3 2.504661 1_565
Co0 Ga3 2.504661 1_465
Co0 Dy1 2.764119 1_566
Co0 Dy0 2.861030 1_565
Co0 Dy2 2.871811 1_555
Co0 Dy2 2.871811 1_455
Co1 Ga2 2.430620 1_555
Co1 Ga0 2.464500 1_555
Co1 Ga1 2.504661 1_455
Co1 Ga1 2.504661 1_555
Co1 Dy0 2.764119 1_555
Co1 Dy1 2.861030 1_555
Co1 Dy3 2.871811 1_555
Co1 Dy3 2.871811 1_455
Co2 Ga3 2.430620 1_554
Co2 Ga1 2.464500 1_555
Co2 Ga0 2.504661 1_545
Co2 Ga0 2.504661 1_645
Co2 Dy2 2.764119 1_544
Co2 Dy3 2.861030 1_545
Co2 Dy1 2.871811 1_655
Co2 Dy1 2.871811 1_555
Co3 Ga1 2.430620 1_555
Co3 Ga3 2.464500 1_555
Co3 Ga2 2.504661 1_555
Co3 Ga2 2.504661 1_655
Co3 Dy3 2.764119 1_555
Co3 Dy2 2.861030 1_555
Co3 Dy0 2.871811 1_655
Co3 Dy0 2.871811 1_555
