# generated using pymatgen
data_RhSCl5
_symmetry_space_group_name_H-M   'P 1'
_cell_length_a   6.97717500
_cell_length_b   13.90474183
_cell_length_c   24.27534276
_cell_angle_alpha   87.75553910
_cell_angle_beta   81.88222595
_cell_angle_gamma   75.50330836
_symmetry_Int_Tables_number   1
_chemical_formula_structural   RhSCl5
_chemical_formula_sum   'Rh12 S12 Cl60'
_cell_volume   2257.24618997
_cell_formula_units_Z   12
loop_
 _symmetry_equiv_pos_site_id
 _symmetry_equiv_pos_as_xyz
  1  'x, y, z'
loop_
 _atom_site_type_symbol
 _atom_site_label
 _atom_site_symmetry_multiplicity
 _atom_site_fract_x
 _atom_site_fract_y
 _atom_site_fract_z
 _atom_site_occupancy
  Rh  Rh0  1  0.93689500  0.28187600  0.93777600  1
  Rh  Rh1  1  0.31289200  0.20684400  0.41616700  1
  Rh  Rh2  1  0.06201300  0.70645000  0.91579600  1
  Rh  Rh3  1  0.01778000  0.48828200  0.85218100  1
  Rh  Rh4  1  0.68058500  0.79461700  0.58487500  1
  Rh  Rh5  1  0.15313800  0.21816400  0.56246500  1
  Rh  Rh6  1  0.06535600  0.71766700  0.06203100  1
  Rh  Rh7  1  0.93680800  0.29435000  0.08483000  1
  Rh  Rh8  1  0.35551200  0.01105400  0.64812500  1
  Rh  Rh9  1  0.63992200  0.99040100  0.35250100  1
  Rh  Rh10  1  0.84515600  0.78189900  0.43803600  1
  Rh  Rh11  1  0.98029900  0.51161800  0.14744000  1
  S  S0  1  0.91960000  0.87029100  0.91325600  1
  S  S1  1  0.29616100  0.37061500  0.41442500  1
  S  S2  1  0.75142400  0.48575500  0.21835400  1
  S  S3  1  0.70192900  0.63022900  0.58702300  1
  S  S4  1  0.07938200  0.13042500  0.08745500  1
  S  S5  1  0.72552700  0.25556400  0.88161000  1
  S  S6  1  0.25060500  0.51455200  0.78245200  1
  S  S7  1  0.27581500  0.74313100  0.11904500  1
  S  S8  1  0.54205900  0.98740700  0.71871400  1
  S  S9  1  0.45520300  0.01288300  0.28178700  1
  S  S10  1  0.13868000  0.75700400  0.38171300  1
  S  S11  1  0.86066600  0.24260700  0.61867200  1
  Cl  Cl0  1  0.17151300  0.04240500  0.56774700  1
  Cl  Cl1  1  0.38240200  0.10698000  0.06847300  1
  Cl  Cl2  1  0.93263400  0.91547000  0.83249200  1
  Cl  Cl3  1  0.55822900  0.39203200  0.43364900  1
  Cl  Cl4  1  0.53063300  0.81709800  0.50162800  1
  Cl  Cl5  1  0.43630200  0.60849300  0.56892500  1
  Cl  Cl6  1  0.69115800  0.28815600  0.15999400  1
  Cl  Cl7  1  0.68644600  0.58455900  0.66802200  1
  Cl  Cl8  1  0.15228400  0.31812600  0.00192700  1
  Cl  Cl9  1  0.57951200  0.15474100  0.91757800  1
  Cl  Cl10  1  0.64949400  0.34463100  0.58250500  1
  Cl  Cl11  1  0.37102700  0.84031000  0.64206100  1
  Cl  Cl12  1  0.14513800  0.34043300  0.14201600  1
  Cl  Cl13  1  0.33805000  0.18473300  0.63920700  1
  Cl  Cl14  1  0.21504200  0.54219500  0.06768700  1
  Cl  Cl15  1  0.32934400  0.38777500  0.73479600  1
  Cl  Cl16  1  0.12326100  0.67973100  0.31333400  1
  Cl  Cl17  1  0.90624300  0.88710600  0.05697900  1
  Cl  Cl18  1  0.27689000  0.73472000  0.97871500  1
  Cl  Cl19  1  0.13389500  0.21476800  0.34027400  1
  Cl  Cl20  1  0.82518800  0.95817000  0.43300000  1
  Cl  Cl21  1  0.55587700  0.88770800  0.23384500  1
  Cl  Cl22  1  0.61542200  0.89077400  0.93277600  1
  Cl  Cl23  1  0.31480600  0.41608600  0.33374100  1
  Cl  Cl24  1  0.44759700  0.88886300  0.77409600  1
  Cl  Cl25  1  0.66089000  0.81629200  0.36149000  1
  Cl  Cl26  1  0.83546200  0.68446100  0.13846500  1
  Cl  Cl27  1  0.34896900  0.65500600  0.41762900  1
  Cl  Cl28  1  0.30991800  0.71505000  0.83979500  1
  Cl  Cl29  1  0.62295800  0.16156500  0.35765400  1
  Cl  Cl30  1  0.45010500  0.11417300  0.76564300  1
  Cl  Cl31  1  0.77447800  0.47259200  0.08409100  1
  Cl  Cl32  1  0.85066100  0.61299800  0.44221700  1
  Cl  Cl33  1  0.04843000  0.04366200  0.70550900  1
  Cl  Cl34  1  0.00876800  0.23575800  0.47872500  1
  Cl  Cl35  1  0.10054700  0.11194300  0.94282000  1
  Cl  Cl36  1  0.16383500  0.31607700  0.86178500  1
  Cl  Cl37  1  0.11866300  0.82040900  0.18691200  1
  Cl  Cl38  1  0.11645700  0.61404700  0.72753400  1
  Cl  Cl39  1  0.66467300  0.97278600  0.58460400  1
  Cl  Cl40  1  0.06192400  0.08750900  0.16871600  1
  Cl  Cl41  1  0.85080800  0.68139100  0.99785600  1
  Cl  Cl42  1  0.88594500  0.38571700  0.27265500  1
  Cl  Cl43  1  0.85640300  0.78838400  0.66174700  1
  Cl  Cl44  1  0.78396000  0.45645500  0.93222800  1
  Cl  Cl45  1  0.22478700  0.52821800  0.91597900  1
  Cl  Cl46  1  0.80237900  0.45748900  0.79381200  1
  Cl  Cl47  1  0.98929400  0.76477600  0.52238300  1
  Cl  Cl48  1  0.46893700  0.18188500  0.49879200  1
  Cl  Cl49  1  0.14950200  0.38720600  0.55864500  1
  Cl  Cl50  1  0.88161900  0.18003700  0.81317200  1
  Cl  Cl51  1  0.42064900  0.84477700  0.08223800  1
  Cl  Cl52  1  0.33074900  0.02812600  0.41536900  1
  Cl  Cl53  1  0.67420900  0.61171600  0.26636700  1
  Cl  Cl54  1  0.87455000  0.31979600  0.68695300  1
  Cl  Cl55  1  0.94856500  0.95981100  0.29525400  1
  Cl  Cl56  1  0.54044000  0.11509300  0.22699200  1
  Cl  Cl57  1  0.85607500  0.66080800  0.85743900  1
  Cl  Cl58  1  0.20130400  0.54340200  0.20518700  1
  Cl  Cl59  1  0.72621800  0.26250700  0.02148900  1
loop_
_geom_bond_atom_site_label_1
_geom_bond_atom_site_label_2
_geom_bond_distance
_geom_bond_site_symmetry_2
Rh0 S5 2.246065 1_555
Rh1 S1 2.249842 1_555
Rh2 S0 2.248146 1_455
Rh3 S6 2.260442 1_555
Rh4 S3 2.252130 1_555
Rh5 S11 2.245917 1_455
Rh6 S7 2.251619 1_555
Rh7 S4 2.249520 1_655
Rh8 S8 2.260536 1_545
Rh9 S9 2.255346 1_565
Rh10 S10 2.252722 1_655
Rh11 S2 2.259536 1_555
Cl0 Rh5 2.414266 1_555
Cl0 Rh8 2.450711 1_555
Cl1 S4 2.044533 1_555
Cl2 S0 2.031880 1_555
Cl3 S1 2.043120 1_555
Cl4 Rh4 2.379089 1_555
Cl4 Rh10 2.450119 1_555
Cl5 S3 2.059117 1_555
Cl6 Rh7 2.335099 1_555
Cl7 S3 2.039053 1_555
Cl8 Rh7 2.400404 1_455
Cl8 Rh0 2.457497 1_454
Cl9 S5 2.033122 1_555
Cl10 S11 2.043403 1_555
Cl11 Rh4 2.351808 1_555
Cl11 Rh8 2.358853 1_565
Cl12 Rh7 2.357198 1_455
Cl12 Rh11 2.370032 1_455
Cl13 Rh5 2.379464 1_555
Cl13 Rh8 2.390177 1_555
Cl14 Rh6 2.408564 1_555
Cl14 Rh11 2.449520 1_455
Cl15 S6 2.059858 1_555
Cl16 S10 2.041908 1_555
Cl17 Rh6 2.346190 1_655
Cl18 Rh6 2.370602 1_556
Cl18 Rh2 2.392466 1_555
Cl19 Rh1 2.351821 1_555
Cl20 Rh10 2.419122 1_555
Cl20 Rh9 2.458693 1_555
Cl21 S9 2.047677 1_565
Cl22 S0 2.057611 1_555
Cl23 S1 2.031044 1_555
Cl24 S8 2.043762 1_555
Cl25 Rh10 2.373124 1_555
Cl25 Rh9 2.391713 1_555
Cl26 Rh11 2.376964 1_555
Cl26 Rh6 2.385777 1_655
Cl27 S10 2.036414 1_555
Cl28 Rh2 2.365366 1_555
Cl29 Rh9 2.360534 1_545
Cl29 Rh1 2.369497 1_555
Cl30 S8 2.049649 1_545
Cl31 Rh11 2.408480 1_555
Cl31 Rh7 2.454085 1_555
Cl32 Rh10 2.337652 1_555
Cl33 Rh8 2.335993 1_555
Cl34 Rh5 2.371245 1_555
Cl34 Rh1 2.383499 1_555
Cl35 Rh0 2.359665 1_455
Cl36 Rh0 2.370573 1_455
Cl36 Rh3 2.372348 1_555
Cl37 S7 2.027251 1_555
Cl38 S6 2.031488 1_555
Cl39 Rh8 2.421589 1_565
Cl39 Rh4 2.451750 1_555
Cl40 S4 2.034346 1_555
Cl41 Rh2 2.373777 1_655
Cl41 Rh6 2.453649 1_656
Cl42 S2 2.026219 1_555
Cl43 Rh4 2.361196 1_555
Cl44 Rh0 2.401574 1_555
Cl44 Rh3 2.456021 1_655
Cl45 Rh3 2.427670 1_555
Cl45 Rh2 2.454203 1_555
Cl46 Rh3 2.328256 1_655
Cl47 Rh10 2.384120 1_555
Cl47 Rh4 2.406640 1_555
Cl48 Rh1 2.387865 1_555
Cl48 Rh5 2.457902 1_555
Cl49 Rh5 2.342597 1_555
Cl50 S5 2.025375 1_555
Cl51 S7 2.044077 1_555
Cl52 Rh9 2.413302 1_545
Cl52 Rh1 2.457507 1_555
Cl53 S2 2.055835 1_555
Cl54 S11 2.036060 1_555
Cl55 Rh9 2.343520 1_555
Cl56 S9 2.048053 1_555
Cl57 Rh2 2.361362 1_655
Cl57 Rh3 2.381671 1_655
Cl58 Rh11 2.353371 1_455
Cl59 Rh0 2.382147 1_554
Cl59 Rh7 2.395064 1_555
