# generated using pymatgen
data_SiO2
_symmetry_space_group_name_H-M   'P 1'
_cell_length_a   13.08069181
_cell_length_b   21.58936709
_cell_length_c   5.24156576
_cell_angle_alpha   90.00000000
_cell_angle_beta   90.00000000
_cell_angle_gamma   90.00000000
_symmetry_Int_Tables_number   1
_chemical_formula_structural   SiO2
_chemical_formula_sum   'Si24 O48'
_cell_volume   1480.23838880
_cell_formula_units_Z   24
loop_
 _symmetry_equiv_pos_site_id
 _symmetry_equiv_pos_as_xyz
  1  'x, y, z'
loop_
 _atom_site_type_symbol
 _atom_site_label
 _atom_site_symmetry_multiplicity
 _atom_site_fract_x
 _atom_site_fract_y
 _atom_site_fract_z
 _atom_site_occupancy
  Si  Si0  1  0.61987256  0.03982965  0.75000000  1
  Si  Si1  1  0.61987256  0.96017035  0.25000000  1
  Si  Si2  1  0.38012744  0.03982965  0.75000000  1
  Si  Si3  1  0.38012744  0.96017035  0.25000000  1
  Si  Si4  1  0.11987256  0.53982965  0.75000000  1
  Si  Si5  1  0.11987256  0.46017035  0.25000000  1
  Si  Si6  1  0.88012744  0.53982965  0.75000000  1
  Si  Si7  1  0.88012744  0.46017035  0.25000000  1
  Si  Si8  1  0.31017150  0.17598203  0.75000000  1
  Si  Si9  1  0.31017150  0.82401797  0.25000000  1
  Si  Si10  1  0.68982850  0.17598203  0.75000000  1
  Si  Si11  1  0.68982850  0.82401797  0.25000000  1
  Si  Si12  1  0.81017150  0.67598203  0.75000000  1
  Si  Si13  1  0.81017150  0.32401797  0.25000000  1
  Si  Si14  1  0.18982850  0.67598203  0.75000000  1
  Si  Si15  1  0.18982850  0.32401797  0.25000000  1
  Si  Si16  1  0.61514551  0.24354716  0.25000000  1
  Si  Si17  1  0.61514551  0.75645284  0.75000000  1
  Si  Si18  1  0.38485449  0.24354716  0.25000000  1
  Si  Si19  1  0.38485449  0.75645284  0.75000000  1
  Si  Si20  1  0.11514551  0.74354716  0.25000000  1
  Si  Si21  1  0.11514551  0.25645284  0.75000000  1
  Si  Si22  1  0.88485449  0.74354716  0.25000000  1
  Si  Si23  1  0.88485449  0.25645284  0.75000000  1
  O  O0  1  0.68815116  0.10166298  0.75000000  1
  O  O1  1  0.68815116  0.89833702  0.25000000  1
  O  O2  1  0.31184884  0.10166298  0.75000000  1
  O  O3  1  0.31184884  0.89833702  0.25000000  1
  O  O4  1  0.18815116  0.60166298  0.75000000  1
  O  O5  1  0.18815116  0.39833702  0.25000000  1
  O  O6  1  0.81184884  0.60166298  0.75000000  1
  O  O7  1  0.81184884  0.39833702  0.25000000  1
  O  O8  1  0.64668331  0.00000000  0.50000000  1
  O  O9  1  0.35331669  0.00000000  -0.00000000  1
  O  O10  1  0.35331669  0.00000000  0.50000000  1
  O  O11  1  0.64668331  0.00000000  -0.00000000  1
  O  O12  1  0.14668331  0.50000000  0.50000000  1
  O  O13  1  0.85331669  0.50000000  -0.00000000  1
  O  O14  1  0.85331669  0.50000000  0.50000000  1
  O  O15  1  0.14668331  0.50000000  -0.00000000  1
  O  O16  1  0.50000000  0.05851443  0.75000000  1
  O  O17  1  0.50000000  0.94148557  0.25000000  1
  O  O18  1  0.00000000  0.55851443  0.75000000  1
  O  O19  1  0.00000000  0.44148557  0.25000000  1
  O  O20  1  0.36763272  0.20137985  0.00042452  1
  O  O21  1  0.36763272  0.79862015  0.99957548  1
  O  O22  1  0.63236728  0.20137985  0.49957548  1
  O  O23  1  0.63236728  0.79862015  0.50042452  1
  O  O24  1  0.63236728  0.79862015  0.99957548  1
  O  O25  1  0.63236728  0.20137985  0.00042452  1
  O  O26  1  0.36763272  0.79862015  0.50042452  1
  O  O27  1  0.36763272  0.20137985  0.49957548  1
  O  O28  1  0.86763272  0.70137985  0.00042452  1
  O  O29  1  0.86763272  0.29862015  0.99957548  1
  O  O30  1  0.13236728  0.70137985  0.49957548  1
  O  O31  1  0.13236728  0.29862015  0.50042452  1
  O  O32  1  0.13236728  0.29862015  0.99957548  1
  O  O33  1  0.13236728  0.70137985  0.00042452  1
  O  O34  1  0.86763272  0.29862015  0.50042452  1
  O  O35  1  0.86763272  0.70137985  0.49957548  1
  O  O36  1  0.19248798  0.19839296  0.75000000  1
  O  O37  1  0.19248798  0.80160704  0.25000000  1
  O  O38  1  0.80751202  0.19839296  0.75000000  1
  O  O39  1  0.80751202  0.80160704  0.25000000  1
  O  O40  1  0.69248798  0.69839296  0.75000000  1
  O  O41  1  0.69248798  0.30160704  0.25000000  1
  O  O42  1  0.30751202  0.69839296  0.75000000  1
  O  O43  1  0.30751202  0.30160704  0.25000000  1
  O  O44  1  0.50000000  0.26983244  0.25000000  1
  O  O45  1  0.50000000  0.73016756  0.75000000  1
  O  O46  1  0.00000000  0.76983244  0.25000000  1
  O  O47  1  0.00000000  0.23016756  0.75000000  1
loop_
_geom_bond_atom_site_label_1
_geom_bond_atom_site_label_2
_geom_bond_distance
_geom_bond_site_symmetry_2
O0 Si10 1.604651 1_555
O0 Si0 1.606162 1_555
O1 Si11 1.604651 1_555
O1 Si1 1.606162 1_555
O2 Si8 1.604651 1_555
O2 Si2 1.606162 1_555
O3 Si9 1.604651 1_555
O3 Si3 1.606162 1_555
O4 Si14 1.604651 1_555
O4 Si4 1.606162 1_555
O5 Si15 1.604651 1_555
O5 Si5 1.606162 1_555
O6 Si12 1.604651 1_555
O6 Si6 1.606162 1_555
O7 Si13 1.604651 1_555
O7 Si7 1.606162 1_555
O8 Si0 1.606095 1_555
O8 Si1 1.606095 1_545
O9 Si2 1.606095 1_554
O9 Si3 1.606095 1_545
O10 Si2 1.606095 1_555
O10 Si3 1.606095 1_545
O11 Si0 1.606095 1_554
O11 Si1 1.606095 1_545
O12 Si5 1.606095 1_555
O12 Si4 1.606095 1_555
O13 Si7 1.606095 1_555
O13 Si6 1.606095 1_554
O14 Si7 1.606095 1_555
O14 Si6 1.606095 1_555
O15 Si5 1.606095 1_555
O15 Si4 1.606095 1_554
O16 Si0 1.619074 1_555
O16 Si2 1.619074 1_555
O17 Si1 1.619074 1_555
O17 Si3 1.619074 1_555
O18 Si4 1.619074 1_555
O18 Si6 1.619074 1_455
O19 Si5 1.619074 1_555
O19 Si7 1.619074 1_455
O20 Si8 1.608904 1_554
O20 Si18 1.609600 1_555
O21 Si9 1.608904 1_556
O21 Si19 1.609600 1_555
O22 Si10 1.608904 1_555
O22 Si16 1.609600 1_555
O23 Si11 1.608904 1_555
O23 Si17 1.609600 1_555
O24 Si11 1.608904 1_556
O24 Si17 1.609600 1_555
O25 Si10 1.608904 1_554
O25 Si16 1.609600 1_555
O26 Si9 1.608904 1_555
O26 Si19 1.609600 1_555
O27 Si8 1.608904 1_555
O27 Si18 1.609600 1_555
O28 Si12 1.608904 1_554
O28 Si22 1.609600 1_555
O29 Si13 1.608904 1_556
O29 Si23 1.609600 1_555
O30 Si14 1.608904 1_555
O30 Si20 1.609600 1_555
O31 Si15 1.608904 1_555
O31 Si21 1.609600 1_555
O32 Si15 1.608904 1_556
O32 Si21 1.609600 1_555
O33 Si14 1.608904 1_554
O33 Si20 1.609600 1_555
O34 Si13 1.608904 1_555
O34 Si23 1.609600 1_555
O35 Si12 1.608904 1_555
O35 Si22 1.609600 1_555
O36 Si21 1.610815 1_555
O36 Si8 1.613628 1_555
O37 Si20 1.610815 1_555
O37 Si9 1.613628 1_555
O38 Si23 1.610815 1_555
O38 Si10 1.613628 1_555
O39 Si22 1.610815 1_555
O39 Si11 1.613628 1_555
O40 Si17 1.610815 1_555
O40 Si12 1.613628 1_555
O41 Si16 1.610815 1_555
O41 Si13 1.613628 1_555
O42 Si19 1.610815 1_555
O42 Si14 1.613628 1_555
O43 Si18 1.610815 1_555
O43 Si15 1.613628 1_555
O44 Si16 1.609541 1_555
O44 Si18 1.609541 1_555
O45 Si17 1.609541 1_555
O45 Si19 1.609541 1_555
O46 Si22 1.609541 1_455
O46 Si20 1.609541 1_555
O47 Si23 1.609541 1_455
O47 Si21 1.609541 1_555
