# generated using pymatgen
data_Sr3La7Ti2Mn8O30
_symmetry_space_group_name_H-M   'P 1'
_cell_length_a   5.56607000
_cell_length_b   9.68314054
_cell_length_c   12.46835613
_cell_angle_alpha   75.36682485
_cell_angle_beta   77.75050682
_cell_angle_gamma   73.64936261
_symmetry_Int_Tables_number   1
_chemical_formula_structural   Sr3La7Ti2Mn8O30
_chemical_formula_sum   'Sr3 La7 Ti2 Mn8 O30'
_cell_volume   616.67091909
_cell_formula_units_Z   1
loop_
 _symmetry_equiv_pos_site_id
 _symmetry_equiv_pos_as_xyz
  1  'x, y, z'
loop_
 _atom_site_type_symbol
 _atom_site_label
 _atom_site_symmetry_multiplicity
 _atom_site_fract_x
 _atom_site_fract_y
 _atom_site_fract_z
 _atom_site_occupancy
  Sr  Sr0  1  0.20025000  0.14976600  0.44895300  1
  Sr  Sr1  1  0.39821600  0.54969500  0.65104100  1
  Sr  Sr2  1  0.60023000  0.94990700  0.85157300  1
  La  La0  1  0.80189700  0.34908200  0.04840100  1
  La  La1  1  0.40043500  0.05044600  0.14953400  1
  La  La2  1  0.00082200  0.75035000  0.25040600  1
  La  La3  1  0.00240000  0.25247400  0.75154900  1
  La  La4  1  0.60010000  0.45041400  0.34955200  1
  La  La5  1  0.20158800  0.64921800  0.94994000  1
  La  La6  1  0.79964700  0.84692200  0.54773400  1
  Ti  Ti0  1  0.60157400  0.20162800  0.59967900  1
  Ti  Ti1  1  0.19951400  0.89848200  0.70056500  1
  Mn  Mn0  1  0.00115900  0.99868100  0.00026900  1
  Mn  Mn1  1  0.19909200  0.39983100  0.20068900  1
  Mn  Mn2  1  0.80138600  0.60022900  0.79931600  1
  Mn  Mn3  1  0.79929400  0.09959700  0.30019400  1
  Mn  Mn4  1  0.39988500  0.80096000  0.39986000  1
  Mn  Mn5  1  0.40113100  0.30033000  0.89946800  1
  Mn  Mn6  1  0.00236100  0.49871200  0.49956300  1
  Mn  Mn7  1  0.59903600  0.70020700  0.09966900  1
  O  O0  1  0.45181900  0.02469200  0.63715500  1
  O  O1  1  0.04774300  0.22513500  0.23259300  1
  O  O2  1  0.92763600  0.05989900  0.63099000  1
  O  O3  1  0.90986600  0.01539200  0.16157100  1
  O  O4  1  0.68337800  0.18930000  0.44027100  1
  O  O5  1  0.65119600  0.42496800  0.84221000  1
  O  O6  1  0.53658700  0.26343200  0.22461900  1
  O  O7  1  0.66588100  0.14067600  0.97828800  1
  O  O8  1  0.51184800  0.21997900  0.75818900  1
  O  O9  1  0.29074900  0.38706300  0.03642200  1
  O  O10  1  0.24425400  0.62670600  0.43468500  1
  O  O11  1  0.12770800  0.45702700  0.83328100  1
  O  O12  1  0.26806800  0.33092500  0.57718900  1
  O  O13  1  0.15042000  0.17270900  0.96396500  1
  O  O14  1  0.10666000  0.42359200  0.35965300  1
  O  O15  1  0.88662200  0.58714000  0.63766300  1
  O  O16  1  0.85669100  0.82287000  0.04083300  1
  O  O17  1  0.73339700  0.66287900  0.42646800  1
  O  O18  1  0.86171800  0.53577400  0.17433100  1
  O  O19  1  0.75707400  0.36624000  0.56054300  1
  O  O20  1  0.71214100  0.61380500  0.96110300  1
  O  O21  1  0.48866600  0.78511400  0.23964200  1
  O  O22  1  0.32727200  0.86025800  0.03299100  1
  O  O23  1  0.45349400  0.74321000  0.77499400  1
  O  O24  1  0.35090500  0.57311200  0.16165300  1
  O  O25  1  0.30707400  0.82404200  0.56095900  1
  O  O26  1  0.09223700  0.99020500  0.83266100  1
  O  O27  1  0.05926300  0.93329500  0.37167900  1
  O  O28  1  0.96440100  0.77360000  0.75828900  1
  O  O29  1  0.56521500  0.97003000  0.35715500  1
loop_
_geom_bond_atom_site_label_1
_geom_bond_atom_site_label_2
_geom_bond_distance
_geom_bond_site_symmetry_2
La0 O13 2.442290 1_654
La0 O6 2.467409 1_555
La0 O20 2.470849 1_554
La0 O7 2.728037 1_554
La0 O5 2.732479 1_554
La0 O1 2.757426 1_655
La0 O9 2.795624 1_555
La0 O18 2.799843 1_555
La0 O9 2.815057 1_655
La0 O11 3.026900 1_654
La0 O3 3.123386 1_555
La0 O24 3.158927 1_555
La1 O1 2.437285 1_555
La1 O7 2.439435 1_554
La1 O21 2.483893 1_545
La1 O22 2.773868 1_545
La1 O29 2.781330 1_545
La1 O13 2.783204 1_554
La1 O3 2.791219 1_555
La1 O6 2.803695 1_555
La1 O3 2.813503 1_455
La2 O24 2.475613 1_555
La2 O17 2.477058 1_455
La2 O3 2.477877 1_465
La2 O27 2.723395 1_555
La2 O10 2.750700 1_555
La2 O16 2.758600 1_455
La2 O21 2.800314 1_555
La2 O21 2.803039 1_455
La2 O18 2.833638 1_455
La2 O22 3.053480 1_555
La2 O14 3.054026 1_555
La2 O29 3.054909 1_455
La3 O12 2.433889 1_555
La3 O26 2.433978 1_545
La3 O5 2.463113 1_455
La3 O11 2.747267 1_555
La3 O8 2.780417 1_555
La3 O13 2.797118 1_555
La3 O8 2.817062 1_455
La3 O19 2.820864 1_455
La3 O2 2.833463 1_455
La4 O18 2.447849 1_555
La4 O4 2.450454 1_555
La4 O10 2.466480 1_555
La4 O14 2.784784 1_655
La4 O19 2.799891 1_555
La4 O6 2.801547 1_555
La4 O17 2.803751 1_555
La4 O14 2.804464 1_555
La4 O24 2.805141 1_555
La5 O23 2.443346 1_555
La5 O9 2.446971 1_556
La5 O16 2.453422 1_456
La5 O11 2.792950 1_555
La5 O24 2.793766 1_556
La5 O20 2.794227 1_555
La5 O28 2.809422 1_455
La5 O20 2.810642 1_455
La5 O22 2.814099 1_556
La6 O15 2.436996 1_555
La6 O27 2.452146 1_655
La6 O0 2.476247 1_565
La6 O17 2.750644 1_555
La6 O25 2.779365 1_555
La6 O29 2.789048 1_555
La6 O25 2.807173 1_655
La6 O28 2.819634 1_555
La6 O2 2.839146 1_565
Mn0 O22 1.981408 1_555
Mn0 O16 1.990909 1_455
Mn0 O13 1.994511 1_564
Mn0 O3 2.003417 1_465
Mn0 O7 2.007535 1_464
Mn0 O26 2.060258 1_554
Mn1 O14 1.994265 1_555
Mn1 O24 1.994347 1_555
Mn1 O6 2.001024 1_555
Mn1 O18 2.004655 1_455
Mn1 O1 2.012359 1_555
Mn1 O9 2.029648 1_555
Mn2 O15 1.998256 1_555
Mn2 O20 2.001304 1_555
Mn2 O11 2.003205 1_655
Mn2 O5 2.003849 1_555
Mn2 O28 2.032247 1_555
Mn2 O23 2.070271 1_555
Mn3 O29 1.963033 1_545
Mn3 O27 1.997882 1_645
Mn3 O3 2.002274 1_555
Mn3 O1 2.008649 1_655
Mn3 O6 2.016469 1_555
Mn3 O4 2.047907 1_555
Mn4 O21 1.987877 1_555
Mn4 O17 1.995888 1_555
Mn4 O29 2.002602 1_555
Mn4 O27 2.011803 1_555
Mn4 O25 2.018159 1_555
Mn4 O10 2.019694 1_555
Mn5 O11 1.974732 1_555
Mn5 O9 1.996894 1_556
Mn5 O5 1.998095 1_555
Mn5 O8 2.012451 1_555
Mn5 O7 2.022759 1_555
Mn5 O13 2.028252 1_555
Mn6 O14 1.970498 1_555
Mn6 O10 1.993493 1_555
Mn6 O15 2.019092 1_455
Mn6 O17 2.026295 1_455
Mn6 O19 2.034773 1_455
Mn6 O12 2.055170 1_555
Mn7 O22 1.985922 1_555
Mn7 O24 2.010677 1_555
Mn7 O20 2.013320 1_554
Mn7 O18 2.014314 1_555
Mn7 O16 2.019416 1_555
Mn7 O21 2.021101 1_555
O0 Ti0 2.020600 1_555
O0 Ti1 2.024300 1_545
O0 Sr0 2.817343 1_555
O0 Sr2 2.824219 1_545
O1 Sr0 2.856343 1_555
O2 Ti0 1.989283 1_555
O2 Ti1 2.006454 1_645
O2 Sr0 2.548595 1_655
O2 Sr2 3.083105 1_545
O4 Ti0 1.969062 1_555
O4 Sr0 2.797283 1_555
O4 Sr0 2.815353 1_655
O5 Sr1 2.852188 1_555
O6 Sr0 3.149980 1_555
O7 Sr2 2.853358 1_545
O8 Ti0 1.973735 1_555
O8 Sr2 2.533166 1_545
O8 Sr1 3.073207 1_555
O10 Sr1 2.858724 1_555
O11 Sr1 2.552255 1_555
O12 Ti0 1.956274 1_555
O12 Sr0 2.796817 1_555
O12 Sr1 2.827163 1_555
O13 Sr2 3.143911 1_545
O14 Sr0 2.553097 1_555
O15 Sr1 2.803142 1_655
O15 Sr1 2.807408 1_555
O16 Sr2 2.844895 1_554
O17 Sr1 3.147393 1_555
O19 Ti0 1.931970 1_555
O19 Sr1 2.545032 1_555
O19 Sr0 3.085528 1_655
O20 Sr2 3.133506 1_555
O22 Sr2 2.543732 1_554
O23 Ti1 1.942997 1_555
O23 Sr2 2.793118 1_555
O23 Sr1 2.825611 1_555
O25 Ti1 1.963836 1_555
O25 Sr1 2.559593 1_555
O25 Sr0 3.053311 1_565
O26 Ti1 1.970090 1_555
O26 Sr2 2.796066 1_555
O26 Sr2 2.826420 1_455
O27 Sr0 2.864474 1_565
O28 Ti1 1.935057 1_655
O28 Sr2 2.535855 1_555
O28 Sr1 3.076758 1_655
O29 Sr0 2.548529 1_565
