# generated using pymatgen
data_CuReO4
_symmetry_space_group_name_H-M   'P 1'
_cell_length_a   7.80441593
_cell_length_b   10.55301272
_cell_length_c   10.55217157
_cell_angle_alpha   82.20431131
_cell_angle_beta   68.26383068
_cell_angle_gamma   68.35273059
_symmetry_Int_Tables_number   1
_chemical_formula_structural   CuReO4
_chemical_formula_sum   'Cu8 Re8 O32'
_cell_volume   750.34924303
_cell_formula_units_Z   8
loop_
 _symmetry_equiv_pos_site_id
 _symmetry_equiv_pos_as_xyz
  1  'x, y, z'
loop_
 _atom_site_type_symbol
 _atom_site_label
 _atom_site_symmetry_multiplicity
 _atom_site_fract_x
 _atom_site_fract_y
 _atom_site_fract_z
 _atom_site_occupancy
  Cu  Cu0  1  0.68377100  0.72071200  0.04384300  1
  Cu  Cu1  1  0.47522500  0.22258200  0.45600300  1
  Cu  Cu2  1  0.94903800  0.95602500  0.27905000  1
  Cu  Cu3  1  0.15629300  0.77750000  0.54780700  1
  Cu  Cu4  1  0.44863500  0.27890000  0.95413900  1
  Cu  Cu5  1  0.18182400  0.05031100  0.72303700  1
  Cu  Cu6  1  0.65377700  0.54580700  0.77710100  1
  Cu  Cu7  1  0.97846500  0.45225100  0.22430600  1
  Re  Re0  1  0.35104600  0.54637300  0.25934800  1
  Re  Re1  1  0.85019500  0.25703700  0.54625100  1
  Re  Re2  1  0.36048400  0.04632300  0.24042300  1
  Re  Re3  1  0.85744000  0.24207100  0.04691700  1
  Re  Re4  1  0.64765600  0.95448200  0.75817500  1
  Re  Re5  1  0.65542200  0.74225100  0.45435800  1
  Re  Re6  1  0.14705500  0.75806600  0.95478200  1
  Re  Re7  1  0.15316900  0.45473000  0.74296400  1
  O  O0  1  0.20474800  0.60371000  0.67356600  1
  O  O1  1  0.10958900  0.88907400  0.83419600  1
  O  O2  1  0.63957000  0.31634000  0.00626300  1
  O  O3  1  0.96411700  0.68217200  0.99544000  1
  O  O4  1  0.89426400  0.49603500  0.81881400  1
  O  O5  1  0.26788500  0.38424200  0.86504500  1
  O  O6  1  0.20632100  0.50598400  0.18566200  1
  O  O7  1  0.19329900  0.66578600  0.39177700  1
  O  O8  1  0.24410800  0.33563400  0.61048300  1
  O  O9  1  0.48131000  0.39671100  0.32816100  1
  O  O10  1  0.14114200  0.00723500  0.31506200  1
  O  O11  1  0.46287300  0.99662500  0.68397100  1
  O  O12  1  0.51707600  0.61655400  0.13605100  1
  O  O13  1  0.12562300  0.82890600  0.10412700  1
  O  O14  1  0.69225300  0.39016300  0.66503200  1
  O  O15  1  0.05744900  0.17344300  0.89702200  1
  O  O16  1  0.63079800  0.10371500  0.82665100  1
  O  O17  1  0.98089800  0.32556200  0.39622300  1
  O  O18  1  0.77099500  0.86383100  0.38292800  1
  O  O19  1  0.83073900  0.10973200  0.16592900  1
  O  O20  1  0.39701100  0.81863200  0.49428700  1
  O  O21  1  0.88384700  0.88279000  0.63529900  1
  O  O22  1  0.90031900  0.36478200  0.11787700  1
  O  O23  1  0.70671000  0.18207500  0.50584700  1
  O  O24  1  0.33443800  0.16562500  0.10823200  1
  O  O25  1  0.74717200  0.60913100  0.33607600  1
  O  O26  1  0.01577200  0.13440200  0.61690500  1
  O  O27  1  0.55875400  0.89638900  0.17110200  1
  O  O28  1  0.40431100  0.11617700  0.36340000  1
  O  O29  1  0.38396000  0.63506900  0.88668600  1
  O  O30  1  0.60674100  0.83587300  0.89084300  1
  O  O31  1  0.70348000  0.67401600  0.60475400  1
loop_
_geom_bond_atom_site_label_1
_geom_bond_atom_site_label_2
_geom_bond_distance
_geom_bond_site_symmetry_2
Cu0 O12 1.916960 1_555
Cu0 O3 1.945633 1_554
Cu0 O30 2.022989 1_554
Cu0 O27 2.136040 1_555
Cu1 O28 1.918008 1_555
Cu1 O23 1.948388 1_555
Cu1 O8 2.023906 1_555
Cu1 O9 2.131491 1_555
Cu2 O18 1.912813 1_555
Cu2 O10 1.938994 1_665
Cu2 O19 2.023481 1_565
Cu2 O13 2.128274 1_655
Cu3 O21 1.920753 1_455
Cu3 O20 1.945774 1_555
Cu3 O7 2.026634 1_555
Cu3 O0 2.113613 1_555
Cu4 O5 1.910857 1_555
Cu4 O2 1.944100 1_556
Cu4 O24 2.013100 1_556
Cu4 O16 2.137230 1_555
Cu5 O26 1.917830 1_555
Cu5 O11 1.943923 1_545
Cu5 O1 2.065284 1_545
Cu5 O15 2.097132 1_555
Cu6 O29 1.920219 1_555
Cu6 O4 1.952967 1_555
Cu6 O14 2.021516 1_555
Cu6 O31 2.117941 1_555
Cu7 O22 1.920712 1_555
Cu7 O6 1.947884 1_655
Cu7 O25 2.034284 1_555
Cu7 O17 2.104180 1_555
O0 Re7 1.762480 1_555
O1 Re6 1.765244 1_555
O2 Re3 1.776325 1_555
O3 Re6 1.777824 1_655
O4 Re7 1.777761 1_655
O5 Re7 1.765593 1_555
O6 Re0 1.776956 1_555
O7 Re0 1.765028 1_555
O8 Re7 1.766715 1_555
O9 Re0 1.762465 1_555
O10 Re2 1.776256 1_555
O11 Re4 1.777449 1_555
O12 Re0 1.765852 1_555
O13 Re6 1.761381 1_554
O14 Re1 1.766308 1_555
O15 Re3 1.763782 1_456
O16 Re4 1.762106 1_545
O17 Re1 1.762755 1_555
O18 Re5 1.765160 1_555
O19 Re3 1.765236 1_555
O20 Re5 1.777058 1_555
O21 Re4 1.765903 1_555
O22 Re3 1.765779 1_555
O23 Re1 1.777709 1_555
O24 Re2 1.765481 1_555
O25 Re5 1.765115 1_555
O26 Re1 1.765947 1_455
O27 Re2 1.761327 1_565
O28 Re2 1.765974 1_555
O29 Re6 1.765782 1_555
O30 Re4 1.765479 1_555
O31 Re5 1.763341 1_555
