# generated using pymatgen
data_Rb3Ti3(PO4)5
_symmetry_space_group_name_H-M   'P 1'
_cell_length_a   6.37670100
_cell_length_b   15.03829500
_cell_length_c   18.62352100
_cell_angle_alpha   90.00000000
_cell_angle_beta   90.00000000
_cell_angle_gamma   90.00000000
_symmetry_Int_Tables_number   1
_chemical_formula_structural   Rb3Ti3(PO4)5
_chemical_formula_sum   'Rb12 Ti12 P20 O80'
_cell_volume   1785.89715972
_cell_formula_units_Z   4
loop_
 _symmetry_equiv_pos_site_id
 _symmetry_equiv_pos_as_xyz
  1  'x, y, z'
loop_
 _atom_site_type_symbol
 _atom_site_label
 _atom_site_symmetry_multiplicity
 _atom_site_fract_x
 _atom_site_fract_y
 _atom_site_fract_z
 _atom_site_occupancy
  Rb  Rb0  1  0.36577500  0.22392400  0.35092900  1
  Rb  Rb1  1  0.63422500  0.72392400  0.64907100  1
  Rb  Rb2  1  0.63422500  0.22392400  0.85092900  1
  Rb  Rb3  1  0.36577500  0.72392400  0.14907100  1
  Rb  Rb4  1  0.34288500  0.44527500  0.17563900  1
  Rb  Rb5  1  0.65711500  0.94527500  0.82436100  1
  Rb  Rb6  1  0.65711500  0.44527500  0.67563900  1
  Rb  Rb7  1  0.34288500  0.94527500  0.32436100  1
  Rb  Rb8  1  0.36705500  0.16909700  0.15259000  1
  Rb  Rb9  1  0.63294500  0.66909700  0.84741000  1
  Rb  Rb10  1  0.63294500  0.16909700  0.65259000  1
  Rb  Rb11  1  0.36705500  0.66909700  0.34741000  1
  Ti  Ti0  1  0.75510200  0.33262100  0.05080300  1
  Ti  Ti1  1  0.24489800  0.83262100  0.94919700  1
  Ti  Ti2  1  0.24489800  0.33262100  0.55080300  1
  Ti  Ti3  1  0.75510200  0.83262100  0.44919700  1
  Ti  Ti4  1  0.74839800  0.94324000  0.14675800  1
  Ti  Ti5  1  0.25160200  0.44324000  0.85324200  1
  Ti  Ti6  1  0.25160200  0.94324000  0.64675800  1
  Ti  Ti7  1  0.74839800  0.44324000  0.35324200  1
  Ti  Ti8  1  0.24489900  0.06961700  0.95479200  1
  Ti  Ti9  1  0.75510100  0.56961700  0.04520800  1
  Ti  Ti10  1  0.75510100  0.06961700  0.45479200  1
  Ti  Ti11  1  0.24489900  0.56961700  0.54520800  1
  P  P0  1  0.85746300  0.09623700  0.27688300  1
  P  P1  1  0.14253700  0.59623700  0.72311700  1
  P  P2  1  0.14253700  0.09623700  0.77688300  1
  P  P3  1  0.85746300  0.59623700  0.22311700  1
  P  P4  1  0.25391500  0.30177000  0.00075000  1
  P  P5  1  0.74608500  0.80177000  0.99925000  1
  P  P6  1  0.74608500  0.30177000  0.50075000  1
  P  P7  1  0.25391500  0.80177000  0.49925000  1
  P  P8  1  0.24677300  0.94608400  0.10124700  1
  P  P9  1  0.75322700  0.44608400  0.89875300  1
  P  P10  1  0.75322700  0.94608400  0.60124700  1
  P  P11  1  0.24677300  0.44608400  0.39875300  1
  P  P12  1  0.74590000  0.09940400  0.00918400  1
  P  P13  1  0.25410000  0.59940400  0.99081600  1
  P  P14  1  0.25410000  0.09940400  0.50918400  1
  P  P15  1  0.74590000  0.59940400  0.49081600  1
  P  P16  1  0.85585300  0.28762500  0.22651800  1
  P  P17  1  0.14414700  0.78762500  0.77348200  1
  P  P18  1  0.14414700  0.28762500  0.72651800  1
  P  P19  1  0.85585300  0.78762500  0.27348200  1
  O  O0  1  0.74007900  0.85916000  0.06832900  1
  O  O1  1  0.25992100  0.35916000  0.93167100  1
  O  O2  1  0.25992100  0.85916000  0.56832900  1
  O  O3  1  0.74007900  0.35916000  0.43167100  1
  O  O4  1  0.44269500  0.32615300  0.04960700  1
  O  O5  1  0.55730500  0.82615300  0.95039300  1
  O  O6  1  0.55730500  0.32615300  0.54960700  1
  O  O7  1  0.44269500  0.82615300  0.45039300  1
  O  O8  1  0.94197500  0.07653400  0.96358900  1
  O  O9  1  0.05802500  0.57653400  0.03641100  1
  O  O10  1  0.05802500  0.07653400  0.46358900  1
  O  O11  1  0.94197500  0.57653400  0.53641100  1
  O  O12  1  0.74153800  0.19853100  0.02832100  1
  O  O13  1  0.25846200  0.69853100  0.97167900  1
  O  O14  1  0.25846200  0.19853100  0.52832100  1
  O  O15  1  0.74153800  0.69853100  0.47167900  1
  O  O16  1  0.74174700  0.83969600  0.21350600  1
  O  O17  1  0.25825300  0.33969600  0.78649400  1
  O  O18  1  0.25825300  0.83969600  0.71350600  1
  O  O19  1  0.74174700  0.33969600  0.28649400  1
  O  O20  1  0.74498000  0.02315500  0.23283300  1
  O  O21  1  0.25502000  0.52315500  0.76716700  1
  O  O22  1  0.25502000  0.02315500  0.73283300  1
  O  O23  1  0.74498000  0.52315500  0.26716700  1
  O  O24  1  0.77173400  0.18578500  0.23697200  1
  O  O25  1  0.22826600  0.68578500  0.76302800  1
  O  O26  1  0.22826600  0.18578500  0.73697200  1
  O  O27  1  0.77173400  0.68578500  0.26302800  1
  O  O28  1  0.75150000  0.45235100  0.06947200  1
  O  O29  1  0.24850000  0.95235100  0.93052800  1
  O  O30  1  0.25846800  0.20292300  0.98162700  1
  O  O31  1  0.24850000  0.45235100  0.56947200  1
  O  O32  1  0.24867400  0.10296000  0.85156500  1
  O  O33  1  0.75132600  0.60296000  0.14843500  1
  O  O34  1  0.75132600  0.10296000  0.35156500  1
  O  O35  1  0.24867400  0.60296000  0.64843500  1
  O  O36  1  0.74667500  0.30973700  0.15468400  1
  O  O37  1  0.25332500  0.80973700  0.84531600  1
  O  O38  1  0.25332500  0.30973700  0.65468400  1
  O  O39  1  0.74667500  0.80973700  0.34531600  1
  O  O40  1  0.09253700  0.09359600  0.27757600  1
  O  O41  1  0.90746300  0.59359600  0.72242400  1
  O  O42  1  0.90746300  0.09359600  0.77757600  1
  O  O43  1  0.09253700  0.59359600  0.22242400  1
  O  O44  1  0.09063800  0.79207600  0.27293000  1
  O  O45  1  0.90936200  0.29207600  0.72707000  1
  O  O46  1  0.90936200  0.79207600  0.77293000  1
  O  O47  1  0.09063800  0.29207600  0.22707000  1
  O  O48  1  0.55766400  0.57532400  0.54032600  1
  O  O49  1  0.44233600  0.07532400  0.45967400  1
  O  O50  1  0.44233600  0.57532400  0.04032600  1
  O  O51  1  0.55766400  0.07532400  0.95967400  1
  O  O52  1  0.73877700  0.54391700  0.42031100  1
  O  O53  1  0.26122300  0.04391700  0.57968900  1
  O  O54  1  0.26122300  0.54391700  0.92031100  1
  O  O55  1  0.73877700  0.04391700  0.07968900  1
  O  O56  1  0.04805400  0.44446600  0.35100000  1
  O  O57  1  0.95194600  0.94446600  0.64900000  1
  O  O58  1  0.95194600  0.44446600  0.85100000  1
  O  O59  1  0.04805400  0.94446600  0.14900000  1
  O  O60  1  0.43568900  0.44382900  0.34647900  1
  O  O61  1  0.56431100  0.94382900  0.65352100  1
  O  O62  1  0.56431100  0.44382900  0.84647900  1
  O  O63  1  0.43568900  0.94382900  0.15352100  1
  O  O64  1  0.75019800  0.86202400  0.55366900  1
  O  O65  1  0.24980200  0.36202400  0.44633100  1
  O  O66  1  0.24980200  0.86202400  0.05366900  1
  O  O67  1  0.75019800  0.36202400  0.94633100  1
  O  O68  1  0.25062600  0.53339500  0.44194400  1
  O  O69  1  0.74937400  0.03339500  0.55805600  1
  O  O70  1  0.74937400  0.53339500  0.94194400  1
  O  O71  1  0.25062600  0.03339500  0.05805600  1
  O  O72  1  0.05806300  0.82481300  0.45366600  1
  O  O73  1  0.94193700  0.32481300  0.54633400  1
  O  O74  1  0.94193700  0.82481300  0.95366600  1
  O  O75  1  0.05806300  0.32481300  0.04633400  1
  O  O76  1  0.25846800  0.70292300  0.51837300  1
  O  O77  1  0.74153200  0.20292300  0.48162700  1
  O  O78  1  0.74153200  0.70292300  0.01837300  1
  O  O79  1  0.75150000  0.95235100  0.43052800  1
loop_
_geom_bond_atom_site_label_1
_geom_bond_atom_site_label_2
_geom_bond_distance
_geom_bond_site_symmetry_2
O0 P5 1.549640 1_554
O0 Ti4 1.932613 1_555
O1 P4 1.549640 1_556
O1 Ti5 1.932613 1_555
O2 P7 1.549640 1_555
O2 Ti6 1.932613 1_555
O3 P6 1.549640 1_555
O3 Ti7 1.932613 1_555
O4 P4 1.552891 1_555
O4 Ti0 1.994624 1_555
O4 Rb4 3.020484 1_555
O4 Rb8 3.080481 1_555
O5 P5 1.552891 1_555
O5 Ti1 1.994624 1_555
O5 Rb5 3.020484 1_555
O5 Rb9 3.080481 1_555
O6 P6 1.552891 1_555
O6 Ti2 1.994624 1_555
O6 Rb6 3.020484 1_555
O6 Rb10 3.080481 1_555
O7 P7 1.552891 1_555
O7 Ti3 1.994624 1_555
O7 Rb7 3.020484 1_555
O7 Rb11 3.080481 1_555
O8 P12 1.550033 1_556
O8 Ti8 1.941380 1_655
O9 P13 1.550033 1_554
O9 Ti9 1.941380 1_455
O10 P14 1.550033 1_555
O10 Ti10 1.941380 1_455
O11 P15 1.550033 1_555
O11 Ti11 1.941380 1_655
O12 P12 1.532965 1_555
O12 Ti0 2.061310 1_555
O12 Rb8 3.354760 1_555
O13 P13 1.532965 1_555
O13 Ti1 2.061310 1_555
O13 Rb9 3.354760 1_555
O14 P14 1.532965 1_555
O14 Ti2 2.061310 1_555
O14 Rb10 3.354760 1_555
O15 P15 1.532965 1_555
O15 Ti3 2.061310 1_555
O15 Rb11 3.354760 1_555
O16 P19 1.546034 1_555
O16 Ti4 1.992911 1_555
O16 Rb3 3.196711 1_555
O17 P18 1.546034 1_555
O17 Ti5 1.992911 1_555
O17 Rb2 3.196711 1_555
O18 P17 1.546034 1_555
O18 Ti6 1.992911 1_555
O18 Rb1 3.196711 1_555
O19 P16 1.546034 1_555
O19 Ti7 1.992911 1_555
O19 Rb0 3.196711 1_555
O20 P0 1.547689 1_555
O20 Ti4 2.003605 1_545
O20 Rb7 3.294167 1_545
O21 P1 1.547689 1_555
O21 Ti5 2.003605 1_555
O21 Rb6 3.294167 1_555
O22 P2 1.547689 1_555
O22 Ti6 2.003605 1_545
O22 Rb5 3.294167 1_545
O23 P3 1.547689 1_555
O23 Ti7 2.003605 1_555
O23 Rb4 3.294167 1_555
O24 P0 1.632416 1_555
O24 P16 1.634357 1_555
O24 Rb8 3.031770 1_555
O25 P1 1.632416 1_555
O25 P17 1.634357 1_555
O25 Rb9 3.031770 1_555
O26 P2 1.632416 1_555
O26 P18 1.634357 1_555
O26 Rb10 3.031770 1_555
O27 P3 1.632416 1_555
O27 P19 1.634357 1_555
O27 Rb11 3.031770 1_555
O28 Ti9 1.820601 1_555
O28 Ti0 1.833940 1_555
O28 Rb4 3.272597 1_555
O29 Ti8 1.820601 1_565
O29 Ti1 1.833940 1_555
O29 Rb5 3.272597 1_555
O30 P4 1.528833 1_556
O30 Ti8 2.067861 1_555
O30 Rb8 3.297824 1_556
O31 Ti11 1.820601 1_555
O31 Ti2 1.833940 1_555
O31 Rb6 3.272597 1_555
O32 P2 1.550073 1_555
O32 Ti8 1.986912 1_555
O32 Rb2 3.058378 1_555
O33 P3 1.550073 1_555
O33 Ti9 1.986912 1_555
O33 Rb3 3.058378 1_555
O34 P0 1.550073 1_555
O34 Ti10 1.986912 1_555
O34 Rb0 3.058378 1_555
O35 P1 1.550073 1_555
O35 Ti11 1.986912 1_555
O35 Rb1 3.058378 1_555
O36 P16 1.544337 1_555
O36 Ti0 1.965734 1_555
O36 Rb8 3.214745 1_555
O36 Rb4 3.307060 1_555
O37 P17 1.544337 1_555
O37 Ti1 1.965734 1_555
O37 Rb9 3.214745 1_555
O37 Rb5 3.307060 1_555
O38 P18 1.544337 1_555
O38 Ti2 1.965734 1_555
O38 Rb10 3.214745 1_555
O38 Rb6 3.307060 1_555
O39 P19 1.544337 1_555
O39 Ti3 1.965734 1_555
O39 Rb11 3.214745 1_555
O39 Rb7 3.307060 1_555
O40 P0 1.499578 1_455
O40 Rb7 2.877977 1_545
O40 Rb0 2.956901 1_555
O40 Rb8 3.125949 1_555
O41 P1 1.499578 1_655
O41 Rb6 2.877977 1_555
O41 Rb1 2.956901 1_555
O41 Rb9 3.125949 1_555
O42 P2 1.499578 1_655
O42 Rb5 2.877977 1_545
O42 Rb2 2.956901 1_555
O42 Rb10 3.125949 1_555
O43 P3 1.499578 1_455
O43 Rb4 2.877977 1_555
O43 Rb3 2.956901 1_555
O43 Rb11 3.125949 1_555
O44 P19 1.498685 1_455
O44 Rb11 2.907079 1_555
O44 Rb7 2.968577 1_555
O44 Rb3 3.073983 1_555
O45 P18 1.498685 1_655
O45 Rb10 2.907079 1_555
O45 Rb6 2.968577 1_555
O45 Rb2 3.073983 1_555
O46 P17 1.498685 1_655
O46 Rb9 2.907079 1_555
O46 Rb5 2.968577 1_555
O46 Rb1 3.073983 1_555
O47 P16 1.498685 1_455
O47 Rb8 2.907079 1_555
O47 Rb4 2.968577 1_555
O47 Rb0 3.073983 1_555
O48 P15 1.556306 1_555
O48 Ti11 1.998324 1_555
O48 Rb1 3.055108 1_555
O48 Rb6 3.252294 1_555
O49 P14 1.556306 1_555
O49 Ti10 1.998324 1_555
O49 Rb0 3.055108 1_555
O49 Rb7 3.252294 1_545
O50 P13 1.556306 1_554
O50 Ti9 1.998324 1_555
O50 Rb3 3.055108 1_555
O50 Rb4 3.252294 1_555
O51 P12 1.556306 1_556
O51 Ti8 1.998324 1_555
O51 Rb2 3.055108 1_555
O51 Rb5 3.252294 1_545
O52 P15 1.556419 1_555
O52 Ti7 1.963707 1_555
O52 Rb11 3.317479 1_555
O53 P14 1.556419 1_555
O53 Ti6 1.963707 1_545
O53 Rb10 3.317479 1_555
O54 P13 1.556419 1_555
O54 Ti5 1.963707 1_555
O54 Rb9 3.317479 1_555
O55 P12 1.556419 1_555
O55 Ti4 1.963707 1_545
O55 Rb8 3.317479 1_555
O56 P11 1.548297 1_555
O56 Ti7 1.911362 1_455
O57 P10 1.548297 1_555
O57 Ti6 1.911362 1_655
O58 P9 1.548297 1_555
O58 Ti5 1.911362 1_655
O59 P8 1.548297 1_555
O59 Ti4 1.911362 1_455
O60 P11 1.549229 1_555
O60 Ti7 1.998045 1_555
O60 Rb4 3.236283 1_555
O60 Rb11 3.415845 1_555
O61 P10 1.549229 1_555
O61 Ti6 1.998045 1_555
O61 Rb5 3.236283 1_555
O61 Rb10 3.415845 1_565
O62 P9 1.549229 1_555
O62 Ti5 1.998045 1_555
O62 Rb6 3.236283 1_555
O62 Rb9 3.415845 1_555
O63 P8 1.549229 1_555
O63 Ti4 1.998045 1_555
O63 Rb7 3.236283 1_555
O63 Rb8 3.415845 1_565
O64 P10 1.543856 1_555
O64 Ti3 1.995494 1_555
O64 Rb1 2.831375 1_555
O65 P11 1.543856 1_555
O65 Ti2 1.995494 1_555
O65 Rb0 2.831375 1_555
O66 P8 1.543856 1_555
O66 Ti1 1.995494 1_554
O66 Rb3 2.831375 1_555
O67 P9 1.543856 1_555
O67 Ti0 1.995494 1_556
O67 Rb2 2.831375 1_555
O68 P11 1.540001 1_555
O68 Ti11 1.999129 1_555
O68 Rb11 2.795591 1_555
O69 P10 1.540001 1_545
O69 Ti10 1.999129 1_555
O69 Rb10 2.795591 1_555
O70 P9 1.540001 1_555
O70 Ti9 1.999129 1_556
O70 Rb9 2.795591 1_555
O71 P8 1.540001 1_545
O71 Ti8 1.999129 1_554
O71 Rb8 2.795591 1_555
O72 P7 1.549354 1_555
O72 Ti3 1.937245 1_455
O73 P6 1.549354 1_555
O73 Ti2 1.937245 1_655
O74 P5 1.549354 1_555
O74 Ti1 1.937245 1_655
O75 P4 1.549354 1_555
O75 Ti0 1.937245 1_455
O76 P7 1.528833 1_555
O76 Ti11 2.067861 1_555
O76 Rb11 3.297824 1_555
O77 P6 1.528833 1_555
O77 Ti10 2.067861 1_555
O77 Rb10 3.297824 1_555
O78 P5 1.528833 1_554
O78 Ti9 2.067861 1_555
O78 Rb9 3.297824 1_554
O79 Ti10 1.820601 1_565
O79 Ti3 1.833940 1_555
O79 Rb7 3.272597 1_555
