# generated using pymatgen
data_BeInSi2
_symmetry_space_group_name_H-M   'P 1'
_cell_length_a   4.54485813
_cell_length_b   4.54485813
_cell_length_c   4.54485813
_cell_angle_alpha   60.00000000
_cell_angle_beta   60.00000000
_cell_angle_gamma   60.00000000
_symmetry_Int_Tables_number   1
_chemical_formula_structural   BeInSi2
_chemical_formula_sum   'Be1 In1 Si2'
_cell_volume   66.38133679
_cell_formula_units_Z   1
loop_
 _symmetry_equiv_pos_site_id
 _symmetry_equiv_pos_as_xyz
  1  'x, y, z'
loop_
 _atom_site_type_symbol
 _atom_site_label
 _atom_site_symmetry_multiplicity
 _atom_site_fract_x
 _atom_site_fract_y
 _atom_site_fract_z
 _atom_site_occupancy
  Be  Be0  1  0.50000000  0.50000000  0.50000000  1
  In  In0  1  0.75000000  0.75000000  0.75000000  1
  Si  Si0  1  0.00000000  0.00000000  0.00000000  1
  Si  Si1  1  0.25000000  0.25000000  0.25000000  1
loop_
_geom_bond_atom_site_label_1
_geom_bond_atom_site_label_2
_geom_bond_distance
_geom_bond_site_symmetry_2
Be0 In0 2.783146 1_545
Be0 Si1 2.783146 1_555
Be0 In0 2.783146 1_554
Be0 In0 2.783146 1_455
Be0 Si1 2.783146 1_565
Be0 Si1 2.783146 1_655
Be0 Si1 2.783146 1_556
Be0 In0 2.783146 1_555
In0 Si0 2.783146 1_656
In0 Si0 2.783146 1_566
In0 Si0 2.783146 1_665
In0 Si0 2.783146 1_666
Si0 Si1 2.783146 1_554
Si0 Si1 2.783146 1_555
Si0 Si1 2.783146 1_455
Si0 Si1 2.783146 1_545
