# generated using pymatgen
data_Al2PbSe4
_symmetry_space_group_name_H-M   'P 1'
_cell_length_a   6.28884662
_cell_length_b   6.28884752
_cell_length_c   10.94795900
_cell_angle_alpha   90.00000000
_cell_angle_beta   90.00000000
_cell_angle_gamma   120.69404548
_symmetry_Int_Tables_number   1
_chemical_formula_structural   Al2PbSe4
_chemical_formula_sum   'Al4 Pb2 Se8'
_cell_volume   372.32814657
_cell_formula_units_Z   2
loop_
 _symmetry_equiv_pos_site_id
 _symmetry_equiv_pos_as_xyz
  1  'x, y, z'
loop_
 _atom_site_type_symbol
 _atom_site_label
 _atom_site_symmetry_multiplicity
 _atom_site_fract_x
 _atom_site_fract_y
 _atom_site_fract_z
 _atom_site_occupancy
  Al  Al0  1  0.23908359  0.75843109  0.00000000  1
  Al  Al1  1  0.24156891  0.76091641  0.50000000  1
  Al  Al2  1  0.75843109  0.23908359  0.50000000  1
  Al  Al3  1  0.76091641  0.24156891  0.00000000  1
  Pb  Pb0  1  0.50000000  0.50000000  0.25000000  1
  Pb  Pb1  1  0.50000000  0.50000000  0.75000000  1
  Se  Se0  1  0.00000000  0.50000000  0.16714294  1
  Se  Se1  1  0.18199610  0.34908532  0.50000000  1
  Se  Se2  1  0.50000000  -0.00000000  0.33285706  1
  Se  Se3  1  0.34908532  0.18199610  0.00000000  1
  Se  Se4  1  0.65091468  0.81800390  0.00000000  1
  Se  Se5  1  0.50000000  -0.00000000  0.66714294  1
  Se  Se6  1  0.81800390  0.65091468  0.50000000  1
  Se  Se7  1  0.00000000  0.50000000  0.83285706  1
loop_
_geom_bond_atom_site_label_1
_geom_bond_atom_site_label_2
_geom_bond_distance
_geom_bond_site_symmetry_2
Al0 Se3 2.385958 1_565
Al0 Se7 2.399123 1_554
Al0 Se0 2.399123 1_555
Al0 Se4 2.420241 1_555
Al1 Se6 2.385958 1_455
Al1 Se5 2.399123 1_565
Al1 Se2 2.399123 1_565
Al1 Se1 2.420242 1_555
Al2 Se1 2.385958 1_655
Al2 Se5 2.399123 1_555
Al2 Se2 2.399123 1_555
Al2 Se6 2.420242 1_555
Al3 Se4 2.385958 1_545
Al3 Se0 2.399123 1_655
Al3 Se7 2.399123 1_654
Al3 Se3 2.420241 1_555
Pb0 Se6 3.233211 1_555
Pb0 Se1 3.233211 1_555
Pb0 Se4 3.233211 1_555
Pb0 Se3 3.233211 1_555
Pb0 Se0 3.272653 1_655
Pb0 Se0 3.272653 1_555
Pb0 Se2 3.272653 1_565
Pb0 Se2 3.272653 1_555
Pb1 Se6 3.233211 1_555
Pb1 Se1 3.233211 1_555
Pb1 Se4 3.233211 1_556
Pb1 Se3 3.233211 1_556
Pb1 Se7 3.272653 1_555
Pb1 Se7 3.272653 1_655
Pb1 Se5 3.272653 1_565
Pb1 Se5 3.272653 1_555
