# generated using pymatgen
data_Na4Al3Si9ClO24
_symmetry_space_group_name_H-M   'P 1'
_cell_length_a   7.63565300
_cell_length_b   9.39563096
_cell_length_c   9.43042160
_cell_angle_alpha   80.67422135
_cell_angle_beta   66.52070738
_cell_angle_gamma   66.77335133
_symmetry_Int_Tables_number   1
_chemical_formula_structural   Na4Al3Si9ClO24
_chemical_formula_sum   'Na4 Al3 Si9 Cl1 O24'
_cell_volume   570.23604497
_cell_formula_units_Z   1
loop_
 _symmetry_equiv_pos_site_id
 _symmetry_equiv_pos_as_xyz
  1  'x, y, z'
loop_
 _atom_site_type_symbol
 _atom_site_label
 _atom_site_symmetry_multiplicity
 _atom_site_fract_x
 _atom_site_fract_y
 _atom_site_fract_z
 _atom_site_occupancy
  Na  Na0  1  0.87039600  0.33703100  0.92420800  1
  Na  Na1  1  0.77397000  0.08760400  0.33896700  1
  Na  Na2  1  0.23530100  0.93261500  0.68508100  1
  Na  Na3  1  0.13107600  0.66437400  0.06347900  1
  Al  Al0  1  0.86542200  0.42159000  0.25335700  1
  Al  Al1  1  0.55233900  0.57428600  0.73851000  1
  Al  Al2  1  0.27957600  0.25680600  0.58058200  1
  Si  Si0  1  0.66145400  0.74800700  0.92752200  1
  Si  Si1  1  0.87453000  0.24680900  0.57829200  1
  Si  Si2  1  0.72457100  0.74610600  0.41298300  1
  Si  Si3  1  0.58172600  0.07379800  0.75356800  1
  Si  Si4  1  0.42503000  0.92238000  0.24938200  1
  Si  Si5  1  0.45058800  0.42336300  0.25497400  1
  Si  Si6  1  0.12271500  0.58200400  0.74608900  1
  Si  Si7  1  0.12827300  0.74388700  0.42046700  1
  Si  Si8  1  0.32966100  0.24836500  0.07624500  1
  Cl  Cl0  1  0.00025100  0.99821700  0.00916100  1
  O  O0  1  0.90690700  0.65267400  0.89461400  1
  O  O1  1  0.89645900  0.81307200  0.41531400  1
  O  O2  1  0.64337500  0.89584100  0.81200400  1
  O  O3  1  0.84900300  0.60464000  0.29172200  1
  O  O4  1  0.55983600  0.63911200  0.89974700  1
  O  O5  1  0.73770800  0.38922500  0.69966800  1
  O  O6  1  0.85774300  0.29160700  0.40907000  1
  O  O7  1  0.79468600  0.09986000  0.64217900  1
  O  O8  1  0.58543300  0.70568500  0.58245800  1
  O  O9  1  0.57076200  0.89838100  0.34793300  1
  O  O10  1  0.67631000  0.43287600  0.18559500  1
  O  O11  1  0.55323900  0.80354600  0.10632900  1
  O  O12  1  0.46665100  0.19038000  0.89993700  1
  O  O13  1  0.29739500  0.58640500  0.79901100  1
  O  O14  1  0.44038100  0.10051600  0.65447100  1
  O  O15  1  0.43194300  0.30488800  0.39972500  1
  O  O16  1  0.22136800  0.88165800  0.36126900  1
  O  O17  1  0.11879600  0.70105400  0.59637500  1
  O  O18  1  0.26645300  0.59659600  0.30326600  1
  O  O19  1  0.42071300  0.36463700  0.11386900  1
  O  O20  1  0.14312000  0.41401200  0.70794300  1
  O  O21  1  0.35199300  0.10078600  0.19561700  1
  O  O22  1  0.10842800  0.18005900  0.57367300  1
  O  O23  1  0.09441800  0.34524600  0.09534600  1
loop_
_geom_bond_atom_site_label_1
_geom_bond_atom_site_label_2
_geom_bond_distance
_geom_bond_site_symmetry_2
Na0 O10 2.416463 1_556
Na0 O20 2.518887 1_655
Na0 O5 2.594589 1_555
Na0 O23 2.807302 1_656
Na0 O4 2.940609 1_555
Na1 O1 2.465426 1_545
Na1 O6 2.496956 1_555
Na1 O15 2.509588 1_555
Na1 O9 2.756457 1_545
Na1 O7 2.948905 1_555
Na1 O14 3.031453 1_555
Na2 O22 2.385450 1_565
Na2 O14 2.542576 1_565
Na2 O8 2.596388 1_555
Na2 O17 2.988993 1_555
Na3 O13 2.388351 1_554
Na3 O3 2.540607 1_455
Na3 O18 2.732064 1_555
Na3 O0 2.802682 1_454
Na3 O19 2.922184 1_555
Na3 O4 2.938789 1_554
Al0 O6 1.748688 1_555
Al0 O23 1.753087 1_655
Al0 O10 1.759903 1_555
Al0 O3 1.760689 1_555
Al1 O5 1.735805 1_555
Al1 O4 1.755930 1_555
Al1 O13 1.757611 1_555
Al1 O8 1.764839 1_555
Al2 O15 1.746497 1_555
Al2 O22 1.748810 1_555
Al2 O20 1.753219 1_555
Al2 O14 1.754278 1_555
Cl0 Na2 2.882484 1_554
Cl0 Na3 2.917972 1_555
Cl0 Na1 2.963787 1_465
Cl0 Na0 3.012582 1_464
O0 Si0 1.647347 1_555
O0 Si6 1.648442 1_655
O1 Si7 1.645835 1_655
O1 Si2 1.672652 1_555
O2 Si3 1.614994 1_565
O2 Si0 1.616573 1_555
O3 Si2 1.614889 1_555
O4 Si0 1.610102 1_555
O5 Si1 1.622656 1_555
O6 Si1 1.625739 1_555
O7 Si3 1.636205 1_555
O7 Si1 1.656075 1_555
O8 Si2 1.611144 1_555
O9 Si4 1.646531 1_555
O9 Si2 1.663400 1_555
O10 Si5 1.615743 1_555
O11 Si4 1.612022 1_555
O11 Si0 1.622733 1_554
O12 Si8 1.616680 1_556
O12 Si3 1.625303 1_555
O13 Si6 1.615678 1_555
O14 Si3 1.617135 1_555
O15 Si5 1.612586 1_555
O16 Si7 1.633364 1_555
O16 Si4 1.645903 1_555
O17 Si7 1.621743 1_555
O17 Si6 1.655553 1_555
O18 Si7 1.632420 1_555
O18 Si5 1.660855 1_555
O19 Si5 1.645085 1_555
O19 Si8 1.650436 1_555
O20 Si6 1.609470 1_555
O21 Si4 1.609473 1_545
O21 Si8 1.636940 1_555
O22 Si1 1.627361 1_455
O23 Si8 1.610334 1_555
