# generated using pymatgen
data_Gd2S3
_symmetry_space_group_name_H-M   'P 1'
_cell_length_a   13.93820433
_cell_length_b   13.93820433
_cell_length_c   13.93820433
_cell_angle_alpha   144.86089110
_cell_angle_beta   144.86089110
_cell_angle_gamma   50.54187670
_symmetry_Int_Tables_number   1
_chemical_formula_structural   Gd2S3
_chemical_formula_sum   'Gd16 S24'
_cell_volume   892.51059799
_cell_formula_units_Z   8
loop_
 _symmetry_equiv_pos_site_id
 _symmetry_equiv_pos_as_xyz
  1  'x, y, z'
loop_
 _atom_site_type_symbol
 _atom_site_label
 _atom_site_symmetry_multiplicity
 _atom_site_fract_x
 _atom_site_fract_y
 _atom_site_fract_z
 _atom_site_occupancy
  Gd  Gd0  1  0.41581300  0.91581300  0.50000000  1
  Gd  Gd1  1  0.99446800  0.62500000  0.86946800  1
  Gd  Gd2  1  0.33418700  0.33418700  0.00000000  1
  Gd  Gd3  1  0.03036100  0.92719200  0.37937000  1
  Gd  Gd4  1  0.54782200  0.65099000  0.62063000  1
  Gd  Gd5  1  0.75553200  0.12500000  0.13053200  1
  Gd  Gd6  1  0.34901000  0.96963900  0.89683100  1
  Gd  Gd7  1  0.66581300  0.66581300  0.00000000  1
  Gd  Gd8  1  0.37500000  0.24446800  0.36946800  1
  Gd  Gd9  1  0.07280800  0.45217800  0.10316900  1
  Gd  Gd10  1  0.87500000  0.00553200  0.63053200  1
  Gd  Gd11  1  0.08418700  0.58418700  0.50000000  1
  Gd  Gd12  1  0.67719200  0.28036100  0.87937000  1
  Gd  Gd13  1  0.71963900  0.59901000  0.39683100  1
  Gd  Gd14  1  0.20217800  0.32280800  0.60316900  1
  Gd  Gd15  1  0.40099000  0.79782200  0.12063000  1
  S  S0  1  0.71168900  0.82350300  0.74567800  1
  S  S1  1  0.36558500  0.61224100  0.11004400  1
  S  S2  1  0.50219700  0.25554100  0.88995600  1
  S  S3  1  0.24780300  0.63775900  0.25334400  1
  S  S4  1  0.38441500  0.99445900  0.74665600  1
  S  S5  1  0.07782500  0.96601000  0.25432200  1
  S  S6  1  0.03831100  0.28399000  0.61181400  1
  S  S7  1  0.06095100  0.15389100  0.74893500  1
  S  S8  1  0.68798400  0.93904900  0.09293900  1
  S  S9  1  0.67217500  0.42649700  0.38818600  1
  S  S10  1  0.84610900  0.59504400  0.90706100  1
  S  S11  1  0.57350300  0.96168900  0.24567800  1
  S  S12  1  0.71601000  0.32782500  0.75432200  1
  S  S13  1  0.40495600  0.31201600  0.25106500  1
  S  S14  1  0.36224100  0.61558500  0.61004400  1
  S  S15  1  0.38775900  0.49780300  0.75334400  1
  S  S16  1  0.03399000  0.28831100  0.11181400  1
  S  S17  1  0.00554100  0.75219700  0.38995600  1
  S  S18  1  0.90389100  0.31095100  0.24893500  1
  S  S19  1  0.17649700  0.92217500  0.88818600  1
  S  S20  1  0.06201600  0.65495600  0.75106500  1
  S  S21  1  0.74445900  0.63441500  0.24665600  1
  S  S22  1  0.68904900  0.93798400  0.59293900  1
  S  S23  1  0.34504400  0.09610900  0.40706100  1
loop_
_geom_bond_atom_site_label_1
_geom_bond_atom_site_label_2
_geom_bond_distance
_geom_bond_site_symmetry_2
Gd0 S5 2.784566 1_555
Gd0 S0 2.784569 1_555
Gd0 S2 2.804277 1_565
Gd0 S1 2.804277 1_555
Gd0 S4 2.983275 1_555
Gd0 S3 2.983275 1_555
Gd0 S23 3.008311 1_565
Gd0 S22 3.008333 1_555
Gd1 S6 2.800413 1_655
Gd1 S5 2.800415 1_656
Gd1 S20 2.819960 1_655
Gd1 S10 2.819973 1_555
Gd1 S0 2.998589 1_555
Gd1 S9 2.998589 1_555
Gd1 S3 3.077394 1_656
Gd1 S1 3.077394 1_656
Gd2 S9 2.784569 1_555
Gd2 S6 2.784574 1_554
Gd2 S3 2.804277 1_555
Gd2 S4 2.804277 1_544
Gd2 S2 2.983275 1_554
Gd2 S1 2.983275 1_555
Gd2 S7 3.008323 1_554
Gd2 S13 3.008323 1_555
Gd3 S5 2.766117 1_555
Gd3 S8 2.766987 1_455
Gd3 S17 2.799165 1_555
Gd3 S4 2.855154 1_555
Gd3 S7 2.863541 1_565
Gd3 S10 2.996875 1_454
Gd3 S6 3.000406 1_565
Gd3 S3 3.181590 1_555
Gd4 S0 2.766141 1_555
Gd4 S10 2.766985 1_555
Gd4 S14 2.799155 1_555
Gd4 S3 2.855161 1_555
Gd4 S13 2.863532 1_555
Gd4 S8 2.996870 1_556
Gd4 S9 3.000398 1_555
Gd4 S4 3.181598 1_555
Gd5 S0 2.800421 1_544
Gd5 S9 2.800421 1_555
Gd5 S8 2.819948 1_545
Gd5 S18 2.819960 1_555
Gd5 S6 2.998585 1_655
Gd5 S5 2.998592 1_645
Gd5 S2 3.077394 1_554
Gd5 S4 3.077394 1_544
Gd6 S19 2.766143 1_555
Gd6 S13 2.766987 1_566
Gd6 S4 2.799153 1_555
Gd6 S14 2.855153 1_555
Gd6 S8 2.863534 1_556
Gd6 S7 2.996881 1_565
Gd6 S11 3.000399 1_556
Gd6 S17 3.181594 1_555
Gd7 S12 2.784566 1_554
Gd7 S11 2.784569 1_555
Gd7 S17 2.804277 1_655
Gd7 S14 2.804277 1_554
Gd7 S21 2.983275 1_555
Gd7 S15 2.983275 1_554
Gd7 S10 3.008311 1_554
Gd7 S8 3.008333 1_555
Gd8 S16 2.800413 1_555
Gd8 S12 2.800415 1_555
Gd8 S13 2.819960 1_555
Gd8 S23 2.819973 1_555
Gd8 S19 2.998589 1_544
Gd8 S11 2.998589 1_545
Gd8 S14 3.077394 1_555
Gd8 S15 3.077394 1_555
Gd9 S16 2.766118 1_555
Gd9 S7 2.766985 1_554
Gd9 S3 2.799165 1_555
Gd9 S17 2.855154 1_555
Gd9 S10 2.863532 1_454
Gd9 S13 2.996878 1_555
Gd9 S12 3.000405 1_454
Gd9 S14 3.181590 1_555
Gd10 S19 2.800421 1_645
Gd10 S11 2.800421 1_545
Gd10 S22 2.819948 1_545
Gd10 S7 2.819960 1_655
Gd10 S16 2.998585 1_656
Gd10 S12 2.998592 1_555
Gd10 S21 3.077394 1_545
Gd10 S17 3.077394 1_645
Gd11 S19 2.784569 1_555
Gd11 S16 2.784574 1_555
Gd11 S15 2.804277 1_555
Gd11 S21 2.804277 1_455
Gd11 S14 2.983275 1_555
Gd11 S17 2.983275 1_555
Gd11 S18 3.008323 1_455
Gd11 S20 3.008323 1_555
Gd12 S12 2.766117 1_555
Gd12 S22 2.766987 1_545
Gd12 S2 2.799165 1_555
Gd12 S21 2.855154 1_556
Gd12 S18 2.863541 1_556
Gd12 S23 2.996875 1_555
Gd12 S16 3.000406 1_656
Gd12 S15 3.181590 1_555
Gd13 S9 2.766143 1_555
Gd13 S20 2.766987 1_655
Gd13 S21 2.799153 1_555
Gd13 S1 2.855153 1_555
Gd13 S22 2.863534 1_555
Gd13 S18 2.996881 1_555
Gd13 S0 3.000399 1_555
Gd13 S2 3.181594 1_554
Gd14 S6 2.766118 1_555
Gd14 S18 2.766985 1_455
Gd14 S15 2.799165 1_555
Gd14 S2 2.855154 1_555
Gd14 S23 2.863532 1_555
Gd14 S20 2.996878 1_555
Gd14 S5 3.000405 1_545
Gd14 S1 3.181590 1_556
Gd15 S11 2.766141 1_555
Gd15 S23 2.766985 1_565
Gd15 S1 2.799155 1_555
Gd15 S15 2.855161 1_554
Gd15 S20 2.863532 1_554
Gd15 S22 2.996870 1_555
Gd15 S19 3.000398 1_554
Gd15 S21 3.181598 1_555
