# generated using pymatgen
data_ZnH2SO5
_symmetry_space_group_name_H-M   'P 1'
_cell_length_a   5.19919098
_cell_length_b   5.19919098
_cell_length_c   7.62209796
_cell_angle_alpha   73.49792394
_cell_angle_beta   73.49792394
_cell_angle_gamma   96.81948565
_symmetry_Int_Tables_number   1
_chemical_formula_structural   ZnH2SO5
_chemical_formula_sum   'Zn2 H4 S2 O10'
_cell_volume   184.90296370
_cell_formula_units_Z   2
loop_
 _symmetry_equiv_pos_site_id
 _symmetry_equiv_pos_as_xyz
  1  'x, y, z'
loop_
 _atom_site_type_symbol
 _atom_site_label
 _atom_site_symmetry_multiplicity
 _atom_site_fract_x
 _atom_site_fract_y
 _atom_site_fract_z
 _atom_site_occupancy
  Zn  Zn0  1  0.00000000  0.50000000  0.50000000  1
  Zn  Zn1  1  0.50000000  0.00000000  0.00000000  1
  H  H0  1  0.62946000  0.54596400  0.79595600  1
  H  H1  1  0.45403600  0.37054000  0.70404400  1
  H  H2  1  0.37054000  0.45403600  0.20404400  1
  H  H3  1  0.54596400  0.62946000  0.29595600  1
  S  S0  1  0.09441100  0.90558900  0.75000000  1
  S  S1  1  0.90558900  0.09441100  0.25000000  1
  O  O0  1  0.22640600  0.81763800  0.89908400  1
  O  O1  1  0.18236200  0.77359400  0.60091600  1
  O  O2  1  0.77359400  0.18236200  0.10091600  1
  O  O3  1  0.81763800  0.22640600  0.39908400  1
  O  O4  1  0.17802500  0.21246800  0.65838100  1
  O  O5  1  0.78753200  0.82197500  0.84161900  1
  O  O6  1  0.82197500  0.78753200  0.34161900  1
  O  O7  1  0.21246800  0.17802500  0.15838100  1
  O  O8  1  0.61579700  0.38420300  0.75000000  1
  O  O9  1  0.38420300  0.61579700  0.25000000  1
loop_
_geom_bond_atom_site_label_1
_geom_bond_atom_site_label_2
_geom_bond_distance
_geom_bond_site_symmetry_2
H0 O8 1.001187 1_555
H0 O5 1.738405 1_555
H1 O8 1.001187 1_555
H1 O4 1.738405 1_555
H2 O9 1.001187 1_555
H2 O7 1.738405 1_555
H3 O9 1.001187 1_555
H3 O6 1.738405 1_555
O0 S0 1.481103 1_555
O0 Zn1 2.056608 1_566
O1 S0 1.481103 1_555
O1 Zn0 2.056608 1_555
O2 S1 1.481103 1_555
O2 Zn1 2.056608 1_555
O3 S1 1.481103 1_555
O3 Zn0 2.056608 1_655
O4 S0 1.500726 1_545
O4 Zn0 2.118253 1_555
O5 S0 1.500726 1_655
O5 Zn1 2.118253 1_566
O6 S1 1.500726 1_565
O6 Zn0 2.118253 1_655
O7 S1 1.500726 1_455
O7 Zn1 2.118253 1_555
O8 Zn1 2.209962 1_556
O8 Zn0 2.209962 1_655
O9 Zn1 2.209962 1_565
O9 Zn0 2.209962 1_555
