# generated using pymatgen
data_K2CoCl4
_symmetry_space_group_name_H-M   'P 1'
_cell_length_a   14.55514674
_cell_length_b   14.55514670
_cell_length_c   27.21581454
_cell_angle_alpha   89.93401607
_cell_angle_beta   89.93401607
_cell_angle_gamma   119.00204953
_symmetry_Int_Tables_number   1
_chemical_formula_structural   K2CoCl4
_chemical_formula_sum   'K48 Co24 Cl96'
_cell_volume   5042.71055662
_cell_formula_units_Z   24
loop_
 _symmetry_equiv_pos_site_id
 _symmetry_equiv_pos_as_xyz
  1  'x, y, z'
loop_
 _atom_site_type_symbol
 _atom_site_label
 _atom_site_symmetry_multiplicity
 _atom_site_fract_x
 _atom_site_fract_y
 _atom_site_fract_z
 _atom_site_occupancy
  K  K0  1  0.26449846  0.92876359  0.04436134  1
  K  K1  1  0.11215231  0.17556446  0.33115103  1
  K  K2  1  0.46361656  0.78210939  0.54359814  1
  K  K3  1  0.17556446  0.11215231  0.83115103  1
  K  K4  1  0.63256619  0.07151627  0.99933126  1
  K  K5  1  0.28214742  0.45615645  0.11982688  1
  K  K6  1  0.81408443  0.48408146  0.70993172  1
  K  K7  1  0.96937978  0.30309530  0.21129192  1
  K  K8  1  0.07151627  0.63256619  0.49933126  1
  K  K9  1  0.56891710  0.12993270  0.50118834  1
  K  K10  1  0.62698596  0.56815254  0.49890559  1
  K  K11  1  0.66529434  0.59578446  0.16769041  1
  K  K12  1  0.26992920  0.95134253  0.38092064  1
  K  K13  1  0.45223662  0.79256242  0.88026256  1
  K  K14  1  0.30309530  0.96937978  0.71129192  1
  K  K15  1  0.30034195  0.47667361  0.78979050  1
  K  K16  1  0.92876359  0.26449846  0.54436134  1
  K  K17  1  0.95134253  0.26992920  0.88092064  1
  K  K18  1  0.11128081  0.67366841  0.16966888  1
  K  K19  1  0.13885309  0.07239277  0.50031262  1
  K  K20  1  0.66752952  0.60618041  0.83345219  1
  K  K21  1  0.78385426  0.93858524  0.11904053  1
  K  K22  1  0.80750357  0.96852396  0.79080476  1
  K  K23  1  0.79256242  0.45223662  0.38026256  1
  K  K24  1  0.17229925  0.60972890  0.66530832  1
  K  K25  1  0.48408146  0.81408443  0.20993172  1
  K  K26  1  0.16522648  0.10442433  0.16669515  1
  K  K27  1  0.79063916  0.95371599  0.45709283  1
  K  K28  1  0.56815254  0.62698596  0.99890559  1
  K  K29  1  0.95371599  0.79063916  0.95709283  1
  K  K30  1  0.25955680  0.43109627  0.45602241  1
  K  K31  1  0.60972890  0.17229925  0.16530832  1
  K  K32  1  0.47667361  0.30034195  0.28979050  1
  K  K33  1  0.45615645  0.28214742  0.61982688  1
  K  K34  1  0.59578446  0.66529434  0.66769041  1
  K  K35  1  0.07239277  0.13885309  0.00031262  1
  K  K36  1  0.65848211  0.09086880  0.33544111  1
  K  K37  1  0.17312422  0.60831087  0.33179869  1
  K  K38  1  0.12993270  0.56891710  0.00118834  1
  K  K39  1  0.60618041  0.66752952  0.33345219  1
  K  K40  1  0.96852396  0.80750357  0.29080476  1
  K  K41  1  0.93858524  0.78385426  0.61904053  1
  K  K42  1  0.78210939  0.46361656  0.04359814  1
  K  K43  1  0.67366841  0.11128081  0.66966888  1
  K  K44  1  0.60831087  0.17312422  0.83179869  1
  K  K45  1  0.09086880  0.65848211  0.83544111  1
  K  K46  1  0.43109627  0.25955680  0.95602241  1
  K  K47  1  0.10442433  0.16522648  0.66669515  1
  Co  Co0  1  0.43829830  0.27243982  0.09482528  1
  Co  Co1  1  0.77494105  0.44227893  0.90566940  1
  Co  Co2  1  0.29007554  0.95308168  0.57250131  1
  Co  Co3  1  0.78926351  0.46459132  0.57206789  1
  Co  Co4  1  0.27243982  0.43829830  0.59482528  1
  Co  Co5  1  0.80265563  0.46491214  0.24248705  1
  Co  Co6  1  0.46491214  0.80265563  0.74248705  1
  Co  Co7  1  0.29766864  0.96816539  0.24038428  1
  Co  Co8  1  0.28723956  0.46267199  0.92717526  1
  Co  Co9  1  0.46267199  0.28723956  0.42717526  1
  Co  Co10  1  0.94733771  0.77910810  0.09634265  1
  Co  Co11  1  0.95308168  0.29007554  0.07250131  1
  Co  Co12  1  0.96816539  0.29766864  0.74038428  1
  Co  Co13  1  0.96504393  0.79951667  0.75971298  1
  Co  Co14  1  0.94497518  0.27927274  0.40399636  1
  Co  Co15  1  0.30050248  0.46746209  0.25860809  1
  Co  Co16  1  0.44227893  0.77494105  0.40566940  1
  Co  Co17  1  0.79171064  0.95506785  0.92945093  1
  Co  Co18  1  0.79951667  0.96504393  0.25971298  1
  Co  Co19  1  0.46459132  0.78926351  0.07206789  1
  Co  Co20  1  0.27927274  0.94497518  0.90399636  1
  Co  Co21  1  0.77910810  0.94733771  0.59634265  1
  Co  Co22  1  0.95506785  0.79171064  0.42945093  1
  Co  Co23  1  0.46746209  0.30050248  0.75860809  1
  Cl  Cl0  1  0.78468417  0.71865297  0.06449527  1
  Cl  Cl1  1  0.73849820  0.78237258  0.92141263  1
  Cl  Cl2  1  0.70002920  0.30664855  0.27894491  1
  Cl  Cl3  1  0.67972171  0.50950348  0.61213880  1
  Cl  Cl4  1  0.80583647  0.70032407  0.72330665  1
  Cl  Cl5  1  0.48070864  0.16216550  0.05371513  1
  Cl  Cl6  1  0.01484657  0.46777837  0.75228833  1
  Cl  Cl7  1  0.78291524  0.22843357  0.43491324  1
  Cl  Cl8  1  0.24557091  0.78229940  0.57742897  1
  Cl  Cl9  1  0.97003988  0.01509947  0.24563916  1
  Cl  Cl10  1  0.00968913  0.31721150  0.99434884  1
  Cl  Cl11  1  0.01509947  0.97003988  0.74563916  1
  Cl  Cl12  1  0.46777837  0.01484657  0.25228833  1
  Cl  Cl13  1  0.43904695  0.76037069  0.66253400  1
  Cl  Cl14  1  0.07289432  0.75173211  0.72045433  1
  Cl  Cl15  1  0.56118925  0.44374382  0.38863363  1
  Cl  Cl16  1  0.25229091  0.43904644  0.33793136  1
  Cl  Cl17  1  0.17615305  0.98908805  0.61382027  1
  Cl  Cl18  1  0.29108977  0.23651056  0.41709845  1
  Cl  Cl19  1  0.26642343  0.58645745  0.22038049  1
  Cl  Cl20  1  0.93339514  0.74540530  0.17665205  1
  Cl  Cl21  1  0.81558516  0.51348573  0.49298367  1
  Cl  Cl22  1  0.27868241  0.24349104  0.06931860  1
  Cl  Cl23  1  0.93056302  0.23775014  0.32443297  1
  Cl  Cl24  1  0.24104441  0.43265856  0.67552383  1
  Cl  Cl25  1  0.55134358  0.43923700  0.07336576  1
  Cl  Cl26  1  0.56139728  0.94861692  0.10881468  1
  Cl  Cl27  1  0.75173211  0.07289432  0.22045433  1
  Cl  Cl28  1  0.93507398  0.75473838  0.83931193  1
  Cl  Cl29  1  0.04505648  0.95246325  0.39208443  1
  Cl  Cl30  1  0.25737988  0.08093767  0.28064647  1
  Cl  Cl31  1  0.94864666  0.04189860  0.57339157  1
  Cl  Cl32  1  0.02080530  0.69328097  0.05707162  1
  Cl  Cl33  1  0.04189860  0.94864666  0.07339157  1
  Cl  Cl34  1  0.51348573  0.81558516  0.99298367  1
  Cl  Cl35  1  0.43923700  0.55134358  0.57336576  1
  Cl  Cl36  1  0.43265856  0.24104441  0.17552383  1
  Cl  Cl37  1  0.93420844  0.55791193  0.93560968  1
  Cl  Cl38  1  0.05122777  0.44683655  0.11127471  1
  Cl  Cl39  1  0.58645745  0.26642343  0.72038049  1
  Cl  Cl40  1  0.78237258  0.73849820  0.42141263  1
  Cl  Cl41  1  0.19188504  0.01358395  0.94673885  1
  Cl  Cl42  1  0.19434039  0.31242030  0.22058414  1
  Cl  Cl43  1  0.65682928  0.47938310  0.94248159  1
  Cl  Cl44  1  0.16944360  0.49707511  0.88765589  1
  Cl  Cl45  1  0.78229940  0.24557091  0.07742897  1
  Cl  Cl46  1  0.55791193  0.93420844  0.43560968  1
  Cl  Cl47  1  0.69328097  0.02080530  0.55707162  1
  Cl  Cl48  1  0.29241564  0.73245052  0.08444091  1
  Cl  Cl49  1  0.22843357  0.78291524  0.93491324  1
  Cl  Cl50  1  0.01280726  0.81677174  0.50738374  1
  Cl  Cl51  1  0.31520141  0.51470377  0.00586940  1
  Cl  Cl52  1  0.57680911  0.75997716  0.78131990  1
  Cl  Cl53  1  0.30664855  0.70002920  0.77894491  1
  Cl  Cl54  1  0.81216061  0.19307963  0.77795104  1
  Cl  Cl55  1  0.04322538  0.45109334  0.42152849  1
  Cl  Cl56  1  0.75473838  0.93507398  0.33931193  1
  Cl  Cl57  1  0.73245052  0.29241564  0.58444091  1
  Cl  Cl58  1  0.68605522  0.00030690  0.88678771  1
  Cl  Cl59  1  0.19307963  0.81216061  0.27795104  1
  Cl  Cl60  1  0.75763320  0.44369625  0.82413594  1
  Cl  Cl61  1  0.76037069  0.43904695  0.16253400  1
  Cl  Cl62  1  0.50737142  0.46902915  0.74693458  1
  Cl  Cl63  1  0.00030690  0.68605522  0.38678771  1
  Cl  Cl64  1  0.71865297  0.78468417  0.56449527  1
  Cl  Cl65  1  0.44683655  0.05122777  0.61127471  1
  Cl  Cl66  1  0.45109334  0.04322538  0.92152849  1
  Cl  Cl67  1  0.08093767  0.25737988  0.78064647  1
  Cl  Cl68  1  0.23775014  0.93056302  0.82443297  1
  Cl  Cl69  1  0.47938310  0.65682928  0.44248159  1
  Cl  Cl70  1  0.25000863  0.93963161  0.16122067  1
  Cl  Cl71  1  0.51470377  0.31520141  0.50586940  1
  Cl  Cl72  1  0.93963161  0.25000863  0.66122067  1
  Cl  Cl73  1  0.46902915  0.50737142  0.24693458  1
  Cl  Cl74  1  0.51152398  0.97244842  0.75623778  1
  Cl  Cl75  1  0.97244842  0.51152398  0.25623778  1
  Cl  Cl76  1  0.01358395  0.19188504  0.44673885  1
  Cl  Cl77  1  0.44374382  0.56118925  0.88863363  1
  Cl  Cl78  1  0.49707511  0.16944360  0.38765589  1
  Cl  Cl79  1  0.44369625  0.75763320  0.32413594  1
  Cl  Cl80  1  0.74540530  0.93339514  0.67665205  1
  Cl  Cl81  1  0.94861692  0.56139728  0.60881468  1
  Cl  Cl82  1  0.28126317  0.74417620  0.42885367  1
  Cl  Cl83  1  0.98908805  0.17615305  0.11382027  1
  Cl  Cl84  1  0.31721150  0.00968913  0.49434884  1
  Cl  Cl85  1  0.74417620  0.28126317  0.92885367  1
  Cl  Cl86  1  0.50950348  0.67972171  0.11213880  1
  Cl  Cl87  1  0.70032407  0.80583647  0.22330665  1
  Cl  Cl88  1  0.81677174  0.01280726  0.00738374  1
  Cl  Cl89  1  0.23651056  0.29108977  0.91709845  1
  Cl  Cl90  1  0.24349104  0.27868241  0.56931860  1
  Cl  Cl91  1  0.43904644  0.25229091  0.83793136  1
  Cl  Cl92  1  0.75997716  0.57680911  0.28131990  1
  Cl  Cl93  1  0.31242030  0.19434039  0.72058414  1
  Cl  Cl94  1  0.95246325  0.04505648  0.89208443  1
  Cl  Cl95  1  0.16216550  0.48070864  0.55371513  1
loop_
_geom_bond_atom_site_label_1
_geom_bond_atom_site_label_2
_geom_bond_distance
_geom_bond_site_symmetry_2
Cl0 Co10 2.262032 1_555
Cl0 K28 3.292487 1_554
Cl0 K11 3.327098 1_555
Cl0 K21 3.535478 1_555
Cl0 K29 3.629288 1_554
Cl0 K42 3.738249 1_555
Cl1 Co17 2.253841 1_555
Cl1 K28 3.201566 1_555
Cl1 K29 3.226757 1_555
Cl1 K20 3.290233 1_555
Cl2 Co5 2.275272 1_555
Cl2 K32 3.220673 1_555
Cl2 K36 3.277036 1_555
Cl2 K23 3.341014 1_555
Cl2 K31 3.556303 1_555
Cl3 Co3 2.273116 1_555
Cl3 K33 3.337418 1_555
Cl3 K10 3.383745 1_555
Cl3 K34 3.407371 1_555
Cl3 K6 3.428795 1_555
Cl4 Co13 2.280442 1_555
Cl4 K34 3.224788 1_555
Cl4 K6 3.228350 1_555
Cl4 K41 3.311412 1_555
Cl4 K20 3.495446 1_555
Cl5 Co0 2.274284 1_555
Cl5 K46 3.253977 1_554
Cl5 K0 3.338603 1_545
Cl5 K4 3.412019 1_554
Cl5 K31 3.538057 1_555
Cl6 Co12 2.251246 1_455
Cl6 K24 3.241835 1_555
Cl6 K6 3.256301 1_455
Cl6 K45 3.330536 1_555
Cl7 Co14 2.262960 1_555
Cl7 K9 3.265211 1_555
Cl7 K36 3.335517 1_555
Cl7 K23 3.519660 1_555
Cl7 K16 3.548576 1_555
Cl8 Co2 2.248165 1_555
Cl8 K8 3.217879 1_555
Cl8 K24 3.247994 1_555
Cl8 K2 3.304819 1_555
Cl9 Co18 2.254217 1_545
Cl9 K1 3.238632 1_655
Cl9 K40 3.250877 1_545
Cl9 K26 3.282601 1_655
Cl10 Co11 2.244412 1_456
Cl10 K35 3.145714 1_556
Cl10 K17 3.188865 1_455
Cl10 K38 3.210074 1_556
Cl11 Co13 2.254217 1_455
Cl11 K3 3.238632 1_565
Cl11 K22 3.250877 1_455
Cl11 K47 3.282601 1_565
Cl12 Co7 2.251246 1_545
Cl12 K31 3.241835 1_555
Cl12 K25 3.256301 1_545
Cl12 K36 3.330536 1_555
Cl13 Co6 2.244045 1_555
Cl13 K34 3.193875 1_555
Cl13 K2 3.254384 1_555
Cl13 K24 3.410509 1_555
Cl14 Co13 2.268498 1_455
Cl14 K14 3.320844 1_555
Cl14 K24 3.394090 1_555
Cl14 K45 3.469951 1_555
Cl14 K41 3.543141 1_455
Cl15 Co9 2.273568 1_555
Cl15 K32 3.261475 1_555
Cl15 K23 3.317060 1_555
Cl15 K39 3.348426 1_555
Cl15 K10 3.397132 1_555
Cl16 Co15 2.244354 1_555
Cl16 K37 3.190227 1_555
Cl16 K30 3.219597 1_555
Cl16 K1 3.364399 1_555
Cl17 Co2 2.264605 1_555
Cl17 K41 3.298788 1_455
Cl17 K14 3.325179 1_555
Cl17 K19 3.455672 1_565
Cl17 K47 3.511970 1_565
Cl18 Co9 2.251971 1_555
Cl18 K19 3.253996 1_555
Cl18 K30 3.258932 1_555
Cl18 K1 3.289399 1_555
Cl19 Co15 2.271206 1_555
Cl19 K25 3.303345 1_555
Cl19 K18 3.376075 1_555
Cl19 K37 3.398816 1_555
Cl19 K5 3.401460 1_555
Cl20 Co10 2.226886 1_555
Cl20 K40 3.208165 1_555
Cl20 K18 3.232779 1_655
Cl20 K11 3.434029 1_555
Cl21 Co3 2.239645 1_555
Cl21 K23 3.168187 1_555
Cl21 K10 3.211211 1_555
Cl21 K8 3.263717 1_655
Cl22 Co0 2.260975 1_555
Cl22 K35 3.232240 1_555
Cl22 K26 3.253294 1_555
Cl22 K5 3.366314 1_555
Cl23 Co14 2.231428 1_555
Cl23 K1 3.187307 1_655
Cl23 K7 3.189612 1_555
Cl23 K36 3.482727 1_555
Cl24 Co4 2.236087 1_555
Cl24 K24 3.196954 1_555
Cl24 K15 3.209545 1_555
Cl24 K47 3.414849 1_555
Cl25 Co0 2.250208 1_555
Cl25 K11 3.300234 1_555
Cl25 K42 3.301717 1_555
Cl25 K28 3.312409 1_554
Cl26 Co19 2.281397 1_555
Cl26 K25 3.243116 1_555
Cl26 K21 3.323124 1_555
Cl26 K31 3.354364 1_565
Cl26 K4 3.366779 1_564
Cl27 Co18 2.268498 1_545
Cl27 K7 3.320844 1_555
Cl27 K31 3.394090 1_555
Cl27 K36 3.469951 1_555
Cl27 K21 3.543141 1_545
Cl28 Co13 2.242103 1_555
Cl28 K45 3.193197 1_655
Cl28 K29 3.238873 1_555
Cl28 K20 3.420900 1_555
Cl29 Co22 2.289993 1_455
Cl29 K12 3.294687 1_555
Cl29 K40 3.321413 1_455
Cl29 K1 3.340268 1_565
Cl29 K19 3.361136 1_565
Cl30 Co7 2.274831 1_545
Cl30 K32 3.250798 1_555
Cl30 K1 3.327948 1_555
Cl30 K12 3.370826 1_545
Cl30 K26 3.462031 1_555
Cl31 Co21 2.252759 1_545
Cl31 K19 3.257451 1_655
Cl31 K47 3.299772 1_655
Cl31 K16 3.479837 1_555
Cl32 Co10 2.267628 1_455
Cl32 K38 3.301729 1_555
Cl32 K18 3.402673 1_555
Cl32 K29 3.421186 1_454
Cl32 K42 3.481859 1_455
Cl32 K0 3.557277 1_555
Cl33 Co10 2.252759 1_455
Cl33 K35 3.257451 1_565
Cl33 K26 3.299772 1_565
Cl33 K0 3.479837 1_555
Cl34 Co19 2.239645 1_556
Cl34 K13 3.168187 1_555
Cl34 K28 3.211211 1_555
Cl34 K4 3.263717 1_565
Cl35 Co4 2.250208 1_555
Cl35 K34 3.300234 1_555
Cl35 K2 3.301717 1_555
Cl35 K10 3.312409 1_555
Cl36 Co0 2.236087 1_555
Cl36 K31 3.196954 1_555
Cl36 K32 3.209545 1_555
Cl36 K26 3.414849 1_555
Cl37 Co1 2.257150 1_555
Cl37 K38 3.301000 1_656
Cl37 K29 3.311966 1_555
Cl37 K45 3.393229 1_655
Cl37 K42 3.528713 1_556
Cl38 Co11 2.282258 1_455
Cl38 K7 3.281543 1_455
Cl38 K5 3.305923 1_555
Cl38 K18 3.377429 1_555
Cl38 K38 3.384116 1_555
Cl39 Co23 2.271206 1_555
Cl39 K6 3.303345 1_555
Cl39 K43 3.376075 1_555
Cl39 K44 3.398816 1_555
Cl39 K33 3.401460 1_555
Cl40 Co22 2.253841 1_555
Cl40 K10 3.201566 1_555
Cl40 K27 3.226757 1_555
Cl40 K39 3.290233 1_555
Cl41 Co20 2.280173 1_545
Cl41 K0 3.311248 1_546
Cl41 K35 3.398615 1_556
Cl41 K29 3.422609 1_445
Cl41 K3 3.511793 1_555
Cl41 K46 3.594556 1_555
Cl42 Co15 2.275711 1_555
Cl42 K26 3.203665 1_555
Cl42 K7 3.220977 1_455
Cl42 K5 3.303918 1_555
Cl42 K1 3.481562 1_555
Cl43 Co1 2.269007 1_555
Cl43 K46 3.311943 1_555
Cl43 K28 3.366227 1_555
Cl43 K42 3.371486 1_556
Cl43 K20 3.455856 1_555
Cl44 Co8 2.276557 1_555
Cl44 K17 3.296543 1_455
Cl44 K15 3.369129 1_555
Cl44 K45 3.383496 1_555
Cl44 K38 3.399701 1_556
Cl45 Co11 2.248165 1_555
Cl45 K4 3.217879 1_554
Cl45 K31 3.247994 1_555
Cl45 K42 3.304819 1_555
Cl46 Co16 2.257150 1_555
Cl46 K9 3.301000 1_565
Cl46 K27 3.311966 1_555
Cl46 K36 3.393229 1_565
Cl46 K2 3.528713 1_555
Cl47 Co21 2.267628 1_545
Cl47 K9 3.301729 1_555
Cl47 K43 3.402673 1_555
Cl47 K27 3.421186 1_545
Cl47 K2 3.481859 1_545
Cl47 K16 3.557277 1_555
Cl48 Co19 2.250641 1_555
Cl48 K0 3.261777 1_555
Cl48 K18 3.295027 1_555
Cl48 K38 3.310387 1_555
Cl49 Co20 2.262960 1_555
Cl49 K38 3.265211 1_556
Cl49 K45 3.335517 1_555
Cl49 K13 3.519660 1_555
Cl49 K0 3.548576 1_556
Cl50 Co22 2.246470 1_455
Cl50 K41 3.180928 1_455
Cl50 K8 3.192065 1_555
Cl50 K19 3.259500 1_565
Cl51 Co8 2.243444 1_554
Cl51 K38 3.158244 1_555
Cl51 K5 3.188971 1_555
Cl51 K28 3.228794 1_554
Cl52 Co6 2.266922 1_555
Cl52 K22 3.267370 1_555
Cl52 K13 3.404308 1_555
Cl52 K20 3.410415 1_555
Cl52 K34 3.451972 1_555
Cl53 Co6 2.275272 1_555
Cl53 K15 3.220673 1_555
Cl53 K45 3.277036 1_555
Cl53 K13 3.341014 1_555
Cl53 K24 3.556303 1_555
Cl54 Co12 2.271102 1_555
Cl54 K44 3.192002 1_555
Cl54 K22 3.254560 1_545
Cl54 K17 3.321378 1_555
Cl54 K43 3.443857 1_555
Cl55 Co14 2.250213 1_455
Cl55 K37 3.249001 1_555
Cl55 K8 3.254264 1_555
Cl55 K30 3.431534 1_555
Cl56 Co18 2.242103 1_555
Cl56 K36 3.193197 1_565
Cl56 K27 3.238873 1_555
Cl56 K39 3.420900 1_555
Cl57 Co3 2.250641 1_555
Cl57 K16 3.261777 1_555
Cl57 K43 3.295027 1_555
Cl57 K9 3.310387 1_555
Cl58 Co17 2.265156 1_545
Cl58 K13 3.283415 1_545
Cl58 K22 3.308736 1_545
Cl58 K4 3.441862 1_555
Cl58 K44 3.550019 1_555
Cl59 Co7 2.271102 1_555
Cl59 K37 3.192002 1_555
Cl59 K40 3.254560 1_455
Cl59 K12 3.321378 1_555
Cl59 K18 3.443857 1_555
Cl60 Co1 2.234741 1_555
Cl60 K6 3.194195 1_555
Cl60 K20 3.222665 1_555
Cl60 K44 3.460340 1_555
Cl61 Co5 2.244045 1_555
Cl61 K11 3.193875 1_555
Cl61 K42 3.254384 1_555
Cl61 K31 3.410509 1_555
Cl62 Co23 2.251963 1_555
Cl62 K20 3.236445 1_555
Cl62 K15 3.281819 1_555
Cl62 K34 3.298884 1_555
Cl63 Co22 2.265156 1_455
Cl63 K23 3.283415 1_455
Cl63 K40 3.308736 1_455
Cl63 K8 3.441862 1_555
Cl63 K37 3.550019 1_555
Cl64 Co21 2.262032 1_555
Cl64 K10 3.292487 1_555
Cl64 K34 3.327098 1_555
Cl64 K41 3.535478 1_555
Cl64 K27 3.629288 1_555
Cl64 K2 3.738249 1_555
Cl65 Co2 2.282258 1_545
Cl65 K14 3.281543 1_545
Cl65 K33 3.305923 1_555
Cl65 K43 3.377429 1_555
Cl65 K9 3.384116 1_555
Cl66 Co20 2.250213 1_545
Cl66 K44 3.249001 1_555
Cl66 K4 3.254264 1_555
Cl66 K46 3.431534 1_555
Cl67 Co12 2.274831 1_455
Cl67 K15 3.250798 1_555
Cl67 K3 3.327948 1_555
Cl67 K17 3.370826 1_455
Cl67 K47 3.462031 1_555
Cl68 Co20 2.231428 1_555
Cl68 K3 3.187307 1_565
Cl68 K14 3.189612 1_555
Cl68 K45 3.482727 1_555
Cl69 Co16 2.269007 1_555
Cl69 K30 3.311943 1_555
Cl69 K10 3.366227 1_555
Cl69 K2 3.371486 1_555
Cl69 K39 3.455856 1_555
Cl70 Co7 2.240919 1_555
Cl70 K26 3.188847 1_565
Cl70 K0 3.196334 1_555
Cl70 K18 3.396024 1_555
Cl71 Co9 2.243444 1_555
Cl71 K9 3.158244 1_555
Cl71 K33 3.188971 1_555
Cl71 K10 3.228794 1_555
Cl72 Co12 2.240919 1_555
Cl72 K47 3.188847 1_655
Cl72 K16 3.196334 1_555
Cl72 K43 3.396024 1_555
Cl73 Co15 2.251963 1_555
Cl73 K39 3.236445 1_555
Cl73 K32 3.281819 1_555
Cl73 K11 3.298884 1_555
Cl74 Co6 2.254956 1_555
Cl74 K43 3.248980 1_565
Cl74 K14 3.252535 1_555
Cl74 K44 3.282608 1_565
Cl75 Co5 2.254956 1_555
Cl75 K18 3.248980 1_655
Cl75 K7 3.252535 1_555
Cl75 K37 3.282608 1_655
Cl76 Co14 2.280173 1_455
Cl76 K16 3.311248 1_455
Cl76 K19 3.398615 1_555
Cl76 K27 3.422609 1_445
Cl76 K1 3.511793 1_555
Cl76 K30 3.594556 1_555
Cl77 Co8 2.273568 1_555
Cl77 K15 3.261475 1_555
Cl77 K13 3.317060 1_555
Cl77 K20 3.348426 1_555
Cl77 K28 3.397132 1_555
Cl78 Co9 2.276557 1_555
Cl78 K12 3.296543 1_545
Cl78 K32 3.369129 1_555
Cl78 K36 3.383496 1_555
Cl78 K9 3.399701 1_555
Cl79 Co16 2.234741 1_555
Cl79 K25 3.194195 1_555
Cl79 K39 3.222665 1_555
Cl79 K37 3.460340 1_555
Cl80 Co21 2.226886 1_555
Cl80 K22 3.208165 1_555
Cl80 K43 3.232779 1_565
Cl80 K34 3.434029 1_555
Cl81 Co3 2.281397 1_555
Cl81 K6 3.243116 1_555
Cl81 K41 3.323124 1_555
Cl81 K24 3.354364 1_655
Cl81 K8 3.366779 1_655
Cl82 Co16 2.251548 1_555
Cl82 K37 3.220031 1_555
Cl82 K8 3.287639 1_555
Cl82 K12 3.360814 1_555
Cl83 Co11 2.264605 1_555
Cl83 K21 3.298788 1_545
Cl83 K7 3.325179 1_555
Cl83 K35 3.455672 1_655
Cl83 K26 3.511970 1_655
Cl84 Co2 2.244412 1_545
Cl84 K19 3.145714 1_555
Cl84 K12 3.188865 1_545
Cl84 K9 3.210074 1_555
Cl85 Co1 2.251548 1_555
Cl85 K44 3.220031 1_555
Cl85 K4 3.287639 1_555
Cl85 K17 3.360814 1_555
Cl86 Co19 2.273116 1_555
Cl86 K5 3.337418 1_555
Cl86 K28 3.383745 1_554
Cl86 K11 3.407371 1_555
Cl86 K25 3.428795 1_555
Cl87 Co18 2.280442 1_555
Cl87 K11 3.224788 1_555
Cl87 K25 3.228350 1_555
Cl87 K21 3.311412 1_555
Cl87 K39 3.495446 1_555
Cl88 Co17 2.246470 1_544
Cl88 K21 3.180928 1_545
Cl88 K4 3.192065 1_554
Cl88 K35 3.259500 1_655
Cl89 Co8 2.251971 1_555
Cl89 K35 3.253996 1_556
Cl89 K46 3.258932 1_555
Cl89 K3 3.289399 1_555
Cl90 Co4 2.260975 1_555
Cl90 K19 3.232240 1_555
Cl90 K47 3.253294 1_555
Cl90 K33 3.366314 1_555
Cl91 Co23 2.244354 1_555
Cl91 K44 3.190227 1_555
Cl91 K46 3.219597 1_555
Cl91 K3 3.364399 1_555
Cl92 Co5 2.266922 1_555
Cl92 K40 3.267370 1_555
Cl92 K23 3.404308 1_555
Cl92 K39 3.410415 1_555
Cl92 K11 3.451972 1_555
Cl93 Co23 2.275711 1_555
Cl93 K47 3.203665 1_555
Cl93 K14 3.220977 1_545
Cl93 K33 3.303918 1_555
Cl93 K3 3.481562 1_555
Cl94 Co17 2.289993 1_545
Cl94 K17 3.294687 1_555
Cl94 K22 3.321413 1_545
Cl94 K3 3.340268 1_655
Cl94 K35 3.361136 1_656
Cl95 Co4 2.274284 1_555
Cl95 K30 3.253977 1_555
Cl95 K16 3.338603 1_455
Cl95 K8 3.412019 1_555
Cl95 K24 3.538057 1_555
