# generated using pymatgen
data_SrAl2(SiO4)2
_symmetry_space_group_name_H-M   'P 1'
_cell_length_a   9.49806782
_cell_length_b   9.49806782
_cell_length_c   10.54480790
_cell_angle_alpha   78.59590517
_cell_angle_beta   78.59590517
_cell_angle_gamma   80.30147208
_symmetry_Int_Tables_number   1
_chemical_formula_structural   SrAl2(SiO4)2
_chemical_formula_sum   'Sr4 Al8 Si8 O32'
_cell_volume   905.76828388
_cell_formula_units_Z   4
loop_
 _symmetry_equiv_pos_site_id
 _symmetry_equiv_pos_as_xyz
  1  'x, y, z'
loop_
 _atom_site_type_symbol
 _atom_site_label
 _atom_site_symmetry_multiplicity
 _atom_site_fract_x
 _atom_site_fract_y
 _atom_site_fract_z
 _atom_site_occupancy
  Sr  Sr0  1  0.31862700  0.05373200  0.27591900  1
  Sr  Sr1  1  0.68137300  0.94626800  0.72408100  1
  Sr  Sr2  1  0.94626800  0.68137300  0.22408100  1
  Sr  Sr3  1  0.05373200  0.31862700  0.77591900  1
  Al  Al0  1  0.05845500  0.11073700  0.10995000  1
  Al  Al1  1  0.44305600  0.71200500  0.92542800  1
  Al  Al2  1  0.88926300  0.94154500  0.39005000  1
  Al  Al3  1  0.71200500  0.44305600  0.42542800  1
  Al  Al4  1  0.11073700  0.05845500  0.60995000  1
  Al  Al5  1  0.55694400  0.28799500  0.07457200  1
  Al  Al6  1  0.94154500  0.88926300  0.89005000  1
  Al  Al7  1  0.28799500  0.55694400  0.57457200  1
  Si  Si0  1  0.98872400  0.22982500  0.37488300  1
  Si  Si1  1  0.01127600  0.77017500  0.62511700  1
  Si  Si2  1  0.25349400  0.45726400  0.07862700  1
  Si  Si3  1  0.74650600  0.54273600  0.92137300  1
  Si  Si4  1  0.77017500  0.01127600  0.12511700  1
  Si  Si5  1  0.22982500  0.98872400  0.87488300  1
  Si  Si6  1  0.54273600  0.74650600  0.42137300  1
  Si  Si7  1  0.45726400  0.25349400  0.57862700  1
  O  O0  1  0.62817900  0.68972900  0.87478600  1
  O  O1  1  0.88403900  0.12962400  0.07754500  1
  O  O2  1  0.56793100  0.35147500  0.46608900  1
  O  O3  1  0.31027100  0.37182100  0.62521400  1
  O  O4  1  0.46831100  0.83676300  0.30302000  1
  O  O5  1  0.89598900  0.39129600  0.38729400  1
  O  O6  1  0.64852500  0.43206900  0.03391100  1
  O  O7  1  0.06928700  0.86666200  0.31799700  1
  O  O8  1  0.12962400  0.88403900  0.57754500  1
  O  O9  1  0.12251600  0.18516200  0.46208600  1
  O  O10  1  0.43206900  0.64852500  0.53391100  1
  O  O11  1  0.21760300  0.07182100  0.72390000  1
  O  O12  1  0.68972900  0.62817900  0.37478600  1
  O  O13  1  0.81483800  0.87748400  0.03791400  1
  O  O14  1  0.60870400  0.10401100  0.11270600  1
  O  O15  1  0.07182100  0.21760300  0.22390000  1
  O  O16  1  0.53168900  0.16323700  0.69698000  1
  O  O17  1  0.35147500  0.56793100  0.96608900  1
  O  O18  1  0.39129600  0.89598900  0.88729400  1
  O  O19  1  0.37182100  0.31027100  0.12521400  1
  O  O20  1  0.87748400  0.81483800  0.53791400  1
  O  O21  1  0.87037600  0.11596100  0.42245500  1
  O  O22  1  0.92817900  0.78239700  0.77610000  1
  O  O23  1  0.78239700  0.92817900  0.27610000  1
  O  O24  1  0.16323700  0.53168900  0.19698000  1
  O  O25  1  0.11596100  0.87037600  0.92245500  1
  O  O26  1  0.10401100  0.60870400  0.61270600  1
  O  O27  1  0.86666200  0.06928700  0.81799700  1
  O  O28  1  0.93071300  0.13333800  0.68200300  1
  O  O29  1  0.83676300  0.46831100  0.80302000  1
  O  O30  1  0.18516200  0.12251600  0.96208600  1
  O  O31  1  0.13333800  0.93071300  0.18200300  1
loop_
_geom_bond_atom_site_label_1
_geom_bond_atom_site_label_2
_geom_bond_distance
_geom_bond_site_symmetry_2
Al0 O1 1.729972 1_455
Al0 O15 1.753918 1_555
Al0 O30 1.768131 1_554
Al0 O31 1.815772 1_545
Al1 O17 1.683623 1_555
Al1 O18 1.722775 1_555
Al1 O0 1.723256 1_555
Al2 O21 1.729972 1_565
Al2 O23 1.753918 1_555
Al2 O20 1.768131 1_555
Al2 O7 1.815772 1_655
Al3 O2 1.683623 1_555
Al3 O5 1.722775 1_555
Al3 O12 1.723256 1_555
Al4 O8 1.729972 1_545
Al4 O11 1.753918 1_555
Al4 O9 1.768131 1_555
Al4 O28 1.815772 1_455
Al5 O6 1.683623 1_555
Al5 O14 1.722775 1_555
Al5 O19 1.723256 1_555
Al6 O25 1.729972 1_655
Al6 O22 1.753918 1_555
Al6 O13 1.768131 1_556
Al6 O27 1.815772 1_565
Al7 O10 1.683623 1_555
Al7 O26 1.722775 1_555
Al7 O3 1.723256 1_555
O0 Si3 1.694725 1_555
O0 Sr1 2.698856 1_555
O1 Si4 1.629992 1_555
O2 Si7 1.666959 1_555
O3 Si7 1.694725 1_555
O3 Sr3 2.698856 1_555
O4 Si6 1.585479 1_555
O4 Sr0 2.300086 1_565
O5 Si0 1.650366 1_555
O5 Sr2 3.004024 1_555
O6 Si3 1.666959 1_554
O7 Sr2 2.698678 1_455
O8 Si1 1.629992 1_555
O9 Si0 1.663298 1_455
O9 Sr0 2.760665 1_555
O10 Si6 1.666959 1_555
O11 Si5 1.648165 1_545
O11 Sr3 2.675851 1_555
O12 Si6 1.694725 1_555
O12 Sr2 2.698856 1_555
O13 Si4 1.663298 1_565
O13 Sr2 2.760665 1_555
O14 Si4 1.650366 1_555
O14 Sr0 3.004024 1_555
O15 Si0 1.648165 1_455
O15 Sr0 2.675851 1_555
O16 Si7 1.585479 1_555
O16 Sr1 2.300086 1_545
O17 Si2 1.666959 1_556
O18 Si5 1.650366 1_555
O18 Sr1 3.004024 1_555
O19 Si2 1.694725 1_555
O19 Sr0 2.698856 1_555
O20 Si1 1.663298 1_655
O20 Sr1 2.760665 1_555
O21 Si0 1.629992 1_555
O22 Si1 1.648165 1_655
O22 Sr1 2.675851 1_555
O23 Si4 1.648165 1_565
O23 Sr2 2.675851 1_555
O24 Si2 1.585479 1_555
O24 Sr2 2.300086 1_455
O25 Si5 1.629992 1_555
O26 Si1 1.650366 1_555
O26 Sr3 3.004024 1_555
O27 Sr1 2.698678 1_545
O28 Sr3 2.698678 1_655
O29 Si3 1.585479 1_555
O29 Sr3 2.300086 1_655
O30 Si5 1.663298 1_545
O30 Sr3 2.760665 1_555
O31 Sr0 2.698678 1_565
