# generated using pymatgen
data_LiTi2NbCu2O9
_symmetry_space_group_name_H-M   'P 1'
_cell_length_a   6.47508844
_cell_length_b   6.52914890
_cell_length_c   19.51602563
_cell_angle_alpha   109.48789168
_cell_angle_beta   109.33806958
_cell_angle_gamma   109.65517850
_symmetry_Int_Tables_number   1
_chemical_formula_structural   LiTi2NbCu2O9
_chemical_formula_sum   'Li4 Ti8 Nb4 Cu8 O36'
_cell_volume   634.61024047
_cell_formula_units_Z   4
loop_
 _symmetry_equiv_pos_site_id
 _symmetry_equiv_pos_as_xyz
  1  'x, y, z'
loop_
 _atom_site_type_symbol
 _atom_site_label
 _atom_site_symmetry_multiplicity
 _atom_site_fract_x
 _atom_site_fract_y
 _atom_site_fract_z
 _atom_site_occupancy
  Li  Li0  1  0.96856200  0.05145800  0.97672100  1
  Li  Li1  1  0.99620800  0.49838800  0.83221100  1
  Li  Li2  1  0.98705000  0.08740400  0.67935600  1
  Li  Li3  1  0.93040800  0.88895200  0.32504000  1
  Ti  Ti0  1  0.98260300  0.50827700  0.66442800  1
  Ti  Ti1  1  0.98610400  0.98949700  0.49810900  1
  Ti  Ti2  1  0.99730800  0.48601500  0.33457800  1
  Ti  Ti3  1  0.00005100  0.00900800  0.82865300  1
  Ti  Ti4  1  0.48549000  0.49338100  0.49604400  1
  Ti  Ti5  1  0.00690300  0.51787800  0.00278700  1
  Ti  Ti6  1  0.47818800  0.49016700  0.16598000  1
  Ti  Ti7  1  0.98496300  0.98464600  0.16517400  1
  Nb  Nb0  1  0.51179400  0.50945700  0.83347300  1
  Nb  Nb1  1  0.49323100  0.00130000  0.66301100  1
  Nb  Nb2  1  0.48560700  0.99782800  0.33182700  1
  Nb  Nb3  1  0.49009900  0.00468400  0.00318600  1
  Cu  Cu0  1  0.50352400  0.00135700  0.83424300  1
  Cu  Cu1  1  0.48960400  0.50047300  0.66318200  1
  Cu  Cu2  1  0.49725300  0.99703900  0.49876400  1
  Cu  Cu3  1  0.50378900  0.50232700  0.33267500  1
  Cu  Cu4  1  0.99873900  0.49852300  0.49962800  1
  Cu  Cu5  1  0.49783400  0.49884500  0.00207600  1
  Cu  Cu6  1  0.50412300  0.00190000  0.16955700  1
  Cu  Cu7  1  0.99518300  0.49905000  0.16576200  1
  O  O0  1  0.18009100  0.69842900  0.96136800  1
  O  O1  1  0.12826000  0.81119500  0.76997700  1
  O  O2  1  0.17271100  0.28644900  0.82152500  1
  O  O3  1  0.17519700  0.68560500  0.62271400  1
  O  O4  1  0.29896800  0.12864000  0.94094900  1
  O  O5  1  0.51167000  0.82391300  0.89850900  1
  O  O6  1  0.29987200  0.47663500  0.72420500  1
  O  O7  1  0.12496000  0.82034900  0.43367600  1
  O  O8  1  0.18460400  0.31172000  0.49607800  1
  O  O9  1  0.68917600  0.51209400  0.94204000  1
  O  O10  1  0.50321000  0.18168600  0.77172600  1
  O  O11  1  0.30236700  0.13097900  0.60622600  1
  O  O12  1  0.17052000  0.69374300  0.28965700  1
  O  O13  1  0.51050900  0.81523900  0.56157500  1
  O  O14  1  0.69507300  0.86867400  0.72465700  1
  O  O15  1  0.31220500  0.49196300  0.39285500  1
  O  O16  1  0.13163800  0.81893800  0.10537700  1
  O  O17  1  0.82079300  0.71030200  0.84166200  1
  O  O18  1  0.17898300  0.31204100  0.16372300  1
  O  O19  1  0.87637200  0.18547800  0.89754300  1
  O  O20  1  0.68934500  0.51284400  0.60604100  1
  O  O21  1  0.31011100  0.13334400  0.27289800  1
  O  O22  1  0.48953600  0.18102700  0.43738300  1
  O  O23  1  0.81625800  0.29321300  0.70204000  1
  O  O24  1  0.52105400  0.82013500  0.23190700  1
  O  O25  1  0.69938900  0.87315400  0.39103300  1
  O  O26  1  0.29942700  0.47691000  0.05926800  1
  O  O27  1  0.81928800  0.69045700  0.50183100  1
  O  O28  1  0.87072300  0.17572700  0.56249000  1
  O  O29  1  0.69661200  0.51511600  0.27335200  1
  O  O30  1  0.49263300  0.18472100  0.10704800  1
  O  O31  1  0.69007700  0.86855500  0.06073300  1
  O  O32  1  0.82484900  0.31105200  0.37706700  1
  O  O33  1  0.82059700  0.69586700  0.17109600  1
  O  O34  1  0.87545400  0.18110900  0.23151500  1
  O  O35  1  0.82284900  0.30484400  0.04179100  1
loop_
_geom_bond_atom_site_label_1
_geom_bond_atom_site_label_2
_geom_bond_distance
_geom_bond_site_symmetry_2
Li0 O19 2.037756 1_555
Li0 O26 2.372003 1_656
Li0 O35 2.383633 1_556
Li0 O17 2.408992 1_545
Li0 O4 2.411853 1_655
Li0 O5 2.414299 1_545
Li1 O0 2.060761 1_655
Li1 O17 2.064995 1_555
Li1 O2 2.072124 1_655
Li1 O23 2.079630 1_555
Li2 O23 2.037569 1_555
Li2 O2 2.272994 1_655
Li2 O6 2.281710 1_655
Li2 O28 2.476647 1_555
Li2 O14 2.555095 1_545
Li2 O13 2.617483 1_545
Li3 O29 2.031520 1_555
Li3 O25 2.273273 1_555
Li3 O7 2.350947 1_655
Li3 O12 2.444465 1_655
Li3 O24 2.448356 1_555
Li3 O33 2.564419 1_555
Nb0 O17 1.905707 1_555
Nb0 O6 2.008890 1_555
Nb0 O5 2.022226 1_555
Nb0 O9 2.039470 1_555
Nb0 O10 2.046966 1_555
Nb0 O2 2.068546 1_555
Nb1 O23 1.970315 1_555
Nb1 O11 1.973655 1_555
Nb1 O13 2.010163 1_545
Nb1 O10 2.020791 1_555
Nb1 O3 2.024405 1_545
Nb1 O14 2.078568 1_545
Nb2 O12 1.963281 1_555
Nb2 O21 1.971451 1_565
Nb2 O22 1.993959 1_565
Nb2 O24 2.041425 1_555
Nb2 O25 2.059169 1_555
Nb2 O32 2.067810 1_565
Nb3 O0 1.954430 1_544
Nb3 O30 1.966189 1_555
Nb3 O4 1.999022 1_554
Nb3 O35 2.037112 1_555
Nb3 O31 2.050639 1_545
Nb3 O5 2.068098 1_544
Cu0 O10 1.957882 1_555
Cu0 O19 1.970093 1_555
Cu0 O5 1.971019 1_545
Cu0 O1 1.982922 1_545
Cu1 O14 1.963590 1_555
Cu1 O20 1.966691 1_555
Cu1 O11 1.968800 1_555
Cu1 O6 1.978849 1_555
Cu2 O22 1.959965 1_565
Cu2 O7 1.969520 1_555
Cu2 O13 1.971968 1_555
Cu2 O28 1.974314 1_565
Cu3 O29 1.964159 1_555
Cu3 O21 1.964957 1_555
Cu3 O15 1.970874 1_555
Cu3 O25 1.976180 1_555
Cu4 O32 1.955248 1_555
Cu4 O3 1.963032 1_655
Cu4 O27 1.974621 1_555
Cu4 O8 1.981683 1_655
Cu5 O26 1.961973 1_555
Cu5 O9 1.967795 1_554
Cu5 O31 1.969264 1_555
Cu5 O4 1.971963 1_554
Cu6 O34 1.962211 1_555
Cu6 O24 1.965655 1_545
Cu6 O16 1.968688 1_545
Cu6 O30 1.972262 1_555
Cu7 O18 1.971127 1_655
Cu7 O33 1.976375 1_555
Cu7 O12 1.977772 1_655
Cu7 O35 1.979858 1_555
O0 Ti5 1.909831 1_556
O1 Ti0 1.945401 1_455
O1 Ti3 2.008149 1_565
O2 Ti3 1.859938 1_555
O3 Ti0 1.971893 1_455
O4 Ti3 2.047155 1_555
O6 Ti0 2.117328 1_455
O7 Ti2 2.024689 1_455
O7 Ti1 2.024719 1_455
O8 Ti4 1.910340 1_555
O8 Ti1 2.085673 1_445
O9 Ti5 1.985446 1_656
O11 Ti1 2.016019 1_445
O12 Ti2 2.070556 1_455
O13 Ti4 1.979534 1_555
O14 Ti3 1.935473 1_665
O15 Ti4 1.949019 1_555
O15 Ti2 1.958041 1_455
O16 Ti5 1.939056 1_555
O16 Ti7 2.004322 1_455
O17 Ti3 2.053789 1_665
O18 Ti6 1.871233 1_555
O18 Ti7 2.099011 1_445
O19 Ti3 2.019082 1_655
O19 Ti5 2.070094 1_656
O20 Ti0 1.879569 1_555
O20 Ti4 2.048251 1_555
O21 Ti7 2.031424 1_445
O22 Ti4 1.992111 1_555
O23 Ti0 1.965852 1_555
O24 Ti6 1.971214 1_555
O25 Ti1 1.952769 1_555
O26 Ti6 1.974922 1_555
O26 Ti5 2.007255 1_555
O27 Ti1 1.926659 1_555
O27 Ti4 2.051936 1_555
O28 Ti1 1.956726 1_545
O28 Ti0 2.074200 1_555
O29 Ti6 2.017999 1_555
O29 Ti2 2.028387 1_555
O30 Ti6 1.993768 1_555
O31 Ti7 1.947553 1_555
O32 Ti2 1.904391 1_555
O33 Ti7 1.891566 1_555
O33 Ti6 2.119002 1_555
O34 Ti2 1.962650 1_555
O34 Ti7 1.984007 1_545
O35 Ti5 2.031385 1_655
