# generated using pymatgen
data_CdH6C(BrN)3
_symmetry_space_group_name_H-M   'P 1'
_cell_length_a   8.98631125
_cell_length_b   8.98631125
_cell_length_c   7.60467110
_cell_angle_alpha   82.25475574
_cell_angle_beta   82.25475574
_cell_angle_gamma   129.46179566
_symmetry_Int_Tables_number   1
_chemical_formula_structural   CdH6C(BrN)3
_chemical_formula_sum   'Cd2 H12 C2 Br6 N6'
_cell_volume   449.87060347
_cell_formula_units_Z   2
loop_
 _symmetry_equiv_pos_site_id
 _symmetry_equiv_pos_as_xyz
  1  'x, y, z'
loop_
 _atom_site_type_symbol
 _atom_site_label
 _atom_site_symmetry_multiplicity
 _atom_site_fract_x
 _atom_site_fract_y
 _atom_site_fract_z
 _atom_site_occupancy
  Cd  Cd0  1  0.95084500  0.04915500  0.75000000  1
  Cd  Cd1  1  0.04915500  0.95084500  0.25000000  1
  H  H0  1  0.34733000  0.52716800  0.91418000  1
  H  H1  1  0.47283200  0.65267000  0.58582000  1
  H  H2  1  0.27796500  0.64086100  0.02847400  1
  H  H3  1  0.35913900  0.72203500  0.47152600  1
  H  H4  1  0.77304000  0.15903000  0.37079400  1
  H  H5  1  0.84097000  0.22696000  0.12920600  1
  H  H6  1  0.15903000  0.77304000  0.87079400  1
  H  H7  1  0.22696000  0.84097000  0.62920600  1
  H  H8  1  0.64086100  0.27796500  0.52847400  1
  H  H9  1  0.72203500  0.35913900  0.97152600  1
  H  H10  1  0.52716800  0.34733000  0.41418000  1
  H  H11  1  0.65267000  0.47283200  0.08582000  1
  C  C0  1  0.30721800  0.69278200  0.75000000  1
  C  C1  1  0.69278200  0.30721800  0.25000000  1
  Br  Br0  1  0.19628800  0.27780300  0.36425300  1
  Br  Br1  1  0.72219800  0.80371200  0.13574700  1
  Br  Br2  1  0.78926800  0.21073200  0.75000000  1
  Br  Br3  1  0.21073200  0.78926800  0.25000000  1
  Br  Br4  1  0.27780200  0.19628800  0.86425300  1
  Br  Br5  1  0.80371200  0.72219800  0.63574700  1
  N  N0  1  0.30727900  0.61100400  0.91018600  1
  N  N1  1  0.38899600  0.69272100  0.58981400  1
  N  N2  1  0.77501100  0.22498900  0.25000000  1
  N  N3  1  0.22498900  0.77501100  0.75000000  1
  N  N4  1  0.61100400  0.30727900  0.41018600  1
  N  N5  1  0.69272100  0.38899600  0.08981400  1
loop_
_geom_bond_atom_site_label_1
_geom_bond_atom_site_label_2
_geom_bond_distance
_geom_bond_site_symmetry_2
H0 N0 1.019547 1_555
H1 N1 1.019547 1_555
H2 N0 1.020577 1_554
H3 N1 1.020577 1_555
H4 N2 1.015370 1_555
H5 N2 1.015370 1_555
H6 N3 1.015370 1_555
H7 N3 1.015370 1_555
H8 N4 1.020577 1_555
H9 N5 1.020577 1_556
H10 N4 1.019547 1_555
H11 N5 1.019547 1_555
C0 N1 1.335429 1_555
C0 N0 1.335429 1_555
C0 N3 1.336458 1_555
C1 N5 1.335429 1_555
C1 N4 1.335429 1_555
C1 N2 1.336458 1_555
Br0 Cd1 2.682438 1_545
Br0 Cd0 2.926208 1_455
Br1 Cd1 2.682431 1_655
Br1 Cd0 2.926208 1_564
Br2 Cd0 2.626091 1_555
Br3 Cd1 2.626091 1_555
Br4 Cd0 2.682431 1_455
Br4 Cd1 2.926208 1_546
Br5 Cd0 2.682431 1_565
Br5 Cd1 2.926208 1_655
