# generated using pymatgen
data_Na3Zr2Si2PO12
_symmetry_space_group_name_H-M   'P 1'
_cell_length_a   9.16840700
_cell_length_b   9.17674931
_cell_length_c   16.37344864
_cell_angle_alpha   90.59394450
_cell_angle_beta   105.67310878
_cell_angle_gamma   119.81675532
_symmetry_Int_Tables_number   1
_chemical_formula_structural   Na3Zr2Si2PO12
_chemical_formula_sum   'Na12 Zr8 Si8 P4 O48'
_cell_volume   1133.39845216
_cell_formula_units_Z   4
loop_
 _symmetry_equiv_pos_site_id
 _symmetry_equiv_pos_as_xyz
  1  'x, y, z'
loop_
 _atom_site_type_symbol
 _atom_site_label
 _atom_site_symmetry_multiplicity
 _atom_site_fract_x
 _atom_site_fract_y
 _atom_site_fract_z
 _atom_site_occupancy
  Na  Na0  1  0.51945900  0.25770500  0.24483300  1
  Na  Na1  1  0.95585400  0.79615200  0.46901000  1
  Na  Na2  1  0.39188900  0.52112300  0.12580500  1
  Na  Na3  1  0.67229700  0.76192900  0.71761300  1
  Na  Na4  1  0.61584200  0.98242900  0.37942200  1
  Na  Na5  1  0.95441200  0.29453000  0.96979600  1
  Na  Na6  1  0.09321800  0.83931100  0.09065700  1
  Na  Na7  1  0.39410200  0.01434200  0.62903000  1
  Na  Na8  1  0.23826800  0.25016900  0.34791400  1
  Na  Na9  1  0.61379900  0.48375200  0.88023800  1
  Na  Na10  1  0.09531100  0.34254800  0.59200100  1
  Na  Na11  1  0.25122400  0.74765800  0.84168500  1
  Zr  Zr0  1  0.36259500  0.18244700  0.03086100  1
  Zr  Zr1  1  0.35674300  0.68042600  0.52868700  1
  Zr  Zr2  1  0.14052000  0.56281400  0.21548700  1
  Zr  Zr3  1  0.84043400  0.92159800  0.27495100  1
  Zr  Zr4  1  0.14516700  0.06695300  0.71696700  1
  Zr  Zr5  1  0.84300000  0.42187000  0.77556500  1
  Zr  Zr6  1  0.65411800  0.32945600  0.47461400  1
  Zr  Zr7  1  0.65365400  0.82965700  0.97465700  1
  Si  Si0  1  0.05002300  0.16765200  0.12859600  1
  Si  Si1  1  0.74895200  0.58768600  0.11904100  1
  Si  Si2  1  0.53085000  0.61565400  0.36732900  1
  Si  Si3  1  0.04741900  0.66834300  0.62758400  1
  Si  Si4  1  0.46769200  0.88233200  0.13165600  1
  Si  Si5  1  0.74896500  0.08816300  0.61814100  1
  Si  Si6  1  0.53203500  0.11796300  0.86863200  1
  Si  Si7  1  0.46815000  0.38135300  0.63044000  1
  P  P0  1  0.24879100  0.91308000  0.37805900  1
  P  P1  1  0.95510500  0.33103200  0.37439500  1
  P  P2  1  0.24815600  0.41113300  0.87969300  1
  P  P3  1  0.95960800  0.83079400  0.87652000  1
  O  O0  1  0.88395400  0.04361000  0.04134600  1
  O  O1  1  0.00181600  0.41182000  0.29603700  1
  O  O2  1  0.23226700  0.18190200  0.12235100  1
  O  O3  1  0.87807800  0.54576600  0.54092800  1
  O  O4  1  0.57459600  0.40076600  0.11307800  1
  O  O5  1  0.93464200  0.59080500  0.14691600  1
  O  O6  1  0.55474500  0.45226300  0.38952800  1
  O  O7  1  0.73150400  0.66039600  0.02780100  1
  O  O8  1  0.07172700  0.35654500  0.12633900  1
  O  O9  1  0.75077700  0.71185900  0.19285100  1
  O  O10  1  0.36576700  0.54411700  0.27756900  1
  O  O11  1  0.99568200  0.90704800  0.79477600  1
  O  O12  1  0.71754100  0.78104800  0.36430900  1
  O  O13  1  0.47889000  0.68327900  0.44205500  1
  O  O14  1  0.51602200  0.81146300  0.05646800  1
  O  O15  1  0.22395300  0.67996400  0.61603100  1
  O  O16  1  0.28625400  0.72181600  0.14227800  1
  O  O17  1  0.57825200  0.89822500  0.61062300  1
  O  O18  1  0.93321900  0.08822900  0.64859400  1
  O  O19  1  0.62889000  0.95029600  0.22329100  1
  O  O20  1  0.55811500  0.95900500  0.89506900  1
  O  O21  1  0.24103200  0.79257300  0.30851000  1
  O  O22  1  0.94221200  0.15551900  0.37026000  1
  O  O23  1  0.27058500  0.85031300  0.46644300  1
  O  O24  1  0.73424000  0.16227000  0.52733300  1
  O  O25  1  0.07023700  0.85780800  0.62787400  1
  O  O26  1  0.74944800  0.21191400  0.69184500  1
  O  O27  1  0.42429200  0.03197700  0.10683900  1
  O  O28  1  0.36674700  0.04632400  0.77868500  1
  O  O29  1  0.08017500  0.92493600  0.35764500  1
  O  O30  1  0.41081200  0.09512300  0.38393300  1
  O  O31  1  0.71707500  0.28251700  0.86304100  1
  O  O32  1  0.77399900  0.30566400  0.37487300  1
  O  O33  1  0.48118700  0.18986200  0.94255300  1
  O  O34  1  0.51509300  0.30724100  0.55599100  1
  O  O35  1  0.28724900  0.22309000  0.64216900  1
  O  O36  1  0.01467600  0.09153600  0.21531300  1
  O  O37  1  0.63329700  0.45896100  0.72184100  1
  O  O38  1  0.24030800  0.29183200  0.80929400  1
  O  O39  1  0.94659800  0.65526100  0.87138200  1
  O  O40  1  0.26370200  0.34338700  0.96680100  1
  O  O41  1  0.42935100  0.53297200  0.60378900  1
  O  O42  1  0.07878300  0.42313300  0.85696700  1
  O  O43  1  0.41079000  0.59204800  0.88865800  1
  O  O44  1  0.10640900  0.44837100  0.45804900  1
  O  O45  1  0.77803300  0.80438100  0.87636000  1
  O  O46  1  0.01364300  0.59159300  0.71446000  1
  O  O47  1  0.11178200  0.95012000  0.95847200  1
loop_
_geom_bond_atom_site_label_1
_geom_bond_atom_site_label_2
_geom_bond_distance
_geom_bond_site_symmetry_2
Na0 O32 2.539278 1_555
Na0 O4 2.573113 1_555
Na0 O2 2.595272 1_555
Na0 O27 2.682853 1_555
Na0 O6 2.798041 1_555
Na0 O30 2.867707 1_555
Na1 O12 2.324267 1_555
Na1 O29 2.418433 1_655
Na1 O3 2.460701 1_555
Na1 O25 2.468092 1_655
Na1 O23 2.686093 1_655
Na2 O4 2.468423 1_555
Na2 O16 2.511433 1_555
Na2 O8 2.550085 1_555
Na2 O10 2.576343 1_555
Na2 O40 2.678054 1_554
Na2 O2 2.693801 1_555
Na2 O9 2.716031 1_555
Na2 O14 2.725500 1_555
Na3 O17 2.382946 1_555
Na3 O41 2.423052 1_555
Na3 O45 2.467711 1_555
Na3 O11 2.484981 1_555
Na3 O37 2.625118 1_555
Na4 O12 2.484870 1_555
Na4 O24 2.546052 1_565
Na4 O30 2.572017 1_565
Na4 O32 2.586965 1_565
Na4 O19 2.611732 1_555
Na4 O22 2.649567 1_565
Na4 O13 2.736927 1_555
Na4 O21 2.835643 1_555
Na5 O31 2.346246 1_555
Na5 O8 2.433514 1_656
Na5 O42 2.439472 1_655
Na5 O0 2.465250 1_556
Na5 O40 2.656286 1_655
Na6 O5 2.373366 1_455
Na6 O47 2.412433 1_554
Na6 O16 2.473382 1_555
Na6 O27 2.574629 1_565
Na6 O2 2.720561 1_565
Na6 O7 2.731140 1_455
Na7 O17 2.476738 1_545
Na7 O28 2.558061 1_555
Na7 O25 2.570617 1_545
Na7 O35 2.578232 1_555
Na7 O15 2.634645 1_545
Na7 O23 2.688488 1_545
Na7 O26 2.689995 1_555
Na7 O34 2.775538 1_555
Na8 O36 2.365896 1_555
Na8 O6 2.424285 1_555
Na8 O22 2.540604 1_455
Na8 O30 2.574193 1_555
Na8 O29 2.620427 1_545
Na8 O10 2.761453 1_555
Na9 O31 2.501650 1_555
Na9 O7 2.529881 1_556
Na9 O43 2.538949 1_555
Na9 O45 2.564822 1_555
Na9 O37 2.662460 1_555
Na9 O33 2.694307 1_555
Na9 O39 2.697461 1_555
Na9 O38 2.826318 1_555
Na10 O44 2.414592 1_555
Na10 O18 2.419435 1_455
Na10 O35 2.475748 1_555
Na10 O41 2.611894 1_555
Na10 O15 2.688072 1_555
Na10 O24 2.727749 1_455
Na11 O46 2.349345 1_555
Na11 O20 2.377330 1_555
Na11 O43 2.502664 1_555
Na11 O42 2.641610 1_555
Na11 O39 2.672666 1_455
Na11 O28 2.731272 1_565
O0 Si0 1.649959 1_655
O0 Zr7 2.023054 1_544
O1 P1 1.542711 1_455
O1 Zr2 2.113856 1_555
O2 Si0 1.641560 1_555
O2 Zr0 2.152478 1_555
O3 Si3 1.651945 1_655
O3 Zr6 2.008204 1_555
O4 Si1 1.640920 1_555
O4 Zr0 2.064425 1_555
O5 Si1 1.624505 1_555
O5 Zr2 2.057324 1_655
O6 Si2 1.650226 1_555
O6 Zr6 2.099727 1_555
O7 Si1 1.643250 1_555
O7 Zr7 2.115235 1_554
O8 Si0 1.645600 1_555
O8 Zr2 2.090322 1_555
O9 Si1 1.643425 1_555
O9 Zr3 1.990792 1_555
O10 Si2 1.634562 1_555
O10 Zr2 2.132922 1_555
O11 P3 1.555279 1_555
O11 Zr4 2.153349 1_665
O12 Si2 1.643060 1_555
O12 Zr3 2.135034 1_555
O13 Si2 1.643853 1_555
O13 Zr1 2.024050 1_555
O14 Si4 1.643041 1_555
O14 Zr7 2.030494 1_554
O15 Si3 1.631258 1_555
O15 Zr1 2.112636 1_555
O16 Si4 1.640762 1_555
O16 Zr2 2.077015 1_555
O17 Si5 1.637519 1_565
O17 Zr1 2.086814 1_555
O18 Si5 1.626739 1_555
O18 Zr4 2.067360 1_655
O19 Si4 1.640202 1_555
O19 Zr3 2.042731 1_555
O20 Si6 1.635981 1_565
O20 Zr7 2.079347 1_555
O21 P0 1.541639 1_555
O21 Zr2 2.203960 1_555
O22 P1 1.554604 1_555
O22 Zr3 2.250739 1_545
O23 P0 1.562513 1_555
O23 Zr1 2.217166 1_555
O24 Si5 1.641711 1_555
O24 Zr6 2.108128 1_555
O25 Si3 1.644489 1_555
O25 Zr4 2.091130 1_565
O26 Si5 1.646122 1_555
O26 Zr5 1.998382 1_555
O27 Si4 1.636118 1_545
O27 Zr0 2.050952 1_555
O28 Si6 1.637382 1_555
O28 Zr4 2.112197 1_555
O29 P0 1.549943 1_555
O29 Zr3 2.233787 1_455
O30 P0 1.567904 1_545
O30 Zr6 2.275707 1_555
O31 Si6 1.644991 1_555
O31 Zr5 2.117288 1_555
O32 P1 1.560134 1_555
O32 Zr6 2.263588 1_555
O33 Si6 1.646754 1_555
O33 Zr0 2.013797 1_556
O34 Si7 1.640451 1_555
O34 Zr6 2.026438 1_555
O35 Si7 1.636906 1_555
O35 Zr4 2.071724 1_555
O36 Si0 1.628797 1_555
O36 Zr3 2.081941 1_445
O37 Si7 1.649457 1_555
O37 Zr5 2.080723 1_555
O38 P2 1.543729 1_555
O38 Zr4 2.176597 1_555
O39 P3 1.554589 1_555
O39 Zr5 2.247853 1_555
O40 P2 1.561311 1_555
O40 Zr0 2.225636 1_556
O41 Si7 1.635172 1_555
O41 Zr1 2.067434 1_555
O42 P2 1.555870 1_555
O42 Zr5 2.206306 1_455
O43 P2 1.554380 1_555
O43 Zr7 2.260382 1_555
O44 P1 1.554765 1_455
O44 Zr1 2.189634 1_555
O45 P3 1.557728 1_555
O45 Zr7 2.278491 1_555
O46 Si3 1.630098 1_555
O46 Zr5 2.080709 1_455
O47 P3 1.544314 1_455
O47 Zr0 2.199490 1_566
