# generated using pymatgen
data_Cs3MnH5
_symmetry_space_group_name_H-M   'P 1'
_cell_length_a   8.61622807
_cell_length_b   8.61620837
_cell_length_c   8.61610567
_cell_angle_alpha   122.11045086
_cell_angle_beta   122.11048016
_cell_angle_gamma   86.38137067
_symmetry_Int_Tables_number   1
_chemical_formula_structural   Cs3MnH5
_chemical_formula_sum   'Cs6 Mn2 H10'
_cell_volume   436.92782219
_cell_formula_units_Z   2
loop_
 _symmetry_equiv_pos_site_id
 _symmetry_equiv_pos_as_xyz
  1  'x, y, z'
loop_
 _atom_site_type_symbol
 _atom_site_label
 _atom_site_symmetry_multiplicity
 _atom_site_fract_x
 _atom_site_fract_y
 _atom_site_fract_z
 _atom_site_occupancy
  Cs  Cs0  1  0.24999940  0.25000086  0.00000039  1
  Cs  Cs1  1  0.75000025  0.75000004  0.00000026  1
  Cs  Cs2  1  0.18145057  0.68145094  0.86290392  1
  Cs  Cs3  1  0.81854949  0.31854967  0.13709700  1
  Cs  Cs4  1  0.68144603  0.81855429  0.50000017  1
  Cs  Cs5  1  0.31855407  0.18144680  0.50000003  1
  Mn  Mn0  1  0.25001064  0.75000377  0.50000559  1
  Mn  Mn1  1  0.74998867  0.24998872  0.49998737  1
  H  H0  1  0.45480188  0.95479968  0.74015892  1
  H  H1  1  0.21464340  0.71464122  0.25985260  1
  H  H2  1  0.95479349  0.21464459  0.50000025  1
  H  H3  1  0.71464411  0.45479897  0.50000000  1
  H  H4  1  0.54520804  0.04520479  0.25984889  1
  H  H5  1  0.78535925  0.28535677  0.74015503  1
  H  H6  1  0.04519688  0.78535277  0.49999421  1
  H  H7  1  0.28535218  0.54520607  0.49999443  1
  H  H8  1  0.49999954  0.49999996  -0.00000038  1
  H  H9  1  0.00000011  0.00000010  0.00000029  1
loop_
_geom_bond_atom_site_label_1
_geom_bond_atom_site_label_2
_geom_bond_distance
_geom_bond_site_symmetry_2
Cs0 H9 3.140955 1_555
Cs0 H8 3.140956 1_555
Cs1 H9 3.140955 1_665
Cs1 H8 3.140957 1_555
Cs2 H9 3.057421 1_566
Cs2 H8 3.057423 1_556
Cs2 H1 3.129163 1_556
Cs2 H4 3.129219 1_566
Cs2 H6 3.301169 1_555
Cs2 H7 3.301182 1_555
Cs2 H3 3.301196 1_455
Cs2 H2 3.301197 1_455
Cs3 H9 3.057425 1_655
Cs3 H8 3.057427 1_555
Cs3 H5 3.129105 1_554
Cs3 H0 3.129160 1_544
Cs3 H3 3.301149 1_555
Cs3 H2 3.301154 1_555
Cs3 H6 3.301163 1_655
Cs3 H7 3.301178 1_655
Cs4 H9 3.057433 1_666
Cs4 H8 3.057433 1_555
Cs4 H6 3.129181 1_655
Cs4 H3 3.129186 1_555
Cs4 H4 3.301113 1_565
Cs4 H0 3.301116 1_555
Cs4 H5 3.301152 1_565
Cs4 H1 3.301171 1_555
Cs5 H8 3.057428 1_556
Cs5 H9 3.057429 1_555
Cs5 H2 3.129240 1_455
Cs5 H7 3.129245 1_555
Cs5 H0 3.301135 1_545
Cs5 H4 3.301144 1_555
Cs5 H5 3.301180 1_555
Cs5 H1 3.301187 1_545
H0 Mn0 1.771619 1_555
H1 Mn0 1.771540 1_555
H2 Mn1 1.771639 1_555
H3 Mn1 1.771683 1_555
H4 Mn1 1.771520 1_555
H5 Mn1 1.771631 1_555
H6 Mn0 1.771725 1_555
H7 Mn0 1.771579 1_555
