# generated using pymatgen
data_Zr3Sc4O12
_symmetry_space_group_name_H-M   'P 1'
_cell_length_a   6.23209800
_cell_length_b   6.24987657
_cell_length_c   12.39775306
_cell_angle_alpha   99.37639915
_cell_angle_beta   99.43096997
_cell_angle_gamma   99.67259426
_symmetry_Int_Tables_number   1
_chemical_formula_structural   Zr3Sc4O12
_chemical_formula_sum   'Zr6 Sc8 O24'
_cell_volume   460.49799868
_cell_formula_units_Z   2
loop_
 _symmetry_equiv_pos_site_id
 _symmetry_equiv_pos_as_xyz
  1  'x, y, z'
loop_
 _atom_site_type_symbol
 _atom_site_label
 _atom_site_symmetry_multiplicity
 _atom_site_fract_x
 _atom_site_fract_y
 _atom_site_fract_z
 _atom_site_occupancy
  Zr  Zr0  1  0.14164100  0.61259800  0.90627700  1
  Zr  Zr1  1  0.99355600  0.99671500  0.75096000  1
  Zr  Zr2  1  0.31565200  0.14274700  0.55669900  1
  Zr  Zr3  1  0.68434800  0.85725300  0.44330100  1
  Zr  Zr4  1  0.00644400  0.00328500  0.24904000  1
  Zr  Zr5  1  0.85835900  0.38740200  0.09372300  1
  Sc  Sc0  1  0.13778400  0.60361000  0.40682400  1
  Sc  Sc1  1  0.39506000  0.67888500  0.68073900  1
  Sc  Sc2  1  0.39150100  0.68307000  0.17930100  1
  Sc  Sc3  1  0.32320700  0.14129100  0.05482700  1
  Sc  Sc4  1  0.60494000  0.32111500  0.31926100  1
  Sc  Sc5  1  0.67679300  0.85870900  0.94517300  1
  Sc  Sc6  1  0.86221600  0.39639000  0.59317600  1
  Sc  Sc7  1  0.60849900  0.31693000  0.82069900  1
  O  O0  1  0.06393400  0.67555800  0.70925400  1
  O  O1  1  0.08907700  0.93846700  0.41164900  1
  O  O2  1  0.05830500  0.68076800  0.19994700  1
  O  O3  1  0.17857100  0.41878900  0.53684600  1
  O  O4  1  0.09765600  0.94095100  0.91202900  1
  O  O5  1  0.32003800  0.09747000  0.71955800  1
  O  O6  1  0.17782800  0.41798300  0.03675500  1
  O  O7  1  0.42587700  0.82280300  0.54035000  1
  O  O8  1  0.42031000  0.58119800  0.34092400  1
  O  O9  1  0.32424800  0.09806400  0.22099800  1
  O  O10  1  0.41823100  0.81884400  0.03877800  1
  O  O11  1  0.57969000  0.41880200  0.65907600  1
  O  O12  1  0.42088600  0.57334100  0.83994300  1
  O  O13  1  0.57412300  0.17719700  0.45965000  1
  O  O14  1  0.67996200  0.90253000  0.28044200  1
  O  O15  1  0.57911400  0.42665900  0.16005700  1
  O  O16  1  0.58176900  0.18115600  0.96122200  1
  O  O17  1  0.82142900  0.58121100  0.46315400  1
  O  O18  1  0.67575200  0.90193600  0.77900200  1
  O  O19  1  0.91092300  0.06153300  0.58835100  1
  O  O20  1  0.82217200  0.58201700  0.96324500  1
  O  O21  1  0.93606600  0.32444200  0.29074600  1
  O  O22  1  0.90234400  0.05904900  0.08797100  1
  O  O23  1  0.94169500  0.31923200  0.80005300  1
loop_
_geom_bond_atom_site_label_1
_geom_bond_atom_site_label_2
_geom_bond_distance
_geom_bond_site_symmetry_2
O0 Zr1 2.126153 1_455
O0 Sc6 2.132488 1_455
O0 Sc1 2.147313 1_555
O0 Zr0 2.519011 1_555
O1 Zr4 2.118842 1_565
O1 Sc0 2.157365 1_555
O1 Zr2 2.161405 1_565
O1 Zr3 2.594751 1_455
O2 Zr4 2.102749 1_565
O2 Sc2 2.131423 1_555
O2 Zr5 2.134590 1_455
O2 Sc0 2.668908 1_555
O3 Zr2 2.081238 1_555
O3 Sc0 2.137398 1_555
O3 Sc6 2.187390 1_455
O3 Sc1 2.274766 1_555
O4 Zr1 2.099554 1_455
O4 Zr0 2.106980 1_555
O4 Sc3 2.132744 1_566
O4 Sc5 2.698413 1_455
O5 Zr2 2.080435 1_555
O5 Sc7 2.134869 1_555
O5 Zr1 2.144038 1_445
O5 Sc1 2.714541 1_545
O6 Sc3 2.108962 1_555
O6 Zr0 2.181917 1_554
O6 Zr5 2.208218 1_455
O6 Sc2 2.274787 1_555
O7 Sc1 2.106397 1_555
O7 Zr3 2.166051 1_555
O7 Zr2 2.210554 1_565
O7 Sc0 2.302429 1_555
O8 Sc0 2.074686 1_555
O8 Sc4 2.150772 1_555
O8 Sc2 2.188350 1_555
O8 Zr3 2.223371 1_555
O9 Zr4 2.071953 1_555
O9 Sc4 2.101500 1_555
O9 Sc3 2.120094 1_555
O9 Sc2 2.677574 1_545
O10 Sc2 2.076606 1_555
O10 Sc5 2.139511 1_554
O10 Sc3 2.181865 1_565
O10 Zr0 2.228623 1_554
O11 Sc6 2.074686 1_555
O11 Sc1 2.150772 1_555
O11 Sc7 2.188350 1_555
O11 Zr2 2.223371 1_555
O12 Zr0 2.076505 1_555
O12 Sc7 2.142103 1_555
O12 Sc1 2.170853 1_555
O12 Sc5 2.242899 1_555
O13 Sc4 2.106397 1_555
O13 Zr2 2.166051 1_555
O13 Zr3 2.210554 1_545
O13 Sc6 2.302429 1_555
O14 Zr3 2.080435 1_555
O14 Sc2 2.134869 1_555
O14 Zr4 2.144038 1_665
O14 Sc4 2.714541 1_565
O15 Zr5 2.076505 1_555
O15 Sc2 2.142103 1_555
O15 Sc4 2.170853 1_555
O15 Sc3 2.242899 1_555
O16 Sc7 2.076606 1_555
O16 Sc3 2.139511 1_556
O16 Sc5 2.181865 1_545
O16 Zr5 2.228623 1_556
O17 Zr3 2.081238 1_555
O17 Sc6 2.137398 1_555
O17 Sc0 2.187390 1_655
O17 Sc4 2.274766 1_555
O18 Zr1 2.071953 1_555
O18 Sc1 2.101500 1_555
O18 Sc5 2.120094 1_555
O18 Sc7 2.677574 1_565
O19 Zr1 2.118842 1_545
O19 Sc6 2.157365 1_555
O19 Zr3 2.161405 1_545
O19 Zr2 2.594751 1_655
O20 Sc5 2.108962 1_555
O20 Zr5 2.181917 1_556
O20 Zr0 2.208218 1_655
O20 Sc7 2.274787 1_555
O21 Zr4 2.126153 1_655
O21 Sc0 2.132488 1_655
O21 Sc4 2.147313 1_555
O21 Zr5 2.519011 1_555
O22 Zr4 2.099554 1_655
O22 Zr5 2.106980 1_555
O22 Sc5 2.132744 1_544
O22 Sc3 2.698413 1_655
O23 Zr1 2.102749 1_545
O23 Sc7 2.131423 1_555
O23 Zr0 2.134590 1_655
O23 Sc6 2.668908 1_555
