# generated using pymatgen
data_Sm10Pd21
_symmetry_space_group_name_H-M   'P 1'
_cell_length_a   5.84901200
_cell_length_b   12.92099520
_cell_length_c   16.73859795
_cell_angle_alpha   90.86754583
_cell_angle_beta   89.97209934
_cell_angle_gamma   103.07655669
_symmetry_Int_Tables_number   1
_chemical_formula_structural   Sm10Pd21
_chemical_formula_sum   'Sm20 Pd42'
_cell_volume   1232.06989510
_cell_formula_units_Z   2
loop_
 _symmetry_equiv_pos_site_id
 _symmetry_equiv_pos_as_xyz
  1  'x, y, z'
loop_
 _atom_site_type_symbol
 _atom_site_label
 _atom_site_symmetry_multiplicity
 _atom_site_fract_x
 _atom_site_fract_y
 _atom_site_fract_z
 _atom_site_occupancy
  Sm  Sm0  1  0.53803900  0.06879100  0.27965100  1
  Sm  Sm1  1  0.31570700  0.62897300  0.19821700  1
  Sm  Sm2  1  0.46196100  0.93120900  0.72034900  1
  Sm  Sm3  1  0.42887100  0.85765500  0.01924900  1
  Sm  Sm4  1  0.72185100  0.44831700  0.07894300  1
  Sm  Sm5  1  0.23759400  0.47349400  0.64809000  1
  Sm  Sm6  1  0.27814900  0.55168300  0.92105700  1
  Sm  Sm7  1  0.14491000  0.29091500  0.35572800  1
  Sm  Sm8  1  0.64967300  0.29720500  0.51909900  1
  Sm  Sm9  1  0.88127300  0.76156100  0.86943500  1
  Sm  Sm10  1  0.04259700  0.08492800  0.59386400  1
  Sm  Sm11  1  0.35032700  0.70279500  0.48090100  1
  Sm  Sm12  1  0.92463900  0.85166600  0.18686600  1
  Sm  Sm13  1  0.57112900  0.14234500  0.98075100  1
  Sm  Sm14  1  0.07536100  0.14833400  0.81313400  1
  Sm  Sm15  1  0.95740300  0.91507200  0.40613600  1
  Sm  Sm16  1  0.11872700  0.23843900  0.13056500  1
  Sm  Sm17  1  0.76240600  0.52650600  0.35191000  1
  Sm  Sm18  1  0.68429300  0.37102700  0.80178300  1
  Sm  Sm19  1  0.85509000  0.70908500  0.64427200  1
  Pd  Pd0  1  0.06931800  0.66888700  0.04754400  1
  Pd  Pd1  1  0.15280200  0.30242600  0.52458200  1
  Pd  Pd2  1  0.38337600  0.76668300  0.83929100  1
  Pd  Pd3  1  0.04245300  0.07670500  0.27311400  1
  Pd  Pd4  1  0.31286100  0.11413000  0.43865600  1
  Pd  Pd5  1  0.64019100  0.28241200  0.33593900  1
  Pd  Pd6  1  0.61662400  0.23331700  0.16070900  1
  Pd  Pd7  1  0.73860000  0.47601500  0.64496500  1
  Pd  Pd8  1  0.95754700  0.92329500  0.72688600  1
  Pd  Pd9  1  0.37795100  0.25504100  0.67628600  1
  Pd  Pd10  1  0.26140000  0.52398500  0.35503500  1
  Pd  Pd11  1  0.05643300  0.11582300  0.98341500  1
  Pd  Pd12  1  0.81391200  0.62492800  0.19775400  1
  Pd  Pd13  1  0.84719800  0.69757400  0.47541800  1
  Pd  Pd14  1  0.76867400  0.53876700  0.92182300  1
  Pd  Pd15  1  0.27133200  0.03150800  0.11750400  1
  Pd  Pd16  1  0.60080200  0.66908100  0.04704100  1
  Pd  Pd17  1  0.44913500  0.40709100  0.22668100  1
  Pd  Pd18  1  0.35980900  0.71758800  0.66406100  1
  Pd  Pd19  1  0.76083600  0.03192200  0.11752100  1
  Pd  Pd20  1  0.56559400  0.13435800  0.79023300  1
  Pd  Pd21  1  0.54478100  0.08858700  0.59115200  1
  Pd  Pd22  1  0.18608800  0.37507200  0.80224600  1
  Pd  Pd23  1  0.87630000  0.25516000  0.67661000  1
  Pd  Pd24  1  0.23916400  0.96807800  0.88247900  1
  Pd  Pd25  1  0.00000000  0.50000000  0.50000000  1
  Pd  Pd26  1  0.19745600  0.88759300  0.56067400  1
  Pd  Pd27  1  0.62204900  0.74495900  0.32371400  1
  Pd  Pd28  1  0.95819200  0.40689200  0.22650800  1
  Pd  Pd29  1  0.39919800  0.33091900  0.95295900  1
  Pd  Pd30  1  0.23132600  0.46123300  0.07817700  1
  Pd  Pd31  1  0.94356700  0.88417700  0.01658500  1
  Pd  Pd32  1  0.43440600  0.86564200  0.20976700  1
  Pd  Pd33  1  0.12370000  0.74484000  0.32339000  1
  Pd  Pd34  1  0.45521900  0.91141300  0.40884800  1
  Pd  Pd35  1  0.80254400  0.11240700  0.43932600  1
  Pd  Pd36  1  0.93068200  0.33111300  0.95245600  1
  Pd  Pd37  1  0.72866800  0.96849200  0.88249600  1
  Pd  Pd38  1  0.50000000  0.50000000  0.50000000  1
  Pd  Pd39  1  0.04180800  0.59310800  0.77349200  1
  Pd  Pd40  1  0.55086500  0.59290900  0.77331900  1
  Pd  Pd41  1  0.68713900  0.88587000  0.56134400  1
loop_
_geom_bond_atom_site_label_1
_geom_bond_atom_site_label_2
_geom_bond_distance
_geom_bond_site_symmetry_2
Pd0 Pd16 2.740941 1_455
Pd0 Sm3 2.882538 1_555
Pd0 Pd12 2.920896 1_455
Pd0 Pd14 2.984297 1_454
Pd0 Sm6 3.000892 1_554
Pd0 Sm1 3.013776 1_555
Pd0 Pd31 3.085060 1_455
Pd0 Pd30 3.090705 1_555
Pd0 Pd16 3.108098 1_555
Pd0 Sm4 3.154740 1_455
Pd0 Sm9 3.498425 1_454
Pd0 Sm12 3.530976 1_455
Pd1 Sm7 2.827890 1_555
Pd1 Sm8 2.923571 1_555
Pd1 Sm8 2.929733 1_455
Pd1 Sm5 2.961791 1_555
Pd1 Sm10 2.989373 1_555
Pd1 Pd9 2.995393 1_555
Pd1 Pd23 3.010036 1_455
Pd2 Pd39 2.852049 1_555
Pd2 Pd40 2.853045 1_555
Pd2 Sm2 2.894712 1_555
Pd2 Sm9 2.965707 1_455
Pd2 Sm9 2.971458 1_555
Pd2 Pd24 2.990205 1_555
Pd2 Pd37 2.993758 1_555
Pd2 Sm6 3.051228 1_555
Pd2 Sm3 3.205952 1_556
Pd3 Sm0 2.925679 1_555
Pd3 Sm0 2.930929 1_455
Pd3 Sm7 3.011060 1_555
Pd3 Sm15 3.039161 1_445
Pd3 Sm12 3.159285 1_445
Pd3 Sm16 3.160311 1_555
Pd4 Sm15 2.961951 1_445
Pd4 Sm8 3.014480 1_555
Pd4 Sm10 3.024306 1_555
Pd4 Sm7 3.036823 1_555
Pd4 Sm0 3.075722 1_555
Pd5 Sm0 2.835298 1_555
Pd5 Sm7 2.942079 1_555
Pd5 Sm7 2.947849 1_655
Pd5 Sm8 3.068651 1_555
Pd5 Sm17 3.079649 1_555
Pd6 Sm0 2.894712 1_555
Pd6 Sm16 2.965707 1_655
Pd6 Sm16 2.971458 1_555
Pd6 Sm4 3.051228 1_555
Pd6 Sm13 3.205952 1_554
Pd7 Sm5 2.923644 1_555
Pd7 Sm5 2.926666 1_655
Pd7 Sm19 2.933606 1_555
Pd7 Sm18 2.956912 1_555
Pd7 Sm8 3.058934 1_555
Pd7 Pd9 3.193063 1_555
Pd8 Sm2 2.925679 1_555
Pd8 Sm2 2.930929 1_655
Pd8 Sm19 3.011060 1_555
Pd8 Sm10 3.039161 1_665
Pd8 Sm14 3.159285 1_665
Pd8 Sm9 3.160311 1_555
Pd9 Sm10 2.922673 1_555
Pd9 Sm18 2.926164 1_555
Pd9 Sm14 3.044321 1_555
Pd9 Sm8 3.064778 1_555
Pd9 Sm5 3.154874 1_555
Pd10 Sm17 2.923644 1_555
Pd10 Sm17 2.926666 1_455
Pd10 Sm7 2.933606 1_555
Pd10 Sm1 2.956912 1_555
Pd10 Pd17 2.958520 1_555
Pd10 Pd28 2.958645 1_455
Pd10 Sm11 3.058934 1_555
Pd10 Pd33 3.187300 1_555
Pd10 Pd27 3.193063 1_555
Pd11 Sm14 2.885764 1_555
Pd11 Sm16 2.886366 1_556
Pd11 Pd37 2.899500 1_445
Pd11 Pd19 2.902613 1_456
Pd11 Pd24 2.909466 1_545
Pd11 Pd15 2.915618 1_556
Pd11 Sm13 2.935565 1_455
Pd11 Sm13 2.952256 1_555
Pd11 Pd36 3.085060 1_455
Pd11 Pd29 3.086111 1_555
Pd12 Sm12 2.862370 1_555
Pd12 Sm17 2.879494 1_555
Pd12 Sm1 2.923635 1_655
Pd12 Sm1 2.926280 1_555
Pd12 Pd16 2.934580 1_555
Pd12 Pd33 2.956505 1_655
Pd12 Sm4 2.959739 1_555
Pd12 Pd27 2.965851 1_555
Pd12 Pd28 3.161951 1_555
Pd12 Pd17 3.167305 1_555
Pd13 Sm19 2.827890 1_555
Pd13 Sm11 2.923571 1_555
Pd13 Sm11 2.929733 1_655
Pd13 Sm17 2.961791 1_555
Pd13 Sm15 2.989373 1_555
Pd13 Pd27 2.995393 1_555
Pd13 Pd33 3.010036 1_655
Pd14 Sm4 2.881865 1_556
Pd14 Sm18 2.891956 1_555
Pd14 Sm6 2.911433 1_555
Pd14 Sm6 2.946687 1_655
Pd14 Sm9 2.950882 1_555
Pd14 Pd40 2.958101 1_555
Pd14 Pd39 2.958229 1_655
Pd14 Pd16 2.971799 1_556
Pd14 Pd36 3.090705 1_555
Pd14 Pd29 3.093437 1_555
Pd15 Pd19 2.861909 1_555
Pd15 Pd31 2.899500 1_445
Pd15 Sm12 2.967643 1_445
Pd15 Pd32 2.985729 1_545
Pd15 Pd19 2.987112 1_455
Pd15 Pd6 2.993758 1_555
Pd15 Sm16 3.009238 1_555
Pd15 Pd3 3.036765 1_555
Pd15 Sm13 3.053616 1_554
Pd15 Sm3 3.069745 1_545
Pd15 Sm0 3.107486 1_555
Pd16 Sm3 2.882374 1_555
Pd16 Sm6 2.986830 1_554
Pd16 Sm1 3.016134 1_555
Pd16 Pd31 3.086111 1_555
Pd16 Pd30 3.093437 1_555
Pd16 Sm4 3.143807 1_555
Pd16 Sm9 3.488956 1_554
Pd16 Sm12 3.527934 1_555
Pd17 Pd5 2.845076 1_555
Pd17 Pd6 2.853045 1_555
Pd17 Pd28 2.870954 1_455
Pd17 Sm4 2.931737 1_555
Pd17 Pd30 2.958101 1_555
Pd17 Sm17 2.959476 1_555
Pd17 Pd28 2.978063 1_555
Pd17 Sm7 2.995212 1_555
Pd17 Sm16 3.010496 1_555
Pd17 Sm1 3.179553 1_555
Pd18 Sm2 2.835298 1_555
Pd18 Pd40 2.845076 1_555
Pd18 Pd39 2.852002 1_555
Pd18 Sm19 2.942079 1_555
Pd18 Sm19 2.947849 1_455
Pd18 Sm11 3.068651 1_555
Pd18 Sm5 3.079649 1_555
Pd19 Pd31 2.909466 1_545
Pd19 Sm12 2.963543 1_545
Pd19 Pd32 2.981102 1_545
Pd19 Pd6 2.990205 1_555
Pd19 Sm16 3.000866 1_655
Pd19 Sm13 3.053806 1_554
Pd19 Pd3 3.059121 1_655
Pd19 Sm3 3.075487 1_545
Pd19 Sm0 3.086796 1_555
Pd20 Sm2 2.795269 1_545
Pd20 Pd9 2.853155 1_555
Pd20 Pd23 2.856421 1_555
Pd20 Sm14 2.938121 1_555
Pd20 Sm14 2.970701 1_655
Pd20 Pd24 2.981102 1_545
Pd20 Sm18 2.981991 1_555
Pd20 Pd37 2.985729 1_545
Pd20 Sm13 3.189055 1_555
Pd21 Sm8 2.906267 1_555
Pd21 Pd23 2.908514 1_555
Pd21 Pd9 2.909311 1_555
Pd21 Sm10 2.923177 1_655
Pd21 Sm10 2.927287 1_555
Pd21 Sm2 2.955139 1_545
Pd22 Sm14 2.862370 1_555
Pd22 Sm5 2.879494 1_555
Pd22 Pd36 2.920896 1_455
Pd22 Sm18 2.923635 1_455
Pd22 Sm18 2.926280 1_555
Pd22 Pd29 2.934580 1_555
Pd22 Pd23 2.956505 1_455
Pd22 Sm6 2.959739 1_555
Pd22 Pd9 2.965851 1_555
Pd22 Pd39 3.161951 1_555
Pd22 Pd40 3.167305 1_555
Pd23 Pd9 2.914509 1_555
Pd23 Sm18 2.925079 1_555
Pd23 Sm10 2.928670 1_655
Pd23 Pd9 2.934513 1_655
Pd23 Sm14 3.050967 1_655
Pd23 Sm8 3.062032 1_555
Pd23 Sm5 3.161374 1_655
Pd23 Pd7 3.187300 1_555
Pd24 Pd37 2.861909 1_555
Pd24 Pd31 2.902613 1_456
Pd24 Sm14 2.963543 1_565
Pd24 Pd37 2.987112 1_455
Pd24 Sm9 3.000866 1_455
Pd24 Sm3 3.053806 1_556
Pd24 Pd8 3.059121 1_455
Pd24 Sm13 3.075487 1_565
Pd24 Sm2 3.086796 1_555
Pd25 Sm17 2.904739 1_455
Pd25 Sm5 2.904739 1_555
Pd25 Sm11 2.960077 1_555
Pd25 Sm8 2.960077 1_455
Pd26 Sm10 2.938034 1_565
Pd26 Sm15 3.007606 1_455
Pd26 Sm11 3.025285 1_555
Pd26 Sm19 3.048447 1_455
Pd26 Sm2 3.068957 1_555
Pd27 Pd32 2.853155 1_555
Pd27 Pd34 2.909311 1_555
Pd27 Pd33 2.914509 1_555
Pd27 Sm15 2.922673 1_555
Pd27 Sm1 2.926164 1_555
Pd27 Pd33 2.934513 1_655
Pd27 Sm12 3.044321 1_555
Pd27 Sm11 3.064778 1_555
Pd27 Sm17 3.154874 1_555
Pd28 Pd5 2.852002 1_555
Pd28 Pd6 2.852049 1_555
Pd28 Sm4 2.945615 1_555
Pd28 Pd30 2.958229 1_655
Pd28 Sm17 2.967553 1_555
Pd28 Sm7 2.992950 1_655
Pd28 Sm16 3.002622 1_655
Pd28 Sm1 3.186849 1_655
Pd29 Pd36 2.740941 1_455
Pd29 Sm13 2.882374 1_555
Pd29 Pd30 2.971799 1_556
Pd29 Sm4 2.986830 1_556
Pd29 Sm18 3.016134 1_555
Pd29 Pd36 3.108098 1_555
Pd29 Sm6 3.143807 1_555
Pd29 Sm16 3.488956 1_556
Pd29 Sm14 3.527934 1_555
Pd30 Sm6 2.881865 1_554
Pd30 Sm1 2.891956 1_555
Pd30 Sm4 2.911433 1_555
Pd30 Sm4 2.946687 1_455
Pd30 Sm16 2.950882 1_555
Pd30 Pd36 2.984297 1_454
Pd31 Sm12 2.885764 1_555
Pd31 Sm9 2.886366 1_554
Pd31 Pd37 2.915618 1_554
Pd31 Sm3 2.935565 1_655
Pd31 Sm3 2.952256 1_555
Pd32 Sm0 2.795269 1_565
Pd32 Pd33 2.856421 1_555
Pd32 Sm12 2.938121 1_555
Pd32 Sm12 2.970701 1_455
Pd32 Sm1 2.981991 1_555
Pd32 Sm3 3.189055 1_555
Pd33 Pd34 2.908514 1_555
Pd33 Sm1 2.925079 1_555
Pd33 Sm15 2.928670 1_455
Pd33 Sm12 3.050967 1_455
Pd33 Sm11 3.062032 1_555
Pd33 Sm17 3.161374 1_455
Pd34 Sm11 2.906267 1_555
Pd34 Sm15 2.923177 1_455
Pd34 Sm15 2.927287 1_555
Pd34 Sm0 2.955139 1_565
Pd35 Sm15 2.938034 1_545
Pd35 Sm10 3.007606 1_655
Pd35 Sm8 3.025285 1_555
Pd35 Sm7 3.048447 1_655
Pd35 Sm0 3.068957 1_555
Pd36 Sm13 2.882538 1_555
Pd36 Sm4 3.000892 1_556
Pd36 Sm18 3.013776 1_555
Pd36 Sm6 3.154740 1_655
Pd36 Sm16 3.498425 1_656
Pd36 Sm14 3.530976 1_655
Pd37 Sm14 2.967643 1_665
Pd37 Sm9 3.009238 1_555
Pd37 Pd8 3.036765 1_555
Pd37 Sm3 3.053616 1_556
Pd37 Sm13 3.069745 1_565
Pd37 Sm2 3.107486 1_555
Pd38 Sm17 2.898559 1_555
Pd38 Sm5 2.898559 1_555
Pd38 Sm11 2.966191 1_555
Pd38 Sm8 2.966191 1_555
Pd39 Pd40 2.870954 1_455
Pd39 Sm6 2.945615 1_555
Pd39 Pd7 2.958645 1_455
Pd39 Sm5 2.967553 1_555
Pd39 Pd40 2.978063 1_555
Pd39 Sm19 2.992950 1_455
Pd39 Sm9 3.002622 1_455
Pd39 Sm18 3.186849 1_455
Pd40 Sm6 2.931737 1_555
Pd40 Pd7 2.958520 1_555
Pd40 Sm5 2.959476 1_555
Pd40 Sm19 2.995212 1_555
Pd40 Sm9 3.010496 1_555
Pd40 Sm18 3.179553 1_555
Pd41 Sm10 2.961951 1_665
Pd41 Sm11 3.014480 1_555
Pd41 Sm15 3.024306 1_555
Pd41 Sm19 3.036823 1_555
Pd41 Sm2 3.075722 1_555
