# generated using pymatgen
data_Ce2PbSe4
_symmetry_space_group_name_H-M   'P 1'
_cell_length_a   7.86554565
_cell_length_b   7.86554565
_cell_length_c   7.86554565
_cell_angle_alpha   109.32796490
_cell_angle_beta   109.32796490
_cell_angle_gamma   109.75811359
_symmetry_Int_Tables_number   1
_chemical_formula_structural   Ce2PbSe4
_chemical_formula_sum   'Ce4 Pb2 Se8'
_cell_volume   374.59028162
_cell_formula_units_Z   2
loop_
 _symmetry_equiv_pos_site_id
 _symmetry_equiv_pos_as_xyz
  1  'x, y, z'
loop_
 _atom_site_type_symbol
 _atom_site_label
 _atom_site_symmetry_multiplicity
 _atom_site_fract_x
 _atom_site_fract_y
 _atom_site_fract_z
 _atom_site_occupancy
  Ce  Ce0  1  0.62500000  0.00652100  0.88152100  1
  Ce  Ce1  1  0.99347900  0.87500000  0.61847900  1
  Ce  Ce2  1  0.12500000  0.74347900  0.11847900  1
  Ce  Ce3  1  0.25652100  0.37500000  0.38152100  1
  Pb  Pb0  1  0.50000000  0.50000000  0.00000000  1
  Pb  Pb1  1  0.75000000  0.25000000  0.50000000  1
  Se  Se0  1  0.36317500  0.11599200  0.09575600  1
  Se  Se1  1  0.36599200  0.11317500  0.59575600  1
  Se  Se2  1  0.88682500  0.48258000  0.25281700  1
  Se  Se3  1  0.51742000  0.77023700  0.40424400  1
  Se  Se4  1  0.73258000  0.63682500  0.75281700  1
  Se  Se5  1  0.02023700  0.26742000  0.90424400  1
  Se  Se6  1  0.88400800  0.97976300  0.24718300  1
  Se  Se7  1  0.22976300  0.63400800  0.74718300  1
loop_
_geom_bond_atom_site_label_1
_geom_bond_atom_site_label_2
_geom_bond_distance
_geom_bond_site_symmetry_2
Ce0 Se7 2.997278 1_545
Ce0 Se5 2.997282 1_655
Ce0 Se1 3.046099 1_555
Ce0 Se6 3.046104 1_546
Ce0 Se2 3.218312 1_556
Ce0 Se0 3.218317 1_556
Ce0 Se4 3.237051 1_545
Ce0 Se3 3.237058 1_545
Ce1 Se1 2.997273 1_665
Ce1 Se4 2.997278 1_555
Ce1 Se5 3.046101 1_665
Ce1 Se2 3.046104 1_555
Ce1 Se6 3.218312 1_555
Ce1 Se3 3.218313 1_555
Ce1 Se7 3.237051 1_655
Ce1 Se0 3.237057 1_666
Ce2 Se0 2.997273 1_565
Ce2 Se2 2.997278 1_455
Ce2 Se3 3.046101 1_555
Ce2 Se4 3.046104 1_454
Ce2 Se7 3.218312 1_554
Ce2 Se5 3.218313 1_554
Ce2 Se6 3.237051 1_455
Ce2 Se1 3.237057 1_565
Ce3 Se6 2.997278 1_445
Ce3 Se3 2.997282 1_555
Ce3 Se0 3.046099 1_555
Ce3 Se7 3.046104 1_555
Ce3 Se4 3.218312 1_555
Ce3 Se1 3.218317 1_555
Ce3 Se2 3.237051 1_455
Ce3 Se5 3.237058 1_554
Pb0 Se3 3.112491 1_555
Pb0 Se1 3.112492 1_554
Pb0 Se2 3.112497 1_555
Pb0 Se7 3.112497 1_554
Pb0 Se5 3.270038 1_554
Pb0 Se6 3.270040 1_555
Pb0 Se4 3.270040 1_554
Pb0 Se0 3.270045 1_555
Pb1 Se5 3.112491 1_655
Pb1 Se0 3.112492 1_555
Pb1 Se4 3.112497 1_555
Pb1 Se6 3.112497 1_545
Pb1 Se3 3.270038 1_545
Pb1 Se7 3.270040 1_655
Pb1 Se2 3.270040 1_555
Pb1 Se1 3.270045 1_555
