# generated using pymatgen
data_K4US3O14
_symmetry_space_group_name_H-M   'P 1'
_cell_length_a   9.39714700
_cell_length_b   13.41075200
_cell_length_c   23.65084000
_cell_angle_alpha   90.00000000
_cell_angle_beta   90.00000000
_cell_angle_gamma   90.00000000
_symmetry_Int_Tables_number   1
_chemical_formula_structural   K4US3O14
_chemical_formula_sum   'K32 U8 S24 O112'
_cell_volume   2980.54526657
_cell_formula_units_Z   8
loop_
 _symmetry_equiv_pos_site_id
 _symmetry_equiv_pos_as_xyz
  1  'x, y, z'
loop_
 _atom_site_type_symbol
 _atom_site_label
 _atom_site_symmetry_multiplicity
 _atom_site_fract_x
 _atom_site_fract_y
 _atom_site_fract_z
 _atom_site_occupancy
  K  K0  1  0.67250300  0.28823600  0.47395800  1
  K  K1  1  0.16123800  0.49360800  0.66807900  1
  K  K2  1  0.12245200  0.68488900  0.25000000  1
  K  K3  1  0.86164500  0.06169700  0.87350700  1
  K  K4  1  0.83876200  0.50639200  0.33192100  1
  K  K5  1  0.83876200  0.50639200  0.16807900  1
  K  K6  1  0.33876200  0.99360800  0.66807900  1
  K  K7  1  0.36164500  0.43830300  0.37350700  1
  K  K8  1  0.13835500  0.93830300  0.37350700  1
  K  K9  1  0.62245200  0.81511100  0.75000000  1
  K  K10  1  0.66123800  0.00639200  0.16807900  1
  K  K11  1  0.37754800  0.18488900  0.25000000  1
  K  K12  1  0.86164500  0.06169700  0.62649300  1
  K  K13  1  0.82749700  0.78823600  0.02604200  1
  K  K14  1  0.16123800  0.49360800  0.83192100  1
  K  K15  1  0.82749700  0.78823600  0.47395800  1
  K  K16  1  0.87754800  0.31511100  0.75000000  1
  K  K17  1  0.50000000  0.00000000  0.50000000  1
  K  K18  1  0.67250300  0.28823600  0.02604200  1
  K  K19  1  0.63835500  0.56169700  0.62649300  1
  K  K20  1  0.32749700  0.71176400  0.97395800  1
  K  K21  1  0.36164500  0.43830300  0.12649300  1
  K  K22  1  0.17250300  0.21176400  0.97395800  1
  K  K23  1  0.66123800  0.00639200  0.33192100  1
  K  K24  1  0.00000000  0.50000000  0.00000000  1
  K  K25  1  0.50000000  0.00000000  0.00000000  1
  K  K26  1  0.13835500  0.93830300  0.12649300  1
  K  K27  1  0.33876200  0.99360800  0.83192100  1
  K  K28  1  0.17250300  0.21176400  0.52604200  1
  K  K29  1  0.00000000  0.50000000  0.50000000  1
  K  K30  1  0.32749700  0.71176400  0.52604200  1
  K  K31  1  0.63835500  0.56169700  0.87350700  1
  U  U0  1  0.00335900  0.23171700  0.36300300  1
  U  U1  1  0.00335900  0.23171700  0.13699700  1
  U  U2  1  0.99664100  0.76828300  0.86300300  1
  U  U3  1  0.49664100  0.73171700  0.36300300  1
  U  U4  1  0.99664100  0.76828300  0.63699700  1
  U  U5  1  0.50335900  0.26828300  0.63699700  1
  U  U6  1  0.49664100  0.73171700  0.13699700  1
  U  U7  1  0.50335900  0.26828300  0.86300300  1
  S  S0  1  0.35632600  0.42604100  0.55582600  1
  S  S1  1  0.76778000  0.76895100  0.25000000  1
  S  S2  1  0.64367400  0.57395900  0.05582600  1
  S  S3  1  0.37937400  0.17819200  0.40062000  1
  S  S4  1  0.64367400  0.57395900  0.44417400  1
  S  S5  1  0.14367400  0.92604100  0.55582600  1
  S  S6  1  0.12062600  0.67819200  0.09938000  1
  S  S7  1  0.14367400  0.92604100  0.94417400  1
  S  S8  1  0.12062600  0.67819200  0.40062000  1
  S  S9  1  0.35632600  0.42604100  0.94417400  1
  S  S10  1  0.35519900  0.90705700  0.25000000  1
  S  S11  1  0.85632600  0.07395900  0.44417400  1
  S  S12  1  0.64480100  0.09294300  0.75000000  1
  S  S13  1  0.73222000  0.26895100  0.25000000  1
  S  S14  1  0.87937400  0.32180800  0.90062000  1
  S  S15  1  0.85519900  0.59294300  0.75000000  1
  S  S16  1  0.14480100  0.40705700  0.25000000  1
  S  S17  1  0.37937400  0.17819200  0.09938000  1
  S  S18  1  0.62062600  0.82180800  0.59938000  1
  S  S19  1  0.62062600  0.82180800  0.90062000  1
  S  S20  1  0.85632600  0.07395900  0.05582600  1
  S  S21  1  0.87937400  0.32180800  0.59938000  1
  S  S22  1  0.26778000  0.73104900  0.75000000  1
  S  S23  1  0.23222000  0.23104900  0.75000000  1
  O  O0  1  0.00854700  0.11095500  0.44552500  1
  O  O1  1  0.28583400  0.45203900  0.25000000  1
  O  O2  1  0.96145900  0.87512500  0.81883600  1
  O  O3  1  0.92682400  0.32234300  0.96042500  1
  O  O4  1  0.71582600  0.58576500  0.49879100  1
  O  O5  1  0.50854700  0.38904500  0.94552500  1
  O  O6  1  0.65070100  0.47019800  0.42358900  1
  O  O7  1  0.15070100  0.02980200  0.92358900  1
  O  O8  1  0.84929900  0.97019800  0.07641100  1
  O  O9  1  0.21047100  0.85739600  0.89977600  1
  O  O10  1  0.76882800  0.77037600  0.59996000  1
  O  O11  1  0.03031700  0.48255700  0.25000000  1
  O  O12  1  0.49145300  0.61095500  0.44552500  1
  O  O13  1  0.97313600  0.26040300  0.86478300  1
  O  O14  1  0.78952900  0.14260400  0.10022400  1
  O  O15  1  0.07317600  0.67765700  0.46042500  1
  O  O16  1  0.17439600  0.71063200  0.69827400  1
  O  O17  1  0.95989400  0.33746600  0.09098700  1
  O  O18  1  0.32560400  0.21063200  0.69827400  1
  O  O19  1  0.71047100  0.64260400  0.39977600  1
  O  O20  1  0.04010600  0.66253400  0.90901300  1
  O  O21  1  0.21416600  0.95203900  0.25000000  1
  O  O22  1  0.47313600  0.23959700  0.36478300  1
  O  O23  1  0.57317600  0.82234300  0.53957500  1
  O  O24  1  0.13548800  0.57553300  0.37872700  1
  O  O25  1  0.71582600  0.58576500  0.00120900  1
  O  O26  1  0.36451200  0.07553300  0.12127300  1
  O  O27  1  0.57317600  0.82234300  0.96042500  1
  O  O28  1  0.42682400  0.17765700  0.46042500  1
  O  O29  1  0.49145300  0.61095500  0.05447500  1
  O  O30  1  0.42682400  0.17765700  0.03957500  1
  O  O31  1  0.04010600  0.66253400  0.59098700  1
  O  O32  1  0.45989400  0.16253400  0.59098700  1
  O  O33  1  0.23117200  0.22962400  0.09996000  1
  O  O34  1  0.32560400  0.21063200  0.80172600  1
  O  O35  1  0.73117200  0.27037600  0.90004000  1
  O  O36  1  0.81203500  0.66345900  0.25000000  1
  O  O37  1  0.37021100  0.83982500  0.19870200  1
  O  O38  1  0.71047100  0.64260400  0.10022400  1
  O  O39  1  0.73117200  0.27037600  0.59996000  1
  O  O40  1  0.54010600  0.83746600  0.40901300  1
  O  O41  1  0.17439600  0.71063200  0.80172600  1
  O  O42  1  0.12978900  0.33982500  0.30129800  1
  O  O43  1  0.46145900  0.62487500  0.18116400  1
  O  O44  1  0.97313600  0.26040300  0.63521700  1
  O  O45  1  0.82560400  0.28936800  0.30172600  1
  O  O46  1  0.76882800  0.77037600  0.90004000  1
  O  O47  1  0.21047100  0.85739600  0.60022400  1
  O  O48  1  0.84929900  0.97019800  0.42358900  1
  O  O49  1  0.15070100  0.02980200  0.57641100  1
  O  O50  1  0.12978900  0.33982500  0.19870200  1
  O  O51  1  0.50854700  0.38904500  0.55447500  1
  O  O52  1  0.92682400  0.32234300  0.53957500  1
  O  O53  1  0.13548800  0.57553300  0.12127300  1
  O  O54  1  0.02686400  0.73959700  0.36478300  1
  O  O55  1  0.26882800  0.72962400  0.40004000  1
  O  O56  1  0.34929900  0.52980200  0.57641100  1
  O  O57  1  0.53854100  0.37512500  0.68116400  1
  O  O58  1  0.36451200  0.07553300  0.37872700  1
  O  O59  1  0.87021100  0.66017500  0.69870200  1
  O  O60  1  0.03854100  0.12487500  0.18116400  1
  O  O61  1  0.46145900  0.62487500  0.31883600  1
  O  O62  1  0.28417400  0.41423500  0.99879100  1
  O  O63  1  0.78417400  0.08576500  0.00120900  1
  O  O64  1  0.67439600  0.78936800  0.19827400  1
  O  O65  1  0.28952900  0.35739600  0.89977600  1
  O  O66  1  0.96968300  0.51744300  0.75000000  1
  O  O67  1  0.67439600  0.78936800  0.30172600  1
  O  O68  1  0.99145300  0.88904500  0.55447500  1
  O  O69  1  0.31203500  0.83654100  0.75000000  1
  O  O70  1  0.86451200  0.42446700  0.87872700  1
  O  O71  1  0.03854100  0.12487500  0.31883600  1
  O  O72  1  0.63548800  0.92446700  0.87872700  1
  O  O73  1  0.11405400  0.16069300  0.75000000  1
  O  O74  1  0.21582600  0.91423500  0.99879100  1
  O  O75  1  0.52686400  0.76040300  0.86478300  1
  O  O76  1  0.00854700  0.11095500  0.05447500  1
  O  O77  1  0.87021100  0.66017500  0.80129800  1
  O  O78  1  0.78952900  0.14260400  0.39977600  1
  O  O79  1  0.71416600  0.54796100  0.75000000  1
  O  O80  1  0.46968300  0.98255700  0.25000000  1
  O  O81  1  0.02686400  0.73959700  0.13521700  1
  O  O82  1  0.88594600  0.83930700  0.25000000  1
  O  O83  1  0.37021100  0.83982500  0.30129800  1
  O  O84  1  0.68796500  0.16345900  0.25000000  1
  O  O85  1  0.18796500  0.33654100  0.75000000  1
  O  O86  1  0.82560400  0.28936800  0.19827400  1
  O  O87  1  0.61405400  0.33930700  0.25000000  1
  O  O88  1  0.38594600  0.66069300  0.75000000  1
  O  O89  1  0.54010600  0.83746600  0.09098700  1
  O  O90  1  0.52686400  0.76040300  0.63521700  1
  O  O91  1  0.21582600  0.91423500  0.50120900  1
  O  O92  1  0.96145900  0.87512500  0.68116400  1
  O  O93  1  0.63548800  0.92446700  0.62127300  1
  O  O94  1  0.26882800  0.72962400  0.09996000  1
  O  O95  1  0.78417400  0.08576500  0.49879100  1
  O  O96  1  0.86451200  0.42446700  0.62127300  1
  O  O97  1  0.78583400  0.04796100  0.75000000  1
  O  O98  1  0.99145300  0.88904500  0.94552500  1
  O  O99  1  0.53031700  0.01744300  0.75000000  1
  O  O100  1  0.28952900  0.35739600  0.60022400  1
  O  O101  1  0.28417400  0.41423500  0.50120900  1
  O  O102  1  0.65070100  0.47019800  0.07641100  1
  O  O103  1  0.62978900  0.16017500  0.80129800  1
  O  O104  1  0.95989400  0.33746600  0.40901300  1
  O  O105  1  0.07317600  0.67765700  0.03957500  1
  O  O106  1  0.53854100  0.37512500  0.81883600  1
  O  O107  1  0.47313600  0.23959700  0.13521700  1
  O  O108  1  0.62978900  0.16017500  0.69870200  1
  O  O109  1  0.34929900  0.52980200  0.92358900  1
  O  O110  1  0.23117200  0.22962400  0.40004000  1
  O  O111  1  0.45989400  0.16253400  0.90901300  1
loop_
_geom_bond_atom_site_label_1
_geom_bond_atom_site_label_2
_geom_bond_distance
_geom_bond_site_symmetry_2
K0 O6 2.723216 1_555
K0 O28 2.762533 1_555
K0 O51 2.797830 1_555
K0 O78 2.846377 1_555
K0 O52 2.886032 1_555
K0 O95 2.969672 1_555
K0 O39 3.040072 1_555
K0 O104 3.176276 1_555
K0 O22 3.256155 1_555
K1 O66 2.663895 1_455
K1 O100 2.713986 1_555
K1 O56 2.838849 1_555
K1 O85 2.872952 1_555
K1 O16 2.999338 1_555
K1 O31 3.122860 1_555
K1 O96 3.140106 1_455
K2 O11 2.848208 1_555
K2 O36 2.931157 1_455
K2 O54 2.952087 1_555
K2 O81 2.952087 1_555
K2 O82 3.037745 1_455
K3 O72 2.814030 1_545
K3 O13 2.870781 1_555
K3 O2 2.968506 1_545
K3 O7 2.994036 1_655
K3 O97 3.012301 1_555
K3 O103 3.067222 1_555
K3 O35 3.119116 1_555
K3 O98 3.122531 1_545
K3 O63 3.123482 1_556
K4 O11 2.663895 1_655
K4 O19 2.713986 1_555
K4 O6 2.838849 1_555
K4 O36 2.872952 1_555
K4 O45 2.999338 1_555
K4 O104 3.122860 1_555
K4 O24 3.140106 1_655
K5 O11 2.663895 1_655
K5 O38 2.713986 1_555
K5 O102 2.838849 1_555
K5 O36 2.872952 1_555
K5 O86 2.999338 1_555
K5 O17 3.122860 1_555
K5 O53 3.140106 1_655
K6 O99 2.663895 1_565
K6 O47 2.713986 1_555
K6 O49 2.838849 1_565
K6 O69 2.872952 1_555
K6 O18 2.999338 1_565
K6 O32 3.122860 1_565
K6 O93 3.140106 1_555
K7 O24 2.814030 1_555
K7 O22 2.870781 1_555
K7 O61 2.968506 1_555
K7 O6 2.994036 1_555
K7 O1 3.012301 1_555
K7 O42 3.067222 1_555
K7 O110 3.119116 1_555
K7 O12 3.122531 1_555
K7 O101 3.123482 1_555
K8 O58 2.814030 1_565
K8 O54 2.870781 1_555
K8 O71 2.968506 1_565
K8 O48 2.994036 1_455
K8 O21 3.012301 1_555
K8 O83 3.067222 1_555
K8 O55 3.119116 1_555
K8 O0 3.122531 1_565
K8 O91 3.123482 1_555
K9 O99 2.848208 1_565
K9 O69 2.931157 1_555
K9 O75 2.952087 1_555
K9 O90 2.952087 1_555
K9 O88 3.037745 1_555
K10 O80 2.663895 1_545
K10 O14 2.713986 1_555
K10 O8 2.838849 1_545
K10 O84 2.872952 1_555
K10 O64 2.999338 1_545
K10 O89 3.122860 1_545
K10 O26 3.140106 1_555
K11 O80 2.848208 1_545
K11 O84 2.931157 1_555
K11 O22 2.952087 1_555
K11 O107 2.952087 1_555
K11 O87 3.037745 1_555
K12 O93 2.814030 1_545
K12 O44 2.870781 1_555
K12 O92 2.968506 1_545
K12 O49 2.994036 1_655
K12 O97 3.012301 1_555
K12 O108 3.067222 1_555
K12 O39 3.119116 1_555
K12 O68 3.122531 1_545
K12 O95 3.123482 1_555
K13 O8 2.723216 1_555
K13 O105 2.762533 1_655
K13 O98 2.797830 1_554
K13 O38 2.846377 1_555
K13 O27 2.886032 1_554
K13 O25 2.969672 1_555
K13 O46 3.040072 1_554
K13 O89 3.176276 1_555
K13 O81 3.256155 1_655
K14 O66 2.663895 1_455
K14 O65 2.713986 1_555
K14 O109 2.838849 1_555
K14 O85 2.872952 1_555
K14 O41 2.999338 1_555
K14 O20 3.122860 1_555
K14 O70 3.140106 1_455
K15 O48 2.723216 1_555
K15 O15 2.762533 1_655
K15 O68 2.797830 1_555
K15 O19 2.846377 1_555
K15 O23 2.886032 1_555
K15 O4 2.969672 1_555
K15 O10 3.040072 1_555
K15 O40 3.176276 1_555
K15 O54 3.256155 1_655
K16 O66 2.848208 1_555
K16 O85 2.931157 1_655
K16 O13 2.952087 1_555
K16 O44 2.952087 1_555
K16 O73 3.037745 1_655
K17 O28 2.650527 1_555
K17 O23 2.650527 1_545
K17 O95 2.907728 1_555
K17 O91 2.907728 1_545
K17 O32 3.086082 1_555
K17 O40 3.086082 1_545
K17 O93 3.297535 1_545
K17 O58 3.297535 1_555
K18 O102 2.723216 1_555
K18 O30 2.762533 1_555
K18 O5 2.797830 1_554
K18 O14 2.846377 1_555
K18 O3 2.886032 1_554
K18 O63 2.969672 1_555
K18 O35 3.040072 1_554
K18 O17 3.176276 1_555
K18 O107 3.256155 1_555
K19 O96 2.814030 1_555
K19 O90 2.870781 1_555
K19 O57 2.968506 1_555
K19 O56 2.994036 1_555
K19 O79 3.012301 1_555
K19 O59 3.067222 1_555
K19 O10 3.119116 1_555
K19 O51 3.122531 1_555
K19 O4 3.123482 1_555
K20 O109 2.723216 1_555
K20 O27 2.762533 1_555
K20 O29 2.797830 1_556
K20 O9 2.846377 1_555
K20 O105 2.886032 1_556
K20 O74 2.969672 1_555
K20 O94 3.040072 1_556
K20 O20 3.176276 1_555
K20 O75 3.256155 1_555
K21 O53 2.814030 1_555
K21 O107 2.870781 1_555
K21 O43 2.968506 1_555
K21 O102 2.994036 1_555
K21 O1 3.012301 1_555
K21 O50 3.067222 1_555
K21 O33 3.119116 1_555
K21 O29 3.122531 1_555
K21 O62 3.123482 1_554
K22 O7 2.723216 1_555
K22 O3 2.762533 1_455
K22 O76 2.797830 1_556
K22 O65 2.846377 1_555
K22 O30 2.886032 1_556
K22 O62 2.969672 1_555
K22 O33 3.040072 1_556
K22 O111 3.176276 1_555
K22 O13 3.256155 1_455
K23 O80 2.663895 1_545
K23 O78 2.713986 1_555
K23 O48 2.838849 1_545
K23 O84 2.872952 1_555
K23 O67 2.999338 1_545
K23 O40 3.122860 1_545
K23 O58 3.140106 1_555
K24 O105 2.650527 1_555
K24 O3 2.650527 1_454
K24 O25 2.907728 1_455
K24 O62 2.907728 1_554
K24 O20 3.086082 1_554
K24 O17 3.086082 1_455
K24 O53 3.297535 1_555
K24 O70 3.297535 1_454
K25 O30 2.650527 1_555
K25 O27 2.650527 1_544
K25 O63 2.907728 1_555
K25 O74 2.907728 1_544
K25 O111 3.086082 1_554
K25 O89 3.086082 1_545
K25 O26 3.297535 1_555
K25 O72 3.297535 1_544
K26 O26 2.814030 1_565
K26 O81 2.870781 1_555
K26 O60 2.968506 1_565
K26 O8 2.994036 1_455
K26 O21 3.012301 1_555
K26 O37 3.067222 1_555
K26 O94 3.119116 1_555
K26 O76 3.122531 1_565
K26 O74 3.123482 1_554
K27 O99 2.663895 1_565
K27 O9 2.713986 1_555
K27 O7 2.838849 1_565
K27 O69 2.872952 1_555
K27 O34 2.999338 1_565
K27 O111 3.122860 1_565
K27 O72 3.140106 1_555
K28 O49 2.723216 1_555
K28 O52 2.762533 1_455
K28 O0 2.797830 1_555
K28 O100 2.846377 1_555
K28 O28 2.886032 1_555
K28 O101 2.969672 1_555
K28 O110 3.040072 1_555
K28 O32 3.176276 1_555
K28 O44 3.256155 1_455
K29 O15 2.650527 1_555
K29 O52 2.650527 1_455
K29 O4 2.907728 1_455
K29 O101 2.907728 1_555
K29 O31 3.086082 1_555
K29 O104 3.086082 1_455
K29 O96 3.297535 1_455
K29 O24 3.297535 1_555
K30 O56 2.723216 1_555
K30 O23 2.762533 1_555
K30 O12 2.797830 1_555
K30 O47 2.846377 1_555
K30 O15 2.886032 1_555
K30 O91 2.969672 1_555
K30 O55 3.040072 1_555
K30 O31 3.176276 1_555
K30 O90 3.256155 1_555
K31 O70 2.814030 1_555
K31 O75 2.870781 1_555
K31 O106 2.968506 1_555
K31 O109 2.994036 1_555
K31 O79 3.012301 1_555
K31 O77 3.067222 1_555
K31 O46 3.119116 1_555
K31 O5 3.122531 1_555
K31 O25 3.123482 1_556
O0 S11 1.514380 1_455
O0 U0 2.536607 1_555
O1 S16 1.456140 1_555
O2 U2 1.803738 1_555
O3 S14 1.483074 1_555
O4 S4 1.467436 1_555
O5 S9 1.514380 1_555
O5 U7 2.536607 1_555
O6 S4 1.475701 1_555
O7 S7 1.475701 1_545
O8 S20 1.475701 1_565
O9 S7 1.531040 1_555
O9 U2 2.494445 1_455
O10 S18 1.554181 1_555
O10 U4 2.313240 1_555
O11 S16 1.477354 1_555
O12 S4 1.514380 1_555
O12 U3 2.536607 1_555
O13 S14 1.474057 1_555
O14 S20 1.531040 1_555
O14 U1 2.494445 1_655
O15 S8 1.483074 1_555
O16 S22 1.530252 1_555
O16 U4 2.342709 1_455
O17 U1 1.833622 1_655
O18 S23 1.530252 1_555
O18 U5 2.342709 1_555
O19 S4 1.531040 1_555
O19 U3 2.494445 1_555
O20 U2 1.833622 1_455
O21 S10 1.456140 1_555
O22 S3 1.474057 1_555
O23 S18 1.483074 1_555
O24 S8 1.477500 1_555
O25 S2 1.467436 1_555
O26 S17 1.477500 1_555
O27 S19 1.483074 1_555
O28 S3 1.483074 1_555
O29 S2 1.514380 1_555
O29 U6 2.536607 1_555
O30 S17 1.483074 1_555
O31 U4 1.833622 1_455
O32 U5 1.833622 1_555
O33 S17 1.554181 1_555
O33 U1 2.313240 1_555
O34 S23 1.530252 1_555
O34 U7 2.342709 1_555
O35 S14 1.554181 1_555
O35 U7 2.313240 1_555
O36 S1 1.474585 1_555
O37 S10 1.518155 1_555
O37 U6 2.375555 1_555
O38 S2 1.531040 1_555
O38 U6 2.494445 1_555
O39 S21 1.554181 1_555
O39 U5 2.313240 1_555
O40 U3 1.833622 1_555
O41 S22 1.530252 1_555
O41 U2 2.342709 1_455
O42 S16 1.518155 1_555
O42 U0 2.375555 1_555
O43 U6 1.803738 1_555
O44 S21 1.474057 1_555
O45 S13 1.530252 1_555
O45 U0 2.342709 1_655
O46 S19 1.554181 1_555
O46 U2 2.313240 1_555
O47 S5 1.531040 1_555
O47 U4 2.494445 1_455
O48 S11 1.475701 1_565
O49 S5 1.475701 1_545
O50 S16 1.518155 1_555
O50 U1 2.375555 1_555
O51 S0 1.514380 1_555
O51 U5 2.536607 1_555
O52 S21 1.483074 1_555
O53 S6 1.477500 1_555
O54 S8 1.474057 1_555
O55 S8 1.554181 1_555
O55 U3 2.313240 1_555
O56 S0 1.475701 1_555
O57 U5 1.803738 1_555
O58 S3 1.477500 1_555
O59 S15 1.518155 1_555
O59 U4 2.375555 1_555
O60 U1 1.803738 1_555
O61 U3 1.803738 1_555
O62 S9 1.467436 1_555
O63 S20 1.467436 1_555
O64 S1 1.530252 1_555
O64 U6 2.342709 1_555
O65 S9 1.531040 1_555
O65 U7 2.494445 1_555
O66 S15 1.477354 1_555
O67 S1 1.530252 1_555
O67 U3 2.342709 1_555
O68 S5 1.514380 1_655
O68 U4 2.536607 1_555
O69 S22 1.474585 1_555
O70 S14 1.477500 1_555
O71 U0 1.803738 1_555
O72 S19 1.477500 1_555
O73 S23 1.457149 1_555
O74 S7 1.467436 1_555
O75 S19 1.474057 1_555
O76 S20 1.514380 1_455
O76 U1 2.536607 1_555
O77 S15 1.518155 1_555
O77 U2 2.375555 1_555
O78 S11 1.531040 1_555
O78 U0 2.494445 1_655
O79 S15 1.456140 1_555
O80 S10 1.477354 1_555
O81 S6 1.474057 1_555
O82 S1 1.457149 1_555
O83 S10 1.518155 1_555
O83 U3 2.375555 1_555
O84 S13 1.474585 1_555
O85 S23 1.474585 1_555
O86 S13 1.530252 1_555
O86 U1 2.342709 1_655
O87 S13 1.457149 1_555
O88 S22 1.457149 1_555
O89 U6 1.833622 1_555
O90 S18 1.474057 1_555
O91 S5 1.467436 1_555
O92 U4 1.803738 1_555
O93 S18 1.477500 1_555
O94 S6 1.554181 1_555
O94 U6 2.313240 1_555
O95 S11 1.467436 1_555
O96 S21 1.477500 1_555
O97 S12 1.456140 1_555
O98 S7 1.514380 1_655
O98 U2 2.536607 1_555
O99 S12 1.477354 1_555
O100 S0 1.531040 1_555
O100 U5 2.494445 1_555
O101 S0 1.467436 1_555
O102 S2 1.475701 1_555
O103 S12 1.518155 1_555
O103 U7 2.375555 1_555
O104 U0 1.833622 1_655
O105 S6 1.483074 1_555
O106 U7 1.803738 1_555
O107 S17 1.474057 1_555
O108 S12 1.518155 1_555
O108 U5 2.375555 1_555
O109 S9 1.475701 1_555
O110 S3 1.554181 1_555
O110 U0 2.313240 1_555
O111 U7 1.833622 1_555
