# generated using pymatgen
data_Yb7Cl15
_symmetry_space_group_name_H-M   'P 1'
_cell_length_a   6.57360200
_cell_length_b   6.88757900
_cell_length_c   47.50446100
_cell_angle_alpha   90.00000000
_cell_angle_beta   90.00000000
_cell_angle_gamma   90.00000000
_symmetry_Int_Tables_number   1
_chemical_formula_structural   Yb7Cl15
_chemical_formula_sum   'Yb28 Cl60'
_cell_volume   2150.82162390
_cell_formula_units_Z   4
loop_
 _symmetry_equiv_pos_site_id
 _symmetry_equiv_pos_as_xyz
  1  'x, y, z'
loop_
 _atom_site_type_symbol
 _atom_site_label
 _atom_site_symmetry_multiplicity
 _atom_site_fract_x
 _atom_site_fract_y
 _atom_site_fract_z
 _atom_site_occupancy
  Yb  Yb0  1  0.02773200  0.72659800  0.38940200  1
  Yb  Yb1  1  0.52659700  0.16678100  0.96035000  1
  Yb  Yb2  1  0.47233300  0.81980900  0.18048100  1
  Yb  Yb3  1  0.52766700  0.18019100  0.81951900  1
  Yb  Yb4  1  0.02766700  0.31980900  0.31951900  1
  Yb  Yb5  1  0.02659700  0.33321900  0.03965000  1
  Yb  Yb6  1  0.47226800  0.22659800  0.38940200  1
  Yb  Yb7  1  0.97246000  0.26899300  0.75000000  1
  Yb  Yb8  1  0.47340300  0.83321900  0.46035000  1
  Yb  Yb9  1  0.52766700  0.18019100  0.68048100  1
  Yb  Yb10  1  0.52659700  0.16678100  0.53965000  1
  Yb  Yb11  1  0.02754000  0.73100700  0.25000000  1
  Yb  Yb12  1  0.97340300  0.66678100  0.53965000  1
  Yb  Yb13  1  0.52773200  0.77340200  0.61059800  1
  Yb  Yb14  1  0.97233300  0.68019100  0.81951900  1
  Yb  Yb15  1  0.47340300  0.83321900  0.03965000  1
  Yb  Yb16  1  0.02659700  0.33321900  0.46035000  1
  Yb  Yb17  1  0.97226800  0.27340200  0.88940200  1
  Yb  Yb18  1  0.52754000  0.76899300  0.75000000  1
  Yb  Yb19  1  0.47226800  0.22659800  0.11059800  1
  Yb  Yb20  1  0.97226800  0.27340200  0.61059800  1
  Yb  Yb21  1  0.47246000  0.23100700  0.25000000  1
  Yb  Yb22  1  0.47233300  0.81980900  0.31951900  1
  Yb  Yb23  1  0.02773200  0.72659800  0.11059800  1
  Yb  Yb24  1  0.02766700  0.31980900  0.18048100  1
  Yb  Yb25  1  0.97233300  0.68019100  0.68048100  1
  Yb  Yb26  1  0.52773200  0.77340200  0.88940200  1
  Yb  Yb27  1  0.97340300  0.66678100  0.96035000  1
  Cl  Cl0  1  0.15135800  0.32992800  0.80888600  1
  Cl  Cl1  1  0.64192900  0.87252000  0.25000000  1
  Cl  Cl2  1  0.18667700  0.35218800  0.56144600  1
  Cl  Cl3  1  0.80273000  0.98330300  0.57583700  1
  Cl  Cl4  1  0.69179000  0.47456300  0.78450700  1
  Cl  Cl5  1  0.33444700  0.11071500  0.62727000  1
  Cl  Cl6  1  0.66555300  0.88928500  0.37273000  1
  Cl  Cl7  1  0.19179000  0.02543700  0.21549300  1
  Cl  Cl8  1  0.34864200  0.82992800  0.69111400  1
  Cl  Cl9  1  0.19727000  0.01669700  0.07583700  1
  Cl  Cl10  1  0.85807100  0.37252000  0.25000000  1
  Cl  Cl11  1  0.83444700  0.38928500  0.37273000  1
  Cl  Cl12  1  0.31332300  0.85218800  0.56144600  1
  Cl  Cl13  1  0.19417800  0.02488800  0.14614900  1
  Cl  Cl14  1  0.30273000  0.51669700  0.07583700  1
  Cl  Cl15  1  0.66555300  0.88928500  0.12727000  1
  Cl  Cl16  1  0.80582200  0.97511200  0.64614900  1
  Cl  Cl17  1  0.31332300  0.85218800  0.93855400  1
  Cl  Cl18  1  0.19179000  0.02543700  0.28450700  1
  Cl  Cl19  1  0.34864200  0.82992800  0.80888600  1
  Cl  Cl20  1  0.26993400  0.10770300  0.49409600  1
  Cl  Cl21  1  0.33444700  0.11071500  0.87273000  1
  Cl  Cl22  1  0.69179000  0.47456300  0.71549300  1
  Cl  Cl23  1  0.14192900  0.62748000  0.75000000  1
  Cl  Cl24  1  0.80273000  0.98330300  0.92416300  1
  Cl  Cl25  1  0.18667700  0.35218800  0.93855400  1
  Cl  Cl26  1  0.68667700  0.14781200  0.43855400  1
  Cl  Cl27  1  0.30821000  0.52543700  0.21549300  1
  Cl  Cl28  1  0.35807100  0.12748000  0.75000000  1
  Cl  Cl29  1  0.30582200  0.52488800  0.14614900  1
  Cl  Cl30  1  0.30582200  0.52488800  0.35385100  1
  Cl  Cl31  1  0.15135800  0.32992800  0.69111400  1
  Cl  Cl32  1  0.16555300  0.61071500  0.87273000  1
  Cl  Cl33  1  0.81332300  0.64781200  0.06144600  1
  Cl  Cl34  1  0.84864200  0.67007200  0.30888600  1
  Cl  Cl35  1  0.30821000  0.52543700  0.28450700  1
  Cl  Cl36  1  0.19417800  0.02488800  0.35385100  1
  Cl  Cl37  1  0.80821000  0.97456300  0.71549300  1
  Cl  Cl38  1  0.65135800  0.17007200  0.30888600  1
  Cl  Cl39  1  0.69727000  0.48330300  0.92416300  1
  Cl  Cl40  1  0.30273000  0.51669700  0.42416300  1
  Cl  Cl41  1  0.76993400  0.39229700  0.50590400  1
  Cl  Cl42  1  0.73006600  0.89229700  0.99409600  1
  Cl  Cl43  1  0.80582200  0.97511200  0.85385100  1
  Cl  Cl44  1  0.84864200  0.67007200  0.19111400  1
  Cl  Cl45  1  0.83444700  0.38928500  0.12727000  1
  Cl  Cl46  1  0.69417800  0.47511200  0.85385100  1
  Cl  Cl47  1  0.81332300  0.64781200  0.43855400  1
  Cl  Cl48  1  0.69417800  0.47511200  0.64614900  1
  Cl  Cl49  1  0.65135800  0.17007200  0.19111400  1
  Cl  Cl50  1  0.19727000  0.01669700  0.42416300  1
  Cl  Cl51  1  0.23006600  0.60770300  0.00590400  1
  Cl  Cl52  1  0.73006600  0.89229700  0.50590400  1
  Cl  Cl53  1  0.76993400  0.39229700  0.99409600  1
  Cl  Cl54  1  0.69727000  0.48330300  0.57583700  1
  Cl  Cl55  1  0.68667700  0.14781200  0.06144600  1
  Cl  Cl56  1  0.26993400  0.10770300  0.00590400  1
  Cl  Cl57  1  0.80821000  0.97456300  0.78450700  1
  Cl  Cl58  1  0.16555300  0.61071500  0.62727000  1
  Cl  Cl59  1  0.23006600  0.60770300  0.49409600  1
loop_
_geom_bond_atom_site_label_1
_geom_bond_atom_site_label_2
_geom_bond_distance
_geom_bond_site_symmetry_2
Cl0 Yb3 2.727268 1_555
Cl0 Yb14 2.731314 1_455
Cl0 Yb7 3.063378 1_455
Cl1 Yb21 2.708789 1_565
Cl1 Yb11 2.715785 1_655
Cl2 Yb10 2.774130 1_555
Cl2 Yb12 2.780749 1_455
Cl2 Yb20 2.780814 1_455
Cl3 Yb10 2.801251 1_565
Cl3 Yb20 2.821556 1_565
Cl3 Yb13 2.843370 1_555
Cl3 Yb12 2.994421 1_555
Cl4 Yb18 2.822286 1_555
Cl4 Yb3 2.835683 1_555
Cl4 Yb7 2.845327 1_555
Cl4 Yb14 2.858874 1_555
Cl5 Yb20 2.747931 1_455
Cl5 Yb13 2.763912 1_545
Cl5 Yb9 2.869118 1_555
Cl6 Yb0 2.747931 1_655
Cl6 Yb6 2.763912 1_565
Cl6 Yb22 2.869118 1_555
Cl7 Yb11 2.822286 1_545
Cl7 Yb24 2.835683 1_555
Cl7 Yb21 2.845327 1_555
Cl7 Yb2 2.858874 1_545
Cl8 Yb25 2.727268 1_455
Cl8 Yb9 2.731314 1_565
Cl8 Yb18 3.063378 1_555
Cl9 Yb15 2.801251 1_545
Cl9 Yb23 2.821556 1_545
Cl9 Yb19 2.843370 1_555
Cl9 Yb5 2.994421 1_555
Cl10 Yb11 2.708789 1_655
Cl10 Yb21 2.715785 1_555
Cl11 Yb6 2.747931 1_555
Cl11 Yb0 2.763912 1_655
Cl11 Yb4 2.869118 1_655
Cl12 Yb12 2.774130 1_455
Cl12 Yb10 2.780749 1_565
Cl12 Yb13 2.780814 1_555
Cl13 Yb24 2.825625 1_555
Cl13 Yb2 2.828144 1_545
Cl13 Yb19 2.850275 1_555
Cl13 Yb23 2.875807 1_545
Cl14 Yb5 2.801251 1_555
Cl14 Yb19 2.821556 1_555
Cl14 Yb23 2.843370 1_555
Cl14 Yb15 2.994421 1_555
Cl15 Yb23 2.747931 1_655
Cl15 Yb19 2.763912 1_565
Cl15 Yb2 2.869118 1_555
Cl16 Yb25 2.825625 1_555
Cl16 Yb9 2.828144 1_565
Cl16 Yb13 2.850275 1_555
Cl16 Yb20 2.875807 1_565
Cl17 Yb27 2.774130 1_455
Cl17 Yb1 2.780749 1_565
Cl17 Yb26 2.780814 1_555
Cl18 Yb11 2.822286 1_545
Cl18 Yb4 2.835683 1_555
Cl18 Yb21 2.845327 1_555
Cl18 Yb22 2.858874 1_545
Cl19 Yb14 2.727268 1_455
Cl19 Yb3 2.731314 1_565
Cl19 Yb18 3.063378 1_555
Cl20 Yb16 2.746128 1_555
Cl20 Yb10 2.774021 1_555
Cl20 Yb8 2.816551 1_545
Cl21 Yb17 2.747931 1_455
Cl21 Yb26 2.763912 1_545
Cl21 Yb3 2.869118 1_555
Cl22 Yb18 2.822286 1_555
Cl22 Yb9 2.835683 1_555
Cl22 Yb7 2.845327 1_555
Cl22 Yb25 2.858874 1_555
Cl23 Yb7 2.708789 1_455
Cl23 Yb18 2.715785 1_555
Cl24 Yb1 2.801251 1_565
Cl24 Yb17 2.821556 1_565
Cl24 Yb26 2.843370 1_555
Cl24 Yb27 2.994421 1_555
Cl25 Yb1 2.774130 1_555
Cl25 Yb27 2.780749 1_455
Cl25 Yb17 2.780814 1_455
Cl26 Yb16 2.774130 1_655
Cl26 Yb8 2.780749 1_545
Cl26 Yb6 2.780814 1_555
Cl27 Yb21 2.822286 1_555
Cl27 Yb2 2.835683 1_555
Cl27 Yb11 2.845327 1_555
Cl27 Yb24 2.858874 1_555
Cl28 Yb18 2.708789 1_545
Cl28 Yb7 2.715785 1_455
Cl29 Yb2 2.825625 1_555
Cl29 Yb24 2.828144 1_555
Cl29 Yb23 2.850275 1_555
Cl29 Yb19 2.875807 1_555
Cl30 Yb22 2.825625 1_555
Cl30 Yb4 2.828144 1_555
Cl30 Yb0 2.850275 1_555
Cl30 Yb6 2.875807 1_555
Cl31 Yb9 2.727268 1_555
Cl31 Yb25 2.731314 1_455
Cl31 Yb7 3.063378 1_455
Cl32 Yb26 2.747931 1_555
Cl32 Yb17 2.763912 1_455
Cl32 Yb14 2.869118 1_455
Cl33 Yb15 2.774130 1_555
Cl33 Yb5 2.780749 1_655
Cl33 Yb23 2.780814 1_655
Cl34 Yb22 2.727268 1_555
Cl34 Yb4 2.731314 1_655
Cl34 Yb11 3.063378 1_655
Cl35 Yb21 2.822286 1_555
Cl35 Yb22 2.835683 1_555
Cl35 Yb11 2.845327 1_555
Cl35 Yb4 2.858874 1_555
Cl36 Yb4 2.825625 1_555
Cl36 Yb22 2.828144 1_545
Cl36 Yb6 2.850275 1_555
Cl36 Yb0 2.875807 1_545
Cl37 Yb7 2.822286 1_565
Cl37 Yb25 2.835683 1_555
Cl37 Yb18 2.845327 1_555
Cl37 Yb9 2.858874 1_565
Cl38 Yb4 2.727268 1_655
Cl38 Yb22 2.731314 1_545
Cl38 Yb21 3.063378 1_555
Cl39 Yb27 2.801251 1_555
Cl39 Yb26 2.821556 1_555
Cl39 Yb17 2.843370 1_555
Cl39 Yb1 2.994421 1_555
Cl40 Yb16 2.801251 1_555
Cl40 Yb6 2.821556 1_555
Cl40 Yb0 2.843370 1_555
Cl40 Yb8 2.994421 1_555
Cl41 Yb10 2.746128 1_555
Cl41 Yb16 2.774021 1_655
Cl41 Yb12 2.816551 1_555
Cl42 Yb27 2.746128 1_555
Cl42 Yb15 2.774021 1_556
Cl42 Yb1 2.816551 1_565
Cl43 Yb14 2.825625 1_555
Cl43 Yb3 2.828144 1_565
Cl43 Yb26 2.850275 1_555
Cl43 Yb17 2.875807 1_565
Cl44 Yb2 2.727268 1_555
Cl44 Yb24 2.731314 1_655
Cl44 Yb11 3.063378 1_655
Cl45 Yb19 2.747931 1_555
Cl45 Yb23 2.763912 1_655
Cl45 Yb24 2.869118 1_655
Cl46 Yb3 2.825625 1_555
Cl46 Yb14 2.828144 1_555
Cl46 Yb17 2.850275 1_555
Cl46 Yb26 2.875807 1_555
Cl47 Yb8 2.774130 1_555
Cl47 Yb16 2.780749 1_655
Cl47 Yb0 2.780814 1_655
Cl48 Yb9 2.825625 1_555
Cl48 Yb25 2.828144 1_555
Cl48 Yb20 2.850275 1_555
Cl48 Yb13 2.875807 1_555
Cl49 Yb24 2.727268 1_655
Cl49 Yb2 2.731314 1_545
Cl49 Yb21 3.063378 1_555
Cl50 Yb8 2.801251 1_545
Cl50 Yb0 2.821556 1_545
Cl50 Yb6 2.843370 1_555
Cl50 Yb16 2.994421 1_555
Cl51 Yb15 2.746128 1_555
Cl51 Yb27 2.774021 1_454
Cl51 Yb5 2.816551 1_555
Cl52 Yb12 2.746128 1_555
Cl52 Yb8 2.774021 1_555
Cl52 Yb10 2.816551 1_565
Cl53 Yb1 2.746128 1_555
Cl53 Yb5 2.774021 1_656
Cl53 Yb27 2.816551 1_555
Cl54 Yb12 2.801251 1_555
Cl54 Yb13 2.821556 1_555
Cl54 Yb20 2.843370 1_555
Cl54 Yb10 2.994421 1_555
Cl55 Yb5 2.774130 1_655
Cl55 Yb15 2.780749 1_545
Cl55 Yb19 2.780814 1_555
Cl56 Yb5 2.746128 1_555
Cl56 Yb1 2.774021 1_554
Cl56 Yb15 2.816551 1_545
Cl57 Yb7 2.822286 1_565
Cl57 Yb14 2.835683 1_555
Cl57 Yb18 2.845327 1_555
Cl57 Yb3 2.858874 1_565
Cl58 Yb13 2.747931 1_555
Cl58 Yb20 2.763912 1_455
Cl58 Yb25 2.869118 1_455
Cl59 Yb8 2.746128 1_555
Cl59 Yb12 2.774021 1_455
Cl59 Yb16 2.816551 1_555
