# generated using pymatgen
data_Na4Pu(MoO4)4
_symmetry_space_group_name_H-M   'P 1'
_cell_length_a   10.04376599
_cell_length_b   10.04376599
_cell_length_c   10.04376599
_cell_angle_alpha   110.96049412
_cell_angle_beta   110.96049412
_cell_angle_gamma   106.53205299
_symmetry_Int_Tables_number   1
_chemical_formula_structural   Na4Pu(MoO4)4
_chemical_formula_sum   'Na8 Pu2 Mo8 O32'
_cell_volume   778.42266788
_cell_formula_units_Z   2
loop_
 _symmetry_equiv_pos_site_id
 _symmetry_equiv_pos_as_xyz
  1  'x, y, z'
loop_
 _atom_site_type_symbol
 _atom_site_label
 _atom_site_symmetry_multiplicity
 _atom_site_fract_x
 _atom_site_fract_y
 _atom_site_fract_z
 _atom_site_occupancy
  Na  Na0  1  0.63648000  0.25627700  0.83545300  1
  Na  Na1  1  0.32917600  0.44897300  0.33545300  1
  Na  Na2  1  0.74372300  0.57917600  0.38020300  1
  Na  Na3  1  0.00627700  0.67082400  0.11979700  1
  Na  Na4  1  0.19897300  0.36352000  0.61979700  1
  Na  Na5  1  0.55102700  0.88648000  0.88020300  1
  Na  Na6  1  0.11352000  0.99372300  0.66454700  1
  Na  Na7  1  0.42082400  0.80102700  0.16454700  1
  Pu  Pu0  1  0.00000000  0.00000000  0.00000000  1
  Pu  Pu1  1  0.75000000  0.25000000  0.50000000  1
  Mo  Mo0  1  0.32126300  0.09708800  0.41357500  1
  Mo  Mo1  1  0.65768900  0.57126300  0.72417500  1
  Mo  Mo2  1  0.06648600  0.34231100  0.91357500  1
  Mo  Mo3  1  0.09231100  0.67873700  0.77582500  1
  Mo  Mo4  1  0.84708800  0.93351400  0.27582500  1
  Mo  Mo5  1  0.68351400  0.90768900  0.58642500  1
  Mo  Mo6  1  0.90291200  0.31648600  0.22417500  1
  Mo  Mo7  1  0.42873700  0.15291200  0.08642500  1
  O  O0  1  0.08778600  0.26619800  0.05756300  1
  O  O1  1  0.10652700  0.42145700  0.38449300  1
  O  O2  1  0.87566300  0.83214400  0.38839100  1
  O  O3  1  0.58214400  0.69375300  0.45648100  1
  O  O4  1  0.17145700  0.28696400  0.81493000  1
  O  O5  1  0.89778900  0.98419100  0.73899600  1
  O  O6  1  0.47203400  0.35652700  0.18507000  1
  O  O7  1  0.71303600  0.52796600  0.88449300  1
  O  O8  1  0.57854300  0.96303600  0.68507000  1
  O  O9  1  0.01580900  0.75480500  0.91359800  1
  O  O10  1  0.66221400  0.98380200  0.44243700  1
  O  O11  1  0.50480500  0.09120700  0.23899600  1
  O  O12  1  0.64347300  0.82854300  0.11550700  1
  O  O13  1  0.73419100  0.49519500  0.58640200  1
  O  O14  1  0.20863600  0.03022300  0.94243700  1
  O  O15  1  0.16785600  0.55624700  0.04351900  1
  O  O16  1  0.27796600  0.89347300  0.31493000  1
  O  O17  1  0.03696400  0.72203400  0.61550700  1
  O  O18  1  0.54136400  0.21977700  0.55756300  1
  O  O19  1  0.23727200  0.12566300  0.54351900  1
  O  O20  1  0.87433700  0.41785600  0.11160900  1
  O  O21  1  0.01619800  0.45863600  0.67841300  1
  O  O22  1  0.96977700  0.91221400  0.17841300  1
  O  O23  1  0.85221100  0.26580900  0.76100400  1
  O  O24  1  0.51272800  0.12433700  0.95648100  1
  O  O25  1  0.44375300  0.48727200  0.61160900  1
  O  O26  1  0.30624700  0.76272800  0.88839100  1
  O  O27  1  0.24519500  0.15879300  0.26100400  1
  O  O28  1  0.90879300  0.14778900  0.41359800  1
  O  O29  1  0.84120700  0.10221100  0.08640200  1
  O  O30  1  0.73380200  0.79136400  0.82158700  1
  O  O31  1  0.78022300  0.33778600  0.32158700  1
loop_
_geom_bond_atom_site_label_1
_geom_bond_atom_site_label_2
_geom_bond_distance
_geom_bond_site_symmetry_2
Na0 O7 2.419386 1_555
Na0 O20 2.422089 1_556
Na0 O18 2.449094 1_555
Na0 O24 2.464685 1_555
Na0 O23 2.520997 1_555
Na0 O8 2.550989 1_545
Na1 O1 2.419386 1_555
Na1 O25 2.422089 1_555
Na1 O0 2.449095 1_555
Na1 O3 2.464685 1_555
Na1 O27 2.520997 1_555
Na1 O6 2.550989 1_555
Na2 O6 2.419386 1_555
Na2 O3 2.422089 1_555
Na2 O31 2.449094 1_555
Na2 O2 2.464685 1_555
Na2 O13 2.520997 1_555
Na2 O17 2.550989 1_655
Na3 O16 2.419386 1_555
Na3 O15 2.422089 1_555
Na3 O22 2.449094 1_455
Na3 O20 2.464685 1_455
Na3 O9 2.520997 1_554
Na3 O7 2.550989 1_454
Na4 O4 2.419386 1_555
Na4 O19 2.422089 1_555
Na4 O21 2.449104 1_555
Na4 O25 2.464685 1_555
Na4 O28 2.520997 1_455
Na4 O1 2.550989 1_555
Na5 O8 2.419386 1_555
Na5 O24 2.422089 1_565
Na5 O30 2.449104 1_555
Na5 O26 2.464685 1_555
Na5 O29 2.520997 1_566
Na5 O12 2.550989 1_556
Na6 O17 2.419386 1_555
Na6 O2 2.422089 1_455
Na6 O14 2.449094 1_565
Na6 O19 2.464685 1_565
Na6 O5 2.520997 1_455
Na6 O4 2.550989 1_565
Na7 O12 2.419386 1_555
Na7 O26 2.422089 1_554
Na7 O10 2.449095 1_555
Na7 O15 2.464685 1_555
Na7 O11 2.520997 1_565
Na7 O16 2.550989 1_555
Mo0 O16 1.757557 1_545
Mo0 O19 1.776193 1_555
Mo0 O18 1.839646 1_555
Mo0 O27 1.851303 1_555
Mo1 O7 1.757557 1_555
Mo1 O25 1.776201 1_555
Mo1 O30 1.839646 1_555
Mo1 O13 1.851295 1_555
Mo2 O4 1.757563 1_555
Mo2 O15 1.776200 1_556
Mo2 O0 1.839646 1_556
Mo2 O23 1.851298 1_455
Mo3 O17 1.757557 1_555
Mo3 O26 1.776201 1_555
Mo3 O21 1.839646 1_555
Mo3 O9 1.851295 1_555
Mo4 O12 1.757557 1_555
Mo4 O2 1.776201 1_555
Mo4 O22 1.839648 1_555
Mo4 O28 1.851295 1_565
Mo5 O8 1.757563 1_555
Mo5 O3 1.776200 1_555
Mo5 O10 1.839646 1_555
Mo5 O5 1.851298 1_555
Mo6 O1 1.757557 1_655
Mo6 O20 1.776201 1_555
Mo6 O31 1.839648 1_555
Mo6 O29 1.851295 1_555
Mo7 O6 1.757557 1_555
Mo7 O24 1.776193 1_554
Mo7 O14 1.839646 1_554
Mo7 O11 1.851303 1_555
O0 Pu0 2.334045 1_555
O5 Pu0 2.373860 1_666
O9 Pu0 2.373860 1_566
O10 Pu1 2.334045 1_565
O11 Pu1 2.373860 1_555
O13 Pu1 2.373860 1_555
O14 Pu0 2.334055 1_556
O18 Pu1 2.334055 1_555
O21 Pu1 2.334049 1_455
O22 Pu0 2.334055 1_665
O23 Pu1 2.373860 1_555
O27 Pu0 2.373860 1_555
O28 Pu1 2.373860 1_555
O29 Pu0 2.373860 1_655
O30 Pu0 2.334049 1_666
O31 Pu1 2.334055 1_555
