# generated using pymatgen
data_Ba(HO)2
_symmetry_space_group_name_H-M   'P 1'
_cell_length_a   6.86942000
_cell_length_b   8.14121972
_cell_length_c   9.49226569
_cell_angle_alpha   90.26785193
_cell_angle_beta   98.06612762
_cell_angle_gamma   91.06095756
_symmetry_Int_Tables_number   1
_chemical_formula_structural   Ba(HO)2
_chemical_formula_sum   'Ba8 H16 O16'
_cell_volume   525.50310355
_cell_formula_units_Z   8
loop_
 _symmetry_equiv_pos_site_id
 _symmetry_equiv_pos_as_xyz
  1  'x, y, z'
loop_
 _atom_site_type_symbol
 _atom_site_label
 _atom_site_symmetry_multiplicity
 _atom_site_fract_x
 _atom_site_fract_y
 _atom_site_fract_z
 _atom_site_occupancy
  Ba  Ba0  1  0.73646800  0.86182000  0.09777600  1
  Ba  Ba1  1  0.24162800  0.64412500  0.60019200  1
  Ba  Ba2  1  0.24340300  0.14705900  0.90304200  1
  Ba  Ba3  1  0.74290400  0.35111900  0.40577400  1
  Ba  Ba4  1  0.70986100  0.92460100  0.65373400  1
  Ba  Ba5  1  0.21675000  0.55349500  0.17093400  1
  Ba  Ba6  1  0.27941500  0.03830000  0.32188100  1
  Ba  Ba7  1  0.78924300  0.44583900  0.81562700  1
  H  H0  1  0.81361000  0.95271600  0.37413700  1
  H  H1  1  0.14114400  0.61516500  0.87975300  1
  H  H2  1  0.36651300  0.10605800  0.62164100  1
  H  H3  1  0.69335000  0.45433900  0.11469000  1
  H  H4  1  0.65655300  0.15531300  0.82449400  1
  H  H5  1  0.09221200  0.31512800  0.31411800  1
  H  H6  1  0.22790300  0.84468600  0.02300300  1
  H  H7  1  0.72208500  0.64553900  0.51024600  1
  H  H8  1  0.88765900  0.18198600  0.06461800  1
  H  H9  1  0.37679700  0.32601500  0.54627700  1
  H  H10  1  0.87979400  0.76595800  0.87463800  1
  H  H11  1  0.54306700  0.76126100  0.35703100  1
  H  H12  1  0.04836800  0.14722700  0.62653500  1
  H  H13  1  0.55002400  0.21950400  0.12884100  1
  H  H14  1  0.95215700  0.71265900  0.37632800  1
  H  H15  1  0.46170200  0.65119700  0.87505400  1
  O  O0  1  0.68448600  0.00496100  0.36959200  1
  O  O1  1  0.19146300  0.50116000  0.87585900  1
  O  O2  1  0.31104400  0.99244800  0.61645000  1
  O  O3  1  0.80529700  0.53110900  0.11492800  1
  O  O4  1  0.64669100  0.12925000  0.92299400  1
  O  O5  1  0.14274900  0.37142700  0.40396400  1
  O  O6  1  0.34660400  0.86907300  0.09193500  1
  O  O7  1  0.84976400  0.62997000  0.57522400  1
  O  O8  1  0.01344700  0.16111100  0.12459700  1
  O  O9  1  0.49830200  0.31503100  0.61425100  1
  O  O10  1  0.01307000  0.81172900  0.88327200  1
  O  O11  1  0.49932100  0.66057900  0.40014600  1
  O  O12  1  0.94280600  0.19261900  0.67423400  1
  O  O13  1  0.46145100  0.28919500  0.17325500  1
  O  O14  1  0.03012000  0.79129500  0.32892300  1
  O  O15  1  0.56178700  0.70407400  0.82466500  1
loop_
_geom_bond_atom_site_label_1
_geom_bond_atom_site_label_2
_geom_bond_distance
_geom_bond_site_symmetry_2
Ba0 H10 2.581271 1_554
Ba0 O6 2.672678 1_555
Ba0 H0 2.699499 1_555
Ba0 O3 2.743842 1_555
Ba0 O4 2.769380 1_564
Ba0 H8 2.823288 1_565
Ba0 O14 2.832938 1_655
Ba0 O0 2.896301 1_565
Ba0 O15 2.974684 1_554
Ba0 O8 3.050999 1_665
Ba0 H11 3.063897 1_555
Ba1 O7 2.669247 1_455
Ba1 O11 2.773852 1_555
Ba1 O2 2.866705 1_555
Ba2 H6 2.723674 1_546
Ba2 O4 2.756745 1_555
Ba2 H12 2.774383 1_555
Ba2 O8 2.804999 1_556
Ba2 O12 2.809980 1_455
Ba2 H13 2.837880 1_556
Ba2 O1 2.919539 1_555
Ba2 O6 2.929159 1_546
Ba2 H2 2.932171 1_555
Ba2 O13 2.998566 1_556
Ba2 H4 3.033562 1_555
Ba2 H8 3.078729 1_456
Ba2 O2 3.089543 1_545
Ba2 O10 3.121464 1_545
Ba3 H7 2.603739 1_555
Ba3 H5 2.685167 1_655
Ba3 O5 2.751084 1_655
Ba3 O13 2.760372 1_555
Ba3 O9 2.783173 1_555
Ba3 O7 2.802242 1_555
Ba3 O0 2.851552 1_555
Ba3 H3 2.867895 1_555
Ba3 O12 3.026373 1_555
Ba3 O11 3.046682 1_555
Ba4 H4 2.540259 1_565
Ba4 H10 2.611879 1_555
Ba4 H7 2.652159 1_555
Ba4 O12 2.671879 1_565
Ba4 O15 2.704314 1_555
Ba4 O7 2.739014 1_555
Ba4 O0 2.760762 1_565
Ba4 O2 2.778805 1_555
Ba4 H2 2.787430 1_565
Ba4 H0 2.852112 1_555
Ba4 O10 2.957381 1_655
Ba4 H12 2.962370 1_665
Ba5 H5 2.575763 1_555
Ba5 O13 2.753181 1_555
Ba5 H6 2.766264 1_555
Ba5 O5 2.768875 1_555
Ba5 H1 2.789465 1_554
Ba5 O3 2.804097 1_455
Ba5 O1 2.811847 1_554
Ba5 O11 2.827744 1_555
Ba5 O6 2.842467 1_555
Ba5 O14 2.871410 1_555
Ba6 H5 2.611646 1_555
Ba6 O14 2.624276 1_545
Ba6 O8 2.640008 1_555
Ba6 O6 2.674601 1_545
Ba6 O0 2.774368 1_555
Ba6 O2 2.801277 1_545
Ba6 O13 2.855464 1_555
Ba6 H2 2.872965 1_555
Ba6 H11 2.909855 1_545
Ba7 H4 2.525038 1_555
Ba7 O15 2.650695 1_555
Ba7 H10 2.705789 1_555
Ba7 O9 2.759058 1_555
Ba7 O12 2.759706 1_555
Ba7 O1 2.769871 1_655
Ba7 O7 2.811143 1_555
Ba7 O3 2.907991 1_556
H0 O0 0.986387 1_565
H1 O1 0.998718 1_555
H2 O2 0.992148 1_545
H3 O3 0.981687 1_555
H4 O4 0.971037 1_555
H5 O5 0.982498 1_555
H6 O6 0.987677 1_555
H7 O7 1.009355 1_555
H8 O8 0.983851 1_655
H9 O9 0.986487 1_555
H10 O10 0.974571 1_655
H11 O11 0.978874 1_555
H12 O12 0.983823 1_455
H13 O13 0.975902 1_555
H14 O14 0.978152 1_655
H15 O15 0.984903 1_555
