# generated using pymatgen
data_Ca2AlH10BrO8
_symmetry_space_group_name_H-M   'P 1'
_cell_length_a   5.73387783
_cell_length_b   8.66802421
_cell_length_c   9.95537276
_cell_angle_alpha   102.68562059
_cell_angle_beta   90.08408228
_cell_angle_gamma   108.95470597
_symmetry_Int_Tables_number   1
_chemical_formula_structural   Ca2AlH10BrO8
_chemical_formula_sum   'Ca4 Al2 H20 Br2 O16'
_cell_volume   455.11951171
_cell_formula_units_Z   2
loop_
 _symmetry_equiv_pos_site_id
 _symmetry_equiv_pos_as_xyz
  1  'x, y, z'
loop_
 _atom_site_type_symbol
 _atom_site_label
 _atom_site_symmetry_multiplicity
 _atom_site_fract_x
 _atom_site_fract_y
 _atom_site_fract_z
 _atom_site_occupancy
  Ca  Ca0  1  0.71513454  0.92567336  0.40320479  1
  Ca  Ca1  1  0.21070888  0.92551931  0.90191945  1
  Ca  Ca2  1  0.28486546  0.07432664  0.59679521  1
  Ca  Ca3  1  0.78929112  0.07448069  0.09808055  1
  Al  Al0  1  0.25410413  0.00192364  0.25094893  1
  Al  Al1  1  0.74589587  0.99807636  0.74905107  1
  H  H0  1  0.58130835  0.56788621  0.24131307  1
  H  H1  1  0.68075789  0.56671532  0.38630983  1
  H  H2  1  0.60595858  0.23957127  0.40439445  1
  H  H3  1  0.89034059  0.23317208  0.62309515  1
  H  H4  1  0.09625562  0.23670880  0.36177522  1
  H  H5  1  0.88212901  0.56819932  0.89059114  1
  H  H6  1  0.97930767  0.56409403  0.74448915  1
  H  H7  1  0.90374438  0.76329120  0.63822478  1
  H  H8  1  0.10965941  0.76682792  0.37690485  1
  H  H9  1  0.39404142  0.76042873  0.59560555  1
  H  H10  1  0.10004702  0.23449574  0.89348462  1
  H  H11  1  0.41229971  0.23868766  0.12446639  1
  H  H12  1  0.59225452  0.23322042  0.86475805  1
  H  H13  1  0.31924211  0.43328468  0.61369017  1
  H  H14  1  0.41869165  0.43211379  0.75868693  1
  H  H15  1  0.40774548  0.76677958  0.13524195  1
  H  H16  1  0.58770029  0.76131234  0.87553361  1
  H  H17  1  0.89995298  0.76550426  0.10651538  1
  H  H18  1  0.02069233  0.43590597  0.25551085  1
  H  H19  1  0.11787099  0.43180068  0.10940886  1
  Br  Br0  1  0.00000000  0.50000000  0.50000000  1
  Br  Br1  1  0.50000000  0.50000000  0.00000000  1
  O  O0  1  0.57959789  0.61353090  0.33987264  1
  O  O1  1  0.49647291  0.12701906  0.40021661  1
  O  O2  1  0.90392500  0.12448035  0.62015096  1
  O  O3  1  0.03496237  0.12464155  0.30391249  1
  O  O4  1  0.02682650  0.61443558  0.84238651  1
  O  O5  1  0.96503763  0.87535845  0.69608751  1
  O  O6  1  0.09607500  0.87551965  0.37984904  1
  O  O7  1  0.50352709  0.87298094  0.59978339  1
  O  O8  1  0.98975747  0.12512827  0.89825195  1
  O  O9  1  0.41133026  0.12623618  0.12031244  1
  O  O10  1  0.53025502  0.12474187  0.80115612  1
  O  O11  1  0.42040211  0.38646910  0.66012736  1
  O  O12  1  0.46974498  0.87525813  0.19884388  1
  O  O13  1  0.58866974  0.87376382  0.87968756  1
  O  O14  1  0.01024253  0.87487173  0.10174805  1
  O  O15  1  0.97317350  0.38556442  0.15761349  1
loop_
_geom_bond_atom_site_label_1
_geom_bond_atom_site_label_2
_geom_bond_distance
_geom_bond_site_symmetry_2
Ca0 O12 2.347664 1_555
Ca0 O7 2.355890 1_555
Ca0 O6 2.363906 1_655
Ca0 O2 2.439819 1_565
Ca0 O3 2.452346 1_665
Ca0 O1 2.462324 1_565
Ca0 O0 2.491063 1_555
Ca1 O14 2.352450 1_556
Ca1 O13 2.352939 1_555
Ca1 O5 2.361063 1_455
Ca1 O8 2.460015 1_465
Ca1 O10 2.460931 1_565
Ca1 O9 2.471525 1_566
Ca1 O4 2.486612 1_555
Ca2 O10 2.347664 1_555
Ca2 O1 2.355890 1_555
Ca2 O2 2.363906 1_455
Ca2 O6 2.439819 1_545
Ca2 O5 2.452346 1_445
Ca2 O7 2.462324 1_545
Ca2 O11 2.491063 1_555
Ca3 O8 2.352450 1_554
Ca3 O9 2.352939 1_555
Ca3 O3 2.361063 1_655
Ca3 O14 2.460015 1_645
Ca3 O12 2.460931 1_545
Ca3 O13 2.471525 1_544
Ca3 O15 2.486612 1_555
Al0 O3 1.900608 1_555
Al0 O1 1.903314 1_555
Al0 O12 1.907104 1_545
Al0 O6 1.908992 1_545
Al0 O14 1.910325 1_545
Al0 O9 1.911303 1_555
Al1 O5 1.900608 1_555
Al1 O7 1.903314 1_555
Al1 O10 1.907104 1_565
Al1 O2 1.908992 1_565
Al1 O8 1.910325 1_565
Al1 O13 1.911303 1_555
H0 O0 0.975412 1_555
H1 O0 0.974350 1_555
H2 O1 0.965329 1_555
H3 O2 0.964423 1_555
H4 O3 0.964790 1_555
H5 O4 0.974121 1_655
H6 O4 0.974527 1_655
H7 O5 0.964790 1_555
H8 O6 0.964423 1_555
H9 O7 0.965329 1_555
H10 O8 0.965016 1_455
H11 O9 0.964686 1_555
H12 O10 0.965475 1_555
H13 O11 0.974350 1_555
H14 O11 0.975412 1_555
H15 O12 0.965475 1_555
H16 O13 0.964686 1_555
H17 O14 0.965016 1_655
H18 O15 0.974527 1_455
H19 O15 0.974121 1_455
