# generated using pymatgen
data_Ti3H2O7
_symmetry_space_group_name_H-M   'P 1'
_cell_length_a   18.90218664
_cell_length_b   18.90218664
_cell_length_c   10.02874106
_cell_angle_alpha   75.24939012
_cell_angle_beta   75.24939012
_cell_angle_gamma   11.45165038
_symmetry_Int_Tables_number   1
_chemical_formula_structural   Ti3H2O7
_chemical_formula_sum   'Ti6 H4 O14'
_cell_volume   687.72544357
_cell_formula_units_Z   2
loop_
 _symmetry_equiv_pos_site_id
 _symmetry_equiv_pos_as_xyz
  1  'x, y, z'
loop_
 _atom_site_type_symbol
 _atom_site_label
 _atom_site_symmetry_multiplicity
 _atom_site_fract_x
 _atom_site_fract_y
 _atom_site_fract_z
 _atom_site_occupancy
  Ti  Ti0  1  0.23682700  0.23682700  0.74345100  1
  Ti  Ti1  1  0.76317300  0.76317300  0.25654900  1
  Ti  Ti2  1  0.20827000  0.20827000  0.15051700  1
  Ti  Ti3  1  0.79173000  0.79173000  0.84948300  1
  Ti  Ti4  1  0.18050500  0.18050500  0.47770800  1
  Ti  Ti5  1  0.81949500  0.81949500  0.52229200  1
  H  H0  1  0.28172500  0.28172500  0.48458100  1
  H  H1  1  0.71827500  0.71827500  0.51541900  1
  H  H2  1  0.23504600  0.23504600  0.94168500  1
  H  H3  1  0.76495400  0.76495400  0.05831500  1
  O  O0  1  0.21041300  0.21041300  0.62598800  1
  O  O1  1  0.78958700  0.78958700  0.37401200  1
  O  O2  1  0.20775800  0.20775800  0.94225100  1
  O  O3  1  0.79224200  0.79224200  0.05774900  1
  O  O4  1  0.17120000  0.17120000  0.29218400  1
  O  O5  1  0.82880000  0.82880000  0.70781600  1
  O  O6  1  0.13923800  0.13923800  0.57895800  1
  O  O7  1  0.86076200  0.86076200  0.42104200  1
  O  O8  1  0.29268600  0.29268600  0.56406300  1
  O  O9  1  0.70731400  0.70731400  0.43593700  1
  O  O10  1  0.27779100  0.27779100  0.87300600  1
  O  O11  1  0.72220900  0.72220900  0.12699400  1
  O  O12  1  0.24874900  0.24874900  0.24880700  1
  O  O13  1  0.75125100  0.75125100  0.75119300  1
loop_
_geom_bond_atom_site_label_1
_geom_bond_atom_site_label_2
_geom_bond_distance
_geom_bond_site_symmetry_2
H0 O8 0.986696 1_555
H1 O9 0.986696 1_555
H2 O2 1.025021 1_555
H2 O10 1.578899 1_555
H2 Ti0 1.971958 1_555
H2 Ti2 2.078723 1_556
H3 O3 1.025021 1_555
H3 O11 1.578899 1_555
H3 Ti1 1.971958 1_555
H3 Ti3 2.078723 1_554
O0 Ti0 1.724504 1_555
O0 Ti4 2.081632 1_555
O1 Ti1 1.724504 1_555
O1 Ti5 2.081632 1_555
O2 Ti0 2.013664 1_555
O2 Ti2 2.093657 1_556
O3 Ti1 2.013664 1_555
O3 Ti3 2.093657 1_554
O4 Ti2 1.717270 1_555
O4 Ti4 1.979273 1_555
O5 Ti3 1.717270 1_555
O5 Ti5 1.979273 1_555
O6 Ti4 1.622957 1_555
O7 Ti5 1.622957 1_555
O8 Ti5 2.128996 1_545
O8 Ti5 2.128996 1_455
O8 Ti0 2.391006 1_555
O9 Ti4 2.128996 1_655
O9 Ti4 2.128996 1_565
O9 Ti1 2.391006 1_555
O10 Ti3 1.955416 1_545
O10 Ti3 1.955416 1_455
O10 Ti0 2.255451 1_555
O11 Ti2 1.955416 1_565
O11 Ti2 1.955416 1_655
O11 Ti1 2.255451 1_555
O12 Ti1 1.969354 1_545
O12 Ti1 1.969354 1_455
O12 Ti2 2.014509 1_555
O13 Ti0 1.969354 1_565
O13 Ti0 1.969354 1_655
O13 Ti3 2.014509 1_555
