# generated using pymatgen
data_V2H3O5
_symmetry_space_group_name_H-M   'P 1'
_cell_length_a   6.24818486
_cell_length_b   6.24818486
_cell_length_c   4.76613654
_cell_angle_alpha   80.89304527
_cell_angle_beta   80.89304527
_cell_angle_gamma   27.90062595
_symmetry_Int_Tables_number   1
_chemical_formula_structural   V2H3O5
_chemical_formula_sum   'V2 H3 O5'
_cell_volume   85.90334406
_cell_formula_units_Z   1
loop_
 _symmetry_equiv_pos_site_id
 _symmetry_equiv_pos_as_xyz
  1  'x, y, z'
loop_
 _atom_site_type_symbol
 _atom_site_label
 _atom_site_symmetry_multiplicity
 _atom_site_fract_x
 _atom_site_fract_y
 _atom_site_fract_z
 _atom_site_occupancy
  V  V0  1  0.13985906  0.13985906  0.58812895  1
  V  V1  1  0.86695118  0.86695118  0.40098305  1
  H  H0  1  0.64329965  0.64329965  0.04319148  1
  H  H1  1  0.47251444  0.47251444  0.02156402  1
  H  H2  1  0.33064910  0.33064910  0.85869895  1
  O  O0  1  0.99836211  0.99836211  0.49185524  1
  O  O1  1  0.60121328  0.60121328  0.88129125  1
  O  O2  1  0.39225240  0.39225240  0.12001842  1
  O  O3  1  0.30394994  0.30394994  0.66848628  1
  O  O4  1  0.70031085  0.70031085  0.35373437  1
loop_
_geom_bond_atom_site_label_1
_geom_bond_atom_site_label_2
_geom_bond_distance
_geom_bond_site_symmetry_2
H0 O1 0.992177 1_554
H0 O4 1.732779 1_555
H1 O2 1.009315 1_555
H1 O1 1.594617 1_554
H2 O3 1.011179 1_555
H2 O2 1.553358 1_556
O0 V1 1.718338 1_555
O0 V0 1.847213 1_665
O1 V0 2.056054 1_565
O1 V0 2.056054 1_655
O2 V1 2.005578 1_545
O2 V1 2.005578 1_455
O3 V1 2.039743 1_455
O3 V1 2.039743 1_545
O3 V0 2.087014 1_555
O4 V0 1.946118 1_565
O4 V0 1.946118 1_655
O4 V1 2.069666 1_555
