# generated using pymatgen
data_NdZr9O20
_symmetry_space_group_name_H-M   'P 1'
_cell_length_a   6.30008846
_cell_length_b   7.27553594
_cell_length_c   8.13515644
_cell_angle_alpha   102.98601324
_cell_angle_beta   97.40745859
_cell_angle_gamma   106.73426666
_symmetry_Int_Tables_number   1
_chemical_formula_structural   NdZr9O20
_chemical_formula_sum   'Nd1 Zr9 O20'
_cell_volume   340.38977226
_cell_formula_units_Z   1
loop_
 _symmetry_equiv_pos_site_id
 _symmetry_equiv_pos_as_xyz
  1  'x, y, z'
loop_
 _atom_site_type_symbol
 _atom_site_label
 _atom_site_symmetry_multiplicity
 _atom_site_fract_x
 _atom_site_fract_y
 _atom_site_fract_z
 _atom_site_occupancy
  Nd  Nd0  1  -0.00000000  0.50000000  0.00000000  1
  Zr  Zr0  1  0.79731826  0.59987032  0.59830600  1
  Zr  Zr1  1  0.60100808  0.19904277  0.20128887  1
  Zr  Zr2  1  0.79868927  0.09810334  0.59757575  1
  Zr  Zr3  1  0.39899192  0.80095723  0.79871113  1
  Zr  Zr4  1  0.60071126  0.70153810  0.20010848  1
  Zr  Zr5  1  0.20268174  0.40012968  0.40169400  1
  Zr  Zr6  1  0.39928874  0.29846190  0.79989152  1
  Zr  Zr7  1  -0.00000000  0.00000000  0.00000000  1
  Zr  Zr8  1  0.20131073  0.90189666  0.40242425  1
  O  O0  1  0.64513741  0.92553206  0.04887843  1
  O  O1  1  0.44356153  0.52488922  0.64569765  1
  O  O2  1  0.62993773  0.41950612  0.05605367  1
  O  O3  1  0.73035318  0.36514002  0.73497053  1
  O  O4  1  0.26173769  0.12635769  0.24984464  1
  O  O5  1  0.44348383  0.02040752  0.64762196  1
  O  O6  1  0.55651617  0.97959248  0.35237804  1
  O  O7  1  0.04836491  0.73903547  0.84045037  1
  O  O8  1  0.73826231  0.87364231  0.75015536  1
  O  O9  1  0.37006227  0.58049388  0.94394633  1
  O  O10  1  0.85537837  0.32773188  0.45332644  1
  O  O11  1  0.26964682  0.63485998  0.26502947  1
  O  O12  1  0.55643847  0.47511078  0.35430235  1
  O  O13  1  0.14998398  0.17430297  0.54452582  1
  O  O14  1  0.05207661  0.20577028  0.83835832  1
  O  O15  1  0.94792339  0.79422972  0.16164168  1
  O  O16  1  0.85001602  0.82569703  0.45547418  1
  O  O17  1  0.35486259  0.07446794  0.95112157  1
  O  O18  1  0.14462163  0.67226812  0.54667356  1
  O  O19  1  0.95163509  0.26096453  0.15954963  1
loop_
_geom_bond_atom_site_label_1
_geom_bond_atom_site_label_2
_geom_bond_distance
_geom_bond_site_symmetry_2
Nd0 O2 2.365235 1_455
Nd0 O9 2.365235 1_554
Nd0 O19 2.369254 1_455
Nd0 O7 2.369254 1_554
Nd0 O11 2.375323 1_555
Nd0 O3 2.375323 1_454
Nd0 O14 2.381155 1_554
Nd0 O15 2.381155 1_455
O0 Zr1 2.207502 1_565
O0 Zr3 2.217193 1_554
O0 Zr4 2.230464 1_555
O0 Zr7 2.253524 1_665
O1 Zr5 2.165043 1_555
O1 Zr3 2.225720 1_555
O1 Zr0 2.242604 1_555
O1 Zr6 2.262628 1_555
O2 Zr1 2.177353 1_555
O2 Zr4 2.193215 1_555
O2 Zr6 2.210716 1_554
O3 Zr6 2.163579 1_555
O3 Zr2 2.199789 1_555
O3 Zr0 2.211326 1_555
O4 Zr1 2.159855 1_555
O4 Zr8 2.242193 1_545
O4 Zr5 2.251953 1_555
O4 Zr7 2.262402 1_555
O5 Zr8 2.175980 1_545
O5 Zr3 2.202641 1_545
O5 Zr6 2.234180 1_555
O5 Zr2 2.258993 1_555
O6 Zr2 2.175980 1_565
O6 Zr1 2.202641 1_565
O6 Zr4 2.234180 1_555
O6 Zr8 2.258993 1_555
O7 Zr7 2.170258 1_566
O7 Zr0 2.187505 1_455
O7 Zr3 2.210639 1_555
O8 Zr3 2.159855 1_555
O8 Zr2 2.242193 1_565
O8 Zr0 2.251953 1_555
O8 Zr7 2.262402 1_666
O9 Zr3 2.177353 1_555
O9 Zr6 2.193215 1_555
O9 Zr4 2.210716 1_556
O10 Zr5 2.216783 1_655
O10 Zr0 2.218978 1_555
O10 Zr2 2.222914 1_555
O10 Zr1 2.252716 1_555
O11 Zr4 2.163579 1_555
O11 Zr8 2.199789 1_555
O11 Zr5 2.211326 1_555
O12 Zr0 2.165043 1_555
O12 Zr1 2.225720 1_555
O12 Zr5 2.242604 1_555
O12 Zr4 2.262628 1_555
O13 Zr5 2.191622 1_555
O13 Zr8 2.191948 1_545
O13 Zr2 2.244781 1_455
O13 Zr6 2.257630 1_555
O14 Zr6 2.181644 1_555
O14 Zr2 2.186985 1_455
O14 Zr7 2.188891 1_556
O15 Zr4 2.181644 1_555
O15 Zr8 2.186985 1_655
O15 Zr7 2.188891 1_665
O16 Zr0 2.191622 1_555
O16 Zr2 2.191948 1_565
O16 Zr8 2.244781 1_655
O16 Zr4 2.257630 1_555
O17 Zr3 2.207502 1_545
O17 Zr1 2.217193 1_556
O17 Zr6 2.230464 1_555
O17 Zr7 2.253524 1_556
O18 Zr0 2.216783 1_455
O18 Zr5 2.218978 1_555
O18 Zr8 2.222914 1_555
O18 Zr3 2.252716 1_555
O19 Zr7 2.170258 1_655
O19 Zr5 2.187505 1_655
O19 Zr1 2.210639 1_555
