# generated using pymatgen
data_Bi28Mo2O47
_symmetry_space_group_name_H-M   'P 1'
_cell_length_a   8.87172000
_cell_length_b   8.88826659
_cell_length_c   17.27511598
_cell_angle_alpha   90.11899246
_cell_angle_beta   90.16029465
_cell_angle_gamma   90.06978042
_symmetry_Int_Tables_number   1
_chemical_formula_structural   Bi28Mo2O47
_chemical_formula_sum   'Bi28 Mo2 O47'
_cell_volume   1362.20637787
_cell_formula_units_Z   1
loop_
 _symmetry_equiv_pos_site_id
 _symmetry_equiv_pos_as_xyz
  1  'x, y, z'
loop_
 _atom_site_type_symbol
 _atom_site_label
 _atom_site_symmetry_multiplicity
 _atom_site_fract_x
 _atom_site_fract_y
 _atom_site_fract_z
 _atom_site_occupancy
  Bi  Bi0  1  0.69937500  0.10467500  0.83099000  1
  Bi  Bi1  1  0.61246900  0.79555900  0.66678000  1
  Bi  Bi2  1  0.49823400  0.48572700  0.84151400  1
  Bi  Bi3  1  0.39287000  0.19420900  0.66622700  1
  Bi  Bi4  1  0.28421000  0.94790600  0.49900500  1
  Bi  Bi5  1  0.30178000  0.88369400  0.82652300  1
  Bi  Bi6  1  0.20551200  0.60977400  0.32856600  1
  Bi  Bi7  1  0.11103100  0.29488200  0.16776200  1
  Bi  Bi8  1  0.20453000  0.60715100  0.66752500  1
  Bi  Bi9  1  0.05560900  0.28252300  0.49802900  1
  Bi  Bi10  1  0.11231700  0.29233000  0.82645000  1
  Bi  Bi11  1  0.00111400  0.99321300  0.34004300  1
  Bi  Bi12  1  0.00383300  0.99858200  0.65845700  1
  Bi  Bi13  1  0.89239300  0.69773400  0.16685500  1
  Bi  Bi14  1  0.94316400  0.70865400  0.50000800  1
  Bi  Bi15  1  0.78343500  0.44585800  0.00009400  1
  Bi  Bi16  1  0.80417500  0.38969100  0.32962400  1
  Bi  Bi17  1  0.89117600  0.68918800  0.82842500  1
  Bi  Bi18  1  0.80399800  0.38696900  0.66471000  1
  Bi  Bi19  1  0.70114700  0.10800600  0.16713300  1
  Bi  Bi20  1  0.71606800  0.05123700  0.49817400  1
  Bi  Bi21  1  0.55192600  0.78084100  0.99839100  1
  Bi  Bi22  1  0.60915000  0.79507500  0.32720200  1
  Bi  Bi23  1  0.49777200  0.49497800  0.15888400  1
  Bi  Bi24  1  0.44461200  0.20849100  0.00183400  1
  Bi  Bi25  1  0.39238700  0.19853700  0.32938900  1
  Bi  Bi26  1  0.29807900  0.89047000  0.16602500  1
  Bi  Bi27  1  0.21252000  0.54894400  0.99861100  1
  Mo  Mo0  1  0.00151500  0.96580600  0.98180500  1
  Mo  Mo1  1  0.53232400  0.46129700  0.48444500  1
  O  O0  1  0.82322800  0.03004700  0.01667400  1
  O  O1  1  0.74930300  0.57431000  0.74719700  1
  O  O2  1  0.68157300  0.61985500  0.92004400  1
  O  O3  1  0.62420300  0.31575300  0.92083900  1
  O  O4  1  0.57523100  0.24821100  0.75446900  1
  O  O5  1  0.50241700  0.99456700  0.61659500  1
  O  O6  1  0.50236400  0.99181000  0.88095600  1
  O  O7  1  0.41940600  0.74393800  0.74617900  1
  O  O8  1  0.24741500  0.07674400  0.25035100  1
  O  O9  1  0.37407500  0.67519600  0.91974200  1
  O  O10  1  0.32184900  0.36703500  0.91885800  1
  O  O11  1  0.24819600  0.07175100  0.74394700  1
  O  O12  1  0.25579800  0.41936500  0.75068100  1
  O  O13  1  0.17946600  0.11961500  0.42066400  1
  O  O14  1  0.17928000  0.11845800  0.57993300  1
  O  O15  1  0.12674900  0.81873700  0.41972700  1
  O  O16  1  0.07634300  0.75529500  0.25021400  1
  O  O17  1  0.12816300  0.81601400  0.58057200  1
  O  O18  1  0.99934800  0.49418200  0.11779100  1
  O  O19  1  0.08328200  0.74262100  0.74658700  1
  O  O20  1  0.00536900  0.49412100  0.38298800  1
  O  O21  1  0.00430500  0.49654300  0.61746800  1
  O  O22  1  0.92419300  0.24507600  0.25207000  1
  O  O23  1  0.00506500  0.99523300  0.87856800  1
  O  O24  1  0.99737300  0.48811500  0.87832500  1
  O  O25  1  0.87783600  0.18008700  0.42030300  1
  O  O26  1  0.92717000  0.24357700  0.74191600  1
  O  O27  1  0.88082600  0.17774000  0.57713100  1
  O  O28  1  0.81977000  0.87425500  0.42032400  1
  O  O29  1  0.81795900  0.87492200  0.57812800  1
  O  O30  1  0.75404500  0.57745500  0.24656700  1
  O  O31  1  0.75398300  0.91999600  0.24932300  1
  O  O32  1  0.67847700  0.62073900  0.07807200  1
  O  O33  1  0.62287700  0.31987600  0.07926100  1
  O  O34  1  0.74678900  0.91751200  0.74637500  1
  O  O35  1  0.72189400  0.52531300  0.51299600  1
  O  O36  1  0.57728700  0.24937800  0.24570600  1
  O  O37  1  0.49909100  0.99903800  0.11630200  1
  O  O38  1  0.47657600  0.52418900  0.38360300  1
  O  O39  1  0.50091600  0.99673400  0.38087500  1
  O  O40  1  0.43694700  0.29035500  0.51381400  1
  O  O41  1  0.42036000  0.74992800  0.24427800  1
  O  O42  1  0.37412500  0.67726300  0.07755100  1
  O  O43  1  0.32174000  0.37100200  0.08051800  1
  O  O44  1  0.25122400  0.42012100  0.24490200  1
  O  O45  1  0.15782300  0.06399600  0.02625800  1
  O  O46  1  0.01657000  0.76593000  0.99927200  1
loop_
_geom_bond_atom_site_label_1
_geom_bond_atom_site_label_2
_geom_bond_distance
_geom_bond_site_symmetry_2
Bi0 O4 2.142516 1_555
Bi0 O6 2.194102 1_545
Bi0 O34 2.253013 1_545
Bi0 O3 2.523985 1_555
Bi0 O26 2.827616 1_555
Bi1 O34 2.113559 1_555
Bi1 O5 2.199883 1_555
Bi1 O7 2.244863 1_555
Bi1 O29 2.486662 1_555
Bi1 O1 2.697874 1_555
Bi2 O10 2.315262 1_555
Bi2 O3 2.326667 1_555
Bi2 O9 2.424667 1_555
Bi2 O2 2.425589 1_555
Bi2 O4 2.679666 1_555
Bi2 O12 2.722200 1_555
Bi3 O11 2.155698 1_555
Bi3 O5 2.197944 1_545
Bi3 O4 2.269995 1_555
Bi3 O14 2.498646 1_555
Bi3 O12 2.759723 1_555
Bi3 O40 2.798202 1_555
Bi4 O13 2.242621 1_565
Bi4 O14 2.262966 1_565
Bi4 O15 2.263640 1_555
Bi4 O17 2.300038 1_555
Bi4 O5 2.831723 1_555
Bi4 O39 2.841243 1_555
Bi5 O7 2.136008 1_555
Bi5 O6 2.226457 1_555
Bi5 O11 2.250084 1_565
Bi5 O9 2.539383 1_555
Bi5 O19 2.684894 1_555
Bi6 O16 2.195549 1_555
Bi6 O44 2.256045 1_555
Bi6 O20 2.258822 1_555
Bi6 O15 2.532809 1_555
Bi6 O38 2.694509 1_555
Bi6 O41 2.705994 1_555
Bi7 O44 2.131446 1_555
Bi7 O18 2.206976 1_455
Bi7 O22 2.253689 1_455
Bi7 O43 2.498129 1_555
Bi7 O8 2.695614 1_555
Bi8 O19 2.115867 1_555
Bi8 O21 2.203019 1_555
Bi8 O12 2.250447 1_555
Bi8 O17 2.484084 1_555
Bi8 O7 2.632763 1_555
Bi9 O13 2.257053 1_555
Bi9 O25 2.258067 1_455
Bi9 O27 2.269971 1_455
Bi9 O14 2.309983 1_555
Bi9 O20 2.774527 1_555
Bi9 O21 2.841504 1_555
Bi10 O12 2.149529 1_555
Bi10 O24 2.207756 1_455
Bi10 O26 2.236205 1_455
Bi10 O10 2.533927 1_555
Bi10 O11 2.707784 1_555
Bi11 O15 2.355135 1_555
Bi11 O28 2.375734 1_455
Bi11 O13 2.383786 1_565
Bi11 O25 2.425027 1_465
Bi11 O16 2.705736 1_555
Bi11 O31 2.767604 1_455
Bi11 O8 2.783250 1_565
Bi11 O22 2.792636 1_465
Bi12 O14 2.326352 1_565
Bi12 O17 2.379862 1_555
Bi12 O27 2.388595 1_465
Bi12 O29 2.414432 1_455
Bi12 O11 2.697883 1_565
Bi12 O26 2.697995 1_465
Bi12 O19 2.828926 1_555
Bi12 O34 2.836584 1_455
Bi13 O30 2.134944 1_555
Bi13 O18 2.212323 1_555
Bi13 O16 2.231700 1_655
Bi13 O32 2.529532 1_555
Bi13 O31 2.728395 1_555
Bi14 O29 2.289798 1_555
Bi14 O28 2.294278 1_555
Bi14 O17 2.349293 1_655
Bi14 O15 2.355388 1_655
Bi14 O35 2.560395 1_555
Bi14 O21 2.824569 1_655
Bi14 O20 2.831949 1_655
Bi15 O32 2.258240 1_555
Bi15 O2 2.264078 1_554
Bi15 O33 2.273018 1_555
Bi15 O3 2.277292 1_554
Bi16 O22 2.141267 1_555
Bi16 O20 2.209209 1_655
Bi16 O30 2.247198 1_555
Bi16 O25 2.522131 1_555
Bi16 O36 2.771052 1_555
Bi17 O1 2.139361 1_555
Bi17 O24 2.197896 1_555
Bi17 O19 2.267873 1_655
Bi17 O2 2.521985 1_555
Bi17 O34 2.788647 1_555
Bi18 O26 2.144675 1_555
Bi18 O21 2.186260 1_655
Bi18 O1 2.243806 1_555
Bi18 O27 2.491816 1_555
Bi18 O4 2.839715 1_555
Bi19 O36 2.152543 1_555
Bi19 O37 2.214934 1_545
Bi19 O31 2.244155 1_545
Bi19 O33 2.518321 1_555
Bi19 O22 2.742875 1_555
Bi20 O28 2.265234 1_545
Bi20 O29 2.277332 1_545
Bi20 O25 2.279064 1_555
Bi20 O27 2.289046 1_555
Bi20 O39 2.820676 1_545
Bi20 O5 2.838158 1_545
Bi21 O32 2.276764 1_556
Bi21 O9 2.279561 1_555
Bi21 O2 2.281861 1_555
Bi21 O42 2.284636 1_556
Bi21 O6 2.799638 1_555
Bi21 O37 2.849768 1_556
Bi22 O31 2.169394 1_555
Bi22 O39 2.235331 1_555
Bi22 O41 2.236282 1_555
Bi22 O28 2.559295 1_555
Bi22 O30 2.709074 1_555
Bi22 O38 2.852891 1_555
Bi23 O43 2.337453 1_555
Bi23 O33 2.355834 1_555
Bi23 O32 2.404821 1_555
Bi23 O42 2.409908 1_555
Bi23 O44 2.730174 1_555
Bi23 O36 2.742983 1_555
Bi23 O41 2.788991 1_555
Bi23 O30 2.823660 1_555
Bi24 O43 2.264133 1_555
Bi24 O10 2.286932 1_554
Bi24 O33 2.291125 1_555
Bi24 O3 2.327989 1_554
Bi24 O37 2.760773 1_545
Bi24 O45 2.881197 1_555
Bi24 O6 2.885110 1_544
Bi25 O8 2.161247 1_555
Bi25 O39 2.222940 1_545
Bi25 O36 2.235864 1_555
Bi25 O13 2.562145 1_555
Bi25 O44 2.754133 1_555
Bi26 O41 2.137025 1_555
Bi26 O37 2.203878 1_555
Bi26 O8 2.249616 1_565
Bi26 O42 2.525708 1_555
Bi26 O16 2.728744 1_555
Bi27 O9 2.276664 1_555
Bi27 O42 2.279176 1_556
Bi27 O43 2.334051 1_556
Bi27 O10 2.335641 1_555
Bi27 O46 2.598078 1_555
Mo0 O0 1.787957 1_466
Mo0 O23 1.803403 1_555
Mo0 O45 1.806293 1_566
Mo0 O46 1.807651 1_555
Mo1 O40 1.812284 1_555
Mo1 O35 1.840482 1_555
Mo1 O38 1.895192 1_555
