# generated using pymatgen
data_LiAlSiO4
_symmetry_space_group_name_H-M   'P 1'
_cell_length_a   10.45943523
_cell_length_b   10.45943613
_cell_length_c   11.26025947
_cell_angle_alpha   90.00000000
_cell_angle_beta   90.00000000
_cell_angle_gamma   120.00000325
_symmetry_Int_Tables_number   1
_chemical_formula_structural   LiAlSiO4
_chemical_formula_sum   'Li12 Al12 Si12 O48'
_cell_volume   1066.83074443
_cell_formula_units_Z   12
loop_
 _symmetry_equiv_pos_site_id
 _symmetry_equiv_pos_as_xyz
  1  'x, y, z'
loop_
 _atom_site_type_symbol
 _atom_site_label
 _atom_site_symmetry_multiplicity
 _atom_site_fract_x
 _atom_site_fract_y
 _atom_site_fract_z
 _atom_site_occupancy
  Li  Li0  1  0.50000000  0.00000000  -0.00000000  1
  Li  Li1  1  0.50000000  0.50000000  0.66666700  1
  Li  Li2  1  0.00000000  0.50000000  0.33333300  1
  Li  Li3  1  0.00000000  0.00000000  0.50000000  1
  Li  Li4  1  0.00000000  0.00000000  0.16666700  1
  Li  Li5  1  0.00000000  0.00000000  0.83333300  1
  Li  Li6  1  0.50000000  0.00000000  0.32819391  1
  Li  Li7  1  0.50000000  0.50000000  0.99486091  1
  Li  Li8  1  0.00000000  0.50000000  0.66152791  1
  Li  Li9  1  0.50000000  0.00000000  0.67180609  1
  Li  Li10  1  0.50000000  0.50000000  0.33847209  1
  Li  Li11  1  0.00000000  0.50000000  0.00513909  1
  Al  Al0  1  0.25059090  0.25059090  0.16666700  1
  Al  Al1  1  1.00000000  0.74940910  0.83333300  1
  Al  Al2  1  0.00000000  0.25059090  0.83333300  1
  Al  Al3  1  0.25059090  0.00000000  0.50000000  1
  Al  Al4  1  0.74940910  0.74940910  0.16666700  1
  Al  Al5  1  0.74940910  1.00000000  0.50000000  1
  Al  Al6  1  0.25133407  0.50266814  0.50000000  1
  Al  Al7  1  0.74866593  0.25133407  0.16666700  1
  Al  Al8  1  0.50266814  0.25133407  0.83333300  1
  Al  Al9  1  0.49733186  0.74866593  0.83333300  1
  Al  Al10  1  0.25133407  0.74866593  0.16666700  1
  Al  Al11  1  0.74866593  0.49733186  0.50000000  1
  Si  Si0  1  0.24756104  0.00000000  -0.00000000  1
  Si  Si1  1  0.24756104  0.24756104  0.66666700  1
  Si  Si2  1  1.00000000  0.75243796  0.33333300  1
  Si  Si3  1  0.00000000  0.24756104  0.33333300  1
  Si  Si4  1  0.75243796  0.75243796  0.66666700  1
  Si  Si5  1  0.75243796  1.00000000  -0.00000000  1
  Si  Si6  1  0.24808233  0.49616666  -0.00000000  1
  Si  Si7  1  0.75191767  0.24808233  0.66666700  1
  Si  Si8  1  0.49616666  0.24808233  0.33333300  1
  Si  Si9  1  0.50383334  0.75191767  0.33333300  1
  Si  Si10  1  0.24808233  0.75191767  0.66666700  1
  Si  Si11  1  0.75191767  0.50383334  -0.00000000  1
  O  O0  1  0.89373387  0.29362843  0.26311014  1
  O  O1  1  0.59133000  0.39142522  0.41600566  1
  O  O2  1  0.60857578  0.19990478  0.74933866  1
  O  O3  1  0.80009522  0.40867000  0.08267166  1
  O  O4  1  0.19990478  0.59133000  0.08267166  1
  O  O5  1  0.40867000  0.80009522  0.25066134  1
  O  O6  1  0.40867000  0.60857578  0.41600566  1
  O  O7  1  0.39142522  0.80009522  0.74933866  1
  O  O8  1  0.60857578  0.40867000  0.91732834  1
  O  O9  1  0.80009522  0.39142522  0.58399434  1
  O  O10  1  0.19990478  0.60857578  0.58399434  1
  O  O11  1  0.39142522  0.59133000  0.91732834  1
  O  O12  1  0.59133000  0.19990478  0.25066134  1
  O  O13  1  0.39989355  0.29362843  0.73688986  1
  O  O14  1  0.70637157  0.10626613  0.07022186  1
  O  O15  1  0.89373387  0.60010645  0.40355586  1
  O  O16  1  0.10626613  0.39989355  0.40355586  1
  O  O17  1  0.60010645  0.89373387  0.92977714  1
  O  O18  1  0.60010645  0.70637157  0.73688986  1
  O  O19  1  0.39922825  0.30305082  0.26045321  1
  O  O20  1  0.70637157  0.60010645  0.59644414  1
  O  O21  1  0.10626613  0.70637157  0.26311014  1
  O  O22  1  0.29362843  0.39989355  0.59644414  1
  O  O23  1  0.39989355  0.10626613  0.92977714  1
  O  O24  1  0.19753488  0.08624542  0.09127122  1
  O  O25  1  0.11128946  0.19753488  0.75793822  1
  O  O26  1  0.08624542  0.88871054  0.42460422  1
  O  O27  1  0.91375458  0.11128946  0.42460422  1
  O  O28  1  0.88871054  0.80246512  0.75793822  1
  O  O29  1  0.11128946  0.91375458  0.90872878  1
  O  O30  1  0.80246512  0.88871054  0.57539578  1
  O  O31  1  0.80246512  0.91375458  0.09127122  1
  O  O32  1  0.08624542  0.19753488  0.24206178  1
  O  O33  1  0.91375458  0.80246512  0.24206178  1
  O  O34  1  0.88871054  0.08624542  0.90872878  1
  O  O35  1  0.19753488  0.11128946  0.57539578  1
  O  O36  1  0.39922825  0.09617742  0.40621379  1
  O  O37  1  0.30305082  0.39922825  0.07288079  1
  O  O38  1  0.09617742  0.69694918  0.73954679  1
  O  O39  1  0.90382258  0.30305082  0.73954679  1
  O  O40  1  0.69694918  0.60077175  0.07288079  1
  O  O41  1  0.30305082  0.90382258  0.59378621  1
  O  O42  1  0.60077175  0.69694918  0.26045321  1
  O  O43  1  0.60077175  0.90382258  0.40621379  1
  O  O44  1  0.09617742  0.39922825  0.92711921  1
  O  O45  1  0.90382258  0.60077175  0.92711921  1
  O  O46  1  0.69694918  0.09617742  0.59378621  1
  O  O47  1  0.29362843  0.89373387  0.07022186  1
loop_
_geom_bond_atom_site_label_1
_geom_bond_atom_site_label_2
_geom_bond_distance
_geom_bond_site_symmetry_2
Li0 O14 2.029953 1_555
Li0 O47 2.029953 1_545
Li0 O17 2.029966 1_544
Li0 O23 2.029966 1_554
Li1 O20 2.029957 1_555
Li1 O22 2.029957 1_555
Li1 O18 2.029957 1_555
Li1 O13 2.029957 1_555
Li2 O21 2.029958 1_555
Li2 O0 2.029958 1_455
Li2 O15 2.029966 1_455
Li2 O16 2.029966 1_555
Li3 O35 1.984818 1_555
Li3 O30 1.984818 1_445
Li3 O26 1.984818 1_545
Li3 O27 1.984818 1_455
Li4 O33 1.984813 1_445
Li4 O32 1.984813 1_555
Li4 O31 1.984818 1_445
Li4 O24 1.984818 1_555
Li5 O28 1.984813 1_445
Li5 O25 1.984813 1_555
Li5 O34 1.984818 1_455
Li5 O29 1.984818 1_545
Li6 O43 1.988721 1_545
Li6 O36 1.988721 1_555
Li6 O5 2.012261 1_545
Li6 O12 2.012261 1_555
Li7 O40 1.988721 1_556
Li7 O37 1.988721 1_556
Li7 O11 2.012261 1_555
Li7 O8 2.012270 1_555
Li8 O38 1.988716 1_555
Li8 O39 1.988716 1_455
Li8 O9 2.012266 1_455
Li8 O10 2.012267 1_555
Li9 O46 1.988721 1_555
Li9 O41 1.988721 1_545
Li9 O7 2.012261 1_545
Li9 O2 2.012262 1_555
Li10 O42 1.988716 1_555
Li10 O19 1.988716 1_555
Li10 O1 2.012266 1_555
Li10 O6 2.012275 1_555
Li11 O44 1.988721 1_554
Li11 O45 1.988721 1_454
Li11 O4 2.012261 1_555
Li11 O3 2.012261 1_455
Al0 O19 1.726343 1_555
Al0 O37 1.726343 1_555
Al0 O32 1.740577 1_555
Al0 O24 1.740583 1_555
Al1 O38 1.726343 1_655
Al1 O45 1.726343 1_555
Al1 O28 1.740577 1_555
Al1 O29 1.740583 1_655
Al2 O39 1.726343 1_455
Al2 O44 1.726343 1_555
Al2 O25 1.740577 1_555
Al2 O34 1.740583 1_455
Al3 O36 1.726343 1_555
Al3 O41 1.726343 1_545
Al3 O26 1.740583 1_545
Al3 O35 1.740583 1_555
Al4 O42 1.726343 1_555
Al4 O40 1.726343 1_555
Al4 O33 1.740577 1_555
Al4 O31 1.740583 1_555
Al5 O43 1.726343 1_555
Al5 O46 1.726343 1_565
Al5 O27 1.740583 1_565
Al5 O30 1.740583 1_555
Al6 O16 1.733818 1_555
Al6 O22 1.733824 1_555
Al6 O6 1.734018 1_555
Al6 O10 1.734025 1_555
Al7 O0 1.733809 1_555
Al7 O14 1.733824 1_555
Al7 O12 1.734016 1_555
Al7 O3 1.734023 1_555
Al8 O13 1.733817 1_555
Al8 O23 1.733818 1_555
Al8 O8 1.734024 1_555
Al8 O2 1.734025 1_555
Al9 O18 1.733817 1_555
Al9 O17 1.733818 1_555
Al9 O7 1.734017 1_555
Al9 O11 1.734023 1_555
Al10 O21 1.733809 1_555
Al10 O47 1.733824 1_555
Al10 O5 1.734016 1_555
Al10 O4 1.734023 1_555
Al11 O15 1.733818 1_555
Al11 O20 1.733824 1_555
Al11 O1 1.734016 1_555
Al11 O9 1.734017 1_555
O0 Si3 1.621225 1_655
O1 Si8 1.616438 1_555
O2 Si7 1.616426 1_555
O3 Si11 1.616418 1_555
O4 Si6 1.616418 1_555
O5 Si9 1.616418 1_555
O6 Si9 1.616431 1_555
O7 Si10 1.616435 1_555
O8 Si11 1.616425 1_556
O9 Si7 1.616441 1_555
O10 Si10 1.616433 1_555
O11 Si6 1.616431 1_556
O12 Si8 1.616418 1_555
O13 Si1 1.621216 1_555
O14 Si5 1.621213 1_545
O15 Si2 1.621212 1_555
O16 Si3 1.621218 1_555
O17 Si5 1.621212 1_556
O18 Si4 1.621210 1_555
O19 Si8 1.617094 1_555
O20 Si4 1.621210 1_555
O21 Si2 1.621218 1_455
O22 Si1 1.621216 1_555
O23 Si0 1.621218 1_556
O24 Si0 1.617339 1_555
O25 Si1 1.617339 1_555
O26 Si2 1.617345 1_455
O27 Si3 1.617339 1_655
O28 Si4 1.617345 1_555
O29 Si0 1.617339 1_566
O30 Si4 1.617345 1_555
O31 Si5 1.617345 1_555
O32 Si3 1.617339 1_555
O33 Si2 1.617345 1_555
O34 Si5 1.617345 1_546
O35 Si1 1.617339 1_555
O36 Si8 1.617086 1_555
O37 Si6 1.617100 1_555
O38 Si10 1.617077 1_555
O39 Si7 1.617077 1_555
O40 Si11 1.617100 1_555
O41 Si10 1.617083 1_555
O42 Si9 1.617094 1_555
O43 Si9 1.617086 1_555
O44 Si6 1.617086 1_556
O45 Si11 1.617086 1_556
O46 Si7 1.617083 1_555
O47 Si0 1.621220 1_565
