# generated using pymatgen
data_NaHCO3
_symmetry_space_group_name_H-M   'P 1'
_cell_length_a   9.78177300
_cell_length_b   3.53871400
_cell_length_c   8.11133194
_cell_angle_alpha   67.80544747
_cell_angle_beta   90.00000000
_cell_angle_gamma   90.00000000
_symmetry_Int_Tables_number   1
_chemical_formula_structural   NaHCO3
_chemical_formula_sum   'Na4 H4 C4 O12'
_cell_volume   259.96947291
_cell_formula_units_Z   4
loop_
 _symmetry_equiv_pos_site_id
 _symmetry_equiv_pos_as_xyz
  1  'x, y, z'
loop_
 _atom_site_type_symbol
 _atom_site_label
 _atom_site_symmetry_multiplicity
 _atom_site_fract_x
 _atom_site_fract_y
 _atom_site_fract_z
 _atom_site_occupancy
  Na  Na0  1  0.50303400  0.57347000  0.21404200  1
  Na  Na1  1  0.00303400  0.42653000  0.28595800  1
  Na  Na2  1  0.49696600  0.42653000  0.78595800  1
  Na  Na3  1  0.99696600  0.57347000  0.71404200  1
  H  H0  1  0.74436600  0.31672600  0.64772500  1
  H  H1  1  0.24436600  0.68327400  0.85227500  1
  H  H2  1  0.25563400  0.68327400  0.35227500  1
  H  H3  1  0.75563400  0.31672600  0.14772500  1
  C  C0  1  0.73918800  0.79105900  0.42213700  1
  C  C1  1  0.23918800  0.20894100  0.07786300  1
  C  C2  1  0.26081200  0.20894100  0.57786300  1
  C  C3  1  0.76081200  0.79105900  0.92213700  1
  O  O0  1  0.86844400  0.81727600  0.42545300  1
  O  O1  1  0.36844400  0.18272400  0.07454700  1
  O  O2  1  0.13155600  0.18272400  0.57454700  1
  O  O3  1  0.63155600  0.81727600  0.92545300  1
  O  O4  1  0.66160300  0.01286600  0.29505700  1
  O  O5  1  0.16160300  0.98713400  0.20494300  1
  O  O6  1  0.33839700  0.98713400  0.70494300  1
  O  O7  1  0.83839700  0.01286600  0.79505700  1
  O  O8  1  0.67392600  0.50500600  0.55984800  1
  O  O9  1  0.17392600  0.49499400  0.94015200  1
  O  O10  1  0.32607400  0.49499400  0.44015200  1
  O  O11  1  0.82607400  0.50500600  0.05984800  1
loop_
_geom_bond_atom_site_label_1
_geom_bond_atom_site_label_2
_geom_bond_distance
_geom_bond_site_symmetry_2
Na0 O4 2.405893 1_555
Na0 O1 2.412202 1_565
Na0 O4 2.455070 1_565
Na0 O10 2.460157 1_555
Na0 O1 2.471338 1_555
Na0 O3 2.505707 1_554
Na1 O5 2.405893 1_555
Na1 O0 2.412202 1_445
Na1 O5 2.455070 1_545
Na1 O11 2.460157 1_455
Na1 O0 2.471338 1_455
Na1 O2 2.505707 1_555
Na2 O6 2.405893 1_555
Na2 O3 2.412202 1_545
Na2 O6 2.455070 1_545
Na2 O8 2.460157 1_555
Na2 O3 2.471338 1_555
Na2 O1 2.505707 1_556
Na3 O7 2.405893 1_555
Na3 O2 2.412202 1_665
Na3 O7 2.455070 1_565
Na3 O9 2.460157 1_655
Na3 O2 2.471338 1_655
Na3 O0 2.505707 1_555
H0 O8 1.033419 1_555
H0 O7 1.568297 1_555
H1 O9 1.033419 1_555
H1 O6 1.568297 1_555
H2 O10 1.033419 1_555
H2 O5 1.568297 1_555
H3 O11 1.033419 1_555
H3 O4 1.568297 1_555
C0 O0 1.268781 1_555
C0 O4 1.281915 1_565
C0 O8 1.351173 1_555
C1 O1 1.268781 1_555
C1 O5 1.281915 1_545
C1 O9 1.351173 1_554
C2 O2 1.268781 1_555
C2 O6 1.281915 1_545
C2 O10 1.351173 1_555
C3 O3 1.268781 1_555
C3 O7 1.281915 1_565
C3 O11 1.351173 1_556
