# generated using pymatgen
data_Ag2CSNClO4
_symmetry_space_group_name_H-M   'P 1'
_cell_length_a   8.06671590
_cell_length_b   8.06671590
_cell_length_c   18.42438550
_cell_angle_alpha   70.92649068
_cell_angle_beta   70.92649068
_cell_angle_gamma   34.70089613
_symmetry_Int_Tables_number   1
_chemical_formula_structural   Ag2CSNClO4
_chemical_formula_sum   'Ag8 C4 S4 N4 Cl4 O16'
_cell_volume   641.28447614
_cell_formula_units_Z   4
loop_
 _symmetry_equiv_pos_site_id
 _symmetry_equiv_pos_as_xyz
  1  'x, y, z'
loop_
 _atom_site_type_symbol
 _atom_site_label
 _atom_site_symmetry_multiplicity
 _atom_site_fract_x
 _atom_site_fract_y
 _atom_site_fract_z
 _atom_site_occupancy
  Ag  Ag0  1  0.85848300  0.40843200  0.86802900  1
  Ag  Ag1  1  0.59156800  0.14151700  0.63197100  1
  Ag  Ag2  1  0.40843200  0.85848300  0.36802900  1
  Ag  Ag3  1  0.14151700  0.59156800  0.13197100  1
  Ag  Ag4  1  0.50000000  0.00000000  0.50000000  1
  Ag  Ag5  1  0.21497000  0.78503000  0.75000000  1
  Ag  Ag6  1  0.78503000  0.21497000  0.25000000  1
  Ag  Ag7  1  0.00000000  0.50000000  0.00000000  1
  C  C0  1  0.78934400  0.26983900  0.06611000  1
  C  C1  1  0.73016100  0.21065600  0.43389000  1
  C  C2  1  0.21065600  0.73016100  0.93389000  1
  C  C3  1  0.26983900  0.78934400  0.56611000  1
  S  S0  1  0.30007600  0.83448700  0.85810600  1
  S  S1  1  0.83448700  0.30007600  0.35810600  1
  S  S2  1  0.16551300  0.69992400  0.64189400  1
  S  S3  1  0.69992400  0.16551300  0.14189400  1
  N  N0  1  0.85172000  0.34431200  0.01158000  1
  N  N1  1  0.34431200  0.85172000  0.51158000  1
  N  N2  1  0.65568800  0.14828000  0.48842000  1
  N  N3  1  0.14828000  0.65568800  0.98842000  1
  Cl  Cl0  1  0.86956100  0.49232500  0.65719500  1
  Cl  Cl1  1  0.50767500  0.13043900  0.84280500  1
  Cl  Cl2  1  0.13043900  0.50767500  0.34280500  1
  Cl  Cl3  1  0.49232500  0.86956100  0.15719500  1
  O  O0  1  0.54927800  0.97280600  0.91895800  1
  O  O1  1  0.33282500  0.83478300  0.17050300  1
  O  O2  1  0.45072200  0.02719400  0.08104200  1
  O  O3  1  0.57510200  0.80948700  0.65970500  1
  O  O4  1  0.42489800  0.19051300  0.34029500  1
  O  O5  1  0.97229300  0.60764100  0.28289900  1
  O  O6  1  0.02770700  0.39235900  0.71710100  1
  O  O7  1  0.83478300  0.33282500  0.67050300  1
  O  O8  1  0.02719400  0.45072200  0.58104200  1
  O  O9  1  0.80948700  0.57510200  0.15970500  1
  O  O10  1  0.60764100  0.97229300  0.78289900  1
  O  O11  1  0.39235900  0.02770700  0.21710100  1
  O  O12  1  0.66717500  0.16521700  0.82949700  1
  O  O13  1  0.16521700  0.66717500  0.32949700  1
  O  O14  1  0.97280600  0.54927800  0.41895800  1
  O  O15  1  0.19051300  0.42489800  0.84029500  1
loop_
_geom_bond_atom_site_label_1
_geom_bond_atom_site_label_2
_geom_bond_distance
_geom_bond_site_symmetry_2
Ag0 N0 2.514697 1_556
Ag0 S0 2.609225 1_555
Ag0 O6 2.660185 1_655
Ag0 O15 2.664332 1_655
Ag0 S0 2.677261 1_645
Ag1 N2 2.514697 1_555
Ag1 S2 2.609225 1_555
Ag1 O10 2.660185 1_545
Ag1 O3 2.664332 1_545
Ag1 S2 2.677261 1_645
Ag2 N1 2.514697 1_555
Ag2 S1 2.609225 1_555
Ag2 O11 2.660185 1_565
Ag2 O4 2.664332 1_565
Ag2 S1 2.677261 1_465
Ag3 N3 2.514697 1_554
Ag3 S3 2.609225 1_555
Ag3 O5 2.660185 1_455
Ag3 O9 2.664332 1_455
Ag3 S3 2.677261 1_465
Ag4 N1 2.276323 1_545
Ag4 N2 2.276323 1_555
Ag4 O8 2.649589 1_555
Ag4 O14 2.649589 1_545
Ag5 S0 2.541866 1_555
Ag5 S2 2.541866 1_555
Ag5 O7 2.738608 1_465
Ag5 O12 2.738608 1_465
Ag6 S1 2.541866 1_555
Ag6 S3 2.541866 1_555
Ag6 O13 2.738608 1_645
Ag6 O1 2.738608 1_645
Ag7 N0 2.276323 1_455
Ag7 N3 2.276323 1_554
Ag7 O0 2.649589 1_454
Ag7 O2 2.649589 1_555
C0 N0 1.181372 1_555
C0 S3 1.658328 1_555
C1 N2 1.181372 1_555
C1 S1 1.658328 1_555
C2 N3 1.181372 1_555
C2 S0 1.658328 1_555
C3 N1 1.181372 1_555
C3 S2 1.658328 1_555
Cl0 O7 1.461727 1_555
Cl0 O8 1.462254 1_655
Cl0 O6 1.463894 1_655
Cl0 O3 1.484262 1_555
Cl1 O12 1.461727 1_555
Cl1 O0 1.462254 1_545
Cl1 O10 1.463894 1_545
Cl1 O15 1.484262 1_555
Cl2 O13 1.461727 1_555
Cl2 O14 1.462254 1_455
Cl2 O5 1.463894 1_455
Cl2 O4 1.484262 1_555
Cl3 O1 1.461727 1_555
Cl3 O2 1.462254 1_565
Cl3 O11 1.463894 1_565
Cl3 O9 1.484262 1_555
