# generated using pymatgen
data_TlHg(AsS2)3
_symmetry_space_group_name_H-M   'P 1'
_cell_length_a   12.29730400
_cell_length_b   6.20343700
_cell_length_c   17.29997240
_cell_angle_alpha   70.30938051
_cell_angle_beta   90.00000000
_cell_angle_gamma   90.00000000
_symmetry_Int_Tables_number   1
_chemical_formula_structural   TlHg(AsS2)3
_chemical_formula_sum   'Tl4 Hg4 As12 S24'
_cell_volume   1242.56719809
_cell_formula_units_Z   4
loop_
 _symmetry_equiv_pos_site_id
 _symmetry_equiv_pos_as_xyz
  1  'x, y, z'
loop_
 _atom_site_type_symbol
 _atom_site_label
 _atom_site_symmetry_multiplicity
 _atom_site_fract_x
 _atom_site_fract_y
 _atom_site_fract_z
 _atom_site_occupancy
  Tl  Tl0  1  0.38459300  0.92764100  0.69749600  1
  Tl  Tl1  1  0.88459300  0.07235900  0.80250400  1
  Tl  Tl2  1  0.61540700  0.07235900  0.30250400  1
  Tl  Tl3  1  0.11540700  0.92764100  0.19749600  1
  Hg  Hg0  1  0.09458200  0.16826700  0.40252600  1
  Hg  Hg1  1  0.40541800  0.16826700  0.90252600  1
  Hg  Hg2  1  0.90541800  0.83173300  0.59747400  1
  Hg  Hg3  1  0.59458200  0.83173300  0.09747400  1
  As  As0  1  0.13176200  0.40699800  0.56726400  1
  As  As1  1  0.82522500  0.31005100  0.08209700  1
  As  As2  1  0.63176200  0.59300200  0.93273600  1
  As  As3  1  0.86823800  0.59300200  0.43273600  1
  As  As4  1  0.36823800  0.40699800  0.06726400  1
  As  As5  1  0.37157500  0.56066700  0.24461100  1
  As  As6  1  0.87157500  0.43933300  0.25538900  1
  As  As7  1  0.62842500  0.43933300  0.75538900  1
  As  As8  1  0.12842500  0.56066700  0.74461100  1
  As  As9  1  0.32522500  0.68994900  0.41790300  1
  As  As10  1  0.67477500  0.31005100  0.58209700  1
  As  As11  1  0.17477500  0.68994900  0.91790300  1
  S  S0  1  0.86059200  0.63870800  0.11873900  1
  S  S1  1  0.05350400  0.37013100  0.25748900  1
  S  S2  1  0.55350400  0.62986900  0.24251100  1
  S  S3  1  0.94649600  0.62986900  0.74251100  1
  S  S4  1  0.44649600  0.37013100  0.75748900  1
  S  S5  1  0.35966900  0.23121600  0.21022800  1
  S  S6  1  0.85966900  0.76878400  0.28977200  1
  S  S7  1  0.64033100  0.76878400  0.78977200  1
  S  S8  1  0.14033100  0.23121600  0.71022800  1
  S  S9  1  0.18514900  0.49883100  0.05673800  1
  S  S10  1  0.68514900  0.50116900  0.44326200  1
  S  S11  1  0.81485100  0.50116900  0.94326200  1
  S  S12  1  0.31485100  0.49883100  0.55673800  1
  S  S13  1  0.36370000  0.06247800  0.04908100  1
  S  S14  1  0.86370000  0.93752200  0.45091900  1
  S  S15  1  0.63630000  0.93752200  0.95091900  1
  S  S16  1  0.34908500  0.74379200  0.88426700  1
  S  S17  1  0.84908500  0.25620800  0.61573300  1
  S  S18  1  0.65091500  0.25620800  0.11573300  1
  S  S19  1  0.15091500  0.74379200  0.38426700  1
  S  S20  1  0.13940800  0.36129200  0.88126100  1
  S  S21  1  0.63940800  0.63870800  0.61873900  1
  S  S22  1  0.36059200  0.36129200  0.38126100  1
  S  S23  1  0.13630000  0.06247800  0.54908100  1
loop_
_geom_bond_atom_site_label_1
_geom_bond_atom_site_label_2
_geom_bond_distance
_geom_bond_site_symmetry_2
Hg0 S23 2.449663 1_555
Hg0 S1 2.449834 1_555
Hg0 S19 2.841471 1_545
Hg1 S13 2.449663 1_556
Hg1 S4 2.449834 1_555
Hg1 S16 2.841471 1_545
Hg2 S14 2.449663 1_555
Hg2 S3 2.449834 1_555
Hg2 S17 2.841471 1_565
Hg3 S15 2.449663 1_554
Hg3 S2 2.449834 1_555
Hg3 S18 2.841471 1_565
As0 S23 2.263354 1_555
As0 S12 2.314529 1_555
As0 S8 2.345169 1_555
As1 S18 2.216748 1_555
As1 S11 2.296039 1_554
As1 S0 2.370367 1_555
As2 S15 2.263354 1_555
As2 S11 2.314529 1_555
As2 S7 2.345169 1_555
As3 S14 2.263354 1_555
As3 S10 2.314529 1_555
As3 S6 2.345169 1_555
As4 S13 2.263354 1_555
As4 S9 2.314529 1_555
As4 S5 2.345169 1_555
As5 S22 2.272947 1_555
As5 S2 2.276033 1_555
As5 S5 2.317605 1_555
As6 S0 2.272947 1_555
As6 S1 2.276033 1_655
As6 S6 2.317605 1_555
As7 S21 2.272947 1_555
As7 S4 2.276033 1_555
As7 S7 2.317605 1_555
As8 S20 2.272947 1_555
As8 S3 2.276033 1_455
As8 S8 2.317605 1_555
As9 S19 2.216748 1_555
As9 S12 2.296039 1_555
As9 S22 2.370367 1_555
As10 S17 2.216748 1_555
As10 S10 2.296039 1_555
As10 S21 2.370367 1_555
As11 S16 2.216748 1_555
As11 S9 2.296039 1_556
As11 S20 2.370367 1_555
S16 Tl0 3.073808 1_555
S17 Tl1 3.073808 1_555
S18 Tl2 3.073808 1_555
S19 Tl3 3.073808 1_555
