# generated using pymatgen
data_Ba(H8O5)2
_symmetry_space_group_name_H-M   'P 1'
_cell_length_a   6.44083900
_cell_length_b   6.46244501
_cell_length_c   11.93314636
_cell_angle_alpha   91.61648362
_cell_angle_beta   90.60817084
_cell_angle_gamma   91.62689177
_symmetry_Int_Tables_number   1
_chemical_formula_structural   Ba(H8O5)2
_chemical_formula_sum   'Ba2 H32 O20'
_cell_volume   496.26993185
_cell_formula_units_Z   2
loop_
 _symmetry_equiv_pos_site_id
 _symmetry_equiv_pos_as_xyz
  1  'x, y, z'
loop_
 _atom_site_type_symbol
 _atom_site_label
 _atom_site_symmetry_multiplicity
 _atom_site_fract_x
 _atom_site_fract_y
 _atom_site_fract_z
 _atom_site_occupancy
  Ba  Ba0  1  0.99797500  0.01213800  0.49220100  1
  Ba  Ba1  1  0.01221600  0.99249900  0.99395500  1
  H  H0  1  0.59756200  0.27721000  0.39526900  1
  H  H1  1  0.53848500  0.04131600  0.36587400  1
  H  H2  1  0.27329800  0.78192200  0.29404200  1
  H  H3  1  0.39900700  0.71246100  0.40198900  1
  H  H4  1  0.71164700  0.60776800  0.40180100  1
  H  H5  1  0.80644300  0.71284500  0.29185000  1
  H  H6  1  0.26834300  0.40349000  0.39777800  1
  H  H7  1  0.03709500  0.46708200  0.37115300  1
  H  H8  1  0.71318600  0.80620000  0.79130000  1
  H  H9  1  0.60759000  0.70841100  0.90048400  1
  H  H10  1  0.40280000  0.26663000  0.89465900  1
  H  H11  1  0.46550100  0.03517100  0.87010200  1
  H  H12  1  0.80516400  0.26602500  0.79855500  1
  H  H13  1  0.72425300  0.39350800  0.90450500  1
  H  H14  1  0.28551200  0.59665700  0.89492700  1
  H  H15  1  0.05077500  0.53431600  0.86738300  1
  H  H16  1  0.40194200  0.72911100  0.60818800  1
  H  H17  1  0.31549800  0.88144200  0.70502800  1
  H  H18  1  0.61005500  0.29185000  0.60590400  1
  H  H19  1  0.56558200  0.05736100  0.63192500  1
  H  H20  1  0.07250500  0.38600800  0.68342500  1
  H  H21  1  0.28411600  0.40142300  0.61257400  1
  H  H22  1  0.95204200  0.64408200  0.66356300  1
  H  H23  1  0.71397500  0.62319100  0.61429900  1
  H  H24  1  0.37783100  0.07746200  0.18383600  1
  H  H25  1  0.40226400  0.28260300  0.10991100  1
  H  H26  1  0.63644500  0.94853300  0.16624300  1
  H  H27  1  0.62214300  0.71338100  0.11200800  1
  H  H28  1  0.06029800  0.56700900  0.13535100  1
  H  H29  1  0.29604200  0.60901400  0.10715400  1
  H  H30  1  0.72968000  0.40415100  0.10856800  1
  H  H31  1  0.87285300  0.31956200  0.20728900  1
  O  O0  1  0.50448000  0.51081800  0.44552900  1
  O  O1  1  0.51909000  0.49770500  0.94389800  1
  O  O2  1  0.50578600  0.51478500  0.57088900  1
  O  O3  1  0.51651400  0.50332000  0.06919000  1
  O  O4  1  0.65408500  0.14497000  0.36238200  1
  O  O5  1  0.33258000  0.83823800  0.36536700  1
  O  O6  1  0.84627300  0.66773300  0.36738300  1
  O  O7  1  0.12822000  0.34637000  0.37275200  1
  O  O8  1  0.66552800  0.84406800  0.86736200  1
  O  O9  1  0.34490700  0.12657700  0.86960400  1
  O  O10  1  0.85555600  0.32773200  0.87100900  1
  O  O11  1  0.15262500  0.65155000  0.86373800  1
  O  O12  1  0.34044000  0.87145400  0.62492300  1
  O  O13  1  0.68024200  0.16309600  0.63142500  1
  O  O14  1  0.15406900  0.31545800  0.62730100  1
  O  O15  1  0.82837500  0.72273800  0.64798800  1
  O  O16  1  0.31468700  0.15399800  0.12462800  1
  O  O17  1  0.71937500  0.82857100  0.14639800  1
  O  O18  1  0.16786400  0.68024900  0.13549000  1
  O  O19  1  0.87194400  0.34539900  0.12756400  1
loop_
_geom_bond_atom_site_label_1
_geom_bond_atom_site_label_2
_geom_bond_distance
_geom_bond_site_symmetry_2
Ba0 O14 2.669758 1_655
Ba0 O7 2.738086 1_655
Ba0 O6 2.790259 1_545
Ba0 O13 2.827370 1_555
Ba0 O4 2.855320 1_555
Ba0 O15 2.875810 1_545
Ba0 O5 2.882561 1_645
Ba0 O12 2.884667 1_645
Ba1 O16 2.654129 1_566
Ba1 O9 2.752994 1_565
Ba1 O8 2.813063 1_455
Ba1 O11 2.834974 1_555
Ba1 O17 2.838508 1_456
Ba1 O10 2.852371 1_465
Ba1 O18 2.863688 1_556
Ba1 O19 2.915792 1_466
H0 O4 1.009286 1_555
H0 O0 1.733844 1_555
H1 O4 0.989308 1_555
H2 O5 0.985090 1_555
H3 O5 1.034669 1_555
H3 O0 1.584458 1_555
H4 O6 1.033532 1_555
H4 O0 1.559174 1_555
H5 O6 0.988632 1_555
H6 O7 1.004546 1_555
H6 O0 1.737349 1_555
H7 O7 0.989944 1_555
H8 O8 0.987727 1_555
H9 O8 1.033510 1_555
H9 O1 1.565077 1_555
H10 O9 1.005392 1_555
H11 O9 0.989154 1_555
H12 O10 0.989520 1_555
H13 O10 1.036181 1_555
H13 O1 1.570481 1_555
H14 O11 1.007403 1_555
H15 O11 0.990180 1_555
H16 O12 1.027126 1_555
H16 O2 1.608732 1_555
H17 O12 0.971646 1_555
H18 O13 1.011027 1_555
H18 O2 1.668588 1_555
H19 O13 0.991971 1_555
H20 O14 0.967594 1_555
H21 O14 1.011592 1_555
H21 O2 1.672969 1_555
H22 O15 0.975983 1_555
H23 O15 1.034698 1_555
H23 O2 1.571185 1_555
H24 O16 0.966580 1_555
H25 O16 1.011665 1_555
H25 O3 1.673098 1_555
H26 O17 0.978894 1_555
H27 O17 1.032275 1_555
H27 O3 1.570926 1_555
H28 O18 0.993306 1_555
H29 O18 1.013192 1_555
H29 O3 1.655151 1_555
H30 O19 1.027302 1_555
H30 O3 1.603068 1_555
H31 O19 0.970524 1_555
O0 O2 1.495366 1_555
O1 O3 1.494824 1_556
