# generated using pymatgen
data_V2Cu3Pb(ClO4)2
_symmetry_space_group_name_H-M   'P 1'
_cell_length_a   8.83687720
_cell_length_b   8.83687720
_cell_length_c   8.83687720
_cell_angle_alpha   113.35014710
_cell_angle_beta   109.71169009
_cell_angle_gamma   105.44798527
_symmetry_Int_Tables_number   1
_chemical_formula_structural   V2Cu3Pb(ClO4)2
_chemical_formula_sum   'V4 Cu6 Pb2 Cl4 O16'
_cell_volume   528.69774486
_cell_formula_units_Z   2
loop_
 _symmetry_equiv_pos_site_id
 _symmetry_equiv_pos_as_xyz
  1  'x, y, z'
loop_
 _atom_site_type_symbol
 _atom_site_label
 _atom_site_symmetry_multiplicity
 _atom_site_fract_x
 _atom_site_fract_y
 _atom_site_fract_z
 _atom_site_occupancy
  V  V0  1  0.81243200  0.06243200  0.25000000  1
  V  V1  1  0.81243200  0.56243200  0.75000000  1
  V  V2  1  0.18756800  0.93756800  0.75000000  1
  V  V3  1  0.18756800  0.43756800  0.25000000  1
  Cu  Cu0  1  0.00000000  0.00000000  0.00000000  1
  Cu  Cu1  1  0.44372900  0.74335000  0.70037900  1
  Cu  Cu2  1  0.55627100  0.25665000  0.29962100  1
  Cu  Cu3  1  0.95702900  0.75665000  0.20037900  1
  Cu  Cu4  1  0.00000000  0.50000000  0.50000000  1
  Cu  Cu5  1  0.04297100  0.24335000  0.79962100  1
  Pb  Pb0  1  0.50000000  0.75000000  0.25000000  1
  Pb  Pb1  1  0.50000000  0.25000000  0.75000000  1
  Cl  Cl0  1  0.74294000  0.08168900  0.66125100  1
  Cl  Cl1  1  0.42043800  0.58168900  0.83874900  1
  Cl  Cl2  1  0.25706000  0.91831100  0.33874900  1
  Cl  Cl3  1  0.57956200  0.41831100  0.16125100  1
  O  O0  1  0.39596100  0.62452000  0.44498400  1
  O  O1  1  0.81809100  0.03786900  0.04571100  1
  O  O2  1  0.81809100  0.77237900  0.78022100  1
  O  O3  1  0.60403900  0.37548000  0.55501600  1
  O  O4  1  0.17953600  0.45097700  0.05501600  1
  O  O5  1  0.18190900  0.96213100  0.95428900  1
  O  O6  1  0.60403900  0.04902300  0.22855900  1
  O  O7  1  0.99215800  0.53786900  0.71977900  1
  O  O8  1  0.17953600  0.12452000  0.72855900  1
  O  O9  1  0.00784200  0.72762100  0.54571100  1
  O  O10  1  0.82046400  0.54902300  0.94498400  1
  O  O11  1  0.82046400  0.87548000  0.27144100  1
  O  O12  1  0.99215800  0.27237900  0.45428900  1
  O  O13  1  0.39596100  0.95097700  0.77144100  1
  O  O14  1  0.18190900  0.22762100  0.21977900  1
  O  O15  1  0.00784200  0.46213100  0.28022100  1
loop_
_geom_bond_atom_site_label_1
_geom_bond_atom_site_label_2
_geom_bond_distance
_geom_bond_site_symmetry_2
Cu0 O1 1.864588 1_455
Cu0 O5 1.864588 1_544
Cu0 O2 1.864594 1_444
Cu0 O14 1.864594 1_555
Cu1 O0 1.901842 1_555
Cu1 O13 1.901842 1_555
Cu2 O3 1.901842 1_555
Cu2 O6 1.901842 1_555
Cu3 O10 1.901842 1_554
Cu3 O11 1.901842 1_555
Cu4 O7 1.864596 1_455
Cu4 O9 1.864596 1_555
Cu4 O12 1.864596 1_455
Cu4 O15 1.864596 1_555
Cu5 O4 1.901842 1_556
Cu5 O8 1.901842 1_555
Cl0 Cu5 2.230731 1_655
Cl0 Pb0 3.057498 1_545
Cl0 Pb1 3.057498 1_555
Cl1 Cu1 2.230731 1_555
Cl1 Pb0 3.057498 1_556
Cl1 Pb1 3.057498 1_555
Cl2 Cu3 2.230731 1_455
Cl2 Pb0 3.057498 1_555
Cl2 Pb1 3.057498 1_565
Cl3 Cu2 2.230731 1_555
Cl3 Pb1 3.057498 1_554
Cl3 Pb0 3.057498 1_555
O0 V3 1.752657 1_555
O0 Pb0 2.661536 1_555
O1 V0 1.750629 1_555
O2 V1 1.750622 1_555
O3 V1 1.752657 1_555
O3 Pb1 2.661536 1_555
O4 V3 1.752657 1_555
O4 Pb0 2.661536 1_555
O5 V2 1.750629 1_555
O6 V0 1.752657 1_555
O6 Pb0 2.661536 1_545
O7 V1 1.750625 1_555
O8 V2 1.752657 1_545
O8 Pb1 2.661536 1_555
O9 V2 1.750625 1_555
O10 V1 1.752657 1_555
O10 Pb1 2.661536 1_555
O11 V0 1.752657 1_565
O11 Pb0 2.661536 1_555
O12 V0 1.750625 1_555
O13 V2 1.752657 1_555
O13 Pb1 2.661536 1_565
O14 V3 1.750622 1_555
O15 V3 1.750625 1_555
