# generated using pymatgen
data_Rb2YTi(PO4)3
_symmetry_space_group_name_H-M   'P 1'
_cell_length_a   10.36034500
_cell_length_b   10.38056600
_cell_length_c   20.68283305
_cell_angle_alpha   89.91082969
_cell_angle_beta   90.00000000
_cell_angle_gamma   90.00000000
_symmetry_Int_Tables_number   1
_chemical_formula_structural   Rb2YTi(PO4)3
_chemical_formula_sum   'Rb16 Y8 Ti8 P24 O96'
_cell_volume   2224.35833760
_cell_formula_units_Z   8
loop_
 _symmetry_equiv_pos_site_id
 _symmetry_equiv_pos_as_xyz
  1  'x, y, z'
loop_
 _atom_site_type_symbol
 _atom_site_label
 _atom_site_symmetry_multiplicity
 _atom_site_fract_x
 _atom_site_fract_y
 _atom_site_fract_z
 _atom_site_occupancy
  Rb  Rb0  1  0.93426300  0.67639700  0.71368600  1
  Rb  Rb1  1  0.92937700  0.67816400  0.21585600  1
  Rb  Rb2  1  0.79236100  0.04189200  0.85311000  1
  Rb  Rb3  1  0.79506400  0.04005200  0.35297300  1
  Rb  Rb4  1  0.71046700  0.45351900  0.60256500  1
  Rb  Rb5  1  0.70721500  0.45783700  0.10283000  1
  Rb  Rb6  1  0.57099500  0.82098300  0.96418200  1
  Rb  Rb7  1  0.57063600  0.81823800  0.46555900  1
  Rb  Rb8  1  0.43426300  0.32360300  0.28631400  1
  Rb  Rb9  1  0.42937700  0.32183600  0.78414400  1
  Rb  Rb10  1  0.29506400  0.95994800  0.64702700  1
  Rb  Rb11  1  0.29236100  0.95810800  0.14689000  1
  Rb  Rb12  1  0.20721500  0.54216300  0.89717000  1
  Rb  Rb13  1  0.21046700  0.54648100  0.39743500  1
  Rb  Rb14  1  0.07063600  0.18176200  0.53444100  1
  Rb  Rb15  1  0.07099500  0.17901700  0.03581800  1
  Y  Y0  1  0.91587600  0.83305200  0.04214900  1
  Y  Y1  1  0.85239600  0.39026100  0.42309700  1
  Y  Y2  1  0.58596200  0.66757000  0.78982000  1
  Y  Y3  1  0.58476900  0.66720500  0.29489800  1
  Y  Y4  1  0.41587600  0.16694800  0.95785100  1
  Y  Y5  1  0.35239600  0.60973900  0.57690300  1
  Y  Y6  1  0.08476900  0.33279500  0.70510200  1
  Y  Y7  1  0.08596200  0.33243000  0.21018000  1
  Ti  Ti0  1  0.91804600  0.83550700  0.54207700  1
  Ti  Ti1  1  0.85557500  0.39479800  0.92796200  1
  Ti  Ti2  1  0.64564400  0.10138600  0.67961600  1
  Ti  Ti3  1  0.64311200  0.10724400  0.17528500  1
  Ti  Ti4  1  0.41804600  0.16449300  0.45792300  1
  Ti  Ti5  1  0.35557500  0.60520200  0.07203800  1
  Ti  Ti6  1  0.14564400  0.89861400  0.32038400  1
  Ti  Ti7  1  0.14311200  0.89275600  0.82471500  1
  P  P0  1  0.95570000  0.00663700  0.68705100  1
  P  P1  1  0.95328200  0.01267900  0.19164400  1
  P  P2  1  0.88989400  0.72035000  0.38583600  1
  P  P3  1  0.88262700  0.70449500  0.88114100  1
  P  P4  1  0.76232500  0.36443800  0.77292700  1
  P  P5  1  0.75646400  0.36409300  0.26544800  1
  P  P6  1  0.72708900  0.11715100  0.52402900  1
  P  P7  1  0.73916900  0.13397200  0.02166600  1
  P  P8  1  0.63910100  0.79948700  0.63030000  1
  P  P9  1  0.61413300  0.79478900  0.13192700  1
  P  P10  1  0.54619200  0.48971500  0.94153000  1
  P  P11  1  0.53247300  0.47225100  0.43992200  1
  P  P12  1  0.45328200  0.98732100  0.80835600  1
  P  P13  1  0.45570000  0.99336300  0.31294900  1
  P  P14  1  0.38989400  0.27965000  0.61416400  1
  P  P15  1  0.38262700  0.29550500  0.11885900  1
  P  P16  1  0.25646400  0.63590700  0.73455200  1
  P  P17  1  0.26232500  0.63556200  0.22707300  1
  P  P18  1  0.23916900  0.86602800  0.97833400  1
  P  P19  1  0.22708900  0.88284900  0.47597100  1
  P  P20  1  0.13910100  0.20051300  0.36970000  1
  P  P21  1  0.11413300  0.20521100  0.86807300  1
  P  P22  1  0.03247300  0.52774900  0.56007800  1
  P  P23  1  0.04619200  0.51028500  0.05847000  1
  O  O0  1  0.99332400  0.64379100  0.07461100  1
  O  O1  1  0.99287600  0.67442000  0.56717600  1
  O  O2  1  0.99447800  0.80558800  0.35273700  1
  O  O3  1  0.00090200  0.78167300  0.85385100  1
  O  O4  1  0.97167700  0.91965100  0.62551100  1
  O  O5  1  0.97996800  0.91998500  0.13558200  1
  O  O6  1  0.97400900  0.45475300  0.99779500  1
  O  O7  1  0.94593100  0.46218800  0.51045900  1
  O  O8  1  0.93016700  0.57871000  0.38138300  1
  O  O9  1  0.91510500  0.55679700  0.88310500  1
  O  O10  1  0.89721000  0.39241200  0.74706000  1
  O  O11  1  0.89593800  0.39534600  0.24665300  1
  O  O12  1  0.87325000  0.76548600  0.45752500  1
  O  O13  1  0.84979400  0.75519300  0.94827600  1
  O  O14  1  0.80730100  0.99066400  0.51512900  1
  O  O15  1  0.83198100  0.02189400  0.00882300  1
  O  O16  1  0.81015500  0.01402000  0.70714900  1
  O  O17  1  0.80504900  0.01658100  0.20702000  1
  O  O18  1  0.79558600  0.22357000  0.48656000  1
  O  O19  1  0.79520700  0.25573100  0.98655200  1
  O  O20  1  0.76597000  0.33620400  0.84761500  1
  O  O21  1  0.74775500  0.31501400  0.33555000  1
  O  O22  1  0.77072600  0.72963000  0.83442300  1
  O  O23  1  0.76113200  0.74324700  0.34995300  1
  O  O24  1  0.76002300  0.77971500  0.58597600  1
  O  O25  1  0.72671200  0.77047300  0.08533400  1
  O  O26  1  0.72626900  0.15822500  0.59718200  1
  O  O27  1  0.73371600  0.16292200  0.09601800  1
  O  O28  1  0.70363900  0.24449500  0.73684700  1
  O  O29  1  0.70432900  0.25421300  0.22049600  1
  O  O30  1  0.69469500  0.48368100  0.95733400  1
  O  O31  1  0.67399600  0.48121200  0.46066100  1
  O  O32  1  0.67121100  0.47807200  0.75952800  1
  O  O33  1  0.67087200  0.48307500  0.25419700  1
  O  O34  1  0.66897700  0.74545000  0.69718000  1
  O  O35  1  0.64722600  0.74374300  0.19938400  1
  O  O36  1  0.60506200  0.10200900  0.99597400  1
  O  O37  1  0.58783700  0.09491900  0.49647000  1
  O  O38  1  0.59866400  0.94388600  0.63387300  1
  O  O39  1  0.58243500  0.94307100  0.13527800  1
  O  O40  1  0.52802300  0.04188600  0.74838900  1
  O  O41  1  0.53287100  0.05680200  0.25638100  1
  O  O42  1  0.52204300  0.58225900  0.88486800  1
  O  O43  1  0.51050200  0.53966800  0.37443500  1
  O  O44  1  0.49412900  0.72301100  0.10308200  1
  O  O45  1  0.52709700  0.72723900  0.59812400  1
  O  O46  1  0.50607400  0.85343100  0.82428200  1
  O  O47  1  0.50790100  0.85925200  0.32930000  1
  O  O48  1  0.49332400  0.35620900  0.92538900  1
  O  O49  1  0.49287600  0.32558000  0.43282400  1
  O  O50  1  0.49447800  0.19441200  0.64726300  1
  O  O51  1  0.50090200  0.21832700  0.14614900  1
  O  O52  1  0.47996800  0.08001500  0.86441800  1
  O  O53  1  0.47167700  0.08034900  0.37448900  1
  O  O54  1  0.47400900  0.54524700  0.00220500  1
  O  O55  1  0.44593100  0.53781200  0.48954100  1
  O  O56  1  0.43016700  0.42129000  0.61861700  1
  O  O57  1  0.41510500  0.44320300  0.11689500  1
  O  O58  1  0.39593800  0.60465400  0.75334700  1
  O  O59  1  0.39721000  0.60758800  0.25294000  1
  O  O60  1  0.37325000  0.23451400  0.54247500  1
  O  O61  1  0.34979400  0.24480700  0.05172400  1
  O  O62  1  0.33198100  0.97810600  0.99117700  1
  O  O63  1  0.30730100  0.00933600  0.48487100  1
  O  O64  1  0.30504900  0.98341900  0.79298000  1
  O  O65  1  0.31015500  0.98598000  0.29285100  1
  O  O66  1  0.29520700  0.74426900  0.01344800  1
  O  O67  1  0.29558600  0.77643000  0.51344000  1
  O  O68  1  0.24775500  0.68498600  0.66445000  1
  O  O69  1  0.26597000  0.66379600  0.15238500  1
  O  O70  1  0.26113200  0.25675300  0.65004700  1
  O  O71  1  0.27072600  0.27037000  0.16557700  1
  O  O72  1  0.26002300  0.22028500  0.41402400  1
  O  O73  1  0.22671200  0.22952700  0.91466600  1
  O  O74  1  0.22626900  0.84177500  0.40281800  1
  O  O75  1  0.23371600  0.83707800  0.90398200  1
  O  O76  1  0.20432900  0.74578700  0.77950400  1
  O  O77  1  0.20363900  0.75550500  0.26315300  1
  O  O78  1  0.17399600  0.51878800  0.53933900  1
  O  O79  1  0.19469500  0.51631900  0.04266600  1
  O  O80  1  0.17087200  0.51692500  0.74580300  1
  O  O81  1  0.17121100  0.52192800  0.24047200  1
  O  O82  1  0.16897700  0.25455000  0.30282000  1
  O  O83  1  0.14722600  0.25625700  0.80061600  1
  O  O84  1  0.08783700  0.90508100  0.50353000  1
  O  O85  1  0.10506200  0.89799100  0.00402600  1
  O  O86  1  0.09866400  0.05611400  0.36612700  1
  O  O87  1  0.08243500  0.05692900  0.86472200  1
  O  O88  1  0.03287100  0.94319800  0.74361900  1
  O  O89  1  0.02802300  0.95811400  0.25161100  1
  O  O90  1  0.01050200  0.46033200  0.62556500  1
  O  O91  1  0.02204300  0.41774100  0.11513200  1
  O  O92  1  0.02709700  0.27276100  0.40187600  1
  O  O93  1  0.99412900  0.27698900  0.89691800  1
  O  O94  1  0.00790100  0.14074800  0.67070000  1
  O  O95  1  0.00607400  0.14656900  0.17571800  1
loop_
_geom_bond_atom_site_label_1
_geom_bond_atom_site_label_2
_geom_bond_distance
_geom_bond_site_symmetry_2
O0 P23 1.527589 1_655
O0 Y0 2.224928 1_555
O0 Rb1 3.017242 1_555
O1 P22 1.583867 1_655
O1 Ti0 1.914154 1_555
O1 Rb0 3.090588 1_555
O2 P2 1.556823 1_555
O2 Ti6 1.957301 1_655
O2 Rb3 3.192511 1_565
O2 Rb1 3.198631 1_555
O3 P3 1.568615 1_455
O3 Ti7 1.965038 1_555
O3 Rb0 3.175695 1_455
O3 Rb12 3.397947 1_555
O4 P0 1.570476 1_565
O4 Ti0 2.013512 1_555
O4 Rb0 3.136564 1_555
O4 Rb10 3.405698 1_655
O4 Rb14 3.462104 1_665
O5 P1 1.533056 1_565
O5 Y0 2.234971 1_555
O5 Rb1 3.052806 1_555
O5 Rb11 3.269025 1_655
O6 P23 1.571199 1_656
O6 Ti1 1.995455 1_555
O6 Rb15 3.132704 1_656
O6 Rb12 3.314571 1_655
O7 P22 1.523958 1_655
O7 Y1 2.183027 1_555
O7 Rb4 3.096408 1_555
O7 Rb14 3.222511 1_655
O8 P2 1.531270 1_555
O8 Y1 2.283651 1_555
O8 Rb13 2.941947 1_655
O9 P3 1.570142 1_555
O9 Ti1 2.015986 1_555
O9 Rb12 3.044080 1_655
O10 P4 1.524122 1_555
O10 Y6 2.216683 1_655
O10 Rb0 3.050863 1_555
O11 P5 1.531011 1_555
O11 Y7 2.207483 1_655
O11 Rb1 3.023064 1_555
O12 P2 1.565221 1_555
O12 Ti0 1.950867 1_555
O12 Rb7 3.187027 1_555
O13 P3 1.524138 1_555
O13 Y0 2.212799 1_556
O13 Rb6 2.986385 1_555
O14 P6 1.565000 1_565
O14 Ti0 2.053868 1_555
O14 Rb7 3.205071 1_555
O14 Rb3 3.394383 1_565
O14 Rb14 3.397116 1_665
O15 P7 1.532874 1_555
O15 Y0 2.251465 1_545
O15 Rb15 3.017734 1_655
O15 Rb2 3.252949 1_554
O16 P0 1.566051 1_555
O16 Ti2 2.012488 1_555
O16 Rb2 3.038765 1_555
O17 P1 1.568863 1_555
O17 Ti3 2.032089 1_555
O17 Rb3 3.030682 1_555
O18 P6 1.523762 1_555
O18 Y1 2.248633 1_555
O18 Rb14 3.047626 1_655
O18 Rb3 3.358489 1_555
O19 P7 1.568174 1_556
O19 Ti1 1.984480 1_555
O19 Rb15 3.135894 1_656
O19 Rb5 3.321459 1_556
O20 P4 1.572322 1_555
O20 Ti1 1.999126 1_555
O20 Rb2 3.069264 1_555
O21 P5 1.538711 1_555
O21 Y1 2.251343 1_555
O21 Rb3 2.917824 1_555
O21 Rb8 3.404914 1_555
O22 P3 1.531341 1_555
O22 Y2 2.220841 1_555
O22 Rb0 3.068587 1_555
O22 Rb2 3.272700 1_565
O23 P2 1.544783 1_555
O23 Y3 2.293709 1_555
O23 Rb3 3.101721 1_565
O23 Rb7 3.197508 1_555
O23 Rb1 3.345581 1_555
O24 P8 1.566086 1_555
O24 Ti0 1.959209 1_555
O24 Rb7 3.195249 1_555
O24 Rb0 3.373004 1_555
O24 Rb4 3.441420 1_555
O25 P9 1.534122 1_555
O25 Y0 2.249177 1_555
O25 Rb6 3.025288 1_554
O25 Rb5 3.271134 1_555
O26 P6 1.572602 1_555
O26 Ti2 1.987371 1_555
O26 Rb4 3.071879 1_555
O27 P7 1.568375 1_555
O27 Ti3 1.974863 1_555
O27 Rb5 3.077117 1_555
O28 P4 1.574690 1_555
O28 Ti2 1.993615 1_555
O28 Rb9 3.110913 1_555
O29 P5 1.568586 1_555
O29 Ti3 1.899633 1_555
O29 Rb8 3.194325 1_555
O29 Rb5 3.221099 1_555
O30 P10 1.574108 1_555
O30 Ti1 2.000055 1_555
O30 Rb5 3.023572 1_556
O31 P11 1.530552 1_555
O31 Y1 2.216626 1_555
O31 Rb4 2.972688 1_555
O32 P4 1.535672 1_555
O32 Y2 2.246307 1_555
O32 Rb9 3.027273 1_555
O32 Rb4 3.282121 1_555
O32 Rb0 3.543806 1_555
O33 P5 1.537881 1_555
O33 Y3 2.272173 1_555
O33 Rb8 3.031062 1_555
O33 Rb5 3.164527 1_555
O33 Rb1 3.449316 1_555
O34 P8 1.523637 1_555
O34 Y2 2.249386 1_555
O34 Rb0 2.860700 1_555
O35 P9 1.530561 1_555
O35 Y3 2.224335 1_555
O35 Rb1 3.020555 1_555
O36 P7 1.524278 1_556
O36 Y4 2.217252 1_555
O36 Rb6 3.012145 1_545
O37 P6 1.568422 1_555
O37 Ti4 2.061514 1_555
O37 Rb7 2.948763 1_545
O38 P8 1.558252 1_555
O38 Ti2 1.951881 1_565
O38 Rb10 3.161567 1_555
O39 P9 1.575525 1_555
O39 Ti3 1.997144 1_565
O39 Rb11 3.018906 1_555
O40 P12 1.567341 1_545
O40 Ti2 1.971548 1_555
O40 Rb9 3.169090 1_555
O40 Rb10 3.308969 1_545
O41 P13 1.561847 1_545
O41 Ti3 2.095049 1_555
O41 Rb8 3.017067 1_555
O41 Rb3 3.376274 1_555
O42 P10 1.534724 1_555
O42 Y2 2.254325 1_555
O42 Rb6 3.016924 1_555
O42 Rb12 3.297955 1_555
O43 P11 1.540511 1_555
O43 Y3 2.245922 1_555
O43 Rb8 2.998157 1_555
O43 Rb13 3.145467 1_555
O43 Rb7 3.509874 1_555
O44 P9 1.567875 1_555
O44 Ti5 1.992691 1_555
O44 Rb6 3.148433 1_554
O45 P8 1.534087 1_555
O45 Y5 2.226653 1_555
O45 Rb7 2.933478 1_555
O45 Rb4 3.419086 1_555
O46 P12 1.529025 1_555
O46 Y2 2.218044 1_555
O46 Rb6 2.989201 1_555
O47 P13 1.530839 1_555
O47 Y3 2.262560 1_555
O47 Rb7 2.922729 1_555
O48 P10 1.527589 1_555
O48 Y4 2.224928 1_555
O48 Rb9 3.017242 1_555
O49 P11 1.583867 1_555
O49 Ti4 1.914154 1_555
O49 Rb8 3.090588 1_555
O50 P14 1.556823 1_555
O50 Ti2 1.957301 1_555
O50 Rb10 3.192511 1_545
O50 Rb9 3.198631 1_555
O51 P15 1.568615 1_555
O51 Ti3 1.965038 1_555
O51 Rb8 3.175695 1_555
O51 Rb5 3.397947 1_555
O52 P12 1.533056 1_545
O52 Y4 2.234971 1_555
O52 Rb9 3.052806 1_555
O52 Rb2 3.269025 1_555
O53 P13 1.570476 1_545
O53 Ti4 2.013512 1_555
O53 Rb8 3.136564 1_555
O53 Rb3 3.405698 1_555
O53 Rb7 3.462104 1_545
O54 P10 1.571199 1_554
O54 Ti5 1.995455 1_555
O54 Rb6 3.132704 1_554
O54 Rb5 3.314571 1_555
O55 P11 1.523958 1_555
O55 Y5 2.183027 1_555
O55 Rb13 3.096408 1_555
O55 Rb7 3.222511 1_555
O56 P14 1.531270 1_555
O56 Y5 2.283651 1_555
O56 Rb4 2.941947 1_555
O57 P15 1.570142 1_555
O57 Ti5 2.015986 1_555
O57 Rb5 3.044080 1_555
O58 P16 1.531011 1_555
O58 Y2 2.207483 1_555
O58 Rb9 3.023064 1_555
O59 P17 1.524122 1_555
O59 Y3 2.216683 1_555
O59 Rb8 3.050863 1_555
O60 P14 1.565221 1_555
O60 Ti4 1.950867 1_555
O60 Rb14 3.187027 1_555
O61 P15 1.524138 1_555
O61 Y4 2.212799 1_554
O61 Rb15 2.986385 1_555
O62 P18 1.532874 1_555
O62 Y4 2.251465 1_565
O62 Rb6 3.017734 1_555
O62 Rb11 3.252949 1_556
O63 P19 1.565000 1_545
O63 Ti4 2.053868 1_555
O63 Rb14 3.205071 1_555
O63 Rb10 3.394383 1_545
O63 Rb7 3.397116 1_545
O64 P12 1.568863 1_555
O64 Ti7 2.032089 1_555
O64 Rb10 3.030682 1_555
O65 P13 1.566051 1_555
O65 Ti6 2.012488 1_555
O65 Rb11 3.038765 1_555
O66 P18 1.568174 1_554
O66 Ti5 1.984480 1_555
O66 Rb6 3.135894 1_554
O66 Rb12 3.321459 1_554
O67 P19 1.523762 1_555
O67 Y5 2.248633 1_555
O67 Rb7 3.047626 1_555
O67 Rb10 3.358489 1_555
O68 P16 1.538711 1_555
O68 Y5 2.251343 1_555
O68 Rb10 2.917824 1_555
O68 Rb0 3.404914 1_455
O69 P17 1.572322 1_555
O69 Ti5 1.999126 1_555
O69 Rb11 3.069264 1_555
O70 P14 1.544783 1_555
O70 Y6 2.293709 1_555
O70 Rb10 3.101721 1_545
O70 Rb14 3.197508 1_555
O70 Rb9 3.345581 1_555
O71 P15 1.531341 1_555
O71 Y7 2.220841 1_555
O71 Rb8 3.068587 1_555
O71 Rb11 3.272700 1_545
O72 P20 1.566086 1_555
O72 Ti4 1.959209 1_555
O72 Rb14 3.195249 1_555
O72 Rb8 3.373004 1_555
O72 Rb13 3.441420 1_555
O73 P21 1.534122 1_555
O73 Y4 2.249177 1_555
O73 Rb15 3.025288 1_556
O73 Rb12 3.271134 1_555
O74 P19 1.572602 1_555
O74 Ti6 1.987371 1_555
O74 Rb13 3.071879 1_555
O75 P18 1.568375 1_555
O75 Ti7 1.974863 1_555
O75 Rb12 3.077117 1_555
O76 P16 1.568586 1_555
O76 Ti7 1.899633 1_555
O76 Rb0 3.194325 1_455
O76 Rb12 3.221099 1_555
O77 P17 1.574690 1_555
O77 Ti6 1.993615 1_555
O77 Rb1 3.110913 1_455
O78 P22 1.530552 1_555
O78 Y5 2.216626 1_555
O78 Rb13 2.972688 1_555
O79 P23 1.574108 1_555
O79 Ti5 2.000055 1_555
O79 Rb12 3.023572 1_554
O80 P16 1.537881 1_555
O80 Y6 2.272173 1_555
O80 Rb0 3.031062 1_455
O80 Rb12 3.164527 1_555
O80 Rb9 3.449316 1_555
O81 P17 1.535672 1_555
O81 Y7 2.246307 1_555
O81 Rb1 3.027273 1_455
O81 Rb13 3.282121 1_555
O81 Rb8 3.543806 1_555
O82 P20 1.523637 1_555
O82 Y7 2.249386 1_555
O82 Rb8 2.860700 1_555
O83 P21 1.530561 1_555
O83 Y6 2.224335 1_555
O83 Rb9 3.020555 1_555
O84 P19 1.568422 1_555
O84 Ti0 2.061514 1_455
O84 Rb14 2.948763 1_565
O85 P18 1.524278 1_554
O85 Y0 2.217252 1_455
O85 Rb15 3.012145 1_565
O86 P20 1.558252 1_555
O86 Ti6 1.951881 1_545
O86 Rb3 3.161567 1_455
O87 P21 1.575525 1_555
O87 Ti7 1.997144 1_545
O87 Rb2 3.018906 1_455
O88 P0 1.561847 1_465
O88 Ti7 2.095049 1_555
O88 Rb0 3.017067 1_455
O88 Rb10 3.376274 1_555
O89 P1 1.567341 1_465
O89 Ti6 1.971548 1_555
O89 Rb1 3.169090 1_455
O89 Rb3 3.308969 1_465
O90 P22 1.540511 1_555
O90 Y6 2.245922 1_555
O90 Rb0 2.998157 1_455
O90 Rb4 3.145467 1_455
O90 Rb14 3.509874 1_555
O91 P23 1.534724 1_555
O91 Y7 2.254325 1_555
O91 Rb15 3.016924 1_555
O91 Rb5 3.297955 1_455
O92 P20 1.534087 1_555
O92 Y1 2.226653 1_455
O92 Rb14 2.933478 1_555
O92 Rb13 3.419086 1_555
O93 P21 1.567875 1_655
O93 Ti1 1.992691 1_555
O93 Rb15 3.148433 1_656
O94 P0 1.530839 1_455
O94 Y6 2.262560 1_555
O94 Rb14 2.922729 1_555
O95 P1 1.529025 1_455
O95 Y7 2.218044 1_555
O95 Rb15 2.989201 1_555
