# generated using pymatgen
data_AgSbH2C2(NF3)2
_symmetry_space_group_name_H-M   'P 1'
_cell_length_a   5.32015400
_cell_length_b   7.01065300
_cell_length_c   12.52693500
_cell_angle_alpha   90.00000000
_cell_angle_beta   90.00000000
_cell_angle_gamma   90.00000000
_symmetry_Int_Tables_number   1
_chemical_formula_structural   AgSbH2C2(NF3)2
_chemical_formula_sum   'Ag2 Sb2 H4 C4 N4 F12'
_cell_volume   467.22653500
_cell_formula_units_Z   2
loop_
 _symmetry_equiv_pos_site_id
 _symmetry_equiv_pos_as_xyz
  1  'x, y, z'
loop_
 _atom_site_type_symbol
 _atom_site_label
 _atom_site_symmetry_multiplicity
 _atom_site_fract_x
 _atom_site_fract_y
 _atom_site_fract_z
 _atom_site_occupancy
  Ag  Ag0  1  0.00000000  0.00000000  0.50000000  1
  Ag  Ag1  1  0.50000000  0.50000000  0.00000000  1
  Sb  Sb0  1  0.50000000  0.50000000  0.50000000  1
  Sb  Sb1  1  0.00000000  0.00000000  0.00000000  1
  H  H0  1  0.52226900  0.00000000  0.22072000  1
  H  H1  1  0.47773100  0.00000000  0.77928000  1
  H  H2  1  0.02226900  0.50000000  0.27928000  1
  H  H3  1  0.97773100  0.50000000  0.72072000  1
  C  C0  1  0.64574100  0.00000000  0.28941800  1
  C  C1  1  0.35425900  0.00000000  0.71058200  1
  C  C2  1  0.14574100  0.50000000  0.21058200  1
  C  C3  1  0.85425900  0.50000000  0.78941800  1
  N  N0  1  0.78597600  0.00000000  0.35985800  1
  N  N1  1  0.21402400  0.00000000  0.64014200  1
  N  N2  1  0.28597600  0.50000000  0.14014200  1
  N  N3  1  0.71402400  0.50000000  0.85985800  1
  F  F0  1  0.72402000  0.50000000  0.37889600  1
  F  F1  1  0.27598000  0.50000000  0.62110400  1
  F  F2  1  0.22402000  0.00000000  0.12110400  1
  F  F3  1  0.77598000  0.00000000  0.87889600  1
  F  F4  1  0.70052500  0.69244400  0.56923800  1
  F  F5  1  0.29947500  0.69244400  0.43076200  1
  F  F6  1  0.20052500  0.80755600  0.93076200  1
  F  F7  1  0.79947500  0.80755600  0.06923800  1
  F  F8  1  0.29947500  0.30755600  0.43076200  1
  F  F9  1  0.70052500  0.30755600  0.56923800  1
  F  F10  1  0.79947500  0.19244400  0.06923800  1
  F  F11  1  0.20052500  0.19244400  0.93076200  1
loop_
_geom_bond_atom_site_label_1
_geom_bond_atom_site_label_2
_geom_bond_distance
_geom_bond_site_symmetry_2
Ag0 N1 2.092476 1_555
Ag0 N0 2.092476 1_455
Ag1 N2 2.092476 1_555
Ag1 N3 2.092476 1_554
C0 H0 1.082633 1_555
C0 N0 1.155529 1_555
C1 H1 1.082633 1_555
C1 N1 1.155529 1_555
C2 H2 1.082633 1_555
C2 N2 1.155529 1_555
C3 H3 1.082633 1_555
C3 N3 1.155529 1_555
F0 Sb0 1.929226 1_555
F1 Sb0 1.929226 1_555
F2 Sb1 1.929226 1_555
F3 Sb1 1.929226 1_656
F4 Sb0 1.926297 1_555
F5 Sb0 1.926297 1_555
F6 Sb1 1.926297 1_566
F7 Sb1 1.926297 1_665
F8 Sb0 1.926297 1_555
F9 Sb0 1.926297 1_555
F10 Sb1 1.926297 1_655
F11 Sb1 1.926297 1_556
