# generated using pymatgen
data_KBiN(ClO)3
_symmetry_space_group_name_H-M   'P 1'
_cell_length_a   8.53140100
_cell_length_b   10.02237900
_cell_length_c   10.45207687
_cell_angle_alpha   67.52483892
_cell_angle_beta   90.00000000
_cell_angle_gamma   90.00000000
_symmetry_Int_Tables_number   1
_chemical_formula_structural   KBiN(ClO)3
_chemical_formula_sum   'K4 Bi4 N4 Cl12 O12'
_cell_volume   825.82315718
_cell_formula_units_Z   4
loop_
 _symmetry_equiv_pos_site_id
 _symmetry_equiv_pos_as_xyz
  1  'x, y, z'
loop_
 _atom_site_type_symbol
 _atom_site_label
 _atom_site_symmetry_multiplicity
 _atom_site_fract_x
 _atom_site_fract_y
 _atom_site_fract_z
 _atom_site_occupancy
  K  K0  1  0.58498800  0.64287200  0.19452600  1
  K  K1  1  0.41501200  0.35712800  0.80547400  1
  K  K2  1  0.91501200  0.64287200  0.69452600  1
  K  K3  1  0.08498800  0.35712800  0.30547400  1
  Bi  Bi0  1  0.08030400  0.86373400  0.22301100  1
  Bi  Bi1  1  0.58030400  0.13626600  0.27698900  1
  Bi  Bi2  1  0.91969600  0.13626600  0.77698900  1
  Bi  Bi3  1  0.41969600  0.86373400  0.72301100  1
  N  N0  1  0.77970800  0.32490000  0.94279200  1
  N  N1  1  0.72029200  0.32490000  0.44279200  1
  N  N2  1  0.22029200  0.67510000  0.05720800  1
  N  N3  1  0.27970800  0.67510000  0.55720800  1
  Cl  Cl0  1  0.59211300  0.64908000  0.87146800  1
  Cl  Cl1  1  0.87154900  0.86434300  0.03309100  1
  Cl  Cl2  1  0.09211300  0.35092000  0.62853200  1
  Cl  Cl3  1  0.62845100  0.86434300  0.53309100  1
  Cl  Cl4  1  0.43885500  0.95856900  0.19095400  1
  Cl  Cl5  1  0.12845100  0.13565700  0.96690900  1
  Cl  Cl6  1  0.56114500  0.04143100  0.80904600  1
  Cl  Cl7  1  0.37154900  0.13565700  0.46690900  1
  Cl  Cl8  1  0.90788700  0.64908000  0.37146800  1
  Cl  Cl9  1  0.93885500  0.04143100  0.30904600  1
  Cl  Cl10  1  0.06114500  0.95856900  0.69095400  1
  Cl  Cl11  1  0.40788700  0.35092000  0.12853200  1
  O  O0  1  0.26691800  0.65018200  0.68877900  1
  O  O1  1  0.20537700  0.78374200  0.47429400  1
  O  O2  1  0.76691800  0.34981800  0.81122100  1
  O  O3  1  0.13759500  0.59484000  0.01920300  1
  O  O4  1  0.29462300  0.78374200  0.97429400  1
  O  O5  1  0.79462300  0.21625800  0.52570600  1
  O  O6  1  0.36240500  0.59484000  0.51920300  1
  O  O7  1  0.86240500  0.40516000  0.98079700  1
  O  O8  1  0.70537700  0.21625800  0.02570600  1
  O  O9  1  0.23308200  0.65018200  0.18877900  1
  O  O10  1  0.63759500  0.40516000  0.48079700  1
  O  O11  1  0.73308200  0.34981800  0.31122100  1
loop_
_geom_bond_atom_site_label_1
_geom_bond_atom_site_label_2
_geom_bond_distance
_geom_bond_site_symmetry_2
K0 O11 2.995255 1_555
K0 O9 3.003186 1_555
K0 O10 3.062682 1_555
K0 O4 3.308146 1_554
K1 O0 2.995255 1_555
K1 O2 3.003186 1_555
K1 O6 3.062682 1_555
K1 O8 3.308146 1_556
K2 O2 2.995255 1_555
K2 O0 3.003186 1_655
K2 O7 3.062682 1_555
K2 O1 3.308146 1_655
K3 O9 2.995255 1_555
K3 O11 3.003186 1_455
K3 O3 3.062682 1_555
K3 O5 3.308146 1_455
Bi0 Cl8 2.578264 1_455
Bi0 Cl9 2.580917 1_465
Bi0 O9 2.644480 1_555
Bi0 O1 2.658865 1_555
Bi0 Cl1 2.665163 1_455
Bi0 Cl5 3.030465 1_564
Bi0 Cl4 3.182657 1_555
Bi1 Cl11 2.578264 1_555
Bi1 Cl4 2.580917 1_545
Bi1 O11 2.644480 1_555
Bi1 O8 2.658865 1_555
Bi1 Cl7 2.665163 1_555
Bi1 Cl3 3.030465 1_545
Bi1 Cl9 3.182657 1_555
Bi2 Cl2 2.578264 1_655
Bi2 Cl10 2.580917 1_645
Bi2 O2 2.644480 1_555
Bi2 O5 2.658865 1_555
Bi2 Cl5 2.665163 1_655
Bi2 Cl1 3.030465 1_546
Bi2 Cl6 3.182657 1_555
Bi3 Cl0 2.578264 1_555
Bi3 Cl6 2.580917 1_565
Bi3 O0 2.644480 1_555
Bi3 O4 2.658865 1_555
Bi3 Cl3 2.665163 1_555
Bi3 Cl7 3.030465 1_565
Bi3 Cl10 3.182657 1_555
N0 O7 1.243748 1_555
N0 O8 1.271737 1_556
N0 O2 1.304930 1_555
N1 O10 1.243748 1_555
N1 O5 1.271737 1_555
N1 O11 1.304930 1_555
N2 O3 1.243748 1_555
N2 O4 1.271737 1_554
N2 O9 1.304930 1_555
N3 O6 1.243748 1_555
N3 O1 1.271737 1_555
N3 O0 1.304930 1_555
Cl0 K2 3.331815 1_555
Cl0 K0 3.353886 1_556
Cl0 K1 3.586585 1_555
Cl1 K0 3.299599 1_555
Cl2 K1 3.331815 1_555
Cl2 K3 3.353886 1_555
Cl2 K2 3.586585 1_455
Cl3 K2 3.299599 1_555
Cl4 K0 3.387699 1_555
Cl5 K1 3.299599 1_555
Cl6 K1 3.387699 1_555
Cl7 K3 3.299599 1_555
Cl8 K0 3.331815 1_555
Cl8 K2 3.353886 1_555
Cl8 K3 3.586585 1_655
Cl9 K3 3.387699 1_655
Cl10 K2 3.387699 1_455
Cl11 K3 3.331815 1_555
Cl11 K1 3.353886 1_554
Cl11 K0 3.586585 1_555
