# generated using pymatgen
data_MoH2(CO2)2
_symmetry_space_group_name_H-M   'P 1'
_cell_length_a   13.39771000
_cell_length_b   5.88512200
_cell_length_c   19.79258182
_cell_angle_alpha   86.53796664
_cell_angle_beta   90.00000000
_cell_angle_gamma   90.00000000
_symmetry_Int_Tables_number   1
_chemical_formula_structural   MoH2(CO2)2
_chemical_formula_sum   'Mo12 H24 C24 O48'
_cell_volume   1557.74079943
_cell_formula_units_Z   12
loop_
 _symmetry_equiv_pos_site_id
 _symmetry_equiv_pos_as_xyz
  1  'x, y, z'
loop_
 _atom_site_type_symbol
 _atom_site_label
 _atom_site_symmetry_multiplicity
 _atom_site_fract_x
 _atom_site_fract_y
 _atom_site_fract_z
 _atom_site_occupancy
  Mo  Mo0  1  0.94664800  0.73472200  0.66008600  1
  Mo  Mo1  1  0.55269600  0.31523200  0.51048500  1
  Mo  Mo2  1  0.94730400  0.31523200  0.01048500  1
  Mo  Mo3  1  0.44730400  0.68476800  0.48951500  1
  Mo  Mo4  1  0.05335200  0.26527800  0.33991400  1
  Mo  Mo5  1  0.44664800  0.26527800  0.83991400  1
  Mo  Mo6  1  0.99320000  0.65792700  0.28720000  1
  Mo  Mo7  1  0.49320000  0.34207300  0.21280000  1
  Mo  Mo8  1  0.05269600  0.68476800  0.98951500  1
  Mo  Mo9  1  0.00680000  0.34207300  0.71280000  1
  Mo  Mo10  1  0.55335200  0.73472200  0.16008600  1
  Mo  Mo11  1  0.50680000  0.65792700  0.78720000  1
  H  H0  1  0.12791200  0.36794000  0.82496700  1
  H  H1  1  0.79980400  0.00231500  0.24200900  1
  H  H2  1  0.71527800  0.57985000  0.33070800  1
  H  H3  1  0.27270900  0.75747900  0.91553000  1
  H  H4  1  0.20019600  0.99768500  0.75799100  1
  H  H5  1  0.87208800  0.63206000  0.17503300  1
  H  H6  1  0.74301800  0.01200100  0.90460300  1
  H  H7  1  0.78472200  0.57985000  0.83070800  1
  H  H8  1  0.37208800  0.36794000  0.32496700  1
  H  H9  1  0.34889300  0.47842900  0.03275500  1
  H  H10  1  0.25698200  0.98799900  0.09539700  1
  H  H11  1  0.70019600  0.00231500  0.74200900  1
  H  H12  1  0.24301800  0.98799900  0.59539700  1
  H  H13  1  0.77270900  0.24252100  0.58447000  1
  H  H14  1  0.84889300  0.52157100  0.46724500  1
  H  H15  1  0.21527800  0.42015000  0.16929200  1
  H  H16  1  0.22729100  0.75747900  0.41553000  1
  H  H17  1  0.29980400  0.99768500  0.25799100  1
  H  H18  1  0.72729100  0.24252100  0.08447000  1
  H  H19  1  0.62791200  0.63206000  0.67503300  1
  H  H20  1  0.75698200  0.01200100  0.40460300  1
  H  H21  1  0.65110700  0.52157100  0.96724500  1
  H  H22  1  0.15110700  0.47842900  0.53275500  1
  H  H23  1  0.28472200  0.42015000  0.66929200  1
  C  C0  1  0.39412000  0.47212800  0.27930500  1
  C  C1  1  0.89412000  0.52787200  0.22069500  1
  C  C2  1  0.60346400  0.49979900  0.92244000  1
  C  C3  1  0.26518500  0.94717200  0.54386000  1
  C  C4  1  0.10588000  0.47212800  0.77930500  1
  C  C5  1  0.76518500  0.05282800  0.95614000  1
  C  C6  1  0.66842100  0.32102300  0.11410300  1
  C  C7  1  0.14249700  0.86875400  0.75014400  1
  C  C8  1  0.64249700  0.13124600  0.74985600  1
  C  C9  1  0.39653600  0.50020100  0.07756000  1
  C  C10  1  0.83157900  0.32102300  0.61410300  1
  C  C11  1  0.85750300  0.13124600  0.24985600  1
  C  C12  1  0.23481500  0.94717200  0.04386000  1
  C  C13  1  0.33901400  0.43514400  0.71087200  1
  C  C14  1  0.89653600  0.49979900  0.42244000  1
  C  C15  1  0.60588000  0.52787200  0.72069500  1
  C  C16  1  0.83901400  0.56485600  0.78912800  1
  C  C17  1  0.35750300  0.86875400  0.25014400  1
  C  C18  1  0.73481500  0.05282800  0.45614000  1
  C  C19  1  0.66098600  0.56485600  0.28912800  1
  C  C20  1  0.16098600  0.43514400  0.21087200  1
  C  C21  1  0.16842100  0.67897700  0.38589700  1
  C  C22  1  0.10346400  0.50020100  0.57756000  1
  C  C23  1  0.33157900  0.67897700  0.88589700  1
  O  O0  1  0.34796600  0.25947600  0.75160700  1
  O  O1  1  0.93139000  0.08384000  0.28746100  1
  O  O2  1  0.33673300  0.78091400  0.54466300  1
  O  O3  1  0.89451100  0.66097700  0.37632500  1
  O  O4  1  0.52503800  0.16032000  0.58419700  1
  O  O5  1  0.77007600  0.96329500  0.50751600  1
  O  O6  1  0.33731200  0.46301200  0.89086500  1
  O  O7  1  0.57595500  0.62559600  0.53473700  1
  O  O8  1  0.83889800  0.32493700  0.21583600  1
  O  O9  1  0.94740000  0.31676100  0.42210000  1
  O  O10  1  0.16268800  0.46301200  0.39086500  1
  O  O11  1  0.06861000  0.91616000  0.71253900  1
  O  O12  1  0.11202900  0.81468300  0.35050400  1
  O  O13  1  0.16326700  0.78091400  0.04466300  1
  O  O14  1  0.11485300  0.62353000  0.21319100  1
  O  O15  1  0.83731200  0.53698800  0.60913500  1
  O  O16  1  0.33889800  0.67506300  0.28416400  1
  O  O17  1  0.22992400  0.03670500  0.49248400  1
  O  O18  1  0.42404500  0.37440400  0.46526300  1
  O  O19  1  0.61485300  0.37647000  0.28680900  1
  O  O20  1  0.66326700  0.21908600  0.45533700  1
  O  O21  1  0.88514700  0.37647000  0.78680900  1
  O  O22  1  0.66268800  0.53698800  0.10913500  1
  O  O23  1  0.07595500  0.37440400  0.96526300  1
  O  O24  1  0.84796600  0.74052400  0.74839300  1
  O  O25  1  0.92404500  0.62559600  0.03473700  1
  O  O26  1  0.55260000  0.31676100  0.92210000  1
  O  O27  1  0.97496200  0.16032000  0.08419700  1
  O  O28  1  0.16110200  0.67506300  0.78416400  1
  O  O29  1  0.44740000  0.68323900  0.07790000  1
  O  O30  1  0.05260000  0.68323900  0.57790000  1
  O  O31  1  0.38797100  0.81468300  0.85050400  1
  O  O32  1  0.88797100  0.18531700  0.64949600  1
  O  O33  1  0.72992400  0.96329500  0.00751600  1
  O  O34  1  0.61202900  0.18531700  0.14949600  1
  O  O35  1  0.02503800  0.83968000  0.91580300  1
  O  O36  1  0.15203400  0.25947600  0.25160700  1
  O  O37  1  0.47496200  0.83968000  0.41580300  1
  O  O38  1  0.10548900  0.33902300  0.62367500  1
  O  O39  1  0.27007600  0.03670500  0.99248400  1
  O  O40  1  0.66110200  0.32493700  0.71583600  1
  O  O41  1  0.65203400  0.74052400  0.24839300  1
  O  O42  1  0.38514700  0.62353000  0.71319100  1
  O  O43  1  0.43139000  0.91616000  0.21253900  1
  O  O44  1  0.56861000  0.08384000  0.78746100  1
  O  O45  1  0.83673300  0.21908600  0.95533700  1
  O  O46  1  0.39451100  0.33902300  0.12367500  1
  O  O47  1  0.60548900  0.66097700  0.87632500  1
loop_
_geom_bond_atom_site_label_1
_geom_bond_atom_site_label_2
_geom_bond_distance
_geom_bond_site_symmetry_2
Mo0 O15 2.158395 1_555
Mo0 O24 2.193455 1_555
Mo0 O30 2.193720 1_655
Mo0 O11 2.240951 1_655
Mo1 O4 1.713581 1_555
Mo1 O7 1.941550 1_555
Mo1 O20 1.944406 1_555
Mo1 O18 1.963581 1_555
Mo2 O27 1.713581 1_555
Mo2 O25 1.941550 1_555
Mo2 O45 1.944406 1_554
Mo2 O23 1.963581 1_654
Mo3 O37 1.713581 1_555
Mo3 O18 1.941550 1_555
Mo3 O2 1.944406 1_555
Mo3 O7 1.963581 1_555
Mo4 O10 2.158395 1_555
Mo4 O36 2.193455 1_555
Mo4 O9 2.193720 1_455
Mo4 O1 2.240951 1_455
Mo5 O6 2.158395 1_555
Mo5 O0 2.193455 1_555
Mo5 O26 2.193720 1_555
Mo5 O44 2.240951 1_555
Mo6 O3 2.205475 1_555
Mo6 O14 2.208845 1_655
Mo6 O12 2.257238 1_655
Mo6 O1 2.640105 1_565
Mo7 O46 2.205475 1_555
Mo7 O19 2.208845 1_555
Mo7 O34 2.257238 1_555
Mo7 O43 2.640105 1_545
Mo8 O35 1.713581 1_555
Mo8 O23 1.941550 1_555
Mo8 O13 1.944406 1_556
Mo8 O25 1.963581 1_456
Mo9 O38 2.205475 1_555
Mo9 O21 2.208845 1_455
Mo9 O32 2.257238 1_455
Mo9 O11 2.640105 1_545
Mo10 O22 2.158395 1_555
Mo10 O41 2.193455 1_555
Mo10 O29 2.193720 1_555
Mo10 O43 2.240951 1_555
Mo11 O47 2.205475 1_555
Mo11 O42 2.208845 1_555
Mo11 O31 2.257238 1_555
Mo11 O44 2.640105 1_565
C0 H8 1.101347 1_555
C0 O16 1.413097 1_555
C0 Mo7 2.049944 1_555
C1 H5 1.101347 1_555
C1 O8 1.413097 1_555
C1 Mo6 2.049944 1_555
C2 H21 1.106347 1_555
C2 O26 1.275018 1_555
C2 O47 1.276326 1_555
C3 H12 1.102740 1_555
C3 O17 1.212483 1_565
C3 O2 1.369164 1_555
C4 H0 1.101347 1_555
C4 O28 1.413097 1_555
C4 Mo9 2.049944 1_555
C5 H6 1.102740 1_555
C5 O33 1.212483 1_546
C5 O45 1.369164 1_555
C6 H18 1.101021 1_555
C6 O22 1.271167 1_555
C6 O34 1.277423 1_555
C7 H4 1.100762 1_555
C7 O11 1.259632 1_555
C7 O28 1.312321 1_555
C8 H11 1.100762 1_555
C8 O44 1.259632 1_555
C8 O40 1.312321 1_555
C9 H9 1.106347 1_555
C9 O29 1.275018 1_555
C9 O46 1.276326 1_555
C10 H13 1.101021 1_555
C10 O15 1.271167 1_555
C10 O32 1.277423 1_555
C11 H1 1.100762 1_555
C11 O1 1.259632 1_555
C11 O8 1.312321 1_555
C12 H10 1.102740 1_555
C12 O39 1.212483 1_564
C12 O13 1.369164 1_555
C13 H23 1.105866 1_555
C13 O42 1.272568 1_555
C13 O0 1.277715 1_555
C14 H14 1.106347 1_555
C14 O9 1.275018 1_555
C14 O3 1.276326 1_555
C15 H19 1.101347 1_555
C15 O40 1.413097 1_555
C15 Mo11 2.049944 1_555
C16 H7 1.105866 1_555
C16 O21 1.272568 1_555
C16 O24 1.277715 1_555
C17 H17 1.100762 1_555
C17 O43 1.259632 1_555
C17 O16 1.312321 1_555
C18 H20 1.102740 1_555
C18 O5 1.212483 1_545
C18 O20 1.369164 1_555
C19 H2 1.105866 1_555
C19 O19 1.272568 1_555
C19 O41 1.277715 1_555
C20 H15 1.105866 1_555
C20 O14 1.272568 1_555
C20 O36 1.277715 1_555
C21 H16 1.101021 1_555
C21 O10 1.271167 1_555
C21 O12 1.277423 1_555
C22 H22 1.106347 1_555
C22 O30 1.275018 1_555
C22 O38 1.276326 1_555
C23 H3 1.101021 1_555
C23 O6 1.271167 1_555
C23 O31 1.277423 1_555
