# generated using pymatgen
data_Na11Ti20O40
_symmetry_space_group_name_H-M   'P 1'
_cell_length_a   5.87769034
_cell_length_b   5.87768395
_cell_length_c   117.23882155
_cell_angle_alpha   29.50980975
_cell_angle_beta   29.50974461
_cell_angle_gamma   29.70738071
_symmetry_Int_Tables_number   1
_chemical_formula_structural   Na11Ti20O40
_chemical_formula_sum   'Na11 Ti20 O40'
_cell_volume   873.42975746
_cell_formula_units_Z   1
loop_
 _symmetry_equiv_pos_site_id
 _symmetry_equiv_pos_as_xyz
  1  'x, y, z'
loop_
 _atom_site_type_symbol
 _atom_site_label
 _atom_site_symmetry_multiplicity
 _atom_site_fract_x
 _atom_site_fract_y
 _atom_site_fract_z
 _atom_site_occupancy
  Na  Na0  1  0.99744203  0.99744212  0.05028662  1
  Na  Na1  1  0.00268465  0.00268439  0.44970467  1
  Na  Na2  1  0.03656614  0.03656760  0.54626937  1
  Na  Na3  1  0.99979238  0.99979168  0.70000731  1
  Na  Na4  1  0.00515427  0.00515268  0.59951360  1
  Na  Na5  1  0.00012032  0.00011780  0.64998624  1
  Na  Na6  1  0.99971380  0.99971461  0.85003099  1
  Na  Na7  1  0.99950666  0.99950811  0.75005030  1
  Na  Na8  1  0.99996915  0.99996836  0.80000944  1
  Na  Na9  1  0.99426226  0.99426221  0.90056195  1
  Na  Na10  1  0.96304347  0.96304163  0.95376657  1
  Ti  Ti0  1  0.50305510  0.50304684  0.02402530  1
  Ti  Ti1  1  0.49958215  0.49958010  0.07566249  1
  Ti  Ti2  1  0.48977964  0.48978316  0.12594436  1
  Ti  Ti3  1  0.49191626  0.49191828  0.17576060  1
  Ti  Ti4  1  0.49755436  0.49755529  0.22525713  1
  Ti  Ti5  1  0.50261850  0.50261924  0.27472640  1
  Ti  Ti6  1  0.50844778  0.50844486  0.32420083  1
  Ti  Ti7  1  0.51208349  0.51208352  0.37387271  1
  Ti  Ti8  1  0.50300781  0.50300576  0.42408975  1
  Ti  Ti9  1  0.49625906  0.49626192  0.47603356  1
  Ti  Ti10  1  0.49713312  0.49713559  0.52482683  1
  Ti  Ti11  1  0.49745618  0.49745693  0.57539457  1
  Ti  Ti12  1  0.49363580  0.49363368  0.62562692  1
  Ti  Ti13  1  0.50093937  0.50093655  0.67492331  1
  Ti  Ti14  1  0.50201394  0.50201229  0.72479990  1
  Ti  Ti15  1  0.49686123  0.49686179  0.77532302  1
  Ti  Ti16  1  0.50037552  0.50037510  0.82495306  1
  Ti  Ti17  1  0.50626424  0.50626758  0.87437335  1
  Ti  Ti18  1  0.50109296  0.50109634  0.92475129  1
  Ti  Ti19  1  0.50138536  0.50138583  0.97533755  1
  O  O0  1  0.21501010  0.21501041  0.01256691  1
  O  O1  1  0.23838929  0.23839224  0.06069872  1
  O  O2  1  0.76212205  0.76212101  0.03919419  1
  O  O3  1  0.22848922  0.22849267  0.11081802  1
  O  O4  1  0.79131126  0.79131052  0.08712843  1
  O  O5  1  0.22844398  0.22844451  0.16073266  1
  O  O6  1  0.78315451  0.78315141  0.13799196  1
  O  O7  1  0.22536971  0.22536893  0.21108019  1
  O  O8  1  0.77973951  0.77973690  0.18839849  1
  O  O9  1  0.22259523  0.22259582  0.26135938  1
  O  O10  1  0.77708918  0.77708462  0.23867297  1
  O  O11  1  0.22030956  0.22031462  0.31160232  1
  O  O12  1  0.77470637  0.77470421  0.28890547  1
  O  O13  1  0.21780560  0.21781155  0.36191423  1
  O  O14  1  0.77244222  0.77244013  0.33916581  1
  O  O15  1  0.20962906  0.20963166  0.41277520  1
  O  O16  1  0.77273838  0.77273670  0.38904743  1
  O  O17  1  0.23838922  0.23838795  0.46076095  1
  O  O18  1  0.76179750  0.76179936  0.43928067  1
  O  O19  1  0.21858644  0.21858466  0.51236998  1
  O  O20  1  0.78549934  0.78550093  0.48742080  1
  O  O21  1  0.23378114  0.23378253  0.56177856  1
  O  O22  1  0.76158459  0.76158659  0.53902410  1
  O  O23  1  0.23269247  0.23268593  0.61204061  1
  O  O24  1  0.76618371  0.76618371  0.58821219  1
  O  O25  1  0.23324309  0.23324174  0.66208247  1
  O  O26  1  0.76600182  0.76600492  0.63799402  1
  O  O27  1  0.23313750  0.23313842  0.71205898  1
  O  O28  1  0.76448294  0.76448336  0.68818130  1
  O  O29  1  0.23437873  0.23437894  0.76185660  1
  O  O30  1  0.76479592  0.76479633  0.73823722  1
  O  O31  1  0.23533483  0.23533454  0.81184371  1
  O  O32  1  0.76547377  0.76547113  0.78807246  1
  O  O33  1  0.23394282  0.23394142  0.86203804  1
  O  O34  1  0.76522125  0.76522078  0.83804482  1
  O  O35  1  0.23345896  0.23345357  0.91181046  1
  O  O36  1  0.76655296  0.76655520  0.88806756  1
  O  O37  1  0.23860967  0.23861439  0.96090807  1
  O  O38  1  0.76646944  0.76648045  0.93822070  1
  O  O39  1  0.78131970  0.78131336  0.98757336  1
loop_
_geom_bond_atom_site_label_1
_geom_bond_atom_site_label_2
_geom_bond_distance
_geom_bond_site_symmetry_2
Na0 O4 2.434140 1_555
Na0 O1 2.440146 1_655
Na0 O1 2.440155 1_565
Na0 O2 2.442018 1_565
Na0 O2 2.442024 1_655
Na0 O0 2.445701 1_665
Na1 O15 2.437592 1_555
Na1 O18 2.439871 1_545
Na1 O18 2.439871 1_455
Na1 O17 2.441186 1_545
Na1 O17 2.441187 1_455
Na1 O20 2.448017 1_445
Na2 O19 2.295946 1_555
Na2 O22 2.370271 1_455
Na2 O22 2.370274 1_545
Na2 O21 2.479568 1_545
Na2 O21 2.479570 1_455
Na2 O24 2.532775 1_445
Na3 O25 2.359582 1_665
Na3 O30 2.380727 1_555
Na3 O28 2.393587 1_565
Na3 O28 2.393588 1_655
Na3 O27 2.395400 1_655
Na3 O27 2.395406 1_565
Na4 O21 2.371781 1_555
Na4 O26 2.379416 1_445
Na4 O24 2.397155 1_455
Na4 O24 2.397155 1_545
Na4 O23 2.413358 1_455
Na4 O23 2.413364 1_545
Na5 O23 2.367452 1_555
Na5 O28 2.373003 1_445
Na5 O26 2.392809 1_545
Na5 O26 2.392817 1_455
Na5 O25 2.394390 1_545
Na5 O25 2.394395 1_455
Na6 O31 2.372309 1_665
Na6 O36 2.372912 1_555
Na6 O34 2.390054 1_565
Na6 O34 2.390060 1_655
Na6 O33 2.390923 1_565
Na6 O33 2.390924 1_655
Na7 O27 2.365209 1_665
Na7 O32 2.365732 1_555
Na7 O29 2.398522 1_655
Na7 O29 2.398522 1_565
Na7 O30 2.399420 1_565
Na7 O30 2.399425 1_655
Na8 O34 2.362454 1_555
Na8 O29 2.376658 1_665
Na8 O31 2.392575 1_655
Na8 O31 2.392579 1_565
Na8 O32 2.393196 1_565
Na8 O32 2.393203 1_655
Na9 O38 2.369503 1_555
Na9 O33 2.380440 1_665
Na9 O35 2.398751 1_565
Na9 O35 2.398758 1_655
Na9 O36 2.414011 1_655
Na9 O36 2.414012 1_565
Na10 O39 2.288146 1_555
Na10 O37 2.372676 1_655
Na10 O37 2.372692 1_565
Na10 O38 2.482690 1_655
Na10 O38 2.482711 1_565
Na10 O35 2.533913 1_665
O0 Ti0 2.012292 1_455
O0 Ti0 2.012309 1_545
O0 Ti19 2.015976 1_554
O1 Ti1 2.034434 1_455
O1 Ti1 2.034444 1_545
O1 Ti0 2.060774 1_555
O2 Ti0 2.039736 1_565
O2 Ti0 2.039753 1_655
O2 Ti1 2.052305 1_555
O3 Ti1 1.901149 1_555
O3 Ti2 2.027439 1_545
O3 Ti2 2.027440 1_455
O4 Ti1 1.987259 1_565
O4 Ti1 1.987264 1_655
O4 Ti2 2.090890 1_555
O5 Ti2 1.908819 1_555
O5 Ti3 2.017629 1_545
O5 Ti3 2.017634 1_455
O6 Ti2 1.950917 1_655
O6 Ti2 1.950931 1_565
O6 Ti3 2.042479 1_555
O7 Ti3 1.932913 1_555
O7 Ti4 1.996506 1_545
O7 Ti4 1.996511 1_455
O8 Ti3 1.961032 1_655
O8 Ti3 1.961041 1_565
O8 Ti4 2.001058 1_555
O9 Ti4 1.965623 1_555
O9 Ti5 1.979951 1_545
O9 Ti5 1.979953 1_455
O10 Ti5 1.963439 1_555
O10 Ti4 1.981041 1_655
O10 Ti4 1.981053 1_565
O11 Ti6 1.960697 1_455
O11 Ti6 1.960714 1_545
O11 Ti5 2.002031 1_555
O12 Ti6 1.932023 1_555
O12 Ti5 1.997038 1_655
O12 Ti5 1.997044 1_565
O13 Ti7 1.949017 1_455
O13 Ti7 1.949029 1_545
O13 Ti6 2.040141 1_555
O14 Ti7 1.905896 1_555
O14 Ti6 2.016803 1_565
O14 Ti6 2.016806 1_655
O15 Ti8 1.983409 1_455
O15 Ti8 1.983418 1_545
O15 Ti7 2.094638 1_555
O16 Ti8 1.896868 1_555
O16 Ti7 2.029548 1_655
O16 Ti7 2.029551 1_565
O17 Ti9 2.043241 1_545
O17 Ti9 2.043251 1_455
O17 Ti8 2.060773 1_555
O18 Ti8 2.040636 1_565
O18 Ti8 2.040646 1_655
O18 Ti9 2.063793 1_555
O19 Ti9 1.974698 1_555
O19 Ti10 2.029132 1_545
O19 Ti10 2.029143 1_455
O20 Ti9 2.007611 1_655
O20 Ti9 2.007612 1_565
O20 Ti10 2.023148 1_555
O21 Ti11 2.076131 1_545
O21 Ti11 2.076132 1_455
O21 Ti10 2.092489 1_555
O22 Ti11 2.035938 1_555
O22 Ti10 2.045032 1_565
O22 Ti10 2.045033 1_655
O23 Ti11 2.057787 1_555
O23 Ti12 2.096327 1_545
O23 Ti12 2.096339 1_455
O24 Ti11 2.079225 1_565
O24 Ti11 2.079225 1_655
O24 Ti12 2.090500 1_555
O25 Ti12 2.061559 1_555
O25 Ti13 2.085293 1_455
O25 Ti13 2.085294 1_545
O26 Ti12 2.075912 1_565
O26 Ti12 2.075925 1_655
O26 Ti13 2.082071 1_555
O27 Ti14 2.081937 1_455
O27 Ti14 2.081941 1_545
O27 Ti13 2.087685 1_555
O28 Ti14 2.066325 1_555
O28 Ti13 2.093992 1_565
O28 Ti13 2.094001 1_655
O29 Ti14 2.081322 1_555
O29 Ti15 2.091376 1_545
O29 Ti15 2.091378 1_455
O30 Ti15 2.082528 1_555
O30 Ti14 2.090678 1_565
O30 Ti14 2.090685 1_655
O31 Ti15 2.061974 1_555
O31 Ti16 2.090758 1_545
O31 Ti16 2.090760 1_455
O32 Ti16 2.077486 1_555
O32 Ti15 2.083367 1_655
O32 Ti15 2.083372 1_565
O33 Ti17 2.077808 1_545
O33 Ti17 2.077821 1_455
O33 Ti16 2.089640 1_555
O34 Ti17 2.056981 1_555
O34 Ti16 2.092978 1_565
O34 Ti16 2.092980 1_655
O35 Ti18 2.080811 1_545
O35 Ti18 2.080832 1_455
O35 Ti17 2.091299 1_555
O36 Ti18 2.057915 1_555
O36 Ti17 2.095766 1_655
O36 Ti17 2.095766 1_565
O37 Ti18 2.024419 1_555
O37 Ti19 2.046127 1_455
O37 Ti19 2.046135 1_545
O38 Ti18 2.071284 1_565
O38 Ti18 2.071302 1_655
O38 Ti19 2.099086 1_555
O39 Ti0 1.982122 1_556
O39 Ti19 2.030161 1_655
O39 Ti19 2.030174 1_565
