# generated using pymatgen
data_CuAgO2
_symmetry_space_group_name_H-M   'P 1'
_cell_length_a   2.93215500
_cell_length_b   3.91010429
_cell_length_c   4.48616237
_cell_angle_alpha   73.89038411
_cell_angle_beta   71.42260031
_cell_angle_gamma   71.77680096
_symmetry_Int_Tables_number   1
_chemical_formula_structural   CuAgO2
_chemical_formula_sum   'Cu1 Ag1 O2'
_cell_volume   45.39630936
_cell_formula_units_Z   1
loop_
 _symmetry_equiv_pos_site_id
 _symmetry_equiv_pos_as_xyz
  1  'x, y, z'
loop_
 _atom_site_type_symbol
 _atom_site_label
 _atom_site_symmetry_multiplicity
 _atom_site_fract_x
 _atom_site_fract_y
 _atom_site_fract_z
 _atom_site_occupancy
  Cu  Cu0  1  0.50000000  0.50000000  0.50000000  1
  Ag  Ag0  1  0.00000000  0.00000000  0.00000000  1
  O  O0  1  0.16918600  0.33707100  0.28355200  1
  O  O1  1  0.83081400  0.66292900  0.71644800  1
loop_
_geom_bond_atom_site_label_1
_geom_bond_atom_site_label_2
_geom_bond_distance
_geom_bond_site_symmetry_2
Cu0 O0 1.883157 1_655
Cu0 O1 1.883157 1_455
Cu0 O1 1.902517 1_555
Cu0 O0 1.902517 1_555
Ag0 O0 2.311434 1_555
Ag0 O1 2.311434 1_444
Ag0 O1 2.497498 1_544
Ag0 O0 2.497498 1_455
Ag0 O0 2.520178 1_545
Ag0 O1 2.520178 1_454
