# generated using pymatgen
data_CaZn3
_symmetry_space_group_name_H-M   'P 1'
_cell_length_a   9.12091603
_cell_length_b   9.12091603
_cell_length_c   9.76236200
_cell_angle_alpha   90.00000000
_cell_angle_beta   90.00000000
_cell_angle_gamma   120.00000024
_symmetry_Int_Tables_number   1
_chemical_formula_structural   CaZn3
_chemical_formula_sum   'Ca8 Zn24'
_cell_volume   703.33536276
_cell_formula_units_Z   8
loop_
 _symmetry_equiv_pos_site_id
 _symmetry_equiv_pos_as_xyz
  1  'x, y, z'
loop_
 _atom_site_type_symbol
 _atom_site_label
 _atom_site_symmetry_multiplicity
 _atom_site_fract_x
 _atom_site_fract_y
 _atom_site_fract_z
 _atom_site_occupancy
  Ca  Ca0  1  0.00000000  0.00000000  0.75000000  1
  Ca  Ca1  1  0.54319600  0.08639200  0.25000000  1
  Ca  Ca2  1  0.91360800  0.45680400  0.25000000  1
  Ca  Ca3  1  0.08639200  0.54319600  0.75000000  1
  Ca  Ca4  1  0.45680400  0.54319600  0.75000000  1
  Ca  Ca5  1  0.00000000  0.00000000  0.25000000  1
  Ca  Ca6  1  0.54319600  0.45680400  0.25000000  1
  Ca  Ca7  1  0.45680400  0.91360800  0.75000000  1
  Zn  Zn0  1  0.83151400  0.66302800  0.50773400  1
  Zn  Zn1  1  0.16848600  0.33697200  0.00773400  1
  Zn  Zn2  1  0.33697200  0.16848600  0.99226600  1
  Zn  Zn3  1  0.83151400  0.16848600  0.99226600  1
  Zn  Zn4  1  0.33333300  0.66666700  0.49095900  1
  Zn  Zn5  1  0.23434800  0.46869600  0.25000000  1
  Zn  Zn6  1  0.83151400  0.16848600  0.50773400  1
  Zn  Zn7  1  0.83151400  0.66302800  0.99226600  1
  Zn  Zn8  1  0.66666700  0.33333300  0.99095900  1
  Zn  Zn9  1  0.16848600  0.83151400  0.00773400  1
  Zn  Zn10  1  0.66302800  0.83151400  0.49226600  1
  Zn  Zn11  1  0.46869600  0.23434800  0.75000000  1
  Zn  Zn12  1  0.33697200  0.16848600  0.50773400  1
  Zn  Zn13  1  0.53130400  0.76565200  0.25000000  1
  Zn  Zn14  1  0.66302800  0.83151400  0.00773400  1
  Zn  Zn15  1  0.16848600  0.83151400  0.49226600  1
  Zn  Zn16  1  0.66666700  0.33333300  0.50904100  1
  Zn  Zn17  1  0.00000000  0.00000000  0.50000000  1
  Zn  Zn18  1  0.76565200  0.23434800  0.75000000  1
  Zn  Zn19  1  0.33333300  0.66666700  0.00904100  1
  Zn  Zn20  1  0.23434800  0.76565200  0.25000000  1
  Zn  Zn21  1  0.16848600  0.33697200  0.49226600  1
  Zn  Zn22  1  0.76565200  0.53130400  0.75000000  1
  Zn  Zn23  1  0.00000000  0.00000000  0.00000000  1
loop_
_geom_bond_atom_site_label_1
_geom_bond_atom_site_label_2
_geom_bond_distance
_geom_bond_site_symmetry_2
Ca0 Zn17 2.440590 1_555
Ca0 Zn23 2.440590 1_556
Ca1 Zn20 2.872746 1_545
Ca1 Zn13 2.872746 1_545
Ca1 Zn16 3.193717 1_555
Ca1 Zn8 3.193717 1_554
Ca1 Zn6 3.440606 1_555
Ca1 Zn3 3.440606 1_554
Ca1 Zn12 3.440606 1_555
Ca1 Zn2 3.440606 1_554
Ca2 Zn20 2.872746 1_655
Ca2 Zn5 2.872746 1_655
Ca2 Zn16 3.193717 1_555
Ca2 Zn8 3.193717 1_554
Ca2 Zn6 3.440606 1_555
Ca2 Zn3 3.440606 1_554
Ca2 Zn0 3.440606 1_555
Ca2 Zn7 3.440606 1_554
Ca3 Zn18 2.872746 1_455
Ca3 Zn22 2.872746 1_455
Ca3 Zn19 3.193717 1_556
Ca3 Zn4 3.193717 1_555
Ca3 Zn9 3.440606 1_556
Ca3 Zn15 3.440606 1_555
Ca3 Zn1 3.440606 1_556
Ca3 Zn21 3.440606 1_555
Ca4 Zn22 2.872746 1_555
Ca4 Zn11 2.872746 1_555
Ca4 Zn4 3.193722 1_555
Ca4 Zn19 3.193722 1_556
Ca4 Zn1 3.440606 1_556
Ca4 Zn14 3.440606 1_556
Ca4 Zn10 3.440606 1_555
Ca4 Zn21 3.440606 1_555
Ca5 Zn17 2.440590 1_555
Ca5 Zn23 2.440590 1_555
Ca6 Zn13 2.872746 1_555
Ca6 Zn5 2.872746 1_555
Ca6 Zn16 3.193722 1_555
Ca6 Zn8 3.193722 1_554
Ca6 Zn12 3.440606 1_555
Ca6 Zn0 3.440606 1_555
Ca6 Zn2 3.440606 1_554
Ca6 Zn7 3.440606 1_554
Ca7 Zn18 2.872746 1_565
Ca7 Zn11 2.872746 1_565
Ca7 Zn4 3.193717 1_555
Ca7 Zn19 3.193717 1_556
Ca7 Zn9 3.440606 1_556
Ca7 Zn15 3.440606 1_555
Ca7 Zn14 3.440606 1_556
Ca7 Zn10 3.440606 1_555
Zn0 Zn22 2.583843 1_555
Zn0 Zn16 2.604274 1_555
Zn0 Zn17 2.662794 1_665
Zn0 Zn15 2.666003 1_655
Zn0 Zn10 2.666003 1_555
Zn1 Zn5 2.583843 1_555
Zn1 Zn19 2.604274 1_555
Zn1 Zn23 2.662794 1_555
Zn1 Zn3 2.666003 1_454
Zn1 Zn2 2.666003 1_554
Zn2 Zn8 2.604274 1_555
Zn2 Zn23 2.662794 1_556
Zn2 Zn9 2.666003 1_546
Zn3 Zn8 2.604266 1_555
Zn4 Zn5 2.824678 1_555
Zn7 Zn8 2.604274 1_555
Zn7 Zn9 2.666003 1_656
Zn10 Zn13 2.583843 1_555
Zn10 Zn4 2.604274 1_555
Zn10 Zn17 2.662794 1_665
Zn10 Zn6 2.666003 1_565
Zn11 Zn12 2.583843 1_555
Zn11 Zn2 2.583843 1_555
Zn11 Zn16 2.824678 1_555
Zn11 Zn8 2.824678 1_555
Zn12 Zn16 2.604274 1_555
Zn12 Zn17 2.662794 1_555
Zn12 Zn15 2.666003 1_545
Zn12 Zn21 2.666003 1_555
Zn13 Zn14 2.583843 1_555
Zn13 Zn4 2.824678 1_555
Zn13 Zn19 2.824678 1_555
Zn14 Zn19 2.604274 1_555
Zn14 Zn23 2.662794 1_665
Zn14 Zn3 2.666003 1_564
Zn14 Zn7 2.666003 1_554
Zn15 Zn20 2.583843 1_555
Zn15 Zn4 2.604266 1_555
Zn15 Zn17 2.662794 1_565
Zn16 Zn6 2.604266 1_555
Zn16 Zn18 2.824673 1_555
Zn16 Zn22 2.824678 1_555
Zn17 Zn21 2.662794 1_555
Zn17 Zn6 2.662794 1_455
Zn18 Zn6 2.583843 1_555
Zn18 Zn3 2.583843 1_555
Zn18 Zn8 2.824673 1_555
Zn19 Zn9 2.604266 1_555
Zn19 Zn20 2.824673 1_555
Zn19 Zn5 2.824678 1_555
Zn20 Zn9 2.583843 1_555
Zn20 Zn4 2.824673 1_555
Zn21 Zn5 2.583843 1_555
Zn21 Zn4 2.604274 1_555
Zn21 Zn6 2.666003 1_455
Zn22 Zn7 2.583843 1_555
Zn22 Zn8 2.824678 1_555
Zn23 Zn7 2.662794 1_444
Zn23 Zn3 2.662794 1_454
Zn23 Zn9 2.662794 1_545
