# generated using pymatgen
data_Li2V(PO3)4
_symmetry_space_group_name_H-M   'P 1'
_cell_length_a   10.29417900
_cell_length_b   9.25270200
_cell_length_c   9.47620523
_cell_angle_alpha   88.15507640
_cell_angle_beta   90.00000000
_cell_angle_gamma   90.00000000
_symmetry_Int_Tables_number   1
_chemical_formula_structural   Li2V(PO3)4
_chemical_formula_sum   'Li8 V4 P16 O48'
_cell_volume   902.13090871
_cell_formula_units_Z   4
loop_
 _symmetry_equiv_pos_site_id
 _symmetry_equiv_pos_as_xyz
  1  'x, y, z'
loop_
 _atom_site_type_symbol
 _atom_site_label
 _atom_site_symmetry_multiplicity
 _atom_site_fract_x
 _atom_site_fract_y
 _atom_site_fract_z
 _atom_site_occupancy
  Li  Li0  1  0.82574800  0.60300500  0.99899900  1
  Li  Li1  1  0.17425200  0.39699500  0.00100100  1
  Li  Li2  1  0.32574800  0.39699500  0.50100100  1
  Li  Li3  1  0.17735900  0.10264500  0.99707400  1
  Li  Li4  1  0.67425200  0.60300500  0.49899900  1
  Li  Li5  1  0.82264100  0.89735500  0.00292600  1
  Li  Li6  1  0.67735900  0.89735500  0.50292600  1
  Li  Li7  1  0.32264100  0.10264500  0.49707400  1
  V  V0  1  0.80362000  0.25309000  0.98279700  1
  V  V1  1  0.30362000  0.74691000  0.51720300  1
  V  V2  1  0.69638000  0.25309000  0.48279700  1
  V  V3  1  0.19638000  0.74691000  0.01720300  1
  P  P0  1  0.02596500  0.75987900  0.73193200  1
  P  P1  1  0.88741700  0.04945700  0.70479900  1
  P  P2  1  0.11258300  0.95054300  0.29520100  1
  P  P3  1  0.52596500  0.24012100  0.76806800  1
  P  P4  1  0.10270200  0.26897800  0.69653500  1
  P  P5  1  0.10495900  0.51905200  0.29835200  1
  P  P6  1  0.47403500  0.75987900  0.23193200  1
  P  P7  1  0.39729800  0.26897800  0.19653500  1
  P  P8  1  0.61258300  0.04945700  0.20479900  1
  P  P9  1  0.38741700  0.95054300  0.79520100  1
  P  P10  1  0.89504100  0.48094800  0.70164800  1
  P  P11  1  0.60270200  0.73102200  0.80346500  1
  P  P12  1  0.60495900  0.48094800  0.20164800  1
  P  P13  1  0.89729800  0.73102200  0.30346500  1
  P  P14  1  0.97403500  0.24012100  0.26806800  1
  P  P15  1  0.39504100  0.51905200  0.79835200  1
  O  O0  1  0.12301200  0.55180600  0.14192500  1
  O  O1  1  0.96272300  0.57636300  0.34503000  1
  O  O2  1  0.03727700  0.42363700  0.65497000  1
  O  O3  1  0.37372700  0.93892600  0.63751300  1
  O  O4  1  0.87372700  0.06107400  0.86248700  1
  O  O5  1  0.97896100  0.24559800  0.10910000  1
  O  O6  1  0.58267300  0.65040500  0.17265000  1
  O  O7  1  0.23080500  0.94085700  0.38946800  1
  O  O8  1  0.15270100  0.73723000  0.66195100  1
  O  O9  1  0.20997300  0.56218800  0.39954400  1
  O  O10  1  0.26919500  0.94085700  0.88946800  1
  O  O11  1  0.96445700  0.90636600  0.66705700  1
  O  O12  1  0.87698800  0.44819400  0.85807500  1
  O  O13  1  0.34729900  0.73723000  0.16195100  1
  O  O14  1  0.12627300  0.93892600  0.13751300  1
  O  O15  1  0.76919500  0.05914300  0.61053200  1
  O  O16  1  0.41732700  0.34959500  0.82735000  1
  O  O17  1  0.73080500  0.05914300  0.11053200  1
  O  O18  1  0.62162900  0.74663100  0.64725200  1
  O  O19  1  0.91732700  0.65040500  0.67265000  1
  O  O20  1  0.98580700  0.16843700  0.64241800  1
  O  O21  1  0.47896100  0.75440200  0.39090000  1
  O  O22  1  0.65270100  0.26277000  0.83804900  1
  O  O23  1  0.62627300  0.06107400  0.36248700  1
  O  O24  1  0.70997300  0.43781200  0.10045600  1
  O  O25  1  0.52103900  0.24559800  0.60910000  1
  O  O26  1  0.48580700  0.83156300  0.85758200  1
  O  O27  1  0.78300800  0.75090400  0.39894200  1
  O  O28  1  0.71699200  0.75090400  0.89894200  1
  O  O29  1  0.37837100  0.25336900  0.35274800  1
  O  O30  1  0.62301200  0.44819400  0.35807500  1
  O  O31  1  0.21699200  0.24909600  0.60105800  1
  O  O32  1  0.87837100  0.74663100  0.14725200  1
  O  O33  1  0.08267300  0.34959500  0.32735000  1
  O  O34  1  0.53554300  0.90636600  0.16705700  1
  O  O35  1  0.29002700  0.56218800  0.89954400  1
  O  O36  1  0.51419300  0.16843700  0.14241800  1
  O  O37  1  0.84729900  0.26277000  0.33804900  1
  O  O38  1  0.46445700  0.09363400  0.83294300  1
  O  O39  1  0.28300800  0.24909600  0.10105800  1
  O  O40  1  0.53727700  0.57636300  0.84503000  1
  O  O41  1  0.03554300  0.09363400  0.33294300  1
  O  O42  1  0.01419300  0.83156300  0.35758200  1
  O  O43  1  0.02103900  0.75440200  0.89090000  1
  O  O44  1  0.46272300  0.42363700  0.15497000  1
  O  O45  1  0.37698800  0.55180600  0.64192500  1
  O  O46  1  0.12162900  0.25336900  0.85274800  1
  O  O47  1  0.79002700  0.43781200  0.60045600  1
loop_
_geom_bond_atom_site_label_1
_geom_bond_atom_site_label_2
_geom_bond_distance
_geom_bond_site_symmetry_2
Li0 O28 1.985336 1_555
Li0 O32 2.037987 1_556
Li0 O12 2.058296 1_555
Li0 O24 2.141585 1_556
Li1 O39 1.985336 1_555
Li1 O46 2.037987 1_554
Li1 O0 2.058296 1_555
Li1 O35 2.141585 1_554
Li2 O31 1.985336 1_555
Li2 O29 2.037987 1_555
Li2 O45 2.058296 1_555
Li2 O9 2.141585 1_555
Li3 O46 2.005427 1_555
Li3 O39 2.018899 1_556
Li3 O14 2.052463 1_546
Li3 O10 2.067061 1_545
Li4 O27 1.985336 1_555
Li4 O18 2.037987 1_555
Li4 O30 2.058296 1_555
Li4 O47 2.141585 1_555
Li5 O32 2.005427 1_555
Li5 O28 2.018899 1_554
Li5 O4 2.052463 1_564
Li5 O17 2.067061 1_565
Li6 O18 2.005427 1_555
Li6 O27 2.018899 1_555
Li6 O23 2.052463 1_565
Li6 O15 2.067061 1_565
Li7 O29 2.005427 1_555
Li7 O31 2.018899 1_555
Li7 O3 2.052463 1_545
Li7 O7 2.067061 1_545
O0 P5 1.514851 1_555
O0 V3 2.255836 1_555
O1 P13 1.618717 1_555
O1 P5 1.623529 1_655
O2 P4 1.618717 1_555
O2 P10 1.623529 1_455
O3 P9 1.508191 1_555
O3 V1 2.259999 1_555
O4 P1 1.508191 1_555
O4 V0 2.259999 1_555
O5 P14 1.506488 1_555
O5 V0 2.165632 1_554
O6 P12 1.599631 1_555
O6 P6 1.621398 1_555
O7 P2 1.510608 1_555
O7 V1 2.259981 1_555
O8 P0 1.481463 1_555
O8 V1 2.072487 1_555
O9 P5 1.507347 1_555
O9 V1 2.283958 1_555
O10 P9 1.510608 1_555
O10 V3 2.259981 1_556
O11 P1 1.593823 1_565
O11 P0 1.600721 1_655
O12 P10 1.514851 1_555
O12 V0 2.255836 1_555
O13 P6 1.481463 1_555
O13 V3 2.072487 1_555
O14 P2 1.508191 1_555
O14 V3 2.259999 1_555
O15 P1 1.510608 1_555
O15 V2 2.259981 1_555
O16 P15 1.599631 1_555
O16 P3 1.621398 1_555
O17 P8 1.510608 1_555
O17 V0 2.259981 1_554
O18 P11 1.495447 1_555
O19 P10 1.599631 1_555
O19 P0 1.621398 1_655
O20 P1 1.595413 1_555
O20 P4 1.614665 1_655
O21 P6 1.506488 1_555
O21 V1 2.165632 1_555
O22 P3 1.481463 1_555
O22 V0 2.072487 1_555
O23 P8 1.508191 1_555
O23 V2 2.259999 1_555
O24 P12 1.507347 1_555
O24 V0 2.283958 1_554
O25 P3 1.506488 1_555
O25 V2 2.165632 1_555
O26 P9 1.595413 1_555
O26 P11 1.614665 1_555
O27 P13 1.499117 1_555
O28 P11 1.499117 1_555
O29 P7 1.495447 1_555
O30 P12 1.514851 1_555
O30 V2 2.255836 1_555
O31 P4 1.499117 1_555
O32 P13 1.495447 1_555
O33 P5 1.599631 1_555
O33 P14 1.621398 1_455
O34 P8 1.593823 1_565
O34 P6 1.600721 1_555
O35 P15 1.507347 1_555
O35 V3 2.283958 1_556
O36 P8 1.595413 1_555
O36 P7 1.614665 1_555
O37 P14 1.481463 1_555
O37 V2 2.072487 1_555
O38 P9 1.593823 1_545
O38 P3 1.600721 1_555
O39 P7 1.499117 1_555
O40 P11 1.618717 1_555
O40 P15 1.623529 1_555
O41 P2 1.593823 1_545
O41 P14 1.600721 1_455
O42 P2 1.595413 1_555
O42 P13 1.614665 1_455
O43 P0 1.506488 1_555
O43 V3 2.165632 1_556
O44 P7 1.618717 1_555
O44 P12 1.623529 1_555
O45 P15 1.514851 1_555
O45 V1 2.255836 1_555
O46 P4 1.495447 1_555
O47 P10 1.507347 1_555
O47 V2 2.283958 1_555
