# generated using pymatgen
data_Pu5Pt3
_symmetry_space_group_name_H-M   'P 1'
_cell_length_a   8.51997853
_cell_length_b   8.51997853
_cell_length_c   6.02231100
_cell_angle_alpha   90.00000000
_cell_angle_beta   90.00000000
_cell_angle_gamma   120.00000412
_symmetry_Int_Tables_number   1
_chemical_formula_structural   Pu5Pt3
_chemical_formula_sum   'Pu10 Pt6'
_cell_volume   378.59144299
_cell_formula_units_Z   2
loop_
 _symmetry_equiv_pos_site_id
 _symmetry_equiv_pos_as_xyz
  1  'x, y, z'
loop_
 _atom_site_type_symbol
 _atom_site_label
 _atom_site_symmetry_multiplicity
 _atom_site_fract_x
 _atom_site_fract_y
 _atom_site_fract_z
 _atom_site_occupancy
  Pu  Pu0  1  0.25525800  0.25525800  0.75000000  1
  Pu  Pu1  1  0.74474200  0.00000000  0.75000000  1
  Pu  Pu2  1  0.00000000  0.25525800  0.25000000  1
  Pu  Pu3  1  0.33333300  0.66666700  0.00000000  1
  Pu  Pu4  1  0.00000000  0.74474200  0.75000000  1
  Pu  Pu5  1  0.66666700  0.33333300  0.00000000  1
  Pu  Pu6  1  0.25525800  0.00000000  0.25000000  1
  Pu  Pu7  1  0.74474200  0.74474200  0.25000000  1
  Pu  Pu8  1  0.33333300  0.66666700  0.50000000  1
  Pu  Pu9  1  0.66666700  0.33333300  0.50000000  1
  Pt  Pt0  1  0.00000000  0.39138100  0.75000000  1
  Pt  Pt1  1  0.39138100  0.00000000  0.75000000  1
  Pt  Pt2  1  0.00000000  0.60861900  0.25000000  1
  Pt  Pt3  1  0.60861900  0.60861900  0.75000000  1
  Pt  Pt4  1  0.39138100  0.39138100  0.25000000  1
  Pt  Pt5  1  0.60861900  0.00000000  0.25000000  1
loop_
_geom_bond_atom_site_label_1
_geom_bond_atom_site_label_2
_geom_bond_distance
_geom_bond_site_symmetry_2
Pt0 Pu1 2.932069 1_455
Pt0 Pu0 2.932069 1_555
Pt0 Pu4 3.010628 1_555
Pt0 Pu5 3.028587 1_456
Pt0 Pu9 3.028587 1_455
Pt0 Pu3 3.028589 1_556
Pt0 Pu8 3.028589 1_555
Pt0 Pu2 3.226780 1_555
Pt0 Pu2 3.226780 1_556
Pt1 Pu4 2.932069 1_545
Pt1 Pu0 2.932069 1_555
Pt1 Pu1 3.010628 1_555
Pt1 Pu3 3.028587 1_546
Pt1 Pu8 3.028587 1_545
Pt1 Pu5 3.028589 1_556
Pt1 Pu9 3.028589 1_555
Pt1 Pu6 3.226780 1_556
Pt1 Pu6 3.226780 1_555
Pt2 Pu6 2.932069 1_565
Pt2 Pu7 2.932069 1_455
Pt2 Pu2 3.010628 1_555
Pt2 Pu8 3.028587 1_555
Pt2 Pu3 3.028587 1_555
Pt2 Pu5 3.028589 1_455
Pt2 Pu9 3.028589 1_455
Pt2 Pu4 3.226780 1_554
Pt2 Pu4 3.226780 1_555
Pt3 Pu1 2.932069 1_565
Pt3 Pu4 2.932069 1_655
Pt3 Pu0 3.010628 1_555
Pt3 Pu3 3.028594 1_556
Pt3 Pu9 3.028594 1_555
Pt3 Pu8 3.028594 1_555
Pt3 Pu5 3.028594 1_556
Pt3 Pu7 3.226780 1_556
Pt3 Pu7 3.226780 1_555
Pt4 Pu2 2.932069 1_555
Pt4 Pu6 2.932069 1_555
Pt4 Pu7 3.010628 1_555
Pt4 Pu3 3.028594 1_555
Pt4 Pu9 3.028594 1_555
Pt4 Pu8 3.028594 1_555
Pt4 Pu5 3.028594 1_555
Pt4 Pu0 3.226780 1_555
Pt4 Pu0 3.226780 1_554
Pt5 Pu2 2.932069 1_655
Pt5 Pu7 2.932069 1_545
Pt5 Pu6 3.010628 1_555
Pt5 Pu9 3.028587 1_555
Pt5 Pu5 3.028587 1_555
Pt5 Pu8 3.028589 1_545
Pt5 Pu3 3.028589 1_545
Pt5 Pu1 3.226780 1_554
Pt5 Pu1 3.226780 1_555
