# generated using pymatgen
data_KHO
_symmetry_space_group_name_H-M   'P 1'
_cell_length_a   5.64683085
_cell_length_b   3.96829701
_cell_length_c   7.70901312
_cell_angle_alpha   90.00000000
_cell_angle_beta   109.92000071
_cell_angle_gamma   90.00000000
_symmetry_Int_Tables_number   1
_chemical_formula_structural   KHO
_chemical_formula_sum   'K4 H4 O4'
_cell_volume   162.41037754
_cell_formula_units_Z   4
loop_
 _symmetry_equiv_pos_site_id
 _symmetry_equiv_pos_as_xyz
  1  'x, y, z'
loop_
 _atom_site_type_symbol
 _atom_site_label
 _atom_site_symmetry_multiplicity
 _atom_site_fract_x
 _atom_site_fract_y
 _atom_site_fract_z
 _atom_site_occupancy
  K  K0  1  0.71452900  0.75363039  0.43482919  1
  K  K1  1  0.21452900  0.74636961  0.93482919  1
  K  K2  1  0.28547100  0.24636961  0.56517081  1
  K  K3  1  0.78547100  0.25363039  0.06517081  1
  H  H0  1  0.19912336  0.61250646  0.26556364  1
  H  H1  1  0.69912436  0.88749354  0.76556364  1
  H  H2  1  0.80087564  0.38749354  0.73443636  1
  H  H3  1  0.30087564  0.11250646  0.23443636  1
  O  O0  1  0.08004850  0.77105673  0.28740237  1
  O  O1  1  0.58004850  0.72894327  0.78740237  1
  O  O2  1  0.91995150  0.22894327  0.71259763  1
  O  O3  1  0.41995150  0.27105673  0.21259763  1
loop_
_geom_bond_atom_site_label_1
_geom_bond_atom_site_label_2
_geom_bond_distance
_geom_bond_site_symmetry_2
K0 O0 2.674905 1_655
K0 O3 2.725314 1_555
K0 O2 2.792121 1_565
K0 O3 2.824213 1_565
K0 O2 2.928046 1_555
K1 O1 2.674905 1_555
K1 O2 2.725314 1_465
K1 O3 2.792121 1_556
K1 O2 2.824213 1_455
K1 O3 2.928046 1_566
K2 O2 2.674905 1_455
K2 O1 2.725314 1_555
K2 O0 2.792121 1_545
K2 O1 2.824213 1_545
K2 O0 2.928046 1_555
K3 O3 2.674905 1_555
K3 O0 2.725314 1_645
K3 O1 2.792121 1_554
K3 O0 2.824213 1_655
K3 O1 2.928046 1_544
H0 O0 0.976451 1_555
H0 K2 2.629826 1_555
H0 K1 2.634679 1_554
H0 K3 2.722473 1_455
H0 K0 2.810511 1_555
H1 O1 0.976455 1_555
H1 K3 2.629827 1_566
H1 K0 2.634677 1_555
H1 K2 2.722477 1_565
H1 K1 2.810506 1_655
H2 O2 0.976455 1_555
H2 K0 2.629827 1_555
H2 K3 2.634677 1_556
H2 K1 2.722477 1_655
H2 K2 2.810506 1_555
H3 O3 0.976455 1_555
H3 K1 2.629827 1_544
H3 K2 2.634677 1_555
H3 K0 2.722477 1_545
H3 K3 2.810506 1_455
