# generated using pymatgen
data_Rb2U2Mo3O16
_symmetry_space_group_name_H-M   'P 1'
_cell_length_a   8.49418400
_cell_length_b   9.88120900
_cell_length_c   20.46415000
_cell_angle_alpha   90.00000000
_cell_angle_beta   90.00000000
_cell_angle_gamma   90.00000000
_symmetry_Int_Tables_number   1
_chemical_formula_structural   Rb2U2Mo3O16
_chemical_formula_sum   'Rb8 U8 Mo12 O64'
_cell_volume   1717.61356032
_cell_formula_units_Z   4
loop_
 _symmetry_equiv_pos_site_id
 _symmetry_equiv_pos_as_xyz
  1  'x, y, z'
loop_
 _atom_site_type_symbol
 _atom_site_label
 _atom_site_symmetry_multiplicity
 _atom_site_fract_x
 _atom_site_fract_y
 _atom_site_fract_z
 _atom_site_occupancy
  Rb  Rb0  1  0.48571100  0.89270500  0.39156300  1
  Rb  Rb1  1  0.69596400  0.93708200  0.14464100  1
  Rb  Rb2  1  0.51428900  0.39270500  0.60843700  1
  Rb  Rb3  1  0.30403600  0.43708200  0.85535900  1
  Rb  Rb4  1  0.19596400  0.43708200  0.35535900  1
  Rb  Rb5  1  0.01428900  0.89270500  0.89156300  1
  Rb  Rb6  1  0.80403600  0.93708200  0.64464100  1
  Rb  Rb7  1  0.98571100  0.39270500  0.10843700  1
  U  U0  1  0.82741500  0.17689500  0.47571800  1
  U  U1  1  0.78107400  0.59327400  0.78244400  1
  U  U2  1  0.21892600  0.09327400  0.21755600  1
  U  U3  1  0.67258500  0.17689500  0.97571800  1
  U  U4  1  0.32741500  0.67689500  0.02428200  1
  U  U5  1  0.28107400  0.09327400  0.71755600  1
  U  U6  1  0.71892600  0.59327400  0.28244400  1
  U  U7  1  0.17258500  0.67689500  0.52428200  1
  Mo  Mo0  1  0.51386100  0.37617600  0.13454100  1
  Mo  Mo1  1  0.48613900  0.87617600  0.86545900  1
  Mo  Mo2  1  0.24487400  0.06164900  0.03107800  1
  Mo  Mo3  1  0.74487400  0.56164900  0.46892200  1
  Mo  Mo4  1  0.75512600  0.56164900  0.96892200  1
  Mo  Mo5  1  0.98613900  0.37617600  0.63454100  1
  Mo  Mo6  1  0.25512600  0.06164900  0.53107800  1
  Mo  Mo7  1  0.92444800  0.23499400  0.80928600  1
  Mo  Mo8  1  0.42444800  0.73499400  0.69071400  1
  Mo  Mo9  1  0.07555200  0.73499400  0.19071400  1
  Mo  Mo10  1  0.01386100  0.87617600  0.36545900  1
  Mo  Mo11  1  0.57555200  0.23499400  0.30928600  1
  O  O0  1  0.35885600  0.77442200  0.91553900  1
  O  O1  1  0.88487000  0.77766500  0.31442800  1
  O  O2  1  0.67355300  0.65292500  0.53538700  1
  O  O3  1  0.04260600  0.07420300  0.53191800  1
  O  O4  1  0.17829900  0.57721600  0.98170900  1
  O  O5  1  0.68390900  0.18495700  0.24080200  1
  O  O6  1  0.07236300  0.22172700  0.23577400  1
  O  O7  1  0.83393200  0.63512300  0.89342400  1
  O  O8  1  0.85885600  0.27442200  0.58446100  1
  O  O9  1  0.18390900  0.68495700  0.25919800  1
  O  O10  1  0.32641500  0.67214000  0.61806900  1
  O  O11  1  0.57236300  0.72172700  0.26422600  1
  O  O12  1  0.89122600  0.97543800  0.41820300  1
  O  O13  1  0.54260600  0.57420300  0.96808200  1
  O  O14  1  0.31609100  0.68495700  0.75919800  1
  O  O15  1  0.95739400  0.57420300  0.46808200  1
  O  O16  1  0.17355300  0.15292500  0.96461300  1
  O  O17  1  0.18672000  0.88540100  0.01995100  1
  O  O18  1  0.04401100  0.91801700  0.18801100  1
  O  O19  1  0.67829900  0.07721600  0.51829100  1
  O  O20  1  0.88438200  0.65376300  0.19290900  1
  O  O21  1  0.36338000  0.98243700  0.81651400  1
  O  O22  1  0.61561800  0.65376300  0.69290900  1
  O  O23  1  0.11513000  0.27766500  0.68557200  1
  O  O24  1  0.54401100  0.41801700  0.31198900  1
  O  O25  1  0.38487000  0.27766500  0.18557200  1
  O  O26  1  0.82644700  0.65292500  0.03538700  1
  O  O27  1  0.95598900  0.41801700  0.81198900  1
  O  O28  1  0.81328000  0.38540100  0.98004900  1
  O  O29  1  0.82170100  0.07721600  0.01829100  1
  O  O30  1  0.12762000  0.97159600  0.69675900  1
  O  O31  1  0.61513000  0.77766500  0.81442800  1
  O  O32  1  0.67358500  0.17214000  0.38193100  1
  O  O33  1  0.45739400  0.07420300  0.03191800  1
  O  O34  1  0.60877400  0.97543800  0.91820300  1
  O  O35  1  0.11561800  0.15376300  0.80709100  1
  O  O36  1  0.62762000  0.47159600  0.80324100  1
  O  O37  1  0.10877400  0.47543800  0.58179700  1
  O  O38  1  0.17358500  0.67214000  0.11806900  1
  O  O39  1  0.82641500  0.17214000  0.88193100  1
  O  O40  1  0.13662000  0.98243700  0.31651400  1
  O  O41  1  0.63662000  0.48243700  0.18348600  1
  O  O42  1  0.14114400  0.77442200  0.41553900  1
  O  O43  1  0.66606800  0.63512300  0.39342400  1
  O  O44  1  0.38438200  0.15376300  0.30709100  1
  O  O45  1  0.45598900  0.91801700  0.68801100  1
  O  O46  1  0.47920300  0.77118600  0.06670600  1
  O  O47  1  0.42763700  0.22172700  0.73577400  1
  O  O48  1  0.02079700  0.77118600  0.56670600  1
  O  O49  1  0.86338000  0.48243700  0.68348600  1
  O  O50  1  0.52079700  0.27118600  0.93329400  1
  O  O51  1  0.97920300  0.27118600  0.43329400  1
  O  O52  1  0.32170100  0.57721600  0.48170900  1
  O  O53  1  0.68672000  0.38540100  0.48004900  1
  O  O54  1  0.39122600  0.47543800  0.08179700  1
  O  O55  1  0.32644700  0.15292500  0.46461300  1
  O  O56  1  0.16606800  0.13512300  0.10657600  1
  O  O57  1  0.92763700  0.72172700  0.76422600  1
  O  O58  1  0.37238000  0.97159600  0.19675900  1
  O  O59  1  0.87238000  0.47159600  0.30324100  1
  O  O60  1  0.64114400  0.27442200  0.08446100  1
  O  O61  1  0.31328000  0.88540100  0.51995100  1
  O  O62  1  0.81609100  0.18495700  0.74080200  1
  O  O63  1  0.33393200  0.13512300  0.60657600  1
loop_
_geom_bond_atom_site_label_1
_geom_bond_atom_site_label_2
_geom_bond_distance
_geom_bond_site_symmetry_2
Mo0 O41 1.786900 1_555
Mo0 O54 1.792248 1_555
Mo0 O60 1.797264 1_555
Mo0 O25 1.799610 1_555
Mo1 O21 1.786900 1_555
Mo1 O34 1.792248 1_555
Mo1 O0 1.797264 1_555
Mo1 O31 1.799610 1_555
Mo2 O16 1.740825 1_554
Mo2 O33 1.809523 1_555
Mo2 O17 1.824508 1_545
Mo2 O56 1.833634 1_555
Mo3 O2 1.740825 1_555
Mo3 O15 1.809523 1_555
Mo3 O53 1.824508 1_555
Mo3 O43 1.833634 1_555
Mo4 O26 1.740825 1_556
Mo4 O13 1.809523 1_555
Mo4 O28 1.824508 1_555
Mo4 O7 1.833634 1_555
Mo5 O49 1.786900 1_555
Mo5 O37 1.792248 1_655
Mo5 O8 1.797264 1_555
Mo5 O23 1.799610 1_655
Mo6 O55 1.740825 1_555
Mo6 O3 1.809523 1_555
Mo6 O61 1.824508 1_545
Mo6 O63 1.833634 1_555
Mo7 O62 1.748059 1_555
Mo7 O35 1.811937 1_655
Mo7 O39 1.813608 1_555
Mo7 O27 1.829062 1_555
Mo8 O14 1.748059 1_555
Mo8 O22 1.811937 1_555
Mo8 O10 1.813608 1_555
Mo8 O45 1.829062 1_555
Mo9 O9 1.748059 1_555
Mo9 O20 1.811937 1_455
Mo9 O38 1.813608 1_555
Mo9 O18 1.829062 1_555
Mo10 O40 1.786900 1_555
Mo10 O12 1.792248 1_455
Mo10 O42 1.797264 1_555
Mo10 O1 1.799610 1_455
Mo11 O5 1.748059 1_555
Mo11 O44 1.811937 1_555
Mo11 O32 1.813608 1_555
Mo11 O24 1.829062 1_555
O0 U4 2.439697 1_556
O0 Rb5 3.189519 1_555
O1 U6 2.394779 1_555
O2 Rb2 3.267474 1_555
O3 U0 2.386100 1_455
O3 Rb6 3.356125 1_445
O4 U4 1.825780 1_556
O4 Rb3 3.121479 1_555
O4 Rb7 3.567317 1_456
O5 Rb1 3.143569 1_545
O6 U2 1.816562 1_555
O6 Rb7 3.191626 1_455
O6 Rb4 3.408714 1_555
O7 U1 2.351708 1_555
O7 Rb5 2.970957 1_655
O8 U0 2.439697 1_555
O8 Rb2 3.189519 1_555
O9 Rb4 3.143569 1_555
O10 U7 2.322320 1_555
O10 Rb2 3.195235 1_555
O11 U6 1.816562 1_555
O11 Rb0 3.191626 1_555
O11 Rb1 3.408714 1_555
O12 U0 2.375237 1_565
O12 Rb0 3.581930 1_555
O13 U4 2.386100 1_556
O13 Rb3 3.356125 1_555
O14 Rb3 3.143569 1_555
O15 U7 2.386100 1_655
O15 Rb4 3.356125 1_655
O16 Rb5 3.267474 1_545
O17 U4 2.383463 1_555
O17 Rb5 3.008889 1_554
O18 U2 2.360509 1_565
O18 Rb1 3.092467 1_455
O19 U0 1.825780 1_555
O19 Rb6 3.121479 1_545
O19 Rb0 3.567317 1_545
O20 U6 2.385290 1_555
O20 Rb7 3.222300 1_555
O20 Rb1 3.372615 1_555
O21 U5 2.406084 1_565
O21 Rb5 3.455077 1_555
O22 U1 2.385290 1_555
O22 Rb2 3.222300 1_555
O22 Rb6 3.372615 1_555
O23 U5 2.394779 1_555
O24 U6 2.360509 1_555
O24 Rb4 3.092467 1_555
O25 U2 2.394779 1_555
O26 Rb7 3.267474 1_555
O27 U1 2.360509 1_555
O27 Rb3 3.092467 1_655
O28 U3 2.383463 1_555
O28 Rb7 3.008889 1_556
O29 U3 1.825780 1_554
O29 Rb1 3.121479 1_545
O29 Rb5 3.567317 1_644
O30 U5 1.823662 1_565
O30 Rb6 2.967919 1_455
O31 U1 2.394779 1_555
O32 U0 2.322320 1_555
O32 Rb0 3.195235 1_545
O33 U3 2.386100 1_554
O33 Rb1 3.356125 1_545
O34 U3 2.375237 1_565
O34 Rb5 3.581930 1_655
O35 U5 2.385290 1_555
O35 Rb5 3.222300 1_545
O35 Rb3 3.372615 1_555
O36 U1 1.823662 1_555
O36 Rb3 2.967919 1_555
O37 U7 2.375237 1_555
O37 Rb2 3.581930 1_555
O38 U4 2.322320 1_555
O38 Rb7 3.195235 1_455
O39 U3 2.322320 1_555
O39 Rb5 3.195235 1_645
O40 U2 2.406084 1_565
O40 Rb0 3.455077 1_555
O41 U6 2.406084 1_555
O41 Rb7 3.455077 1_555
O42 U7 2.439697 1_555
O42 Rb0 3.189519 1_555
O43 U6 2.351708 1_555
O43 Rb0 2.970957 1_555
O44 U2 2.385290 1_555
O44 Rb0 3.222300 1_545
O44 Rb4 3.372615 1_555
O45 U5 2.360509 1_565
O45 Rb6 3.092467 1_555
O46 U4 1.812219 1_555
O46 Rb1 2.936123 1_555
O47 U5 1.816562 1_555
O47 Rb2 3.191626 1_555
O47 Rb3 3.408714 1_555
O48 U7 1.812219 1_555
O48 Rb6 2.936123 1_455
O49 U1 2.406084 1_555
O49 Rb2 3.455077 1_555
O50 U3 1.812219 1_555
O50 Rb3 2.936123 1_555
O51 U0 1.812219 1_555
O51 Rb4 2.936123 1_655
O52 U7 1.825780 1_555
O52 Rb4 3.121479 1_555
O52 Rb2 3.567317 1_555
O53 U0 2.383463 1_555
O53 Rb2 3.008889 1_555
O54 U4 2.375237 1_555
O54 Rb7 3.581930 1_455
O55 Rb0 3.267474 1_545
O56 U2 2.351708 1_555
O56 Rb7 2.970957 1_455
O57 U1 1.816562 1_555
O57 Rb5 3.191626 1_655
O57 Rb6 3.408714 1_555
O58 U2 1.823662 1_565
O58 Rb1 2.967919 1_555
O59 U6 1.823662 1_555
O59 Rb4 2.967919 1_655
O60 U3 2.439697 1_554
O60 Rb7 3.189519 1_555
O61 U7 2.383463 1_555
O61 Rb0 3.008889 1_555
O62 Rb6 3.143569 1_545
O63 U5 2.351708 1_555
O63 Rb2 2.970957 1_555
