# generated using pymatgen
data_CaZnSiH2O5
_symmetry_space_group_name_H-M   'P 1'
_cell_length_a   8.45458657
_cell_length_b   8.45458657
_cell_length_c   5.47397212
_cell_angle_alpha   85.97637128
_cell_angle_beta   85.97637128
_cell_angle_gamma   144.42206990
_symmetry_Int_Tables_number   1
_chemical_formula_structural   CaZnSiH2O5
_chemical_formula_sum   'Ca2 Zn2 Si2 H4 O10'
_cell_volume   221.56475709
_cell_formula_units_Z   2
loop_
 _symmetry_equiv_pos_site_id
 _symmetry_equiv_pos_as_xyz
  1  'x, y, z'
loop_
 _atom_site_type_symbol
 _atom_site_label
 _atom_site_symmetry_multiplicity
 _atom_site_fract_x
 _atom_site_fract_y
 _atom_site_fract_z
 _atom_site_occupancy
  Ca  Ca0  1  0.22005400  0.07648700  0.14441900  1
  Ca  Ca1  1  0.07648700  0.22005400  0.64441900  1
  Zn  Zn0  1  0.24148900  0.74218100  0.50316400  1
  Zn  Zn1  1  0.74218100  0.24148900  0.00316400  1
  Si  Si0  1  0.34557500  0.62117100  0.02339800  1
  Si  Si1  1  0.62117100  0.34557500  0.52339800  1
  H  H0  1  0.76195000  0.92770900  0.22682200  1
  H  H1  1  0.92770900  0.76195000  0.72682200  1
  H  H2  1  0.66388200  0.68778400  0.40144800  1
  H  H3  1  0.68778400  0.66388200  0.90144800  1
  O  O0  1  0.81317300  0.89611700  0.36057600  1
  O  O1  1  0.89611700  0.81317300  0.86057600  1
  O  O2  1  0.95489700  0.66828300  0.45686700  1
  O  O3  1  0.66828300  0.95489700  0.95686700  1
  O  O4  1  0.15051100  0.56374200  0.85137500  1
  O  O5  1  0.56374200  0.15051100  0.35137500  1
  O  O6  1  0.20750200  0.52481800  0.32196600  1
  O  O7  1  0.52481800  0.20750200  0.82196600  1
  O  O8  1  0.43894200  0.34853300  0.44996400  1
  O  O9  1  0.34853300  0.43894200  0.94996400  1
loop_
_geom_bond_atom_site_label_1
_geom_bond_atom_site_label_2
_geom_bond_distance
_geom_bond_site_symmetry_2
Ca0 O7 2.329466 1_554
Ca0 O8 2.358553 1_555
Ca0 O9 2.380952 1_554
Ca0 O2 2.431052 1_445
Ca0 O1 2.456778 1_444
Ca0 O0 2.490301 1_445
Ca0 O5 2.778802 1_555
Ca1 O6 2.329466 1_555
Ca1 O9 2.358553 1_555
Ca1 O8 2.380952 1_555
Ca1 O3 2.431052 1_445
Ca1 O0 2.456778 1_445
Ca1 O1 2.490301 1_445
Ca1 O4 2.778802 1_555
H0 O0 1.000084 1_555
H1 O1 1.000084 1_555
H2 O0 1.017019 1_555
H2 O8 1.692130 1_555
H3 O1 1.017019 1_555
H3 O9 1.692130 1_555
O2 Si1 1.652803 1_555
O2 Zn0 1.992858 1_655
O3 Si0 1.652803 1_556
O3 Zn1 1.992858 1_566
O4 Si0 1.679831 1_556
O4 Zn0 2.000982 1_555
O4 Zn1 2.002846 1_456
O5 Si1 1.679831 1_555
O5 Zn1 2.000982 1_555
O5 Zn0 2.002846 1_545
O6 Si0 1.641944 1_555
O6 Zn0 1.969874 1_555
O7 Si1 1.641944 1_555
O7 Zn1 1.969874 1_556
O8 Si1 1.638308 1_555
O9 Si0 1.638308 1_556
