# generated using pymatgen
data_NaCoP2HO7
_symmetry_space_group_name_H-M   'P 1'
_cell_length_a   6.58094200
_cell_length_b   6.58973097
_cell_length_c   18.65000203
_cell_angle_alpha   84.53203916
_cell_angle_beta   85.91900820
_cell_angle_gamma   88.01032073
_symmetry_Int_Tables_number   1
_chemical_formula_structural   NaCoP2HO7
_chemical_formula_sum   'Na6 Co6 P12 H6 O42'
_cell_volume   802.74824811
_cell_formula_units_Z   6
loop_
 _symmetry_equiv_pos_site_id
 _symmetry_equiv_pos_as_xyz
  1  'x, y, z'
loop_
 _atom_site_type_symbol
 _atom_site_label
 _atom_site_symmetry_multiplicity
 _atom_site_fract_x
 _atom_site_fract_y
 _atom_site_fract_z
 _atom_site_occupancy
  Na  Na0  1  0.31244400  0.61297100  0.08574300  1
  Na  Na1  1  0.64582000  0.61294800  0.41896800  1
  Na  Na2  1  0.94830900  0.34358000  0.25393200  1
  Na  Na3  1  0.05043900  0.65571300  0.74665800  1
  Na  Na4  1  0.28132800  0.34310700  0.58728000  1
  Na  Na5  1  0.61625500  0.34459700  0.92014100  1
  Co  Co0  1  0.49030300  0.14377200  0.20519800  1
  Co  Co1  1  0.83752400  0.85538400  0.12784200  1
  Co  Co2  1  0.82313500  0.14520300  0.53897800  1
  Co  Co3  1  0.17046100  0.85478900  0.46062600  1
  Co  Co4  1  0.15685300  0.14505200  0.87180800  1
  Co  Co5  1  0.50939900  0.85462000  0.79513500  1
  P  P0  1  0.20760100  0.11700400  0.04529900  1
  P  P1  1  0.49925900  0.64199700  0.23950700  1
  P  P2  1  0.54128500  0.11759800  0.37840000  1
  P  P3  1  0.83370600  0.35753300  0.09332100  1
  P  P4  1  0.83316300  0.64275400  0.57301700  1
  P  P5  1  0.87383200  0.11948800  0.71184000  1
  P  P6  1  0.12647800  0.88116900  0.28817700  1
  P  P7  1  0.16673900  0.35713900  0.42664600  1
  P  P8  1  0.16636600  0.64132000  0.90641300  1
  P  P9  1  0.45922600  0.88037200  0.62147400  1
  P  P10  1  0.50026900  0.35850700  0.76007900  1
  P  P11  1  0.79243200  0.88090000  0.95514600  1
  H  H0  1  0.49505300  0.28249700  0.06687000  1
  H  H1  1  0.82851700  0.28237200  0.40028200  1
  H  H2  1  0.84153400  0.71700700  0.26708700  1
  H  H3  1  0.15901700  0.28361500  0.73385500  1
  H  H4  1  0.17452000  0.71645100  0.59937400  1
  H  H5  1  0.50817700  0.71707100  0.93389200  1
  O  O0  1  0.12687100  0.92128200  0.08411800  1
  O  O1  1  0.30944000  0.71290500  0.29268700  1
  O  O2  1  0.36445400  0.20631000  0.09406600  1
  O  O3  1  0.42846600  0.46372400  0.20219200  1
  O  O4  1  0.46016500  0.92099200  0.41754300  1
  O  O5  1  0.54744700  0.82890700  0.18442000  1
  O  O6  1  0.63463000  0.11386100  0.30233300  1
  O  O7  1  0.65905800  0.40482800  0.04368600  1
  O  O8  1  0.67245900  0.59146000  0.28973100  1
  O  O9  1  0.70097800  0.88871700  0.03102300  1
  O  O10  1  0.64308800  0.71326200  0.62597100  1
  O  O11  1  0.69768400  0.20622000  0.42755700  1
  O  O12  1  0.78482600  0.17344500  0.14982000  1
  O  O13  1  0.76224000  0.46426800  0.53579900  1
  O  O14  1  0.79522700  0.92128600  0.75048500  1
  O  O15  1  0.90853400  0.53610800  0.12988400  1
  O  O16  1  0.88213200  0.82948400  0.51792200  1
  O  O17  1  0.96716300  0.79536800  0.23953100  1
  O  O18  1  0.02449100  0.28644500  0.04064800  1
  O  O19  1  0.96771700  0.11475000  0.63562100  1
  O  O20  1  0.99232400  0.40488500  0.37710000  1
  O  O21  1  0.00740100  0.59263700  0.62283600  1
  O  O22  1  0.03456400  0.88922100  0.36454200  1
  O  O23  1  0.97604900  0.71273800  0.95930900  1
  O  O24  1  0.03242600  0.20397200  0.76098700  1
  O  O25  1  0.11754500  0.17290500  0.48306700  1
  O  O26  1  0.09657300  0.46361200  0.86857000  1
  O  O27  1  0.20451800  0.07843900  0.24905300  1
  O  O28  1  0.24200600  0.53536000  0.46332600  1
  O  O29  1  0.21526200  0.82741000  0.85064100  1
  O  O30  1  0.30125600  0.79518200  0.57228000  1
  O  O31  1  0.35779800  0.28617100  0.37402200  1
  O  O32  1  0.30119100  0.11372800  0.96874700  1
  O  O33  1  0.32607300  0.40653600  0.71013600  1
  O  O34  1  0.33899300  0.59218200  0.95671600  1
  O  O35  1  0.36558700  0.88572600  0.69778900  1
  O  O36  1  0.45170400  0.17231500  0.81585400  1
  O  O37  1  0.53732400  0.07873200  0.58290700  1
  O  O38  1  0.56965400  0.53653900  0.79765600  1
  O  O39  1  0.63377700  0.79546300  0.90625600  1
  O  O40  1  0.69058600  0.28709100  0.70731200  1
  O  O41  1  0.87154200  0.07860400  0.91553700  1
loop_
_geom_bond_atom_site_label_1
_geom_bond_atom_site_label_2
_geom_bond_distance
_geom_bond_site_symmetry_2
Na0 O0 2.332670 1_555
Na0 O34 2.416848 1_554
Na0 O3 2.458387 1_555
Na0 O2 2.680877 1_555
Na0 O7 2.726320 1_555
Na0 O15 2.775313 1_455
Na0 O5 2.976640 1_555
Na1 O4 2.331564 1_555
Na1 O8 2.421439 1_555
Na1 O13 2.464378 1_555
Na1 O11 2.681085 1_555
Na1 O20 2.724506 1_555
Na1 O28 2.776473 1_555
Na1 O16 2.987455 1_555
Na2 O27 2.389107 1_655
Na2 O20 2.409021 1_555
Na2 O8 2.497776 1_555
Na2 O15 2.556199 1_555
Na2 O12 2.642080 1_555
Na2 O6 2.656892 1_555
Na3 O14 2.385638 1_455
Na3 O21 2.422800 1_555
Na3 O33 2.506183 1_555
Na3 O26 2.527297 1_555
Na3 O29 2.649586 1_555
Na3 O35 2.667472 1_555
Na4 O37 2.384049 1_555
Na4 O33 2.407988 1_555
Na4 O21 2.495017 1_555
Na4 O28 2.553502 1_555
Na4 O25 2.644756 1_555
Na4 O19 2.651233 1_455
Na5 O41 2.388708 1_555
Na5 O7 2.412520 1_556
Na5 O34 2.506931 1_555
Na5 O38 2.536583 1_555
Na5 O36 2.655253 1_555
Na5 O32 2.669091 1_555
Co0 O27 2.040011 1_555
Co0 O6 2.094425 1_555
Co0 O3 2.129608 1_555
Co0 O12 2.136489 1_555
Co0 O5 2.162175 1_545
Co0 O2 2.282393 1_555
Co1 O0 2.061151 1_655
Co1 O9 2.063455 1_555
Co1 O5 2.118818 1_555
Co1 O15 2.136679 1_555
Co1 O12 2.185006 1_565
Co1 O17 2.301233 1_555
Co2 O37 2.042149 1_555
Co2 O19 2.087131 1_555
Co2 O13 2.122724 1_555
Co2 O25 2.138982 1_655
Co2 O16 2.170566 1_545
Co2 O11 2.285444 1_555
Co3 O22 2.049141 1_555
Co3 O4 2.060020 1_555
Co3 O16 2.114116 1_455
Co3 O28 2.137614 1_555
Co3 O25 2.187846 1_565
Co3 O30 2.303717 1_555
Co4 O41 2.037982 1_455
Co4 O32 2.091201 1_555
Co4 O26 2.118770 1_555
Co4 O36 2.141651 1_555
Co4 O29 2.182884 1_545
Co4 O24 2.271309 1_555
Co5 O14 2.046794 1_555
Co5 O35 2.096174 1_555
Co5 O38 2.116391 1_555
Co5 O29 2.134060 1_555
Co5 O36 2.180461 1_565
Co5 O39 2.276431 1_555
H0 O2 1.080453 1_555
H0 O7 1.388981 1_555
H0 Na0 2.492939 1_555
H1 O11 1.082092 1_555
H1 O20 1.388657 1_555
H1 Na1 2.493120 1_555
H2 O17 1.064369 1_555
H2 O8 1.425237 1_555
H2 Na2 2.565123 1_555
H3 O24 1.070175 1_555
H3 O33 1.408825 1_555
H3 Na3 2.558447 1_555
H4 O30 1.067815 1_555
H4 O21 1.411558 1_555
H4 Na4 2.561408 1_555
H5 O39 1.064889 1_555
H5 O34 1.423918 1_555
H5 Na5 2.563009 1_555
O0 P0 1.511538 1_565
O1 P6 1.609424 1_555
O1 P1 1.622940 1_555
O2 P0 1.586464 1_555
O3 P1 1.523616 1_555
O4 P2 1.519459 1_565
O5 P1 1.553289 1_555
O6 P2 1.507350 1_555
O7 P3 1.531868 1_555
O8 P1 1.534149 1_555
O9 P11 1.502639 1_554
O10 P9 1.608751 1_555
O10 P4 1.620852 1_555
O11 P2 1.587127 1_555
O12 P3 1.555831 1_555
O13 P4 1.524090 1_555
O14 P5 1.519008 1_565
O15 P3 1.527485 1_555
O16 P4 1.553457 1_555
O17 P6 1.586293 1_655
O18 P0 1.615350 1_555
O18 P3 1.622394 1_455
O19 P5 1.511769 1_555
O20 P7 1.529963 1_655
O21 P4 1.534279 1_455
O22 P6 1.512157 1_555
O23 P11 1.611877 1_555
O23 P8 1.623283 1_655
O24 P5 1.585292 1_455
O25 P7 1.556056 1_555
O26 P8 1.523623 1_555
O27 P6 1.516017 1_545
O28 P7 1.527853 1_555
O29 P8 1.557529 1_555
O30 P9 1.584955 1_555
O31 P2 1.613183 1_555
O31 P7 1.622914 1_555
O32 P0 1.515888 1_556
O33 P10 1.533793 1_555
O34 P8 1.530961 1_555
O35 P9 1.513249 1_555
O36 P10 1.557648 1_555
O37 P9 1.518214 1_545
O38 P10 1.521654 1_555
O39 P11 1.585134 1_555
O40 P5 1.607938 1_555
O40 P10 1.621884 1_555
O41 P11 1.524142 1_545
