# generated using pymatgen
data_BaNdFe2O5
_symmetry_space_group_name_H-M   'P 1'
_cell_length_a   4.03004600
_cell_length_b   4.03004600
_cell_length_c   7.76431300
_cell_angle_alpha   90.00000000
_cell_angle_beta   90.00000000
_cell_angle_gamma   90.00000000
_symmetry_Int_Tables_number   1
_chemical_formula_structural   BaNdFe2O5
_chemical_formula_sum   'Ba1 Nd1 Fe2 O5'
_cell_volume   126.10230971
_cell_formula_units_Z   1
loop_
 _symmetry_equiv_pos_site_id
 _symmetry_equiv_pos_as_xyz
  1  'x, y, z'
loop_
 _atom_site_type_symbol
 _atom_site_label
 _atom_site_symmetry_multiplicity
 _atom_site_fract_x
 _atom_site_fract_y
 _atom_site_fract_z
 _atom_site_occupancy
  Ba  Ba0  1  0.50000000  0.50000000  0.00000000  1
  Nd  Nd0  1  0.50000000  0.50000000  0.50000000  1
  Fe  Fe0  1  0.00000000  0.00000000  0.26216500  1
  Fe  Fe1  1  0.00000000  0.00000000  0.73783500  1
  O  O0  1  0.00000000  0.50000000  0.69363600  1
  O  O1  1  0.50000000  0.00000000  0.30636400  1
  O  O2  1  0.00000000  0.50000000  0.30636400  1
  O  O3  1  0.00000000  0.00000000  0.00000000  1
  O  O4  1  0.50000000  0.00000000  0.69363600  1
loop_
_geom_bond_atom_site_label_1
_geom_bond_atom_site_label_2
_geom_bond_distance
_geom_bond_site_symmetry_2
Ba0 O3 2.849673 1_665
Ba0 O3 2.849673 1_655
Ba0 O3 2.849673 1_555
Ba0 O3 2.849673 1_565
Ba0 O0 3.117460 1_554
Ba0 O4 3.117460 1_564
Ba0 O4 3.117460 1_554
Ba0 O0 3.117460 1_654
Ba0 O1 3.117460 1_555
Ba0 O2 3.117460 1_655
Ba0 O1 3.117460 1_565
Ba0 O2 3.117460 1_555
Nd0 O0 2.514096 1_555
Nd0 O2 2.514096 1_555
Nd0 O0 2.514096 1_655
Nd0 O4 2.514096 1_555
Nd0 O1 2.514096 1_555
Nd0 O2 2.514096 1_655
Nd0 O4 2.514096 1_565
Nd0 O1 2.514096 1_565
Fe0 O3 2.035531 1_555
Fe0 O1 2.044037 1_555
Fe0 O2 2.044037 1_545
Fe0 O2 2.044037 1_555
Fe0 O1 2.044037 1_455
Fe1 O3 2.035531 1_556
Fe1 O4 2.044037 1_555
Fe1 O0 2.044037 1_545
Fe1 O0 2.044037 1_555
Fe1 O4 2.044037 1_455
