# generated using pymatgen
data_Fe2MoC10(SeO5)2
_symmetry_space_group_name_H-M   'P 1'
_cell_length_a   6.88925600
_cell_length_b   9.50959049
_cell_length_c   13.82779891
_cell_angle_alpha   81.86479696
_cell_angle_beta   82.22991284
_cell_angle_gamma   85.42508993
_symmetry_Int_Tables_number   1
_chemical_formula_structural   Fe2MoC10(SeO5)2
_chemical_formula_sum   'Fe4 Mo2 C20 Se4 O20'
_cell_volume   886.86501788
_cell_formula_units_Z   2
loop_
 _symmetry_equiv_pos_site_id
 _symmetry_equiv_pos_as_xyz
  1  'x, y, z'
loop_
 _atom_site_type_symbol
 _atom_site_label
 _atom_site_symmetry_multiplicity
 _atom_site_fract_x
 _atom_site_fract_y
 _atom_site_fract_z
 _atom_site_occupancy
  Fe  Fe0  1  0.28557700  0.00314600  0.27330300  1
  Fe  Fe1  1  0.71442300  0.99685400  0.72669700  1
  Fe  Fe2  1  0.64379200  0.67287700  0.63438400  1
  Fe  Fe3  1  0.35620800  0.32712300  0.36561600  1
  Mo  Mo0  1  0.60549200  0.72607200  0.83400400  1
  Mo  Mo1  1  0.39450800  0.27392800  0.16599600  1
  C  C0  1  0.54772300  0.13514400  0.77496500  1
  C  C1  1  0.21048100  0.24868600  0.06546600  1
  C  C2  1  0.72720500  0.52213500  0.85949300  1
  C  C3  1  0.91358200  0.04970900  0.78516800  1
  C  C4  1  0.20873500  0.49287500  0.36788200  1
  C  C5  1  0.78951900  0.75131400  0.93453400  1
  C  C6  1  0.57494000  0.41357900  0.37655600  1
  C  C7  1  0.27279500  0.47786500  0.14050700  1
  C  C8  1  0.42645100  0.84494300  0.92729700  1
  C  C9  1  0.45227700  0.86485600  0.22503500  1
  C  C10  1  0.57354900  0.15505700  0.07270300  1
  C  C11  1  0.77315900  0.08390400  0.60558600  1
  C  C12  1  0.69863200  0.74867400  0.50992800  1
  C  C13  1  0.63683700  0.39154800  0.13743700  1
  C  C14  1  0.30136800  0.25132600  0.49007200  1
  C  C15  1  0.42506000  0.58642100  0.62344400  1
  C  C16  1  0.22684100  0.91609600  0.39441400  1
  C  C17  1  0.36316300  0.60845200  0.86256300  1
  C  C18  1  0.08641800  0.95029100  0.21483200  1
  C  C19  1  0.79126500  0.50712500  0.63211800  1
  Se  Se0  1  0.44713300  0.87531900  0.68789800  1
  Se  Se1  1  0.55286700  0.12468100  0.31210200  1
  Se  Se2  1  0.90008800  0.77914400  0.69689500  1
  Se  Se3  1  0.09991200  0.22085600  0.30310500  1
  O  O0  1  0.19260700  0.86168100  0.47476800  1
  O  O1  1  0.79042400  0.40572300  0.87660700  1
  O  O2  1  0.26773300  0.20126700  0.57159500  1
  O  O3  1  0.28785900  0.52997600  0.61288200  1
  O  O4  1  0.89501500  0.76807800  0.98997700  1
  O  O5  1  0.80739300  0.13831900  0.52523200  1
  O  O6  1  0.22599100  0.54137900  0.87692100  1
  O  O7  1  0.04143200  0.08431000  0.82076200  1
  O  O8  1  0.32507000  0.90917600  0.98182700  1
  O  O9  1  0.10498500  0.23192200  0.01002300  1
  O  O10  1  0.95856800  0.91569000  0.17923800  1
  O  O11  1  0.67493000  0.09082400  0.01817300  1
  O  O12  1  0.20957600  0.59427700  0.12339300  1
  O  O13  1  0.71214100  0.47002400  0.38711800  1
  O  O14  1  0.44772200  0.22842200  0.80311900  1
  O  O15  1  0.11729700  0.60038100  0.37009500  1
  O  O16  1  0.73226700  0.79873300  0.42840500  1
  O  O17  1  0.77400900  0.45862100  0.12307900  1
  O  O18  1  0.55227800  0.77157800  0.19688100  1
  O  O19  1  0.88270300  0.39961900  0.62990500  1
loop_
_geom_bond_atom_site_label_1
_geom_bond_atom_site_label_2
_geom_bond_distance
_geom_bond_site_symmetry_2
Fe0 Se3 2.401806 1_555
Fe0 Se1 2.407609 1_555
Fe1 Se2 2.401806 1_555
Fe1 Se0 2.407609 1_555
Fe2 Se0 2.409424 1_555
Fe2 Se2 2.414665 1_555
Fe3 Se1 2.409424 1_555
Fe3 Se3 2.414665 1_555
Mo0 Se2 2.611593 1_555
Mo0 Se0 2.612229 1_555
Mo1 Se3 2.611593 1_555
Mo1 Se1 2.612229 1_555
C0 O14 1.157906 1_555
C0 Fe1 1.814952 1_545
C1 O9 1.159799 1_555
C1 Mo1 2.053507 1_555
C2 O1 1.161042 1_555
C2 Mo0 2.053163 1_555
C3 O7 1.155681 1_655
C3 Fe1 1.820407 1_545
C4 O15 1.159242 1_555
C4 Fe3 1.807654 1_555
C5 O4 1.159799 1_555
C5 Mo0 2.053507 1_555
C6 O13 1.159021 1_555
C6 Fe3 1.806671 1_555
C7 O12 1.161042 1_555
C7 Mo1 2.053163 1_555
C8 O8 1.161630 1_555
C8 Mo0 2.055113 1_555
C9 O18 1.157906 1_555
C9 Fe0 1.814952 1_565
C10 O11 1.161630 1_555
C10 Mo1 2.055113 1_555
C11 O5 1.159251 1_555
C11 Fe1 1.769594 1_545
C12 O16 1.160244 1_555
C12 Fe2 1.772153 1_555
C13 O17 1.161416 1_555
C13 Mo1 2.046645 1_555
C14 O2 1.160244 1_555
C14 Fe3 1.772153 1_555
C15 O3 1.159021 1_555
C15 Fe2 1.806671 1_555
C16 O0 1.159251 1_555
C16 Fe0 1.769594 1_565
C17 O6 1.161416 1_555
C17 Mo0 2.046645 1_555
C18 O10 1.155681 1_455
C18 Fe0 1.820407 1_565
C19 O19 1.159242 1_555
C19 Fe2 1.807654 1_555
