# generated using pymatgen
data_YH2C4O9
_symmetry_space_group_name_H-M   'P 1'
_cell_length_a   8.79013600
_cell_length_b   8.79013600
_cell_length_c   12.89031500
_cell_angle_alpha   90.00000000
_cell_angle_beta   90.00000000
_cell_angle_gamma   90.00000000
_symmetry_Int_Tables_number   1
_chemical_formula_structural   YH2C4O9
_chemical_formula_sum   'Y4 H8 C16 O36'
_cell_volume   995.98940663
_cell_formula_units_Z   4
loop_
 _symmetry_equiv_pos_site_id
 _symmetry_equiv_pos_as_xyz
  1  'x, y, z'
loop_
 _atom_site_type_symbol
 _atom_site_label
 _atom_site_symmetry_multiplicity
 _atom_site_fract_x
 _atom_site_fract_y
 _atom_site_fract_z
 _atom_site_occupancy
  Y  Y0  1  0.00000000  0.50000000  0.96028800  1
  Y  Y1  1  0.00000000  0.50000000  0.46028800  1
  Y  Y2  1  0.50000000  0.00000000  0.53971200  1
  Y  Y3  1  0.50000000  0.00000000  0.03971200  1
  H  H0  1  0.08969300  0.49825800  0.72758600  1
  H  H1  1  0.91030700  0.50174200  0.72758600  1
  H  H2  1  0.99825800  0.41030700  0.22758600  1
  H  H3  1  0.00174200  0.58969300  0.22758600  1
  H  H4  1  0.41030700  0.00174200  0.77241400  1
  H  H5  1  0.58969300  0.99825800  0.77241400  1
  H  H6  1  0.50174200  0.08969300  0.27241400  1
  H  H7  1  0.49825800  0.91030700  0.27241400  1
  C  C0  1  0.28808300  0.27512800  0.94620700  1
  C  C1  1  0.71191700  0.72487200  0.94620700  1
  C  C2  1  0.77512800  0.21191700  0.44620700  1
  C  C3  1  0.22487200  0.78808300  0.44620700  1
  C  C4  1  0.21191700  0.22487200  0.55379300  1
  C  C5  1  0.78808300  0.77512800  0.55379300  1
  C  C6  1  0.72487200  0.28808300  0.05379300  1
  C  C7  1  0.27512800  0.71191700  0.05379300  1
  C  C8  1  0.20459200  0.22467900  0.05529800  1
  C  C9  1  0.79540800  0.77532100  0.05529800  1
  C  C10  1  0.72467900  0.29540800  0.55529800  1
  C  C11  1  0.27532100  0.70459200  0.55529800  1
  C  C12  1  0.29540800  0.27532100  0.44470200  1
  C  C13  1  0.70459200  0.72467900  0.44470200  1
  C  C14  1  0.77532100  0.20459200  0.94470200  1
  C  C15  1  0.22467900  0.79540800  0.94470200  1
  O  O0  1  0.22027100  0.37688100  0.89670100  1
  O  O1  1  0.77972900  0.62311900  0.89670100  1
  O  O2  1  0.87688100  0.27972900  0.39670100  1
  O  O3  1  0.12311900  0.72027100  0.39670100  1
  O  O4  1  0.27972900  0.12311900  0.60329900  1
  O  O5  1  0.72027100  0.87688100  0.60329900  1
  O  O6  1  0.62311900  0.22027100  0.10329900  1
  O  O7  1  0.37688100  0.77972900  0.10329900  1
  O  O8  1  0.40931000  0.20571100  0.92748800  1
  O  O9  1  0.59069000  0.79428900  0.92748800  1
  O  O10  1  0.70571100  0.09069000  0.42748800  1
  O  O11  1  0.29428900  0.90931000  0.42748800  1
  O  O12  1  0.09069000  0.29428900  0.57251200  1
  O  O13  1  0.90931000  0.70571100  0.57251200  1
  O  O14  1  0.79428900  0.40931000  0.07251200  1
  O  O15  1  0.20571100  0.59069000  0.07251200  1
  O  O16  1  0.26989700  0.11799000  0.10153000  1
  O  O17  1  0.73010300  0.88201000  0.10153000  1
  O  O18  1  0.61799000  0.23010300  0.60153000  1
  O  O19  1  0.38201000  0.76989700  0.60153000  1
  O  O20  1  0.23010300  0.38201000  0.39847000  1
  O  O21  1  0.76989700  0.61799000  0.39847000  1
  O  O22  1  0.88201000  0.26989700  0.89847000  1
  O  O23  1  0.11799000  0.73010300  0.89847000  1
  O  O24  1  0.08755300  0.29911100  0.07746300  1
  O  O25  1  0.91244700  0.70088900  0.07746300  1
  O  O26  1  0.79911100  0.41244700  0.57746300  1
  O  O27  1  0.20088900  0.58755300  0.57746300  1
  O  O28  1  0.41244700  0.20088900  0.42253700  1
  O  O29  1  0.58755300  0.79911100  0.42253700  1
  O  O30  1  0.70088900  0.08755300  0.92253700  1
  O  O31  1  0.29911100  0.91244700  0.92253700  1
  O  O32  1  0.00000000  0.50000000  0.77220800  1
  O  O33  1  0.00000000  0.50000000  0.27220800  1
  O  O34  1  0.50000000  0.00000000  0.72779200  1
  O  O35  1  0.50000000  0.00000000  0.22779200  1
loop_
_geom_bond_atom_site_label_1
_geom_bond_atom_site_label_2
_geom_bond_distance
_geom_bond_site_symmetry_2
H0 O32 0.976051 1_555
H1 O32 0.976051 1_655
H2 O33 0.976051 1_655
H3 O33 0.976051 1_555
H4 O34 0.976051 1_555
H5 O34 0.976051 1_565
H6 O35 0.976051 1_555
H7 O35 0.976051 1_565
C0 O0 1.250013 1_555
C0 O8 1.251421 1_555
C1 O1 1.250013 1_555
C1 O9 1.251421 1_555
C2 O2 1.250013 1_555
C2 O10 1.251421 1_555
C3 O3 1.250013 1_555
C3 O11 1.251421 1_555
C4 O4 1.250013 1_555
C4 O12 1.251421 1_555
C5 O5 1.250013 1_555
C5 O13 1.251421 1_555
C6 O6 1.250013 1_555
C6 O14 1.251421 1_555
C7 O7 1.250013 1_555
C7 O15 1.251421 1_555
C8 O16 1.250664 1_555
C8 O24 1.252240 1_555
C9 O17 1.250664 1_555
C9 O25 1.252240 1_555
C10 O18 1.250664 1_555
C10 O26 1.252240 1_555
C11 O19 1.250664 1_555
C11 O27 1.252240 1_555
C12 O20 1.250664 1_555
C12 O28 1.252240 1_555
C13 O21 1.250664 1_555
C13 O29 1.252240 1_555
C14 O22 1.250664 1_555
C14 O30 1.252240 1_555
C15 O23 1.250664 1_555
C15 O31 1.252240 1_555
O0 Y0 2.364737 1_555
O1 Y0 2.364737 1_655
O2 Y1 2.364737 1_655
O3 Y1 2.364737 1_555
O4 Y2 2.364737 1_555
O5 Y2 2.364737 1_565
O6 Y3 2.364737 1_555
O7 Y3 2.364737 1_565
O8 Y3 2.449049 1_556
O9 Y3 2.449049 1_566
O10 Y2 2.449049 1_555
O11 Y2 2.449049 1_565
O12 Y1 2.449049 1_555
O13 Y1 2.449049 1_655
O14 Y0 2.449049 1_654
O15 Y0 2.449049 1_554
O16 Y3 2.408674 1_555
O17 Y3 2.408674 1_565
O18 Y2 2.408674 1_555
O19 Y2 2.408674 1_565
O20 Y1 2.408674 1_555
O21 Y1 2.408674 1_655
O22 Y0 2.408674 1_655
O23 Y0 2.408674 1_555
O24 Y0 2.447828 1_554
O25 Y0 2.447828 1_654
O26 Y1 2.447828 1_655
O27 Y1 2.447828 1_555
O28 Y2 2.447828 1_555
O29 Y2 2.447828 1_565
O30 Y3 2.447828 1_556
O31 Y3 2.447828 1_566
O32 Y0 2.424410 1_555
O33 Y1 2.424410 1_555
O34 Y2 2.424410 1_555
O35 Y3 2.424410 1_555
