# generated using pymatgen
data_KB5O8
_symmetry_space_group_name_H-M   'P 1'
_cell_length_a   8.18169500
_cell_length_b   12.47873600
_cell_length_c   17.19859700
_cell_angle_alpha   90.00000000
_cell_angle_beta   90.00000000
_cell_angle_gamma   90.00000000
_symmetry_Int_Tables_number   1
_chemical_formula_structural   KB5O8
_chemical_formula_sum   'K8 B40 O64'
_cell_volume   1755.92880294
_cell_formula_units_Z   8
loop_
 _symmetry_equiv_pos_site_id
 _symmetry_equiv_pos_as_xyz
  1  'x, y, z'
loop_
 _atom_site_type_symbol
 _atom_site_label
 _atom_site_symmetry_multiplicity
 _atom_site_fract_x
 _atom_site_fract_y
 _atom_site_fract_z
 _atom_site_occupancy
  K  K0  1  0.59824900  0.14137000  0.82427500  1
  K  K1  1  0.40175100  0.85863000  0.17572500  1
  K  K2  1  0.09824900  0.14137000  0.67572500  1
  K  K3  1  0.90175100  0.85863000  0.32427500  1
  K  K4  1  0.90175100  0.64137000  0.82427500  1
  K  K5  1  0.40175100  0.64137000  0.67572500  1
  K  K6  1  0.09824900  0.35863000  0.17572500  1
  K  K7  1  0.59824900  0.35863000  0.32427500  1
  B  B0  1  0.53457100  0.06899600  0.55454200  1
  B  B1  1  0.43924900  0.77682400  0.98129100  1
  B  B2  1  0.76795900  0.44680100  0.49125900  1
  B  B3  1  0.70863400  0.86027900  0.98913300  1
  B  B4  1  0.29136600  0.36027900  0.51086700  1
  B  B5  1  0.72190500  0.22889900  0.18931100  1
  B  B6  1  0.93924900  0.77682400  0.51870900  1
  B  B7  1  0.72190500  0.27110100  0.68931100  1
  B  B8  1  0.23204100  0.94680100  0.00874100  1
  B  B9  1  0.73204100  0.55319900  0.99125900  1
  B  B10  1  0.70863400  0.63972100  0.48913300  1
  B  B11  1  0.46542900  0.93100400  0.44545800  1
  B  B12  1  0.29136600  0.13972100  0.01086700  1
  B  B13  1  0.53457100  0.43100400  0.05454200  1
  B  B14  1  0.06075100  0.22317600  0.48129100  1
  B  B15  1  0.43924900  0.72317600  0.48129100  1
  B  B16  1  0.79136600  0.13972100  0.48913300  1
  B  B17  1  0.96542900  0.93100400  0.05454200  1
  B  B18  1  0.79136600  0.36027900  0.98913300  1
  B  B19  1  0.26795900  0.05319900  0.50874100  1
  B  B20  1  0.22190500  0.27110100  0.81068900  1
  B  B21  1  0.03457100  0.43100400  0.44545800  1
  B  B22  1  0.26795900  0.44680100  0.00874100  1
  B  B23  1  0.96542900  0.56899600  0.55454200  1
  B  B24  1  0.73204100  0.94680100  0.49125900  1
  B  B25  1  0.20863400  0.63972100  0.01086700  1
  B  B26  1  0.20863400  0.86027900  0.51086700  1
  B  B27  1  0.03457100  0.06899600  0.94545800  1
  B  B28  1  0.22190500  0.22889900  0.31068900  1
  B  B29  1  0.76795900  0.05319900  0.99125900  1
  B  B30  1  0.27809500  0.77110100  0.81068900  1
  B  B31  1  0.27809500  0.72889900  0.31068900  1
  B  B32  1  0.77809500  0.77110100  0.68931100  1
  B  B33  1  0.93924900  0.72317600  0.01870900  1
  B  B34  1  0.06075100  0.27682400  0.98129100  1
  B  B35  1  0.56075100  0.27682400  0.51870900  1
  B  B36  1  0.56075100  0.22317600  0.01870900  1
  B  B37  1  0.23204100  0.55319900  0.50874100  1
  B  B38  1  0.77809500  0.72889900  0.18931100  1
  B  B39  1  0.46542900  0.56899600  0.94545800  1
  O  O0  1  0.84375800  0.86000100  0.50966800  1
  O  O1  1  0.60574200  0.77619500  0.97819000  1
  O  O2  1  0.87906900  0.47719400  0.55642200  1
  O  O3  1  0.68899400  0.70962200  0.64848600  1
  O  O4  1  0.18899400  0.70962200  0.85151400  1
  O  O5  1  0.37625300  0.67857000  0.26713700  1
  O  O6  1  0.87774000  0.08321100  0.92381000  1
  O  O7  1  0.89425800  0.22380500  0.47819000  1
  O  O8  1  0.89425800  0.27619500  0.97819000  1
  O  O9  1  0.12093100  0.52280600  0.44357800  1
  O  O10  1  0.31100600  0.20962200  0.85151400  1
  O  O11  1  0.37396200  0.66474000  0.98140600  1
  O  O12  1  0.67065100  0.54014700  0.47005200  1
  O  O13  1  0.84375800  0.63999900  0.00966800  1
  O  O14  1  0.10574200  0.77619500  0.52181000  1
  O  O15  1  0.17065100  0.54014700  0.02994800  1
  O  O16  1  0.87396200  0.66474000  0.51859400  1
  O  O17  1  0.15624200  0.13999900  0.49033200  1
  O  O18  1  0.62374700  0.32143000  0.73286300  1
  O  O19  1  0.62374700  0.17857000  0.23286300  1
  O  O20  1  0.12226000  0.58321100  0.57619000  1
  O  O21  1  0.67065100  0.95985300  0.97005200  1
  O  O22  1  0.37906900  0.47719400  0.94357800  1
  O  O23  1  0.32934900  0.04014700  0.02994800  1
  O  O24  1  0.62093100  0.97719400  0.55642200  1
  O  O25  1  0.87625300  0.67857000  0.23286300  1
  O  O26  1  0.37396200  0.83526000  0.48140600  1
  O  O27  1  0.87906900  0.02280600  0.05642200  1
  O  O28  1  0.12603800  0.16474000  0.98140600  1
  O  O29  1  0.65624200  0.13999900  0.00966800  1
  O  O30  1  0.37625300  0.82143000  0.76713700  1
  O  O31  1  0.62226000  0.91678900  0.42381000  1
  O  O32  1  0.15624200  0.36000100  0.99033200  1
  O  O33  1  0.87625300  0.82143000  0.73286300  1
  O  O34  1  0.12374700  0.32143000  0.76713700  1
  O  O35  1  0.32934900  0.45985300  0.52994800  1
  O  O36  1  0.12374700  0.17857000  0.26713700  1
  O  O37  1  0.81100600  0.20962200  0.64848600  1
  O  O38  1  0.31100600  0.29037800  0.35151400  1
  O  O39  1  0.17065100  0.95985300  0.52994800  1
  O  O40  1  0.87396200  0.83526000  0.01859400  1
  O  O41  1  0.37906900  0.02280600  0.44357800  1
  O  O42  1  0.39425800  0.22380500  0.02181000  1
  O  O43  1  0.37774000  0.08321100  0.57619000  1
  O  O44  1  0.12093100  0.97719400  0.94357800  1
  O  O45  1  0.62603800  0.33526000  0.01859400  1
  O  O46  1  0.10574200  0.72380500  0.02181000  1
  O  O47  1  0.81100600  0.29037800  0.14848600  1
  O  O48  1  0.82934900  0.04014700  0.47005200  1
  O  O49  1  0.34375800  0.63999900  0.49033200  1
  O  O50  1  0.62226000  0.58321100  0.92381000  1
  O  O51  1  0.39425800  0.27619500  0.52181000  1
  O  O52  1  0.65624200  0.36000100  0.50966800  1
  O  O53  1  0.68899400  0.79037800  0.14848600  1
  O  O54  1  0.18899400  0.79037800  0.35151400  1
  O  O55  1  0.12603800  0.33526000  0.48140600  1
  O  O56  1  0.62093100  0.52280600  0.05642200  1
  O  O57  1  0.34375800  0.86000100  0.99033200  1
  O  O58  1  0.37774000  0.41678900  0.07619000  1
  O  O59  1  0.82934900  0.45985300  0.97005200  1
  O  O60  1  0.12226000  0.91678900  0.07619000  1
  O  O61  1  0.87774000  0.41678900  0.42381000  1
  O  O62  1  0.60574200  0.72380500  0.47819000  1
  O  O63  1  0.62603800  0.16474000  0.51859400  1
loop_
_geom_bond_atom_site_label_1
_geom_bond_atom_site_label_2
_geom_bond_distance
_geom_bond_site_symmetry_2
K0 O10 2.543224 1_555
K0 O18 2.750247 1_555
K0 O6 2.947241 1_555
K1 O53 2.543224 1_555
K1 O5 2.750247 1_555
K1 O60 2.947241 1_555
K2 O37 2.543224 1_455
K2 O34 2.750247 1_555
K2 O43 2.947241 1_555
K3 O54 2.543224 1_655
K3 O25 2.750247 1_555
K3 O31 2.947241 1_555
K4 O4 2.543224 1_655
K4 O33 2.750247 1_555
K4 O50 2.947241 1_555
K5 O3 2.543224 1_555
K5 O30 2.750247 1_555
K5 O20 2.947241 1_555
K6 O47 2.543224 1_455
K6 O36 2.750247 1_555
K6 O58 2.947241 1_555
K7 O38 2.543224 1_555
K7 O19 2.750247 1_555
K7 O61 2.947241 1_555
B0 O24 1.346338 1_545
B0 O43 1.347791 1_555
B0 O63 1.539395 1_555
B1 O57 1.308396 1_555
B1 O1 1.363261 1_555
B1 O11 1.497197 1_555
B2 O52 1.452213 1_555
B2 O12 1.457301 1_555
B2 O2 1.492060 1_555
B2 O61 1.514159 1_555
B3 O21 1.322202 1_555
B3 O1 1.358327 1_555
B3 O40 1.477803 1_556
B4 O35 1.322202 1_555
B4 O51 1.358327 1_555
B4 O55 1.477803 1_555
B5 O19 1.265091 1_555
B5 O47 1.270037 1_555
B6 O0 1.308396 1_555
B6 O14 1.363261 1_655
B6 O16 1.497197 1_555
B7 O18 1.265091 1_555
B7 O37 1.270037 1_555
B8 O57 1.452213 1_554
B8 O23 1.457301 1_565
B8 O44 1.492060 1_554
B8 O60 1.514159 1_555
B9 O13 1.452213 1_556
B9 O59 1.457301 1_555
B9 O56 1.492060 1_556
B9 O50 1.514159 1_555
B10 O12 1.322202 1_555
B10 O62 1.358327 1_555
B10 O16 1.477803 1_555
B11 O41 1.346338 1_565
B11 O31 1.347791 1_555
B11 O26 1.539395 1_555
B12 O23 1.322202 1_555
B12 O42 1.358327 1_555
B12 O28 1.477803 1_554
B13 O56 1.346338 1_555
B13 O58 1.347791 1_555
B13 O45 1.539395 1_555
B14 O17 1.308396 1_555
B14 O7 1.363261 1_455
B14 O55 1.497197 1_555
B15 O49 1.308396 1_555
B15 O62 1.363261 1_555
B15 O26 1.497197 1_555
B16 O48 1.322202 1_555
B16 O7 1.358327 1_555
B16 O63 1.477803 1_555
B17 O27 1.346338 1_565
B17 O60 1.347791 1_655
B17 O40 1.539395 1_555
B18 O59 1.322202 1_555
B18 O8 1.358327 1_555
B18 O45 1.477803 1_556
B19 O17 1.452213 1_555
B19 O39 1.457301 1_545
B19 O41 1.492060 1_555
B19 O43 1.514159 1_555
B20 O34 1.265091 1_555
B20 O10 1.270037 1_555
B21 O9 1.346338 1_555
B21 O61 1.347791 1_455
B21 O55 1.539395 1_555
B22 O32 1.452213 1_554
B22 O15 1.457301 1_555
B22 O22 1.492060 1_554
B22 O58 1.514159 1_555
B23 O2 1.346338 1_555
B23 O20 1.347791 1_655
B23 O16 1.539395 1_555
B24 O0 1.452213 1_555
B24 O48 1.457301 1_565
B24 O24 1.492060 1_555
B24 O31 1.514159 1_555
B25 O15 1.322202 1_555
B25 O46 1.358327 1_555
B25 O11 1.477803 1_554
B26 O39 1.322202 1_555
B26 O14 1.358327 1_555
B26 O26 1.477803 1_555
B27 O44 1.346338 1_545
B27 O6 1.347791 1_455
B27 O28 1.539395 1_555
B28 O36 1.265091 1_555
B28 O38 1.270037 1_555
B29 O29 1.452213 1_556
B29 O21 1.457301 1_545
B29 O27 1.492060 1_556
B29 O6 1.514159 1_555
B30 O30 1.265091 1_555
B30 O4 1.270037 1_555
B31 O5 1.265091 1_555
B31 O54 1.270037 1_555
B32 O33 1.265091 1_555
B32 O3 1.270037 1_555
B33 O13 1.308396 1_555
B33 O46 1.363261 1_655
B33 O40 1.497197 1_555
B34 O32 1.308396 1_555
B34 O8 1.363261 1_455
B34 O28 1.497197 1_555
B35 O52 1.308396 1_555
B35 O51 1.363261 1_555
B35 O63 1.497197 1_555
B36 O29 1.308396 1_555
B36 O42 1.363261 1_555
B36 O45 1.497197 1_555
B37 O49 1.452213 1_555
B37 O35 1.457301 1_555
B37 O9 1.492060 1_555
B37 O20 1.514159 1_555
B38 O25 1.265091 1_555
B38 O53 1.270037 1_555
B39 O22 1.346338 1_555
B39 O50 1.347791 1_555
B39 O11 1.539395 1_555
