# generated using pymatgen
data_Ca11N8
_symmetry_space_group_name_H-M   'P 1'
_cell_length_a   13.94902200
_cell_length_b   13.94902200
_cell_length_c   3.65894500
_cell_angle_alpha   90.00000000
_cell_angle_beta   90.00000000
_cell_angle_gamma   90.00000000
_symmetry_Int_Tables_number   1
_chemical_formula_structural   Ca11N8
_chemical_formula_sum   'Ca22 N16'
_cell_volume   711.94000916
_cell_formula_units_Z   2
loop_
 _symmetry_equiv_pos_site_id
 _symmetry_equiv_pos_as_xyz
  1  'x, y, z'
loop_
 _atom_site_type_symbol
 _atom_site_label
 _atom_site_symmetry_multiplicity
 _atom_site_fract_x
 _atom_site_fract_y
 _atom_site_fract_z
 _atom_site_occupancy
  Ca  Ca0  1  0.11935500  0.62248500  0.00000000  1
  Ca  Ca1  1  0.67181900  0.67181900  0.00000000  1
  Ca  Ca2  1  0.78887600  0.96974100  0.00000000  1
  Ca  Ca3  1  0.21112400  0.03025900  0.00000000  1
  Ca  Ca4  1  0.17181900  0.82818100  0.50000000  1
  Ca  Ca5  1  0.61935500  0.87751500  0.50000000  1
  Ca  Ca6  1  0.38064500  0.12248500  0.50000000  1
  Ca  Ca7  1  0.88064500  0.37751500  0.00000000  1
  Ca  Ca8  1  0.46974100  0.71112400  0.50000000  1
  Ca  Ca9  1  0.53025900  0.28887600  0.50000000  1
  Ca  Ca10  1  0.32818100  0.32818100  0.00000000  1
  Ca  Ca11  1  0.96974100  0.78887600  0.00000000  1
  Ca  Ca12  1  0.71112400  0.46974100  0.50000000  1
  Ca  Ca13  1  0.12248500  0.38064500  0.50000000  1
  Ca  Ca14  1  0.87751500  0.61935500  0.50000000  1
  Ca  Ca15  1  0.50000000  0.50000000  0.00000000  1
  Ca  Ca16  1  0.62248500  0.11935500  0.00000000  1
  Ca  Ca17  1  0.03025900  0.21112400  0.00000000  1
  Ca  Ca18  1  0.37751500  0.88064500  0.00000000  1
  Ca  Ca19  1  0.28887600  0.53025900  0.50000000  1
  Ca  Ca20  1  0.00000000  0.00000000  0.50000000  1
  Ca  Ca21  1  0.82818100  0.17181900  0.50000000  1
  N  N0  1  0.41333400  0.41333400  0.50000000  1
  N  N1  1  0.20348300  0.20348300  0.00000000  1
  N  N2  1  0.69245900  0.03176600  0.50000000  1
  N  N3  1  0.96823400  0.30754100  0.50000000  1
  N  N4  1  0.29651700  0.70348300  0.50000000  1
  N  N5  1  0.91333400  0.08666600  0.00000000  1
  N  N6  1  0.53176600  0.80754100  0.00000000  1
  N  N7  1  0.70348300  0.29651700  0.50000000  1
  N  N8  1  0.58666600  0.58666600  0.50000000  1
  N  N9  1  0.08666600  0.91333400  0.00000000  1
  N  N10  1  0.80754100  0.53176600  0.00000000  1
  N  N11  1  0.19245900  0.46823400  0.00000000  1
  N  N12  1  0.79651700  0.79651700  0.00000000  1
  N  N13  1  0.46823400  0.19245900  0.00000000  1
  N  N14  1  0.30754100  0.96823400  0.50000000  1
  N  N15  1  0.03176600  0.69245900  0.50000000  1
loop_
_geom_bond_atom_site_label_1
_geom_bond_atom_site_label_2
_geom_bond_distance
_geom_bond_site_symmetry_2
Ca0 N11 2.381060 1_555
Ca0 N15 2.406746 1_555
Ca0 N15 2.406746 1_554
Ca1 N12 2.459904 1_555
Ca1 N8 2.483689 1_555
Ca1 N8 2.483689 1_554
Ca1 N10 2.720428 1_555
Ca1 N6 2.720428 1_555
Ca2 N5 2.382028 1_565
Ca2 N12 2.418655 1_555
Ca2 N2 2.429884 1_564
Ca2 N2 2.429884 1_565
Ca3 N9 2.382028 1_545
Ca3 N1 2.418655 1_555
Ca3 N14 2.429884 1_544
Ca3 N14 2.429884 1_545
Ca4 N4 2.459904 1_555
Ca4 N9 2.483689 1_555
Ca4 N9 2.483689 1_556
Ca4 N14 2.720428 1_555
Ca4 N15 2.720428 1_555
Ca5 N2 2.381060 1_565
Ca5 N6 2.406746 1_556
Ca5 N6 2.406746 1_555
Ca6 N14 2.381060 1_545
Ca6 N13 2.406746 1_555
Ca6 N13 2.406746 1_556
Ca7 N10 2.381060 1_555
Ca7 N3 2.406746 1_554
Ca7 N3 2.406746 1_555
Ca8 N8 2.382028 1_555
Ca8 N4 2.418655 1_555
Ca8 N6 2.429884 1_556
Ca8 N6 2.429884 1_555
Ca9 N0 2.382028 1_555
Ca9 N7 2.418655 1_555
Ca9 N13 2.429884 1_556
Ca9 N13 2.429884 1_555
Ca10 N1 2.459904 1_555
Ca10 N0 2.483689 1_554
Ca10 N0 2.483689 1_555
Ca10 N11 2.720428 1_555
Ca10 N13 2.720428 1_555
Ca11 N9 2.382028 1_655
Ca11 N12 2.418655 1_555
Ca11 N15 2.429884 1_655
Ca11 N15 2.429884 1_654
Ca12 N8 2.382028 1_555
Ca12 N7 2.418655 1_555
Ca12 N10 2.429884 1_556
Ca12 N10 2.429884 1_555
Ca13 N3 2.381060 1_455
Ca13 N11 2.406746 1_556
Ca13 N11 2.406746 1_555
Ca14 N15 2.381060 1_655
Ca14 N10 2.406746 1_556
Ca14 N10 2.406746 1_555
Ca15 N8 2.503972 1_554
Ca15 N0 2.503972 1_555
Ca15 N8 2.503972 1_555
Ca15 N0 2.503972 1_554
Ca16 N13 2.381060 1_555
Ca16 N2 2.406746 1_554
Ca16 N2 2.406746 1_555
Ca17 N5 2.382028 1_455
Ca17 N1 2.418655 1_555
Ca17 N3 2.429884 1_455
Ca17 N3 2.429884 1_454
Ca18 N6 2.381060 1_555
Ca18 N14 2.406746 1_554
Ca18 N14 2.406746 1_555
Ca19 N0 2.382028 1_555
Ca19 N4 2.418655 1_555
Ca19 N11 2.429884 1_556
Ca19 N11 2.429884 1_555
Ca20 N5 2.503972 1_456
Ca20 N9 2.503972 1_545
Ca20 N9 2.503972 1_546
Ca20 N5 2.503972 1_455
Ca21 N7 2.459904 1_555
Ca21 N5 2.483689 1_555
Ca21 N5 2.483689 1_556
Ca21 N3 2.720428 1_555
Ca21 N2 2.720428 1_555
