# generated using pymatgen
data_CdI2
_symmetry_space_group_name_H-M   'P 1'
_cell_length_a   4.34388855
_cell_length_b   4.34388855
_cell_length_c   81.03743400
_cell_angle_alpha   90.00000000
_cell_angle_beta   90.00000000
_cell_angle_gamma   120.00000845
_symmetry_Int_Tables_number   1
_chemical_formula_structural   CdI2
_chemical_formula_sum   'Cd11 I22'
_cell_volume   1324.26110914
_cell_formula_units_Z   11
loop_
 _symmetry_equiv_pos_site_id
 _symmetry_equiv_pos_as_xyz
  1  'x, y, z'
loop_
 _atom_site_type_symbol
 _atom_site_label
 _atom_site_symmetry_multiplicity
 _atom_site_fract_x
 _atom_site_fract_y
 _atom_site_fract_z
 _atom_site_occupancy
  Cd  Cd0  1  0.00000000  0.00000000  0.20453800  1
  Cd  Cd1  1  0.33333300  0.66666700  0.29544600  1
  Cd  Cd2  1  0.66666700  0.33333300  0.84092800  1
  Cd  Cd3  1  0.00000000  0.00000000  0.02272600  1
  Cd  Cd4  1  0.33333300  0.66666700  0.93181100  1
  Cd  Cd5  1  0.33333300  0.66666700  0.47727100  1
  Cd  Cd6  1  0.00000000  0.00000000  0.38638300  1
  Cd  Cd7  1  0.33333300  0.66666700  0.56818400  1
  Cd  Cd8  1  0.33333300  0.66666700  0.11363100  1
  Cd  Cd9  1  0.33333300  0.66666700  0.65906600  1
  Cd  Cd10  1  0.33333300  0.66666700  0.74999400  1
  I  I0  1  0.66666700  0.33333300  0.58953600  1
  I  I1  1  0.66666700  0.33333300  0.40775900  1
  I  I2  1  0.33333300  0.66666700  0.18317200  1
  I  I3  1  0.66666700  0.33333300  0.95315500  1
  I  I4  1  0.00000000  0.00000000  0.45590300  1
  I  I5  1  0.00000000  0.00000000  0.27408600  1
  I  I6  1  0.66666700  0.33333300  0.77135300  1
  I  I7  1  0.66666700  0.33333300  0.04409500  1
  I  I8  1  0.66666700  0.33333300  0.22590100  1
  I  I9  1  0.00000000  0.00000000  0.09226100  1
  I  I10  1  0.33333300  0.66666700  0.00139800  1
  I  I11  1  0.33333300  0.66666700  0.86228700  1
  I  I12  1  0.66666700  0.33333300  0.31683500  1
  I  I13  1  0.00000000  0.00000000  0.54683200  1
  I  I14  1  0.00000000  0.00000000  0.72863400  1
  I  I15  1  0.33333300  0.66666700  0.36502200  1
  I  I16  1  0.66666700  0.33333300  0.68043900  1
  I  I17  1  0.00000000  0.00000000  0.91046100  1
  I  I18  1  0.00000000  0.00000000  0.81955900  1
  I  I19  1  0.66666700  0.33333300  0.13499900  1
  I  I20  1  0.00000000  0.00000000  0.63769400  1
  I  I21  1  0.66666700  0.33333300  0.49864000  1
loop_
_geom_bond_atom_site_label_1
_geom_bond_atom_site_label_2
_geom_bond_distance
_geom_bond_site_symmetry_2
Cd0 I8 3.047432 1_455
Cd0 I8 3.047435 1_445
Cd0 I8 3.047435 1_555
Cd0 I2 3.047570 1_545
Cd0 I2 3.047573 1_555
Cd0 I2 3.047573 1_445
Cd1 I5 3.047294 1_565
Cd1 I5 3.047296 1_555
Cd1 I5 3.047296 1_665
Cd1 I12 3.048629 1_455
Cd1 I12 3.048629 1_565
Cd1 I12 3.048635 1_555
Cd2 I11 3.047247 1_545
Cd2 I11 3.047247 1_655
Cd2 I11 3.047254 1_555
Cd2 I18 3.047708 1_655
Cd2 I18 3.047711 1_555
Cd2 I18 3.047711 1_665
Cd3 I10 3.045821 1_545
Cd3 I10 3.045824 1_445
Cd3 I10 3.045824 1_555
Cd3 I7 3.047708 1_455
Cd3 I7 3.047711 1_555
Cd3 I7 3.047711 1_445
Cd4 I3 3.046557 1_455
Cd4 I3 3.046557 1_565
Cd4 I3 3.046563 1_555
Cd4 I17 3.046833 1_565
Cd4 I17 3.046836 1_555
Cd4 I17 3.046836 1_665
Cd5 I4 3.047662 1_565
Cd5 I4 3.047665 1_555
Cd5 I4 3.047665 1_665
Cd5 I21 3.047708 1_455
Cd5 I21 3.047708 1_565
Cd5 I21 3.047714 1_555
Cd6 I15 3.047340 1_545
Cd6 I15 3.047342 1_445
Cd6 I15 3.047342 1_555
Cd6 I1 3.048030 1_455
Cd6 I1 3.048033 1_445
Cd6 I1 3.048033 1_555
Cd7 I0 3.046925 1_455
Cd7 I0 3.046925 1_565
Cd7 I13 3.046925 1_565
Cd7 I13 3.046928 1_555
Cd7 I13 3.046928 1_665
Cd7 I0 3.046932 1_555
Cd8 I19 3.047662 1_455
Cd8 I19 3.047662 1_565
Cd8 I19 3.047668 1_555
Cd8 I9 3.047754 1_565
Cd8 I9 3.047757 1_555
Cd8 I9 3.047757 1_665
Cd9 I20 3.047846 1_565
Cd9 I20 3.047849 1_555
Cd9 I20 3.047849 1_665
Cd9 I16 3.047892 1_455
Cd9 I16 3.047892 1_565
Cd9 I16 3.047898 1_555
Cd10 I6 3.047247 1_455
Cd10 I6 3.047247 1_565
Cd10 I6 3.047254 1_555
Cd10 I14 3.047294 1_565
Cd10 I14 3.047296 1_555
Cd10 I14 3.047296 1_665
