# generated using pymatgen
data_SiO2
_symmetry_space_group_name_H-M   'P 1'
_cell_length_a   9.77799132
_cell_length_b   7.54459249
_cell_length_c   9.44050952
_cell_angle_alpha   90.00000000
_cell_angle_beta   90.00000000
_cell_angle_gamma   90.00000000
_symmetry_Int_Tables_number   1
_chemical_formula_structural   SiO2
_chemical_formula_sum   'Si12 O24'
_cell_volume   696.43544905
_cell_formula_units_Z   12
loop_
 _symmetry_equiv_pos_site_id
 _symmetry_equiv_pos_as_xyz
  1  'x, y, z'
loop_
 _atom_site_type_symbol
 _atom_site_label
 _atom_site_symmetry_multiplicity
 _atom_site_fract_x
 _atom_site_fract_y
 _atom_site_fract_z
 _atom_site_occupancy
  Si  Si0  1  0.09072909  0.20468466  0.36644619  1
  Si  Si1  1  0.59072909  0.79531534  0.63355381  1
  Si  Si2  1  0.90927091  0.20468466  0.63355381  1
  Si  Si3  1  0.40927091  0.79531534  0.36644619  1
  Si  Si4  1  0.90927091  0.79531534  0.63355381  1
  Si  Si5  1  0.40927091  0.20468466  0.36644619  1
  Si  Si6  1  0.09072909  0.79531534  0.36644619  1
  Si  Si7  1  0.59072909  0.20468466  0.63355381  1
  Si  Si8  1  0.08953869  0.50000000  0.14110811  1
  Si  Si9  1  0.58953869  0.50000000  0.85889189  1
  Si  Si10  1  0.91046131  0.50000000  0.85889189  1
  Si  Si11  1  0.41046131  0.50000000  0.14110811  1
  O  O0  1  0.05285097  0.32459459  0.23135542  1
  O  O1  1  0.55285097  0.67540541  0.76864458  1
  O  O2  1  0.94714903  0.32459459  0.76864458  1
  O  O3  1  0.44714903  0.67540541  0.23135542  1
  O  O4  1  0.94714903  0.67540541  0.76864458  1
  O  O5  1  0.44714903  0.32459459  0.23135542  1
  O  O6  1  0.05285097  0.67540541  0.23135542  1
  O  O7  1  0.55285097  0.32459459  0.76864458  1
  O  O8  1  0.25000000  0.23002392  0.40697273  1
  O  O9  1  0.75000000  0.76997608  0.59302727  1
  O  O10  1  0.75000000  0.23002392  0.59302727  1
  O  O11  1  0.25000000  0.76997608  0.40697273  1
  O  O12  1  0.05990470  -0.00000000  0.32822682  1
  O  O13  1  0.55990470  -0.00000000  0.67177318  1
  O  O14  1  0.94009530  -0.00000000  0.67177318  1
  O  O15  1  0.44009530  -0.00000000  0.32822682  1
  O  O16  1  0.00000000  0.26550516  0.50000000  1
  O  O17  1  0.50000000  0.73449484  0.50000000  1
  O  O18  1  0.00000000  0.73449484  0.50000000  1
  O  O19  1  0.50000000  0.26550516  0.50000000  1
  O  O20  1  0.00000000  0.50000000  -0.00000000  1
  O  O21  1  0.50000000  0.50000000  -0.00000000  1
  O  O22  1  0.25000000  0.50000000  0.10133846  1
  O  O23  1  0.75000000  0.50000000  0.89866154  1
loop_
_geom_bond_atom_site_label_1
_geom_bond_atom_site_label_2
_geom_bond_distance
_geom_bond_site_symmetry_2
O0 Si0 1.606879 1_555
O0 Si8 1.614264 1_555
O1 Si1 1.606879 1_555
O1 Si9 1.614264 1_555
O2 Si2 1.606879 1_555
O2 Si10 1.614264 1_555
O3 Si3 1.606879 1_555
O3 Si11 1.614264 1_555
O4 Si4 1.606879 1_555
O4 Si10 1.614264 1_555
O5 Si5 1.606879 1_555
O5 Si11 1.614264 1_555
O6 Si6 1.606879 1_555
O6 Si8 1.614264 1_555
O7 Si7 1.606879 1_555
O7 Si9 1.614264 1_555
O8 Si0 1.615011 1_555
O8 Si5 1.615011 1_555
O9 Si4 1.615011 1_555
O9 Si1 1.615011 1_555
O10 Si7 1.615011 1_555
O10 Si2 1.615011 1_555
O11 Si6 1.615011 1_555
O11 Si3 1.615011 1_555
O12 Si6 1.614241 1_545
O12 Si0 1.614241 1_555
O13 Si1 1.614241 1_545
O13 Si7 1.614241 1_555
O14 Si4 1.614241 1_545
O14 Si2 1.614241 1_555
O15 Si3 1.614241 1_545
O15 Si5 1.614241 1_555
O16 Si2 1.608492 1_455
O16 Si0 1.608492 1_555
O17 Si1 1.608492 1_555
O17 Si3 1.608492 1_555
O18 Si4 1.608492 1_455
O18 Si6 1.608492 1_555
O19 Si7 1.608492 1_555
O19 Si5 1.608492 1_555
O20 Si8 1.594080 1_555
O20 Si10 1.594080 1_454
O21 Si11 1.594080 1_555
O21 Si9 1.594080 1_554
O22 Si8 1.613285 1_555
O22 Si11 1.613285 1_555
O23 Si9 1.613285 1_555
O23 Si10 1.613285 1_555
