# generated using pymatgen
data_CsPbCl3
_symmetry_space_group_name_H-M   'P 1'
_cell_length_a   5.76356648
_cell_length_b   11.13439393
_cell_length_c   7.86750536
_cell_angle_alpha   44.95846599
_cell_angle_beta   90.00000000
_cell_angle_gamma   90.00000000
_symmetry_Int_Tables_number   1
_chemical_formula_structural   CsPbCl3
_chemical_formula_sum   'Cs2 Pb2 Cl6'
_cell_volume   356.75074463
_cell_formula_units_Z   2
loop_
 _symmetry_equiv_pos_site_id
 _symmetry_equiv_pos_as_xyz
  1  'x, y, z'
loop_
 _atom_site_type_symbol
 _atom_site_label
 _atom_site_symmetry_multiplicity
 _atom_site_fract_x
 _atom_site_fract_y
 _atom_site_fract_z
 _atom_site_occupancy
  Cs  Cs0  1  0.50000000  0.49498888  0.50000000  1
  Cs  Cs1  1  0.50000000  0.98979370  0.50000000  1
  Pb  Pb0  1  0.00000000  0.99343078  0.99871929  1
  Pb  Pb1  1  -0.00000000  0.49215006  0.00128071  1
  Cl  Cl0  1  -0.00000000  0.18458710  0.11729796  1
  Cl  Cl1  1  0.50000000  0.48960809  0.00210531  1
  Cl  Cl2  1  0.50000000  0.99171340  0.99789469  1
  Cl  Cl3  1  -0.00000000  0.30460917  0.50000000  1
  Cl  Cl4  1  0.00000000  0.68523076  0.50000000  1
  Cl  Cl5  1  -0.00000000  0.80188506  0.88270204  1
loop_
_geom_bond_atom_site_label_1
_geom_bond_atom_site_label_2
_geom_bond_distance
_geom_bond_site_symmetry_2
Cl0 Pb1 2.852505 1_555
Cl0 Pb0 2.865416 1_544
Cl0 Cs1 3.582229 1_545
Cl0 Cs1 3.582229 1_445
Cl1 Pb1 2.881884 1_555
Cl1 Pb1 2.881884 1_655
Cl1 Cs0 3.908151 1_554
Cl1 Cs1 3.932343 1_545
Cl1 Cs1 3.935220 1_554
Cl1 Cs0 3.959810 1_555
Cl2 Pb0 2.881884 1_555
Cl2 Pb0 2.881884 1_655
Cl2 Cs0 3.908150 1_556
Cl2 Cs1 3.932343 1_555
Cl2 Cs1 3.935220 1_556
Cl2 Cs0 3.959810 1_565
Cl3 Pb0 2.856613 1_545
Cl3 Pb1 2.856613 1_555
Cl3 Cs0 3.577439 1_555
Cl3 Cs0 3.577439 1_455
Cl4 Pb0 2.859433 1_554
Cl4 Pb1 2.859434 1_556
Cl4 Cs0 3.576530 1_555
Cl4 Cs0 3.576530 1_455
Cl5 Pb0 2.852506 1_555
Cl5 Pb1 2.865416 1_556
Cl5 Cs1 3.582229 1_455
Cl5 Cs1 3.582229 1_555
