# generated using pymatgen
data_CsTaI6
_symmetry_space_group_name_H-M   'P 1'
_cell_length_a   7.27000996
_cell_length_b   7.81697197
_cell_length_c   14.06720950
_cell_angle_alpha   100.31387915
_cell_angle_beta   90.00000000
_cell_angle_gamma   117.71115319
_symmetry_Int_Tables_number   1
_chemical_formula_structural   CsTaI6
_chemical_formula_sum   'Cs2 Ta2 I12'
_cell_volume   693.11540898
_cell_formula_units_Z   2
loop_
 _symmetry_equiv_pos_site_id
 _symmetry_equiv_pos_as_xyz
  1  'x, y, z'
loop_
 _atom_site_type_symbol
 _atom_site_label
 _atom_site_symmetry_multiplicity
 _atom_site_fract_x
 _atom_site_fract_y
 _atom_site_fract_z
 _atom_site_occupancy
  Cs  Cs0  1  0.41320114  0.50000000  0.75000000  1
  Cs  Cs1  1  0.58679886  0.50000000  0.25000000  1
  Ta  Ta0  1  -0.00000000  -0.00000000  -0.00000000  1
  Ta  Ta1  1  0.50000000  -0.00000000  0.50000000  1
  I  I0  1  0.17803436  0.65244355  0.39628170  1
  I  I1  1  0.97440820  0.65244355  0.89628170  1
  I  I2  1  0.02559180  0.34755645  0.10371830  1
  I  I3  1  0.30437585  0.92648112  0.66783149  1
  I  I4  1  0.69562415  0.07351888  0.33216851  1
  I  I5  1  0.28804241  0.19997235  0.46524389  1
  I  I6  1  0.71195759  0.80002765  0.53475611  1
  I  I7  1  0.82196564  0.34755645  0.60371830  1
  I  I8  1  0.41192994  0.19997235  0.96524389  1
  I  I9  1  0.87789473  0.07351888  0.83216851  1
  I  I10  1  0.12210527  0.92648112  0.16783149  1
  I  I11  1  0.58807006  0.80002765  0.03475611  1
loop_
_geom_bond_atom_site_label_1
_geom_bond_atom_site_label_2
_geom_bond_distance
_geom_bond_site_symmetry_2
Cs0 I1 4.111075 1_555
Cs0 I7 4.111081 1_555
Cs0 I3 4.111762 1_545
Cs0 I9 4.111762 1_565
Cs0 I3 4.112059 1_555
Cs0 I9 4.112059 1_455
Cs0 I5 4.126195 1_555
Cs0 I11 4.126195 1_556
Cs0 I8 4.146240 1_555
Cs0 I6 4.146240 1_555
Cs0 I7 4.299771 1_455
Cs0 I1 4.299777 1_455
Cs1 I2 4.111075 1_555
Cs1 I0 4.111081 1_555
Cs1 I4 4.111762 1_565
Cs1 I10 4.111762 1_545
Cs1 I4 4.112059 1_555
Cs1 I10 4.112059 1_655
Cs1 I6 4.126195 1_555
Cs1 I8 4.126195 1_554
Cs1 I11 4.146240 1_555
Cs1 I5 4.146240 1_555
Cs1 I0 4.299771 1_655
Cs1 I2 4.299777 1_655
I0 Ta1 2.766783 1_565
I1 Ta0 2.766780 1_666
I2 Ta0 2.766780 1_555
I3 Ta1 2.766325 1_565
I4 Ta1 2.766325 1_555
I5 Ta1 2.751532 1_555
I6 Ta1 2.751532 1_565
I7 Ta1 2.766783 1_555
I8 Ta0 2.751532 1_556
I9 Ta0 2.766325 1_656
I10 Ta0 2.766325 1_565
I11 Ta0 2.751532 1_665
