# generated using pymatgen
data_Li2UBr6
_symmetry_space_group_name_H-M   'P 1'
_cell_length_a   6.95430629
_cell_length_b   6.95430629
_cell_length_c   26.96817700
_cell_angle_alpha   90.00000000
_cell_angle_beta   90.00000000
_cell_angle_gamma   120.00000279
_symmetry_Int_Tables_number   1
_chemical_formula_structural   Li2UBr6
_chemical_formula_sum   'Li8 U4 Br24'
_cell_volume   1129.50937198
_cell_formula_units_Z   4
loop_
 _symmetry_equiv_pos_site_id
 _symmetry_equiv_pos_as_xyz
  1  'x, y, z'
loop_
 _atom_site_type_symbol
 _atom_site_label
 _atom_site_symmetry_multiplicity
 _atom_site_fract_x
 _atom_site_fract_y
 _atom_site_fract_z
 _atom_site_occupancy
  Li  Li0  1  0.00000000  0.00000000  0.25000000  1
  Li  Li1  1  0.00000000  0.00000000  0.75000000  1
  Li  Li2  1  0.33333300  0.66666700  0.00153700  1
  Li  Li3  1  0.33333300  0.66666700  0.49846300  1
  Li  Li4  1  0.33333300  0.66666700  0.25000000  1
  Li  Li5  1  0.66666700  0.33333300  0.75000000  1
  Li  Li6  1  0.66666700  0.33333300  0.99846300  1
  Li  Li7  1  0.66666700  0.33333300  0.50153700  1
  U  U0  1  0.00000000  0.00000000  0.00000000  1
  U  U1  1  0.00000000  0.00000000  0.50000000  1
  U  U2  1  0.33333300  0.66666700  0.75000000  1
  U  U3  1  0.66666700  0.33333300  0.25000000  1
  Br  Br0  1  0.33356700  0.00003100  0.30770000  1
  Br  Br1  1  0.33353600  0.99996900  0.80770000  1
  Br  Br2  1  0.99827800  0.33244000  0.05767300  1
  Br  Br3  1  0.00172200  0.33416200  0.55767300  1
  Br  Br4  1  0.99996900  0.33353600  0.30770000  1
  Br  Br5  1  0.00003100  0.33356700  0.80770000  1
  Br  Br6  1  0.33356700  0.33353600  0.19230000  1
  Br  Br7  1  0.33353600  0.33356700  0.69230000  1
  Br  Br8  1  0.33416200  0.33244000  0.44232700  1
  Br  Br9  1  0.33244000  0.33416200  0.94232700  1
  Br  Br10  1  0.66756000  0.00172200  0.44232700  1
  Br  Br11  1  0.33416200  0.00172200  0.05767300  1
  Br  Br12  1  0.33244000  0.99827800  0.55767300  1
  Br  Br13  1  0.66756000  0.66583800  0.05767300  1
  Br  Br14  1  0.66583800  0.66756000  0.55767300  1
  Br  Br15  1  0.66646400  0.66643300  0.30770000  1
  Br  Br16  1  0.66643300  0.66646400  0.80770000  1
  Br  Br17  1  0.99996900  0.66643300  0.19230000  1
  Br  Br18  1  0.00003100  0.66646400  0.69230000  1
  Br  Br19  1  0.99827800  0.66583800  0.44232700  1
  Br  Br20  1  0.00172200  0.66756000  0.94232700  1
  Br  Br21  1  0.66583800  0.99827800  0.94232700  1
  Br  Br22  1  0.66646400  0.00003100  0.19230000  1
  Br  Br23  1  0.66643300  0.99996900  0.69230000  1
loop_
_geom_bond_atom_site_label_1
_geom_bond_atom_site_label_2
_geom_bond_distance
_geom_bond_site_symmetry_2
Br0 U3 2.791177 1_555
Br0 Li4 2.791442 1_545
Br0 Li0 2.793200 1_555
Br1 U2 2.791174 1_555
Br1 Li5 2.791445 1_565
Br1 Li1 2.793200 1_565
Br2 Li2 2.776277 1_655
Br2 U0 2.791367 1_655
Br2 Li6 2.807542 1_554
Br3 Li7 2.776274 1_455
Br3 U1 2.791367 1_555
Br3 Li3 2.807545 1_555
Br4 U3 2.791174 1_555
Br4 Li4 2.791445 1_655
Br4 Li0 2.793200 1_655
Br5 U2 2.791177 1_555
Br5 Li5 2.791442 1_455
Br5 Li1 2.793200 1_555
Br6 U3 2.791180 1_555
Br6 Li4 2.791448 1_555
Br6 Li0 2.793200 1_555
Br7 U2 2.791180 1_555
Br7 Li5 2.791448 1_555
Br7 Li1 2.793200 1_555
Br8 Li3 2.776280 1_555
Br8 U1 2.791367 1_555
Br8 Li7 2.807548 1_555
Br9 Li6 2.776280 1_555
Br9 U0 2.791367 1_556
Br9 Li2 2.807548 1_556
Br10 Li3 2.776277 1_545
Br10 U1 2.791367 1_655
Br10 Li7 2.807542 1_555
Br11 Li2 2.776274 1_545
Br11 U0 2.791367 1_555
Br11 Li6 2.807545 1_554
Br12 Li7 2.776277 1_565
Br12 U1 2.791367 1_565
Br12 Li3 2.807542 1_555
Br13 Li2 2.776280 1_555
Br13 U0 2.791367 1_665
Br13 Li6 2.807548 1_554
Br14 Li7 2.776280 1_555
Br14 U1 2.791367 1_665
Br14 Li3 2.807548 1_555
Br15 U3 2.791180 1_555
Br15 Li4 2.791448 1_555
Br15 Li0 2.793200 1_665
Br16 U2 2.791180 1_555
Br16 Li5 2.791448 1_555
Br16 Li1 2.793200 1_665
Br17 U3 2.791177 1_555
Br17 Li4 2.791442 1_655
Br17 Li0 2.793200 1_665
Br18 U2 2.791174 1_555
Br18 Li5 2.791445 1_455
Br18 Li1 2.793200 1_565
Br19 Li3 2.776274 1_655
Br19 U1 2.791367 1_665
Br19 Li7 2.807545 1_555
Br20 Li6 2.776277 1_455
Br20 U0 2.791367 1_566
Br20 Li2 2.807542 1_556
Br21 Li6 2.776274 1_565
Br21 U0 2.791367 1_666
Br21 Li2 2.807545 1_556
Br22 U3 2.791174 1_555
Br22 Li4 2.791445 1_545
Br22 Li0 2.793200 1_655
Br23 U2 2.791177 1_555
Br23 Li5 2.791442 1_565
Br23 Li1 2.793200 1_665
