# generated using pymatgen
data_HfPbO3
_symmetry_space_group_name_H-M   'P 1'
_cell_length_a   5.93143400
_cell_length_b   8.30396600
_cell_length_c   11.80414700
_cell_angle_alpha   90.00000000
_cell_angle_beta   90.00000000
_cell_angle_gamma   90.00000000
_symmetry_Int_Tables_number   1
_chemical_formula_structural   HfPbO3
_chemical_formula_sum   'Hf8 Pb8 O24'
_cell_volume   581.40648806
_cell_formula_units_Z   8
loop_
 _symmetry_equiv_pos_site_id
 _symmetry_equiv_pos_as_xyz
  1  'x, y, z'
loop_
 _atom_site_type_symbol
 _atom_site_label
 _atom_site_symmetry_multiplicity
 _atom_site_fract_x
 _atom_site_fract_y
 _atom_site_fract_z
 _atom_site_occupancy
  Hf  Hf0  1  0.25686900  0.25318500  0.62067700  1
  Hf  Hf1  1  0.24313100  0.25318500  0.12067700  1
  Hf  Hf2  1  0.74374500  0.75461000  0.37882400  1
  Hf  Hf3  1  0.24374500  0.75461000  0.12117600  1
  Hf  Hf4  1  0.75686900  0.25318500  0.87932300  1
  Hf  Hf5  1  0.25625500  0.75461000  0.62117600  1
  Hf  Hf6  1  0.75625500  0.75461000  0.87882400  1
  Hf  Hf7  1  0.74313100  0.25318500  0.37932300  1
  Pb  Pb0  1  0.20184000  0.99168500  0.36552700  1
  Pb  Pb1  1  0.20204600  0.49211500  0.36063900  1
  Pb  Pb2  1  0.29816000  0.99168500  0.86552700  1
  Pb  Pb3  1  0.79816000  0.99168500  0.63447300  1
  Pb  Pb4  1  0.70184000  0.99168500  0.13447300  1
  Pb  Pb5  1  0.29795400  0.49211500  0.86063900  1
  Pb  Pb6  1  0.70204600  0.49211500  0.13936100  1
  Pb  Pb7  1  0.79795400  0.49211500  0.63936100  1
  O  O0  1  0.00000000  0.77149900  0.00000000  1
  O  O1  1  0.22384300  0.00741500  0.64507800  1
  O  O2  1  0.21707500  0.50786400  0.62134700  1
  O  O3  1  0.96205200  0.75093900  0.73735600  1
  O  O4  1  0.00000000  0.78651800  0.50000000  1
  O  O5  1  0.78292500  0.50786400  0.37865300  1
  O  O6  1  0.53794800  0.75093900  0.23735600  1
  O  O7  1  0.52842200  0.27436600  0.24123800  1
  O  O8  1  0.50000000  0.78651800  0.00000000  1
  O  O9  1  0.72384300  0.00741500  0.85492200  1
  O  O10  1  0.71707500  0.50786400  0.87865300  1
  O  O11  1  0.02842200  0.27436600  0.25876200  1
  O  O12  1  0.50000000  0.77149900  0.50000000  1
  O  O13  1  0.00000000  0.24791100  0.50000000  1
  O  O14  1  0.46205200  0.75093900  0.76264400  1
  O  O15  1  0.50000000  0.24971400  0.50000000  1
  O  O16  1  0.03794800  0.75093900  0.26264400  1
  O  O17  1  0.47157800  0.27436600  0.75876200  1
  O  O18  1  0.77615700  0.00741500  0.35492200  1
  O  O19  1  0.28292500  0.50786400  0.12134700  1
  O  O20  1  0.27615700  0.00741500  0.14507800  1
  O  O21  1  0.00000000  0.24971400  0.00000000  1
  O  O22  1  0.97157800  0.27436600  0.74123800  1
  O  O23  1  0.50000000  0.24791100  0.00000000  1
loop_
_geom_bond_atom_site_label_1
_geom_bond_atom_site_label_2
_geom_bond_distance
_geom_bond_site_symmetry_2
Hf0 O15 2.027239 1_555
Hf0 O1 2.070379 1_555
Hf0 O17 2.075967 1_555
Hf0 O13 2.086252 1_555
Hf0 O2 2.127992 1_555
Hf0 O22 2.218039 1_455
Hf1 O21 2.027239 1_555
Hf1 O20 2.070379 1_555
Hf1 O11 2.075967 1_555
Hf1 O23 2.086252 1_555
Hf1 O19 2.127992 1_555
Hf1 O7 2.218039 1_555
Hf2 O12 2.038595 1_555
Hf2 O5 2.062108 1_555
Hf2 O6 2.068711 1_555
Hf2 O4 2.103917 1_655
Hf2 O18 2.126866 1_565
Hf2 O16 2.219655 1_655
Hf3 O0 2.038595 1_555
Hf3 O19 2.062108 1_555
Hf3 O16 2.068711 1_555
Hf3 O8 2.103917 1_555
Hf3 O20 2.126866 1_565
Hf3 O6 2.219655 1_555
Hf4 O21 2.027239 1_656
Hf4 O9 2.070379 1_555
Hf4 O22 2.075967 1_555
Hf4 O23 2.086252 1_556
Hf4 O10 2.127992 1_555
Hf4 O17 2.218039 1_555
Hf5 O12 2.038595 1_555
Hf5 O2 2.062108 1_555
Hf5 O14 2.068711 1_555
Hf5 O4 2.103917 1_555
Hf5 O1 2.126866 1_565
Hf5 O3 2.219655 1_455
Hf6 O0 2.038595 1_656
Hf6 O10 2.062108 1_555
Hf6 O3 2.068711 1_555
Hf6 O8 2.103917 1_556
Hf6 O9 2.126866 1_565
Hf6 O14 2.219655 1_555
Hf7 O15 2.027239 1_555
Hf7 O18 2.070379 1_555
Hf7 O7 2.075967 1_555
Hf7 O13 2.086252 1_655
Hf7 O5 2.127992 1_555
Hf7 O11 2.218039 1_655
O1 Pb3 2.531384 1_445
O1 Pb2 2.642514 1_545
O2 Pb7 2.498491 1_455
O3 Pb3 2.533076 1_555
O3 Pb7 2.627697 1_555
O4 Pb3 2.618306 1_455
O4 Pb0 2.618306 1_555
O5 Pb1 2.498491 1_655
O6 Pb4 2.533076 1_555
O6 Pb6 2.627697 1_555
O7 Pb6 2.403386 1_555
O8 Pb2 2.618306 1_554
O8 Pb4 2.618306 1_555
O9 Pb2 2.531384 1_545
O9 Pb3 2.642514 1_545
O10 Pb5 2.498491 1_555
O11 Pb1 2.403386 1_555
O14 Pb2 2.533076 1_555
O14 Pb5 2.627697 1_555
O16 Pb0 2.533076 1_555
O16 Pb1 2.627697 1_555
O17 Pb5 2.403386 1_555
O18 Pb0 2.531384 1_645
O18 Pb4 2.642514 1_545
O19 Pb6 2.498491 1_555
O20 Pb4 2.531384 1_545
O20 Pb0 2.642514 1_545
O22 Pb7 2.403386 1_555
