# generated using pymatgen
data_EuPd3
_symmetry_space_group_name_H-M   'P 1'
_cell_length_a   4.16615049
_cell_length_b   4.16625354
_cell_length_c   4.16609037
_cell_angle_alpha   90.00339333
_cell_angle_beta   89.99822147
_cell_angle_gamma   90.00109280
_symmetry_Int_Tables_number   1
_chemical_formula_structural   EuPd3
_chemical_formula_sum   'Eu1 Pd3'
_cell_volume   72.31182711
_cell_formula_units_Z   1
loop_
 _symmetry_equiv_pos_site_id
 _symmetry_equiv_pos_as_xyz
  1  'x, y, z'
loop_
 _atom_site_type_symbol
 _atom_site_label
 _atom_site_symmetry_multiplicity
 _atom_site_fract_x
 _atom_site_fract_y
 _atom_site_fract_z
 _atom_site_occupancy
  Eu  Eu0  1  -0.00000005  0.00000000  0.00000173  1
  Pd  Pd0  1  0.50000021  0.49999900  0.00000011  1
  Pd  Pd1  1  0.50000188  -0.00000000  0.49999917  1
  Pd  Pd2  1  0.99999895  0.50000100  0.49999899  1
loop_
_geom_bond_atom_site_label_1
_geom_bond_atom_site_label_2
_geom_bond_distance
_geom_bond_site_symmetry_2
Eu0 Pd1 2.945833 1_455
Eu0 Pd2 2.945836 1_455
Eu0 Pd2 2.945846 1_444
Eu0 Pd1 2.945860 1_554
Eu0 Pd0 2.945919 1_555
Eu0 Pd0 2.945924 1_445
Eu0 Pd1 2.945936 1_555
Eu0 Pd1 2.945940 1_454
Eu0 Pd0 2.945974 1_455
Eu0 Pd0 2.945982 1_545
Eu0 Pd2 2.946005 1_445
Eu0 Pd2 2.946027 1_454
Pd0 Pd1 2.945841 1_554
Pd0 Pd1 2.945841 1_565
Pd0 Pd2 2.945846 1_554
Pd0 Pd2 2.945847 1_455
Pd0 Pd2 2.945931 1_555
Pd0 Pd2 2.945945 1_454
Pd0 Pd1 2.946010 1_555
Pd0 Pd1 2.946021 1_564
Pd1 Pd2 2.945916 1_555
Pd1 Pd2 2.945927 1_445
Pd1 Pd2 2.945966 1_545
Pd1 Pd2 2.945989 1_455
