# generated using pymatgen
data_Ti2Cu(PO5)2
_symmetry_space_group_name_H-M   'P 1'
_cell_length_a   7.92127200
_cell_length_b   7.14600800
_cell_length_c   7.38910720
_cell_angle_alpha   60.57848975
_cell_angle_beta   90.00000000
_cell_angle_gamma   90.00000000
_symmetry_Int_Tables_number   1
_chemical_formula_structural   Ti2Cu(PO5)2
_chemical_formula_sum   'Ti4 Cu2 P4 O20'
_cell_volume   364.32018347
_cell_formula_units_Z   2
loop_
 _symmetry_equiv_pos_site_id
 _symmetry_equiv_pos_as_xyz
  1  'x, y, z'
loop_
 _atom_site_type_symbol
 _atom_site_label
 _atom_site_symmetry_multiplicity
 _atom_site_fract_x
 _atom_site_fract_y
 _atom_site_fract_z
 _atom_site_occupancy
  Ti  Ti0  1  0.28161300  0.26219500  0.03500800  1
  Ti  Ti1  1  0.78161300  0.73780500  0.46499200  1
  Ti  Ti2  1  0.71838700  0.73780500  0.96499200  1
  Ti  Ti3  1  0.21838700  0.26219500  0.53500800  1
  Cu  Cu0  1  0.50000000  0.00000000  0.50000000  1
  Cu  Cu1  1  0.00000000  0.00000000  0.00000000  1
  P  P0  1  0.59745700  0.24985600  0.74666900  1
  P  P1  1  0.09745700  0.75014400  0.75333100  1
  P  P2  1  0.40254300  0.75014400  0.25333100  1
  P  P3  1  0.90254300  0.24985600  0.24666900  1
  O  O0  1  0.78840900  0.05606300  0.37557500  1
  O  O1  1  0.28840900  0.94393700  0.12442500  1
  O  O2  1  0.21159100  0.94393700  0.62442500  1
  O  O3  1  0.71159100  0.05606300  0.87557500  1
  O  O4  1  0.48917000  0.30964300  0.88438000  1
  O  O5  1  0.98917000  0.69035700  0.61562000  1
  O  O6  1  0.51083000  0.69035700  0.11562000  1
  O  O7  1  0.01083000  0.30964300  0.38438000  1
  O  O8  1  0.70831200  0.44149600  0.59972300  1
  O  O9  1  0.20831200  0.55850400  0.90027700  1
  O  O10  1  0.85325400  0.77589500  0.22393400  1
  O  O11  1  0.35325400  0.22410500  0.27606600  1
  O  O12  1  0.14674600  0.22410500  0.77606600  1
  O  O13  1  0.64674600  0.77589500  0.72393400  1
  O  O14  1  0.97172400  0.81229500  0.87945000  1
  O  O15  1  0.47172400  0.18770500  0.62055000  1
  O  O16  1  0.02827600  0.18770500  0.12055000  1
  O  O17  1  0.52827600  0.81229500  0.37945000  1
  O  O18  1  0.79168800  0.44149600  0.09972300  1
  O  O19  1  0.29168800  0.55850400  0.40027700  1
loop_
_geom_bond_atom_site_label_1
_geom_bond_atom_site_label_2
_geom_bond_distance
_geom_bond_site_symmetry_2
Cu0 O15 1.953629 1_555
Cu0 O17 1.953629 1_545
Cu0 O13 2.012561 1_545
Cu0 O11 2.012561 1_555
Cu0 O0 2.421394 1_555
Cu0 O2 2.421394 1_545
Cu1 O16 1.953629 1_555
Cu1 O14 1.953629 1_444
Cu1 O10 2.012561 1_445
Cu1 O12 2.012561 1_554
Cu1 O1 2.421394 1_545
Cu1 O3 2.421394 1_454
O0 P3 1.531828 1_555
O0 Ti1 2.033587 1_545
O1 P2 1.531828 1_555
O1 Ti0 2.033587 1_565
O2 P1 1.531828 1_555
O2 Ti3 2.033587 1_565
O3 P0 1.531828 1_555
O3 Ti2 2.033587 1_545
O4 P0 1.543001 1_555
O4 Ti0 1.919922 1_556
O5 P1 1.543001 1_655
O5 Ti1 1.919922 1_555
O6 P2 1.543001 1_555
O6 Ti2 1.919922 1_554
O7 P3 1.543001 1_455
O7 Ti3 1.919922 1_555
O8 P0 1.537721 1_555
O8 Ti1 1.934095 1_555
O9 P1 1.537721 1_555
O9 Ti0 1.934095 1_556
O10 Ti1 1.758548 1_555
O10 Ti2 2.321199 1_554
O11 Ti0 1.758548 1_555
O11 Ti3 2.321199 1_555
O12 Ti3 1.758548 1_555
O12 Ti0 2.321199 1_556
O13 Ti2 1.758548 1_555
O13 Ti1 2.321199 1_555
O14 P1 1.569803 1_655
O14 Ti2 2.092693 1_555
O15 P0 1.569803 1_555
O15 Ti3 2.092693 1_555
O16 P3 1.569803 1_455
O16 Ti0 2.092693 1_555
O17 P2 1.569803 1_555
O17 Ti1 2.092693 1_555
O18 P3 1.537721 1_555
O18 Ti2 1.934095 1_554
O19 P2 1.537721 1_555
O19 Ti3 1.934095 1_555
