# generated using pymatgen
data_Li2FeCl4
_symmetry_space_group_name_H-M   'P 1'
_cell_length_a   7.41014313
_cell_length_b   7.27618000
_cell_length_c   36.41412607
_cell_angle_alpha   60.15170447
_cell_angle_beta   60.77726982
_cell_angle_gamma   60.96975244
_symmetry_Int_Tables_number   1
_chemical_formula_structural   Li2FeCl4
_chemical_formula_sum   'Li20 Fe10 Cl40'
_cell_volume   1407.99226841
_cell_formula_units_Z   10
loop_
 _symmetry_equiv_pos_site_id
 _symmetry_equiv_pos_as_xyz
  1  'x, y, z'
loop_
 _atom_site_type_symbol
 _atom_site_label
 _atom_site_symmetry_multiplicity
 _atom_site_fract_x
 _atom_site_fract_y
 _atom_site_fract_z
 _atom_site_occupancy
  Li  Li0  1  0.40697679  0.04339922  0.20849615  1
  Li  Li1  1  0.51227588  0.98832478  0.09878103  1
  Li  Li2  1  0.51256329  0.48865580  0.19997638  1
  Li  Li3  1  0.39618160  0.03031472  0.41240963  1
  Li  Li4  1  0.01421432  0.49430242  0.49573514  1
  Li  Li5  1  0.92612624  0.85699367  0.16929511  1
  Li  Li6  1  0.50738982  0.00911771  0.29829974  1
  Li  Li7  1  0.50127529  0.48517327  0.40377368  1
  Li  Li8  1  -0.00062619  0.50251300  0.69635647  1
  Li  Li9  1  0.92852512  0.84453440  0.37051544  1
  Li  Li10  1  0.07140999  0.16401186  0.82652114  1
  Li  Li11  1  0.49811592  0.02190530  0.49671982  1
  Li  Li12  1  0.98226242  0.48742822  0.90809791  1
  Li  Li13  1  0.50144296  0.00274318  0.80003898  1
  Li  Li14  1  0.42727933  0.04432346  0.60102632  1
  Li  Li15  1  0.92497183  0.85148491  0.57072113  1
  Li  Li16  1  0.50937420  0.00471709  0.69696684  1
  Li  Li17  1  0.93549592  0.84250858  0.77163715  1
  Li  Li18  1  0.48460384  0.99680189  0.90615105  1
  Li  Li19  1  0.87532790  0.86561352  0.97559890  1
  Fe  Fe0  1  0.03498621  0.51068313  0.09572200  1
  Fe  Fe1  1  0.48482143  0.50127252  0.09470559  1
  Fe  Fe2  1  0.00498867  0.49618132  0.30039519  1
  Fe  Fe3  1  0.50477332  0.48998091  0.29793945  1
  Fe  Fe4  1  0.51046677  0.48764613  0.49678715  1
  Fe  Fe5  1  0.50846160  0.49474225  0.60630832  1
  Fe  Fe6  1  0.51150487  0.49517522  0.69211674  1
  Fe  Fe7  1  0.49848011  0.50179923  0.80060626  1
  Fe  Fe8  1  0.48384932  0.49371762  0.90357685  1
  Fe  Fe9  1  0.46934936  0.50904926  0.01102611  1
  Cl  Cl0  1  0.24963939  0.27483098  0.05182684  1
  Cl  Cl1  1  0.24396043  0.76701588  0.04993608  1
  Cl  Cl2  1  0.25680416  0.26097551  0.14610955  1
  Cl  Cl3  1  0.72133620  0.26751718  0.05102725  1
  Cl  Cl4  1  0.24344445  0.26954664  0.25288706  1
  Cl  Cl5  1  0.30161165  0.72451135  0.14418925  1
  Cl  Cl6  1  0.73958405  0.25205225  0.14851136  1
  Cl  Cl7  1  0.75898437  0.72041839  0.05489069  1
  Cl  Cl8  1  0.25826530  0.25975416  0.34708635  1
  Cl  Cl9  1  0.25552744  0.73615694  0.25193391  1
  Cl  Cl10  1  0.71800550  0.27131286  0.25324235  1
  Cl  Cl11  1  0.76707192  0.73202881  0.14616053  1
  Cl  Cl12  1  0.25681328  0.25915719  0.45144363  1
  Cl  Cl13  1  0.30695933  0.72405758  0.34480333  1
  Cl  Cl14  1  0.75716810  0.25956873  0.34641311  1
  Cl  Cl15  1  0.25694806  0.27015476  0.54621088  1
  Cl  Cl16  1  0.74689011  0.74271978  0.25096880  1
  Cl  Cl17  1  0.26080879  0.73171591  0.45266893  1
  Cl  Cl18  1  0.76846180  0.72990734  0.34565878  1
  Cl  Cl19  1  0.73109326  0.26165314  0.45410510  1
  Cl  Cl20  1  0.27082550  0.26177161  0.65018677  1
  Cl  Cl21  1  0.30262469  0.71954989  0.54902286  1
  Cl  Cl22  1  0.72862552  0.25895595  0.55289432  1
  Cl  Cl23  1  0.26957271  0.25395806  0.74721842  1
  Cl  Cl24  1  0.72882072  0.75091067  0.45104287  1
  Cl  Cl25  1  0.25571190  0.73974660  0.65134574  1
  Cl  Cl26  1  0.71967127  0.74815694  0.55506814  1
  Cl  Cl27  1  0.74087076  0.25024208  0.65148614  1
  Cl  Cl28  1  0.26201970  0.26033565  0.84699861  1
  Cl  Cl29  1  0.30736782  0.72259434  0.74529841  1
  Cl  Cl30  1  0.25753773  0.75516060  0.84729858  1
  Cl  Cl31  1  0.74190836  0.25165885  0.75069857  1
  Cl  Cl32  1  0.73901112  0.73909826  0.65193999  1
  Cl  Cl33  1  0.25576123  0.27451912  0.94431286  1
  Cl  Cl34  1  0.70391768  0.26606219  0.85269641  1
  Cl  Cl35  1  0.73986448  0.74007623  0.75192571  1
  Cl  Cl36  1  0.27292599  0.73348561  0.95072604  1
  Cl  Cl37  1  0.72623177  0.27222101  0.94973241  1
  Cl  Cl38  1  0.72509838  0.74596282  0.85138537  1
  Cl  Cl39  1  0.72538693  0.73536359  0.95234636  1
loop_
_geom_bond_atom_site_label_1
_geom_bond_atom_site_label_2
_geom_bond_distance
_geom_bond_site_symmetry_2
Cl0 Fe9 2.360730 1_555
Cl0 Fe0 2.372482 1_555
Cl0 Li1 2.611569 1_545
Cl1 Fe9 2.369445 1_555
Cl1 Fe0 2.417277 1_555
Cl1 Fe1 2.436366 1_555
Cl2 Fe1 2.436600 1_555
Cl2 Li0 2.466593 1_555
Cl2 Fe0 2.469282 1_555
Cl2 Li1 2.657514 1_545
Cl3 Fe1 2.360536 1_555
Cl3 Fe9 2.370565 1_555
Cl3 Li1 2.541312 1_545
Cl4 Li0 2.364064 1_555
Cl4 Fe2 2.421015 1_555
Cl4 Li2 2.550926 1_555
Cl4 Li6 2.567606 1_555
Cl5 Li5 2.301556 1_455
Cl5 Li1 2.466609 1_555
Cl5 Fe1 2.472453 1_555
Cl5 Li2 2.557768 1_555
Cl6 Li5 2.397072 1_545
Cl6 Li2 2.574547 1_555
Cl6 Fe1 2.728273 1_555
Cl6 Li0 2.867880 1_555
Cl6 Fe0 2.883864 1_655
Cl7 Li19 2.369216 1_554
Cl7 Fe0 2.530580 1_655
Cl7 Li1 2.546758 1_555
Cl7 Fe1 2.595914 1_555
Cl8 Fe3 2.477777 1_555
Cl8 Li3 2.500908 1_555
Cl8 Fe2 2.538366 1_555
Cl8 Li6 2.577797 1_555
Cl9 Li0 2.437404 1_565
Cl9 Fe3 2.499892 1_555
Cl9 Fe2 2.547510 1_555
Cl9 Li2 2.644702 1_555
Cl10 Fe3 2.303032 1_555
Cl10 Li6 2.457858 1_555
Cl10 Li2 2.464535 1_555
Cl11 Li5 2.386972 1_555
Cl11 Fe0 2.487882 1_655
Cl11 Li1 2.565119 1_555
Cl11 Li2 2.590610 1_555
Cl12 Li3 2.261214 1_555
Cl12 Li4 2.385579 1_555
Cl12 Li11 2.438258 1_555
Cl12 Li7 2.445124 1_555
Cl13 Li9 2.318712 1_455
Cl13 Fe3 2.447312 1_555
Cl13 Li6 2.532470 1_565
Cl13 Li7 2.565218 1_555
Cl14 Li9 2.496097 1_545
Cl14 Fe2 2.517224 1_655
Cl14 Fe3 2.580478 1_555
Cl14 Li7 2.679144 1_555
Cl15 Li14 2.336581 1_555
Cl15 Fe4 2.453898 1_555
Cl15 Li11 2.582051 1_555
Cl15 Li4 2.582746 1_555
Cl16 Li5 2.460467 1_555
Cl16 Fe3 2.569258 1_555
Cl16 Li6 2.622501 1_565
Cl16 Fe2 2.632979 1_655
Cl16 Li0 2.934297 1_565
Cl17 Li3 2.320503 1_565
Cl17 Fe4 2.455738 1_555
Cl17 Li4 2.520209 1_555
Cl17 Li7 2.557823 1_555
Cl18 Li9 2.383598 1_555
Cl18 Fe2 2.399447 1_655
Cl18 Li6 2.607600 1_565
Cl18 Li7 2.673754 1_555
Cl19 Fe4 2.290459 1_555
Cl19 Li11 2.458473 1_555
Cl19 Li7 2.509318 1_555
Cl20 Fe5 2.445621 1_555
Cl20 Li14 2.462647 1_555
Cl20 Li16 2.466695 1_555
Cl20 Li8 2.480073 1_555
Cl21 Li15 2.316455 1_455
Cl21 Fe5 2.577256 1_555
Cl21 Fe4 2.578663 1_555
Cl21 Li11 2.606567 1_565
Cl22 Li15 2.479579 1_545
Cl22 Fe4 2.605101 1_555
Cl22 Fe5 2.625807 1_555
Cl22 Li14 2.708452 1_555
Cl22 Li4 2.722420 1_655
Cl23 Li10 2.415511 1_555
Cl23 Fe6 2.521213 1_555
Cl23 Li13 2.583007 1_555
Cl23 Li16 2.606839 1_555
Cl23 Li8 2.735345 1_555
Cl24 Li9 2.450623 1_555
Cl24 Fe4 2.502480 1_555
Cl24 Li11 2.606477 1_565
Cl24 Li4 2.666580 1_655
Cl24 Li3 2.804159 1_565
Cl25 Fe6 2.409950 1_555
Cl25 Fe5 2.458861 1_555
Cl25 Li14 2.510562 1_565
Cl25 Li8 2.569095 1_555
Cl26 Li15 2.363861 1_555
Cl26 Fe5 2.419861 1_555
Cl26 Li11 2.682664 1_565
Cl26 Li14 2.767099 1_565
Cl26 Li4 2.880770 1_655
Cl27 Fe6 2.341673 1_555
Cl27 Fe5 2.390978 1_555
Cl27 Li16 2.476337 1_555
Cl28 Li10 2.356186 1_555
Cl28 Fe7 2.480735 1_555
Cl28 Li13 2.566207 1_555
Cl28 Li18 2.706477 1_545
Cl28 Li12 2.794521 1_455
Cl29 Li17 2.278932 1_455
Cl29 Fe7 2.449225 1_555
Cl29 Li16 2.523047 1_565
Cl29 Fe6 2.583950 1_555
Cl30 Li10 2.474042 1_565
Cl30 Fe7 2.537443 1_555
Cl30 Li13 2.551565 1_565
Cl30 Fe8 2.647591 1_555
Cl30 Li12 2.830449 1_455
Cl31 Li17 2.483079 1_545
Cl31 Li13 2.539795 1_555
Cl31 Fe7 2.602780 1_555
Cl31 Li8 2.642997 1_655
Cl31 Fe6 2.731803 1_555
Cl32 Li15 2.453858 1_555
Cl32 Fe6 2.458366 1_555
Cl32 Li8 2.520637 1_655
Cl32 Li16 2.560750 1_565
Cl32 Li14 2.968086 1_565
Cl33 Fe8 2.326825 1_555
Cl33 Li12 2.403170 1_455
Cl33 Li18 2.461410 1_545
Cl34 Li10 2.254586 1_655
Cl34 Fe7 2.429833 1_555
Cl34 Fe8 2.513778 1_555
Cl34 Li18 2.544360 1_545
Cl35 Li17 2.401942 1_555
Cl35 Fe7 2.490426 1_555
Cl35 Li13 2.622447 1_565
Cl35 Li16 2.634337 1_565
Cl35 Li8 2.690088 1_655
Cl36 Li19 2.436634 1_455
Cl36 Li18 2.470024 1_555
Cl36 Fe8 2.479753 1_555
Cl36 Fe9 2.617475 1_556
Cl37 Li19 2.435294 1_545
Cl37 Li12 2.462046 1_555
Cl37 Fe8 2.467786 1_555
Cl37 Fe9 2.840956 1_556
Cl38 Li17 2.443120 1_555
Cl38 Li13 2.505290 1_565
Cl38 Fe8 2.563456 1_555
Cl38 Li18 2.735006 1_555
Cl38 Li12 2.816255 1_555
Cl39 Li19 2.364098 1_555
Cl39 Li12 2.457622 1_555
Cl39 Li18 2.466378 1_555
Cl39 Fe9 2.539370 1_556
