# generated using pymatgen
data_Ca3(InAs2)2
_symmetry_space_group_name_H-M   'P 1'
_cell_length_a   4.33265079
_cell_length_b   6.66438523
_cell_length_c   16.18483173
_cell_angle_alpha   90.00000000
_cell_angle_beta   90.00000000
_cell_angle_gamma   90.00000000
_symmetry_Int_Tables_number   1
_chemical_formula_structural   Ca3(InAs2)2
_chemical_formula_sum   'Ca6 In4 As8'
_cell_volume   467.32817818
_cell_formula_units_Z   2
loop_
 _symmetry_equiv_pos_site_id
 _symmetry_equiv_pos_as_xyz
  1  'x, y, z'
loop_
 _atom_site_type_symbol
 _atom_site_label
 _atom_site_symmetry_multiplicity
 _atom_site_fract_x
 _atom_site_fract_y
 _atom_site_fract_z
 _atom_site_occupancy
  Ca  Ca0  1  0.00000000  0.27731632  0.80455458  1
  Ca  Ca1  1  0.50000000  0.77731632  0.69544542  1
  Ca  Ca2  1  -0.00000000  0.72268368  0.19544542  1
  Ca  Ca3  1  0.50000000  0.22268368  0.30455458  1
  Ca  Ca4  1  0.00000000  -0.00000000  -0.00000000  1
  Ca  Ca5  1  0.50000000  0.50000000  0.50000000  1
  In  In0  1  0.00000000  0.86084375  0.41183911  1
  In  In1  1  0.50000000  0.36084375  0.08816089  1
  In  In2  1  -0.00000000  0.13915625  0.58816089  1
  In  In3  1  0.50000000  0.63915625  0.91183911  1
  As  As0  1  0.50000000  0.24351039  0.92950754  1
  As  As1  1  0.50000000  0.75648961  0.07049246  1
  As  As2  1  -0.00000000  0.22998414  0.17231872  1
  As  As3  1  -0.00000000  0.25648961  0.42950754  1
  As  As4  1  0.50000000  0.72998414  0.32768128  1
  As  As5  1  0.00000000  0.77001586  0.82768128  1
  As  As6  1  -0.00000000  0.74351039  0.57049246  1
  As  As7  1  0.50000000  0.27001586  0.67231872  1
loop_
_geom_bond_atom_site_label_1
_geom_bond_atom_site_label_2
_geom_bond_distance
_geom_bond_site_symmetry_2
As0 In3 2.652198 1_555
As0 In1 2.684201 1_556
As0 Ca4 2.937392 1_656
As0 Ca4 2.937392 1_556
As0 Ca0 2.972136 1_555
As0 Ca0 2.972136 1_655
As1 In1 2.652198 1_555
As1 In3 2.684201 1_554
As1 Ca4 2.937392 1_665
As1 Ca4 2.937392 1_565
As1 Ca2 2.972136 1_655
As1 Ca2 2.972136 1_555
As2 In1 2.703476 1_555
As2 In1 2.703476 1_455
As2 Ca3 3.045629 1_455
As2 Ca3 3.045629 1_555
As2 Ca4 3.182360 1_555
As2 Ca2 3.304805 1_555
As2 Ca2 3.401503 1_545
As3 In0 2.652198 1_545
As3 In2 2.684201 1_555
As3 Ca5 2.937392 1_455
As3 Ca5 2.937392 1_555
As3 Ca3 2.972136 1_455
As3 Ca3 2.972136 1_555
As4 In0 2.703476 1_555
As4 In0 2.703476 1_655
As4 Ca2 3.045629 1_555
As4 Ca2 3.045629 1_655
As4 Ca5 3.182360 1_555
As4 Ca3 3.304805 1_565
As4 Ca3 3.401503 1_555
As5 In3 2.703476 1_555
As5 In3 2.703476 1_455
As5 Ca1 3.045629 1_455
As5 Ca1 3.045629 1_555
As5 Ca4 3.182360 1_566
As5 Ca0 3.304805 1_555
As5 Ca0 3.401503 1_565
As6 In2 2.652198 1_565
As6 In0 2.684201 1_555
As6 Ca5 2.937392 1_455
As6 Ca5 2.937392 1_555
As6 Ca1 2.972136 1_455
As6 Ca1 2.972136 1_555
As7 In2 2.703476 1_655
As7 In2 2.703476 1_555
As7 Ca0 3.045629 1_555
As7 Ca0 3.045629 1_655
As7 Ca5 3.182360 1_555
As7 Ca1 3.304805 1_545
As7 Ca1 3.401503 1_555
