# generated using pymatgen
data_Na2ZnGe2(HO2)4
_symmetry_space_group_name_H-M   'P 1'
_cell_length_a   8.83870800
_cell_length_b   13.14453300
_cell_length_c   13.26304800
_cell_angle_alpha   90.00000000
_cell_angle_beta   90.00000000
_cell_angle_gamma   90.00000000
_symmetry_Int_Tables_number   1
_chemical_formula_structural   Na2ZnGe2(HO2)4
_chemical_formula_sum   'Na16 Zn8 Ge16 H32 O64'
_cell_volume   1540.91005466
_cell_formula_units_Z   8
loop_
 _symmetry_equiv_pos_site_id
 _symmetry_equiv_pos_as_xyz
  1  'x, y, z'
loop_
 _atom_site_type_symbol
 _atom_site_label
 _atom_site_symmetry_multiplicity
 _atom_site_fract_x
 _atom_site_fract_y
 _atom_site_fract_z
 _atom_site_occupancy
  Na  Na0  1  0.74433200  0.87444100  0.14722800  1
  Na  Na1  1  0.75566800  0.37444100  0.35277200  1
  Na  Na2  1  0.75566800  0.12555900  0.64722800  1
  Na  Na3  1  0.74433200  0.62555900  0.85277200  1
  Na  Na4  1  0.25566800  0.12555900  0.85277200  1
  Na  Na5  1  0.24433200  0.62555900  0.64722800  1
  Na  Na6  1  0.24433200  0.87444100  0.35277200  1
  Na  Na7  1  0.25566800  0.37444100  0.14722800  1
  Na  Na8  1  0.00000000  0.00000000  0.00000000  1
  Na  Na9  1  0.50000000  0.50000000  0.50000000  1
  Na  Na10  1  0.50000000  0.00000000  0.50000000  1
  Na  Na11  1  0.00000000  0.50000000  0.00000000  1
  Na  Na12  1  0.49440200  0.75000000  0.00000000  1
  Na  Na13  1  0.00559800  0.25000000  0.50000000  1
  Na  Na14  1  0.50559800  0.25000000  0.00000000  1
  Na  Na15  1  0.99440200  0.75000000  0.50000000  1
  Zn  Zn0  1  0.87620600  0.62707200  0.25132800  1
  Zn  Zn1  1  0.62379400  0.12707200  0.24867200  1
  Zn  Zn2  1  0.62379400  0.37292800  0.75132800  1
  Zn  Zn3  1  0.87620600  0.87292800  0.74867200  1
  Zn  Zn4  1  0.12379400  0.37292800  0.74867200  1
  Zn  Zn5  1  0.37620600  0.87292800  0.75132800  1
  Zn  Zn6  1  0.37620600  0.62707200  0.24867200  1
  Zn  Zn7  1  0.12379400  0.12707200  0.25132800  1
  Ge  Ge0  1  0.87403900  0.00066400  0.37753500  1
  Ge  Ge1  1  0.62596100  0.50066400  0.12246500  1
  Ge  Ge2  1  0.62596100  0.99933600  0.87753500  1
  Ge  Ge3  1  0.87403900  0.49933600  0.62246500  1
  Ge  Ge4  1  0.12596100  0.99933600  0.62246500  1
  Ge  Ge5  1  0.37403900  0.49933600  0.87753500  1
  Ge  Ge6  1  0.37403900  0.00066400  0.12246500  1
  Ge  Ge7  1  0.12596100  0.50066400  0.37753500  1
  Ge  Ge8  1  0.12038200  0.75226800  0.12069200  1
  Ge  Ge9  1  0.37961800  0.25226800  0.37930800  1
  Ge  Ge10  1  0.37961800  0.24773200  0.62069200  1
  Ge  Ge11  1  0.12038200  0.74773200  0.87930800  1
  Ge  Ge12  1  0.87961800  0.24773200  0.87930800  1
  Ge  Ge13  1  0.62038200  0.74773200  0.62069200  1
  Ge  Ge14  1  0.62038200  0.75226800  0.37930800  1
  Ge  Ge15  1  0.87961800  0.25226800  0.12069200  1
  H  H0  1  0.09053300  0.92049500  0.16923800  1
  H  H1  1  0.40946700  0.42049500  0.33076200  1
  H  H2  1  0.40946700  0.07950500  0.66923800  1
  H  H3  1  0.09053300  0.57950500  0.83076200  1
  H  H4  1  0.90946700  0.07950500  0.83076200  1
  H  H5  1  0.59053300  0.57950500  0.66923800  1
  H  H6  1  0.59053300  0.92049500  0.33076200  1
  H  H7  1  0.90946700  0.42049500  0.16923800  1
  H  H8  1  0.90283800  0.83272200  0.32949000  1
  H  H9  1  0.59716200  0.33272200  0.17051000  1
  H  H10  1  0.59716200  0.16727800  0.82949000  1
  H  H11  1  0.90283800  0.66727800  0.67051000  1
  H  H12  1  0.09716200  0.16727800  0.67051000  1
  H  H13  1  0.40283800  0.66727800  0.82949000  1
  H  H14  1  0.40283800  0.83272200  0.17051000  1
  H  H15  1  0.09716200  0.33272200  0.32949000  1
  H  H16  1  0.84950900  0.95793800  0.54596400  1
  H  H17  1  0.65049100  0.45793800  0.95403600  1
  H  H18  1  0.65049100  0.04206200  0.04596400  1
  H  H19  1  0.84950900  0.54206200  0.45403600  1
  H  H20  1  0.15049100  0.04206200  0.45403600  1
  H  H21  1  0.34950900  0.54206200  0.04596400  1
  H  H22  1  0.34950900  0.95793800  0.95403600  1
  H  H23  1  0.15049100  0.45793800  0.54596400  1
  H  H24  1  0.84618200  0.70917500  0.04482800  1
  H  H25  1  0.65381800  0.20917500  0.45517200  1
  H  H26  1  0.65381800  0.29082500  0.54482800  1
  H  H27  1  0.84618200  0.79082500  0.95517200  1
  H  H28  1  0.15381800  0.29082500  0.95517200  1
  H  H29  1  0.34618200  0.79082500  0.54482800  1
  H  H30  1  0.34618200  0.70917500  0.45517200  1
  H  H31  1  0.15381800  0.20917500  0.04482800  1
  O  O0  1  0.02130500  0.87329200  0.13155000  1
  O  O1  1  0.47869500  0.37329200  0.36845000  1
  O  O2  1  0.47869500  0.12670800  0.63155000  1
  O  O3  1  0.02130500  0.62670800  0.86845000  1
  O  O4  1  0.97869500  0.12670800  0.86845000  1
  O  O5  1  0.52130500  0.62670800  0.63155000  1
  O  O6  1  0.52130500  0.87329200  0.36845000  1
  O  O7  1  0.97869500  0.37329200  0.13155000  1
  O  O8  1  0.97217900  0.87930000  0.36758100  1
  O  O9  1  0.52782100  0.37930000  0.13241900  1
  O  O10  1  0.52782100  0.12070000  0.86758100  1
  O  O11  1  0.97217900  0.62070000  0.63241900  1
  O  O12  1  0.02782100  0.12070000  0.63241900  1
  O  O13  1  0.47217900  0.62070000  0.86758100  1
  O  O14  1  0.47217900  0.87930000  0.13241900  1
  O  O15  1  0.02782100  0.37930000  0.36758100  1
  O  O16  1  0.78370600  0.00055500  0.50056500  1
  O  O17  1  0.71629400  0.50055500  0.99943500  1
  O  O18  1  0.71629400  0.99944500  0.00056500  1
  O  O19  1  0.78370600  0.49944500  0.49943500  1
  O  O20  1  0.21629400  0.99944500  0.49943500  1
  O  O21  1  0.28370600  0.49944500  0.00056500  1
  O  O22  1  0.28370600  0.00055500  0.99943500  1
  O  O23  1  0.21629400  0.50055500  0.50056500  1
  O  O24  1  0.98295300  0.65622700  0.12278900  1
  O  O25  1  0.51704700  0.15622700  0.37721100  1
  O  O26  1  0.51704700  0.34377300  0.62278900  1
  O  O27  1  0.98295300  0.84377300  0.87721100  1
  O  O28  1  0.01704700  0.34377300  0.87721100  1
  O  O29  1  0.48295300  0.84377300  0.62278900  1
  O  O30  1  0.48295300  0.65622700  0.37721100  1
  O  O31  1  0.01704700  0.15622700  0.12278900  1
  O  O32  1  0.21481200  0.75000000  0.00000000  1
  O  O33  1  0.28518800  0.25000000  0.50000000  1
  O  O34  1  0.78518800  0.25000000  0.00000000  1
  O  O35  1  0.71481200  0.75000000  0.50000000  1
  O  O36  1  0.01128600  0.09702300  0.37700000  1
  O  O37  1  0.48871400  0.59702300  0.12300000  1
  O  O38  1  0.48871400  0.90297700  0.87700000  1
  O  O39  1  0.01128600  0.40297700  0.62300000  1
  O  O40  1  0.98871400  0.90297700  0.62300000  1
  O  O41  1  0.51128600  0.40297700  0.87700000  1
  O  O42  1  0.51128600  0.09702300  0.12300000  1
  O  O43  1  0.98871400  0.59702300  0.37700000  1
  O  O44  1  0.73320100  0.00037900  0.28434500  1
  O  O45  1  0.76679900  0.50037900  0.21565500  1
  O  O46  1  0.76679900  0.99962100  0.78434500  1
  O  O47  1  0.73320100  0.49962100  0.71565500  1
  O  O48  1  0.26679900  0.99962100  0.71565500  1
  O  O49  1  0.23320100  0.49962100  0.78434500  1
  O  O50  1  0.23320100  0.00037900  0.21565500  1
  O  O51  1  0.26679900  0.50037900  0.28434500  1
  O  O52  1  0.76059400  0.75180700  0.28569200  1
  O  O53  1  0.73940600  0.25180700  0.21430800  1
  O  O54  1  0.73940600  0.24819300  0.78569200  1
  O  O55  1  0.76059400  0.74819300  0.71430800  1
  O  O56  1  0.23940600  0.24819300  0.71430800  1
  O  O57  1  0.26059400  0.74819300  0.78569200  1
  O  O58  1  0.26059400  0.75180700  0.21430800  1
  O  O59  1  0.23940600  0.25180700  0.28569200  1
  O  O60  1  0.77720900  0.75000000  0.00000000  1
  O  O61  1  0.72279100  0.25000000  0.50000000  1
  O  O62  1  0.22279100  0.25000000  0.00000000  1
  O  O63  1  0.27720900  0.75000000  0.50000000  1
loop_
_geom_bond_atom_site_label_1
_geom_bond_atom_site_label_2
_geom_bond_distance
_geom_bond_site_symmetry_2
Na0 O14 2.414331 1_555
Na0 O52 2.447787 1_555
Na0 O0 2.456945 1_655
Na0 O44 2.461155 1_565
Na0 O18 2.558330 1_555
Na0 O60 2.563791 1_555
Na1 O15 2.414331 1_655
Na1 O53 2.447787 1_555
Na1 O1 2.456945 1_555
Na1 O45 2.461155 1_555
Na1 O19 2.558330 1_555
Na1 O61 2.563791 1_555
Na2 O12 2.414331 1_655
Na2 O54 2.447787 1_555
Na2 O2 2.456945 1_555
Na2 O46 2.461155 1_545
Na2 O16 2.558330 1_555
Na2 O61 2.563791 1_555
Na3 O13 2.414331 1_555
Na3 O55 2.447787 1_555
Na3 O3 2.456945 1_655
Na3 O47 2.461155 1_555
Na3 O17 2.558330 1_555
Na3 O60 2.563791 1_556
Na4 O10 2.414331 1_555
Na4 O56 2.447787 1_555
Na4 O4 2.456945 1_455
Na4 O48 2.461155 1_545
Na4 O22 2.558330 1_555
Na4 O62 2.563791 1_556
Na5 O11 2.414331 1_455
Na5 O57 2.447787 1_555
Na5 O5 2.456945 1_555
Na5 O49 2.461155 1_555
Na5 O23 2.558330 1_555
Na5 O63 2.563791 1_555
Na6 O8 2.414331 1_455
Na6 O58 2.447787 1_555
Na6 O6 2.456945 1_555
Na6 O50 2.461155 1_565
Na6 O20 2.558330 1_555
Na6 O63 2.563791 1_555
Na7 O9 2.414331 1_555
Na7 O59 2.447787 1_555
Na7 O7 2.456945 1_455
Na7 O51 2.461155 1_555
Na7 O21 2.558330 1_555
Na7 O62 2.563791 1_555
Na8 O4 2.419416 1_454
Na8 O0 2.419416 1_545
Na8 O18 2.507616 1_445
Na8 O22 2.507616 1_554
Na8 O31 2.625241 1_555
Na8 O27 2.625241 1_444
Na9 O1 2.419416 1_555
Na9 O5 2.419416 1_555
Na9 O19 2.507616 1_555
Na9 O23 2.507616 1_555
Na9 O30 2.625241 1_555
Na9 O26 2.625241 1_555
Na10 O2 2.419416 1_555
Na10 O6 2.419416 1_545
Na10 O20 2.507616 1_545
Na10 O16 2.507616 1_555
Na10 O25 2.625241 1_555
Na10 O29 2.625241 1_545
Na11 O7 2.419416 1_455
Na11 O3 2.419416 1_554
Na11 O21 2.507616 1_555
Na11 O17 2.507616 1_454
Na11 O24 2.625241 1_455
Na11 O28 2.625241 1_554
Na12 O13 2.451877 1_554
Na12 O14 2.451877 1_555
Na12 O32 2.471214 1_555
Na12 O60 2.499648 1_555
Na12 O37 2.589828 1_555
Na12 O38 2.589828 1_554
Na13 O12 2.451877 1_555
Na13 O15 2.451877 1_555
Na13 O33 2.471214 1_555
Na13 O61 2.499648 1_455
Na13 O39 2.589828 1_555
Na13 O36 2.589828 1_555
Na14 O10 2.451877 1_554
Na14 O9 2.451877 1_555
Na14 O34 2.471214 1_555
Na14 O62 2.499648 1_555
Na14 O41 2.589828 1_554
Na14 O42 2.589828 1_555
Na15 O11 2.451877 1_555
Na15 O8 2.451877 1_555
Na15 O35 2.471214 1_555
Na15 O63 2.499648 1_655
Na15 O40 2.589828 1_555
Na15 O43 2.589828 1_555
Ge0 O36 1.753821 1_655
Ge0 O44 1.754212 1_555
Ge0 O16 1.816619 1_555
Ge0 O8 1.820649 1_545
Ge1 O37 1.753821 1_555
Ge1 O45 1.754212 1_555
Ge1 O17 1.816619 1_554
Ge1 O9 1.820649 1_555
Ge2 O38 1.753821 1_555
Ge2 O46 1.754212 1_555
Ge2 O18 1.816619 1_556
Ge2 O10 1.820649 1_565
Ge3 O39 1.753821 1_655
Ge3 O47 1.754212 1_555
Ge3 O19 1.816619 1_555
Ge3 O11 1.820649 1_555
Ge4 O40 1.753821 1_455
Ge4 O48 1.754212 1_555
Ge4 O20 1.816619 1_555
Ge4 O12 1.820649 1_565
Ge5 O41 1.753821 1_555
Ge5 O49 1.754212 1_555
Ge5 O21 1.816619 1_556
Ge5 O13 1.820649 1_555
Ge6 O42 1.753821 1_555
Ge6 O50 1.754212 1_555
Ge6 O22 1.816619 1_554
Ge6 O14 1.820649 1_545
Ge7 O43 1.753821 1_455
Ge7 O51 1.754212 1_555
Ge7 O23 1.816619 1_555
Ge7 O15 1.820649 1_555
Ge8 O24 1.752126 1_455
Ge8 O58 1.754291 1_555
Ge8 O32 1.805517 1_555
Ge8 O0 1.821612 1_555
Ge9 O25 1.752126 1_555
Ge9 O59 1.754291 1_555
Ge9 O33 1.805517 1_555
Ge9 O1 1.821612 1_555
Ge10 O26 1.752126 1_555
Ge10 O56 1.754291 1_555
Ge10 O33 1.805517 1_555
Ge10 O2 1.821612 1_555
Ge11 O27 1.752126 1_455
Ge11 O57 1.754291 1_555
Ge11 O32 1.805517 1_556
Ge11 O3 1.821612 1_555
Ge12 O28 1.752126 1_655
Ge12 O54 1.754291 1_555
Ge12 O34 1.805517 1_556
Ge12 O4 1.821612 1_555
Ge13 O29 1.752126 1_555
Ge13 O55 1.754291 1_555
Ge13 O35 1.805517 1_555
Ge13 O5 1.821612 1_555
Ge14 O30 1.752126 1_555
Ge14 O52 1.754291 1_555
Ge14 O35 1.805517 1_555
Ge14 O6 1.821612 1_555
Ge15 O31 1.752126 1_655
Ge15 O53 1.754291 1_555
Ge15 O34 1.805517 1_555
Ge15 O7 1.821612 1_555
H0 O0 1.004607 1_555
H0 O50 1.752628 1_565
H1 O1 1.004607 1_555
H1 O51 1.752628 1_555
H2 O2 1.004607 1_555
H2 O48 1.752628 1_545
H3 O3 1.004607 1_555
H3 O49 1.752628 1_555
H4 O4 1.004607 1_555
H4 O46 1.752628 1_545
H5 O5 1.004607 1_555
H5 O47 1.752628 1_555
H6 O6 1.004607 1_555
H6 O44 1.752628 1_565
H7 O7 1.004607 1_555
H7 O45 1.752628 1_555
H8 O8 1.002847 1_555
H8 O52 1.746238 1_555
H9 O9 1.002847 1_555
H9 O53 1.746238 1_555
H10 O10 1.002847 1_555
H10 O54 1.746238 1_555
H11 O11 1.002847 1_555
H11 O55 1.746238 1_555
H12 O12 1.002847 1_555
H12 O56 1.746238 1_555
H13 O13 1.002847 1_555
H13 O57 1.746238 1_555
H14 O14 1.002847 1_555
H14 O58 1.746238 1_555
H15 O15 1.002847 1_555
H15 O59 1.746238 1_555
H16 O16 1.007291 1_565
H16 O40 1.754912 1_555
H17 O17 1.007291 1_555
H17 O41 1.754912 1_555
H18 O18 1.007291 1_545
H18 O42 1.754912 1_555
H19 O19 1.007291 1_555
H19 O43 1.754912 1_555
H20 O20 1.007291 1_545
H20 O36 1.754912 1_555
H21 O21 1.007291 1_555
H21 O37 1.754912 1_555
H22 O22 1.007291 1_565
H22 O38 1.754912 1_555
H23 O23 1.007291 1_555
H23 O39 1.754912 1_555
H24 O60 1.006536 1_555
H24 O24 1.736355 1_555
H25 O61 1.006536 1_555
H25 O25 1.736355 1_555
H26 O61 1.006536 1_555
H26 O26 1.736355 1_555
H27 O60 1.006536 1_556
H27 O27 1.736355 1_555
H28 O62 1.006536 1_556
H28 O28 1.736355 1_555
H29 O63 1.006536 1_555
H29 O29 1.736355 1_555
H30 O63 1.006536 1_555
H30 O30 1.736355 1_555
H31 O62 1.006536 1_555
H31 O31 1.736355 1_555
O24 Zn0 1.985818 1_555
O25 Zn1 1.985818 1_555
O26 Zn2 1.985818 1_555
O27 Zn3 1.985818 1_555
O28 Zn4 1.985818 1_555
O29 Zn5 1.985818 1_555
O30 Zn6 1.985818 1_555
O31 Zn7 1.985818 1_555
O36 Zn7 1.980680 1_555
O37 Zn6 1.980680 1_555
O38 Zn5 1.980680 1_555
O39 Zn4 1.980680 1_555
O40 Zn3 1.980680 1_555
O41 Zn2 1.980680 1_555
O42 Zn1 1.980680 1_555
O43 Zn0 1.980680 1_555
O44 Zn1 1.982995 1_555
O45 Zn0 1.982995 1_555
O46 Zn3 1.982995 1_555
O47 Zn2 1.982995 1_555
O48 Zn5 1.982995 1_555
O49 Zn4 1.982995 1_555
O50 Zn7 1.982995 1_555
O51 Zn6 1.982995 1_555
O52 Zn0 1.984984 1_555
O53 Zn1 1.984984 1_555
O54 Zn2 1.984984 1_555
O55 Zn3 1.984984 1_555
O56 Zn4 1.984984 1_555
O57 Zn5 1.984984 1_555
O58 Zn6 1.984984 1_555
O59 Zn7 1.984984 1_555
