# generated using pymatgen
data_Ce2Si2O7
_symmetry_space_group_name_H-M   'P 1'
_cell_length_a   6.87153200
_cell_length_b   6.87153200
_cell_length_c   24.94392200
_cell_angle_alpha   90.00000000
_cell_angle_beta   90.00000000
_cell_angle_gamma   90.00000000
_symmetry_Int_Tables_number   1
_chemical_formula_structural   Ce2Si2O7
_chemical_formula_sum   'Ce16 Si16 O56'
_cell_volume   1177.80091236
_cell_formula_units_Z   8
loop_
 _symmetry_equiv_pos_site_id
 _symmetry_equiv_pos_as_xyz
  1  'x, y, z'
loop_
 _atom_site_type_symbol
 _atom_site_label
 _atom_site_symmetry_multiplicity
 _atom_site_fract_x
 _atom_site_fract_y
 _atom_site_fract_z
 _atom_site_occupancy
  Ce  Ce0  1  0.77196200  0.88378700  0.89159400  1
  Ce  Ce1  1  0.82875900  0.51780000  0.39878600  1
  Ce  Ce2  1  0.76752500  0.29813400  0.00099000  1
  Ce  Ce3  1  0.48220000  0.82875900  0.64878600  1
  Ce  Ce4  1  0.23247500  0.70186600  0.50099000  1
  Ce  Ce5  1  0.51780000  0.17124100  0.14878600  1
  Ce  Ce6  1  0.91608000  0.66192400  0.75191600  1
  Ce  Ce7  1  0.70186600  0.76752500  0.25099000  1
  Ce  Ce8  1  0.08392000  0.33807600  0.25191600  1
  Ce  Ce9  1  0.33807600  0.91608000  0.00191600  1
  Ce  Ce10  1  0.29813400  0.23247500  0.75099000  1
  Ce  Ce11  1  0.11621300  0.77196200  0.14159400  1
  Ce  Ce12  1  0.17124100  0.48220000  0.89878600  1
  Ce  Ce13  1  0.22803800  0.11621300  0.39159400  1
  Ce  Ce14  1  0.88378700  0.22803800  0.64159400  1
  Ce  Ce15  1  0.66192400  0.08392000  0.50191600  1
  Si  Si0  1  0.59392100  0.69864500  0.11467900  1
  Si  Si1  1  0.40607900  0.30135500  0.61467900  1
  Si  Si2  1  0.26166400  0.37704700  0.02172400  1
  Si  Si3  1  0.14858500  0.23332100  0.51673000  1
  Si  Si4  1  0.76667900  0.14858500  0.76673000  1
  Si  Si5  1  0.70305500  0.01024600  0.37208800  1
  Si  Si6  1  0.98975400  0.70305500  0.62208800  1
  Si  Si7  1  0.85141500  0.76667900  0.01673000  1
  Si  Si8  1  0.62295300  0.26166400  0.27172400  1
  Si  Si9  1  0.29694500  0.98975400  0.87208800  1
  Si  Si10  1  0.69864500  0.40607900  0.86467900  1
  Si  Si11  1  0.30135500  0.59392100  0.36467900  1
  Si  Si12  1  0.73833600  0.62295300  0.52172400  1
  Si  Si13  1  0.23332100  0.85141500  0.26673000  1
  Si  Si14  1  0.01024600  0.29694500  0.12208800  1
  Si  Si15  1  0.37704700  0.73833600  0.77172400  1
  O  O0  1  0.18921800  0.78407300  0.59552100  1
  O  O1  1  0.84381200  0.95721100  0.79849600  1
  O  O2  1  0.88852700  0.61581700  0.96660700  1
  O  O3  1  0.95721100  0.15618800  0.54849600  1
  O  O4  1  0.87397500  0.75520400  0.48102900  1
  O  O5  1  0.28755100  0.36610300  0.55833700  1
  O  O6  1  0.51590400  0.51937100  0.89024900  1
  O  O7  1  0.46059300  0.02497700  0.91847600  1
  O  O8  1  0.32787600  0.57351100  0.99071500  1
  O  O9  1  0.24479600  0.87397500  0.73102900  1
  O  O10  1  0.71244900  0.63389700  0.05833700  1
  O  O11  1  0.15618800  0.04278900  0.29849600  1
  O  O12  1  0.44403500  0.23657900  0.03961900  1
  O  O13  1  0.42906000  0.87644000  0.82469500  1
  O  O14  1  0.15230500  0.13091700  0.14850700  1
  O  O15  1  0.76342100  0.44403500  0.28961900  1
  O  O16  1  0.27464200  0.05241700  0.49201900  1
  O  O17  1  0.81078200  0.21592700  0.09552100  1
  O  O18  1  0.78407300  0.81078200  0.34552100  1
  O  O19  1  0.74857200  0.81167700  0.15418700  1
  O  O20  1  0.72535800  0.94758300  0.99201900  1
  O  O21  1  0.05241700  0.72535800  0.24201900  1
  O  O22  1  0.55596500  0.76342100  0.53961900  1
  O  O23  1  0.94758300  0.27464200  0.74201900  1
  O  O24  1  0.81167700  0.25142800  0.90418700  1
  O  O25  1  0.57094000  0.12356000  0.32469500  1
  O  O26  1  0.57351100  0.67212400  0.74071500  1
  O  O27  1  0.86406600  0.56983300  0.84623600  1
  O  O28  1  0.13593400  0.43016700  0.34623600  1
  O  O29  1  0.84769500  0.86908300  0.64850700  1
  O  O30  1  0.38418300  0.88852700  0.21660700  1
  O  O31  1  0.23657900  0.55596500  0.78961900  1
  O  O32  1  0.12602500  0.24479600  0.98102900  1
  O  O33  1  0.51937100  0.48409600  0.64024900  1
  O  O34  1  0.63389700  0.28755100  0.80833700  1
  O  O35  1  0.21592700  0.18921800  0.84552100  1
  O  O36  1  0.04278900  0.84381200  0.04849600  1
  O  O37  1  0.67212400  0.42648900  0.49071500  1
  O  O38  1  0.56983300  0.13593400  0.59623600  1
  O  O39  1  0.36610300  0.71244900  0.30833700  1
  O  O40  1  0.42648900  0.32787600  0.24071500  1
  O  O41  1  0.86908300  0.15230500  0.39850700  1
  O  O42  1  0.87644000  0.57094000  0.57469500  1
  O  O43  1  0.43016700  0.86406600  0.09623600  1
  O  O44  1  0.25142800  0.18832300  0.65418700  1
  O  O45  1  0.18832300  0.74857200  0.40418700  1
  O  O46  1  0.02497700  0.53940700  0.66847600  1
  O  O47  1  0.53940700  0.97502300  0.41847600  1
  O  O48  1  0.48062900  0.51590400  0.14024900  1
  O  O49  1  0.12356000  0.42906000  0.07469500  1
  O  O50  1  0.13091700  0.84769500  0.89850700  1
  O  O51  1  0.11147300  0.38418300  0.46660700  1
  O  O52  1  0.97502300  0.46059300  0.16847600  1
  O  O53  1  0.75520400  0.12602500  0.23102900  1
  O  O54  1  0.48409600  0.48062900  0.39024900  1
  O  O55  1  0.61581700  0.11147300  0.71660700  1
loop_
_geom_bond_atom_site_label_1
_geom_bond_atom_site_label_2
_geom_bond_distance
_geom_bond_site_symmetry_2
Ce0 O1 2.427151 1_555
Ce0 O7 2.443094 1_565
Ce0 O50 2.484998 1_655
Ce0 O27 2.516898 1_555
Ce0 O24 2.560297 1_565
Ce0 O20 2.563146 1_555
Ce0 O2 2.744681 1_555
Ce0 O13 2.887760 1_555
Ce0 O6 3.060637 1_555
Ce1 O54 2.391595 1_555
Ce1 O18 2.431601 1_555
Ce1 O41 2.526759 1_555
Ce1 O28 2.556587 1_655
Ce1 O37 2.609661 1_555
Ce1 O4 2.639370 1_555
Ce1 O51 2.734763 1_655
Ce1 O15 2.805979 1_555
Ce1 O45 2.938947 1_655
Ce2 O20 2.436484 1_544
Ce2 O17 2.442845 1_555
Ce2 O24 2.454703 1_554
Ce2 O12 2.459373 1_555
Ce2 O2 2.488424 1_554
Ce2 O32 2.539842 1_654
Ce2 O10 2.740920 1_555
Ce3 O33 2.391595 1_555
Ce3 O0 2.431601 1_555
Ce3 O29 2.526759 1_555
Ce3 O38 2.556587 1_565
Ce3 O26 2.609661 1_555
Ce3 O9 2.639370 1_555
Ce3 O55 2.734763 1_565
Ce3 O22 2.805979 1_555
Ce3 O44 2.938947 1_565
Ce4 O16 2.436484 1_565
Ce4 O0 2.442845 1_555
Ce4 O45 2.454703 1_555
Ce4 O22 2.459373 1_555
Ce4 O51 2.488424 1_555
Ce4 O4 2.539842 1_455
Ce4 O5 2.740920 1_555
Ce5 O48 2.391595 1_555
Ce5 O17 2.431601 1_555
Ce5 O14 2.526759 1_555
Ce5 O43 2.556587 1_545
Ce5 O40 2.609661 1_555
Ce5 O53 2.639370 1_555
Ce5 O30 2.734763 1_545
Ce5 O12 2.805979 1_555
Ce5 O19 2.938947 1_545
Ce6 O46 2.366557 1_655
Ce6 O26 2.371533 1_555
Ce6 O1 2.390341 1_555
Ce6 O27 2.462405 1_555
Ce6 O31 2.502960 1_655
Ce6 O23 2.681399 1_555
Ce6 O9 2.738015 1_655
Ce6 O29 2.983388 1_555
Ce7 O21 2.436484 1_655
Ce7 O18 2.442845 1_555
Ce7 O19 2.454703 1_555
Ce7 O15 2.459373 1_555
Ce7 O30 2.488424 1_555
Ce7 O53 2.539842 1_565
Ce7 O39 2.740920 1_555
Ce8 O52 2.366557 1_455
Ce8 O40 2.371533 1_555
Ce8 O11 2.390341 1_555
Ce8 O28 2.462405 1_555
Ce8 O15 2.502960 1_455
Ce8 O21 2.681399 1_555
Ce8 O53 2.738015 1_455
Ce8 O14 2.983388 1_555
Ce9 O7 2.366557 1_564
Ce9 O8 2.371533 1_554
Ce9 O36 2.390341 1_555
Ce9 O43 2.462405 1_555
Ce9 O12 2.502960 1_565
Ce9 O20 2.681399 1_554
Ce9 O32 2.738015 1_564
Ce9 O50 2.983388 1_554
Ce10 O23 2.436484 1_455
Ce10 O35 2.442845 1_555
Ce10 O44 2.454703 1_555
Ce10 O31 2.459373 1_555
Ce10 O55 2.488424 1_555
Ce10 O9 2.539842 1_545
Ce10 O34 2.740920 1_555
Ce11 O36 2.427151 1_555
Ce11 O52 2.443094 1_455
Ce11 O14 2.484998 1_565
Ce11 O43 2.516898 1_555
Ce11 O19 2.560297 1_455
Ce11 O21 2.563146 1_555
Ce11 O30 2.744681 1_555
Ce11 O49 2.887760 1_555
Ce11 O48 3.060637 1_555
Ce12 O6 2.391595 1_555
Ce12 O35 2.431601 1_555
Ce12 O50 2.526759 1_555
Ce12 O27 2.556587 1_455
Ce12 O8 2.609661 1_555
Ce12 O32 2.639370 1_555
Ce12 O2 2.734763 1_455
Ce12 O31 2.805979 1_555
Ce12 O24 2.938947 1_455
Ce13 O11 2.427151 1_555
Ce13 O47 2.443094 1_545
Ce13 O41 2.484998 1_455
Ce13 O28 2.516898 1_555
Ce13 O45 2.560297 1_545
Ce13 O16 2.563146 1_555
Ce13 O51 2.744681 1_555
Ce13 O25 2.887760 1_555
Ce13 O54 3.060637 1_555
Ce14 O3 2.427151 1_555
Ce14 O46 2.443094 1_655
Ce14 O29 2.484998 1_545
Ce14 O38 2.516898 1_555
Ce14 O44 2.560297 1_655
Ce14 O23 2.563146 1_555
Ce14 O55 2.744681 1_555
Ce14 O42 2.887760 1_555
Ce14 O33 3.060637 1_555
Ce15 O47 2.366557 1_545
Ce15 O37 2.371533 1_555
Ce15 O3 2.390341 1_555
Ce15 O38 2.462405 1_555
Ce15 O22 2.502960 1_545
Ce15 O16 2.681399 1_555
Ce15 O4 2.738015 1_545
Ce15 O41 2.983388 1_555
O0 Si6 1.621016 1_455
O1 Si4 1.624217 1_565
O2 Si7 1.644033 1_556
O3 Si3 1.624217 1_655
O4 Si12 1.650753 1_555
O5 Si3 1.679723 1_555
O5 Si1 1.684172 1_555
O6 Si10 1.609243 1_555
O7 Si9 1.631560 1_545
O8 Si2 1.621052 1_556
O9 Si15 1.650753 1_555
O10 Si7 1.679723 1_555
O10 Si0 1.684172 1_555
O11 Si13 1.624217 1_545
O12 Si2 1.643578 1_555
O13 Si15 1.665581 1_555
O13 Si9 1.681654 1_555
O14 Si14 1.639739 1_555
O15 Si8 1.643578 1_555
O16 Si3 1.635700 1_555
O17 Si14 1.621016 1_655
O18 Si5 1.621016 1_565
O19 Si0 1.644310 1_555
O20 Si7 1.635700 1_556
O21 Si13 1.635700 1_555
O22 Si12 1.643578 1_555
O23 Si4 1.635700 1_555
O24 Si10 1.644310 1_555
O25 Si8 1.665581 1_555
O25 Si5 1.681654 1_555
O26 Si15 1.621052 1_555
O27 Si10 1.664296 1_555
O28 Si11 1.664296 1_555
O29 Si6 1.639739 1_555
O30 Si13 1.644033 1_555
O31 Si15 1.643578 1_555
O32 Si2 1.650753 1_556
O33 Si1 1.609243 1_555
O34 Si4 1.679723 1_555
O34 Si10 1.684172 1_555
O35 Si9 1.621016 1_545
O36 Si7 1.624217 1_455
O37 Si12 1.621052 1_555
O38 Si1 1.664296 1_555
O39 Si13 1.679723 1_555
O39 Si11 1.684172 1_555
O40 Si8 1.621052 1_555
O41 Si5 1.639739 1_555
O42 Si12 1.665581 1_555
O42 Si6 1.681654 1_555
O43 Si0 1.664296 1_555
O44 Si1 1.644310 1_555
O45 Si11 1.644310 1_555
O46 Si6 1.631560 1_455
O47 Si5 1.631560 1_565
O48 Si0 1.609243 1_555
O49 Si2 1.665581 1_555
O49 Si14 1.681654 1_555
O50 Si9 1.639739 1_555
O51 Si3 1.644033 1_555
O52 Si14 1.631560 1_655
O53 Si8 1.650753 1_555
O54 Si11 1.609243 1_555
O55 Si4 1.644033 1_555
