# generated using pymatgen
data_Zr9(In2Co)7
_symmetry_space_group_name_H-M   'P 1'
_cell_length_a   9.39422887
_cell_length_b   9.39423475
_cell_length_c   9.39423121
_cell_angle_alpha   59.99975405
_cell_angle_beta   59.99980917
_cell_angle_gamma   59.99975544
_symmetry_Int_Tables_number   1
_chemical_formula_structural   Zr9(In2Co)7
_chemical_formula_sum   'Zr9 In14 Co7'
_cell_volume   586.22799710
_cell_formula_units_Z   1
loop_
 _symmetry_equiv_pos_site_id
 _symmetry_equiv_pos_as_xyz
  1  'x, y, z'
loop_
 _atom_site_type_symbol
 _atom_site_label
 _atom_site_symmetry_multiplicity
 _atom_site_fract_x
 _atom_site_fract_y
 _atom_site_fract_z
 _atom_site_occupancy
  Zr  Zr0  1  0.12094909  0.63719340  0.12093108  1
  Zr  Zr1  1  0.36280731  0.87905095  0.87907309  1
  Zr  Zr2  1  0.87906888  0.87907449  0.87905067  1
  Zr  Zr3  1  0.63719550  0.12095030  0.12092659  1
  Zr  Zr4  1  0.49999995  0.49999913  0.50000037  1
  Zr  Zr5  1  0.87907232  0.87907269  0.36280504  1
  Zr  Zr6  1  0.12092784  0.12092803  0.12095028  1
  Zr  Zr7  1  0.87904947  0.36280525  0.87907194  1
  Zr  Zr8  1  0.12092581  0.12093170  0.63719309  1
  In  In0  1  0.49999777  0.84146436  0.15853807  1
  In  In1  1  0.49999705  0.84146687  0.50000298  1
  In  In2  1  0.50000587  0.15853380  0.49999403  1
  In  In3  1  0.49999736  0.50000021  0.84146507  1
  In  In4  1  0.15853597  0.50000206  0.49999745  1
  In  In5  1  0.84146418  0.15853619  0.49999678  1
  In  In6  1  0.15853499  0.84146252  0.50000309  1
  In  In7  1  0.50000314  0.15853556  0.84146383  1
  In  In8  1  0.15853305  0.50000357  0.84146688  1
  In  In9  1  0.50000365  0.49999672  0.15853583  1
  In  In10  1  0.84146395  0.49999782  0.50000189  1
  In  In11  1  0.84146615  0.49999505  0.15853387  1
  In  In12  1  0.24999981  0.25000005  0.25000015  1
  In  In13  1  0.75000000  0.75000024  0.75000021  1
  Co  Co0  1  0.77797567  0.77797559  0.22202499  1
  Co  Co1  1  0.00000097  0.99999897  -0.00000011  1
  Co  Co2  1  0.22203089  0.77796916  0.22203054  1
  Co  Co3  1  0.22202952  0.77797148  0.77797073  1
  Co  Co4  1  0.22202534  0.22202537  0.77797396  1
  Co  Co5  1  0.77796948  0.22203157  0.77796928  1
  Co  Co6  1  0.77797105  0.22202889  0.22202833  1
loop_
_geom_bond_atom_site_label_1
_geom_bond_atom_site_label_2
_geom_bond_distance
_geom_bond_site_symmetry_2
In0 In7 2.978644 1_564
In0 Zr4 3.207778 1_555
In0 In6 3.207781 1_555
In0 In1 3.207809 1_555
In0 In9 3.207810 1_555
In0 In11 3.207826 1_555
In0 Zr6 3.267973 1_565
In0 Zr1 3.267978 1_554
In0 Zr2 3.268082 1_554
In0 Zr3 3.268102 1_565
In1 In2 2.978601 1_565
In1 In3 3.207784 1_555
In1 In6 3.207793 1_555
In1 In10 3.207817 1_555
In1 Zr4 3.207827 1_555
In1 Zr8 3.267975 1_565
In1 Zr1 3.267975 1_555
In1 Zr5 3.268098 1_555
In1 Zr3 3.268099 1_565
In2 In9 3.207748 1_555
In2 In5 3.207762 1_555
In2 Zr4 3.207807 1_555
In2 In4 3.207828 1_555
In2 In7 3.207842 1_555
In2 Zr5 3.267935 1_545
In2 Zr3 3.267949 1_555
In2 Zr1 3.268109 1_545
In2 Zr8 3.268122 1_555
In3 In9 2.978649 1_556
In3 In8 3.207770 1_555
In3 In7 3.207778 1_555
In3 Zr4 3.207791 1_555
In3 Zr3 3.267880 1_556
In3 Zr0 3.267882 1_556
In3 Zr7 3.267900 1_555
In3 Zr1 3.267905 1_555
In4 In6 3.207782 1_555
In4 In9 3.207788 1_555
In4 Zr4 3.207791 1_555
In4 In8 3.207836 1_555
In4 Zr0 3.267949 1_555
In4 Zr5 3.267971 1_455
In4 Zr8 3.268078 1_555
In4 Zr7 3.268100 1_455
In5 In6 2.978639 1_645
In5 Zr4 3.207776 1_555
In5 In7 3.207783 1_555
In5 Zr6 3.267861 1_655
In5 Zr5 3.267876 1_545
In5 Zr2 3.267898 1_545
In5 Zr8 3.267906 1_655
In6 In8 3.207756 1_555
In6 Zr4 3.207782 1_555
In6 Zr2 3.267882 1_455
In6 Zr5 3.267901 1_455
In6 Zr6 3.267904 1_565
In6 Zr8 3.267910 1_565
In7 Zr4 3.207776 1_555
In7 In8 3.207828 1_555
In7 Zr2 3.267937 1_545
In7 Zr3 3.267977 1_556
In7 Zr1 3.268087 1_545
In7 Zr6 3.268104 1_556
In8 Zr4 3.207808 1_555
In8 Zr2 3.267974 1_455
In8 Zr0 3.267980 1_556
In8 Zr6 3.268093 1_556
In8 Zr7 3.268114 1_455
In9 Zr4 3.207791 1_555
In9 Zr7 3.267858 1_554
In9 Zr3 3.267868 1_555
In9 Zr1 3.267901 1_554
In9 Zr0 3.267910 1_555
In10 In4 2.978646 1_655
In10 In3 3.207790 1_555
In10 Zr4 3.207792 1_555
In10 In5 3.207794 1_555
In10 In11 3.207832 1_555
In10 Zr8 3.267940 1_655
In10 Zr7 3.267974 1_555
In10 Zr0 3.268074 1_655
In10 Zr5 3.268108 1_555
In11 In8 2.978591 1_654
In11 In5 3.207751 1_555
In11 In9 3.207760 1_555
In11 Zr4 3.207804 1_555
In11 Zr6 3.267941 1_655
In11 Zr7 3.267963 1_554
In11 Zr2 3.268114 1_554
In11 Zr0 3.268119 1_655
In12 Zr8 2.969900 1_555
In12 Zr0 2.969903 1_555
In12 Zr6 2.969921 1_555
In12 Zr3 2.969921 1_555
In13 Zr1 2.969898 1_555
In13 Zr7 2.969916 1_555
In13 Zr5 2.969917 1_555
In13 Zr2 2.969919 1_555
Co0 Zr0 2.639512 1_655
Co0 Zr3 2.639520 1_565
Co0 Zr2 2.639520 1_554
Co0 Zr5 2.639526 1_555
Co0 In10 2.678617 1_555
Co0 In0 2.678621 1_555
Co0 In1 2.678634 1_555
Co0 In11 2.678665 1_555
Co1 Zr5 2.782838 1_455
Co1 Zr3 2.782840 1_465
Co1 Zr0 2.782841 1_555
Co1 Zr7 2.782846 1_464
Co1 Zr1 2.782846 1_554
Co1 Zr8 2.782850 1_564
Co1 Zr2 2.782855 1_454
Co1 Zr6 2.782859 1_565
Co2 Zr1 2.639391 1_554
Co2 Zr5 2.639397 1_455
Co2 Zr0 2.639399 1_555
Co2 Zr6 2.639401 1_565
Co2 In4 2.678538 1_555
Co2 In0 2.678555 1_555
Co2 In6 2.678585 1_555
Co2 In9 2.678588 1_555
Co3 Zr8 2.639411 1_565
Co3 Zr0 2.639413 1_556
Co3 Zr2 2.639415 1_455
Co3 Zr1 2.639419 1_555
Co3 In1 2.678545 1_555
Co3 In3 2.678555 1_555
Co3 In8 2.678560 1_555
Co3 In6 2.678563 1_555
Co4 Zr1 2.639519 1_545
Co4 Zr8 2.639529 1_555
Co4 Zr7 2.639529 1_455
Co4 Zr6 2.639535 1_556
Co4 In4 2.678613 1_555
Co4 In7 2.678633 1_555
Co4 In8 2.678648 1_555
Co4 In2 2.678653 1_555
Co5 Zr8 2.639382 1_655
Co5 Zr3 2.639388 1_556
Co5 Zr2 2.639388 1_545
Co5 Zr7 2.639392 1_555
Co5 In10 2.678534 1_555
Co5 In7 2.678547 1_555
Co5 In3 2.678567 1_555
Co5 In5 2.678600 1_555
Co6 Zr5 2.639381 1_545
Co6 Zr7 2.639382 1_554
Co6 Zr6 2.639387 1_655
Co6 Zr3 2.639390 1_555
Co6 In2 2.678524 1_555
Co6 In9 2.678537 1_555
Co6 In11 2.678542 1_555
Co6 In5 2.678556 1_555
