# generated using pymatgen
data_Ce2InCuSe5
_symmetry_space_group_name_H-M   'P 1'
_cell_length_a   4.09403900
_cell_length_b   12.11952700
_cell_length_c   17.35050800
_cell_angle_alpha   90.00000000
_cell_angle_beta   90.00000000
_cell_angle_gamma   90.00000000
_symmetry_Int_Tables_number   1
_chemical_formula_structural   Ce2InCuSe5
_chemical_formula_sum   'Ce8 In4 Cu4 Se20'
_cell_volume   860.89431691
_cell_formula_units_Z   4
loop_
 _symmetry_equiv_pos_site_id
 _symmetry_equiv_pos_as_xyz
  1  'x, y, z'
loop_
 _atom_site_type_symbol
 _atom_site_label
 _atom_site_symmetry_multiplicity
 _atom_site_fract_x
 _atom_site_fract_y
 _atom_site_fract_z
 _atom_site_occupancy
  Ce  Ce0  1  0.25000000  0.13664900  0.40555800  1
  Ce  Ce1  1  0.75000000  0.02434200  0.82060300  1
  Ce  Ce2  1  0.25000000  0.63664900  0.09444200  1
  Ce  Ce3  1  0.75000000  0.36335100  0.90555800  1
  Ce  Ce4  1  0.25000000  0.47565800  0.32060300  1
  Ce  Ce5  1  0.25000000  0.97565800  0.17939700  1
  Ce  Ce6  1  0.75000000  0.86335100  0.59444200  1
  Ce  Ce7  1  0.75000000  0.52434200  0.67939700  1
  In  In0  1  0.25000000  0.69089200  0.86060200  1
  In  In1  1  0.75000000  0.80910800  0.36060200  1
  In  In2  1  0.75000000  0.30910800  0.13939800  1
  In  In3  1  0.25000000  0.19089200  0.63939800  1
  Cu  Cu0  1  0.25000000  0.07933900  0.00466900  1
  Cu  Cu1  1  0.25000000  0.57933900  0.49533100  1
  Cu  Cu2  1  0.75000000  0.42066100  0.50466900  1
  Cu  Cu3  1  0.75000000  0.92066100  0.99533100  1
  Se  Se0  1  0.75000000  0.10667700  0.53570500  1
  Se  Se1  1  0.75000000  0.26324400  0.73197300  1
  Se  Se2  1  0.75000000  0.51811700  0.19563200  1
  Se  Se3  1  0.25000000  0.68316700  0.61374400  1
  Se  Se4  1  0.25000000  0.89332300  0.46429500  1
  Se  Se5  1  0.75000000  0.31683300  0.38625600  1
  Se  Se6  1  0.25000000  0.23675600  0.23197300  1
  Se  Se7  1  0.75000000  0.09895000  0.07935500  1
  Se  Se8  1  0.25000000  0.48188300  0.80436800  1
  Se  Se9  1  0.25000000  0.40105000  0.57935500  1
  Se  Se10  1  0.75000000  0.60667700  0.96429500  1
  Se  Se11  1  0.75000000  0.01811700  0.30436800  1
  Se  Se12  1  0.25000000  0.18316700  0.88625600  1
  Se  Se13  1  0.25000000  0.90105000  0.92064500  1
  Se  Se14  1  0.25000000  0.73675600  0.26802700  1
  Se  Se15  1  0.75000000  0.59895000  0.42064500  1
  Se  Se16  1  0.75000000  0.81683300  0.11374400  1
  Se  Se17  1  0.75000000  0.76324400  0.76802700  1
  Se  Se18  1  0.25000000  0.98188300  0.69563200  1
  Se  Se19  1  0.25000000  0.39332300  0.03570500  1
loop_
_geom_bond_atom_site_label_1
_geom_bond_atom_site_label_2
_geom_bond_distance
_geom_bond_site_symmetry_2
Ce0 Se5 3.011841 1_455
Ce0 Se5 3.011841 1_555
Ce0 Se11 3.055560 1_455
Ce0 Se11 3.055560 1_555
Ce0 Se0 3.069418 1_455
Ce0 Se0 3.069418 1_555
Ce0 Se4 3.120124 1_545
Ce0 Se6 3.246974 1_555
Ce1 Se18 3.025996 1_545
Ce1 Se18 3.025996 1_645
Ce1 Se12 3.032003 1_555
Ce1 Se12 3.032003 1_655
Ce1 Se13 3.071803 1_545
Ce1 Se13 3.071803 1_645
Ce1 Se1 3.278410 1_555
Ce1 Cu3 3.281718 1_545
Ce1 Se17 3.293247 1_545
Ce2 Se16 3.011841 1_455
Ce2 Se16 3.011841 1_555
Ce2 Se2 3.055560 1_555
Ce2 Se2 3.055560 1_455
Ce2 Se10 3.069418 1_554
Ce2 Se10 3.069418 1_454
Ce2 Se19 3.120124 1_555
Ce2 Se14 3.246974 1_555
Ce3 Se12 3.011841 1_555
Ce3 Se12 3.011841 1_655
Ce3 Se8 3.055560 1_655
Ce3 Se8 3.055560 1_555
Ce3 Se19 3.069418 1_556
Ce3 Se19 3.069418 1_656
Ce3 Se10 3.120124 1_555
Ce3 Se1 3.246974 1_555
Ce4 Se2 3.025996 1_555
Ce4 Se2 3.025996 1_455
Ce4 Se5 3.032003 1_455
Ce4 Se5 3.032003 1_555
Ce4 Se15 3.071803 1_555
Ce4 Se15 3.071803 1_455
Ce4 Se6 3.278410 1_555
Ce4 Cu1 3.281718 1_555
Ce4 Se14 3.293247 1_555
Ce5 Se11 3.025996 1_565
Ce5 Se11 3.025996 1_465
Ce5 Se16 3.032003 1_455
Ce5 Se16 3.032003 1_555
Ce5 Se7 3.071803 1_565
Ce5 Se7 3.071803 1_465
Ce5 Se14 3.278410 1_555
Ce5 Cu0 3.281718 1_565
Ce5 Se6 3.293247 1_565
Ce6 Se3 3.011841 1_655
Ce6 Se3 3.011841 1_555
Ce6 Se18 3.055560 1_655
Ce6 Se18 3.055560 1_555
Ce6 Se4 3.069418 1_655
Ce6 Se4 3.069418 1_555
Ce6 Se0 3.120124 1_565
Ce6 Se17 3.246974 1_555
Ce7 Se8 3.025996 1_555
Ce7 Se8 3.025996 1_655
Ce7 Se3 3.032003 1_655
Ce7 Se3 3.032003 1_555
Ce7 Se9 3.071803 1_655
Ce7 Se9 3.071803 1_555
Ce7 Se17 3.278410 1_555
Ce7 Cu2 3.281718 1_555
Ce7 Se1 3.293247 1_555
In0 Se8 2.714501 1_555
In0 Se17 2.745751 1_555
In0 Se17 2.745751 1_455
In0 Se13 2.751833 1_555
In0 Se10 2.910131 1_555
In0 Se10 2.910131 1_455
In1 Se11 2.714501 1_565
In1 Se14 2.745751 1_555
In1 Se14 2.745751 1_655
In1 Se15 2.751833 1_555
In1 Se4 2.910131 1_555
In1 Se4 2.910131 1_655
In2 Se2 2.714501 1_555
In2 Se6 2.745751 1_555
In2 Se6 2.745751 1_655
In2 Se7 2.751833 1_555
In2 Se19 2.910131 1_655
In2 Se19 2.910131 1_555
In3 Se18 2.714501 1_545
In3 Se1 2.745751 1_555
In3 Se1 2.745751 1_455
In3 Se9 2.751833 1_555
In3 Se0 2.910131 1_455
In3 Se0 2.910131 1_555
Cu0 Se12 2.409255 1_554
Cu0 Se7 2.434334 1_455
Cu0 Se7 2.434334 1_555
Cu0 Se13 2.606591 1_544
Cu1 Se3 2.409255 1_555
Cu1 Se15 2.434334 1_555
Cu1 Se15 2.434334 1_455
Cu1 Se9 2.606591 1_555
Cu2 Se5 2.409255 1_555
Cu2 Se9 2.434334 1_655
Cu2 Se9 2.434334 1_555
Cu2 Se15 2.606591 1_555
Cu3 Se16 2.409255 1_556
Cu3 Se13 2.434334 1_655
Cu3 Se13 2.434334 1_555
Cu3 Se7 2.606591 1_566
