# generated using pymatgen
data_H4SO5
_symmetry_space_group_name_H-M   'P 1'
_cell_length_a   6.96571400
_cell_length_b   7.66925000
_cell_length_c   8.83197208
_cell_angle_alpha   71.30530765
_cell_angle_beta   90.00000000
_cell_angle_gamma   90.00000000
_symmetry_Int_Tables_number   1
_chemical_formula_structural   H4SO5
_chemical_formula_sum   'H16 S4 O20'
_cell_volume   446.92663606
_cell_formula_units_Z   4
loop_
 _symmetry_equiv_pos_site_id
 _symmetry_equiv_pos_as_xyz
  1  'x, y, z'
loop_
 _atom_site_type_symbol
 _atom_site_label
 _atom_site_symmetry_multiplicity
 _atom_site_fract_x
 _atom_site_fract_y
 _atom_site_fract_z
 _atom_site_occupancy
  H  H0  1  0.56301200  0.39026700  0.11911300  1
  H  H1  1  0.43698800  0.39026700  0.61911300  1
  H  H2  1  0.59077600  0.96471400  0.05648200  1
  H  H3  1  0.40922400  0.96471400  0.55648200  1
  H  H4  1  0.94053600  0.36002900  0.72186900  1
  H  H5  1  0.80391600  0.23093400  0.87774700  1
  H  H6  1  0.98011700  0.36627300  0.90607100  1
  H  H7  1  0.68187800  0.73494400  0.64796200  1
  H  H8  1  0.29209500  0.77514900  0.57681300  1
  H  H9  1  0.35443700  0.80713200  0.73762500  1
  H  H10  1  0.64556300  0.80713200  0.23762500  1
  H  H11  1  0.31812200  0.73494400  0.14796200  1
  H  H12  1  0.70790500  0.77514900  0.07681300  1
  H  H13  1  0.19608400  0.23093400  0.37774700  1
  H  H14  1  0.05946400  0.36002900  0.22186900  1
  H  H15  1  0.01988300  0.36627300  0.40607100  1
  S  S0  1  0.91764100  0.68509600  0.51064900  1
  S  S1  1  0.43902500  0.26627500  0.95337500  1
  S  S2  1  0.56097500  0.26627500  0.45337500  1
  S  S3  1  0.08235900  0.68509600  0.01064900  1
  O  O0  1  0.21392100  0.77324900  0.88142600  1
  O  O1  1  0.69493600  0.16265900  0.57260800  1
  O  O2  1  0.30506400  0.16265900  0.07260800  1
  O  O3  1  0.78607900  0.77324900  0.38142600  1
  O  O4  1  0.81372200  0.68568300  0.67199300  1
  O  O5  1  0.36305700  0.35484800  0.79285000  1
  O  O6  1  0.63694300  0.35484800  0.29285000  1
  O  O7  1  0.18627800  0.68568300  0.17199300  1
  O  O8  1  0.95207300  0.48614500  0.53642600  1
  O  O9  1  0.52578500  0.43126000  0.00082900  1
  O  O10  1  0.47421500  0.43126000  0.50082900  1
  O  O11  1  0.04792700  0.48614500  0.03642600  1
  O  O12  1  0.09674400  0.78574500  0.50130100  1
  O  O13  1  0.61111100  0.14516000  0.94780000  1
  O  O14  1  0.38888900  0.14516000  0.44780000  1
  O  O15  1  0.90325600  0.78574500  0.00130100  1
  O  O16  1  0.93779700  0.28705800  0.84114700  1
  O  O17  1  0.40833500  0.82098100  0.62709900  1
  O  O18  1  0.59166500  0.82098100  0.12709900  1
  O  O19  1  0.06220300  0.28705800  0.34114700  1
loop_
_geom_bond_atom_site_label_1
_geom_bond_atom_site_label_2
_geom_bond_distance
_geom_bond_site_symmetry_2
H0 O9 1.023180 1_555
H0 O6 1.557660 1_555
H1 O10 1.023180 1_555
H1 O5 1.557660 1_555
H2 O18 1.078618 1_555
H2 O13 1.415988 1_564
H3 O17 1.078618 1_555
H3 O14 1.415988 1_565
H4 O16 1.022448 1_555
H4 O8 1.615219 1_555
H5 O16 1.034537 1_555
H5 O13 1.535687 1_555
H6 O16 1.004037 1_555
H7 O4 0.989853 1_555
H8 O17 1.037533 1_555
H8 O12 1.506091 1_555
H9 O17 1.019149 1_555
H9 O0 1.557888 1_555
H10 O18 1.019149 1_555
H10 O3 1.557888 1_555
H11 O7 0.989853 1_555
H12 O18 1.037533 1_555
H12 O15 1.506091 1_555
H13 O19 1.034537 1_555
H13 O14 1.535687 1_555
H14 O19 1.022448 1_555
H14 O11 1.615219 1_555
H15 O19 1.004037 1_555
O0 S3 1.450800 1_556
O1 S2 1.440387 1_555
O2 S1 1.440387 1_554
O3 S0 1.450800 1_555
O4 S0 1.599595 1_555
O5 S1 1.460858 1_555
O6 S2 1.460858 1_555
O7 S3 1.599595 1_555
O8 S0 1.488205 1_555
O9 S1 1.575390 1_554
O10 S2 1.575390 1_555
O11 S3 1.488205 1_555
O12 S0 1.455422 1_455
O13 S1 1.526896 1_555
O14 S2 1.526896 1_555
O15 S3 1.455422 1_655
