# generated using pymatgen
data_TmCo2
_symmetry_space_group_name_H-M   'P 1'
_cell_length_a   5.00553907
_cell_length_b   5.00628037
_cell_length_c   5.00553598
_cell_angle_alpha   59.98500551
_cell_angle_beta   59.99628208
_cell_angle_gamma   59.99921408
_symmetry_Int_Tables_number   1
_chemical_formula_structural   TmCo2
_chemical_formula_sum   'Tm2 Co4'
_cell_volume   88.68243183
_cell_formula_units_Z   2
loop_
 _symmetry_equiv_pos_site_id
 _symmetry_equiv_pos_as_xyz
  1  'x, y, z'
loop_
 _atom_site_type_symbol
 _atom_site_label
 _atom_site_symmetry_multiplicity
 _atom_site_fract_x
 _atom_site_fract_y
 _atom_site_fract_z
 _atom_site_occupancy
  Tm  Tm0  1  0.87500477  0.87499045  0.87501115  1
  Tm  Tm1  1  0.12499323  0.12500955  0.12498985  1
  Co  Co0  1  0.50000000  0.50000000  0.50000000  1
  Co  Co1  1  0.50000000  0.50000000  -0.00000000  1
  Co  Co2  1  0.00000100  0.49999900  0.50000000  1
  Co  Co3  1  0.50000000  0.00000100  0.50000000  1
loop_
_geom_bond_atom_site_label_1
_geom_bond_atom_site_label_2
_geom_bond_distance
_geom_bond_site_symmetry_2
Tm0 Tm1 3.064912 1_665
Tm0 Tm1 3.065293 1_656
Tm0 Tm1 3.065313 1_566
Tm0 Tm1 3.065499 1_666
Co0 Co2 2.502767 1_555
Co0 Co1 2.502768 1_556
Co0 Co1 2.502768 1_555
Co0 Co2 2.502772 1_655
Co0 Co3 2.503135 1_555
Co0 Co3 2.503145 1_565
Co0 Tm0 2.934289 1_554
Co0 Tm1 2.934296 1_556
Co0 Tm0 2.934599 1_545
Co0 Tm1 2.934601 1_565
Co0 Tm1 2.934998 1_655
Co0 Tm0 2.935005 1_455
Co1 Co3 2.502384 1_555
Co1 Co3 2.502389 1_564
Co1 Co2 2.502626 1_555
Co1 Co2 2.502631 1_654
Co1 Tm1 2.934630 1_655
Co1 Tm0 2.934636 1_454
Co1 Tm0 2.934899 1_554
Co1 Tm1 2.934906 1_555
Co1 Tm0 2.935274 1_544
Co1 Tm1 2.935276 1_565
Co2 Co3 2.502918 1_555
Co2 Co3 2.502933 1_465
Co2 Tm1 2.934275 1_556
Co2 Tm0 2.934279 1_454
Co2 Tm0 2.934713 1_445
Co2 Tm1 2.934713 1_565
Co2 Tm1 2.935253 1_555
Co2 Tm0 2.935257 1_455
Co3 Tm1 2.934591 1_655
Co3 Tm0 2.934604 1_445
Co3 Tm0 2.934734 1_545
Co3 Tm1 2.934743 1_555
Co3 Tm1 2.934804 1_556
Co3 Tm0 2.934804 1_544
