# generated using pymatgen
data_Fe3C9S2O9
_symmetry_space_group_name_H-M   'P 1'
_cell_length_a   6.88624500
_cell_length_b   9.21092479
_cell_length_c   13.18122565
_cell_angle_alpha   93.98866674
_cell_angle_beta   94.12941676
_cell_angle_gamma   111.17747912
_symmetry_Int_Tables_number   1
_chemical_formula_structural   Fe3C9S2O9
_chemical_formula_sum   'Fe6 C18 S4 O18'
_cell_volume   773.46427313
_cell_formula_units_Z   2
loop_
 _symmetry_equiv_pos_site_id
 _symmetry_equiv_pos_as_xyz
  1  'x, y, z'
loop_
 _atom_site_type_symbol
 _atom_site_label
 _atom_site_symmetry_multiplicity
 _atom_site_fract_x
 _atom_site_fract_y
 _atom_site_fract_z
 _atom_site_occupancy
  Fe  Fe0  1  0.28615500  0.19725600  0.33959400  1
  Fe  Fe1  1  0.71384500  0.80274400  0.66040600  1
  Fe  Fe2  1  0.58233200  0.73717600  0.83993900  1
  Fe  Fe3  1  0.13115500  0.91494200  0.24186100  1
  Fe  Fe4  1  0.41766800  0.26282400  0.16006100  1
  Fe  Fe5  1  0.86884500  0.08505800  0.75813900  1
  C  C0  1  0.71806000  0.91068200  0.55331800  1
  C  C1  1  0.28194000  0.08931800  0.44668200  1
  C  C2  1  0.10681100  0.81176600  0.11958800  1
  C  C3  1  0.64693100  0.56984100  0.87349600  1
  C  C4  1  0.35306900  0.43015900  0.12650400  1
  C  C5  1  0.14341500  0.17220700  0.73569100  1
  C  C6  1  0.85658500  0.82779300  0.26430900  1
  C  C7  1  0.90717400  0.72624200  0.61914300  1
  C  C8  1  0.30195100  0.62202300  0.82368300  1
  C  C9  1  0.20351700  0.77713700  0.31567000  1
  C  C10  1  0.59473600  0.82436200  0.96594200  1
  C  C11  1  0.69804900  0.37797700  0.17631700  1
  C  C12  1  0.79648300  0.22286300  0.68433000  1
  C  C13  1  0.49541800  0.62690600  0.61969500  1
  C  C14  1  0.40526400  0.17563800  0.03405800  1
  C  C15  1  0.50458200  0.37309400  0.38030500  1
  C  C16  1  0.89318900  0.18823400  0.88041200  1
  C  C17  1  0.09282600  0.27375800  0.38085700  1
  S  S0  1  0.47260600  0.07752400  0.25063700  1
  S  S1  1  0.52739400  0.92247600  0.74936300  1
  S  S2  1  0.91668200  0.87354100  0.81363800  1
  S  S3  1  0.08331800  0.12645900  0.18636200  1
  O  O0  1  0.08696400  0.74988000  0.03785900  1
  O  O1  1  0.68340500  0.46302700  0.89696200  1
  O  O2  1  0.24890100  0.68599700  0.35729600  1
  O  O3  1  0.31835300  0.23168900  0.72434600  1
  O  O4  1  0.28400500  0.02555900  0.51970400  1
  O  O5  1  0.96923200  0.32146800  0.40796200  1
  O  O6  1  0.87576400  0.45076200  0.18559400  1
  O  O7  1  0.31659500  0.53697300  0.10303800  1
  O  O8  1  0.60940200  0.88386000  0.04792000  1
  O  O9  1  0.12423600  0.54923800  0.81440600  1
  O  O10  1  0.91303600  0.25012000  0.96214100  1
  O  O11  1  0.39059800  0.11614000  0.95208000  1
  O  O12  1  0.64455000  0.48675700  0.41211000  1
  O  O13  1  0.68164700  0.76831100  0.27565400  1
  O  O14  1  0.75109900  0.31400300  0.64270400  1
  O  O15  1  0.35545000  0.51324300  0.58789000  1
  O  O16  1  0.03076800  0.67853200  0.59203800  1
  O  O17  1  0.71599500  0.97444100  0.48029600  1
loop_
_geom_bond_atom_site_label_1
_geom_bond_atom_site_label_2
_geom_bond_distance
_geom_bond_site_symmetry_2
Fe0 S3 2.282134 1_555
Fe0 S0 2.302104 1_555
Fe1 S2 2.282134 1_555
Fe1 S1 2.302104 1_555
Fe2 S2 2.254999 1_555
Fe2 S1 2.273018 1_555
Fe3 S3 2.250932 1_565
Fe3 S0 2.275366 1_565
Fe4 S3 2.254999 1_555
Fe4 S0 2.273018 1_555
Fe5 S2 2.250932 1_545
Fe5 S1 2.275366 1_545
C0 O17 1.163720 1_555
C0 Fe1 1.778217 1_555
C1 O4 1.163720 1_555
C1 Fe0 1.778217 1_555
C2 O0 1.158118 1_555
C2 Fe3 1.778134 1_555
C3 O1 1.156037 1_555
C3 Fe2 1.825121 1_555
C4 O7 1.156037 1_555
C4 Fe4 1.825121 1_555
C5 O3 1.155088 1_555
C5 Fe5 1.823154 1_455
C6 O13 1.155088 1_555
C6 Fe3 1.823154 1_655
C7 O16 1.156425 1_655
C7 Fe1 1.814805 1_555
C8 O9 1.155996 1_555
C8 Fe2 1.824270 1_555
C9 O2 1.154296 1_555
C9 Fe3 1.834380 1_555
C10 O8 1.157618 1_556
C10 Fe2 1.776278 1_555
C11 O6 1.155996 1_555
C11 Fe4 1.824270 1_555
C12 O14 1.154296 1_555
C12 Fe5 1.834380 1_555
C13 O15 1.162974 1_555
C13 Fe1 1.782215 1_555
C14 O11 1.157618 1_554
C14 Fe4 1.776278 1_555
C15 O12 1.162974 1_555
C15 Fe0 1.782215 1_555
C16 O10 1.158118 1_555
C16 Fe5 1.778134 1_555
C17 O5 1.156425 1_455
C17 Fe0 1.814805 1_555
