# generated using pymatgen
data_Zn2P2H12O11
_symmetry_space_group_name_H-M   'P 1'
_cell_length_a   7.64805700
_cell_length_b   7.79236007
_cell_length_c   9.54094463
_cell_angle_alpha   88.14198249
_cell_angle_beta   89.25257111
_cell_angle_gamma   87.06721844
_symmetry_Int_Tables_number   1
_chemical_formula_structural   Zn2P2H12O11
_chemical_formula_sum   'Zn4 P4 H24 O22'
_cell_volume   567.52586922
_cell_formula_units_Z   2
loop_
 _symmetry_equiv_pos_site_id
 _symmetry_equiv_pos_as_xyz
  1  'x, y, z'
loop_
 _atom_site_type_symbol
 _atom_site_label
 _atom_site_symmetry_multiplicity
 _atom_site_fract_x
 _atom_site_fract_y
 _atom_site_fract_z
 _atom_site_occupancy
  Zn  Zn0  1  0.00000000  0.00000000  0.00000000  1
  Zn  Zn1  1  0.49877500  0.00304900  0.24994900  1
  Zn  Zn2  1  0.50122500  0.99695100  0.75005100  1
  Zn  Zn3  1  0.50000000  0.50000000  0.50000000  1
  P  P0  1  0.37181800  0.22087600  0.00854200  1
  P  P1  1  0.62818200  0.77912400  0.99145800  1
  P  P2  1  0.72505200  0.11148200  0.48603400  1
  P  P3  1  0.27494800  0.88851800  0.51396600  1
  H  H0  1  0.89701000  0.16972400  0.47352000  1
  H  H1  1  0.10299000  0.83027600  0.52648000  1
  H  H2  1  0.28760100  0.38689200  0.00665100  1
  H  H3  1  0.71239900  0.61310800  0.99334900  1
  H  H4  1  0.75158600  0.24272000  0.09334700  1
  H  H5  1  0.24841400  0.75728000  0.90665300  1
  H  H6  1  0.93467500  0.31466200  0.13511000  1
  H  H7  1  0.06532500  0.68533800  0.86489000  1
  H  H8  1  0.10427100  0.91726800  0.25128400  1
  H  H9  1  0.89572900  0.08273200  0.74871600  1
  H  H10  1  0.89560500  0.91915600  0.26160700  1
  H  H11  1  0.10439500  0.08084400  0.73839300  1
  H  H12  1  0.82769100  0.56335100  0.38382700  1
  H  H13  1  0.17230900  0.43664900  0.61617300  1
  H  H14  1  0.73445700  0.73121600  0.44579500  1
  H  H15  1  0.26554300  0.26878400  0.55420500  1
  H  H16  1  0.46270300  0.41461700  0.24182500  1
  H  H17  1  0.53729700  0.58538300  0.75817500  1
  H  H18  1  0.46070800  0.62097300  0.23098100  1
  H  H19  1  0.53929200  0.37902700  0.76901900  1
  H  H20  1  0.09780000  0.46691600  0.32556500  1
  H  H21  1  0.90220000  0.53308400  0.67443500  1
  H  H22  1  0.03146500  0.58496000  0.20142500  1
  H  H23  1  0.96853500  0.41504000  0.79857500  1
  O  O0  1  0.87719900  0.24132000  0.06937300  1
  O  O1  1  0.12280100  0.75868000  0.93062700  1
  O  O2  1  0.24093700  0.08502400  0.04150200  1
  O  O3  1  0.75906300  0.91497600  0.95849800  1
  O  O4  1  0.99805600  0.88007900  0.20372000  1
  O  O5  1  0.00194400  0.11992100  0.79628000  1
  O  O6  1  0.71298300  0.97035200  0.37410700  1
  O  O7  1  0.28701700  0.02964800  0.62589300  1
  O  O8  1  0.50723400  0.22016600  0.13076000  1
  O  O9  1  0.49276600  0.77983400  0.86924000  1
  O  O10  1  0.28455400  0.96547000  0.36288500  1
  O  O11  1  0.71544600  0.03453000  0.63711500  1
  O  O12  1  0.46166700  0.20752400  0.86328600  1
  O  O13  1  0.53833300  0.79247600  0.13671400  1
  O  O14  1  0.75707800  0.60584800  0.46416900  1
  O  O15  1  0.24292200  0.39415200  0.53583100  1
  O  O16  1  0.41905600  0.52062700  0.28743500  1
  O  O17  1  0.58094400  0.47937300  0.71256500  1
  O  O18  1  0.59247400  0.25812800  0.45250800  1
  O  O19  1  0.40752600  0.74187200  0.54749200  1
  O  O20  1  0.00069000  0.48425900  0.26026300  1
  O  O21  1  0.99931000  0.51574100  0.73973700  1
loop_
_geom_bond_atom_site_label_1
_geom_bond_atom_site_label_2
_geom_bond_distance
_geom_bond_site_symmetry_2
H0 P2 1.415380 1_555
H1 P3 1.415380 1_555
H2 P0 1.415012 1_555
H3 P1 1.415012 1_555
H4 O0 0.984241 1_555
H5 O1 0.984241 1_555
H6 O0 0.984564 1_555
H7 O1 0.984564 1_555
H8 O4 0.996015 1_455
H9 O5 0.996015 1_655
H10 O4 0.993431 1_555
H11 O5 0.993431 1_555
H12 O14 0.988058 1_555
H13 O15 0.988058 1_555
H14 O14 0.993686 1_555
H15 O15 0.993686 1_555
H16 O16 0.987163 1_555
H17 O17 0.987163 1_555
H18 O16 0.998356 1_555
H18 O13 1.713676 1_555
H19 O17 0.998356 1_555
H19 O12 1.713676 1_555
H20 O20 0.976931 1_555
H21 O21 0.976931 1_555
H22 O20 0.986496 1_555
H23 O21 0.986496 1_555
O0 Zn0 2.177162 1_655
O1 Zn0 2.177162 1_566
O2 P0 1.516623 1_555
O2 Zn0 2.037711 1_555
O3 P1 1.516623 1_555
O3 Zn0 2.037711 1_666
O4 Zn0 2.129374 1_665
O5 Zn0 2.129374 1_556
O6 P2 1.564430 1_565
O6 Zn1 2.034809 1_565
O7 P3 1.564430 1_545
O7 Zn2 2.034809 1_545
O8 P0 1.569355 1_555
O8 Zn1 2.011031 1_555
O9 P1 1.569355 1_555
O9 Zn2 2.011031 1_555
O10 P3 1.545462 1_555
O10 Zn1 1.978291 1_565
O11 P2 1.545462 1_555
O11 Zn2 1.978291 1_545
O12 P0 1.543009 1_556
O12 Zn2 2.001694 1_545
O13 P1 1.543009 1_554
O13 Zn1 2.001694 1_565
O14 Zn3 2.189300 1_555
O15 Zn3 2.189300 1_555
O16 Zn3 2.126872 1_555
O17 Zn3 2.126872 1_555
O18 P2 1.517379 1_555
O18 Zn3 2.041672 1_555
O19 P3 1.517379 1_555
O19 Zn3 2.041672 1_555
