# generated using pymatgen
data_Mn2Ga5
_symmetry_space_group_name_H-M   'P 1'
_cell_length_a   17.69414800
_cell_length_b   17.69414800
_cell_length_c   5.40381600
_cell_angle_alpha   90.00000000
_cell_angle_beta   90.00000000
_cell_angle_gamma   90.00000000
_symmetry_Int_Tables_number   1
_chemical_formula_structural   Mn2Ga5
_chemical_formula_sum   'Mn32 Ga80'
_cell_volume   1691.84224085
_cell_formula_units_Z   16
loop_
 _symmetry_equiv_pos_site_id
 _symmetry_equiv_pos_as_xyz
  1  'x, y, z'
loop_
 _atom_site_type_symbol
 _atom_site_label
 _atom_site_symmetry_multiplicity
 _atom_site_fract_x
 _atom_site_fract_y
 _atom_site_fract_z
 _atom_site_occupancy
  Mn  Mn0_0  1  0.33932550  0.08932550  0.25000000  1
  Mn  Mn0_1  1  0.33932550  0.08932550  0.75000000  1
  Mn  Mn0_2  1  0.33932550  0.58932550  0.25000000  1
  Mn  Mn0_3  1  0.33932550  0.58932550  0.75000000  1
  Mn  Mn0_4  1  0.83932550  0.08932550  0.25000000  1
  Mn  Mn0_5  1  0.83932550  0.08932550  0.75000000  1
  Mn  Mn0_6  1  0.83932550  0.58932550  0.25000000  1
  Mn  Mn0_7  1  0.83932550  0.58932550  0.75000000  1
  Mn  Mn1_0  1  0.16067450  0.41067450  0.25000000  1
  Mn  Mn1_1  1  0.16067450  0.41067450  0.75000000  1
  Mn  Mn1_2  1  0.16067450  0.91067450  0.25000000  1
  Mn  Mn1_3  1  0.16067450  0.91067450  0.75000000  1
  Mn  Mn1_4  1  0.66067450  0.41067450  0.25000000  1
  Mn  Mn1_5  1  0.66067450  0.41067450  0.75000000  1
  Mn  Mn1_6  1  0.66067450  0.91067450  0.25000000  1
  Mn  Mn1_7  1  0.66067450  0.91067450  0.75000000  1
  Mn  Mn2_0  1  0.08932550  0.16067450  0.25000000  1
  Mn  Mn2_1  1  0.08932550  0.16067450  0.75000000  1
  Mn  Mn2_2  1  0.08932550  0.66067450  0.25000000  1
  Mn  Mn2_3  1  0.08932550  0.66067450  0.75000000  1
  Mn  Mn2_4  1  0.58932550  0.16067450  0.25000000  1
  Mn  Mn2_5  1  0.58932550  0.16067450  0.75000000  1
  Mn  Mn2_6  1  0.58932550  0.66067450  0.25000000  1
  Mn  Mn2_7  1  0.58932550  0.66067450  0.75000000  1
  Mn  Mn3_0  1  0.41067450  0.33932550  0.25000000  1
  Mn  Mn3_1  1  0.41067450  0.33932550  0.75000000  1
  Mn  Mn3_2  1  0.41067450  0.83932550  0.25000000  1
  Mn  Mn3_3  1  0.41067450  0.83932550  0.75000000  1
  Mn  Mn3_4  1  0.91067450  0.33932550  0.25000000  1
  Mn  Mn3_5  1  0.91067450  0.33932550  0.75000000  1
  Mn  Mn3_6  1  0.91067450  0.83932550  0.25000000  1
  Mn  Mn3_7  1  0.91067450  0.83932550  0.75000000  1
  Ga  Ga0_0  1  0.25000000  0.00000000  0.00000000  1
  Ga  Ga0_1  1  0.25000000  0.00000000  0.50000000  1
  Ga  Ga0_2  1  0.25000000  0.50000000  0.00000000  1
  Ga  Ga0_3  1  0.25000000  0.50000000  0.50000000  1
  Ga  Ga0_4  1  0.75000000  0.00000000  0.00000000  1
  Ga  Ga0_5  1  0.75000000  0.00000000  0.50000000  1
  Ga  Ga0_6  1  0.75000000  0.50000000  0.00000000  1
  Ga  Ga0_7  1  0.75000000  0.50000000  0.50000000  1
  Ga  Ga1_0  1  0.00000000  0.25000000  0.00000000  1
  Ga  Ga1_1  1  0.00000000  0.25000000  0.50000000  1
  Ga  Ga1_2  1  0.00000000  0.75000000  0.00000000  1
  Ga  Ga1_3  1  0.00000000  0.75000000  0.50000000  1
  Ga  Ga1_4  1  0.50000000  0.25000000  0.00000000  1
  Ga  Ga1_5  1  0.50000000  0.25000000  0.50000000  1
  Ga  Ga1_6  1  0.50000000  0.75000000  0.00000000  1
  Ga  Ga1_7  1  0.50000000  0.75000000  0.50000000  1
  Ga  Ga2_0  1  0.28239250  0.35343500  0.00000000  1
  Ga  Ga2_1  1  0.28239250  0.35343500  0.50000000  1
  Ga  Ga2_2  1  0.28239250  0.85343500  0.00000000  1
  Ga  Ga2_3  1  0.28239250  0.85343500  0.50000000  1
  Ga  Ga2_4  1  0.78239250  0.35343500  0.00000000  1
  Ga  Ga2_5  1  0.78239250  0.35343500  0.50000000  1
  Ga  Ga2_6  1  0.78239250  0.85343500  0.00000000  1
  Ga  Ga2_7  1  0.78239250  0.85343500  0.50000000  1
  Ga  Ga3_0  1  0.21760750  0.14656500  0.00000000  1
  Ga  Ga3_1  1  0.21760750  0.14656500  0.50000000  1
  Ga  Ga3_2  1  0.21760750  0.64656500  0.00000000  1
  Ga  Ga3_3  1  0.21760750  0.64656500  0.50000000  1
  Ga  Ga3_4  1  0.71760750  0.14656500  0.00000000  1
  Ga  Ga3_5  1  0.71760750  0.14656500  0.50000000  1
  Ga  Ga3_6  1  0.71760750  0.64656500  0.00000000  1
  Ga  Ga3_7  1  0.71760750  0.64656500  0.50000000  1
  Ga  Ga4_0  1  0.03239250  0.39656500  0.00000000  1
  Ga  Ga4_1  1  0.03239250  0.39656500  0.50000000  1
  Ga  Ga4_2  1  0.03239250  0.89656500  0.00000000  1
  Ga  Ga4_3  1  0.03239250  0.89656500  0.50000000  1
  Ga  Ga4_4  1  0.53239250  0.39656500  0.00000000  1
  Ga  Ga4_5  1  0.53239250  0.39656500  0.50000000  1
  Ga  Ga4_6  1  0.53239250  0.89656500  0.00000000  1
  Ga  Ga4_7  1  0.53239250  0.89656500  0.50000000  1
  Ga  Ga5_0  1  0.46760750  0.10343500  0.00000000  1
  Ga  Ga5_1  1  0.46760750  0.10343500  0.50000000  1
  Ga  Ga5_2  1  0.46760750  0.60343500  0.00000000  1
  Ga  Ga5_3  1  0.46760750  0.60343500  0.50000000  1
  Ga  Ga5_4  1  0.96760750  0.10343500  0.00000000  1
  Ga  Ga5_5  1  0.96760750  0.10343500  0.50000000  1
  Ga  Ga5_6  1  0.96760750  0.60343500  0.00000000  1
  Ga  Ga5_7  1  0.96760750  0.60343500  0.50000000  1
  Ga  Ga6_0  1  0.14656500  0.28239250  0.00000000  1
  Ga  Ga6_1  1  0.14656500  0.28239250  0.50000000  1
  Ga  Ga6_2  1  0.14656500  0.78239250  0.00000000  1
  Ga  Ga6_3  1  0.14656500  0.78239250  0.50000000  1
  Ga  Ga6_4  1  0.64656500  0.28239250  0.00000000  1
  Ga  Ga6_5  1  0.64656500  0.28239250  0.50000000  1
  Ga  Ga6_6  1  0.64656500  0.78239250  0.00000000  1
  Ga  Ga6_7  1  0.64656500  0.78239250  0.50000000  1
  Ga  Ga7_0  1  0.35343500  0.21760750  0.00000000  1
  Ga  Ga7_1  1  0.35343500  0.21760750  0.50000000  1
  Ga  Ga7_2  1  0.35343500  0.71760750  0.00000000  1
  Ga  Ga7_3  1  0.35343500  0.71760750  0.50000000  1
  Ga  Ga7_4  1  0.85343500  0.21760750  0.00000000  1
  Ga  Ga7_5  1  0.85343500  0.21760750  0.50000000  1
  Ga  Ga7_6  1  0.85343500  0.71760750  0.00000000  1
  Ga  Ga7_7  1  0.85343500  0.71760750  0.50000000  1
  Ga  Ga8_0  1  0.10343500  0.03239250  0.00000000  1
  Ga  Ga8_1  1  0.10343500  0.03239250  0.50000000  1
  Ga  Ga8_2  1  0.10343500  0.53239250  0.00000000  1
  Ga  Ga8_3  1  0.10343500  0.53239250  0.50000000  1
  Ga  Ga8_4  1  0.60343500  0.03239250  0.00000000  1
  Ga  Ga8_5  1  0.60343500  0.03239250  0.50000000  1
  Ga  Ga8_6  1  0.60343500  0.53239250  0.00000000  1
  Ga  Ga8_7  1  0.60343500  0.53239250  0.50000000  1
  Ga  Ga9_0  1  0.39656500  0.46760750  0.00000000  1
  Ga  Ga9_1  1  0.39656500  0.46760750  0.50000000  1
  Ga  Ga9_2  1  0.39656500  0.96760750  0.00000000  1
  Ga  Ga9_3  1  0.39656500  0.96760750  0.50000000  1
  Ga  Ga9_4  1  0.89656500  0.46760750  0.00000000  1
  Ga  Ga9_5  1  0.89656500  0.46760750  0.50000000  1
  Ga  Ga9_6  1  0.89656500  0.96760750  0.00000000  1
  Ga  Ga9_7  1  0.89656500  0.96760750  0.50000000  1
loop_
_geom_bond_atom_site_label_1
_geom_bond_atom_site_label_2
_geom_bond_distance
_geom_bond_site_symmetry_2
Mn0_0 Mn0_1 2.701908 1_554
Mn0_0 Mn0_1 2.701908 1_555
Mn0_2 Mn0_3 2.701908 1_554
Mn0_2 Mn0_3 2.701908 1_555
Mn0_4 Mn0_5 2.701908 1_554
Mn0_4 Mn0_5 2.701908 1_555
Mn0_6 Mn0_7 2.701908 1_554
Mn0_6 Mn0_7 2.701908 1_555
Mn1_0 Mn1_1 2.701908 1_554
Mn1_0 Mn1_1 2.701908 1_555
Mn1_2 Mn1_3 2.701908 1_554
Mn1_2 Mn1_3 2.701908 1_555
Mn1_4 Mn1_5 2.701908 1_554
Mn1_4 Mn1_5 2.701908 1_555
Mn1_6 Mn1_7 2.701908 1_554
Mn1_6 Mn1_7 2.701908 1_555
Mn2_0 Mn2_1 2.701908 1_554
Mn2_0 Mn2_1 2.701908 1_555
Mn2_2 Mn2_3 2.701908 1_554
Mn2_2 Mn2_3 2.701908 1_555
Mn2_4 Mn2_5 2.701908 1_554
Mn2_4 Mn2_5 2.701908 1_555
Mn2_6 Mn2_7 2.701908 1_554
Mn2_6 Mn2_7 2.701908 1_555
Mn3_0 Mn3_1 2.701908 1_554
Mn3_0 Mn3_1 2.701908 1_555
Mn3_2 Mn3_3 2.701908 1_554
Mn3_2 Mn3_3 2.701908 1_555
Mn3_4 Mn3_5 2.701908 1_554
Mn3_4 Mn3_5 2.701908 1_555
Mn3_6 Mn3_7 2.701908 1_554
Mn3_6 Mn3_7 2.701908 1_555
Ga0_0 Mn0_1 2.611758 1_554
Ga0_0 Mn0_0 2.611758 1_555
Ga0_0 Mn1_3 2.611758 1_544
Ga0_0 Mn1_2 2.611758 1_545
Ga0_0 Ga2_2 2.655925 1_545
Ga0_0 Ga8_0 2.655925 1_555
Ga0_0 Ga3_0 2.655925 1_555
Ga0_0 Ga9_2 2.655925 1_545
Ga0_0 Ga0_1 2.701908 1_555
Ga0_0 Ga0_1 2.701908 1_554
Ga0_1 Mn0_0 2.611758 1_555
Ga0_1 Mn0_1 2.611758 1_555
Ga0_1 Mn1_2 2.611758 1_545
Ga0_1 Mn1_3 2.611758 1_545
Ga0_1 Ga2_3 2.655925 1_545
Ga0_1 Ga8_1 2.655925 1_555
Ga0_1 Ga3_1 2.655925 1_555
Ga0_1 Ga9_3 2.655925 1_545
Ga0_2 Mn0_3 2.611758 1_554
Ga0_2 Mn1_1 2.611758 1_554
Ga0_2 Mn0_2 2.611758 1_555
Ga0_2 Mn1_0 2.611758 1_555
Ga0_2 Ga2_0 2.655925 1_555
Ga0_2 Ga8_2 2.655925 1_555
Ga0_2 Ga9_0 2.655925 1_555
Ga0_2 Ga3_2 2.655925 1_555
Ga0_2 Ga0_3 2.701908 1_555
Ga0_2 Ga0_3 2.701908 1_554
Ga0_3 Mn0_2 2.611758 1_555
Ga0_3 Mn0_3 2.611758 1_555
Ga0_3 Mn1_1 2.611758 1_555
Ga0_3 Mn1_0 2.611758 1_555
Ga0_3 Ga2_1 2.655925 1_555
Ga0_3 Ga8_3 2.655925 1_555
Ga0_3 Ga9_1 2.655925 1_555
Ga0_3 Ga3_3 2.655925 1_555
Ga0_4 Mn0_5 2.611758 1_554
Ga0_4 Mn0_4 2.611758 1_555
Ga0_4 Mn1_7 2.611758 1_544
Ga0_4 Mn1_6 2.611758 1_545
Ga0_4 Ga2_6 2.655925 1_545
Ga0_4 Ga8_4 2.655925 1_555
Ga0_4 Ga9_6 2.655925 1_545
Ga0_4 Ga3_4 2.655925 1_555
Ga0_4 Ga0_5 2.701908 1_555
Ga0_4 Ga0_5 2.701908 1_554
Ga0_5 Mn0_5 2.611758 1_555
Ga0_5 Mn0_4 2.611758 1_555
Ga0_5 Mn1_6 2.611758 1_545
Ga0_5 Mn1_7 2.611758 1_545
Ga0_5 Ga2_7 2.655925 1_545
Ga0_5 Ga8_5 2.655925 1_555
Ga0_5 Ga9_7 2.655925 1_545
Ga0_5 Ga3_5 2.655925 1_555
Ga0_6 Mn0_7 2.611758 1_554
Ga0_6 Mn0_6 2.611758 1_555
Ga0_6 Mn1_5 2.611758 1_554
Ga0_6 Mn1_4 2.611758 1_555
Ga0_6 Ga2_4 2.655925 1_555
Ga0_6 Ga8_6 2.655925 1_555
Ga0_6 Ga9_4 2.655925 1_555
Ga0_6 Ga3_6 2.655925 1_555
Ga0_6 Ga0_7 2.701908 1_555
Ga0_6 Ga0_7 2.701908 1_554
Ga0_7 Mn0_6 2.611758 1_555
Ga0_7 Mn0_7 2.611758 1_555
Ga0_7 Mn1_4 2.611758 1_555
Ga0_7 Mn1_5 2.611758 1_555
Ga0_7 Ga2_5 2.655925 1_555
Ga0_7 Ga8_7 2.655925 1_555
Ga0_7 Ga9_5 2.655925 1_555
Ga0_7 Ga3_7 2.655925 1_555
Ga1_0 Mn2_1 2.611758 1_554
Ga1_0 Mn3_5 2.611758 1_454
Ga1_0 Mn2_0 2.611758 1_555
Ga1_0 Mn3_4 2.611758 1_455
Ga1_0 Ga6_0 2.655925 1_555
Ga1_0 Ga4_0 2.655925 1_555
Ga1_0 Ga7_4 2.655925 1_455
Ga1_0 Ga5_4 2.655925 1_455
Ga1_0 Ga1_1 2.701908 1_555
Ga1_0 Ga1_1 2.701908 1_554
Ga1_1 Mn2_0 2.611758 1_555
Ga1_1 Mn2_1 2.611758 1_555
Ga1_1 Mn3_4 2.611758 1_455
Ga1_1 Mn3_5 2.611758 1_455
Ga1_1 Ga6_1 2.655925 1_555
Ga1_1 Ga4_1 2.655925 1_555
Ga1_1 Ga7_5 2.655925 1_455
Ga1_1 Ga5_5 2.655925 1_455
Ga1_2 Mn3_7 2.611758 1_454
Ga1_2 Mn3_6 2.611758 1_455
Ga1_2 Mn2_3 2.611758 1_554
Ga1_2 Mn2_2 2.611758 1_555
Ga1_2 Ga4_2 2.655925 1_555
Ga1_2 Ga6_2 2.655925 1_555
Ga1_2 Ga7_6 2.655925 1_455
Ga1_2 Ga5_6 2.655925 1_455
Ga1_2 Ga1_3 2.701908 1_555
Ga1_2 Ga1_3 2.701908 1_554
Ga1_3 Mn3_6 2.611758 1_455
Ga1_3 Mn3_7 2.611758 1_455
Ga1_3 Mn2_2 2.611758 1_555
Ga1_3 Mn2_3 2.611758 1_555
Ga1_3 Ga4_3 2.655925 1_555
Ga1_3 Ga6_3 2.655925 1_555
Ga1_3 Ga7_7 2.655925 1_455
Ga1_3 Ga5_7 2.655925 1_455
Ga1_4 Mn2_5 2.611758 1_554
Ga1_4 Mn2_4 2.611758 1_555
Ga1_4 Mn3_1 2.611758 1_554
Ga1_4 Mn3_0 2.611758 1_555
Ga1_4 Ga4_4 2.655925 1_555
Ga1_4 Ga7_0 2.655925 1_555
Ga1_4 Ga6_4 2.655925 1_555
Ga1_4 Ga5_0 2.655925 1_555
Ga1_4 Ga1_5 2.701908 1_554
Ga1_4 Ga1_5 2.701908 1_555
Ga1_5 Mn2_4 2.611758 1_555
Ga1_5 Mn2_5 2.611758 1_555
Ga1_5 Mn3_1 2.611758 1_555
Ga1_5 Mn3_0 2.611758 1_555
Ga1_5 Ga4_5 2.655925 1_555
Ga1_5 Ga7_1 2.655925 1_555
Ga1_5 Ga6_5 2.655925 1_555
Ga1_5 Ga5_1 2.655925 1_555
Ga1_6 Mn3_3 2.611758 1_554
Ga1_6 Mn2_7 2.611758 1_554
Ga1_6 Mn3_2 2.611758 1_555
Ga1_6 Mn2_6 2.611758 1_555
Ga1_6 Ga4_6 2.655925 1_555
Ga1_6 Ga6_6 2.655925 1_555
Ga1_6 Ga7_2 2.655925 1_555
Ga1_6 Ga5_2 2.655925 1_555
Ga1_6 Ga1_7 2.701908 1_555
Ga1_6 Ga1_7 2.701908 1_554
Ga1_7 Mn3_3 2.611758 1_555
Ga1_7 Mn3_2 2.611758 1_555
Ga1_7 Mn2_6 2.611758 1_555
Ga1_7 Mn2_7 2.611758 1_555
Ga1_7 Ga4_7 2.655925 1_555
Ga1_7 Ga6_7 2.655925 1_555
Ga1_7 Ga7_3 2.655925 1_555
Ga1_7 Ga5_3 2.655925 1_555
Ga2_0 Mn3_1 2.653221 1_554
Ga2_0 Mn3_0 2.653221 1_555
Ga2_0 Ga2_1 2.701908 1_555
Ga2_0 Ga2_1 2.701908 1_554
Ga2_0 Ga6_0 2.712239 1_555
Ga2_0 Ga7_0 2.712239 1_555
Ga2_0 Mn1_1 2.736651 1_554
Ga2_0 Mn1_0 2.736651 1_555
Ga2_0 Ga9_0 2.856973 1_555
Ga2_1 Mn3_0 2.653221 1_555
Ga2_1 Mn3_1 2.653221 1_555
Ga2_1 Ga6_1 2.712239 1_555
Ga2_1 Ga7_1 2.712239 1_555
Ga2_1 Mn1_0 2.736651 1_555
Ga2_1 Mn1_1 2.736651 1_555
Ga2_1 Ga9_1 2.856973 1_555
Ga2_2 Mn3_3 2.653221 1_554
Ga2_2 Mn3_2 2.653221 1_555
Ga2_2 Ga2_3 2.701908 1_554
Ga2_2 Ga2_3 2.701908 1_555
Ga2_2 Ga6_2 2.712239 1_555
Ga2_2 Ga7_2 2.712239 1_555
Ga2_2 Mn1_3 2.736651 1_554
Ga2_2 Mn1_2 2.736651 1_555
Ga2_2 Ga9_2 2.856973 1_555
Ga2_3 Mn3_2 2.653221 1_555
Ga2_3 Mn3_3 2.653221 1_555
Ga2_3 Ga6_3 2.712239 1_555
Ga2_3 Ga7_3 2.712239 1_555
Ga2_3 Mn1_2 2.736651 1_555
Ga2_3 Mn1_3 2.736651 1_555
Ga2_3 Ga9_3 2.856973 1_555
Ga2_4 Mn3_5 2.653221 1_554
Ga2_4 Mn3_4 2.653221 1_555
Ga2_4 Ga2_5 2.701908 1_555
Ga2_4 Ga2_5 2.701908 1_554
Ga2_4 Ga6_4 2.712239 1_555
Ga2_4 Ga7_4 2.712239 1_555
Ga2_4 Mn1_5 2.736651 1_554
Ga2_4 Mn1_4 2.736651 1_555
Ga2_4 Ga9_4 2.856973 1_555
Ga2_5 Mn3_4 2.653221 1_555
Ga2_5 Mn3_5 2.653221 1_555
Ga2_5 Ga6_5 2.712239 1_555
Ga2_5 Ga7_5 2.712239 1_555
Ga2_5 Mn1_4 2.736651 1_555
Ga2_5 Mn1_5 2.736651 1_555
Ga2_5 Ga9_5 2.856973 1_555
Ga2_6 Mn3_7 2.653221 1_554
Ga2_6 Mn3_6 2.653221 1_555
Ga2_6 Ga2_7 2.701908 1_555
Ga2_6 Ga2_7 2.701908 1_554
Ga2_6 Ga6_6 2.712239 1_555
Ga2_6 Ga7_6 2.712239 1_555
Ga2_6 Mn1_7 2.736651 1_554
Ga2_6 Mn1_6 2.736651 1_555
Ga2_6 Ga9_6 2.856973 1_555
Ga2_7 Mn3_6 2.653221 1_555
Ga2_7 Mn3_7 2.653221 1_555
Ga2_7 Ga6_7 2.712239 1_555
Ga2_7 Ga7_7 2.712239 1_555
Ga2_7 Mn1_6 2.736651 1_555
Ga2_7 Mn1_7 2.736651 1_555
Ga2_7 Ga9_7 2.856973 1_555
Ga3_0 Mn2_1 2.653221 1_554
Ga3_0 Mn2_0 2.653221 1_555
Ga3_0 Ga3_1 2.701908 1_555
Ga3_0 Ga3_1 2.701908 1_554
Ga3_0 Ga6_0 2.712239 1_555
Ga3_0 Ga7_0 2.712239 1_555
Ga3_0 Mn0_1 2.736651 1_554
Ga3_0 Mn0_0 2.736651 1_555
Ga3_0 Ga8_0 2.856973 1_555
Ga3_1 Mn2_0 2.653221 1_555
Ga3_1 Mn2_1 2.653221 1_555
Ga3_1 Ga6_1 2.712239 1_555
Ga3_1 Ga7_1 2.712239 1_555
Ga3_1 Mn0_0 2.736651 1_555
Ga3_1 Mn0_1 2.736651 1_555
Ga3_1 Ga8_1 2.856973 1_555
Ga3_2 Mn2_3 2.653221 1_554
Ga3_2 Mn2_2 2.653221 1_555
Ga3_2 Ga3_3 2.701908 1_555
Ga3_2 Ga3_3 2.701908 1_554
Ga3_2 Ga6_2 2.712239 1_555
Ga3_2 Ga7_2 2.712239 1_555
Ga3_2 Mn0_2 2.736651 1_555
Ga3_2 Mn0_3 2.736651 1_554
Ga3_2 Ga8_2 2.856973 1_555
Ga3_3 Mn2_2 2.653221 1_555
Ga3_3 Mn2_3 2.653221 1_555
Ga3_3 Ga6_3 2.712239 1_555
Ga3_3 Ga7_3 2.712239 1_555
Ga3_3 Mn0_2 2.736651 1_555
Ga3_3 Mn0_3 2.736651 1_555
Ga3_3 Ga8_3 2.856973 1_555
Ga3_4 Mn2_5 2.653221 1_554
Ga3_4 Mn2_4 2.653221 1_555
Ga3_4 Ga3_5 2.701908 1_555
Ga3_4 Ga3_5 2.701908 1_554
Ga3_4 Ga6_4 2.712239 1_555
Ga3_4 Ga7_4 2.712239 1_555
Ga3_4 Mn0_5 2.736651 1_554
Ga3_4 Mn0_4 2.736651 1_555
Ga3_4 Ga8_4 2.856973 1_555
Ga3_5 Mn2_4 2.653221 1_555
Ga3_5 Mn2_5 2.653221 1_555
Ga3_5 Ga6_5 2.712239 1_555
Ga3_5 Ga7_5 2.712239 1_555
Ga3_5 Mn0_5 2.736651 1_555
Ga3_5 Mn0_4 2.736651 1_555
Ga3_5 Ga8_5 2.856973 1_555
Ga3_6 Mn2_7 2.653221 1_554
Ga3_6 Mn2_6 2.653221 1_555
Ga3_6 Ga3_7 2.701908 1_555
Ga3_6 Ga3_7 2.701908 1_554
Ga3_6 Ga6_6 2.712239 1_555
Ga3_6 Ga7_6 2.712239 1_555
Ga3_6 Mn0_7 2.736651 1_554
Ga3_6 Mn0_6 2.736651 1_555
Ga3_6 Ga8_6 2.856973 1_555
Ga3_7 Mn2_6 2.653221 1_555
Ga3_7 Mn2_7 2.653221 1_555
Ga3_7 Ga6_7 2.712239 1_555
Ga3_7 Ga7_7 2.712239 1_555
Ga3_7 Mn0_6 2.736651 1_555
Ga3_7 Mn0_7 2.736651 1_555
Ga3_7 Ga8_7 2.856973 1_555
Ga4_0 Mn1_1 2.653221 1_554
Ga4_0 Mn1_0 2.653221 1_555
Ga4_0 Ga4_1 2.701908 1_554
Ga4_0 Ga4_1 2.701908 1_555
Ga4_0 Ga9_4 2.712239 1_455
Ga4_0 Ga8_2 2.712239 1_555
Ga4_0 Mn3_5 2.736651 1_454
Ga4_0 Mn3_4 2.736651 1_455
Ga4_0 Ga6_0 2.856973 1_555
Ga4_1 Mn1_0 2.653221 1_555
Ga4_1 Mn1_1 2.653221 1_555
Ga4_1 Ga9_5 2.712239 1_455
Ga4_1 Ga8_3 2.712239 1_555
Ga4_1 Mn3_5 2.736651 1_455
Ga4_1 Mn3_4 2.736651 1_455
Ga4_1 Ga6_1 2.856973 1_555
Ga4_2 Mn1_3 2.653221 1_554
Ga4_2 Mn1_2 2.653221 1_555
Ga4_2 Ga4_3 2.701908 1_554
Ga4_2 Ga4_3 2.701908 1_555
Ga4_2 Ga9_6 2.712239 1_455
Ga4_2 Ga8_0 2.712239 1_565
Ga4_2 Mn3_7 2.736651 1_454
Ga4_2 Mn3_6 2.736651 1_455
Ga4_2 Ga6_2 2.856973 1_555
Ga4_3 Mn1_2 2.653221 1_555
Ga4_3 Mn1_3 2.653221 1_555
Ga4_3 Ga9_7 2.712239 1_455
Ga4_3 Ga8_1 2.712239 1_565
Ga4_3 Mn3_7 2.736651 1_455
Ga4_3 Mn3_6 2.736651 1_455
Ga4_3 Ga6_3 2.856973 1_555
Ga4_4 Mn1_5 2.653221 1_554
Ga4_4 Mn1_4 2.653221 1_555
Ga4_4 Ga4_5 2.701908 1_555
Ga4_4 Ga4_5 2.701908 1_554
Ga4_4 Ga9_0 2.712239 1_555
Ga4_4 Ga8_6 2.712239 1_555
Ga4_4 Mn3_1 2.736651 1_554
Ga4_4 Mn3_0 2.736651 1_555
Ga4_4 Ga6_4 2.856973 1_555
Ga4_5 Mn1_4 2.653221 1_555
Ga4_5 Mn1_5 2.653221 1_555
Ga4_5 Ga9_1 2.712239 1_555
Ga4_5 Ga8_7 2.712239 1_555
Ga4_5 Mn3_0 2.736651 1_555
Ga4_5 Mn3_1 2.736651 1_555
Ga4_5 Ga6_5 2.856973 1_555
Ga4_6 Mn1_7 2.653221 1_554
Ga4_6 Mn1_6 2.653221 1_555
Ga4_6 Ga4_7 2.701908 1_555
Ga4_6 Ga4_7 2.701908 1_554
Ga4_6 Ga9_2 2.712239 1_555
Ga4_6 Ga8_4 2.712239 1_565
Ga4_6 Mn3_3 2.736651 1_554
Ga4_6 Mn3_2 2.736651 1_555
Ga4_6 Ga6_6 2.856973 1_555
Ga4_7 Mn1_6 2.653221 1_555
Ga4_7 Mn1_7 2.653221 1_555
Ga4_7 Ga9_3 2.712239 1_555
Ga4_7 Ga8_5 2.712239 1_565
Ga4_7 Mn3_2 2.736651 1_555
Ga4_7 Mn3_3 2.736651 1_555
Ga4_7 Ga6_7 2.856973 1_555
Ga5_0 Mn0_0 2.653221 1_555
Ga5_0 Mn0_1 2.653221 1_554
Ga5_0 Ga5_1 2.701908 1_554
Ga5_0 Ga5_1 2.701908 1_555
Ga5_0 Ga9_2 2.712239 1_545
Ga5_0 Ga8_4 2.712239 1_555
Ga5_0 Mn2_5 2.736651 1_554
Ga5_0 Mn2_4 2.736651 1_555
Ga5_0 Ga7_0 2.856973 1_555
Ga5_1 Mn0_0 2.653221 1_555
Ga5_1 Mn0_1 2.653221 1_555
Ga5_1 Ga9_3 2.712239 1_545
Ga5_1 Ga8_5 2.712239 1_555
Ga5_1 Mn2_4 2.736651 1_555
Ga5_1 Mn2_5 2.736651 1_555
Ga5_1 Ga7_1 2.856973 1_555
Ga5_2 Mn0_3 2.653221 1_554
Ga5_2 Mn0_2 2.653221 1_555
Ga5_2 Ga5_3 2.701908 1_555
Ga5_2 Ga5_3 2.701908 1_554
Ga5_2 Ga9_0 2.712239 1_555
Ga5_2 Ga8_6 2.712239 1_555
Ga5_2 Mn2_7 2.736651 1_554
Ga5_2 Mn2_6 2.736651 1_555
Ga5_2 Ga7_2 2.856973 1_555
Ga5_3 Mn0_2 2.653221 1_555
Ga5_3 Mn0_3 2.653221 1_555
Ga5_3 Ga9_1 2.712239 1_555
Ga5_3 Ga8_7 2.712239 1_555
Ga5_3 Mn2_6 2.736651 1_555
Ga5_3 Mn2_7 2.736651 1_555
Ga5_3 Ga7_3 2.856973 1_555
Ga5_4 Mn0_5 2.653221 1_554
Ga5_4 Mn0_4 2.653221 1_555
Ga5_4 Ga5_5 2.701908 1_555
Ga5_4 Ga5_5 2.701908 1_554
Ga5_4 Ga9_6 2.712239 1_545
Ga5_4 Ga8_0 2.712239 1_655
Ga5_4 Mn2_1 2.736651 1_654
Ga5_4 Mn2_0 2.736651 1_655
Ga5_4 Ga7_4 2.856973 1_555
Ga5_5 Mn0_4 2.653221 1_555
Ga5_5 Mn0_5 2.653221 1_555
Ga5_5 Ga9_7 2.712239 1_545
Ga5_5 Ga8_1 2.712239 1_655
Ga5_5 Mn2_0 2.736651 1_655
Ga5_5 Mn2_1 2.736651 1_655
Ga5_5 Ga7_5 2.856973 1_555
Ga5_6 Mn0_7 2.653221 1_554
Ga5_6 Mn0_6 2.653221 1_555
Ga5_6 Ga5_7 2.701908 1_555
Ga5_6 Ga5_7 2.701908 1_554
Ga5_6 Ga9_4 2.712239 1_555
Ga5_6 Ga8_2 2.712239 1_655
Ga5_6 Mn2_3 2.736651 1_654
Ga5_6 Mn2_2 2.736651 1_655
Ga5_6 Ga7_6 2.856973 1_555
Ga5_7 Mn0_6 2.653221 1_555
Ga5_7 Mn0_7 2.653221 1_555
Ga5_7 Ga9_5 2.712239 1_555
Ga5_7 Ga8_3 2.712239 1_655
Ga5_7 Mn2_3 2.736651 1_655
Ga5_7 Mn2_2 2.736651 1_655
Ga5_7 Ga7_7 2.856973 1_555
Ga6_0 Mn1_1 2.653221 1_554
Ga6_0 Mn1_0 2.653221 1_555
Ga6_0 Ga6_1 2.701908 1_554
Ga6_0 Ga6_1 2.701908 1_555
Ga6_0 Mn2_1 2.736651 1_554
Ga6_0 Mn2_0 2.736651 1_555
Ga6_1 Mn1_0 2.653221 1_555
Ga6_1 Mn1_1 2.653221 1_555
Ga6_1 Mn2_1 2.736651 1_555
Ga6_1 Mn2_0 2.736651 1_555
Ga6_2 Mn1_3 2.653221 1_554
Ga6_2 Mn1_2 2.653221 1_555
Ga6_2 Ga6_3 2.701908 1_555
Ga6_2 Ga6_3 2.701908 1_554
Ga6_2 Mn2_3 2.736651 1_554
Ga6_2 Mn2_2 2.736651 1_555
Ga6_3 Mn1_2 2.653221 1_555
Ga6_3 Mn1_3 2.653221 1_555
Ga6_3 Mn2_2 2.736651 1_555
Ga6_3 Mn2_3 2.736651 1_555
Ga6_4 Mn1_5 2.653221 1_554
Ga6_4 Mn1_4 2.653221 1_555
Ga6_4 Ga6_5 2.701908 1_555
Ga6_4 Ga6_5 2.701908 1_554
Ga6_4 Mn2_5 2.736651 1_554
Ga6_4 Mn2_4 2.736651 1_555
Ga6_5 Mn1_4 2.653221 1_555
Ga6_5 Mn1_5 2.653221 1_555
Ga6_5 Mn2_4 2.736651 1_555
Ga6_5 Mn2_5 2.736651 1_555
Ga6_6 Mn1_7 2.653221 1_554
Ga6_6 Mn1_6 2.653221 1_555
Ga6_6 Ga6_7 2.701908 1_554
Ga6_6 Ga6_7 2.701908 1_555
Ga6_6 Mn2_7 2.736651 1_554
Ga6_6 Mn2_6 2.736651 1_555
Ga6_7 Mn1_6 2.653221 1_555
Ga6_7 Mn1_7 2.653221 1_555
Ga6_7 Mn2_6 2.736651 1_555
Ga6_7 Mn2_7 2.736651 1_555
Ga7_0 Mn0_1 2.653221 1_554
Ga7_0 Mn0_0 2.653221 1_555
Ga7_0 Ga7_1 2.701908 1_555
Ga7_0 Ga7_1 2.701908 1_554
Ga7_0 Mn3_1 2.736651 1_554
Ga7_0 Mn3_0 2.736651 1_555
Ga7_1 Mn0_0 2.653221 1_555
Ga7_1 Mn0_1 2.653221 1_555
Ga7_1 Mn3_0 2.736651 1_555
Ga7_1 Mn3_1 2.736651 1_555
Ga7_2 Mn0_2 2.653221 1_555
Ga7_2 Mn0_3 2.653221 1_554
Ga7_2 Ga7_3 2.701908 1_555
Ga7_2 Ga7_3 2.701908 1_554
Ga7_2 Mn3_3 2.736651 1_554
Ga7_2 Mn3_2 2.736651 1_555
Ga7_3 Mn0_2 2.653221 1_555
Ga7_3 Mn0_3 2.653221 1_555
Ga7_3 Mn3_2 2.736651 1_555
Ga7_3 Mn3_3 2.736651 1_555
Ga7_4 Mn0_5 2.653221 1_554
Ga7_4 Mn0_4 2.653221 1_555
Ga7_4 Ga7_5 2.701908 1_554
Ga7_4 Ga7_5 2.701908 1_555
Ga7_4 Mn3_5 2.736651 1_554
Ga7_4 Mn3_4 2.736651 1_555
Ga7_5 Mn0_4 2.653221 1_555
Ga7_5 Mn0_5 2.653221 1_555
Ga7_5 Mn3_4 2.736651 1_555
Ga7_5 Mn3_5 2.736651 1_555
Ga7_6 Mn0_7 2.653221 1_554
Ga7_6 Mn0_6 2.653221 1_555
Ga7_6 Ga7_7 2.701908 1_554
Ga7_6 Ga7_7 2.701908 1_555
Ga7_6 Mn3_7 2.736651 1_554
Ga7_6 Mn3_6 2.736651 1_555
Ga7_7 Mn0_6 2.653221 1_555
Ga7_7 Mn0_7 2.653221 1_555
Ga7_7 Mn3_6 2.736651 1_555
Ga7_7 Mn3_7 2.736651 1_555
Ga8_0 Mn2_1 2.653221 1_554
Ga8_0 Mn2_0 2.653221 1_555
Ga8_0 Ga8_1 2.701908 1_555
Ga8_0 Ga8_1 2.701908 1_554
Ga8_0 Mn1_3 2.736651 1_544
Ga8_0 Mn1_2 2.736651 1_545
Ga8_1 Mn2_0 2.653221 1_555
Ga8_1 Mn2_1 2.653221 1_555
Ga8_1 Mn1_2 2.736651 1_545
Ga8_1 Mn1_3 2.736651 1_545
Ga8_2 Mn2_3 2.653221 1_554
Ga8_2 Mn2_2 2.653221 1_555
Ga8_2 Ga8_3 2.701908 1_555
Ga8_2 Ga8_3 2.701908 1_554
Ga8_2 Mn1_1 2.736651 1_554
Ga8_2 Mn1_0 2.736651 1_555
Ga8_3 Mn2_2 2.653221 1_555
Ga8_3 Mn2_3 2.653221 1_555
Ga8_3 Mn1_0 2.736651 1_555
Ga8_3 Mn1_1 2.736651 1_555
Ga8_4 Mn2_5 2.653221 1_554
Ga8_4 Mn2_4 2.653221 1_555
Ga8_4 Ga8_5 2.701908 1_555
Ga8_4 Ga8_5 2.701908 1_554
Ga8_4 Mn1_7 2.736651 1_544
Ga8_4 Mn1_6 2.736651 1_545
Ga8_5 Mn2_4 2.653221 1_555
Ga8_5 Mn2_5 2.653221 1_555
Ga8_5 Mn1_6 2.736651 1_545
Ga8_5 Mn1_7 2.736651 1_545
Ga8_6 Mn2_7 2.653221 1_554
Ga8_6 Mn2_6 2.653221 1_555
Ga8_6 Ga8_7 2.701908 1_554
Ga8_6 Ga8_7 2.701908 1_555
Ga8_6 Mn1_5 2.736651 1_554
Ga8_6 Mn1_4 2.736651 1_555
Ga8_7 Mn2_6 2.653221 1_555
Ga8_7 Mn2_7 2.653221 1_555
Ga8_7 Mn1_4 2.736651 1_555
Ga8_7 Mn1_5 2.736651 1_555
Ga9_0 Mn3_1 2.653221 1_554
Ga9_0 Mn3_0 2.653221 1_555
Ga9_0 Ga9_1 2.701908 1_554
Ga9_0 Ga9_1 2.701908 1_555
Ga9_0 Mn0_3 2.736651 1_554
Ga9_0 Mn0_2 2.736651 1_555
Ga9_1 Mn3_0 2.653221 1_555
Ga9_1 Mn3_1 2.653221 1_555
Ga9_1 Mn0_2 2.736651 1_555
Ga9_1 Mn0_3 2.736651 1_555
Ga9_2 Mn3_3 2.653221 1_554
Ga9_2 Mn3_2 2.653221 1_555
Ga9_2 Ga9_3 2.701908 1_555
Ga9_2 Ga9_3 2.701908 1_554
Ga9_2 Mn0_1 2.736651 1_564
Ga9_2 Mn0_0 2.736651 1_565
Ga9_3 Mn3_2 2.653221 1_555
Ga9_3 Mn3_3 2.653221 1_555
Ga9_3 Mn0_0 2.736651 1_565
Ga9_3 Mn0_1 2.736651 1_565
Ga9_4 Mn3_5 2.653221 1_554
Ga9_4 Mn3_4 2.653221 1_555
Ga9_4 Ga9_5 2.701908 1_554
Ga9_4 Ga9_5 2.701908 1_555
Ga9_4 Mn0_6 2.736651 1_555
Ga9_4 Mn0_7 2.736651 1_554
Ga9_5 Mn3_4 2.653221 1_555
Ga9_5 Mn3_5 2.653221 1_555
Ga9_5 Mn0_6 2.736651 1_555
Ga9_5 Mn0_7 2.736651 1_555
Ga9_6 Mn3_7 2.653221 1_554
Ga9_6 Mn3_6 2.653221 1_555
Ga9_6 Ga9_7 2.701908 1_555
Ga9_6 Ga9_7 2.701908 1_554
Ga9_6 Mn0_5 2.736651 1_564
Ga9_6 Mn0_4 2.736651 1_565
Ga9_7 Mn3_6 2.653221 1_555
Ga9_7 Mn3_7 2.653221 1_555
Ga9_7 Mn0_4 2.736651 1_565
Ga9_7 Mn0_5 2.736651 1_565
