# generated using pymatgen
data_Gd3NCl6
_symmetry_space_group_name_H-M   'P 1'
_cell_length_a   7.12592089
_cell_length_b   8.18062183
_cell_length_c   9.78730856
_cell_angle_alpha   75.48968441
_cell_angle_beta   71.01003227
_cell_angle_gamma   65.35878098
_symmetry_Int_Tables_number   1
_chemical_formula_structural   Gd3NCl6
_chemical_formula_sum   'Gd6 N2 Cl12'
_cell_volume   485.96557248
_cell_formula_units_Z   2
loop_
 _symmetry_equiv_pos_site_id
 _symmetry_equiv_pos_as_xyz
  1  'x, y, z'
loop_
 _atom_site_type_symbol
 _atom_site_label
 _atom_site_symmetry_multiplicity
 _atom_site_fract_x
 _atom_site_fract_y
 _atom_site_fract_z
 _atom_site_occupancy
  Gd  Gd0  1  0.58895214  0.08768029  0.68539652  1
  Gd  Gd1  1  0.71819527  0.43138179  0.77734030  1
  Gd  Gd2  1  0.25958976  0.58288178  0.62536866  1
  Gd  Gd3  1  0.28180916  0.56859898  0.22267458  1
  Gd  Gd4  1  0.41099716  0.91238435  0.31465158  1
  Gd  Gd5  1  0.74044150  0.41719654  0.37459227  1
  N  N0  1  0.40786138  0.63121620  0.37869911  1
  N  N1  1  0.59226805  0.36876762  0.62132342  1
  Cl  Cl0  1  0.30189600  0.58212995  0.90926680  1
  Cl  Cl1  1  0.28805391  0.89425250  0.08995059  1
  Cl  Cl2  1  0.00004056  -0.00009389  0.50003122  1
  Cl  Cl3  1  0.82428051  0.71964002  0.79596461  1
  Cl  Cl4  1  0.16508317  0.26073140  0.78930140  1
  Cl  Cl5  1  0.71189410  0.10578108  0.91004424  1
  Cl  Cl6  1  0.53034527  0.17883814  0.39639989  1
  Cl  Cl7  1  0.17574951  0.28042392  0.20397460  1
  Cl  Cl8  1  0.46963375  0.82110966  0.60356901  1
  Cl  Cl9  1  0.69808099  0.41785518  0.09072813  1
  Cl  Cl10  1  0.83480161  0.73919555  0.21073178  1
  Cl  Cl11  1  0.00002618  0.50002994  0.49999128  1
loop_
_geom_bond_atom_site_label_1
_geom_bond_atom_site_label_2
_geom_bond_distance
_geom_bond_site_symmetry_2
Gd0 N1 2.234824 1_555
Gd1 N1 2.250838 1_555
Gd2 N1 2.280500 1_555
Gd2 N0 2.304589 1_555
Gd3 N0 2.251553 1_555
Gd4 N0 2.235009 1_555
Gd5 N0 2.279661 1_555
Gd5 N1 2.305051 1_555
Cl0 Gd1 2.691237 1_555
Cl0 Gd2 2.889045 1_555
Cl0 Gd3 2.999853 1_556
Cl1 Gd3 2.667142 1_555
Cl1 Gd4 2.674288 1_555
Cl2 Gd4 2.797324 1_545
Cl2 Gd0 2.797920 1_455
Cl2 Gd2 3.268338 1_545
Cl2 Gd5 3.270278 1_455
Cl3 Gd1 2.820824 1_555
Cl3 Gd2 2.886732 1_655
Cl3 Gd0 2.895908 1_565
Cl4 Gd0 2.705225 1_555
Cl4 Gd1 2.925270 1_455
Cl4 Gd2 2.937851 1_555
Cl5 Gd1 2.666825 1_555
Cl5 Gd0 2.673690 1_555
Cl6 Gd5 2.847266 1_555
Cl6 Gd0 2.860598 1_555
Cl6 Gd4 2.996232 1_545
Cl6 Gd3 3.275413 1_555
Cl7 Gd3 2.820319 1_555
Cl7 Gd5 2.886805 1_455
Cl7 Gd4 2.896072 1_545
Cl8 Gd2 2.846049 1_555
Cl8 Gd4 2.859876 1_555
Cl8 Gd0 2.997382 1_565
Cl8 Gd1 3.275505 1_555
Cl9 Gd3 2.691131 1_555
Cl9 Gd5 2.889090 1_555
Cl9 Gd1 2.999613 1_554
Cl10 Gd4 2.705061 1_555
Cl10 Gd3 2.925985 1_655
Cl10 Gd5 2.936173 1_555
Cl11 Gd2 2.885409 1_555
Cl11 Gd5 2.885596 1_455
Cl11 Gd3 2.888386 1_555
Cl11 Gd1 2.888918 1_455
