# generated using pymatgen
data_Sr(H2O3)2
_symmetry_space_group_name_H-M   'P 1'
_cell_length_a   5.87200098
_cell_length_b   5.87200098
_cell_length_c   6.05792322
_cell_angle_alpha   89.42833321
_cell_angle_beta   89.42833321
_cell_angle_gamma   96.36060479
_symmetry_Int_Tables_number   1
_chemical_formula_structural   Sr(H2O3)2
_chemical_formula_sum   'Sr2 H8 O12'
_cell_volume   207.57055321
_cell_formula_units_Z   2
loop_
 _symmetry_equiv_pos_site_id
 _symmetry_equiv_pos_as_xyz
  1  'x, y, z'
loop_
 _atom_site_type_symbol
 _atom_site_label
 _atom_site_symmetry_multiplicity
 _atom_site_fract_x
 _atom_site_fract_y
 _atom_site_fract_z
 _atom_site_occupancy
  Sr  Sr0  1  0.80756800  0.19243200  0.25000000  1
  Sr  Sr1  1  0.19243200  0.80756800  0.75000000  1
  H  H0  1  0.68021200  0.99983100  0.74552600  1
  H  H1  1  0.00016900  0.31978800  0.75447400  1
  H  H2  1  0.31978800  0.00016900  0.25447400  1
  H  H3  1  0.99983100  0.68021200  0.24552600  1
  H  H4  1  0.71046000  0.60463500  0.57649700  1
  H  H5  1  0.60463500  0.71046000  0.07649700  1
  H  H6  1  0.28954000  0.39536500  0.42350300  1
  H  H7  1  0.39536500  0.28954000  0.92350300  1
  O  O0  1  0.76796700  0.93193000  0.61072800  1
  O  O1  1  0.06807000  0.23203300  0.88927200  1
  O  O2  1  0.23203300  0.06807000  0.38927200  1
  O  O3  1  0.93193000  0.76796700  0.11072800  1
  O  O4  1  0.60037600  0.73184800  0.56147300  1
  O  O5  1  0.26815200  0.39962400  0.93852700  1
  O  O6  1  0.39962400  0.26815200  0.43852700  1
  O  O7  1  0.73184800  0.60037600  0.06147300  1
  O  O8  1  0.45893600  0.90957800  0.08598400  1
  O  O9  1  0.09042200  0.54106400  0.41401600  1
  O  O10  1  0.54106400  0.09042200  0.91401600  1
  O  O11  1  0.90957800  0.45893600  0.58598400  1
loop_
_geom_bond_atom_site_label_1
_geom_bond_atom_site_label_2
_geom_bond_distance
_geom_bond_site_symmetry_2
H0 O0 1.065344 1_555
H0 O10 1.443229 1_565
H1 O1 1.065344 1_555
H1 O11 1.443229 1_455
H2 O2 1.065344 1_555
H2 O8 1.443229 1_545
H3 O3 1.065344 1_555
H3 O9 1.443229 1_655
H4 O4 1.044482 1_555
H4 O11 1.524579 1_555
H5 O7 1.044482 1_555
H5 O8 1.524579 1_555
H6 O6 1.044482 1_555
H6 O9 1.524579 1_555
H7 O5 1.044482 1_555
H7 O10 1.524579 1_555
O0 Sr0 2.648334 1_565
O0 Sr1 2.808987 1_655
O1 Sr0 2.648334 1_456
O1 Sr1 2.808987 1_545
O2 Sr1 2.648334 1_545
O2 Sr0 2.808987 1_455
O3 Sr1 2.648334 1_654
O3 Sr0 2.808987 1_565
O4 Sr1 2.726123 1_555
O5 Sr1 2.726123 1_555
O6 Sr0 2.726123 1_555
O7 Sr0 2.726123 1_555
O8 Sr1 2.613552 1_554
O8 Sr0 2.693867 1_565
O9 Sr1 2.613552 1_555
O9 Sr0 2.693867 1_455
O10 Sr0 2.613552 1_556
O10 Sr1 2.693867 1_545
O11 Sr0 2.613552 1_555
O11 Sr1 2.693867 1_655
