# generated using pymatgen
data_Yb(NdS2)2
_symmetry_space_group_name_H-M   'P 1'
_cell_length_a   7.41414891
_cell_length_b   7.41414891
_cell_length_c   7.41414891
_cell_angle_alpha   109.56886453
_cell_angle_beta   109.56886453
_cell_angle_gamma   109.27610886
_symmetry_Int_Tables_number   1
_chemical_formula_structural   Yb(NdS2)2
_chemical_formula_sum   'Yb2 Nd4 S8'
_cell_volume   313.73158785
_cell_formula_units_Z   2
loop_
 _symmetry_equiv_pos_site_id
 _symmetry_equiv_pos_as_xyz
  1  'x, y, z'
loop_
 _atom_site_type_symbol
 _atom_site_label
 _atom_site_symmetry_multiplicity
 _atom_site_fract_x
 _atom_site_fract_y
 _atom_site_fract_z
 _atom_site_occupancy
  Yb  Yb0  1  0.75000000  0.25000000  0.50000000  1
  Yb  Yb1  1  0.00000000  0.00000000  0.00000000  1
  Nd  Nd0  1  0.87500000  0.49652400  0.12152400  1
  Nd  Nd1  1  0.24652400  0.12500000  0.62152400  1
  Nd  Nd2  1  0.37500000  0.75347600  0.87847600  1
  Nd  Nd3  1  0.50347600  0.62500000  0.37847600  1
  S  S0  1  0.77260000  0.87600700  0.25219100  1
  S  S1  1  0.12618400  0.37399300  0.39659300  1
  S  S2  1  0.97740000  0.72959100  0.60340700  1
  S  S3  1  0.27040900  0.87381600  0.24780900  1
  S  S4  1  0.12399300  0.37618400  0.89659300  1
  S  S5  1  0.62600700  0.02260000  0.75219100  1
  S  S6  1  0.47959100  0.22740000  0.10340700  1
  S  S7  1  0.62381600  0.52040900  0.74780900  1
loop_
_geom_bond_atom_site_label_1
_geom_bond_atom_site_label_2
_geom_bond_distance
_geom_bond_site_symmetry_2
Nd0 S1 2.875170 1_655
Nd0 S7 2.875170 1_554
Nd0 S3 2.878947 1_655
Nd0 S6 2.878947 1_555
Nd0 S5 3.022951 1_554
Nd0 S4 3.022951 1_654
Nd0 S0 3.083519 1_555
Nd0 S2 3.083519 1_555
Nd1 S4 2.875170 1_555
Nd1 S3 2.875170 1_545
Nd1 S2 2.878947 1_445
Nd1 S7 2.878947 1_555
Nd1 S0 3.022951 1_445
Nd1 S1 3.022951 1_555
Nd1 S5 3.083519 1_555
Nd1 S6 3.083519 1_556
Nd2 S0 2.875170 1_556
Nd2 S2 2.875170 1_455
Nd2 S5 2.878947 1_565
Nd2 S4 2.878947 1_555
Nd2 S3 3.022951 1_556
Nd2 S6 3.022951 1_566
Nd2 S1 3.083519 1_555
Nd2 S7 3.083519 1_555
Nd3 S6 2.875170 1_555
Nd3 S5 2.875170 1_565
Nd3 S0 2.878947 1_555
Nd3 S1 2.878947 1_555
Nd3 S7 3.022951 1_555
Nd3 S2 3.022951 1_555
Nd3 S4 3.083519 1_554
Nd3 S3 3.083519 1_555
S0 Yb0 2.862278 1_565
S0 Yb1 3.069785 1_665
S1 Yb1 2.862278 1_555
S1 Yb0 3.069785 1_455
S2 Yb1 2.862278 1_666
S2 Yb0 3.069785 1_555
S3 Yb1 2.862278 1_565
S3 Yb0 3.069785 1_565
S4 Yb0 2.862278 1_455
S4 Yb1 3.069785 1_556
S5 Yb1 2.862278 1_656
S5 Yb0 3.069785 1_555
S6 Yb0 2.862278 1_555
S6 Yb1 3.069785 1_555
S7 Yb0 2.862278 1_555
S7 Yb1 3.069785 1_666
