# generated using pymatgen
data_Sr5Li25La7(BiO6)8
_symmetry_space_group_name_H-M   'P 1'
_cell_length_a   11.61383168
_cell_length_b   11.54710618
_cell_length_c   11.59260900
_cell_angle_alpha   109.71164400
_cell_angle_beta   108.82509603
_cell_angle_gamma   109.80694692
_symmetry_Int_Tables_number   1
_chemical_formula_structural   Sr5Li25La7(BiO6)8
_chemical_formula_sum   'Sr5 Li25 La7 Bi8 O48'
_cell_volume   1197.71486956
_cell_formula_units_Z   1
loop_
 _symmetry_equiv_pos_site_id
 _symmetry_equiv_pos_as_xyz
  1  'x, y, z'
loop_
 _atom_site_type_symbol
 _atom_site_label
 _atom_site_symmetry_multiplicity
 _atom_site_fract_x
 _atom_site_fract_y
 _atom_site_fract_z
 _atom_site_occupancy
  Sr  Sr0  1  0.12616100  0.37631100  0.74206800  1
  Sr  Sr1  1  0.12289300  0.23775000  0.37216300  1
  Sr  Sr2  1  0.60622400  0.86871100  0.76765600  1
  Sr  Sr3  1  0.61630900  0.24880400  0.86985400  1
  Sr  Sr4  1  0.74815000  0.14137700  0.35406700  1
  Li  Li0  1  0.27093900  0.65249600  0.36600900  1
  Li  Li1  1  0.25458700  0.10317900  0.86300500  1
  Li  Li2  1  0.37850400  0.61547000  0.76842800  1
  Li  Li3  1  0.35769800  0.24853300  0.63273200  1
  Li  Li4  1  0.55260300  0.72376200  0.37093500  1
  Li  Li5  1  0.53989600  0.28501600  0.58864200  1
  Li  Li6  1  0.68364200  0.79829900  0.25842900  1
  Li  Li7  1  0.74110200  0.37827100  0.57986400  1
  Li  Li8  1  0.58933100  0.53814800  0.28594800  1
  Li  Li9  1  0.75266600  0.86629900  0.11906900  1
  Li  Li10  1  0.64960800  0.37873200  0.30077600  1
  Li  Li11  1  0.97088900  0.58977100  0.78035400  1
  Li  Li12  1  0.72328900  0.88232900  0.61225100  1
  Li  Li13  1  0.21873000  0.75095700  0.84415300  1
  Li  Li14  1  0.46411300  0.25528600  0.06596700  1
  Li  Li15  1  0.11795100  0.86663800  0.24253300  1
  Li  Li16  1  0.79963000  0.24944700  0.68201600  1
  Li  Li17  1  0.87887700  0.12524600  0.76758800  1
  Li  Li18  1  0.75500800  0.98692500  0.50208900  1
  Li  Li19  1  0.29297800  0.59126700  0.54086800  1
  Li  Li20  1  0.05321100  0.09249300  0.79197100  1
  Li  Li21  1  0.76378200  0.28335700  0.15633200  1
  Li  Li22  1  0.88732600  0.22872500  0.00136100  1
  Li  Li23  1  0.03887200  0.44239900  0.25165900  1
  Li  Li24  1  0.82580700  0.07260300  0.09893600  1
  La  La0  1  0.24640700  0.87664900  0.61698500  1
  La  La1  1  0.36293100  0.74129300  0.11671100  1
  La  La2  1  0.23679700  0.36304800  0.11973200  1
  La  La3  1  0.36392400  0.10800700  0.24089700  1
  La  La4  1  0.73660700  0.62105900  0.86892800  1
  La  La5  1  0.88442300  0.74787800  0.62255500  1
  La  La6  1  0.86916100  0.62406400  0.23821000  1
  Bi  Bi0  1  0.00611100  0.50278500  0.50210100  1
  Bi  Bi1  1  0.99555300  0.50301100  0.99684300  1
  Bi  Bi2  1  0.99608600  0.98089300  0.98919500  1
  Bi  Bi3  1  0.48890600  0.48921100  0.49454200  1
  Bi  Bi4  1  0.49367700  0.99168800  0.48990400  1
  Bi  Bi5  1  0.49314400  0.49314400  0.99638000  1
  Bi  Bi6  1  0.50064600  0.99293400  0.99587400  1
  Bi  Bi7  1  0.00225500  0.00556100  0.49922800  1
  O  O0  1  0.09362100  0.96911300  0.67377700  1
  O  O1  1  0.00144200  0.30967400  0.91243500  1
  O  O2  1  0.12293400  0.59816400  0.91898900  1
  O  O3  1  0.08004000  0.70688200  0.67334100  1
  O  O4  1  0.06619200  0.86158500  0.40179400  1
  O  O5  1  0.12060100  0.62124600  0.42587500  1
  O  O6  1  0.18096800  0.48020700  0.59339900  1
  O  O7  1  0.38942000  0.80489700  0.79390800  1
  O  O8  1  0.37310800  0.57681200  0.91600900  1
  O  O9  1  0.31228100  0.30792800  0.94347200  1
  O  O10  1  0.32051400  0.91117400  0.29074700  1
  O  O11  1  0.01016100  0.18302000  0.10909800  1
  O  O12  1  0.17215200  0.20141700  0.57872000  1
  O  O13  1  0.18997200  0.56592300  0.16924900  1
  O  O14  1  0.40602800  0.82821800  0.53520200  1
  O  O15  1  0.29531000  0.47965900  0.37151500  1
  O  O16  1  0.33448500  0.90609200  0.03790700  1
  O  O17  1  0.12739800  0.01361000  0.18728700  1
  O  O18  1  0.40989700  0.07963800  0.87837300  1
  O  O19  1  0.50271800  0.61431900  0.68684600  1
  O  O20  1  0.53065000  0.40895700  0.82631500  1
  O  O21  1  0.37761000  0.28268200  0.46543800  1
  O  O22  1  0.56923100  0.88764400  0.36059500  1
  O  O23  1  0.18505800  0.11169400  0.99823600  1
  O  O24  1  0.79543600  0.87885700  0.97655300  1
  O  O25  1  0.43720000  0.11339900  0.61856300  1
  O  O26  1  0.62580900  0.68105200  0.50887700  1
  O  O27  1  0.47660500  0.59629700  0.18358500  1
  O  O28  1  0.47177200  0.37066700  0.28760700  1
  O  O29  1  0.60752800  0.92197600  0.11605900  1
  O  O30  1  0.88313200  0.96776900  0.78701100  1
  O  O31  1  0.68853900  0.10148600  0.98139200  1
  O  O32  1  0.67740900  0.50160800  0.62166100  1
  O  O33  1  0.60396800  0.17912400  0.47753000  1
  O  O34  1  0.80448800  0.41857500  0.80543500  1
  O  O35  1  0.80284800  0.82694300  0.44157200  1
  O  O36  1  0.93655600  0.76356300  0.84861000  1
  O  O37  1  0.68919200  0.05044000  0.65954700  1
  O  O38  1  0.70052400  0.67948000  0.09813300  1
  O  O39  1  0.62072400  0.43017200  0.12158800  1
  O  O40  1  0.57975700  0.18717700  0.18531100  1
  O  O41  1  0.83316600  0.54134400  0.40646100  1
  O  O42  1  0.90833600  0.39701000  0.59167900  1
  O  O43  1  0.93728000  0.12791000  0.62895100  1
  O  O44  1  0.91898400  0.31079000  0.31011300  1
  O  O45  1  0.87738800  0.40581200  0.08883500  1
  O  O46  1  0.95345800  0.66825100  0.08405300  1
  O  O47  1  0.88351000  0.01381600  0.32044100  1
loop_
_geom_bond_atom_site_label_1
_geom_bond_atom_site_label_2
_geom_bond_distance
_geom_bond_site_symmetry_2
Li0 O13 1.878009 1_555
Li0 O14 1.896746 1_555
Li0 O5 2.045562 1_555
Li0 O15 2.127057 1_555
Li1 O18 1.875285 1_555
Li1 O0 1.950580 1_545
Li1 O23 1.971327 1_555
Li1 O9 1.985987 1_555
Li2 O8 1.922395 1_555
Li2 O19 1.964871 1_555
Li2 O7 2.059081 1_555
Li2 O6 2.061397 1_555
Li3 O12 1.853794 1_555
Li3 O25 2.053232 1_555
Li3 O20 2.065740 1_555
Li3 O21 2.171094 1_555
Li4 O27 1.840787 1_555
Li4 O26 1.860635 1_555
Li4 O22 1.884938 1_555
Li4 O35 2.448669 1_555
Li5 O21 1.948158 1_555
Li5 O33 1.969953 1_555
Li5 O25 2.144476 1_555
Li5 O32 2.281431 1_555
Li6 O35 1.962829 1_555
Li6 O38 2.017805 1_555
Li6 O22 2.313669 1_555
Li6 O27 2.337220 1_555
Li6 O47 2.428883 1_565
Li7 O32 1.813845 1_555
Li7 O42 1.833397 1_555
Li7 O33 1.921014 1_555
Li7 O34 2.302402 1_555
Li8 O27 1.924469 1_555
Li8 O28 1.963954 1_555
Li8 O39 2.114645 1_555
Li8 O26 2.350344 1_555
Li9 O24 1.907804 1_554
Li9 O38 1.935424 1_555
Li9 O47 1.983509 1_565
Li9 O29 1.991839 1_555
Li10 O40 1.851556 1_555
Li10 O41 1.902946 1_555
Li10 O28 1.988531 1_555
Li10 O39 2.301738 1_555
Li11 O2 1.912563 1_655
Li11 O36 2.118269 1_555
Li11 O42 2.204692 1_555
Li11 O34 2.426607 1_555
Li11 O3 2.441201 1_655
Li12 O30 1.872767 1_555
Li12 O26 1.892604 1_555
Li12 O37 2.041759 1_565
Li12 O35 2.429897 1_555
Li13 O3 1.865670 1_555
Li13 O16 1.940696 1_556
Li13 O7 2.193199 1_555
Li13 O2 2.329889 1_555
Li14 O39 1.917707 1_555
Li14 O18 2.124833 1_554
Li14 O40 2.141753 1_555
Li14 O9 2.277742 1_554
Li14 O28 2.418200 1_555
Li15 O17 1.988646 1_565
Li15 O46 2.050046 1_455
Li15 O10 2.061286 1_555
Li15 O4 2.130381 1_555
Li16 O34 1.962793 1_555
Li16 O37 2.092057 1_555
Li16 O33 2.327464 1_555
Li16 O42 2.488588 1_555
Li16 O43 2.544871 1_555
Li16 O1 2.591139 1_655
Li17 O37 1.835167 1_555
Li17 O1 1.836259 1_655
Li17 O30 1.920845 1_545
Li17 O43 1.940803 1_555
Li18 O43 1.826084 1_565
Li18 O22 1.852353 1_555
Li18 O35 2.070360 1_555
Li18 O37 2.198034 1_565
Li19 O6 1.901362 1_555
Li19 O15 1.966506 1_555
Li19 O5 2.227867 1_555
Li19 O19 2.337646 1_555
Li19 O14 2.637558 1_555
Li19 O7 2.659008 1_555
Li20 O0 1.917987 1_545
Li20 O30 1.980427 1_445
Li20 O43 2.191785 1_455
Li20 O23 2.271742 1_555
Li21 O44 1.919832 1_555
Li21 O31 2.006588 1_554
Li21 O45 2.121494 1_555
Li21 O40 2.240647 1_555
Li22 O11 1.917962 1_655
Li22 O45 2.014871 1_555
Li22 O1 2.094066 1_654
Li22 O31 2.160819 1_554
Li23 O5 1.966106 1_555
Li23 O45 1.974632 1_455
Li23 O44 2.139376 1_455
Li23 O13 2.516245 1_555
Li23 O15 2.653922 1_555
Li24 O31 1.942802 1_554
Li24 O11 2.027189 1_655
Li24 O24 2.035554 1_544
Li24 O44 2.541652 1_555
La0 O14 2.475360 1_555
La0 O0 2.507131 1_555
La0 O5 2.514733 1_555
La0 O4 2.593259 1_555
La0 O18 2.600150 1_565
La0 O3 2.667314 1_555
La0 O7 2.744484 1_555
La0 O25 2.866819 1_565
La1 O2 2.440044 1_554
La1 O16 2.443135 1_555
La1 O22 2.500218 1_555
La1 O8 2.526512 1_554
La1 O10 2.605322 1_555
La1 O27 2.619196 1_555
La1 O13 2.715035 1_555
La1 O29 2.903534 1_555
La2 O9 2.450639 1_554
La2 O15 2.498597 1_555
La2 O13 2.504160 1_555
La2 O23 2.506609 1_554
La2 O11 2.678471 1_555
La2 O1 2.691884 1_554
La2 O28 2.745302 1_555
La2 O27 2.792818 1_555
La3 O17 2.352084 1_555
La3 O10 2.459974 1_545
La3 O16 2.515929 1_545
La3 O21 2.615959 1_555
La3 O28 2.634544 1_555
La3 O40 2.724164 1_555
La3 O33 2.822220 1_555
La3 O23 2.932562 1_554
La4 O32 2.451576 1_555
La4 O36 2.486060 1_555
La4 O20 2.532778 1_555
La4 O24 2.539889 1_555
La4 O46 2.637963 1_556
La4 O34 2.663225 1_555
La4 O38 2.718791 1_556
La4 O19 2.808152 1_555
La5 O3 2.405354 1_655
La5 O36 2.418327 1_555
La5 O41 2.522464 1_555
La5 O26 2.557748 1_555
La5 O0 2.573127 1_655
La5 O35 2.593931 1_555
La5 O30 2.619301 1_555
La5 O32 3.032772 1_555
La6 O4 2.406744 1_655
La6 O46 2.412080 1_555
La6 O39 2.495644 1_555
La6 O38 2.525863 1_555
La6 O41 2.530574 1_555
La6 O45 2.585560 1_555
Bi0 O6 2.114233 1_555
Bi0 O42 2.129856 1_455
Bi0 O44 2.142477 1_455
Bi0 O3 2.145893 1_555
Bi0 O5 2.181973 1_555
Bi0 O41 2.227935 1_455
Bi1 O46 2.133454 1_556
Bi1 O13 2.148759 1_656
Bi1 O1 2.149232 1_655
Bi1 O2 2.153927 1_655
Bi1 O34 2.166781 1_555
Bi1 O45 2.233465 1_556
Bi2 O17 2.122765 1_666
Bi2 O23 2.146436 1_665
Bi2 O24 2.154634 1_555
Bi2 O36 2.184007 1_555
Bi2 O11 2.193766 1_666
Bi2 O30 2.208803 1_555
Bi3 O19 2.126544 1_555
Bi3 O32 2.132644 1_555
Bi3 O21 2.135097 1_555
Bi3 O26 2.158002 1_555
Bi3 O15 2.181250 1_555
Bi3 O28 2.227181 1_555
Bi4 O25 2.114715 1_565
Bi4 O10 2.127820 1_555
Bi4 O14 2.141599 1_555
Bi4 O37 2.158219 1_565
Bi4 O33 2.189720 1_565
Bi4 O22 2.192913 1_555
Bi5 O8 2.103965 1_555
Bi5 O20 2.137730 1_555
Bi5 O9 2.145132 1_555
Bi5 O38 2.182703 1_556
Bi5 O27 2.201302 1_556
Bi5 O39 2.210238 1_556
Bi6 O29 2.120518 1_556
Bi6 O7 2.140775 1_555
Bi6 O16 2.142897 1_556
Bi6 O40 2.162456 1_566
Bi6 O18 2.162673 1_565
Bi6 O31 2.210397 1_565
Bi7 O12 2.062452 1_555
Bi7 O47 2.141118 1_455
Bi7 O4 2.168477 1_545
Bi7 O43 2.201941 1_455
Bi7 O0 2.211110 1_545
Bi7 O35 2.213154 1_445
O1 Sr0 2.950720 1_555
O2 Sr0 2.709412 1_555
O6 Sr0 2.529818 1_555
O6 Sr1 2.762438 1_555
O7 Sr2 2.522685 1_555
O8 Sr0 2.504041 1_555
O9 Sr0 3.144919 1_555
O11 Sr1 2.641228 1_555
O12 Sr1 2.488647 1_555
O12 Sr0 2.598779 1_555
O14 Sr2 2.693688 1_555
O15 Sr1 2.836494 1_555
O17 Sr1 2.777940 1_555
O18 Sr3 2.584879 1_555
O19 Sr2 2.444451 1_555
O20 Sr3 2.493343 1_555
O21 Sr1 2.589716 1_555
O24 Sr2 2.628097 1_555
O25 Sr3 2.463845 1_555
O29 Sr4 2.504188 1_565
O30 Sr2 2.927346 1_555
O31 Sr2 2.552488 1_545
O31 Sr3 2.649557 1_555
O33 Sr4 2.581271 1_555
O34 Sr3 2.883463 1_555
O39 Sr3 2.934747 1_554
O40 Sr4 2.619416 1_555
O42 Sr4 2.692230 1_555
O42 Sr0 2.709415 1_655
O43 Sr0 2.470020 1_655
O44 Sr4 2.591790 1_555
O44 Sr1 2.738692 1_655
O45 Sr3 2.669718 1_554
O47 Sr4 2.523950 1_555
O47 Sr1 2.789529 1_655
