# generated using pymatgen
data_Cu(NO3)2
_symmetry_space_group_name_H-M   'P 1'
_cell_length_a   5.02544556
_cell_length_b   8.31666576
_cell_length_c   11.11668551
_cell_angle_alpha   90.00000000
_cell_angle_beta   90.00000000
_cell_angle_gamma   90.00000000
_symmetry_Int_Tables_number   1
_chemical_formula_structural   Cu(NO3)2
_chemical_formula_sum   'Cu4 N8 O24'
_cell_volume   464.62132637
_cell_formula_units_Z   4
loop_
 _symmetry_equiv_pos_site_id
 _symmetry_equiv_pos_as_xyz
  1  'x, y, z'
loop_
 _atom_site_type_symbol
 _atom_site_label
 _atom_site_symmetry_multiplicity
 _atom_site_fract_x
 _atom_site_fract_y
 _atom_site_fract_z
 _atom_site_occupancy
  Cu  Cu0  1  0.76849825  0.24591196  0.74888834  1
  Cu  Cu1  1  0.76849825  0.24591196  0.25111166  1
  Cu  Cu2  1  0.23150175  0.74591196  0.75111166  1
  Cu  Cu3  1  0.23150175  0.74591196  0.24888834  1
  N  N0  1  0.76786049  0.28923345  0.50000000  1
  N  N1  1  0.23213951  0.78923345  0.00000000  1
  N  N2  1  0.22747705  0.41453449  0.79054290  1
  N  N3  1  0.22667831  0.71589557  0.50000000  1
  N  N4  1  0.22747705  0.41453449  0.20945710  1
  N  N5  1  0.77252295  0.91453449  0.70945710  1
  N  N6  1  0.77332169  0.21589557  0.00000000  1
  N  N7  1  0.77252295  0.91453449  0.29054290  1
  O  O0  1  0.15403880  0.64418845  0.40343611  1
  O  O1  1  0.97779904  0.44151423  0.21535780  1
  O  O2  1  0.97779904  0.44151423  0.78464220  1
  O  O3  1  0.66382106  0.34383591  0.59673979  1
  O  O4  1  0.64904947  0.34203806  0.00000000  1
  O  O5  1  0.02220096  0.94151423  0.28464220  1
  O  O6  1  0.66382106  0.34383591  0.40326021  1
  O  O7  1  0.38251374  0.53387285  0.80015826  1
  O  O8  1  0.61748626  0.03387285  0.30015826  1
  O  O9  1  0.61748626  0.03387285  0.69984174  1
  O  O10  1  0.38251374  0.53387285  0.19984174  1
  O  O11  1  0.84596120  0.14418845  0.90343611  1
  O  O12  1  0.02220096  0.94151423  0.71535780  1
  O  O13  1  0.35095053  0.84203806  0.50000000  1
  O  O14  1  0.15403880  0.64418845  0.59656389  1
  O  O15  1  0.95216063  0.19288560  0.50000000  1
  O  O16  1  0.33617894  0.84383591  0.90326021  1
  O  O17  1  0.84596120  0.14418845  0.09656389  1
  O  O18  1  0.31601982  0.27594626  0.21317457  1
  O  O19  1  0.04783937  0.69288560  0.00000000  1
  O  O20  1  0.31601982  0.27594626  0.78682543  1
  O  O21  1  0.33617894  0.84383591  0.09673979  1
  O  O22  1  0.68398018  0.77594626  0.28682543  1
  O  O23  1  0.68398018  0.77594626  0.71317457  1
loop_
_geom_bond_atom_site_label_1
_geom_bond_atom_site_label_2
_geom_bond_distance
_geom_bond_site_symmetry_2
Cu0 O3 1.949556 1_555
Cu0 O11 1.954223 1_555
Cu0 O2 1.977541 1_555
Cu0 O9 1.995746 1_555
Cu0 O20 2.326134 1_555
Cu1 O6 1.949556 1_555
Cu1 O17 1.954223 1_555
Cu1 O1 1.977541 1_555
Cu1 O8 1.995746 1_555
Cu1 O18 2.326134 1_555
Cu2 O16 1.949556 1_555
Cu2 O14 1.954223 1_555
Cu2 O12 1.977541 1_555
Cu2 O7 1.995746 1_555
Cu2 O23 2.326134 1_555
Cu3 O21 1.949556 1_555
Cu3 O0 1.954223 1_555
Cu3 O5 1.977541 1_555
Cu3 O10 1.995746 1_555
Cu3 O22 2.326134 1_555
N0 O15 1.224704 1_555
N0 O6 1.279110 1_555
N0 O3 1.279110 1_555
N1 O19 1.224704 1_555
N1 O21 1.279110 1_555
N1 O16 1.279110 1_554
N2 O20 1.236192 1_555
N2 O7 1.266301 1_555
N2 O2 1.276335 1_455
N3 O13 1.220905 1_555
N3 O0 1.281112 1_555
N3 O14 1.281112 1_555
N4 O18 1.236192 1_555
N4 O10 1.266301 1_555
N4 O1 1.276335 1_455
N5 O23 1.236192 1_555
N5 O9 1.266301 1_565
N5 O12 1.276335 1_655
N6 O4 1.220905 1_555
N6 O11 1.281112 1_554
N6 O17 1.281112 1_555
N7 O22 1.236192 1_555
N7 O8 1.266301 1_565
N7 O5 1.276335 1_655
