# generated using pymatgen
data_Yb2FeS4
_symmetry_space_group_name_H-M   'P 1'
_cell_length_a   7.73319700
_cell_length_b   7.74841216
_cell_length_c   25.75859851
_cell_angle_alpha   81.69867568
_cell_angle_beta   81.65832303
_cell_angle_gamma   60.22802345
_symmetry_Int_Tables_number   1
_chemical_formula_structural   Yb2FeS4
_chemical_formula_sum   'Yb16 Fe8 S32'
_cell_volume   1320.84745863
_cell_formula_units_Z   8
loop_
 _symmetry_equiv_pos_site_id
 _symmetry_equiv_pos_as_xyz
  1  'x, y, z'
loop_
 _atom_site_type_symbol
 _atom_site_label
 _atom_site_symmetry_multiplicity
 _atom_site_fract_x
 _atom_site_fract_y
 _atom_site_fract_z
 _atom_site_occupancy
  Yb  Yb0  1  0.65785400  0.15218600  0.03278400  1
  Yb  Yb1  1  0.15742000  0.15597100  0.03080100  1
  Yb  Yb2  1  0.65641800  0.65762200  0.03178100  1
  Yb  Yb3  1  0.28546900  0.77802400  0.15488800  1
  Yb  Yb4  1  0.77789300  0.28571900  0.15764200  1
  Yb  Yb5  1  0.90692600  0.90607400  0.28038400  1
  Yb  Yb6  1  0.53161000  0.03129900  0.40610500  1
  Yb  Yb7  1  0.28335700  0.28329700  0.66001800  1
  Yb  Yb8  1  0.03136300  0.53150300  0.40608900  1
  Yb  Yb9  1  0.78001300  0.28439000  0.65768400  1
  Yb  Yb10  1  0.15347600  0.15350000  0.53030600  1
  Yb  Yb11  1  0.28433700  0.78002400  0.65770300  1
  Yb  Yb12  1  0.53238000  0.53815500  0.90480500  1
  Yb  Yb13  1  0.02884200  0.53562100  0.90733600  1
  Yb  Yb14  1  0.40856200  0.40911900  0.78113200  1
  Yb  Yb15  1  0.53466300  0.02883600  0.90518600  1
  Fe  Fe0  1  0.23717400  0.23784300  0.24839600  1
  Fe  Fe1  1  0.57539600  0.57485800  0.31595100  1
  Fe  Fe2  1  0.48659100  0.48696900  0.49668000  1
  Fe  Fe3  1  0.40595500  0.40529500  0.28072200  1
  Fe  Fe4  1  0.82581800  0.82540200  0.56510500  1
  Fe  Fe5  1  0.65742800  0.65733500  0.52845300  1
  Fe  Fe6  1  0.07235400  0.07191200  0.81283600  1
  Fe  Fe7  1  0.87171700  0.87194700  0.77495500  1
  S  S0  1  0.47051600  0.96537800  0.09573300  1
  S  S1  1  0.57330000  0.57484800  0.22968000  1
  S  S2  1  0.96163700  0.47270300  0.09606500  1
  S  S3  1  0.47379100  0.46831400  0.09511700  1
  S  S4  1  0.68531500  0.24549800  0.33686100  1
  S  S5  1  0.09723500  0.09563800  0.22007700  1
  S  S6  1  0.56040200  0.13121000  0.22592700  1
  S  S7  1  0.82727500  0.82708600  0.47684900  1
  S  S8  1  0.96614500  0.97102000  0.09827800  1
  S  S9  1  0.24551200  0.68538700  0.33681800  1
  S  S10  1  0.72086700  0.72107600  0.34352500  1
  S  S11  1  0.13129200  0.56008700  0.22597900  1
  S  S12  1  0.94993000  0.48849300  0.58949600  1
  S  S13  1  0.34144600  0.34132900  0.46863000  1
  S  S14  1  0.81663700  0.37390300  0.47399900  1
  S  S15  1  0.23647300  0.23602800  0.33489300  1
  S  S16  1  0.08938300  0.08942600  0.72386600  1
  S  S17  1  0.48813100  0.95009800  0.58957300  1
  S  S18  1  0.96885800  0.96894700  0.59418100  1
  S  S19  1  0.37409400  0.81630900  0.47407900  1
  S  S20  1  0.19524000  0.74719900  0.83875300  1
  S  S21  1  0.58875000  0.58848800  0.71778900  1
  S  S22  1  0.07853000  0.61505900  0.72314400  1
  S  S23  1  0.47863800  0.47882200  0.58680800  1
  S  S24  1  0.34991000  0.34461300  0.96457900  1
  S  S25  1  0.74726100  0.19531200  0.83878600  1
  S  S26  1  0.21350900  0.21475900  0.84229000  1
  S  S27  1  0.61489600  0.07894600  0.72310400  1
  S  S28  1  0.83976700  0.84395500  0.96815200  1
  S  S29  1  0.35132900  0.84215900  0.96753400  1
  S  S30  1  0.73623300  0.73376100  0.83523100  1
  S  S31  1  0.84092900  0.34749900  0.96771500  1
loop_
_geom_bond_atom_site_label_1
_geom_bond_atom_site_label_2
_geom_bond_distance
_geom_bond_site_symmetry_2
Fe0 S5 2.136033 1_555
Fe0 S11 2.220087 1_555
Fe0 S6 2.221013 1_555
Fe0 S15 2.225291 1_555
Fe1 S10 2.187129 1_555
Fe1 S1 2.224641 1_555
Fe1 S9 2.257349 1_555
Fe1 S4 2.259880 1_555
Fe2 S13 2.187242 1_555
Fe2 S14 2.262227 1_555
Fe2 S19 2.262967 1_555
Fe2 S23 2.305985 1_555
Fe3 S6 2.405474 1_555
Fe3 S11 2.406058 1_555
Fe3 S1 2.413566 1_555
Fe3 S4 2.454436 1_555
Fe3 S15 2.456217 1_555
Fe3 S9 2.459386 1_555
Fe4 S18 2.173559 1_555
Fe4 S7 2.269927 1_555
Fe4 S17 2.311440 1_555
Fe4 S12 2.311668 1_555
Fe5 S7 2.434406 1_555
Fe5 S19 2.447800 1_555
Fe5 S14 2.451440 1_555
Fe5 S23 2.603870 1_555
Fe5 S12 2.607607 1_555
Fe5 S17 2.611962 1_555
Fe6 S26 2.162151 1_555
Fe6 S25 2.234066 1_455
Fe6 S20 2.236883 1_545
Fe6 S16 2.264557 1_555
Fe7 S30 2.194735 1_555
Fe7 S22 2.299401 1_655
Fe7 S27 2.299648 1_565
Fe7 S20 2.868256 1_655
Fe7 S25 2.871088 1_565
Fe7 S16 2.989750 1_665
S0 Yb3 2.696042 1_555
S0 Yb2 2.740338 1_555
S0 Yb0 2.747059 1_565
S0 Yb1 2.784156 1_565
S1 Yb4 2.791753 1_555
S1 Yb3 2.834228 1_555
S2 Yb4 2.713104 1_555
S2 Yb2 2.730627 1_555
S2 Yb1 2.811432 1_655
S3 Yb3 2.682489 1_555
S3 Yb4 2.694948 1_555
S3 Yb2 2.739625 1_555
S3 Yb0 2.759358 1_555
S4 Yb6 2.799641 1_555
S4 Yb5 2.806340 1_545
S5 Yb5 2.749726 1_445
S5 Yb4 2.776788 1_455
S5 Yb3 2.814520 1_545
S6 Yb4 2.808762 1_555
S6 Yb5 2.816636 1_545
S7 Yb6 2.799211 1_565
S7 Yb8 2.799916 1_655
S8 Yb3 2.684837 1_655
S8 Yb4 2.703498 1_565
S8 Yb0 2.767675 1_565
S8 Yb1 2.811155 1_665
S9 Yb5 2.798767 1_455
S9 Yb8 2.799518 1_555
S10 Yb8 2.730702 1_655
S10 Yb6 2.731119 1_565
S10 Yb5 2.732450 1_555
S11 Yb5 2.814482 1_455
S11 Yb3 2.845960 1_555
S12 Yb9 2.811524 1_555
S12 Yb10 2.815774 1_655
S12 Yb7 2.988301 1_655
S13 Yb8 2.728177 1_555
S13 Yb6 2.729272 1_555
S13 Yb10 2.741947 1_555
S14 Yb10 2.787205 1_655
S14 Yb8 2.804031 1_655
S15 Yb6 2.805215 1_555
S15 Yb8 2.807624 1_555
S16 Yb9 2.786127 1_455
S16 Yb11 2.787426 1_545
S16 Yb7 2.831981 1_555
S17 Yb11 2.809328 1_555
S17 Yb10 2.813011 1_565
S17 Yb7 2.987418 1_565
S18 Yb10 2.730716 1_665
S18 Yb11 2.773452 1_655
S18 Yb9 2.774701 1_565
S19 Yb10 2.789902 1_565
S19 Yb6 2.806877 1_565
S20 Yb14 2.811981 1_555
S20 Yb13 2.839619 1_555
S20 Yb12 2.934824 1_555
S21 Yb11 2.657828 1_555
S21 Yb9 2.657932 1_555
S21 Yb14 2.672870 1_555
S22 Yb11 2.761891 1_555
S22 Yb14 2.768489 1_555
S22 Yb7 2.859557 1_555
S23 Yb9 2.826275 1_555
S23 Yb11 2.826893 1_555
S23 Yb7 2.958514 1_555
S24 Yb13 2.704080 1_555
S24 Yb15 2.709894 1_555
S24 Yb12 2.723068 1_555
S24 Yb0 2.812840 1_556
S24 Yb1 2.822427 1_556
S25 Yb14 2.814130 1_555
S25 Yb15 2.818746 1_555
S25 Yb12 2.968300 1_555
S26 Yb15 2.794372 1_555
S26 Yb14 2.811815 1_555
S26 Yb13 2.830260 1_555
S27 Yb9 2.761123 1_555
S27 Yb14 2.771900 1_555
S27 Yb7 2.855773 1_555
S28 Yb13 2.691971 1_655
S28 Yb15 2.707854 1_565
S28 Yb2 2.730673 1_556
S28 Yb0 2.754383 1_566
S29 Yb12 2.699468 1_555
S29 Yb15 2.717832 1_565
S29 Yb2 2.729283 1_556
S29 Yb1 2.762425 1_566
S30 Yb15 2.782008 1_565
S30 Yb13 2.805885 1_655
S30 Yb12 2.960199 1_555
S31 Yb12 2.726112 1_555
S31 Yb13 2.729197 1_655
S31 Yb2 2.755050 1_556
S31 Yb1 2.771956 1_656
S31 Yb0 2.794766 1_556
