# generated using pymatgen
data_Hf5ZrTe8
_symmetry_space_group_name_H-M   'P 1'
_cell_length_a   10.94936620
_cell_length_b   10.96771605
_cell_length_c   15.82134873
_cell_angle_alpha   89.98719256
_cell_angle_beta   90.02129079
_cell_angle_gamma   119.93163434
_symmetry_Int_Tables_number   1
_chemical_formula_structural   Hf5ZrTe8
_chemical_formula_sum   'Hf20 Zr4 Te32'
_cell_volume   1646.56187747
_cell_formula_units_Z   4
loop_
 _symmetry_equiv_pos_site_id
 _symmetry_equiv_pos_as_xyz
  1  'x, y, z'
loop_
 _atom_site_type_symbol
 _atom_site_label
 _atom_site_symmetry_multiplicity
 _atom_site_fract_x
 _atom_site_fract_y
 _atom_site_fract_z
 _atom_site_occupancy
  Hf  Hf0  1  0.49109077  0.36586412  0.93773598  1
  Hf  Hf1  1  0.49142174  0.36337687  0.43776871  1
  Hf  Hf2  1  0.49144585  0.36659470  0.18678626  1
  Hf  Hf3  1  0.63443118  0.12485769  0.68808375  1
  Hf  Hf4  1  0.63370865  0.12401442  0.93776242  1
  Hf  Hf5  1  0.63452483  0.12544060  0.18824939  1
  Hf  Hf6  1  0.87377355  0.50778625  0.93858334  1
  Hf  Hf7  1  0.87352274  0.50913775  0.68744107  1
  Hf  Hf8  1  0.87530995  0.50856714  0.43720906  1
  Hf  Hf9  1  0.87505717  0.50874428  0.18648491  1
  Hf  Hf10  1  0.12556824  0.49139427  0.81282949  1
  Hf  Hf11  1  0.12659651  0.49192804  0.31289478  1
  Hf  Hf12  1  0.12468377  0.49117398  0.06306199  1
  Hf  Hf13  1  0.36365369  0.87330624  0.56257377  1
  Hf  Hf14  1  0.36675407  0.87610761  0.31223715  1
  Hf  Hf15  1  0.36558249  0.87493900  0.06163516  1
  Hf  Hf16  1  0.50887147  0.63390115  0.56316627  1
  Hf  Hf17  1  0.50978177  0.63548763  0.81291371  1
  Hf  Hf18  1  0.50895884  0.63422972  0.31073521  1
  Hf  Hf19  1  0.50825642  0.63373037  0.06344530  1
  Zr  Zr0  1  0.49256624  0.36662161  0.68754902  1
  Zr  Zr1  1  0.63349423  0.12458628  0.43581358  1
  Zr  Zr2  1  0.12570396  0.49219692  0.56140254  1
  Zr  Zr3  1  0.36626383  0.87413883  0.81357335  1
  Te  Te0  1  0.34394304  0.05528721  0.93863229  1
  Te  Te1  1  0.34376570  0.05239007  0.68656793  1
  Te  Te2  1  0.33928542  0.05063649  0.43730397  1
  Te  Te3  1  0.34372347  0.05335166  0.18731999  1
  Te  Te4  1  0.70896066  0.65618491  0.93827101  1
  Te  Te5  1  0.71131261  0.66034292  0.68791891  1
  Te  Te6  1  0.70750999  0.65463082  0.43716315  1
  Te  Te7  1  0.71032733  0.65652435  0.18711106  1
  Te  Te8  1  0.66752757  0.33277985  0.81348535  1
  Te  Te9  1  0.66838482  0.33320232  0.56222320  1
  Te  Te10  1  0.66727483  0.33493143  0.31136732  1
  Te  Te11  1  0.66625871  0.33219388  0.06261892  1
  Te  Te12  1  0.04973987  0.70711601  0.81298812  1
  Te  Te13  1  0.05001100  0.71084894  0.56257242  1
  Te  Te14  1  0.05264503  0.70902678  0.31193381  1
  Te  Te15  1  0.05290802  0.70985036  0.06212413  1
  Te  Te16  1  0.94751041  0.29078146  0.93817947  1
  Te  Te17  1  0.94601894  0.29093378  0.68855234  1
  Te  Te18  1  0.94755548  0.29049148  0.43556747  1
  Te  Te19  1  0.94784853  0.29085341  0.18800253  1
  Te  Te20  1  0.33295406  0.66524633  0.93860077  1
  Te  Te21  1  0.33368568  0.66624518  0.68788263  1
  Te  Te22  1  0.33264244  0.66754769  0.18729041  1
  Te  Te23  1  0.33586471  0.66855848  0.43655088  1
  Te  Te24  1  0.29027235  0.34558042  0.81382859  1
  Te  Te25  1  0.29155680  0.34381449  0.56093866  1
  Te  Te26  1  0.29182863  0.34378848  0.31236190  1
  Te  Te27  1  0.29023186  0.34365176  0.06265063  1
  Te  Te28  1  0.66054979  0.94880644  0.81317454  1
  Te  Te29  1  0.65430524  0.94490086  0.56360685  1
  Te  Te30  1  0.65628641  0.94458832  0.31056869  1
  Te  Te31  1  0.65628964  0.94679096  0.06270785  1
loop_
_geom_bond_atom_site_label_1
_geom_bond_atom_site_label_2
_geom_bond_distance
_geom_bond_site_symmetry_2
Hf0 Te24 2.869895 1_555
Hf0 Te4 2.872192 1_555
Hf0 Te27 2.875821 1_556
Hf0 Te11 2.902161 1_556
Hf0 Te8 2.903601 1_555
Hf0 Te0 2.953348 1_555
Hf1 Te25 2.857799 1_555
Hf1 Te6 2.874008 1_555
Hf1 Te26 2.878768 1_555
Hf1 Te9 2.894453 1_555
Hf1 Te10 2.899445 1_555
Hf1 Te2 2.972913 1_555
Hf2 Te27 2.866756 1_555
Hf2 Te26 2.871320 1_555
Hf2 Te7 2.872312 1_555
Hf2 Te10 2.894153 1_555
Hf2 Te11 2.896403 1_555
Hf2 Te3 2.978914 1_555
Hf3 Te1 2.869997 1_555
Hf3 Te29 2.872643 1_545
Hf3 Te28 2.876781 1_545
Hf3 Te8 2.906000 1_555
Hf3 Te9 2.911305 1_555
Hf3 Te17 2.959050 1_555
Hf4 Te31 2.867841 1_546
Hf4 Te28 2.868829 1_545
Hf4 Te0 2.871956 1_555
Hf4 Te8 2.897972 1_555
Hf4 Te11 2.903771 1_556
Hf4 Te16 2.979862 1_555
Hf5 Te30 2.864612 1_545
Hf5 Te3 2.872534 1_555
Hf5 Te31 2.882561 1_545
Hf5 Te10 2.895043 1_555
Hf5 Te11 2.902711 1_555
Hf5 Te19 2.974881 1_555
Hf6 Te16 2.869518 1_555
Hf6 Te12 2.870127 1_655
Hf6 Te15 2.870577 1_656
Hf6 Te11 2.890931 1_556
Hf6 Te8 2.893789 1_555
Hf6 Te4 2.972663 1_555
Hf7 Te12 2.863795 1_655
Hf7 Te17 2.872898 1_555
Hf7 Te13 2.875092 1_655
Hf7 Te9 2.892494 1_555
Hf7 Te8 2.907468 1_555
Hf7 Te5 2.973912 1_555
Hf8 Te18 2.869710 1_555
Hf8 Te14 2.876308 1_655
Hf8 Te13 2.877351 1_655
Hf8 Te9 2.897867 1_555
Hf8 Te10 2.906666 1_555
Hf8 Te6 2.979813 1_555
Hf9 Te15 2.871066 1_655
Hf9 Te19 2.871847 1_555
Hf9 Te14 2.877869 1_655
Hf9 Te10 2.896115 1_555
Hf9 Te11 2.897820 1_555
Hf9 Te7 2.966112 1_555
Hf10 Te12 2.871854 1_555
Hf10 Te17 2.872371 1_455
Hf10 Te16 2.880173 1_455
Hf10 Te21 2.901532 1_555
Hf10 Te20 2.903295 1_555
Hf10 Te24 2.947575 1_555
Hf11 Te18 2.858284 1_455
Hf11 Te14 2.872178 1_555
Hf11 Te19 2.879276 1_455
Hf11 Te23 2.898164 1_555
Hf11 Te22 2.900701 1_555
Hf11 Te26 2.974302 1_555
Hf12 Te19 2.870401 1_455
Hf12 Te16 2.870877 1_454
Hf12 Te15 2.872464 1_555
Hf12 Te20 2.894780 1_554
Hf12 Te22 2.896997 1_555
Hf12 Te27 2.971595 1_555
Hf13 Te1 2.860528 1_565
Hf13 Te29 2.872459 1_555
Hf13 Te2 2.880569 1_565
Hf13 Te23 2.903533 1_555
Hf13 Te21 2.906958 1_555
Hf13 Te13 2.976924 1_555
Hf14 Te3 2.869787 1_565
Hf14 Te30 2.870343 1_555
Hf14 Te2 2.871685 1_565
Hf14 Te23 2.897351 1_555
Hf14 Te22 2.903196 1_555
Hf14 Te14 2.982841 1_555
Hf15 Te0 2.867313 1_564
Hf15 Te31 2.872266 1_555
Hf15 Te3 2.882687 1_565
Hf15 Te20 2.896138 1_554
Hf15 Te22 2.904485 1_555
Hf15 Te15 2.968733 1_555
Hf16 Te25 2.868928 1_555
Hf16 Te5 2.872045 1_555
Hf16 Te6 2.875050 1_555
Hf16 Te21 2.894969 1_555
Hf16 Te23 2.908819 1_555
Hf16 Te29 2.958046 1_555
Hf17 Te4 2.871287 1_555
Hf17 Te5 2.873518 1_555
Hf17 Te24 2.874122 1_555
Hf17 Te21 2.896654 1_555
Hf17 Te20 2.905731 1_555
Hf17 Te28 2.978738 1_555
Hf18 Te7 2.865607 1_555
Hf18 Te26 2.870981 1_555
Hf18 Te6 2.879055 1_555
Hf18 Te22 2.894116 1_555
Hf18 Te23 2.900249 1_555
Hf18 Te30 2.951148 1_555
Hf19 Te7 2.868973 1_555
Hf19 Te27 2.870835 1_555
Hf19 Te4 2.876637 1_554
Hf19 Te20 2.892092 1_554
Hf19 Te22 2.896383 1_555
Hf19 Te31 2.977052 1_555
Te0 Zr3 2.899756 1_545
Te1 Zr3 2.898085 1_545
Te1 Zr0 2.988134 1_555
Te2 Zr1 2.903187 1_555
Te5 Zr0 2.900792 1_555
Te8 Zr0 2.912753 1_555
Te9 Zr0 2.911919 1_555
Te9 Zr1 2.917216 1_555
Te10 Zr1 2.912499 1_555
Te12 Zr3 3.005244 1_555
Te13 Zr2 2.902006 1_555
Te17 Zr2 2.908142 1_655
Te18 Zr2 2.890554 1_655
Te18 Zr1 2.981923 1_555
Te20 Zr3 2.908533 1_555
Te21 Zr3 2.910419 1_555
Te21 Zr2 2.914523 1_555
Te23 Zr2 2.915197 1_555
Te24 Zr0 2.905868 1_555
Te25 Zr0 2.892539 1_555
Te25 Zr2 2.982549 1_555
Te28 Zr3 2.901761 1_555
Te29 Zr1 2.910271 1_565
Te30 Zr1 2.894805 1_565
