# generated using pymatgen
data_Ce2Si2O7
_symmetry_space_group_name_H-M   'P 1'
_cell_length_a   8.82494100
_cell_length_b   5.46591400
_cell_length_c   14.36105501
_cell_angle_alpha   67.75449860
_cell_angle_beta   90.00000000
_cell_angle_gamma   90.00000000
_symmetry_Int_Tables_number   1
_chemical_formula_structural   Ce2Si2O7
_chemical_formula_sum   'Ce8 Si8 O28'
_cell_volume   641.16576991
_cell_formula_units_Z   4
loop_
 _symmetry_equiv_pos_site_id
 _symmetry_equiv_pos_as_xyz
  1  'x, y, z'
loop_
 _atom_site_type_symbol
 _atom_site_label
 _atom_site_symmetry_multiplicity
 _atom_site_fract_x
 _atom_site_fract_y
 _atom_site_fract_z
 _atom_site_occupancy
  Ce  Ce0  1  0.89266500  0.34726900  0.91085100  1
  Ce  Ce1  1  0.69344700  0.02321200  0.73264700  1
  Ce  Ce2  1  0.60733500  0.34726900  0.41085100  1
  Ce  Ce3  1  0.30655300  0.97678800  0.26735300  1
  Ce  Ce4  1  0.10733500  0.65273100  0.08914900  1
  Ce  Ce5  1  0.39266500  0.65273100  0.58914900  1
  Ce  Ce6  1  0.19344700  0.97678800  0.76735300  1
  Ce  Ce7  1  0.80655300  0.02321200  0.23264700  1
  Si  Si0  1  0.49342800  0.41198600  0.82033700  1
  Si  Si1  1  0.25517400  0.29349200  0.47310000  1
  Si  Si2  1  0.00657200  0.41198600  0.32033700  1
  Si  Si3  1  0.75517400  0.70650800  0.02690000  1
  Si  Si4  1  0.99342800  0.58801400  0.67966300  1
  Si  Si5  1  0.50657200  0.58801400  0.17966300  1
  Si  Si6  1  0.74482600  0.70650800  0.52690000  1
  Si  Si7  1  0.24482600  0.29349200  0.97310000  1
  O  O0  1  0.07803100  0.32950400  0.43447100  1
  O  O1  1  0.58212000  0.75782300  0.24155600  1
  O  O2  1  0.35464200  0.57311500  0.42067300  1
  O  O3  1  0.64535800  0.42688500  0.57932700  1
  O  O4  1  0.76690300  0.77219800  0.90599900  1
  O  O5  1  0.08212000  0.24217700  0.25844400  1
  O  O6  1  0.14535800  0.57311500  0.92067300  1
  O  O7  1  0.96578400  0.26989400  0.74655000  1
  O  O8  1  0.57803100  0.67049600  0.06552900  1
  O  O9  1  0.41788000  0.24217700  0.75844400  1
  O  O10  1  0.23309700  0.22780200  0.09400100  1
  O  O11  1  0.67349000  0.33423400  0.82693400  1
  O  O12  1  0.65391500  0.92847500  0.55894500  1
  O  O13  1  0.85464200  0.42688500  0.07932700  1
  O  O14  1  0.46578400  0.73010600  0.75345000  1
  O  O15  1  0.53421600  0.26989400  0.24655000  1
  O  O16  1  0.15391500  0.07152500  0.94105500  1
  O  O17  1  0.34608500  0.07152500  0.44105500  1
  O  O18  1  0.92196900  0.67049600  0.56552900  1
  O  O19  1  0.73309700  0.77219800  0.40600000  1
  O  O20  1  0.32651000  0.66576600  0.17306600  1
  O  O21  1  0.17349000  0.66576600  0.67306600  1
  O  O22  1  0.42196900  0.32950400  0.93447100  1
  O  O23  1  0.26690300  0.22780200  0.59400100  1
  O  O24  1  0.82651000  0.33423400  0.32693400  1
  O  O25  1  0.91788000  0.75782300  0.74155600  1
  O  O26  1  0.84608500  0.92847500  0.05894500  1
  O  O27  1  0.03421600  0.73010600  0.25345000  1
loop_
_geom_bond_atom_site_label_1
_geom_bond_atom_site_label_2
_geom_bond_distance
_geom_bond_site_symmetry_2
Ce0 O11 2.294253 1_555
Ce0 O26 2.499202 1_546
Ce0 O4 2.551207 1_555
Ce0 O6 2.578472 1_655
Ce0 O25 2.620185 1_555
Ce0 O7 2.630250 1_555
Ce0 O13 2.636878 1_556
Ce0 O16 2.698182 1_655
Ce1 O25 2.429584 1_545
Ce1 O4 2.431909 1_545
Ce1 O3 2.493623 1_555
Ce1 O14 2.515967 1_545
Ce1 O11 2.549015 1_555
Ce1 O12 2.755112 1_545
Ce1 O9 2.796312 1_555
Ce1 O7 2.799617 1_555
Ce2 O24 2.294253 1_555
Ce2 O12 2.499202 1_545
Ce2 O19 2.551211 1_555
Ce2 O2 2.578472 1_555
Ce2 O1 2.620185 1_555
Ce2 O15 2.630250 1_555
Ce2 O3 2.636878 1_555
Ce2 O17 2.698182 1_555
Ce3 O5 2.429584 1_565
Ce3 O10 2.431909 1_565
Ce3 O2 2.493623 1_555
Ce3 O15 2.515967 1_565
Ce3 O20 2.549015 1_555
Ce3 O17 2.755112 1_565
Ce3 O1 2.796312 1_555
Ce3 O27 2.799617 1_555
Ce4 O20 2.294253 1_555
Ce4 O16 2.499202 1_564
Ce4 O10 2.551207 1_555
Ce4 O13 2.578472 1_455
Ce4 O5 2.620185 1_555
Ce4 O27 2.630250 1_555
Ce4 O6 2.636878 1_554
Ce4 O26 2.698182 1_455
Ce5 O21 2.294253 1_555
Ce5 O17 2.499202 1_565
Ce5 O23 2.551207 1_555
Ce5 O3 2.578472 1_555
Ce5 O9 2.620185 1_555
Ce5 O14 2.630250 1_555
Ce5 O2 2.636878 1_555
Ce5 O12 2.698182 1_555
Ce6 O9 2.429584 1_565
Ce6 O23 2.431909 1_565
Ce6 O6 2.493623 1_555
Ce6 O7 2.515967 1_465
Ce6 O21 2.549015 1_555
Ce6 O16 2.755112 1_565
Ce6 O25 2.796312 1_455
Ce6 O14 2.799617 1_555
Ce7 O1 2.429584 1_545
Ce7 O19 2.431920 1_545
Ce7 O13 2.493623 1_555
Ce7 O27 2.515967 1_645
Ce7 O24 2.549015 1_555
Ce7 O26 2.755112 1_545
Ce7 O5 2.796312 1_655
Ce7 O15 2.799617 1_555
O0 Si1 1.645494 1_555
O0 Si2 1.651675 1_555
O1 Si5 1.649448 1_555
O2 Si1 1.673950 1_555
O3 Si6 1.673950 1_555
O4 Si3 1.637753 1_556
O5 Si2 1.649448 1_555
O6 Si7 1.673950 1_555
O7 Si4 1.655613 1_555
O8 Si3 1.645494 1_555
O8 Si5 1.651675 1_555
O9 Si0 1.649448 1_555
O10 Si7 1.637753 1_554
O11 Si0 1.638335 1_555
O12 Si6 1.658365 1_555
O13 Si3 1.673950 1_555
O14 Si0 1.655613 1_555
O15 Si5 1.655613 1_555
O16 Si7 1.658365 1_555
O17 Si1 1.658365 1_555
O18 Si6 1.645494 1_555
O18 Si4 1.651675 1_555
O19 Si6 1.637738 1_555
O20 Si5 1.638335 1_555
O21 Si4 1.638335 1_455
O22 Si7 1.645494 1_555
O22 Si0 1.651675 1_555
O23 Si1 1.637753 1_555
O24 Si2 1.638335 1_655
O25 Si4 1.649448 1_555
O26 Si3 1.658365 1_555
O27 Si2 1.655613 1_555
