# generated using pymatgen
data_Fe3O4
_symmetry_space_group_name_H-M   'P 1'
_cell_length_a   6.06196000
_cell_length_b   6.08553000
_cell_length_c   17.16227600
_cell_angle_alpha   90.00000000
_cell_angle_beta   90.00000000
_cell_angle_gamma   90.00000000
_symmetry_Int_Tables_number   1
_chemical_formula_structural   Fe3O4
_chemical_formula_sum   'Fe24 O32'
_cell_volume   633.12047095
_cell_formula_units_Z   8
loop_
 _symmetry_equiv_pos_site_id
 _symmetry_equiv_pos_as_xyz
  1  'x, y, z'
loop_
 _atom_site_type_symbol
 _atom_site_label
 _atom_site_symmetry_multiplicity
 _atom_site_fract_x
 _atom_site_fract_y
 _atom_site_fract_z
 _atom_site_occupancy
  Fe  Fe0  1  0.25000000  0.74420900  0.87653700  1
  Fe  Fe1  1  0.75000000  0.24856700  0.62213100  1
  Fe  Fe2  1  0.75000000  0.48840600  0.81161100  1
  Fe  Fe3  1  0.25000000  0.99722700  0.06363000  1
  Fe  Fe4  1  0.75000000  0.51159400  0.31161100  1
  Fe  Fe5  1  0.50000000  0.00879900  0.25000000  1
  Fe  Fe6  1  0.25000000  0.48840600  0.68838900  1
  Fe  Fe7  1  0.25000000  0.25579100  0.37653700  1
  Fe  Fe8  1  0.75000000  0.74420900  0.62346300  1
  Fe  Fe9  1  0.50000000  0.99120100  0.75000000  1
  Fe  Fe10  1  0.25000000  0.75143300  0.37786900  1
  Fe  Fe11  1  0.25000000  0.24856700  0.87786900  1
  Fe  Fe12  1  0.75000000  0.75143300  0.12213100  1
  Fe  Fe13  1  0.00000000  0.99120100  0.75000000  1
  Fe  Fe14  1  0.50000000  0.50000000  0.50000000  1
  Fe  Fe15  1  0.75000000  0.25579100  0.12346300  1
  Fe  Fe16  1  0.25000000  0.51159400  0.18838900  1
  Fe  Fe17  1  0.75000000  0.99722700  0.43637000  1
  Fe  Fe18  1  0.75000000  0.00277300  0.93637000  1
  Fe  Fe19  1  0.00000000  0.00879900  0.25000000  1
  Fe  Fe20  1  0.00000000  0.50000000  0.00000000  1
  Fe  Fe21  1  0.25000000  0.00277300  0.56363000  1
  Fe  Fe22  1  0.00000000  0.50000000  0.50000000  1
  Fe  Fe23  1  0.50000000  0.50000000  0.00000000  1
  O  O0  1  0.51414300  0.48615200  0.62741600  1
  O  O1  1  0.01234300  0.00383500  0.86905600  1
  O  O2  1  0.25000000  0.23766600  0.24887200  1
  O  O3  1  0.75000000  0.74318500  0.50120700  1
  O  O4  1  0.98585700  0.48615200  0.62741600  1
  O  O5  1  0.48585700  0.48615200  0.87258400  1
  O  O6  1  0.48585700  0.51384800  0.37258400  1
  O  O7  1  0.48765700  0.99616500  0.36905600  1
  O  O8  1  0.75000000  0.75350600  0.00502200  1
  O  O9  1  0.75000000  0.25681500  0.00120700  1
  O  O10  1  0.25000000  0.76233400  0.74887200  1
  O  O11  1  0.25000000  0.74318500  0.99879300  1
  O  O12  1  0.98765700  0.99616500  0.13094400  1
  O  O13  1  0.75000000  0.76233400  0.75112800  1
  O  O14  1  0.75000000  0.24649400  0.50502200  1
  O  O15  1  0.75000000  0.22328000  0.74514500  1
  O  O16  1  0.75000000  0.77672000  0.24514500  1
  O  O17  1  0.48765700  0.00383500  0.86905600  1
  O  O18  1  0.25000000  0.77672000  0.25485500  1
  O  O19  1  0.51414300  0.51384800  0.12741600  1
  O  O20  1  0.98765700  0.00383500  0.63094400  1
  O  O21  1  0.25000000  0.24649400  0.99497800  1
  O  O22  1  0.98585700  0.51384800  0.12741600  1
  O  O23  1  0.25000000  0.25681500  0.49879300  1
  O  O24  1  0.25000000  0.75350600  0.49497800  1
  O  O25  1  0.51234300  0.99616500  0.13094400  1
  O  O26  1  0.75000000  0.23766600  0.25112800  1
  O  O27  1  0.01414300  0.48615200  0.87258400  1
  O  O28  1  0.01234300  0.99616500  0.36905600  1
  O  O29  1  0.51234300  0.00383500  0.63094400  1
  O  O30  1  0.25000000  0.22328000  0.75485500  1
  O  O31  1  0.01414300  0.51384800  0.37258400  1
loop_
_geom_bond_atom_site_label_1
_geom_bond_atom_site_label_2
_geom_bond_distance
_geom_bond_site_symmetry_2
Fe0 O11 2.098200 1_555
Fe0 O5 2.124854 1_555
Fe0 O27 2.124854 1_555
Fe0 O1 2.142028 1_565
Fe0 O17 2.142028 1_565
Fe0 O10 2.193797 1_555
Fe1 O14 2.009897 1_555
Fe1 O0 2.035400 1_555
Fe1 O4 2.035400 1_555
Fe1 O20 2.077615 1_555
Fe1 O29 2.077615 1_555
Fe1 O15 2.116801 1_555
Fe2 O5 1.912886 1_555
Fe2 O27 1.912886 1_655
Fe2 O13 1.963766 1_555
Fe2 O15 1.975950 1_555
Fe3 O11 1.904801 1_554
Fe3 O21 1.920746 1_564
Fe3 O25 1.965646 1_555
Fe3 O12 1.965646 1_455
Fe4 O31 1.912886 1_655
Fe4 O6 1.912886 1_555
Fe4 O26 1.963766 1_555
Fe4 O16 1.975950 1_555
Fe5 O25 2.046086 1_545
Fe5 O7 2.046086 1_545
Fe5 O2 2.058376 1_555
Fe5 O26 2.058376 1_555
Fe5 O16 2.073237 1_545
Fe5 O18 2.073237 1_545
Fe6 O4 1.912886 1_455
Fe6 O0 1.912886 1_555
Fe6 O10 1.963766 1_555
Fe6 O30 1.975950 1_555
Fe7 O23 2.098200 1_555
Fe7 O6 2.124854 1_555
Fe7 O31 2.124854 1_555
Fe7 O28 2.142028 1_545
Fe7 O7 2.142028 1_545
Fe7 O2 2.193797 1_555
Fe8 O3 2.098200 1_555
Fe8 O4 2.124854 1_555
Fe8 O0 2.124854 1_555
Fe8 O29 2.142028 1_565
Fe8 O20 2.142028 1_565
Fe8 O13 2.193797 1_555
Fe9 O29 2.046086 1_565
Fe9 O17 2.046086 1_565
Fe9 O13 2.058376 1_555
Fe9 O10 2.058376 1_555
Fe9 O30 2.073237 1_565
Fe9 O15 2.073237 1_565
Fe10 O24 2.009897 1_555
Fe10 O6 2.035400 1_555
Fe10 O31 2.035400 1_555
Fe10 O7 2.077615 1_555
Fe10 O28 2.077615 1_555
Fe10 O18 2.116801 1_555
Fe11 O21 2.009897 1_555
Fe11 O27 2.035400 1_555
Fe11 O5 2.035400 1_555
Fe11 O17 2.077615 1_555
Fe11 O1 2.077615 1_555
Fe11 O30 2.116801 1_555
Fe12 O8 2.009897 1_555
Fe12 O22 2.035400 1_555
Fe12 O19 2.035400 1_555
Fe12 O25 2.077615 1_555
Fe12 O12 2.077615 1_555
Fe12 O16 2.116801 1_555
Fe13 O1 2.046086 1_565
Fe13 O20 2.046086 1_465
Fe13 O13 2.058376 1_455
Fe13 O10 2.058376 1_555
Fe13 O15 2.073237 1_465
Fe13 O30 2.073237 1_565
Fe14 O3 2.118318 1_555
Fe14 O23 2.118318 1_555
Fe14 O24 2.164282 1_555
Fe14 O14 2.164282 1_555
Fe14 O6 2.190051 1_555
Fe14 O0 2.190051 1_555
Fe15 O9 2.098200 1_555
Fe15 O22 2.124854 1_555
Fe15 O19 2.124854 1_555
Fe15 O12 2.142028 1_545
Fe15 O25 2.142028 1_545
Fe15 O26 2.193797 1_555
Fe16 O19 1.912886 1_555
Fe16 O22 1.912886 1_455
Fe16 O2 1.963766 1_555
Fe16 O18 1.975950 1_555
Fe17 O3 1.904801 1_555
Fe17 O14 1.920746 1_565
Fe17 O28 1.965646 1_655
Fe17 O7 1.965646 1_555
Fe18 O9 1.904801 1_556
Fe18 O8 1.920746 1_546
Fe18 O1 1.965646 1_655
Fe18 O17 1.965646 1_555
Fe19 O12 2.046086 1_445
Fe19 O28 2.046086 1_545
Fe19 O2 2.058376 1_555
Fe19 O26 2.058376 1_455
Fe19 O18 2.073237 1_545
Fe19 O16 2.073237 1_445
Fe20 O11 2.118318 1_554
Fe20 O9 2.118318 1_455
Fe20 O8 2.164282 1_455
Fe20 O21 2.164282 1_554
Fe20 O27 2.190051 1_554
Fe20 O22 2.190051 1_455
Fe21 O23 1.904801 1_555
Fe21 O24 1.920746 1_545
Fe21 O20 1.965646 1_455
Fe21 O29 1.965646 1_555
Fe22 O3 2.118318 1_455
Fe22 O23 2.118318 1_555
Fe22 O14 2.164282 1_455
Fe22 O24 2.164282 1_555
Fe22 O31 2.190051 1_555
Fe22 O4 2.190051 1_455
Fe23 O11 2.118318 1_554
Fe23 O9 2.118318 1_555
Fe23 O8 2.164282 1_555
Fe23 O21 2.164282 1_554
Fe23 O5 2.190051 1_554
Fe23 O19 2.190051 1_555
