# generated using pymatgen
data_Nd2(MoO4)3
_symmetry_space_group_name_H-M   'P 1'
_cell_length_a   6.93176007
_cell_length_b   6.93176007
_cell_length_c   11.82363065
_cell_angle_alpha   80.21265085
_cell_angle_beta   80.21265085
_cell_angle_gamma   114.36751309
_symmetry_Int_Tables_number   1
_chemical_formula_structural   Nd2(MoO4)3
_chemical_formula_sum   'Nd4 Mo6 O24'
_cell_volume   491.39056822
_cell_formula_units_Z   2
loop_
 _symmetry_equiv_pos_site_id
 _symmetry_equiv_pos_as_xyz
  1  'x, y, z'
loop_
 _atom_site_type_symbol
 _atom_site_label
 _atom_site_symmetry_multiplicity
 _atom_site_fract_x
 _atom_site_fract_y
 _atom_site_fract_z
 _atom_site_occupancy
  Nd  Nd0  1  0.79219457  0.54457852  0.41020397  1
  Nd  Nd1  1  0.45542148  0.20780543  0.08979603  1
  Nd  Nd2  1  0.20780543  0.45542148  0.58979603  1
  Nd  Nd3  1  0.54457852  0.79219457  0.91020397  1
  Mo  Mo0  1  0.37347829  0.62652171  0.25000000  1
  Mo  Mo1  1  0.03635842  0.28516702  0.92663873  1
  Mo  Mo2  1  0.62652171  0.37347829  0.75000000  1
  Mo  Mo3  1  0.71483298  0.96364158  0.57336127  1
  Mo  Mo4  1  0.28516702  0.03635842  0.42663873  1
  Mo  Mo5  1  0.96364158  0.71483298  0.07336127  1
  O  O0  1  0.17209166  0.58231415  0.38364529  1
  O  O1  1  0.62650959  0.70327487  0.28217673  1
  O  O2  1  0.41768585  0.82790834  0.11635471  1
  O  O3  1  0.07229873  0.97786913  0.09868350  1
  O  O4  1  0.83714565  0.28096522  0.04162569  1
  O  O5  1  0.92770127  0.02213087  0.90131650  1
  O  O6  1  0.30605725  0.39191648  0.95623450  1
  O  O7  1  0.06229885  0.45676616  0.79099118  1
  O  O8  1  0.58231415  0.17209166  0.88364529  1
  O  O9  1  0.37349041  0.29672513  0.71782327  1
  O  O10  1  0.70327487  0.62650959  0.78217673  1
  O  O11  1  0.54323384  0.93770115  0.70900882  1
  O  O12  1  0.82790834  0.41768585  0.61635471  1
  O  O13  1  0.60808352  0.69394275  0.54376550  1
  O  O14  1  0.97786913  0.07229873  0.59868350  1
  O  O15  1  0.71903478  0.16285435  0.45837431  1
  O  O16  1  0.28096522  0.83714565  0.54162569  1
  O  O17  1  0.02213087  0.92770127  0.40131650  1
  O  O18  1  0.39191648  0.30605725  0.45623450  1
  O  O19  1  0.45676616  0.06229885  0.29099118  1
  O  O20  1  0.29672513  0.37349041  0.21782327  1
  O  O21  1  0.93770115  0.54323384  0.20900882  1
  O  O22  1  0.69394275  0.60808352  0.04376550  1
  O  O23  1  0.16285435  0.71903478  0.95837431  1
loop_
_geom_bond_atom_site_label_1
_geom_bond_atom_site_label_2
_geom_bond_distance
_geom_bond_site_symmetry_2
Nd0 O15 2.421806 1_555
Nd0 O21 2.424028 1_555
Nd0 O1 2.426521 1_555
Nd0 O17 2.441229 1_655
Nd0 O18 2.474590 1_555
Nd0 O13 2.481032 1_555
Nd0 O0 2.494820 1_655
Nd0 O12 2.536149 1_555
Nd1 O4 2.421806 1_555
Nd1 O19 2.424028 1_555
Nd1 O20 2.426521 1_555
Nd1 O3 2.441229 1_545
Nd1 O22 2.474590 1_555
Nd1 O6 2.481032 1_554
Nd1 O2 2.494820 1_545
Nd1 O8 2.536149 1_554
Nd2 O16 2.421806 1_555
Nd2 O7 2.424028 1_555
Nd2 O9 2.426521 1_555
Nd2 O14 2.441229 1_455
Nd2 O13 2.474590 1_555
Nd2 O18 2.481032 1_555
Nd2 O12 2.494820 1_455
Nd2 O0 2.536149 1_555
Nd3 O23 2.421806 1_555
Nd3 O11 2.424028 1_555
Nd3 O10 2.426521 1_555
Nd3 O5 2.441229 1_565
Nd3 O6 2.474590 1_555
Nd3 O22 2.481032 1_556
Nd3 O8 2.494820 1_565
Nd3 O2 2.536149 1_556
Mo0 O1 1.740634 1_555
Mo0 O20 1.740634 1_555
Mo0 O2 1.808864 1_555
Mo0 O0 1.808864 1_555
Mo1 O4 1.752481 1_456
Mo1 O7 1.759654 1_555
Mo1 O5 1.763640 1_455
Mo1 O6 1.825902 1_555
Mo2 O10 1.740634 1_555
Mo2 O9 1.740634 1_555
Mo2 O8 1.808864 1_555
Mo2 O12 1.808864 1_555
Mo3 O15 1.752481 1_565
Mo3 O11 1.759654 1_555
Mo3 O14 1.763640 1_565
Mo3 O13 1.825902 1_555
Mo4 O16 1.752481 1_545
Mo4 O19 1.759654 1_555
Mo4 O17 1.763640 1_545
Mo4 O18 1.825902 1_555
Mo5 O23 1.752481 1_654
Mo5 O21 1.759654 1_555
Mo5 O3 1.763640 1_655
Mo5 O22 1.825902 1_555
