# generated using pymatgen
data_LiAl(SiO3)2
_symmetry_space_group_name_H-M   'P 1'
_cell_length_a   6.40997695
_cell_length_b   6.40997695
_cell_length_c   5.27498514
_cell_angle_alpha   74.67612941
_cell_angle_beta   74.67612941
_cell_angle_gamma   82.73736376
_symmetry_Int_Tables_number   1
_chemical_formula_structural   LiAl(SiO3)2
_chemical_formula_sum   'Li2 Al2 Si4 O12'
_cell_volume   201.22707525
_cell_formula_units_Z   2
loop_
 _symmetry_equiv_pos_site_id
 _symmetry_equiv_pos_as_xyz
  1  'x, y, z'
loop_
 _atom_site_type_symbol
 _atom_site_label
 _atom_site_symmetry_multiplicity
 _atom_site_fract_x
 _atom_site_fract_y
 _atom_site_fract_z
 _atom_site_occupancy
  Li  Li0  1  0.27050000  0.72950000  0.75000000  1
  Li  Li1  1  0.72950000  0.27050000  0.25000000  1
  Al  Al0  1  0.90547000  0.09453000  0.75000000  1
  Al  Al1  1  0.09453000  0.90547000  0.25000000  1
  Si  Si0  1  0.80004400  0.61327700  0.75797700  1
  Si  Si1  1  0.38672300  0.19995600  0.74202300  1
  Si  Si2  1  0.19995600  0.38672300  0.24202300  1
  Si  Si3  1  0.61327700  0.80004400  0.25797700  1
  O  O0  1  0.97387200  0.80792700  0.64095900  1
  O  O1  1  0.19207300  0.02612800  0.85904100  1
  O  O2  1  0.02612800  0.19207300  0.35904100  1
  O  O3  1  0.80792700  0.97387200  0.14095900  1
  O  O4  1  0.90039100  0.36790100  0.79985000  1
  O  O5  1  0.63209900  0.09960900  0.70015000  1
  O  O6  1  0.09960900  0.63209900  0.20015000  1
  O  O7  1  0.36790100  0.90039100  0.29985000  1
  O  O8  1  0.62746400  0.66257400  0.56483100  1
  O  O9  1  0.33742600  0.37253600  0.93516900  1
  O  O10  1  0.37253600  0.33742600  0.43516900  1
  O  O11  1  0.66257400  0.62746400  0.06483100  1
loop_
_geom_bond_atom_site_label_1
_geom_bond_atom_site_label_2
_geom_bond_distance
_geom_bond_site_symmetry_2
Li0 O1 2.093406 1_565
Li0 O0 2.093406 1_455
Li0 O8 2.272807 1_555
Li0 O9 2.272807 1_555
Li0 O7 2.289686 1_555
Li0 O6 2.289686 1_556
Li1 O2 2.093406 1_655
Li1 O3 2.093406 1_545
Li1 O10 2.272807 1_555
Li1 O11 2.272807 1_555
Li1 O4 2.289686 1_554
Li1 O5 2.289686 1_555
Al0 O4 1.834493 1_555
Al0 O5 1.834493 1_555
Al0 O2 1.959561 1_655
Al0 O3 1.959561 1_546
Al0 O1 2.029692 1_655
Al0 O0 2.029692 1_545
Al1 O7 1.834493 1_555
Al1 O6 1.834493 1_555
Al1 O1 1.959561 1_564
Al1 O0 1.959561 1_455
Al1 O2 2.029692 1_565
Al1 O3 2.029692 1_455
O0 Si0 1.661385 1_555
O1 Si1 1.661385 1_555
O2 Si2 1.661385 1_555
O3 Si3 1.661385 1_555
O4 Si0 1.603768 1_555
O5 Si1 1.603768 1_555
O6 Si2 1.603768 1_555
O7 Si3 1.603768 1_555
O8 Si0 1.642807 1_555
O8 Si3 1.645732 1_555
O9 Si1 1.642807 1_555
O9 Si2 1.645732 1_556
O10 Si2 1.642807 1_555
O10 Si1 1.645732 1_555
O11 Si3 1.642807 1_555
O11 Si0 1.645732 1_554
