# generated using pymatgen
data_SiO2
_symmetry_space_group_name_H-M   'P 1'
_cell_length_a   14.62804331
_cell_length_b   14.62804331
_cell_length_c   14.62804331
_cell_angle_alpha   124.67429540
_cell_angle_beta   124.67429540
_cell_angle_gamma   82.07820875
_symmetry_Int_Tables_number   1
_chemical_formula_structural   SiO2
_chemical_formula_sum   'Si28 O56'
_cell_volume   2035.53253420
_cell_formula_units_Z   28
loop_
 _symmetry_equiv_pos_site_id
 _symmetry_equiv_pos_as_xyz
  1  'x, y, z'
loop_
 _atom_site_type_symbol
 _atom_site_label
 _atom_site_symmetry_multiplicity
 _atom_site_fract_x
 _atom_site_fract_y
 _atom_site_fract_z
 _atom_site_occupancy
  Si  Si0  1  0.99972800  0.00050300  0.22547100  1
  Si  Si1  1  0.99949700  0.22496900  0.99922500  1
  Si  Si2  1  0.22574300  0.00027200  0.00077500  1
  Si  Si3  1  0.77503100  0.77425700  0.77452900  1
  Si  Si4  1  0.99949700  0.00027200  0.77452900  1
  Si  Si5  1  0.22574300  0.22496900  0.22547100  1
  Si  Si6  1  0.77503100  0.00050300  0.00077500  1
  Si  Si7  1  0.99972800  0.77425700  0.99922500  1
  Si  Si8  1  0.32271200  0.05086700  0.50120100  1
  Si  Si9  1  0.94913300  0.45033400  0.27184500  1
  Si  Si10  1  0.17848900  0.67728800  0.72815500  1
  Si  Si11  1  0.54966600  0.82151100  0.49879900  1
  Si  Si12  1  0.94913300  0.67728800  0.49879900  1
  Si  Si13  1  0.17848900  0.45033400  0.50120100  1
  Si  Si14  1  0.54966600  0.05086700  0.72815500  1
  Si  Si15  1  0.32271200  0.82151100  0.27184500  1
  Si  Si16  1  0.10448900  0.69361600  0.17823500  1
  Si  Si17  1  0.30638400  0.48461900  0.41087200  1
  Si  Si18  1  0.07374700  0.89551100  0.58912800  1
  Si  Si19  1  0.51538100  0.92625300  0.82176500  1
  Si  Si20  1  0.30638400  0.89551100  0.82176500  1
  Si  Si21  1  0.07374700  0.48461900  0.17823500  1
  Si  Si22  1  0.51538100  0.69361600  0.58912800  1
  Si  Si23  1  0.10448900  0.92625300  0.41087200  1
  Si  Si24  1  0.79683600  0.79683600  0.59367200  1
  Si  Si25  1  0.20316400  0.79683600  0.00000000  1
  Si  Si26  1  0.79683600  0.20316400  0.00000000  1
  Si  Si27  1  0.20316400  0.20316400  0.40632800  1
  O  O0  1  0.01945300  0.98410900  0.33586900  1
  O  O1  1  0.01589100  0.35176100  0.03534400  1
  O  O2  1  0.31641600  0.98054700  0.96465600  1
  O  O3  1  0.64823900  0.68358400  0.66413100  1
  O  O4  1  0.01589100  0.98054700  0.66413100  1
  O  O5  1  0.31641600  0.35176100  0.33586900  1
  O  O6  1  0.64823900  0.98410900  0.96465600  1
  O  O7  1  0.01945300  0.68358400  0.03534400  1
  O  O8  1  0.06905300  0.13045800  0.30748700  1
  O  O9  1  0.86954200  0.17702900  0.93859500  1
  O  O10  1  0.23843400  0.93094700  0.06140500  1
  O  O11  1  0.82297100  0.76156600  0.69251300  1
  O  O12  1  0.86954200  0.93094700  0.69251300  1
  O  O13  1  0.23843400  0.17702900  0.30748700  1
  O  O14  1  0.82297100  0.13045800  0.06140500  1
  O  O15  1  0.06905300  0.76156600  0.93859500  1
  O  O16  1  0.76584800  0.90695400  0.85889400  1
  O  O17  1  0.09304600  0.95193900  0.85889400  1
  O  O18  1  0.09304600  0.23415200  0.14110600  1
  O  O19  1  0.04806100  0.90695400  0.14110600  1
  O  O20  1  0.86258600  0.97884200  0.11625500  1
  O  O21  1  0.02115800  0.13741400  0.88374500  1
  O  O22  1  0.25366900  0.13741400  0.11625500  1
  O  O23  1  0.86258600  0.74633100  0.88374500  1
  O  O24  1  0.49993000  0.79277000  0.70716000  1
  O  O25  1  0.20723000  0.91439100  0.70716000  1
  O  O26  1  0.20723000  0.50007000  0.29284000  1
  O  O27  1  0.08560900  0.79277000  0.29284000  1
  O  O28  1  0.23892900  0.99976800  0.51147000  1
  O  O29  1  0.00023200  0.51170200  0.23916100  1
  O  O30  1  0.27254100  0.76107100  0.76083900  1
  O  O31  1  0.48829800  0.72745900  0.48853000  1
  O  O32  1  0.00023200  0.76107100  0.48853000  1
  O  O33  1  0.27254100  0.51170200  0.51147000  1
  O  O34  1  0.48829800  0.99976800  0.76083900  1
  O  O35  1  0.23892900  0.72745900  0.23916100  1
  O  O36  1  0.42919600  0.92919600  0.85839200  1
  O  O37  1  0.07080400  0.92919600  0.50000000  1
  O  O38  1  0.42919600  0.57080400  0.50000000  1
  O  O39  1  0.07080400  0.57080400  0.14160800  1
  O  O40  1  0.28835600  0.16232700  0.50283200  1
  O  O41  1  0.83767300  0.34050500  0.12602900  1
  O  O42  1  0.21447600  0.71164400  0.87397100  1
  O  O43  1  0.65949500  0.78552400  0.49716800  1
  O  O44  1  0.83767300  0.71164400  0.49716800  1
  O  O45  1  0.21447600  0.34050500  0.50283200  1
  O  O46  1  0.65949500  0.16232700  0.87397100  1
  O  O47  1  0.28835600  0.78552400  0.12602900  1
  O  O48  1  0.59340200  0.95033200  0.64307000  1
  O  O49  1  0.04966800  0.69273800  0.64307000  1
  O  O50  1  0.04966800  0.40659800  0.35693000  1
  O  O51  1  0.30726200  0.95033200  0.35693000  1
  O  O52  1  0.45615300  0.09063000  0.63447700  1
  O  O53  1  0.90937000  0.54384700  0.36552300  1
  O  O54  1  0.17832500  0.54384700  0.63447700  1
  O  O55  1  0.45615300  0.82167500  0.36552300  1
loop_
_geom_bond_atom_site_label_1
_geom_bond_atom_site_label_2
_geom_bond_distance
_geom_bond_site_symmetry_2
O0 Si0 1.624833 1_465
O0 Si23 1.637311 1_555
O1 Si1 1.624833 1_454
O1 Si21 1.637298 1_555
O2 Si2 1.624833 1_566
O2 Si20 1.637307 1_555
O3 Si3 1.624833 1_555
O3 Si22 1.637295 1_555
O4 Si4 1.624833 1_465
O4 Si18 1.637311 1_555
O5 Si5 1.624833 1_555
O5 Si17 1.637295 1_555
O6 Si6 1.624833 1_566
O6 Si19 1.637298 1_555
O7 Si7 1.624833 1_454
O7 Si16 1.637307 1_555
O8 Si0 1.622820 1_455
O8 Si27 1.633490 1_555
O9 Si1 1.622825 1_555
O9 Si26 1.633490 1_556
O10 Si2 1.622820 1_565
O10 Si25 1.633490 1_555
O11 Si3 1.622833 1_555
O11 Si24 1.633490 1_555
O12 Si4 1.622820 1_565
O12 Si24 1.633490 1_555
O13 Si5 1.622833 1_555
O13 Si27 1.633490 1_555
O14 Si6 1.622825 1_555
O14 Si26 1.633490 1_555
O15 Si7 1.622820 1_455
O15 Si25 1.633490 1_556
O16 Si3 1.643166 1_555
O16 Si6 1.643179 1_566
O17 Si2 1.643169 1_566
O17 Si4 1.643182 1_465
O18 Si5 1.643166 1_555
O18 Si1 1.643179 1_454
O19 Si7 1.643169 1_454
O19 Si0 1.643182 1_465
O20 Si6 1.621653 1_565
O20 Si0 1.621663 1_565
O21 Si1 1.621653 1_455
O21 Si4 1.621663 1_455
O22 Si2 1.621661 1_555
O22 Si5 1.621663 1_555
O23 Si7 1.621661 1_555
O23 Si3 1.621663 1_555
O24 Si19 1.624849 1_555
O24 Si22 1.624849 1_555
O25 Si18 1.624841 1_555
O25 Si20 1.624868 1_555
O26 Si21 1.624849 1_555
O26 Si17 1.624849 1_555
O27 Si23 1.624841 1_555
O27 Si16 1.624868 1_555
O28 Si8 1.634957 1_565
O28 Si23 1.636756 1_555
O29 Si9 1.634957 1_455
O29 Si21 1.636767 1_555
O30 Si10 1.634957 1_555
O30 Si20 1.636754 1_555
O31 Si11 1.634957 1_555
O31 Si22 1.636767 1_555
O32 Si12 1.634957 1_455
O32 Si18 1.636756 1_555
O33 Si13 1.634957 1_555
O33 Si17 1.636767 1_555
O34 Si14 1.634957 1_565
O34 Si19 1.636767 1_555
O35 Si15 1.634957 1_555
O35 Si16 1.636754 1_555
O36 Si19 1.614213 1_555
O36 Si20 1.614217 1_555
O37 Si23 1.614224 1_555
O37 Si18 1.614224 1_555
O38 Si17 1.614213 1_555
O38 Si22 1.614213 1_555
O39 Si21 1.614213 1_555
O39 Si16 1.614217 1_555
O40 Si8 1.629417 1_555
O40 Si27 1.629503 1_555
O41 Si9 1.629417 1_555
O41 Si26 1.629503 1_555
O42 Si10 1.629417 1_555
O42 Si25 1.629503 1_556
O43 Si11 1.629417 1_555
O43 Si24 1.629503 1_555
O44 Si12 1.629417 1_555
O44 Si24 1.629503 1_555
O45 Si13 1.629417 1_555
O45 Si27 1.629503 1_555
O46 Si14 1.629417 1_555
O46 Si26 1.629503 1_556
O47 Si15 1.629417 1_555
O47 Si25 1.629503 1_555
O48 Si14 1.638653 1_565
O48 Si11 1.638653 1_555
O49 Si10 1.638653 1_555
O49 Si12 1.638653 1_455
O50 Si13 1.638653 1_555
O50 Si9 1.638653 1_455
O51 Si15 1.638653 1_555
O51 Si8 1.638653 1_565
O52 Si8 1.625442 1_555
O52 Si14 1.625442 1_555
O53 Si9 1.625442 1_555
O53 Si12 1.625442 1_555
O54 Si13 1.625434 1_555
O54 Si10 1.625447 1_555
O55 Si11 1.625434 1_555
O55 Si15 1.625447 1_555
