# generated using pymatgen
data_KTiPO5
_symmetry_space_group_name_H-M   'P 1'
_cell_length_a   6.40239156
_cell_length_b   10.55570413
_cell_length_c   12.79900886
_cell_angle_alpha   90.00000000
_cell_angle_beta   90.00000000
_cell_angle_gamma   90.00000000
_symmetry_Int_Tables_number   1
_chemical_formula_structural   KTiPO5
_chemical_formula_sum   'K8 Ti8 P8 O40'
_cell_volume   864.97943023
_cell_formula_units_Z   8
loop_
 _symmetry_equiv_pos_site_id
 _symmetry_equiv_pos_as_xyz
  1  'x, y, z'
loop_
 _atom_site_type_symbol
 _atom_site_label
 _atom_site_symmetry_multiplicity
 _atom_site_fract_x
 _atom_site_fract_y
 _atom_site_fract_z
 _atom_site_occupancy
  K  K0  1  0.19773063  0.56340274  0.60694378  1
  K  K1  1  0.22135289  0.80941941  0.37548806  1
  K  K2  1  0.72135289  0.30941941  0.12451194  1
  K  K3  1  0.27864711  0.80941941  0.87548806  1
  K  K4  1  0.77864711  0.30941941  0.62451194  1
  K  K5  1  0.69773063  0.06340274  0.89305622  1
  K  K6  1  0.30226937  0.56340274  0.10694378  1
  K  K7  1  0.80226937  0.06340274  0.39305622  1
  Ti  Ti0  1  0.76041745  0.75679964  0.74595264  1
  Ti  Ti1  1  0.23958255  0.25679964  0.25404736  1
  Ti  Ti2  1  0.73958255  0.75679964  0.24595264  1
  Ti  Ti3  1  0.26041745  0.25679964  0.75404736  1
  Ti  Ti4  1  0.99910367  0.50712475  0.87211076  1
  Ti  Ti5  1  0.00089633  0.00712475  0.12788924  1
  Ti  Ti6  1  0.50089633  0.50712475  0.37211076  1
  Ti  Ti7  1  0.49910367  0.00712475  0.62788924  1
  P  P0  1  0.83841933  0.76204609  0.99844466  1
  P  P1  1  0.33841933  0.26204609  0.50155534  1
  P  P2  1  0.66158067  0.76204609  0.49844466  1
  P  P3  1  0.16158067  0.26204609  0.00155534  1
  P  P4  1  0.50297009  0.51284460  0.81970400  1
  P  P5  1  0.49702991  0.01284460  0.18029600  1
  P  P6  1  0.99702991  0.51284460  0.31970400  1
  P  P7  1  0.00297009  0.01284460  0.68029600  1
  O  O0  1  0.96355558  0.89916927  0.75231416  1
  O  O1  1  0.03644442  0.39916927  0.24768584  1
  O  O2  1  0.53644442  0.89916927  0.25231416  1
  O  O3  1  0.46355558  0.39916927  0.74768584  1
  O  O4  1  0.03768485  0.12813182  0.75229726  1
  O  O5  1  0.96231515  0.62813182  0.24770274  1
  O  O6  1  0.46231515  0.12813182  0.25229726  1
  O  O7  1  0.53768485  0.62813182  0.74770274  1
  O  O8  1  0.19357452  0.98726745  0.61184909  1
  O  O9  1  0.80642548  0.48726745  0.38815091  1
  O  O10  1  0.30642548  0.98726745  0.11184909  1
  O  O11  1  0.69357452  0.48726745  0.88815091  1
  O  O12  1  0.81358381  0.04066375  0.61121532  1
  O  O13  1  0.18641619  0.54066375  0.38878468  1
  O  O14  1  0.68641619  0.04066375  0.11121532  1
  O  O15  1  0.69684088  0.74095826  0.09421067  1
  O  O16  1  0.31358381  0.54066375  0.88878468  1
  O  O17  1  0.45231959  0.38830629  0.27570872  1
  O  O18  1  0.95231959  0.88830629  0.22429128  1
  O  O19  1  0.04768041  0.38830629  0.77570872  1
  O  O20  1  0.46597688  0.14213490  0.72329769  1
  O  O21  1  0.53402312  0.64213490  0.27670231  1
  O  O22  1  0.03402312  0.14213490  0.22329769  1
  O  O23  1  0.96597688  0.64213490  0.77670231  1
  O  O24  1  0.48802624  0.15092153  0.51373966  1
  O  O25  1  0.51197376  0.65092153  0.48626034  1
  O  O26  1  0.01197476  0.15092153  0.01373966  1
  O  O27  1  0.98802624  0.65092153  0.98626034  1
  O  O28  1  0.46658757  0.38457723  0.49004905  1
  O  O29  1  0.53341243  0.88457723  0.50995095  1
  O  O30  1  0.03341243  0.38457723  0.99004905  1
  O  O31  1  0.96658757  0.88457723  0.00995095  1
  O  O32  1  0.19930204  0.27997127  0.59852614  1
  O  O33  1  0.80069796  0.77997127  0.40147386  1
  O  O34  1  0.30069796  0.27997127  0.09852614  1
  O  O35  1  0.69930204  0.77997127  0.90147386  1
  O  O36  1  0.19684088  0.24095826  0.40578933  1
  O  O37  1  0.80315912  0.74095826  0.59421067  1
  O  O38  1  0.30315912  0.24095826  0.90578933  1
  O  O39  1  0.54768041  0.88830629  0.72429128  1
loop_
_geom_bond_atom_site_label_1
_geom_bond_atom_site_label_2
_geom_bond_distance
_geom_bond_site_symmetry_2
K0 O25 2.699462 1_555
K0 O23 2.759182 1_455
K0 O13 2.803454 1_555
K0 O7 2.906847 1_555
K0 O28 2.960496 1_555
K0 O32 2.993775 1_555
K0 O19 3.000783 1_555
K0 O3 3.024364 1_555
K0 O37 3.149757 1_455
K1 O18 2.721238 1_455
K1 O2 2.729934 1_555
K1 O33 2.731402 1_455
K1 O29 2.753710 1_555
K1 O13 2.850794 1_555
K1 O25 2.875986 1_555
K1 O21 2.953647 1_555
K1 O5 3.014527 1_455
K2 O17 2.721238 1_555
K2 O1 2.729934 1_655
K2 O34 2.731402 1_555
K2 O30 2.753710 1_654
K2 O14 2.850794 1_555
K2 O26 2.875990 1_655
K2 O22 2.953647 1_655
K2 O6 3.014527 1_555
K3 O39 2.721238 1_555
K3 O0 2.729934 1_455
K3 O35 2.731402 1_555
K3 O31 2.753710 1_456
K3 O16 2.850794 1_555
K3 O27 2.875986 1_455
K3 O23 2.953647 1_455
K3 O7 3.014527 1_555
K4 O19 2.721238 1_655
K4 O3 2.729934 1_555
K4 O32 2.731402 1_655
K4 O28 2.753710 1_555
K4 O12 2.850794 1_555
K4 O24 2.875986 1_555
K4 O20 2.953647 1_555
K4 O4 3.014527 1_655
K5 O26 2.699467 1_656
K5 O20 2.759182 1_555
K5 O14 2.803454 1_556
K5 O4 2.906847 1_655
K5 O31 2.960496 1_546
K5 O35 2.993775 1_545
K5 O39 3.000783 1_545
K5 O0 3.024364 1_545
K5 O38 3.149757 1_555
K6 O27 2.699462 1_454
K6 O21 2.759182 1_555
K6 O16 2.803454 1_554
K6 O5 2.906847 1_455
K6 O30 2.960496 1_554
K6 O34 2.993775 1_555
K6 O17 3.000783 1_555
K6 O1 3.024364 1_555
K6 O15 3.149757 1_555
K7 O24 2.699462 1_555
K7 O22 2.759182 1_655
K7 O12 2.803454 1_555
K7 O6 2.906847 1_555
K7 O29 2.960496 1_545
K7 O33 2.993775 1_545
K7 O18 3.000783 1_545
K7 O2 3.024364 1_545
K7 O36 3.149757 1_655
O0 P7 1.533994 1_665
O0 Ti0 1.989109 1_555
O1 P6 1.533994 1_455
O1 Ti1 1.989109 1_555
O2 P5 1.533994 1_565
O2 Ti2 1.989109 1_555
O3 P4 1.533994 1_555
O3 Ti3 1.989109 1_555
O4 P7 1.542589 1_555
O4 Ti3 1.969439 1_555
O5 P6 1.542589 1_555
O5 Ti2 1.969439 1_555
O6 P5 1.542589 1_555
O6 Ti1 1.969439 1_555
O7 P4 1.542589 1_555
O7 Ti0 1.969439 1_555
O8 P7 1.526287 1_565
O8 Ti7 1.977998 1_565
O9 P6 1.526287 1_555
O9 Ti6 1.977998 1_555
O10 P5 1.526287 1_565
O10 Ti5 1.977998 1_565
O11 P4 1.526287 1_555
O11 Ti4 1.977998 1_555
O12 P7 1.529116 1_655
O12 Ti7 2.055422 1_555
O13 P6 1.529116 1_455
O13 Ti6 2.055422 1_555
O14 P5 1.529116 1_555
O14 Ti5 2.055422 1_655
O15 P0 1.540633 1_554
O15 Ti2 1.968446 1_555
O16 P4 1.529116 1_555
O16 Ti4 2.055422 1_455
O17 Ti6 1.786662 1_555
O17 Ti1 1.964415 1_555
O18 Ti5 1.786662 1_665
O18 Ti2 1.964415 1_555
O19 Ti4 1.786662 1_455
O19 Ti3 1.964415 1_555
O20 Ti3 1.830827 1_555
O20 Ti7 1.888687 1_555
O21 Ti2 1.830827 1_555
O21 Ti6 1.888687 1_555
O22 Ti1 1.830827 1_555
O22 Ti5 1.888687 1_555
O23 Ti0 1.830827 1_555
O23 Ti4 1.888687 1_555
O24 P1 1.522401 1_555
O24 Ti7 2.107962 1_555
O25 P2 1.522401 1_555
O25 Ti6 2.107962 1_555
O26 P3 1.522397 1_555
O26 Ti5 2.107962 1_555
O27 P0 1.522401 1_555
O27 Ti4 2.107962 1_555
O28 P1 1.538810 1_555
O28 Ti6 2.000039 1_555
O29 P2 1.538810 1_555
O29 Ti7 2.000039 1_565
O30 P3 1.538810 1_556
O30 Ti4 2.000039 1_455
O31 P0 1.538810 1_554
O31 Ti5 2.000039 1_665
O32 P1 1.539325 1_555
O32 Ti3 2.043304 1_555
O33 P2 1.539325 1_555
O33 Ti2 2.043304 1_555
O34 P3 1.539325 1_555
O34 Ti1 2.043304 1_555
O35 P0 1.539325 1_555
O35 Ti0 2.043304 1_555
O36 P1 1.540633 1_555
O36 Ti1 1.968446 1_555
O37 P2 1.540633 1_555
O37 Ti0 1.968446 1_555
O38 P3 1.540633 1_556
O38 Ti3 1.968446 1_555
O39 Ti7 1.786662 1_565
O39 Ti0 1.964415 1_555
