# generated using pymatgen
data_K3P2H7O10
_symmetry_space_group_name_H-M   'P 1'
_cell_length_a   10.48250100
_cell_length_b   6.18876200
_cell_length_c   17.06464226
_cell_angle_alpha   89.65172354
_cell_angle_beta   90.00000000
_cell_angle_gamma   90.00000000
_symmetry_Int_Tables_number   1
_chemical_formula_structural   K3P2H7O10
_chemical_formula_sum   'K12 P8 H28 O40'
_cell_volume   1107.02609626
_cell_formula_units_Z   4
loop_
 _symmetry_equiv_pos_site_id
 _symmetry_equiv_pos_as_xyz
  1  'x, y, z'
loop_
 _atom_site_type_symbol
 _atom_site_label
 _atom_site_symmetry_multiplicity
 _atom_site_fract_x
 _atom_site_fract_y
 _atom_site_fract_z
 _atom_site_occupancy
  K  K0  1  0.12568600  0.39960300  0.89450200  1
  K  K1  1  0.62568600  0.60039700  0.60549800  1
  K  K2  1  0.87431400  0.60039700  0.10549800  1
  K  K3  1  0.37431400  0.39960300  0.39450200  1
  K  K4  1  0.98783700  0.65520400  0.69405500  1
  K  K5  1  0.48783700  0.34479600  0.80594500  1
  K  K6  1  0.01216300  0.34479600  0.30594500  1
  K  K7  1  0.51216300  0.65520400  0.19405500  1
  K  K8  1  0.11404500  0.20726400  0.54831900  1
  K  K9  1  0.61404500  0.79273600  0.95168100  1
  K  K10  1  0.88595500  0.79273600  0.45168100  1
  K  K11  1  0.38595500  0.20726400  0.04831900  1
  P  P0  1  0.79654400  0.12591700  0.64828700  1
  P  P1  1  0.29654400  0.87408300  0.85171300  1
  P  P2  1  0.20345600  0.87408300  0.35171300  1
  P  P3  1  0.70345600  0.12591700  0.14828700  1
  P  P4  1  0.85285500  0.16216000  0.82112300  1
  P  P5  1  0.35285500  0.83784000  0.67887700  1
  P  P6  1  0.14714500  0.83784000  0.17887700  1
  P  P7  1  0.64714500  0.16216000  0.32112300  1
  H  H0  1  0.58073400  0.06589100  0.65827300  1
  H  H1  1  0.08073400  0.93410900  0.84172700  1
  H  H2  1  0.41926600  0.93410900  0.34172700  1
  H  H3  1  0.91926600  0.06589100  0.15827300  1
  H  H4  1  0.68786800  0.81246000  0.78610100  1
  H  H5  1  0.18786800  0.18754000  0.71389900  1
  H  H6  1  0.31213200  0.18754000  0.21389900  1
  H  H7  1  0.81213200  0.81246000  0.28610100  1
  H  H8  1  0.74525800  0.57548700  0.78949000  1
  H  H9  1  0.24525800  0.42451300  0.71051000  1
  H  H10  1  0.25474200  0.42451300  0.21051000  1
  H  H11  1  0.75474200  0.57548700  0.28949000  1
  H  H12  1  0.66562500  0.25196200  0.92530500  1
  H  H13  1  0.16562500  0.74803800  0.57469500  1
  H  H14  1  0.33437500  0.74803800  0.07469500  1
  H  H15  1  0.83437500  0.25196200  0.42530500  1
  H  H16  1  0.63687700  0.33165900  0.01381800  1
  H  H17  1  0.13687700  0.66834100  0.48618200  1
  H  H18  1  0.36312300  0.66834100  0.98618200  1
  H  H19  1  0.86312300  0.33165900  0.51381800  1
  H  H20  1  0.90830200  0.80872800  0.92213600  1
  H  H21  1  0.40830200  0.19127200  0.57786400  1
  H  H22  1  0.09169800  0.19127200  0.07786400  1
  H  H23  1  0.59169800  0.80872800  0.42213600  1
  H  H24  1  0.86933600  0.56883400  0.90356700  1
  H  H25  1  0.36933600  0.43116600  0.59643300  1
  H  H26  1  0.13066400  0.43116600  0.09643300  1
  H  H27  1  0.63066400  0.56883400  0.40356700  1
  O  O0  1  0.65244600  0.17663700  0.67123800  1
  O  O1  1  0.15244600  0.82336300  0.82876200  1
  O  O2  1  0.34755400  0.82336300  0.32876200  1
  O  O3  1  0.84755400  0.17663700  0.17123800  1
  O  O4  1  0.85294600  0.33322900  0.61515400  1
  O  O5  1  0.35294600  0.66677100  0.88484600  1
  O  O6  1  0.14705400  0.66677100  0.38484600  1
  O  O7  1  0.64705400  0.33322900  0.11515400  1
  O  O8  1  0.81080800  0.92376800  0.59998000  1
  O  O9  1  0.31080800  0.07623200  0.90002000  1
  O  O10  1  0.18919200  0.07623200  0.40002000  1
  O  O11  1  0.68919200  0.92376800  0.09998000  1
  O  O12  1  0.86769400  0.06905800  0.73090500  1
  O  O13  1  0.36769400  0.93094200  0.76909500  1
  O  O14  1  0.13230600  0.93094200  0.26909500  1
  O  O15  1  0.63230600  0.06905800  0.23090500  1
  O  O16  1  0.72024800  0.09148400  0.84890800  1
  O  O17  1  0.22024800  0.90851600  0.65109200  1
  O  O18  1  0.27975200  0.90851600  0.15109200  1
  O  O19  1  0.77975200  0.09148400  0.34890800  1
  O  O20  1  0.96148800  0.04607100  0.86489300  1
  O  O21  1  0.46148800  0.95392900  0.63510700  1
  O  O22  1  0.03851200  0.95392900  0.13510700  1
  O  O23  1  0.53851200  0.04607100  0.36489300  1
  O  O24  1  0.87179200  0.40806700  0.81758700  1
  O  O25  1  0.37179200  0.59193300  0.68241300  1
  O  O26  1  0.12820800  0.59193300  0.18241300  1
  O  O27  1  0.62820800  0.40806700  0.31758700  1
  O  O28  1  0.66956600  0.66164100  0.77254700  1
  O  O29  1  0.16956600  0.33835900  0.72745300  1
  O  O30  1  0.33043400  0.33835900  0.22745300  1
  O  O31  1  0.83043400  0.66164100  0.27254700  1
  O  O32  1  0.60798800  0.34144700  0.95824900  1
  O  O33  1  0.10798800  0.65855300  0.54175100  1
  O  O34  1  0.39201200  0.65855300  0.04175100  1
  O  O35  1  0.89201200  0.34144700  0.45824900  1
  O  O36  1  0.87741200  0.67352200  0.94718700  1
  O  O37  1  0.37741200  0.32647800  0.55281300  1
  O  O38  1  0.12258800  0.32647800  0.05281300  1
  O  O39  1  0.62258800  0.67352200  0.44718700  1
loop_
_geom_bond_atom_site_label_1
_geom_bond_atom_site_label_2
_geom_bond_distance
_geom_bond_site_symmetry_2
K0 O38 2.736642 1_556
K0 O9 2.788789 1_555
K0 O20 2.831660 1_455
K0 O1 2.859928 1_555
K0 O5 2.903934 1_555
K0 O29 2.914527 1_555
K0 O24 2.967814 1_455
K1 O39 2.736642 1_555
K1 O8 2.788789 1_555
K1 O21 2.831660 1_555
K1 O0 2.859928 1_555
K1 O4 2.903934 1_555
K1 O28 2.914527 1_555
K1 O25 2.967814 1_555
K2 O36 2.736642 1_554
K2 O11 2.788789 1_555
K2 O22 2.831660 1_655
K2 O3 2.859928 1_555
K2 O7 2.903934 1_555
K2 O31 2.914527 1_555
K2 O26 2.967814 1_655
K3 O37 2.736642 1_555
K3 O10 2.788789 1_555
K3 O23 2.831660 1_555
K3 O2 2.859928 1_555
K3 O6 2.903934 1_555
K3 O30 2.914527 1_555
K3 O27 2.967814 1_555
K4 O29 2.790197 1_655
K4 O4 2.795603 1_555
K4 O24 2.867683 1_555
K4 O33 2.888069 1_655
K4 O12 2.925930 1_565
K4 O8 2.958189 1_555
K4 O17 2.986048 1_655
K4 O1 3.061646 1_655
K5 O28 2.790197 1_555
K5 O5 2.795603 1_555
K5 O25 2.867683 1_555
K5 O32 2.888069 1_555
K5 O13 2.925930 1_545
K5 O9 2.958189 1_555
K5 O16 2.986048 1_555
K5 O0 3.061646 1_555
K6 O31 2.790197 1_455
K6 O6 2.795603 1_555
K6 O26 2.867683 1_555
K6 O35 2.888069 1_455
K6 O14 2.925930 1_545
K6 O10 2.958189 1_555
K6 O19 2.986048 1_455
K6 O3 3.061646 1_455
K7 O30 2.790197 1_555
K7 O7 2.795603 1_555
K7 O27 2.867683 1_555
K7 O34 2.888069 1_555
K7 O15 2.925930 1_565
K7 O11 2.958189 1_555
K7 O18 2.986048 1_555
K7 O2 3.061646 1_555
K8 O17 2.773820 1_545
K8 O10 2.776212 1_555
K8 O33 2.795209 1_555
K8 O37 2.858778 1_555
K8 O35 2.907503 1_455
K8 O4 3.067624 1_455
K9 O16 2.773820 1_565
K9 O11 2.776212 1_556
K9 O32 2.795209 1_555
K9 O36 2.858778 1_555
K9 O34 2.907503 1_556
K9 O5 3.067624 1_555
K10 O19 2.773820 1_565
K10 O8 2.776212 1_555
K10 O35 2.795209 1_555
K10 O39 2.858778 1_555
K10 O33 2.907503 1_655
K10 O6 3.067624 1_655
K11 O18 2.773820 1_545
K11 O9 2.776212 1_554
K11 O34 2.795209 1_555
K11 O38 2.858778 1_555
K11 O32 2.907503 1_554
K11 O7 3.067624 1_555
H0 O0 1.041932 1_555
H0 O21 1.483987 1_545
H1 O1 1.041932 1_555
H1 O20 1.483987 1_465
H2 O2 1.041932 1_555
H2 O23 1.483987 1_565
H3 O3 1.041932 1_555
H3 O22 1.483987 1_645
H4 O28 0.981902 1_555
H4 K9 2.931443 1_555
H5 O29 0.981902 1_555
H5 K8 2.931443 1_555
H6 O30 0.981902 1_555
H6 K11 2.931443 1_555
H7 O31 0.981902 1_555
H7 K10 2.931443 1_555
H8 O28 0.997776 1_555
H9 O29 0.997776 1_555
H10 O30 0.997776 1_555
H11 O31 0.997776 1_555
H12 O32 0.995770 1_555
H12 K5 2.817409 1_555
H12 K9 2.925162 1_545
H13 O33 0.995770 1_555
H13 K4 2.817409 1_455
H13 K8 2.925162 1_565
H14 O34 0.995770 1_555
H14 K7 2.817409 1_555
H14 K11 2.925162 1_565
H15 O35 0.995770 1_555
H15 K6 2.817409 1_655
H15 K10 2.925162 1_545
H16 O32 0.996937 1_554
H16 K11 2.802179 1_555
H17 O33 0.996937 1_555
H17 K10 2.802179 1_455
H18 O34 0.996937 1_556
H18 K9 2.802179 1_555
H19 O35 0.996937 1_555
H19 K8 2.802179 1_655
H20 O36 0.991670 1_555
H21 O37 0.991670 1_555
H22 O38 0.991670 1_555
H23 O39 0.991670 1_555
H24 O36 0.993409 1_555
H24 K0 2.888561 1_655
H25 O37 0.993409 1_555
H25 K1 2.888561 1_555
H26 O38 0.993409 1_555
H26 K2 2.888561 1_455
H27 O39 0.993409 1_555
H27 K3 2.888561 1_555
O0 P0 1.592183 1_555
O1 P1 1.592183 1_555
O2 P2 1.592183 1_555
O3 P3 1.592183 1_555
O4 P0 1.518723 1_555
O5 P1 1.518723 1_555
O6 P2 1.518723 1_555
O7 P3 1.518723 1_555
O8 P0 1.509823 1_565
O9 P1 1.509823 1_545
O10 P2 1.509823 1_545
O11 P3 1.509823 1_565
O12 P0 1.631479 1_555
O12 P4 1.654433 1_555
O13 P1 1.631479 1_555
O13 P5 1.654433 1_555
O14 P2 1.631479 1_555
O14 P6 1.654433 1_555
O15 P3 1.631479 1_555
O15 P7 1.654433 1_555
O16 P4 1.531617 1_555
O17 P5 1.531617 1_555
O18 P6 1.531617 1_555
O19 P7 1.531617 1_555
O20 P4 1.537619 1_555
O21 P5 1.537619 1_555
O22 P6 1.537619 1_555
O23 P7 1.537619 1_555
O24 P4 1.535574 1_555
O25 P5 1.535574 1_555
O26 P6 1.535574 1_555
O27 P7 1.535574 1_555
