# generated using pymatgen
data_Ti5Fe11O24
_symmetry_space_group_name_H-M   'P 1'
_cell_length_a   7.57083500
_cell_length_b   7.58639101
_cell_length_c   8.94048305
_cell_angle_alpha   113.21450898
_cell_angle_beta   113.23990923
_cell_angle_gamma   85.84733298
_symmetry_Int_Tables_number   1
_chemical_formula_structural   Ti5Fe11O24
_chemical_formula_sum   'Ti5 Fe11 O24'
_cell_volume   431.52697085
_cell_formula_units_Z   1
loop_
 _symmetry_equiv_pos_site_id
 _symmetry_equiv_pos_as_xyz
  1  'x, y, z'
loop_
 _atom_site_type_symbol
 _atom_site_label
 _atom_site_symmetry_multiplicity
 _atom_site_fract_x
 _atom_site_fract_y
 _atom_site_fract_z
 _atom_site_occupancy
  Ti  Ti0  1  0.22168700  0.22028900  0.15252300  1
  Ti  Ti1  1  0.72218300  0.72247900  0.14800600  1
  Ti  Ti2  1  0.96991700  0.47245000  0.64342000  1
  Ti  Ti3  1  0.47342700  0.97096700  0.64741900  1
  Ti  Ti4  1  0.28513500  0.28257700  0.85470200  1
  Fe  Fe0  1  0.53319000  0.53333300  0.35508900  1
  Fe  Fe1  1  0.03401000  0.03209700  0.35863300  1
  Fe  Fe2  1  0.21870800  0.71928000  0.14674400  1
  Fe  Fe3  1  0.28158900  0.78641700  0.85480200  1
  Fe  Fe4  1  0.53283500  0.03090700  0.35285300  1
  Fe  Fe5  1  0.72063600  0.21771900  0.14435700  1
  Fe  Fe6  1  0.78709500  0.28601800  0.85484300  1
  Fe  Fe7  1  0.03277100  0.53617900  0.35662300  1
  Fe  Fe8  1  0.96632200  0.96703600  0.64894600  1
  Fe  Fe9  1  0.46691300  0.46913100  0.64194400  1
  Fe  Fe10  1  0.77724700  0.77758600  0.85366700  1
  O  O0  1  0.52767000  0.72619900  0.23574900  1
  O  O1  1  0.69857200  0.04460700  0.59486800  1
  O  O2  1  0.07031900  0.18952200  0.91070500  1
  O  O3  1  0.78424500  0.47515300  0.73804800  1
  O  O4  1  0.04299000  0.21763400  0.61318000  1
  O  O5  1  0.20289100  0.53592400  0.90540800  1
  O  O6  1  0.02845900  0.22629400  0.23608300  1
  O  O7  1  0.19106100  0.54931600  0.59786300  1
  O  O8  1  0.28601400  0.95960700  0.10286800  1
  O  O9  1  0.56669700  0.69960500  0.91877600  1
  O  O10  1  0.44454000  0.28775200  0.38741300  1
  O  O11  1  0.27662700  0.98033000  0.73506200  1
  O  O12  1  0.71930600  0.02645500  0.24467500  1
  O  O13  1  0.54190800  0.72207700  0.60752500  1
  O  O14  1  0.44784600  0.28964100  0.08322900  1
  O  O15  1  0.69862200  0.04771300  0.90293800  1
  O  O16  1  0.80974400  0.43634000  0.40723200  1
  O  O17  1  0.96240700  0.77283500  0.74428800  1
  O  O18  1  0.79124000  0.46458200  0.11039100  1
  O  O19  1  0.94418000  0.79752300  0.40628700  1
  O  O20  1  0.21646200  0.52406900  0.24344300  1
  O  O21  1  0.95142900  0.78787500  0.09481700  1
  O  O22  1  0.31246700  0.94211800  0.40992000  1
  O  O23  1  0.46064000  0.27236400  0.75466100  1
loop_
_geom_bond_atom_site_label_1
_geom_bond_atom_site_label_2
_geom_bond_distance
_geom_bond_site_symmetry_2
Fe0 O16 2.102274 1_555
Fe0 O0 2.113679 1_555
Fe0 O13 2.120551 1_555
Fe0 O10 2.182573 1_555
Fe0 O20 2.198049 1_555
Fe0 O14 2.265872 1_555
Fe1 O22 2.096666 1_545
Fe1 O4 2.128717 1_555
Fe1 O6 2.144747 1_555
Fe1 O12 2.186605 1_455
Fe1 O19 2.193756 1_445
Fe1 O21 2.223904 1_445
Fe2 O21 1.969157 1_455
Fe2 O20 1.991359 1_555
Fe2 O5 2.014665 1_554
Fe2 O8 2.143307 1_555
Fe2 O22 2.148940 1_555
Fe2 O0 2.150190 1_555
Fe3 O8 2.072848 1_556
Fe3 O11 2.124474 1_555
Fe3 O9 2.129981 1_555
Fe3 O7 2.158881 1_555
Fe3 O17 2.213098 1_455
Fe3 O5 2.285937 1_555
Fe4 O10 1.959284 1_555
Fe4 O1 1.991485 1_555
Fe4 O12 1.993593 1_555
Fe4 O0 2.124650 1_545
Fe4 O22 2.145443 1_545
Fe4 O8 2.162648 1_545
Fe5 O15 1.975489 1_554
Fe5 O12 1.986233 1_555
Fe5 O14 2.010671 1_555
Fe5 O16 2.137130 1_555
Fe5 O6 2.139989 1_655
Fe5 O18 2.146334 1_555
Fe6 O3 2.075700 1_555
Fe6 O18 2.136740 1_556
Fe6 O2 2.144502 1_655
Fe6 O1 2.190504 1_555
Fe6 O15 2.217536 1_555
Fe6 O23 2.266810 1_555
Fe7 O7 1.976350 1_555
Fe7 O19 1.981501 1_455
Fe7 O20 1.996276 1_555
Fe7 O18 2.123552 1_455
Fe7 O6 2.162240 1_555
Fe7 O16 2.165123 1_455
Fe8 O17 1.978468 1_555
Fe8 O19 1.983261 1_555
Fe8 O1 1.991801 1_565
Fe8 O2 2.137742 1_665
Fe8 O11 2.160488 1_655
Fe8 O4 2.199776 1_665
Fe9 O7 2.059704 1_555
Fe9 O10 2.088447 1_555
Fe9 O23 2.116618 1_555
Fe9 O13 2.204681 1_555
Fe9 O3 2.206382 1_555
Fe9 O9 2.248938 1_555
Fe10 O17 1.992332 1_555
Fe10 O21 2.007970 1_556
Fe10 O15 2.016571 1_565
Fe10 O9 2.090483 1_555
Fe10 O13 2.116239 1_555
Fe10 O3 2.119289 1_555
O0 Ti1 1.916506 1_555
O1 Ti3 2.101219 1_545
O2 Ti0 1.930692 1_556
O2 Ti4 2.116974 1_555
O3 Ti2 1.900736 1_555
O4 Ti2 1.915014 1_455
O4 Ti4 2.105789 1_555
O5 Ti4 1.910445 1_555
O5 Ti2 2.191520 1_455
O6 Ti0 1.877827 1_555
O7 Ti2 2.043484 1_455
O8 Ti0 1.919454 1_565
O9 Ti1 1.860463 1_556
O10 Ti0 2.000071 1_555
O11 Ti3 1.923817 1_555
O11 Ti4 2.106998 1_565
O12 Ti1 2.121741 1_545
O13 Ti3 1.853229 1_555
O14 Ti4 1.905729 1_554
O14 Ti0 2.194728 1_555
O15 Ti3 2.118029 1_545
O16 Ti2 1.890990 1_555
O17 Ti2 2.100280 1_555
O18 Ti1 1.919963 1_555
O19 Ti1 2.126152 1_555
O20 Ti0 2.123395 1_555
O21 Ti1 2.108681 1_555
O22 Ti3 1.916198 1_555
O23 Ti4 1.854669 1_555
O23 Ti3 2.114168 1_545
