# generated using pymatgen
data_VHO2
_symmetry_space_group_name_H-M   'P 1'
_cell_length_a   3.15276700
_cell_length_b   4.64864300
_cell_length_c   10.07522000
_cell_angle_alpha   90.00000000
_cell_angle_beta   90.00000000
_cell_angle_gamma   90.00000000
_symmetry_Int_Tables_number   1
_chemical_formula_structural   VHO2
_chemical_formula_sum   'V4 H4 O8'
_cell_volume   147.66331341
_cell_formula_units_Z   4
loop_
 _symmetry_equiv_pos_site_id
 _symmetry_equiv_pos_as_xyz
  1  'x, y, z'
loop_
 _atom_site_type_symbol
 _atom_site_label
 _atom_site_symmetry_multiplicity
 _atom_site_fract_x
 _atom_site_fract_y
 _atom_site_fract_z
 _atom_site_occupancy
  V  V0  1  0.00000000  0.29288600  0.65368300  1
  V  V1  1  0.00000000  0.70711400  0.15368300  1
  V  V2  1  0.50000000  0.20715400  0.36239300  1
  V  V3  1  0.50000000  0.79284600  0.86239300  1
  H  H0  1  0.00000000  0.65171700  0.43236400  1
  H  H1  1  0.00000000  0.34828300  0.93236400  1
  H  H2  1  0.50000000  0.84990700  0.59443000  1
  H  H3  1  0.50000000  0.15009300  0.09443000  1
  O  O0  1  0.00000000  0.96565000  0.30567300  1
  O  O1  1  0.00000000  0.03435000  0.80567300  1
  O  O2  1  0.50000000  0.54022600  0.70777400  1
  O  O3  1  0.50000000  0.45977400  0.20777400  1
  O  O4  1  0.00000000  0.44536900  0.45504200  1
  O  O5  1  0.00000000  0.55463100  0.95504200  1
  O  O6  1  0.50000000  0.05091600  0.56204100  1
  O  O7  1  0.50000000  0.94908400  0.06204100  1
loop_
_geom_bond_atom_site_label_1
_geom_bond_atom_site_label_2
_geom_bond_distance
_geom_bond_site_symmetry_2
H0 O4 0.986075 1_555
H1 O5 0.986075 1_555
H2 O6 0.989762 1_565
H3 O7 0.989762 1_545
O0 V1 1.946639 1_555
O0 V2 2.017904 1_465
O0 V2 2.017904 1_565
O1 V0 1.946639 1_555
O1 V3 2.017904 1_445
O1 V3 2.017904 1_545
O2 V3 1.950866 1_555
O2 V0 2.025837 1_655
O2 V0 2.025837 1_555
O3 V2 1.950866 1_555
O3 V1 2.025837 1_555
O3 V1 2.025837 1_655
O4 V0 2.123173 1_555
O4 V2 2.140704 1_455
O4 V2 2.140704 1_555
O5 V1 2.123173 1_556
O5 V3 2.140704 1_555
O5 V3 2.140704 1_455
O6 V2 2.138604 1_555
O6 V0 2.145400 1_655
O6 V0 2.145400 1_555
O7 V3 2.138604 1_554
O7 V1 2.145400 1_555
O7 V1 2.145400 1_655
