# generated using pymatgen
data_AgH2SNO3
_symmetry_space_group_name_H-M   'P 1'
_cell_length_a   7.96327900
_cell_length_b   8.21835300
_cell_length_c   11.87004500
_cell_angle_alpha   90.00000000
_cell_angle_beta   90.00000000
_cell_angle_gamma   90.00000000
_symmetry_Int_Tables_number   1
_chemical_formula_structural   AgH2SNO3
_chemical_formula_sum   'Ag8 H16 S8 N8 O24'
_cell_volume   776.83554442
_cell_formula_units_Z   8
loop_
 _symmetry_equiv_pos_site_id
 _symmetry_equiv_pos_as_xyz
  1  'x, y, z'
loop_
 _atom_site_type_symbol
 _atom_site_label
 _atom_site_symmetry_multiplicity
 _atom_site_fract_x
 _atom_site_fract_y
 _atom_site_fract_z
 _atom_site_occupancy
  Ag  Ag0  1  0.61609600  0.25046700  0.89680800  1
  Ag  Ag1  1  0.11609600  0.74953300  0.60319200  1
  Ag  Ag2  1  0.38390400  0.24953300  0.39680800  1
  Ag  Ag3  1  0.88390400  0.75046700  0.10319200  1
  Ag  Ag4  1  0.38390400  0.74953300  0.10319200  1
  Ag  Ag5  1  0.88390400  0.25046700  0.39680800  1
  Ag  Ag6  1  0.61609600  0.75046700  0.60319200  1
  Ag  Ag7  1  0.11609600  0.24953300  0.89680800  1
  H  H0  1  0.49324400  0.13680200  0.10612300  1
  H  H1  1  0.99324400  0.86319800  0.39387700  1
  H  H2  1  0.50675600  0.36319800  0.60612300  1
  H  H3  1  0.00675600  0.63680200  0.89387700  1
  H  H4  1  0.50675600  0.86319800  0.89387700  1
  H  H5  1  0.00675600  0.13680200  0.60612300  1
  H  H6  1  0.49324400  0.63680200  0.39387700  1
  H  H7  1  0.99324400  0.36319800  0.10612300  1
  H  H8  1  0.70438400  0.11708500  0.11234200  1
  H  H9  1  0.20438400  0.88291500  0.38765800  1
  H  H10  1  0.29561600  0.38291500  0.61234200  1
  H  H11  1  0.79561600  0.61708500  0.88765800  1
  H  H12  1  0.29561600  0.88291500  0.88765800  1
  H  H13  1  0.79561600  0.11708500  0.61234200  1
  H  H14  1  0.70438400  0.61708500  0.38765800  1
  H  H15  1  0.20438400  0.38291500  0.11234200  1
  S  S0  1  0.88032100  0.36896600  0.66334300  1
  S  S1  1  0.38032100  0.63103400  0.83665700  1
  S  S2  1  0.11967900  0.13103400  0.16334300  1
  S  S3  1  0.61967900  0.86896600  0.33665700  1
  S  S4  1  0.11967900  0.63103400  0.33665700  1
  S  S5  1  0.61967900  0.36896600  0.16334300  1
  S  S6  1  0.88032100  0.86896600  0.83665700  1
  S  S7  1  0.38032100  0.13103400  0.66334300  1
  N  N0  1  0.60692700  0.19277700  0.08920500  1
  N  N1  1  0.10692700  0.80722300  0.41079500  1
  N  N2  1  0.39307300  0.30722300  0.58920500  1
  N  N3  1  0.89307300  0.69277700  0.91079500  1
  N  N4  1  0.39307300  0.80722300  0.91079500  1
  N  N5  1  0.89307300  0.19277700  0.58920500  1
  N  N6  1  0.60692700  0.69277700  0.41079500  1
  N  N7  1  0.10692700  0.30722300  0.08920500  1
  O  O0  1  0.86537600  0.32879300  0.78499900  1
  O  O1  1  0.36537600  0.67120700  0.71500100  1
  O  O2  1  0.13462400  0.17120700  0.28499900  1
  O  O3  1  0.63462400  0.82879300  0.21500100  1
  O  O4  1  0.13462400  0.67120700  0.21500100  1
  O  O5  1  0.63462400  0.32879300  0.28499900  1
  O  O6  1  0.86537600  0.82879300  0.71500100  1
  O  O7  1  0.36537600  0.17120700  0.78499900  1
  O  O8  1  0.72782200  0.44719400  0.62005900  1
  O  O9  1  0.22782200  0.55280600  0.87994100  1
  O  O10  1  0.27217800  0.05280600  0.12005900  1
  O  O11  1  0.77217800  0.94719400  0.37994100  1
  O  O12  1  0.27217800  0.55280600  0.37994100  1
  O  O13  1  0.77217800  0.44719400  0.12005900  1
  O  O14  1  0.72782200  0.94719400  0.87994100  1
  O  O15  1  0.22782200  0.05280600  0.62005900  1
  O  O16  1  0.53784900  0.54807200  0.86303500  1
  O  O17  1  0.03784900  0.45192800  0.63696500  1
  O  O18  1  0.46215100  0.95192800  0.36303500  1
  O  O19  1  0.96215100  0.04807200  0.13696500  1
  O  O20  1  0.46215100  0.45192800  0.13696500  1
  O  O21  1  0.96215100  0.54807200  0.36303500  1
  O  O22  1  0.53784900  0.04807200  0.63696500  1
  O  O23  1  0.03784900  0.95192800  0.86303500  1
loop_
_geom_bond_atom_site_label_1
_geom_bond_atom_site_label_2
_geom_bond_distance
_geom_bond_site_symmetry_2
Ag0 N0 2.333599 1_556
Ag0 O0 2.473122 1_555
Ag0 O7 2.484337 1_555
Ag0 O16 2.555586 1_555
Ag0 O14 2.654005 1_545
Ag1 N1 2.333599 1_555
Ag1 O1 2.473122 1_555
Ag1 O6 2.484337 1_455
Ag1 O17 2.555586 1_555
Ag1 O15 2.654005 1_565
Ag2 N2 2.333599 1_555
Ag2 O2 2.473122 1_555
Ag2 O5 2.484337 1_555
Ag2 O18 2.555586 1_545
Ag2 O12 2.654005 1_555
Ag3 N3 2.333599 1_554
Ag3 O3 2.473122 1_555
Ag3 O4 2.484337 1_655
Ag3 O19 2.555586 1_565
Ag3 O13 2.654005 1_555
Ag4 N4 2.333599 1_554
Ag4 O4 2.473122 1_555
Ag4 O3 2.484337 1_555
Ag4 O20 2.555586 1_555
Ag4 O10 2.654005 1_565
Ag5 N5 2.333599 1_555
Ag5 O5 2.473122 1_555
Ag5 O2 2.484337 1_655
Ag5 O21 2.555586 1_555
Ag5 O11 2.654005 1_545
Ag6 N6 2.333599 1_555
Ag6 O6 2.473122 1_555
Ag6 O1 2.484337 1_555
Ag6 O22 2.555586 1_565
Ag6 O8 2.654005 1_555
Ag7 N7 2.333599 1_556
Ag7 O7 2.473122 1_555
Ag7 O0 2.484337 1_455
Ag7 O23 2.555586 1_545
Ag7 O9 2.654005 1_555
H0 N0 1.035131 1_555
H1 N1 1.035131 1_655
H2 N2 1.035131 1_555
H3 N3 1.035131 1_455
H4 N4 1.035131 1_555
H5 N5 1.035131 1_455
H6 N6 1.035131 1_555
H7 N7 1.035131 1_655
H8 N0 1.031836 1_555
H9 N1 1.031836 1_555
H10 N2 1.031836 1_555
H11 N3 1.031836 1_555
H12 N4 1.031836 1_555
H13 N5 1.031836 1_555
H14 N6 1.031836 1_555
H15 N7 1.031836 1_555
N0 S5 1.697470 1_555
N1 S4 1.697470 1_555
N2 S7 1.697470 1_555
N3 S6 1.697470 1_555
N4 S1 1.697470 1_555
N5 S0 1.697470 1_555
N6 S3 1.697470 1_555
N7 S2 1.697470 1_555
O0 S0 1.486096 1_555
O1 S1 1.486096 1_555
O2 S2 1.486096 1_555
O3 S3 1.486096 1_555
O4 S4 1.486096 1_555
O5 S5 1.486096 1_555
O6 S6 1.486096 1_555
O7 S7 1.486096 1_555
O8 S0 1.466986 1_555
O9 S1 1.466986 1_555
O10 S2 1.466986 1_555
O11 S3 1.466986 1_555
O12 S4 1.466986 1_555
O13 S5 1.466986 1_555
O14 S6 1.466986 1_555
O15 S7 1.466986 1_555
O16 S1 1.461684 1_555
O17 S0 1.461684 1_455
O18 S3 1.461684 1_555
O19 S2 1.461684 1_655
O20 S5 1.461684 1_555
O21 S4 1.461684 1_655
O22 S7 1.461684 1_555
O23 S6 1.461684 1_455
