# generated using pymatgen
data_ScVFe
_symmetry_space_group_name_H-M   'P 1'
_cell_length_a   4.08606179
_cell_length_b   4.08606179
_cell_length_c   4.08606179
_cell_angle_alpha   60.00000000
_cell_angle_beta   60.00000000
_cell_angle_gamma   60.00000000
_symmetry_Int_Tables_number   1
_chemical_formula_structural   ScVFe
_chemical_formula_sum   'Sc1 V1 Fe1'
_cell_volume   48.23916609
_cell_formula_units_Z   1
loop_
 _symmetry_equiv_pos_site_id
 _symmetry_equiv_pos_as_xyz
  1  'x, y, z'
loop_
 _atom_site_type_symbol
 _atom_site_label
 _atom_site_symmetry_multiplicity
 _atom_site_fract_x
 _atom_site_fract_y
 _atom_site_fract_z
 _atom_site_occupancy
  Sc  Sc0  1  0.50000000  0.50000000  0.50000000  1
  V  V0  1  0.25000000  0.25000000  0.25000000  1
  Fe  Fe0  1  0.00000000  0.00000000  0.00000000  1
loop_
_geom_bond_atom_site_label_1
_geom_bond_atom_site_label_2
_geom_bond_distance
_geom_bond_site_symmetry_2
Sc0 V0 2.502192 1_655
Sc0 V0 2.502192 1_565
Sc0 V0 2.502192 1_555
Sc0 V0 2.502192 1_556
Fe0 V0 2.502192 1_554
Fe0 V0 2.502192 1_555
Fe0 V0 2.502192 1_455
Fe0 V0 2.502192 1_545
Fe0 Sc0 2.889282 1_445
Fe0 Sc0 2.889282 1_454
Fe0 Sc0 2.889282 1_544
Fe0 Sc0 2.889282 1_545
Fe0 Sc0 2.889282 1_455
Fe0 Sc0 2.889282 1_554
