# generated using pymatgen
data_CoH12SO10
_symmetry_space_group_name_H-M   'P 1'
_cell_length_a   6.20331007
_cell_length_b   6.20331007
_cell_length_c   24.22142023
_cell_angle_alpha   82.69165177
_cell_angle_beta   82.69165177
_cell_angle_gamma   71.85591420
_symmetry_Int_Tables_number   1
_chemical_formula_structural   CoH12SO10
_chemical_formula_sum   'Co4 H48 S4 O40'
_cell_volume   874.72250631
_cell_formula_units_Z   4
loop_
 _symmetry_equiv_pos_site_id
 _symmetry_equiv_pos_as_xyz
  1  'x, y, z'
loop_
 _atom_site_type_symbol
 _atom_site_label
 _atom_site_symmetry_multiplicity
 _atom_site_fract_x
 _atom_site_fract_y
 _atom_site_fract_z
 _atom_site_occupancy
  Co  Co0  1  0.00000000  0.00000000  0.50000000  1
  Co  Co1  1  0.00000000  0.00000000  0.00000000  1
  Co  Co2  1  0.94406300  0.05593700  0.75000000  1
  Co  Co3  1  0.05593700  0.94406300  0.25000000  1
  H  H0  1  0.03642200  0.64564100  0.57733900  1
  H  H1  1  0.35435900  0.96357800  0.92266100  1
  H  H2  1  0.96357800  0.35435900  0.42266100  1
  H  H3  1  0.64564100  0.03642200  0.07733900  1
  H  H4  1  0.29215900  0.63809300  0.55426900  1
  H  H5  1  0.36190700  0.70784100  0.94573100  1
  H  H6  1  0.70784100  0.36190700  0.44573100  1
  H  H7  1  0.63809300  0.29215900  0.05426900  1
  H  H8  1  0.26776000  0.70187000  0.43203300  1
  H  H9  1  0.29813000  0.73224000  0.06796700  1
  H  H10  1  0.73224000  0.29813000  0.56796700  1
  H  H11  1  0.70187000  0.26776000  0.93203300  1
  H  H12  1  0.30559400  0.93806700  0.40729600  1
  H  H13  1  0.06193300  0.69440600  0.09270400  1
  H  H14  1  0.69440600  0.06193300  0.59270400  1
  H  H15  1  0.93806700  0.30559400  0.90729600  1
  H  H16  1  0.65381700  0.93653300  0.44987800  1
  H  H17  1  0.06346700  0.34618300  0.05012200  1
  H  H18  1  0.34618300  0.06346700  0.55012200  1
  H  H19  1  0.93653300  0.65381700  0.94987800  1
  H  H20  1  0.69713200  0.75130300  0.50366600  1
  H  H21  1  0.24869700  0.30286800  0.99633400  1
  H  H22  1  0.30286800  0.24869700  0.49633400  1
  H  H23  1  0.75130300  0.69713200  0.00366600  1
  H  H24  1  0.27269600  0.06557100  0.81078400  1
  H  H25  1  0.93442900  0.72730400  0.68921600  1
  H  H26  1  0.72730400  0.93442900  0.18921600  1
  H  H27  1  0.06557100  0.27269600  0.31078400  1
  H  H28  1  0.32726700  0.80957500  0.79925300  1
  H  H29  1  0.19042500  0.67273300  0.70074700  1
  H  H30  1  0.67273400  0.19042500  0.20074700  1
  H  H31  1  0.80957500  0.32726700  0.29925300  1
  H  H32  1  0.71073800  0.43984400  0.80043300  1
  H  H33  1  0.56015600  0.28926200  0.69956700  1
  H  H34  1  0.28926200  0.56015600  0.19956700  1
  H  H35  1  0.43984400  0.71073800  0.30043300  1
  H  H36  1  0.92922900  0.49021400  0.76524000  1
  H  H37  1  0.50978600  0.07077100  0.73476000  1
  H  H38  1  0.07077100  0.50978600  0.23476000  1
  H  H39  1  0.49021400  0.92922900  0.26524000  1
  H  H40  1  0.67160600  0.00053200  0.84361900  1
  H  H41  1  0.99946800  0.32839400  0.65638100  1
  H  H42  1  0.32839400  0.99946800  0.15638100  1
  H  H43  1  0.00053200  0.67160600  0.34361900  1
  H  H44  1  0.89578800  0.78218400  0.84526500  1
  H  H45  1  0.21781600  0.10421200  0.65473500  1
  H  H46  1  0.10421200  0.21781600  0.15473500  1
  H  H47  1  0.78218400  0.89578800  0.34526500  1
  S  S0  1  0.58030600  0.67814600  0.62280300  1
  S  S1  1  0.32185400  0.41969400  0.87719700  1
  S  S2  1  0.41969400  0.32185400  0.37719700  1
  S  S3  1  0.67814600  0.58030600  0.12280300  1
  O  O0  1  0.82309300  0.62559700  0.63492200  1
  O  O1  1  0.37440300  0.17690700  0.86507800  1
  O  O2  1  0.17690700  0.37440300  0.36507800  1
  O  O3  1  0.62559700  0.82309300  0.13492200  1
  O  O4  1  0.45505300  0.56851000  0.66811400  1
  O  O5  1  0.43149000  0.54494700  0.83188600  1
  O  O6  1  0.54494700  0.43149000  0.33188600  1
  O  O7  1  0.56851000  0.45505300  0.16811400  1
  O  O8  1  0.57806200  0.58900200  0.56792900  1
  O  O9  1  0.41099800  0.42193800  0.93207100  1
  O  O10  1  0.42193800  0.41099800  0.43207100  1
  O  O11  1  0.58900200  0.57806200  0.06792900  1
  O  O12  1  0.47057800  0.93105700  0.61716000  1
  O  O13  1  0.06894300  0.52942200  0.88284000  1
  O  O14  1  0.52942200  0.06894300  0.38284000  1
  O  O15  1  0.93105700  0.47057800  0.11716000  1
  O  O16  1  0.13440700  0.67768700  0.54383500  1
  O  O17  1  0.32231300  0.86559300  0.95616500  1
  O  O18  1  0.86559300  0.32231300  0.45616500  1
  O  O19  1  0.67768700  0.13440700  0.04383500  1
  O  O20  1  0.19247800  0.86882700  0.42808300  1
  O  O21  1  0.13117300  0.80752200  0.07191700  1
  O  O22  1  0.80752200  0.13117300  0.57191700  1
  O  O23  1  0.86882700  0.19247800  0.92808300  1
  O  O24  1  0.75207600  0.86798600  0.48028200  1
  O  O25  1  0.13201400  0.24792400  0.01971800  1
  O  O26  1  0.24792400  0.13201400  0.51971800  1
  O  O27  1  0.86798600  0.75207600  0.98028200  1
  O  O28  1  0.27109100  0.96840600  0.78142500  1
  O  O29  1  0.03159400  0.72890900  0.71857500  1
  O  O30  1  0.72890900  0.03159400  0.21857500  1
  O  O31  1  0.96840600  0.27109100  0.28142500  1
  O  O32  1  0.86566900  0.36856200  0.78304900  1
  O  O33  1  0.63143800  0.13433100  0.71695100  1
  O  O34  1  0.13433100  0.63143800  0.21695100  1
  O  O35  1  0.36856200  0.86566900  0.28304900  1
  O  O36  1  0.79957700  0.90408500  0.82081600  1
  O  O37  1  0.09591500  0.20042300  0.67918400  1
  O  O38  1  0.20042300  0.09591500  0.17918400  1
  O  O39  1  0.90408500  0.79957700  0.32081600  1
loop_
_geom_bond_atom_site_label_1
_geom_bond_atom_site_label_2
_geom_bond_distance
_geom_bond_site_symmetry_2
Co0 O26 2.082023 1_555
Co0 O24 2.082023 1_445
Co0 O22 2.085291 1_455
Co0 O20 2.085291 1_545
Co0 O18 2.113522 1_455
Co0 O16 2.113522 1_545
Co1 O25 2.082023 1_555
Co1 O27 2.082023 1_444
Co1 O23 2.085291 1_454
Co1 O21 2.085291 1_545
Co1 O19 2.113522 1_455
Co1 O17 2.113522 1_544
Co2 O32 2.084886 1_555
Co2 O33 2.084886 1_555
Co2 O37 2.087206 1_655
Co2 O36 2.087206 1_545
Co2 O28 2.142731 1_645
Co2 O29 2.142731 1_645
Co3 O35 2.084886 1_555
Co3 O34 2.084886 1_555
Co3 O39 2.087206 1_455
Co3 O38 2.087206 1_565
Co3 O31 2.142731 1_465
Co3 O30 2.142731 1_465
H0 O16 0.988054 1_555
H1 O17 0.988054 1_555
H2 O18 0.988054 1_555
H3 O19 0.988054 1_555
H4 O16 0.989574 1_555
H5 O17 0.989574 1_555
H6 O18 0.989574 1_555
H7 O19 0.989574 1_555
H8 O20 0.992376 1_555
H9 O21 0.992376 1_555
H10 O22 0.992376 1_555
H11 O23 0.992376 1_555
H12 O20 0.986492 1_555
H13 O21 0.986492 1_555
H14 O22 0.986492 1_555
H15 O23 0.986492 1_555
H16 O24 0.983755 1_555
H17 O25 0.983755 1_555
H18 O26 0.983755 1_555
H19 O27 0.983755 1_555
H20 O24 0.980367 1_555
H21 O25 0.980367 1_556
H22 O26 0.980367 1_555
H23 O27 0.980367 1_554
H24 O28 0.991804 1_545
H25 O29 0.991804 1_655
H26 O30 0.991804 1_565
H27 O31 0.991804 1_455
H28 O28 0.997434 1_555
H29 O29 0.997434 1_555
H30 O30 0.997433 1_555
H31 O31 0.997434 1_555
H32 O32 0.988047 1_555
H33 O33 0.988047 1_555
H34 O34 0.988047 1_555
H35 O35 0.988047 1_555
H36 O32 0.985009 1_555
H37 O33 0.985009 1_555
H38 O34 0.985009 1_555
H39 O35 0.985009 1_555
H40 O36 0.984842 1_545
H41 O37 0.984842 1_655
H42 O38 0.984842 1_565
H43 O39 0.984842 1_455
H44 O36 0.986721 1_555
H45 O37 0.986721 1_555
H46 O38 0.986721 1_555
H47 O39 0.986721 1_555
O0 S0 1.497690 1_555
O1 S1 1.497690 1_555
O2 S2 1.497690 1_555
O3 S3 1.497690 1_555
O4 S0 1.480881 1_555
O5 S1 1.480881 1_555
O6 S2 1.480881 1_555
O7 S3 1.480881 1_555
O8 S0 1.506341 1_555
O9 S1 1.506341 1_555
O10 S2 1.506341 1_555
O11 S3 1.506341 1_555
O12 S0 1.499136 1_555
O13 S1 1.499136 1_555
O14 S2 1.499136 1_555
O15 S3 1.499136 1_555
