# generated using pymatgen
data_Co7Re17O48
_symmetry_space_group_name_H-M   'P 1'
_cell_length_a   5.76899400
_cell_length_b   7.32180823
_cell_length_c   20.71274794
_cell_angle_alpha   86.70238277
_cell_angle_beta   82.00825819
_cell_angle_gamma   66.94666501
_symmetry_Int_Tables_number   1
_chemical_formula_structural   Co7Re17O48
_chemical_formula_sum   'Co7 Re17 O48'
_cell_volume   797.20405951
_cell_formula_units_Z   1
loop_
 _symmetry_equiv_pos_site_id
 _symmetry_equiv_pos_as_xyz
  1  'x, y, z'
loop_
 _atom_site_type_symbol
 _atom_site_label
 _atom_site_symmetry_multiplicity
 _atom_site_fract_x
 _atom_site_fract_y
 _atom_site_fract_z
 _atom_site_occupancy
  Co  Co0  1  0.48322600  0.00121600  0.00269800  1
  Co  Co1  1  0.66975700  0.01469300  0.15973600  1
  Co  Co2  1  0.66506300  0.50535100  0.66688000  1
  Co  Co3  1  0.00004000  0.00766400  0.49257200  1
  Co  Co4  1  0.84358300  0.49006900  0.33958500  1
  Co  Co5  1  0.99257600  0.50509600  0.99970600  1
  Co  Co6  1  0.17411000  0.48908800  0.66662100  1
  Re  Re0  1  0.00244800  0.99954200  0.00036100  1
  Re  Re1  1  0.33249800  0.50764300  0.32848500  1
  Re  Re2  1  0.16585300  0.99697400  0.16657000  1
  Re  Re3  1  0.49993400  0.49699700  0.99946300  1
  Re  Re4  1  0.80977700  0.00102900  0.33133300  1
  Re  Re5  1  0.13562200  0.50277800  0.16620800  1
  Re  Re6  1  0.50792900  0.99025400  0.50370400  1
  Re  Re7  1  0.14161700  0.99823400  0.66800400  1
  Re  Re8  1  0.48101700  0.49966300  0.50029400  1
  Re  Re9  1  0.69463000  0.50647300  0.16668000  1
  Re  Re10  1  0.35587600  0.99249900  0.83480500  1
  Re  Re11  1  0.36490700  0.99747300  0.33165200  1
  Re  Re12  1  0.79870200  0.00526600  0.83918000  1
  Re  Re13  1  0.86097200  0.48945100  0.83375200  1
  Re  Re14  1  0.02988000  0.49723600  0.50074100  1
  Re  Re15  1  0.69554200  0.99800700  0.66635100  1
  Re  Re16  1  0.29533800  0.50858600  0.83383000  1
  O  O0  1  0.51186700  0.79633500  0.16591600  1
  O  O1  1  0.83807900  0.28933800  0.99891800  1
  O  O2  1  0.61914100  0.69901500  0.99842100  1
  O  O3  1  0.38577200  0.50089200  0.23000500  1
  O  O4  1  0.72923900  0.99729300  0.06245000  1
  O  O5  1  0.11813200  0.00315000  0.26654100  1
  O  O6  1  0.45200800  0.49807800  0.10135100  1
  O  O7  1  0.18888400  0.00064500  0.07129600  1
  O  O8  1  0.61655500  0.21219800  0.49924800  1
  O  O9  1  0.99433100  0.71475400  0.33017300  1
  O  O10  1  0.22595500  0.28538500  0.33256600  1
  O  O11  1  0.28761700  0.21408000  0.16459800  1
  O  O12  1  0.36402300  0.30489500  0.00091600  1
  O  O13  1  0.83855800  0.21982200  0.16729600  1
  O  O14  1  0.16216900  0.71036500  0.99908000  1
  O  O15  1  0.72608200  0.49277300  0.56217200  1
  O  O16  1  0.05363700  0.00682100  0.39185100  1
  O  O17  1  0.45048000  0.99797800  0.60265400  1
  O  O18  1  0.78925500  0.49316500  0.43949200  1
  O  O19  1  0.55706400  0.98694200  0.40746700  1
  O  O20  1  0.88227700  0.50282800  0.24113600  1
  O  O21  1  0.94708500  0.51118500  0.09281800  1
  O  O22  1  0.16259100  0.80519200  0.83455500  1
  O  O23  1  0.30107200  0.72242300  0.66800000  1
  O  O24  1  0.53752400  0.27521300  0.66880500  1
  O  O25  1  0.85089400  0.78602500  0.50255600  1
  O  O26  1  0.48177600  0.70634500  0.33068800  1
  O  O27  1  0.17765400  0.20887500  0.49950700  1
  O  O28  1  0.04008300  0.78729500  0.16712100  1
  O  O29  1  0.66627300  0.29091300  0.33262000  1
  O  O30  1  0.04192700  0.49846800  0.90693200  1
  O  O31  1  0.39273400  0.99313600  0.73366100  1
  O  O32  1  0.78085900  0.00159000  0.93294600  1
  O  O33  1  0.11663200  0.49710000  0.76013100  1
  O  O34  1  0.87236100  0.99945900  0.74207300  1
  O  O35  1  0.22144600  0.49516800  0.57318900  1
  O  O36  1  0.28429600  0.51146300  0.42487900  1
  O  O37  1  0.62303900  0.00259200  0.25776800  1
  O  O38  1  0.99277300  0.19224000  0.83327200  1
  O  O39  1  0.81197200  0.72088700  0.66677000  1
  O  O40  1  0.45515500  0.22219200  0.83556600  1
  O  O41  1  0.35833100  0.79126200  0.50156500  1
  O  O42  1  0.02260700  0.27409900  0.66959100  1
  O  O43  1  0.54786400  0.49550800  0.89888900  1
  O  O44  1  0.60566600  0.50308200  0.77545600  1
  O  O45  1  0.95311000  0.00493000  0.59391400  1
  O  O46  1  0.70025100  0.77552400  0.83640400  1
  O  O47  1  0.26200300  0.99980600  0.92756600  1
loop_
_geom_bond_atom_site_label_1
_geom_bond_atom_site_label_2
_geom_bond_distance
_geom_bond_site_symmetry_2
Co0 O4 1.999802 1_545
Co0 O2 2.040340 1_544
Co0 O12 2.053834 1_555
Co0 O7 2.058213 1_555
Co0 O32 2.085426 1_554
Co0 O47 2.148260 1_544
Co1 O4 1.999369 1_545
Co1 O37 2.012288 1_555
Co1 O11 2.106203 1_555
Co1 O13 2.107960 1_555
Co1 O0 2.118182 1_545
Co1 O28 2.153027 1_645
Co2 O39 2.062829 1_555
Co2 O23 2.076757 1_555
Co2 O24 2.082631 1_555
Co2 O42 2.100160 1_655
Co2 O15 2.149733 1_555
Co2 O44 2.227366 1_555
Co3 O16 2.066042 1_555
Co3 O45 2.078747 1_455
Co3 O41 2.079848 1_545
Co3 O25 2.102861 1_445
Co3 O27 2.118600 1_555
Co3 O8 2.121370 1_455
Co4 O20 2.021023 1_555
Co4 O18 2.049497 1_555
Co4 O26 2.093559 1_555
Co4 O29 2.104004 1_555
Co4 O10 2.116580 1_655
Co4 O9 2.130051 1_555
Co5 O30 1.903617 1_655
Co5 O21 1.910594 1_556
Co5 O2 2.067329 1_555
Co5 O12 2.071687 1_656
Co5 O14 2.088559 1_655
Co5 O1 2.097611 1_555
Co6 O35 1.916858 1_555
Co6 O33 1.919384 1_555
Co6 O24 2.072849 1_555
Co6 O42 2.072900 1_555
Co6 O23 2.108905 1_555
Co6 O39 2.113525 1_455
O0 Re2 1.959860 1_555
O0 Re9 1.965812 1_555
O1 Re3 1.946859 1_555
O1 Re0 1.956285 1_646
O2 Re3 1.857445 1_555
O3 Re1 2.020652 1_555
O3 Re9 2.073132 1_555
O3 Re5 2.083611 1_555
O4 Re0 1.895427 1_655
O5 Re2 2.051350 1_545
O5 Re4 2.078739 1_455
O5 Re11 2.080471 1_545
O6 Re3 2.090018 1_554
O6 Re9 2.097017 1_555
O6 Re5 2.100384 1_555
O7 Re0 1.939888 1_545
O7 Re2 1.958678 1_545
O8 Re8 1.937400 1_555
O8 Re6 1.950938 1_545
O9 Re1 1.943432 1_655
O9 Re4 1.943832 1_565
O10 Re11 1.940025 1_545
O10 Re1 1.945822 1_555
O11 Re5 1.945886 1_555
O11 Re2 1.970035 1_545
O12 Re3 1.856416 1_554
O13 Re9 1.931220 1_555
O13 Re2 1.951864 1_645
O14 Re0 1.950493 1_556
O14 Re3 1.963758 1_555
O15 Re8 2.021020 1_555
O15 Re14 2.027734 1_655
O16 Re11 2.018656 1_545
O16 Re4 2.023708 1_455
O17 Re6 2.030610 1_555
O17 Re15 2.063563 1_555
O17 Re7 2.081857 1_555
O18 Re14 2.015878 1_655
O18 Re8 2.017003 1_555
O19 Re6 1.974178 1_555
O19 Re4 2.020557 1_565
O19 Re11 2.025825 1_555
O20 Re5 1.978292 1_655
O20 Re9 1.996945 1_555
O21 Re9 1.968907 1_555
O21 Re5 1.973343 1_655
O22 Re16 2.000247 1_555
O22 Re12 2.028262 1_465
O22 Re10 2.079487 1_555
O23 Re7 1.862644 1_555
O24 Re15 1.871632 1_545
O25 Re6 1.955808 1_555
O25 Re14 1.956264 1_655
O26 Re1 1.964723 1_555
O26 Re11 1.968306 1_555
O27 Re14 1.943092 1_555
O27 Re6 1.960004 1_545
O28 Re5 1.935507 1_555
O28 Re2 1.936899 1_555
O29 Re4 1.953256 1_555
O29 Re1 1.967321 1_555
O30 Re16 1.972754 1_555
O30 Re13 1.974119 1_455
O31 Re10 2.076035 1_555
O31 Re15 2.088662 1_555
O31 Re7 2.109303 1_555
O32 Re12 1.929725 1_555
O32 Re0 2.015715 1_646
O33 Re16 1.980010 1_555
O33 Re13 1.983244 1_455
O34 Re15 1.988929 1_555
O34 Re12 1.996484 1_565
O34 Re7 2.023524 1_655
O35 Re14 1.979589 1_555
O35 Re8 1.981753 1_555
O36 Re1 1.977476 1_555
O36 Re14 2.023293 1_555
O36 Re8 2.033726 1_555
O37 Re4 1.981723 1_555
O37 Re11 1.991076 1_545
O38 Re13 2.004562 1_555
O38 Re10 2.035105 1_645
O38 Re12 2.070171 1_555
O39 Re15 1.870933 1_555
O40 Re16 1.932573 1_555
O40 Re10 1.979028 1_545
O40 Re12 2.004625 1_555
O41 Re6 1.967845 1_555
O41 Re8 1.969216 1_555
O42 Re7 1.862113 1_545
O43 Re3 2.063064 1_555
O43 Re13 2.086027 1_555
O43 Re16 2.090255 1_555
O44 Re13 2.000696 1_555
O44 Re16 2.003953 1_555
O45 Re15 1.972797 1_545
O45 Re7 1.988394 1_645
O46 Re13 1.930810 1_555
O46 Re12 1.980879 1_565
O46 Re10 2.003068 1_555
O47 Re10 1.920282 1_555
O47 Re0 1.972229 1_556
