# generated using pymatgen
data_KCa4Si8H16O28F
_symmetry_space_group_name_H-M   'P 1'
_cell_length_a   9.96822500
_cell_length_b   9.96822500
_cell_length_c   12.42281300
_cell_angle_alpha   90.00000000
_cell_angle_beta   90.00000000
_cell_angle_gamma   90.00000000
_symmetry_Int_Tables_number   1
_chemical_formula_structural   KCa4Si8H16O28F
_chemical_formula_sum   'K2 Ca8 Si16 H32 O56 F2'
_cell_volume   1234.39914504
_cell_formula_units_Z   2
loop_
 _symmetry_equiv_pos_site_id
 _symmetry_equiv_pos_as_xyz
  1  'x, y, z'
loop_
 _atom_site_type_symbol
 _atom_site_label
 _atom_site_symmetry_multiplicity
 _atom_site_fract_x
 _atom_site_fract_y
 _atom_site_fract_z
 _atom_site_occupancy
  K  K0  1  0.50000000  0.50000000  0.00000000  1
  K  K1  1  0.00000000  0.00000000  0.50000000  1
  Ca  Ca0  1  0.70995100  0.70413000  0.00000000  1
  Ca  Ca1  1  0.20413000  0.20995100  0.50000000  1
  Ca  Ca2  1  0.29587000  0.70995100  0.00000000  1
  Ca  Ca3  1  0.20995100  0.79587000  0.50000000  1
  Ca  Ca4  1  0.79587000  0.79004900  0.50000000  1
  Ca  Ca5  1  0.29004900  0.29587000  0.00000000  1
  Ca  Ca6  1  0.79004900  0.20413000  0.50000000  1
  Ca  Ca7  1  0.70413000  0.29004900  0.00000000  1
  Si  Si0  1  0.54345600  0.71385300  0.24330800  1
  Si  Si1  1  0.78614700  0.95654400  0.25669200  1
  Si  Si2  1  0.71385300  0.45654400  0.24330800  1
  Si  Si3  1  0.04345600  0.78614700  0.74330800  1
  Si  Si4  1  0.78614700  0.95654400  0.74330800  1
  Si  Si5  1  0.71385300  0.45654400  0.75669200  1
  Si  Si6  1  0.95654400  0.21385300  0.25669200  1
  Si  Si7  1  0.54345600  0.71385300  0.75669200  1
  Si  Si8  1  0.21385300  0.04345600  0.74330800  1
  Si  Si9  1  0.95654400  0.21385300  0.74330800  1
  Si  Si10  1  0.21385300  0.04345600  0.25669200  1
  Si  Si11  1  0.45654400  0.28614700  0.75669200  1
  Si  Si12  1  0.04345600  0.78614700  0.25669200  1
  Si  Si13  1  0.28614700  0.54345600  0.75669200  1
  Si  Si14  1  0.28614700  0.54345600  0.24330800  1
  Si  Si15  1  0.45654400  0.28614700  0.24330800  1
  H  H0  1  0.89852200  0.43524700  0.60031600  1
  H  H1  1  0.43524700  0.10147800  0.39968400  1
  H  H2  1  0.41096400  0.67780900  0.46911400  1
  H  H3  1  0.39852200  0.06475300  0.89968400  1
  H  H4  1  0.82219100  0.08903600  0.03088600  1
  H  H5  1  0.91096400  0.82219100  0.03088600  1
  H  H6  1  0.43524700  0.10147800  0.60031600  1
  H  H7  1  0.58903600  0.32219100  0.46911400  1
  H  H8  1  0.56475300  0.89852200  0.60031600  1
  H  H9  1  0.82219100  0.08903600  0.96911400  1
  H  H10  1  0.10147800  0.56475300  0.39968400  1
  H  H11  1  0.17780900  0.91096400  0.96911400  1
  H  H12  1  0.06475300  0.60147800  0.10031600  1
  H  H13  1  0.67780900  0.58903600  0.53088600  1
  H  H14  1  0.08903600  0.17780900  0.96911400  1
  H  H15  1  0.39852200  0.06475300  0.10031600  1
  H  H16  1  0.91096400  0.82219100  0.96911400  1
  H  H17  1  0.32219100  0.41096400  0.46911400  1
  H  H18  1  0.93524700  0.39852200  0.89968400  1
  H  H19  1  0.60147800  0.93524700  0.89968400  1
  H  H20  1  0.89852200  0.43524700  0.39968400  1
  H  H21  1  0.56475300  0.89852200  0.39968400  1
  H  H22  1  0.67780900  0.58903600  0.46911400  1
  H  H23  1  0.10147800  0.56475300  0.60031600  1
  H  H24  1  0.32219100  0.41096400  0.53088600  1
  H  H25  1  0.93524700  0.39852200  0.10031600  1
  H  H26  1  0.60147800  0.93524700  0.10031600  1
  H  H27  1  0.06475300  0.60147800  0.89968400  1
  H  H28  1  0.58903600  0.32219100  0.53088600  1
  H  H29  1  0.41096400  0.67780900  0.53088600  1
  H  H30  1  0.17780900  0.91096400  0.03088600  1
  H  H31  1  0.08903600  0.17780900  0.03088600  1
  O  O0  1  0.02379600  0.77638200  0.38778700  1
  O  O1  1  0.66162000  0.60771500  0.71755700  1
  O  O2  1  0.83838000  0.10771500  0.78244300  1
  O  O3  1  0.69820000  0.93878600  0.11178500  1
  O  O4  1  0.22361800  0.02379600  0.38778700  1
  O  O5  1  0.47620400  0.27638200  0.11221300  1
  O  O6  1  0.19820000  0.56121400  0.61178500  1
  O  O7  1  0.27638200  0.52379600  0.88778700  1
  O  O8  1  0.66162000  0.60771500  0.28244300  1
  O  O9  1  0.93878600  0.30180000  0.11178500  1
  O  O10  1  0.97620400  0.22361800  0.61221300  1
  O  O11  1  0.37391600  0.12608400  0.75000000  1
  O  O12  1  0.72361800  0.47620400  0.88778700  1
  O  O13  1  0.06121400  0.69820000  0.88821500  1
  O  O14  1  0.97620400  0.22361800  0.38778700  1
  O  O15  1  0.12608400  0.62608400  0.75000000  1
  O  O16  1  0.52379600  0.72361800  0.11221300  1
  O  O17  1  0.87391600  0.37391600  0.25000000  1
  O  O18  1  0.37391600  0.12608400  0.25000000  1
  O  O19  1  0.87391600  0.37391600  0.75000000  1
  O  O20  1  0.22361800  0.02379600  0.61221300  1
  O  O21  1  0.39228500  0.66162000  0.71755700  1
  O  O22  1  0.16162000  0.89228500  0.78244300  1
  O  O23  1  0.33838000  0.39228500  0.71755700  1
  O  O24  1  0.83838000  0.10771500  0.21755700  1
  O  O25  1  0.16162000  0.89228500  0.21755700  1
  O  O26  1  0.93878600  0.30180000  0.88821500  1
  O  O27  1  0.02379600  0.77638200  0.61221300  1
  O  O28  1  0.69820000  0.93878600  0.88821500  1
  O  O29  1  0.06121400  0.69820000  0.11178500  1
  O  O30  1  0.30180000  0.06121400  0.88821500  1
  O  O31  1  0.62608400  0.87391600  0.25000000  1
  O  O32  1  0.12608400  0.62608400  0.25000000  1
  O  O33  1  0.39228500  0.66162000  0.28244300  1
  O  O34  1  0.77638200  0.97620400  0.38778700  1
  O  O35  1  0.62608400  0.87391600  0.75000000  1
  O  O36  1  0.80180000  0.43878600  0.61178500  1
  O  O37  1  0.30180000  0.06121400  0.11178500  1
  O  O38  1  0.52379600  0.72361800  0.88778700  1
  O  O39  1  0.19820000  0.56121400  0.38821500  1
  O  O40  1  0.89228500  0.83838000  0.21755700  1
  O  O41  1  0.89228500  0.83838000  0.78244300  1
  O  O42  1  0.43878600  0.19820000  0.38821500  1
  O  O43  1  0.56121400  0.80180000  0.61178500  1
  O  O44  1  0.60771500  0.33838000  0.28244300  1
  O  O45  1  0.72361800  0.47620400  0.11221300  1
  O  O46  1  0.10771500  0.16162000  0.21755700  1
  O  O47  1  0.33838000  0.39228500  0.28244300  1
  O  O48  1  0.10771500  0.16162000  0.78244300  1
  O  O49  1  0.27638200  0.52379600  0.11221300  1
  O  O50  1  0.43878600  0.19820000  0.61178500  1
  O  O51  1  0.60771500  0.33838000  0.71755700  1
  O  O52  1  0.77638200  0.97620400  0.61221300  1
  O  O53  1  0.47620400  0.27638200  0.88778700  1
  O  O54  1  0.56121400  0.80180000  0.38821500  1
  O  O55  1  0.80180000  0.43878600  0.38821500  1
  F  F0  1  0.50000000  0.50000000  0.50000000  1
  F  F1  1  0.00000000  0.00000000  0.00000000  1
loop_
_geom_bond_atom_site_label_1
_geom_bond_atom_site_label_2
_geom_bond_distance
_geom_bond_site_symmetry_2
K0 O45 2.639750 1_555
K0 O49 2.639750 1_555
K0 O5 2.639750 1_555
K0 O53 2.639750 1_554
K0 O12 2.639750 1_554
K0 O7 2.639750 1_554
K0 O16 2.639750 1_555
K0 O38 2.639750 1_554
K1 O52 2.639750 1_445
K1 O34 2.639750 1_445
K1 O10 2.639750 1_455
K1 O14 2.639750 1_455
K1 O4 2.639750 1_555
K1 O20 2.639750 1_555
K1 O0 2.639750 1_545
K1 O27 2.639750 1_545
Ca0 O16 2.329025 1_555
Ca0 O38 2.329025 1_554
Ca0 H16 2.355250 1_554
Ca0 H5 2.355250 1_555
Ca0 O45 2.669057 1_555
Ca0 O12 2.669057 1_554
Ca0 O3 2.722787 1_555
Ca0 O28 2.722787 1_554
Ca1 O4 2.329025 1_555
Ca1 O20 2.329025 1_555
Ca1 H24 2.355250 1_555
Ca1 H17 2.355250 1_555
Ca1 O10 2.669057 1_455
Ca1 O14 2.669057 1_455
Ca1 O42 2.722787 1_555
Ca1 O50 2.722787 1_555
Ca2 O7 2.329025 1_554
Ca2 O49 2.329025 1_555
Ca2 H30 2.355250 1_555
Ca2 H11 2.355250 1_554
Ca2 O38 2.669057 1_554
Ca2 O16 2.669057 1_555
Ca2 O29 2.722787 1_555
Ca2 O13 2.722787 1_554
Ca3 O27 2.329025 1_555
Ca3 O0 2.329025 1_555
Ca3 H29 2.355250 1_555
Ca3 H2 2.355250 1_555
Ca3 O20 2.669057 1_565
Ca3 O4 2.669057 1_565
Ca3 O6 2.722787 1_555
Ca3 O39 2.722787 1_555
Ca4 O52 2.329025 1_555
Ca4 O34 2.329025 1_555
Ca4 H13 2.355250 1_555
Ca4 H22 2.355250 1_555
Ca4 O0 2.669057 1_655
Ca4 O27 2.669057 1_655
Ca4 O43 2.722787 1_555
Ca4 O54 2.722787 1_555
Ca5 O5 2.329025 1_555
Ca5 O53 2.329025 1_554
Ca5 H14 2.355250 1_554
Ca5 H31 2.355250 1_555
Ca5 O7 2.669057 1_554
Ca5 O49 2.669057 1_555
Ca5 O37 2.722787 1_555
Ca5 O30 2.722787 1_554
Ca6 O10 2.329025 1_555
Ca6 O14 2.329025 1_555
Ca6 H28 2.355250 1_555
Ca6 H7 2.355250 1_555
Ca6 O52 2.669057 1_545
Ca6 O34 2.669057 1_545
Ca6 O36 2.722787 1_555
Ca6 O55 2.722787 1_555
Ca7 O12 2.329025 1_554
Ca7 O45 2.329025 1_555
Ca7 H9 2.355250 1_554
Ca7 H4 2.355250 1_555
Ca7 O5 2.669057 1_555
Ca7 O53 2.669057 1_554
Ca7 O9 2.722787 1_555
Ca7 O26 2.722787 1_554
H0 O36 0.975255 1_555
H1 O42 0.975255 1_555
H2 H29 0.767382 1_555
H3 O30 0.975255 1_555
H4 H9 0.767382 1_554
H6 O50 0.975255 1_555
H8 O43 0.975255 1_555
H10 O39 0.975255 1_555
H11 H30 0.767382 1_556
H12 O29 0.975255 1_555
H13 H22 0.767382 1_555
H14 H31 0.767382 1_556
H15 O37 0.975255 1_555
H16 H5 0.767382 1_556
H17 H24 0.767382 1_555
H18 O26 0.975255 1_555
H19 O28 0.975255 1_555
H20 O55 0.975255 1_555
H21 O54 0.975255 1_555
H23 O6 0.975255 1_555
H25 O9 0.975255 1_555
H26 O3 0.975255 1_555
H27 O13 0.975255 1_555
H28 H7 0.767382 1_555
O0 Si12 1.643203 1_555
O1 Si7 1.656246 1_555
O1 Si5 1.666800 1_555
O2 Si9 1.656246 1_555
O2 Si4 1.666800 1_545
O3 Si1 2.010086 1_555
O4 Si10 1.643203 1_555
O5 Si15 1.643203 1_555
O6 Si13 2.010086 1_555
O7 Si13 1.643203 1_555
O8 Si0 1.656246 1_555
O8 Si2 1.666800 1_555
O9 Si6 2.010086 1_555
O10 Si9 1.643203 1_555
O11 Si11 1.797520 1_555
O11 Si8 1.797520 1_555
O12 Si5 1.643203 1_555
O13 Si3 2.010086 1_555
O14 Si6 1.643203 1_555
O15 Si13 1.797520 1_555
O15 Si3 1.797520 1_555
O16 Si0 1.643203 1_555
O17 Si6 1.797520 1_555
O17 Si2 1.797520 1_555
O18 Si15 1.797520 1_555
O18 Si10 1.797520 1_555
O19 Si9 1.797520 1_555
O19 Si5 1.797520 1_555
O20 Si8 1.643203 1_555
O21 Si13 1.656246 1_555
O21 Si7 1.666800 1_555
O22 Si3 1.656246 1_555
O22 Si8 1.666800 1_565
O23 Si11 1.656246 1_555
O23 Si13 1.666800 1_555
O24 Si6 1.656246 1_555
O24 Si1 1.666800 1_545
O25 Si12 1.656246 1_555
O25 Si10 1.666800 1_565
O26 Si9 2.010086 1_555
O27 Si3 1.643203 1_555
O28 Si4 2.010086 1_555
O29 Si12 2.010086 1_555
O30 Si8 2.010086 1_555
O31 Si0 1.797520 1_555
O31 Si1 1.797520 1_555
O32 Si14 1.797520 1_555
O32 Si12 1.797520 1_555
O33 Si14 1.656246 1_555
O33 Si0 1.666800 1_555
O34 Si1 1.643203 1_555
O35 Si7 1.797520 1_555
O35 Si4 1.797520 1_555
O36 Si5 2.010086 1_555
O37 Si10 2.010086 1_555
O38 Si7 1.643203 1_555
O39 Si14 2.010086 1_555
O40 Si1 1.656246 1_555
O40 Si12 1.666800 1_655
O41 Si4 1.656246 1_555
O41 Si3 1.666800 1_655
O42 Si15 2.010086 1_555
O43 Si7 2.010086 1_555
O44 Si2 1.656246 1_555
O44 Si15 1.666800 1_555
O45 Si2 1.643203 1_555
O46 Si10 1.656246 1_555
O46 Si6 1.666800 1_455
O47 Si15 1.656246 1_555
O47 Si14 1.666800 1_555
O48 Si8 1.656246 1_555
O48 Si9 1.666800 1_455
O49 Si14 1.643203 1_555
O50 Si11 2.010086 1_555
O51 Si5 1.656246 1_555
O51 Si11 1.666800 1_555
O52 Si4 1.643203 1_555
O53 Si11 1.643203 1_555
O54 Si0 2.010086 1_555
O55 Si2 2.010086 1_555
