# generated using pymatgen
data_Co6Ge2(CO)19
_symmetry_space_group_name_H-M   'P 1'
_cell_length_a   11.07788801
_cell_length_b   11.07788801
_cell_length_c   26.66706100
_cell_angle_alpha   90.00000000
_cell_angle_beta   90.00000000
_cell_angle_gamma   109.12174509
_symmetry_Int_Tables_number   1
_chemical_formula_structural   Co6Ge2(CO)19
_chemical_formula_sum   'Co24 Ge8 C76 O76'
_cell_volume   3092.00590088
_cell_formula_units_Z   4
loop_
 _symmetry_equiv_pos_site_id
 _symmetry_equiv_pos_as_xyz
  1  'x, y, z'
loop_
 _atom_site_type_symbol
 _atom_site_label
 _atom_site_symmetry_multiplicity
 _atom_site_fract_x
 _atom_site_fract_y
 _atom_site_fract_z
 _atom_site_occupancy
  Co  Co0  1  0.20283800  0.20283800  0.94193100  1
  Co  Co1  1  0.04897100  0.48412000  0.88397600  1
  Co  Co2  1  0.70283800  0.70283800  0.55806900  1
  Co  Co3  1  0.69753000  0.69753000  0.19340200  1
  Co  Co4  1  0.19753000  0.19753000  0.30659800  1
  Co  Co5  1  0.11149100  0.11149100  0.40213200  1
  Co  Co6  1  0.95102900  0.51588000  0.11602400  1
  Co  Co7  1  0.11443300  0.11443300  0.85053300  1
  Co  Co8  1  0.01588000  0.45102900  0.38397600  1
  Co  Co9  1  0.45102900  0.01588000  0.38397600  1
  Co  Co10  1  0.98412000  0.54897100  0.61602400  1
  Co  Co11  1  0.61443300  0.61443300  0.64946700  1
  Co  Co12  1  0.51588000  0.95102900  0.11602400  1
  Co  Co13  1  0.61149100  0.61149100  0.09786800  1
  Co  Co14  1  0.54897100  0.98412000  0.61602400  1
  Co  Co15  1  0.38556700  0.38556700  0.35053300  1
  Co  Co16  1  0.29716200  0.29716200  0.44193100  1
  Co  Co17  1  0.48412000  0.04897100  0.88397600  1
  Co  Co18  1  0.88556700  0.88556700  0.14946700  1
  Co  Co19  1  0.30247000  0.30247000  0.80659800  1
  Co  Co20  1  0.38850900  0.38850900  0.90213200  1
  Co  Co21  1  0.79716200  0.79716200  0.05806900  1
  Co  Co22  1  0.80247000  0.80247000  0.69340200  1
  Co  Co23  1  0.88850900  0.88850900  0.59786800  1
  Ge  Ge0  1  0.16129600  0.32868000  0.37542000  1
  Ge  Ge1  1  0.17132000  0.33870400  0.87542000  1
  Ge  Ge2  1  0.82868000  0.66129600  0.12458000  1
  Ge  Ge3  1  0.67132000  0.83870400  0.62458000  1
  Ge  Ge4  1  0.66129600  0.82868000  0.12458000  1
  Ge  Ge5  1  0.83870400  0.67132000  0.62458000  1
  Ge  Ge6  1  0.33870400  0.17132000  0.87542000  1
  Ge  Ge7  1  0.32868000  0.16129600  0.37542000  1
  C  C0  1  0.36524100  0.51523400  0.31737300  1
  C  C1  1  0.48476600  0.63475900  0.68262700  1
  C  C2  1  0.65110600  0.80032000  0.23402200  1
  C  C3  1  0.41880000  0.83968500  0.61228100  1
  C  C4  1  0.94883200  0.09936700  0.40633700  1
  C  C5  1  0.19968000  0.34889400  0.76597800  1
  C  C6  1  0.08858400  0.45690300  0.61747600  1
  C  C7  1  0.46617000  0.46617000  0.40390300  1
  C  C8  1  0.16031500  0.58120000  0.38771900  1
  C  C9  1  0.73732000  0.58301300  0.52269900  1
  C  C10  1  0.87867800  0.46982000  0.05624000  1
  C  C11  1  0.43862400  0.43862400  0.80656800  1
  C  C12  1  0.66031500  0.08120000  0.11228100  1
  C  C13  1  0.05116800  0.90063300  0.59366300  1
  C  C14  1  0.14477600  0.56542500  0.83314900  1
  C  C15  1  0.41698700  0.26268000  0.47730100  1
  C  C16  1  0.58301300  0.73732000  0.52269900  1
  C  C17  1  0.40063300  0.55116800  0.90633700  1
  C  C18  1  0.30032000  0.15110600  0.26597800  1
  C  C19  1  0.51523400  0.36524100  0.31737300  1
  C  C20  1  0.58858400  0.95690300  0.88252400  1
  C  C21  1  0.53383000  0.53383000  0.59609700  1
  C  C22  1  0.34098800  0.34098800  0.96902300  1
  C  C23  1  0.37867800  0.96982000  0.44376000  1
  C  C24  1  0.98476600  0.13475900  0.81737300  1
  C  C25  1  0.08301300  0.23732000  0.97730100  1
  C  C26  1  0.83968500  0.41880000  0.61228100  1
  C  C27  1  0.46982000  0.87867800  0.05624000  1
  C  C28  1  0.93862400  0.93862400  0.69343200  1
  C  C29  1  0.41141600  0.04309700  0.11747600  1
  C  C30  1  0.91880000  0.33968500  0.88771900  1
  C  C31  1  0.85522400  0.43457500  0.16685100  1
  C  C32  1  0.64477600  0.06542500  0.66685100  1
  C  C33  1  0.56542500  0.14477600  0.83314900  1
  C  C34  1  0.69968000  0.84889400  0.73402200  1
  C  C35  1  0.53018000  0.12132200  0.94376000  1
  C  C36  1  0.23732000  0.08301300  0.97730100  1
  C  C37  1  0.13475900  0.98476600  0.81737300  1
  C  C38  1  0.65901200  0.65901200  0.03097700  1
  C  C39  1  0.08120000  0.66031500  0.11228100  1
  C  C40  1  0.01523400  0.86524100  0.18262700  1
  C  C41  1  0.12132200  0.53018000  0.94376000  1
  C  C42  1  0.90063300  0.05116800  0.59366300  1
  C  C43  1  0.15901200  0.15901200  0.46902300  1
  C  C44  1  0.84098800  0.84098800  0.53097700  1
  C  C45  1  0.55116800  0.40063300  0.90633700  1
  C  C46  1  0.76268000  0.91698700  0.02269900  1
  C  C47  1  0.56137600  0.56137600  0.19343200  1
  C  C48  1  0.15110600  0.30032000  0.26597800  1
  C  C49  1  0.96617000  0.96617000  0.09609700  1
  C  C50  1  0.91698700  0.76268000  0.02269900  1
  C  C51  1  0.45690300  0.08858400  0.61747600  1
  C  C52  1  0.58120000  0.16031500  0.38771900  1
  C  C53  1  0.04309700  0.41141600  0.11747600  1
  C  C54  1  0.43457500  0.85522400  0.16685100  1
  C  C55  1  0.86524100  0.01523400  0.18262700  1
  C  C56  1  0.33968500  0.91880000  0.88771900  1
  C  C57  1  0.95690300  0.58858400  0.88252400  1
  C  C58  1  0.63475900  0.48476600  0.68262700  1
  C  C59  1  0.54309700  0.91141600  0.38252400  1
  C  C60  1  0.93457500  0.35522400  0.33314900  1
  C  C61  1  0.06542500  0.64477600  0.66685100  1
  C  C62  1  0.03383000  0.03383000  0.90390300  1
  C  C63  1  0.84889400  0.69968000  0.73402200  1
  C  C64  1  0.91141600  0.54309700  0.38252400  1
  C  C65  1  0.96982000  0.37867800  0.44376000  1
  C  C66  1  0.35522400  0.93457500  0.33314900  1
  C  C67  1  0.09936700  0.94883200  0.40633700  1
  C  C68  1  0.03018000  0.62132200  0.55624000  1
  C  C69  1  0.34889400  0.19968000  0.76597800  1
  C  C70  1  0.80032000  0.65110600  0.23402200  1
  C  C71  1  0.26268000  0.41698700  0.47730100  1
  C  C72  1  0.59936700  0.44883200  0.09366300  1
  C  C73  1  0.62132200  0.03018000  0.55624000  1
  C  C74  1  0.06137600  0.06137600  0.30656800  1
  C  C75  1  0.44883200  0.59936700  0.09366300  1
  O  O0  1  0.63808800  0.39773400  0.70609600  1
  O  O1  1  0.12548600  0.36370100  0.23595700  1
  O  O2  1  0.87757300  0.87757300  0.49026200  1
  O  O3  1  0.65986300  0.90093700  0.88102300  1
  O  O4  1  0.74600700  0.33462400  0.60594500  1
  O  O5  1  0.16537600  0.75399200  0.10594500  1
  O  O6  1  0.04309500  0.04309500  0.07276900  1
  O  O7  1  0.54309500  0.54309500  0.42723100  1
  O  O8  1  0.12622300  0.70890000  0.69813600  1
  O  O9  1  0.97309800  0.97309800  0.29681500  1
  O  O10  1  0.41661500  0.65999500  0.90831500  1
  O  O11  1  0.13808800  0.89773400  0.79390400  1
  O  O12  1  0.62548600  0.86370100  0.26404300  1
  O  O13  1  0.84000500  0.08338500  0.40831500  1
  O  O14  1  0.06211000  0.66667500  0.51738000  1
  O  O15  1  0.75399200  0.16537600  0.10594500  1
  O  O16  1  0.15986300  0.40093700  0.61897700  1
  O  O17  1  0.86191200  0.10226600  0.20609600  1
  O  O18  1  0.24600700  0.83462400  0.89405500  1
  O  O19  1  0.87377700  0.29110000  0.30186400  1
  O  O20  1  0.79110000  0.37377700  0.19813600  1
  O  O21  1  0.36370100  0.12548600  0.23595700  1
  O  O22  1  0.33462400  0.74600800  0.60594500  1
  O  O23  1  0.95690500  0.95690500  0.92723100  1
  O  O24  1  0.62242700  0.62242700  0.99026200  1
  O  O25  1  0.56211000  0.16667500  0.98262000  1
  O  O26  1  0.63629900  0.87451400  0.76404300  1
  O  O27  1  0.37757300  0.37757300  0.00973800  1
  O  O28  1  0.00656600  0.25677600  0.00282000  1
  O  O29  1  0.60226600  0.36191200  0.29390400  1
  O  O30  1  0.83332500  0.43789000  0.01738000  1
  O  O31  1  0.91661500  0.15999500  0.59168500  1
  O  O32  1  0.84013700  0.59906300  0.38102300  1
  O  O33  1  0.29110000  0.87377700  0.30186400  1
  O  O34  1  0.86370100  0.62548600  0.26404300  1
  O  O35  1  0.70890000  0.12622300  0.69813600  1
  O  O36  1  0.62622300  0.20890000  0.80186400  1
  O  O37  1  0.89773400  0.13808800  0.79390400  1
  O  O38  1  0.08338500  0.84000500  0.40831500  1
  O  O39  1  0.99343400  0.74322400  0.99718000  1
  O  O40  1  0.33332500  0.93789000  0.48262000  1
  O  O41  1  0.13629900  0.37451400  0.73595700  1
  O  O42  1  0.75677600  0.50656600  0.49718000  1
  O  O43  1  0.90093700  0.65986300  0.88102300  1
  O  O44  1  0.83462400  0.24600800  0.89405500  1
  O  O45  1  0.15999500  0.91661500  0.59168500  1
  O  O46  1  0.52690200  0.52690200  0.79681500  1
  O  O47  1  0.12242700  0.12242700  0.50973800  1
  O  O48  1  0.34000500  0.58338500  0.09168500  1
  O  O49  1  0.74322400  0.99343400  0.99718000  1
  O  O50  1  0.25399200  0.66537600  0.39405500  1
  O  O51  1  0.10226600  0.86191200  0.20609600  1
  O  O52  1  0.93789000  0.33332500  0.48262000  1
  O  O53  1  0.50656600  0.75677600  0.49718000  1
  O  O54  1  0.87451400  0.63629900  0.76404300  1
  O  O55  1  0.16667500  0.56211000  0.98262000  1
  O  O56  1  0.20890000  0.62622300  0.80186400  1
  O  O57  1  0.37377700  0.79110000  0.19813600  1
  O  O58  1  0.37451400  0.13629900  0.73595700  1
  O  O59  1  0.49343400  0.24322400  0.50282000  1
  O  O60  1  0.65999500  0.41661500  0.90831500  1
  O  O61  1  0.34013700  0.09906300  0.11897700  1
  O  O62  1  0.58338500  0.34000500  0.09168500  1
  O  O63  1  0.25677600  0.00656600  0.00282000  1
  O  O64  1  0.40093700  0.15986300  0.61897700  1
  O  O65  1  0.66537600  0.25399200  0.39405500  1
  O  O66  1  0.47309800  0.47309800  0.20318500  1
  O  O67  1  0.66667500  0.06211000  0.51738000  1
  O  O68  1  0.43789000  0.83332500  0.01738000  1
  O  O69  1  0.09906300  0.34013700  0.11897700  1
  O  O70  1  0.36191200  0.60226600  0.29390400  1
  O  O71  1  0.39773400  0.63808800  0.70609600  1
  O  O72  1  0.24322400  0.49343400  0.50282000  1
  O  O73  1  0.59906300  0.84013700  0.38102300  1
  O  O74  1  0.45690500  0.45690500  0.57276900  1
  O  O75  1  0.02690200  0.02690200  0.70318500  1
loop_
_geom_bond_atom_site_label_1
_geom_bond_atom_site_label_2
_geom_bond_distance
_geom_bond_site_symmetry_2
Co0 Ge1 2.424334 1_555
Co0 Ge6 2.424334 1_555
Co1 Ge1 2.431980 1_555
Co2 Ge5 2.424334 1_555
Co2 Ge3 2.424334 1_555
Co3 Ge4 2.454029 1_555
Co3 Ge2 2.454029 1_555
Co4 Ge0 2.454029 1_555
Co4 Ge7 2.454029 1_555
Co5 Ge0 2.393939 1_555
Co5 Ge7 2.393939 1_555
Co6 Ge2 2.431980 1_555
Co7 Ge6 2.446287 1_555
Co7 Ge1 2.446287 1_555
Co8 Ge0 2.431980 1_555
Co9 Ge7 2.431980 1_555
Co10 Ge5 2.431980 1_555
Co11 Ge3 2.446287 1_555
Co11 Ge5 2.446287 1_555
Co12 Ge4 2.431980 1_555
Co13 Ge2 2.393939 1_555
Co13 Ge4 2.393939 1_555
Co14 Ge3 2.431980 1_555
Co15 Ge7 2.446287 1_555
Co15 Ge0 2.446287 1_555
Co16 Ge7 2.424334 1_555
Co16 Ge0 2.424334 1_555
Co17 Ge6 2.431980 1_555
Co18 Ge4 2.446287 1_555
Co18 Ge2 2.446287 1_555
Co19 Ge6 2.454029 1_555
Co19 Ge1 2.454029 1_555
Co20 Ge6 2.393939 1_555
Co20 Ge1 2.393939 1_555
Co21 Ge4 2.424334 1_555
Co21 Ge2 2.424334 1_555
Co22 Ge3 2.454029 1_555
Co22 Ge5 2.454029 1_555
Co23 Ge5 2.393939 1_555
Co23 Ge3 2.393939 1_555
C0 O70 1.160125 1_555
C0 Co15 1.762925 1_555
C1 O71 1.160125 1_555
C1 Co11 1.762925 1_555
C2 O12 1.159744 1_555
C2 Co3 1.765824 1_555
C3 O22 1.158023 1_555
C3 Co14 1.771404 1_555
C4 O13 1.160904 1_555
C4 Co5 1.766060 1_655
C5 O41 1.159744 1_555
C5 Co19 1.765824 1_555
C6 O16 1.153350 1_555
C6 Co10 1.776010 1_455
C7 O7 1.167736 1_555
C7 Co15 1.760054 1_555
C8 O50 1.158023 1_555
C8 Co8 1.771404 1_555
C9 O42 1.160315 1_555
C9 Co2 1.769117 1_555
C10 O30 1.155417 1_555
C10 Co6 1.782272 1_555
C11 O46 1.163527 1_555
C11 Co19 1.749137 1_555
C12 O15 1.158023 1_555
C12 Co12 1.771404 1_545
C13 O45 1.160904 1_555
C13 Co23 1.766060 1_455
C14 O56 1.157930 1_555
C14 Co1 1.774398 1_555
C15 O59 1.160315 1_555
C15 Co16 1.769117 1_555
C16 O53 1.160315 1_555
C16 Co2 1.769117 1_555
C17 O10 1.160904 1_555
C17 Co20 1.766060 1_555
C18 O21 1.159744 1_555
C18 Co4 1.765824 1_555
C19 O29 1.160125 1_555
C19 Co15 1.762925 1_555
C20 O3 1.153350 1_555
C20 Co17 1.776010 1_565
C21 O74 1.167736 1_555
C21 Co11 1.760054 1_555
C22 O27 1.183110 1_556
C22 Co20 1.885363 1_555
C22 Co0 1.916193 1_555
C23 O40 1.155417 1_555
C23 Co9 1.782272 1_565
C24 O37 1.160125 1_555
C24 Co7 1.762925 1_655
C25 O28 1.160315 1_556
C25 Co0 1.769117 1_555
C26 O4 1.158030 1_555
C26 Co10 1.771404 1_555
C27 O68 1.155417 1_555
C27 Co12 1.782272 1_555
C28 O75 1.163527 1_665
C28 Co22 1.749137 1_555
C29 O61 1.153350 1_555
C29 Co12 1.776010 1_545
C30 O44 1.158023 1_555
C30 Co1 1.771404 1_655
C31 O20 1.157930 1_555
C31 Co6 1.774398 1_555
C32 O35 1.157930 1_555
C32 Co14 1.774398 1_545
C33 O36 1.157930 1_555
C33 Co17 1.774398 1_555
C34 O26 1.159744 1_555
C34 Co22 1.765824 1_555
C35 O25 1.155417 1_555
C35 Co17 1.782272 1_555
C36 O63 1.160315 1_556
C36 Co0 1.769117 1_555
C37 O11 1.160125 1_555
C37 Co7 1.762925 1_565
C38 O24 1.183110 1_554
C38 Co13 1.885363 1_555
C38 Co21 1.916193 1_555
C39 O5 1.158023 1_555
C39 Co6 1.771404 1_455
C40 O51 1.160125 1_555
C40 Co18 1.762925 1_455
C41 O55 1.155417 1_555
C41 Co1 1.782272 1_555
C42 O31 1.160904 1_555
C42 Co23 1.766060 1_545
C43 O47 1.183110 1_555
C43 Co5 1.885363 1_555
C43 Co16 1.916193 1_555
C44 O2 1.183110 1_555
C44 Co23 1.885363 1_555
C44 Co2 1.916193 1_555
C45 O60 1.160904 1_555
C45 Co20 1.766060 1_555
C46 O49 1.160315 1_554
C46 Co21 1.769117 1_555
C47 O66 1.163527 1_555
C47 Co3 1.749137 1_555
C48 O1 1.159744 1_555
C48 Co4 1.765824 1_555
C49 O6 1.167736 1_665
C49 Co18 1.760054 1_555
C50 O39 1.160315 1_554
C50 Co21 1.769117 1_555
C51 O64 1.153350 1_555
C51 Co14 1.776010 1_545
C52 O65 1.158023 1_555
C52 Co9 1.771404 1_555
C53 O69 1.153350 1_555
C53 Co6 1.776010 1_455
C54 O57 1.157930 1_555
C54 Co12 1.774398 1_555
C55 O17 1.160125 1_555
C55 Co18 1.762925 1_545
C56 O18 1.158030 1_555
C56 Co17 1.771404 1_565
C57 O43 1.153350 1_555
C57 Co1 1.776010 1_655
C58 O0 1.160125 1_555
C58 Co11 1.762925 1_555
C59 O73 1.153350 1_555
C59 Co9 1.776010 1_565
C60 O19 1.157930 1_555
C60 Co8 1.774398 1_655
C61 O8 1.157930 1_555
C61 Co10 1.774398 1_455
C62 O23 1.167736 1_445
C62 Co7 1.760054 1_555
C63 O54 1.159744 1_555
C63 Co22 1.765824 1_555
C64 O32 1.153350 1_555
C64 Co8 1.776010 1_655
C65 O52 1.155417 1_555
C65 Co8 1.782272 1_655
C66 O33 1.157930 1_555
C66 Co9 1.774398 1_565
C67 O38 1.160904 1_555
C67 Co5 1.766060 1_565
C68 O14 1.155417 1_555
C68 Co10 1.782272 1_455
C69 O58 1.159744 1_555
C69 Co19 1.765824 1_555
C70 O34 1.159744 1_555
C70 Co3 1.765824 1_555
C71 O72 1.160315 1_555
C71 Co16 1.769117 1_555
C72 O62 1.160904 1_555
C72 Co13 1.766060 1_555
C73 O67 1.155417 1_555
C73 Co14 1.782272 1_545
C74 O9 1.163527 1_445
C74 Co4 1.749137 1_555
C75 O48 1.160904 1_555
C75 Co13 1.766060 1_555
