# generated using pymatgen
data_Ta3In2Cl9
_symmetry_space_group_name_H-M   'P 1'
_cell_length_a   9.50687869
_cell_length_b   9.50687869
_cell_length_c   9.62489888
_cell_angle_alpha   74.85055169
_cell_angle_beta   74.85055169
_cell_angle_gamma   109.76603780
_symmetry_Int_Tables_number   1
_chemical_formula_structural   Ta3In2Cl9
_chemical_formula_sum   'Ta6 In4 Cl18'
_cell_volume   729.29311578
_cell_formula_units_Z   2
loop_
 _symmetry_equiv_pos_site_id
 _symmetry_equiv_pos_as_xyz
  1  'x, y, z'
loop_
 _atom_site_type_symbol
 _atom_site_label
 _atom_site_symmetry_multiplicity
 _atom_site_fract_x
 _atom_site_fract_y
 _atom_site_fract_z
 _atom_site_occupancy
  Ta  Ta0  1  0.77936600  0.96396907  0.14015945  1
  Ta  Ta1  1  0.10330784  0.10330784  0.13140000  1
  Ta  Ta2  1  0.89669216  0.89669216  0.86860000  1
  Ta  Ta3  1  0.03603093  0.22063400  0.85984055  1
  Ta  Ta4  1  0.96396907  0.77936600  0.14015945  1
  Ta  Ta5  1  0.22063400  0.03603093  0.85984055  1
  In  In0  1  0.23730878  0.54258831  0.33848064  1
  In  In1  1  0.54258831  0.23730878  0.33848064  1
  In  In2  1  0.45741169  0.76269122  0.66151936  1
  In  In3  1  0.76269122  0.45741169  0.66151936  1
  Cl  Cl0  1  0.50651422  0.08212583  0.67591417  1
  Cl  Cl1  1  0.68907507  0.68907507  0.33536850  1
  Cl  Cl2  1  0.23550990  0.23550990  0.29690978  1
  Cl  Cl3  1  0.07994784  0.85782249  0.32394813  1
  Cl  Cl4  1  0.61283837  0.83532384  0.01102942  1
  Cl  Cl5  1  0.92005216  0.14217751  0.67605187  1
  Cl  Cl6  1  0.08212583  0.50651422  0.67591417  1
  Cl  Cl7  1  0.77852326  0.22147674  -0.00000000  1
  Cl  Cl8  1  0.83532384  0.61283837  0.01102942  1
  Cl  Cl9  1  0.38716163  0.16467616  0.98897058  1
  Cl  Cl10  1  0.22147674  0.77852326  -0.00000000  1
  Cl  Cl11  1  0.49348578  0.91787417  0.32408583  1
  Cl  Cl12  1  0.91787417  0.49348578  0.32408583  1
  Cl  Cl13  1  0.76449010  0.76449010  0.70309022  1
  Cl  Cl14  1  0.31092493  0.31092493  0.66463150  1
  Cl  Cl15  1  0.14217751  0.92005216  0.67605187  1
  Cl  Cl16  1  0.85782249  0.07994784  0.32394813  1
  Cl  Cl17  1  0.16467616  0.38716163  0.98897058  1
loop_
_geom_bond_atom_site_label_1
_geom_bond_atom_site_label_2
_geom_bond_distance
_geom_bond_site_symmetry_2
Cl0 Ta5 2.643242 1_555
Cl0 In2 2.958769 1_545
Cl0 In1 3.068120 1_555
Cl1 Ta0 2.483961 1_555
Cl1 Ta4 2.483961 1_555
Cl2 Ta1 2.592583 1_555
Cl2 In0 3.043578 1_555
Cl2 In1 3.043578 1_555
Cl3 Ta4 2.460499 1_455
Cl3 Ta1 2.470666 1_565
Cl4 Ta0 2.461749 1_555
Cl4 Ta2 2.466869 1_554
Cl5 Ta3 2.460499 1_655
Cl5 Ta2 2.470666 1_545
Cl6 Ta3 2.643242 1_555
Cl6 In3 2.958769 1_455
Cl6 In0 3.068120 1_555
Cl7 Ta3 2.471002 1_654
Cl7 Ta0 2.471002 1_545
Cl8 Ta4 2.461749 1_555
Cl8 Ta2 2.466869 1_554
Cl9 Ta5 2.461749 1_555
Cl9 Ta1 2.466869 1_556
Cl10 Ta5 2.471002 1_564
Cl10 Ta4 2.471002 1_455
Cl11 Ta0 2.643242 1_555
Cl11 In1 2.958769 1_565
Cl11 In2 3.068120 1_555
Cl12 Ta4 2.643242 1_555
Cl12 In0 2.958769 1_655
Cl12 In3 3.068120 1_555
Cl13 Ta2 2.592583 1_555
Cl13 In2 3.043578 1_555
Cl13 In3 3.043578 1_555
Cl14 Ta5 2.483961 1_555
Cl14 Ta3 2.483961 1_555
Cl15 Ta5 2.460499 1_565
Cl15 Ta2 2.470666 1_455
Cl16 Ta0 2.460499 1_545
Cl16 Ta1 2.470666 1_655
Cl17 Ta3 2.461749 1_555
Cl17 Ta1 2.466869 1_556
