# generated using pymatgen
data_TaTcPb2
_symmetry_space_group_name_H-M   'P 1'
_cell_length_a   4.92716955
_cell_length_b   4.92716955
_cell_length_c   4.92716955
_cell_angle_alpha   60.00000000
_cell_angle_beta   60.00000000
_cell_angle_gamma   60.00000000
_symmetry_Int_Tables_number   1
_chemical_formula_structural   TaTcPb2
_chemical_formula_sum   'Ta1 Tc1 Pb2'
_cell_volume   84.58191687
_cell_formula_units_Z   1
loop_
 _symmetry_equiv_pos_site_id
 _symmetry_equiv_pos_as_xyz
  1  'x, y, z'
loop_
 _atom_site_type_symbol
 _atom_site_label
 _atom_site_symmetry_multiplicity
 _atom_site_fract_x
 _atom_site_fract_y
 _atom_site_fract_z
 _atom_site_occupancy
  Ta  Ta0  1  0.50000000  0.50000000  0.50000000  1
  Tc  Tc0  1  0.25000000  0.25000000  0.25000000  1
  Pb  Pb0  1  0.00000000  0.00000000  0.00000000  1
  Pb  Pb1  1  0.75000000  0.75000000  0.75000000  1
loop_
_geom_bond_atom_site_label_1
_geom_bond_atom_site_label_2
_geom_bond_distance
_geom_bond_site_symmetry_2
Ta0 Tc0 3.017263 1_555
Ta0 Tc0 3.017263 1_556
Ta0 Tc0 3.017263 1_565
Ta0 Tc0 3.017263 1_655
Pb0 Tc0 3.017263 1_455
Pb0 Tc0 3.017263 1_545
Pb0 Pb1 3.017263 1_544
Pb0 Pb1 3.017263 1_444
Pb0 Tc0 3.017263 1_555
Pb0 Pb1 3.017263 1_454
Pb0 Pb1 3.017263 1_445
Pb0 Tc0 3.017263 1_554
Pb1 Ta0 3.017263 1_565
Pb1 Ta0 3.017263 1_556
Pb1 Ta0 3.017263 1_555
Pb1 Ta0 3.017263 1_655
