# generated using pymatgen
data_K3Lu(SiO3)3
_symmetry_space_group_name_H-M   'P 1'
_cell_length_a   5.86784500
_cell_length_b   13.00990000
_cell_length_c   14.11711400
_cell_angle_alpha   90.00000000
_cell_angle_beta   90.00000000
_cell_angle_gamma   90.00000000
_symmetry_Int_Tables_number   1
_chemical_formula_structural   K3Lu(SiO3)3
_chemical_formula_sum   'K12 Lu4 Si12 O36'
_cell_volume   1077.70156506
_cell_formula_units_Z   4
loop_
 _symmetry_equiv_pos_site_id
 _symmetry_equiv_pos_as_xyz
  1  'x, y, z'
loop_
 _atom_site_type_symbol
 _atom_site_label
 _atom_site_symmetry_multiplicity
 _atom_site_fract_x
 _atom_site_fract_y
 _atom_site_fract_z
 _atom_site_occupancy
  K  K0  1  0.85713900  0.33611800  0.50000000  1
  K  K1  1  0.85614500  0.34835500  0.00000000  1
  K  K2  1  0.34109700  0.62621100  0.73515700  1
  K  K3  1  0.14385500  0.84835500  0.50000000  1
  K  K4  1  0.34556900  0.12154000  0.50000000  1
  K  K5  1  0.65890300  0.12621100  0.23515700  1
  K  K6  1  0.34109700  0.62621100  0.26484300  1
  K  K7  1  0.30384300  0.10709700  0.00000000  1
  K  K8  1  0.65890300  0.12621100  0.76484300  1
  K  K9  1  0.65443100  0.62154000  0.00000000  1
  K  K10  1  0.69615700  0.60709700  0.50000000  1
  K  K11  1  0.14286100  0.83611800  0.00000000  1
  Lu  Lu0  1  0.14481600  0.95932400  0.24298200  1
  Lu  Lu1  1  0.85518400  0.45932400  0.25701800  1
  Lu  Lu2  1  0.14481600  0.95932400  0.75701800  1
  Lu  Lu3  1  0.85518400  0.45932400  0.74298200  1
  Si  Si0  1  0.34897900  0.42011900  0.11588700  1
  Si  Si1  1  0.82989700  0.74370700  0.73302600  1
  Si  Si2  1  0.65102100  0.92011900  0.38411300  1
  Si  Si3  1  0.82989700  0.74370700  0.26697400  1
  Si  Si4  1  0.17010300  0.24370700  0.23302600  1
  Si  Si5  1  0.65484100  0.88246500  0.11182300  1
  Si  Si6  1  0.65102100  0.92011900  0.61588700  1
  Si  Si7  1  0.17010300  0.24370700  0.76697400  1
  Si  Si8  1  0.34515900  0.38246500  0.38817700  1
  Si  Si9  1  0.34515900  0.38246500  0.61182300  1
  Si  Si10  1  0.65484100  0.88246500  0.88817700  1
  Si  Si11  1  0.34897900  0.42011900  0.88411300  1
  O  O0  1  0.59398400  0.46906700  0.14500200  1
  O  O1  1  0.59215300  0.43442600  0.36899100  1
  O  O2  1  0.17445100  0.12198000  0.78718900  1
  O  O3  1  0.12739300  0.48452200  0.14909400  1
  O  O4  1  0.32876300  0.29582500  0.14660100  1
  O  O5  1  0.59398400  0.46906700  0.85499800  1
  O  O6  1  0.65772700  0.83775100  0.00000000  1
  O  O7  1  0.59215300  0.43442600  0.63100900  1
  O  O8  1  0.12739300  0.48452200  0.85090600  1
  O  O9  1  0.12688500  0.45502100  0.36866200  1
  O  O10  1  0.40784700  0.93442600  0.86899100  1
  O  O11  1  0.67123700  0.79582500  0.64660100  1
  O  O12  1  0.31562000  0.26812300  0.66679800  1
  O  O13  1  0.17445100  0.12198000  0.21281100  1
  O  O14  1  0.32876300  0.29582500  0.85339900  1
  O  O15  1  0.40601600  0.96906700  0.64500200  1
  O  O16  1  0.87311500  0.95502100  0.13133800  1
  O  O17  1  0.82554900  0.62198000  0.71281100  1
  O  O18  1  0.64956700  0.90716700  0.50000000  1
  O  O19  1  0.91895700  0.29419600  0.76434700  1
  O  O20  1  0.67123700  0.79582500  0.35339900  1
  O  O21  1  0.91895700  0.29419600  0.23565300  1
  O  O22  1  0.87311500  0.95502100  0.86866200  1
  O  O23  1  0.35043300  0.40716700  0.00000000  1
  O  O24  1  0.40784700  0.93442600  0.13100900  1
  O  O25  1  0.68438000  0.76812300  0.83320200  1
  O  O26  1  0.08104300  0.79419600  0.73565300  1
  O  O27  1  0.12688500  0.45502100  0.63133800  1
  O  O28  1  0.68438000  0.76812300  0.16679800  1
  O  O29  1  0.40601600  0.96906700  0.35499800  1
  O  O30  1  0.87260700  0.98452200  0.35090600  1
  O  O31  1  0.08104300  0.79419600  0.26434700  1
  O  O32  1  0.87260700  0.98452200  0.64909400  1
  O  O33  1  0.34227300  0.33775100  0.50000000  1
  O  O34  1  0.82554900  0.62198000  0.28718900  1
  O  O35  1  0.31562000  0.26812300  0.33320200  1
loop_
_geom_bond_atom_site_label_1
_geom_bond_atom_site_label_2
_geom_bond_distance
_geom_bond_site_symmetry_2
K0 O7 2.733866 1_555
K0 O1 2.733866 1_555
K0 O33 2.846770 1_655
K0 O27 2.887218 1_655
K0 O9 2.887218 1_655
K0 O33 3.021229 1_555
K1 O23 2.999631 1_655
K1 O0 3.003830 1_555
K1 O5 3.003830 1_554
K1 O23 3.064496 1_555
K1 O3 3.178315 1_655
K1 O8 3.178315 1_654
K2 O26 2.665495 1_555
K2 O8 2.764152 1_555
K2 O17 2.860669 1_555
K2 O27 2.947588 1_555
K2 O5 3.040373 1_555
K2 O17 3.042057 1_455
K2 O25 3.063001 1_555
K2 O11 3.191399 1_555
K2 O7 3.249220 1_555
K3 O18 2.999631 1_455
K3 O15 3.003830 1_555
K3 O29 3.003830 1_555
K3 O18 3.064496 1_555
K3 O32 3.178315 1_455
K3 O30 3.178315 1_455
K4 O33 2.812950 1_555
K4 O15 2.872448 1_545
K4 O29 2.872448 1_545
K4 O12 3.035175 1_555
K4 O35 3.035175 1_555
K5 O21 2.665495 1_555
K5 O30 2.764152 1_545
K5 O13 2.860669 1_555
K5 O16 2.947588 1_545
K5 O29 3.040373 1_545
K5 O13 3.042057 1_655
K5 O35 3.063001 1_555
K5 O4 3.191399 1_555
K5 O24 3.249220 1_545
K6 O31 2.665495 1_555
K6 O3 2.764152 1_555
K6 O34 2.860669 1_555
K6 O9 2.947588 1_555
K6 O0 3.040373 1_555
K6 O34 3.042057 1_455
K6 O28 3.063001 1_555
K6 O20 3.191399 1_555
K6 O1 3.249220 1_555
K7 O24 2.973119 1_545
K7 O10 2.973119 1_544
K7 O13 3.104776 1_555
K7 O2 3.104776 1_554
K7 O4 3.214532 1_555
K7 O14 3.214532 1_554
K8 O19 2.665495 1_555
K8 O32 2.764152 1_545
K8 O2 2.860669 1_555
K8 O22 2.947588 1_545
K8 O15 3.040373 1_545
K8 O2 3.042057 1_655
K8 O12 3.063001 1_555
K8 O14 3.191399 1_555
K8 O10 3.249220 1_545
K9 O6 2.812950 1_555
K9 O0 2.872448 1_555
K9 O5 2.872448 1_554
K9 O28 3.035175 1_555
K9 O25 3.035175 1_554
K10 O7 2.973119 1_555
K10 O1 2.973119 1_555
K10 O17 3.104776 1_555
K10 O34 3.104776 1_555
K10 O11 3.214532 1_555
K10 O20 3.214532 1_555
K11 O24 2.733866 1_555
K11 O10 2.733866 1_554
K11 O6 2.846770 1_455
K11 O16 2.887218 1_455
K11 O22 2.887218 1_454
K11 O6 3.021229 1_555
Lu0 O13 2.165570 1_565
Lu0 O31 2.201407 1_555
Lu0 O29 2.205861 1_555
Lu0 O30 2.231604 1_455
Lu0 O24 2.232893 1_555
Lu0 O16 2.242540 1_455
Lu1 O34 2.165570 1_555
Lu1 O21 2.201407 1_555
Lu1 O0 2.205861 1_555
Lu1 O3 2.231604 1_655
Lu1 O1 2.232893 1_555
Lu1 O9 2.242540 1_655
Lu2 O2 2.165570 1_565
Lu2 O26 2.201407 1_555
Lu2 O15 2.205861 1_555
Lu2 O32 2.231604 1_455
Lu2 O10 2.232893 1_555
Lu2 O22 2.242540 1_455
Lu3 O17 2.165570 1_555
Lu3 O19 2.201407 1_555
Lu3 O5 2.205861 1_555
Lu3 O8 2.231604 1_655
Lu3 O7 2.232893 1_555
Lu3 O27 2.242540 1_655
O0 Si0 1.625209 1_555
O1 Si8 1.621999 1_555
O2 Si7 1.609366 1_555
O3 Si0 1.616293 1_555
O4 Si4 1.677818 1_555
O4 Si0 1.678372 1_555
O5 Si11 1.625209 1_555
O6 Si5 1.682476 1_555
O6 Si10 1.682476 1_554
O7 Si9 1.621999 1_555
O8 Si11 1.616293 1_555
O9 Si8 1.614737 1_555
O10 Si10 1.621999 1_555
O11 Si1 1.677818 1_555
O11 Si6 1.678372 1_555
O12 Si7 1.682245 1_555
O12 Si9 1.686785 1_555
O13 Si4 1.609366 1_555
O14 Si7 1.677818 1_555
O14 Si11 1.678372 1_555
O15 Si6 1.625209 1_555
O16 Si5 1.614737 1_555
O17 Si1 1.609366 1_555
O18 Si6 1.644667 1_555
O18 Si2 1.644667 1_555
O19 Si7 1.613873 1_655
O20 Si3 1.677818 1_555
O20 Si2 1.678372 1_555
O21 Si4 1.613873 1_655
O22 Si10 1.614737 1_555
O23 Si0 1.644667 1_555
O23 Si11 1.644667 1_554
O24 Si5 1.621999 1_555
O25 Si1 1.682245 1_555
O25 Si10 1.686785 1_555
O26 Si1 1.613873 1_455
O27 Si9 1.614737 1_555
O28 Si3 1.682245 1_555
O28 Si5 1.686785 1_555
O29 Si2 1.625209 1_555
O30 Si2 1.616293 1_555
O31 Si3 1.613873 1_455
O32 Si6 1.616293 1_555
O33 Si8 1.682476 1_555
O33 Si9 1.682476 1_555
O34 Si3 1.609366 1_555
O35 Si4 1.682245 1_555
O35 Si8 1.686785 1_555
