# generated using pymatgen
data_LuNiBC
_symmetry_space_group_name_H-M   'P 1'
_cell_length_a   3.49945900
_cell_length_b   3.49945900
_cell_length_c   7.54108000
_cell_angle_alpha   90.00000000
_cell_angle_beta   90.00000000
_cell_angle_gamma   90.00000000
_symmetry_Int_Tables_number   1
_chemical_formula_structural   LuNiBC
_chemical_formula_sum   'Lu2 Ni2 B2 C2'
_cell_volume   92.34967414
_cell_formula_units_Z   2
loop_
 _symmetry_equiv_pos_site_id
 _symmetry_equiv_pos_as_xyz
  1  'x, y, z'
loop_
 _atom_site_type_symbol
 _atom_site_label
 _atom_site_symmetry_multiplicity
 _atom_site_fract_x
 _atom_site_fract_y
 _atom_site_fract_z
 _atom_site_occupancy
  Lu  Lu0  1  0.00000000  0.50000000  0.83858600  1
  Lu  Lu1  1  0.50000000  0.00000000  0.16141400  1
  Ni  Ni0  1  0.00000000  0.00000000  0.50000000  1
  Ni  Ni1  1  0.50000000  0.50000000  0.50000000  1
  B  B0  1  0.50000000  0.00000000  0.65133500  1
  B  B1  1  0.00000000  0.50000000  0.34866500  1
  C  C0  1  0.00000000  0.50000000  0.15066500  1
  C  C1  1  0.50000000  0.00000000  0.84933500  1
loop_
_geom_bond_atom_site_label_1
_geom_bond_atom_site_label_2
_geom_bond_distance
_geom_bond_site_symmetry_2
B0 C1 1.493134 1_555
B0 Ni0 2.089009 1_655
B0 Ni0 2.089009 1_555
B0 Ni1 2.089009 1_545
B0 Ni1 2.089009 1_555
B1 C0 1.493134 1_555
B1 Ni0 2.089009 1_555
B1 Ni0 2.089009 1_565
B1 Ni1 2.089009 1_455
B1 Ni1 2.089009 1_555
C0 Lu0 2.353413 1_554
C0 Lu1 2.475818 1_555
C0 Lu1 2.475818 1_465
C0 Lu1 2.475818 1_565
C0 Lu1 2.475818 1_455
C1 Lu1 2.353413 1_556
C1 Lu0 2.475818 1_645
C1 Lu0 2.475818 1_555
C1 Lu0 2.475818 1_655
C1 Lu0 2.475818 1_545
