# generated using pymatgen
data_Al(HO)3
_symmetry_space_group_name_H-M   'P 1'
_cell_length_a   5.17253600
_cell_length_b   6.32275260
_cell_length_c   6.75343157
_cell_angle_alpha   83.64663109
_cell_angle_beta   85.03964538
_cell_angle_gamma   81.29758664
_symmetry_Int_Tables_number   1
_chemical_formula_structural   Al(HO)3
_chemical_formula_sum   'Al4 H12 O12'
_cell_volume   216.43792482
_cell_formula_units_Z   4
loop_
 _symmetry_equiv_pos_site_id
 _symmetry_equiv_pos_as_xyz
  1  'x, y, z'
loop_
 _atom_site_type_symbol
 _atom_site_label
 _atom_site_symmetry_multiplicity
 _atom_site_fract_x
 _atom_site_fract_y
 _atom_site_fract_z
 _atom_site_occupancy
  Al  Al0  1  0.53923900  0.16523600  0.83323200  1
  Al  Al1  1  0.49164300  0.83083500  0.17270800  1
  Al  Al2  1  0.02264300  0.32796600  0.66878600  1
  Al  Al3  1  0.00803100  0.66923900  0.33742700  1
  H  H0  1  0.19213900  0.95104300  0.81266700  1
  H  H1  1  0.83358100  0.04879100  0.19526400  1
  H  H2  1  0.65017600  0.46626600  0.32676800  1
  H  H3  1  0.38305200  0.53159500  0.68298000  1
  H  H4  1  0.27614700  0.28883800  0.31964300  1
  H  H5  1  0.77333900  0.71024300  0.69243900  1
  H  H6  1  0.86499000  0.83349900  0.93984300  1
  H  H7  1  0.17101300  0.17104700  0.07829500  1
  H  H8  1  0.75629800  0.09196100  0.49417000  1
  H  H9  1  0.27568500  0.90277600  0.51253000  1
  H  H10  1  0.24592000  0.59877400  0.98807200  1
  H  H11  1  0.78187100  0.39907600  0.01580100  1
  O  O0  1  0.25762100  0.06053600  0.71590800  1
  O  O1  1  0.77272200  0.93599400  0.29080700  1
  O  O2  1  0.72090800  0.56377300  0.22027200  1
  O  O3  1  0.30933900  0.43290400  0.78704100  1
  O  O4  1  0.17297300  0.38789700  0.40855000  1
  O  O5  1  0.85601600  0.60885800  0.59762800  1
  O  O6  1  0.67947700  0.86872400  0.91267400  1
  O  O7  1  0.35820000  0.12746200  0.09430100  1
  O  O8  1  0.74591800  0.19378500  0.59665600  1
  O  O9  1  0.28369700  0.80329800  0.40840300  1
  O  O10  1  0.20354200  0.71541400  0.07863000  1
  O  O11  1  0.82628600  0.28215200  0.92614900  1
loop_
_geom_bond_atom_site_label_1
_geom_bond_atom_site_label_2
_geom_bond_distance
_geom_bond_site_symmetry_2
Al0 O8 1.851296 1_555
Al0 O3 1.927159 1_555
Al0 O7 1.931702 1_556
Al0 O11 1.934080 1_555
Al0 O6 1.939578 1_545
Al0 O0 1.948189 1_555
Al1 O9 1.849370 1_555
Al1 O2 1.923704 1_555
Al1 O7 1.930282 1_565
Al1 O10 1.937117 1_555
Al1 O6 1.941026 1_554
Al1 O1 1.949982 1_555
Al2 O4 1.882134 1_555
Al2 O5 1.883488 1_455
Al2 O8 1.893515 1_455
Al2 O0 1.939991 1_555
Al2 O11 1.951598 1_455
Al2 O3 1.974078 1_555
Al3 O4 1.882936 1_555
Al3 O9 1.885534 1_555
Al3 O5 1.885568 1_455
Al3 O1 1.937217 1_455
Al3 O10 1.957903 1_555
Al3 O2 1.973830 1_455
H0 O0 0.976505 1_565
H1 O1 0.977259 1_545
H2 O2 0.977665 1_555
H3 O3 0.978386 1_555
H4 O4 0.981974 1_555
H5 O5 0.982000 1_555
H6 O6 0.980195 1_555
H7 O7 0.977683 1_555
H8 O8 0.989016 1_555
H9 O9 0.988332 1_555
H10 O10 0.996836 1_556
H11 O11 0.994742 1_554
