# generated using pymatgen
data_Be3Al2(SiO3)6
_symmetry_space_group_name_H-M   'P 1'
_cell_length_a   9.30347192
_cell_length_b   9.30347192
_cell_length_c   9.27757700
_cell_angle_alpha   90.00000000
_cell_angle_beta   90.00000000
_cell_angle_gamma   119.99999941
_symmetry_Int_Tables_number   1
_chemical_formula_structural   Be3Al2(SiO3)6
_chemical_formula_sum   'Be6 Al4 Si12 O36'
_cell_volume   695.43301390
_cell_formula_units_Z   2
loop_
 _symmetry_equiv_pos_site_id
 _symmetry_equiv_pos_as_xyz
  1  'x, y, z'
loop_
 _atom_site_type_symbol
 _atom_site_label
 _atom_site_symmetry_multiplicity
 _atom_site_fract_x
 _atom_site_fract_y
 _atom_site_fract_z
 _atom_site_occupancy
  Be  Be0  1  0.50000000  0.00000000  0.25000000  1
  Be  Be1  1  0.00000000  0.50000000  0.75000000  1
  Be  Be2  1  0.50000000  0.50000000  0.75000000  1
  Be  Be3  1  0.50000000  0.00000000  0.75000000  1
  Be  Be4  1  0.00000000  0.50000000  0.25000000  1
  Be  Be5  1  0.50000000  0.50000000  0.25000000  1
  Al  Al0  1  0.66666700  0.33333300  0.25000000  1
  Al  Al1  1  0.33333300  0.66666700  0.25000000  1
  Al  Al2  1  0.33333300  0.66666700  0.75000000  1
  Al  Al3  1  0.66666700  0.33333300  0.75000000  1
  Si  Si0  1  0.61268800  0.88490200  0.00000000  1
  Si  Si1  1  0.61268800  0.72778600  0.50000000  1
  Si  Si2  1  0.27221400  0.88490200  0.50000000  1
  Si  Si3  1  0.72778600  0.61268800  0.00000000  1
  Si  Si4  1  0.88490200  0.27221400  0.00000000  1
  Si  Si5  1  0.11509800  0.72778600  0.00000000  1
  Si  Si6  1  0.27221400  0.38731200  0.00000000  1
  Si  Si7  1  0.38731200  0.11509800  0.00000000  1
  Si  Si8  1  0.11509800  0.38731200  0.50000000  1
  Si  Si9  1  0.88490200  0.61268800  0.50000000  1
  Si  Si10  1  0.72778600  0.11509800  0.50000000  1
  Si  Si11  1  0.38731200  0.27221400  0.50000000  1
  O  O0  1  0.30947700  0.07387700  0.50000000  1
  O  O1  1  0.23559900  0.30947700  0.50000000  1
  O  O2  1  0.76440100  0.69052300  0.50000000  1
  O  O3  1  0.92612300  0.23559900  0.50000000  1
  O  O4  1  0.69052300  0.76440100  0.00000000  1
  O  O5  1  0.69052300  0.92612300  0.50000000  1
  O  O6  1  0.07387700  0.76440100  0.50000000  1
  O  O7  1  0.92612300  0.69052300  0.00000000  1
  O  O8  1  0.76440100  0.07387700  0.00000000  1
  O  O9  1  0.23559900  0.92612300  0.00000000  1
  O  O10  1  0.07387700  0.30947700  0.00000000  1
  O  O11  1  0.30947700  0.23559900  0.00000000  1
  O  O12  1  0.50157800  0.64632800  0.64580800  1
  O  O13  1  0.35367200  0.85525000  0.64580800  1
  O  O14  1  0.14475000  0.49842200  0.64580800  1
  O  O15  1  0.85525000  0.50157800  0.64580800  1
  O  O16  1  0.49842200  0.14475000  0.14580800  1
  O  O17  1  0.35367200  0.49842200  0.14580800  1
  O  O18  1  0.14475000  0.64632800  0.14580800  1
  O  O19  1  0.85525000  0.35367200  0.14580800  1
  O  O20  1  0.64632800  0.50157800  0.14580800  1
  O  O21  1  0.35367200  0.85525000  0.35419200  1
  O  O22  1  0.50157800  0.64632800  0.35419200  1
  O  O23  1  0.50157800  0.85525000  0.14580800  1
  O  O24  1  0.14475000  0.49842200  0.35419200  1
  O  O25  1  0.85525000  0.50157800  0.35419200  1
  O  O26  1  0.64632800  0.14475000  0.35419200  1
  O  O27  1  0.49842200  0.35367200  0.35419200  1
  O  O28  1  0.50157800  0.85525000  0.85419200  1
  O  O29  1  0.64632800  0.50157800  0.85419200  1
  O  O30  1  0.85525000  0.35367200  0.85419200  1
  O  O31  1  0.14475000  0.64632800  0.85419200  1
  O  O32  1  0.35367200  0.49842200  0.85419200  1
  O  O33  1  0.64632800  0.14475000  0.64580800  1
  O  O34  1  0.49842200  0.35367200  0.64580800  1
  O  O35  1  0.49842200  0.14475000  0.85419200  1
loop_
_geom_bond_atom_site_label_1
_geom_bond_atom_site_label_2
_geom_bond_distance
_geom_bond_site_symmetry_2
Be0 O23 1.663712 1_545
Be0 O16 1.663712 1_555
Be0 O21 1.663712 1_545
Be0 O26 1.663712 1_555
Be1 O15 1.663712 1_455
Be1 O14 1.663712 1_555
Be1 O30 1.663712 1_455
Be1 O31 1.663712 1_555
Be2 O32 1.663712 1_555
Be2 O29 1.663712 1_555
Be2 O34 1.663712 1_555
Be2 O12 1.663712 1_555
Be3 O28 1.663712 1_545
Be3 O35 1.663712 1_555
Be3 O13 1.663712 1_545
Be3 O33 1.663712 1_555
Be4 O25 1.663712 1_455
Be4 O24 1.663712 1_555
Be4 O19 1.663712 1_455
Be4 O18 1.663712 1_555
Be5 O17 1.663712 1_555
Be5 O27 1.663712 1_555
Be5 O20 1.663712 1_555
Be5 O22 1.663712 1_555
Al0 O26 1.927801 1_555
Al0 O19 1.927801 1_555
Al0 O16 1.927804 1_555
Al0 O25 1.927804 1_555
Al0 O20 1.927809 1_555
Al0 O27 1.927809 1_555
Al1 O18 1.927801 1_555
Al1 O21 1.927801 1_555
Al1 O24 1.927804 1_555
Al1 O23 1.927804 1_555
Al1 O22 1.927809 1_555
Al1 O17 1.927809 1_555
Al2 O31 1.927801 1_555
Al2 O13 1.927801 1_555
Al2 O28 1.927804 1_555
Al2 O14 1.927804 1_555
Al2 O32 1.927809 1_555
Al2 O12 1.927809 1_555
Al3 O30 1.927801 1_555
Al3 O33 1.927801 1_555
Al3 O35 1.927804 1_555
Al3 O15 1.927804 1_555
Al3 O29 1.927809 1_555
Al3 O34 1.927809 1_555
O0 Si11 1.610288 1_555
O0 Si2 1.612974 1_545
O1 Si8 1.610280 1_555
O1 Si11 1.612983 1_555
O2 Si9 1.610280 1_555
O2 Si1 1.612983 1_555
O3 Si10 1.610287 1_555
O3 Si8 1.612977 1_655
O4 Si0 1.610280 1_555
O4 Si3 1.612983 1_555
O5 Si1 1.610288 1_555
O5 Si10 1.612974 1_565
O6 Si2 1.610287 1_555
O6 Si9 1.612977 1_455
O7 Si3 1.610288 1_555
O7 Si5 1.612974 1_655
O8 Si4 1.610287 1_555
O8 Si0 1.612977 1_545
O9 Si5 1.610287 1_555
O9 Si7 1.612977 1_565
O10 Si6 1.610288 1_555
O10 Si4 1.612974 1_455
O11 Si7 1.610280 1_555
O11 Si6 1.612983 1_555
O12 Si1 1.639942 1_555
O13 Si2 1.639942 1_555
O14 Si8 1.639942 1_555
O15 Si9 1.639942 1_555
O16 Si7 1.639942 1_555
O17 Si6 1.639942 1_555
O18 Si5 1.639942 1_555
O19 Si4 1.639942 1_555
O20 Si3 1.639942 1_555
O21 Si2 1.639942 1_555
O22 Si1 1.639942 1_555
O23 Si0 1.639942 1_555
O24 Si8 1.639942 1_555
O25 Si9 1.639942 1_555
O26 Si10 1.639942 1_555
O27 Si11 1.639942 1_555
O28 Si0 1.639942 1_556
O29 Si3 1.639942 1_556
O30 Si4 1.639942 1_556
O31 Si5 1.639942 1_556
O32 Si6 1.639942 1_556
O33 Si10 1.639942 1_555
O34 Si11 1.639942 1_555
O35 Si7 1.639942 1_556
