# generated using pymatgen
data_Al2Se3
_symmetry_space_group_name_H-M   'P 1'
_cell_length_a   16.81001256
_cell_length_b   16.81001256
_cell_length_c   16.81001256
_cell_angle_alpha   154.13841439
_cell_angle_beta   154.13841439
_cell_angle_gamma   36.89845319
_symmetry_Int_Tables_number   1
_chemical_formula_structural   Al2Se3
_chemical_formula_sum   'Al16 Se24'
_cell_volume   902.54392466
_cell_formula_units_Z   8
loop_
 _symmetry_equiv_pos_site_id
 _symmetry_equiv_pos_as_xyz
  1  'x, y, z'
loop_
 _atom_site_type_symbol
 _atom_site_label
 _atom_site_symmetry_multiplicity
 _atom_site_fract_x
 _atom_site_fract_y
 _atom_site_fract_z
 _atom_site_occupancy
  Al  Al0  1  0.67123600  0.67123600  0.00000000  1
  Al  Al1  1  0.32876400  0.32876400  0.00000000  1
  Al  Al2  1  0.42123600  0.92123600  0.50000000  1
  Al  Al3  1  0.02088500  0.79369100  0.22719500  1
  Al  Al4  1  0.54369100  0.27088500  0.72719500  1
  Al  Al5  1  0.07876400  0.57876400  0.50000000  1
  Al  Al6  1  0.72911500  0.45630900  0.27280500  1
  Al  Al7  1  0.20630900  0.97911500  0.77280500  1
  Al  Al8  1  0.54369100  0.81649600  0.27280500  1
  Al  Al9  1  0.87500000  0.12500000  0.75000000  1
  Al  Al10  1  0.37500000  0.12500000  0.25000000  1
  Al  Al11  1  0.20630900  0.43350400  0.22719500  1
  Al  Al12  1  0.87500000  0.62500000  0.75000000  1
  Al  Al13  1  0.56649600  0.79369100  0.77280500  1
  Al  Al14  1  0.87500000  0.12500000  0.25000000  1
  Al  Al15  1  0.18350400  0.45630900  0.72719500  1
  Se  Se0  1  0.11578900  0.87507600  0.24071300  1
  Se  Se1  1  0.46289500  0.23204800  0.76915300  1
  Se  Se2  1  0.76795200  0.53710500  0.23084700  1
  Se  Se3  1  0.11563700  0.37492400  0.74071300  1
  Se  Se4  1  0.46289500  0.69374200  0.23084700  1
  Se  Se5  1  0.62507600  0.88436300  0.25928700  1
  Se  Se6  1  0.12492400  0.88421100  0.75928700  1
  Se  Se7  1  0.44812900  0.20440600  0.24372300  1
  Se  Se8  1  0.78931700  0.04559400  0.74372300  1
  Se  Se9  1  0.96068300  0.20440600  0.75627700  1
  Se  Se10  1  0.62507600  0.36578900  0.74071300  1
  Se  Se11  1  0.12492400  0.36563700  0.24071300  1
  Se  Se12  1  0.28710500  0.55625800  0.26915300  1
  Se  Se13  1  0.79559400  0.55187100  0.75627700  1
  Se  Se14  1  0.44374200  0.71289500  0.73084700  1
  Se  Se15  1  0.63436300  0.87507600  0.75928700  1
  Se  Se16  1  0.98204800  0.71289500  0.26915300  1
  Se  Se17  1  0.28710500  0.01795200  0.73084700  1
  Se  Se18  1  0.79559400  0.03931700  0.24372300  1
  Se  Se19  1  0.95440600  0.21068300  0.25627700  1
  Se  Se20  1  0.30625800  0.53710500  0.76915300  1
  Se  Se21  1  0.63421100  0.37492400  0.25928700  1
  Se  Se22  1  0.95440600  0.69812900  0.74372300  1
  Se  Se23  1  0.30187100  0.04559400  0.25627700  1
loop_
_geom_bond_atom_site_label_1
_geom_bond_atom_site_label_2
_geom_bond_distance
_geom_bond_site_symmetry_2
Al0 Se16 2.421867 1_555
Al0 Se14 2.421867 1_554
Al0 Se10 2.443847 1_554
Al0 Se5 2.443847 1_555
Al1 Se17 2.421867 1_554
Al1 Se12 2.421867 1_555
Al1 Se3 2.443847 1_554
Al1 Se21 2.443847 1_555
Al2 Se1 2.421867 1_565
Al2 Se4 2.421867 1_555
Al2 Se15 2.443847 1_555
Al2 Se0 2.443847 1_555
Al3 Se18 2.507446 1_465
Al3 Se13 2.507451 1_454
Al3 Se16 2.596002 1_455
Al3 Se0 2.597547 1_555
Al3 Se17 2.696784 1_565
Al3 Se12 2.696789 1_555
Al4 Se8 2.507446 1_555
Al4 Se23 2.507451 1_555
Al4 Se1 2.596002 1_555
Al4 Se10 2.597547 1_555
Al4 Se2 2.696784 1_556
Al4 Se20 2.696789 1_555
Al5 Se2 2.421867 1_455
Al5 Se20 2.421867 1_555
Al5 Se6 2.443847 1_555
Al5 Se11 2.443847 1_555
Al6 Se19 2.507446 1_555
Al6 Se22 2.507451 1_555
Al6 Se2 2.596002 1_555
Al6 Se21 2.597547 1_555
Al6 Se1 2.696784 1_554
Al6 Se4 2.696789 1_555
Al7 Se9 2.507446 1_465
Al7 Se7 2.507451 1_566
Al7 Se17 2.596002 1_565
Al7 Se6 2.597547 1_555
Al7 Se16 2.696784 1_455
Al7 Se14 2.696789 1_555
Al8 Se23 2.507451 1_565
Al8 Se8 2.507451 1_565
Al8 Se4 2.596017 1_555
Al8 Se5 2.597531 1_555
Al8 Se20 2.696784 1_554
Al8 Se2 2.696784 1_555
Al9 Se9 2.532865 1_555
Al9 Se8 2.532865 1_555
Al9 Se11 2.610947 1_656
Al9 Se10 2.610947 1_555
Al9 Se5 2.610947 1_545
Al9 Se6 2.610947 1_645
Al10 Se7 2.532865 1_555
Al10 Se23 2.532865 1_555
Al10 Se5 2.610947 1_545
Al10 Se10 2.610947 1_555
Al10 Se11 2.610947 1_555
Al10 Se6 2.610947 1_544
Al11 Se9 2.507451 1_454
Al11 Se7 2.507451 1_555
Al11 Se12 2.596017 1_555
Al11 Se11 2.597531 1_555
Al11 Se14 2.696784 1_555
Al11 Se16 2.696784 1_455
Al12 Se22 2.532865 1_555
Al12 Se13 2.532865 1_555
Al12 Se0 2.610947 1_656
Al12 Se3 2.610947 1_655
Al12 Se15 2.610947 1_555
Al12 Se21 2.610947 1_555
Al13 Se13 2.507451 1_555
Al13 Se18 2.507451 1_566
Al13 Se14 2.596017 1_555
Al13 Se15 2.597531 1_555
Al13 Se12 2.696784 1_555
Al13 Se17 2.696784 1_565
Al14 Se19 2.532865 1_555
Al14 Se18 2.532865 1_555
Al14 Se0 2.610947 1_645
Al14 Se3 2.610947 1_655
Al14 Se21 2.610947 1_555
Al14 Se15 2.610947 1_544
Al15 Se19 2.507451 1_455
Al15 Se22 2.507451 1_455
Al15 Se20 2.596017 1_555
Al15 Se3 2.597531 1_555
Al15 Se1 2.696784 1_555
Al15 Se4 2.696784 1_556
