# generated using pymatgen
data_LaFeO3
_symmetry_space_group_name_H-M   'P 1'
_cell_length_a   5.66233600
_cell_length_b   6.45288700
_cell_length_c   9.12439900
_cell_angle_alpha   90.00000000
_cell_angle_beta   90.00000000
_cell_angle_gamma   90.00000000
_symmetry_Int_Tables_number   1
_chemical_formula_structural   LaFeO3
_chemical_formula_sum   'La4 Fe4 O12'
_cell_volume   333.39107148
_cell_formula_units_Z   4
loop_
 _symmetry_equiv_pos_site_id
 _symmetry_equiv_pos_as_xyz
  1  'x, y, z'
loop_
 _atom_site_type_symbol
 _atom_site_label
 _atom_site_symmetry_multiplicity
 _atom_site_fract_x
 _atom_site_fract_y
 _atom_site_fract_z
 _atom_site_occupancy
  La  La0  1  0.50064900  0.75157900  0.74941000  1
  La  La1  1  0.00064900  0.24842100  0.75059000  1
  La  La2  1  0.00064900  0.24842100  0.24941000  1
  La  La3  1  0.50064900  0.75157900  0.25059000  1
  Fe  Fe0  1  0.49640800  0.18368000  0.50000000  1
  Fe  Fe1  1  0.50674800  0.32869600  0.00000000  1
  Fe  Fe2  1  0.00674800  0.67130400  0.50000000  1
  Fe  Fe3  1  0.99640800  0.81632000  0.00000000  1
  O  O0  1  0.14646500  0.91857200  0.16457400  1
  O  O1  1  0.33033600  0.70682500  0.50000000  1
  O  O2  1  0.85042400  0.57673200  0.66479200  1
  O  O3  1  0.64646500  0.08142800  0.66457400  1
  O  O4  1  0.64646500  0.08142800  0.33542600  1
  O  O5  1  0.85042400  0.57673200  0.33520800  1
  O  O6  1  0.35042400  0.42326800  0.83520800  1
  O  O7  1  0.67139000  0.78749200  0.00000000  1
  O  O8  1  0.83033600  0.29317500  0.00000000  1
  O  O9  1  0.17139000  0.21250800  0.50000000  1
  O  O10  1  0.35042400  0.42326800  0.16479200  1
  O  O11  1  0.14646500  0.91857200  0.83542600  1
loop_
_geom_bond_atom_site_label_1
_geom_bond_atom_site_label_2
_geom_bond_distance
_geom_bond_site_symmetry_2
La0 O2 2.406587 1_555
La0 O11 2.408161 1_555
La0 O3 2.410670 1_565
La0 O6 2.413440 1_555
La0 O1 2.488432 1_555
La0 O7 2.493271 1_556
La1 O6 2.406587 1_555
La1 O3 2.408161 1_455
La1 O11 2.410670 1_545
La1 O2 2.413440 1_455
La1 O8 2.488432 1_456
La1 O9 2.493271 1_555
La2 O10 2.406587 1_555
La2 O4 2.408161 1_455
La2 O0 2.410670 1_545
La2 O5 2.413440 1_455
La2 O8 2.488432 1_455
La2 O9 2.493271 1_555
La3 O5 2.406587 1_555
La3 O0 2.408161 1_555
La3 O4 2.410670 1_565
La3 O10 2.413440 1_555
La3 O1 2.488432 1_555
La3 O7 2.493271 1_555
Fe0 O3 1.847221 1_555
Fe0 O4 1.847221 1_555
Fe0 O9 1.849739 1_555
Fe1 O8 1.846545 1_555
Fe1 O10 1.848465 1_555
Fe1 O6 1.848465 1_554
Fe2 O1 1.846545 1_555
Fe2 O2 1.848465 1_455
Fe2 O5 1.848465 1_455
Fe3 O11 1.847221 1_654
Fe3 O0 1.847221 1_655
Fe3 O7 1.849739 1_555
