# generated using pymatgen
data_Be5Pd
_symmetry_space_group_name_H-M   'P 1'
_cell_length_a   4.22555263
_cell_length_b   4.22555131
_cell_length_c   4.22555212
_cell_angle_alpha   60.00000145
_cell_angle_beta   60.00001183
_cell_angle_gamma   60.00000659
_symmetry_Int_Tables_number   1
_chemical_formula_structural   Be5Pd
_chemical_formula_sum   'Be5 Pd1'
_cell_volume   53.35012297
_cell_formula_units_Z   1
loop_
 _symmetry_equiv_pos_site_id
 _symmetry_equiv_pos_as_xyz
  1  'x, y, z'
loop_
 _atom_site_type_symbol
 _atom_site_label
 _atom_site_symmetry_multiplicity
 _atom_site_fract_x
 _atom_site_fract_y
 _atom_site_fract_z
 _atom_site_occupancy
  Be  Be0  1  0.25000000  0.25000000  0.25000000  1
  Be  Be1  1  0.62461445  0.62461445  0.62461445  1
  Be  Be2  1  0.62461445  0.62461445  0.12615464  1
  Be  Be3  1  0.12615464  0.62461445  0.62461445  1
  Be  Be4  1  0.62461445  0.12615464  0.62461445  1
  Pd  Pd0  1  -0.00000000  -0.00000000  0.00000000  1
loop_
_geom_bond_atom_site_label_1
_geom_bond_atom_site_label_2
_geom_bond_distance
_geom_bond_site_symmetry_2
Be0 Be3 2.476754 1_555
Be0 Be2 2.476754 1_555
Be0 Be4 2.476754 1_555
Be0 Be1 2.476758 1_545
Be0 Be1 2.476758 1_554
Be0 Be1 2.476758 1_455
Be0 Be3 2.476761 1_545
Be0 Be2 2.476761 1_545
Be0 Be3 2.476762 1_554
Be0 Be4 2.476762 1_554
Be0 Be2 2.476762 1_455
Be0 Be4 2.476762 1_455
Be0 Pd0 2.587611 1_565
Be0 Pd0 2.587611 1_555
Be0 Pd0 2.587612 1_556
Be0 Pd0 2.587612 1_655
Be1 Be4 2.106268 1_555
Be1 Be2 2.106268 1_555
Be1 Be3 2.106268 1_555
Be1 Be4 2.119284 1_565
Be1 Be2 2.119284 1_556
Be1 Be3 2.119284 1_655
Be1 Pd0 2.478147 1_656
Be1 Pd0 2.478148 1_665
Be1 Pd0 2.478148 1_566
Be2 Be4 2.106268 1_555
Be2 Be3 2.106268 1_555
Be2 Be4 2.119284 1_564
Be2 Be3 2.119285 1_654
Be2 Pd0 2.478143 1_655
Be2 Pd0 2.478144 1_565
Be2 Pd0 2.478151 1_665
Be3 Be4 2.106268 1_555
Be3 Be4 2.119284 1_465
Be3 Pd0 2.478143 1_556
Be3 Pd0 2.478144 1_565
Be3 Pd0 2.478151 1_566
Be4 Pd0 2.478144 1_655
Be4 Pd0 2.478144 1_556
Be4 Pd0 2.478151 1_656
