# generated using pymatgen
data_GdAu
_symmetry_space_group_name_H-M   'P 1'
_cell_length_a   3.61720089
_cell_length_b   3.61458049
_cell_length_c   3.61443510
_cell_angle_alpha   89.98953526
_cell_angle_beta   89.99657618
_cell_angle_gamma   89.99166191
_symmetry_Int_Tables_number   1
_chemical_formula_structural   GdAu
_chemical_formula_sum   'Gd1 Au1'
_cell_volume   47.25752229
_cell_formula_units_Z   1
loop_
 _symmetry_equiv_pos_site_id
 _symmetry_equiv_pos_as_xyz
  1  'x, y, z'
loop_
 _atom_site_type_symbol
 _atom_site_label
 _atom_site_symmetry_multiplicity
 _atom_site_fract_x
 _atom_site_fract_y
 _atom_site_fract_z
 _atom_site_occupancy
  Gd  Gd0  1  0.49999900  0.50000100  0.49999900  1
  Au  Au0  1  0.00000100  0.99999900  0.00000100  1
loop_
_geom_bond_atom_site_label_1
_geom_bond_atom_site_label_2
_geom_bond_distance
_geom_bond_site_symmetry_2
Au0 Gd0 3.130741 1_555
Au0 Gd0 3.130766 1_464
Au0 Gd0 3.130928 1_455
Au0 Gd0 3.130936 1_564
Au0 Gd0 3.131005 1_554
Au0 Gd0 3.131014 1_465
Au0 Gd0 3.131434 1_565
Au0 Gd0 3.131442 1_454
