# generated using pymatgen
data_Rb6LiPr11Se12(Cl4O9)4
_symmetry_space_group_name_H-M   'P 1'
_cell_length_a   16.98914413
_cell_length_b   16.98914413
_cell_length_c   16.98914413
_cell_angle_alpha   123.36857325
_cell_angle_beta   123.36857325
_cell_angle_gamma   84.25821024
_symmetry_Int_Tables_number   1
_chemical_formula_structural   Rb6LiPr11Se12(Cl4O9)4
_chemical_formula_sum   'Rb12 Li2 Pr22 Se24 Cl32 O72'
_cell_volume   3272.84461018
_cell_formula_units_Z   2
loop_
 _symmetry_equiv_pos_site_id
 _symmetry_equiv_pos_as_xyz
  1  'x, y, z'
loop_
 _atom_site_type_symbol
 _atom_site_label
 _atom_site_symmetry_multiplicity
 _atom_site_fract_x
 _atom_site_fract_y
 _atom_site_fract_z
 _atom_site_occupancy
  Rb  Rb0  1  0.37992300  0.62939100  0.00931400  1
  Rb  Rb1  1  0.87631200  0.37631200  0.25262500  1
  Rb  Rb2  1  0.12939100  0.87992300  0.00931400  1
  Rb  Rb3  1  0.62939100  0.62007700  0.24946800  1
  Rb  Rb4  1  0.37631200  0.12368800  0.50000000  1
  Rb  Rb5  1  0.62007700  0.37060900  0.99068600  1
  Rb  Rb6  1  0.62368800  0.87631200  0.50000000  1
  Rb  Rb7  1  0.37060900  0.37992300  0.75053200  1
  Rb  Rb8  1  0.12368800  0.62368800  0.74737500  1
  Rb  Rb9  1  0.87060900  0.12007700  0.99068600  1
  Rb  Rb10  1  0.12007700  0.12939100  0.24946800  1
  Rb  Rb11  1  0.87992300  0.87060900  0.75053200  1
  Li  Li0  1  0.25000000  0.75000000  0.50000000  1
  Li  Li1  1  0.75000000  0.25000000  0.50000000  1
  Pr  Pr0  1  0.75000000  0.49305600  0.74305600  1
  Pr  Pr1  1  0.50694400  0.25000000  0.25694400  1
  Pr  Pr2  1  0.25000000  0.99305600  0.74305600  1
  Pr  Pr3  1  0.49751200  0.99751200  0.74250800  1
  Pr  Pr4  1  0.00694400  0.75000000  0.25694400  1
  Pr  Pr5  1  0.25000000  0.50694400  0.25694400  1
  Pr  Pr6  1  0.99751200  0.25500500  0.50000000  1
  Pr  Pr7  1  0.99305600  0.25000000  0.74305600  1
  Pr  Pr8  1  0.50000000  0.50000000  0.50000000  1
  Pr  Pr9  1  0.24499500  0.50248800  0.50000000  1
  Pr  Pr10  1  0.00000000  0.50000000  0.00000000  1
  Pr  Pr11  1  0.74499500  0.24499500  0.74250800  1
  Pr  Pr12  1  0.75500500  0.49751200  0.50000000  1
  Pr  Pr13  1  0.75000000  0.00694400  0.25694400  1
  Pr  Pr14  1  0.75000000  0.75000000  0.00000000  1
  Pr  Pr15  1  0.00248800  0.74499500  0.50000000  1
  Pr  Pr16  1  0.49305600  0.75000000  0.74305600  1
  Pr  Pr17  1  0.25500500  0.75500500  0.25749200  1
  Pr  Pr18  1  0.50248800  0.00248800  0.25749200  1
  Pr  Pr19  1  0.50000000  0.00000000  0.00000000  1
  Pr  Pr20  1  0.00000000  0.00000000  0.50000000  1
  Pr  Pr21  1  0.25000000  0.25000000  0.00000000  1
  Se  Se0  1  0.43613000  0.72094000  0.50000000  1
  Se  Se1  1  0.03848600  0.01032800  0.72883800  1
  Se  Se2  1  0.22094000  0.93613000  0.50000000  1
  Se  Se3  1  0.53848600  0.80964800  0.02815800  1
  Se  Se4  1  0.30964800  0.03848600  0.02815800  1
  Se  Se5  1  0.77906000  0.06387000  0.50000000  1
  Se  Se6  1  0.21851000  0.48967200  0.02815800  1
  Se  Se7  1  0.98967200  0.71851000  0.02815800  1
  Se  Se8  1  0.01032800  0.28149000  0.97184200  1
  Se  Se9  1  0.06387000  0.56387000  0.28481000  1
  Se  Se10  1  0.71851000  0.69035200  0.72883800  1
  Se  Se11  1  0.80964800  0.78149000  0.27116200  1
  Se  Se12  1  0.72094000  0.22094000  0.28481000  1
  Se  Se13  1  0.93613000  0.43613000  0.71519000  1
  Se  Se14  1  0.46151400  0.19035200  0.97184200  1
  Se  Se15  1  0.69035200  0.96151400  0.97184200  1
  Se  Se16  1  0.56387000  0.27906000  0.50000000  1
  Se  Se17  1  0.27906000  0.77906000  0.71519000  1
  Se  Se18  1  0.51032800  0.53848600  0.72883800  1
  Se  Se19  1  0.19035200  0.21851000  0.72883800  1
  Se  Se20  1  0.48967200  0.46151400  0.27116200  1
  Se  Se21  1  0.96151400  0.98967200  0.27116200  1
  Se  Se22  1  0.28149000  0.30964800  0.27116200  1
  Se  Se23  1  0.78149000  0.51032800  0.97184200  1
  Cl  Cl0  1  0.58210500  0.31008500  0.74194200  1
  Cl  Cl1  1  0.18450100  0.68450100  0.02178100  1
  Cl  Cl2  1  0.07716000  0.07716000  0.00000000  1
  Cl  Cl3  1  0.15983700  0.41789500  0.72797900  1
  Cl  Cl4  1  0.57716000  0.57716000  0.00000000  1
  Cl  Cl5  1  0.93185800  0.18991500  0.27202100  1
  Cl  Cl6  1  0.07584300  0.57584300  0.50000000  1
  Cl  Cl7  1  0.42284000  0.42284000  0.00000000  1
  Cl  Cl8  1  0.68450100  0.66272000  0.50000000  1
  Cl  Cl9  1  0.92415700  0.42415700  0.50000000  1
  Cl  Cl10  1  0.57584300  0.07584300  0.50000000  1
  Cl  Cl11  1  0.06814200  0.81008500  0.72797900  1
  Cl  Cl12  1  0.92284000  0.92284000  0.00000000  1
  Cl  Cl13  1  0.66272000  0.16272000  0.97821900  1
  Cl  Cl14  1  0.91789500  0.65983700  0.72797900  1
  Cl  Cl15  1  0.08210500  0.34016300  0.27202100  1
  Cl  Cl16  1  0.42415700  0.92415700  0.50000000  1
  Cl  Cl17  1  0.81008500  0.08210500  0.74194200  1
  Cl  Cl18  1  0.16272000  0.18450100  0.50000000  1
  Cl  Cl19  1  0.18991500  0.91789500  0.25805800  1
  Cl  Cl20  1  0.65983700  0.93185800  0.74194200  1
  Cl  Cl21  1  0.81549900  0.31549900  0.97821900  1
  Cl  Cl22  1  0.83728000  0.81549900  0.50000000  1
  Cl  Cl23  1  0.33728000  0.83728000  0.02178100  1
  Cl  Cl24  1  0.41789500  0.68991500  0.25805800  1
  Cl  Cl25  1  0.84016300  0.58210500  0.27202100  1
  Cl  Cl26  1  0.68991500  0.43185800  0.27202100  1
  Cl  Cl27  1  0.34016300  0.06814200  0.25805800  1
  Cl  Cl28  1  0.31549900  0.33728000  0.50000000  1
  Cl  Cl29  1  0.43185800  0.15983700  0.74194200  1
  Cl  Cl30  1  0.31008500  0.56814200  0.72797900  1
  Cl  Cl31  1  0.56814200  0.84016300  0.25805800  1
  O  O0  1  0.40506100  0.31851000  0.32839500  1
  O  O1  1  0.18260100  0.56405300  0.37627200  1
  O  O2  1  0.57666600  0.49011600  0.67160500  1
  O  O3  1  0.92333400  0.59493900  0.91344900  1
  O  O4  1  0.80606600  0.42850700  0.86982800  1
  O  O5  1  0.81739900  0.43594700  0.62372800  1
  O  O6  1  0.19367100  0.81739900  0.38145300  1
  O  O7  1  0.73722100  0.57463300  0.91352200  1
  O  O8  1  0.59439300  0.37405100  0.50000000  1
  O  O9  1  0.80632900  0.18260100  0.61854700  1
  O  O10  1  0.76277900  0.67630100  0.83741200  1
  O  O11  1  0.55867900  0.93623800  0.13017200  1
  O  O12  1  0.16111100  0.07463300  0.83741200  1
  O  O13  1  0.69367100  0.31221800  0.37627200  1
  O  O14  1  0.30606600  0.43623800  0.37755900  1
  O  O15  1  0.92536700  0.76277900  0.08647800  1
  O  O16  1  0.07666600  0.40506100  0.08655100  1
  O  O17  1  0.50988400  0.18149000  0.08655100  1
  O  O18  1  0.82369900  0.73722100  0.16258800  1
  O  O19  1  0.68149000  0.00988400  0.08655100  1
  O  O20  1  0.00988400  0.92333400  0.32839500  1
  O  O21  1  0.37405100  0.87405100  0.77965800  1
  O  O22  1  0.49011600  0.81851000  0.91344900  1
  O  O23  1  0.42333400  0.50988400  0.32839500  1
  O  O24  1  0.66111200  0.82369900  0.08647800  1
  O  O25  1  0.94132100  0.07149300  0.37755900  1
  O  O26  1  0.56405300  0.18778200  0.38145300  1
  O  O27  1  0.09439300  0.59439300  0.22034200  1
  O  O28  1  0.31851000  0.99011600  0.91344900  1
  O  O29  1  0.43623800  0.05867900  0.13017200  1
  O  O30  1  0.09493900  0.42333400  0.91344900  1
  O  O31  1  0.57463300  0.66111200  0.83741200  1
  O  O32  1  0.33888800  0.17630100  0.91352200  1
  O  O33  1  0.56376200  0.94132100  0.86982800  1
  O  O34  1  0.93594700  0.31739900  0.62372800  1
  O  O35  1  0.83888800  0.92536700  0.16258800  1
  O  O36  1  0.19393400  0.57149300  0.13017200  1
  O  O37  1  0.40560700  0.62594900  0.50000000  1
  O  O38  1  0.07463300  0.23722100  0.91352200  1
  O  O39  1  0.42850700  0.55867900  0.62244100  1
  O  O40  1  0.57149300  0.44132100  0.37755900  1
  O  O41  1  0.06405300  0.68260100  0.37627200  1
  O  O42  1  0.62594900  0.12594900  0.22034200  1
  O  O43  1  0.81851000  0.90506100  0.32839500  1
  O  O44  1  0.44132100  0.06376200  0.86982800  1
  O  O45  1  0.68260100  0.30632900  0.61854700  1
  O  O46  1  0.99011600  0.07666600  0.67160500  1
  O  O47  1  0.06376200  0.19393400  0.62244100  1
  O  O48  1  0.69393400  0.56376200  0.62244100  1
  O  O49  1  0.87405100  0.09439300  0.50000000  1
  O  O50  1  0.18149000  0.09493900  0.67160500  1
  O  O51  1  0.31221800  0.93594600  0.61854700  1
  O  O52  1  0.18778200  0.80632900  0.62372800  1
  O  O53  1  0.26277900  0.42536700  0.08647800  1
  O  O54  1  0.23722100  0.32369900  0.16258800  1
  O  O55  1  0.32369900  0.16111200  0.08647800  1
  O  O56  1  0.67630100  0.83888800  0.91352200  1
  O  O57  1  0.30632900  0.68778200  0.62372800  1
  O  O58  1  0.31739900  0.69367100  0.38145300  1
  O  O59  1  0.81221800  0.19367100  0.37627200  1
  O  O60  1  0.92850700  0.30606600  0.86982800  1
  O  O61  1  0.68778200  0.06405300  0.38145300  1
  O  O62  1  0.12594900  0.90560700  0.50000000  1
  O  O63  1  0.90560700  0.40560700  0.77965800  1
  O  O64  1  0.93623800  0.80606600  0.37755900  1
  O  O65  1  0.05867900  0.92850700  0.62244100  1
  O  O66  1  0.17630100  0.26277900  0.83741200  1
  O  O67  1  0.90506100  0.57666600  0.08655100  1
  O  O68  1  0.43594700  0.81221800  0.61854700  1
  O  O69  1  0.07149300  0.69393400  0.13017200  1
  O  O70  1  0.42536700  0.33888800  0.16258800  1
  O  O71  1  0.59493900  0.68149000  0.67160500  1
loop_
_geom_bond_atom_site_label_1
_geom_bond_atom_site_label_2
_geom_bond_distance
_geom_bond_site_symmetry_2
Li0 O6 2.545705 1_555
Li0 O58 2.545705 1_555
Li0 O52 2.545705 1_555
Li0 O51 2.545705 1_555
Li0 O57 2.545705 1_555
Li0 O41 2.545719 1_555
Li0 O1 2.545719 1_555
Li0 O68 2.545719 1_555
Li1 O59 2.545705 1_555
Li1 O13 2.545705 1_555
Li1 O45 2.545705 1_555
Li1 O9 2.545705 1_555
Li1 O5 2.545719 1_555
Li1 O34 2.545719 1_555
Li1 O26 2.545719 1_555
Li1 O61 2.545719 1_555
Cl0 Pr11 2.872513 1_555
Cl0 Rb4 3.351885 1_555
Cl0 Rb5 3.418452 1_555
Cl0 Rb7 3.724648 1_555
Cl1 Pr17 2.939346 1_555
Cl1 Rb0 3.446396 1_555
Cl1 Rb2 3.446396 1_555
Cl1 Rb8 3.672217 1_554
Cl2 Rb9 3.445977 1_454
Cl2 Rb2 3.445977 1_545
Cl2 Rb11 3.445977 1_444
Cl2 Rb10 3.445977 1_555
Cl3 Pr6 2.872514 1_455
Cl3 Rb8 3.351885 1_555
Cl3 Rb7 3.418445 1_555
Cl3 Rb0 3.724651 1_556
Cl4 Rb3 3.445977 1_555
Cl4 Rb0 3.445977 1_555
Cl4 Rb7 3.445977 1_554
Cl4 Rb5 3.445977 1_554
Cl5 Pr6 2.872508 1_555
Cl5 Rb1 3.351887 1_555
Cl5 Rb10 3.418443 1_655
Cl5 Rb9 3.724658 1_554
Cl6 Pr9 3.015781 1_555
Cl6 Pr15 3.015781 1_555
Cl6 Rb8 3.405940 1_555
Cl6 Rb1 3.405954 1_455
Cl7 Rb0 3.445977 1_555
Cl7 Rb7 3.445977 1_554
Cl7 Rb3 3.445977 1_555
Cl7 Rb5 3.445977 1_554
Cl8 Pr12 2.939361 1_555
Cl8 Rb3 3.446396 1_555
Cl8 Rb11 3.446396 1_555
Cl8 Rb6 3.672201 1_555
Cl9 Pr6 3.015781 1_555
Cl9 Pr12 3.015781 1_555
Cl9 Rb1 3.405940 1_555
Cl9 Rb8 3.405954 1_655
Cl10 Pr11 3.015787 1_555
Cl10 Pr18 3.015797 1_555
Cl10 Rb4 3.405956 1_555
Cl10 Rb6 3.405956 1_545
Cl11 Pr15 2.872508 1_555
Cl11 Rb8 3.351887 1_555
Cl11 Rb11 3.418443 1_455
Cl11 Rb2 3.724658 1_556
Cl12 Rb9 3.445977 1_564
Cl12 Rb10 3.445977 1_665
Cl12 Rb11 3.445977 1_554
Cl12 Rb2 3.445977 1_655
Cl13 Pr3 2.939356 1_545
Cl13 Rb5 3.446396 1_555
Cl13 Rb9 3.446396 1_555
Cl13 Rb1 3.672204 1_556
Cl14 Pr12 2.872514 1_555
Cl14 Rb8 3.351885 1_655
Cl14 Rb11 3.418445 1_555
Cl14 Rb2 3.724651 1_656
Cl15 Pr9 2.872514 1_555
Cl15 Rb1 3.351885 1_455
Cl15 Rb10 3.418445 1_555
Cl15 Rb9 3.724651 1_454
Cl16 Pr17 3.015787 1_555
Cl16 Pr3 3.015797 1_555
Cl16 Rb4 3.405956 1_565
Cl16 Rb6 3.405956 1_555
Cl17 Pr11 2.872513 1_555
Cl17 Rb6 3.351885 1_545
Cl17 Rb9 3.418452 1_555
Cl17 Rb11 3.724648 1_545
Cl18 Pr6 2.939361 1_455
Cl18 Rb7 3.446396 1_555
Cl18 Rb10 3.446396 1_555
Cl18 Rb4 3.672201 1_555
Cl19 Pr17 2.872513 1_555
Cl19 Rb4 3.351885 1_565
Cl19 Rb2 3.418452 1_555
Cl19 Rb10 3.724648 1_565
Cl20 Pr3 2.872519 1_555
Cl20 Rb6 3.351879 1_555
Cl20 Rb9 3.418445 1_565
Cl20 Rb11 3.724651 1_555
Cl21 Pr11 2.939346 1_555
Cl21 Rb5 3.446396 1_555
Cl21 Rb9 3.446396 1_555
Cl21 Rb1 3.672217 1_556
Cl22 Pr15 2.939361 1_655
Cl22 Rb11 3.446396 1_555
Cl22 Rb3 3.446396 1_555
Cl22 Rb6 3.672201 1_555
Cl23 Pr18 2.939356 1_565
Cl23 Rb2 3.446396 1_555
Cl23 Rb0 3.446396 1_555
Cl23 Rb8 3.672204 1_554
Cl24 Pr17 2.872513 1_555
Cl24 Rb6 3.351885 1_555
Cl24 Rb0 3.418452 1_555
Cl24 Rb3 3.724648 1_555
Cl25 Pr15 2.872514 1_655
Cl25 Rb1 3.351885 1_555
Cl25 Rb3 3.418445 1_555
Cl25 Rb5 3.724651 1_554
Cl26 Pr12 2.872508 1_555
Cl26 Rb1 3.351887 1_555
Cl26 Rb3 3.418443 1_555
Cl26 Rb5 3.724658 1_554
Cl27 Pr18 2.872519 1_555
Cl27 Rb4 3.351879 1_555
Cl27 Rb2 3.418445 1_545
Cl27 Rb10 3.724651 1_555
Cl28 Pr9 2.939361 1_555
Cl28 Rb10 3.446396 1_555
Cl28 Rb7 3.446396 1_555
Cl28 Rb4 3.672201 1_555
Cl29 Pr3 2.872519 1_545
Cl29 Rb4 3.351879 1_555
Cl29 Rb5 3.418445 1_555
Cl29 Rb7 3.724651 1_555
Cl30 Pr9 2.872508 1_555
Cl30 Rb8 3.351887 1_555
Cl30 Rb7 3.418443 1_555
Cl30 Rb0 3.724658 1_556
Cl31 Pr18 2.872519 1_565
Cl31 Rb6 3.351879 1_555
Cl31 Rb0 3.418445 1_555
Cl31 Rb3 3.724651 1_555
O0 Se22 1.741302 1_555
O0 Pr1 2.485615 1_555
O0 Pr8 2.557730 1_555
O1 Se9 1.741077 1_555
O1 Pr9 2.526214 1_555
O1 Pr5 2.555373 1_555
O2 Se18 1.741301 1_555
O2 Pr0 2.485617 1_555
O2 Pr8 2.557719 1_555
O3 Se7 1.741302 1_556
O3 Pr0 2.485615 1_555
O3 Pr10 2.557730 1_656
O4 Se23 1.772020 1_555
O4 Pr11 2.497082 1_555
O4 Pr0 2.623158 1_555
O4 Pr10 2.655572 1_656
O5 Se13 1.741077 1_555
O5 Pr12 2.526214 1_555
O5 Pr0 2.555373 1_555
O6 Se2 1.741071 1_555
O6 Pr17 2.526242 1_555
O6 Pr4 2.555371 1_555
O7 Se23 1.716820 1_555
O7 Pr14 2.458762 1_556
O7 Pr0 2.563456 1_555
O8 Se16 1.743776 1_555
O8 Pr8 2.542383 1_555
O8 Pr0 2.829266 1_555
O8 Pr1 2.829266 1_555
O9 Se5 1.741071 1_555
O9 Pr11 2.526242 1_555
O9 Pr7 2.555371 1_555
O10 Se10 1.716820 1_555
O10 Pr14 2.458762 1_556
O10 Pr0 2.563456 1_555
O11 Se3 1.772020 1_555
O11 Pr18 2.497067 1_565
O11 Pr13 2.623158 1_565
O11 Pr19 2.655572 1_565
O12 Se1 1.716820 1_555
O12 Pr21 2.458762 1_556
O12 Pr2 2.563456 1_545
O13 Se12 1.741071 1_555
O13 Pr12 2.526228 1_555
O13 Pr1 2.555371 1_555
O14 Se22 1.772020 1_555
O14 Pr9 2.497081 1_555
O14 Pr5 2.623158 1_555
O14 Pr8 2.655572 1_555
O15 Se7 1.716820 1_555
O15 Pr14 2.458762 1_555
O15 Pr4 2.563456 1_655
O16 Se8 1.741302 1_554
O16 Pr5 2.485615 1_555
O16 Pr10 2.557730 1_555
O17 Se14 1.741305 1_554
O17 Pr1 2.485605 1_555
O17 Pr19 2.557732 1_555
O18 Se11 1.716820 1_555
O18 Pr14 2.458762 1_555
O18 Pr4 2.563456 1_655
O19 Se15 1.741305 1_544
O19 Pr13 2.485605 1_555
O19 Pr19 2.557732 1_555
O20 Se21 1.741301 1_455
O20 Pr4 2.485617 1_555
O20 Pr20 2.557719 1_565
O21 Se17 1.743776 1_555
O21 Pr19 2.542383 1_566
O21 Pr2 2.829266 1_555
O21 Pr16 2.829266 1_555
O22 Se3 1.741305 1_556
O22 Pr16 2.485605 1_555
O22 Pr19 2.557732 1_566
O23 Se20 1.741301 1_555
O23 Pr5 2.485617 1_555
O23 Pr8 2.557719 1_555
O24 Se3 1.716835 1_555
O24 Pr14 2.458747 1_555
O24 Pr13 2.563454 1_565
O25 Se21 1.772020 1_545
O25 Pr6 2.497081 1_555
O25 Pr13 2.623158 1_555
O25 Pr20 2.655572 1_655
O26 Se16 1.741062 1_555
O26 Pr18 2.526226 1_555
O26 Pr1 2.555373 1_555
O27 Se9 1.743776 1_555
O27 Pr10 2.542383 1_555
O27 Pr4 2.829266 1_555
O27 Pr5 2.829266 1_555
O28 Se4 1.741305 1_566
O28 Pr2 2.485605 1_555
O28 Pr19 2.557732 1_566
O29 Se4 1.772020 1_555
O29 Pr18 2.497067 1_555
O29 Pr1 2.623158 1_555
O29 Pr19 2.655572 1_555
O30 Se6 1.741302 1_556
O30 Pr7 2.485615 1_455
O30 Pr10 2.557730 1_556
O31 Se18 1.716832 1_555
O31 Pr14 2.458760 1_556
O31 Pr16 2.563441 1_555
O32 Se14 1.716835 1_555
O32 Pr21 2.458747 1_556
O32 Pr2 2.563454 1_545
O33 Se15 1.772020 1_555
O33 Pr3 2.497067 1_555
O33 Pr16 2.623158 1_555
O33 Pr19 2.655572 1_566
O34 Se13 1.741077 1_555
O34 Pr6 2.526214 1_555
O34 Pr7 2.555373 1_555
O35 Se21 1.716832 1_555
O35 Pr14 2.458760 1_555
O35 Pr13 2.563441 1_565
O36 Se6 1.772020 1_555
O36 Pr17 2.497082 1_555
O36 Pr5 2.623158 1_555
O36 Pr10 2.655572 1_555
O37 Se0 1.743776 1_555
O37 Pr8 2.542383 1_555
O37 Pr16 2.829266 1_555
O37 Pr5 2.829266 1_555
O38 Se8 1.716820 1_555
O38 Pr21 2.458762 1_556
O38 Pr7 2.563456 1_455
O39 Se18 1.772020 1_555
O39 Pr9 2.497081 1_555
O39 Pr16 2.623158 1_555
O39 Pr8 2.655572 1_555
O40 Se20 1.772020 1_555
O40 Pr12 2.497081 1_555
O40 Pr1 2.623158 1_555
O40 Pr8 2.655572 1_555
O41 Se9 1.741077 1_555
O41 Pr15 2.526214 1_555
O41 Pr4 2.555373 1_555
O42 Se12 1.743776 1_555
O42 Pr19 2.542383 1_555
O42 Pr13 2.829266 1_555
O42 Pr1 2.829266 1_555
O43 Se11 1.741302 1_555
O43 Pr13 2.485615 1_565
O43 Pr20 2.557730 1_665
O44 Se14 1.772020 1_555
O44 Pr3 2.497067 1_545
O44 Pr2 2.623158 1_545
O44 Pr19 2.655572 1_556
O45 Se16 1.741071 1_555
O45 Pr11 2.526242 1_555
O45 Pr0 2.555371 1_555
O46 Se1 1.741301 1_655
O46 Pr7 2.485617 1_555
O46 Pr20 2.557719 1_655
O47 Se19 1.772020 1_555
O47 Pr6 2.497081 1_455
O47 Pr7 2.623158 1_455
O47 Pr20 2.655572 1_555
O48 Se10 1.772020 1_555
O48 Pr12 2.497081 1_555
O48 Pr0 2.623158 1_555
O48 Pr8 2.655572 1_555
O49 Se5 1.743776 1_555
O49 Pr20 2.542383 1_655
O49 Pr7 2.829266 1_555
O49 Pr13 2.829266 1_555
O50 Se19 1.741302 1_555
O50 Pr2 2.485615 1_545
O50 Pr20 2.557730 1_555
O51 Se2 1.741071 1_555
O51 Pr3 2.526227 1_555
O51 Pr2 2.555371 1_555
O52 Se17 1.741071 1_555
O52 Pr15 2.526228 1_555
O52 Pr2 2.555371 1_555
O53 Se6 1.716820 1_555
O53 Pr21 2.458762 1_555
O53 Pr5 2.563456 1_555
O54 Se22 1.716820 1_555
O54 Pr21 2.458762 1_555
O54 Pr5 2.563456 1_555
O55 Se4 1.716835 1_555
O55 Pr21 2.458747 1_555
O55 Pr1 2.563454 1_555
O56 Se15 1.716835 1_555
O56 Pr14 2.458747 1_556
O56 Pr16 2.563454 1_555
O57 Se17 1.741071 1_555
O57 Pr9 2.526228 1_555
O57 Pr16 2.555371 1_555
O58 Se0 1.741071 1_555
O58 Pr17 2.526242 1_555
O58 Pr5 2.555371 1_555
O59 Se12 1.741071 1_555
O59 Pr6 2.526228 1_555
O59 Pr13 2.555371 1_555
O60 Se8 1.772020 1_655
O60 Pr11 2.497082 1_555
O60 Pr7 2.623158 1_555
O60 Pr10 2.655572 1_656
O61 Se5 1.741062 1_555
O61 Pr18 2.526226 1_555
O61 Pr13 2.555373 1_555
O62 Se2 1.743776 1_555
O62 Pr20 2.542383 1_565
O62 Pr2 2.829266 1_555
O62 Pr4 2.829266 1_555
O63 Se13 1.743776 1_555
O63 Pr10 2.542383 1_656
O63 Pr0 2.829266 1_555
O63 Pr7 2.829266 1_555
O64 Se11 1.772020 1_555
O64 Pr15 2.497081 1_655
O64 Pr4 2.623158 1_655
O64 Pr20 2.655572 1_665
O65 Se1 1.772020 1_565
O65 Pr15 2.497081 1_555
O65 Pr2 2.623158 1_555
O65 Pr20 2.655572 1_565
O66 Se19 1.716820 1_555
O66 Pr21 2.458762 1_556
O66 Pr7 2.563456 1_455
O67 Se23 1.741302 1_554
O67 Pr4 2.485615 1_655
O67 Pr10 2.557730 1_655
O68 Se0 1.741062 1_555
O68 Pr3 2.526226 1_555
O68 Pr16 2.555373 1_555
O69 Se7 1.772020 1_455
O69 Pr17 2.497082 1_555
O69 Pr4 2.623158 1_555
O69 Pr10 2.655572 1_555
O70 Se20 1.716832 1_555
O70 Pr21 2.458760 1_555
O70 Pr1 2.563441 1_555
O71 Se10 1.741302 1_555
O71 Pr16 2.485615 1_555
O71 Pr8 2.557730 1_555
