# generated using pymatgen
data_CsZn2P2HO8
_symmetry_space_group_name_H-M   'P 1'
_cell_length_a   8.60965634
_cell_length_b   8.60965634
_cell_length_c   7.80189737
_cell_angle_alpha   90.00000000
_cell_angle_beta   90.00000000
_cell_angle_gamma   135.27091042
_symmetry_Int_Tables_number   1
_chemical_formula_structural   CsZn2P2HO8
_chemical_formula_sum   'Cs2 Zn4 P4 H2 O16'
_cell_volume   406.99930064
_cell_formula_units_Z   2
loop_
 _symmetry_equiv_pos_site_id
 _symmetry_equiv_pos_as_xyz
  1  'x, y, z'
loop_
 _atom_site_type_symbol
 _atom_site_label
 _atom_site_symmetry_multiplicity
 _atom_site_fract_x
 _atom_site_fract_y
 _atom_site_fract_z
 _atom_site_occupancy
  Cs  Cs0  1  0.50000000  0.50000000  0.50000000  1
  Cs  Cs1  1  0.00000000  -0.00000000  -0.00000000  1
  Zn  Zn0  1  0.48189173  0.01810827  0.75000000  1
  Zn  Zn1  1  0.01810827  0.48189173  0.25000000  1
  Zn  Zn2  1  0.51810827  0.98189173  0.25000000  1
  Zn  Zn3  1  0.98189173  0.51810827  0.75000000  1
  P  P0  1  0.14223761  0.85776239  0.45761947  1
  P  P1  1  0.85776239  0.14223761  0.54238053  1
  P  P2  1  0.35776239  0.64223761  0.95761947  1
  P  P3  1  0.64223761  0.35776239  0.04238053  1
  H  H0  1  0.00000000  -0.00000000  0.50000000  1
  H  H1  1  0.50000000  0.50000000  -0.00000000  1
  O  O0  1  0.20252378  0.79747622  0.29795018  1
  O  O1  1  0.79747622  0.20252378  0.70204982  1
  O  O2  1  0.29747622  0.70252378  0.79795018  1
  O  O3  1  0.70252378  0.29747622  0.20204982  1
  O  O4  1  0.96344395  0.64728273  0.55967712  1
  O  O5  1  0.64728273  0.96344395  0.44032288  1
  O  O6  1  0.14728273  0.46344395  0.05967712  1
  O  O7  1  0.46344395  0.14728273  0.94032288  1
  O  O8  1  0.03655605  0.35271727  0.44032288  1
  O  O9  1  0.35271727  0.03655605  0.55967712  1
  O  O10  1  0.85271727  0.53655605  0.94032288  1
  O  O11  1  0.53655605  0.85271727  0.05967712  1
  O  O12  1  0.05197629  0.94802371  0.38845052  1
  O  O13  1  0.94802371  0.05197629  0.61154948  1
  O  O14  1  0.44802371  0.55197629  0.88845052  1
  O  O15  1  0.55197629  0.44802371  0.11154948  1
loop_
_geom_bond_atom_site_label_1
_geom_bond_atom_site_label_2
_geom_bond_distance
_geom_bond_site_symmetry_2
Cs0 O14 3.141639 1_555
Cs0 O15 3.141639 1_555
Cs0 O8 3.249061 1_555
Cs0 O4 3.249061 1_555
Cs0 O9 3.249061 1_555
Cs0 O5 3.249061 1_555
Cs1 O12 3.141639 1_545
Cs1 O13 3.141639 1_454
Cs1 O7 3.249061 1_554
Cs1 O6 3.249061 1_555
Cs1 O11 3.249061 1_445
Cs1 O10 3.249061 1_444
H0 O13 1.201027 1_455
H0 O12 1.201027 1_545
H1 O14 1.201027 1_554
H1 O15 1.201027 1_555
O0 P0 1.572715 1_555
O0 Zn1 1.978294 1_555
O0 Zn2 1.978294 1_555
O1 P1 1.572715 1_555
O1 Zn0 1.978294 1_555
O1 Zn3 1.978294 1_555
O2 P2 1.572715 1_555
O2 Zn0 1.978294 1_565
O2 Zn3 1.978294 1_455
O3 P3 1.572715 1_555
O3 Zn1 1.978294 1_655
O3 Zn2 1.978294 1_545
O4 P0 1.524433 1_655
O4 Zn3 1.928200 1_555
O5 P1 1.524433 1_565
O5 Zn2 1.928200 1_555
O6 P2 1.524433 1_554
O6 Zn1 1.928200 1_555
O7 P3 1.524433 1_556
O7 Zn0 1.928200 1_555
O8 P1 1.524433 1_455
O8 Zn1 1.928200 1_555
O9 P0 1.524433 1_545
O9 Zn0 1.928200 1_555
O10 P3 1.524433 1_556
O10 Zn3 1.928200 1_555
O11 P2 1.524433 1_554
O11 Zn2 1.928200 1_555
O12 P0 1.535298 1_555
O13 P1 1.535298 1_555
O14 P2 1.535298 1_555
O15 P3 1.535298 1_555
