# generated using pymatgen
data_AgCNO
_symmetry_space_group_name_H-M   'P 1'
_cell_length_a   5.88415314
_cell_length_b   5.88415314
_cell_length_c   5.90400500
_cell_angle_alpha   90.00000000
_cell_angle_beta   90.00000000
_cell_angle_gamma   134.62683457
_symmetry_Int_Tables_number   1
_chemical_formula_structural   AgCNO
_chemical_formula_sum   'Ag2 C2 N2 O2'
_cell_volume   145.48219855
_cell_formula_units_Z   2
loop_
 _symmetry_equiv_pos_site_id
 _symmetry_equiv_pos_as_xyz
  1  'x, y, z'
loop_
 _atom_site_type_symbol
 _atom_site_label
 _atom_site_symmetry_multiplicity
 _atom_site_fract_x
 _atom_site_fract_y
 _atom_site_fract_z
 _atom_site_occupancy
  Ag  Ag0  1  0.00000000  0.00000000  0.50000000  1
  Ag  Ag1  1  0.00000000  0.00000000  0.00000000  1
  C  C0  1  0.14233900  0.85766100  0.25000000  1
  C  C1  1  0.85766100  0.14233900  0.75000000  1
  N  N0  1  0.74802000  0.25198000  0.75000000  1
  N  N1  1  0.25198000  0.74802000  0.25000000  1
  O  O0  1  0.63465300  0.36534700  0.75000000  1
  O  O1  1  0.36534700  0.63465300  0.25000000  1
loop_
_geom_bond_atom_site_label_1
_geom_bond_atom_site_label_2
_geom_bond_distance
_geom_bond_site_symmetry_2
Ag0 C0 2.137078 1_545
Ag0 C1 2.137078 1_455
Ag1 C1 2.137078 1_454
Ag1 C0 2.137078 1_545
C0 N1 1.190457 1_555
C1 N0 1.190457 1_555
N0 O0 1.230913 1_555
N1 O1 1.230913 1_555
