# generated using pymatgen
data_K3Mo2Cl9
_symmetry_space_group_name_H-M   'P 1'
_cell_length_a   7.08445131
_cell_length_b   7.08444885
_cell_length_c   17.14699963
_cell_angle_alpha   89.99999973
_cell_angle_beta   89.99999643
_cell_angle_gamma   120.00004445
_symmetry_Int_Tables_number   1
_chemical_formula_structural   K3Mo2Cl9
_chemical_formula_sum   'K6 Mo4 Cl18'
_cell_volume   745.29955938
_cell_formula_units_Z   2
loop_
 _symmetry_equiv_pos_site_id
 _symmetry_equiv_pos_as_xyz
  1  'x, y, z'
loop_
 _atom_site_type_symbol
 _atom_site_label
 _atom_site_symmetry_multiplicity
 _atom_site_fract_x
 _atom_site_fract_y
 _atom_site_fract_z
 _atom_site_occupancy
  K  K0  1  0.66666711  0.33333280  0.43711226  1
  K  K1  1  0.33333299  0.66666715  0.56288436  1
  K  K2  1  0.33333269  0.66666705  0.93711510  1
  K  K3  1  0.66666714  0.33333272  0.06288827  1
  K  K4  1  0.99999830  0.00000017  0.25000064  1
  K  K5  1  0.00000162  -0.00000019  0.74999921  1
  Mo  Mo0  1  0.33333346  0.66666676  0.32977079  1
  Mo  Mo1  1  0.66666657  0.33333327  0.67022704  1
  Mo  Mo2  1  0.33333341  0.66666669  0.17022895  1
  Mo  Mo3  1  0.66666667  0.33333334  0.82977272  1
  Cl  Cl0  1  0.54578840  0.00093217  0.25000185  1
  Cl  Cl1  1  0.78047440  0.12809729  0.90877809  1
  Cl  Cl2  1  0.12810609  0.34761764  0.40877519  1
  Cl  Cl3  1  0.34762278  0.21952522  0.90877791  1
  Cl  Cl4  1  0.12810550  0.34761677  0.09122557  1
  Cl  Cl5  1  0.21951159  0.87189494  0.09122538  1
  Cl  Cl6  1  -0.00093232  0.54485687  0.25000183  1
  Cl  Cl7  1  0.34762473  0.21952616  0.59122111  1
  Cl  Cl8  1  0.45514331  0.45421106  0.25000185  1
  Cl  Cl9  1  0.78047362  0.12809822  0.59122097  1
  Cl  Cl10  1  0.45421224  -0.00092678  0.74999861  1
  Cl  Cl11  1  0.54486156  0.54578827  0.74999857  1
  Cl  Cl12  1  0.00092681  0.45513840  0.74999857  1
  Cl  Cl13  1  0.21951204  0.87189445  0.40877533  1
  Cl  Cl14  1  0.87190118  0.65237525  0.59122113  1
  Cl  Cl15  1  0.65238335  0.78048887  0.09122564  1
  Cl  Cl16  1  0.65238237  0.78048840  0.40877518  1
  Cl  Cl17  1  0.87190240  0.65237705  0.90877791  1
loop_
_geom_bond_atom_site_label_1
_geom_bond_atom_site_label_2
_geom_bond_distance
_geom_bond_site_symmetry_2
Cl0 Mo0 2.485927 1_545
Cl0 Mo2 2.485965 1_545
Cl0 K4 3.221134 1_555
Cl1 Mo3 2.402428 1_555
Cl1 K2 3.256017 1_545
Cl1 K3 3.304445 1_556
Cl1 K5 3.473632 1_655
Cl2 Mo0 2.402433 1_555
Cl2 K0 3.256093 1_455
Cl2 K1 3.304447 1_555
Cl2 K4 3.473536 1_455
Cl3 Mo3 2.402426 1_555
Cl3 K2 3.256026 1_555
Cl3 K3 3.304454 1_556
Cl3 K5 3.473615 1_555
Cl4 Mo2 2.402427 1_555
Cl4 K3 3.256092 1_455
Cl4 K2 3.304467 1_554
Cl4 K4 3.473540 1_455
Cl5 Mo2 2.402431 1_555
Cl5 K3 3.256091 1_565
Cl5 K2 3.304462 1_554
Cl5 K4 3.473553 1_465
Cl6 Mo0 2.485931 1_555
Cl6 Mo2 2.485968 1_555
Cl6 K4 3.221148 1_465
Cl7 Mo1 2.402423 1_555
Cl7 K1 3.256025 1_555
Cl7 K0 3.304425 1_555
Cl7 K5 3.473614 1_555
Cl8 Mo0 2.485930 1_555
Cl8 Mo2 2.485967 1_555
Cl8 K4 3.221146 1_455
Cl9 Mo1 2.402426 1_555
Cl9 K1 3.256015 1_545
Cl9 K0 3.304419 1_555
Cl9 K5 3.473630 1_655
Cl10 Mo1 2.485927 1_555
Cl10 Mo3 2.485951 1_555
Cl10 K5 3.221120 1_555
Cl11 Mo1 2.485929 1_555
Cl11 Mo3 2.485953 1_555
Cl11 K5 3.221131 1_665
Cl12 Mo1 2.485929 1_455
Cl12 Mo3 2.485953 1_455
Cl12 K5 3.221134 1_555
Cl13 Mo0 2.402436 1_555
Cl13 K0 3.256091 1_565
Cl13 K1 3.304442 1_555
Cl13 K4 3.473549 1_465
Cl14 Mo1 2.402422 1_555
Cl14 K1 3.256019 1_655
Cl14 K0 3.304424 1_555
Cl14 K5 3.473618 1_665
Cl15 Mo2 2.402427 1_555
Cl15 K3 3.256103 1_555
Cl15 K2 3.304471 1_554
Cl15 K4 3.473535 1_565
Cl16 Mo0 2.402433 1_555
Cl16 K0 3.256102 1_555
Cl16 K1 3.304448 1_555
Cl16 K4 3.473532 1_565
Cl17 Mo3 2.402424 1_555
Cl17 K2 3.256016 1_655
Cl17 K3 3.304452 1_556
Cl17 K5 3.473619 1_665
