# generated using pymatgen
data_Sn7(SBr5)2
_symmetry_space_group_name_H-M   'P 1'
_cell_length_a   6.70564000
_cell_length_b   11.24782944
_cell_length_c   11.42051644
_cell_angle_alpha   61.49078869
_cell_angle_beta   85.72117945
_cell_angle_gamma   82.76869346
_symmetry_Int_Tables_number   1
_chemical_formula_structural   Sn7(SBr5)2
_chemical_formula_sum   'Sn7 S2 Br10'
_cell_volume   750.80437866
_cell_formula_units_Z   1
loop_
 _symmetry_equiv_pos_site_id
 _symmetry_equiv_pos_as_xyz
  1  'x, y, z'
loop_
 _atom_site_type_symbol
 _atom_site_label
 _atom_site_symmetry_multiplicity
 _atom_site_fract_x
 _atom_site_fract_y
 _atom_site_fract_z
 _atom_site_occupancy
  Sn  Sn0  1  0.70398700  0.22023200  0.54895900  1
  Sn  Sn1  1  0.67357200  0.54156000  0.18116400  1
  Sn  Sn2  1  0.87036100  0.98710600  0.97636600  1
  Sn  Sn3  1  0.91575200  0.13373000  0.29388400  1
  Sn  Sn4  1  0.42343900  0.87944700  0.72767800  1
  Sn  Sn5  1  0.36143000  0.40354500  0.89398600  1
  Sn  Sn6  1  0.46553900  0.72599500  0.37937700  1
  S  S0  1  0.63027400  0.02753100  0.77833300  1
  S  S1  1  0.68810800  0.77079100  0.17144500  1
  Br  Br0  1  0.17425400  0.23434000  0.85374100  1
  Br  Br1  1  0.29668600  0.54485300  0.31901400  1
  Br  Br2  1  0.12155000  0.14196000  0.54673200  1
  Br  Br3  1  0.16349700  0.79765400  0.95411600  1
  Br  Br4  1  0.15230500  0.38248200  0.11866900  1
  Br  Br5  1  0.17276600  0.96308000  0.22522500  1
  Br  Br6  1  0.66970000  0.63233300  0.90736300  1
  Br  Br7  1  0.65389700  0.20846600  0.06784000  1
  Br  Br8  1  0.70159800  0.91136800  0.46906100  1
  Br  Br9  1  0.69939000  0.41743200  0.61964300  1
loop_
_geom_bond_atom_site_label_1
_geom_bond_atom_site_label_2
_geom_bond_distance
_geom_bond_site_symmetry_2
S0 Sn0 2.541816 1_555
S0 Sn4 2.579491 1_545
S0 Sn2 2.700190 1_545
S1 Sn1 2.541294 1_555
S1 Sn6 2.576579 1_555
S1 Sn2 2.746766 1_554
Br0 Sn5 2.632722 1_555
Br1 Sn6 2.818962 1_555
Br1 Sn1 2.881891 1_555
Br2 Sn0 2.829495 1_455
Br2 Sn4 3.222048 1_545
Br2 Sn3 3.336692 1_455
Br3 Sn2 2.803053 1_455
Br3 Sn4 2.834123 1_555
Br4 Sn5 2.751968 1_554
Br4 Sn3 3.106088 1_455
Br5 Sn3 2.769774 1_465
Br5 Sn6 2.963283 1_555
Br6 Sn1 2.789031 1_556
Br6 Sn4 2.927273 1_555
Br7 Sn5 2.818138 1_554
Br7 Sn3 2.947445 1_555
Br7 Sn2 3.277859 1_544
Br8 Sn3 2.831796 1_565
Br8 Sn4 3.265829 1_555
Br8 Sn6 3.318671 1_555
Br9 Sn0 2.694580 1_555
