# generated using pymatgen
data_PNCl2
_symmetry_space_group_name_H-M   'P 1'
_cell_length_a   6.40334400
_cell_length_b   15.81695400
_cell_length_c   19.91841800
_cell_angle_alpha   90.00000000
_cell_angle_beta   90.00000000
_cell_angle_gamma   90.00000000
_symmetry_Int_Tables_number   1
_chemical_formula_structural   PNCl2
_chemical_formula_sum   'P20 N20 Cl40'
_cell_volume   2017.36521091
_cell_formula_units_Z   20
loop_
 _symmetry_equiv_pos_site_id
 _symmetry_equiv_pos_as_xyz
  1  'x, y, z'
loop_
 _atom_site_type_symbol
 _atom_site_label
 _atom_site_symmetry_multiplicity
 _atom_site_fract_x
 _atom_site_fract_y
 _atom_site_fract_z
 _atom_site_occupancy
  P  P0  1  0.66430100  0.14070700  0.16399800  1
  P  P1  1  0.49114600  0.12090500  0.63657100  1
  P  P2  1  0.15117700  0.41191300  0.50340800  1
  P  P3  1  0.64947500  0.99494200  0.74148000  1
  P  P4  1  0.99114600  0.37909500  0.36342900  1
  P  P5  1  0.33569900  0.64070700  0.33600200  1
  P  P6  1  0.14947500  0.50505800  0.25852000  1
  P  P7  1  0.16615400  0.41717300  0.98249400  1
  P  P8  1  0.83384600  0.91717300  0.51750600  1
  P  P9  1  0.65117700  0.08808700  0.49659200  1
  P  P10  1  0.85052500  0.00505800  0.24148000  1
  P  P11  1  0.35052500  0.49494200  0.75852000  1
  P  P12  1  0.34882300  0.58808700  0.00340800  1
  P  P13  1  0.83569900  0.85929300  0.66399800  1
  P  P14  1  0.00885400  0.87909500  0.13657100  1
  P  P15  1  0.50885400  0.62090500  0.86342900  1
  P  P16  1  0.16430100  0.35929300  0.83600200  1
  P  P17  1  0.66615400  0.08282700  0.01750600  1
  P  P18  1  0.84882300  0.91191300  0.99659200  1
  P  P19  1  0.33384600  0.58282700  0.48249400  1
  N  N0  1  0.18873200  0.40532500  0.90510200  1
  N  N1  1  0.51854200  0.11600500  0.55876500  1
  N  N2  1  0.24524800  0.59559000  0.27149000  1
  N  N3  1  0.75475200  0.09559000  0.22851000  1
  N  N4  1  0.98145800  0.88399500  0.05876500  1
  N  N5  1  0.74524800  0.90441000  0.72851000  1
  N  N6  1  0.78792900  0.00690300  0.98514300  1
  N  N7  1  0.25475200  0.40441000  0.77149000  1
  N  N8  1  0.21207100  0.50690300  0.51485700  1
  N  N9  1  0.28792900  0.49309700  0.01485700  1
  N  N10  1  0.92975700  0.95675300  0.17809700  1
  N  N11  1  0.57024300  0.04324700  0.67809700  1
  N  N12  1  0.01854200  0.38399500  0.44123500  1
  N  N13  1  0.42975700  0.54324700  0.82190300  1
  N  N14  1  0.71207100  0.99309700  0.48514300  1
  N  N15  1  0.48145800  0.61600500  0.94123500  1
  N  N16  1  0.31126800  0.59467500  0.40510200  1
  N  N17  1  0.81126800  0.90532500  0.59489800  1
  N  N18  1  0.68873200  0.09467500  0.09489800  1
  N  N19  1  0.07024300  0.45675300  0.32190300  1
  Cl  Cl0  1  0.70877200  0.74193200  0.65986100  1
  Cl  Cl1  1  0.64198300  0.66631600  0.31958400  1
  Cl  Cl2  1  0.26329000  0.31325500  0.03258600  1
  Cl  Cl3  1  0.11945200  0.27016300  0.32878500  1
  Cl  Cl4  1  0.35844000  0.07549900  0.99290500  1
  Cl  Cl5  1  0.51676700  0.62117000  0.08472900  1
  Cl  Cl6  1  0.64489700  0.93399600  0.29487600  1
  Cl  Cl7  1  0.18325900  0.13885500  0.65277200  1
  Cl  Cl8  1  0.20877200  0.75806800  0.34013900  1
  Cl  Cl9  1  0.85844000  0.42450100  0.00709500  1
  Cl  Cl10  1  0.14489700  0.56600400  0.70512400  1
  Cl  Cl11  1  0.35510300  0.43399600  0.20512400  1
  Cl  Cl12  1  0.41686500  0.97840700  0.80904500  1
  Cl  Cl13  1  0.58313500  0.47840700  0.69095500  1
  Cl  Cl14  1  0.85801700  0.33368400  0.81958400  1
  Cl  Cl15  1  0.79122800  0.25806800  0.15986100  1
  Cl  Cl16  1  0.38054800  0.72983700  0.82878500  1
  Cl  Cl17  1  0.23671000  0.68674500  0.53258600  1
  Cl  Cl18  1  0.08313500  0.02159300  0.30904500  1
  Cl  Cl19  1  0.31674100  0.86114400  0.15277200  1
  Cl  Cl20  1  0.88054800  0.77016300  0.17121500  1
  Cl  Cl21  1  0.90836800  0.16230000  0.48946400  1
  Cl  Cl22  1  0.61945200  0.22983700  0.67121500  1
  Cl  Cl23  1  0.81674100  0.63885600  0.84722800  1
  Cl  Cl24  1  0.64156000  0.57549900  0.50709500  1
  Cl  Cl25  1  0.09163200  0.66230000  0.01053600  1
  Cl  Cl26  1  0.91686500  0.52159300  0.19095500  1
  Cl  Cl27  1  0.01676700  0.87883000  0.91527100  1
  Cl  Cl28  1  0.29122800  0.24193200  0.84013900  1
  Cl  Cl29  1  0.14198300  0.83368400  0.68041600  1
  Cl  Cl30  1  0.35801700  0.16631600  0.18041600  1
  Cl  Cl31  1  0.73671000  0.81325500  0.46741400  1
  Cl  Cl32  1  0.76329000  0.18674500  0.96741400  1
  Cl  Cl33  1  0.48323300  0.12117000  0.41527100  1
  Cl  Cl34  1  0.59163200  0.83770000  0.98946400  1
  Cl  Cl35  1  0.85510300  0.06600400  0.79487600  1
  Cl  Cl36  1  0.14156000  0.92450100  0.49290500  1
  Cl  Cl37  1  0.98323300  0.37883000  0.58472900  1
  Cl  Cl38  1  0.68325900  0.36114400  0.34722800  1
  Cl  Cl39  1  0.40836800  0.33770000  0.51053600  1
loop_
_geom_bond_atom_site_label_1
_geom_bond_atom_site_label_2
_geom_bond_distance
_geom_bond_site_symmetry_2
N0 P7 1.559591 1_555
N0 P16 1.564914 1_555
N1 P1 1.561594 1_555
N1 P9 1.565222 1_555
N2 P6 1.579016 1_555
N2 P5 1.579832 1_555
N3 P10 1.579016 1_555
N3 P0 1.579832 1_555
N4 P14 1.561594 1_655
N4 P18 1.565222 1_554
N5 P3 1.579016 1_555
N5 P13 1.579832 1_555
N6 P18 1.568888 1_545
N6 P17 1.570255 1_556
N7 P11 1.579016 1_555
N7 P16 1.579832 1_555
N8 P2 1.568888 1_555
N8 P19 1.570255 1_555
N9 P12 1.568888 1_555
N9 P7 1.570255 1_554
N10 P10 1.560460 1_565
N10 P14 1.565065 1_655
N11 P3 1.560460 1_545
N11 P1 1.565065 1_555
N12 P4 1.561594 1_455
N12 P2 1.565222 1_555
N13 P11 1.560460 1_555
N13 P15 1.565065 1_555
N14 P9 1.568888 1_565
N14 P8 1.570255 1_555
N15 P15 1.561594 1_555
N15 P12 1.565222 1_556
N16 P19 1.559591 1_555
N16 P5 1.564914 1_555
N17 P8 1.559591 1_555
N17 P13 1.564914 1_555
N18 P17 1.559591 1_555
N18 P0 1.564914 1_555
N19 P6 1.560460 1_555
N19 P4 1.565065 1_455
Cl0 P13 2.028100 1_555
Cl1 P5 2.029158 1_555
Cl2 P7 2.020898 1_554
Cl3 P4 2.029733 1_455
Cl4 P17 2.033720 1_556
Cl5 P12 2.013458 1_555
Cl6 P10 2.031804 1_565
Cl7 P1 2.017815 1_555
Cl8 P5 2.028100 1_555
Cl9 P7 2.033720 1_654
Cl10 P11 2.031804 1_555
Cl11 P6 2.031804 1_555
Cl12 P3 2.024377 1_555
Cl13 P11 2.024377 1_555
Cl14 P16 2.029158 1_655
Cl15 P0 2.028100 1_555
Cl16 P15 2.029733 1_555
Cl17 P19 2.020898 1_555
Cl18 P10 2.024377 1_455
Cl19 P14 2.017818 1_555
Cl20 P14 2.029733 1_655
Cl21 P9 2.027373 1_555
Cl22 P1 2.029733 1_555
Cl23 P15 2.017818 1_555
Cl24 P19 2.033720 1_555
Cl25 P12 2.027373 1_555
Cl26 P6 2.024377 1_655
Cl27 P18 2.013458 1_455
Cl28 P16 2.028100 1_555
Cl29 P13 2.029158 1_455
Cl30 P0 2.029158 1_555
Cl31 P8 2.020898 1_555
Cl32 P17 2.020898 1_556
Cl33 P9 2.013458 1_555
Cl34 P18 2.027373 1_555
Cl35 P3 2.031804 1_545
Cl36 P8 2.033720 1_455
Cl37 P2 2.013458 1_655
Cl38 P4 2.017818 1_555
Cl39 P2 2.027373 1_555
