# generated using pymatgen
data_Rb12Sn8GeO4
_symmetry_space_group_name_H-M   'P 1'
_cell_length_a   23.96839400
_cell_length_b   13.24335400
_cell_length_c   13.48460587
_cell_angle_alpha   61.01405180
_cell_angle_beta   90.00000000
_cell_angle_gamma   90.00000000
_symmetry_Int_Tables_number   1
_chemical_formula_structural   Rb12Sn8GeO4
_chemical_formula_sum   'Rb48 Sn32 Ge4 O16'
_cell_volume   3744.15192177
_cell_formula_units_Z   4
loop_
 _symmetry_equiv_pos_site_id
 _symmetry_equiv_pos_as_xyz
  1  'x, y, z'
loop_
 _atom_site_type_symbol
 _atom_site_label
 _atom_site_symmetry_multiplicity
 _atom_site_fract_x
 _atom_site_fract_y
 _atom_site_fract_z
 _atom_site_occupancy
  Rb  Rb0  1  0.06825300  0.40733800  0.16894700  1
  Rb  Rb1  1  0.20558700  0.66164800  0.62251300  1
  Rb  Rb2  1  0.97273100  0.28677200  0.49628500  1
  Rb  Rb3  1  0.89460100  0.05671100  0.90695400  1
  Rb  Rb4  1  0.61826700  0.88010000  0.12088100  1
  Rb  Rb5  1  0.79441300  0.33835200  0.37748700  1
  Rb  Rb6  1  0.16035700  0.22727700  0.09583000  1
  Rb  Rb7  1  0.24477600  0.84125300  0.27096800  1
  Rb  Rb8  1  0.83835500  0.98690400  0.18978100  1
  Rb  Rb9  1  0.25522400  0.34125300  0.27096800  1
  Rb  Rb10  1  0.99408700  0.04587200  0.27988900  1
  Rb  Rb11  1  0.83964300  0.77272300  0.90417000  1
  Rb  Rb12  1  0.70558700  0.83835200  0.37748700  1
  Rb  Rb13  1  0.74477600  0.65874700  0.72903200  1
  Rb  Rb14  1  0.30966400  0.13408300  0.14312500  1
  Rb  Rb15  1  0.87767800  0.60107700  0.47465500  1
  Rb  Rb16  1  0.38173300  0.11990000  0.87911900  1
  Rb  Rb17  1  0.52726900  0.78677200  0.49628500  1
  Rb  Rb18  1  0.27474000  0.78919100  0.83915600  1
  Rb  Rb19  1  0.10539900  0.94328900  0.09304600  1
  Rb  Rb20  1  0.77474000  0.71080900  0.16084400  1
  Rb  Rb21  1  0.80966400  0.36591700  0.85687500  1
  Rb  Rb22  1  0.47273100  0.21322800  0.50371500  1
  Rb  Rb23  1  0.43174700  0.90733800  0.16894700  1
  Rb  Rb24  1  0.75522400  0.15874700  0.72903200  1
  Rb  Rb25  1  0.29441300  0.16164800  0.62251300  1
  Rb  Rb26  1  0.66035700  0.27272300  0.90417000  1
  Rb  Rb27  1  0.69033600  0.86591700  0.85687500  1
  Rb  Rb28  1  0.93174700  0.59266200  0.83105300  1
  Rb  Rb29  1  0.60539900  0.55671100  0.90695400  1
  Rb  Rb30  1  0.49408700  0.45412800  0.72011100  1
  Rb  Rb31  1  0.50591300  0.54587200  0.27988900  1
  Rb  Rb32  1  0.22526000  0.28919100  0.83915600  1
  Rb  Rb33  1  0.56825300  0.09266200  0.83105300  1
  Rb  Rb34  1  0.72526000  0.21080900  0.16084400  1
  Rb  Rb35  1  0.02726900  0.71322800  0.50371500  1
  Rb  Rb36  1  0.39460100  0.44328900  0.09304600  1
  Rb  Rb37  1  0.19033600  0.63408300  0.14312500  1
  Rb  Rb38  1  0.12232200  0.39892300  0.52534500  1
  Rb  Rb39  1  0.33964300  0.72727700  0.09583000  1
  Rb  Rb40  1  0.16164500  0.01309600  0.81021900  1
  Rb  Rb41  1  0.66164500  0.48690400  0.18978100  1
  Rb  Rb42  1  0.88173300  0.38010000  0.12088100  1
  Rb  Rb43  1  0.00591300  0.95412800  0.72011100  1
  Rb  Rb44  1  0.37767800  0.89892300  0.52534500  1
  Rb  Rb45  1  0.11826700  0.61990000  0.87911900  1
  Rb  Rb46  1  0.33835500  0.51309600  0.81021900  1
  Rb  Rb47  1  0.62232200  0.10107700  0.47465500  1
  Sn  Sn0  1  0.76802200  0.98718000  0.52456700  1
  Sn  Sn1  1  0.95316900  0.80100300  0.18564700  1
  Sn  Sn2  1  0.86785500  0.09955800  0.38065600  1
  Sn  Sn3  1  0.50352600  0.77922100  0.96746500  1
  Sn  Sn4  1  0.26802200  0.51282000  0.47543300  1
  Sn  Sn5  1  0.45552100  0.12716000  0.27306200  1
  Sn  Sn6  1  0.73197800  0.48718000  0.52456700  1
  Sn  Sn7  1  0.95552100  0.37284000  0.72693800  1
  Sn  Sn8  1  0.13214500  0.90044200  0.61934400  1
  Sn  Sn9  1  0.62526000  0.35160100  0.54922200  1
  Sn  Sn10  1  0.23197800  0.01282000  0.47543300  1
  Sn  Sn11  1  0.36780200  0.46495800  0.37868700  1
  Sn  Sn12  1  0.45316900  0.69899700  0.81435300  1
  Sn  Sn13  1  0.87474000  0.85160100  0.54922200  1
  Sn  Sn14  1  0.43141400  0.93801300  0.77070500  1
  Sn  Sn15  1  0.04683100  0.19899700  0.81435300  1
  Sn  Sn16  1  0.00352600  0.72077900  0.03253500  1
  Sn  Sn17  1  0.37474000  0.64839900  0.45077800  1
  Sn  Sn18  1  0.12526000  0.14839900  0.45077800  1
  Sn  Sn19  1  0.36785500  0.40044200  0.61934400  1
  Sn  Sn20  1  0.06858600  0.43801300  0.77070500  1
  Sn  Sn21  1  0.56858600  0.06198700  0.22929500  1
  Sn  Sn22  1  0.63219800  0.53504200  0.62131300  1
  Sn  Sn23  1  0.49647400  0.22077900  0.03253500  1
  Sn  Sn24  1  0.13219800  0.96495800  0.37868700  1
  Sn  Sn25  1  0.93141400  0.56198700  0.22929500  1
  Sn  Sn26  1  0.54683100  0.30100300  0.18564700  1
  Sn  Sn27  1  0.54447900  0.87284000  0.72693800  1
  Sn  Sn28  1  0.99647400  0.27922100  0.96746500  1
  Sn  Sn29  1  0.04447900  0.62716000  0.27306200  1
  Sn  Sn30  1  0.63214500  0.59955800  0.38065600  1
  Sn  Sn31  1  0.86780200  0.03504200  0.62131300  1
  Ge  Ge0  1  0.74234600  0.00933000  0.00443200  1
  Ge  Ge1  1  0.24234600  0.49067000  0.99556800  1
  Ge  Ge2  1  0.25765400  0.99067000  0.99556800  1
  Ge  Ge3  1  0.75765400  0.50933000  0.00443200  1
  O  O0  1  0.77674800  0.14164200  0.97607300  1
  O  O1  1  0.26718300  0.08098300  0.84497900  1
  O  O2  1  0.67637000  0.04146700  0.92945100  1
  O  O3  1  0.28481500  0.56693100  0.04803600  1
  O  O4  1  0.32363000  0.95853300  0.07054900  1
  O  O5  1  0.76718300  0.41901700  0.15502100  1
  O  O6  1  0.72325200  0.64164200  0.97607300  1
  O  O7  1  0.71518500  0.43306900  0.95196400  1
  O  O8  1  0.17637000  0.45853300  0.07054900  1
  O  O9  1  0.21518500  0.06693100  0.04803600  1
  O  O10  1  0.73281700  0.91901700  0.15502100  1
  O  O11  1  0.23281700  0.58098300  0.84497900  1
  O  O12  1  0.78481500  0.93306900  0.95196400  1
  O  O13  1  0.22325200  0.85835800  0.02392700  1
  O  O14  1  0.82363000  0.54146700  0.92945100  1
  O  O15  1  0.27674800  0.35835800  0.02392700  1
loop_
_geom_bond_atom_site_label_1
_geom_bond_atom_site_label_2
_geom_bond_distance
_geom_bond_site_symmetry_2
Rb0 Sn29 3.838225 1_555
Rb0 Sn18 3.929196 1_555
Rb0 Sn16 3.952339 1_555
Rb0 Sn25 4.150817 1_455
Rb0 Sn28 4.205708 1_454
Rb1 Sn8 3.601450 1_555
Rb1 Sn4 3.721070 1_555
Rb1 Sn10 4.125895 1_565
Rb1 Sn24 4.152032 1_555
Rb1 Sn20 4.220357 1_555
Rb2 Sn25 3.809077 1_555
Rb2 Sn7 3.818253 1_555
Rb2 Sn31 3.851502 1_555
Rb2 Sn15 4.250793 1_655
Rb2 Sn18 4.264973 1_655
Rb3 Sn1 3.902210 1_546
Rb3 Sn7 3.962648 1_555
Rb3 Sn15 4.017784 1_655
Rb3 Sn31 4.049969 1_555
Rb3 Sn28 4.200209 1_555
Rb4 Sn21 3.573571 1_565
Rb4 Sn30 3.683929 1_555
Rb4 Sn3 4.038143 1_554
Rb5 Sn2 3.601450 1_555
Rb5 Sn6 3.721070 1_555
Rb5 Sn0 4.125895 1_545
Rb5 Sn31 4.152032 1_555
Rb5 Sn25 4.220357 1_555
Rb6 Sn24 3.772274 1_545
Rb6 Sn28 4.212439 1_454
Rb7 Sn24 3.792238 1_555
Rb7 Sn4 3.899746 1_555
Rb7 Sn17 4.012931 1_555
Rb8 Sn2 3.615561 1_565
Rb8 Sn1 3.710839 1_555
Rb9 Sn11 3.792238 1_555
Rb9 Sn10 3.899746 1_555
Rb9 Sn18 4.012931 1_555
Rb10 Sn2 3.527363 1_555
Rb10 Sn24 3.535198 1_645
Rb10 Sn28 3.831954 1_554
Rb10 Sn1 4.133676 1_545
Rb11 Sn31 3.772274 1_565
Rb11 Sn16 4.212439 1_656
Rb12 Sn30 3.601450 1_555
Rb12 Sn0 3.721070 1_555
Rb12 Sn6 4.125895 1_555
Rb12 Sn22 4.152032 1_555
Rb12 Sn21 4.220357 1_565
Rb13 Sn22 3.792238 1_555
Rb13 Sn0 3.899746 1_555
Rb13 Sn13 4.012931 1_555
Rb14 Sn5 3.891589 1_555
Rb15 Sn6 3.733590 1_555
Rb15 Sn7 3.771547 1_555
Rb15 Sn25 3.812295 1_555
Rb15 Sn13 3.906011 1_555
Rb15 Sn1 3.933379 1_555
Rb16 Sn14 3.573571 1_545
Rb16 Sn19 3.683929 1_555
Rb16 Sn23 4.038143 1_556
Rb17 Sn21 3.809077 1_565
Rb17 Sn27 3.818253 1_555
Rb17 Sn22 3.851502 1_555
Rb17 Sn12 4.250793 1_555
Rb17 Sn17 4.264973 1_555
Rb18 Sn14 4.132190 1_555
Rb19 Sn15 3.902210 1_564
Rb19 Sn29 3.962648 1_555
Rb19 Sn1 4.017784 1_455
Rb19 Sn24 4.049969 1_555
Rb19 Sn16 4.200209 1_555
Rb20 Sn25 4.132190 1_555
Rb21 Sn7 3.891589 1_555
Rb22 Sn14 3.809077 1_545
Rb22 Sn5 3.818253 1_555
Rb22 Sn11 3.851502 1_555
Rb22 Sn26 4.250793 1_555
Rb22 Sn9 4.264973 1_555
Rb23 Sn5 3.838225 1_565
Rb23 Sn17 3.929196 1_555
Rb23 Sn23 3.952339 1_565
Rb23 Sn21 4.150817 1_565
Rb23 Sn3 4.205708 1_554
Rb24 Sn31 3.792238 1_555
Rb24 Sn6 3.899746 1_555
Rb24 Sn9 4.012931 1_555
Rb25 Sn19 3.601450 1_555
Rb25 Sn10 3.721070 1_555
Rb25 Sn4 4.125895 1_555
Rb25 Sn11 4.152032 1_555
Rb25 Sn14 4.220357 1_545
Rb26 Sn22 3.772274 1_555
Rb26 Sn23 4.212439 1_556
Rb27 Sn27 3.891589 1_555
Rb28 Sn7 3.838225 1_555
Rb28 Sn13 3.929196 1_555
Rb28 Sn28 3.952339 1_555
Rb28 Sn20 4.150817 1_655
Rb28 Sn16 4.205708 1_656
Rb29 Sn26 3.902210 1_556
Rb29 Sn27 3.962648 1_555
Rb29 Sn12 4.017784 1_555
Rb29 Sn22 4.049969 1_555
Rb29 Sn3 4.200209 1_555
Rb30 Sn19 3.527363 1_555
Rb30 Sn22 3.535198 1_555
Rb30 Sn23 3.831954 1_556
Rb30 Sn12 4.133676 1_555
Rb31 Sn30 3.527363 1_555
Rb31 Sn11 3.535198 1_555
Rb31 Sn3 3.831954 1_554
Rb31 Sn26 4.133676 1_555
Rb32 Sn20 4.132190 1_555
Rb33 Sn27 3.838225 1_545
Rb33 Sn9 3.929196 1_555
Rb33 Sn3 3.952339 1_545
Rb33 Sn14 4.150817 1_545
Rb33 Sn23 4.205708 1_556
Rb34 Sn21 4.132190 1_555
Rb35 Sn20 3.809077 1_555
Rb35 Sn29 3.818253 1_555
Rb35 Sn24 3.851502 1_555
Rb35 Sn1 4.250793 1_455
Rb35 Sn13 4.264973 1_455
Rb36 Sn12 3.902210 1_554
Rb36 Sn5 3.962648 1_555
Rb36 Sn26 4.017784 1_555
Rb36 Sn11 4.049969 1_555
Rb36 Sn23 4.200209 1_555
Rb37 Sn29 3.891589 1_555
Rb38 Sn4 3.733590 1_555
Rb38 Sn29 3.771547 1_555
Rb38 Sn20 3.812295 1_555
Rb38 Sn18 3.906011 1_555
Rb38 Sn15 3.933379 1_555
Rb39 Sn11 3.772274 1_555
Rb39 Sn3 4.212439 1_554
Rb40 Sn8 3.615561 1_545
Rb40 Sn15 3.710839 1_555
Rb41 Sn30 3.615561 1_555
Rb41 Sn26 3.710839 1_555
Rb42 Sn25 3.573571 1_555
Rb42 Sn2 3.683929 1_555
Rb42 Sn28 4.038143 1_554
Rb43 Sn8 3.527363 1_555
Rb43 Sn31 3.535198 1_465
Rb43 Sn16 3.831954 1_556
Rb43 Sn15 4.133676 1_565
Rb44 Sn10 3.733590 1_565
Rb44 Sn5 3.771547 1_565
Rb44 Sn14 3.812295 1_555
Rb44 Sn17 3.906011 1_555
Rb44 Sn12 3.933379 1_555
Rb45 Sn20 3.573571 1_555
Rb45 Sn8 3.683929 1_555
Rb45 Sn16 4.038143 1_556
Rb46 Sn19 3.615561 1_555
Rb46 Sn12 3.710839 1_555
Rb47 Sn0 3.733590 1_545
Rb47 Sn27 3.771547 1_545
Rb47 Sn21 3.812295 1_555
Rb47 Sn9 3.906011 1_555
Rb47 Sn26 3.933379 1_555
Sn0 Sn31 2.936789 1_565
Sn0 Sn2 2.984517 1_565
Sn0 Sn13 3.049347 1_555
Sn1 Sn25 2.971909 1_555
Sn1 Sn29 2.974804 1_655
Sn1 Sn16 2.995720 1_655
Sn2 Sn31 2.928112 1_555
Sn6 Sn9 3.049347 1_555
Sn10 Sn24 2.936789 1_545
Sn10 Sn8 2.984517 1_545
Sn10 Sn18 3.049347 1_555
Sn11 Sn19 2.928112 1_555
Sn11 Sn4 2.936789 1_555
Sn11 Sn17 3.027112 1_555
Sn12 Sn14 2.971909 1_555
Sn12 Sn27 2.974804 1_555
Sn12 Sn3 2.995720 1_555
Sn13 Sn2 2.956853 1_565
Sn13 Sn31 3.027112 1_565
Sn14 Sn27 2.988477 1_555
Sn14 Sn3 3.006943 1_555
Sn15 Sn20 2.971909 1_555
Sn15 Sn7 2.974804 1_455
Sn15 Sn28 2.995720 1_455
Sn16 Sn25 3.006943 1_455
Sn16 Sn29 3.020432 1_555
Sn17 Sn19 2.956853 1_555
Sn17 Sn4 3.049347 1_555
Sn18 Sn8 2.956853 1_545
Sn18 Sn24 3.027112 1_545
Sn19 Sn4 2.984517 1_555
Sn20 Sn7 2.988477 1_455
Sn20 Sn28 3.006943 1_455
Sn21 Sn26 2.971909 1_555
Sn21 Sn5 2.988477 1_555
Sn21 Sn23 3.006943 1_555
Sn22 Sn30 2.928112 1_555
Sn22 Sn6 2.936789 1_555
Sn22 Sn9 3.027112 1_555
Sn23 Sn26 2.995720 1_555
Sn23 Sn5 3.020432 1_555
Sn24 Sn8 2.928112 1_555
Sn25 Sn29 2.988477 1_655
Sn26 Sn5 2.974804 1_555
Sn27 Sn3 3.020432 1_555
Sn28 Sn7 3.020432 1_555
Sn30 Sn9 2.956853 1_555
Sn30 Sn6 2.984517 1_555
Ge0 O0 1.801971 1_554
Ge0 O12 1.802570 1_544
Ge0 O10 1.803402 1_545
Ge0 O2 1.813011 1_554
Ge1 O15 1.801971 1_556
Ge1 O3 1.802570 1_556
Ge1 O11 1.803402 1_555
Ge1 O8 1.813011 1_556
Ge2 O13 1.801971 1_556
Ge2 O9 1.802570 1_566
Ge2 O1 1.803402 1_565
Ge2 O4 1.813011 1_556
Ge3 O6 1.801971 1_554
Ge3 O7 1.802570 1_554
Ge3 O5 1.803402 1_555
Ge3 O14 1.813011 1_554
O0 Rb21 2.720446 1_555
O0 Rb8 2.993477 1_546
O0 Rb26 3.178802 1_555
O0 Rb24 3.268535 1_555
O0 Rb34 3.283578 1_556
O0 Rb3 3.336022 1_555
O1 Rb25 2.731378 1_555
O1 Rb40 2.799139 1_555
O1 Rb16 2.871538 1_555
O1 Rb32 2.899846 1_555
O2 Rb4 2.797013 1_546
O2 Rb33 2.839657 1_555
O2 Rb26 2.937888 1_555
O2 Rb27 2.946185 1_545
O2 Rb24 3.036465 1_555
O3 Rb39 2.824546 1_555
O3 Rb18 2.936084 1_554
O3 Rb37 2.944182 1_555
O3 Rb36 3.001766 1_555
O3 Rb9 3.124857 1_555
O4 Rb16 2.797013 1_564
O4 Rb23 2.839657 1_555
O4 Rb39 2.937888 1_555
O4 Rb14 2.946185 1_565
O4 Rb7 3.036465 1_555
O5 Rb5 2.731378 1_555
O5 Rb41 2.799139 1_555
O5 Rb42 2.871538 1_555
O5 Rb34 2.899846 1_555
O6 Rb27 2.720446 1_555
O6 Rb41 2.993477 1_556
O6 Rb11 3.178802 1_555
O6 Rb13 3.268535 1_555
O6 Rb20 3.283578 1_556
O6 Rb29 3.336022 1_555
O7 Rb26 2.824546 1_555
O7 Rb34 2.936084 1_556
O7 Rb21 2.944182 1_555
O7 Rb29 3.001766 1_555
O7 Rb13 3.124857 1_555
O8 Rb45 2.797013 1_554
O8 Rb0 2.839657 1_555
O8 Rb6 2.937888 1_555
O8 Rb37 2.946185 1_555
O8 Rb9 3.036465 1_555
O9 Rb6 2.824546 1_555
O9 Rb32 2.936084 1_554
O9 Rb14 2.944182 1_555
O9 Rb19 3.001766 1_545
O9 Rb7 3.124857 1_545
O10 Rb12 2.731378 1_555
O10 Rb8 2.799139 1_555
O10 Rb4 2.871538 1_555
O10 Rb20 2.899846 1_555
O11 Rb1 2.731378 1_555
O11 Rb46 2.799139 1_555
O11 Rb45 2.871538 1_555
O11 Rb18 2.899846 1_555
O12 Rb11 2.824546 1_555
O12 Rb20 2.936084 1_556
O12 Rb27 2.944182 1_555
O12 Rb3 3.001766 1_565
O12 Rb24 3.124857 1_565
O13 Rb37 2.720446 1_555
O13 Rb40 2.993477 1_564
O13 Rb39 3.178802 1_555
O13 Rb7 3.268535 1_555
O13 Rb18 3.283578 1_554
O13 Rb19 3.336022 1_555
O14 Rb42 2.797013 1_556
O14 Rb28 2.839657 1_555
O14 Rb11 2.937888 1_555
O14 Rb21 2.946185 1_555
O14 Rb13 3.036465 1_555
O15 Rb14 2.720446 1_555
O15 Rb46 2.993477 1_554
O15 Rb6 3.178802 1_555
O15 Rb9 3.268535 1_555
O15 Rb32 3.283578 1_554
O15 Rb36 3.336022 1_555
