# generated using pymatgen
data_H9BrO4
_symmetry_space_group_name_H-M   'P 1'
_cell_length_a   7.17138000
_cell_length_b   7.53598781
_cell_length_c   11.56621489
_cell_angle_alpha   91.58039391
_cell_angle_beta   93.37949406
_cell_angle_gamma   110.20015376
_symmetry_Int_Tables_number   1
_chemical_formula_structural   H9BrO4
_chemical_formula_sum   'H36 Br4 O16'
_cell_volume   584.84352512
_cell_formula_units_Z   4
loop_
 _symmetry_equiv_pos_site_id
 _symmetry_equiv_pos_as_xyz
  1  'x, y, z'
loop_
 _atom_site_type_symbol
 _atom_site_label
 _atom_site_symmetry_multiplicity
 _atom_site_fract_x
 _atom_site_fract_y
 _atom_site_fract_z
 _atom_site_occupancy
  H  H0  1  0.33376300  0.95828200  0.82784400  1
  H  H1  1  0.35450400  0.99255800  0.69198600  1
  H  H2  1  0.66830300  0.02355000  0.14576800  1
  H  H3  1  0.83665300  0.01226900  0.23459000  1
  H  H4  1  0.97328600  0.14464800  0.82082500  1
  H  H5  1  0.79639700  0.93312300  0.74933300  1
  H  H6  1  0.06400400  0.02193000  0.74407500  1
  H  H7  1  0.99731400  0.84527500  0.31231000  1
  H  H8  1  0.13485900  0.00122000  0.23708000  1
  H  H9  1  0.59691600  0.81337500  0.83568600  1
  H  H10  1  0.65950700  0.67921600  0.74703400  1
  H  H11  1  0.46542900  0.17738400  0.20771600  1
  H  H12  1  0.43362500  0.18447800  0.34036400  1
  H  H13  1  0.63072700  0.37288800  0.67726300  1
  H  H14  1  0.82859900  0.48963400  0.75448300  1
  H  H15  1  0.14534300  0.48537100  0.25669700  1
  H  H16  1  0.33471900  0.39630400  0.25811900  1
  H  H17  1  0.36616100  0.59240200  0.33904300  1
  H  H18  1  0.12399700  0.54088400  0.83979800  1
  H  H19  1  0.13515900  0.70775000  0.75557100  1
  H  H20  1  0.85351100  0.29199100  0.24497400  1
  H  H21  1  0.90261100  0.48043900  0.33449400  1
  H  H22  1  0.33365300  0.54145200  0.55582200  1
  H  H23  1  0.18457400  0.49340000  0.66859000  1
  H  H24  1  0.65807700  0.64378700  0.10612900  1
  H  H25  1  0.79900900  0.52483000  0.15811900  1
  H  H26  1  0.61094500  0.69259100  0.46876600  1
  H  H27  1  0.47596800  0.82066000  0.47500400  1
  H  H28  1  0.57133100  0.36723000  0.86018700  1
  H  H29  1  0.60291800  0.41009100  0.00681900  1
  H  H30  1  0.37025700  0.31033100  0.94253000  1
  H  H31  1  0.86905500  0.16971700  0.49194500  1
  H  H32  1  0.01224300  0.05195000  0.48843800  1
  H  H33  1  0.14575000  0.32473700  0.55392100  1
  H  H34  1  0.00154500  0.93604400  0.97287800  1
  H  H35  1  0.92086100  0.72473300  0.99998900  1
  Br  Br0  1  0.92473500  0.71015800  0.48654400  1
  Br  Br1  1  0.08604600  0.29461000  0.98193000  1
  Br  Br2  1  0.53627000  0.13355100  0.52298700  1
  Br  Br3  1  0.47380700  0.83778200  0.99508600  1
  O  O0  1  0.25850800  0.95091400  0.75200300  1
  O  O1  1  0.73530300  0.07697100  0.22316000  1
  O  O2  1  0.94782600  0.06844600  0.74439900  1
  O  O3  1  0.00149600  0.90257800  0.23626300  1
  O  O4  1  0.63786200  0.80342100  0.75368300  1
  O  O5  1  0.37911400  0.20521800  0.26260500  1
  O  O6  1  0.68012000  0.45558600  0.74890800  1
  O  O7  1  0.30248200  0.51871800  0.26217500  1
  O  O8  1  0.08607400  0.56638300  0.76006200  1
  O  O9  1  0.92812700  0.43678000  0.25729200  1
  O  O10  1  0.25331300  0.43921400  0.60635300  1
  O  O11  1  0.71414300  0.54453400  0.09114300  1
  O  O12  1  0.46816000  0.68674600  0.46120400  1
  O  O13  1  0.51437200  0.31600200  0.93677900  1
  O  O14  1  0.00853200  0.18114100  0.47988600  1
  O  O15  1  0.96905600  0.80880700  0.93700800  1
loop_
_geom_bond_atom_site_label_1
_geom_bond_atom_site_label_2
_geom_bond_distance
_geom_bond_site_symmetry_2
H0 O0 0.992277 1_555
H1 O0 0.986632 1_555
H2 O1 0.995001 1_555
H3 O1 1.010179 1_555
H4 O2 1.012450 1_555
H5 O2 1.211711 1_565
H5 O4 1.221680 1_555
H6 O2 1.009473 1_455
H7 O3 0.988004 1_655
H8 O3 0.987390 1_545
H9 O4 1.017624 1_555
H10 O4 1.001945 1_555
H11 O5 0.979211 1_555
H12 O5 0.997308 1_555
H13 O6 0.992471 1_555
H14 O6 1.003047 1_555
H15 O7 1.064053 1_555
H15 O9 1.472467 1_455
H16 O7 1.026084 1_555
H16 O5 1.580034 1_555
H17 O7 1.028159 1_555
H17 O12 1.581304 1_555
H18 O8 0.988796 1_555
H19 O8 1.003884 1_555
H20 O9 1.037503 1_555
H20 O1 1.552913 1_555
H21 O9 0.991818 1_555
H22 O10 1.012485 1_555
H23 O10 1.045258 1_555
H23 O8 1.498373 1_555
H24 O11 0.979754 1_555
H25 O11 1.002855 1_555
H26 O12 1.008055 1_555
H27 O12 0.999040 1_555
H28 O13 1.026302 1_555
H28 O6 1.586030 1_555
H29 O13 1.076552 1_554
H29 O11 1.381892 1_555
H30 O13 1.025738 1_555
H31 O14 0.992468 1_655
H32 O14 0.990580 1_555
H33 O10 1.078636 1_555
H33 O14 1.409525 1_555
H34 O15 0.978873 1_455
H35 O15 0.977464 1_555
Br0 H26 2.204972 1_555
Br1 H30 2.078853 1_555
Br1 H4 2.116201 1_455
Br3 H9 2.120773 1_555
Br3 H2 2.274438 1_566
