# generated using pymatgen
data_K2Al11Si13(Ag3O16)3
_symmetry_space_group_name_H-M   'P 1'
_cell_length_a   12.17549200
_cell_length_b   12.33948838
_cell_length_c   12.92473892
_cell_angle_alpha   89.52035245
_cell_angle_beta   89.99513696
_cell_angle_gamma   89.92937095
_symmetry_Int_Tables_number   1
_chemical_formula_structural   K2Al11Si13(Ag3O16)3
_chemical_formula_sum   'K2 Al11 Si13 Ag9 O48'
_cell_volume   1941.73474914
_cell_formula_units_Z   1
loop_
 _symmetry_equiv_pos_site_id
 _symmetry_equiv_pos_as_xyz
  1  'x, y, z'
loop_
 _atom_site_type_symbol
 _atom_site_label
 _atom_site_symmetry_multiplicity
 _atom_site_fract_x
 _atom_site_fract_y
 _atom_site_fract_z
 _atom_site_occupancy
  K  K0  1  0.98991000  0.99737800  0.49595600  1
  K  K1  1  0.39906000  0.13383000  0.45694000  1
  Al  Al0  1  0.99994300  0.37040900  0.81676100  1
  Al  Al1  1  0.36758000  0.00250500  0.82812200  1
  Al  Al2  1  0.79936300  0.99949900  0.63301100  1
  Al  Al3  1  0.99339100  0.79597700  0.38041900  1
  Al  Al4  1  0.20090400  0.99180700  0.37796900  1
  Al  Al5  1  0.99421700  0.19337200  0.37504100  1
  Al  Al6  1  0.78423500  0.99495300  0.38012100  1
  Al  Al7  1  0.99162700  0.63013400  0.16749100  1
  Al  Al8  1  0.99228500  0.36580600  0.16483600  1
  Al  Al9  1  0.36358100  0.99728200  0.17392400  1
  Al  Al10  1  0.63639700  0.99692000  0.16095700  1
  Si  Si0  1  0.00222500  0.63046200  0.82011800  1
  Si  Si1  1  0.61670800  0.00463900  0.82547000  1
  Si  Si2  1  0.99502600  0.80759100  0.63290800  1
  Si  Si3  1  0.18426400  0.99775200  0.63354400  1
  Si  Si4  1  0.99726400  0.18979300  0.62856400  1
  Si  Si5  1  0.18242400  0.62908900  0.99699000  1
  Si  Si6  1  0.18363300  0.36817500  0.99665700  1
  Si  Si7  1  0.36556300  0.81070100  0.00881000  1
  Si  Si8  1  0.36291200  0.18655100  0.00809900  1
  Si  Si9  1  0.62523600  0.81261900  0.99867500  1
  Si  Si10  1  0.62409600  0.18739600  0.00228600  1
  Si  Si11  1  0.80912600  0.62941200  0.98827600  1
  Si  Si12  1  0.80536700  0.36973200  0.98711800  1
  Ag  Ag0  1  0.21097100  0.80375800  0.80062500  1
  Ag  Ag1  1  0.18628100  0.18672200  0.81111500  1
  Ag  Ag2  1  0.78854200  0.80690500  0.79815400  1
  Ag  Ag3  1  0.80252900  0.19039700  0.79965100  1
  Ag  Ag4  1  0.16381800  0.81996500  0.20006700  1
  Ag  Ag5  1  0.15249100  0.16357900  0.19072500  1
  Ag  Ag6  1  0.81779800  0.81498200  0.20541200  1
  Ag  Ag7  1  0.82128900  0.17892600  0.20135300  1
  Ag  Ag8  1  0.98289900  0.99439200  0.22748800  1
  O  O0  1  0.49699500  0.77830500  0.01763200  1
  O  O1  1  0.30198500  0.30498300  0.99795100  1
  O  O2  1  0.49455400  0.21374700  0.02093400  1
  O  O3  1  0.77792200  0.50111800  0.98104000  1
  O  O4  1  0.68791300  0.30294400  0.98113000  1
  O  O5  1  0.11723400  0.65988300  0.88476600  1
  O  O6  1  0.34401000  0.88387000  0.90367000  1
  O  O7  1  0.12142600  0.34001300  0.88726800  1
  O  O8  1  0.63361200  0.89082200  0.89332000  1
  O  O9  1  0.34044100  0.12146600  0.89925800  1
  O  O10  1  0.88997500  0.66402100  0.88664200  1
  O  O11  1  0.63668400  0.11440900  0.89509100  1
  O  O12  1  0.87612800  0.33669000  0.88303800  1
  O  O13  1  0.99916800  0.50718300  0.78744200  1
  O  O14  1  0.49739000  0.00668500  0.77385200  1
  O  O15  1  0.00630200  0.28920200  0.70761200  1
  O  O16  1  0.71388500  0.00548300  0.74049500  1
  O  O17  1  0.00620000  0.70972100  0.71842600  1
  O  O18  1  0.27420100  0.99760500  0.72450800  1
  O  O19  1  0.10533300  0.88799300  0.65457800  1
  O  O20  1  0.10548200  0.10610100  0.65572500  1
  O  O21  1  0.88549800  0.88061000  0.65936800  1
  O  O22  1  0.88783500  0.11463300  0.65285000  1
  O  O23  1  0.99571500  0.76550100  0.51623400  1
  O  O24  1  0.23360700  0.00059600  0.51654300  1
  O  O25  1  0.74842000  0.99684700  0.51045100  1
  O  O26  1  0.00105600  0.22460200  0.50860800  1
  O  O27  1  0.11438100  0.87962300  0.35997600  1
  O  O28  1  0.11501600  0.10876900  0.35639500  1
  O  O29  1  0.87762500  0.88289200  0.35976200  1
  O  O30  1  0.87973900  0.10545200  0.35722300  1
  O  O31  1  0.98985200  0.28167200  0.27240300  1
  O  O32  1  0.68688700  0.99604700  0.28458600  1
  O  O33  1  0.99212700  0.70719200  0.27876000  1
  O  O34  1  0.31856000  0.00399800  0.30361200  1
  O  O35  1  0.49873000  0.99786200  0.14328000  1
  O  O36  1  0.99774400  0.49756000  0.19237400  1
  O  O37  1  0.10670900  0.67353300  0.08961600  1
  O  O38  1  0.11108300  0.32438600  0.09252500  1
  O  O39  1  0.31761900  0.87303600  0.11078200  1
  O  O40  1  0.31229000  0.11768900  0.10613000  1
  O  O41  1  0.68301100  0.87594700  0.09336100  1
  O  O42  1  0.68318800  0.11896400  0.09471100  1
  O  O43  1  0.86939900  0.66462800  0.09348300  1
  O  O44  1  0.87100000  0.33439200  0.09021900  1
  O  O45  1  0.20743000  0.49958500  0.99965000  1
  O  O46  1  0.29851600  0.69541700  0.99230500  1
  O  O47  1  0.69716700  0.70291000  0.96896500  1
loop_
_geom_bond_atom_site_label_1
_geom_bond_atom_site_label_2
_geom_bond_distance
_geom_bond_site_symmetry_2
K0 O30 2.597859 1_565
K0 O29 2.647661 1_555
K0 O28 2.725130 1_665
K0 O27 2.744767 1_655
K0 O22 2.791827 1_565
K0 O26 2.813401 1_665
K0 O19 2.819465 1_655
K0 O20 2.845269 1_665
K0 O21 2.847119 1_555
K0 O23 2.871820 1_555
K0 O25 2.946218 1_555
K0 O24 2.979403 1_665
K1 O24 2.709447 1_555
K1 O34 2.740773 1_555
Al0 O13 1.726656 1_555
Al0 O15 1.738879 1_655
Al0 O7 1.775398 1_655
Al0 O12 1.781810 1_555
Al1 O14 1.729754 1_555
Al1 O18 1.758259 1_545
Al1 O9 1.769361 1_555
Al1 O6 1.776466 1_545
Al2 O25 1.701795 1_555
Al2 O16 1.737743 1_565
Al2 O22 1.803990 1_565
Al2 O21 1.831931 1_555
Al3 O33 1.717851 1_555
Al3 O29 1.788789 1_555
Al3 O23 1.792341 1_555
Al3 O27 1.817779 1_655
Al4 O34 1.730961 1_565
Al4 O27 1.757599 1_555
Al4 O28 1.801073 1_565
Al4 O24 1.838908 1_565
Al5 O31 1.710397 1_555
Al5 O26 1.773938 1_655
Al5 O30 1.783461 1_555
Al5 O28 1.819755 1_655
Al6 O32 1.711607 1_555
Al6 O25 1.740312 1_555
Al6 O29 1.810083 1_555
Al6 O30 1.815472 1_565
Al7 O36 1.666141 1_555
Al7 O33 1.730686 1_555
Al7 O37 1.804368 1_655
Al7 O43 1.817329 1_555
Al8 O36 1.668594 1_555
Al8 O31 1.728423 1_555
Al8 O38 1.797997 1_655
Al8 O44 1.808011 1_555
Al9 O35 1.692477 1_555
Al9 O34 1.766066 1_565
Al9 O40 1.827908 1_565
Al9 O39 1.831067 1_555
Al10 O35 1.691695 1_555
Al10 O32 1.712040 1_555
Al10 O42 1.818247 1_565
Al10 O41 1.825745 1_555
Ag0 O6 2.324036 1_555
Ag0 O5 2.368442 1_555
Ag0 O19 2.502410 1_555
Ag0 O18 2.692039 1_555
Ag1 O7 2.279813 1_555
Ag1 O9 2.334637 1_555
Ag1 O20 2.455044 1_555
Ag2 O21 2.326650 1_555
Ag2 O10 2.429592 1_555
Ag2 O8 2.481847 1_555
Ag2 O16 2.711068 1_565
Ag2 O47 2.777410 1_555
Ag3 O12 2.293461 1_555
Ag3 O22 2.362151 1_555
Ag3 O11 2.542250 1_555
Ag3 O16 2.644089 1_555
Ag4 O27 2.280347 1_555
Ag4 O39 2.292854 1_555
Ag4 O37 2.415100 1_555
Ag4 O33 2.706268 1_455
Ag5 O28 2.286235 1_555
Ag5 O40 2.304099 1_555
Ag5 O38 2.399563 1_555
Ag5 O31 2.679068 1_455
Ag6 O29 2.289607 1_555
Ag6 O41 2.309894 1_555
Ag6 O43 2.443674 1_555
Ag6 O33 2.673062 1_555
Ag7 O42 2.301091 1_555
Ag7 O30 2.314096 1_555
Ag7 O44 2.462975 1_555
Ag7 O31 2.586310 1_555
Ag8 O30 2.510210 1_565
Ag8 O29 2.534411 1_555
Ag8 O28 2.720433 1_665
Ag8 O27 2.730355 1_655
O0 Si9 1.636186 1_554
O0 Si7 1.652661 1_555
O1 Si6 1.637614 1_555
O1 Si8 1.642343 1_556
O2 Si10 1.628337 1_555
O2 Si8 1.646641 1_555
O3 Si11 1.631933 1_555
O3 Si12 1.656132 1_555
O4 Si10 1.645474 1_556
O4 Si12 1.653555 1_555
O5 Si0 1.672514 1_555
O5 Si5 1.693651 1_555
O6 Si7 1.646085 1_556
O7 Si6 1.643889 1_555
O8 Si1 1.662092 1_565
O8 Si9 1.665534 1_555
O9 Si8 1.648725 1_556
O10 Si0 1.668226 1_655
O10 Si11 1.693613 1_555
O11 Si1 1.650696 1_555
O11 Si10 1.665727 1_556
O12 Si12 1.651123 1_555
O13 Si0 1.582623 1_655
O14 Si1 1.598754 1_555
O15 Si4 1.606844 1_455
O16 Si1 1.614266 1_555
O17 Si0 1.632464 1_555
O17 Si2 1.635824 1_455
O18 Si3 1.606706 1_555
O19 Si3 1.681901 1_555
O19 Si2 1.695438 1_455
O20 Si3 1.671219 1_545
O20 Si4 1.707771 1_455
O21 Si2 1.645990 1_555
O22 Si4 1.652854 1_555
O23 Si2 1.599038 1_555
O24 Si3 1.627250 1_545
O26 Si4 1.606005 1_455
O37 Si5 1.610393 1_554
O38 Si6 1.611617 1_554
O39 Si7 1.638644 1_555
O40 Si8 1.640243 1_555
O41 Si9 1.618841 1_554
O42 Si10 1.624634 1_555
O43 Si11 1.608479 1_554
O44 Si12 1.610602 1_554
O45 Si5 1.626471 1_555
O45 Si6 1.648339 1_555
O46 Si5 1.635071 1_555
O46 Si7 1.656355 1_556
O47 Si11 1.654154 1_555
O47 Si9 1.659168 1_555
