# generated using pymatgen
data_Hg2N2O3
_symmetry_space_group_name_H-M   'P 1'
_cell_length_a   9.29185356
_cell_length_b   15.72712508
_cell_length_c   15.72712508
_cell_angle_alpha   90.00000000
_cell_angle_beta   90.00000000
_cell_angle_gamma   90.00000000
_symmetry_Int_Tables_number   1
_chemical_formula_structural   Hg2N2O3
_chemical_formula_sum   'Hg40 N40 O60'
_cell_volume   2298.26994799
_cell_formula_units_Z   20
loop_
 _symmetry_equiv_pos_site_id
 _symmetry_equiv_pos_as_xyz
  1  'x, y, z'
loop_
 _atom_site_type_symbol
 _atom_site_label
 _atom_site_symmetry_multiplicity
 _atom_site_fract_x
 _atom_site_fract_y
 _atom_site_fract_z
 _atom_site_occupancy
  Hg  Hg0  1  0.75000000  0.56573154  0.43426846  1
  Hg  Hg1  1  0.00000000  0.58895752  0.58895752  1
  Hg  Hg2  1  0.42522404  0.03181934  0.60585383  1
  Hg  Hg3  1  0.66498800  0.67600096  0.61334486  1
  Hg  Hg4  1  0.83501200  0.38665514  0.32399904  1
  Hg  Hg5  1  0.67522404  0.10585383  0.46818066  1
  Hg  Hg6  1  0.33235333  0.25922841  0.02942142  1
  Hg  Hg7  1  0.58960730  0.67777004  0.82118646  1
  Hg  Hg8  1  0.91039270  0.17881354  0.32222996  1
  Hg  Hg9  1  0.66039270  0.17777004  0.67881354  1
  Hg  Hg10  1  0.08960730  0.32222996  0.17881354  1
  Hg  Hg11  1  0.91764667  0.75922841  0.47057858  1
  Hg  Hg12  1  0.92522404  0.96818066  0.39414617  1
  Hg  Hg13  1  0.41498800  0.88665514  0.17600096  1
  Hg  Hg14  1  0.83235333  0.74077159  0.97057858  1
  Hg  Hg15  1  0.66764667  0.02942142  0.25922841  1
  Hg  Hg16  1  0.08501200  0.82399904  0.11334486  1
  Hg  Hg17  1  0.07477596  0.39414617  0.96818066  1
  Hg  Hg18  1  0.83960730  0.32118646  0.82222996  1
  Hg  Hg19  1  0.17522404  0.89414617  0.53181934  1
  Hg  Hg20  1  0.16764667  0.97057858  0.74077159  1
  Hg  Hg21  1  0.25000000  0.08895752  0.91104248  1
  Hg  Hg22  1  0.91498800  0.11334486  0.82399904  1
  Hg  Hg23  1  0.33501200  0.61334486  0.67600096  1
  Hg  Hg24  1  0.08235333  0.47057858  0.75922841  1
  Hg  Hg25  1  0.58235333  0.52942142  0.24077159  1
  Hg  Hg26  1  0.25000000  0.43426846  0.56573154  1
  Hg  Hg27  1  0.41764667  0.24077159  0.52942142  1
  Hg  Hg28  1  0.57477596  0.60585383  0.03181934  1
  Hg  Hg29  1  0.41039270  0.82118646  0.67777004  1
  Hg  Hg30  1  0.16498800  0.32399904  0.38665514  1
  Hg  Hg31  1  0.82477596  0.53181934  0.89414617  1
  Hg  Hg32  1  0.50000000  0.41104248  0.41104248  1
  Hg  Hg33  1  0.58501200  0.17600096  0.88665514  1
  Hg  Hg34  1  0.16039270  0.82222996  0.32118646  1
  Hg  Hg35  1  0.75000000  0.91104248  0.08895752  1
  Hg  Hg36  1  0.50000000  0.06573154  0.06573154  1
  Hg  Hg37  1  0.00000000  0.93426846  0.93426846  1
  Hg  Hg38  1  0.33960730  0.67881354  0.17777004  1
  Hg  Hg39  1  0.32477596  0.46818066  0.10585383  1
  N  N0  1  0.50000000  0.25508458  0.25508458  1
  N  N1  1  0.75000000  0.75508458  0.24491542  1
  N  N2  1  0.17083927  0.52532481  0.64986323  1
  N  N3  1  0.25000000  0.79853462  0.20146538  1
  N  N4  1  0.79466969  0.07151094  0.36057080  1
  N  N5  1  0.43311565  0.45176765  0.86335041  1
  N  N6  1  0.18311565  0.63664959  0.95176765  1
  N  N7  1  0.45533031  0.57151094  0.13942920  1
  N  N8  1  0.00000000  0.29853462  0.29853462  1
  N  N9  1  0.54466969  0.13942920  0.57151094  1
  N  N10  1  0.64939570  0.45805713  0.66689227  1
  N  N11  1  0.92083927  0.85013677  0.02532481  1
  N  N12  1  0.57916073  0.97467519  0.14986323  1
  N  N13  1  0.85060430  0.33310773  0.54194287  1
  N  N14  1  0.39939570  0.83310773  0.95805713  1
  N  N15  1  0.29466969  0.92848906  0.63942920  1
  N  N16  1  0.00000000  0.74491542  0.74491542  1
  N  N17  1  0.89939570  0.16689227  0.04194287  1
  N  N18  1  0.81688435  0.95176765  0.63664959  1
  N  N19  1  0.35060430  0.66689227  0.45805713  1
  N  N20  1  0.56688435  0.86335041  0.45176765  1
  N  N21  1  0.10060430  0.04194287  0.16689227  1
  N  N22  1  0.82916073  0.64986323  0.52532481  1
  N  N23  1  0.68311565  0.36335041  0.04823235  1
  N  N24  1  0.14939570  0.54194287  0.33310773  1
  N  N25  1  0.42083927  0.14986323  0.97467519  1
  N  N26  1  0.31688435  0.04823235  0.36335041  1
  N  N27  1  0.04466969  0.86057080  0.42848906  1
  N  N28  1  0.32916073  0.35013677  0.47467519  1
  N  N29  1  0.93311565  0.54823235  0.13664959  1
  N  N30  1  0.07916073  0.02532481  0.85013677  1
  N  N31  1  0.50000000  0.70146538  0.70146538  1
  N  N32  1  0.06688435  0.13664959  0.54823235  1
  N  N33  1  0.75000000  0.20146538  0.79853462  1
  N  N34  1  0.67083927  0.47467519  0.35013677  1
  N  N35  1  0.70533031  0.63942920  0.92848906  1
  N  N36  1  0.95533031  0.42848906  0.86057080  1
  N  N37  1  0.25000000  0.24491542  0.75508458  1
  N  N38  1  0.20533031  0.36057080  0.07151094  1
  N  N39  1  0.60060430  0.95805713  0.83310773  1
  O  O0  1  0.33263014  0.39695684  0.86260653  1
  O  O1  1  0.91736986  0.89695684  0.63739347  1
  O  O2  1  0.85062963  0.81061607  0.24175941  1
  O  O3  1  0.87288823  0.30300902  0.61458941  1
  O  O4  1  0.62288823  0.88541059  0.80300902  1
  O  O5  1  0.41736986  0.10304316  0.36260653  1
  O  O6  1  0.19525522  0.69701646  0.00464914  1
  O  O7  1  0.75000000  0.69876241  0.30123759  1
  O  O8  1  0.69525522  0.30298354  0.99535086  1
  O  O9  1  0.58263014  0.36260653  0.10304316  1
  O  O10  1  0.94525522  0.49535086  0.19701646  1
  O  O11  1  0.08263014  0.63739347  0.89695684  1
  O  O12  1  0.02194256  0.54673704  0.07528554  1
  O  O13  1  0.12288823  0.11458941  0.19699098  1
  O  O14  1  0.14937037  0.24175941  0.81061607  1
  O  O15  1  0.25000000  0.30123759  0.69876241  1
  O  O16  1  0.60062963  0.25824059  0.31061607  1
  O  O17  1  0.42504176  0.60408266  0.48563812  1
  O  O18  1  0.05474478  0.19701646  0.49535086  1
  O  O19  1  0.32495824  0.89591734  0.98563812  1
  O  O20  1  0.89937037  0.68938393  0.74175941  1
  O  O21  1  0.44525522  0.50464914  0.80298354  1
  O  O22  1  0.10062963  0.74175941  0.68938393  1
  O  O23  1  0.52194256  0.45326296  0.92471446  1
  O  O24  1  0.17504176  0.01436188  0.10408266  1
  O  O25  1  0.74610542  0.50667036  0.69861543  1
  O  O26  1  0.49610542  0.80138457  0.00667036  1
  O  O27  1  0.16736986  0.13739347  0.60304316  1
  O  O28  1  0.92504176  0.39591734  0.51436188  1
  O  O29  1  0.30474478  0.99535086  0.30298354  1
  O  O30  1  0.07495824  0.51436188  0.39591734  1
  O  O31  1  0.00000000  0.80123759  0.80123759  1
  O  O32  1  0.99610542  0.19861543  0.99332964  1
  O  O33  1  0.12711177  0.61458941  0.30300902  1
  O  O34  1  0.82495824  0.10408266  0.01436188  1
  O  O35  1  0.47805744  0.92471446  0.45326296  1
  O  O36  1  0.83263014  0.60304316  0.13739347  1
  O  O37  1  0.75389458  0.30138457  0.49332964  1
  O  O38  1  0.72805744  0.95326296  0.57528554  1
  O  O39  1  0.77194256  0.42471446  0.04673704  1
  O  O40  1  0.37288823  0.69699098  0.38541059  1
  O  O41  1  0.97805744  0.07528554  0.54673704  1
  O  O42  1  0.00389458  0.99332964  0.19861543  1
  O  O43  1  0.25389458  0.69861543  0.50667036  1
  O  O44  1  0.64937037  0.75824059  0.18938393  1
  O  O45  1  0.39937037  0.31061607  0.25824059  1
  O  O46  1  0.37711177  0.80300902  0.88541059  1
  O  O47  1  0.24610542  0.49332964  0.30138457  1
  O  O48  1  0.27194256  0.57528554  0.95326296  1
  O  O49  1  0.50000000  0.19876241  0.19876241  1
  O  O50  1  0.22805744  0.04673704  0.42471446  1
  O  O51  1  0.62711177  0.38541059  0.69699098  1
  O  O52  1  0.55474478  0.80298354  0.50464914  1
  O  O53  1  0.67504176  0.98563812  0.89591734  1
  O  O54  1  0.66736986  0.86260653  0.39695684  1
  O  O55  1  0.50389458  0.00667036  0.80138457  1
  O  O56  1  0.80474478  0.00464914  0.69701646  1
  O  O57  1  0.87711177  0.19699098  0.11458941  1
  O  O58  1  0.35062963  0.18938393  0.75824059  1
  O  O59  1  0.57495824  0.48563812  0.60408266  1
loop_
_geom_bond_atom_site_label_1
_geom_bond_atom_site_label_2
_geom_bond_distance
_geom_bond_site_symmetry_2
Hg0 N22 2.083876 1_555
Hg0 N34 2.083876 1_555
Hg1 N22 2.106874 1_455
Hg1 N2 2.106874 1_555
Hg2 N9 2.094692 1_555
Hg2 N15 2.095551 1_545
Hg3 N22 2.100554 1_555
Hg3 N31 2.105061 1_555
Hg4 N34 2.100554 1_555
Hg4 N8 2.105061 1_655
Hg5 N4 2.094692 1_555
Hg5 N9 2.095551 1_555
Hg6 N38 2.090816 1_555
Hg6 N25 2.091825 1_554
Hg7 N35 2.089902 1_555
Hg7 N31 2.092205 1_555
Hg8 N4 2.089902 1_555
Hg8 N8 2.092205 1_655
Hg9 N9 2.089902 1_555
Hg9 N33 2.092205 1_555
Hg10 N38 2.089902 1_555
Hg10 N8 2.092205 1_555
Hg11 N27 2.090816 1_655
Hg11 N22 2.091825 1_555
Hg12 N27 2.094692 1_655
Hg12 N4 2.095551 1_565
Hg13 N12 2.100554 1_555
Hg13 N3 2.105061 1_555
Hg14 N35 2.090816 1_555
Hg14 N11 2.091825 1_556
Hg15 N4 2.090816 1_555
Hg15 N12 2.091825 1_545
Hg16 N11 2.100554 1_455
Hg16 N3 2.105061 1_555
Hg17 N36 2.094692 1_455
Hg17 N38 2.095551 1_556
Hg18 N36 2.089902 1_555
Hg18 N33 2.092205 1_555
Hg19 N15 2.094692 1_555
Hg19 N27 2.095551 1_555
Hg20 N15 2.090816 1_555
Hg20 N30 2.091825 1_565
Hg21 N30 2.106874 1_555
Hg21 N25 2.106874 1_555
Hg22 N30 2.100554 1_655
Hg22 N33 2.105061 1_555
Hg23 N2 2.100554 1_555
Hg23 N31 2.105061 1_555
Hg24 N36 2.090816 1_455
Hg24 N2 2.091825 1_555
Hg25 N7 2.090816 1_555
Hg25 N34 2.091825 1_555
Hg26 N2 2.083876 1_555
Hg26 N28 2.083876 1_555
Hg27 N9 2.090816 1_555
Hg27 N28 2.091825 1_555
Hg28 N7 2.094692 1_555
Hg28 N35 2.095551 1_554
Hg29 N15 2.089902 1_555
Hg29 N31 2.092205 1_555
Hg30 N28 2.100554 1_555
Hg30 N8 2.105061 1_555
Hg31 N35 2.094692 1_555
Hg31 N36 2.095551 1_555
Hg32 N34 2.106874 1_555
Hg32 N28 2.106874 1_555
Hg33 N25 2.100554 1_555
Hg33 N33 2.105061 1_555
Hg34 N27 2.089902 1_555
Hg34 N3 2.092205 1_555
Hg35 N11 2.106874 1_555
Hg35 N12 2.106874 1_555
Hg36 N12 2.083876 1_545
Hg36 N25 2.083876 1_554
Hg37 N11 2.083876 1_456
Hg37 N30 2.083876 1_565
Hg38 N7 2.089902 1_555
Hg38 N3 2.092205 1_555
Hg39 N38 2.094692 1_555
Hg39 N7 2.095551 1_555
N0 O49 1.252690 1_555
N0 O45 1.280428 1_555
N0 O16 1.280428 1_555
N1 O7 1.252690 1_555
N1 O44 1.280428 1_555
N1 O2 1.280428 1_555
N5 O21 1.267186 1_555
N5 O23 1.270103 1_555
N5 O0 1.270826 1_555
N6 O6 1.267186 1_556
N6 O48 1.270103 1_555
N6 O11 1.270826 1_555
N10 O51 1.253915 1_555
N10 O25 1.280996 1_555
N10 O59 1.281534 1_555
N13 O3 1.253915 1_555
N13 O37 1.280996 1_555
N13 O28 1.281534 1_555
N14 O46 1.253915 1_555
N14 O26 1.280996 1_556
N14 O19 1.281534 1_555
N16 O31 1.252690 1_555
N16 O22 1.280428 1_555
N16 O20 1.280428 1_455
N17 O57 1.253915 1_555
N17 O32 1.280996 1_554
N17 O34 1.281534 1_555
N18 O56 1.267186 1_565
N18 O38 1.270103 1_555
N18 O1 1.270826 1_555
N19 O40 1.253915 1_555
N19 O43 1.280996 1_555
N19 O17 1.281534 1_555
N20 O52 1.267186 1_555
N20 O35 1.270103 1_555
N20 O54 1.270826 1_555
N21 O13 1.253915 1_555
N21 O42 1.280996 1_545
N21 O24 1.281534 1_555
N23 O8 1.267186 1_554
N23 O39 1.270103 1_555
N23 O9 1.270826 1_555
N24 O33 1.253915 1_555
N24 O47 1.280996 1_555
N24 O30 1.281534 1_555
N26 O29 1.267186 1_545
N26 O50 1.270103 1_555
N26 O5 1.270826 1_555
N29 O10 1.267186 1_555
N29 O12 1.270103 1_655
N29 O36 1.270826 1_555
N32 O18 1.267186 1_555
N32 O41 1.270103 1_455
N32 O27 1.270826 1_555
N37 O15 1.252690 1_555
N37 O58 1.280428 1_555
N37 O14 1.280428 1_555
N39 O4 1.253915 1_555
N39 O55 1.280996 1_565
N39 O53 1.281534 1_555
