# generated using pymatgen
data_Ti3H2O7
_symmetry_space_group_name_H-M   'P 1'
_cell_length_a   18.73079029
_cell_length_b   18.73079029
_cell_length_c   9.54280121
_cell_angle_alpha   81.28894832
_cell_angle_beta   81.28894832
_cell_angle_gamma   11.68336106
_symmetry_Int_Tables_number   1
_chemical_formula_structural   Ti3H2O7
_chemical_formula_sum   'Ti6 H4 O14'
_cell_volume   670.08077053
_cell_formula_units_Z   2
loop_
 _symmetry_equiv_pos_site_id
 _symmetry_equiv_pos_as_xyz
  1  'x, y, z'
loop_
 _atom_site_type_symbol
 _atom_site_label
 _atom_site_symmetry_multiplicity
 _atom_site_fract_x
 _atom_site_fract_y
 _atom_site_fract_z
 _atom_site_occupancy
  Ti  Ti0  1  0.23530400  0.23453900  0.76911100  1
  Ti  Ti1  1  0.76546100  0.76469600  0.23088900  1
  Ti  Ti2  1  0.21733500  0.22037600  0.46735700  1
  Ti  Ti3  1  0.77962400  0.78266500  0.53264300  1
  Ti  Ti4  1  0.18477300  0.18825300  0.14289800  1
  Ti  Ti5  1  0.81174700  0.81522700  0.85710100  1
  H  H0  1  0.97674300  0.33679300  0.40223100  1
  H  H1  1  0.66320700  0.02325700  0.59776900  1
  H  H2  1  0.27578900  0.28489500  0.95704000  1
  H  H3  1  0.71510500  0.72421100  0.04296000  1
  O  O0  1  0.21126600  0.21385800  0.94514400  1
  O  O1  1  0.78614200  0.78873400  0.05485600  1
  O  O2  1  0.19666000  0.20110300  0.65047200  1
  O  O3  1  0.79889700  0.80334000  0.34952800  1
  O  O4  1  0.13343900  0.22269700  0.36391700  1
  O  O5  1  0.77730300  0.86656100  0.63608300  1
  O  O6  1  0.13996300  0.14745600  0.12647700  1
  O  O7  1  0.85254400  0.86003700  0.87352300  1
  O  O8  1  0.28862100  0.29371900  0.85609500  1
  O  O9  1  0.70628100  0.71137900  0.14390500  1
  O  O10  1  0.26263700  0.27491400  0.55165100  1
  O  O11  1  0.72508600  0.73736300  0.44834900  1
  O  O12  1  0.24997200  0.25196000  0.26089100  1
  O  O13  1  0.74804000  0.75002800  0.73910900  1
loop_
_geom_bond_atom_site_label_1
_geom_bond_atom_site_label_2
_geom_bond_distance
_geom_bond_site_symmetry_2
H0 O4 0.970524 1_655
H1 O5 0.970524 1_545
H2 O8 0.986143 1_555
H3 O9 0.986143 1_555
O0 Ti0 1.757858 1_555
O0 Ti4 1.986414 1_556
O1 Ti1 1.757858 1_555
O1 Ti5 1.986422 1_554
O2 Ti2 1.792081 1_555
O2 Ti0 1.883822 1_555
O3 Ti3 1.792081 1_555
O3 Ti1 1.883822 1_555
O4 Ti2 1.941325 1_555
O4 Ti4 2.090969 1_555
O5 Ti3 1.941325 1_555
O5 Ti5 2.090959 1_555
O6 Ti4 1.626425 1_555
O7 Ti5 1.626428 1_555
O8 Ti5 2.077719 1_455
O8 Ti5 2.083372 1_545
O8 Ti0 2.369191 1_555
O9 Ti4 2.077719 1_565
O9 Ti4 2.083372 1_655
O9 Ti1 2.369191 1_555
O10 Ti3 1.946159 1_455
O10 Ti3 1.980355 1_545
O10 Ti2 2.136353 1_555
O10 Ti0 2.258658 1_555
O11 Ti2 1.946159 1_565
O11 Ti2 1.980355 1_655
O11 Ti3 2.136353 1_555
O11 Ti1 2.258658 1_555
O12 Ti1 1.981711 1_455
O12 Ti1 1.991783 1_545
O12 Ti2 2.143840 1_555
O13 Ti0 1.981711 1_565
O13 Ti0 1.991783 1_655
O13 Ti3 2.143840 1_555
