# generated using pymatgen
data_Ca2Ta2O7
_symmetry_space_group_name_H-M   'P 1'
_cell_length_a   7.42489403
_cell_length_b   7.42489403
_cell_length_c   48.80940400
_cell_angle_alpha   90.00000000
_cell_angle_beta   90.00000000
_cell_angle_gamma   119.86112613
_symmetry_Int_Tables_number   1
_chemical_formula_structural   Ca2Ta2O7
_chemical_formula_sum   'Ca32 Ta32 O112'
_cell_volume   2333.56929177
_cell_formula_units_Z   16
loop_
 _symmetry_equiv_pos_site_id
 _symmetry_equiv_pos_as_xyz
  1  'x, y, z'
loop_
 _atom_site_type_symbol
 _atom_site_label
 _atom_site_symmetry_multiplicity
 _atom_site_fract_x
 _atom_site_fract_y
 _atom_site_fract_z
 _atom_site_occupancy
  Ca  Ca0  1  0.74706600  0.74409100  0.06217400  1
  Ca  Ca1  1  0.42025300  0.58487800  0.87574000  1
  Ca  Ca2  1  0.76155900  0.24699000  0.56468200  1
  Ca  Ca3  1  0.75301000  0.23844100  0.43531800  1
  Ca  Ca4  1  0.41135700  0.56765300  0.68732400  1
  Ca  Ca5  1  0.94249800  0.09952200  0.31074000  1
  Ca  Ca6  1  0.56765300  0.41135700  0.81267600  1
  Ca  Ca7  1  0.74409100  0.74706600  0.43782600  1
  Ca  Ca8  1  0.25293400  0.25590900  0.56217400  1
  Ca  Ca9  1  0.57974700  0.41512200  0.37574000  1
  Ca  Ca10  1  0.74926900  0.24206700  0.06415300  1
  Ca  Ca11  1  0.43212100  0.07973600  0.31366300  1
  Ca  Ca12  1  0.24206700  0.74926900  0.43584700  1
  Ca  Ca13  1  0.43234700  0.58864300  0.31267600  1
  Ca  Ca14  1  0.07973600  0.43212100  0.18633700  1
  Ca  Ca15  1  0.56787900  0.92026400  0.81366300  1
  Ca  Ca16  1  0.09952200  0.94249800  0.18926000  1
  Ca  Ca17  1  0.24016500  0.24016500  0.75000000  1
  Ca  Ca18  1  0.25073100  0.75793300  0.56415300  1
  Ca  Ca19  1  0.05750200  0.90047800  0.81074000  1
  Ca  Ca20  1  0.23844100  0.75301000  0.06468200  1
  Ca  Ca21  1  0.75983500  0.75983500  0.25000000  1
  Ca  Ca22  1  0.90047800  0.05750200  0.68926000  1
  Ca  Ca23  1  0.75793300  0.25073100  0.93584700  1
  Ca  Ca24  1  0.92026400  0.56787900  0.68633700  1
  Ca  Ca25  1  0.40971700  0.59028300  0.50000000  1
  Ca  Ca26  1  0.58864300  0.43234700  0.18732400  1
  Ca  Ca27  1  0.58487800  0.42025300  0.62426000  1
  Ca  Ca28  1  0.24699000  0.76155900  0.93531800  1
  Ca  Ca29  1  0.41512200  0.57974700  0.12426000  1
  Ca  Ca30  1  0.25590900  0.25293400  0.93782600  1
  Ca  Ca31  1  0.59028300  0.40971700  0.00000000  1
  Ta  Ta0  1  0.91070000  0.59072100  0.49714300  1
  Ta  Ta1  1  0.27357400  0.27159700  0.43877500  1
  Ta  Ta2  1  0.08930000  0.40927900  0.99714300  1
  Ta  Ta3  1  0.91769300  0.59020700  0.12561500  1
  Ta  Ta4  1  0.41336100  0.10343800  0.68726000  1
  Ta  Ta5  1  0.73982200  0.73982200  0.75000000  1
  Ta  Ta6  1  0.07945200  0.91139100  0.62391300  1
  Ta  Ta7  1  0.24176400  0.74283000  0.74842300  1
  Ta  Ta8  1  0.92054800  0.08860900  0.12391300  1
  Ta  Ta9  1  0.89656200  0.58663900  0.31274000  1
  Ta  Ta10  1  0.91084600  0.08915400  0.50000000  1
  Ta  Ta11  1  0.40927900  0.08930000  0.50285700  1
  Ta  Ta12  1  0.58182000  0.91285300  0.62635300  1
  Ta  Ta13  1  0.40979300  0.08230700  0.87438500  1
  Ta  Ta14  1  0.08230700  0.40979300  0.62561500  1
  Ta  Ta15  1  0.26017800  0.26017800  0.25000000  1
  Ta  Ta16  1  0.08714700  0.41818000  0.37364700  1
  Ta  Ta17  1  0.72840300  0.72642600  0.56122500  1
  Ta  Ta18  1  0.75823600  0.25717000  0.24842300  1
  Ta  Ta19  1  0.58663900  0.89656200  0.18726000  1
  Ta  Ta20  1  0.25717000  0.75823600  0.25157700  1
  Ta  Ta21  1  0.08915400  0.91084600  0.00000000  1
  Ta  Ta22  1  0.59020700  0.91769300  0.37438500  1
  Ta  Ta23  1  0.41818000  0.08714700  0.12635300  1
  Ta  Ta24  1  0.59072100  0.91070000  0.00285700  1
  Ta  Ta25  1  0.74283000  0.24176400  0.75157700  1
  Ta  Ta26  1  0.10343800  0.41336100  0.81274000  1
  Ta  Ta27  1  0.08860900  0.92054800  0.37608700  1
  Ta  Ta28  1  0.27159700  0.27357400  0.06122500  1
  Ta  Ta29  1  0.91139100  0.07945200  0.87608700  1
  Ta  Ta30  1  0.91285300  0.58182000  0.87364700  1
  Ta  Ta31  1  0.72642600  0.72840300  0.93877500  1
  O  O0  1  0.80998900  0.78757700  0.11966200  1
  O  O1  1  0.72320600  0.75905200  0.79085400  1
  O  O2  1  0.64129800  0.03929400  0.11257700  1
  O  O3  1  0.99657400  0.12698800  0.08480200  1
  O  O4  1  0.04937600  0.83765200  0.33632000  1
  O  O5  1  0.38400800  0.61599200  0.00000000  1
  O  O6  1  0.18722700  0.20722500  0.99007400  1
  O  O7  1  0.78247400  0.21752600  0.00000000  1
  O  O8  1  0.22189500  0.78930800  0.12003500  1
  O  O9  1  0.21069200  0.77810500  0.87996500  1
  O  O10  1  0.78480700  0.74043600  0.29434100  1
  O  O11  1  0.61599200  0.38400800  0.50000000  1
  O  O12  1  0.02202900  0.62557800  0.00880400  1
  O  O13  1  0.12698800  0.99657400  0.41519800  1
  O  O14  1  0.01702200  0.38755700  0.13003500  1
  O  O15  1  0.56536600  0.92191000  0.04254300  1
  O  O16  1  0.07809000  0.43463400  0.95745700  1
  O  O17  1  0.44757000  0.04310800  0.16591700  1
  O  O18  1  0.81786100  0.27155500  0.79067200  1
  O  O19  1  0.35870200  0.96070600  0.61257700  1
  O  O20  1  0.61682400  0.45773900  0.57942800  1
  O  O21  1  0.14906600  0.19618000  0.36262600  1
  O  O22  1  0.80382000  0.85093400  0.63737400  1
  O  O23  1  0.13193100  0.37362900  0.41284000  1
  O  O24  1  0.85291100  0.01047900  0.53980700  1
  O  O25  1  0.62557800  0.02202900  0.49119600  1
  O  O26  1  0.04252400  0.84233700  0.75573100  1
  O  O27  1  0.98952100  0.14708900  0.46019300  1
  O  O28  1  0.92191000  0.56536600  0.45745700  1
  O  O29  1  0.61531900  0.38919100  0.13175300  1
  O  O30  1  0.36565600  0.56534700  0.83144700  1
  O  O31  1  0.61474100  0.45787300  0.95565800  1
  O  O32  1  0.35074100  0.09910200  0.46159300  1
  O  O33  1  0.43465300  0.63434400  0.16855300  1
  O  O34  1  0.83765200  0.04937600  0.16368000  1
  O  O35  1  0.90089800  0.64925900  0.53840700  1
  O  O36  1  0.01047900  0.85291100  0.96019300  1
  O  O37  1  0.21242300  0.19001100  0.88033800  1
  O  O38  1  0.43463400  0.07809000  0.54254300  1
  O  O39  1  0.01668200  0.46117600  0.73800800  1
  O  O40  1  0.38525900  0.54212700  0.45565800  1
  O  O41  1  0.27155500  0.81786100  0.70932800  1
  O  O42  1  0.85093400  0.80382000  0.86262600  1
  O  O43  1  0.63656000  0.43653700  0.75638000  1
  O  O44  1  0.97797100  0.37442200  0.50880400  1
  O  O45  1  0.64925900  0.90089800  0.96159300  1
  O  O46  1  0.93904400  0.62518500  0.16623500  1
  O  O47  1  0.20722500  0.18722700  0.50992600  1
  O  O48  1  0.04310800  0.44757000  0.33408300  1
  O  O49  1  0.55243000  0.95689200  0.66591700  1
  O  O50  1  0.81277300  0.79277500  0.49007400  1
  O  O51  1  0.38755700  0.01702200  0.36996500  1
  O  O52  1  0.45773900  0.61682400  0.92057200  1
  O  O53  1  0.56534700  0.36565600  0.66855300  1
  O  O54  1  0.95062400  0.16234800  0.83632000  1
  O  O55  1  0.78757700  0.80998900  0.38033800  1
  O  O56  1  0.24094800  0.27679400  0.20914600  1
  O  O57  1  0.75905200  0.72320600  0.70914600  1
  O  O58  1  0.95747600  0.15766300  0.25573100  1
  O  O59  1  0.62518500  0.93904400  0.33376500  1
  O  O60  1  0.06095600  0.37481500  0.66623500  1
  O  O61  1  0.38468100  0.61080900  0.63175300  1
  O  O62  1  0.14708900  0.98952100  0.03980700  1
  O  O63  1  0.37481500  0.06095600  0.83376500  1
  O  O64  1  0.84233700  0.04252400  0.74426900  1
  O  O65  1  0.65908800  0.20288200  0.71163000  1
  O  O66  1  0.90478600  0.56352000  0.08439500  1
  O  O67  1  0.45787300  0.61474100  0.54434200  1
  O  O68  1  0.36344000  0.56346200  0.25638000  1
  O  O69  1  0.72844500  0.18213900  0.20932800  1
  O  O70  1  0.61080900  0.38468100  0.86824700  1
  O  O71  1  0.25956400  0.21519300  0.70565900  1
  O  O72  1  0.21752600  0.78247400  0.50000000  1
  O  O73  1  0.19618000  0.14906600  0.13737400  1
  O  O74  1  0.53882400  0.98331800  0.26199200  1
  O  O75  1  0.98297800  0.61244300  0.63003500  1
  O  O76  1  0.98331800  0.53882400  0.23800800  1
  O  O77  1  0.77810500  0.21069200  0.62003500  1
  O  O78  1  0.96070600  0.35870200  0.88742300  1
  O  O79  1  0.38317600  0.54226100  0.07942800  1
  O  O80  1  0.37362900  0.13193100  0.08716000  1
  O  O81  1  0.20288200  0.65908800  0.78837000  1
  O  O82  1  0.79711800  0.34091200  0.28837000  1
  O  O83  1  0.43653700  0.63656000  0.74362000  1
  O  O84  1  0.37442200  0.97797100  0.99119600  1
  O  O85  1  0.78930800  0.22189500  0.37996500  1
  O  O86  1  0.63434400  0.43465300  0.33144700  1
  O  O87  1  0.79277500  0.81277300  0.00992600  1
  O  O88  1  0.16234800  0.95062400  0.66368000  1
  O  O89  1  0.74043600  0.78480700  0.20565900  1
  O  O90  1  0.18213900  0.72844500  0.29067200  1
  O  O91  1  0.19001100  0.21242300  0.61966200  1
  O  O92  1  0.87301200  0.00342600  0.91519800  1
  O  O93  1  0.15766300  0.95747600  0.24426900  1
  O  O94  1  0.09910200  0.35074100  0.03840700  1
  O  O95  1  0.34091200  0.79711800  0.21163000  1
  O  O96  1  0.09521400  0.43648000  0.58439500  1
  O  O97  1  0.62637100  0.86806900  0.58716000  1
  O  O98  1  0.46117600  0.01668200  0.76199200  1
  O  O99  1  0.56346300  0.36344000  0.24362000  1
  O  O100  1  0.27679400  0.24094800  0.29085400  1
  O  O101  1  0.86806900  0.62637100  0.91284000  1
  O  O102  1  0.43648000  0.09521400  0.91560500  1
  O  O103  1  0.03929400  0.64129800  0.38742300  1
  O  O104  1  0.56352000  0.90478600  0.41560500  1
  O  O105  1  0.54226100  0.38317600  0.42057200  1
  O  O106  1  0.21519300  0.25956400  0.79434100  1
  O  O107  1  0.54212700  0.38525900  0.04434200  1
  O  O108  1  0.38919100  0.61531900  0.36824700  1
  O  O109  1  0.61244300  0.98297800  0.86996500  1
  O  O110  1  0.95689200  0.55243000  0.83408300  1
  O  O111  1  0.00342600  0.87301200  0.58480200  1
loop_
_geom_bond_atom_site_label_1
_geom_bond_atom_site_label_2
_geom_bond_distance
_geom_bond_site_symmetry_2
Ca0 O66 2.430783 1_555
Ca0 O107 2.476755 1_555
Ca0 O79 2.494596 1_555
Ca0 O15 2.501012 1_555
Ca0 O87 2.589668 1_555
Ca0 O3 2.736722 1_565
Ca0 O62 2.818610 1_655
Ca0 O0 2.836493 1_555
Ca1 O30 2.191049 1_555
Ca1 O52 2.203703 1_555
Ca1 O70 2.537589 1_555
Ca1 O37 2.553844 1_555
Ca1 O109 2.579255 1_555
Ca1 O9 2.597085 1_555
Ca1 O42 2.846317 1_555
Ca1 O78 3.013589 1_455
Ca2 O96 2.360446 1_655
Ca2 O38 2.366694 1_555
Ca2 O20 2.407483 1_555
Ca2 O24 2.490796 1_555
Ca2 O97 2.704547 1_545
Ca2 O77 2.723992 1_555
Ca2 O35 2.925573 1_555
Ca2 O44 3.066230 1_555
Ca3 O104 2.360446 1_545
Ca3 O28 2.366694 1_555
Ca3 O105 2.407483 1_555
Ca3 O27 2.490796 1_555
Ca3 O23 2.704547 1_655
Ca3 O85 2.723992 1_555
Ca3 O32 2.925573 1_555
Ca3 O25 3.066230 1_555
Ca4 O71 2.445941 1_555
Ca4 O53 2.470572 1_555
Ca4 O57 2.482729 1_555
Ca4 O60 2.483735 1_555
Ca4 O49 2.743511 1_555
Ca4 O61 2.749936 1_555
Ca4 O41 2.757272 1_555
Ca4 O83 2.784192 1_555
Ca5 O59 2.331972 1_545
Ca5 O100 2.368585 1_655
Ca5 O10 2.451834 1_545
Ca5 O48 2.571384 1_655
Ca5 O58 2.712915 1_555
Ca5 O82 2.737918 1_555
Ca5 O4 2.739635 1_645
Ca5 O21 2.860945 1_655
Ca6 O106 2.445941 1_555
Ca6 O30 2.470572 1_555
Ca6 O1 2.482729 1_555
Ca6 O63 2.483735 1_555
Ca6 O110 2.743511 1_555
Ca6 O70 2.749936 1_555
Ca6 O18 2.757272 1_555
Ca6 O43 2.784192 1_555
Ca7 O104 2.430783 1_555
Ca7 O40 2.476755 1_555
Ca7 O105 2.494596 1_555
Ca7 O28 2.501012 1_555
Ca7 O50 2.589668 1_555
Ca7 O13 2.736722 1_655
Ca7 O27 2.818610 1_565
Ca7 O55 2.836493 1_555
Ca8 O96 2.430783 1_555
Ca8 O67 2.476755 1_555
Ca8 O20 2.494596 1_555
Ca8 O38 2.501012 1_555
Ca8 O47 2.589668 1_555
Ca8 O111 2.736722 1_545
Ca8 O24 2.818610 1_455
Ca8 O91 2.836493 1_555
Ca9 O86 2.191049 1_555
Ca9 O105 2.203703 1_555
Ca9 O108 2.537589 1_555
Ca9 O55 2.553844 1_555
Ca9 O51 2.579255 1_555
Ca9 O85 2.597085 1_555
Ca9 O21 2.846317 1_555
Ca9 O103 3.013589 1_655
Ca10 O66 2.293832 1_555
Ca10 O15 2.322829 1_545
Ca10 O107 2.461537 1_555
Ca10 O3 2.584553 1_555
Ca10 O94 2.624886 1_655
Ca10 O2 2.700716 1_555
Ca10 O80 2.727190 1_555
Ca11 O100 2.318819 1_555
Ca11 O59 2.366420 1_545
Ca11 O86 2.451978 1_555
Ca11 O90 2.585860 1_545
Ca11 O82 2.719513 1_555
Ca11 O4 2.728230 1_545
Ca11 O51 2.779344 1_555
Ca11 O74 2.840001 1_545
Ca12 O104 2.293832 1_555
Ca12 O28 2.322829 1_455
Ca12 O40 2.461537 1_555
Ca12 O13 2.584553 1_555
Ca12 O32 2.624886 1_565
Ca12 O103 2.700716 1_555
Ca12 O23 2.727190 1_555
Ca13 O10 2.445941 1_555
Ca13 O86 2.470572 1_555
Ca13 O100 2.482729 1_555
Ca13 O59 2.483735 1_555
Ca13 O48 2.743511 1_555
Ca13 O108 2.749936 1_555
Ca13 O90 2.757272 1_555
Ca13 O68 2.784192 1_555
Ca14 O56 2.318819 1_555
Ca14 O46 2.366420 1_455
Ca14 O33 2.451978 1_555
Ca14 O69 2.585860 1_455
Ca14 O95 2.719513 1_555
Ca14 O34 2.728230 1_455
Ca14 O14 2.779344 1_555
Ca14 O76 2.840001 1_455
Ca15 O1 2.318819 1_555
Ca15 O63 2.366420 1_565
Ca15 O30 2.451978 1_555
Ca15 O18 2.585860 1_565
Ca15 O81 2.719513 1_555
Ca15 O54 2.728230 1_565
Ca15 O109 2.779344 1_555
Ca15 O98 2.840001 1_565
Ca16 O46 2.331972 1_455
Ca16 O56 2.368585 1_565
Ca16 O89 2.451834 1_455
Ca16 O17 2.571384 1_565
Ca16 O93 2.712915 1_555
Ca16 O95 2.737918 1_555
Ca16 O34 2.739635 1_465
Ca16 O73 2.860945 1_565
Ca17 O71 2.183055 1_555
Ca17 O106 2.183055 1_555
Ca17 O83 2.571374 1_555
Ca17 O43 2.571374 1_555
Ca17 O26 2.576894 1_545
Ca17 O64 2.576894 1_455
Ca17 O98 2.915533 1_555
Ca17 O39 2.915533 1_555
Ca18 O96 2.293832 1_555
Ca18 O38 2.322829 1_565
Ca18 O67 2.461537 1_555
Ca18 O111 2.584553 1_555
Ca18 O35 2.624886 1_455
Ca18 O19 2.700716 1_555
Ca18 O97 2.727190 1_555
Ca19 O63 2.331972 1_565
Ca19 O1 2.368585 1_455
Ca19 O106 2.451834 1_565
Ca19 O110 2.571384 1_455
Ca19 O26 2.712915 1_555
Ca19 O81 2.737918 1_555
Ca19 O54 2.739635 1_465
Ca19 O42 2.860945 1_455
Ca20 O66 2.360446 1_455
Ca20 O15 2.366694 1_555
Ca20 O79 2.407483 1_555
Ca20 O62 2.490796 1_555
Ca20 O80 2.704547 1_565
Ca20 O8 2.723992 1_555
Ca20 O94 2.925573 1_555
Ca20 O12 3.066230 1_555
Ca21 O89 2.183055 1_555
Ca21 O10 2.183055 1_555
Ca21 O68 2.571374 1_555
Ca21 O99 2.571374 1_555
Ca21 O58 2.576894 1_565
Ca21 O93 2.576894 1_655
Ca21 O76 2.915533 1_555
Ca21 O74 2.915533 1_555
Ca22 O60 2.331972 1_655
Ca22 O57 2.368585 1_545
Ca22 O71 2.451834 1_655
Ca22 O49 2.571384 1_545
Ca22 O64 2.712915 1_555
Ca22 O65 2.737918 1_555
Ca22 O88 2.739635 1_645
Ca22 O22 2.860945 1_545
Ca23 O102 2.293832 1_555
Ca23 O16 2.322829 1_655
Ca23 O31 2.461537 1_555
Ca23 O92 2.584553 1_555
Ca23 O45 2.624886 1_545
Ca23 O78 2.700716 1_555
Ca23 O101 2.727190 1_555
Ca24 O57 2.318819 1_555
Ca24 O60 2.366420 1_655
Ca24 O53 2.451978 1_555
Ca24 O41 2.585860 1_655
Ca24 O65 2.719513 1_555
Ca24 O88 2.728230 1_655
Ca24 O75 2.779344 1_555
Ca24 O39 2.840001 1_655
Ca25 O67 2.186410 1_555
Ca25 O40 2.186410 1_555
Ca25 O72 2.469902 1_555
Ca25 O47 2.640196 1_555
Ca25 O50 2.640196 1_555
Ca25 O11 2.650899 1_555
Ca25 O44 2.813090 1_455
Ca25 O25 2.813090 1_565
Ca26 O89 2.445941 1_555
Ca26 O33 2.470572 1_555
Ca26 O56 2.482729 1_555
Ca26 O46 2.483735 1_555
Ca26 O17 2.743511 1_555
Ca26 O29 2.749936 1_555
Ca26 O69 2.757272 1_555
Ca26 O99 2.784192 1_555
Ca27 O53 2.191049 1_555
Ca27 O20 2.203703 1_555
Ca27 O61 2.537589 1_555
Ca27 O91 2.553844 1_555
Ca27 O75 2.579255 1_555
Ca27 O77 2.597085 1_555
Ca27 O22 2.846317 1_555
Ca27 O19 3.013589 1_545
Ca28 O102 2.360446 1_565
Ca28 O16 2.366694 1_555
Ca28 O52 2.407483 1_555
Ca28 O36 2.490796 1_555
Ca28 O101 2.704547 1_455
Ca28 O9 2.723992 1_555
Ca28 O45 2.925573 1_555
Ca28 O84 3.066230 1_555
Ca29 O33 2.191049 1_555
Ca29 O79 2.203703 1_555
Ca29 O29 2.537589 1_555
Ca29 O0 2.553844 1_555
Ca29 O14 2.579255 1_555
Ca29 O8 2.597085 1_555
Ca29 O73 2.846317 1_555
Ca29 O2 3.013589 1_565
Ca30 O102 2.430783 1_555
Ca30 O31 2.476755 1_555
Ca30 O52 2.494596 1_555
Ca30 O16 2.501012 1_555
Ca30 O6 2.589668 1_555
Ca30 O92 2.736722 1_455
Ca30 O36 2.818610 1_545
Ca30 O37 2.836493 1_555
Ca31 O31 2.186410 1_554
Ca31 O107 2.186410 1_555
Ca31 O7 2.469902 1_555
Ca31 O87 2.640196 1_555
Ca31 O6 2.640196 1_554
Ca31 O5 2.650899 1_555
Ca31 O84 2.813090 1_544
Ca31 O12 2.813090 1_655
O0 Ta8 1.971201 1_565
O0 Ta3 2.009593 1_555
O1 Ta5 2.007342 1_555
O2 Ta23 1.977096 1_555
O2 Ta8 1.995797 1_555
O3 Ta8 1.970758 1_555
O3 Ta28 2.113183 1_655
O4 Ta9 1.994939 1_455
O4 Ta27 2.013118 1_555
O5 Ta24 1.954197 1_555
O5 Ta2 1.954197 1_554
O6 Ta2 1.996156 1_555
O6 Ta21 2.002959 1_546
O7 Ta2 2.001646 1_654
O7 Ta24 2.001646 1_545
O8 Ta23 1.974870 1_565
O8 Ta3 2.009022 1_455
O9 Ta30 1.974870 1_455
O9 Ta13 2.009022 1_565
O10 Ta9 1.934567 1_555
O11 Ta11 1.954197 1_555
O11 Ta0 1.954197 1_555
O12 Ta21 1.966756 1_555
O12 Ta2 1.987826 1_554
O13 Ta27 1.970758 1_555
O13 Ta1 2.113183 1_565
O14 Ta8 1.986450 1_455
O14 Ta3 1.989844 1_455
O15 Ta24 1.951957 1_555
O16 Ta2 1.951957 1_555
O17 Ta23 1.988648 1_555
O17 Ta19 2.110491 1_545
O18 Ta25 1.969217 1_555
O18 Ta26 2.131112 1_655
O19 Ta12 1.977096 1_555
O19 Ta6 1.995797 1_555
O20 Ta17 1.951881 1_555
O21 Ta27 1.976536 1_545
O21 Ta16 1.993071 1_555
O22 Ta6 1.976536 1_655
O22 Ta12 1.993071 1_555
O23 Ta16 1.997257 1_555
O23 Ta1 2.018856 1_555
O24 Ta10 2.012741 1_555
O24 Ta17 2.110470 1_545
O25 Ta10 1.966756 1_555
O25 Ta11 1.987826 1_555
O26 Ta7 1.987441 1_555
O26 Ta5 2.001364 1_455
O27 Ta10 2.012741 1_555
O27 Ta1 2.110470 1_655
O28 Ta0 1.951957 1_555
O29 Ta23 1.993138 1_555
O29 Ta3 2.005256 1_555
O30 Ta26 1.926111 1_555
O31 Ta31 1.934615 1_555
O32 Ta1 1.984882 1_555
O32 Ta11 2.069345 1_555
O33 Ta19 1.926111 1_555
O34 Ta19 1.994939 1_545
O34 Ta8 2.013118 1_555
O35 Ta17 1.984882 1_555
O35 Ta0 2.069345 1_555
O36 Ta21 2.012741 1_556
O36 Ta31 2.110470 1_455
O37 Ta29 1.971201 1_455
O37 Ta13 2.009593 1_555
O38 Ta11 1.951957 1_555
O39 Ta25 1.982030 1_455
O39 Ta7 1.986066 1_555
O40 Ta1 1.934615 1_555
O41 Ta7 1.969217 1_555
O41 Ta4 2.131112 1_565
O42 Ta29 1.976536 1_565
O42 Ta30 1.993071 1_555
O43 Ta25 1.976170 1_555
O43 Ta5 2.009083 1_555
O44 Ta10 1.966756 1_555
O44 Ta0 1.987826 1_555
O45 Ta31 1.984882 1_555
O45 Ta24 2.069345 1_556
O46 Ta3 1.995604 1_555
O47 Ta11 1.996156 1_555
O47 Ta10 2.002959 1_455
O48 Ta16 1.988648 1_555
O48 Ta9 2.110491 1_455
O49 Ta12 1.988648 1_555
O49 Ta4 2.110491 1_565
O50 Ta0 1.996156 1_555
O50 Ta10 2.002959 1_565
O51 Ta27 1.986450 1_545
O51 Ta22 1.989844 1_545
O52 Ta31 1.951881 1_555
O53 Ta4 1.926111 1_555
O54 Ta26 1.994939 1_655
O54 Ta29 2.013118 1_555
O55 Ta27 1.971201 1_655
O55 Ta22 2.009593 1_555
O56 Ta15 2.007342 1_555
O57 Ta5 2.007342 1_555
O58 Ta18 1.987441 1_555
O58 Ta15 2.001364 1_655
O59 Ta22 1.995604 1_555
O60 Ta14 1.995604 1_555
O61 Ta12 1.993138 1_555
O61 Ta14 2.005256 1_555
O62 Ta21 2.012741 1_555
O62 Ta28 2.110470 1_565
O63 Ta13 1.995604 1_555
O64 Ta25 1.987441 1_555
O64 Ta5 2.001364 1_545
O65 Ta4 1.986797 1_555
O65 Ta25 2.023086 1_555
O66 Ta3 2.019251 1_555
O67 Ta17 1.934615 1_555
O68 Ta20 1.976177 1_555
O68 Ta15 2.009077 1_555
O69 Ta18 1.969217 1_555
O69 Ta19 2.131112 1_545
O70 Ta30 1.993138 1_555
O70 Ta13 2.005256 1_555
O71 Ta4 1.934567 1_555
O72 Ta11 2.001646 1_565
O72 Ta0 2.001646 1_455
O73 Ta8 1.976536 1_455
O73 Ta23 1.993071 1_555
O74 Ta18 1.982030 1_565
O74 Ta20 1.986066 1_555
O75 Ta6 1.986450 1_655
O75 Ta14 1.989844 1_655
O76 Ta20 1.982030 1_655
O76 Ta18 1.986066 1_555
O77 Ta12 1.974870 1_545
O77 Ta14 2.009022 1_655
O78 Ta30 1.977096 1_555
O78 Ta29 1.995797 1_555
O79 Ta28 1.951881 1_555
O80 Ta23 1.997257 1_555
O80 Ta28 2.018856 1_555
O81 Ta26 1.986797 1_555
O81 Ta7 2.023086 1_555
O82 Ta9 1.986797 1_555
O82 Ta18 2.023086 1_555
O83 Ta7 1.976170 1_555
O83 Ta5 2.009083 1_555
O84 Ta21 1.966756 1_556
O84 Ta24 1.987826 1_556
O85 Ta16 1.974870 1_655
O85 Ta22 2.009022 1_545
O86 Ta9 1.926111 1_555
O87 Ta24 1.996156 1_555
O87 Ta21 2.002959 1_655
O88 Ta4 1.994939 1_565
O88 Ta6 2.013118 1_555
O89 Ta19 1.934567 1_555
O90 Ta20 1.969217 1_555
O90 Ta9 2.131112 1_455
O91 Ta6 1.971201 1_545
O91 Ta14 2.009593 1_555
O92 Ta29 1.970758 1_555
O92 Ta31 2.113183 1_545
O93 Ta20 1.987441 1_555
O93 Ta15 2.001364 1_565
O94 Ta28 1.984882 1_555
O94 Ta2 2.069345 1_554
O95 Ta19 1.986797 1_555
O95 Ta20 2.023086 1_555
O96 Ta14 2.019251 1_555
O97 Ta12 1.997257 1_555
O97 Ta17 2.018856 1_555
O98 Ta7 1.982030 1_545
O98 Ta25 1.986066 1_555
O99 Ta18 1.976170 1_555
O99 Ta15 2.009083 1_555
O100 Ta15 2.007342 1_555
O101 Ta30 1.997257 1_555
O101 Ta31 2.018856 1_555
O102 Ta13 2.019251 1_555
O103 Ta16 1.977096 1_555
O103 Ta27 1.995797 1_555
O104 Ta22 2.019251 1_555
O105 Ta1 1.951881 1_555
O106 Ta26 1.934567 1_555
O107 Ta28 1.934615 1_555
O108 Ta16 1.993138 1_555
O108 Ta22 2.005256 1_555
O109 Ta29 1.986450 1_565
O109 Ta13 1.989844 1_565
O110 Ta30 1.988648 1_555
O110 Ta26 2.110491 1_655
O111 Ta6 1.970758 1_555
O111 Ta17 2.113183 1_455
