# generated using pymatgen
data_SiO2
_symmetry_space_group_name_H-M   'P 1'
_cell_length_a   7.17367623
_cell_length_b   7.17367623
_cell_length_c   20.87529174
_cell_angle_alpha   90.00000000
_cell_angle_beta   90.00000000
_cell_angle_gamma   90.00000000
_symmetry_Int_Tables_number   1
_chemical_formula_structural   SiO2
_chemical_formula_sum   'Si18 O36'
_cell_volume   1074.27655329
_cell_formula_units_Z   18
loop_
 _symmetry_equiv_pos_site_id
 _symmetry_equiv_pos_as_xyz
  1  'x, y, z'
loop_
 _atom_site_type_symbol
 _atom_site_label
 _atom_site_symmetry_multiplicity
 _atom_site_fract_x
 _atom_site_fract_y
 _atom_site_fract_z
 _atom_site_occupancy
  Si  Si0  1  0.28420259  0.50000000  0.07671794  1
  Si  Si1  1  0.50000000  0.28420259  0.57671794  1
  Si  Si2  1  0.50000000  0.71579741  0.57671794  1
  Si  Si3  1  0.28420259  0.50000000  0.92328206  1
  Si  Si4  1  0.71579741  0.50000000  0.92328206  1
  Si  Si5  1  0.71579741  0.50000000  0.07671794  1
  Si  Si6  1  0.50000000  0.28420259  0.42328206  1
  Si  Si7  1  0.50000000  0.71579741  0.42328206  1
  Si  Si8  1  0.00000000  0.79382252  0.12676787  1
  Si  Si9  1  0.20617748  0.00000000  0.62676787  1
  Si  Si10  1  0.79382252  0.00000000  0.62676787  1
  Si  Si11  1  0.00000000  0.20617748  0.87323213  1
  Si  Si12  1  0.00000000  0.79382252  0.87323213  1
  Si  Si13  1  0.00000000  0.20617748  0.12676787  1
  Si  Si14  1  0.79382252  0.00000000  0.37323213  1
  Si  Si15  1  0.20617748  0.00000000  0.37323213  1
  Si  Si16  1  0.00000000  0.00000000  0.75000000  1
  Si  Si17  1  0.00000000  0.00000000  0.25000000  1
  O  O0  1  0.26575018  0.50000000  -0.00000000  1
  O  O1  1  0.50000000  0.26575018  0.50000000  1
  O  O2  1  0.50000000  0.73424982  0.50000000  1
  O  O3  1  0.73424982  0.50000000  -0.00000000  1
  O  O4  1  0.18450008  0.68361875  0.10488895  1
  O  O5  1  0.31638125  0.18450008  0.60488895  1
  O  O6  1  0.68361875  0.81549992  0.60488895  1
  O  O7  1  0.18450008  0.31638125  0.89511105  1
  O  O8  1  0.81549992  0.68361875  0.89511105  1
  O  O9  1  0.81549992  0.31638125  0.10488895  1
  O  O10  1  0.68361875  0.18450008  0.39511105  1
  O  O11  1  0.31638125  0.81549992  0.39511105  1
  O  O12  1  0.81549992  0.31638125  0.89511105  1
  O  O13  1  0.68361875  0.81549992  0.39511105  1
  O  O14  1  0.31638125  0.18450008  0.39511105  1
  O  O15  1  0.81549992  0.68361875  0.10488895  1
  O  O16  1  0.18450008  0.31638125  0.10488895  1
  O  O17  1  0.18450008  0.68361875  0.89511105  1
  O  O18  1  0.31638125  0.81549992  0.60488895  1
  O  O19  1  0.68361875  0.18450008  0.60488895  1
  O  O20  1  0.50000000  0.50000000  0.09742872  1
  O  O21  1  0.50000000  0.50000000  0.59742872  1
  O  O22  1  0.50000000  0.50000000  0.90257128  1
  O  O23  1  0.50000000  0.50000000  0.40257128  1
  O  O24  1  0.00000000  0.00000000  0.09509616  1
  O  O25  1  0.00000000  0.00000000  0.59509616  1
  O  O26  1  0.00000000  0.00000000  0.90490384  1
  O  O27  1  0.00000000  0.00000000  0.40490384  1
  O  O28  1  0.00000000  0.81786823  0.20409400  1
  O  O29  1  0.18213077  0.00000000  0.70409400  1
  O  O30  1  0.81786823  0.00000000  0.70409400  1
  O  O31  1  0.00000000  0.18213077  0.79590600  1
  O  O32  1  0.00000000  0.81786823  0.79590600  1
  O  O33  1  0.00000000  0.18213077  0.20409400  1
  O  O34  1  0.81786823  0.00000000  0.29590600  1
  O  O35  1  0.18213077  0.00000000  0.29590600  1
loop_
_geom_bond_atom_site_label_1
_geom_bond_atom_site_label_2
_geom_bond_distance
_geom_bond_site_symmetry_2
O0 Si3 1.606971 1_554
O0 Si0 1.606971 1_555
O1 Si1 1.606971 1_555
O1 Si6 1.606971 1_555
O2 Si7 1.606971 1_555
O2 Si2 1.606971 1_555
O3 Si4 1.606971 1_554
O3 Si5 1.606971 1_555
O4 Si8 1.607907 1_555
O4 Si0 1.610114 1_555
O5 Si9 1.607907 1_555
O5 Si1 1.610114 1_555
O6 Si10 1.607907 1_565
O6 Si2 1.610114 1_555
O7 Si11 1.607907 1_555
O7 Si3 1.610114 1_555
O8 Si12 1.607907 1_655
O8 Si4 1.610114 1_555
O9 Si13 1.607907 1_655
O9 Si5 1.610114 1_555
O10 Si14 1.607907 1_555
O10 Si6 1.610114 1_555
O11 Si15 1.607907 1_565
O11 Si7 1.610114 1_555
O12 Si11 1.607907 1_655
O12 Si4 1.610114 1_555
O13 Si14 1.607907 1_565
O13 Si7 1.610114 1_555
O14 Si15 1.607907 1_555
O14 Si6 1.610114 1_555
O15 Si8 1.607907 1_655
O15 Si5 1.610114 1_555
O16 Si13 1.607907 1_555
O16 Si0 1.610114 1_555
O17 Si12 1.607907 1_555
O17 Si3 1.610114 1_555
O18 Si9 1.607907 1_565
O18 Si2 1.610114 1_555
O19 Si10 1.607907 1_555
O19 Si1 1.610114 1_555
O20 Si5 1.607300 1_555
O20 Si0 1.607300 1_555
O21 Si1 1.607300 1_555
O21 Si2 1.607300 1_555
O22 Si3 1.607300 1_555
O22 Si4 1.607300 1_555
O23 Si7 1.607300 1_555
O23 Si6 1.607300 1_555
O24 Si13 1.620098 1_555
O24 Si8 1.620098 1_545
O25 Si9 1.620098 1_555
O25 Si10 1.620098 1_455
O26 Si11 1.620098 1_555
O26 Si12 1.620098 1_545
O27 Si15 1.620098 1_555
O27 Si14 1.620098 1_455
O28 Si17 1.620316 1_565
O28 Si8 1.623396 1_555
O29 Si16 1.620311 1_555
O29 Si9 1.623397 1_555
O30 Si16 1.620316 1_655
O30 Si10 1.623396 1_555
O31 Si16 1.620311 1_555
O31 Si11 1.623397 1_555
O32 Si16 1.620316 1_565
O32 Si12 1.623396 1_555
O33 Si17 1.620311 1_555
O33 Si13 1.623397 1_555
O34 Si17 1.620316 1_655
O34 Si14 1.623396 1_555
O35 Si17 1.620311 1_555
O35 Si15 1.623397 1_555
