# generated using pymatgen
data_BaNa4Cu3F12
_symmetry_space_group_name_H-M   'P 1'
_cell_length_a   14.07799984
_cell_length_b   14.07799984
_cell_length_c   14.07799984
_cell_angle_alpha   109.47122063
_cell_angle_beta   109.47122063
_cell_angle_gamma   109.47122063
_symmetry_Int_Tables_number   1
_chemical_formula_structural   BaNa4Cu3F12
_chemical_formula_sum   'Ba8 Na32 Cu24 F96'
_cell_volume   2147.83530832
_cell_formula_units_Z   8
loop_
 _symmetry_equiv_pos_site_id
 _symmetry_equiv_pos_as_xyz
  1  'x, y, z'
loop_
 _atom_site_type_symbol
 _atom_site_label
 _atom_site_symmetry_multiplicity
 _atom_site_fract_x
 _atom_site_fract_y
 _atom_site_fract_z
 _atom_site_occupancy
  Ba  Ba0  1  0.50000000  0.50000000  0.00000000  1
  Ba  Ba1  1  0.00000000  0.00000000  0.00000000  1
  Ba  Ba2  1  0.50000000  0.00000000  0.50000000  1
  Ba  Ba3  1  0.50000000  0.00000000  0.00000000  1
  Ba  Ba4  1  0.00000000  0.50000000  0.00000000  1
  Ba  Ba5  1  0.00000000  0.50000000  0.50000000  1
  Ba  Ba6  1  0.50000000  0.50000000  0.50000000  1
  Ba  Ba7  1  0.00000000  0.00000000  0.50000000  1
  Na  Na0  1  0.25189600  0.25189600  0.25189600  1
  Na  Na1  1  0.52446200  0.25000000  0.77446200  1
  Na  Na2  1  0.00000000  0.75189600  0.50000000  1
  Na  Na3  1  0.74810400  0.74810400  0.74810400  1
  Na  Na4  1  0.47553800  0.75000000  0.22553800  1
  Na  Na5  1  0.25000000  0.50446000  0.25446000  1
  Na  Na6  1  0.00000000  0.24810400  0.50000000  1
  Na  Na7  1  0.50000000  0.00000000  0.75189600  1
  Na  Na8  1  0.25000000  0.00446000  0.75446000  1
  Na  Na9  1  0.00446000  0.75446000  0.25000000  1
  Na  Na10  1  0.02446200  0.25000000  0.27446200  1
  Na  Na11  1  0.75000000  0.99554000  0.24554000  1
  Na  Na12  1  0.22553800  0.47553800  0.75000000  1
  Na  Na13  1  0.74554000  0.75000000  0.49554000  1
  Na  Na14  1  0.72553800  0.97553800  0.75000000  1
  Na  Na15  1  0.25000000  0.27446200  0.02446200  1
  Na  Na16  1  0.27446200  0.02446200  0.25000000  1
  Na  Na17  1  0.50000000  0.00000000  0.24810400  1
  Na  Na18  1  0.24554000  0.75000000  0.99554000  1
  Na  Na19  1  0.99554000  0.24554000  0.75000000  1
  Na  Na20  1  0.50446000  0.25446000  0.25000000  1
  Na  Na21  1  0.49554000  0.74554000  0.75000000  1
  Na  Na22  1  0.75000000  0.22553800  0.47553800  1
  Na  Na23  1  0.24810400  0.50000000  0.00000000  1
  Na  Na24  1  0.75189600  0.50000000  0.00000000  1
  Na  Na25  1  0.75446000  0.25000000  0.00446000  1
  Na  Na26  1  0.77446200  0.52446200  0.25000000  1
  Na  Na27  1  0.25000000  0.77446200  0.52446200  1
  Na  Na28  1  0.25446000  0.25000000  0.50446000  1
  Na  Na29  1  0.75000000  0.72553800  0.97553800  1
  Na  Na30  1  0.97553800  0.75000000  0.72553800  1
  Na  Na31  1  0.75000000  0.49554000  0.74554000  1
  Cu  Cu0  1  0.24991100  0.50114500  0.50141900  1
  Cu  Cu1  1  0.24849200  0.74876600  0.74991100  1
  Cu  Cu2  1  0.50141900  0.24991100  0.50114500  1
  Cu  Cu3  1  0.75150800  0.25123400  0.25008900  1
  Cu  Cu4  1  0.00027300  0.99885500  0.24876600  1
  Cu  Cu5  1  0.75008900  0.49885500  0.49858100  1
  Cu  Cu6  1  0.00114500  0.75123400  0.99972700  1
  Cu  Cu7  1  0.99885500  0.24876600  0.00027300  1
  Cu  Cu8  1  0.49972700  0.74849200  0.99858100  1
  Cu  Cu9  1  0.75123400  0.99972700  0.00114500  1
  Cu  Cu10  1  0.74849200  0.99858100  0.49972700  1
  Cu  Cu11  1  0.50027300  0.25150800  0.00141900  1
  Cu  Cu12  1  0.00141900  0.50027300  0.25150800  1
  Cu  Cu13  1  0.24876600  0.00027300  0.99885500  1
  Cu  Cu14  1  0.74991100  0.24849200  0.74876600  1
  Cu  Cu15  1  0.99858100  0.49972700  0.74849200  1
  Cu  Cu16  1  0.50114500  0.50141900  0.24991100  1
  Cu  Cu17  1  0.49885500  0.49858100  0.75008900  1
  Cu  Cu18  1  0.49858100  0.75008900  0.49885500  1
  Cu  Cu19  1  0.99972700  0.00114500  0.75123400  1
  Cu  Cu20  1  0.25008900  0.75150800  0.25123400  1
  Cu  Cu21  1  0.25150800  0.00141900  0.50027300  1
  Cu  Cu22  1  0.74876600  0.74991100  0.24849200  1
  Cu  Cu23  1  0.25123400  0.25008900  0.75150800  1
  F  F0  1  0.05183200  0.13876700  0.39212700  1
  F  F1  1  0.36123300  0.41306400  0.25336000  1
  F  F2  1  0.13876700  0.39212700  0.05183200  1
  F  F3  1  0.89565700  0.26225200  0.34775900  1
  F  F4  1  0.54818400  0.65438500  0.41676700  1
  F  F5  1  0.65970500  0.10787300  0.24664000  1
  F  F6  1  0.39565700  0.04789800  0.63340400  1
  F  F7  1  0.65918200  0.91622100  0.55476400  1
  F  F8  1  0.44523600  0.34081800  0.08377900  1
  F  F9  1  0.76238200  0.84561500  0.39379900  1
  F  F10  1  0.75703900  0.36145700  0.41622100  1
  F  F11  1  0.08323300  0.73761800  0.13141700  1
  F  F12  1  0.58377900  0.24296100  0.63854300  1
  F  F13  1  0.55183200  0.15970500  0.91306400  1
  F  F14  1  0.73774800  0.65224100  0.10434300  1
  F  F15  1  0.65224100  0.10434300  0.73774800  1
  F  F16  1  0.55476400  0.65918200  0.91622100  1
  F  F17  1  0.86858300  0.91676700  0.26238200  1
  F  F18  1  0.73761800  0.13141700  0.08323300  1
  F  F19  1  0.39212700  0.05183200  0.13876700  1
  F  F20  1  0.13854300  0.89558200  0.05476400  1
  F  F21  1  0.60787300  0.94816800  0.86123300  1
  F  F22  1  0.34081800  0.08377900  0.44523600  1
  F  F23  1  0.58550600  0.45210200  0.84775900  1
  F  F24  1  0.60434300  0.95210200  0.36659600  1
  F  F25  1  0.54789800  0.15224100  0.41449400  1
  F  F26  1  0.84775900  0.58550600  0.45210200  1
  F  F27  1  0.89212700  0.75336000  0.34029500  1
  F  F28  1  0.86659600  0.91449400  0.76225200  1
  F  F29  1  0.25336000  0.36123300  0.41306400  1
  F  F30  1  0.05476400  0.13854300  0.89558200  1
  F  F31  1  0.10441800  0.94523600  0.86145700  1
  F  F32  1  0.65438500  0.41676700  0.54818400  1
  F  F33  1  0.36145700  0.41622100  0.75703900  1
  F  F34  1  0.15970500  0.91306400  0.55183200  1
  F  F35  1  0.41676700  0.54818400  0.65438500  1
  F  F36  1  0.13141700  0.08323300  0.73761800  1
  F  F37  1  0.15918200  0.60441800  0.74296100  1
  F  F38  1  0.76225200  0.86659600  0.91449400  1
  F  F39  1  0.41306400  0.25336000  0.36123300  1
  F  F40  1  0.86145700  0.10441800  0.94523600  1
  F  F41  1  0.84029500  0.08693600  0.44816800  1
  F  F42  1  0.84081800  0.39558200  0.25703900  1
  F  F43  1  0.60620100  0.23761800  0.15438500  1
  F  F44  1  0.08550600  0.23774800  0.13340400  1
  F  F45  1  0.10620100  0.95181600  0.36858300  1
  F  F46  1  0.10434300  0.73774800  0.65224100  1
  F  F47  1  0.04818400  0.63141700  0.89379900  1
  F  F48  1  0.24296100  0.63854300  0.58377900  1
  F  F49  1  0.45210200  0.84775900  0.58550600  1
  F  F50  1  0.08377900  0.44523600  0.34081800  1
  F  F51  1  0.10787300  0.24664000  0.65970500  1
  F  F52  1  0.04789800  0.63340400  0.39565700  1
  F  F53  1  0.23761800  0.15438500  0.60620100  1
  F  F54  1  0.26225200  0.34775900  0.89565700  1
  F  F55  1  0.91306400  0.55183200  0.15970500  1
  F  F56  1  0.25703900  0.84081800  0.39558200  1
  F  F57  1  0.63876700  0.58693600  0.74664000  1
  F  F58  1  0.15438500  0.60620100  0.23761800  1
  F  F59  1  0.94816800  0.86123300  0.60787300  1
  F  F60  1  0.75336000  0.34029500  0.89212700  1
  F  F61  1  0.58323300  0.45181600  0.34561500  1
  F  F62  1  0.63854300  0.58377900  0.24296100  1
  F  F63  1  0.08693600  0.44816800  0.84029500  1
  F  F64  1  0.34561500  0.58323300  0.45181600  1
  F  F65  1  0.39558200  0.25703900  0.84081800  1
  F  F66  1  0.91449400  0.76225200  0.86659600  1
  F  F67  1  0.36858300  0.10620100  0.95181600  1
  F  F68  1  0.94523600  0.86145700  0.10441800  1
  F  F69  1  0.95210200  0.36659600  0.60434300  1
  F  F70  1  0.89558200  0.05476400  0.13854300  1
  F  F71  1  0.58693600  0.74664000  0.63876700  1
  F  F72  1  0.34775900  0.89565700  0.26225200  1
  F  F73  1  0.24664000  0.65970500  0.10787300  1
  F  F74  1  0.45181600  0.34561500  0.58323300  1
  F  F75  1  0.91676700  0.26238200  0.86858300  1
  F  F76  1  0.34029500  0.89212700  0.75336000  1
  F  F77  1  0.84561500  0.39379900  0.76238200  1
  F  F78  1  0.13340400  0.08550600  0.23774800  1
  F  F79  1  0.89379900  0.04818400  0.63141700  1
  F  F80  1  0.15224100  0.41449400  0.54789800  1
  F  F81  1  0.36659600  0.60434300  0.95210200  1
  F  F82  1  0.74296100  0.15918200  0.60441800  1
  F  F83  1  0.95181600  0.36858300  0.10620100  1
  F  F84  1  0.74664000  0.63876700  0.58693600  1
  F  F85  1  0.41449400  0.54789800  0.15224100  1
  F  F86  1  0.63141700  0.89379900  0.04818400  1
  F  F87  1  0.60441800  0.74296100  0.15918200  1
  F  F88  1  0.86123300  0.60787300  0.94816800  1
  F  F89  1  0.39379900  0.76238200  0.84561500  1
  F  F90  1  0.63340400  0.39565700  0.04789800  1
  F  F91  1  0.26238200  0.86858300  0.91676700  1
  F  F92  1  0.91622100  0.55476400  0.65918200  1
  F  F93  1  0.41622100  0.75703900  0.36145700  1
  F  F94  1  0.44816800  0.84029500  0.08693600  1
  F  F95  1  0.23774800  0.13340400  0.08550600  1
loop_
_geom_bond_atom_site_label_1
_geom_bond_atom_site_label_2
_geom_bond_distance
_geom_bond_site_symmetry_2
Ba0 F23 2.791926 1_554
Ba0 F90 2.791926 1_555
Ba0 F81 2.791926 1_554
Ba0 F85 2.791926 1_555
Ba0 F14 2.791937 1_555
Ba0 F54 2.791937 1_554
Ba0 F87 2.867725 1_555
Ba0 F62 2.867725 1_555
Ba0 F33 2.867725 1_554
Ba0 F8 2.867725 1_555
Ba0 F65 2.867725 1_554
Ba0 F16 2.867725 1_554
Ba1 F28 2.791938 1_444
Ba1 F44 2.791938 1_555
Ba1 F78 2.791938 1_555
Ba1 F95 2.791938 1_555
Ba1 F38 2.791938 1_444
Ba1 F66 2.791938 1_444
Ba1 F31 2.867725 1_544
Ba1 F70 2.867725 1_455
Ba1 F40 2.867725 1_454
Ba1 F20 2.867725 1_545
Ba1 F68 2.867725 1_445
Ba1 F30 2.867725 1_554
Ba2 F49 2.791926 1_545
Ba2 F25 2.791926 1_555
Ba2 F6 2.791926 1_555
Ba2 F24 2.791926 1_545
Ba2 F15 2.791937 1_555
Ba2 F72 2.791937 1_545
Ba2 F22 2.867725 1_555
Ba2 F82 2.867725 1_555
Ba2 F56 2.867725 1_545
Ba2 F93 2.867725 1_545
Ba2 F12 2.867725 1_555
Ba2 F7 2.867725 1_545
Ba3 F86 2.793168 1_545
Ba3 F89 2.793168 1_544
Ba3 F67 2.793168 1_554
Ba3 F18 2.793168 1_555
Ba3 F91 2.793168 1_544
Ba3 F43 2.793168 1_555
Ba3 F76 2.901959 1_544
Ba3 F21 2.901959 1_544
Ba3 F5 2.901959 1_555
Ba3 F19 2.901959 1_555
Ba3 F94 2.901970 1_545
Ba3 F13 2.901970 1_554
Ba4 F77 2.793168 1_454
Ba4 F47 2.793168 1_554
Ba4 F58 2.793168 1_555
Ba4 F75 2.793168 1_454
Ba4 F83 2.793168 1_455
Ba4 F11 2.793168 1_555
Ba4 F88 2.901959 1_454
Ba4 F2 2.901959 1_555
Ba4 F73 2.901959 1_555
Ba4 F60 2.901959 1_454
Ba4 F63 2.901970 1_554
Ba4 F55 2.901970 1_455
Ba5 F26 2.791926 1_455
Ba5 F52 2.791926 1_555
Ba5 F69 2.791926 1_455
Ba5 F80 2.791926 1_555
Ba5 F46 2.791937 1_555
Ba5 F3 2.791937 1_455
Ba5 F50 2.867725 1_555
Ba5 F42 2.867725 1_455
Ba5 F10 2.867725 1_455
Ba5 F48 2.867725 1_555
Ba5 F37 2.867725 1_555
Ba5 F92 2.867725 1_455
Ba6 F32 2.793168 1_555
Ba6 F64 2.793168 1_555
Ba6 F35 2.793168 1_555
Ba6 F4 2.793168 1_555
Ba6 F61 2.793168 1_555
Ba6 F74 2.793168 1_555
Ba6 F57 2.901956 1_555
Ba6 F84 2.901956 1_555
Ba6 F71 2.901956 1_555
Ba6 F39 2.901956 1_555
Ba6 F29 2.901956 1_555
Ba6 F1 2.901956 1_555
Ba7 F53 2.793168 1_555
Ba7 F79 2.793168 1_455
Ba7 F36 2.793168 1_555
Ba7 F17 2.793168 1_445
Ba7 F9 2.793168 1_445
Ba7 F45 2.793168 1_545
Ba7 F27 2.901959 1_445
Ba7 F51 2.901959 1_555
Ba7 F0 2.901959 1_555
Ba7 F59 2.901959 1_445
Ba7 F41 2.901970 1_455
Ba7 F34 2.901970 1_545
Cu0 F64 1.940522 1_555
Cu0 F48 1.949883 1_555
Cu0 F80 1.954631 1_555
Cu0 F29 1.974810 1_555
Cu0 F35 2.287718 1_555
Cu0 F50 2.294015 1_555
Cu1 F89 1.940522 1_555
Cu1 F37 1.949883 1_555
Cu1 F46 1.954638 1_555
Cu1 F76 1.974806 1_555
Cu1 F91 2.287718 1_555
Cu1 F48 2.294015 1_555
Cu2 F74 1.940522 1_555
Cu2 F12 1.949883 1_555
Cu2 F25 1.954631 1_555
Cu2 F39 1.974810 1_555
Cu2 F32 2.287718 1_555
Cu2 F22 2.294015 1_555
Cu3 F43 1.940522 1_555
Cu3 F42 1.949883 1_555
Cu3 F3 1.954638 1_555
Cu3 F5 1.974806 1_555
Cu3 F18 2.287718 1_555
Cu3 F10 2.294015 1_555
Cu4 F17 1.940511 1_455
Cu4 F68 1.949887 1_455
Cu4 F78 1.954633 1_565
Cu4 F0 1.974802 1_565
Cu4 F45 2.287726 1_555
Cu4 F70 2.294008 1_465
Cu5 F32 1.940522 1_555
Cu5 F10 1.949883 1_555
Cu5 F26 1.954631 1_555
Cu5 F84 1.974810 1_555
Cu5 F61 2.287718 1_555
Cu5 F92 2.294015 1_555
Cu6 F11 1.940511 1_556
Cu6 F20 1.949887 1_556
Cu6 F66 1.954633 1_455
Cu6 F88 1.974802 1_455
Cu6 F47 2.287726 1_555
Cu6 F68 2.294008 1_456
Cu7 F75 1.940511 1_554
Cu7 F40 1.949887 1_554
Cu7 F44 1.954633 1_655
Cu7 F2 1.974802 1_655
Cu7 F83 2.287726 1_555
Cu7 F30 2.294008 1_654
Cu8 F86 1.940515 1_556
Cu8 F16 1.949872 1_555
Cu8 F81 1.954638 1_555
Cu8 F94 1.974825 1_556
Cu8 F89 2.287724 1_555
Cu8 F87 2.294011 1_556
Cu9 F18 1.940511 1_565
Cu9 F70 1.949887 1_565
Cu9 F38 1.954633 1_554
Cu9 F21 1.974802 1_554
Cu9 F86 2.287726 1_555
Cu9 F40 2.294008 1_564
Cu10 F79 1.940515 1_565
Cu10 F7 1.949872 1_555
Cu10 F24 1.954638 1_555
Cu10 F41 1.974825 1_565
Cu10 F9 2.287724 1_555
Cu10 F82 2.294011 1_565
Cu11 F67 1.940515 1_554
Cu11 F8 1.949872 1_555
Cu11 F90 1.954638 1_555
Cu11 F13 1.974825 1_554
Cu11 F43 2.287724 1_555
Cu11 F65 2.294011 1_554
Cu12 F83 1.940515 1_455
Cu12 F50 1.949872 1_555
Cu12 F52 1.954638 1_555
Cu12 F55 1.974825 1_455
Cu12 F58 2.287724 1_555
Cu12 F42 2.294011 1_455
Cu13 F91 1.940511 1_545
Cu13 F31 1.949887 1_545
Cu13 F95 1.954633 1_556
Cu13 F19 1.974802 1_556
Cu13 F67 2.287726 1_555
Cu13 F20 2.294008 1_546
Cu14 F77 1.940522 1_555
Cu14 F82 1.949883 1_555
Cu14 F15 1.954638 1_555
Cu14 F60 1.974806 1_555
Cu14 F75 2.287718 1_555
Cu14 F12 2.294015 1_555
Cu15 F47 1.940515 1_655
Cu15 F92 1.949872 1_555
Cu15 F69 1.954638 1_555
Cu15 F63 1.974825 1_655
Cu15 F77 2.287724 1_555
Cu15 F37 2.294011 1_655
Cu16 F61 1.940522 1_555
Cu16 F62 1.949883 1_555
Cu16 F85 1.954631 1_555
Cu16 F1 1.974810 1_555
Cu16 F4 2.287718 1_555
Cu16 F8 2.294015 1_555
Cu17 F35 1.940522 1_555
Cu17 F33 1.949883 1_555
Cu17 F23 1.954631 1_555
Cu17 F57 1.974810 1_555
Cu17 F74 2.287718 1_555
Cu17 F16 2.294015 1_555
Cu18 F4 1.940522 1_555
Cu18 F93 1.949883 1_555
Cu18 F49 1.954631 1_555
Cu18 F71 1.974810 1_555
Cu18 F64 2.287718 1_555
Cu18 F7 2.294015 1_555
Cu19 F36 1.940511 1_655
Cu19 F30 1.949887 1_655
Cu19 F28 1.954633 1_545
Cu19 F59 1.974802 1_545
Cu19 F79 2.287726 1_555
Cu19 F31 2.294008 1_645
Cu20 F58 1.940522 1_555
Cu20 F56 1.949883 1_555
Cu20 F72 1.954638 1_555
Cu20 F73 1.974806 1_555
Cu20 F11 2.287718 1_555
Cu20 F93 2.294015 1_555
Cu21 F45 1.940515 1_545
Cu21 F22 1.949872 1_555
Cu21 F6 1.954638 1_555
Cu21 F34 1.974825 1_545
Cu21 F53 2.287724 1_555
Cu21 F56 2.294011 1_545
Cu22 F9 1.940522 1_555
Cu22 F87 1.949883 1_555
Cu22 F14 1.954638 1_555
Cu22 F27 1.974806 1_555
Cu22 F17 2.287718 1_555
Cu22 F62 2.294015 1_555
Cu23 F53 1.940522 1_555
Cu23 F65 1.949883 1_555
Cu23 F54 1.954638 1_555
Cu23 F51 1.974806 1_555
Cu23 F36 2.287718 1_555
Cu23 F33 2.294015 1_555
F0 Na6 2.266529 1_555
F0 Na28 2.335379 1_555
F0 Na10 2.655302 1_555
F1 Na0 2.266518 1_555
F1 Na5 2.335390 1_555
F1 Na15 2.655300 1_555
F2 Na23 2.266529 1_555
F2 Na5 2.335379 1_555
F2 Na15 2.655302 1_555
F3 Na6 2.274147 1_655
F3 Na10 2.391632 1_655
F4 Na13 2.284422 1_555
F5 Na17 2.266529 1_555
F5 Na11 2.335379 1_545
F5 Na22 2.655302 1_555
F6 Na7 2.274155 1_555
F6 Na1 2.391634 1_555
F7 Na14 2.315710 1_555
F8 Na15 2.315710 1_555
F9 Na13 2.284422 1_555
F10 Na22 2.315710 1_555
F11 Na9 2.284422 1_555
F12 Na1 2.315710 1_555
F13 Na7 2.266521 1_555
F13 Na25 2.335378 1_556
F13 Na1 2.655290 1_555
F14 Na24 2.274147 1_555
F14 Na29 2.391632 1_554
F15 Na7 2.274147 1_555
F15 Na14 2.391632 1_545
F16 Na29 2.315710 1_555
F17 Na11 2.284422 1_555
F18 Na25 2.284422 1_555
F19 Na17 2.266529 1_555
F19 Na20 2.335379 1_555
F19 Na16 2.655302 1_555
F20 Na16 2.315710 1_565
F21 Na7 2.266529 1_565
F21 Na21 2.335379 1_555
F21 Na14 2.655302 1_555
F22 Na16 2.315710 1_555
F23 Na24 2.274155 1_556
F23 Na1 2.391634 1_555
F24 Na17 2.274155 1_565
F24 Na4 2.391634 1_555
F25 Na17 2.274155 1_555
F25 Na22 2.391634 1_555
F26 Na2 2.274155 1_655
F26 Na26 2.391634 1_555
F27 Na2 2.266529 1_655
F27 Na9 2.335379 1_655
F27 Na26 2.655302 1_555
F28 Na3 2.274162 1_555
F28 Na14 2.391636 1_555
F29 Na0 2.266518 1_555
F29 Na28 2.335390 1_555
F29 Na10 2.655300 1_555
F30 Na15 2.315710 1_556
F31 Na30 2.315710 1_455
F32 Na31 2.284422 1_555
F33 Na12 2.315710 1_555
F34 Na2 2.266521 1_555
F34 Na8 2.335378 1_565
F34 Na27 2.655290 1_555
F35 Na21 2.284422 1_555
F36 Na8 2.284422 1_555
F37 Na12 2.315710 1_555
F38 Na3 2.274162 1_555
F38 Na29 2.391636 1_555
F39 Na0 2.266518 1_555
F39 Na20 2.335390 1_555
F39 Na16 2.655300 1_555
F40 Na14 2.315710 1_545
F41 Na6 2.266521 1_655
F41 Na11 2.335378 1_545
F41 Na22 2.655290 1_555
F42 Na26 2.315710 1_555
F43 Na20 2.284422 1_555
F44 Na0 2.274162 1_555
F44 Na10 2.391636 1_555
F45 Na9 2.284422 1_555
F46 Na2 2.274147 1_555
F46 Na30 2.391632 1_455
F47 Na18 2.284422 1_555
F48 Na27 2.315710 1_555
F49 Na7 2.274155 1_565
F49 Na27 2.391634 1_555
F50 Na10 2.315710 1_555
F51 Na6 2.266529 1_555
F51 Na19 2.335379 1_455
F51 Na12 2.655302 1_555
F52 Na2 2.274155 1_555
F52 Na27 2.391634 1_555
F53 Na28 2.284422 1_555
F54 Na23 2.274147 1_556
F54 Na15 2.391632 1_556
F55 Na24 2.266521 1_555
F55 Na9 2.335378 1_655
F55 Na26 2.655290 1_555
F56 Na27 2.315710 1_555
F57 Na3 2.266518 1_555
F57 Na31 2.335390 1_555
F57 Na29 2.655300 1_555
F58 Na5 2.284422 1_555
F59 Na2 2.266529 1_655
F59 Na13 2.335379 1_555
F59 Na30 2.655302 1_555
F60 Na24 2.266529 1_556
F60 Na25 2.335379 1_556
F60 Na1 2.655302 1_555
F61 Na20 2.284422 1_555
F62 Na26 2.315710 1_555
F63 Na23 2.266521 1_556
F63 Na19 2.335378 1_455
F63 Na12 2.655290 1_555
F64 Na5 2.284422 1_555
F65 Na1 2.315710 1_555
F66 Na3 2.274162 1_555
F66 Na30 2.391636 1_555
F67 Na8 2.284422 1_555
F68 Na29 2.315710 1_554
F69 Na6 2.274155 1_655
F69 Na22 2.391634 1_555
F70 Na10 2.315710 1_655
F71 Na3 2.266518 1_555
F71 Na21 2.335390 1_555
F71 Na14 2.655300 1_555
F72 Na17 2.274147 1_565
F72 Na16 2.391632 1_565
F73 Na23 2.266529 1_555
F73 Na18 2.335379 1_554
F73 Na4 2.655302 1_555
F74 Na28 2.284422 1_555
F75 Na19 2.284422 1_555
F76 Na7 2.266529 1_565
F76 Na8 2.335379 1_565
F76 Na27 2.655302 1_555
F77 Na31 2.284422 1_555
F78 Na0 2.274162 1_555
F78 Na16 2.391636 1_555
F79 Na19 2.284422 1_555
F80 Na6 2.274155 1_555
F80 Na12 2.391634 1_555
F81 Na23 2.274155 1_556
F81 Na12 2.391634 1_555
F82 Na22 2.315710 1_555
F83 Na25 2.284422 1_555
F84 Na3 2.266518 1_555
F84 Na13 2.335390 1_555
F84 Na30 2.655300 1_555
F85 Na23 2.274155 1_555
F85 Na4 2.391634 1_555
F86 Na11 2.284422 1_555
F87 Na4 2.315710 1_555
F88 Na24 2.266529 1_556
F88 Na31 2.335379 1_555
F88 Na29 2.655302 1_555
F89 Na21 2.284422 1_555
F90 Na24 2.274155 1_555
F90 Na26 2.391634 1_555
F91 Na18 2.284422 1_555
F92 Na30 2.315710 1_555
F93 Na4 2.315710 1_555
F94 Na17 2.266521 1_565
F94 Na18 2.335378 1_554
F94 Na4 2.655290 1_555
F95 Na0 2.274162 1_555
F95 Na15 2.391636 1_555
