# generated using pymatgen
data_Bi2Pb2S5
_symmetry_space_group_name_H-M   'P 1'
_cell_length_a   4.08703000
_cell_length_b   19.67637800
_cell_length_c   24.46415800
_cell_angle_alpha   90.00000000
_cell_angle_beta   90.00000000
_cell_angle_gamma   90.00000000
_symmetry_Int_Tables_number   1
_chemical_formula_structural   Bi2Pb2S5
_chemical_formula_sum   'Bi16 Pb16 S40'
_cell_volume   1967.35736578
_cell_formula_units_Z   8
loop_
 _symmetry_equiv_pos_site_id
 _symmetry_equiv_pos_as_xyz
  1  'x, y, z'
loop_
 _atom_site_type_symbol
 _atom_site_label
 _atom_site_symmetry_multiplicity
 _atom_site_fract_x
 _atom_site_fract_y
 _atom_site_fract_z
 _atom_site_occupancy
  Bi  Bi0  1  0.25000000  0.09490600  0.30099700  1
  Bi  Bi1  1  0.25000000  0.98302600  0.15300400  1
  Bi  Bi2  1  0.75000000  0.48302600  0.34699600  1
  Bi  Bi3  1  0.75000000  0.18671400  0.17001500  1
  Bi  Bi4  1  0.75000000  0.59490600  0.19900300  1
  Bi  Bi5  1  0.75000000  0.09723800  0.00815200  1
  Bi  Bi6  1  0.25000000  0.90276200  0.99184800  1
  Bi  Bi7  1  0.25000000  0.81328600  0.82998500  1
  Bi  Bi8  1  0.75000000  0.40276200  0.50815200  1
  Bi  Bi9  1  0.25000000  0.59723800  0.49184800  1
  Bi  Bi10  1  0.75000000  0.31328600  0.67001500  1
  Bi  Bi11  1  0.25000000  0.51697400  0.65300400  1
  Bi  Bi12  1  0.75000000  0.90509400  0.69900300  1
  Bi  Bi13  1  0.25000000  0.40509400  0.80099700  1
  Bi  Bi14  1  0.25000000  0.68671400  0.32998500  1
  Bi  Bi15  1  0.75000000  0.01697400  0.84699600  1
  Pb  Pb0  1  0.75000000  0.60880600  0.79889800  1
  Pb  Pb1  1  0.75000000  0.79493200  0.13015800  1
  Pb  Pb2  1  0.75000000  0.70506800  0.63015800  1
  Pb  Pb3  1  0.25000000  0.10880600  0.70110200  1
  Pb  Pb4  1  0.75000000  0.89119400  0.29889800  1
  Pb  Pb5  1  0.25000000  0.96618100  0.56456600  1
  Pb  Pb6  1  0.75000000  0.71776600  0.95941900  1
  Pb  Pb7  1  0.25000000  0.53381900  0.06456600  1
  Pb  Pb8  1  0.25000000  0.28223400  0.04058100  1
  Pb  Pb9  1  0.75000000  0.46618100  0.93543400  1
  Pb  Pb10  1  0.75000000  0.78223400  0.45941900  1
  Pb  Pb11  1  0.25000000  0.21776600  0.54058100  1
  Pb  Pb12  1  0.25000000  0.20506800  0.86984200  1
  Pb  Pb13  1  0.75000000  0.03381900  0.43543400  1
  Pb  Pb14  1  0.25000000  0.39119400  0.20110200  1
  Pb  Pb15  1  0.25000000  0.29493200  0.36984200  1
  S  S0  1  0.75000000  0.87729100  0.91549300  1
  S  S1  1  0.25000000  0.43949400  0.42550900  1
  S  S2  1  0.75000000  0.91015300  0.50111500  1
  S  S3  1  0.75000000  0.30652700  0.12535900  1
  S  S4  1  0.75000000  0.13787500  0.80128000  1
  S  S5  1  0.25000000  0.96928800  0.77820600  1
  S  S6  1  0.25000000  0.63787500  0.69872000  1
  S  S7  1  0.75000000  0.58984700  0.00111500  1
  S  S8  1  0.75000000  0.19347300  0.62535900  1
  S  S9  1  0.25000000  0.69347300  0.87464100  1
  S  S10  1  0.25000000  0.84523000  0.64325400  1
  S  S11  1  0.25000000  0.41015300  0.99888500  1
  S  S12  1  0.25000000  0.65477000  0.14325400  1
  S  S13  1  0.75000000  0.46928800  0.72179400  1
  S  S14  1  0.25000000  0.22295600  0.23512200  1
  S  S15  1  0.75000000  0.02687800  0.64933200  1
  S  S16  1  0.25000000  0.97312200  0.35066800  1
  S  S17  1  0.75000000  0.47312200  0.14933200  1
  S  S18  1  0.25000000  0.12270900  0.08450700  1
  S  S19  1  0.75000000  0.36212500  0.30128000  1
  S  S20  1  0.25000000  0.52687800  0.85066800  1
  S  S21  1  0.75000000  0.21615700  0.96356900  1
  S  S22  1  0.25000000  0.53071200  0.27820600  1
  S  S23  1  0.75000000  0.72295600  0.26487800  1
  S  S24  1  0.75000000  0.77704400  0.76487800  1
  S  S25  1  0.25000000  0.80652700  0.37464100  1
  S  S26  1  0.25000000  0.71615700  0.53643100  1
  S  S27  1  0.25000000  0.06050600  0.92550900  1
  S  S28  1  0.75000000  0.03071200  0.22179400  1
  S  S29  1  0.75000000  0.56050600  0.57449100  1
  S  S30  1  0.75000000  0.93949400  0.07449100  1
  S  S31  1  0.75000000  0.62270900  0.41549300  1
  S  S32  1  0.25000000  0.86212500  0.19872000  1
  S  S33  1  0.75000000  0.28384300  0.46356900  1
  S  S34  1  0.25000000  0.08984700  0.49888500  1
  S  S35  1  0.25000000  0.27704400  0.73512200  1
  S  S36  1  0.25000000  0.78384300  0.03643100  1
  S  S37  1  0.75000000  0.15477000  0.35674600  1
  S  S38  1  0.25000000  0.37729100  0.58450700  1
  S  S39  1  0.75000000  0.34523000  0.85674600  1
loop_
_geom_bond_atom_site_label_1
_geom_bond_atom_site_label_2
_geom_bond_distance
_geom_bond_site_symmetry_2
Bi0 S16 2.686766 1_545
Bi0 S37 2.724612 1_455
Bi0 S37 2.724612 1_555
Bi0 S14 2.990880 1_555
Bi0 S28 3.086392 1_455
Bi0 S28 3.086392 1_555
Bi1 S32 2.628681 1_555
Bi1 S28 2.808639 1_465
Bi1 S28 2.808639 1_565
Bi1 S30 2.932394 1_455
Bi1 S30 2.932394 1_555
Bi1 S18 3.219014 1_565
Bi2 S19 2.628681 1_555
Bi2 S22 2.808639 1_555
Bi2 S22 2.808639 1_655
Bi2 S1 2.932394 1_555
Bi2 S1 2.932394 1_655
Bi2 S31 3.219014 1_555
Bi3 S3 2.598314 1_555
Bi3 S14 2.687276 1_555
Bi3 S14 2.687276 1_655
Bi3 S18 3.184019 1_555
Bi3 S18 3.184019 1_655
Bi4 S17 2.686766 1_555
Bi4 S12 2.724612 1_555
Bi4 S12 2.724612 1_655
Bi4 S23 2.990880 1_555
Bi4 S22 3.086392 1_555
Bi4 S22 3.086392 1_655
Bi5 S21 2.581609 1_554
Bi5 S18 2.813611 1_555
Bi5 S18 2.813611 1_655
Bi5 S27 2.964113 1_654
Bi5 S27 2.964113 1_554
Bi6 S36 2.581609 1_556
Bi6 S0 2.813611 1_455
Bi6 S0 2.813611 1_555
Bi6 S30 2.964113 1_456
Bi6 S30 2.964113 1_556
Bi7 S9 2.598314 1_555
Bi7 S24 2.687276 1_555
Bi7 S24 2.687276 1_455
Bi7 S0 3.184019 1_455
Bi7 S0 3.184019 1_555
Bi8 S33 2.581609 1_555
Bi8 S38 2.813611 1_655
Bi8 S38 2.813611 1_555
Bi8 S1 2.964113 1_555
Bi8 S1 2.964113 1_655
Bi9 S26 2.581609 1_555
Bi9 S31 2.813611 1_455
Bi9 S31 2.813611 1_555
Bi9 S29 2.964113 1_455
Bi9 S29 2.964113 1_555
Bi10 S8 2.598314 1_555
Bi10 S35 2.687276 1_655
Bi10 S35 2.687276 1_555
Bi10 S38 3.184019 1_655
Bi10 S38 3.184019 1_555
Bi11 S6 2.628681 1_555
Bi11 S13 2.808639 1_555
Bi11 S13 2.808639 1_455
Bi11 S29 2.932394 1_555
Bi11 S29 2.932394 1_455
Bi11 S38 3.219014 1_555
Bi12 S15 2.686766 1_565
Bi12 S10 2.724612 1_655
Bi12 S10 2.724612 1_555
Bi12 S24 2.990880 1_555
Bi12 S5 3.086392 1_555
Bi12 S5 3.086392 1_655
Bi13 S20 2.686766 1_555
Bi13 S39 2.724612 1_455
Bi13 S39 2.724612 1_555
Bi13 S35 2.990880 1_555
Bi13 S13 3.086392 1_555
Bi13 S13 3.086392 1_455
Bi14 S25 2.598314 1_555
Bi14 S23 2.687276 1_555
Bi14 S23 2.687276 1_455
Bi14 S31 3.184019 1_455
Bi14 S31 3.184019 1_555
Bi15 S4 2.628681 1_555
Bi15 S5 2.808639 1_545
Bi15 S5 2.808639 1_645
Bi15 S27 2.932394 1_655
Bi15 S27 2.932394 1_555
Bi15 S0 3.219014 1_545
Pb0 S20 2.894597 1_655
Pb0 S20 2.894597 1_555
Pb1 S32 2.955895 1_555
Pb1 S32 2.955895 1_655
Pb1 S36 3.079154 1_655
Pb1 S36 3.079154 1_555
Pb1 S30 3.153658 1_555
Pb2 S6 2.955895 1_555
Pb2 S6 2.955895 1_655
Pb2 S26 3.079154 1_655
Pb2 S26 3.079154 1_555
Pb2 S29 3.153658 1_555
Pb3 S15 2.894597 1_455
Pb3 S15 2.894597 1_555
Pb4 S16 2.894597 1_655
Pb4 S16 2.894597 1_555
Pb5 S2 2.793002 1_555
Pb5 S2 2.793002 1_455
Pb5 S34 2.915964 1_565
Pb5 S10 3.060977 1_555
Pb5 S15 3.146848 1_465
Pb5 S15 3.146848 1_565
Pb6 S7 2.715827 1_556
Pb6 S9 2.950594 1_555
Pb6 S9 2.950594 1_655
Pb6 S36 3.068541 1_656
Pb6 S36 3.068541 1_556
Pb7 S7 2.793002 1_555
Pb7 S7 2.793002 1_455
Pb7 S11 2.915964 1_554
Pb7 S12 3.060977 1_555
Pb7 S17 3.146848 1_455
Pb7 S17 3.146848 1_555
Pb8 S11 2.715827 1_554
Pb8 S3 2.950594 1_555
Pb8 S3 2.950594 1_455
Pb8 S21 3.068541 1_454
Pb8 S21 3.068541 1_554
Pb9 S11 2.793002 1_555
Pb9 S11 2.793002 1_655
Pb9 S7 2.915964 1_556
Pb9 S39 3.060977 1_555
Pb9 S20 3.146848 1_555
Pb9 S20 3.146848 1_655
Pb10 S2 2.715827 1_555
Pb10 S25 2.950594 1_655
Pb10 S25 2.950594 1_555
Pb10 S26 3.068541 1_655
Pb10 S26 3.068541 1_555
Pb11 S34 2.715827 1_555
Pb11 S8 2.950594 1_455
Pb11 S8 2.950594 1_555
Pb11 S33 3.068541 1_455
Pb11 S33 3.068541 1_555
Pb12 S4 2.955895 1_455
Pb12 S4 2.955895 1_555
Pb12 S21 3.079154 1_455
Pb12 S21 3.079154 1_555
Pb12 S27 3.153658 1_555
Pb13 S34 2.793002 1_555
Pb13 S34 2.793002 1_655
Pb13 S2 2.915964 1_545
Pb13 S37 3.060977 1_555
Pb13 S16 3.146848 1_545
Pb13 S16 3.146848 1_645
Pb14 S17 2.894597 1_555
Pb14 S17 2.894597 1_455
Pb15 S19 2.955895 1_555
Pb15 S19 2.955895 1_455
Pb15 S33 3.079154 1_455
Pb15 S33 3.079154 1_555
Pb15 S1 3.153658 1_555
