# generated using pymatgen
data_Rb2Se5
_symmetry_space_group_name_H-M   'P 1'
_cell_length_a   6.95507694
_cell_length_b   7.23338269
_cell_length_c   18.40915849
_cell_angle_alpha   90.00000000
_cell_angle_beta   90.01077122
_cell_angle_gamma   90.00000000
_symmetry_Int_Tables_number   1
_chemical_formula_structural   Rb2Se5
_chemical_formula_sum   'Rb8 Se20'
_cell_volume   926.14142570
_cell_formula_units_Z   4
loop_
 _symmetry_equiv_pos_site_id
 _symmetry_equiv_pos_as_xyz
  1  'x, y, z'
loop_
 _atom_site_type_symbol
 _atom_site_label
 _atom_site_symmetry_multiplicity
 _atom_site_fract_x
 _atom_site_fract_y
 _atom_site_fract_z
 _atom_site_occupancy
  Rb  Rb0  1  0.58591198  0.24275802  0.16128748  1
  Rb  Rb1  1  0.62006585  0.41529830  0.50949258  1
  Rb  Rb2  1  0.91426241  0.75728350  0.66130162  1
  Rb  Rb3  1  0.87998381  0.58464518  0.00950207  1
  Rb  Rb4  1  0.12001619  0.08464518  0.49049793  1
  Rb  Rb5  1  0.37993415  0.91529830  0.99050742  1
  Rb  Rb6  1  0.41408802  0.74275802  0.33871252  1
  Rb  Rb7  1  0.08573759  0.25728350  0.83869838  1
  Se  Se0  1  0.90087562  0.07949488  0.01849677  1
  Se  Se1  1  0.42742576  0.86628467  0.62574373  1
  Se  Se2  1  0.03890158  0.87103795  0.20194124  1
  Se  Se3  1  0.96109842  0.37103795  0.29805876  1
  Se  Se4  1  0.25487664  0.35804619  0.65062054  1
  Se  Se5  1  0.07272341  0.13367149  0.12565286  1
  Se  Se6  1  0.56422922  0.74495042  0.16056993  1
  Se  Se7  1  0.53884837  0.62897457  0.79802606  1
  Se  Se8  1  0.57257424  0.36628467  0.87425627  1
  Se  Se9  1  0.09912438  0.57949488  0.48150323  1
  Se  Se10  1  0.59923492  0.92051798  0.51859681  1
  Se  Se11  1  0.06430226  0.75511468  0.83947095  1
  Se  Se12  1  0.75494291  0.14192417  0.34934690  1
  Se  Se13  1  0.92727659  0.63367149  0.37434714  1
  Se  Se14  1  0.93569774  0.25511468  0.66052905  1
  Se  Se15  1  0.46115163  0.12897457  0.70197394  1
  Se  Se16  1  0.74512336  0.85804619  0.84937946  1
  Se  Se17  1  0.43577078  0.24495042  0.33943007  1
  Se  Se18  1  0.24505709  0.64192417  0.15065310  1
  Se  Se19  1  0.40076508  0.42051798  0.98140319  1
loop_
_geom_bond_atom_site_label_1
_geom_bond_atom_site_label_2
_geom_bond_distance
_geom_bond_site_symmetry_2
Rb0 Se17 3.441920 1_555
Rb0 Se5 3.538010 1_655
Rb0 Se6 3.604014 1_545
Rb0 Se0 3.620130 1_555
Rb0 Se6 3.635703 1_555
Rb0 Se5 3.713724 1_555
Rb0 Se12 3.728015 1_555
Rb0 Se18 3.740971 1_555
Rb0 Se3 3.742632 1_555
Rb0 Se19 3.778366 1_554
Rb1 Se9 3.574667 1_655
Rb1 Se10 3.585787 1_545
Rb1 Se17 3.600152 1_555
Rb1 Se13 3.640351 1_555
Rb1 Se4 3.657187 1_555
Rb1 Se10 3.661158 1_555
Rb1 Se12 3.671893 1_555
Rb1 Se14 3.726962 1_555
Rb1 Se9 3.847454 1_555
Rb2 Se11 3.441800 1_655
Rb2 Se1 3.537543 1_555
Rb2 Se14 3.604116 1_565
Rb2 Se10 3.618585 1_555
Rb2 Se14 3.635465 1_555
Rb2 Se1 3.713411 1_655
Rb2 Se16 3.728877 1_555
Rb2 Se4 3.740400 1_655
Rb2 Se7 3.743868 1_555
Rb2 Se9 3.776799 1_655
Rb3 Se19 3.575649 1_554
Rb3 Se0 3.586209 1_565
Rb3 Se11 3.600428 1_654
Rb3 Se8 3.641836 1_554
Rb3 Se18 3.656273 1_655
Rb3 Se0 3.660579 1_555
Rb3 Se16 3.671344 1_554
Rb3 Se6 3.728785 1_555
Rb3 Se19 3.846704 1_654
Rb4 Se10 3.575649 1_545
Rb4 Se9 3.586209 1_555
Rb4 Se14 3.600428 1_455
Rb4 Se1 3.641836 1_545
Rb4 Se12 3.656273 1_455
Rb4 Se9 3.660579 1_545
Rb4 Se4 3.671344 1_555
Rb4 Se17 3.728785 1_555
Rb4 Se10 3.846704 1_445
Rb5 Se0 3.574667 1_466
Rb5 Se19 3.585787 1_555
Rb5 Se6 3.600152 1_556
Rb5 Se5 3.640351 1_566
Rb5 Se16 3.657187 1_555
Rb5 Se19 3.661158 1_565
Rb5 Se18 3.671893 1_556
Rb5 Se11 3.726962 1_555
Rb5 Se0 3.847454 1_566
Rb6 Se6 3.441920 1_555
Rb6 Se13 3.538010 1_455
Rb6 Se17 3.604014 1_555
Rb6 Se9 3.620130 1_555
Rb6 Se17 3.635703 1_565
Rb6 Se13 3.713724 1_555
Rb6 Se18 3.728015 1_555
Rb6 Se12 3.740971 1_565
Rb6 Se2 3.742632 1_555
Rb6 Se10 3.778366 1_555
Rb7 Se14 3.441800 1_455
Rb7 Se8 3.537543 1_555
Rb7 Se11 3.604116 1_555
Rb7 Se19 3.618585 1_555
Rb7 Se11 3.635465 1_545
Rb7 Se8 3.713411 1_455
Rb7 Se4 3.728877 1_555
Rb7 Se16 3.740400 1_445
Rb7 Se15 3.743868 1_555
Rb7 Se0 3.776799 1_456
Se0 Se5 2.339355 1_655
Se1 Se10 2.339523 1_555
Se1 Se15 2.373766 1_565
Se2 Se5 2.374191 1_565
Se7 Se8 2.373766 1_555
Se11 Se16 2.348571 1_455
Se12 Se17 2.348691 1_555
Se12 Se3 2.386287 1_555
Se13 Se9 2.339355 1_655
Se13 Se3 2.374191 1_555
Se14 Se4 2.348571 1_655
Se15 Se4 2.386837 1_555
Se16 Se7 2.386837 1_555
Se18 Se6 2.348691 1_555
Se18 Se2 2.386287 1_555
Se19 Se8 2.339523 1_555
