# generated using pymatgen
data_LuCuSe2
_symmetry_space_group_name_H-M   'P 1'
_cell_length_a   4.01279560
_cell_length_b   4.01279560
_cell_length_c   6.35337373
_cell_angle_alpha   90.00000000
_cell_angle_beta   90.00000000
_cell_angle_gamma   119.99999310
_symmetry_Int_Tables_number   1
_chemical_formula_structural   LuCuSe2
_chemical_formula_sum   'Lu1 Cu1 Se2'
_cell_volume   88.59906574
_cell_formula_units_Z   1
loop_
 _symmetry_equiv_pos_site_id
 _symmetry_equiv_pos_as_xyz
  1  'x, y, z'
loop_
 _atom_site_type_symbol
 _atom_site_label
 _atom_site_symmetry_multiplicity
 _atom_site_fract_x
 _atom_site_fract_y
 _atom_site_fract_z
 _atom_site_occupancy
  Lu  Lu0  1  0.00000000  -0.00000000  0.79851072  1
  Cu  Cu0  1  0.66666700  0.33333300  0.18851443  1
  Se  Se0  1  0.33333300  0.66666700  0.06489849  1
  Se  Se1  1  0.66666700  0.33333300  0.56727636  1
loop_
_geom_bond_atom_site_label_1
_geom_bond_atom_site_label_2
_geom_bond_distance
_geom_bond_site_symmetry_2
Lu0 Se1 2.743320 1_455
Lu0 Se1 2.743324 1_555
Lu0 Se1 2.743324 1_445
Lu0 Se0 2.869133 1_546
Lu0 Se0 2.869136 1_446
Lu0 Se0 2.869136 1_556
Cu0 Se1 2.406416 1_555
Cu0 Se0 2.446287 1_545
Cu0 Se0 2.446287 1_655
Cu0 Se0 2.446293 1_555
