# generated using pymatgen
data_Li2FeP2O7
_symmetry_space_group_name_H-M   'P 1'
_cell_length_a   6.58504500
_cell_length_b   9.31066023
_cell_length_c   10.44376803
_cell_angle_alpha   113.35702775
_cell_angle_beta   88.50612996
_cell_angle_gamma   107.28986551
_symmetry_Int_Tables_number   1
_chemical_formula_structural   Li2FeP2O7
_chemical_formula_sum   'Li8 Fe4 P8 O28'
_cell_volume   558.19979283
_cell_formula_units_Z   4
loop_
 _symmetry_equiv_pos_site_id
 _symmetry_equiv_pos_as_xyz
  1  'x, y, z'
loop_
 _atom_site_type_symbol
 _atom_site_label
 _atom_site_symmetry_multiplicity
 _atom_site_fract_x
 _atom_site_fract_y
 _atom_site_fract_z
 _atom_site_occupancy
  Li  Li0  1  0.86492900  0.89501100  0.89219300  1
  Li  Li1  1  0.04739700  0.18733700  0.50691500  1
  Li  Li2  1  0.16544200  0.48846300  0.03758200  1
  Li  Li3  1  0.35283300  0.92513700  0.37771200  1
  Li  Li4  1  0.63463500  0.07493500  0.62153200  1
  Li  Li5  1  0.59251700  0.50596200  0.97009600  1
  Li  Li6  1  0.93728800  0.83283000  0.50215300  1
  Li  Li7  1  0.16763100  0.10721200  0.12507500  1
  Fe  Fe0  1  0.35929500  0.50336000  0.73766100  1
  Fe  Fe1  1  0.72318000  0.09968900  0.21777900  1
  Fe  Fe2  1  0.62865700  0.48894200  0.25245300  1
  Fe  Fe3  1  0.28276000  0.89117700  0.77741100  1
  P  P0  1  0.08060700  0.17974100  0.79754700  1
  P  P1  1  0.69594500  0.19076300  0.94453100  1
  P  P2  1  0.31375100  0.80140200  0.05406400  1
  P  P3  1  0.87049300  0.54670300  0.69834500  1
  P  P4  1  0.55529300  0.28805800  0.46270300  1
  P  P5  1  0.43918100  0.70779100  0.53153200  1
  P  P6  1  0.11740400  0.44239100  0.29928300  1
  P  P7  1  0.92617900  0.80899300  0.19653000  1
  O  O0  1  0.73831700  0.08216600  0.01250200  1
  O  O1  1  0.36980800  0.85446000  0.53526400  1
  O  O2  1  0.37979300  0.65242000  0.96165900  1
  O  O3  1  0.27255000  0.90817800  0.98440000  1
  O  O4  1  0.24514400  0.54049800  0.45479200  1
  O  O5  1  0.35602100  0.30253700  0.53749900  1
  O  O6  1  0.02709100  0.26355700  0.28756000  1
  O  O7  1  0.69376600  0.52981100  0.79532000  1
  O  O8  1  0.45336700  0.90806000  0.19439500  1
  O  O9  1  0.71804400  0.67232000  0.17129000  1
  O  O10  1  0.74810500  0.45654200  0.54013100  1
  O  O11  1  0.62532600  0.14343900  0.46369800  1
  O  O12  1  0.91252000  0.93096500  0.13408300  1
  O  O13  1  0.03368500  0.45985900  0.69757100  1
  O  O14  1  0.63565200  0.69260700  0.45387300  1
  O  O15  1  0.28492000  0.31998400  0.82042700  1
  O  O16  1  0.03836700  0.89877600  0.34746400  1
  O  O17  1  0.08528700  0.71071400  0.09759900  1
  O  O18  1  0.97143000  0.72793600  0.71945400  1
  O  O19  1  0.96051900  0.08984200  0.64842100  1
  O  O20  1  0.95128100  0.52247700  0.29342700  1
  O  O21  1  0.28543100  0.45515400  0.19521600  1
  O  O22  1  0.45630400  0.71685100  0.68254500  1
  O  O23  1  0.55805000  0.08479600  0.80339800  1
  O  O24  1  0.62199000  0.33332200  0.03774400  1
  O  O25  1  0.53762200  0.27366200  0.31000600  1
  O  O26  1  0.10387500  0.05926400  0.85805600  1
  O  O27  1  0.92916400  0.27971400  0.90386600  1
loop_
_geom_bond_atom_site_label_1
_geom_bond_atom_site_label_2
_geom_bond_distance
_geom_bond_site_symmetry_2
Li0 O26 1.978488 1_665
Li0 O0 2.093610 1_566
Li0 O18 2.126866 1_555
Li0 O12 2.429104 1_556
Li1 O5 1.961939 1_555
Li1 O19 2.011539 1_455
Li1 O16 2.521429 1_545
Li1 O13 2.555745 1_555
Li2 O21 2.012234 1_555
Li2 O27 2.076582 1_454
Li2 O17 2.134720 1_555
Li2 O2 2.138236 1_554
Li2 O15 2.458214 1_554
Li3 O8 1.970800 1_555
Li3 O1 2.016149 1_555
Li3 O16 2.029447 1_555
Li3 O11 2.150876 1_565
Li4 O23 1.926048 1_555
Li4 O11 1.997471 1_555
Li4 O19 2.127615 1_555
Li4 O1 2.134087 1_545
Li5 O7 1.998888 1_555
Li5 O24 2.052696 1_556
Li5 O9 2.060680 1_556
Li5 O2 2.250908 1_555
Li5 O15 2.340638 1_555
Li6 O14 1.973038 1_555
Li6 O16 1.979274 1_655
Li6 O19 2.231426 1_565
Li7 O12 1.999832 1_445
Li7 O6 2.148334 1_555
Li7 O3 2.149247 1_544
Fe0 O13 2.081560 1_555
Fe0 O15 2.133816 1_555
Fe0 O5 2.178454 1_555
Fe0 O2 2.178942 1_555
Fe0 O22 2.196321 1_555
Fe0 O7 2.214372 1_555
Fe1 O8 2.047579 1_545
Fe1 O6 2.059960 1_655
Fe1 O0 2.086599 1_555
Fe1 O12 2.192042 1_545
Fe1 O25 2.218691 1_555
Fe1 O11 2.533300 1_555
Fe2 O20 2.083565 1_555
Fe2 O9 2.122322 1_555
Fe2 O24 2.126181 1_555
Fe2 O14 2.193902 1_555
Fe2 O25 2.227227 1_555
Fe2 O21 2.250179 1_555
Fe3 O23 2.074821 1_565
Fe3 O18 2.088661 1_455
Fe3 O3 2.104790 1_555
Fe3 O26 2.131930 1_565
Fe3 O22 2.165741 1_555
Fe3 O1 2.489238 1_555
O0 P1 1.533384 1_554
O1 P5 1.550069 1_555
O2 P2 1.523095 1_556
O3 P2 1.528211 1_556
O4 P5 1.606748 1_555
O4 P6 1.617975 1_555
O5 P4 1.522658 1_555
O6 P6 1.547467 1_555
O7 P3 1.536504 1_555
O8 P2 1.533914 1_555
O9 P7 1.511101 1_555
O10 P4 1.609528 1_555
O10 P3 1.628472 1_555
O11 P4 1.551225 1_555
O12 P7 1.540829 1_555
O13 P3 1.523004 1_455
O14 P5 1.521423 1_555
O15 P0 1.515696 1_555
O16 P7 1.542124 1_455
O17 P2 1.642161 1_555
O17 P7 1.663236 1_455
O18 P3 1.543926 1_555
O19 P0 1.545533 1_655
O20 P6 1.510272 1_655
O21 P6 1.543108 1_555
O22 P5 1.550917 1_555
O23 P1 1.534498 1_555
O24 P1 1.510490 1_554
O25 P4 1.550998 1_555
O26 P0 1.533090 1_555
O27 P1 1.647323 1_555
O27 P0 1.663845 1_655
