# generated using pymatgen
data_Sr3MgPtO6
_symmetry_space_group_name_H-M   'P 1'
_cell_length_a   6.75828766
_cell_length_b   6.75828766
_cell_length_c   6.75828782
_cell_angle_alpha   92.17215565
_cell_angle_beta   92.17215565
_cell_angle_gamma   92.17215932
_symmetry_Int_Tables_number   1
_chemical_formula_structural   Sr3MgPtO6
_chemical_formula_sum   'Sr6 Mg2 Pt2 O12'
_cell_volume   307.99836418
_cell_formula_units_Z   2
loop_
 _symmetry_equiv_pos_site_id
 _symmetry_equiv_pos_as_xyz
  1  'x, y, z'
loop_
 _atom_site_type_symbol
 _atom_site_label
 _atom_site_symmetry_multiplicity
 _atom_site_fract_x
 _atom_site_fract_y
 _atom_site_fract_z
 _atom_site_occupancy
  Sr  Sr0  1  0.61472000  0.25000000  0.88528000  1
  Sr  Sr1  1  0.88528000  0.61472000  0.25000000  1
  Sr  Sr2  1  0.75000000  0.11472000  0.38528000  1
  Sr  Sr3  1  0.38528000  0.75000000  0.11472000  1
  Sr  Sr4  1  0.11472000  0.38528000  0.75000000  1
  Sr  Sr5  1  0.25000000  0.88528000  0.61472000  1
  Mg  Mg0  1  0.25000000  0.25000000  0.25000000  1
  Mg  Mg1  1  0.75000000  0.75000000  0.75000000  1
  Pt  Pt0  1  0.00000000  0.00000000  0.00000000  1
  Pt  Pt1  1  0.50000000  0.50000000  0.50000000  1
  O  O0  1  0.59481600  0.78883300  0.46452500  1
  O  O1  1  0.46452500  0.59481600  0.78883300  1
  O  O2  1  0.78883300  0.46452500  0.59481600  1
  O  O3  1  0.90518400  0.03547500  0.71116700  1
  O  O4  1  0.71116700  0.90518400  0.03547500  1
  O  O5  1  0.03547500  0.71116700  0.90518400  1
  O  O6  1  0.40518400  0.21116700  0.53547500  1
  O  O7  1  0.53547500  0.40518400  0.21116700  1
  O  O8  1  0.21116700  0.53547500  0.40518400  1
  O  O9  1  0.09481600  0.96452500  0.28883300  1
  O  O10  1  0.96452500  0.28883300  0.09481600  1
  O  O11  1  0.28883300  0.09481600  0.96452500  1
loop_
_geom_bond_atom_site_label_1
_geom_bond_atom_site_label_2
_geom_bond_distance
_geom_bond_site_symmetry_2
Mg0 O7 2.190196 1_555
Mg0 O9 2.190196 1_545
Mg0 O10 2.190196 1_455
Mg0 O8 2.190196 1_555
Mg0 O11 2.190196 1_554
Mg0 O6 2.190196 1_555
Mg1 O3 2.190196 1_565
Mg1 O1 2.190196 1_555
Mg1 O5 2.190196 1_655
Mg1 O2 2.190196 1_555
Mg1 O0 2.190196 1_555
Mg1 O4 2.190196 1_556
O0 Pt1 2.056883 1_555
O0 Sr2 2.488853 1_565
O0 Sr5 2.670229 1_555
O0 Sr3 2.708161 1_555
O0 Sr1 2.757112 1_555
O1 Pt1 2.056883 1_555
O1 Sr3 2.488853 1_556
O1 Sr0 2.670229 1_555
O1 Sr4 2.708161 1_555
O1 Sr5 2.757112 1_555
O2 Pt1 2.056883 1_555
O2 Sr4 2.488853 1_655
O2 Sr1 2.670229 1_555
O2 Sr2 2.708161 1_555
O2 Sr0 2.757112 1_555
O3 Pt0 2.056883 1_656
O3 Sr2 2.488853 1_555
O3 Sr5 2.670229 1_645
O3 Sr4 2.708161 1_655
O3 Sr0 2.757112 1_555
O4 Pt0 2.056883 1_665
O4 Sr3 2.488853 1_555
O4 Sr0 2.670229 1_564
O4 Sr2 2.708161 1_565
O4 Sr1 2.757112 1_555
O5 Pt0 2.056883 1_566
O5 Sr4 2.488853 1_555
O5 Sr1 2.670229 1_456
O5 Sr3 2.708161 1_556
O5 Sr5 2.757112 1_555
O6 Pt1 2.056883 1_555
O6 Sr5 2.488853 1_545
O6 Sr2 2.670229 1_555
O6 Sr0 2.708161 1_555
O6 Sr4 2.757112 1_555
O7 Pt1 2.056883 1_555
O7 Sr0 2.488853 1_554
O7 Sr3 2.670229 1_555
O7 Sr1 2.708161 1_555
O7 Sr2 2.757112 1_555
O8 Pt1 2.056883 1_555
O8 Sr1 2.488853 1_455
O8 Sr4 2.670229 1_555
O8 Sr5 2.708161 1_555
O8 Sr3 2.757112 1_555
O9 Pt0 2.056883 1_565
O9 Sr5 2.488853 1_555
O9 Sr2 2.670229 1_465
O9 Sr1 2.708161 1_455
O9 Sr3 2.757112 1_555
O10 Pt0 2.056883 1_655
O10 Sr1 2.488853 1_555
O10 Sr4 2.670229 1_654
O10 Sr0 2.708161 1_554
O10 Sr2 2.757112 1_555
O11 Pt0 2.056883 1_556
O11 Sr0 2.488853 1_555
O11 Sr3 2.670229 1_546
O11 Sr5 2.708161 1_545
O11 Sr4 2.757112 1_555
