# generated using pymatgen
data_CaV2(PO5)2
_symmetry_space_group_name_H-M   'P 1'
_cell_length_a   9.96072795
_cell_length_b   8.82580855
_cell_length_c   6.92945479
_cell_angle_alpha   77.39341821
_cell_angle_beta   59.84837324
_cell_angle_gamma   42.75820855
_symmetry_Int_Tables_number   1
_chemical_formula_structural   CaV2(PO5)2
_chemical_formula_sum   'Ca2 V4 P4 O20'
_cell_volume   345.65993973
_cell_formula_units_Z   2
loop_
 _symmetry_equiv_pos_site_id
 _symmetry_equiv_pos_as_xyz
  1  'x, y, z'
loop_
 _atom_site_type_symbol
 _atom_site_label
 _atom_site_symmetry_multiplicity
 _atom_site_fract_x
 _atom_site_fract_y
 _atom_site_fract_z
 _atom_site_occupancy
  Ca  Ca0  1  0.00680100  0.99443000  0.00042300  1
  Ca  Ca1  1  0.24061400  0.25719600  0.25494600  1
  V  V0  1  0.15011500  0.61277900  0.61537300  1
  V  V1  1  0.62706500  0.61424200  0.59621900  1
  V  V2  1  0.64320100  0.09153200  0.63307300  1
  V  V3  1  0.63203800  0.63206400  0.08953300  1
  P  P0  1  0.04293400  0.04515100  0.45789500  1
  P  P1  1  0.21108900  0.20509000  0.79599000  1
  P  P2  1  0.46168100  0.45045500  0.03289100  1
  P  P3  1  0.79221400  0.78971500  0.19941700  1
  O  O0  1  0.24531000  0.55738800  0.28579500  1
  O  O1  1  0.67812700  0.65203000  0.82590300  1
  O  O2  1  0.86829200  0.60145300  0.33942800  1
  O  O3  1  0.96538400  0.33275500  0.00864900  1
  O  O4  1  0.55519400  0.24639400  0.91522800  1
  O  O5  1  0.38476700  0.64351000  0.89267100  1
  O  O6  1  0.58218200  0.58394900  0.40937600  1
  O  O7  1  0.83851100  0.83369100  0.65614600  1
  O  O8  1  0.41413000  0.41430200  0.58513500  1
  O  O9  1  0.00654200  0.69285900  0.96342500  1
  O  O10  1  0.91508900  0.28599300  0.54993400  1
  O  O11  1  0.32435900  0.96866600  0.69326700  1
  O  O12  1  0.28147100  0.91590200  0.24456500  1
  O  O13  1  0.61966600  0.85055200  0.16473300  1
  O  O14  1  0.08303300  0.89075800  0.64082300  1
  O  O15  1  0.35049200  0.17834600  0.86072800  1
  O  O16  1  0.91035400  0.06253100  0.38334100  1
  O  O17  1  0.18483300  0.34259800  0.60225400  1
  O  O18  1  0.69496800  0.00010100  0.33839800  1
  O  O19  1  0.64638300  0.39066100  0.06008500  1
loop_
_geom_bond_atom_site_label_1
_geom_bond_atom_site_label_2
_geom_bond_distance
_geom_bond_site_symmetry_2
Ca0 O5 2.320944 1_554
Ca0 O16 2.369021 1_465
Ca0 O14 2.386887 1_554
Ca0 O19 2.448062 1_465
Ca0 O11 2.641771 1_554
Ca0 O3 2.707646 1_465
Ca0 O9 2.731026 1_554
Ca0 O18 2.765919 1_465
Ca1 O2 2.318805 1_455
Ca1 O17 2.345713 1_555
Ca1 O15 2.419160 1_554
Ca1 O13 2.497343 1_545
Ca1 O10 2.667374 1_455
Ca1 O0 2.739827 1_555
Ca1 O12 2.740288 1_545
Ca1 O4 2.760138 1_554
O0 P2 1.596143 1_555
O0 V0 1.996255 1_555
O1 V3 1.647674 1_556
O1 V1 2.048674 1_555
O2 P3 1.569165 1_555
O2 V1 2.084887 1_555
O3 P1 1.575817 1_654
O3 V3 2.052782 1_555
O4 P2 1.480084 1_556
O4 V2 2.035821 1_555
O5 P2 1.594514 1_556
O5 V1 2.108807 1_555
O6 V1 1.689897 1_555
O6 V3 2.032795 1_555
O7 V2 1.625268 1_565
O7 V0 1.996981 1_655
O8 V0 1.694173 1_555
O8 V2 2.057964 1_555
O9 P3 1.544603 1_456
O9 V0 2.038738 1_555
O10 P0 1.532220 1_655
O10 V1 2.000711 1_555
O11 P1 1.586864 1_565
O11 V1 2.087986 1_555
O12 P0 1.536067 1_565
O12 V3 2.045455 1_555
O13 P3 1.517731 1_555
O13 V3 2.007574 1_555
O14 P0 1.605782 1_565
O14 V0 2.039588 1_555
O15 P1 1.511057 1_555
O15 V2 2.050132 1_555
O16 P0 1.545220 1_655
O16 V2 2.169890 1_555
O17 P1 1.587126 1_555
O17 V0 2.160123 1_555
O18 P3 1.586146 1_545
O18 V2 2.033982 1_555
O19 P2 1.605582 1_555
O19 V3 2.077224 1_555
