# generated using pymatgen
data_AlSbO4
_symmetry_space_group_name_H-M   'P 1'
_cell_length_a   3.01452656
_cell_length_b   4.49953692
_cell_length_c   4.49953692
_cell_angle_alpha   91.38428452
_cell_angle_beta   90.00000000
_cell_angle_gamma   90.00000000
_symmetry_Int_Tables_number   1
_chemical_formula_structural   AlSbO4
_chemical_formula_sum   'Al1 Sb1 O4'
_cell_volume   61.01378781
_cell_formula_units_Z   1
loop_
 _symmetry_equiv_pos_site_id
 _symmetry_equiv_pos_as_xyz
  1  'x, y, z'
loop_
 _atom_site_type_symbol
 _atom_site_label
 _atom_site_symmetry_multiplicity
 _atom_site_fract_x
 _atom_site_fract_y
 _atom_site_fract_z
 _atom_site_occupancy
  Al  Al0  1  0.50000000  0.50000000  0.50000000  1
  Sb  Sb0  1  0.00000000  0.00000000  -0.00000000  1
  O  O0  1  0.00000000  0.68922426  0.68922426  1
  O  O1  1  0.50000000  0.20195179  0.79804821  1
  O  O2  1  0.50000000  0.79804821  0.20195179  1
  O  O3  1  -0.00000000  0.31077574  0.31077574  1
loop_
_geom_bond_atom_site_label_1
_geom_bond_atom_site_label_2
_geom_bond_distance
_geom_bond_site_symmetry_2
Al0 O1 1.919344 1_555
Al0 O2 1.919344 1_555
Al0 O3 1.920066 1_655
Al0 O3 1.920066 1_555
Al0 O0 1.920066 1_555
Al0 O0 1.920066 1_655
O0 Sb0 1.953528 1_566
O1 Sb0 1.990772 1_556
O1 Sb0 1.990772 1_656
O2 Sb0 1.990772 1_665
O2 Sb0 1.990772 1_565
O3 Sb0 1.953528 1_555
