# generated using pymatgen
data_RuOF4
_symmetry_space_group_name_H-M   'P 1'
_cell_length_a   5.62175300
_cell_length_b   9.50537100
_cell_length_c   12.83310600
_cell_angle_alpha   90.00000000
_cell_angle_beta   90.00000000
_cell_angle_gamma   90.00000000
_symmetry_Int_Tables_number   1
_chemical_formula_structural   RuOF4
_chemical_formula_sum   'Ru8 O8 F32'
_cell_volume   685.76073386
_cell_formula_units_Z   8
loop_
 _symmetry_equiv_pos_site_id
 _symmetry_equiv_pos_as_xyz
  1  'x, y, z'
loop_
 _atom_site_type_symbol
 _atom_site_label
 _atom_site_symmetry_multiplicity
 _atom_site_fract_x
 _atom_site_fract_y
 _atom_site_fract_z
 _atom_site_occupancy
  Ru  Ru0  1  0.39406300  0.76710300  0.29453800  1
  Ru  Ru1  1  0.10593700  0.23289700  0.79453800  1
  Ru  Ru2  1  0.14829400  0.48208000  0.48627500  1
  Ru  Ru3  1  0.85170600  0.98208000  0.01372500  1
  Ru  Ru4  1  0.64829400  0.01792000  0.51372500  1
  Ru  Ru5  1  0.35170600  0.51792000  0.98627500  1
  Ru  Ru6  1  0.89406300  0.73289700  0.70546200  1
  Ru  Ru7  1  0.60593700  0.26710300  0.20546200  1
  O  O0  1  0.14486600  0.81702200  0.73405200  1
  O  O1  1  0.90559600  0.07943100  0.46991800  1
  O  O2  1  0.09440400  0.57943100  0.03008200  1
  O  O3  1  0.59440400  0.92056900  0.96991800  1
  O  O4  1  0.85513400  0.31702200  0.76594800  1
  O  O5  1  0.35513400  0.18297800  0.23405200  1
  O  O6  1  0.40559600  0.42056900  0.53008200  1
  O  O7  1  0.64486600  0.68297800  0.26594800  1
  F  F0  1  0.83800600  0.37353300  0.13678300  1
  F  F1  1  0.33292500  0.34351400  0.72672400  1
  F  F2  1  0.86305700  0.85478100  0.57454400  1
  F  F3  1  0.16199400  0.87353300  0.36321700  1
  F  F4  1  0.11872700  0.10428000  0.68324400  1
  F  F5  1  0.16707500  0.65648600  0.22672400  1
  F  F6  1  0.41170100  0.89197000  0.55592000  1
  F  F7  1  0.88127300  0.60428000  0.81675600  1
  F  F8  1  0.62979500  0.11043200  0.64242700  1
  F  F9  1  0.38201800  0.40933400  0.12688100  1
  F  F10  1  0.08829900  0.10803000  0.05592000  1
  F  F11  1  0.38127300  0.89572000  0.18324400  1
  F  F12  1  0.36305700  0.64521900  0.42545600  1
  F  F13  1  0.87020500  0.88956800  0.14242700  1
  F  F14  1  0.11798200  0.59066600  0.62688100  1
  F  F15  1  0.61798200  0.90933400  0.37311900  1
  F  F16  1  0.61872700  0.39572000  0.31675600  1
  F  F17  1  0.92982800  0.35217600  0.54029300  1
  F  F18  1  0.42982800  0.14782400  0.45970700  1
  F  F19  1  0.88201800  0.09066600  0.87311900  1
  F  F20  1  0.12979500  0.38956800  0.35757300  1
  F  F21  1  0.91170100  0.60803000  0.44408000  1
  F  F22  1  0.37020500  0.61043200  0.85757300  1
  F  F23  1  0.07017200  0.85217600  0.95970700  1
  F  F24  1  0.57017200  0.64782400  0.04029300  1
  F  F25  1  0.66707500  0.84351400  0.77327600  1
  F  F26  1  0.63694300  0.14521900  0.07454400  1
  F  F27  1  0.83292500  0.15648600  0.27327600  1
  F  F28  1  0.13694300  0.35478100  0.92545600  1
  F  F29  1  0.58829900  0.39197000  0.94408000  1
  F  F30  1  0.66199400  0.62646700  0.63678300  1
  F  F31  1  0.33800600  0.12646700  0.86321700  1
loop_
_geom_bond_atom_site_label_1
_geom_bond_atom_site_label_2
_geom_bond_distance
_geom_bond_site_symmetry_2
O0 Ru6 1.661928 1_455
O1 Ru4 1.658382 1_555
O2 Ru5 1.658382 1_554
O3 Ru3 1.658382 1_556
O4 Ru1 1.661928 1_655
O5 Ru7 1.661928 1_555
O6 Ru2 1.658382 1_555
O7 Ru0 1.661928 1_555
F0 Ru7 1.871450 1_555
F1 Ru1 1.868495 1_555
F2 Ru6 2.048246 1_555
F2 Ru4 2.114596 1_565
F3 Ru0 1.871450 1_555
F4 Ru1 1.881408 1_555
F5 Ru0 1.868495 1_555
F6 Ru4 1.869648 1_565
F7 Ru6 1.881408 1_555
F8 Ru4 1.874040 1_555
F9 Ru5 2.085731 1_554
F9 Ru7 2.104605 1_555
F10 Ru3 1.869648 1_445
F11 Ru0 1.881408 1_555
F12 Ru0 2.048246 1_555
F12 Ru2 2.114596 1_555
F13 Ru3 1.874040 1_555
F14 Ru2 2.085731 1_555
F14 Ru6 2.104605 1_455
F15 Ru4 2.085731 1_565
F15 Ru0 2.104605 1_555
F16 Ru7 1.881408 1_555
F17 Ru2 1.874468 1_655
F18 Ru4 1.874468 1_555
F19 Ru3 2.085731 1_546
F19 Ru1 2.104605 1_655
F20 Ru2 1.874040 1_555
F21 Ru2 1.869648 1_655
F22 Ru5 1.874040 1_555
F23 Ru3 1.874468 1_456
F24 Ru5 1.874468 1_554
F25 Ru6 1.868495 1_555
F26 Ru7 2.048246 1_555
F26 Ru3 2.114596 1_545
F27 Ru7 1.868495 1_555
F28 Ru1 2.048246 1_555
F28 Ru5 2.114596 1_555
F29 Ru5 1.869648 1_555
F30 Ru6 1.871450 1_555
F31 Ru1 1.871450 1_555
