# generated using pymatgen
data_Rb6Ta4S25
_symmetry_space_group_name_H-M   'P 1'
_cell_length_a   19.33756650
_cell_length_b   19.33756650
_cell_length_c   13.16524345
_cell_angle_alpha   80.93114873
_cell_angle_beta   80.93114873
_cell_angle_gamma   25.00755428
_symmetry_Int_Tables_number   1
_chemical_formula_structural   Rb6Ta4S25
_chemical_formula_sum   'Rb12 Ta8 S50'
_cell_volume   2053.84785363
_cell_formula_units_Z   2
loop_
 _symmetry_equiv_pos_site_id
 _symmetry_equiv_pos_as_xyz
  1  'x, y, z'
loop_
 _atom_site_type_symbol
 _atom_site_label
 _atom_site_symmetry_multiplicity
 _atom_site_fract_x
 _atom_site_fract_y
 _atom_site_fract_z
 _atom_site_occupancy
  Rb  Rb0  1  0.06069300  0.36100700  0.23556600  1
  Rb  Rb1  1  0.65150500  0.28014500  0.10551600  1
  Rb  Rb2  1  0.71985500  0.34849500  0.39448400  1
  Rb  Rb3  1  0.34642400  0.90206200  0.13561600  1
  Rb  Rb4  1  0.93930700  0.63899300  0.76443400  1
  Rb  Rb5  1  0.09793800  0.65357600  0.36438400  1
  Rb  Rb6  1  0.90206200  0.34642400  0.63561600  1
  Rb  Rb7  1  0.28014500  0.65150500  0.60551600  1
  Rb  Rb8  1  0.63899300  0.93930700  0.26443400  1
  Rb  Rb9  1  0.65357600  0.09793800  0.86438400  1
  Rb  Rb10  1  0.34849500  0.71985500  0.89448400  1
  Rb  Rb11  1  0.36100700  0.06069300  0.73556600  1
  Ta  Ta0  1  0.21620000  0.60782600  0.94227300  1
  Ta  Ta1  1  0.51542000  0.12886700  0.58776300  1
  Ta  Ta2  1  0.87113300  0.48458000  0.91223700  1
  Ta  Ta3  1  0.48458000  0.87113300  0.41223700  1
  Ta  Ta4  1  0.12886700  0.51542000  0.08776300  1
  Ta  Ta5  1  0.39217400  0.78380000  0.55772700  1
  Ta  Ta6  1  0.78380000  0.39217400  0.05772700  1
  Ta  Ta7  1  0.60782600  0.21620000  0.44227300  1
  S  S0  1  0.39356600  0.22454200  0.04349500  1
  S  S1  1  0.02627700  0.88332800  0.93530600  1
  S  S2  1  0.91682100  0.48481900  0.74530600  1
  S  S3  1  0.48581000  0.22908500  0.37447800  1
  S  S4  1  0.05360700  0.21720500  0.93732000  1
  S  S5  1  0.76987800  0.38536600  0.87613900  1
  S  S6  1  0.70289300  0.07127600  0.29861300  1
  S  S7  1  0.48481900  0.91682100  0.24530600  1
  S  S8  1  0.11667200  0.97372300  0.56469400  1
  S  S9  1  0.94639300  0.78279500  0.06268000  1
  S  S10  1  0.85780900  0.77197500  0.01427100  1
  S  S11  1  0.51419000  0.77091500  0.62552200  1
  S  S12  1  0.77197500  0.85780900  0.51427100  1
  S  S13  1  0.42269400  0.33940300  0.59603900  1
  S  S14  1  0.78279500  0.94639300  0.56268000  1
  S  S15  1  0.77545800  0.60643400  0.45650500  1
  S  S16  1  0.88332800  0.02627700  0.43530600  1
  S  S17  1  0.77091500  0.51419000  0.12552200  1
  S  S18  1  0.02607600  0.06222200  0.71353500  1
  S  S19  1  0.61463400  0.23012200  0.62386100  1
  S  S20  1  0.38536600  0.76987800  0.37613900  1
  S  S21  1  0.57730600  0.66059700  0.40396100  1
  S  S22  1  0.81251400  0.64212600  0.99239400  1
  S  S23  1  0.97392400  0.93777800  0.28646500  1
  S  S24  1  0.44350900  0.45763900  0.87002800  1
  S  S25  1  0.23012200  0.61463400  0.12386100  1
  S  S26  1  0.07127600  0.70289300  0.79861300  1
  S  S27  1  0.06222200  0.02607600  0.21353500  1
  S  S28  1  0.92872400  0.29710700  0.20138700  1
  S  S29  1  0.18748600  0.35787400  0.00760600  1
  S  S30  1  0.21720500  0.05360700  0.43732000  1
  S  S31  1  0.60643400  0.77545800  0.95650500  1
  S  S32  1  0.22908500  0.48581000  0.87447800  1
  S  S33  1  0.54236100  0.55649100  0.62997200  1
  S  S34  1  0.45763900  0.44350900  0.37002800  1
  S  S35  1  0.14219100  0.22802500  0.98572900  1
  S  S36  1  0.33940300  0.42269400  0.09603900  1
  S  S37  1  0.16249800  0.83750200  0.25000000  1
  S  S38  1  0.97372300  0.11667200  0.06469400  1
  S  S39  1  0.35787400  0.18748600  0.50760600  1
  S  S40  1  0.55649100  0.54236100  0.12997200  1
  S  S41  1  0.83750200  0.16249800  0.75000000  1
  S  S42  1  0.66059700  0.57730600  0.90396100  1
  S  S43  1  0.93777800  0.97392400  0.78646500  1
  S  S44  1  0.64212600  0.81251400  0.49239400  1
  S  S45  1  0.22802500  0.14219100  0.48572900  1
  S  S46  1  0.29710700  0.92872400  0.70138700  1
  S  S47  1  0.51518100  0.08317900  0.75469400  1
  S  S48  1  0.22454200  0.39356600  0.54349500  1
  S  S49  1  0.08317900  0.51518100  0.25469400  1
loop_
_geom_bond_atom_site_label_1
_geom_bond_atom_site_label_2
_geom_bond_distance
_geom_bond_site_symmetry_2
Rb0 S49 3.429548 1_555
Rb0 S29 3.534206 1_555
Rb0 S15 3.640814 1_455
Rb0 S7 3.655104 1_545
Rb0 S45 3.656713 1_555
Rb0 S17 3.659857 1_455
Rb0 S35 3.688080 1_554
Rb0 S28 3.807184 1_455
Rb0 S22 3.860514 1_454
Rb1 S40 3.554255 1_555
Rb1 S25 3.554727 1_555
Rb1 S38 3.589592 1_555
Rb1 S24 3.622758 1_554
Rb1 S23 3.643292 1_545
Rb1 S36 3.743524 1_555
Rb1 S34 3.748035 1_555
Rb1 S6 3.748134 1_555
Rb1 S1 3.991384 1_644
Rb2 S34 3.554255 1_555
Rb2 S20 3.554727 1_555
Rb2 S16 3.589592 1_555
Rb2 S33 3.622758 1_555
Rb2 S27 3.643292 1_655
Rb2 S21 3.743524 1_555
Rb2 S40 3.748035 1_555
Rb2 S28 3.748134 1_555
Rb2 S8 3.991384 1_645
Rb3 S20 3.440799 1_555
Rb3 S17 3.468908 1_555
Rb3 S7 3.472993 1_555
Rb3 S27 3.480965 1_565
Rb3 S28 3.520141 1_465
Rb3 S31 3.550460 1_554
Rb3 S35 3.555036 1_564
Rb3 S4 3.621647 1_564
Rb3 S40 3.707259 1_555
Rb4 S2 3.429548 1_555
Rb4 S22 3.534206 1_555
Rb4 S48 3.640814 1_655
Rb4 S47 3.655104 1_565
Rb4 S12 3.656713 1_555
Rb4 S32 3.659857 1_655
Rb4 S10 3.688080 1_556
Rb4 S26 3.807184 1_655
Rb4 S29 3.860514 1_656
Rb5 S25 3.440799 1_555
Rb5 S3 3.468908 1_555
Rb5 S49 3.472993 1_555
Rb5 S23 3.480965 1_455
Rb5 S6 3.520141 1_465
Rb5 S48 3.550460 1_555
Rb5 S12 3.555036 1_455
Rb5 S14 3.621647 1_455
Rb5 S34 3.707259 1_555
Rb6 S5 3.440799 1_555
Rb6 S11 3.468908 1_555
Rb6 S2 3.472993 1_555
Rb6 S18 3.480965 1_655
Rb6 S46 3.520141 1_645
Rb6 S15 3.550460 1_555
Rb6 S45 3.555036 1_655
Rb6 S30 3.621647 1_655
Rb6 S33 3.707259 1_555
Rb7 S33 3.554255 1_555
Rb7 S19 3.554727 1_555
Rb7 S8 3.589592 1_555
Rb7 S34 3.622758 1_555
Rb7 S43 3.643292 1_455
Rb7 S13 3.743524 1_555
Rb7 S24 3.748035 1_555
Rb7 S26 3.748134 1_555
Rb7 S16 3.991384 1_465
Rb8 S7 3.429548 1_555
Rb8 S44 3.534206 1_555
Rb8 S0 3.640814 1_565
Rb8 S49 3.655104 1_655
Rb8 S10 3.656713 1_555
Rb8 S3 3.659857 1_565
Rb8 S12 3.688080 1_555
Rb8 S6 3.807184 1_565
Rb8 S39 3.860514 1_565
Rb9 S19 3.440799 1_555
Rb9 S32 3.468908 1_555
Rb9 S47 3.472993 1_555
Rb9 S43 3.480965 1_545
Rb9 S26 3.520141 1_645
Rb9 S0 3.550460 1_556
Rb9 S10 3.555036 1_546
Rb9 S9 3.621647 1_546
Rb9 S24 3.707259 1_555
Rb10 S24 3.554255 1_555
Rb10 S5 3.554727 1_555
Rb10 S1 3.589592 1_555
Rb10 S40 3.622758 1_556
Rb10 S18 3.643292 1_565
Rb10 S42 3.743524 1_555
Rb10 S33 3.748035 1_555
Rb10 S46 3.748134 1_555
Rb10 S38 3.991384 1_466
Rb11 S47 3.429548 1_555
Rb11 S39 3.534206 1_555
Rb11 S31 3.640814 1_545
Rb11 S2 3.655104 1_455
Rb11 S35 3.656713 1_555
Rb11 S11 3.659857 1_545
Rb11 S45 3.688080 1_555
Rb11 S46 3.807184 1_545
Rb11 S44 3.860514 1_545
S0 S29 2.082850 1_555
S0 Ta4 2.467237 1_555
S1 S43 2.092482 1_455
S1 Ta0 2.523450 1_555
S2 Ta2 2.236632 1_555
S3 S6 2.086233 1_555
S3 Ta7 2.440105 1_555
S3 Ta1 2.957752 1_555
S4 Ta2 2.460547 1_455
S4 Ta6 2.875683 1_456
S5 Ta6 2.484223 1_556
S6 Ta7 2.459147 1_555
S7 Ta3 2.236632 1_555
S8 Ta5 2.523450 1_555
S9 Ta4 2.460547 1_655
S9 Ta0 2.875683 1_654
S10 S9 2.102413 1_555
S10 Ta4 2.444594 1_655
S11 S46 2.086233 1_555
S11 Ta5 2.440105 1_555
S11 Ta3 2.957752 1_555
S12 S14 2.102413 1_555
S12 Ta1 2.444594 1_565
S13 S19 2.084305 1_555
S13 Ta7 2.523320 1_555
S13 Ta1 2.578541 1_555
S14 Ta1 2.460547 1_565
S14 Ta7 2.875683 1_565
S15 S44 2.082850 1_555
S15 Ta3 2.467237 1_555
S16 S23 2.092482 1_545
S16 Ta7 2.523450 1_555
S17 S28 2.086233 1_555
S17 Ta6 2.440105 1_555
S17 Ta2 2.957752 1_554
S18 S41 2.052632 1_455
S18 S8 2.092482 1_545
S19 Ta7 2.484223 1_555
S20 S21 2.084305 1_555
S20 Ta5 2.484223 1_555
S21 Ta5 2.523320 1_555
S21 Ta3 2.578541 1_555
S22 S31 2.082850 1_555
S22 Ta2 2.461124 1_555
S23 S37 2.052632 1_655
S24 Ta0 2.252813 1_555
S25 S36 2.084305 1_555
S25 Ta0 2.484223 1_554
S26 S32 2.086233 1_555
S26 Ta0 2.459147 1_555
S27 S37 2.052632 1_545
S27 S38 2.092482 1_455
S28 Ta6 2.459147 1_555
S29 Ta4 2.461124 1_555
S30 S45 2.102413 1_555
S30 Ta3 2.460547 1_545
S30 Ta5 2.875683 1_545
S31 Ta2 2.467237 1_555
S32 Ta0 2.440105 1_555
S32 Ta4 2.957752 1_556
S33 Ta5 2.252813 1_555
S34 Ta7 2.252813 1_555
S35 S4 2.102413 1_555
S35 Ta2 2.444594 1_455
S36 Ta0 2.523320 1_554
S36 Ta4 2.578541 1_555
S38 Ta6 2.523450 1_555
S39 S48 2.082850 1_555
S39 Ta1 2.461124 1_555
S40 Ta6 2.252813 1_555
S41 S43 2.052632 1_545
S42 S5 2.084305 1_555
S42 Ta6 2.523320 1_556
S42 Ta2 2.578541 1_555
S44 Ta3 2.461124 1_555
S45 Ta3 2.444594 1_545
S46 Ta5 2.459147 1_555
S47 Ta1 2.236632 1_555
S48 Ta1 2.467237 1_555
S49 Ta4 2.236632 1_555
