# generated using pymatgen
data_Sr4NdNb2Al3O15
_symmetry_space_group_name_H-M   'P 1'
_cell_length_a   22.84219342
_cell_length_b   22.84219342
_cell_length_c   22.84219401
_cell_angle_alpha   13.90107040
_cell_angle_beta   13.90107040
_cell_angle_gamma   13.90107108
_symmetry_Int_Tables_number   1
_chemical_formula_structural   Sr4NdNb2Al3O15
_chemical_formula_sum   'Sr8 Nd2 Nb4 Al6 O30'
_cell_volume   598.66251658
_cell_formula_units_Z   2
loop_
 _symmetry_equiv_pos_site_id
 _symmetry_equiv_pos_as_xyz
  1  'x, y, z'
loop_
 _atom_site_type_symbol
 _atom_site_label
 _atom_site_symmetry_multiplicity
 _atom_site_fract_x
 _atom_site_fract_y
 _atom_site_fract_z
 _atom_site_occupancy
  Sr  Sr0  1  0.04794400  0.04794400  0.04794400  1
  Sr  Sr1  1  0.44985700  0.44985700  0.44985700  1
  Sr  Sr2  1  0.74975200  0.74975200  0.74975200  1
  Sr  Sr3  1  0.85000100  0.85000100  0.85000100  1
  Sr  Sr4  1  0.14999900  0.14999900  0.14999900  1
  Sr  Sr5  1  0.25024800  0.25024800  0.25024800  1
  Sr  Sr6  1  0.55014300  0.55014300  0.55014300  1
  Sr  Sr7  1  0.95205600  0.95205600  0.95205600  1
  Nd  Nd0  1  0.65245000  0.65245000  0.65245000  1
  Nd  Nd1  1  0.34755000  0.34755000  0.34755000  1
  Nb  Nb0  1  0.39955400  0.39955400  0.39955400  1
  Nb  Nb1  1  0.79993800  0.79993800  0.79993800  1
  Nb  Nb2  1  0.20006200  0.20006200  0.20006200  1
  Nb  Nb3  1  0.60044600  0.60044600  0.60044600  1
  Al  Al0  1  0.69887100  0.69887100  0.69887100  1
  Al  Al1  1  0.09966900  0.09966900  0.09966900  1
  Al  Al2  1  0.50000000  0.50000000  0.50000000  1
  Al  Al3  1  0.90033100  0.90033100  0.90033100  1
  Al  Al4  1  0.30112900  0.30112900  0.30112900  1
  Al  Al5  1  0.00000000  0.00000000  0.00000000  1
  O  O0  1  0.24678900  0.24678900  0.75644900  1
  O  O1  1  0.55104800  0.04334000  0.55104800  1
  O  O2  1  0.04334000  0.55104800  0.55104800  1
  O  O3  1  0.75644900  0.24678900  0.24678900  1
  O  O4  1  0.95344900  0.44169200  0.95344900  1
  O  O5  1  0.64662200  0.64662200  0.15786100  1
  O  O6  1  0.24678900  0.75644900  0.24678900  1
  O  O7  1  0.55104800  0.55104800  0.04334000  1
  O  O8  1  0.44169200  0.95344900  0.95344900  1
  O  O9  1  0.15786100  0.64662200  0.64662200  1
  O  O10  1  0.35337800  0.84213900  0.35337800  1
  O  O11  1  0.04655100  0.04655100  0.55830800  1
  O  O12  1  0.95344900  0.95344900  0.44169200  1
  O  O13  1  0.64662200  0.15786100  0.64662200  1
  O  O14  1  0.84213900  0.35337800  0.35337800  1
  O  O15  1  0.55830800  0.04655100  0.04655100  1
  O  O16  1  0.75321100  0.24355100  0.75321100  1
  O  O17  1  0.44895200  0.44895200  0.95666000  1
  O  O18  1  0.35337800  0.35337800  0.84213900  1
  O  O19  1  0.04655100  0.55830800  0.04655100  1
  O  O20  1  0.24355100  0.75321100  0.75321100  1
  O  O21  1  0.95666000  0.44895200  0.44895200  1
  O  O22  1  0.15451500  0.64456100  0.15451500  1
  O  O23  1  0.84548500  0.84548500  0.35543900  1
  O  O24  1  0.44895200  0.95666000  0.44895200  1
  O  O25  1  0.75321100  0.75321100  0.24355100  1
  O  O26  1  0.64456100  0.15451500  0.15451500  1
  O  O27  1  0.35543900  0.84548500  0.84548500  1
  O  O28  1  0.15451500  0.15451500  0.64456100  1
  O  O29  1  0.84548500  0.35543900  0.84548500  1
loop_
_geom_bond_atom_site_label_1
_geom_bond_atom_site_label_2
_geom_bond_distance
_geom_bond_site_symmetry_2
Nd0 O23 2.550314 1_555
Nd0 O29 2.550314 1_555
Nd0 O27 2.550314 1_555
Nd0 O22 2.765679 1_556
Nd0 O26 2.765679 1_556
Nd0 O22 2.765679 1_655
Nd0 O26 2.765679 1_565
Nd0 O28 2.765679 1_565
Nd0 O28 2.765679 1_655
Nd0 O17 2.833875 1_555
Nd0 O21 2.833875 1_555
Nd0 O24 2.833875 1_555
Nd1 O28 2.550314 1_555
Nd1 O22 2.550314 1_555
Nd1 O26 2.550314 1_555
Nd1 O27 2.765679 1_554
Nd1 O29 2.765679 1_554
Nd1 O29 2.765679 1_455
Nd1 O27 2.765679 1_545
Nd1 O23 2.765679 1_455
Nd1 O23 2.765679 1_545
Nd1 O7 2.833875 1_555
Nd1 O2 2.833875 1_555
Nd1 O1 2.833875 1_555
Nb0 O3 1.999001 1_555
Nb0 O6 1.999001 1_555
Nb0 O0 1.999001 1_555
Nb0 O2 2.018750 1_555
Nb0 O1 2.018750 1_555
Nb0 O7 2.018750 1_555
Nb1 O9 2.002134 1_655
Nb1 O13 2.002134 1_565
Nb1 O5 2.002134 1_556
Nb1 O4 2.002605 1_555
Nb1 O8 2.002605 1_555
Nb1 O12 2.002605 1_555
Nb2 O14 2.002134 1_455
Nb2 O10 2.002134 1_545
Nb2 O18 2.002134 1_554
Nb2 O15 2.002605 1_555
Nb2 O19 2.002605 1_555
Nb2 O11 2.002605 1_555
Nb3 O20 1.999001 1_555
Nb3 O16 1.999001 1_555
Nb3 O25 1.999001 1_555
Nb3 O24 2.018750 1_555
Nb3 O21 2.018750 1_555
Nb3 O17 2.018750 1_555
Al0 O1 1.920529 1_565
Al0 O2 1.920529 1_655
Al0 O7 1.920530 1_556
Al0 O29 1.932852 1_555
Al0 O27 1.932852 1_555
Al0 O23 1.932852 1_555
Al1 O3 1.917485 1_455
Al1 O6 1.917485 1_545
Al1 O0 1.917485 1_554
Al1 O8 1.919960 1_544
Al1 O4 1.919960 1_454
Al1 O12 1.919960 1_445
Al2 O9 1.912261 1_555
Al2 O13 1.912261 1_555
Al2 O14 1.912261 1_555
Al2 O10 1.912261 1_555
Al2 O5 1.912261 1_555
Al2 O18 1.912261 1_555
Al3 O20 1.917485 1_655
Al3 O16 1.917485 1_565
Al3 O25 1.917485 1_556
Al3 O15 1.919960 1_566
Al3 O19 1.919960 1_656
Al3 O11 1.919960 1_665
Al4 O24 1.920529 1_545
Al4 O21 1.920529 1_455
Al4 O17 1.920530 1_554
Al4 O26 1.932852 1_555
Al4 O22 1.932852 1_555
Al4 O28 1.932852 1_555
Al5 O22 1.936793 1_545
Al5 O26 1.936793 1_455
Al5 O27 1.936793 1_544
Al5 O29 1.936793 1_454
Al5 O28 1.936793 1_554
Al5 O23 1.936793 1_445
O0 Sr2 2.764416 1_455
O0 Sr2 2.764416 1_545
O0 Sr1 2.777680 1_555
O0 Sr0 2.866829 1_556
O1 Sr0 2.764536 1_556
O1 Sr0 2.764536 1_655
O1 Sr2 2.825435 1_545
O2 Sr0 2.764536 1_556
O2 Sr0 2.764536 1_565
O2 Sr2 2.825435 1_455
O3 Sr2 2.764416 1_545
O3 Sr2 2.764416 1_554
O3 Sr1 2.777681 1_555
O3 Sr0 2.866830 1_655
O4 Sr1 2.764533 1_655
O4 Sr1 2.764533 1_556
O4 Sr4 2.772958 1_656
O4 Sr2 2.777763 1_555
O5 Sr4 2.764535 1_565
O5 Sr4 2.764535 1_655
O5 Sr3 2.768817 1_554
O5 Sr1 2.776263 1_555
O6 Sr2 2.764416 1_455
O6 Sr2 2.764416 1_554
O6 Sr1 2.777681 1_555
O6 Sr0 2.866830 1_565
O7 Sr0 2.764537 1_565
O7 Sr0 2.764537 1_655
O7 Sr2 2.825435 1_554
O8 Sr1 2.764533 1_565
O8 Sr1 2.764533 1_556
O8 Sr4 2.772958 1_566
O8 Sr2 2.777763 1_555
O9 Sr4 2.764535 1_556
O9 Sr4 2.764535 1_565
O9 Sr3 2.768818 1_455
O9 Sr1 2.776264 1_555
O10 Sr3 2.764535 1_554
O10 Sr3 2.764535 1_455
O10 Sr4 2.768818 1_565
O10 Sr6 2.776264 1_555
O11 Sr6 2.764533 1_455
O11 Sr6 2.764533 1_545
O11 Sr3 2.772958 1_445
O11 Sr5 2.777762 1_555
O12 Sr1 2.764533 1_565
O12 Sr1 2.764533 1_655
O12 Sr4 2.772958 1_665
O12 Sr2 2.777762 1_555
O13 Sr4 2.764535 1_556
O13 Sr4 2.764535 1_655
O13 Sr3 2.768818 1_545
O13 Sr1 2.776264 1_555
O14 Sr3 2.764535 1_554
O14 Sr3 2.764535 1_545
O14 Sr4 2.768818 1_655
O14 Sr6 2.776264 1_555
O15 Sr6 2.764533 1_545
O15 Sr6 2.764533 1_554
O15 Sr3 2.772958 1_544
O15 Sr5 2.777763 1_555
O16 Sr5 2.764416 1_655
O16 Sr5 2.764416 1_556
O16 Sr6 2.777681 1_555
O16 Sr7 2.866830 1_545
O17 Sr7 2.764537 1_455
O17 Sr7 2.764537 1_545
O17 Sr5 2.825435 1_556
O18 Sr3 2.764535 1_545
O18 Sr3 2.764535 1_455
O18 Sr4 2.768817 1_556
O18 Sr6 2.776263 1_555
O19 Sr6 2.764533 1_455
O19 Sr6 2.764533 1_554
O19 Sr3 2.772958 1_454
O19 Sr5 2.777763 1_555
O20 Sr5 2.764416 1_565
O20 Sr5 2.764416 1_556
O20 Sr6 2.777681 1_555
O20 Sr7 2.866830 1_455
O21 Sr7 2.764536 1_554
O21 Sr7 2.764536 1_545
O21 Sr5 2.825435 1_655
O22 Sr7 2.739497 1_454
O23 Sr0 2.739497 1_665
O24 Sr7 2.764536 1_554
O24 Sr7 2.764536 1_455
O24 Sr5 2.825435 1_565
O25 Sr5 2.764416 1_565
O25 Sr5 2.764416 1_655
O25 Sr6 2.777680 1_555
O25 Sr7 2.866829 1_554
O26 Sr7 2.739497 1_544
O27 Sr0 2.739497 1_566
O28 Sr7 2.739497 1_445
O29 Sr0 2.739497 1_656
