# generated using pymatgen
data_Li3Cr2(PO4)3
_symmetry_space_group_name_H-M   'P 1'
_cell_length_a   8.70558689
_cell_length_b   8.70558689
_cell_length_c   8.68491338
_cell_angle_alpha   60.11978976
_cell_angle_beta   60.11978976
_cell_angle_gamma   59.56056488
_symmetry_Int_Tables_number   1
_chemical_formula_structural   Li3Cr2(PO4)3
_chemical_formula_sum   'Li6 Cr4 P6 O24'
_cell_volume   464.68893915
_cell_formula_units_Z   2
loop_
 _symmetry_equiv_pos_site_id
 _symmetry_equiv_pos_as_xyz
  1  'x, y, z'
loop_
 _atom_site_type_symbol
 _atom_site_label
 _atom_site_symmetry_multiplicity
 _atom_site_fract_x
 _atom_site_fract_y
 _atom_site_fract_z
 _atom_site_occupancy
  Li  Li0  1  0.25760500  0.11156700  0.82774400  1
  Li  Li1  1  0.96395600  0.64892200  0.56339400  1
  Li  Li2  1  0.11156700  0.25760500  0.32774400  1
  Li  Li3  1  0.63476100  0.38269200  0.73065300  1
  Li  Li4  1  0.38269200  0.63476100  0.23065300  1
  Li  Li5  1  0.64892200  0.96395600  0.06339400  1
  Cr  Cr0  1  0.84737600  0.35304000  0.93866900  1
  Cr  Cr1  1  0.35304000  0.84737600  0.43866900  1
  Cr  Cr2  1  0.14717500  0.64578200  0.06859300  1
  Cr  Cr3  1  0.64578200  0.14717500  0.56859300  1
  P  P0  1  0.95563100  0.04700500  0.75118900  1
  P  P1  1  0.04700500  0.95563100  0.25118900  1
  P  P2  1  0.52730900  0.75049600  0.76129200  1
  P  P3  1  0.47137900  0.24716900  0.24115200  1
  P  P4  1  0.75049600  0.52730900  0.26129200  1
  P  P5  1  0.24716900  0.47137900  0.74115200  1
  O  O0  1  0.51704300  0.24827200  0.38800600  1
  O  O1  1  0.27789300  0.40712600  0.23892900  1
  O  O2  1  0.07095900  0.75812400  0.26607500  1
  O  O3  1  0.72446400  0.59647800  0.75998000  1
  O  O4  1  0.94622400  0.52735400  0.21211200  1
  O  O5  1  0.37627300  0.71675300  0.96033000  1
  O  O6  1  0.59647800  0.72446400  0.25998000  1
  O  O7  1  0.73507800  0.48135200  0.12183200  1
  O  O8  1  0.24827200  0.51704300  0.88800600  1
  O  O9  1  0.88383400  0.98776500  0.43051100  1
  O  O10  1  0.27370300  0.62638100  0.54435200  1
  O  O11  1  0.06523900  0.44775200  0.78091000  1
  O  O12  1  0.52735400  0.94622400  0.71211200  1
  O  O13  1  0.40712600  0.27789300  0.73892900  1
  O  O14  1  0.98776500  0.88383400  0.93051100  1
  O  O15  1  0.94210500  0.23539900  0.74393000  1
  O  O16  1  0.23539900  0.94210500  0.24393000  1
  O  O17  1  0.01947100  0.11209400  0.06580400  1
  O  O18  1  0.48135200  0.73507800  0.62183200  1
  O  O19  1  0.71675300  0.37627300  0.46033000  1
  O  O20  1  0.62638100  0.27370300  0.04435200  1
  O  O21  1  0.11209400  0.01947100  0.56580400  1
  O  O22  1  0.44775200  0.06523900  0.28091000  1
  O  O23  1  0.75812400  0.07095900  0.76607500  1
loop_
_geom_bond_atom_site_label_1
_geom_bond_atom_site_label_2
_geom_bond_distance
_geom_bond_site_symmetry_2
Li0 O13 2.045099 1_555
Li0 O12 2.064115 1_545
Li0 O17 2.074027 1_556
Li0 O11 2.462081 1_555
Li1 O3 2.027657 1_555
Li1 O11 2.052273 1_655
Li1 O2 2.119894 1_655
Li1 O9 2.417677 1_555
Li1 O10 2.527641 1_655
Li2 O1 2.045099 1_555
Li2 O4 2.064115 1_455
Li2 O21 2.074027 1_555
Li2 O22 2.462081 1_555
Li3 O19 2.108329 1_555
Li3 O23 2.270909 1_555
Li3 O15 2.345241 1_555
Li3 O20 2.371637 1_556
Li3 O3 2.506327 1_555
Li3 O18 2.511032 1_555
Li3 O13 2.527711 1_555
Li4 O5 2.108329 1_554
Li4 O2 2.270909 1_555
Li4 O16 2.345241 1_555
Li4 O10 2.371637 1_555
Li4 O6 2.506327 1_555
Li4 O7 2.511032 1_555
Li4 O1 2.527711 1_555
Li5 O6 2.027657 1_555
Li5 O22 2.052273 1_565
Li5 O23 2.119894 1_564
Li5 O14 2.417677 1_554
Li5 O20 2.527641 1_565
Cr0 O7 1.961749 1_556
Cr0 O20 1.994029 1_556
Cr0 O17 2.004973 1_656
Cr0 O11 2.005992 1_655
Cr0 O15 2.017364 1_555
Cr0 O3 2.030885 1_555
Cr1 O18 1.961749 1_555
Cr1 O10 1.994029 1_555
Cr1 O21 2.004973 1_565
Cr1 O22 2.005992 1_565
Cr1 O16 2.017364 1_555
Cr1 O6 2.030885 1_555
Cr2 O8 1.966491 1_554
Cr2 O14 1.981580 1_454
Cr2 O1 2.004836 1_555
Cr2 O5 2.011181 1_554
Cr2 O4 2.012813 1_455
Cr2 O2 2.053845 1_555
Cr3 O0 1.966491 1_555
Cr3 O9 1.981580 1_545
Cr3 O13 2.004836 1_555
Cr3 O19 2.011181 1_555
Cr3 O12 2.012813 1_545
Cr3 O23 2.053845 1_555
O0 P3 1.518571 1_555
O1 P3 1.551022 1_555
O2 P1 1.568009 1_555
O3 P2 1.551676 1_555
O4 P4 1.536607 1_555
O5 P2 1.556934 1_555
O6 P4 1.551676 1_555
O7 P4 1.531110 1_555
O8 P5 1.518571 1_555
O9 P1 1.532561 1_655
O10 P5 1.555628 1_555
O11 P5 1.544151 1_555
O12 P2 1.536607 1_555
O13 P5 1.551022 1_555
O14 P0 1.532561 1_565
O15 P0 1.554476 1_555
O16 P1 1.554476 1_555
O17 P1 1.540664 1_545
O18 P2 1.531110 1_555
O19 P4 1.556934 1_555
O20 P3 1.555628 1_555
O21 P0 1.540664 1_455
O22 P3 1.544151 1_555
O23 P0 1.568009 1_555
