# generated using pymatgen
data_Ca2Mn7Si10H12O35
_symmetry_space_group_name_H-M   'P 1'
_cell_length_a   8.97644700
_cell_length_b   9.03434076
_cell_length_c   18.83712505
_cell_angle_alpha   86.25001810
_cell_angle_beta   83.38641241
_cell_angle_gamma   84.58593154
_symmetry_Int_Tables_number   1
_chemical_formula_structural   Ca2Mn7Si10H12O35
_chemical_formula_sum   'Ca4 Mn14 Si20 H24 O70'
_cell_volume   1508.38665599
_cell_formula_units_Z   2
loop_
 _symmetry_equiv_pos_site_id
 _symmetry_equiv_pos_as_xyz
  1  'x, y, z'
loop_
 _atom_site_type_symbol
 _atom_site_label
 _atom_site_symmetry_multiplicity
 _atom_site_fract_x
 _atom_site_fract_y
 _atom_site_fract_z
 _atom_site_occupancy
  Ca  Ca0  1  0.28845800  0.10022900  0.11923400  1
  Ca  Ca1  1  0.28878600  0.10078600  0.62004600  1
  Ca  Ca2  1  0.71154200  0.89977100  0.88076600  1
  Ca  Ca3  1  0.71121400  0.89921400  0.37995400  1
  Mn  Mn0  1  0.00045400  0.00158000  0.75040500  1
  Mn  Mn1  1  0.03048100  0.66417800  0.82533700  1
  Mn  Mn2  1  0.99954600  0.99842000  0.24959500  1
  Mn  Mn3  1  0.03245300  0.66348100  0.32474700  1
  Mn  Mn4  1  0.35235600  0.43997500  0.80261500  1
  Mn  Mn5  1  0.32598100  0.77504100  0.21046200  1
  Mn  Mn6  1  0.35193000  0.43952200  0.30229100  1
  Mn  Mn7  1  0.32664000  0.77581500  0.71157300  1
  Mn  Mn8  1  0.67401900  0.22495900  0.78953800  1
  Mn  Mn9  1  0.64764400  0.56002500  0.19738500  1
  Mn  Mn10  1  0.67336000  0.22418500  0.28842700  1
  Mn  Mn11  1  0.64807000  0.56047800  0.69770900  1
  Mn  Mn12  1  0.96951900  0.33582200  0.17466300  1
  Mn  Mn13  1  0.96754700  0.33651900  0.67525300  1
  Si  Si0  1  0.03621400  0.28281000  0.84557700  1
  Si  Si1  1  0.03704300  0.27951000  0.34295500  1
  Si  Si2  1  0.32225100  0.08083000  0.80716800  1
  Si  Si3  1  0.24586100  0.73422700  0.05100900  1
  Si  Si4  1  0.32197800  0.07949000  0.30710700  1
  Si  Si5  1  0.35934200  0.77298800  0.88651800  1
  Si  Si6  1  0.34344600  0.44423600  0.12712200  1
  Si  Si7  1  0.24770300  0.73437100  0.55150400  1
  Si  Si8  1  0.35923200  0.77307300  0.38643800  1
  Si  Si9  1  0.34559000  0.44413800  0.62815900  1
  Si  Si10  1  0.65655400  0.55576400  0.87287800  1
  Si  Si11  1  0.64065800  0.22701200  0.11348200  1
  Si  Si12  1  0.75413900  0.26577300  0.94899100  1
  Si  Si13  1  0.65441000  0.55586200  0.37184100  1
  Si  Si14  1  0.64076800  0.22692700  0.61356200  1
  Si  Si15  1  0.67774900  0.91917000  0.19283200  1
  Si  Si16  1  0.75229700  0.26562900  0.44849600  1
  Si  Si17  1  0.67802200  0.92051000  0.69289300  1
  Si  Si18  1  0.96378600  0.71719000  0.15442300  1
  Si  Si19  1  0.96295700  0.72049000  0.65704500  1
  H  H0  1  0.03427700  0.93341500  0.88859400  1
  H  H1  1  0.01774000  0.65146400  0.47866900  1
  H  H2  1  0.02464600  0.49092200  0.55723800  1
  H  H3  1  0.03442100  0.93750900  0.38747700  1
  H  H4  1  0.22910300  0.45639000  0.94071400  1
  H  H5  1  0.31239900  0.04434900  0.96398200  1
  H  H6  1  0.32151100  0.21701100  0.96496900  1
  H  H7  1  0.22986200  0.46806800  0.43778100  1
  H  H8  1  0.31295500  0.04554600  0.46402700  1
  H  H9  1  0.39830800  0.45455100  0.95322600  1
  H  H10  1  0.32339900  0.21851500  0.46483300  1
  H  H11  1  0.40014000  0.45170300  0.45175200  1
  H  H12  1  0.60169200  0.54544900  0.04677400  1
  H  H13  1  0.67848900  0.78298900  0.03503100  1
  H  H14  1  0.59986000  0.54829700  0.54824800  1
  H  H15  1  0.68760100  0.95565100  0.03601800  1
  H  H16  1  0.77089700  0.54361000  0.05928600  1
  H  H17  1  0.67660100  0.78148500  0.53516700  1
  H  H18  1  0.68704500  0.95445400  0.53597300  1
  H  H19  1  0.77013800  0.53193200  0.56221900  1
  H  H20  1  0.96572300  0.06658500  0.11140600  1
  H  H21  1  0.96557900  0.06249100  0.61252300  1
  H  H22  1  0.97535400  0.50907800  0.44276200  1
  H  H23  1  0.98226000  0.34853600  0.52133100  1
  O  O0  1  0.02445000  0.10886700  0.14428100  1
  O  O1  1  0.11349000  0.43849000  0.82628300  1
  O  O2  1  0.17109900  0.14763800  0.85804100  1
  O  O3  1  0.06706300  0.71213700  0.07607900  1
  O  O4  1  0.02638000  0.10561200  0.64420100  1
  O  O5  1  0.06120700  0.76277400  0.21721100  1
  O  O6  1  0.05223700  0.58001000  0.44177900  1
  O  O7  1  0.11469800  0.43201100  0.31893700  1
  O  O8  1  0.16930600  0.14405300  0.35845300  1
  O  O9  1  0.19735800  0.35363800  0.14493700  1
  O  O10  1  0.06649400  0.70691200  0.57680700  1
  O  O11  1  0.06505700  0.76638400  0.71744900  1
  O  O12  1  0.28084900  0.69196600  0.82788800  1
  O  O13  1  0.26352400  0.00619100  0.23947600  1
  O  O14  1  0.25678000  0.78598900  0.96458700  1
  O  O15  1  0.31965500  0.12446700  0.99555700  1
  O  O16  1  0.32908100  0.40831000  0.92625800  1
  O  O17  1  0.20002400  0.35362700  0.64746300  1
  O  O18  1  0.33752900  0.56487600  0.05638200  1
  O  O19  1  0.43446900  0.21122400  0.78680800  1
  O  O20  1  0.31064000  0.84644300  0.10024900  1
  O  O21  1  0.28364600  0.69358000  0.32656700  1
  O  O22  1  0.26433500  0.00645200  0.73965500  1
  O  O23  1  0.25763400  0.78837400  0.46536800  1
  O  O24  1  0.31706700  0.12631900  0.49572400  1
  O  O25  1  0.40172400  0.94465600  0.85971200  1
  O  O26  1  0.32716500  0.40824000  0.42595800  1
  O  O27  1  0.39685200  0.53042400  0.19276000  1
  O  O28  1  0.33669900  0.56486700  0.55731700  1
  O  O29  1  0.43381800  0.21010200  0.28710200  1
  O  O30  1  0.47710200  0.31357700  0.09799800  1
  O  O31  1  0.30885700  0.84707700  0.60108400  1
  O  O32  1  0.52289800  0.68642300  0.90200200  1
  O  O33  1  0.40259100  0.94466400  0.36002900  1
  O  O34  1  0.60314800  0.46957600  0.80724000  1
  O  O35  1  0.39849500  0.53155000  0.69337700  1
  O  O36  1  0.59827600  0.05534400  0.14028800  1
  O  O37  1  0.47852400  0.31504600  0.59704900  1
  O  O38  1  0.68936000  0.15355700  0.89975100  1
  O  O39  1  0.52147600  0.68495400  0.40295100  1
  O  O40  1  0.56553100  0.78877600  0.21319200  1
  O  O41  1  0.66247100  0.43512400  0.94361800  1
  O  O42  1  0.60150600  0.46845000  0.30662300  1
  O  O43  1  0.67091900  0.59169000  0.07374200  1
  O  O44  1  0.59740900  0.05533600  0.63997100  1
  O  O45  1  0.68034500  0.87553300  0.00444300  1
  O  O46  1  0.74322000  0.21401100  0.03541300  1
  O  O47  1  0.73647600  0.99380900  0.76052400  1
  O  O48  1  0.71915100  0.30803400  0.17211200  1
  O  O49  1  0.69114300  0.15292300  0.39891600  1
  O  O50  1  0.56618200  0.78989800  0.71289800  1
  O  O51  1  0.66330100  0.43513300  0.44268300  1
  O  O52  1  0.80264200  0.64636200  0.85506300  1
  O  O53  1  0.67283500  0.59176000  0.57404200  1
  O  O54  1  0.68293300  0.87368100  0.50427600  1
  O  O55  1  0.74236600  0.21162600  0.53463200  1
  O  O56  1  0.73566500  0.99354800  0.26034500  1
  O  O57  1  0.71635400  0.30642000  0.67343300  1
  O  O58  1  0.93879300  0.23722600  0.78278900  1
  O  O59  1  0.93293700  0.28786300  0.92392100  1
  O  O60  1  0.79997600  0.64637300  0.35253700  1
  O  O61  1  0.82890100  0.85236200  0.14195900  1
  O  O62  1  0.88651000  0.56151000  0.17371700  1
  O  O63  1  0.93494300  0.23361600  0.28255100  1
  O  O64  1  0.97555000  0.89113300  0.85571900  1
  O  O65  1  0.93350600  0.29308800  0.42319300  1
  O  O66  1  0.83069400  0.85594700  0.64154700  1
  O  O67  1  0.88530200  0.56798900  0.68106300  1
  O  O68  1  0.94776300  0.41999000  0.55822100  1
  O  O69  1  0.97362000  0.89438800  0.35579900  1
loop_
_geom_bond_atom_site_label_1
_geom_bond_atom_site_label_2
_geom_bond_distance
_geom_bond_site_symmetry_2
Ca0 O15 2.312688 1_554
Ca0 O20 2.330048 1_545
Ca0 O0 2.357385 1_555
Ca0 O13 2.359990 1_555
Ca0 O9 2.417628 1_555
Ca0 O30 2.664879 1_555
Ca0 O36 2.841876 1_555
Ca1 O24 2.324963 1_555
Ca1 O31 2.329824 1_545
Ca1 O4 2.343828 1_555
Ca1 O22 2.349708 1_555
Ca1 O17 2.415668 1_555
Ca1 O37 2.679156 1_555
Ca1 O44 2.826471 1_555
Ca2 O45 2.312688 1_556
Ca2 O38 2.330048 1_565
Ca2 O64 2.357385 1_555
Ca2 O47 2.359990 1_555
Ca2 O52 2.417628 1_555
Ca2 O32 2.664879 1_555
Ca2 O25 2.841876 1_555
Ca3 O54 2.324963 1_555
Ca3 O49 2.329824 1_565
Ca3 O69 2.343828 1_555
Ca3 O56 2.349708 1_555
Ca3 O60 2.415668 1_555
Ca3 O39 2.679156 1_555
Ca3 O33 2.826471 1_555
Mn0 O4 2.151254 1_555
Mn0 O64 2.159198 1_445
Mn0 O58 2.253989 1_455
Mn0 O11 2.256928 1_545
Mn0 O22 2.358340 1_555
Mn0 O47 2.362582 1_445
Mn1 O52 2.075758 1_455
Mn1 O1 2.103432 1_555
Mn1 O64 2.161590 1_455
Mn1 O11 2.177727 1_555
Mn1 O12 2.291098 1_555
Mn2 O69 2.151254 1_555
Mn2 O0 2.159198 1_665
Mn2 O5 2.253989 1_655
Mn2 O63 2.256928 1_565
Mn2 O56 2.358340 1_555
Mn2 O13 2.362582 1_665
Mn3 O60 2.109829 1_455
Mn3 O7 2.156395 1_555
Mn3 O5 2.158753 1_555
Mn3 O69 2.203041 1_455
Mn3 O21 2.300883 1_555
Mn3 O6 2.303842 1_555
Mn4 O1 2.140293 1_555
Mn4 O19 2.155304 1_555
Mn4 O35 2.176214 1_555
Mn4 O34 2.304113 1_555
Mn4 O16 2.315628 1_555
Mn4 O12 2.370034 1_555
Mn5 O20 2.149225 1_555
Mn5 O40 2.172216 1_555
Mn5 O13 2.198124 1_565
Mn5 O21 2.262776 1_555
Mn5 O27 2.276406 1_555
Mn5 O5 2.378140 1_555
Mn6 O7 2.123293 1_555
Mn6 O29 2.158639 1_555
Mn6 O27 2.177898 1_555
Mn6 O42 2.291139 1_555
Mn6 O26 2.315697 1_555
Mn6 O21 2.379122 1_555
Mn7 O31 2.157225 1_555
Mn7 O50 2.169039 1_555
Mn7 O22 2.188687 1_565
Mn7 O12 2.275445 1_555
Mn7 O35 2.276572 1_555
Mn7 O11 2.347269 1_555
Mn8 O38 2.149225 1_555
Mn8 O19 2.172216 1_555
Mn8 O47 2.198124 1_545
Mn8 O57 2.262776 1_555
Mn8 O34 2.276406 1_555
Mn8 O58 2.378140 1_555
Mn9 O62 2.140293 1_555
Mn9 O40 2.155304 1_555
Mn9 O42 2.176213 1_555
Mn9 O27 2.304113 1_555
Mn9 O43 2.315628 1_555
Mn9 O48 2.370034 1_555
Mn10 O49 2.157225 1_555
Mn10 O29 2.169039 1_555
Mn10 O56 2.188687 1_545
Mn10 O48 2.275445 1_555
Mn10 O42 2.276570 1_555
Mn10 O63 2.347269 1_555
Mn11 O67 2.123293 1_555
Mn11 O50 2.158639 1_555
Mn11 O34 2.177898 1_555
Mn11 O35 2.291130 1_555
Mn11 O53 2.315697 1_555
Mn11 O57 2.379122 1_555
Mn12 O9 2.075758 1_655
Mn12 O62 2.103432 1_555
Mn12 O0 2.161590 1_655
Mn12 O63 2.177727 1_555
Mn12 O48 2.291098 1_555
Mn13 O17 2.109829 1_655
Mn13 O67 2.156395 1_555
Mn13 O58 2.158753 1_555
Mn13 O4 2.203041 1_655
Mn13 O57 2.300883 1_555
Mn13 O68 2.303842 1_555
H0 O64 0.975423 1_455
H1 O6 0.983305 1_555
H2 O68 0.982978 1_455
H3 O69 0.975327 1_455
H4 O16 0.976657 1_555
H5 O15 0.977777 1_555
H6 O15 0.984223 1_555
H7 O26 0.993221 1_555
H8 O24 0.978533 1_555
H9 O16 0.983972 1_555
H10 O24 0.986673 1_555
H11 O26 0.982941 1_555
H12 O43 0.983972 1_555
H13 O45 0.984223 1_555
H14 O53 0.982941 1_555
H15 O45 0.977777 1_555
H16 O43 0.976657 1_555
H17 O54 0.986673 1_555
H18 O54 0.978533 1_555
H19 O53 0.993221 1_555
H20 O0 0.975423 1_655
H21 O4 0.975327 1_655
H22 O6 0.982978 1_655
H23 O68 0.983305 1_555
O1 Si0 1.628059 1_555
O2 Si2 1.656859 1_555
O2 Si0 1.661744 1_555
O3 Si3 1.646907 1_555
O3 Si18 1.650794 1_455
O5 Si18 1.644124 1_455
O7 Si1 1.617352 1_555
O8 Si1 1.658713 1_555
O8 Si4 1.664777 1_555
O9 Si6 1.602322 1_555
O10 Si7 1.678298 1_555
O10 Si19 1.685965 1_455
O11 Si19 1.637125 1_455
O12 Si5 1.623053 1_555
O13 Si4 1.633018 1_555
O14 Si5 1.647530 1_555
O14 Si3 1.658554 1_556
O17 Si9 1.600479 1_555
O18 Si6 1.667865 1_555
O18 Si3 1.670183 1_555
O19 Si2 1.620297 1_555
O20 Si3 1.607707 1_555
O21 Si8 1.619322 1_555
O22 Si2 1.633753 1_555
O23 Si7 1.658313 1_555
O23 Si8 1.658977 1_555
O25 Si5 1.664234 1_555
O25 Si2 1.685179 1_565
O27 Si6 1.642495 1_555
O28 Si7 1.662106 1_555
O28 Si9 1.671679 1_555
O29 Si4 1.618794 1_555
O30 Si11 1.644473 1_555
O30 Si6 1.673208 1_555
O31 Si7 1.599481 1_555
O32 Si5 1.644473 1_555
O32 Si10 1.673208 1_555
O33 Si8 1.664481 1_555
O33 Si4 1.685856 1_565
O34 Si10 1.642495 1_555
O35 Si9 1.640273 1_555
O36 Si11 1.664234 1_555
O36 Si15 1.685179 1_545
O37 Si14 1.644605 1_555
O37 Si9 1.671287 1_555
O38 Si12 1.607707 1_555
O39 Si8 1.644605 1_555
O39 Si13 1.671287 1_555
O40 Si15 1.620297 1_555
O41 Si10 1.667865 1_555
O41 Si12 1.670183 1_555
O42 Si13 1.640269 1_555
O44 Si14 1.664481 1_555
O44 Si17 1.685856 1_545
O46 Si11 1.647530 1_555
O46 Si12 1.658554 1_554
O47 Si17 1.633018 1_555
O48 Si11 1.623053 1_555
O49 Si16 1.599481 1_555
O50 Si17 1.618794 1_555
O51 Si16 1.662106 1_555
O51 Si13 1.671679 1_555
O52 Si10 1.602322 1_555
O55 Si16 1.658313 1_555
O55 Si14 1.658977 1_555
O56 Si15 1.633753 1_555
O57 Si14 1.619322 1_555
O58 Si0 1.644124 1_655
O59 Si12 1.646907 1_555
O59 Si0 1.650794 1_655
O60 Si13 1.600479 1_555
O61 Si15 1.656859 1_555
O61 Si18 1.661744 1_555
O62 Si18 1.628059 1_555
O63 Si1 1.637125 1_655
O65 Si16 1.678298 1_555
O65 Si1 1.685965 1_655
O66 Si19 1.658713 1_555
O66 Si17 1.664777 1_555
O67 Si19 1.617352 1_555
