# generated using pymatgen
data_NaAlSiO4
_symmetry_space_group_name_H-M   'P 1'
_cell_length_a   9.72580400
_cell_length_b   9.72580457
_cell_length_c   9.68157300
_cell_angle_alpha   90.00000000
_cell_angle_beta   90.00000000
_cell_angle_gamma   119.99999804
_symmetry_Int_Tables_number   1
_chemical_formula_structural   NaAlSiO4
_chemical_formula_sum   'Na8 Al8 Si8 O32'
_cell_volume   793.09939153
_cell_formula_units_Z   8
loop_
 _symmetry_equiv_pos_site_id
 _symmetry_equiv_pos_as_xyz
  1  'x, y, z'
loop_
 _atom_site_type_symbol
 _atom_site_label
 _atom_site_symmetry_multiplicity
 _atom_site_fract_x
 _atom_site_fract_y
 _atom_site_fract_z
 _atom_site_occupancy
  Na  Na0  1  0.43469300  0.58919400  0.51202800  1
  Na  Na1  1  0.56530700  0.41080600  0.01202800  1
  Na  Na2  1  0.41080600  0.02388800  0.01202800  1
  Na  Na3  1  0.58919400  0.97611200  0.51202800  1
  Na  Na4  1  0.97611200  0.43469300  0.51202800  1
  Na  Na5  1  0.00000000  0.00000000  0.98844700  1
  Na  Na6  1  0.02388800  0.56530700  0.01202800  1
  Na  Na7  1  0.00000000  0.00000000  0.48844700  1
  Al  Al0  1  0.24096500  0.08295300  0.31684700  1
  Al  Al1  1  0.91704700  0.32391800  0.81684700  1
  Al  Al2  1  0.75903500  0.91704700  0.81684700  1
  Al  Al3  1  0.08295300  0.67608200  0.31684700  1
  Al  Al4  1  0.67608200  0.24096500  0.31684700  1
  Al  Al5  1  0.33333300  0.33333300  0.82715500  1
  Al  Al6  1  0.66666700  0.66666700  0.32715500  1
  Al  Al7  1  0.32391800  0.75903500  0.81684700  1
  Si  Si0  1  0.66666700  0.66666700  0.67654800  1
  Si  Si1  1  0.33333300  0.33333300  0.17654800  1
  Si  Si2  1  0.69017700  0.19384200  0.74456100  1
  Si  Si3  1  0.88401900  0.30982300  0.24456100  1
  Si  Si4  1  0.30982300  0.80615800  0.24456100  1
  Si  Si5  1  0.11598100  0.69017700  0.74456100  1
  Si  Si6  1  0.19384200  0.11598100  0.74456100  1
  Si  Si7  1  0.80615800  0.88401900  0.24456100  1
  O  O0  1  0.49325200  0.66879400  0.27495600  1
  O  O1  1  0.98689400  0.25158600  0.08785800  1
  O  O2  1  0.19389800  0.77189800  0.34824700  1
  O  O3  1  0.80610200  0.22810200  0.84824700  1
  O  O4  1  0.33120600  0.16204600  0.77495600  1
  O  O5  1  0.83795400  0.49325200  0.27495600  1
  O  O6  1  0.16204600  0.50674800  0.77495600  1
  O  O7  1  0.93228300  0.38811100  0.98941200  1
  O  O8  1  0.01310600  0.74841400  0.58785800  1
  O  O9  1  0.66666700  0.66666700  0.50772800  1
  O  O10  1  0.38811100  0.67960600  0.98941200  1
  O  O11  1  0.49617200  0.32836500  0.22651600  1
  O  O12  1  0.32785700  0.17495300  0.22597000  1
  O  O13  1  0.61188900  0.32039400  0.48941200  1
  O  O14  1  0.96579500  0.80610200  0.84824700  1
  O  O15  1  0.74841400  0.23847900  0.58785800  1
  O  O16  1  0.32039400  0.06771700  0.48941200  1
  O  O17  1  0.03420500  0.19389800  0.34824700  1
  O  O18  1  0.67163500  0.82453700  0.72651600  1
  O  O19  1  0.23847900  0.01310600  0.58785800  1
  O  O20  1  0.82453700  0.50382800  0.72651600  1
  O  O21  1  0.76152100  0.98689400  0.08785800  1
  O  O22  1  0.50674800  0.33120600  0.77495600  1
  O  O23  1  0.50382800  0.67163500  0.72651600  1
  O  O24  1  0.22810200  0.96579500  0.84824700  1
  O  O25  1  0.77189800  0.03420500  0.34824700  1
  O  O26  1  0.67960600  0.93228300  0.98941200  1
  O  O27  1  0.25158600  0.76152100  0.08785800  1
  O  O28  1  0.17546300  0.49617200  0.22651600  1
  O  O29  1  0.66879400  0.83795400  0.27495600  1
  O  O30  1  0.06771700  0.61188900  0.48941200  1
  O  O31  1  0.33333300  0.33333300  0.00772800  1
loop_
_geom_bond_atom_site_label_1
_geom_bond_atom_site_label_2
_geom_bond_distance
_geom_bond_site_symmetry_2
Na0 O9 1.989886 1_555
Na0 O23 2.206369 1_555
Na0 O0 2.398098 1_555
Na1 O31 1.989886 1_555
Na1 O11 2.206369 1_555
Na1 O22 2.398098 1_554
Na2 O24 2.233179 1_544
Na2 O27 2.344532 1_545
Na2 O12 2.878373 1_555
Na3 O25 2.233179 1_565
Na3 O15 2.344532 1_565
Na3 O18 2.882764 1_555
Na4 O30 1.508745 1_655
Na4 O15 2.204280 1_555
Na4 O20 2.815807 1_555
Na5 O14 2.209531 1_445
Na5 O21 2.454901 1_446
Na5 O1 2.691034 1_456
Na5 O24 2.759120 1_545
Na5 Si6 2.876684 1_555
Na5 Si7 2.974625 1_446
Na6 O7 1.508745 1_454
Na6 O27 2.204280 1_555
Na6 O28 2.815807 1_555
Na7 O17 2.209531 1_555
Na7 O19 2.454901 1_555
Na7 O8 2.691034 1_545
Na7 O25 2.759120 1_455
Na7 Si7 2.876684 1_445
Na7 Si6 2.974625 1_555
Al0 O12 1.238039 1_555
Al0 O16 1.877350 1_555
Al0 Na7 2.648133 1_555
Al1 O3 1.058112 1_555
Al1 O7 1.763653 1_555
Al1 O6 2.183374 1_655
Al1 O20 2.492062 1_555
Al2 O18 1.237783 1_555
Al2 O26 1.877350 1_555
Al2 Na5 2.648133 1_665
Al3 O2 1.058112 1_555
Al3 O30 1.763653 1_555
Al3 O5 2.183374 1_455
Al3 O28 2.492062 1_555
Al4 Si3 1.916722 1_555
Al4 O13 2.064001 1_555
Al4 O5 2.191049 1_555
Al4 O11 2.456919 1_555
Al5 O4 1.731069 1_555
Al5 O31 1.748231 1_556
Al5 O22 1.770688 1_555
Al6 O29 1.731069 1_555
Al6 O9 1.748231 1_555
Al6 O0 1.770688 1_555
Al7 Si5 1.916722 1_555
Al7 O10 2.064001 1_555
Al7 O6 2.191049 1_555
Al7 O23 2.456919 1_555
O0 O29 1.677114 1_555
O1 O7 1.912818 1_554
O1 Si3 2.047020 1_555
O2 Si4 1.419234 1_555
O3 Si2 1.419234 1_555
O4 Si6 1.213921 1_555
O5 Si3 2.066208 1_555
O6 Si5 2.066208 1_555
O8 Si5 2.047020 1_555
O9 Si0 1.634443 1_555
O11 O12 1.569563 1_555
O11 Si1 1.679620 1_555
O12 Si1 1.588236 1_555
O15 Si2 1.601585 1_555
O16 O19 1.184099 1_555
O18 O23 1.564621 1_555
O18 Si0 1.587347 1_555
O19 Si6 1.981315 1_555
O20 Si5 2.492500 1_655
O21 O26 1.184099 1_554
O21 Si7 1.981315 1_555
O22 O4 1.677114 1_555
O23 Si0 1.679620 1_555
O24 Si6 1.933655 1_565
O25 Si7 1.933655 1_545
O27 Si4 1.601585 1_555
O28 Si3 2.492500 1_455
O29 Si7 1.213921 1_555
O30 O8 1.912818 1_555
O31 Si1 1.634443 1_555
