# generated using pymatgen
data_Sr5Fe3F19
_symmetry_space_group_name_H-M   'P 1'
_cell_length_a   8.85572300
_cell_length_b   9.81258350
_cell_length_c   10.72573518
_cell_angle_alpha   83.79976390
_cell_angle_beta   112.80442398
_cell_angle_gamma   106.33104360
_symmetry_Int_Tables_number   1
_chemical_formula_structural   Sr5Fe3F19
_chemical_formula_sum   'Sr10 Fe6 F38'
_cell_volume   824.51927514
_cell_formula_units_Z   2
loop_
 _symmetry_equiv_pos_site_id
 _symmetry_equiv_pos_as_xyz
  1  'x, y, z'
loop_
 _atom_site_type_symbol
 _atom_site_label
 _atom_site_symmetry_multiplicity
 _atom_site_fract_x
 _atom_site_fract_y
 _atom_site_fract_z
 _atom_site_occupancy
  Sr  Sr0  1  0.94995300  0.30070300  0.87027500  1
  Sr  Sr1  1  0.39124600  0.72974300  0.92792800  1
  Sr  Sr2  1  0.33049700  0.53660600  0.53029300  1
  Sr  Sr3  1  0.18985200  0.14499100  0.33078700  1
  Sr  Sr4  1  0.36062600  0.13964800  0.72411600  1
  Sr  Sr5  1  0.48017300  0.83165800  0.30538400  1
  Sr  Sr6  1  0.84574800  0.82618500  0.67966800  1
  Sr  Sr7  1  0.68156800  0.43159100  0.46057600  1
  Sr  Sr8  1  0.64022700  0.23473600  0.13491600  1
  Sr  Sr9  1  0.92188100  0.64145300  0.16213200  1
  Fe  Fe0  1  0.22885400  0.97842800  0.01395400  1
  Fe  Fe1  1  0.13477600  0.78288900  0.49671400  1
  Fe  Fe2  1  0.78291900  0.95880000  0.94224100  1
  Fe  Fe3  1  0.29987600  0.46788200  0.16723400  1
  Fe  Fe4  1  0.65903100  0.48830500  0.83997700  1
  Fe  Fe5  1  0.90137800  0.16468700  0.49552100  1
  F  F0  1  0.93199400  0.72072800  0.53655500  1
  F  F1  1  0.18646000  0.90117500  0.83515800  1
  F  F2  1  0.06707100  0.59534700  0.41905800  1
  F  F3  1  0.25616700  0.69965400  0.67373100  1
  F  F4  1  0.21988300  0.49198700  0.96723800  1
  F  F5  1  0.03328200  0.08672300  0.66322800  1
  F  F6  1  0.29399800  0.00938300  0.21108200  1
  F  F7  1  0.21680100  0.78113900  0.06359500  1
  F  F8  1  0.08955000  0.32442900  0.13553500  1
  F  F9  1  0.34912200  0.80874200  0.46974300  1
  F  F10  1  0.34597200  0.15591100  0.94972400  1
  F  F11  1  0.21807400  0.59508500  0.24407300  1
  F  F12  1  0.41539200  0.40784500  0.74025100  1
  F  F13  1  0.53936300  0.94397100  0.84407200  1
  F  F14  1  0.61926300  0.67162600  0.77052300  1
  F  F15  1  0.18984400  0.98093200  0.53672700  1
  F  F16  1  0.75324300  0.48664200  0.70176200  1
  F  F17  1  0.45972200  0.22877700  0.54193900  1
  F  F18  1  0.58933800  0.65980100  0.48740700  1
  F  F19  1  0.36756100  0.40927700  0.36116100  1
  F  F20  1  0.75315400  0.96429400  0.47651000  1
  F  F21  1  0.41965700  0.33046800  0.17186400  1
  F  F22  1  0.48842200  0.63457900  0.17900200  1
  F  F23  1  0.65711900  0.28428700  0.87110600  1
  F  F24  1  0.48573300  0.96886800  0.09466200  1
  F  F25  1  0.71542200  0.80505800  0.05407900  1
  F  F26  1  0.67682900  0.19882900  0.38585600  1
  F  F27  1  0.92184200  0.83777400  0.93211100  1
  F  F28  1  0.89856900  0.52285300  0.95991200  1
  F  F29  1  0.79309600  0.04674700  0.77502300  1
  F  F30  1  0.03151800  0.84965400  0.30920900  1
  F  F31  1  0.61977800  0.49911400  0.00120900  1
  F  F32  1  0.77671100  0.44853700  0.26807900  1
  F  F33  1  0.90677900  0.31136600  0.61406100  1
  F  F34  1  0.06361300  0.08610700  0.99844300  1
  F  F35  1  0.80695300  0.11263600  0.04407500  1
  F  F36  1  0.89417600  0.13294800  0.31513300  1
  F  F37  1  0.13242600  0.28030200  0.50368800  1
loop_
_geom_bond_atom_site_label_1
_geom_bond_atom_site_label_2
_geom_bond_distance
_geom_bond_site_symmetry_2
F0 Fe1 1.924068 1_655
F0 Sr6 2.388881 1_555
F0 Sr7 3.031819 1_555
F1 Fe0 1.997273 1_556
F1 Sr1 2.657818 1_555
F1 Sr6 2.746353 1_455
F1 Sr4 2.839966 1_565
F2 Fe1 1.939924 1_555
F2 Sr2 2.376532 1_555
F2 Sr9 2.600595 1_455
F3 Fe1 2.001045 1_555
F3 Sr1 2.529571 1_555
F3 Sr2 2.696093 1_555
F4 Fe3 1.991466 1_556
F4 Sr1 2.493204 1_555
F4 Sr0 2.508010 1_455
F5 Fe5 1.939559 1_455
F5 Sr4 2.618918 1_555
F5 Sr6 2.658391 1_445
F6 Fe0 1.997542 1_545
F6 Sr3 2.499377 1_555
F6 Sr5 2.593435 1_545
F7 Fe0 1.935935 1_555
F7 Sr1 2.664108 1_554
F7 Sr5 2.711066 1_555
F7 Sr9 3.103300 1_455
F8 Fe3 1.924660 1_555
F8 Sr3 2.629840 1_555
F8 Sr0 2.632847 1_454
F9 Fe1 1.972350 1_555
F9 Sr5 2.420475 1_555
F9 Sr2 2.653398 1_555
F10 Fe0 1.965266 1_546
F10 Sr4 2.497254 1_555
F10 Sr8 2.553466 1_556
F11 Fe3 1.988844 1_555
F11 Sr9 2.580187 1_455
F11 Sr5 2.706496 1_555
F11 Sr2 2.883821 1_555
F12 Fe4 1.964217 1_555
F12 Sr2 2.416626 1_555
F12 Sr4 2.550797 1_555
F13 Fe2 1.969278 1_555
F13 Sr1 2.429789 1_555
F13 Sr4 2.728451 1_565
F14 Fe4 1.943781 1_555
F14 Sr6 2.599564 1_555
F14 Sr2 2.942489 1_555
F15 Fe1 1.919227 1_555
F15 Sr4 2.397438 1_565
F15 Sr3 2.588938 1_565
F16 Fe4 1.966132 1_555
F16 Sr7 2.494580 1_555
F16 Sr0 2.874850 1_555
F17 Sr4 2.425187 1_555
F17 Sr3 2.572593 1_555
F17 Sr7 2.708679 1_555
F18 Sr2 2.462949 1_555
F18 Sr5 2.516462 1_555
F18 Sr6 2.662083 1_555
F18 Sr7 2.667304 1_555
F19 Fe3 1.996357 1_555
F19 Sr2 2.478187 1_555
F19 Sr7 2.515372 1_555
F19 Sr3 2.607305 1_555
F20 Fe5 2.014641 1_565
F20 Sr6 2.420557 1_555
F20 Sr5 2.492772 1_555
F21 Fe3 1.922202 1_555
F21 Sr8 2.562664 1_555
F22 Fe3 1.955697 1_555
F22 Sr5 2.510989 1_555
F22 Sr1 2.641374 1_554
F23 Fe4 1.990095 1_555
F23 Sr0 2.556109 1_555
F23 Sr4 2.563747 1_555
F23 Sr8 2.873187 1_556
F24 Fe0 2.123457 1_555
F24 Sr5 2.512989 1_555
F24 Sr8 2.577303 1_565
F24 Sr1 2.836613 1_554
F25 Fe2 1.931290 1_554
F25 Sr1 2.574935 1_554
F25 Sr9 2.620973 1_555
F26 Fe5 1.981536 1_555
F26 Sr7 2.485176 1_555
F26 Sr8 2.580033 1_555
F27 Fe2 1.972012 1_555
F27 Fe0 2.523644 1_656
F27 Sr6 2.531278 1_555
F27 Sr9 2.961582 1_556
F28 Fe4 1.960626 1_555
F28 Sr9 2.482819 1_556
F28 Sr0 2.689401 1_555
F29 Fe2 1.927918 1_545
F29 Sr0 2.585801 1_555
F29 Sr6 2.713461 1_545
F30 Fe1 1.984125 1_555
F30 Sr9 2.449161 1_455
F30 Sr3 2.833065 1_565
F31 Fe4 1.910239 1_554
F31 Sr9 2.631960 1_555
F31 Sr8 2.842312 1_555
F32 Sr8 2.405251 1_555
F32 Sr9 2.413853 1_555
F32 Sr7 2.489172 1_555
F33 Fe5 1.999958 1_555
F33 Sr7 2.537333 1_555
F33 Sr0 2.618207 1_555
F34 Fe0 1.981986 1_546
F34 Fe2 2.314665 1_445
F34 Sr0 2.613644 1_455
F35 Fe2 1.874095 1_544
F35 Sr8 2.631911 1_555
F35 Sr0 2.873474 1_554
F36 Fe5 1.966679 1_555
F36 Sr3 2.527406 1_655
F36 Sr8 2.695917 1_555
F37 Fe5 2.014535 1_455
F37 Sr2 2.601833 1_555
F37 Sr3 2.665210 1_555
F37 Sr4 2.956105 1_555
