# generated using pymatgen
data_Ca3Fe2(SiO4)3
_symmetry_space_group_name_H-M   'P 1'
_cell_length_a   10.55951876
_cell_length_b   10.55951876
_cell_length_c   10.55951876
_cell_angle_alpha   109.47122063
_cell_angle_beta   109.47122063
_cell_angle_gamma   109.47122063
_symmetry_Int_Tables_number   1
_chemical_formula_structural   Ca3Fe2(SiO4)3
_chemical_formula_sum   'Ca12 Fe8 Si12 O48'
_cell_volume   906.38036297
_cell_formula_units_Z   4
loop_
 _symmetry_equiv_pos_site_id
 _symmetry_equiv_pos_as_xyz
  1  'x, y, z'
loop_
 _atom_site_type_symbol
 _atom_site_label
 _atom_site_symmetry_multiplicity
 _atom_site_fract_x
 _atom_site_fract_y
 _atom_site_fract_z
 _atom_site_occupancy
  Ca  Ca0  1  0.25000000  0.37500000  0.12500000  1
  Ca  Ca1  1  0.75000000  0.12500000  0.37500000  1
  Ca  Ca2  1  0.37500000  0.12500000  0.25000000  1
  Ca  Ca3  1  0.12500000  0.37500000  0.75000000  1
  Ca  Ca4  1  0.25000000  0.87500000  0.62500000  1
  Ca  Ca5  1  0.12500000  0.25000000  0.37500000  1
  Ca  Ca6  1  0.62500000  0.25000000  0.87500000  1
  Ca  Ca7  1  0.75000000  0.62500000  0.87500000  1
  Ca  Ca8  1  0.87500000  0.75000000  0.62500000  1
  Ca  Ca9  1  0.87500000  0.62500000  0.25000000  1
  Ca  Ca10  1  0.62500000  0.87500000  0.75000000  1
  Ca  Ca11  1  0.37500000  0.75000000  0.12500000  1
  Fe  Fe0  1  0.50000000  0.00000000  0.00000000  1
  Fe  Fe1  1  0.50000000  0.50000000  0.00000000  1
  Fe  Fe2  1  0.00000000  0.50000000  0.50000000  1
  Fe  Fe3  1  0.00000000  0.00000000  0.50000000  1
  Fe  Fe4  1  0.50000000  0.50000000  0.50000000  1
  Fe  Fe5  1  0.00000000  0.50000000  0.00000000  1
  Fe  Fe6  1  0.50000000  0.00000000  0.50000000  1
  Fe  Fe7  1  0.00000000  0.00000000  0.00000000  1
  Si  Si0  1  0.12500000  0.75000000  0.87500000  1
  Si  Si1  1  0.87500000  0.25000000  0.12500000  1
  Si  Si2  1  0.75000000  0.37500000  0.62500000  1
  Si  Si3  1  0.12500000  0.87500000  0.25000000  1
  Si  Si4  1  0.25000000  0.12500000  0.87500000  1
  Si  Si5  1  0.37500000  0.62500000  0.75000000  1
  Si  Si6  1  0.37500000  0.25000000  0.62500000  1
  Si  Si7  1  0.87500000  0.12500000  0.75000000  1
  Si  Si8  1  0.62500000  0.37500000  0.25000000  1
  Si  Si9  1  0.75000000  0.87500000  0.12500000  1
  Si  Si10  1  0.25000000  0.62500000  0.37500000  1
  Si  Si11  1  0.62500000  0.75000000  0.37500000  1
  O  O0  1  0.58782200  0.89282100  0.38344700  1
  O  O1  1  0.38344700  0.58782200  0.89282100  1
  O  O2  1  0.29562500  0.30499900  0.91217800  1
  O  O3  1  0.49062600  0.60717900  0.19500100  1
  O  O4  1  0.30499900  0.89282100  0.00937400  1
  O  O5  1  0.11655300  0.00937400  0.20437500  1
  O  O6  1  0.38344700  0.29562500  0.49062600  1
  O  O7  1  0.89282100  0.38344700  0.58782200  1
  O  O8  1  0.19500100  0.20437500  0.58782200  1
  O  O9  1  0.49062600  0.38344700  0.29562500  1
  O  O10  1  0.89282100  0.00937400  0.30499900  1
  O  O11  1  0.60717900  0.91217800  0.11655300  1
  O  O12  1  0.91217800  0.11655300  0.60717900  1
  O  O13  1  0.29562500  0.49062600  0.38344700  1
  O  O14  1  0.58782200  0.19500100  0.20437500  1
  O  O15  1  0.20437500  0.58782200  0.19500100  1
  O  O16  1  0.00937400  0.30499900  0.89282100  1
  O  O17  1  0.91217800  0.29562500  0.30499900  1
  O  O18  1  0.00937400  0.20437500  0.11655300  1
  O  O19  1  0.80499900  0.79562500  0.41217800  1
  O  O20  1  0.19500100  0.49062600  0.60717900  1
  O  O21  1  0.60717900  0.19500100  0.49062600  1
  O  O22  1  0.20437500  0.11655300  0.00937400  1
  O  O23  1  0.11655300  0.60717900  0.91217800  1
  O  O24  1  0.41217800  0.10717900  0.61655300  1
  O  O25  1  0.61655300  0.41217800  0.10717900  1
  O  O26  1  0.70437500  0.69500100  0.08782200  1
  O  O27  1  0.50937400  0.39282100  0.80499900  1
  O  O28  1  0.69500100  0.10717900  0.99062600  1
  O  O29  1  0.88344700  0.99062600  0.79562500  1
  O  O30  1  0.61655300  0.70437500  0.50937400  1
  O  O31  1  0.10717900  0.61655300  0.41217800  1
  O  O32  1  0.88344700  0.39282100  0.08782200  1
  O  O33  1  0.79562500  0.88344700  0.99062600  1
  O  O34  1  0.39282100  0.80499900  0.50937400  1
  O  O35  1  0.69500100  0.08782200  0.70437500  1
  O  O36  1  0.80499900  0.50937400  0.39282100  1
  O  O37  1  0.99062600  0.79562500  0.88344700  1
  O  O38  1  0.08782200  0.70437500  0.69500100  1
  O  O39  1  0.99062600  0.69500100  0.10717900  1
  O  O40  1  0.79562500  0.41217800  0.80499900  1
  O  O41  1  0.41217800  0.80499900  0.79562500  1
  O  O42  1  0.70437500  0.50937400  0.61655300  1
  O  O43  1  0.08782200  0.88344700  0.39282100  1
  O  O44  1  0.39282100  0.08782200  0.88344700  1
  O  O45  1  0.10717900  0.99062600  0.69500100  1
  O  O46  1  0.50937400  0.61655300  0.70437500  1
  O  O47  1  0.30499900  0.91217800  0.29562500  1
loop_
_geom_bond_atom_site_label_1
_geom_bond_atom_site_label_2
_geom_bond_distance
_geom_bond_site_symmetry_2
Ca0 O2 2.383405 1_554
Ca0 O15 2.383405 1_555
Ca0 O13 2.383405 1_555
Ca0 O22 2.383405 1_555
Ca0 O9 2.529837 1_555
Ca0 O16 2.529837 1_554
Ca0 O18 2.529837 1_555
Ca0 O3 2.529837 1_555
Ca1 O7 2.383405 1_555
Ca1 O21 2.383405 1_555
Ca1 O10 2.383405 1_555
Ca1 O11 2.383405 1_545
Ca1 O12 2.529837 1_555
Ca1 O17 2.529837 1_555
Ca1 O0 2.529837 1_545
Ca1 O14 2.529837 1_555
Ca2 O9 2.383405 1_555
Ca2 O47 2.383405 1_545
Ca2 O14 2.383405 1_555
Ca2 O5 2.383405 1_555
Ca2 O4 2.529837 1_545
Ca2 O6 2.529837 1_555
Ca2 O22 2.529837 1_555
Ca2 O21 2.529837 1_555
Ca3 O1 2.383405 1_555
Ca3 O12 2.383405 1_455
Ca3 O20 2.383405 1_555
Ca3 O16 2.383405 1_555
Ca3 O7 2.529837 1_455
Ca3 O23 2.529837 1_555
Ca3 O2 2.529837 1_555
Ca3 O8 2.529837 1_555
Ca4 O34 2.383405 1_555
Ca4 O45 2.383405 1_555
Ca4 O31 2.383405 1_555
Ca4 O44 2.383405 1_565
Ca4 O24 2.529837 1_565
Ca4 O43 2.529837 1_555
Ca4 O38 2.529837 1_555
Ca4 O41 2.529837 1_555
Ca5 O17 2.383405 1_455
Ca5 O8 2.383405 1_555
Ca5 O18 2.383405 1_555
Ca5 O6 2.383405 1_555
Ca5 O5 2.529837 1_555
Ca5 O20 2.529837 1_555
Ca5 O10 2.529837 1_455
Ca5 O13 2.529837 1_555
Ca6 O27 2.383405 1_555
Ca6 O24 2.383405 1_555
Ca6 O28 2.383405 1_555
Ca6 O32 2.383405 1_556
Ca6 O25 2.529837 1_556
Ca6 O40 2.529837 1_555
Ca6 O44 2.529837 1_555
Ca6 O35 2.529837 1_555
Ca7 O42 2.383405 1_555
Ca7 O33 2.383405 1_555
Ca7 O40 2.383405 1_555
Ca7 O26 2.383405 1_556
Ca7 O39 2.529837 1_556
Ca7 O46 2.529837 1_555
Ca7 O37 2.529837 1_555
Ca7 O27 2.529837 1_555
Ca8 O30 2.383405 1_555
Ca8 O37 2.383405 1_555
Ca8 O19 2.383405 1_555
Ca8 O38 2.383405 1_655
Ca8 O36 2.529837 1_555
Ca8 O29 2.529837 1_555
Ca8 O45 2.529837 1_655
Ca8 O42 2.529837 1_555
Ca9 O39 2.383405 1_555
Ca9 O36 2.383405 1_555
Ca9 O25 2.383405 1_555
Ca9 O43 2.383405 1_655
Ca9 O31 2.529837 1_655
Ca9 O19 2.529837 1_555
Ca9 O26 2.529837 1_555
Ca9 O32 2.529837 1_555
Ca10 O46 2.383405 1_555
Ca10 O29 2.383405 1_555
Ca10 O41 2.383405 1_555
Ca10 O35 2.383405 1_565
Ca10 O28 2.529837 1_565
Ca10 O30 2.529837 1_555
Ca10 O33 2.529837 1_555
Ca10 O34 2.529837 1_555
Ca11 O4 2.383405 1_555
Ca11 O23 2.383405 1_554
Ca11 O3 2.383405 1_555
Ca11 O0 2.383405 1_555
Ca11 O1 2.529837 1_554
Ca11 O11 2.529837 1_555
Ca11 O47 2.529837 1_555
Ca11 O15 2.529837 1_555
Fe0 O28 2.046360 1_554
Fe0 O4 2.046360 1_545
Fe0 O11 2.046360 1_545
Fe0 O41 2.046360 1_544
Fe0 O14 2.046360 1_555
Fe0 O44 2.046360 1_554
Fe1 O1 2.046360 1_554
Fe1 O26 2.046360 1_555
Fe1 O27 2.046360 1_554
Fe1 O2 2.046360 1_554
Fe1 O25 2.046360 1_555
Fe1 O3 2.046360 1_555
Fe2 O38 2.046360 1_555
Fe2 O7 2.046360 1_455
Fe2 O36 2.046360 1_455
Fe2 O17 2.046360 1_455
Fe2 O20 2.046360 1_555
Fe2 O31 2.046360 1_555
Fe3 O45 2.046360 1_545
Fe3 O10 2.046360 1_455
Fe3 O12 2.046360 1_455
Fe3 O19 2.046360 1_445
Fe3 O43 2.046360 1_545
Fe3 O8 2.046360 1_555
Fe4 O46 2.046360 1_555
Fe4 O9 2.046360 1_555
Fe4 O6 2.046360 1_555
Fe4 O13 2.046360 1_555
Fe4 O42 2.046360 1_555
Fe4 O30 2.046360 1_555
Fe5 O16 2.046360 1_554
Fe5 O23 2.046360 1_554
Fe5 O39 2.046360 1_455
Fe5 O40 2.046360 1_454
Fe5 O32 2.046360 1_455
Fe5 O15 2.046360 1_555
Fe6 O34 2.046360 1_545
Fe6 O35 2.046360 1_555
Fe6 O0 2.046360 1_545
Fe6 O47 2.046360 1_545
Fe6 O21 2.046360 1_555
Fe6 O24 2.046360 1_555
Fe7 O33 2.046360 1_444
Fe7 O37 2.046360 1_444
Fe7 O29 2.046360 1_444
Fe7 O22 2.046360 1_555
Fe7 O5 2.046360 1_555
Fe7 O18 2.046360 1_555
O0 Si11 1.662792 1_555
O1 Si5 1.662792 1_555
O2 Si4 1.662792 1_555
O3 Si11 1.662792 1_555
O4 Si0 1.662792 1_554
O5 Si3 1.662792 1_545
O6 Si6 1.662792 1_555
O7 Si2 1.662792 1_555
O8 Si6 1.662792 1_555
O9 Si8 1.662792 1_555
O10 Si9 1.662792 1_545
O11 Si9 1.662792 1_555
O12 Si7 1.662792 1_555
O13 Si10 1.662792 1_555
O14 Si8 1.662792 1_555
O15 Si10 1.662792 1_555
O16 Si7 1.662792 1_455
O17 Si1 1.662792 1_555
O18 Si1 1.662792 1_455
O19 Si11 1.662792 1_555
O20 Si5 1.662792 1_555
O21 Si2 1.662792 1_555
O22 Si4 1.662792 1_554
O23 Si0 1.662792 1_555
O24 Si6 1.662792 1_555
O25 Si8 1.662792 1_555
O26 Si9 1.662792 1_555
O27 Si6 1.662792 1_555
O28 Si1 1.662792 1_556
O29 Si7 1.662792 1_565
O30 Si11 1.662792 1_555
O31 Si10 1.662792 1_555
O32 Si1 1.662792 1_555
O33 Si9 1.662792 1_556
O34 Si10 1.662792 1_555
O35 Si7 1.662792 1_555
O36 Si8 1.662792 1_555
O37 Si0 1.662792 1_655
O38 Si0 1.662792 1_555
O39 Si3 1.662792 1_655
O40 Si2 1.662792 1_555
O41 Si5 1.662792 1_555
O42 Si2 1.662792 1_555
O43 Si3 1.662792 1_555
O44 Si4 1.662792 1_555
O45 Si4 1.662792 1_565
O46 Si5 1.662792 1_555
O47 Si3 1.662792 1_555
