# generated using pymatgen
data_MnSb6(Pb2S7)2
_symmetry_space_group_name_H-M   'P 1'
_cell_length_a   19.37850300
_cell_length_b   4.03600400
_cell_length_c   15.97886365
_cell_angle_alpha   87.97886816
_cell_angle_beta   90.00000000
_cell_angle_gamma   90.00000000
_symmetry_Int_Tables_number   1
_chemical_formula_structural   MnSb6(Pb2S7)2
_chemical_formula_sum   'Mn2 Sb12 Pb8 S28'
_cell_volume   1248.95686447
_cell_formula_units_Z   2
loop_
 _symmetry_equiv_pos_site_id
 _symmetry_equiv_pos_as_xyz
  1  'x, y, z'
loop_
 _atom_site_type_symbol
 _atom_site_label
 _atom_site_symmetry_multiplicity
 _atom_site_fract_x
 _atom_site_fract_y
 _atom_site_fract_z
 _atom_site_occupancy
  Mn  Mn0  1  0.00000000  0.50000000  0.00000000  1
  Mn  Mn1  1  0.50000000  0.50000000  0.50000000  1
  Sb  Sb0  1  0.43764800  0.90935400  0.68217000  1
  Sb  Sb1  1  0.34013900  0.12309900  0.87052600  1
  Sb  Sb2  1  0.54936000  0.87696200  0.89680600  1
  Sb  Sb3  1  0.45064000  0.12303800  0.10319400  1
  Sb  Sb4  1  0.56235200  0.09064600  0.31783000  1
  Sb  Sb5  1  0.93764800  0.09064600  0.81783000  1
  Sb  Sb6  1  0.15986100  0.12309900  0.37052600  1
  Sb  Sb7  1  0.06235200  0.90935400  0.18217000  1
  Sb  Sb8  1  0.95064000  0.87696200  0.39680600  1
  Sb  Sb9  1  0.84013900  0.87690100  0.62947400  1
  Sb  Sb10  1  0.65986100  0.87690100  0.12947400  1
  Sb  Sb11  1  0.04936000  0.12303800  0.60319400  1
  Pb  Pb0  1  0.36006800  0.53944100  0.31458900  1
  Pb  Pb1  1  0.86006800  0.46055900  0.18541100  1
  Pb  Pb2  1  0.26046200  0.56437300  0.07287200  1
  Pb  Pb3  1  0.13993200  0.53944100  0.81458900  1
  Pb  Pb4  1  0.23953800  0.56437300  0.57287200  1
  Pb  Pb5  1  0.76046200  0.43562700  0.42712800  1
  Pb  Pb6  1  0.73953800  0.43562700  0.92712800  1
  Pb  Pb7  1  0.63993200  0.46055900  0.68541100  1
  S  S0  1  0.95603900  0.97397100  0.09657000  1
  S  S1  1  0.60091600  0.44779300  0.00324500  1
  S  S2  1  0.84075000  0.94215000  0.31815400  1
  S  S3  1  0.50377000  0.47015600  0.78664000  1
  S  S4  1  0.29768000  0.59479300  0.77725300  1
  S  S5  1  0.39908400  0.55220700  0.99675500  1
  S  S6  1  0.89908400  0.44779300  0.50324500  1
  S  S7  1  0.73066400  0.91884700  0.55168700  1
  S  S8  1  0.20232000  0.59479300  0.27725300  1
  S  S9  1  0.79768000  0.40520700  0.72274700  1
  S  S10  1  0.39508400  0.48410000  0.58300200  1
  S  S11  1  0.70232000  0.40520700  0.22274700  1
  S  S12  1  0.99623000  0.47015600  0.28664000  1
  S  S13  1  0.49623000  0.52984400  0.21336000  1
  S  S14  1  0.10091600  0.55220700  0.49675500  1
  S  S15  1  0.10491600  0.48410000  0.08300200  1
  S  S16  1  0.76933600  0.91884700  0.05168700  1
  S  S17  1  0.34075000  0.05785000  0.18184600  1
  S  S18  1  0.26933600  0.08115300  0.44831300  1
  S  S19  1  0.15925000  0.05785000  0.68184600  1
  S  S20  1  0.60491600  0.51590000  0.41699800  1
  S  S21  1  0.45603900  0.02602900  0.40343000  1
  S  S22  1  0.89508400  0.51590000  0.91699800  1
  S  S23  1  0.23066400  0.08115300  0.94831300  1
  S  S24  1  0.00377000  0.52984400  0.71336000  1
  S  S25  1  0.04396100  0.02602900  0.90343000  1
  S  S26  1  0.65925000  0.94215000  0.81815400  1
  S  S27  1  0.54396100  0.97397100  0.59657000  1
loop_
_geom_bond_atom_site_label_1
_geom_bond_atom_site_label_2
_geom_bond_distance
_geom_bond_site_symmetry_2
Mn0 S15 2.427073 1_555
Mn0 S22 2.427073 1_454
Mn0 S0 2.640910 1_455
Mn0 S25 2.640910 1_554
Mn0 S25 2.717187 1_564
Mn0 S0 2.717187 1_445
Mn1 S10 2.427073 1_555
Mn1 S20 2.427073 1_555
Mn1 S27 2.640910 1_555
Mn1 S21 2.640910 1_555
Mn1 S27 2.717187 1_545
Mn1 S21 2.717187 1_565
Pb0 S17 2.950223 1_565
Pb0 S17 2.950918 1_555
Pb0 S21 3.086648 1_565
Pb0 S21 3.091959 1_555
Pb0 S13 3.095900 1_555
Pb0 S8 3.121087 1_555
Pb1 S2 2.950223 1_545
Pb1 S2 2.950918 1_555
Pb1 S0 3.086648 1_545
Pb1 S0 3.091959 1_555
Pb1 S12 3.095900 1_555
Pb1 S11 3.121087 1_555
Pb2 S23 2.890020 1_564
Pb2 S23 2.893468 1_554
Pb2 S5 2.949925 1_554
Pb2 S15 3.035319 1_555
Pb2 S17 3.062834 1_555
Pb2 S17 3.108723 1_565
Pb3 S19 2.950223 1_565
Pb3 S19 2.950918 1_555
Pb3 S25 3.086648 1_565
Pb3 S25 3.091959 1_555
Pb3 S24 3.095900 1_555
Pb3 S4 3.121087 1_555
Pb4 S18 2.890020 1_565
Pb4 S18 2.893468 1_555
Pb4 S14 2.949925 1_555
Pb4 S10 3.035319 1_555
Pb4 S19 3.062834 1_555
Pb4 S19 3.108723 1_565
Pb5 S7 2.890020 1_545
Pb5 S7 2.893468 1_555
Pb5 S6 2.949925 1_555
Pb5 S20 3.035319 1_555
Pb5 S2 3.062834 1_555
Pb5 S2 3.108723 1_545
Pb6 S16 2.890020 1_546
Pb6 S16 2.893468 1_556
Pb6 S1 2.949925 1_556
Pb6 S22 3.035319 1_555
Pb6 S26 3.062834 1_555
Pb6 S26 3.108723 1_545
Pb7 S26 2.950223 1_545
Pb7 S26 2.950918 1_555
Pb7 S27 3.086648 1_545
Pb7 S27 3.091959 1_555
Pb7 S3 3.095900 1_555
Pb7 S9 3.121087 1_555
S0 Sb7 2.481547 1_655
S1 Sb2 2.585200 1_554
S1 Sb10 2.935789 1_555
S1 Sb2 3.078152 1_544
S2 Sb8 2.481966 1_555
S3 Sb2 2.603626 1_555
S3 Sb0 2.713274 1_555
S3 Sb2 3.051863 1_545
S3 Sb0 3.133358 1_545
S4 Sb1 2.514444 1_555
S4 Sb1 2.769277 1_565
S5 Sb3 2.585200 1_556
S5 Sb1 2.935789 1_555
S5 Sb3 3.078152 1_566
S6 Sb8 2.585200 1_555
S6 Sb9 2.935789 1_555
S6 Sb8 3.078152 1_545
S7 Sb9 2.461572 1_555
S8 Sb6 2.514444 1_555
S8 Sb6 2.769277 1_565
S9 Sb9 2.514444 1_555
S9 Sb9 2.769277 1_545
S10 Sb0 2.515727 1_555
S10 Sb0 2.883210 1_545
S11 Sb10 2.514444 1_555
S11 Sb10 2.769277 1_545
S12 Sb8 2.603626 1_555
S12 Sb7 2.713274 1_655
S12 Sb8 3.051863 1_545
S12 Sb7 3.133358 1_645
S13 Sb3 2.603626 1_555
S13 Sb4 2.713274 1_555
S13 Sb3 3.051863 1_565
S13 Sb4 3.133358 1_565
S14 Sb11 2.585200 1_555
S14 Sb6 2.935789 1_555
S14 Sb11 3.078152 1_565
S15 Sb7 2.515727 1_555
S15 Sb7 2.883210 1_545
S16 Sb10 2.461572 1_555
S17 Sb3 2.481966 1_555
S18 Sb6 2.461572 1_555
S19 Sb11 2.481966 1_555
S20 Sb4 2.515727 1_555
S20 Sb4 2.883210 1_565
S21 Sb4 2.481547 1_555
S22 Sb5 2.515727 1_555
S22 Sb5 2.883210 1_565
S23 Sb1 2.461572 1_555
S24 Sb11 2.603626 1_555
S24 Sb5 2.713274 1_455
S24 Sb11 3.051863 1_565
S24 Sb5 3.133358 1_465
S25 Sb5 2.481547 1_455
S26 Sb2 2.481966 1_555
S27 Sb0 2.481547 1_555
