# generated using pymatgen
data_TbGa2Co3
_symmetry_space_group_name_H-M   'P 1'
_cell_length_a   8.98726989
_cell_length_b   8.98726989
_cell_length_c   3.82799500
_cell_angle_alpha   90.00000000
_cell_angle_beta   90.00000000
_cell_angle_gamma   119.99999917
_symmetry_Int_Tables_number   1
_chemical_formula_structural   TbGa2Co3
_chemical_formula_sum   'Tb3 Ga6 Co9'
_cell_volume   267.76731550
_cell_formula_units_Z   3
loop_
 _symmetry_equiv_pos_site_id
 _symmetry_equiv_pos_as_xyz
  1  'x, y, z'
loop_
 _atom_site_type_symbol
 _atom_site_label
 _atom_site_symmetry_multiplicity
 _atom_site_fract_x
 _atom_site_fract_y
 _atom_site_fract_z
 _atom_site_occupancy
  Tb  Tb0  1  0.66666700  0.33333300  0.50000000  1
  Tb  Tb1  1  0.33333300  0.66666700  0.50000000  1
  Tb  Tb2  1  0.00000000  0.00000000  0.00000000  1
  Ga  Ga0  1  0.68411500  0.68411500  0.50000000  1
  Ga  Ga1  1  0.31588500  0.00000000  0.50000000  1
  Ga  Ga2  1  0.00000000  0.31588500  0.50000000  1
  Ga  Ga3  1  0.31588500  0.31588500  0.50000000  1
  Ga  Ga4  1  0.68411500  0.00000000  0.50000000  1
  Ga  Ga5  1  0.00000000  0.68411500  0.50000000  1
  Co  Co0  1  0.81674600  0.18325400  0.00000000  1
  Co  Co1  1  0.81674600  0.63349200  0.00000000  1
  Co  Co2  1  0.36650800  0.18325400  0.00000000  1
  Co  Co3  1  0.18325400  0.81674600  0.00000000  1
  Co  Co4  1  0.63349200  0.81674600  0.00000000  1
  Co  Co5  1  0.18325400  0.36650800  0.00000000  1
  Co  Co6  1  0.50000000  0.50000000  0.00000000  1
  Co  Co7  1  0.50000000  0.00000000  0.00000000  1
  Co  Co8  1  0.00000000  0.50000000  0.00000000  1
loop_
_geom_bond_atom_site_label_1
_geom_bond_atom_site_label_2
_geom_bond_distance
_geom_bond_site_symmetry_2
Ga0 Tb1 3.077166 1_555
Ga0 Tb0 3.077166 1_555
Ga1 Tb1 3.077157 1_545
Ga1 Tb0 3.077162 1_555
Ga2 Tb0 3.077157 1_455
Ga2 Tb1 3.077162 1_555
Ga3 Tb0 3.077166 1_555
Ga3 Tb1 3.077166 1_555
Ga4 Tb0 3.077157 1_555
Ga4 Tb1 3.077162 1_545
Ga5 Tb1 3.077157 1_555
Ga5 Tb0 3.077162 1_455
Co0 Ga2 2.415270 1_655
Co0 Ga2 2.415270 1_654
Co0 Ga4 2.415270 1_555
Co0 Ga4 2.415270 1_554
Co0 Co8 2.475419 1_655
Co0 Co7 2.475419 1_555
Co0 Tb2 2.852607 1_655
Co0 Co4 2.852607 1_545
Co0 Co5 2.852607 1_655
Co0 Tb0 3.020128 1_555
Co0 Tb0 3.020128 1_554
Co1 Ga0 2.415270 1_555
Co1 Ga0 2.415270 1_554
Co1 Ga5 2.415270 1_655
Co1 Ga5 2.415270 1_654
Co1 Co8 2.475419 1_655
Co1 Co6 2.475419 1_555
Co1 Co4 2.852607 1_555
Co1 Co3 2.852607 1_655
Co1 Tb2 2.852607 1_665
Co1 Tb0 3.020134 1_555
Co1 Tb0 3.020134 1_554
Co2 Ga3 2.415270 1_555
Co2 Ga3 2.415270 1_554
Co2 Ga1 2.415270 1_555
Co2 Ga1 2.415270 1_554
Co2 Co7 2.475419 1_555
Co2 Co6 2.475419 1_555
Co2 Co5 2.852607 1_555
Co2 Co3 2.852607 1_545
Co2 Tb2 2.852607 1_555
Co2 Tb0 3.020134 1_555
Co2 Tb0 3.020134 1_554
Co3 Ga1 2.415270 1_564
Co3 Ga1 2.415270 1_565
Co3 Ga5 2.415270 1_554
Co3 Ga5 2.415270 1_555
Co3 Co7 2.475419 1_565
Co3 Co8 2.475419 1_555
Co3 Tb2 2.852607 1_565
Co3 Tb1 3.020128 1_555
Co3 Tb1 3.020128 1_554
Co4 Ga0 2.415270 1_555
Co4 Ga0 2.415270 1_554
Co4 Ga4 2.415270 1_565
Co4 Ga4 2.415270 1_564
Co4 Co7 2.475419 1_565
Co4 Co6 2.475419 1_555
Co4 Tb2 2.852607 1_665
Co4 Tb1 3.020134 1_555
Co4 Tb1 3.020134 1_554
Co5 Ga3 2.415270 1_555
Co5 Ga3 2.415270 1_554
Co5 Ga2 2.415270 1_555
Co5 Ga2 2.415270 1_554
Co5 Co8 2.475419 1_555
Co5 Co6 2.475419 1_555
Co5 Tb2 2.852607 1_555
Co5 Tb1 3.020134 1_554
Co5 Tb1 3.020134 1_555
Co6 Ga0 2.530097 1_555
Co6 Ga0 2.530097 1_554
Co6 Ga3 2.530097 1_554
Co6 Ga3 2.530097 1_555
Co6 Tb0 3.224024 1_555
Co6 Tb0 3.224024 1_554
Co6 Tb1 3.224024 1_554
Co6 Tb1 3.224024 1_555
Co7 Ga4 2.530097 1_555
Co7 Ga4 2.530097 1_554
Co7 Ga1 2.530097 1_554
Co7 Ga1 2.530097 1_555
Co7 Tb1 3.224018 1_544
Co7 Tb1 3.224018 1_545
Co7 Tb0 3.224018 1_555
Co7 Tb0 3.224018 1_554
Co8 Ga5 2.530097 1_555
Co8 Ga5 2.530097 1_554
Co8 Ga2 2.530097 1_555
Co8 Ga2 2.530097 1_554
Co8 Tb0 3.224018 1_454
Co8 Tb0 3.224018 1_455
Co8 Tb1 3.224018 1_554
Co8 Tb1 3.224018 1_555
