# generated using pymatgen
data_Ge3N4
_symmetry_space_group_name_H-M   'P 1'
_cell_length_a   4.89655500
_cell_length_b   5.95396500
_cell_length_c   10.10816700
_cell_angle_alpha   90.00000000
_cell_angle_beta   90.00000000
_cell_angle_gamma   90.00000000
_symmetry_Int_Tables_number   1
_chemical_formula_structural   Ge3N4
_chemical_formula_sum   'Ge12 N16'
_cell_volume   294.69266266
_cell_formula_units_Z   4
loop_
 _symmetry_equiv_pos_site_id
 _symmetry_equiv_pos_as_xyz
  1  'x, y, z'
loop_
 _atom_site_type_symbol
 _atom_site_label
 _atom_site_symmetry_multiplicity
 _atom_site_fract_x
 _atom_site_fract_y
 _atom_site_fract_z
 _atom_site_occupancy
  Ge  Ge0  1  0.55120800  0.75000000  0.09550900  1
  Ge  Ge1  1  0.94879200  0.75000000  0.59550900  1
  Ge  Ge2  1  0.05120800  0.25000000  0.40449100  1
  Ge  Ge3  1  0.51095500  0.25000000  0.22086500  1
  Ge  Ge4  1  0.50000000  0.00000000  0.50000000  1
  Ge  Ge5  1  0.48904500  0.75000000  0.77913500  1
  Ge  Ge6  1  0.44879200  0.25000000  0.90449100  1
  Ge  Ge7  1  0.00000000  0.00000000  0.00000000  1
  Ge  Ge8  1  0.01095500  0.75000000  0.27913500  1
  Ge  Ge9  1  0.98904500  0.25000000  0.72086500  1
  Ge  Ge10  1  0.00000000  0.50000000  0.00000000  1
  Ge  Ge11  1  0.50000000  0.50000000  0.50000000  1
  N  N0  1  0.67894100  0.25000000  0.40538700  1
  N  N1  1  0.75892200  0.50427900  0.66243800  1
  N  N2  1  0.74107800  0.50427900  0.16243800  1
  N  N3  1  0.25708400  0.25000000  0.06858600  1
  N  N4  1  0.74291600  0.75000000  0.93141400  1
  N  N5  1  0.75892200  0.99572100  0.66243800  1
  N  N6  1  0.24291600  0.25000000  0.56858600  1
  N  N7  1  0.74107800  0.99572100  0.16243800  1
  N  N8  1  0.25892200  0.00427900  0.83756200  1
  N  N9  1  0.75708400  0.75000000  0.43141400  1
  N  N10  1  0.82105900  0.25000000  0.90538700  1
  N  N11  1  0.17894100  0.75000000  0.09461300  1
  N  N12  1  0.25892200  0.49572100  0.83756200  1
  N  N13  1  0.32105900  0.75000000  0.59461300  1
  N  N14  1  0.24107800  0.00427900  0.33756200  1
  N  N15  1  0.24107800  0.49572100  0.33756200  1
loop_
_geom_bond_atom_site_label_1
_geom_bond_atom_site_label_2
_geom_bond_distance
_geom_bond_site_symmetry_2
Ge0 N11 1.822848 1_555
Ge0 N7 1.860769 1_555
Ge0 N2 1.860769 1_555
Ge0 N4 1.905901 1_554
Ge1 N13 1.822848 1_655
Ge1 N5 1.860769 1_555
Ge1 N1 1.860769 1_555
Ge1 N9 1.905901 1_555
Ge2 N0 1.822848 1_455
Ge2 N15 1.860769 1_555
Ge2 N14 1.860769 1_555
Ge2 N6 1.905901 1_555
Ge3 N2 1.977523 1_555
Ge3 N7 1.977523 1_545
Ge3 N3 1.978537 1_555
Ge3 N0 2.038501 1_555
Ge3 N15 2.297417 1_555
Ge3 N14 2.297417 1_555
Ge4 N13 1.974324 1_545
Ge4 N0 1.974324 1_555
Ge4 N6 2.069030 1_555
Ge4 N9 2.069030 1_545
Ge4 N5 2.074616 1_545
Ge4 N14 2.074616 1_555
Ge5 N8 1.977523 1_565
Ge5 N12 1.977523 1_555
Ge5 N4 1.978537 1_555
Ge5 N13 2.038501 1_555
Ge5 N5 2.297417 1_555
Ge5 N1 2.297417 1_555
Ge6 N10 1.822848 1_555
Ge6 N12 1.860769 1_555
Ge6 N8 1.860769 1_555
Ge6 N3 1.905901 1_556
Ge7 N11 1.974324 1_545
Ge7 N10 1.974324 1_454
Ge7 N3 2.069030 1_555
Ge7 N4 2.069030 1_444
Ge7 N7 2.074616 1_445
Ge7 N8 2.074616 1_554
Ge8 N14 1.977523 1_565
Ge8 N15 1.977523 1_555
Ge8 N9 1.978537 1_455
Ge8 N11 2.038501 1_555
Ge8 N7 2.297417 1_455
Ge8 N2 2.297417 1_455
Ge9 N1 1.977523 1_555
Ge9 N5 1.977523 1_545
Ge9 N6 1.978537 1_655
Ge9 N10 2.038501 1_555
Ge9 N12 2.297417 1_655
Ge9 N8 2.297417 1_655
Ge10 N11 1.974324 1_555
Ge10 N10 1.974324 1_454
Ge10 N3 2.069030 1_555
Ge10 N4 2.069030 1_454
Ge10 N2 2.074616 1_455
Ge10 N12 2.074616 1_554
Ge11 N13 1.974324 1_555
Ge11 N0 1.974324 1_555
Ge11 N6 2.069030 1_555
Ge11 N9 2.069030 1_555
Ge11 N1 2.074616 1_555
Ge11 N15 2.074616 1_555
