# generated using pymatgen
data_CdIrRu
_symmetry_space_group_name_H-M   'P 1'
_cell_length_a   4.30187926
_cell_length_b   4.30187926
_cell_length_c   4.30187926
_cell_angle_alpha   60.00000000
_cell_angle_beta   60.00000000
_cell_angle_gamma   60.00000000
_symmetry_Int_Tables_number   1
_chemical_formula_structural   CdIrRu
_chemical_formula_sum   'Cd1 Ir1 Ru1'
_cell_volume   56.29368188
_cell_formula_units_Z   1
loop_
 _symmetry_equiv_pos_site_id
 _symmetry_equiv_pos_as_xyz
  1  'x, y, z'
loop_
 _atom_site_type_symbol
 _atom_site_label
 _atom_site_symmetry_multiplicity
 _atom_site_fract_x
 _atom_site_fract_y
 _atom_site_fract_z
 _atom_site_occupancy
  Cd  Cd0  1  0.00000000  0.00000000  0.00000000  1
  Ir  Ir0  1  0.50000000  0.50000000  0.50000000  1
  Ru  Ru0  1  0.25000000  0.25000000  0.25000000  1
loop_
_geom_bond_atom_site_label_1
_geom_bond_atom_site_label_2
_geom_bond_distance
_geom_bond_site_symmetry_2
Cd0 Ru0 2.634352 1_545
Cd0 Ru0 2.634352 1_555
Cd0 Ru0 2.634352 1_455
Cd0 Ru0 2.634352 1_554
Cd0 Ir0 3.041888 1_455
Cd0 Ir0 3.041888 1_554
Cd0 Ir0 3.041888 1_445
Cd0 Ir0 3.041888 1_544
Cd0 Ir0 3.041888 1_454
Cd0 Ir0 3.041888 1_545
Ir0 Ru0 2.634352 1_655
Ir0 Ru0 2.634352 1_556
Ir0 Ru0 2.634352 1_565
Ir0 Ru0 2.634352 1_555
