# generated using pymatgen
data_Ba2In13Ir4
_symmetry_space_group_name_H-M   'P 1'
_cell_length_a   14.90987947
_cell_length_b   14.90987947
_cell_length_c   13.91858800
_cell_angle_alpha   90.00000000
_cell_angle_beta   90.00000000
_cell_angle_gamma   162.47097394
_symmetry_Int_Tables_number   1
_chemical_formula_structural   Ba2In13Ir4
_chemical_formula_sum   'Ba4 In26 Ir8'
_cell_volume   931.92814460
_cell_formula_units_Z   2
loop_
 _symmetry_equiv_pos_site_id
 _symmetry_equiv_pos_as_xyz
  1  'x, y, z'
loop_
 _atom_site_type_symbol
 _atom_site_label
 _atom_site_symmetry_multiplicity
 _atom_site_fract_x
 _atom_site_fract_y
 _atom_site_fract_z
 _atom_site_occupancy
  Ba  Ba0  1  0.74821100  0.25178900  0.57183900  1
  Ba  Ba1  1  0.54010800  0.45989200  0.89395600  1
  Ba  Ba2  1  0.25178900  0.74821100  0.07183900  1
  Ba  Ba3  1  0.45989200  0.54010800  0.39395600  1
  In  In0  1  0.65549900  0.34450100  0.07222200  1
  In  In1  1  0.50253400  0.49746600  0.64077900  1
  In  In2  1  0.21533400  0.78466600  0.37732600  1
  In  In3  1  0.84912300  0.15087700  0.05724200  1
  In  In4  1  0.13698200  0.86301800  0.90750700  1
  In  In5  1  0.86047100  0.13952900  0.72803100  1
  In  In6  1  0.64719300  0.35280700  0.72979700  1
  In  In7  1  0.96321200  0.03678800  0.78693900  1
  In  In8  1  0.34450100  0.65549900  0.57222200  1
  In  In9  1  0.22517900  0.77482100  0.78827700  1
  In  In10  1  0.78466600  0.21533400  0.87732600  1
  In  In11  1  0.77482100  0.22517900  0.28827700  1
  In  In12  1  0.38529500  0.61470500  0.89494400  1
  In  In13  1  0.93202200  0.06797800  0.57117400  1
  In  In14  1  0.06797800  0.93202200  0.07117400  1
  In  In15  1  0.04501600  0.95498400  0.49734300  1
  In  In16  1  0.49746600  0.50253400  0.14077900  1
  In  In17  1  0.15087700  0.84912300  0.55724200  1
  In  In18  1  0.61470500  0.38529500  0.39494400  1
  In  In19  1  0.13952900  0.86047100  0.22803100  1
  In  In20  1  0.35280700  0.64719300  0.22979700  1
  In  In21  1  0.92840100  0.07159900  0.21491500  1
  In  In22  1  0.03678800  0.96321200  0.28693900  1
  In  In23  1  0.86301800  0.13698200  0.40750700  1
  In  In24  1  0.95498400  0.04501600  0.99734300  1
  In  In25  1  0.07159900  0.92840100  0.71491500  1
  Ir  Ir0  1  0.69133800  0.30866200  0.89393800  1
  Ir  Ir1  1  0.41808100  0.58191900  0.70240900  1
  Ir  Ir2  1  0.68490600  0.31509400  0.26441000  1
  Ir  Ir3  1  0.58849400  0.41150600  0.58235900  1
  Ir  Ir4  1  0.30866200  0.69133800  0.39393800  1
  Ir  Ir5  1  0.58191900  0.41808100  0.20240900  1
  Ir  Ir6  1  0.31509400  0.68490600  0.76441000  1
  Ir  Ir7  1  0.41150600  0.58849400  0.08235900  1
loop_
_geom_bond_atom_site_label_1
_geom_bond_atom_site_label_2
_geom_bond_distance
_geom_bond_site_symmetry_2
Ba0 In8 3.635194 1_655
Ba0 In8 3.635194 1_545
Ba0 In2 3.664693 1_545
Ba0 In2 3.664693 1_655
Ba0 In17 3.664896 1_655
Ba0 In17 3.664896 1_545
Ba0 In6 3.700959 1_555
Ba0 Ir4 3.803509 1_655
Ba0 Ir4 3.803509 1_545
Ba0 In9 3.833718 1_655
Ba0 In9 3.833718 1_545
Ba0 In5 3.958809 1_555
Ba0 In11 4.023944 1_555
Ba0 Ir6 4.028762 1_655
Ba0 Ir6 4.028762 1_545
Ba0 In23 4.084109 1_555
Ba1 In14 3.452579 1_546
Ba1 In14 3.452579 1_656
Ba1 In25 3.497544 1_545
Ba1 In25 3.497544 1_655
Ba1 In7 3.537791 1_455
Ba1 In7 3.537791 1_565
Ba1 In4 3.653514 1_545
Ba1 In4 3.653514 1_655
Ba1 In16 3.658076 1_556
Ba1 In24 3.677757 1_455
Ba1 In24 3.677757 1_565
Ba1 In1 3.693764 1_555
Ba1 In6 3.896240 1_555
Ba2 In0 3.635194 1_565
Ba2 In0 3.635194 1_455
Ba2 In10 3.664693 1_454
Ba2 In10 3.664693 1_564
Ba2 In3 3.664896 1_565
Ba2 In3 3.664896 1_455
Ba2 In20 3.700959 1_555
Ba2 Ir0 3.803509 1_564
Ba2 Ir0 3.803509 1_454
Ba2 In11 3.833718 1_455
Ba2 In11 3.833718 1_565
Ba2 In19 3.958809 1_555
Ba2 In9 4.023944 1_554
Ba2 Ir2 4.028762 1_565
Ba2 Ir2 4.028762 1_455
Ba2 In4 4.084109 1_554
Ba3 In13 3.452579 1_455
Ba3 In13 3.452579 1_565
Ba3 In21 3.497544 1_455
Ba3 In21 3.497544 1_565
Ba3 In22 3.537791 1_545
Ba3 In22 3.537791 1_655
Ba3 In23 3.653514 1_455
Ba3 In23 3.653514 1_565
Ba3 In1 3.658076 1_555
Ba3 In15 3.677757 1_545
Ba3 In15 3.677757 1_655
Ba3 In16 3.693764 1_555
Ba3 In20 3.896240 1_555
In0 Ir0 2.696901 1_554
In0 Ir2 2.811879 1_555
In0 Ir5 2.825930 1_555
In1 Ir1 2.632632 1_555
In1 Ir3 2.660669 1_555
In2 Ir4 2.760222 1_555
In2 Ir2 2.904413 1_455
In2 Ir2 2.904413 1_565
In3 Ir7 2.943433 1_545
In3 Ir7 2.943433 1_655
In4 Ir0 2.786277 1_455
In4 Ir0 2.786277 1_565
In5 Ir6 2.684446 1_655
In5 Ir6 2.684446 1_545
In5 Ir1 2.858550 1_655
In5 Ir1 2.858550 1_545
In6 Ir0 2.629088 1_555
In6 Ir3 2.684020 1_555
In7 Ir1 2.883534 1_655
In7 Ir1 2.883534 1_545
In8 Ir4 2.696901 1_555
In8 Ir6 2.811879 1_555
In8 Ir1 2.825930 1_555
In9 Ir6 2.670675 1_555
In9 Ir0 2.884255 1_455
In9 Ir0 2.884255 1_565
In10 Ir0 2.760222 1_555
In10 Ir6 2.904413 1_545
In10 Ir6 2.904413 1_655
In10 In5 3.051089 1_555
In10 In9 3.125897 1_655
In10 In9 3.125897 1_545
In10 In3 3.143177 1_556
In11 Ir2 2.670675 1_555
In11 Ir4 2.884255 1_545
In11 Ir4 2.884255 1_655
In11 In2 3.125897 1_545
In11 In2 3.125897 1_655
In12 Ir7 2.720527 1_556
In12 Ir6 2.753438 1_555
In12 Ir1 2.848694 1_555
In12 In3 3.376501 1_566
In12 In3 3.376501 1_456
In13 Ir1 2.943927 1_545
In13 Ir1 2.943927 1_655
In14 Ir5 2.943927 1_455
In14 Ir5 2.943927 1_565
In15 Ir3 2.864177 1_455
In15 Ir3 2.864177 1_565
In15 In22 2.938549 1_555
In15 In17 3.229361 1_555
In16 Ir5 2.632632 1_555
In16 Ir7 2.660669 1_555
In17 Ir3 2.943433 1_455
In17 Ir3 2.943433 1_565
In17 In2 3.143177 1_555
In17 In25 3.205493 1_555
In17 In6 3.307789 1_455
In17 In6 3.307789 1_565
In17 In18 3.376501 1_455
In17 In18 3.376501 1_565
In18 Ir3 2.720527 1_555
In18 Ir2 2.753438 1_555
In18 Ir5 2.848694 1_555
In19 Ir2 2.684446 1_455
In19 Ir2 2.684446 1_565
In19 Ir5 2.858550 1_565
In19 Ir5 2.858550 1_455
In19 In2 3.051089 1_555
In20 Ir4 2.629088 1_555
In20 Ir7 2.684020 1_555
In20 In3 3.307789 1_565
In20 In3 3.307789 1_455
In21 Ir7 2.968726 1_545
In21 Ir7 2.968726 1_655
In21 In3 3.205493 1_555
In22 Ir5 2.883534 1_565
In22 Ir5 2.883534 1_455
In23 Ir4 2.786277 1_545
In23 Ir4 2.786277 1_655
In24 Ir7 2.864177 1_546
In24 Ir7 2.864177 1_656
In24 In7 2.938549 1_555
In24 In3 3.229361 1_556
In25 Ir3 2.968726 1_455
In25 Ir3 2.968726 1_565
