# generated using pymatgen
data_LaSiAs3
_symmetry_space_group_name_H-M   'P 1'
_cell_length_a   5.91850973
_cell_length_b   6.05022648
_cell_length_c   26.60154643
_cell_angle_alpha   90.00000000
_cell_angle_beta   90.00000000
_cell_angle_gamma   90.00000000
_symmetry_Int_Tables_number   1
_chemical_formula_structural   LaSiAs3
_chemical_formula_sum   'La8 Si8 As24'
_cell_volume   952.55680120
_cell_formula_units_Z   8
loop_
 _symmetry_equiv_pos_site_id
 _symmetry_equiv_pos_as_xyz
  1  'x, y, z'
loop_
 _atom_site_type_symbol
 _atom_site_label
 _atom_site_symmetry_multiplicity
 _atom_site_fract_x
 _atom_site_fract_y
 _atom_site_fract_z
 _atom_site_occupancy
  La  La0  1  0.00200992  -0.00053010  0.09153402  1
  La  La1  1  0.00200992  0.49946990  0.40846598  1
  La  La2  1  0.99799008  0.50053010  0.59153402  1
  La  La3  1  0.49799008  0.49946990  0.90846598  1
  La  La4  1  0.99799008  0.00053010  0.90846598  1
  La  La5  1  0.50200992  0.50053010  0.09153402  1
  La  La6  1  0.50200992  0.00053010  0.40846598  1
  La  La7  1  0.49799008  -0.00053010  0.59153402  1
  Si  Si0  1  0.91797915  0.41286127  0.20744133  1
  Si  Si1  1  0.58202085  0.41286127  0.70744133  1
  Si  Si2  1  0.91797915  0.91286127  0.29255867  1
  Si  Si3  1  0.08202085  0.08713873  0.70744133  1
  Si  Si4  1  0.41797915  0.58713873  0.29255867  1
  Si  Si5  1  0.08202085  0.58713873  0.79255867  1
  Si  Si6  1  0.41797915  0.08713873  0.20744133  1
  Si  Si7  1  0.58202085  0.91286127  0.79255867  1
  As  As0  1  0.25025947  0.74964103  0.50011059  1
  As  As1  1  0.02222430  0.54050789  0.28809412  1
  As  As2  1  0.52222430  0.45949211  0.21190588  1
  As  As3  1  0.02222430  0.04050789  0.21190588  1
  As  As4  1  0.49577699  0.00384864  0.87450057  1
  As  As5  1  0.49577699  0.50384864  0.62549943  1
  As  As6  1  0.24974053  0.74964103  0.00011059  1
  As  As7  1  0.74974053  0.75035897  0.00011059  1
  As  As8  1  0.47777570  0.54050789  0.78809412  1
  As  As9  1  0.50422301  0.49615136  0.37450057  1
  As  As10  1  0.74974053  0.25035897  0.49988941  1
  As  As11  1  0.99577699  0.49615136  0.87450057  1
  As  As12  1  0.00422301  0.00384864  0.37450057  1
  As  As13  1  0.52222430  0.95949211  0.28809412  1
  As  As14  1  0.97777570  0.45949211  0.71190588  1
  As  As15  1  0.75025947  0.25035897  0.99988941  1
  As  As16  1  0.50422301  0.99615136  0.12549943  1
  As  As17  1  0.00422301  0.50384864  0.12549943  1
  As  As18  1  0.47777570  0.04050789  0.71190588  1
  As  As19  1  0.97777570  0.95949211  0.78809412  1
  As  As20  1  0.99577699  0.99615136  0.62549943  1
  As  As21  1  0.24974053  0.24964103  0.49988941  1
  As  As22  1  0.25025947  0.24964103  0.99988941  1
  As  As23  1  0.75025947  0.75035897  0.50011059  1
loop_
_geom_bond_atom_site_label_1
_geom_bond_atom_site_label_2
_geom_bond_distance
_geom_bond_site_symmetry_2
As0 As23 2.959258 1_455
As0 As23 2.959258 1_555
As0 As21 3.025121 1_555
As0 As21 3.025121 1_565
As0 La7 3.216998 1_565
As0 La1 3.223819 1_555
As0 La2 3.227298 1_455
As0 La6 3.235350 1_565
As1 Si2 2.338797 1_455
As1 Si4 2.362196 1_555
As1 Si0 2.362248 1_455
As1 La1 3.213917 1_555
As2 Si6 2.338797 1_555
As2 Si0 2.362196 1_555
As2 Si4 2.362248 1_555
As2 La5 3.213917 1_555
As3 Si0 2.338797 1_455
As3 Si6 2.362196 1_555
As3 Si2 2.362248 1_445
As3 La0 3.213917 1_555
As4 Si7 2.305436 1_545
As4 La4 3.081658 1_455
As4 La4 3.106712 1_555
As4 La3 3.131816 1_555
As4 La3 3.182584 1_545
As5 Si1 2.305436 1_555
As5 La2 3.081658 1_455
As5 La2 3.106712 1_555
As5 La7 3.131816 1_565
As5 La7 3.182584 1_555
As6 As7 2.959258 1_555
As6 As7 2.959258 1_455
As6 La0 3.216998 1_565
As6 La3 3.223819 1_554
As6 La5 3.227298 1_555
As6 La4 3.235350 1_464
As7 La5 3.216998 1_555
As7 La4 3.223819 1_564
As7 La0 3.227298 1_665
As7 La3 3.235350 1_554
As8 Si7 2.338797 1_555
As8 Si5 2.362196 1_555
As8 Si1 2.362248 1_555
As8 La3 3.213917 1_555
As9 Si4 2.305436 1_555
As9 La1 3.081658 1_655
As9 La1 3.106712 1_555
As9 La6 3.131816 1_555
As9 La6 3.182584 1_565
As10 As21 2.959258 1_555
As10 As21 2.959258 1_655
As10 As23 3.025121 1_545
As10 As23 3.025121 1_555
As10 La6 3.216998 1_555
As10 La2 3.223819 1_555
As10 La1 3.227298 1_655
As10 La7 3.235350 1_555
As11 Si5 2.305436 1_655
As11 La3 3.081658 1_555
As11 La3 3.106712 1_655
As11 La4 3.131816 1_555
As11 La4 3.182584 1_565
As12 Si2 2.305436 1_445
As12 La6 3.081658 1_555
As12 La6 3.106712 1_455
As12 La1 3.131816 1_555
As12 La1 3.182584 1_545
As13 Si4 2.338797 1_555
As13 Si2 2.362196 1_555
As13 Si6 2.362248 1_565
As13 La6 3.213917 1_565
As14 Si3 2.338797 1_655
As14 Si1 2.362196 1_555
As14 Si5 2.362248 1_655
As14 La2 3.213917 1_555
As15 As22 2.959258 1_655
As15 As22 2.959258 1_555
As15 As7 3.025121 1_546
As15 As7 3.025121 1_556
As15 La4 3.216998 1_555
As15 La5 3.223819 1_556
As15 La3 3.227298 1_555
As15 La0 3.235350 1_656
As16 Si6 2.305436 1_565
As16 La0 3.081658 1_665
As16 La0 3.106712 1_565
As16 La5 3.131816 1_555
As16 La5 3.182584 1_565
As17 Si0 2.305436 1_455
As17 La5 3.081658 1_555
As17 La5 3.106712 1_455
As17 La0 3.131816 1_565
As17 La0 3.182584 1_555
As18 Si1 2.338797 1_555
As18 Si3 2.362196 1_555
As18 Si7 2.362248 1_545
As18 La7 3.213917 1_555
As19 Si5 2.338797 1_655
As19 Si7 2.362196 1_555
As19 Si3 2.362248 1_665
As19 La4 3.213917 1_565
As20 Si3 2.305436 1_665
As20 La7 3.081658 1_565
As20 La7 3.106712 1_665
As20 La2 3.131816 1_555
As20 La2 3.182584 1_565
As21 La1 3.216998 1_555
As21 La7 3.223819 1_555
As21 La6 3.227298 1_555
As21 La2 3.235350 1_455
As22 As6 3.025121 1_556
As22 As6 3.025121 1_546
As22 La3 3.216998 1_555
As22 La0 3.223819 1_556
As22 La4 3.227298 1_455
As22 La5 3.235350 1_556
As23 La2 3.216998 1_555
As23 La6 3.223819 1_565
As23 La7 3.227298 1_565
As23 La1 3.235350 1_655
