# generated using pymatgen
data_Li2CrCl4
_symmetry_space_group_name_H-M   'P 1'
_cell_length_a   7.22876400
_cell_length_b   7.42284197
_cell_length_c   12.83742393
_cell_angle_alpha   78.00485524
_cell_angle_beta   74.78317196
_cell_angle_gamma   62.50011300
_symmetry_Int_Tables_number   1
_chemical_formula_structural   Li2CrCl4
_chemical_formula_sum   'Li8 Cr4 Cl16'
_cell_volume   586.55055939
_cell_formula_units_Z   4
loop_
 _symmetry_equiv_pos_site_id
 _symmetry_equiv_pos_as_xyz
  1  'x, y, z'
loop_
 _atom_site_type_symbol
 _atom_site_label
 _atom_site_symmetry_multiplicity
 _atom_site_fract_x
 _atom_site_fract_y
 _atom_site_fract_z
 _atom_site_occupancy
  Li  Li0  1  0.15750700  0.17789800  0.94912200  1
  Li  Li1  1  0.73878300  0.75242200  0.25657300  1
  Li  Li2  1  0.03201900  0.49164500  0.49501600  1
  Li  Li3  1  0.74452100  0.77771400  0.74220500  1
  Li  Li4  1  0.25396700  0.76256400  0.24458100  1
  Li  Li5  1  0.49069300  0.03347700  0.47988400  1
  Li  Li6  1  0.01682900  0.98379500  0.50218500  1
  Li  Li7  1  0.25882400  0.24232500  0.24918800  1
  Cr  Cr0  1  0.75039900  0.24595100  0.74574700  1
  Cr  Cr1  1  0.24768700  0.75258400  0.74635200  1
  Cr  Cr2  1  0.48705600  0.49608300  0.00913900  1
  Cr  Cr3  1  0.75017400  0.25515600  0.25015900  1
  Cl  Cl0  1  0.35424500  0.38459600  0.89462000  1
  Cl  Cl1  1  0.61370500  0.58561100  0.64782400  1
  Cl  Cl2  1  0.82555900  0.39017800  0.87586900  1
  Cl  Cl3  1  0.37509500  0.87134900  0.85989200  1
  Cl  Cl4  1  0.87985800  0.83841900  0.39234100  1
  Cl  Cl5  1  0.11802900  0.64768700  0.62957100  1
  Cl  Cl6  1  0.88869100  0.91565200  0.84854300  1
  Cl  Cl7  1  0.64904600  0.11092400  0.62907500  1
  Cl  Cl8  1  0.10813600  0.11210600  0.14106100  1
  Cl  Cl9  1  0.36807700  0.89255000  0.36658000  1
  Cl  Cl10  1  0.87594700  0.38048700  0.36025400  1
  Cl  Cl11  1  0.13472500  0.15057800  0.60285300  1
  Cl  Cl12  1  0.64087600  0.10631400  0.14459900  1
  Cl  Cl13  1  0.40372000  0.36540700  0.37020600  1
  Cl  Cl14  1  0.15568200  0.59234900  0.13694900  1
  Cl  Cl15  1  0.61765100  0.62167900  0.11711300  1
loop_
_geom_bond_atom_site_label_1
_geom_bond_atom_site_label_2
_geom_bond_distance
_geom_bond_site_symmetry_2
Cl0 Cr2 2.397530 1_556
Cl0 Li0 2.431600 1_555
Cl0 Cr0 2.852238 1_555
Cl0 Cr1 2.888407 1_555
Cl1 Cr0 2.438704 1_555
Cl1 Cr1 2.450092 1_555
Cl1 Li3 2.638259 1_555
Cl1 Li2 2.997596 1_655
Cl2 Cr0 2.447156 1_555
Cl2 Cr2 2.473370 1_556
Cl2 Li0 2.490384 1_655
Cl2 Li3 2.912420 1_555
Cl3 Cr1 2.395519 1_555
Cl3 Li0 2.407536 1_565
Cl3 Li3 2.549817 1_555
Cl3 Cr2 2.932373 1_556
Cl4 Li2 2.511787 1_655
Cl4 Li1 2.545954 1_555
Cl4 Li6 2.546639 1_655
Cl4 Li5 2.555098 1_565
Cl4 Li4 2.751995 1_655
Cl5 Cr1 2.372553 1_555
Cl5 Li3 2.537001 1_455
Cl5 Li6 2.584661 1_555
Cl5 Li2 2.602369 1_555
Cl6 Cr0 2.415810 1_565
Cl6 Cr1 2.427489 1_655
Cl6 Li3 2.512214 1_555
Cl7 Cr0 2.379674 1_555
Cl7 Li3 2.481874 1_545
Cl7 Li6 2.580859 1_645
Cl7 Li5 2.743199 1_555
Cl8 Li0 2.374097 1_554
Cl8 Cr3 2.441942 1_455
Cl8 Li7 2.524155 1_555
Cl8 Li4 2.526969 1_545
Cl9 Li4 2.470930 1_555
Cl9 Li5 2.482151 1_565
Cl9 Li1 2.511408 1_555
Cl9 Li6 2.552994 1_555
Cl9 Li7 2.596256 1_565
Cl10 Cr3 2.385749 1_555
Cl10 Li7 2.580683 1_655
Cl10 Li1 2.648429 1_555
Cl10 Li2 2.724726 1_655
Cl10 Li6 3.000361 1_645
Cl11 Li6 2.479230 1_545
Cl11 Li2 2.494799 1_555
Cl11 Li5 2.498270 1_555
Cl11 Cr0 2.762744 1_455
Cl11 Cr1 3.014577 1_545
Cl12 Cr3 2.381538 1_555
Cl12 Li7 2.547801 1_555
Cl12 Li1 2.591389 1_545
Cl12 Cr2 2.929817 1_555
Cl13 Cr3 2.433578 1_555
Cl13 Li5 2.457746 1_555
Cl13 Li7 2.583260 1_555
Cl13 Li2 2.589172 1_555
Cl13 Li4 2.908039 1_555
Cl14 Cr2 2.405022 1_555
Cl14 Li4 2.465821 1_555
Cl14 Li7 2.569320 1_555
Cl14 Li1 2.806133 1_455
Cl15 Cr2 2.391332 1_555
Cl15 Li4 2.568443 1_555
Cl15 Li1 2.691408 1_555
Cl15 Cr3 2.785193 1_555
