# generated using pymatgen
data_Na3Ca2TaO6
_symmetry_space_group_name_H-M   'P 1'
_cell_length_a   10.99375380
_cell_length_b   10.44012881
_cell_length_c   5.83263614
_cell_angle_alpha   79.51942373
_cell_angle_beta   69.03491466
_cell_angle_gamma   31.44566161
_symmetry_Int_Tables_number   1
_chemical_formula_structural   Na3Ca2TaO6
_chemical_formula_sum   'Na6 Ca4 Ta2 O12'
_cell_volume   315.49625550
_cell_formula_units_Z   2
loop_
 _symmetry_equiv_pos_site_id
 _symmetry_equiv_pos_as_xyz
  1  'x, y, z'
loop_
 _atom_site_type_symbol
 _atom_site_label
 _atom_site_symmetry_multiplicity
 _atom_site_fract_x
 _atom_site_fract_y
 _atom_site_fract_z
 _atom_site_occupancy
  Na  Na0  1  0.75003200  0.74542700  0.75454600  1
  Na  Na1  1  0.34378400  0.32990900  0.65542900  1
  Na  Na2  1  0.59338600  0.57710700  0.91324700  1
  Na  Na3  1  0.91580000  0.91073900  0.59397300  1
  Na  Na4  1  0.49541200  0.49970700  0.50226700  1
  Na  Na5  1  0.65859200  0.66910600  0.33099600  1
  Ca  Ca0  1  0.82753100  0.83661300  0.16409500  1
  Ca  Ca1  1  0.17407300  0.16120100  0.83016900  1
  Ca  Ca2  1  0.41422100  0.41996100  0.08568800  1
  Ca  Ca3  1  0.08698000  0.07480700  0.42328700  1
  Ta  Ta0  1  0.99411900  0.00154200  0.00614900  1
  Ta  Ta1  1  0.25199100  0.25194800  0.25339200  1
  O  O0  1  0.45762000  0.03814400  0.46902500  1
  O  O1  1  0.03137000  0.46656600  0.04681700  1
  O  O2  1  0.78007200  0.22048600  0.79421200  1
  O  O3  1  0.20986200  0.78515300  0.21294600  1
  O  O4  1  0.95848100  0.39154500  0.54244500  1
  O  O5  1  0.10902200  0.54168200  0.37859400  1
  O  O6  1  0.55069100  0.10043200  0.96116600  1
  O  O7  1  0.38115500  0.96747100  0.11078100  1
  O  O8  1  0.86036700  0.28572200  0.15537600  1
  O  O9  1  0.15111000  0.70627900  0.85736700  1
  O  O10  1  0.70845300  0.14266700  0.27625400  1
  O  O11  1  0.28918700  0.85825100  0.69786600  1
loop_
_geom_bond_atom_site_label_1
_geom_bond_atom_site_label_2
_geom_bond_distance
_geom_bond_site_symmetry_2
Na0 O4 2.370578 1_555
Na0 O7 2.412243 1_556
Na0 O6 2.422346 1_565
Na0 O5 2.467561 1_655
Na0 O1 2.747992 1_656
Na0 O0 2.768337 1_565
Na1 O0 2.398637 1_555
Na1 O5 2.470535 1_555
Na1 O6 2.478670 1_555
Na1 O1 2.501280 1_556
Na1 O10 2.577028 1_555
Na1 O9 2.647767 1_555
Na2 O2 2.332122 1_555
Na2 O8 2.455983 1_556
Na2 O3 2.456018 1_556
Na2 O11 2.508728 1_555
Na2 O4 2.566239 1_555
Na2 O7 2.634471 1_556
Na3 O3 2.407443 1_655
Na3 O9 2.416136 1_655
Na3 O2 2.437545 1_565
Na3 O6 2.539346 1_565
Na3 O10 2.542822 1_565
Na3 O5 2.611923 1_655
Na4 O9 2.313996 1_555
Na4 O11 2.382392 1_555
Na4 O8 2.392442 1_555
Na4 O10 2.408280 1_555
Na4 O3 2.753596 1_555
Na4 O2 2.762720 1_555
Na5 O1 2.375271 1_655
Na5 O0 2.388461 1_565
Na5 O7 2.406770 1_555
Na5 O4 2.469019 1_555
Na5 O11 2.570271 1_555
Na5 O8 2.589702 1_555
Ca0 O6 2.310551 1_564
Ca0 O10 2.315535 1_565
Ca0 O1 2.346805 1_655
Ca0 O0 2.390454 1_565
Ca0 O5 2.394465 1_655
Ca0 O9 2.403973 1_654
Ca1 O0 2.292857 1_555
Ca1 O7 2.357531 1_546
Ca1 O11 2.357972 1_545
Ca1 O1 2.394715 1_556
Ca1 O8 2.397496 1_456
Ca1 O4 2.422779 1_455
Ca2 O5 2.281250 1_555
Ca2 O3 2.314188 1_555
Ca2 O6 2.338532 1_554
Ca2 O10 2.345992 1_555
Ca2 O2 2.346756 1_554
Ca2 O9 2.372941 1_554
Ca3 O11 2.296294 1_545
Ca3 O7 2.319142 1_545
Ca3 O4 2.361419 1_455
Ca3 O2 2.365493 1_455
Ca3 O3 2.380763 1_545
Ca3 O8 2.381368 1_455
O0 Ta1 2.019426 1_555
O1 Ta1 2.047256 1_555
O2 Ta0 2.041123 1_556
O3 Ta0 2.024179 1_465
O4 Ta1 2.086942 1_655
O5 Ta1 2.005871 1_555
O6 Ta1 2.074434 1_556
O7 Ta1 2.094423 1_565
O8 Ta0 2.074110 1_555
O9 Ta0 2.014382 1_466
O10 Ta0 1.981029 1_555
O11 Ta0 2.125665 1_466
