# generated using pymatgen
data_Ba3LaIn(WO6)2
_symmetry_space_group_name_H-M   'P 1'
_cell_length_a   9.90649523
_cell_length_b   9.90649523
_cell_length_c   9.90649475
_cell_angle_alpha   34.12813236
_cell_angle_beta   34.12813236
_cell_angle_gamma   34.12813028
_symmetry_Int_Tables_number   1
_chemical_formula_structural   Ba3LaIn(WO6)2
_chemical_formula_sum   'Ba3 La1 In1 W2 O12'
_cell_volume   272.84124017
_cell_formula_units_Z   1
loop_
 _symmetry_equiv_pos_site_id
 _symmetry_equiv_pos_as_xyz
  1  'x, y, z'
loop_
 _atom_site_type_symbol
 _atom_site_label
 _atom_site_symmetry_multiplicity
 _atom_site_fract_x
 _atom_site_fract_y
 _atom_site_fract_z
 _atom_site_occupancy
  Ba  Ba0  1  0.71051900  0.71051900  0.71051900  1
  Ba  Ba1  1  0.28837500  0.28837500  0.28837500  1
  Ba  Ba2  1  0.13157900  0.13157900  0.13157900  1
  La  La0  1  0.85871000  0.85871000  0.85871000  1
  In  In0  1  0.99966300  0.99966300  0.99966300  1
  W  W0  1  0.57718800  0.57718800  0.57718800  1
  W  W1  1  0.42348800  0.42348800  0.42348800  1
  O  O0  1  0.78152000  0.78152000  0.30045500  1
  O  O1  1  0.30045500  0.78152000  0.78152000  1
  O  O2  1  0.78152000  0.30045500  0.78152000  1
  O  O3  1  0.38118700  0.86654000  0.38118700  1
  O  O4  1  0.38118700  0.38118700  0.86654000  1
  O  O5  1  0.86654000  0.38118700  0.38118700  1
  O  O6  1  0.62273000  0.62273000  0.13265200  1
  O  O7  1  0.13265200  0.62273000  0.62273000  1
  O  O8  1  0.62273000  0.13265200  0.62273000  1
  O  O9  1  0.22153500  0.69688900  0.22153500  1
  O  O10  1  0.22153500  0.22153500  0.69688900  1
  O  O11  1  0.69688900  0.22153500  0.22153500  1
loop_
_geom_bond_atom_site_label_1
_geom_bond_atom_site_label_2
_geom_bond_distance
_geom_bond_site_symmetry_2
Ba0 O6 2.865411 1_556
Ba0 O8 2.865411 1_565
Ba0 O7 2.865411 1_655
Ba0 O10 2.909201 1_565
Ba0 O10 2.909201 1_655
Ba0 O11 2.909201 1_556
Ba0 O9 2.909201 1_556
Ba0 O11 2.909201 1_565
Ba0 O9 2.909201 1_655
Ba0 O0 2.974870 1_555
Ba0 O1 2.974870 1_555
Ba0 O2 2.974870 1_555
Ba1 O4 2.798449 1_554
Ba1 O3 2.798449 1_545
Ba1 O5 2.798449 1_455
Ba1 O0 2.907704 1_545
Ba1 O0 2.907704 1_455
Ba1 O2 2.907705 1_455
Ba1 O1 2.907705 1_545
Ba1 O2 2.907705 1_554
Ba1 O1 2.907705 1_554
Ba1 O10 3.017895 1_555
Ba1 O9 3.017895 1_555
Ba1 O11 3.017895 1_555
Ba2 O3 2.783559 1_545
Ba2 O5 2.783559 1_455
Ba2 O4 2.783559 1_554
Ba2 O6 2.911287 1_545
Ba2 O6 2.911287 1_455
Ba2 O7 2.911287 1_554
Ba2 O8 2.911287 1_554
Ba2 O8 2.911287 1_455
Ba2 O7 2.911287 1_545
Ba2 O10 2.956407 1_554
Ba2 O11 2.956407 1_455
Ba2 O9 2.956407 1_545
La0 O7 2.517151 1_655
La0 O8 2.517151 1_565
La0 O6 2.517152 1_556
La0 O4 2.948716 1_565
La0 O4 2.948716 1_655
La0 O5 2.948716 1_556
La0 O3 2.948716 1_556
La0 O5 2.948717 1_565
La0 O3 2.948717 1_655
La0 O0 3.194985 1_556
La0 O2 3.194985 1_565
La0 O1 3.194985 1_655
In0 O1 2.151523 1_655
In0 O2 2.151523 1_565
In0 O0 2.151523 1_556
In0 O11 2.197207 1_566
In0 O9 2.197207 1_656
In0 O10 2.197207 1_665
O0 W0 2.029676 1_555
O1 W0 2.029675 1_555
O2 W0 2.029675 1_555
O3 W0 1.889332 1_555
O4 W0 1.889332 1_555
O5 W0 1.889332 1_555
O6 W1 1.926866 1_555
O7 W1 1.926866 1_555
O8 W1 1.926866 1_555
O9 W1 2.006372 1_555
O10 W1 2.006372 1_555
O11 W1 2.006372 1_555
