# generated using pymatgen
data_V6PbO11
_symmetry_space_group_name_H-M   'P 1'
_cell_length_a   5.93689621
_cell_length_b   5.93689621
_cell_length_c   13.58260400
_cell_angle_alpha   90.00000000
_cell_angle_beta   90.00000000
_cell_angle_gamma   120.00000236
_symmetry_Int_Tables_number   1
_chemical_formula_structural   V6PbO11
_chemical_formula_sum   'V12 Pb2 O22'
_cell_volume   414.60312749
_cell_formula_units_Z   2
loop_
 _symmetry_equiv_pos_site_id
 _symmetry_equiv_pos_as_xyz
  1  'x, y, z'
loop_
 _atom_site_type_symbol
 _atom_site_label
 _atom_site_symmetry_multiplicity
 _atom_site_fract_x
 _atom_site_fract_y
 _atom_site_fract_z
 _atom_site_occupancy
  V  V0  1  0.66666700  0.33333300  0.25531300  1
  V  V1  1  0.49829700  0.50170300  0.49643100  1
  V  V2  1  0.00000000  0.00000000  0.14605300  1
  V  V3  1  0.50170300  0.00340600  0.99643100  1
  V  V4  1  0.00000000  0.00000000  0.85187400  1
  V  V5  1  0.49829700  0.99659400  0.49643100  1
  V  V6  1  0.00000000  0.00000000  0.64605300  1
  V  V7  1  0.00340600  0.50170300  0.49643100  1
  V  V8  1  0.33333300  0.66666700  0.75531300  1
  V  V9  1  0.50170300  0.49829700  0.99643100  1
  V  V10  1  0.99659400  0.49829700  0.99643100  1
  V  V11  1  0.00000000  0.00000000  0.35187400  1
  Pb  Pb0  1  0.33333300  0.66666700  0.22111500  1
  Pb  Pb1  1  0.66666700  0.33333300  0.72111500  1
  O  O0  1  0.82300200  0.64600500  0.57837000  1
  O  O1  1  0.85208200  0.14791800  0.24920500  1
  O  O2  1  0.85208200  0.70416400  0.24920500  1
  O  O3  1  0.83004200  0.16995800  0.92411700  1
  O  O4  1  0.66008400  0.83004200  0.42411700  1
  O  O5  1  0.16995800  0.33991600  0.42411700  1
  O  O6  1  0.66666700  0.33333300  0.41516700  1
  O  O7  1  0.17699800  0.82300200  0.07837000  1
  O  O8  1  0.14791800  0.29583600  0.74920500  1
  O  O9  1  0.83004200  0.66008400  0.92411700  1
  O  O10  1  0.70416400  0.85208200  0.74920500  1
  O  O11  1  0.29583600  0.14791800  0.24920500  1
  O  O12  1  0.66666700  0.33333300  0.07900900  1
  O  O13  1  0.17699800  0.35399500  0.07837000  1
  O  O14  1  0.33333300  0.66666700  0.57900900  1
  O  O15  1  0.64600500  0.82300200  0.07837000  1
  O  O16  1  0.33991600  0.16995800  0.92411700  1
  O  O17  1  0.33333300  0.66666700  0.91516700  1
  O  O18  1  0.82300200  0.17699800  0.57837000  1
  O  O19  1  0.35399500  0.17699800  0.57837000  1
  O  O20  1  0.14791800  0.85208200  0.74920500  1
  O  O21  1  0.16995800  0.83004200  0.42411700  1
loop_
_geom_bond_atom_site_label_1
_geom_bond_atom_site_label_2
_geom_bond_distance
_geom_bond_site_symmetry_2
O0 V1 2.009295 1_555
O0 V7 2.009299 1_655
O0 V6 2.039062 1_665
O0 Pb1 2.518636 1_555
O1 V0 1.908428 1_555
O1 V11 2.063549 1_655
O1 V2 2.067988 1_655
O2 V0 1.908433 1_555
O2 V11 2.063548 1_665
O2 V2 2.067988 1_665
O3 V3 1.953154 1_555
O3 V10 1.953154 1_555
O3 V4 2.004303 1_655
O4 V1 1.953154 1_555
O4 V5 1.953154 1_555
O4 V11 2.004303 1_665
O5 V1 1.953154 1_555
O5 V7 1.953154 1_555
O5 V11 2.004303 1_555
O6 V7 2.053260 1_655
O6 V5 2.053260 1_545
O6 V1 2.053264 1_555
O6 V0 2.171234 1_555
O7 V3 2.009295 1_564
O7 V10 2.009295 1_454
O7 V2 2.039067 1_565
O7 Pb0 2.518629 1_555
O8 V8 1.908433 1_555
O8 V4 2.063548 1_555
O8 V6 2.067988 1_555
O9 V9 1.953154 1_555
O9 V10 1.953154 1_555
O9 V4 2.004303 1_665
O10 V8 1.908433 1_555
O10 V4 2.063548 1_665
O10 V6 2.067988 1_665
O11 V0 1.908433 1_555
O11 V11 2.063548 1_555
O11 V2 2.067988 1_555
O12 V3 2.033604 1_554
O12 V10 2.033604 1_554
O12 V9 2.033608 1_554
O12 V0 2.394667 1_555
O13 V9 2.009295 1_554
O13 V10 2.009299 1_454
O13 V2 2.039062 1_555
O13 Pb0 2.518636 1_555
O14 V5 2.033604 1_555
O14 V7 2.033604 1_555
O14 V1 2.033608 1_555
O14 V8 2.394667 1_555
O15 V9 2.009295 1_554
O15 V3 2.009299 1_564
O15 V2 2.039062 1_665
O15 Pb0 2.518636 1_555
O16 V9 1.953154 1_555
O16 V3 1.953154 1_555
O16 V4 2.004303 1_555
O17 V10 2.053260 1_455
O17 V3 2.053260 1_565
O17 V9 2.053264 1_555
O17 V8 2.171234 1_555
O18 V7 2.009295 1_655
O18 V5 2.009295 1_545
O18 V6 2.039067 1_655
O18 Pb1 2.518629 1_555
O19 V1 2.009295 1_555
O19 V5 2.009299 1_545
O19 V6 2.039062 1_555
O19 Pb1 2.518636 1_555
O20 V8 1.908428 1_555
O20 V4 2.063549 1_565
O20 V6 2.067988 1_565
O21 V7 1.953154 1_555
O21 V5 1.953154 1_555
O21 V11 2.004303 1_565
