# generated using pymatgen
data_UWC2
_symmetry_space_group_name_H-M   'P 1'
_cell_length_a   3.22571759
_cell_length_b   5.62491156
_cell_length_c   11.02198885
_cell_angle_alpha   90.00000000
_cell_angle_beta   90.00000000
_cell_angle_gamma   90.00000000
_symmetry_Int_Tables_number   1
_chemical_formula_structural   UWC2
_chemical_formula_sum   'U4 W4 C8'
_cell_volume   199.98711174
_cell_formula_units_Z   4
loop_
 _symmetry_equiv_pos_site_id
 _symmetry_equiv_pos_as_xyz
  1  'x, y, z'
loop_
 _atom_site_type_symbol
 _atom_site_label
 _atom_site_symmetry_multiplicity
 _atom_site_fract_x
 _atom_site_fract_y
 _atom_site_fract_z
 _atom_site_occupancy
  U  U0  1  0.25000000  0.07969367  0.85790451  1
  U  U1  1  0.25000000  0.57969367  0.64209549  1
  U  U2  1  0.75000000  0.92031094  0.14207655  1
  U  U3  1  0.75000000  0.42031094  0.35792345  1
  W  W0  1  0.25000000  0.42168467  0.10182040  1
  W  W1  1  0.25000000  0.92168467  0.39817960  1
  W  W2  1  0.75000000  0.57831185  0.89815363  1
  W  W3  1  0.75000000  0.07831185  0.60184637  1
  C  C0  1  0.25000000  0.16229483  0.24432179  1
  C  C1  1  0.25000000  0.66229483  0.25567821  1
  C  C2  1  0.75000000  0.83770790  0.75568264  1
  C  C3  1  0.75000000  0.33770790  0.74431736  1
  C  C4  1  0.25000000  0.75065194  0.99258003  1
  C  C5  1  0.25000000  0.25065194  0.50741997  1
  C  C6  1  0.75000000  0.24934419  0.00744178  1
  C  C7  1  0.75000000  0.74934419  0.49255822  1
loop_
_geom_bond_atom_site_label_1
_geom_bond_atom_site_label_2
_geom_bond_distance
_geom_bond_site_symmetry_2
C0 W0 2.143770 1_555
C0 W1 2.169683 1_545
C0 U2 2.392492 1_445
C0 U2 2.392492 1_545
C0 U3 2.505081 1_455
C0 U3 2.505081 1_555
C1 W1 2.143770 1_555
C1 W0 2.169683 1_555
C1 U3 2.392492 1_455
C1 U3 2.392492 1_555
C1 U2 2.505081 1_555
C1 U2 2.505081 1_455
C2 W2 2.143548 1_555
C2 W3 2.169475 1_565
C2 U0 2.392377 1_565
C2 U0 2.392377 1_665
C2 U1 2.504995 1_555
C2 U1 2.504995 1_655
C3 W3 2.143548 1_555
C3 W2 2.169475 1_555
C3 U1 2.392377 1_555
C3 U1 2.392377 1_655
C3 U0 2.504995 1_655
C3 U0 2.504995 1_555
C4 W2 2.150405 1_455
C4 W2 2.150405 1_555
C4 W0 2.207657 1_556
C4 U0 2.372550 1_565
C4 U2 2.495418 1_456
C4 U2 2.495418 1_556
C5 W3 2.150405 1_555
C5 W3 2.150405 1_455
C5 W1 2.207657 1_545
C5 U1 2.372550 1_555
C5 U3 2.495418 1_455
C5 U3 2.495418 1_555
C6 W0 2.150151 1_555
C6 W0 2.150151 1_655
C6 W2 2.207946 1_554
C6 U2 2.372232 1_545
C6 U0 2.495696 1_654
C6 U0 2.495696 1_554
C7 W1 2.150151 1_555
C7 W1 2.150151 1_655
C7 W3 2.207946 1_565
C7 U3 2.372232 1_555
C7 U1 2.495696 1_655
C7 U1 2.495696 1_555
