# generated using pymatgen
data_K2Pt(CN)4
_symmetry_space_group_name_H-M   'P 1'
_cell_length_a   7.13175300
_cell_length_b   9.16920100
_cell_length_c   13.83887400
_cell_angle_alpha   90.00000000
_cell_angle_beta   90.00000000
_cell_angle_gamma   90.00000000
_symmetry_Int_Tables_number   1
_chemical_formula_structural   K2Pt(CN)4
_chemical_formula_sum   'K8 Pt4 C16 N16'
_cell_volume   904.95824614
_cell_formula_units_Z   4
loop_
 _symmetry_equiv_pos_site_id
 _symmetry_equiv_pos_as_xyz
  1  'x, y, z'
loop_
 _atom_site_type_symbol
 _atom_site_label
 _atom_site_symmetry_multiplicity
 _atom_site_fract_x
 _atom_site_fract_y
 _atom_site_fract_z
 _atom_site_occupancy
  K  K0  1  0.20142400  0.35297600  0.90463500  1
  K  K1  1  0.29857600  0.64702400  0.40463500  1
  K  K2  1  0.79857600  0.64702400  0.09536500  1
  K  K3  1  0.29857600  0.85297600  0.09536500  1
  K  K4  1  0.70142400  0.14702400  0.90463500  1
  K  K5  1  0.20142400  0.14702400  0.59536500  1
  K  K6  1  0.79857600  0.85297600  0.40463500  1
  K  K7  1  0.70142400  0.35297600  0.59536500  1
  Pt  Pt0  1  0.59138400  0.75000000  0.75000000  1
  Pt  Pt1  1  0.90861600  0.25000000  0.25000000  1
  Pt  Pt2  1  0.09138400  0.75000000  0.75000000  1
  Pt  Pt3  1  0.40861600  0.25000000  0.25000000  1
  C  C0  1  0.40873300  0.04278000  0.29462900  1
  C  C1  1  0.40873300  0.45722000  0.20537100  1
  C  C2  1  0.09126700  0.54278000  0.70537100  1
  C  C3  1  0.59126700  0.95722000  0.70537100  1
  C  C4  1  0.90835100  0.31469500  0.11332200  1
  C  C5  1  0.90835100  0.18530500  0.38667800  1
  C  C6  1  0.40835100  0.31469500  0.38667800  1
  C  C7  1  0.90873300  0.45722000  0.29462900  1
  C  C8  1  0.59164900  0.81469500  0.88667800  1
  C  C9  1  0.09164900  0.81469500  0.61332200  1
  C  C10  1  0.59126700  0.54278000  0.79462900  1
  C  C11  1  0.09126700  0.95722000  0.79462900  1
  C  C12  1  0.09164900  0.68530500  0.88667800  1
  C  C13  1  0.40835100  0.18530500  0.11332200  1
  C  C14  1  0.90873300  0.04278000  0.20537100  1
  C  C15  1  0.59164900  0.68530500  0.61332200  1
  N  N0  1  0.08989000  0.42051200  0.67982800  1
  N  N1  1  0.90524100  0.14731400  0.46773600  1
  N  N2  1  0.91011000  0.92051200  0.17982800  1
  N  N3  1  0.90524100  0.35268600  0.03226400  1
  N  N4  1  0.58989000  0.07948800  0.67982800  1
  N  N5  1  0.09475900  0.64731400  0.96773600  1
  N  N6  1  0.59475900  0.64731400  0.53226400  1
  N  N7  1  0.91011000  0.57948800  0.32017200  1
  N  N8  1  0.59475900  0.85268600  0.96773600  1
  N  N9  1  0.58989000  0.42051200  0.82017200  1
  N  N10  1  0.08989000  0.07948800  0.82017200  1
  N  N11  1  0.40524100  0.14731400  0.03226400  1
  N  N12  1  0.40524100  0.35268600  0.46773600  1
  N  N13  1  0.41011000  0.57948800  0.17982800  1
  N  N14  1  0.09475900  0.85268600  0.53226400  1
  N  N15  1  0.41011000  0.92051200  0.32017200  1
loop_
_geom_bond_atom_site_label_1
_geom_bond_atom_site_label_2
_geom_bond_distance
_geom_bond_site_symmetry_2
K0 N3 2.753442 1_456
K0 N10 2.878779 1_555
K0 N5 2.936835 1_555
K0 N11 2.964550 1_556
K0 N9 3.070031 1_555
K0 N0 3.270318 1_555
K1 N6 2.753442 1_555
K1 N15 2.878779 1_555
K1 N12 2.936835 1_555
K1 N14 2.964550 1_555
K1 N7 3.070031 1_455
K1 N13 3.270318 1_555
K2 N5 2.753442 1_654
K2 N2 2.878779 1_555
K2 N3 2.936835 1_555
K2 N8 2.964550 1_554
K2 N13 3.070031 1_555
K2 N7 3.270318 1_555
K3 N8 2.753442 1_554
K3 N13 2.878779 1_555
K3 N11 2.936835 1_565
K3 N5 2.964550 1_554
K3 N2 3.070031 1_455
K3 N15 3.270318 1_555
K4 N11 2.753442 1_556
K4 N9 2.878779 1_555
K4 N8 2.936835 1_545
K4 N3 2.964550 1_556
K4 N10 3.070031 1_655
K4 N4 3.270318 1_555
K5 N1 2.753442 1_455
K5 N0 2.878779 1_555
K5 N14 2.936835 1_545
K5 N12 2.964550 1_555
K5 N4 3.070031 1_555
K5 N10 3.270318 1_555
K6 N14 2.753442 1_655
K6 N7 2.878779 1_555
K6 N1 2.936835 1_565
K6 N6 2.964550 1_555
K6 N15 3.070031 1_555
K6 N2 3.270318 1_555
K7 N12 2.753442 1_555
K7 N4 2.878779 1_555
K7 N6 2.936835 1_555
K7 N1 2.964550 1_555
K7 N0 3.070031 1_655
K7 N9 3.270318 1_555
C0 N15 1.175548 1_545
C0 Pt3 1.997901 1_555
C0 K3 3.354148 1_545
C1 N13 1.175548 1_555
C1 Pt3 1.997901 1_555
C1 K1 3.354148 1_555
C2 N0 1.175548 1_555
C2 Pt2 1.997901 1_555
C2 K0 3.354148 1_555
C3 N4 1.175548 1_565
C3 Pt0 1.997901 1_555
C3 K4 3.354148 1_565
C4 N3 1.174804 1_555
C4 Pt1 1.982309 1_555
C4 K2 3.155954 1_555
C5 N1 1.174804 1_555
C5 Pt1 1.982309 1_555
C5 K6 3.155954 1_545
C6 N12 1.174804 1_555
C6 Pt3 1.982309 1_555
C6 K1 3.155954 1_555
C7 N7 1.175548 1_555
C7 Pt1 1.997901 1_555
C7 K2 3.354148 1_555
C8 N8 1.174804 1_555
C8 Pt0 1.982309 1_555
C8 K4 3.155954 1_565
C9 N14 1.174804 1_555
C9 Pt2 1.982309 1_555
C9 K5 3.155954 1_565
C10 N9 1.175548 1_555
C10 Pt0 1.997901 1_555
C10 K7 3.354148 1_555
C11 N10 1.175548 1_565
C11 Pt2 1.997901 1_555
C11 K5 3.354148 1_565
C12 N5 1.174804 1_555
C12 Pt2 1.982309 1_555
C12 K0 3.155954 1_555
C13 N11 1.174804 1_555
C13 Pt3 1.982309 1_555
C13 K3 3.155954 1_545
C14 N2 1.175548 1_545
C14 Pt1 1.997901 1_555
C14 K6 3.354148 1_545
C15 N6 1.174804 1_555
C15 Pt0 1.982309 1_555
C15 K7 3.155954 1_555
