# generated using pymatgen
data_K2CoP2WO10
_symmetry_space_group_name_H-M   'P 1'
_cell_length_a   9.34917000
_cell_length_b   9.34917000
_cell_length_c   10.85535800
_cell_angle_alpha   90.00000000
_cell_angle_beta   90.00000000
_cell_angle_gamma   90.00000000
_symmetry_Int_Tables_number   1
_chemical_formula_structural   K2CoP2WO10
_chemical_formula_sum   'K8 Co4 P8 W4 O40'
_cell_volume   948.83405622
_cell_formula_units_Z   4
loop_
 _symmetry_equiv_pos_site_id
 _symmetry_equiv_pos_as_xyz
  1  'x, y, z'
loop_
 _atom_site_type_symbol
 _atom_site_label
 _atom_site_symmetry_multiplicity
 _atom_site_fract_x
 _atom_site_fract_y
 _atom_site_fract_z
 _atom_site_occupancy
  K  K0  1  0.70246200  0.00290600  0.92868500  1
  K  K1  1  0.29753800  0.99709400  0.42868500  1
  K  K2  1  0.79753800  0.50290600  0.32131500  1
  K  K3  1  0.20246200  0.49709400  0.82131500  1
  K  K4  1  0.99709400  0.29753800  0.57131500  1
  K  K5  1  0.49709400  0.20246200  0.17868500  1
  K  K6  1  0.00290600  0.70246200  0.07131500  1
  K  K7  1  0.50290600  0.79753800  0.67868500  1
  Co  Co0  1  0.86270100  0.13729900  0.25000000  1
  Co  Co1  1  0.63729900  0.63729900  0.00000000  1
  Co  Co2  1  0.36270100  0.36270100  0.50000000  1
  Co  Co3  1  0.13729900  0.86270100  0.75000000  1
  P  P0  1  0.67658100  0.83002700  0.25206100  1
  P  P1  1  0.66997300  0.17658100  0.50206100  1
  P  P2  1  0.82341900  0.33002700  0.99793900  1
  P  P3  1  0.32341900  0.16997300  0.75206100  1
  P  P4  1  0.83002700  0.67658100  0.74793900  1
  P  P5  1  0.16997300  0.32341900  0.24793900  1
  P  P6  1  0.33002700  0.82341900  0.00206100  1
  P  P7  1  0.17658100  0.66997300  0.49793900  1
  W  W0  1  0.38837600  0.61162400  0.25000000  1
  W  W1  1  0.61162400  0.38837600  0.75000000  1
  W  W2  1  0.88837600  0.88837600  0.50000000  1
  W  W3  1  0.11162400  0.11162400  0.00000000  1
  O  O0  1  0.78278600  0.75918300  0.62830000  1
  O  O1  1  0.00475100  0.95618100  0.61963700  1
  O  O2  1  0.25918300  0.71721400  0.37830000  1
  O  O3  1  0.95618100  0.00475100  0.38036300  1
  O  O4  1  0.21714600  0.48456800  0.22119000  1
  O  O5  1  0.74081700  0.28278600  0.87830000  1
  O  O6  1  0.54381900  0.50475100  0.86963700  1
  O  O7  1  0.23827400  0.75666300  0.60587100  1
  O  O8  1  0.98456800  0.28285400  0.97119000  1
  O  O9  1  0.78285400  0.51543200  0.72119000  1
  O  O10  1  0.31883900  0.00893400  0.73191600  1
  O  O11  1  0.26172600  0.25666300  0.64412900  1
  O  O12  1  0.28285400  0.98456800  0.02881000  1
  O  O13  1  0.49524900  0.45618100  0.63036300  1
  O  O14  1  0.71721400  0.25918300  0.62170000  1
  O  O15  1  0.51543200  0.78285400  0.27881000  1
  O  O16  1  0.49106600  0.81883900  0.98191600  1
  O  O17  1  0.24081700  0.21721400  0.87170000  1
  O  O18  1  0.21721400  0.24081700  0.12830000  1
  O  O19  1  0.45618100  0.49524900  0.36963700  1
  O  O20  1  0.04381900  0.99524900  0.88036300  1
  O  O21  1  0.75666300  0.23827400  0.39412900  1
  O  O22  1  0.18116100  0.50893400  0.51808400  1
  O  O23  1  0.01543200  0.71714600  0.47119000  1
  O  O24  1  0.25666300  0.26172600  0.35587100  1
  O  O25  1  0.00893400  0.31883900  0.26808400  1
  O  O26  1  0.71714600  0.01543200  0.52881000  1
  O  O27  1  0.81883900  0.49106600  0.01808400  1
  O  O28  1  0.68116100  0.99106600  0.23191600  1
  O  O29  1  0.76172600  0.24333700  0.10587100  1
  O  O30  1  0.75918300  0.78278600  0.37170000  1
  O  O31  1  0.28278600  0.74081700  0.12170000  1
  O  O32  1  0.99106600  0.68116100  0.76808400  1
  O  O33  1  0.99524900  0.04381900  0.11963700  1
  O  O34  1  0.24333700  0.76172600  0.89412900  1
  O  O35  1  0.50475100  0.54381900  0.13036300  1
  O  O36  1  0.74333700  0.73827400  0.85587100  1
  O  O37  1  0.73827400  0.74333700  0.14412900  1
  O  O38  1  0.50893400  0.18116100  0.48191600  1
  O  O39  1  0.48456800  0.21714600  0.77881000  1
loop_
_geom_bond_atom_site_label_1
_geom_bond_atom_site_label_2
_geom_bond_distance
_geom_bond_site_symmetry_2
K0 O36 2.625247 1_545
K0 O16 2.683538 1_545
K0 O5 2.697141 1_555
K1 O24 2.625247 1_565
K1 O38 2.683538 1_565
K1 O2 2.697141 1_555
K2 O21 2.625247 1_555
K2 O25 2.683538 1_655
K2 O30 2.697141 1_555
K3 O34 2.625247 1_555
K3 O32 2.683538 1_455
K3 O17 2.697141 1_555
K4 O11 2.625247 1_655
K4 O22 2.683538 1_655
K4 O14 2.697141 1_555
K5 O29 2.625247 1_555
K5 O28 2.683538 1_545
K5 O18 2.697141 1_555
K6 O37 2.625247 1_455
K6 O27 2.683538 1_455
K6 O31 2.697141 1_555
K7 O7 2.625247 1_555
K7 O10 2.683538 1_565
K7 O0 2.697141 1_555
Co0 O3 2.074143 1_555
Co0 O33 2.074143 1_555
Co0 O29 2.078916 1_555
Co0 O21 2.078916 1_555
Co0 O25 2.188220 1_655
Co0 O28 2.188220 1_545
Co1 O6 2.074143 1_554
Co1 O35 2.074143 1_555
Co1 O36 2.078916 1_554
Co1 O37 2.078916 1_555
Co1 O16 2.188220 1_554
Co1 O27 2.188220 1_555
Co2 O13 2.074143 1_555
Co2 O19 2.074143 1_555
Co2 O11 2.078916 1_555
Co2 O24 2.078916 1_555
Co2 O38 2.188220 1_555
Co2 O22 2.188220 1_555
Co3 O1 2.074143 1_555
Co3 O20 2.074143 1_555
Co3 O7 2.078916 1_555
Co3 O34 2.078916 1_555
Co3 O10 2.188220 1_565
Co3 O32 2.188220 1_455
O0 P4 1.574210 1_555
O0 W2 2.091207 1_555
O1 W2 1.808936 1_455
O2 P7 1.574210 1_555
O2 W0 2.091207 1_555
O3 W2 1.808936 1_545
O4 P5 1.596463 1_555
O4 W0 2.017817 1_555
O5 P2 1.574210 1_555
O5 W1 2.091207 1_555
O6 W1 1.808936 1_555
O7 P7 1.536975 1_555
O8 P2 1.596463 1_555
O8 W3 2.017817 1_656
O9 P4 1.596463 1_555
O9 W1 2.017817 1_555
O10 P3 1.521982 1_555
O11 P3 1.536975 1_555
O12 P6 1.596463 1_555
O12 W3 2.017817 1_565
O13 W1 1.808936 1_555
O14 P1 1.574210 1_555
O14 W1 2.091207 1_555
O15 P0 1.596463 1_555
O15 W0 2.017817 1_555
O16 P6 1.521982 1_556
O17 P3 1.574210 1_555
O17 W3 2.091207 1_556
O18 P5 1.574210 1_555
O18 W3 2.091207 1_555
O19 W0 1.808936 1_555
O20 W3 1.808936 1_566
O21 P1 1.536975 1_555
O22 P7 1.521982 1_555
O23 P7 1.596463 1_555
O23 W2 2.017817 1_455
O24 P5 1.536975 1_555
O25 P5 1.521982 1_555
O26 P1 1.596463 1_555
O26 W2 2.017817 1_545
O27 P2 1.521982 1_554
O28 P0 1.521982 1_555
O29 P2 1.536975 1_554
O30 P0 1.574210 1_555
O30 W2 2.091207 1_555
O31 P6 1.574210 1_555
O31 W0 2.091207 1_555
O32 P4 1.521982 1_555
O33 W3 1.808936 1_655
O34 P6 1.536975 1_556
O35 W0 1.808936 1_555
O36 P4 1.536975 1_555
O37 P0 1.536975 1_555
O38 P1 1.521982 1_555
O39 P3 1.596463 1_555
O39 W1 2.017817 1_555
