# generated using pymatgen
data_K3Mo3Se14
_symmetry_space_group_name_H-M   'P 1'
_cell_length_a   15.15262986
_cell_length_b   15.15263028
_cell_length_c   20.84948366
_cell_angle_alpha   90.00000000
_cell_angle_beta   90.00000000
_cell_angle_gamma   106.70805539
_symmetry_Int_Tables_number   1
_chemical_formula_structural   K3Mo3Se14
_chemical_formula_sum   'K24 Mo24 Se112'
_cell_volume   4584.98642748
_cell_formula_units_Z   8
loop_
 _symmetry_equiv_pos_site_id
 _symmetry_equiv_pos_as_xyz
  1  'x, y, z'
loop_
 _atom_site_type_symbol
 _atom_site_label
 _atom_site_symmetry_multiplicity
 _atom_site_fract_x
 _atom_site_fract_y
 _atom_site_fract_z
 _atom_site_occupancy
  K  K0  1  0.80755439  0.55606949  0.61912987  1
  K  K1  1  0.33769657  0.58488725  0.32956805  1
  K  K2  1  0.94423275  0.68674746  0.12264225  1
  K  K3  1  0.51848529  0.51848529  0.09439476  1
  K  K4  1  0.19244561  0.44393051  0.11912987  1
  K  K5  1  0.97103086  0.47543355  0.33970078  1
  K  K6  1  0.82028909  0.06345873  0.36056422  1
  K  K7  1  0.47543355  0.97103086  0.33970078  1
  K  K8  1  0.66230343  0.41511275  0.82956805  1
  K  K9  1  0.31325254  0.05576725  0.62264225  1
  K  K10  1  0.52456645  0.02896914  0.83970078  1
  K  K11  1  0.93654127  0.17971091  0.86056422  1
  K  K12  1  0.48151471  0.48151471  0.59439476  1
  K  K13  1  0.05576725  0.31325254  0.62264225  1
  K  K14  1  0.96642537  0.96642537  0.63464040  1
  K  K15  1  0.02896914  0.52456645  0.83970078  1
  K  K16  1  0.68674746  0.94423275  0.12264225  1
  K  K17  1  0.41511275  0.66230343  0.82956805  1
  K  K18  1  0.17971091  0.93654127  0.86056422  1
  K  K19  1  0.55606949  0.80755439  0.61912987  1
  K  K20  1  0.58488725  0.33769657  0.32956805  1
  K  K21  1  0.06345873  0.82028909  0.36056422  1
  K  K22  1  0.44393051  0.19244561  0.11912987  1
  K  K23  1  0.03357463  0.03357463  0.13464040  1
  Mo  Mo0  1  0.29055343  0.17799486  0.39172476  1
  Mo  Mo1  1  0.76281522  0.25575477  0.18652584  1
  Mo  Mo2  1  0.75165662  0.63682629  0.39400981  1
  Mo  Mo3  1  0.74424523  0.23718478  0.68652584  1
  Mo  Mo4  1  0.17799486  0.29055343  0.39172476  1
  Mo  Mo5  1  0.23718478  0.74424523  0.68652584  1
  Mo  Mo6  1  0.75022578  0.75022578  0.28937410  1
  Mo  Mo7  1  0.14096206  0.76779785  0.57737141  1
  Mo  Mo8  1  0.35196397  0.74914227  0.07409988  1
  Mo  Mo9  1  0.25479620  0.25479620  0.27747170  1
  Mo  Mo10  1  0.70944657  0.82200514  0.89172476  1
  Mo  Mo11  1  0.85903794  0.23220215  0.07737141  1
  Mo  Mo12  1  0.23220215  0.85903794  0.07737141  1
  Mo  Mo13  1  0.24834338  0.36317371  0.89400981  1
  Mo  Mo14  1  0.25085773  0.64803603  0.57409988  1
  Mo  Mo15  1  0.74914227  0.35196397  0.07409988  1
  Mo  Mo16  1  0.24977422  0.24977422  0.78937410  1
  Mo  Mo17  1  0.74520380  0.74520380  0.77747170  1
  Mo  Mo18  1  0.36317371  0.24834338  0.89400981  1
  Mo  Mo19  1  0.82200514  0.70944657  0.89172476  1
  Mo  Mo20  1  0.76779785  0.14096206  0.57737141  1
  Mo  Mo21  1  0.63682629  0.75165662  0.39400981  1
  Mo  Mo22  1  0.64803603  0.25085773  0.57409988  1
  Mo  Mo23  1  0.25575477  0.76281522  0.18652584  1
  Se  Se0  1  0.42382217  0.42382217  0.90515376  1
  Se  Se1  1  0.19005867  0.19005867  0.89878470  1
  Se  Se2  1  0.65217557  0.65217557  0.86727240  1
  Se  Se3  1  0.12367503  0.12367503  0.72525384  1
  Se  Se4  1  0.34782443  0.34782443  0.36727240  1
  Se  Se5  1  0.69013655  0.17222186  0.47029370  1
  Se  Se6  1  0.29347831  0.42601475  0.77954269  1
  Se  Se7  1  0.37932093  0.16254919  0.28550013  1
  Se  Se8  1  0.17951200  0.44619694  0.44482801  1
  Se  Se9  1  0.13299213  0.91280719  0.51012577  1
  Se  Se10  1  0.81210947  0.43175665  0.18138281  1
  Se  Se11  1  0.52402832  0.74849462  0.04956861  1
  Se  Se12  1  0.98917257  0.79931513  0.53039082  1
  Se  Se13  1  0.73804414  0.22991285  0.81489845  1
  Se  Se14  1  0.47937213  0.47937213  0.76902372  1
  Se  Se15  1  0.07876263  0.21211121  0.29662570  1
  Se  Se16  1  0.03422576  0.33171020  0.44875799  1
  Se  Se17  1  0.31456122  0.82133842  0.58553041  1
  Se  Se18  1  0.96577424  0.66828980  0.94875799  1
  Se  Se19  1  0.64957717  0.35913922  0.67289840  1
  Se  Se20  1  0.76347285  0.76347285  0.64901047  1
  Se  Se21  1  0.14560033  0.86878888  0.68183206  1
  Se  Se22  1  0.00502189  0.51269031  0.67473886  1
  Se  Se23  1  0.40349544  0.92206527  0.05134885  1
  Se  Se24  1  0.52566139  0.22547141  0.93418297  1
  Se  Se25  1  0.57398525  0.70652169  0.27954269  1
  Se  Se26  1  0.64086078  0.35042283  0.17289840  1
  Se  Se27  1  0.23467114  0.23467114  0.49791794  1
  Se  Se28  1  0.79931513  0.98917257  0.53039082  1
  Se  Se29  1  0.65616041  0.87202463  0.29975403  1
  Se  Se30  1  0.76532886  0.76532886  0.99791794  1
  Se  Se31  1  0.01082743  0.20068487  0.03039082  1
  Se  Se32  1  0.30986345  0.82777814  0.97029370  1
  Se  Se33  1  0.47597168  0.25150538  0.54956861  1
  Se  Se34  1  0.35913922  0.64957717  0.67289840  1
  Se  Se35  1  0.62067907  0.83745081  0.78550013  1
  Se  Se36  1  0.59650456  0.07793473  0.55134885  1
  Se  Se37  1  0.34335009  0.34335009  0.99658395  1
  Se  Se38  1  0.70652169  0.57398525  0.27954269  1
  Se  Se39  1  0.93916296  0.29550944  0.18313907  1
  Se  Se40  1  0.26195586  0.77008715  0.31489845  1
  Se  Se41  1  0.17866158  0.68543878  0.08553041  1
  Se  Se42  1  0.77008715  0.26195586  0.31489845  1
  Se  Se43  1  0.08719281  0.86700787  0.01012577  1
  Se  Se44  1  0.78788879  0.92123737  0.79662570  1
  Se  Se45  1  0.80994133  0.80994133  0.39878470  1
  Se  Se46  1  0.34383959  0.12797537  0.79975403  1
  Se  Se47  1  0.91280719  0.13299213  0.51012577  1
  Se  Se48  1  0.85439967  0.13121112  0.18183206  1
  Se  Se49  1  0.06083704  0.70449056  0.68313907  1
  Se  Se50  1  0.76554171  0.76554171  0.16333693  1
  Se  Se51  1  0.66828980  0.96577424  0.94875799  1
  Se  Se52  1  0.97071999  0.97071999  0.82227201  1
  Se  Se53  1  0.92123737  0.78788879  0.79662570  1
  Se  Se54  1  0.29550944  0.93916296  0.18313907  1
  Se  Se55  1  0.22547141  0.52566139  0.93418297  1
  Se  Se56  1  0.18789053  0.56824335  0.68138281  1
  Se  Se57  1  0.55380306  0.82048800  0.94482801  1
  Se  Se58  1  0.12797537  0.34383959  0.79975403  1
  Se  Se59  1  0.87632497  0.87632497  0.22525384  1
  Se  Se60  1  0.38942034  0.63495945  0.49710008  1
  Se  Se61  1  0.77452859  0.47433861  0.43418297  1
  Se  Se62  1  0.21211121  0.07876263  0.29662570  1
  Se  Se63  1  0.35042283  0.64086078  0.17289840  1
  Se  Se64  1  0.88481528  0.62127412  0.46976982  1
  Se  Se65  1  0.92206527  0.40349544  0.05134885  1
  Se  Se66  1  0.37872588  0.11518472  0.96976982  1
  Se  Se67  1  0.83745081  0.62067907  0.78550013  1
  Se  Se68  1  0.86700787  0.08719281  0.01012577  1
  Se  Se69  1  0.42601475  0.29347831  0.77954269  1
  Se  Se70  1  0.57617783  0.57617783  0.40515376  1
  Se  Se71  1  0.33171020  0.03422576  0.44875799  1
  Se  Se72  1  0.64739339  0.14520487  0.26680330  1
  Se  Se73  1  0.51269031  0.00502189  0.67473886  1
  Se  Se74  1  0.35972740  0.35972740  0.19031513  1
  Se  Se75  1  0.22991285  0.73804414  0.81489845  1
  Se  Se76  1  0.70449056  0.06083704  0.68313907  1
  Se  Se77  1  0.20068487  0.01082743  0.03039082  1
  Se  Se78  1  0.68543878  0.17866158  0.08553041  1
  Se  Se79  1  0.85479513  0.35260661  0.76680330  1
  Se  Se80  1  0.44619694  0.17951200  0.44482801  1
  Se  Se81  1  0.82133842  0.31456122  0.58553041  1
  Se  Se82  1  0.86878888  0.14560033  0.68183206  1
  Se  Se83  1  0.63495945  0.38942034  0.49710008  1
  Se  Se84  1  0.35260661  0.85479513  0.76680330  1
  Se  Se85  1  0.23445829  0.23445829  0.66333693  1
  Se  Se86  1  0.62127412  0.88481528  0.46976982  1
  Se  Se87  1  0.65664991  0.65664991  0.49658395  1
  Se  Se88  1  0.64027260  0.64027260  0.69031513  1
  Se  Se89  1  0.23652715  0.23652715  0.14901047  1
  Se  Se90  1  0.25150538  0.47597168  0.54956861  1
  Se  Se91  1  0.47433861  0.77452859  0.43418297  1
  Se  Se92  1  0.02928001  0.02928001  0.32227201  1
  Se  Se93  1  0.48730969  0.99497811  0.17473886  1
  Se  Se94  1  0.61057966  0.36504055  0.99710008  1
  Se  Se95  1  0.43175665  0.81210947  0.18138281  1
  Se  Se96  1  0.74849462  0.52402832  0.04956861  1
  Se  Se97  1  0.52062787  0.52062787  0.26902372  1
  Se  Se98  1  0.87202463  0.65616041  0.29975403  1
  Se  Se99  1  0.11518472  0.37872588  0.96976982  1
  Se  Se100  1  0.56824335  0.18789053  0.68138281  1
  Se  Se101  1  0.14520487  0.64739339  0.26680330  1
  Se  Se102  1  0.99497811  0.48730969  0.17473886  1
  Se  Se103  1  0.17222186  0.69013655  0.47029370  1
  Se  Se104  1  0.12368314  0.12368314  0.43169538  1
  Se  Se105  1  0.13121112  0.85439967  0.18183206  1
  Se  Se106  1  0.82048800  0.55380306  0.94482801  1
  Se  Se107  1  0.82777814  0.30986345  0.97029370  1
  Se  Se108  1  0.87631686  0.87631686  0.93169538  1
  Se  Se109  1  0.07793473  0.59650456  0.55134885  1
  Se  Se110  1  0.36504055  0.61057966  0.99710008  1
  Se  Se111  1  0.16254919  0.37932093  0.28550013  1
loop_
_geom_bond_atom_site_label_1
_geom_bond_atom_site_label_2
_geom_bond_distance
_geom_bond_site_symmetry_2
K0 Se64 3.373300 1_555
K0 Se19 3.432787 1_555
K0 Se22 3.443857 1_655
K0 Se20 3.452230 1_555
K0 Se88 3.480700 1_555
K0 Se67 3.597329 1_555
K0 Se81 3.790210 1_555
K1 Se40 3.337316 1_555
K1 Se63 3.366362 1_555
K1 Se97 3.431735 1_555
K1 Se101 3.564468 1_555
K1 Se111 3.582841 1_555
K1 Se8 3.611123 1_555
K1 Se60 3.612306 1_555
K1 Se25 3.675554 1_555
K1 Se4 3.723152 1_555
K1 Se91 3.725691 1_555
K2 Se50 3.366823 1_555
K2 Se105 3.444574 1_655
K2 Se102 3.498525 1_555
K2 Se96 3.604509 1_555
K2 Se41 3.641129 1_655
K2 Se18 3.657972 1_554
K2 Se43 3.775490 1_655
K2 Se98 3.841397 1_555
K3 Se74 3.499423 1_555
K3 Se96 3.585967 1_555
K3 Se11 3.585967 1_555
K3 Se97 3.641130 1_555
K3 Se110 3.651574 1_554
K3 Se94 3.651574 1_554
K3 Se37 3.767533 1_554
K3 Se63 3.913791 1_555
K3 Se26 3.913791 1_555
K4 Se99 3.373300 1_554
K4 Se63 3.432787 1_555
K4 Se102 3.443857 1_455
K4 Se89 3.452230 1_555
K4 Se74 3.480700 1_555
K4 Se111 3.597329 1_555
K4 Se41 3.790210 1_555
K5 Se102 3.457713 1_555
K5 Se16 3.468267 1_655
K5 Se101 3.480036 1_655
K5 Se61 3.566239 1_555
K5 Se98 3.578523 1_555
K5 Se111 3.774886 1_655
K5 Se42 3.786654 1_555
K6 Se42 3.441991 1_555
K6 Se92 3.446305 1_655
K6 Se47 3.456847 1_555
K6 Se29 3.472573 1_545
K6 Se28 3.701296 1_545
K6 Se5 3.702476 1_555
K6 Se72 3.753023 1_555
K6 Se48 3.860390 1_555
K6 Se45 3.882016 1_545
K7 Se93 3.457713 1_555
K7 Se71 3.468266 1_565
K7 Se72 3.480036 1_565
K7 Se91 3.566239 1_555
K7 Se29 3.578523 1_555
K7 Se7 3.774886 1_565
K7 Se40 3.786654 1_555
K8 Se13 3.337316 1_555
K8 Se19 3.366362 1_555
K8 Se14 3.431735 1_555
K8 Se79 3.564468 1_555
K8 Se67 3.582841 1_555
K8 Se106 3.611123 1_555
K8 Se94 3.612306 1_555
K8 Se69 3.675554 1_555
K8 Se2 3.723152 1_555
K8 Se24 3.725691 1_555
K9 Se85 3.366823 1_555
K9 Se21 3.444574 1_545
K9 Se73 3.498525 1_555
K9 Se33 3.604509 1_555
K9 Se17 3.641130 1_545
K9 Se71 3.657972 1_555
K9 Se9 3.775490 1_545
K9 Se46 3.841397 1_555
K10 Se73 3.457713 1_555
K10 Se51 3.468266 1_545
K10 Se84 3.480036 1_545
K10 Se24 3.566239 1_555
K10 Se46 3.578523 1_555
K10 Se35 3.774886 1_545
K10 Se13 3.786654 1_555
K11 Se13 3.441991 1_555
K11 Se52 3.446305 1_545
K11 Se68 3.456847 1_556
K11 Se58 3.472573 1_655
K11 Se31 3.701296 1_656
K11 Se107 3.702476 1_555
K11 Se79 3.753023 1_555
K11 Se82 3.860390 1_555
K11 Se1 3.882016 1_655
K12 Se88 3.499423 1_555
K12 Se90 3.585967 1_555
K12 Se33 3.585967 1_555
K12 Se14 3.641130 1_555
K12 Se83 3.651574 1_555
K12 Se60 3.651574 1_555
K12 Se87 3.767533 1_555
K12 Se19 3.913791 1_555
K12 Se34 3.913791 1_555
K13 Se85 3.366823 1_555
K13 Se82 3.444574 1_455
K13 Se22 3.498525 1_555
K13 Se90 3.604509 1_555
K13 Se81 3.641129 1_455
K13 Se16 3.657972 1_555
K13 Se47 3.775490 1_455
K13 Se58 3.841397 1_555
K14 Se3 3.414631 1_665
K14 Se28 3.428819 1_555
K14 Se12 3.428819 1_555
K14 Se21 3.582944 1_655
K14 Se82 3.582944 1_565
K14 Se20 3.683265 1_555
K14 Se9 3.866381 1_655
K14 Se47 3.866381 1_565
K14 Se52 3.912793 1_555
K15 Se22 3.457713 1_555
K15 Se18 3.468267 1_455
K15 Se79 3.480036 1_455
K15 Se55 3.566239 1_555
K15 Se58 3.578523 1_555
K15 Se67 3.774886 1_455
K15 Se75 3.786654 1_555
K16 Se50 3.366823 1_555
K16 Se48 3.444574 1_565
K16 Se93 3.498525 1_555
K16 Se11 3.604509 1_555
K16 Se78 3.641130 1_565
K16 Se51 3.657972 1_554
K16 Se68 3.775490 1_565
K16 Se29 3.841397 1_555
K17 Se75 3.337316 1_555
K17 Se34 3.366362 1_555
K17 Se14 3.431735 1_555
K17 Se84 3.564468 1_555
K17 Se35 3.582841 1_555
K17 Se57 3.611123 1_555
K17 Se110 3.612306 1_555
K17 Se6 3.675554 1_555
K17 Se2 3.723152 1_555
K17 Se55 3.725691 1_555
K18 Se75 3.441991 1_555
K18 Se52 3.446305 1_455
K18 Se43 3.456847 1_556
K18 Se46 3.472573 1_565
K18 Se77 3.701296 1_566
K18 Se32 3.702476 1_555
K18 Se84 3.753023 1_555
K18 Se21 3.860390 1_555
K18 Se1 3.882016 1_565
K19 Se86 3.373300 1_555
K19 Se34 3.432787 1_555
K19 Se73 3.443857 1_565
K19 Se20 3.452230 1_555
K19 Se88 3.480700 1_555
K19 Se35 3.597329 1_555
K19 Se17 3.790209 1_555
K20 Se42 3.337316 1_555
K20 Se26 3.366362 1_555
K20 Se97 3.431735 1_555
K20 Se72 3.564468 1_555
K20 Se7 3.582841 1_555
K20 Se80 3.611123 1_555
K20 Se83 3.612306 1_555
K20 Se38 3.675554 1_555
K20 Se4 3.723152 1_555
K20 Se61 3.725691 1_555
K21 Se40 3.441991 1_555
K21 Se92 3.446305 1_565
K21 Se9 3.456847 1_555
K21 Se98 3.472573 1_455
K21 Se12 3.701296 1_455
K21 Se103 3.702476 1_555
K21 Se101 3.753023 1_555
K21 Se105 3.860390 1_555
K21 Se45 3.882016 1_455
K22 Se66 3.373300 1_554
K22 Se26 3.432787 1_555
K22 Se93 3.443857 1_545
K22 Se89 3.452230 1_555
K22 Se74 3.480700 1_555
K22 Se7 3.597329 1_555
K22 Se78 3.790209 1_555
K23 Se59 3.414631 1_445
K23 Se77 3.428819 1_555
K23 Se31 3.428819 1_555
K23 Se48 3.582944 1_455
K23 Se105 3.582944 1_545
K23 Se89 3.683265 1_555
K23 Se68 3.866381 1_455
K23 Se43 3.866381 1_545
K23 Se92 3.912793 1_555
Mo0 Se4 2.520149 1_555
Mo0 Se104 2.562950 1_555
Mo0 Se62 2.564646 1_555
Mo0 Se80 2.599477 1_555
Mo0 Se27 2.602842 1_555
Mo0 Se7 2.636285 1_555
Mo0 Se71 2.707370 1_555
Mo1 Se78 2.527000 1_555
Mo1 Se10 2.556627 1_555
Mo1 Se39 2.565659 1_555
Mo1 Se72 2.642293 1_555
Mo1 Se48 2.646251 1_555
Mo1 Se26 2.660350 1_555
Mo1 Se42 2.679307 1_555
Mo2 Se45 2.517684 1_555
Mo2 Se70 2.561952 1_555
Mo2 Se38 2.587615 1_555
Mo2 Se64 2.625845 1_555
Mo2 Se98 2.639531 1_555
Mo2 Se87 2.642917 1_555
Mo2 Se61 2.715570 1_555
Mo3 Se81 2.527000 1_555
Mo3 Se100 2.556627 1_555
Mo3 Se76 2.565659 1_555
Mo3 Se79 2.642293 1_555
Mo3 Se82 2.646251 1_555
Mo3 Se19 2.660350 1_555
Mo3 Se13 2.679307 1_555
Mo4 Se4 2.520149 1_555
Mo4 Se104 2.562950 1_555
Mo4 Se15 2.564646 1_555
Mo4 Se8 2.599477 1_555
Mo4 Se27 2.602842 1_555
Mo4 Se111 2.636285 1_555
Mo4 Se16 2.707370 1_555
Mo5 Se17 2.527000 1_555
Mo5 Se56 2.556627 1_555
Mo5 Se49 2.565659 1_555
Mo5 Se84 2.642293 1_555
Mo5 Se21 2.646251 1_555
Mo5 Se34 2.660350 1_555
Mo5 Se75 2.679307 1_555
Mo6 Se45 2.523963 1_555
Mo6 Se25 2.568134 1_555
Mo6 Se38 2.568134 1_555
Mo6 Se50 2.642373 1_555
Mo6 Se59 2.643825 1_555
Mo6 Se98 2.645206 1_555
Mo6 Se29 2.645206 1_555
Mo7 Se17 2.525766 1_555
Mo7 Se109 2.553037 1_555
Mo7 Se49 2.566612 1_555
Mo7 Se103 2.629407 1_555
Mo7 Se9 2.638347 1_555
Mo7 Se21 2.651099 1_555
Mo7 Se12 2.666300 1_455
Mo8 Se41 2.535128 1_555
Mo8 Se23 2.554201 1_555
Mo8 Se95 2.590778 1_555
Mo8 Se63 2.629402 1_555
Mo8 Se32 2.635908 1_554
Mo8 Se11 2.659707 1_555
Mo8 Se110 2.695194 1_554
Mo9 Se4 2.517349 1_555
Mo9 Se15 2.588571 1_555
Mo9 Se62 2.588571 1_555
Mo9 Se74 2.627660 1_555
Mo9 Se7 2.656809 1_555
Mo9 Se111 2.656809 1_555
Mo9 Se89 2.698659 1_555
Mo10 Se2 2.520149 1_555
Mo10 Se108 2.562950 1_555
Mo10 Se44 2.564646 1_555
Mo10 Se57 2.599477 1_555
Mo10 Se30 2.602842 1_555
Mo10 Se35 2.636285 1_555
Mo10 Se51 2.707370 1_555
Mo11 Se78 2.525766 1_555
Mo11 Se65 2.553037 1_555
Mo11 Se39 2.566612 1_555
Mo11 Se107 2.629407 1_554
Mo11 Se68 2.638347 1_555
Mo11 Se48 2.651099 1_555
Mo11 Se31 2.666300 1_655
Mo12 Se41 2.525766 1_555
Mo12 Se23 2.553037 1_555
Mo12 Se54 2.566612 1_555
Mo12 Se32 2.629407 1_554
Mo12 Se43 2.638347 1_555
Mo12 Se105 2.651099 1_555
Mo12 Se77 2.666301 1_565
Mo13 Se1 2.517684 1_555
Mo13 Se0 2.561952 1_555
Mo13 Se6 2.587615 1_555
Mo13 Se99 2.625845 1_555
Mo13 Se58 2.639531 1_555
Mo13 Se37 2.642917 1_555
Mo13 Se55 2.715570 1_555
Mo14 Se17 2.535128 1_555
Mo14 Se109 2.554201 1_555
Mo14 Se56 2.590778 1_555
Mo14 Se34 2.629402 1_555
Mo14 Se103 2.635908 1_555
Mo14 Se90 2.659707 1_555
Mo14 Se60 2.695194 1_555
Mo15 Se78 2.535128 1_555
Mo15 Se65 2.554201 1_555
Mo15 Se10 2.590778 1_555
Mo15 Se26 2.629402 1_555
Mo15 Se107 2.635908 1_554
Mo15 Se96 2.659707 1_555
Mo15 Se94 2.695194 1_554
Mo16 Se1 2.523963 1_555
Mo16 Se69 2.568134 1_555
Mo16 Se6 2.568134 1_555
Mo16 Se85 2.642373 1_555
Mo16 Se3 2.643825 1_555
Mo16 Se58 2.645206 1_555
Mo16 Se46 2.645206 1_555
Mo17 Se2 2.517349 1_555
Mo17 Se53 2.588571 1_555
Mo17 Se44 2.588571 1_555
Mo17 Se88 2.627660 1_555
Mo17 Se35 2.656809 1_555
Mo17 Se67 2.656809 1_555
Mo17 Se20 2.698659 1_555
Mo18 Se1 2.517684 1_555
Mo18 Se0 2.561952 1_555
Mo18 Se69 2.587615 1_555
Mo18 Se66 2.625845 1_555
Mo18 Se46 2.639531 1_555
Mo18 Se37 2.642917 1_555
Mo18 Se24 2.715570 1_555
Mo19 Se2 2.520149 1_555
Mo19 Se108 2.562950 1_555
Mo19 Se53 2.564646 1_555
Mo19 Se106 2.599477 1_555
Mo19 Se30 2.602842 1_555
Mo19 Se67 2.636285 1_555
Mo19 Se18 2.707370 1_555
Mo20 Se81 2.525766 1_555
Mo20 Se36 2.553037 1_555
Mo20 Se76 2.566612 1_555
Mo20 Se5 2.629407 1_555
Mo20 Se47 2.638347 1_555
Mo20 Se82 2.651099 1_555
Mo20 Se28 2.666301 1_545
Mo21 Se45 2.517684 1_555
Mo21 Se70 2.561952 1_555
Mo21 Se25 2.587615 1_555
Mo21 Se86 2.625845 1_555
Mo21 Se29 2.639531 1_555
Mo21 Se87 2.642917 1_555
Mo21 Se91 2.715570 1_555
Mo22 Se81 2.535128 1_555
Mo22 Se36 2.554201 1_555
Mo22 Se100 2.590778 1_555
Mo22 Se19 2.629402 1_555
Mo22 Se5 2.635908 1_555
Mo22 Se33 2.659707 1_555
Mo22 Se83 2.695194 1_555
Mo23 Se41 2.527000 1_555
Mo23 Se95 2.556627 1_555
Mo23 Se54 2.565659 1_555
Mo23 Se101 2.642293 1_555
Mo23 Se105 2.646251 1_555
Mo23 Se63 2.660350 1_555
Mo23 Se40 2.679307 1_555
Se0 Se37 2.398467 1_555
Se0 Se14 3.010854 1_555
Se3 Se85 2.383703 1_555
Se8 Se90 2.424773 1_555
Se10 Se26 2.538640 1_555
Se10 Se102 2.657953 1_555
Se11 Se57 2.424773 1_554
Se11 Se110 2.910806 1_554
Se12 Se9 2.393771 1_655
Se12 Se64 2.987160 1_555
Se13 Se79 2.387559 1_555
Se14 Se6 2.706762 1_555
Se14 Se69 2.706762 1_555
Se15 Se92 2.707158 1_555
Se16 Se8 2.380484 1_555
Se20 Se88 2.389090 1_555
Se21 Se49 2.451469 1_555
Se22 Se56 2.657953 1_555
Se22 Se49 2.789104 1_555
Se23 Se32 2.396778 1_554
Se23 Se93 2.940259 1_555
Se24 Se66 2.482126 1_555
Se24 Se94 2.506858 1_555
Se25 Se29 2.494317 1_555
Se25 Se97 2.706762 1_555
Se28 Se47 2.393771 1_565
Se28 Se86 2.987160 1_555
Se31 Se68 2.393771 1_455
Se31 Se99 2.987160 1_554
Se33 Se80 2.424773 1_555
Se33 Se83 2.910806 1_555
Se34 Se56 2.538640 1_555
Se35 Se44 2.497108 1_555
Se36 Se5 2.396778 1_555
Se36 Se73 2.940259 1_555
Se38 Se98 2.494317 1_555
Se38 Se97 2.706762 1_555
Se39 Se48 2.451469 1_555
Se42 Se72 2.387559 1_555
Se43 Se77 2.393771 1_565
Se44 Se52 2.707158 1_555
Se46 Se69 2.494317 1_555
Se50 Se59 2.383703 1_555
Se51 Se57 2.380484 1_555
Se52 Se53 2.707158 1_555
Se53 Se67 2.497108 1_555
Se54 Se93 2.789104 1_555
Se55 Se99 2.482126 1_555
Se58 Se6 2.494317 1_555
Se60 Se91 2.506858 1_555
Se60 Se90 2.910806 1_555
Se61 Se64 2.482126 1_555
Se61 Se83 2.506858 1_555
Se62 Se7 2.497108 1_555
Se62 Se92 2.707158 1_555
Se63 Se95 2.538640 1_555
Se66 Se77 2.987160 1_556
Se70 Se87 2.398467 1_555
Se70 Se97 3.010854 1_555
Se71 Se80 2.380484 1_555
Se73 Se76 2.789104 1_555
Se74 Se89 2.389090 1_555
Se75 Se84 2.387559 1_555
Se76 Se82 2.451469 1_555
Se86 Se91 2.482126 1_555
Se93 Se95 2.657954 1_555
Se94 Se96 2.910806 1_556
Se100 Se19 2.538640 1_555
Se100 Se73 2.657954 1_555
Se101 Se40 2.387559 1_555
Se102 Se39 2.789104 1_555
Se102 Se65 2.940259 1_555
Se103 Se109 2.396778 1_555
Se104 Se27 2.436540 1_555
Se104 Se92 2.849691 1_555
Se105 Se54 2.451469 1_555
Se106 Se18 2.380484 1_555
Se106 Se96 2.424773 1_556
Se107 Se65 2.396778 1_556
Se108 Se30 2.436540 1_555
Se108 Se52 2.849691 1_555
Se109 Se22 2.940259 1_555
Se110 Se55 2.506858 1_555
Se111 Se15 2.497108 1_555
