# generated using pymatgen
data_Li7VAs4
_symmetry_space_group_name_H-M   'P 1'
_cell_length_a   7.29119838
_cell_length_b   7.29119838
_cell_length_c   11.92501203
_cell_angle_alpha   65.88769517
_cell_angle_beta   65.88769517
_cell_angle_gamma   48.81866657
_symmetry_Int_Tables_number   1
_chemical_formula_structural   Li7VAs4
_chemical_formula_sum   'Li14 V2 As8'
_cell_volume   426.42147375
_cell_formula_units_Z   2
loop_
 _symmetry_equiv_pos_site_id
 _symmetry_equiv_pos_as_xyz
  1  'x, y, z'
loop_
 _atom_site_type_symbol
 _atom_site_label
 _atom_site_symmetry_multiplicity
 _atom_site_fract_x
 _atom_site_fract_y
 _atom_site_fract_z
 _atom_site_occupancy
  Li  Li0  1  0.52352799  0.97619989  0.87548895  1
  Li  Li1  1  0.76121669  0.23878331  0.75000000  1
  Li  Li2  1  0.01158115  0.46882632  0.87891349  1
  Li  Li3  1  0.02380011  0.47647201  0.62451105  1
  Li  Li4  1  0.25055260  0.75066308  0.49256488  1
  Li  Li5  1  0.53117368  0.98841885  0.62108651  1
  Li  Li6  1  0.46882632  0.01158115  0.37891349  1
  Li  Li7  1  0.74944740  0.24933692  0.50743512  1
  Li  Li8  1  0.97619989  0.52352799  0.37548895  1
  Li  Li9  1  0.24933692  0.74944740  0.00743512  1
  Li  Li10  1  0.98841885  0.53117368  0.12108651  1
  Li  Li11  1  0.47647201  0.02380011  0.12451105  1
  Li  Li12  1  0.23878331  0.76121669  0.25000000  1
  Li  Li13  1  0.75066308  0.25055260  0.99256488  1
  V  V0  1  0.26129932  0.73870068  0.75000000  1
  V  V1  1  0.73870068  0.26129932  0.25000000  1
  As  As0  1  0.36692055  0.39989712  0.92318840  1
  As  As1  1  0.92147030  0.84408750  0.69404576  1
  As  As2  1  0.15591250  0.07852970  0.80595424  1
  As  As3  1  0.39989712  0.36692055  0.42318840  1
  As  As4  1  0.60010288  0.63307945  0.57681160  1
  As  As5  1  0.84408750  0.92147030  0.19404576  1
  As  As6  1  0.07852970  0.15591250  0.30595424  1
  As  As7  1  0.63307945  0.60010288  0.07681160  1
loop_
_geom_bond_atom_site_label_1
_geom_bond_atom_site_label_2
_geom_bond_distance
_geom_bond_site_symmetry_2
As0 V0 2.363589 1_555
As0 Li2 2.535741 1_555
As0 Li1 2.567879 1_555
As0 Li9 2.598225 1_556
As0 Li13 2.615673 1_555
As0 Li10 2.673444 1_456
As0 Li11 2.687891 1_556
As0 Li0 2.725925 1_545
As1 V0 2.366358 1_655
As1 Li4 2.543329 1_655
As1 Li1 2.568281 1_565
As1 Li2 2.581807 1_655
As1 Li0 2.630786 1_555
As1 Li3 2.665609 1_655
As1 Li7 2.698806 1_565
As1 Li5 2.700696 1_555
As2 V0 2.366358 1_545
As2 Li9 2.543329 1_546
As2 Li1 2.568281 1_455
As2 Li5 2.581807 1_545
As2 Li3 2.630786 1_555
As2 Li0 2.665609 1_545
As2 Li13 2.698806 1_455
As2 Li2 2.700696 1_555
As3 V1 2.363589 1_555
As3 Li6 2.535741 1_555
As3 Li12 2.567879 1_555
As3 Li7 2.598225 1_555
As3 Li4 2.615673 1_555
As3 Li5 2.673444 1_545
As3 Li3 2.687891 1_555
As3 Li8 2.725925 1_455
As4 V0 2.363589 1_555
As4 Li5 2.535741 1_555
As4 Li1 2.567879 1_555
As4 Li4 2.598225 1_555
As4 Li7 2.615673 1_555
As4 Li6 2.673444 1_565
As4 Li8 2.687891 1_555
As4 Li3 2.725925 1_655
As5 V1 2.366358 1_565
As5 Li13 2.543329 1_564
As5 Li12 2.568281 1_655
As5 Li6 2.581807 1_565
As5 Li8 2.630786 1_555
As5 Li11 2.665609 1_565
As5 Li9 2.698806 1_655
As5 Li10 2.700696 1_555
As6 V1 2.366358 1_455
As6 Li7 2.543329 1_455
As6 Li12 2.568281 1_545
As6 Li10 2.581807 1_455
As6 Li11 2.630786 1_555
As6 Li8 2.665609 1_455
As6 Li4 2.698806 1_545
As6 Li6 2.700696 1_555
As7 V1 2.363589 1_555
As7 Li10 2.535741 1_555
As7 Li12 2.567879 1_555
As7 Li13 2.598225 1_554
As7 Li9 2.615673 1_555
As7 Li2 2.673444 1_654
As7 Li0 2.687891 1_554
As7 Li11 2.725925 1_565
