# generated using pymatgen
data_KGeNO
_symmetry_space_group_name_H-M   'P 1'
_cell_length_a   5.29117500
_cell_length_b   5.81047000
_cell_length_c   8.19225000
_cell_angle_alpha   90.00000000
_cell_angle_beta   90.00000000
_cell_angle_gamma   90.00000000
_symmetry_Int_Tables_number   1
_chemical_formula_structural   KGeNO
_chemical_formula_sum   'K4 Ge4 N4 O4'
_cell_volume   251.86428388
_cell_formula_units_Z   4
loop_
 _symmetry_equiv_pos_site_id
 _symmetry_equiv_pos_as_xyz
  1  'x, y, z'
loop_
 _atom_site_type_symbol
 _atom_site_label
 _atom_site_symmetry_multiplicity
 _atom_site_fract_x
 _atom_site_fract_y
 _atom_site_fract_z
 _atom_site_occupancy
  K  K0  1  0.02293500  0.04395900  0.63886100  1
  K  K1  1  0.52293500  0.45604100  0.63886100  1
  K  K2  1  0.52293500  0.95604100  0.36113900  1
  K  K3  1  0.02293500  0.54395900  0.36113900  1
  Ge  Ge0  1  0.99355400  0.09019300  0.09471800  1
  Ge  Ge1  1  0.49355400  0.90980700  0.90528200  1
  Ge  Ge2  1  0.49355400  0.40980700  0.09471800  1
  Ge  Ge3  1  0.99355400  0.59019300  0.90528200  1
  N  N0  1  0.64825700  0.62675500  0.95760200  1
  N  N1  1  0.14825700  0.37324500  0.04239800  1
  N  N2  1  0.14825700  0.87324500  0.95760200  1
  N  N3  1  0.64825700  0.12675500  0.04239800  1
  O  O0  1  0.52725300  0.97262100  0.69667300  1
  O  O1  1  0.52725300  0.47262100  0.30332700  1
  O  O2  1  0.02725300  0.52737900  0.69667300  1
  O  O3  1  0.02725300  0.02737900  0.30332700  1
loop_
_geom_bond_atom_site_label_1
_geom_bond_atom_site_label_2
_geom_bond_distance
_geom_bond_site_symmetry_2
K0 O0 2.697200 1_445
K0 O0 2.741654 1_545
K0 O3 2.750561 1_555
K0 O2 2.848637 1_555
K0 N2 2.870892 1_545
K0 O2 3.038794 1_545
K1 O2 2.697200 1_555
K1 O2 2.741654 1_655
K1 O1 2.750561 1_555
K1 O0 2.848637 1_545
K1 N0 2.870892 1_555
K1 O0 3.038794 1_555
K2 O3 2.697200 1_565
K2 O3 2.741654 1_665
K2 O0 2.750561 1_555
K2 O1 2.848637 1_555
K2 N3 2.870892 1_565
K2 O1 3.038794 1_565
K3 O1 2.697200 1_455
K3 O1 2.741654 1_555
K3 O2 2.750561 1_555
K3 O3 2.848637 1_565
K3 N1 2.870892 1_555
K3 O3 3.038794 1_555
Ge0 O3 1.756589 1_655
Ge0 N2 1.876394 1_644
Ge0 N1 1.886446 1_655
Ge0 N3 1.888617 1_555
Ge1 O0 1.756589 1_555
Ge1 N3 1.876394 1_566
Ge1 N0 1.886446 1_555
Ge1 N2 1.888617 1_555
Ge2 O1 1.756589 1_555
Ge2 N0 1.876394 1_554
Ge2 N3 1.886446 1_555
Ge2 N1 1.888617 1_555
Ge3 O2 1.756589 1_655
Ge3 N1 1.876394 1_656
Ge3 N2 1.886446 1_655
Ge3 N0 1.888617 1_555
