# generated using pymatgen
data_Li5Ti12O24
_symmetry_space_group_name_H-M   'P 1'
_cell_length_a   5.99322721
_cell_length_b   5.99324959
_cell_length_c   53.86653266
_cell_angle_alpha   59.95563641
_cell_angle_beta   59.95543479
_cell_angle_gamma   59.99463170
_symmetry_Int_Tables_number   1
_chemical_formula_structural   Li5Ti12O24
_chemical_formula_sum   'Li15 Ti36 O72'
_cell_volume   1367.15364330
_cell_formula_units_Z   3
loop_
 _symmetry_equiv_pos_site_id
 _symmetry_equiv_pos_as_xyz
  1  'x, y, z'
loop_
 _atom_site_type_symbol
 _atom_site_label
 _atom_site_symmetry_multiplicity
 _atom_site_fract_x
 _atom_site_fract_y
 _atom_site_fract_z
 _atom_site_occupancy
  Li  Li0  1  0.12399398  0.12399034  0.01422087  1
  Li  Li1  1  0.12551025  0.12550637  0.12483054  1
  Li  Li2  1  0.12530866  0.12530422  0.34712589  1
  Li  Li3  1  0.12493441  0.12492868  0.45836413  1
  Li  Li4  1  0.87446877  0.87447325  0.20851198  1
  Li  Li5  1  0.12496467  0.12496130  0.56945910  1
  Li  Li6  1  0.87638778  0.87639114  0.31898108  1
  Li  Li7  1  0.12496909  0.12496369  0.68056803  1
  Li  Li8  1  0.87502952  0.87503431  0.43054262  1
  Li  Li9  1  0.12473360  0.12473415  0.79175712  1
  Li  Li10  1  0.87503404  0.87503923  0.54164833  1
  Li  Li11  1  0.87507717  0.87508018  0.65274719  1
  Li  Li12  1  0.87454595  0.87454919  0.76403330  1
  Li  Li13  1  0.87424121  0.87424124  0.87524797  1
  Li  Li14  1  0.87606010  0.87606577  0.98575944  1
  Ti  Ti0  1  0.99629396  0.49953968  0.05606746  1
  Ti  Ti1  1  0.50012145  0.50011961  0.99995697  1
  Ti  Ti2  1  0.49953966  0.99629104  0.05606802  1
  Ti  Ti3  1  0.99993937  0.49999767  0.16667621  1
  Ti  Ti4  1  0.49951375  0.49951449  0.05607734  1
  Ti  Ti5  1  0.50183831  0.50183999  0.11050650  1
  Ti  Ti6  1  0.49999875  0.99994054  0.16667579  1
  Ti  Ti7  1  0.00441746  0.50048534  0.27718543  1
  Ti  Ti8  1  0.50000184  0.50000089  0.16667278  1
  Ti  Ti9  1  0.49814388  0.49814874  0.22283237  1
  Ti  Ti10  1  0.50048659  0.00442004  0.27718552  1
  Ti  Ti11  1  0.50047228  0.50047190  0.27717883  1
  Ti  Ti12  1  0.00036935  0.50006731  0.38883887  1
  Ti  Ti13  1  0.50175713  0.50175158  0.33274581  1
  Ti  Ti14  1  0.50006639  0.00036918  0.38883916  1
  Ti  Ti15  1  0.50001430  0.50001472  0.38883810  1
  Ti  Ti16  1  0.99980005  0.50001159  0.50002222  1
  Ti  Ti17  1  0.49982928  0.49983037  0.44449986  1
  Ti  Ti18  1  0.50001251  0.99980166  0.50002166  1
  Ti  Ti19  1  0.49999025  0.49998752  0.50002409  1
  Ti  Ti20  1  0.49992631  0.49992990  0.55557661  1
  Ti  Ti21  1  0.50000521  0.00008027  0.61109878  1
  Ti  Ti22  1  0.50001711  0.50001907  0.61109923  1
  Ti  Ti23  1  -0.00004968  0.49997756  0.72223034  1
  Ti  Ti24  1  0.50012615  0.50012454  0.66662617  1
  Ti  Ti25  1  0.49997869  -0.00004877  0.72222989  1
  Ti  Ti26  1  0.00008098  0.50000428  0.61109893  1
  Ti  Ti27  1  0.50001588  0.50001643  0.72222461  1
  Ti  Ti28  1  -0.00007196  0.49801410  0.83377865  1
  Ti  Ti29  1  0.49945003  0.49946045  0.77796290  1
  Ti  Ti30  1  0.49801250  -0.00007280  0.83377939  1
  Ti  Ti31  1  0.49802594  0.49802581  0.83378712  1
  Ti  Ti32  1  0.49752564  0.49750759  0.88971194  1
  Ti  Ti33  1  0.50041758  0.00379261  0.94392982  1
  Ti  Ti34  1  0.50045015  0.50045080  0.94392422  1
  Ti  Ti35  1  0.00379325  0.50041812  0.94392941  1
  O  O0  1  0.26391501  0.26391304  0.02910167  1
  O  O1  1  0.26320741  0.26320869  0.07895337  1
  O  O2  1  0.26380558  0.71025713  0.02911398  1
  O  O3  1  0.71025981  0.26380449  0.02911346  1
  O  O4  1  0.26259091  0.26259259  0.14033294  1
  O  O5  1  0.29748721  0.73498252  0.08141121  1
  O  O6  1  0.26720022  0.26720127  0.18873796  1
  O  O7  1  0.73498035  0.29749359  0.08141120  1
  O  O8  1  0.26239657  0.71188262  0.14035046  1
  O  O9  1  0.73813609  0.73813716  0.03171243  1
  O  O10  1  0.73476484  0.73476218  0.08144209  1
  O  O11  1  0.71188747  0.26239635  0.14035028  1
  O  O12  1  0.26512031  0.26512146  0.25190957  1
  O  O13  1  0.28802426  0.73760655  0.19299424  1
  O  O14  1  0.73760338  0.28803055  0.19299425  1
  O  O15  1  0.26158697  0.26158882  0.30170124  1
  O  O16  1  0.26494280  0.70259338  0.25193545  1
  O  O17  1  0.73274422  0.73274282  0.14461794  1
  O  O18  1  0.73742950  0.73743320  0.19300926  1
  O  O19  1  0.70259666  0.26494111  0.25193543  1
  O  O20  1  0.26256880  0.26256587  0.36258309  1
  O  O21  1  0.28892253  0.73628766  0.30428253  1
  O  O22  1  0.26233666  0.26233798  0.41253871  1
  O  O23  1  0.73628883  0.28892134  0.30428249  1
  O  O24  1  0.26264830  0.71161311  0.36256725  1
  O  O25  1  0.73670888  0.73671076  0.25441383  1
  O  O26  1  0.73627785  0.73627552  0.30428073  1
  O  O27  1  0.71161807  0.26264465  0.36256728  1
  O  O28  1  0.26238015  0.26237692  0.47364446  1
  O  O29  1  0.28775796  0.73740381  0.41526037  1
  O  O30  1  0.26239324  0.26238997  0.52361696  1
  O  O31  1  0.73740340  0.28776281  0.41526028  1
  O  O32  1  0.26260492  0.71238663  0.47362029  1
  O  O33  1  0.73740627  0.73740853  0.36533003  1
  O  O34  1  0.73757828  0.73758130  0.41524166  1
  O  O35  1  0.71239001  0.26260236  0.47362024  1
  O  O36  1  0.26221520  0.26221497  0.58477249  1
  O  O37  1  0.28749342  0.73755939  0.52635566  1
  O  O38  1  0.26238307  0.26238435  0.63472948  1
  O  O39  1  0.26244738  0.71250976  0.58474225  1
  O  O40  1  0.73755557  0.28749795  0.52635549  1
  O  O41  1  0.73759974  0.73760312  0.47638267  1
  O  O42  1  0.71251072  0.26244636  0.58474235  1
  O  O43  1  0.73779255  0.73779640  0.52633283  1
  O  O44  1  0.26238447  0.26238242  0.69586282  1
  O  O45  1  0.28756983  0.73750395  0.63748326  1
  O  O46  1  0.73750231  0.28756982  0.63748343  1
  O  O47  1  0.26256351  0.26256174  0.74578658  1
  O  O48  1  0.26255829  0.71242895  0.69584131  1
  O  O49  1  0.73764942  0.73764828  0.58748270  1
  O  O50  1  0.73769027  0.73768955  0.63745607  1
  O  O51  1  0.71243305  0.26255528  0.69584082  1
  O  O52  1  0.26265097  0.26265202  0.80686106  1
  O  O53  1  0.28802327  0.73740520  0.74856004  1
  O  O54  1  0.26656771  0.26656988  0.85557818  1
  O  O55  1  0.73739856  0.28803006  0.74856018  1
  O  O56  1  0.26275813  0.71289955  0.80685255  1
  O  O57  1  0.73767345  0.73767346  0.69858524  1
  O  O58  1  0.73761901  0.73762347  0.74853412  1
  O  O59  1  0.71289507  0.26276162  0.80685243  1
  O  O60  1  0.26499410  0.26499163  0.91854709  1
  O  O61  1  0.28880070  0.73786712  0.85949834  1
  O  O62  1  0.26490967  0.70302945  0.91855934  1
  O  O63  1  0.73787206  0.28879665  0.85949835  1
  O  O64  1  0.26189527  0.26189604  0.96827213  1
  O  O65  1  0.73717019  0.73716738  0.80982567  1
  O  O66  1  0.70304015  0.26490273  0.91855923  1
  O  O67  1  0.73785808  0.73785747  0.85949520  1
  O  O68  1  0.28969798  0.73620441  0.97089070  1
  O  O69  1  0.73620317  0.28970187  0.97089061  1
  O  O70  1  0.73702909  0.73703011  0.92097482  1
  O  O71  1  0.73606126  0.73606191  0.97090630  1
loop_
_geom_bond_atom_site_label_1
_geom_bond_atom_site_label_2
_geom_bond_distance
_geom_bond_site_symmetry_2
Li0 O64 2.019578 1_554
Li0 O3 2.024175 1_455
Li0 O2 2.024181 1_545
Li0 O0 2.024476 1_555
Li1 O1 2.016433 1_555
Li1 O11 2.023516 1_455
Li1 O8 2.023532 1_545
Li1 O4 2.023946 1_555
Li2 O15 1.996543 1_555
Li2 O20 2.023687 1_555
Li2 O27 2.023838 1_455
Li2 O24 2.023852 1_545
Li3 O22 2.014158 1_555
Li3 O28 2.017718 1_555
Li3 O35 2.018232 1_455
Li3 O32 2.018232 1_545
Li4 O25 2.017517 1_555
Li4 O13 2.023187 1_655
Li4 O14 2.023207 1_565
Li4 O18 2.023532 1_555
Li5 O30 2.014893 1_555
Li5 O36 2.017266 1_555
Li5 O39 2.017787 1_545
Li5 O42 2.017787 1_455
Li6 O23 2.018386 1_565
Li6 O21 2.018397 1_655
Li6 O26 2.018481 1_555
Li6 O33 2.037169 1_555
Li7 O38 2.014735 1_555
Li7 O44 2.018062 1_555
Li7 O51 2.018189 1_455
Li7 O48 2.018195 1_545
Li8 O41 2.014801 1_555
Li8 O34 2.018676 1_555
Li8 O29 2.019131 1_655
Li8 O31 2.019142 1_565
Li9 O52 2.014578 1_555
Li9 O56 2.014791 1_545
Li9 O59 2.014799 1_455
Li9 O47 2.020537 1_555
Li10 O49 2.014552 1_555
Li10 O43 2.017261 1_555
Li10 O37 2.017813 1_655
Li10 O40 2.017822 1_565
Li11 O57 2.014713 1_555
Li11 O50 2.017623 1_555
Li11 O46 2.017975 1_565
Li11 O45 2.017978 1_655
Li12 O65 2.012705 1_555
Li12 O58 2.022268 1_555
Li12 O53 2.022799 1_655
Li12 O55 2.022828 1_565
Li13 O70 2.009826 1_555
Li13 O63 2.028141 1_565
Li13 O61 2.028150 1_655
Li13 O67 2.028176 1_555
Li14 O9 2.019765 1_556
Li14 O68 2.023714 1_655
Li14 O69 2.023717 1_565
Li14 O71 2.024049 1_555
O0 Ti1 2.006549 1_554
O0 Ti0 2.032831 1_455
O0 Ti2 2.032847 1_545
O1 Ti4 2.010211 1_555
O1 Ti2 2.011218 1_545
O1 Ti0 2.011220 1_455
O2 Ti1 2.006990 1_554
O2 Ti0 2.032593 1_455
O2 Ti4 2.033094 1_555
O3 Ti1 2.006976 1_554
O3 Ti2 2.032614 1_545
O3 Ti4 2.033120 1_555
O4 Ti6 2.015158 1_545
O4 Ti3 2.015158 1_455
O4 Ti5 2.033702 1_555
O5 Ti2 1.970596 1_555
O5 Ti4 1.970969 1_555
O5 Ti5 1.981488 1_555
O6 Ti8 1.982901 1_555
O6 Ti3 1.983721 1_455
O6 Ti6 1.983735 1_545
O7 Ti0 1.970591 1_555
O7 Ti4 1.970966 1_555
O7 Ti5 1.981467 1_555
O8 Ti3 2.014638 1_455
O8 Ti8 2.015215 1_555
O8 Ti5 2.034190 1_555
O9 Ti4 2.024754 1_555
O9 Ti0 2.025088 1_555
O9 Ti2 2.025089 1_555
O10 Ti2 1.971442 1_555
O10 Ti0 1.971448 1_555
O10 Ti5 1.980072 1_555
O11 Ti6 2.014649 1_545
O11 Ti8 2.015215 1_555
O11 Ti5 2.034212 1_555
O12 Ti7 1.968092 1_555
O12 Ti10 1.968107 1_555
O12 Ti9 1.980932 1_555
O13 Ti6 2.014450 1_555
O13 Ti8 2.015137 1_555
O13 Ti9 2.034264 1_555
O14 Ti3 2.014428 1_555
O14 Ti8 2.015124 1_555
O14 Ti9 2.034255 1_555
O15 Ti11 2.026570 1_555
O15 Ti10 2.026599 1_555
O15 Ti7 2.026608 1_555
O16 Ti7 1.967339 1_555
O16 Ti11 1.967577 1_555
O16 Ti9 1.982170 1_555
O17 Ti8 1.982430 1_555
O17 Ti6 1.983298 1_555
O17 Ti3 1.983302 1_555
O18 Ti6 2.014847 1_555
O18 Ti3 2.014849 1_555
O18 Ti9 2.033985 1_555
O19 Ti10 1.967329 1_555
O19 Ti11 1.967581 1_555
O19 Ti9 1.982204 1_555
O20 Ti14 2.012197 1_555
O20 Ti12 2.012200 1_555
O20 Ti13 2.033272 1_555
O21 Ti13 1.990147 1_555
O21 Ti10 2.038761 1_565
O21 Ti11 2.038847 1_555
O22 Ti14 2.018200 1_555
O22 Ti12 2.018205 1_555
O22 Ti15 2.018770 1_555
O23 Ti13 1.990128 1_555
O23 Ti7 2.038742 1_655
O23 Ti11 2.038850 1_555
O24 Ti15 2.012220 1_555
O24 Ti12 2.012493 1_555
O24 Ti13 2.032565 1_555
O25 Ti11 2.010158 1_555
O25 Ti7 2.010747 1_655
O25 Ti10 2.010753 1_565
O26 Ti13 1.990473 1_555
O26 Ti7 2.038394 1_655
O26 Ti10 2.038401 1_565
O27 Ti15 2.012233 1_555
O27 Ti14 2.012503 1_555
O27 Ti13 2.032568 1_555
O28 Ti17 2.016511 1_555
O28 Ti18 2.017256 1_545
O28 Ti16 2.017285 1_455
O29 Ti17 2.018025 1_555
O29 Ti15 2.018077 1_555
O29 Ti14 2.018589 1_565
O30 Ti18 2.017204 1_545
O30 Ti16 2.017207 1_455
O30 Ti19 2.018497 1_555
O31 Ti17 2.018010 1_555
O31 Ti15 2.018077 1_555
O31 Ti12 2.018574 1_655
O32 Ti17 2.015206 1_555
O32 Ti19 2.017259 1_555
O32 Ti16 2.018140 1_455
O33 Ti14 2.015767 1_565
O33 Ti12 2.015769 1_655
O33 Ti15 2.017030 1_555
O34 Ti14 2.017778 1_565
O34 Ti12 2.017795 1_655
O34 Ti17 2.019350 1_555
O35 Ti17 2.015225 1_555
O35 Ti19 2.017259 1_555
O35 Ti18 2.018134 1_545
O36 Ti26 2.015862 1_555
O36 Ti21 2.015863 1_555
O36 Ti20 2.018809 1_555
O37 Ti19 2.015159 1_555
O37 Ti18 2.016223 1_555
O37 Ti20 2.018731 1_555
O38 Ti26 2.017199 1_555
O38 Ti21 2.017212 1_555
O38 Ti22 2.018674 1_555
O39 Ti22 2.016168 1_555
O39 Ti26 2.016716 1_555
O39 Ti20 2.017106 1_555
O40 Ti19 2.015128 1_555
O40 Ti16 2.016209 1_555
O40 Ti20 2.018731 1_555
O41 Ti18 2.017041 1_555
O41 Ti16 2.017070 1_555
O41 Ti19 2.018434 1_555
O42 Ti22 2.016175 1_555
O42 Ti21 2.016716 1_555
O42 Ti20 2.017132 1_555
O43 Ti16 2.015219 1_555
O43 Ti18 2.015223 1_555
O43 Ti20 2.020225 1_555
O44 Ti25 2.016675 1_555
O44 Ti23 2.016693 1_555
O44 Ti24 2.019200 1_555
O45 Ti24 2.016107 1_555
O45 Ti22 2.016889 1_555
O45 Ti21 2.017368 1_565
O46 Ti24 2.016091 1_555
O46 Ti22 2.016898 1_555
O46 Ti26 2.017373 1_655
O47 Ti23 2.015912 1_555
O47 Ti25 2.015915 1_555
O47 Ti27 2.017345 1_555
O48 Ti27 2.016755 1_555
O48 Ti23 2.017571 1_555
O48 Ti24 2.017981 1_555
O49 Ti21 2.017256 1_565
O49 Ti26 2.017261 1_655
O49 Ti22 2.018698 1_555
O50 Ti26 2.016662 1_655
O50 Ti21 2.016670 1_565
O50 Ti24 2.017518 1_555
O51 Ti27 2.016787 1_555
O51 Ti25 2.017567 1_555
O51 Ti24 2.017975 1_555
O52 Ti29 2.010386 1_555
O52 Ti28 2.027772 1_555
O52 Ti30 2.027801 1_555
O53 Ti27 2.014722 1_555
O53 Ti25 2.015317 1_565
O53 Ti29 2.021989 1_555
O54 Ti30 1.971711 1_555
O54 Ti28 1.971724 1_555
O54 Ti31 1.972304 1_555
O55 Ti27 2.014705 1_555
O55 Ti23 2.015309 1_655
O55 Ti29 2.021995 1_555
O56 Ti29 2.009545 1_555
O56 Ti31 2.028067 1_555
O56 Ti28 2.028376 1_555
O57 Ti25 2.017597 1_565
O57 Ti23 2.017611 1_655
O57 Ti27 2.018840 1_555
O58 Ti25 2.014556 1_565
O58 Ti23 2.014561 1_655
O58 Ti29 2.023369 1_555
O59 Ti29 2.009567 1_555
O59 Ti31 2.028056 1_555
O59 Ti30 2.028386 1_555
O60 Ti35 1.972355 1_555
O60 Ti33 1.972360 1_555
O60 Ti32 1.975872 1_555
O61 Ti31 2.002108 1_555
O61 Ti30 2.002401 1_565
O61 Ti32 2.043884 1_555
O62 Ti35 1.971935 1_555
O62 Ti34 1.972242 1_555
O62 Ti32 1.976171 1_555
O63 Ti31 2.002130 1_555
O63 Ti28 2.002403 1_655
O63 Ti32 2.043825 1_555
O64 Ti34 2.024212 1_555
O64 Ti33 2.024383 1_555
O64 Ti35 2.024393 1_555
O65 Ti31 2.030771 1_555
O65 Ti28 2.030845 1_655
O65 Ti30 2.030879 1_565
O66 Ti33 1.971953 1_555
O66 Ti34 1.972274 1_555
O66 Ti32 1.976140 1_555
O67 Ti30 2.002298 1_565
O67 Ti28 2.002312 1_655
O67 Ti32 2.044194 1_555
O68 Ti1 2.004504 1_555
O68 Ti33 2.032947 1_565
O68 Ti34 2.033416 1_555
O69 Ti1 2.004481 1_555
O69 Ti35 2.032940 1_655
O69 Ti34 2.033413 1_555
O70 Ti34 2.012302 1_555
O70 Ti35 2.012986 1_655
O70 Ti33 2.012992 1_565
O71 Ti1 2.004046 1_555
O71 Ti33 2.033341 1_565
O71 Ti35 2.033353 1_655
