# generated using pymatgen
data_WO3
_symmetry_space_group_name_H-M   'P 1'
_cell_length_a   7.68022200
_cell_length_b   7.71889400
_cell_length_c   7.75095859
_cell_angle_alpha   89.81688285
_cell_angle_beta   90.00000000
_cell_angle_gamma   90.00000000
_symmetry_Int_Tables_number   1
_chemical_formula_structural   WO3
_chemical_formula_sum   'W8 O24'
_cell_volume   459.49633215
_cell_formula_units_Z   8
loop_
 _symmetry_equiv_pos_site_id
 _symmetry_equiv_pos_as_xyz
  1  'x, y, z'
loop_
 _atom_site_type_symbol
 _atom_site_label
 _atom_site_symmetry_multiplicity
 _atom_site_fract_x
 _atom_site_fract_y
 _atom_site_fract_z
 _atom_site_occupancy
  W  W0  1  0.24693600  0.48856700  0.76530500  1
  W  W1  1  0.75306400  0.51143300  0.23469500  1
  W  W2  1  0.24485700  0.98905100  0.73477700  1
  W  W3  1  0.75514300  0.01094900  0.26522300  1
  W  W4  1  0.25306400  0.48856700  0.26530500  1
  W  W5  1  0.74693600  0.51143300  0.73469500  1
  W  W6  1  0.25514300  0.98905100  0.23477700  1
  W  W7  1  0.74485700  0.01094900  0.76522300  1
  O  O0  1  0.23257200  0.00114600  0.99685000  1
  O  O1  1  0.76742800  0.99885400  0.00315000  1
  O  O2  1  0.23368300  0.50106600  0.50343600  1
  O  O3  1  0.76631700  0.49893400  0.49656400  1
  O  O4  1  0.26631700  0.50106600  0.00343600  1
  O  O5  1  0.73368300  0.49893400  0.99656400  1
  O  O6  1  0.26742800  0.00114600  0.49685000  1
  O  O7  1  0.73257200  0.99885400  0.50315000  1
  O  O8  1  0.99887600  0.01264300  0.73243500  1
  O  O9  1  0.00112400  0.98735700  0.26756500  1
  O  O10  1  0.49903200  0.51305900  0.73371300  1
  O  O11  1  0.50096800  0.48694100  0.26628700  1
  O  O12  1  0.99903200  0.48694100  0.76628700  1
  O  O13  1  0.00096800  0.51305900  0.23371300  1
  O  O14  1  0.49887600  0.98735700  0.76756500  1
  O  O15  1  0.50112400  0.01264300  0.23243500  1
  O  O16  1  0.73700800  0.25350700  0.75463500  1
  O  O17  1  0.26299200  0.74649300  0.24536500  1
  O  O18  1  0.76282600  0.75355900  0.74559800  1
  O  O19  1  0.23717400  0.24644100  0.25440200  1
  O  O20  1  0.76299200  0.25350700  0.25463500  1
  O  O21  1  0.23700800  0.74649300  0.74536500  1
  O  O22  1  0.73717400  0.75355900  0.24559800  1
  O  O23  1  0.26282600  0.24644100  0.75440200  1
loop_
_geom_bond_atom_site_label_1
_geom_bond_atom_site_label_2
_geom_bond_distance
_geom_bond_site_symmetry_2
O0 W6 1.854346 1_546
O0 W2 2.035947 1_545
O1 W7 1.854346 1_564
O1 W3 2.035947 1_565
O2 W4 1.854554 1_555
O2 W0 2.034267 1_555
O3 W5 1.854554 1_555
O3 W1 2.034267 1_555
O4 W0 1.854554 1_554
O4 W4 2.034267 1_555
O5 W1 1.854554 1_556
O5 W5 2.034267 1_555
O6 W2 1.854346 1_545
O6 W6 2.035947 1_545
O7 W3 1.854346 1_565
O7 W7 2.035947 1_565
O8 W2 1.898026 1_645
O8 W7 1.967444 1_555
O9 W3 1.898026 1_465
O9 W6 1.967444 1_555
O10 W5 1.904014 1_555
O10 W0 1.960636 1_555
O11 W4 1.904014 1_555
O11 W1 1.960636 1_555
O12 W0 1.904014 1_655
O12 W5 1.960636 1_555
O13 W1 1.904014 1_455
O13 W4 1.960636 1_555
O14 W7 1.898026 1_565
O14 W2 1.967444 1_555
O15 W6 1.898026 1_545
O15 W3 1.967444 1_555
O16 W7 1.874785 1_555
O16 W5 1.997857 1_555
O17 W6 1.874785 1_555
O17 W4 1.997857 1_555
O18 W5 1.875100 1_555
O18 W7 1.997838 1_565
O19 W4 1.875100 1_555
O19 W6 1.997838 1_545
O20 W3 1.874785 1_555
O20 W1 1.997857 1_555
O21 W2 1.874785 1_555
O21 W0 1.997857 1_555
O22 W1 1.875100 1_555
O22 W3 1.997838 1_565
O23 W0 1.875100 1_555
O23 W2 1.997838 1_545
