# generated using pymatgen
data_CsNb2PS10
_symmetry_space_group_name_H-M   'P 1'
_cell_length_a   7.76368400
_cell_length_b   13.17091700
_cell_length_c   14.45733536
_cell_angle_alpha   84.45988654
_cell_angle_beta   90.00000000
_cell_angle_gamma   90.00000000
_symmetry_Int_Tables_number   1
_chemical_formula_structural   CsNb2PS10
_chemical_formula_sum   'Cs4 Nb8 P4 S40'
_cell_volume   1471.42696855
_cell_formula_units_Z   4
loop_
 _symmetry_equiv_pos_site_id
 _symmetry_equiv_pos_as_xyz
  1  'x, y, z'
loop_
 _atom_site_type_symbol
 _atom_site_label
 _atom_site_symmetry_multiplicity
 _atom_site_fract_x
 _atom_site_fract_y
 _atom_site_fract_z
 _atom_site_occupancy
  Cs  Cs0  1  0.51811700  0.28146900  0.09773100  1
  Cs  Cs1  1  0.49956900  0.53702900  0.59868800  1
  Cs  Cs2  1  0.50043100  0.03702900  0.59868800  1
  Cs  Cs3  1  0.48188300  0.78146900  0.09773100  1
  Nb  Nb0  1  0.06875800  0.43084600  0.86841700  1
  Nb  Nb1  1  0.93921900  0.16398900  0.37150600  1
  Nb  Nb2  1  0.93470500  0.87340300  0.37425500  1
  Nb  Nb3  1  0.05662700  0.14036900  0.87068200  1
  Nb  Nb4  1  0.93124200  0.93084600  0.86841700  1
  Nb  Nb5  1  0.06078100  0.66398900  0.37150600  1
  Nb  Nb6  1  0.94337300  0.64036900  0.87068200  1
  Nb  Nb7  1  0.06529500  0.37340300  0.37425500  1
  P  P0  1  0.59977000  0.02540400  0.29994800  1
  P  P1  1  0.59997700  0.78577700  0.79822200  1
  P  P2  1  0.40023000  0.52540400  0.29994800  1
  P  P3  1  0.40002300  0.28577700  0.79822200  1
  S  S0  1  0.85584100  0.02987400  0.25059000  1
  S  S1  1  0.10731500  0.00075800  0.99703200  1
  S  S2  1  0.39852500  0.65528600  0.37003700  1
  S  S3  1  0.60351100  0.89293700  0.38919500  1
  S  S4  1  0.41400400  0.78408700  0.70371500  1
  S  S5  1  0.89268500  0.50075800  0.99703200  1
  S  S6  1  0.85681100  0.04654800  0.98977000  1
  S  S7  1  0.59593200  0.91466400  0.86949600  1
  S  S8  1  0.87910000  0.07908300  0.74249400  1
  S  S9  1  0.39648900  0.39293700  0.38919500  1
  S  S10  1  0.14318900  0.54654800  0.98977000  1
  S  S11  1  0.87372400  0.73103900  0.49689300  1
  S  S12  1  0.10905700  0.81110200  0.24583500  1
  S  S13  1  0.94930300  0.00573400  0.49423500  1
  S  S14  1  0.15369900  0.78606900  0.89888800  1
  S  S15  1  0.84630100  0.28606900  0.89888800  1
  S  S16  1  0.89094300  0.31110200  0.24583500  1
  S  S17  1  0.87683500  0.51954800  0.74770900  1
  S  S18  1  0.12090000  0.57908300  0.74249400  1
  S  S19  1  0.14415900  0.52987400  0.25059000  1
  S  S20  1  0.12431400  0.77687800  0.49704400  1
  S  S21  1  0.84664400  0.51478300  0.40284400  1
  S  S22  1  0.38943300  0.15277800  0.88656200  1
  S  S23  1  0.12627600  0.23103900  0.49689300  1
  S  S24  1  0.61056700  0.65277800  0.88656200  1
  S  S25  1  0.13522800  0.25181300  0.25137500  1
  S  S26  1  0.04949700  0.27239200  0.99090400  1
  S  S27  1  0.95050300  0.77239200  0.99090400  1
  S  S28  1  0.40406800  0.41466400  0.86949600  1
  S  S29  1  0.58599600  0.28408700  0.70371500  1
  S  S30  1  0.87568600  0.27687800  0.49704400  1
  S  S31  1  0.05069700  0.50573400  0.49423500  1
  S  S32  1  0.86477200  0.75181300  0.25137500  1
  S  S33  1  0.12316500  0.01954800  0.74770900  1
  S  S34  1  0.14519700  0.29587500  0.74727900  1
  S  S35  1  0.85480300  0.79587500  0.74727900  1
  S  S36  1  0.60147500  0.15528600  0.37003700  1
  S  S37  1  0.15335600  0.01478300  0.40284400  1
  S  S38  1  0.58533300  0.52676400  0.20465400  1
  S  S39  1  0.41466700  0.02676400  0.20465400  1
loop_
_geom_bond_atom_site_label_1
_geom_bond_atom_site_label_2
_geom_bond_distance
_geom_bond_site_symmetry_2
Cs0 S16 3.643697 1_555
Cs0 S39 3.645178 1_555
Cs0 S28 3.692113 1_554
Cs0 S25 3.708863 1_555
Cs0 S38 3.750200 1_555
Cs0 S22 3.767052 1_554
Cs0 S15 3.837454 1_554
Cs0 S26 3.958768 1_554
Cs1 S29 3.588567 1_555
Cs1 S2 3.602050 1_555
Cs1 S17 3.630119 1_555
Cs1 S18 3.673474 1_555
Cs1 S4 3.780114 1_555
Cs1 S9 3.811183 1_555
Cs1 S31 3.836020 1_555
Cs1 S21 3.939990 1_555
Cs1 S11 4.050584 1_555
Cs2 S4 3.588567 1_545
Cs2 S36 3.602050 1_555
Cs2 S33 3.630119 1_555
Cs2 S8 3.673474 1_555
Cs2 S29 3.780114 1_555
Cs2 S3 3.811183 1_545
Cs2 S13 3.836020 1_555
Cs2 S37 3.939990 1_555
Cs2 S23 4.050584 1_555
Cs3 S12 3.643697 1_555
Cs3 S38 3.645178 1_555
Cs3 S7 3.692113 1_554
Cs3 S32 3.708863 1_555
Cs3 S39 3.750200 1_565
Cs3 S24 3.767052 1_554
Cs3 S14 3.837454 1_554
Cs3 S27 3.958768 1_554
Nb0 S17 2.497369 1_455
Nb0 S10 2.500098 1_555
Nb0 S5 2.550408 1_455
Nb0 S18 2.569779 1_555
Nb0 S15 2.578906 1_455
Nb0 S26 2.607707 1_555
Nb0 S28 2.611875 1_555
Nb0 S34 2.679678 1_555
Nb1 S30 2.503817 1_555
Nb1 S25 2.506436 1_655
Nb1 S23 2.546395 1_655
Nb1 S16 2.552664 1_555
Nb1 S37 2.580536 1_655
Nb1 S13 2.604777 1_555
Nb1 S36 2.624817 1_555
Nb1 S0 2.681682 1_555
Nb2 S11 2.498337 1_555
Nb2 S12 2.499351 1_655
Nb2 S20 2.549277 1_655
Nb2 S32 2.562181 1_555
Nb2 S13 2.577435 1_565
Nb2 S37 2.582345 1_665
Nb2 S3 2.595204 1_555
Nb2 S0 2.665912 1_565
Nb3 S1 2.494852 1_555
Nb3 S8 2.504910 1_455
Nb3 S6 2.546954 1_455
Nb3 S33 2.550730 1_555
Nb3 S26 2.575117 1_555
Nb3 S15 2.581924 1_455
Nb3 S22 2.600517 1_555
Nb3 S34 2.673045 1_555
Nb4 S33 2.497369 1_665
Nb4 S6 2.500098 1_565
Nb4 S1 2.550408 1_665
Nb4 S8 2.569779 1_565
Nb4 S14 2.578906 1_655
Nb4 S27 2.607707 1_555
Nb4 S7 2.611875 1_555
Nb4 S35 2.679678 1_555
Nb5 S20 2.503817 1_555
Nb5 S32 2.506436 1_455
Nb5 S11 2.546395 1_455
Nb5 S12 2.552664 1_555
Nb5 S21 2.580536 1_455
Nb5 S31 2.604777 1_555
Nb5 S2 2.624817 1_555
Nb5 S19 2.681682 1_555
Nb6 S5 2.494852 1_555
Nb6 S18 2.504910 1_655
Nb6 S10 2.546954 1_655
Nb6 S17 2.550730 1_555
Nb6 S27 2.575117 1_555
Nb6 S14 2.581924 1_655
Nb6 S24 2.600517 1_555
Nb6 S35 2.673045 1_555
Nb7 S23 2.498337 1_555
Nb7 S16 2.499351 1_455
Nb7 S30 2.549277 1_455
Nb7 S25 2.562181 1_555
Nb7 S31 2.577435 1_555
Nb7 S21 2.582345 1_455
Nb7 S9 2.595204 1_555
Nb7 S19 2.665912 1_555
P0 S39 1.989675 1_555
P0 S3 2.067608 1_545
P0 S36 2.070755 1_555
P0 S0 2.111141 1_555
P1 S4 1.989437 1_555
P1 S24 2.067473 1_555
P1 S7 2.069356 1_555
P1 S35 2.110741 1_555
P2 S38 1.989675 1_555
P2 S9 2.067608 1_555
P2 S2 2.070755 1_555
P2 S19 2.111141 1_555
P3 S29 1.989437 1_555
P3 S22 2.067473 1_555
P3 S28 2.069356 1_555
P3 S34 2.110741 1_555
S1 S6 2.035903 1_455
S10 S5 2.035903 1_455
S11 S20 2.037091 1_655
S12 S32 2.049643 1_455
S13 S37 2.058945 1_655
S14 S27 2.060232 1_455
S15 S26 2.060232 1_655
S16 S25 2.049643 1_655
S17 S18 2.049283 1_655
S21 S31 2.058945 1_655
S23 S30 2.037091 1_455
S33 S8 2.049283 1_455
