# generated using pymatgen
data_LaSb(SBr)2
_symmetry_space_group_name_H-M   'P 1'
_cell_length_a   9.34854200
_cell_length_b   8.85681900
_cell_length_c   17.60124145
_cell_angle_alpha   75.91111470
_cell_angle_beta   90.00000000
_cell_angle_gamma   90.00000000
_symmetry_Int_Tables_number   1
_chemical_formula_structural   LaSb(SBr)2
_chemical_formula_sum   'La8 Sb8 S16 Br16'
_cell_volume   1413.51536849
_cell_formula_units_Z   8
loop_
 _symmetry_equiv_pos_site_id
 _symmetry_equiv_pos_as_xyz
  1  'x, y, z'
loop_
 _atom_site_type_symbol
 _atom_site_label
 _atom_site_symmetry_multiplicity
 _atom_site_fract_x
 _atom_site_fract_y
 _atom_site_fract_z
 _atom_site_occupancy
  La  La0  1  0.36505300  0.61349900  0.26338000  1
  La  La1  1  0.62989800  0.87720100  0.74430600  1
  La  La2  1  0.12989800  0.12279900  0.75569400  1
  La  La3  1  0.63494700  0.38650100  0.73662000  1
  La  La4  1  0.87010200  0.87720100  0.24430600  1
  La  La5  1  0.37010200  0.12279900  0.25569400  1
  La  La6  1  0.86505300  0.38650100  0.23662000  1
  La  La7  1  0.13494700  0.61349900  0.76338000  1
  Sb  Sb0  1  0.65945200  0.72698900  0.05363900  1
  Sb  Sb1  1  0.95474200  0.26907800  0.95442800  1
  Sb  Sb2  1  0.84054800  0.72698900  0.55363900  1
  Sb  Sb3  1  0.04525800  0.73092200  0.04557200  1
  Sb  Sb4  1  0.34054800  0.27301100  0.94636100  1
  Sb  Sb5  1  0.54525800  0.26907800  0.45442800  1
  Sb  Sb6  1  0.45474200  0.73092200  0.54557200  1
  Sb  Sb7  1  0.15945200  0.27301100  0.44636100  1
  S  S0  1  0.56523300  0.33731000  0.31054200  1
  S  S1  1  0.16619500  0.33976000  0.30301900  1
  S  S2  1  0.35150500  0.07303100  0.44772500  1
  S  S3  1  0.66619500  0.66024000  0.19698100  1
  S  S4  1  0.83380500  0.66024000  0.69698100  1
  S  S5  1  0.14849500  0.07303100  0.94772500  1
  S  S6  1  0.64849500  0.92696900  0.55227500  1
  S  S7  1  0.93476700  0.33731000  0.81054200  1
  S  S8  1  0.85051800  0.52614700  0.05209200  1
  S  S9  1  0.14948200  0.47385300  0.94790800  1
  S  S10  1  0.43476700  0.66269000  0.68945800  1
  S  S11  1  0.33380500  0.33976000  0.80301900  1
  S  S12  1  0.06523300  0.66269000  0.18945800  1
  S  S13  1  0.85150500  0.92696900  0.05227500  1
  S  S14  1  0.35051800  0.47385300  0.44790800  1
  S  S15  1  0.64948200  0.52614700  0.55209200  1
  Br  Br0  1  0.32436800  0.84219400  0.83453400  1
  Br  Br1  1  0.62728700  0.07782600  0.86766000  1
  Br  Br2  1  0.87271300  0.07782600  0.36766000  1
  Br  Br3  1  0.43943000  0.16141100  0.65954700  1
  Br  Br4  1  0.37271300  0.92217400  0.13234000  1
  Br  Br5  1  0.37551400  0.44493000  0.12766200  1
  Br  Br6  1  0.17563200  0.84219400  0.33453400  1
  Br  Br7  1  0.12448600  0.44493000  0.62766200  1
  Br  Br8  1  0.62448600  0.55507000  0.87233800  1
  Br  Br9  1  0.82436800  0.15780600  0.66546600  1
  Br  Br10  1  0.87551400  0.55507000  0.37233800  1
  Br  Br11  1  0.93943000  0.83858900  0.84045300  1
  Br  Br12  1  0.67563200  0.15780600  0.16546600  1
  Br  Br13  1  0.12728700  0.92217400  0.63234000  1
  Br  Br14  1  0.06057000  0.16141100  0.15954700  1
  Br  Br15  1  0.56057000  0.83858900  0.34045300  1
loop_
_geom_bond_atom_site_label_1
_geom_bond_atom_site_label_2
_geom_bond_distance
_geom_bond_site_symmetry_2
La0 S1 2.999540 1_555
La0 S0 3.030886 1_555
La0 S3 3.037642 1_555
La0 S12 3.076179 1_555
La0 S14 3.184564 1_555
La1 S10 2.960097 1_555
La1 S4 2.966368 1_555
La1 S6 3.305067 1_555
La2 S7 2.960097 1_455
La2 S11 2.966368 1_555
La2 S5 3.305067 1_555
La3 S4 2.999540 1_555
La3 S10 3.030886 1_555
La3 S11 3.037642 1_555
La3 S7 3.076179 1_555
La3 S15 3.184564 1_555
La4 S12 2.960097 1_655
La4 S3 2.966368 1_555
La4 S13 3.305067 1_555
La5 S0 2.960097 1_555
La5 S1 2.966368 1_555
La5 S2 3.305067 1_555
La6 S3 2.999540 1_555
La6 S12 3.030886 1_655
La6 S1 3.037642 1_655
La6 S0 3.076179 1_555
La6 S8 3.184564 1_555
La7 S11 2.999540 1_555
La7 S7 3.030886 1_455
La7 S4 3.037642 1_455
La7 S10 3.076179 1_555
La7 S9 3.184564 1_555
S0 Sb5 2.463508 1_555
S1 Sb7 2.448023 1_555
S2 Sb7 2.518034 1_555
S2 Sb5 2.531682 1_555
S3 Sb0 2.448023 1_555
S4 Sb2 2.448023 1_555
S5 Sb4 2.518034 1_555
S5 Sb1 2.531682 1_455
S6 Sb2 2.518034 1_555
S6 Sb6 2.531682 1_555
S7 Sb1 2.463508 1_555
S8 Sb0 2.525668 1_555
S8 Sb3 2.552554 1_655
S9 Sb4 2.525668 1_555
S9 Sb1 2.552554 1_455
S10 Sb6 2.463508 1_555
S11 Sb4 2.448023 1_555
S12 Sb3 2.463508 1_555
S13 Sb0 2.518034 1_555
S13 Sb3 2.531682 1_655
S14 Sb7 2.525668 1_555
S14 Sb5 2.552554 1_555
S15 Sb2 2.525668 1_555
S15 Sb6 2.552554 1_555
Br0 La2 3.119028 1_565
Br0 La7 3.168909 1_555
Br0 La1 3.246039 1_555
Br1 La3 3.119151 1_555
Br1 La1 3.122543 1_545
Br2 La6 3.119151 1_555
Br2 La4 3.122543 1_545
Br3 La1 3.147090 1_545
Br3 La3 3.236078 1_555
Br3 La2 3.327527 1_555
Br4 La0 3.119151 1_555
Br4 La5 3.122543 1_565
Br5 La0 3.111479 1_555
Br5 La5 3.176580 1_555
Br6 La5 3.119028 1_565
Br6 La0 3.168909 1_555
Br6 La4 3.246039 1_455
Br7 La7 3.111479 1_555
Br7 La2 3.176580 1_555
Br8 La3 3.111479 1_555
Br8 La1 3.176580 1_555
Br9 La1 3.119028 1_545
Br9 La3 3.168909 1_555
Br9 La2 3.246039 1_655
Br10 La6 3.111479 1_555
Br10 La4 3.176580 1_555
Br11 La2 3.147090 1_665
Br11 La7 3.236078 1_655
Br11 La1 3.327527 1_555
Br12 La4 3.119028 1_545
Br12 La6 3.168909 1_555
Br12 La5 3.246039 1_555
Br13 La7 3.119151 1_555
Br13 La2 3.122543 1_565
Br14 La4 3.147090 1_445
Br14 La6 3.236078 1_455
Br14 La5 3.327527 1_555
Br15 La5 3.147090 1_565
Br15 La0 3.236078 1_555
Br15 La4 3.327527 1_555
