# generated using pymatgen
data_K3SnSb3
_symmetry_space_group_name_H-M   'P 1'
_cell_length_a   5.26883245
_cell_length_b   15.55793627
_cell_length_c   7.75141835
_cell_angle_alpha   103.56625518
_cell_angle_beta   111.98063646
_cell_angle_gamma   89.78146801
_symmetry_Int_Tables_number   1
_chemical_formula_structural   K3SnSb3
_chemical_formula_sum   'K6 Sn2 Sb6'
_cell_volume   570.28278714
_cell_formula_units_Z   2
loop_
 _symmetry_equiv_pos_site_id
 _symmetry_equiv_pos_as_xyz
  1  'x, y, z'
loop_
 _atom_site_type_symbol
 _atom_site_label
 _atom_site_symmetry_multiplicity
 _atom_site_fract_x
 _atom_site_fract_y
 _atom_site_fract_z
 _atom_site_occupancy
  K  K0  1  0.00000000  0.00000000  0.00000000  1
  K  K1  1  0.00000000  0.50000000  0.00000000  1
  K  K2  1  0.30422400  0.37061000  0.55199000  1
  K  K3  1  0.31452200  0.86728400  0.56429400  1
  K  K4  1  0.68547800  0.13271600  0.43570600  1
  K  K5  1  0.69577600  0.62939000  0.44801000  1
  Sn  Sn0  1  0.87336500  0.72000200  0.11997000  1
  Sn  Sn1  1  0.12663500  0.27999800  0.88003000  1
  Sb  Sb0  1  0.85833800  0.22014300  0.10079700  1
  Sb  Sb1  1  0.38306900  0.11523600  0.78352200  1
  Sb  Sb2  1  0.38382400  0.61829800  0.79201900  1
  Sb  Sb3  1  0.61617600  0.38170200  0.20798100  1
  Sb  Sb4  1  0.61693100  0.88476400  0.21647800  1
  Sb  Sb5  1  0.14166200  0.77985700  0.89920300  1
loop_
_geom_bond_atom_site_label_1
_geom_bond_atom_site_label_2
_geom_bond_distance
_geom_bond_site_symmetry_2
K0 Sb5 3.472697 1_544
K0 Sb0 3.472697 1_455
K0 Sb4 3.725532 1_545
K0 Sb1 3.725532 1_454
K0 Sb1 3.752049 1_554
K0 Sb4 3.752049 1_445
K1 Sn1 3.461093 1_554
K1 Sn0 3.461093 1_455
K1 Sb2 3.733234 1_554
K1 Sb3 3.733234 1_455
K1 Sb3 3.735599 1_555
K1 Sb2 3.735599 1_454
K2 Sn1 3.577904 1_555
K2 Sb3 3.641031 1_455
K2 Sb0 3.644352 1_455
K2 Sb3 3.652501 1_555
K2 Sb2 3.814678 1_555
K3 Sb5 3.585369 1_555
K3 Sn0 3.586196 1_455
K3 Sb4 3.666675 1_555
K3 Sb4 3.710835 1_455
K3 Sb1 3.791466 1_565
K4 Sb0 3.585369 1_555
K4 Sn1 3.586196 1_655
K4 Sb1 3.666675 1_555
K4 Sb1 3.710835 1_655
K4 Sb4 3.791466 1_545
K5 Sn0 3.577904 1_555
K5 Sb2 3.641031 1_655
K5 Sb5 3.644352 1_655
K5 Sb2 3.652501 1_555
K5 Sb3 3.814678 1_555
Sb0 Sn1 2.891779 1_654
Sb0 Sb3 2.902655 1_555
Sb0 Sb1 2.919024 1_554
Sb1 Sn1 2.964202 1_555
Sb2 Sb5 2.902655 1_555
Sb2 Sn0 2.975645 1_556
Sb3 Sn1 2.975645 1_554
Sb4 Sb5 2.919024 1_554
Sb4 Sn0 2.964202 1_555
Sb5 Sn0 2.891779 1_456
