# generated using pymatgen
data_Sm4Si3Pd4
_symmetry_space_group_name_H-M   'P 1'
_cell_length_a   11.02269471
_cell_length_b   11.02269471
_cell_length_c   7.92735281
_cell_angle_alpha   71.74316758
_cell_angle_beta   71.74316758
_cell_angle_gamma   29.46478853
_symmetry_Int_Tables_number   1
_chemical_formula_structural   Sm4Si3Pd4
_chemical_formula_sum   'Sm8 Si6 Pd8'
_cell_volume   448.22842728
_cell_formula_units_Z   2
loop_
 _symmetry_equiv_pos_site_id
 _symmetry_equiv_pos_as_xyz
  1  'x, y, z'
loop_
 _atom_site_type_symbol
 _atom_site_label
 _atom_site_symmetry_multiplicity
 _atom_site_fract_x
 _atom_site_fract_y
 _atom_site_fract_z
 _atom_site_occupancy
  Sm  Sm0  1  0.20532100  0.45451200  0.39694900  1
  Sm  Sm1  1  0.45451200  0.20532100  0.89694900  1
  Sm  Sm2  1  0.54548800  0.79467900  0.10305100  1
  Sm  Sm3  1  0.79829200  0.06587500  0.17109600  1
  Sm  Sm4  1  0.06587500  0.79829200  0.67109600  1
  Sm  Sm5  1  0.20170800  0.93412500  0.82890400  1
  Sm  Sm6  1  0.93412500  0.20170800  0.32890400  1
  Sm  Sm7  1  0.79467900  0.54548800  0.60305100  1
  Si  Si0  1  0.94889800  0.70808400  0.05087500  1
  Si  Si1  1  0.05110200  0.29191600  0.94912500  1
  Si  Si2  1  0.29191600  0.05110200  0.44912500  1
  Si  Si3  1  0.65197100  0.34802900  0.75000000  1
  Si  Si4  1  0.70808400  0.94889800  0.55087500  1
  Si  Si5  1  0.34802900  0.65197100  0.25000000  1
  Pd  Pd0  1  0.30222100  0.56461100  0.01873100  1
  Pd  Pd1  1  0.36307900  0.08484800  0.69474500  1
  Pd  Pd2  1  0.56461100  0.30222100  0.51873100  1
  Pd  Pd3  1  0.69777900  0.43538900  0.98126900  1
  Pd  Pd4  1  0.08484800  0.36307900  0.19474500  1
  Pd  Pd5  1  0.91515200  0.63692100  0.80525500  1
  Pd  Pd6  1  0.63692100  0.91515200  0.30525500  1
  Pd  Pd7  1  0.43538900  0.69777900  0.48126900  1
loop_
_geom_bond_atom_site_label_1
_geom_bond_atom_site_label_2
_geom_bond_distance
_geom_bond_site_symmetry_2
Si0 Sm3 3.030022 1_565
Si0 Sm1 3.031874 1_564
Si0 Sm1 3.074988 1_654
Si0 Sm0 3.102444 1_655
Si0 Sm4 3.104816 1_654
Si1 Sm5 3.030022 1_545
Si1 Sm2 3.031874 1_546
Si1 Sm2 3.074988 1_456
Si1 Sm7 3.102444 1_455
Si1 Sm6 3.104816 1_456
Si2 Sm6 3.030022 1_455
Si2 Sm7 3.031874 1_455
Si2 Sm7 3.074988 1_545
Si2 Sm2 3.102444 1_545
Si2 Sm5 3.104816 1_545
Si3 Sm4 3.220452 1_645
Si3 Sm5 3.220452 1_645
Si3 Sm4 3.393240 1_555
Si3 Sm5 3.393240 1_555
Si3 Sm3 3.398705 1_556
Si3 Sm6 3.398705 1_555
Si3 Sm1 3.434211 1_555
Si3 Sm7 3.434211 1_555
Si4 Sm4 3.030022 1_655
Si4 Sm0 3.031874 1_655
Si4 Sm0 3.074988 1_565
Si4 Sm1 3.102444 1_565
Si4 Sm3 3.104816 1_565
Si5 Sm3 3.220452 1_465
Si5 Sm6 3.220452 1_465
Si5 Sm6 3.393240 1_555
Si5 Sm3 3.393240 1_555
Si5 Sm4 3.398705 1_555
Si5 Sm5 3.398705 1_554
Si5 Sm0 3.434211 1_555
Si5 Sm2 3.434211 1_555
Pd0 Si0 2.576699 1_455
Pd0 Si5 2.660108 1_555
Pd0 Si3 2.667298 1_554
Pd0 Sm3 3.035389 1_555
Pd0 Sm1 3.039408 1_554
Pd0 Sm3 3.062157 1_465
Pd0 Sm4 3.063009 1_554
Pd0 Sm5 3.070518 1_554
Pd0 Sm0 3.094199 1_555
Pd1 Si1 2.443983 1_555
Pd1 Si4 2.537380 1_545
Pd1 Si2 2.542391 1_555
Pd1 Sm0 3.067070 1_555
Pd1 Sm7 3.129975 1_545
Pd1 Sm5 3.147808 1_545
Pd1 Sm1 3.166220 1_555
Pd1 Sm7 3.272533 1_455
Pd1 Sm2 3.338015 1_546
Pd2 Si4 2.576699 1_545
Pd2 Si3 2.660108 1_555
Pd2 Si5 2.667298 1_555
Pd2 Sm4 3.035389 1_555
Pd2 Sm0 3.039408 1_555
Pd2 Sm4 3.062157 1_645
Pd2 Sm3 3.063009 1_555
Pd2 Sm6 3.070518 1_555
Pd2 Sm1 3.094199 1_555
Pd3 Si1 2.576699 1_655
Pd3 Si3 2.660108 1_555
Pd3 Si5 2.667298 1_556
Pd3 Sm5 3.035389 1_555
Pd3 Sm2 3.039408 1_556
Pd3 Sm5 3.062157 1_645
Pd3 Sm6 3.063009 1_556
Pd3 Sm3 3.070518 1_556
Pd3 Sm7 3.094199 1_555
Pd4 Si2 2.443983 1_555
Pd4 Si0 2.537380 1_455
Pd4 Si1 2.542391 1_554
Pd4 Sm1 3.067070 1_554
Pd4 Sm2 3.129975 1_455
Pd4 Sm6 3.147808 1_455
Pd4 Sm0 3.166220 1_555
Pd4 Sm2 3.272533 1_545
Pd4 Sm7 3.338015 1_455
Pd5 Si4 2.443983 1_555
Pd5 Si1 2.537380 1_655
Pd5 Si0 2.542391 1_556
Pd5 Sm2 3.067070 1_556
Pd5 Sm1 3.129975 1_655
Pd5 Sm4 3.147808 1_655
Pd5 Sm7 3.166220 1_555
Pd5 Sm1 3.272533 1_565
Pd5 Sm0 3.338015 1_655
Pd6 Si0 2.443983 1_555
Pd6 Si2 2.537380 1_565
Pd6 Si4 2.542391 1_555
Pd6 Sm7 3.067070 1_555
Pd6 Sm0 3.129975 1_565
Pd6 Sm3 3.147808 1_565
Pd6 Sm2 3.166220 1_555
Pd6 Sm0 3.272533 1_655
Pd6 Sm1 3.338015 1_564
Pd7 Si2 2.576699 1_565
Pd7 Si5 2.660108 1_555
Pd7 Si3 2.667298 1_555
Pd7 Sm6 3.035389 1_555
Pd7 Sm7 3.039408 1_555
Pd7 Sm6 3.062157 1_465
Pd7 Sm5 3.063009 1_555
Pd7 Sm4 3.070518 1_555
Pd7 Sm2 3.094199 1_555
