# generated using pymatgen
data_SiO2
_symmetry_space_group_name_H-M   'P 1'
_cell_length_a   11.06820055
_cell_length_b   11.06820055
_cell_length_c   11.06820055
_cell_angle_alpha   101.62744206
_cell_angle_beta   101.62744206
_cell_angle_gamma   126.64861615
_symmetry_Int_Tables_number   1
_chemical_formula_structural   SiO2
_chemical_formula_sum   'Si16 O32'
_cell_volume   972.07241201
_cell_formula_units_Z   16
loop_
 _symmetry_equiv_pos_site_id
 _symmetry_equiv_pos_as_xyz
  1  'x, y, z'
loop_
 _atom_site_type_symbol
 _atom_site_label
 _atom_site_symmetry_multiplicity
 _atom_site_fract_x
 _atom_site_fract_y
 _atom_site_fract_z
 _atom_site_occupancy
  Si  Si0  1  0.26576322  0.42244451  0.37752508  1
  Si  Si1  1  0.88823713  0.26576322  0.84331771  1
  Si  Si2  1  0.42244451  0.04491942  0.15668229  1
  Si  Si3  1  0.95508058  0.57755549  0.84331771  1
  Si  Si4  1  0.73423678  0.11176287  0.15668229  1
  Si  Si5  1  0.04491942  0.88823713  0.62247492  1
  Si  Si6  1  0.11176287  0.95508058  0.37752508  1
  Si  Si7  1  0.57755549  0.73423678  0.62247492  1
  Si  Si8  1  0.73423678  0.57755549  0.62247492  1
  Si  Si9  1  0.11176287  0.73423678  0.15668229  1
  Si  Si10  1  0.57755549  0.95508058  0.84331771  1
  Si  Si11  1  0.04491942  0.42244451  0.15668229  1
  Si  Si12  1  0.26576322  0.88823713  0.84331771  1
  Si  Si13  1  0.95508058  0.11176287  0.37752508  1
  Si  Si14  1  0.88823713  0.04491942  0.62247492  1
  Si  Si15  1  0.42244451  0.26576322  0.37752508  1
  O  O0  1  0.35625965  0.35625965  0.34283198  1
  O  O1  1  0.01342868  0.35625965  -0.00000000  1
  O  O2  1  0.35625965  0.01342868  -0.00000000  1
  O  O3  1  0.98657132  0.64374035  0.00000000  1
  O  O4  1  0.64374035  0.98657132  0.00000000  1
  O  O5  1  0.01342868  0.01342868  0.65716802  1
  O  O6  1  0.98657132  0.98657132  0.34283198  1
  O  O7  1  0.64374035  0.64374035  0.65716802  1
  O  O8  1  0.12277665  0.29890364  0.42168029  1
  O  O9  1  0.70109636  0.12277665  0.82387301  1
  O  O10  1  0.29890364  0.87722335  0.17612699  1
  O  O11  1  0.12277665  0.70109636  0.82387301  1
  O  O12  1  0.87722335  0.29890364  0.17612699  1
  O  O13  1  0.87722335  0.70109636  0.57831971  1
  O  O14  1  0.29890364  0.12277665  0.42168029  1
  O  O15  1  0.70109636  0.87722335  0.57831971  1
  O  O16  1  0.18755675  0.43249387  0.24493612  1
  O  O17  1  0.94262062  0.18755675  0.75506388  1
  O  O18  1  0.43249387  0.18755675  0.24493612  1
  O  O19  1  0.81244325  0.56750613  0.75506388  1
  O  O20  1  0.81244325  0.05737938  0.24493612  1
  O  O21  1  0.18755675  0.94262062  0.75506388  1
  O  O22  1  0.05737938  0.81244325  0.24493612  1
  O  O23  1  0.56750613  0.81244325  0.75506388  1
  O  O24  1  0.39704623  0.60295377  0.50000000  1
  O  O25  1  0.89704623  0.39704623  0.79409245  1
  O  O26  1  0.60295377  0.10295377  0.20590755  1
  O  O27  1  0.10295377  0.89704623  0.50000000  1
  O  O28  1  0.60295377  0.39704623  0.50000000  1
  O  O29  1  0.10295377  0.60295377  0.20590755  1
  O  O30  1  0.39704623  0.89704623  0.79409245  1
  O  O31  1  0.89704623  0.10295377  0.50000000  1
loop_
_geom_bond_atom_site_label_1
_geom_bond_atom_site_label_2
_geom_bond_distance
_geom_bond_site_symmetry_2
O0 Si15 1.613984 1_555
O0 Si0 1.613984 1_555
O1 Si11 1.613997 1_555
O1 Si1 1.613998 1_454
O2 Si2 1.613997 1_555
O2 Si12 1.613998 1_544
O3 Si3 1.613997 1_554
O3 Si9 1.613998 1_655
O4 Si10 1.613997 1_554
O4 Si4 1.613998 1_565
O5 Si14 1.613996 1_455
O5 Si5 1.613996 1_545
O6 Si13 1.613996 1_565
O6 Si6 1.613996 1_655
O7 Si7 1.613984 1_555
O7 Si8 1.613984 1_555
O8 Si13 1.615827 1_455
O8 Si0 1.615833 1_555
O9 Si10 1.615827 1_545
O9 Si1 1.615829 1_555
O10 Si2 1.615827 1_565
O10 Si9 1.615829 1_555
O11 Si3 1.615827 1_455
O11 Si12 1.615829 1_555
O12 Si11 1.615827 1_655
O12 Si4 1.615829 1_555
O13 Si5 1.615827 1_655
O13 Si8 1.615833 1_555
O14 Si6 1.615827 1_545
O14 Si15 1.615833 1_555
O15 Si14 1.615827 1_565
O15 Si7 1.615833 1_555
O16 Si11 1.607450 1_555
O16 Si0 1.607467 1_555
O17 Si14 1.607457 1_555
O17 Si1 1.607464 1_555
O18 Si2 1.607450 1_555
O18 Si15 1.607467 1_555
O19 Si3 1.607450 1_555
O19 Si8 1.607467 1_555
O20 Si13 1.607457 1_555
O20 Si4 1.607464 1_555
O21 Si5 1.607457 1_555
O21 Si12 1.607464 1_555
O22 Si6 1.607457 1_555
O22 Si9 1.607464 1_555
O23 Si10 1.607450 1_555
O23 Si7 1.607467 1_555
O24 Si0 1.609096 1_555
O24 Si7 1.609096 1_555
O25 Si1 1.609086 1_555
O25 Si3 1.609096 1_555
O26 Si4 1.609086 1_555
O26 Si2 1.609096 1_555
O27 Si6 1.609096 1_555
O27 Si5 1.609096 1_555
O28 Si15 1.609096 1_555
O28 Si8 1.609096 1_555
O29 Si9 1.609086 1_555
O29 Si11 1.609096 1_555
O30 Si12 1.609086 1_555
O30 Si10 1.609096 1_555
O31 Si13 1.609096 1_555
O31 Si14 1.609096 1_555
