# generated using pymatgen
data_NaCaAlH2OF6
_symmetry_space_group_name_H-M   'P 1'
_cell_length_a   5.60266400
_cell_length_b   5.67103700
_cell_length_c   16.28495920
_cell_angle_alpha   84.06740950
_cell_angle_beta   90.00000000
_cell_angle_gamma   90.00000000
_symmetry_Int_Tables_number   1
_chemical_formula_structural   NaCaAlH2OF6
_chemical_formula_sum   'Na4 Ca4 Al4 H8 O4 F24'
_cell_volume   514.64941366
_cell_formula_units_Z   4
loop_
 _symmetry_equiv_pos_site_id
 _symmetry_equiv_pos_as_xyz
  1  'x, y, z'
loop_
 _atom_site_type_symbol
 _atom_site_label
 _atom_site_symmetry_multiplicity
 _atom_site_fract_x
 _atom_site_fract_y
 _atom_site_fract_z
 _atom_site_occupancy
  Na  Na0  1  0.64316000  0.74634500  0.74751800  1
  Na  Na1  1  0.14316000  0.25365500  0.75248200  1
  Na  Na2  1  0.35684000  0.25365500  0.25248200  1
  Na  Na3  1  0.85684000  0.74634500  0.24751800  1
  Ca  Ca0  1  0.17101000  0.80463500  0.59767900  1
  Ca  Ca1  1  0.67101000  0.19536500  0.90232100  1
  Ca  Ca2  1  0.82899000  0.19536500  0.40232100  1
  Ca  Ca3  1  0.32899000  0.80463500  0.09767900  1
  Al  Al0  1  0.67830400  0.28070700  0.63899900  1
  Al  Al1  1  0.17830400  0.71929300  0.86100100  1
  Al  Al2  1  0.32169600  0.71929300  0.36100100  1
  Al  Al3  1  0.82169600  0.28070700  0.13899900  1
  H  H0  1  0.11179800  0.29612500  0.55119000  1
  H  H1  1  0.61179800  0.70387500  0.94881000  1
  H  H2  1  0.88820200  0.70387500  0.44881000  1
  H  H3  1  0.38820200  0.29612500  0.05119000  1
  H  H4  1  0.32118500  0.25180200  0.49022600  1
  H  H5  1  0.82118500  0.74819800  0.00977400  1
  H  H6  1  0.67881500  0.74819800  0.50977400  1
  H  H7  1  0.17881500  0.25180200  0.99022600  1
  O  O0  1  0.16265300  0.19212000  0.50911100  1
  O  O1  1  0.66265300  0.80788000  0.99088900  1
  O  O2  1  0.83734700  0.80788000  0.49088900  1
  O  O3  1  0.33734700  0.19212000  0.00911100  1
  F  F0  1  0.96953800  0.44402500  0.62528900  1
  F  F1  1  0.46953800  0.55597500  0.87471100  1
  F  F2  1  0.03046200  0.55597500  0.37471100  1
  F  F3  1  0.53046200  0.44402500  0.12528900  1
  F  F4  1  0.86571800  0.01186900  0.65547300  1
  F  F5  1  0.36571800  0.98813100  0.84452700  1
  F  F6  1  0.13428200  0.98813100  0.34452700  1
  F  F7  1  0.63428200  0.01186900  0.15547300  1
  F  F8  1  0.51351300  0.56007000  0.62741600  1
  F  F9  1  0.01351300  0.43993000  0.87258400  1
  F  F10  1  0.48648700  0.43993000  0.37258400  1
  F  F11  1  0.98648700  0.56007000  0.12741600  1
  F  F12  1  0.41358700  0.09536700  0.65774900  1
  F  F13  1  0.91358700  0.90463300  0.84225100  1
  F  F14  1  0.58641300  0.90463300  0.34225100  1
  F  F15  1  0.08641300  0.09536700  0.15774900  1
  F  F16  1  0.69970400  0.31392800  0.75019900  1
  F  F17  1  0.19970400  0.68607200  0.74980100  1
  F  F18  1  0.30029600  0.68607200  0.24980100  1
  F  F19  1  0.80029600  0.31392800  0.25019900  1
  F  F20  1  0.66145000  0.26438400  0.52860400  1
  F  F21  1  0.16145000  0.73561600  0.97139600  1
  F  F22  1  0.33855000  0.73561600  0.47139600  1
  F  F23  1  0.83855000  0.26438400  0.02860400  1
loop_
_geom_bond_atom_site_label_1
_geom_bond_atom_site_label_2
_geom_bond_distance
_geom_bond_site_symmetry_2
Ca0 F4 2.328360 1_465
Ca0 F22 2.330224 1_555
Ca0 F0 2.338459 1_455
Ca0 F8 2.387793 1_555
Ca0 F12 2.419882 1_565
Ca0 O0 2.501215 1_565
Ca0 F17 2.504122 1_555
Ca0 O2 2.552010 1_455
Ca1 F5 2.328360 1_545
Ca1 F23 2.330224 1_556
Ca1 F1 2.338459 1_555
Ca1 F9 2.387793 1_655
Ca1 F13 2.419882 1_545
Ca1 O1 2.501215 1_545
Ca1 F16 2.504122 1_555
Ca1 O3 2.552010 1_556
Ca2 F6 2.328360 1_645
Ca2 F20 2.330224 1_555
Ca2 F2 2.338459 1_655
Ca2 F10 2.387793 1_555
Ca2 F14 2.419882 1_545
Ca2 O2 2.501215 1_545
Ca2 F19 2.504122 1_555
Ca2 O0 2.552010 1_655
Ca3 F7 2.328360 1_565
Ca3 F21 2.330224 1_554
Ca3 F3 2.338459 1_555
Ca3 F11 2.387793 1_455
Ca3 F15 2.419882 1_565
Ca3 O3 2.501215 1_565
Ca3 F18 2.504122 1_555
Ca3 O1 2.552010 1_554
Al0 F20 1.812151 1_555
Al0 F12 1.825181 1_555
Al0 F8 1.826518 1_555
Al0 F16 1.843829 1_555
Al0 F4 1.847792 1_555
Al0 F0 1.878115 1_555
Al1 F21 1.812151 1_555
Al1 F13 1.825181 1_455
Al1 F9 1.826518 1_555
Al1 F17 1.843829 1_555
Al1 F5 1.847792 1_555
Al1 F1 1.878115 1_555
Al2 F22 1.812151 1_555
Al2 F14 1.825181 1_555
Al2 F10 1.826518 1_555
Al2 F18 1.843829 1_555
Al2 F6 1.847792 1_555
Al2 F2 1.878115 1_555
Al3 F23 1.812151 1_555
Al3 F15 1.825181 1_655
Al3 F11 1.826518 1_555
Al3 F19 1.843829 1_555
Al3 F7 1.847792 1_555
Al3 F3 1.878115 1_555
H0 O0 0.991054 1_555
H1 O1 0.991054 1_555
H2 O2 0.991054 1_555
H3 O3 0.991054 1_555
H4 O0 0.988191 1_555
H5 O1 0.988191 1_554
H6 O2 0.988191 1_555
H7 O3 0.988191 1_556
F0 Na1 2.437195 1_655
F1 Na0 2.437195 1_555
F2 Na3 2.437195 1_455
F3 Na2 2.437195 1_555
F4 Na0 2.366958 1_545
F4 Na1 2.690696 1_655
F5 Na1 2.366958 1_565
F5 Na0 2.690696 1_555
F6 Na2 2.366958 1_565
F6 Na3 2.690696 1_455
F7 Na3 2.366958 1_545
F7 Na2 2.690696 1_555
F8 Na0 2.428170 1_555
F9 Na1 2.428170 1_555
F10 Na2 2.428170 1_555
F11 Na3 2.428170 1_555
F12 Na1 2.401586 1_555
F12 Na0 2.666650 1_545
F13 Na0 2.401586 1_555
F13 Na1 2.666650 1_665
F14 Na3 2.401586 1_555
F14 Na2 2.666650 1_565
F15 Na2 2.401586 1_555
F15 Na3 2.666650 1_445
F16 Na0 2.468538 1_555
F16 Na1 2.507689 1_655
F17 Na1 2.468538 1_555
F17 Na0 2.507689 1_555
F18 Na2 2.468538 1_555
F18 Na3 2.507689 1_455
F19 Na3 2.468538 1_555
F19 Na2 2.507689 1_555
