# generated using pymatgen
data_P2Os4C15O13F6
_symmetry_space_group_name_H-M   'P 1'
_cell_length_a   10.45790569
_cell_length_b   10.45790569
_cell_length_c   29.98481362
_cell_angle_alpha   83.94538831
_cell_angle_beta   83.94538831
_cell_angle_gamma   56.60356204
_symmetry_Int_Tables_number   1
_chemical_formula_structural   P2Os4C15O13F6
_chemical_formula_sum   'P8 Os16 C60 O52 F24'
_cell_volume   2718.17262988
_cell_formula_units_Z   4
loop_
 _symmetry_equiv_pos_site_id
 _symmetry_equiv_pos_as_xyz
  1  'x, y, z'
loop_
 _atom_site_type_symbol
 _atom_site_label
 _atom_site_symmetry_multiplicity
 _atom_site_fract_x
 _atom_site_fract_y
 _atom_site_fract_z
 _atom_site_occupancy
  P  P0  1  0.50132200  0.20328900  0.34983300  1
  P  P1  1  0.20328900  0.50132200  0.84983300  1
  P  P2  1  0.68560400  0.76655700  0.08566600  1
  P  P3  1  0.23344300  0.31439600  0.41433400  1
  P  P4  1  0.31439600  0.23344300  0.91433400  1
  P  P5  1  0.76655700  0.68560400  0.58566600  1
  P  P6  1  0.49867800  0.79671100  0.65016700  1
  P  P7  1  0.79671100  0.49867800  0.15016700  1
  Os  Os0  1  0.34146500  0.23078500  0.83264700  1
  Os  Os1  1  0.94093100  0.59551700  0.10855400  1
  Os  Os2  1  0.76921500  0.65853500  0.66735300  1
  Os  Os3  1  0.75407600  0.46427100  0.60253900  1
  Os  Os4  1  0.53572900  0.24592400  0.89746100  1
  Os  Os5  1  0.41304600  0.65494500  0.61584200  1
  Os  Os6  1  0.24592400  0.53572900  0.39746100  1
  Os  Os7  1  0.65853500  0.76921500  0.16735300  1
  Os  Os8  1  0.58695400  0.34505500  0.38415800  1
  Os  Os9  1  0.23078500  0.34146500  0.33264700  1
  Os  Os10  1  0.40448300  0.05906900  0.39144600  1
  Os  Os11  1  0.59551700  0.94093100  0.60855400  1
  Os  Os12  1  0.65494500  0.41304600  0.11584200  1
  Os  Os13  1  0.05906900  0.40448300  0.89144600  1
  Os  Os14  1  0.46427100  0.75407600  0.10253900  1
  Os  Os15  1  0.34505500  0.58695400  0.88415800  1
  C  C0  1  0.65595100  0.95096000  0.05451200  1
  C  C1  1  0.50170300  0.22173500  0.79276400  1
  C  C2  1  0.95096000  0.65595100  0.55451200  1
  C  C3  1  0.35022700  0.91213600  0.69705400  1
  C  C4  1  0.49829700  0.77826500  0.20723600  1
  C  C5  1  0.34404900  0.04904000  0.94548800  1
  C  C6  1  0.44987100  0.05226900  0.56442100  1
  C  C7  1  0.64977300  0.08786400  0.30294600  1
  C  C8  1  0.02907400  0.67168100  0.39987900  1
  C  C9  1  0.49509400  0.10313000  0.65005900  1
  C  C10  1  0.49954600  0.40230700  0.08945800  1
  C  C11  1  0.05226900  0.44987100  0.06442100  1
  C  C12  1  0.94773100  0.55012900  0.93557900  1
  C  C13  1  0.31422000  0.73517200  0.14015500  1
  C  C14  1  0.19783300  0.80753200  0.62621700  1
  C  C15  1  0.79633100  0.73648800  0.21120500  1
  C  C16  1  0.44930500  0.57305100  0.82454900  1
  C  C17  1  0.73961000  0.43224100  0.05586500  1
  C  C18  1  0.80753200  0.19783300  0.12621700  1
  C  C19  1  0.72544900  0.41102000  0.54784400  1
  C  C20  1  0.59769300  0.50045400  0.41054200  1
  C  C21  1  0.27353100  0.98995500  0.41739600  1
  C  C22  1  0.42943600  0.01264000  0.83453400  1
  C  C23  1  0.20366900  0.26351200  0.78879500  1
  C  C24  1  0.01004500  0.72646900  0.08260400  1
  C  C25  1  0.73648800  0.79633100  0.71120500  1
  C  C26  1  0.58898000  0.27455100  0.95215600  1
  C  C27  1  0.56775900  0.26039000  0.44413500  1
  C  C28  1  0.08786400  0.64977300  0.80294600  1
  C  C29  1  0.73517200  0.31422000  0.64015500  1
  C  C30  1  0.98995500  0.27353100  0.91739600  1
  C  C31  1  0.50490600  0.89687000  0.34994100  1
  C  C32  1  0.04904000  0.34404900  0.44548800  1
  C  C33  1  0.72646900  0.01004500  0.58260400  1
  C  C34  1  0.26039000  0.56775900  0.94413500  1
  C  C35  1  0.27455100  0.58898000  0.45215600  1
  C  C36  1  0.40230700  0.49954600  0.58945800  1
  C  C37  1  0.01264000  0.42943600  0.33453400  1
  C  C38  1  0.57056400  0.98736000  0.16546600  1
  C  C39  1  0.41102000  0.72544900  0.04784400  1
  C  C40  1  0.10313000  0.49509400  0.15005900  1
  C  C41  1  0.26351200  0.20366900  0.28879500  1
  C  C42  1  0.77826500  0.49829700  0.70723600  1
  C  C43  1  0.50045400  0.59769300  0.91054200  1
  C  C44  1  0.42694900  0.55069500  0.67545100  1
  C  C45  1  0.67168100  0.02907400  0.89987900  1
  C  C46  1  0.19246800  0.80216700  0.87378300  1
  C  C47  1  0.32831900  0.97092600  0.10012100  1
  C  C48  1  0.57305100  0.44930500  0.32454900  1
  C  C49  1  0.68578000  0.26482800  0.85984500  1
  C  C50  1  0.22173500  0.50170300  0.29276400  1
  C  C51  1  0.98736000  0.57056400  0.66546600  1
  C  C52  1  0.26482800  0.68578000  0.35984500  1
  C  C53  1  0.97092600  0.32831900  0.60012100  1
  C  C54  1  0.89687000  0.50490600  0.84994100  1
  C  C55  1  0.91213600  0.35022700  0.19705400  1
  C  C56  1  0.43224100  0.73961000  0.55586500  1
  C  C57  1  0.55012900  0.94773100  0.43557900  1
  C  C58  1  0.55069500  0.42694900  0.17545100  1
  C  C59  1  0.80216700  0.19246800  0.37378300  1
  O  O0  1  0.11706000  0.36324600  0.03640600  1
  O  O1  1  0.76543700  0.89870400  0.90009600  1
  O  O2  1  0.48875400  0.43098000  0.20998200  1
  O  O3  1  0.43633300  0.20208300  0.67441400  1
  O  O4  1  0.88294000  0.63675400  0.96359400  1
  O  O5  1  0.21292600  0.59813300  0.26753900  1
  O  O6  1  0.20208300  0.43633300  0.17441400  1
  O  O7  1  0.43788900  0.79028300  0.52004500  1
  O  O8  1  0.37927300  0.71048100  0.01347700  1
  O  O9  1  0.89856000  0.06852400  0.13310300  1
  O  O10  1  0.23456300  0.10129600  0.09990400  1
  O  O11  1  0.79732600  0.05908100  0.56598300  1
  O  O12  1  0.93147600  0.10144000  0.36689700  1
  O  O13  1  0.59755600  0.59873600  0.42517800  1
  O  O14  1  0.26902700  0.78162500  0.33761100  1
  O  O15  1  0.12616800  0.27919900  0.76093200  1
  O  O16  1  0.79791700  0.56366700  0.82558600  1
  O  O17  1  0.72080100  0.87383200  0.73906800  1
  O  O18  1  0.20267400  0.94091900  0.43401700  1
  O  O19  1  0.28951900  0.62072700  0.48652300  1
  O  O20  1  0.05908100  0.79732600  0.06598300  1
  O  O21  1  0.62072700  0.28951900  0.98652300  1
  O  O22  1  0.87383200  0.72080100  0.23906800  1
  O  O23  1  0.88204200  0.48019900  0.33382100  1
  O  O24  1  0.40186700  0.78707400  0.23246100  1
  O  O25  1  0.94091900  0.20267400  0.93401700  1
  O  O26  1  0.10129600  0.23456300  0.59990400  1
  O  O27  1  0.59813300  0.21292600  0.76753900  1
  O  O28  1  0.27919900  0.12616800  0.26093200  1
  O  O29  1  0.78707400  0.40186700  0.73246100  1
  O  O30  1  0.48019900  0.88204200  0.83382100  1
  O  O31  1  0.20971700  0.56211100  0.97995500  1
  O  O32  1  0.51124600  0.56902000  0.79001800  1
  O  O33  1  0.89870400  0.76543700  0.40009600  1
  O  O34  1  0.21837500  0.73097300  0.16238900  1
  O  O35  1  0.78162500  0.26902700  0.83761100  1
  O  O36  1  0.43098000  0.48875400  0.70998200  1
  O  O37  1  0.56902000  0.51124600  0.29001800  1
  O  O38  1  0.40244400  0.40126400  0.57482200  1
  O  O39  1  0.40126400  0.40244400  0.07482200  1
  O  O40  1  0.36324600  0.11706000  0.53640600  1
  O  O41  1  0.56366700  0.79791700  0.32558600  1
  O  O42  1  0.71048100  0.37927300  0.51347700  1
  O  O43  1  0.11795800  0.51980100  0.66617900  1
  O  O44  1  0.63675400  0.88294000  0.46359400  1
  O  O45  1  0.06852400  0.89856000  0.63310300  1
  O  O46  1  0.56211100  0.20971700  0.47995500  1
  O  O47  1  0.79028300  0.43788900  0.02004500  1
  O  O48  1  0.59873600  0.59755600  0.92517800  1
  O  O49  1  0.73097300  0.21837500  0.66238900  1
  O  O50  1  0.10144000  0.93147600  0.86689700  1
  O  O51  1  0.51980100  0.11795800  0.16617900  1
  F  F0  1  0.06419200  0.50499800  0.55104300  1
  F  F1  1  0.27871600  0.98829600  0.92570000  1
  F  F2  1  0.69204400  0.17552400  0.27659200  1
  F  F3  1  0.08142700  0.27850000  0.48798200  1
  F  F4  1  0.72128400  0.01170400  0.07430000  1
  F  F5  1  0.17552400  0.69204400  0.77659200  1
  F  F6  1  0.96446300  0.40504500  0.22507500  1
  F  F7  1  0.03661900  0.21940900  0.18025300  1
  F  F8  1  0.82447600  0.30795600  0.22340800  1
  F  F9  1  0.78059100  0.96338100  0.31974700  1
  F  F10  1  0.21940900  0.03661900  0.68025300  1
  F  F11  1  0.93580800  0.49500200  0.44895700  1
  F  F12  1  0.01170400  0.72128400  0.57430000  1
  F  F13  1  0.30795600  0.82447600  0.72340800  1
  F  F14  1  0.03553700  0.59495500  0.77492500  1
  F  F15  1  0.59495500  0.03553700  0.27492500  1
  F  F16  1  0.98829600  0.27871600  0.42570000  1
  F  F17  1  0.27850000  0.08142700  0.98798200  1
  F  F18  1  0.40504500  0.96446300  0.72507500  1
  F  F19  1  0.72150000  0.91857300  0.01201800  1
  F  F20  1  0.91857300  0.72150000  0.51201800  1
  F  F21  1  0.49500200  0.93580800  0.94895700  1
  F  F22  1  0.96338100  0.78059100  0.81974700  1
  F  F23  1  0.50499800  0.06419200  0.05104300  1
loop_
_geom_bond_atom_site_label_1
_geom_bond_atom_site_label_2
_geom_bond_distance
_geom_bond_site_symmetry_2
C0 F23 1.362329 1_565
C0 F19 1.363576 1_555
C0 F4 1.365749 1_565
C0 P2 1.926272 1_555
C1 O27 1.161499 1_555
C1 Os0 1.916710 1_555
C2 F0 1.362329 1_655
C2 F20 1.363576 1_555
C2 F12 1.365749 1_655
C2 P5 1.926272 1_555
C3 F10 1.366237 1_565
C3 F18 1.370408 1_555
C3 F13 1.371096 1_555
C3 P6 1.917918 1_555
C4 O24 1.161499 1_555
C4 Os7 1.916710 1_555
C5 F21 1.362329 1_545
C5 F17 1.363576 1_555
C5 F1 1.365749 1_545
C5 P4 1.926272 1_555
C6 O40 1.161965 1_555
C6 Os11 1.890686 1_545
C7 F9 1.366237 1_545
C7 F15 1.370408 1_555
C7 F2 1.371096 1_555
C7 P0 1.917918 1_555
C8 O33 1.161080 1_455
C8 Os6 1.899255 1_555
C9 O3 1.160398 1_555
C9 Os11 1.933283 1_545
C10 O39 1.158629 1_555
C10 Os12 1.941771 1_555
C11 O0 1.161965 1_555
C11 Os1 1.890686 1_455
C12 O4 1.161965 1_555
C12 Os13 1.890686 1_655
C13 O34 1.162922 1_555
C13 Os14 1.922191 1_555
C14 O45 1.158865 1_555
C14 Os5 1.926657 1_555
C15 O22 1.161629 1_555
C15 Os7 1.919522 1_555
C16 O32 1.153738 1_555
C16 Os15 1.968165 1_555
C17 O47 1.157117 1_555
C17 Os12 1.960128 1_555
C18 O9 1.158865 1_555
C18 Os12 1.926657 1_555
C19 O42 1.166212 1_555
C19 Os3 1.889233 1_555
C20 O13 1.158629 1_555
C20 Os8 1.941771 1_555
C21 O18 1.160591 1_555
C21 Os10 1.936389 1_565
C22 O30 1.163281 1_545
C22 Os0 1.930635 1_555
C23 O15 1.161629 1_555
C23 Os0 1.919522 1_555
C24 O20 1.160591 1_555
C24 Os1 1.936389 1_455
C25 O17 1.161629 1_555
C25 Os2 1.919522 1_555
C26 O21 1.166212 1_555
C26 Os4 1.889233 1_555
C27 O46 1.157117 1_555
C27 Os8 1.960128 1_555
C28 F22 1.366237 1_455
C28 F14 1.370408 1_555
C28 F5 1.371096 1_555
C28 P1 1.917918 1_555
C29 O49 1.162922 1_555
C29 Os3 1.922191 1_555
C30 O25 1.160591 1_555
C30 Os13 1.936389 1_655
C31 O41 1.160398 1_555
C31 Os10 1.933283 1_565
C32 F11 1.362329 1_455
C32 F3 1.363576 1_555
C32 F16 1.365749 1_455
C32 P3 1.926272 1_555
C33 O11 1.160591 1_555
C33 Os11 1.936389 1_545
C34 O31 1.157117 1_555
C34 Os15 1.960128 1_555
C35 O19 1.166212 1_555
C35 Os6 1.889233 1_555
C36 O38 1.158629 1_555
C36 Os5 1.941771 1_555
C37 O23 1.163281 1_455
C37 Os9 1.930635 1_555
C38 O51 1.163281 1_565
C38 Os7 1.930635 1_555
C39 O8 1.166212 1_555
C39 Os14 1.889233 1_555
C40 O6 1.160398 1_555
C40 Os1 1.933283 1_455
C41 O28 1.161629 1_555
C41 Os9 1.919522 1_555
C42 O29 1.161499 1_555
C42 Os2 1.916710 1_555
C43 O48 1.158629 1_555
C43 Os15 1.941771 1_555
C44 O36 1.153738 1_555
C44 Os5 1.968165 1_555
C45 O1 1.161080 1_545
C45 Os4 1.899255 1_555
C46 O50 1.158865 1_555
C46 Os15 1.926657 1_555
C47 O10 1.161080 1_565
C47 Os14 1.899255 1_555
C48 O37 1.153738 1_555
C48 Os8 1.968165 1_555
C49 O35 1.162922 1_555
C49 Os4 1.922191 1_555
C50 O5 1.161499 1_555
C50 Os9 1.916710 1_555
C51 O43 1.163281 1_655
C51 Os2 1.930635 1_555
C52 O14 1.162922 1_555
C52 Os6 1.922191 1_555
C53 O26 1.161080 1_655
C53 Os3 1.899255 1_555
C54 O16 1.160398 1_555
C54 Os13 1.933283 1_655
C55 F7 1.366237 1_655
C55 F6 1.370408 1_555
C55 F8 1.371096 1_555
C55 P7 1.917918 1_555
C56 O7 1.157117 1_555
C56 Os5 1.960128 1_555
C57 O44 1.161965 1_555
C57 Os10 1.890686 1_565
C58 O2 1.153738 1_555
C58 Os12 1.968165 1_555
C59 O12 1.158865 1_555
C59 Os8 1.926657 1_555
