# generated using pymatgen
data_K2Nb6Ag(PO8)3
_symmetry_space_group_name_H-M   'P 1'
_cell_length_a   8.57769396
_cell_length_b   8.57769396
_cell_length_c   8.64329970
_cell_angle_alpha   75.41295263
_cell_angle_beta   75.41295263
_cell_angle_gamma   104.38378746
_symmetry_Int_Tables_number   1
_chemical_formula_structural   K2Nb6Ag(PO8)3
_chemical_formula_sum   'K2 Nb6 Ag1 P3 O24'
_cell_volume   561.62360187
_cell_formula_units_Z   1
loop_
 _symmetry_equiv_pos_site_id
 _symmetry_equiv_pos_as_xyz
  1  'x, y, z'
loop_
 _atom_site_type_symbol
 _atom_site_label
 _atom_site_symmetry_multiplicity
 _atom_site_fract_x
 _atom_site_fract_y
 _atom_site_fract_z
 _atom_site_occupancy
  K  K0  1  0.16999700  0.47677400  0.22023800  1
  K  K1  1  0.52322600  0.83000300  0.77976200  1
  Nb  Nb0  1  0.15172500  0.03449800  0.64864100  1
  Nb  Nb1  1  0.35465500  0.15474600  0.96146200  1
  Nb  Nb2  1  0.84525400  0.64534500  0.03853800  1
  Nb  Nb3  1  0.03676700  0.35185200  0.84557400  1
  Nb  Nb4  1  0.96550200  0.84827500  0.35135900  1
  Nb  Nb5  1  0.64814800  0.96323300  0.15442600  1
  Ag  Ag0  1  0.50351900  0.49648100  0.50000000  1
  P  P0  1  0.49775000  0.26863600  0.26838200  1
  P  P1  1  0.73136400  0.50225000  0.73161800  1
  P  P2  1  0.27022400  0.72977600  0.50000000  1
  O  O0  1  0.49751100  0.02087100  0.02232400  1
  O  O1  1  0.15278400  0.00184800  0.15379700  1
  O  O2  1  0.57477900  0.12518600  0.28291800  1
  O  O3  1  0.84658400  0.15341600  0.00000000  1
  O  O4  1  0.31240300  0.06745400  0.79241300  1
  O  O5  1  0.41626700  0.28948300  0.12782000  1
  O  O6  1  0.35832200  0.23593100  0.43957300  1
  O  O7  1  0.63999100  0.44048900  0.23188000  1
  O  O8  1  0.07643800  0.21286000  0.68791800  1
  O  O9  1  0.87481400  0.42522100  0.71708200  1
  O  O10  1  0.55951100  0.36000900  0.76812000  1
  O  O11  1  0.21029700  0.31594600  0.93168700  1
  O  O12  1  0.97912900  0.50248900  0.97767600  1
  O  O13  1  0.93254600  0.68759700  0.20758700  1
  O  O14  1  0.76406900  0.64167800  0.56042700  1
  O  O15  1  0.71051700  0.58373300  0.87218000  1
  O  O16  1  0.68405400  0.78970300  0.06831300  1
  O  O17  1  0.23689400  0.55964400  0.64182100  1
  O  O18  1  0.44035600  0.76310600  0.35817900  1
  O  O19  1  0.12793800  0.71043300  0.42077500  1
  O  O20  1  0.78714000  0.92356200  0.31208200  1
  O  O21  1  0.28956700  0.87206200  0.57922500  1
  O  O22  1  0.99815200  0.84721600  0.84620300  1
  O  O23  1  0.02580700  0.97419300  0.50000000  1
loop_
_geom_bond_atom_site_label_1
_geom_bond_atom_site_label_2
_geom_bond_distance
_geom_bond_site_symmetry_2
K0 O12 2.966477 1_454
K0 O19 2.990927 1_555
K0 O5 3.027191 1_555
K0 O13 3.045193 1_455
K0 O11 3.127061 1_554
K1 O0 2.966477 1_566
K1 O21 2.990927 1_555
K1 O15 3.027191 1_555
K1 O4 3.045193 1_565
K1 O16 3.127061 1_556
Nb0 O8 1.874848 1_555
Nb0 O22 1.914595 1_445
Nb0 O23 1.959811 1_545
Nb0 O4 2.090395 1_555
Nb0 O21 2.140461 1_545
Nb0 O6 2.164316 1_555
Nb1 O4 1.873478 1_555
Nb1 O1 1.950794 1_556
Nb1 O0 1.953581 1_556
Nb1 O11 2.084077 1_555
Nb1 O10 2.117092 1_555
Nb1 O5 2.144500 1_556
Nb2 O13 1.873478 1_555
Nb2 O22 1.950794 1_554
Nb2 O12 1.953581 1_554
Nb2 O16 2.084077 1_555
Nb2 O7 2.117092 1_555
Nb2 O15 2.144500 1_554
Nb3 O11 1.880100 1_555
Nb3 O3 1.928555 1_456
Nb3 O12 1.998469 1_455
Nb3 O8 2.044601 1_555
Nb3 O9 2.102080 1_455
Nb3 O17 2.145029 1_555
Nb4 O20 1.874848 1_555
Nb4 O1 1.914595 1_665
Nb4 O23 1.959811 1_655
Nb4 O13 2.090395 1_555
Nb4 O19 2.140461 1_655
Nb4 O14 2.164316 1_555
Nb5 O16 1.880100 1_555
Nb5 O3 1.928555 1_565
Nb5 O0 1.998469 1_565
Nb5 O20 2.044601 1_555
Nb5 O2 2.102080 1_565
Nb5 O18 2.145029 1_555
Ag0 O6 2.520215 1_555
Ag0 O14 2.520215 1_555
Ag0 O7 2.538711 1_555
Ag0 O10 2.538711 1_555
Ag0 O17 2.562162 1_555
Ag0 O18 2.562162 1_555
O2 P0 1.527835 1_555
O5 P0 1.541720 1_555
O6 P0 1.559259 1_555
O7 P0 1.561867 1_555
O9 P1 1.527835 1_555
O10 P1 1.561867 1_555
O14 P1 1.559259 1_555
O15 P1 1.541720 1_555
O17 P2 1.558569 1_555
O18 P2 1.558569 1_555
O19 P2 1.537402 1_555
O21 P2 1.537402 1_555
