# generated using pymatgen
data_LiEu2Ge3
_symmetry_space_group_name_H-M   'P 1'
_cell_length_a   4.48257400
_cell_length_b   10.95986600
_cell_length_c   11.61931800
_cell_angle_alpha   90.00000000
_cell_angle_beta   90.00000000
_cell_angle_gamma   90.00000000
_symmetry_Int_Tables_number   1
_chemical_formula_structural   LiEu2Ge3
_chemical_formula_sum   'Li4 Eu8 Ge12'
_cell_volume   570.83862298
_cell_formula_units_Z   4
loop_
 _symmetry_equiv_pos_site_id
 _symmetry_equiv_pos_as_xyz
  1  'x, y, z'
loop_
 _atom_site_type_symbol
 _atom_site_label
 _atom_site_symmetry_multiplicity
 _atom_site_fract_x
 _atom_site_fract_y
 _atom_site_fract_z
 _atom_site_occupancy
  Li  Li0  1  0.00000000  0.64093400  0.28218300  1
  Li  Li1  1  0.00000000  0.35906600  0.71781700  1
  Li  Li2  1  0.50000000  0.85906600  0.78218300  1
  Li  Li3  1  0.50000000  0.14093400  0.21781700  1
  Eu  Eu0  1  0.50000000  0.55039200  0.85071300  1
  Eu  Eu1  1  0.50000000  0.44960800  0.14928700  1
  Eu  Eu2  1  0.50000000  0.17826300  0.92939100  1
  Eu  Eu3  1  0.00000000  0.67826300  0.57060900  1
  Eu  Eu4  1  0.00000000  0.32173700  0.42939100  1
  Eu  Eu5  1  0.00000000  0.05039200  0.64928700  1
  Eu  Eu6  1  0.00000000  0.94960800  0.35071300  1
  Eu  Eu7  1  0.50000000  0.82173700  0.07060900  1
  Ge  Ge0  1  0.00000000  0.74437500  0.85919000  1
  Ge  Ge1  1  0.50000000  0.88905800  0.54411300  1
  Ge  Ge2  1  0.00000000  0.61094200  0.04411300  1
  Ge  Ge3  1  0.00000000  0.38905800  0.95588700  1
  Ge  Ge4  1  0.50000000  0.24437500  0.64081000  1
  Ge  Ge5  1  0.00000000  0.25562500  0.14081000  1
  Ge  Ge6  1  0.00000000  0.97083600  0.89697200  1
  Ge  Ge7  1  0.50000000  0.47083600  0.60302800  1
  Ge  Ge8  1  0.00000000  0.02916400  0.10302800  1
  Ge  Ge9  1  0.50000000  0.11094200  0.45588700  1
  Ge  Ge10  1  0.50000000  0.75562500  0.35919000  1
  Ge  Ge11  1  0.50000000  0.52916400  0.39697200  1
loop_
_geom_bond_atom_site_label_1
_geom_bond_atom_site_label_2
_geom_bond_distance
_geom_bond_site_symmetry_2
Eu0 Ge7 3.007114 1_555
Eu0 Ge0 3.090803 1_555
Eu0 Ge0 3.090803 1_655
Eu0 Ge3 3.105367 1_655
Eu0 Ge3 3.105367 1_555
Eu0 Ge2 3.242462 1_656
Eu0 Ge2 3.242462 1_556
Eu1 Ge11 3.007114 1_555
Eu1 Ge5 3.090803 1_655
Eu1 Ge5 3.090803 1_555
Eu1 Ge2 3.105367 1_555
Eu1 Ge2 3.105367 1_655
Eu1 Ge3 3.242462 1_654
Eu1 Ge3 3.242462 1_554
Eu2 Ge6 3.214573 1_545
Eu2 Ge6 3.214573 1_645
Eu2 Ge3 3.233507 1_655
Eu2 Ge3 3.233507 1_555
Eu2 Li3 3.376193 1_556
Eu2 Ge8 3.429890 1_656
Eu2 Ge8 3.429890 1_556
Eu2 Ge4 3.430509 1_555
Eu2 Ge5 3.431745 1_656
Eu2 Ge5 3.431745 1_556
Eu3 Ge7 3.214573 1_555
Eu3 Ge7 3.214573 1_455
Eu3 Ge1 3.233507 1_555
Eu3 Ge1 3.233507 1_455
Eu3 Li0 3.376193 1_555
Eu3 Ge11 3.429890 1_455
Eu3 Ge11 3.429890 1_555
Eu3 Ge0 3.430509 1_555
Eu3 Ge10 3.431745 1_555
Eu3 Ge10 3.431745 1_455
Eu4 Ge11 3.214573 1_455
Eu4 Ge11 3.214573 1_555
Eu4 Ge9 3.233507 1_455
Eu4 Ge9 3.233507 1_555
Eu4 Li1 3.376193 1_555
Eu4 Ge7 3.429890 1_455
Eu4 Ge7 3.429890 1_555
Eu4 Ge5 3.430509 1_555
Eu4 Ge4 3.431745 1_455
Eu4 Ge4 3.431745 1_555
Eu5 Ge6 3.007114 1_545
Eu5 Ge4 3.090803 1_455
Eu5 Ge4 3.090803 1_555
Eu5 Ge1 3.105367 1_445
Eu5 Ge1 3.105367 1_545
Eu5 Ge9 3.242462 1_455
Eu5 Ge9 3.242462 1_555
Eu6 Ge8 3.007114 1_565
Eu6 Ge10 3.090803 1_455
Eu6 Ge10 3.090803 1_555
Eu6 Ge9 3.105367 1_465
Eu6 Ge9 3.105367 1_565
Eu6 Ge1 3.242462 1_555
Eu6 Ge1 3.242462 1_455
Eu7 Ge8 3.214573 1_565
Eu7 Ge8 3.214573 1_665
Eu7 Ge2 3.233507 1_655
Eu7 Ge2 3.233507 1_555
Eu7 Li2 3.376193 1_554
Eu7 Ge6 3.429890 1_654
Eu7 Ge6 3.429890 1_554
Eu7 Ge10 3.430509 1_555
Eu7 Ge0 3.431745 1_554
Eu7 Ge0 3.431745 1_654
Ge0 Ge6 2.520507 1_555
Ge0 Ge2 2.599127 1_556
Ge0 Li2 2.721033 1_555
Ge0 Li2 2.721033 1_455
Ge1 Ge10 2.599127 1_555
Ge1 Ge9 2.639058 1_565
Ge1 Li2 2.785673 1_555
Ge2 Ge3 2.639058 1_554
Ge2 Li0 2.785673 1_555
Ge3 Ge5 2.599127 1_556
Ge3 Li1 2.785673 1_555
Ge4 Ge7 2.520507 1_555
Ge4 Ge9 2.599127 1_555
Ge4 Li1 2.721033 1_555
Ge4 Li1 2.721033 1_655
Ge5 Ge8 2.520507 1_555
Ge5 Li3 2.721033 1_455
Ge5 Li3 2.721033 1_555
Ge6 Ge8 2.478104 1_566
Ge6 Li2 2.881475 1_455
Ge6 Li2 2.881475 1_555
Ge7 Li1 2.881475 1_655
Ge7 Li1 2.881475 1_555
Ge8 Li3 2.881475 1_555
Ge8 Li3 2.881475 1_455
Ge9 Li3 2.785673 1_555
Ge10 Ge11 2.520507 1_555
Ge10 Li0 2.721033 1_655
Ge10 Li0 2.721033 1_555
Ge11 Ge7 2.478104 1_555
Ge11 Li0 2.881475 1_555
Ge11 Li0 2.881475 1_655
