# generated using pymatgen
data_Li2W2O7
_symmetry_space_group_name_H-M   'P 1'
_cell_length_a   5.26181000
_cell_length_b   6.93329311
_cell_length_c   8.70574118
_cell_angle_alpha   70.15906040
_cell_angle_beta   76.32693639
_cell_angle_gamma   85.04621479
_symmetry_Int_Tables_number   1
_chemical_formula_structural   Li2W2O7
_chemical_formula_sum   'Li4 W4 O14'
_cell_volume   290.27388256
_cell_formula_units_Z   2
loop_
 _symmetry_equiv_pos_site_id
 _symmetry_equiv_pos_as_xyz
  1  'x, y, z'
loop_
 _atom_site_type_symbol
 _atom_site_label
 _atom_site_symmetry_multiplicity
 _atom_site_fract_x
 _atom_site_fract_y
 _atom_site_fract_z
 _atom_site_occupancy
  Li  Li0  1  0.86529900  0.55760500  0.75105600  1
  Li  Li1  1  0.59303100  0.22786200  0.35943300  1
  Li  Li2  1  0.13470100  0.44239500  0.24894400  1
  Li  Li3  1  0.40696900  0.77213800  0.64056700  1
  W  W0  1  0.30264400  0.03840000  0.16448700  1
  W  W1  1  0.20944200  0.24395100  0.68721300  1
  W  W2  1  0.79055800  0.75604900  0.31278700  1
  W  W3  1  0.69735600  0.96160000  0.83551300  1
  O  O0  1  0.85249500  0.25220100  0.79668800  1
  O  O1  1  0.14750500  0.74779900  0.20331200  1
  O  O2  1  0.72600500  0.50756800  0.30940400  1
  O  O3  1  0.27399500  0.49243200  0.69059600  1
  O  O4  1  0.05149800  0.92716400  0.74884100  1
  O  O5  1  0.94850200  0.07283600  0.25115900  1
  O  O6  1  0.80568100  0.70138600  0.52709800  1
  O  O7  1  0.66990500  0.90980500  0.07652700  1
  O  O8  1  0.44367500  0.90203200  0.36349400  1
  O  O9  1  0.40508800  0.28676400  0.14454100  1
  O  O10  1  0.55632500  0.09796800  0.63650600  1
  O  O11  1  0.33009500  0.09019500  0.92347300  1
  O  O12  1  0.19431900  0.29861400  0.47290200  1
  O  O13  1  0.59491200  0.71323600  0.85545900  1
loop_
_geom_bond_atom_site_label_1
_geom_bond_atom_site_label_2
_geom_bond_distance
_geom_bond_site_symmetry_2
Li0 O13 1.950346 1_555
Li0 O6 1.951755 1_555
Li0 O0 2.021620 1_555
Li0 O3 2.136422 1_655
Li1 O2 1.989218 1_555
Li1 O12 2.188439 1_555
Li1 O9 2.220560 1_555
Li1 O10 2.236489 1_555
Li1 O5 2.247063 1_555
Li1 O8 2.441627 1_545
Li2 O9 1.950346 1_555
Li2 O12 1.951755 1_555
Li2 O1 2.021620 1_555
Li2 O2 2.136422 1_455
Li3 O3 1.989218 1_555
Li3 O6 2.188439 1_555
Li3 O13 2.220560 1_555
Li3 O8 2.236489 1_555
Li3 O4 2.247063 1_555
Li3 O10 2.441627 1_565
O0 W1 1.900363 1_655
O0 W3 2.128718 1_545
O1 W2 1.900363 1_455
O1 W0 2.128718 1_565
O2 W2 1.795685 1_555
O3 W1 1.795685 1_555
O4 W3 1.865324 1_455
O4 W1 2.259897 1_565
O5 W0 1.865324 1_655
O5 W2 2.259897 1_545
O6 W2 1.793300 1_555
O7 W3 1.976483 1_554
O7 W0 2.140562 1_565
O7 W2 2.186779 1_555
O8 W0 1.954706 1_565
O8 W2 2.038161 1_555
O9 W0 1.788579 1_555
O10 W3 1.954706 1_545
O10 W1 2.038161 1_555
O11 W0 1.976483 1_556
O11 W3 2.140562 1_545
O11 W1 2.186779 1_555
O12 W1 1.793300 1_555
O13 W3 1.788579 1_555
