# generated using pymatgen
data_CsTiH24(SO10)2
_symmetry_space_group_name_H-M   'P 1'
_cell_length_a   12.58859000
_cell_length_b   12.58859000
_cell_length_c   12.58859000
_cell_angle_alpha   90.00000000
_cell_angle_beta   90.00000000
_cell_angle_gamma   90.00000000
_symmetry_Int_Tables_number   1
_chemical_formula_structural   CsTiH24(SO10)2
_chemical_formula_sum   'Cs4 Ti4 H96 S8 O80'
_cell_volume   1994.94656482
_cell_formula_units_Z   4
loop_
 _symmetry_equiv_pos_site_id
 _symmetry_equiv_pos_as_xyz
  1  'x, y, z'
loop_
 _atom_site_type_symbol
 _atom_site_label
 _atom_site_symmetry_multiplicity
 _atom_site_fract_x
 _atom_site_fract_y
 _atom_site_fract_z
 _atom_site_occupancy
  Cs  Cs0  1  0.00000000  0.00000000  0.50000000  1
  Cs  Cs1  1  0.00000000  0.50000000  0.00000000  1
  Cs  Cs2  1  0.50000000  0.00000000  0.00000000  1
  Cs  Cs3  1  0.50000000  0.50000000  0.50000000  1
  Ti  Ti0  1  0.50000000  0.50000000  0.00000000  1
  Ti  Ti1  1  0.50000000  0.00000000  0.50000000  1
  Ti  Ti2  1  0.00000000  0.50000000  0.50000000  1
  Ti  Ti3  1  0.00000000  0.00000000  0.00000000  1
  H  H0  1  0.21960300  0.50929900  0.23141900  1
  H  H1  1  0.78039700  0.00929900  0.26858100  1
  H  H2  1  0.28039700  0.49070100  0.73141900  1
  H  H3  1  0.71960300  0.99070100  0.76858100  1
  H  H4  1  0.23141900  0.21960300  0.50929900  1
  H  H5  1  0.26858100  0.78039700  0.00929900  1
  H  H6  1  0.73141900  0.28039700  0.49070100  1
  H  H7  1  0.76858100  0.71960300  0.99070100  1
  H  H8  1  0.50929900  0.23141900  0.21960300  1
  H  H9  1  0.00929900  0.26858100  0.78039700  1
  H  H10  1  0.49070100  0.73141900  0.28039700  1
  H  H11  1  0.99070100  0.76858100  0.71960300  1
  H  H12  1  0.78039700  0.49070100  0.76858100  1
  H  H13  1  0.21960300  0.99070100  0.73141900  1
  H  H14  1  0.71960300  0.50929900  0.26858100  1
  H  H15  1  0.28039700  0.00929900  0.23141900  1
  H  H16  1  0.76858100  0.78039700  0.49070100  1
  H  H17  1  0.73141900  0.21960300  0.99070100  1
  H  H18  1  0.26858100  0.71960300  0.50929900  1
  H  H19  1  0.23141900  0.28039700  0.00929900  1
  H  H20  1  0.49070100  0.76858100  0.78039700  1
  H  H21  1  0.99070100  0.73141900  0.21960300  1
  H  H22  1  0.50929900  0.26858100  0.71960300  1
  H  H23  1  0.00929900  0.23141900  0.28039700  1
  H  H24  1  0.18131600  0.62709600  0.22299200  1
  H  H25  1  0.81868400  0.12709600  0.27700800  1
  H  H26  1  0.31868400  0.37290400  0.72299200  1
  H  H27  1  0.68131600  0.87290400  0.77700800  1
  H  H28  1  0.22299200  0.18131600  0.62709600  1
  H  H29  1  0.27700800  0.81868400  0.12709600  1
  H  H30  1  0.72299200  0.31868400  0.37290400  1
  H  H31  1  0.77700800  0.68131600  0.87290400  1
  H  H32  1  0.62709600  0.22299200  0.18131600  1
  H  H33  1  0.12709600  0.27700800  0.81868400  1
  H  H34  1  0.37290400  0.72299200  0.31868400  1
  H  H35  1  0.87290400  0.77700800  0.68131600  1
  H  H36  1  0.81868400  0.37290400  0.77700800  1
  H  H37  1  0.18131600  0.87290400  0.72299200  1
  H  H38  1  0.68131600  0.62709600  0.27700800  1
  H  H39  1  0.31868400  0.12709600  0.22299200  1
  H  H40  1  0.77700800  0.81868400  0.37290400  1
  H  H41  1  0.72299200  0.18131600  0.87290400  1
  H  H42  1  0.27700800  0.68131600  0.62709600  1
  H  H43  1  0.22299200  0.31868400  0.12709600  1
  H  H44  1  0.37290400  0.77700800  0.81868400  1
  H  H45  1  0.87290400  0.72299200  0.18131600  1
  H  H46  1  0.62709600  0.27700800  0.68131600  1
  H  H47  1  0.12709600  0.22299200  0.31868400  1
  H  H48  1  0.47704300  0.70897400  0.93736400  1
  H  H49  1  0.52295700  0.20897400  0.56263600  1
  H  H50  1  0.02295700  0.29102600  0.43736400  1
  H  H51  1  0.97704300  0.79102600  0.06263600  1
  H  H52  1  0.93736400  0.47704300  0.70897400  1
  H  H53  1  0.56263600  0.52295700  0.20897400  1
  H  H54  1  0.43736400  0.02295700  0.29102600  1
  H  H55  1  0.06263600  0.97704300  0.79102600  1
  H  H56  1  0.70897400  0.93736400  0.47704300  1
  H  H57  1  0.20897400  0.56263600  0.52295700  1
  H  H58  1  0.29102600  0.43736400  0.02295700  1
  H  H59  1  0.79102600  0.06263600  0.97704300  1
  H  H60  1  0.52295700  0.29102600  0.06263600  1
  H  H61  1  0.47704300  0.79102600  0.43736400  1
  H  H62  1  0.97704300  0.70897400  0.56263600  1
  H  H63  1  0.02295700  0.20897400  0.93736400  1
  H  H64  1  0.06263600  0.52295700  0.29102600  1
  H  H65  1  0.43736400  0.47704300  0.79102600  1
  H  H66  1  0.56263600  0.97704300  0.70897400  1
  H  H67  1  0.93736400  0.02295700  0.20897400  1
  H  H68  1  0.29102600  0.06263600  0.52295700  1
  H  H69  1  0.79102600  0.43736400  0.47704300  1
  H  H70  1  0.70897400  0.56263600  0.97704300  1
  H  H71  1  0.20897400  0.93736400  0.02295700  1
  H  H72  1  0.52562400  0.70625400  0.06024900  1
  H  H73  1  0.47437600  0.20625400  0.43975100  1
  H  H74  1  0.97437600  0.29374600  0.56024900  1
  H  H75  1  0.02562400  0.79374600  0.93975100  1
  H  H76  1  0.06024900  0.52562400  0.70625400  1
  H  H77  1  0.43975100  0.47437600  0.20625400  1
  H  H78  1  0.56024900  0.97437600  0.29374600  1
  H  H79  1  0.93975100  0.02562400  0.79374600  1
  H  H80  1  0.70625400  0.06024900  0.52562400  1
  H  H81  1  0.20625400  0.43975100  0.47437600  1
  H  H82  1  0.29374600  0.56024900  0.97437600  1
  H  H83  1  0.79374600  0.93975100  0.02562400  1
  H  H84  1  0.47437600  0.29374600  0.93975100  1
  H  H85  1  0.52562400  0.79374600  0.56024900  1
  H  H86  1  0.02562400  0.70625400  0.43975100  1
  H  H87  1  0.97437600  0.20625400  0.06024900  1
  H  H88  1  0.93975100  0.47437600  0.29374600  1
  H  H89  1  0.56024900  0.52562400  0.79374600  1
  H  H90  1  0.43975100  0.02562400  0.70625400  1
  H  H91  1  0.06024900  0.97437600  0.20625400  1
  H  H92  1  0.29374600  0.93975100  0.47437600  1
  H  H93  1  0.79374600  0.56024900  0.52562400  1
  H  H94  1  0.70625400  0.43975100  0.02562400  1
  H  H95  1  0.20625400  0.06024900  0.97437600  1
  S  S0  1  0.17280100  0.82719900  0.32719900  1
  S  S1  1  0.82719900  0.32719900  0.17280100  1
  S  S2  1  0.32719900  0.17280100  0.82719900  1
  S  S3  1  0.67280100  0.67280100  0.67280100  1
  S  S4  1  0.82719900  0.17280100  0.67280100  1
  S  S5  1  0.17280100  0.67280100  0.82719900  1
  S  S6  1  0.67280100  0.82719900  0.17280100  1
  S  S7  1  0.32719900  0.32719900  0.32719900  1
  O  O0  1  0.24157500  0.75842500  0.25842500  1
  O  O1  1  0.75842500  0.25842500  0.24157500  1
  O  O2  1  0.25842500  0.24157500  0.75842500  1
  O  O3  1  0.74157500  0.74157500  0.74157500  1
  O  O4  1  0.75842500  0.24157500  0.74157500  1
  O  O5  1  0.24157500  0.74157500  0.75842500  1
  O  O6  1  0.74157500  0.75842500  0.24157500  1
  O  O7  1  0.25842500  0.25842500  0.25842500  1
  O  O8  1  0.06469600  0.77892100  0.33675900  1
  O  O9  1  0.93530400  0.27892100  0.16324100  1
  O  O10  1  0.43530400  0.22107900  0.83675900  1
  O  O11  1  0.56469600  0.72107900  0.66324100  1
  O  O12  1  0.33675900  0.06469600  0.77892100  1
  O  O13  1  0.16324100  0.93530400  0.27892100  1
  O  O14  1  0.83675900  0.43530400  0.22107900  1
  O  O15  1  0.66324100  0.56469600  0.72107900  1
  O  O16  1  0.77892100  0.33675900  0.06469600  1
  O  O17  1  0.27892100  0.16324100  0.93530400  1
  O  O18  1  0.22107900  0.83675900  0.43530400  1
  O  O19  1  0.72107900  0.66324100  0.56469600  1
  O  O20  1  0.93530400  0.22107900  0.66324100  1
  O  O21  1  0.06469600  0.72107900  0.83675900  1
  O  O22  1  0.56469600  0.77892100  0.16324100  1
  O  O23  1  0.43530400  0.27892100  0.33675900  1
  O  O24  1  0.66324100  0.93530400  0.22107900  1
  O  O25  1  0.83675900  0.06469600  0.72107900  1
  O  O26  1  0.16324100  0.56469600  0.77892100  1
  O  O27  1  0.33675900  0.43530400  0.27892100  1
  O  O28  1  0.22107900  0.66324100  0.93530400  1
  O  O29  1  0.72107900  0.83675900  0.06469600  1
  O  O30  1  0.77892100  0.16324100  0.56469600  1
  O  O31  1  0.27892100  0.33675900  0.43530400  1
  O  O32  1  0.15721800  0.55295600  0.21256100  1
  O  O33  1  0.84278200  0.05295600  0.28743900  1
  O  O34  1  0.34278200  0.44704400  0.71256100  1
  O  O35  1  0.65721800  0.94704400  0.78743900  1
  O  O36  1  0.21256100  0.15721800  0.55295600  1
  O  O37  1  0.28743900  0.84278200  0.05295600  1
  O  O38  1  0.71256100  0.34278200  0.44704400  1
  O  O39  1  0.78743900  0.65721800  0.94704400  1
  O  O40  1  0.55295600  0.21256100  0.15721800  1
  O  O41  1  0.05295600  0.28743900  0.84278200  1
  O  O42  1  0.44704400  0.71256100  0.34278200  1
  O  O43  1  0.94704400  0.78743900  0.65721800  1
  O  O44  1  0.84278200  0.44704400  0.78743900  1
  O  O45  1  0.15721800  0.94704400  0.71256100  1
  O  O46  1  0.65721800  0.55295600  0.28743900  1
  O  O47  1  0.34278200  0.05295600  0.21256100  1
  O  O48  1  0.78743900  0.84278200  0.44704400  1
  O  O49  1  0.71256100  0.15721800  0.94704400  1
  O  O50  1  0.28743900  0.65721800  0.55295600  1
  O  O51  1  0.21256100  0.34278200  0.05295600  1
  O  O52  1  0.44704400  0.78743900  0.84278200  1
  O  O53  1  0.94704400  0.71256100  0.15721800  1
  O  O54  1  0.55295600  0.28743900  0.65721800  1
  O  O55  1  0.05295600  0.21256100  0.34278200  1
  O  O56  1  0.50011100  0.66221700  0.99922700  1
  O  O57  1  0.49988900  0.16221700  0.50077300  1
  O  O58  1  0.99988900  0.33778300  0.49922700  1
  O  O59  1  0.00011100  0.83778300  0.00077300  1
  O  O60  1  0.99922700  0.50011100  0.66221700  1
  O  O61  1  0.50077300  0.49988900  0.16221700  1
  O  O62  1  0.49922700  0.99988900  0.33778300  1
  O  O63  1  0.00077300  0.00011100  0.83778300  1
  O  O64  1  0.66221700  0.99922700  0.50011100  1
  O  O65  1  0.16221700  0.50077300  0.49988900  1
  O  O66  1  0.33778300  0.49922700  0.99988900  1
  O  O67  1  0.83778300  0.00077300  0.00011100  1
  O  O68  1  0.49988900  0.33778300  0.00077300  1
  O  O69  1  0.50011100  0.83778300  0.49922700  1
  O  O70  1  0.00011100  0.66221700  0.50077300  1
  O  O71  1  0.99988900  0.16221700  0.99922700  1
  O  O72  1  0.00077300  0.49988900  0.33778300  1
  O  O73  1  0.49922700  0.50011100  0.83778300  1
  O  O74  1  0.50077300  0.00011100  0.66221700  1
  O  O75  1  0.99922700  0.99988900  0.16221700  1
  O  O76  1  0.33778300  0.00077300  0.49988900  1
  O  O77  1  0.83778300  0.49922700  0.50011100  1
  O  O78  1  0.66221700  0.50077300  0.00011100  1
  O  O79  1  0.16221700  0.99922700  0.99988900  1
loop_
_geom_bond_atom_site_label_1
_geom_bond_atom_site_label_2
_geom_bond_distance
_geom_bond_site_symmetry_2
Cs0 O36 3.394347 1_555
Cs0 O43 3.394347 1_445
Cs0 O48 3.394347 1_445
Cs0 O33 3.394347 1_455
Cs0 O45 3.394347 1_545
Cs0 O55 3.394347 1_555
Cs0 O18 3.554112 1_545
Cs0 O20 3.554112 1_455
Cs0 O25 3.554112 1_455
Cs0 O13 3.554112 1_545
Cs0 O8 3.554112 1_545
Cs0 O30 3.554112 1_455
Cs1 O41 3.394347 1_554
Cs1 O44 3.394347 1_454
Cs1 O39 3.394347 1_454
Cs1 O32 3.394347 1_555
Cs1 O51 3.394347 1_555
Cs1 O53 3.394347 1_455
Cs1 O28 3.554112 1_554
Cs1 O14 3.554112 1_455
Cs1 O21 3.554112 1_554
Cs1 O26 3.554112 1_554
Cs1 O9 3.554112 1_455
Cs1 O16 3.554112 1_455
Cs2 O37 3.394347 1_545
Cs2 O49 3.394347 1_554
Cs2 O35 3.394347 1_544
Cs2 O52 3.394347 1_544
Cs2 O40 3.394347 1_555
Cs2 O47 3.394347 1_555
Cs2 O24 3.554112 1_545
Cs2 O10 3.554112 1_554
Cs2 O29 3.554112 1_545
Cs2 O12 3.554112 1_554
Cs2 O17 3.554112 1_554
Cs2 O22 3.554112 1_545
Cs3 O54 3.394347 1_555
Cs3 O46 3.394347 1_555
Cs3 O50 3.394347 1_555
Cs3 O38 3.394347 1_555
Cs3 O34 3.394347 1_555
Cs3 O42 3.394347 1_555
Cs3 O19 3.554112 1_555
Cs3 O11 3.554112 1_555
Cs3 O15 3.554112 1_555
Cs3 O27 3.554112 1_555
Cs3 O31 3.554112 1_555
Cs3 O23 3.554112 1_555
H0 O32 0.987498 1_555
H1 O33 0.987498 1_555
H2 O34 0.987498 1_555
H3 O35 0.987498 1_555
H4 O36 0.987498 1_555
H5 O37 0.987498 1_555
H6 O38 0.987498 1_555
H7 O39 0.987498 1_555
H8 O40 0.987498 1_555
H9 O41 0.987498 1_555
H10 O42 0.987498 1_555
H11 O43 0.987498 1_555
H12 O44 0.987498 1_555
H13 O45 0.987498 1_555
H14 O46 0.987498 1_555
H15 O47 0.987498 1_555
H16 O48 0.987498 1_555
H17 O49 0.987498 1_555
H18 O50 0.987498 1_555
H19 O51 0.987498 1_555
H20 O52 0.987498 1_555
H21 O53 0.987498 1_555
H22 O54 0.987498 1_555
H23 O55 0.987498 1_555
H24 O32 0.990128 1_555
H25 O33 0.990128 1_555
H26 O34 0.990128 1_555
H27 O35 0.990128 1_555
H28 O36 0.990128 1_555
H29 O37 0.990128 1_555
H30 O38 0.990128 1_555
H31 O39 0.990128 1_555
H32 O40 0.990128 1_555
H33 O41 0.990128 1_555
H34 O42 0.990128 1_555
H35 O43 0.990128 1_555
H36 O44 0.990128 1_555
H37 O45 0.990128 1_555
H38 O46 0.990128 1_555
H39 O47 0.990128 1_555
H40 O48 0.990128 1_555
H41 O49 0.990128 1_555
H42 O50 0.990128 1_555
H43 O51 0.990128 1_555
H44 O52 0.990128 1_555
H45 O53 0.990128 1_555
H46 O54 0.990128 1_555
H47 O55 0.990128 1_555
H48 O56 1.018461 1_555
H48 O52 1.592467 1_555
H49 O57 1.018461 1_555
H49 O54 1.592467 1_555
H50 O58 1.018461 1_455
H50 O55 1.592467 1_555
H51 O59 1.018461 1_655
H51 O53 1.592467 1_555
H52 O60 1.018461 1_555
H52 O44 1.592467 1_555
H53 O61 1.018461 1_555
H53 O46 1.592467 1_555
H54 O62 1.018461 1_545
H54 O47 1.592467 1_555
H55 O63 1.018461 1_565
H55 O45 1.592467 1_555
H56 O64 1.018461 1_555
H56 O48 1.592467 1_555
H57 O65 1.018461 1_555
H57 O50 1.592467 1_555
H58 O66 1.018461 1_554
H58 O51 1.592467 1_555
H59 O67 1.018461 1_556
H59 O49 1.592467 1_555
H60 O68 1.018461 1_555
H60 O40 1.592467 1_555
H61 O69 1.018461 1_555
H61 O42 1.592467 1_555
H62 O70 1.018461 1_655
H62 O43 1.592467 1_555
H63 O71 1.018461 1_455
H63 O41 1.592467 1_555
H64 O72 1.018461 1_555
H64 O32 1.592467 1_555
H65 O73 1.018461 1_555
H65 O34 1.592467 1_555
H66 O74 1.018461 1_565
H66 O35 1.592467 1_555
H67 O75 1.018461 1_545
H67 O33 1.592467 1_555
H68 O76 1.018461 1_555
H68 O36 1.592467 1_555
H69 O77 1.018461 1_555
H69 O38 1.592467 1_555
H70 O78 1.018461 1_556
H70 O39 1.592467 1_555
H71 O79 1.018461 1_554
H71 O37 1.592467 1_555
H72 O56 1.000286 1_554
H72 O22 1.661239 1_555
H73 O57 1.000286 1_555
H73 O23 1.661239 1_555
H74 O58 1.000286 1_555
H74 O20 1.661239 1_555
H75 O59 1.000286 1_556
H75 O21 1.661239 1_555
H76 O60 1.000286 1_455
H76 O26 1.661239 1_555
H77 O61 1.000286 1_555
H77 O27 1.661239 1_555
H78 O62 1.000286 1_555
H78 O24 1.661239 1_555
H79 O63 1.000286 1_655
H79 O25 1.661239 1_555
H80 O64 1.000286 1_545
H80 O30 1.661239 1_555
H81 O65 1.000286 1_555
H81 O31 1.661239 1_555
H82 O66 1.000286 1_555
H82 O28 1.661239 1_555
H83 O67 1.000286 1_565
H83 O29 1.661239 1_555
H84 O68 1.000286 1_556
H84 O10 1.661239 1_555
H85 O69 1.000286 1_555
H85 O11 1.661239 1_555
H86 O70 1.000286 1_555
H86 O8 1.661239 1_555
H87 O71 1.000286 1_554
H87 O9 1.661239 1_555
H88 O72 1.000286 1_655
H88 O14 1.661239 1_555
H89 O73 1.000286 1_555
H89 O15 1.661239 1_555
H90 O74 1.000286 1_555
H90 O12 1.661239 1_555
H91 O75 1.000286 1_455
H91 O13 1.661239 1_555
H92 O76 1.000286 1_565
H92 O18 1.661239 1_555
H93 O77 1.000286 1_555
H93 O19 1.661239 1_555
H94 O78 1.000286 1_555
H94 O16 1.661239 1_555
H95 O79 1.000286 1_545
H95 O17 1.661239 1_555
O0 S0 1.499554 1_555
O1 S1 1.499554 1_555
O2 S2 1.499554 1_555
O3 S3 1.499554 1_555
O4 S4 1.499554 1_555
O5 S5 1.499554 1_555
O6 S6 1.499554 1_555
O7 S7 1.499554 1_555
O8 S0 1.495281 1_555
O9 S1 1.495281 1_555
O10 S2 1.495281 1_555
O11 S3 1.495281 1_555
O12 S2 1.495281 1_555
O13 S0 1.495281 1_555
O14 S1 1.495281 1_555
O15 S3 1.495281 1_555
O16 S1 1.495281 1_555
O17 S2 1.495281 1_555
O18 S0 1.495281 1_555
O19 S3 1.495281 1_555
O20 S4 1.495281 1_555
O21 S5 1.495281 1_555
O22 S6 1.495281 1_555
O23 S7 1.495281 1_555
O24 S6 1.495281 1_555
O25 S4 1.495281 1_555
O26 S5 1.495281 1_555
O27 S7 1.495281 1_555
O28 S5 1.495281 1_555
O29 S6 1.495281 1_555
O30 S4 1.495281 1_555
O31 S7 1.495281 1_555
O56 Ti0 2.042107 1_556
O57 Ti1 2.042107 1_555
O58 Ti2 2.042107 1_655
O59 Ti3 2.042107 1_565
O60 Ti2 2.042107 1_655
O61 Ti0 2.042107 1_555
O62 Ti1 2.042107 1_565
O63 Ti3 2.042107 1_556
O64 Ti1 2.042107 1_565
O65 Ti2 2.042107 1_555
O66 Ti0 2.042107 1_556
O67 Ti3 2.042107 1_655
O68 Ti0 2.042107 1_555
O69 Ti1 2.042107 1_565
O70 Ti2 2.042107 1_555
O71 Ti3 2.042107 1_656
O72 Ti2 2.042107 1_555
O73 Ti0 2.042107 1_556
O74 Ti1 2.042107 1_555
O75 Ti3 2.042107 1_665
O76 Ti1 2.042107 1_555
O77 Ti2 2.042107 1_655
O78 Ti0 2.042107 1_555
O79 Ti3 2.042107 1_566
