# generated using pymatgen
data_OsC3IO3
_symmetry_space_group_name_H-M   'P 1'
_cell_length_a   14.18497000
_cell_length_b   6.51874200
_cell_length_c   7.42982150
_cell_angle_alpha   88.88512595
_cell_angle_beta   90.00000000
_cell_angle_gamma   90.00000000
_symmetry_Int_Tables_number   1
_chemical_formula_structural   OsC3IO3
_chemical_formula_sum   'Os4 C12 I4 O12'
_cell_volume   686.89186460
_cell_formula_units_Z   4
loop_
 _symmetry_equiv_pos_site_id
 _symmetry_equiv_pos_as_xyz
  1  'x, y, z'
loop_
 _atom_site_type_symbol
 _atom_site_label
 _atom_site_symmetry_multiplicity
 _atom_site_fract_x
 _atom_site_fract_y
 _atom_site_fract_z
 _atom_site_occupancy
  Os  Os0  1  0.65133100  0.24854400  0.71800400  1
  Os  Os1  1  0.34866900  0.75145600  0.28199600  1
  Os  Os2  1  0.15133100  0.75145600  0.28199600  1
  Os  Os3  1  0.84866900  0.24854400  0.71800400  1
  C  C0  1  0.87321700  0.12201800  0.49648200  1
  C  C1  1  0.46802600  0.61468300  0.25488000  1
  C  C2  1  0.11914900  0.99247200  0.15133100  1
  C  C3  1  0.38085100  0.99247200  0.15133100  1
  C  C4  1  0.53197400  0.38531700  0.74512000  1
  C  C5  1  0.61914900  0.00752800  0.84866900  1
  C  C6  1  0.12678300  0.87798200  0.50351800  1
  C  C7  1  0.88085100  0.00752800  0.84866900  1
  C  C8  1  0.96802600  0.38531700  0.74512000  1
  C  C9  1  0.03197400  0.61468300  0.25488000  1
  C  C10  1  0.37321700  0.87798200  0.50351800  1
  C  C11  1  0.62678300  0.12201800  0.49648200  1
  I  I0  1  0.75000000  0.56289100  0.53944700  1
  I  I1  1  0.25000000  0.43710900  0.46055300  1
  I  I2  1  0.75000000  0.38992000  0.01349000  1
  I  I3  1  0.25000000  0.61008000  0.98651000  1
  O  O0  1  0.59756200  0.85871800  0.92748200  1
  O  O1  1  0.54092300  0.53335800  0.24555800  1
  O  O2  1  0.10951700  0.96007000  0.63759300  1
  O  O3  1  0.39048300  0.96007000  0.63759300  1
  O  O4  1  0.60951700  0.03993000  0.36240700  1
  O  O5  1  0.45907700  0.46664200  0.75444200  1
  O  O6  1  0.09756200  0.14128200  0.07251800  1
  O  O7  1  0.89048300  0.03993000  0.36240700  1
  O  O8  1  0.95907700  0.53335800  0.24555800  1
  O  O9  1  0.90243800  0.85871800  0.92748200  1
  O  O10  1  0.40243800  0.14128200  0.07251800  1
  O  O11  1  0.04092300  0.46664200  0.75444200  1
loop_
_geom_bond_atom_site_label_1
_geom_bond_atom_site_label_2
_geom_bond_distance
_geom_bond_site_symmetry_2
C0 O7 1.165930 1_555
C0 Os3 1.887655 1_555
C1 O1 1.164694 1_555
C1 Os1 1.925880 1_555
C2 O6 1.164282 1_565
C2 Os2 1.886782 1_555
C3 O10 1.164282 1_565
C3 Os1 1.886782 1_555
C4 O5 1.164694 1_555
C4 Os0 1.925880 1_555
C5 O0 1.164282 1_545
C5 Os0 1.886782 1_555
C6 O2 1.165930 1_555
C6 Os2 1.887655 1_555
C7 O9 1.164282 1_545
C7 Os3 1.886782 1_555
C8 O11 1.164694 1_655
C8 Os3 1.925880 1_555
C9 O8 1.164694 1_455
C9 Os2 1.925880 1_555
C10 O3 1.165930 1_555
C10 Os1 1.887655 1_555
C11 O4 1.165930 1_555
C11 Os0 1.887655 1_555
I0 Os0 2.795020 1_555
I0 Os3 2.795020 1_555
I1 Os1 2.795020 1_555
I1 Os2 2.795020 1_555
I2 Os0 2.776115 1_554
I2 Os3 2.776115 1_554
I3 Os2 2.776115 1_556
I3 Os1 2.776115 1_556
