# generated using pymatgen
data_BaAl2(SiO4)2
_symmetry_space_group_name_H-M   'P 1'
_cell_length_a   8.58111292
_cell_length_b   9.07034756
_cell_length_c   9.59874661
_cell_angle_alpha   90.00000000
_cell_angle_beta   90.00000000
_cell_angle_gamma   90.19073053
_symmetry_Int_Tables_number   1
_chemical_formula_structural   BaAl2(SiO4)2
_chemical_formula_sum   'Ba4 Al8 Si8 O32'
_cell_volume   747.10160007
_cell_formula_units_Z   4
loop_
 _symmetry_equiv_pos_site_id
 _symmetry_equiv_pos_as_xyz
  1  'x, y, z'
loop_
 _atom_site_type_symbol
 _atom_site_label
 _atom_site_symmetry_multiplicity
 _atom_site_fract_x
 _atom_site_fract_y
 _atom_site_fract_z
 _atom_site_occupancy
  Ba  Ba0  1  0.25095718  0.39816730  0.08851989  1
  Ba  Ba1  1  0.74904282  0.10183270  0.58851989  1
  Ba  Ba2  1  0.74904282  0.60183270  0.91148011  1
  Ba  Ba3  1  0.25095718  0.89816730  0.41148011  1
  Al  Al0  1  0.93086863  0.72474518  0.57826184  1
  Al  Al1  1  0.06913137  0.77525482  0.07826184  1
  Al  Al2  1  0.06913137  0.27525482  0.42173816  1
  Al  Al3  1  0.93086863  0.22474518  0.92173816  1
  Al  Al4  1  0.57194532  0.56395926  0.30689756  1
  Al  Al5  1  0.42805468  0.93604074  0.80689756  1
  Al  Al6  1  0.42805468  0.43604074  0.69310244  1
  Al  Al7  1  0.57194532  0.06395926  0.19310244  1
  Si  Si0  1  0.56287468  0.73197840  0.58326689  1
  Si  Si1  1  0.43712532  0.76802160  0.08326689  1
  Si  Si2  1  0.43712532  0.26802160  0.41673311  1
  Si  Si3  1  0.56287468  0.23197840  0.91673311  1
  Si  Si4  1  0.94075955  0.56856129  0.30142391  1
  Si  Si5  1  0.05924045  0.93143871  0.80142391  1
  Si  Si6  1  0.05924045  0.43143871  0.69857609  1
  Si  Si7  1  0.94075955  0.06856129  0.19857609  1
  O  O0  1  0.74108991  0.79311665  0.58774777  1
  O  O1  1  0.25891009  0.70688335  0.08774777  1
  O  O2  1  0.25891009  0.20688335  0.41225223  1
  O  O3  1  0.74108991  0.29311665  0.91225223  1
  O  O4  1  0.76460912  0.52104344  0.33534516  1
  O  O5  1  0.23539088  0.97895656  0.83534516  1
  O  O6  1  0.23539088  0.47895656  0.66465484  1
  O  O7  1  0.76460912  0.02104344  0.16465484  1
  O  O8  1  0.45036598  0.40932222  0.31526158  1
  O  O9  1  0.54963402  0.09067778  0.81526158  1
  O  O10  1  0.54963402  0.59067778  0.68473842  1
  O  O11  1  0.45036598  0.90932222  0.18473842  1
  O  O12  1  0.05865583  0.42983745  0.31609051  1
  O  O13  1  0.94134417  0.07016255  0.81609051  1
  O  O14  1  0.94134417  0.57016255  0.68390949  1
  O  O15  1  0.05865583  0.92983745  0.18390949  1
  O  O16  1  0.54451975  0.63149224  0.13695070  1
  O  O17  1  0.45548025  0.86850776  0.63695070  1
  O  O18  1  0.45548025  0.36850776  0.86304930  1
  O  O19  1  0.54451975  0.13149224  0.36304930  1
  O  O20  1  -0.00043781  0.19643387  0.09035435  1
  O  O21  1  0.00043781  0.30356613  0.59035435  1
  O  O22  1  0.00043781  0.80356613  0.90964565  1
  O  O23  1  -0.00043781  0.69643387  0.40964565  1
  O  O24  1  0.50353082  0.19419967  0.07258020  1
  O  O25  1  0.49646918  0.30580033  0.57258020  1
  O  O26  1  0.49646918  0.80580033  0.92741980  1
  O  O27  1  0.50353082  0.69419967  0.42741980  1
  O  O28  1  0.95648139  0.12763698  0.35893526  1
  O  O29  1  0.04351861  0.37236302  0.85893526  1
  O  O30  1  0.04351861  0.87236302  0.64106474  1
  O  O31  1  0.95648139  0.62763698  0.14106474  1
loop_
_geom_bond_atom_site_label_1
_geom_bond_atom_site_label_2
_geom_bond_distance
_geom_bond_site_symmetry_2
Ba0 O12 2.753229 1_555
Ba0 O8 2.770197 1_555
Ba0 O18 2.799925 1_554
Ba0 O1 2.800776 1_555
Ba0 O20 2.824162 1_555
Ba0 O29 2.842007 1_554
Ba0 O24 2.858370 1_555
Ba1 O13 2.753229 1_555
Ba1 O9 2.770197 1_555
Ba1 O19 2.799925 1_555
Ba1 O0 2.800776 1_545
Ba1 O21 2.824162 1_655
Ba1 O28 2.842007 1_555
Ba1 O25 2.858370 1_555
Ba2 O14 2.753229 1_555
Ba2 O10 2.770197 1_555
Ba2 O16 2.799925 1_556
Ba2 O3 2.800776 1_555
Ba2 O22 2.824162 1_655
Ba2 O31 2.842007 1_556
Ba2 O26 2.858370 1_555
Ba3 O15 2.753229 1_555
Ba3 O11 2.770197 1_555
Ba3 O17 2.799925 1_555
Ba3 O2 2.800776 1_565
Ba3 O23 2.824162 1_555
Ba3 O30 2.842007 1_555
Ba3 O27 2.858370 1_555
Al0 O14 1.732981 1_555
Al0 O23 1.741832 1_655
Al0 O0 1.746899 1_555
Al0 O30 1.755561 1_655
Al1 O15 1.732981 1_555
Al1 O22 1.741832 1_554
Al1 O1 1.746899 1_555
Al1 O31 1.755561 1_455
Al2 O12 1.732981 1_555
Al2 O21 1.741832 1_555
Al2 O2 1.746899 1_555
Al2 O28 1.755561 1_455
Al3 O13 1.732981 1_555
Al3 O20 1.741832 1_656
Al3 O3 1.746899 1_555
Al3 O29 1.755561 1_655
Al4 O4 1.721532 1_555
Al4 O8 1.747131 1_555
Al4 O27 1.755885 1_555
Al4 O16 1.758586 1_555
Al5 O5 1.721532 1_555
Al5 O9 1.747131 1_565
Al5 O26 1.755885 1_555
Al5 O17 1.758586 1_555
Al6 O6 1.721532 1_555
Al6 O10 1.747131 1_555
Al6 O25 1.755885 1_555
Al6 O18 1.758586 1_555
Al7 O7 1.721532 1_555
Al7 O11 1.747131 1_545
Al7 O24 1.755885 1_555
Al7 O19 1.758586 1_555
O0 Si0 1.625557 1_555
O1 Si1 1.625557 1_555
O2 Si2 1.625557 1_555
O3 Si3 1.625557 1_555
O4 Si4 1.603832 1_555
O5 Si5 1.603832 1_555
O6 Si6 1.603832 1_555
O7 Si7 1.603832 1_555
O8 Si2 1.613453 1_555
O9 Si3 1.613453 1_555
O10 Si0 1.613453 1_555
O11 Si1 1.613453 1_555
O12 Si4 1.623282 1_455
O13 Si5 1.623282 1_645
O14 Si6 1.623282 1_655
O15 Si7 1.623282 1_465
O16 Si1 1.629714 1_555
O17 Si0 1.629714 1_555
O18 Si3 1.629714 1_555
O19 Si2 1.629714 1_555
O20 Si7 1.635560 1_455
O21 Si6 1.635560 1_555
O22 Si5 1.635560 1_555
O23 Si4 1.635560 1_455
O24 Si3 1.616603 1_554
O25 Si2 1.616603 1_555
O26 Si1 1.616603 1_556
O27 Si0 1.616603 1_555
O28 Si7 1.635274 1_555
O29 Si6 1.635274 1_555
O30 Si5 1.635274 1_555
O31 Si4 1.635274 1_555
