# generated using pymatgen
data_Li5GeP3
_symmetry_space_group_name_H-M   'P 1'
_cell_length_a   7.15690025
_cell_length_b   7.15690025
_cell_length_c   8.54754911
_cell_angle_alpha   72.93046121
_cell_angle_beta   72.93046121
_cell_angle_gamma   48.92179655
_symmetry_Int_Tables_number   1
_chemical_formula_structural   Li5GeP3
_chemical_formula_sum   'Li10 Ge2 P6'
_cell_volume   312.40040761
_cell_formula_units_Z   2
loop_
 _symmetry_equiv_pos_site_id
 _symmetry_equiv_pos_as_xyz
  1  'x, y, z'
loop_
 _atom_site_type_symbol
 _atom_site_label
 _atom_site_symmetry_multiplicity
 _atom_site_fract_x
 _atom_site_fract_y
 _atom_site_fract_z
 _atom_site_occupancy
  Li  Li0  1  0.41977300  0.90002900  0.42484400  1
  Li  Li1  1  0.42036200  0.92234500  0.90470600  1
  Li  Li2  1  0.74730800  0.24610800  0.74690900  1
  Li  Li3  1  0.75567400  0.24104500  0.26045600  1
  Li  Li4  1  0.92234500  0.42036200  0.40470600  1
  Li  Li5  1  0.09047600  0.57100700  0.07246100  1
  Li  Li6  1  0.90002900  0.41977300  0.92484400  1
  Li  Li7  1  0.24104500  0.75567400  0.76045600  1
  Li  Li8  1  0.57100700  0.09047600  0.57246100  1
  Li  Li9  1  0.24610800  0.74730800  0.24690900  1
  Ge  Ge0  1  0.04167100  0.62105100  0.62220100  1
  Ge  Ge1  1  0.62105100  0.04167100  0.12220100  1
  P  P0  1  0.97028400  0.01066100  0.00679100  1
  P  P1  1  0.69416000  0.64989600  0.65652800  1
  P  P2  1  0.01066100  0.97028400  0.50679100  1
  P  P3  1  0.34596500  0.31693900  0.31038100  1
  P  P4  1  0.64989600  0.69416000  0.15652800  1
  P  P5  1  0.31693900  0.34596500  0.81038100  1
loop_
_geom_bond_atom_site_label_1
_geom_bond_atom_site_label_2
_geom_bond_distance
_geom_bond_site_symmetry_2
Li0 P2 2.526754 1_555
Li0 P1 2.562155 1_555
Li0 P3 2.580212 1_565
Li0 P4 2.592399 1_555
Li1 P5 2.521099 1_565
Li1 P4 2.546623 1_556
Li1 P1 2.666177 1_555
Li1 P0 2.744968 1_466
Li2 P1 2.551496 1_555
Li2 P5 2.577970 1_555
Li2 P0 2.582675 1_556
Li2 P2 2.622909 1_645
Li3 P3 2.526579 1_555
Li3 P0 2.567967 1_555
Li3 P2 2.594588 1_645
Li3 P4 2.712181 1_555
Li4 P3 2.521099 1_655
Li4 P1 2.546623 1_555
Li4 P4 2.666177 1_555
Li4 P2 2.744968 1_645
Li5 P3 2.535383 1_555
Li5 P4 2.573923 1_455
Li5 P0 2.577865 1_465
Li5 P5 2.606770 1_554
Li6 P0 2.526754 1_556
Li6 P4 2.562155 1_556
Li6 P5 2.580212 1_655
Li6 P1 2.592399 1_555
Li7 P5 2.526579 1_555
Li7 P2 2.567967 1_555
Li7 P0 2.594588 1_466
Li7 P1 2.712181 1_555
Li8 P5 2.535383 1_555
Li8 P1 2.573923 1_545
Li8 P2 2.577865 1_645
Li8 P3 2.606770 1_555
Li9 P4 2.551496 1_555
Li9 P3 2.577970 1_555
Li9 P2 2.582675 1_555
Li9 P0 2.622909 1_465
Ge0 P2 2.285077 1_555
Ge0 P1 2.290586 1_455
Ge0 P5 2.290952 1_555
Ge0 Li7 2.797486 1_555
Ge0 Li8 2.818587 1_465
Ge0 Li6 2.826040 1_455
Ge1 P0 2.285077 1_555
Ge1 P4 2.290586 1_545
Ge1 P3 2.290952 1_555
Ge1 Li3 2.797486 1_555
Ge1 Li5 2.818587 1_645
Ge1 Li0 2.826040 1_545
