# generated using pymatgen
data_Nd2Mo2O7
_symmetry_space_group_name_H-M   'P 1'
_cell_length_a   7.51513988
_cell_length_b   7.51513988
_cell_length_c   7.51513988
_cell_angle_alpha   119.94775216
_cell_angle_beta   119.94775216
_cell_angle_gamma   90.09051976
_symmetry_Int_Tables_number   1
_chemical_formula_structural   Nd2Mo2O7
_chemical_formula_sum   'Nd4 Mo4 O14'
_cell_volume   300.35748500
_cell_formula_units_Z   2
loop_
 _symmetry_equiv_pos_site_id
 _symmetry_equiv_pos_as_xyz
  1  'x, y, z'
loop_
 _atom_site_type_symbol
 _atom_site_label
 _atom_site_symmetry_multiplicity
 _atom_site_fract_x
 _atom_site_fract_y
 _atom_site_fract_z
 _atom_site_occupancy
  Nd  Nd0  1  0.37500000  0.62500000  0.75000000  1
  Nd  Nd1  1  0.37500000  0.62500000  0.25000000  1
  Nd  Nd2  1  0.87500000  0.62500000  0.25000000  1
  Nd  Nd3  1  0.37500000  0.12500000  0.75000000  1
  Mo  Mo0  1  0.87500000  0.62500000  0.75000000  1
  Mo  Mo1  1  0.37500000  0.12500000  0.25000000  1
  Mo  Mo2  1  0.87500000  0.12500000  0.25000000  1
  Mo  Mo3  1  0.87500000  0.12500000  0.75000000  1
  O  O0  1  0.78535800  0.20298900  0.99984600  1
  O  O1  1  0.54685700  0.46448800  0.49984600  1
  O  O2  1  0.20812300  0.20812300  0.00000000  1
  O  O3  1  0.95812300  0.45812300  0.50000000  1
  O  O4  1  0.79701100  0.79685700  0.58236900  1
  O  O5  1  0.53551200  0.03535800  0.08236900  1
  O  O6  1  0.25000000  0.75000000  0.50000000  1
  O  O7  1  0.95298900  0.45314300  0.91763100  1
  O  O8  1  0.96464200  0.04701100  0.50015400  1
  O  O9  1  0.54187700  0.04187700  0.50000000  1
  O  O10  1  0.21448800  0.21464200  0.41763100  1
  O  O11  1  0.50000000  0.50000000  0.00000000  1
  O  O12  1  0.79187700  0.79187700  0.00000000  1
  O  O13  1  0.20314300  0.78551200  0.00015400  1
loop_
_geom_bond_atom_site_label_1
_geom_bond_atom_site_label_2
_geom_bond_distance
_geom_bond_site_symmetry_2
Nd0 O11 2.301638 1_556
Nd0 O6 2.301638 1_555
Nd0 O5 2.548276 1_566
Nd0 O10 2.548276 1_555
Nd0 O12 2.583794 1_556
Nd0 O3 2.583794 1_455
Nd0 O13 2.611948 1_556
Nd0 O1 2.611948 1_555
Nd1 O11 2.301638 1_555
Nd1 O6 2.301638 1_555
Nd1 O13 2.548276 1_555
Nd1 O1 2.548276 1_555
Nd1 O9 2.583794 1_565
Nd1 O2 2.583794 1_555
Nd1 O7 2.611948 1_454
Nd1 O4 2.611948 1_555
Nd2 O11 2.301638 1_555
Nd2 O6 2.301638 1_655
Nd2 O4 2.548276 1_555
Nd2 O7 2.548276 1_554
Nd2 O3 2.583794 1_555
Nd2 O12 2.583794 1_555
Nd2 O8 2.611948 1_565
Nd2 O0 2.611948 1_554
Nd3 O11 2.301638 1_556
Nd3 O6 2.301638 1_545
Nd3 O8 2.548276 1_455
Nd3 O0 2.548276 1_555
Nd3 O2 2.583794 1_556
Nd3 O9 2.583794 1_555
Nd3 O5 2.611948 1_556
Nd3 O10 2.611948 1_555
Mo0 O1 2.041667 1_555
Mo0 O13 2.041667 1_656
Mo0 O12 2.077169 1_556
Mo0 O3 2.077169 1_555
Mo0 O7 2.118549 1_555
Mo0 O4 2.118549 1_555
Mo1 O10 2.041667 1_555
Mo1 O5 2.041667 1_555
Mo1 O9 2.077169 1_555
Mo1 O2 2.077169 1_555
Mo1 O13 2.118549 1_545
Mo1 O1 2.118549 1_555
Mo2 O8 2.041667 1_555
Mo2 O0 2.041667 1_554
Mo2 O12 2.077169 1_545
Mo2 O3 2.077169 1_555
Mo2 O10 2.118549 1_655
Mo2 O5 2.118549 1_555
Mo3 O7 2.041667 1_555
Mo3 O4 2.041667 1_545
Mo3 O9 2.077169 1_555
Mo3 O2 2.077169 1_656
Mo3 O0 2.118549 1_555
Mo3 O8 2.118549 1_555
