# generated using pymatgen
data_Re2(HgO2)5
_symmetry_space_group_name_H-M   'P 1'
_cell_length_a   12.31429100
_cell_length_b   8.88335100
_cell_length_c   12.40367460
_cell_angle_alpha   82.59410598
_cell_angle_beta   90.00000000
_cell_angle_gamma   90.00000000
_symmetry_Int_Tables_number   1
_chemical_formula_structural   Re2(HgO2)5
_chemical_formula_sum   'Re8 Hg20 O40'
_cell_volume   1345.54577923
_cell_formula_units_Z   4
loop_
 _symmetry_equiv_pos_site_id
 _symmetry_equiv_pos_as_xyz
  1  'x, y, z'
loop_
 _atom_site_type_symbol
 _atom_site_label
 _atom_site_symmetry_multiplicity
 _atom_site_fract_x
 _atom_site_fract_y
 _atom_site_fract_z
 _atom_site_occupancy
  Re  Re0  1  0.53717800  0.70440100  0.92769400  1
  Re  Re1  1  0.01698100  0.30237700  0.92945600  1
  Re  Re2  1  0.48301900  0.30237700  0.42945600  1
  Re  Re3  1  0.51698100  0.69762300  0.57054400  1
  Re  Re4  1  0.96282200  0.70440100  0.42769400  1
  Re  Re5  1  0.46282200  0.29559900  0.07230600  1
  Re  Re6  1  0.03717800  0.29559900  0.57230600  1
  Re  Re7  1  0.98301900  0.69762300  0.07054400  1
  Hg  Hg0  1  0.71491800  0.99560100  0.40213600  1
  Hg  Hg1  1  0.22992000  0.60279700  0.76014400  1
  Hg  Hg2  1  0.21491800  0.00439900  0.09786400  1
  Hg  Hg3  1  0.20016000  0.32881900  0.25433800  1
  Hg  Hg4  1  0.97773400  0.12094500  0.24730900  1
  Hg  Hg5  1  0.02226600  0.87905500  0.75269100  1
  Hg  Hg6  1  0.47773400  0.87905500  0.25269100  1
  Hg  Hg7  1  0.70016000  0.67118100  0.24566200  1
  Hg  Hg8  1  0.28508200  0.00439900  0.59786400  1
  Hg  Hg9  1  0.27008000  0.60279700  0.26014400  1
  Hg  Hg10  1  0.29984000  0.32881900  0.75433800  1
  Hg  Hg11  1  0.78508200  0.99560100  0.90213600  1
  Hg  Hg12  1  0.74391900  0.06077000  0.09779600  1
  Hg  Hg13  1  0.77008000  0.39720300  0.23985600  1
  Hg  Hg14  1  0.52226600  0.12094500  0.74730900  1
  Hg  Hg15  1  0.24391900  0.93923000  0.40220400  1
  Hg  Hg16  1  0.75608100  0.06077000  0.59779600  1
  Hg  Hg17  1  0.79984000  0.67118100  0.74566200  1
  Hg  Hg18  1  0.25608100  0.93923000  0.90220400  1
  Hg  Hg19  1  0.72992000  0.39720300  0.73985600  1
  O  O0  1  0.99855800  0.12488800  0.88316100  1
  O  O1  1  0.35481900  0.09552800  0.74634600  1
  O  O2  1  0.01504700  0.44696200  0.81836400  1
  O  O3  1  0.90194100  0.27382100  0.61863600  1
  O  O4  1  0.91233600  0.52071800  0.42610700  1
  O  O5  1  0.85481900  0.90447200  0.75365400  1
  O  O6  1  0.48495300  0.44696200  0.31836400  1
  O  O7  1  0.58966900  0.32752100  0.51950600  1
  O  O8  1  0.08966900  0.67247900  0.98049400  1
  O  O9  1  0.11821400  0.17316800  0.66251100  1
  O  O10  1  0.31224400  0.84058100  0.25150400  1
  O  O11  1  0.08766400  0.47928200  0.57389300  1
  O  O12  1  0.54986100  0.76319900  0.05691300  1
  O  O13  1  0.81224400  0.15941900  0.24849600  1
  O  O14  1  0.68775600  0.15941900  0.74849600  1
  O  O15  1  0.40194100  0.72617900  0.88136400  1
  O  O16  1  0.14518100  0.09552800  0.24634600  1
  O  O17  1  0.64169200  0.69637600  0.50201300  1
  O  O18  1  0.09805900  0.72617900  0.38136400  1
  O  O19  1  0.91033100  0.32752100  0.01950600  1
  O  O20  1  0.14169200  0.30362400  0.99798700  1
  O  O21  1  0.18775600  0.84058100  0.75150400  1
  O  O22  1  0.04986100  0.23680100  0.44308700  1
  O  O23  1  0.00144200  0.87511200  0.11683900  1
  O  O24  1  0.49855800  0.87511200  0.61683900  1
  O  O25  1  0.85830800  0.69637600  0.00201300  1
  O  O26  1  0.61821400  0.82683200  0.83748900  1
  O  O27  1  0.88178600  0.82683200  0.33748900  1
  O  O28  1  0.50144200  0.12488800  0.38316100  1
  O  O29  1  0.64518100  0.90447200  0.25365400  1
  O  O30  1  0.45013900  0.23680100  0.94308700  1
  O  O31  1  0.41233600  0.47928200  0.07389300  1
  O  O32  1  0.41033100  0.67247900  0.48049400  1
  O  O33  1  0.51504700  0.55303800  0.68163600  1
  O  O34  1  0.58766400  0.52071800  0.92610700  1
  O  O35  1  0.98495300  0.55303800  0.18163600  1
  O  O36  1  0.95013900  0.76319900  0.55691300  1
  O  O37  1  0.35830800  0.30362400  0.49798700  1
  O  O38  1  0.59805900  0.27382100  0.11863600  1
  O  O39  1  0.38178600  0.17316800  0.16251100  1
loop_
_geom_bond_atom_site_label_1
_geom_bond_atom_site_label_2
_geom_bond_distance
_geom_bond_site_symmetry_2
Hg0 O29 2.273567 1_555
Hg0 O13 2.543801 1_565
Hg0 Hg16 2.616131 1_565
Hg1 O21 2.164395 1_555
Hg2 O16 2.273567 1_555
Hg2 O10 2.543801 1_545
Hg3 O16 2.194543 1_555
Hg4 O13 2.066720 1_555
Hg4 O16 2.074518 1_655
Hg5 O21 2.066720 1_555
Hg5 O5 2.074518 1_455
Hg6 O10 2.066720 1_555
Hg6 O29 2.074518 1_555
Hg7 O29 2.194543 1_555
Hg8 O1 2.273567 1_555
Hg8 O21 2.543801 1_545
Hg9 O10 2.164395 1_555
Hg10 O1 2.194543 1_555
Hg11 O5 2.273567 1_555
Hg11 O14 2.543801 1_565
Hg11 Hg12 2.616131 1_566
Hg12 O13 2.322110 1_555
Hg12 O29 2.539984 1_545
Hg12 O38 2.645959 1_555
Hg13 O13 2.164395 1_555
Hg14 O14 2.066720 1_555
Hg14 O1 2.074518 1_555
Hg15 O10 2.322110 1_555
Hg15 O16 2.539984 1_565
Hg15 Hg8 2.616131 1_565
Hg15 O18 2.645959 1_555
Hg16 O14 2.322110 1_555
Hg16 O5 2.539984 1_545
Hg16 O3 2.645959 1_555
Hg17 O5 2.194543 1_555
Hg18 O21 2.322110 1_555
Hg18 O1 2.539984 1_565
Hg18 Hg2 2.616131 1_566
Hg18 O15 2.645959 1_555
Hg19 O14 2.164395 1_555
O0 Re1 1.760847 1_655
O2 Re1 1.758618 1_555
O3 Re6 1.764196 1_655
O4 Re4 1.748625 1_555
O6 Re2 1.758618 1_555
O7 Re2 1.756870 1_555
O8 Re7 1.756870 1_456
O9 Re6 1.765459 1_555
O11 Re6 1.748625 1_555
O12 Re0 1.755554 1_554
O15 Re0 1.764196 1_555
O17 Re3 1.756010 1_555
O18 Re4 1.764196 1_455
O19 Re1 1.756870 1_654
O20 Re1 1.756010 1_555
O22 Re6 1.755554 1_555
O23 Re7 1.760847 1_455
O24 Re3 1.760847 1_555
O25 Re7 1.756010 1_555
O26 Re0 1.765459 1_555
O27 Re4 1.765459 1_555
O28 Re2 1.760847 1_555
O30 Re5 1.755554 1_556
O31 Re5 1.748625 1_555
O32 Re3 1.756870 1_555
O33 Re3 1.758618 1_555
O34 Re0 1.748625 1_555
O35 Re7 1.758618 1_555
O36 Re4 1.755554 1_555
O37 Re2 1.756010 1_555
O38 Re5 1.764196 1_555
O39 Re5 1.765459 1_555
