# generated using pymatgen
data_CdI2
_symmetry_space_group_name_H-M   'P 1'
_cell_length_a   4.33918797
_cell_length_b   4.33918797
_cell_length_c   161.68819900
_cell_angle_alpha   90.00000000
_cell_angle_beta   90.00000000
_cell_angle_gamma   119.99999947
_symmetry_Int_Tables_number   1
_chemical_formula_structural   CdI2
_chemical_formula_sum   'Cd22 I44'
_cell_volume   2636.48851799
_cell_formula_units_Z   22
loop_
 _symmetry_equiv_pos_site_id
 _symmetry_equiv_pos_as_xyz
  1  'x, y, z'
loop_
 _atom_site_type_symbol
 _atom_site_label
 _atom_site_symmetry_multiplicity
 _atom_site_fract_x
 _atom_site_fract_y
 _atom_site_fract_z
 _atom_site_occupancy
  Cd  Cd0  1  0.00000000  0.00000000  0.23864100  1
  Cd  Cd1  1  0.66666700  0.33333300  0.92044500  1
  Cd  Cd2  1  0.66666700  0.33333300  0.87500000  1
  Cd  Cd3  1  0.66666700  0.33333300  0.69320100  1
  Cd  Cd4  1  0.33333300  0.66666700  0.19318400  1
  Cd  Cd5  1  0.00000000  0.00000000  0.01136600  1
  Cd  Cd6  1  0.66666700  0.33333300  0.73864000  1
  Cd  Cd7  1  0.00000000  0.00000000  0.82953400  1
  Cd  Cd8  1  0.66666700  0.33333300  0.32953600  1
  Cd  Cd9  1  0.33333300  0.66666700  0.05681500  1
  Cd  Cd10  1  0.00000000  0.00000000  0.37499900  1
  Cd  Cd11  1  0.33333300  0.66666700  0.14772800  1
  Cd  Cd12  1  0.66666700  0.33333300  0.51136600  1
  Cd  Cd13  1  0.00000000  0.00000000  0.28408400  1
  Cd  Cd14  1  0.00000000  0.00000000  0.96590700  1
  Cd  Cd15  1  0.00000000  0.00000000  0.10226800  1
  Cd  Cd16  1  0.66666700  0.33333300  0.55682900  1
  Cd  Cd17  1  0.00000000  0.00000000  0.42044600  1
  Cd  Cd18  1  0.00000000  0.00000000  0.60227200  1
  Cd  Cd19  1  0.66666700  0.33333300  0.46590800  1
  Cd  Cd20  1  0.00000000  0.00000000  0.78408600  1
  Cd  Cd21  1  0.00000000  0.00000000  0.64773200  1
  I  I0  1  0.66666700  0.33333300  0.84022800  1
  I  I1  1  0.33333300  0.66666700  0.22794400  1
  I  I2  1  0.33333300  0.66666700  0.54613000  1
  I  I3  1  0.00000000  0.00000000  0.34022800  1
  I  I4  1  0.33333300  0.66666700  0.45520000  1
  I  I5  1  0.33333300  0.66666700  0.36430000  1
  I  I6  1  0.33333300  0.66666700  0.63704600  1
  I  I7  1  0.00000000  0.00000000  0.52205700  1
  I  I8  1  0.33333300  0.66666700  0.31885000  1
  I  I9  1  0.66666700  0.33333300  0.43114200  1
  I  I10  1  0.00000000  0.00000000  0.70389300  1
  I  I11  1  0.33333300  0.66666700  0.72794300  1
  I  I12  1  0.33333300  0.66666700  0.95519900  1
  I  I13  1  0.33333300  0.66666700  0.59158200  1
  I  I14  1  0.66666700  0.33333300  0.02205600  1
  I  I15  1  0.66666700  0.33333300  0.61296000  1
  I  I16  1  0.33333300  0.66666700  0.40976200  1
  I  I17  1  0.00000000  0.00000000  0.93114200  1
  I  I18  1  0.66666700  0.33333300  0.29476700  1
  I  I19  1  0.33333300  0.66666700  0.27339800  1
  I  I20  1  0.00000000  0.00000000  0.74933000  1
  I  I21  1  0.00000000  0.00000000  0.04612200  1
  I  I22  1  0.33333300  0.66666700  0.81884800  1
  I  I23  1  0.33333300  0.66666700  0.68251100  1
  I  I24  1  0.66666700  0.33333300  0.38568600  1
  I  I25  1  0.00000000  0.00000000  0.88568700  1
  I  I26  1  0.00000000  0.00000000  0.18249400  1
  I  I27  1  0.66666700  0.33333300  0.97659100  1
  I  I28  1  0.00000000  0.00000000  0.47659600  1
  I  I29  1  0.33333300  0.66666700  0.90976100  1
  I  I30  1  0.33333300  0.66666700  0.00069400  1
  I  I31  1  0.33333300  0.66666700  0.77340100  1
  I  I32  1  0.66666700  0.33333300  0.79476700  1
  I  I33  1  0.66666700  0.33333300  0.15842900  1
  I  I34  1  0.33333300  0.66666700  0.86430000  1
  I  I35  1  0.66666700  0.33333300  0.20387700  1
  I  I36  1  0.33333300  0.66666700  0.09157900  1
  I  I37  1  0.00000000  0.00000000  0.13704100  1
  I  I38  1  0.33333300  0.66666700  0.50069500  1
  I  I39  1  0.00000000  0.00000000  0.56752000  1
  I  I40  1  0.66666700  0.33333300  0.06750700  1
  I  I41  1  0.66666700  0.33333300  0.11295900  1
  I  I42  1  0.66666700  0.33333300  0.65843200  1
  I  I43  1  0.66666700  0.33333300  0.24933000  1
loop_
_geom_bond_atom_site_label_1
_geom_bond_atom_site_label_2
_geom_bond_distance
_geom_bond_site_symmetry_2
Cd0 I43 3.043541 1_455
Cd0 I43 3.043544 1_445
Cd0 I43 3.043544 1_555
Cd0 I1 3.044276 1_545
Cd0 I1 3.044279 1_555
Cd0 I1 3.044279 1_445
Cd1 I29 3.043082 1_545
Cd1 I29 3.043082 1_655
Cd1 I29 3.043088 1_555
Cd1 I17 3.044276 1_655
Cd1 I17 3.044279 1_665
Cd1 I17 3.044279 1_555
Cd2 I25 3.043357 1_655
Cd2 I25 3.043360 1_555
Cd2 I25 3.043360 1_665
Cd2 I34 3.044551 1_545
Cd2 I34 3.044551 1_655
Cd2 I34 3.044557 1_555
Cd3 I23 3.043633 1_655
Cd3 I23 3.043633 1_545
Cd3 I23 3.043639 1_555
Cd3 I10 3.043816 1_655
Cd3 I10 3.043819 1_665
Cd3 I10 3.043819 1_555
Cd4 I26 3.043633 1_565
Cd4 I26 3.043636 1_665
Cd4 I26 3.043636 1_555
Cd4 I35 3.043908 1_455
Cd4 I35 3.043908 1_565
Cd4 I35 3.043914 1_555
Cd5 I30 3.041981 1_545
Cd5 I30 3.041984 1_445
Cd5 I30 3.041984 1_555
Cd5 I14 3.043633 1_455
Cd5 I14 3.043636 1_445
Cd5 I14 3.043636 1_555
Cd6 I20 3.043633 1_655
Cd6 I20 3.043636 1_555
Cd6 I20 3.043636 1_665
Cd6 I11 3.044276 1_655
Cd6 I11 3.044276 1_545
Cd6 I11 3.044282 1_555
Cd7 I22 3.043265 1_545
Cd7 I22 3.043269 1_445
Cd7 I22 3.043269 1_555
Cd7 I0 3.044000 1_455
Cd7 I0 3.044003 1_555
Cd7 I0 3.044003 1_445
Cd8 I8 3.043265 1_545
Cd8 I8 3.043265 1_655
Cd8 I8 3.043272 1_555
Cd8 I3 3.043816 1_655
Cd8 I3 3.043819 1_555
Cd8 I3 3.043819 1_665
Cd9 I40 3.043816 1_455
Cd9 I40 3.043816 1_565
Cd9 I40 3.043823 1_555
Cd9 I21 3.043908 1_565
Cd9 I21 3.043911 1_555
Cd9 I21 3.043911 1_665
Cd10 I24 3.043357 1_455
Cd10 I24 3.043360 1_555
Cd10 I24 3.043360 1_445
Cd10 I5 3.044459 1_545
Cd10 I5 3.044462 1_445
Cd10 I5 3.044462 1_555
Cd11 I37 3.043357 1_565
Cd11 I37 3.043360 1_665
Cd11 I37 3.043360 1_555
Cd11 I33 3.044643 1_455
Cd11 I33 3.044643 1_565
Cd11 I33 3.044649 1_555
Cd12 I38 3.041889 1_545
Cd12 I38 3.041889 1_655
Cd12 I38 3.041895 1_555
Cd12 I7 3.043725 1_655
Cd12 I7 3.043728 1_665
Cd12 I7 3.043728 1_555
Cd13 I18 3.042990 1_455
Cd13 I18 3.042993 1_445
Cd13 I18 3.042993 1_555
Cd13 I19 3.043265 1_545
Cd13 I19 3.043269 1_445
Cd13 I19 3.043269 1_555
Cd14 I27 3.043082 1_455
Cd14 I27 3.043085 1_445
Cd14 I27 3.043085 1_555
Cd14 I12 3.045286 1_545
Cd14 I12 3.045290 1_445
Cd14 I12 3.045290 1_555
Cd15 I36 3.043541 1_545
Cd15 I36 3.043544 1_445
Cd15 I36 3.043544 1_555
Cd15 I41 3.043725 1_455
Cd15 I41 3.043728 1_445
Cd15 I41 3.043728 1_555
Cd16 I39 3.043725 1_655
Cd16 I39 3.043728 1_555
Cd16 I39 3.043728 1_665
Cd16 I2 3.044459 1_545
Cd16 I2 3.044459 1_655
Cd16 I2 3.044466 1_555
Cd17 I16 3.043082 1_545
Cd17 I16 3.043085 1_445
Cd17 I16 3.043085 1_555
Cd17 I9 3.044184 1_455
Cd17 I9 3.044187 1_445
Cd17 I9 3.044187 1_555
Cd18 I15 3.043449 1_455
Cd18 I15 3.043452 1_555
Cd18 I15 3.043452 1_445
Cd18 I13 3.043633 1_545
Cd18 I13 3.043636 1_555
Cd18 I13 3.043636 1_445
Cd19 I28 3.043449 1_655
Cd19 I28 3.043452 1_665
Cd19 I28 3.043452 1_555
Cd19 I4 3.045286 1_655
Cd19 I4 3.045286 1_545
Cd19 I4 3.045293 1_555
Cd20 I32 3.042807 1_455
Cd20 I32 3.042810 1_555
Cd20 I32 3.042810 1_445
Cd20 I31 3.043174 1_545
Cd20 I31 3.043177 1_445
Cd20 I31 3.043177 1_555
Cd21 I6 3.043265 1_545
Cd21 I6 3.043269 1_555
Cd21 I6 3.043269 1_445
Cd21 I42 3.044551 1_455
Cd21 I42 3.044554 1_445
Cd21 I42 3.044554 1_555
