# generated using pymatgen
data_Gd(FeGe)2
_symmetry_space_group_name_H-M   'P 1'
_cell_length_a   3.95325263
_cell_length_b   3.95040884
_cell_length_c   6.10644390
_cell_angle_alpha   108.74037002
_cell_angle_beta   108.93091375
_cell_angle_gamma   89.96785761
_symmetry_Int_Tables_number   1
_chemical_formula_structural   Gd(FeGe)2
_chemical_formula_sum   'Gd1 Fe2 Ge2'
_cell_volume   84.84953148
_cell_formula_units_Z   1
loop_
 _symmetry_equiv_pos_site_id
 _symmetry_equiv_pos_as_xyz
  1  'x, y, z'
loop_
 _atom_site_type_symbol
 _atom_site_label
 _atom_site_symmetry_multiplicity
 _atom_site_fract_x
 _atom_site_fract_y
 _atom_site_fract_z
 _atom_site_occupancy
  Gd  Gd0  1  0.99278136  0.00201780  0.00026686  1
  Fe  Fe0  1  0.24363889  0.75518503  0.50021785  1
  Fe  Fe1  1  0.74226755  0.24930318  0.50064837  1
  Ge  Ge0  1  0.37730692  0.38926132  0.77050676  1
  Ge  Ge1  1  0.60834828  0.61482267  0.23008617  1
loop_
_geom_bond_atom_site_label_1
_geom_bond_atom_site_label_2
_geom_bond_distance
_geom_bond_site_symmetry_2
Gd0 Ge0 3.055519 1_644
Gd0 Ge1 3.055539 1_555
Gd0 Ge0 3.058984 1_544
Gd0 Ge1 3.059325 1_655
Gd0 Ge1 3.063422 1_545
Gd0 Ge0 3.063499 1_654
Gd0 Ge0 3.064098 1_554
Gd0 Ge1 3.064340 1_645
Fe0 Ge0 2.461051 1_565
Fe0 Ge0 2.461567 1_555
Fe0 Ge1 2.462049 1_455
Fe0 Ge1 2.462064 1_555
Fe0 Gd0 3.346921 1_465
Fe0 Gd0 3.356771 1_566
Fe0 Gd0 3.362862 1_466
Fe0 Gd0 3.370241 1_455
Fe1 Ge0 2.460791 1_655
Fe1 Ge0 2.461532 1_555
Fe1 Ge1 2.461601 1_555
Fe1 Ge1 2.462787 1_545
Fe1 Gd0 3.346119 1_556
Fe1 Gd0 3.358643 1_455
Fe1 Gd0 3.363907 1_555
Fe1 Gd0 3.368112 1_566
Ge0 Ge1 2.496993 1_556
