# generated using pymatgen
data_K22Nb13In11(PO5)24
_symmetry_space_group_name_H-M   'P 1'
_cell_length_a   9.48454047
_cell_length_b   9.46199232
_cell_length_c   33.25314855
_cell_angle_alpha   89.88352346
_cell_angle_beta   89.89966741
_cell_angle_gamma   90.15907604
_symmetry_Int_Tables_number   1
_chemical_formula_structural   K22Nb13In11(PO5)24
_chemical_formula_sum   'K22 Nb13 In11 P24 O120'
_cell_volume   2984.20336877
_cell_formula_units_Z   1
loop_
 _symmetry_equiv_pos_site_id
 _symmetry_equiv_pos_as_xyz
  1  'x, y, z'
loop_
 _atom_site_type_symbol
 _atom_site_label
 _atom_site_symmetry_multiplicity
 _atom_site_fract_x
 _atom_site_fract_y
 _atom_site_fract_z
 _atom_site_occupancy
  K  K0  1  0.00122033  0.21832002  0.15655476  1
  K  K1  1  0.00458176  0.22574127  0.49057242  1
  K  K2  1  0.00477048  0.22579947  0.82388291  1
  K  K3  1  0.22570941  0.99565461  0.40741121  1
  K  K4  1  0.22594031  0.99539634  0.74057871  1
  K  K5  1  0.27145466  0.51511750  0.24032842  1
  K  K6  1  0.27402479  0.51614312  0.57364564  1
  K  K7  1  0.27397837  0.51654073  0.90705423  1
  K  K8  1  0.48570831  0.27434270  0.32348504  1
  K  K9  1  0.48373472  0.27415082  0.65692108  1
  K  K10  1  0.48048358  0.27293350  0.98987533  1
  K  K11  1  0.51809335  0.72621811  0.15644428  1
  K  K12  1  0.51642536  0.72610045  0.49027276  1
  K  K13  1  0.51611352  0.72594052  0.82368112  1
  K  K14  1  0.72705317  0.48567270  0.07340472  1
  K  K15  1  0.72598433  0.48369392  0.40681327  1
  K  K16  1  0.72600582  0.48370620  0.74031393  1
  K  K17  1  0.77407702  0.00462153  0.57386316  1
  K  K18  1  0.77396457  0.00405505  0.90698633  1
  K  K19  1  0.99250714  0.77797099  0.32236170  1
  K  K20  1  0.99526571  0.77420006  0.65722569  1
  K  K21  1  0.99933932  0.77961691  0.99162626  1
  Nb  Nb0  1  0.10469063  0.38628236  0.00839881  1
  Nb  Nb1  1  0.10259271  0.38525734  0.34122061  1
  Nb  Nb2  1  0.10400938  0.38593544  0.67469706  1
  Nb  Nb3  1  0.37439928  0.13564509  0.17365147  1
  Nb  Nb4  1  0.38265408  0.88988003  0.25971620  1
  Nb  Nb5  1  0.38603286  0.89610324  0.59139523  1
  Nb  Nb6  1  0.38550726  0.89622413  0.92510653  1
  Nb  Nb7  1  0.61886802  0.10795322  0.08907546  1
  Nb  Nb8  1  0.61437568  0.10359728  0.42434475  1
  Nb  Nb9  1  0.61395549  0.10394993  0.75806793  1
  Nb  Nb10  1  0.89569886  0.61410945  0.50801336  1
  Nb  Nb11  1  0.89620564  0.61849182  0.17502531  1
  Nb  Nb12  1  0.89601473  0.61417898  0.84133832  1
  In  In0  1  0.14304511  0.63597769  0.09105566  1
  In  In1  1  0.14245962  0.62927118  0.42508827  1
  In  In2  1  0.14319582  0.62915743  0.75831664  1
  In  In3  1  0.37073254  0.14312266  0.50815894  1
  In  In4  1  0.37053929  0.14280695  0.84177194  1
  In  In5  1  0.62748276  0.85336550  0.00786394  1
  In  In6  1  0.63425733  0.86071789  0.34054586  1
  In  In7  1  0.62942461  0.85702532  0.67494663  1
  In  In8  1  0.85472201  0.36604165  0.25794617  1
  In  In9  1  0.85688396  0.37072722  0.59162154  1
  In  In10  1  0.85725814  0.37128052  0.92505906  1
  P  P0  1  0.16890186  0.17747428  0.25743736  1
  P  P1  1  0.16703984  0.17874751  0.59073992  1
  P  P2  1  0.16672629  0.17894860  0.92417681  1
  P  P3  1  0.18261757  0.83257068  0.17400599  1
  P  P4  1  0.17896810  0.83292366  0.50741723  1
  P  P5  1  0.17909464  0.83299060  0.84082342  1
  P  P6  1  0.32787264  0.32529732  0.08858225  1
  P  P7  1  0.32820072  0.32681920  0.42170275  1
  P  P8  1  0.32819792  0.32657939  0.75523897  1
  P  P9  1  0.32617001  0.67178848  0.00548724  1
  P  P10  1  0.32786254  0.67176577  0.33905252  1
  P  P11  1  0.32665625  0.67195859  0.67195103  1
  P  P12  1  0.67469410  0.32517287  0.17195860  1
  P  P13  1  0.67398204  0.67454416  0.25510739  1
  P  P14  1  0.67333696  0.32770131  0.50523295  1
  P  P15  1  0.67176277  0.67337538  0.58861358  1
  P  P16  1  0.67347093  0.32787005  0.83868338  1
  P  P17  1  0.67200545  0.67331100  0.92189525  1
  P  P18  1  0.82196397  0.16617087  0.00702450  1
  P  P19  1  0.82075764  0.16725798  0.34086257  1
  P  P20  1  0.82117160  0.16698951  0.67411853  1
  P  P21  1  0.83212983  0.81996288  0.09085419  1
  P  P22  1  0.83287361  0.82104320  0.42400208  1
  P  P23  1  0.83300663  0.82132601  0.75738745  1
  O  O0  1  0.00256555  0.53679178  0.13447087  1
  O  O1  1  0.00313653  0.53299554  0.46757669  1
  O  O2  1  0.00325843  0.53326830  0.80088612  1
  O  O3  1  0.01093709  0.18922927  0.24959073  1
  O  O4  1  0.00581384  0.18415407  0.91788893  1
  O  O5  1  0.00631621  0.18418712  0.58439027  1
  O  O6  1  0.02484595  0.79249446  0.18047133  1
  O  O7  1  0.02197485  0.78706870  0.51430276  1
  O  O8  1  0.02203421  0.78716725  0.84768742  1
  O  O9  1  0.03504944  0.49957052  0.04886057  1
  O  O10  1  0.03472981  0.49920427  0.38174031  1
  O  O11  1  0.03461005  0.49939633  0.71523083  1
  O  O12  1  0.20038657  0.99587376  0.16873755  1
  O  O13  1  0.18463111  0.99407330  0.50097097  1
  O  O14  1  0.18456713  0.99413544  0.83431943  1
  O  O15  1  0.21298432  0.02157734  0.59767835  1
  O  O16  1  0.21263658  0.02028295  0.26523937  1
  O  O17  1  0.21292647  0.02173200  0.93085958  1
  O  O18  1  0.21682015  0.26363230  0.62791730  1
  O  O19  1  0.22125975  0.26571149  0.29356507  1
  O  O20  1  0.21631566  0.26381039  0.96127298  1
  O  O21  1  0.24510472  0.75826111  0.13670573  1
  O  O22  1  0.24198549  0.75909410  0.46953190  1
  O  O23  1  0.24200278  0.75900297  0.80297159  1
  O  O24  1  0.24358169  0.73618444  0.04098040  1
  O  O25  1  0.24304950  0.73744805  0.37419381  1
  O  O26  1  0.24337399  0.73689682  0.70774778  1
  O  O27  1  0.24992897  0.23143637  0.21843580  1
  O  O28  1  0.24113904  0.24198688  0.55283701  1
  O  O29  1  0.24058279  0.24230080  0.88622005  1
  O  O30  1  0.24606379  0.27935274  0.05084842  1
  O  O31  1  0.24881417  0.28021870  0.38281345  1
  O  O32  1  0.24864366  0.27958229  0.71644366  1
  O  O33  1  0.27352878  0.24317554  0.12707188  1
  O  O34  1  0.26307068  0.24334617  0.45759874  1
  O  O35  1  0.26337952  0.24302844  0.79114249  1
  O  O36  1  0.26545954  0.78339805  0.21158075  1
  O  O37  1  0.26354586  0.78302877  0.54459228  1
  O  O38  1  0.26372515  0.78344164  0.87802518  1
  O  O39  1  0.28068921  0.75339103  0.29961016  1
  O  O40  1  0.27965974  0.75135983  0.63308320  1
  O  O41  1  0.28078606  0.75043325  0.96627555  1
  O  O42  1  0.28320815  0.51561380  0.33153609  1
  O  O43  1  0.28254748  0.51397522  0.66547392  1
  O  O44  1  0.28262501  0.51305193  0.99872694  1
  O  O45  1  0.32099129  0.48471393  0.09729178  1
  O  O46  1  0.32321748  0.48735284  0.42890569  1
  O  O47  1  0.32350443  0.48699910  0.76245322  1
  O  O48  1  0.44584725  0.01405030  0.21490109  1
  O  O49  1  0.46678523  0.00361817  0.55080843  1
  O  O50  1  0.46665266  0.00353513  0.88445510  1
  O  O51  1  0.48619275  0.28248643  0.08161922  1
  O  O52  1  0.48569557  0.28267270  0.41525609  1
  O  O53  1  0.48585148  0.28254541  0.74874228  1
  O  O54  1  0.48666497  0.67488235  0.01251642  1
  O  O55  1  0.48663967  0.67670314  0.67917574  1
  O  O56  1  0.48734554  0.68014345  0.34545352  1
  O  O57  1  0.49546474  0.04914276  0.13469958  1
  O  O58  1  0.50004109  0.03446136  0.46493970  1
  O  O59  1  0.50035773  0.03423960  0.79865585  1
  O  O60  1  0.49653456  0.96834569  0.29751863  1
  O  O61  1  0.49949520  0.96559813  0.63188140  1
  O  O62  1  0.49996201  0.96605482  0.96556823  1
  O  O63  1  0.51074423  0.30351337  0.17858950  1
  O  O64  1  0.51323402  0.32325164  0.51255104  1
  O  O65  1  0.51333804  0.32307341  0.84590821  1
  O  O66  1  0.51537474  0.72330472  0.24830717  1
  O  O67  1  0.51421993  0.71751947  0.58214083  1
  O  O68  1  0.51460546  0.71775771  0.91556601  1
  O  O69  1  0.53612974  0.99376250  0.05232447  1
  O  O70  1  0.53411539  0.99620016  0.38361340  1
  O  O71  1  0.53346711  0.99641322  0.71760851  1
  O  O72  1  0.67646953  0.51293328  0.59590234  1
  O  O73  1  0.67385744  0.51374302  0.26221659  1
  O  O74  1  0.67659035  0.51279258  0.92922752  1
  O  O75  1  0.70865806  0.48444491  0.16547874  1
  O  O76  1  0.71760678  0.48582417  0.49877315  1
  O  O77  1  0.71763411  0.48592509  0.83216135  1
  O  O78  1  0.71991633  0.24836297  0.46638069  1
  O  O79  1  0.71980167  0.24728705  0.13296304  1
  O  O80  1  0.72036391  0.24855984  0.79981926  1
  O  O81  1  0.73554365  0.21501740  0.04505896  1
  O  O82  1  0.73708668  0.21727443  0.37835391  1
  O  O83  1  0.73651009  0.21701666  0.71129201  1
  O  O84  1  0.73662583  0.75680226  0.62440928  1
  O  O85  1  0.73656172  0.75355611  0.29166140  1
  O  O86  1  0.73750447  0.75652973  0.95767568  1
  O  O87  1  0.75125061  0.71748045  0.21588712  1
  O  O88  1  0.75145352  0.72046718  0.54973115  1
  O  O89  1  0.75152655  0.72034847  0.88300102  1
  O  O90  1  0.75688545  0.75849789  0.05303945  1
  O  O91  1  0.75852025  0.75813157  0.38627821  1
  O  O92  1  0.75903103  0.75807045  0.71959043  1
  O  O93  1  0.75335692  0.26270195  0.20820533  1
  O  O94  1  0.75654029  0.26296577  0.54107916  1
  O  O95  1  0.75655635  0.26312028  0.87456164  1
  O  O96  1  0.75754415  0.24399494  0.30388590  1
  O  O97  1  0.75810013  0.24095207  0.63628161  1
  O  O98  1  0.75622223  0.24177724  0.97004011  1
  O  O99  1  0.78085853  0.73576658  0.12818033  1
  O  O100  1  0.78330043  0.73618956  0.46135469  1
  O  O101  1  0.78311859  0.73632739  0.79465724  1
  O  O102  1  0.78225746  0.97738566  0.09825334  1
  O  O103  1  0.78690809  0.97811199  0.43102712  1
  O  O104  1  0.78698866  0.97839653  0.76428369  1
  O  O105  1  0.81319357  0.00559739  0.00127626  1
  O  O106  1  0.81642642  0.00628529  0.33560714  1
  O  O107  1  0.81545371  0.00593295  0.66772486  1
  O  O108  1  0.96312537  0.50121977  0.21504879  1
  O  O109  1  0.96542451  0.50060462  0.54857069  1
  O  O110  1  0.96569279  0.50062580  0.88187638  1
  O  O111  1  0.97581477  0.21394806  0.01448206  1
  O  O112  1  0.97872482  0.21266797  0.34753113  1
  O  O113  1  0.97812114  0.21263981  0.68100144  1
  O  O114  1  0.99379451  0.81565358  0.41768810  1
  O  O115  1  0.99125845  0.81511631  0.08473195  1
  O  O116  1  0.99375380  0.81584971  0.75097621  1
  O  O117  1  0.99692135  0.46502730  0.30047995  1
  O  O118  1  0.99676290  0.46666218  0.63423908  1
  O  O119  1  0.99670852  0.46607860  0.96782759  1
loop_
_geom_bond_atom_site_label_1
_geom_bond_atom_site_label_2
_geom_bond_distance
_geom_bond_site_symmetry_2
K0 O33 2.770155 1_555
K0 O79 2.797377 1_455
K0 O12 2.860743 1_545
K0 O93 2.940608 1_455
K0 O0 3.100104 1_555
K0 O3 3.106953 1_555
K0 O27 3.135356 1_555
K0 O108 3.332164 1_455
K1 O34 2.688526 1_555
K1 O13 2.803671 1_545
K1 O78 2.827127 1_455
K1 O94 2.910757 1_455
K1 O1 3.004692 1_555
K1 O28 3.059433 1_555
K1 O5 3.143702 1_555
K1 O109 3.262621 1_455
K2 O35 2.686218 1_555
K2 O14 2.802332 1_545
K2 O80 2.823666 1_455
K2 O95 2.915489 1_455
K2 O2 3.006669 1_555
K2 O29 3.056008 1_555
K2 O4 3.149976 1_555
K2 O110 3.262160 1_455
K3 O25 2.688623 1_555
K3 O114 2.798220 1_455
K3 O31 2.820284 1_565
K3 O34 2.901182 1_565
K3 O70 3.028895 1_555
K3 O22 3.047188 1_555
K3 O13 3.134780 1_555
K3 O58 3.252588 1_565
K4 O26 2.685929 1_555
K4 O116 2.798120 1_455
K4 O32 2.812191 1_565
K4 O35 2.908056 1_565
K4 O71 3.013798 1_555
K4 O23 3.052053 1_555
K4 O14 3.141089 1_555
K4 O59 3.264069 1_565
K5 O36 2.711461 1_555
K5 O27 2.789616 1_555
K5 O19 2.983858 1_555
K5 O39 2.999042 1_555
K5 O42 3.035198 1_555
K5 O66 3.046617 1_555
K5 O108 3.046762 1_455
K5 O117 3.313078 1_455
K6 O28 2.703482 1_555
K6 O37 2.704081 1_555
K6 O40 2.979988 1_555
K6 O67 2.980050 1_555
K6 O18 3.038373 1_555
K6 O109 3.048026 1_455
K6 O43 3.054819 1_555
K7 O38 2.703844 1_555
K7 O29 2.705012 1_555
K7 O41 2.966046 1_555
K7 O68 2.982270 1_555
K7 O20 3.039727 1_555
K7 O110 3.046270 1_455
K7 O44 3.049767 1_555
K8 O96 2.674605 1_555
K8 O19 2.701005 1_555
K8 O31 2.988164 1_555
K8 O42 2.999525 1_555
K8 O60 3.024999 1_545
K8 O52 3.052854 1_555
K8 O82 3.053430 1_555
K8 O70 3.335180 1_545
K9 O97 2.709332 1_555
K9 O18 2.712278 1_555
K9 O32 2.979533 1_555
K9 O43 2.982634 1_555
K9 O61 3.041568 1_545
K9 O83 3.054070 1_555
K9 O53 3.054638 1_555
K10 O20 2.682749 1_555
K10 O98 2.713032 1_555
K10 O44 2.965585 1_555
K10 O30 3.007232 1_556
K10 O62 3.021727 1_545
K10 O51 3.052866 1_556
K10 O81 3.088468 1_556
K11 O99 2.663232 1_555
K11 O21 2.689992 1_555
K11 O75 2.934698 1_555
K11 O87 2.969837 1_555
K11 O66 3.054862 1_555
K11 O36 3.064558 1_555
K11 O57 3.146467 1_565
K12 O100 2.707488 1_555
K12 O22 2.712627 1_555
K12 O88 2.982747 1_555
K12 O76 2.985453 1_555
K12 O58 3.039704 1_565
K12 O37 3.049812 1_555
K12 O67 3.055850 1_555
K13 O23 2.709439 1_555
K13 O101 2.709976 1_555
K13 O89 2.982420 1_555
K13 O77 2.985572 1_555
K13 O59 3.036022 1_565
K13 O38 3.047617 1_555
K13 O68 3.056293 1_555
K14 O90 2.681571 1_555
K14 O81 2.732042 1_555
K14 O51 2.993461 1_555
K14 O79 2.999227 1_555
K14 O99 3.031832 1_555
K14 O9 3.034128 1_655
K14 O75 3.066410 1_555
K15 O82 2.696710 1_555
K15 O91 2.700391 1_555
K15 O52 2.976936 1_555
K15 O78 2.977591 1_555
K15 O10 3.046349 1_655
K15 O100 3.050680 1_555
K15 O76 3.058957 1_555
K15 O1 3.350496 1_655
K16 O92 2.701822 1_555
K16 O83 2.705525 1_555
K16 O80 2.974854 1_555
K16 O53 2.976759 1_555
K16 O11 3.045231 1_655
K16 O101 3.047346 1_555
K16 O77 3.055225 1_555
K17 O94 2.680212 1_555
K17 O5 2.800973 1_655
K17 O88 2.815154 1_545
K17 O84 2.902924 1_545
K17 O49 3.014957 1_555
K17 O97 3.057969 1_555
K17 O107 3.146499 1_555
K17 O61 3.258059 1_545
K18 O95 2.681546 1_555
K18 O4 2.802750 1_655
K18 O89 2.809577 1_545
K18 O86 2.902331 1_545
K18 O50 3.010732 1_555
K18 O98 3.082877 1_555
K18 O105 3.158141 1_556
K18 O62 3.263747 1_545
K19 O85 2.644800 1_555
K19 O106 2.769712 1_565
K19 O39 2.845043 1_655
K19 O25 2.963303 1_655
K19 O117 3.050982 1_555
K19 O91 3.075276 1_555
K19 O114 3.190654 1_555
K19 O10 3.317225 1_655
K20 O84 2.691355 1_555
K20 O107 2.803556 1_565
K20 O40 2.821924 1_655
K20 O26 2.915581 1_655
K20 O118 3.010208 1_555
K20 O92 3.053648 1_555
K20 O116 3.143117 1_555
K20 O11 3.257029 1_655
K21 O86 2.738116 1_555
K21 O105 2.795311 1_566
K21 O41 2.812419 1_655
K21 O24 2.871326 1_656
K21 O119 3.072035 1_555
K21 O90 3.078599 1_556
K21 O115 3.115736 1_556
K21 O9 3.277976 1_656
Nb0 O9 1.844538 1_555
Nb0 O119 1.855828 1_454
Nb0 O111 2.044669 1_455
Nb0 O44 2.091792 1_554
Nb0 O30 2.196019 1_555
Nb0 O20 2.219885 1_554
Nb1 O10 1.843625 1_555
Nb1 O117 1.847796 1_455
Nb1 O112 2.019447 1_455
Nb1 O42 2.131746 1_555
Nb1 O31 2.198374 1_555
Nb1 O19 2.250691 1_555
Nb2 O11 1.846420 1_555
Nb2 O118 1.852840 1_455
Nb2 O113 2.035954 1_455
Nb2 O43 2.101081 1_555
Nb2 O32 2.197781 1_555
Nb2 O18 2.216342 1_555
Nb3 O48 1.914576 1_555
Nb3 O57 1.915841 1_555
Nb3 O63 2.052453 1_555
Nb3 O33 2.086585 1_555
Nb3 O27 2.106715 1_555
Nb3 O12 2.118814 1_545
Nb4 O60 1.817172 1_555
Nb4 O48 1.986526 1_565
Nb4 O16 2.041417 1_565
Nb4 O66 2.055352 1_555
Nb4 O39 2.084370 1_555
Nb4 O36 2.195290 1_555
Nb5 O61 1.845997 1_555
Nb5 O49 1.851893 1_565
Nb5 O15 2.039026 1_565
Nb5 O67 2.107215 1_555
Nb5 O40 2.189747 1_555
Nb5 O37 2.218725 1_555
Nb6 O62 1.852041 1_555
Nb6 O50 1.853937 1_565
Nb6 O17 2.033908 1_565
Nb6 O68 2.112753 1_555
Nb6 O41 2.177973 1_555
Nb6 O38 2.220435 1_555
Nb7 O69 1.811282 1_545
Nb7 O57 1.991985 1_555
Nb7 O102 2.007902 1_545
Nb7 O81 2.091722 1_555
Nb7 O51 2.093597 1_555
Nb7 O79 2.188632 1_555
Nb8 O58 1.847560 1_555
Nb8 O70 1.857835 1_545
Nb8 O103 2.036644 1_545
Nb8 O52 2.112489 1_555
Nb8 O82 2.197843 1_555
Nb8 O78 2.199381 1_555
Nb9 O59 1.845231 1_555
Nb9 O71 1.852852 1_545
Nb9 O104 2.039213 1_545
Nb9 O53 2.106812 1_555
Nb9 O80 2.196203 1_555
Nb9 O83 2.212482 1_555
Nb10 O109 1.846845 1_555
Nb10 O1 1.854515 1_655
Nb10 O7 2.036615 1_655
Nb10 O76 2.100687 1_555
Nb10 O88 2.194444 1_555
Nb10 O100 2.209843 1_555
Nb11 O108 1.845616 1_555
Nb11 O0 1.854090 1_655
Nb11 O6 2.054977 1_655
Nb11 O87 2.149305 1_555
Nb11 O99 2.204641 1_555
Nb11 O75 2.205610 1_555
Nb12 O110 1.846480 1_555
Nb12 O2 1.853078 1_655
Nb12 O8 2.035620 1_655
Nb12 O77 2.102402 1_555
Nb12 O89 2.193903 1_555
Nb12 O101 2.212997 1_555
In0 O24 2.136352 1_555
In0 O21 2.141535 1_555
In0 O9 2.165371 1_555
In0 O0 2.172805 1_555
In0 O45 2.225621 1_555
In0 O115 2.236729 1_455
In1 O1 2.133950 1_555
In1 O22 2.142422 1_555
In1 O10 2.154483 1_555
In1 O46 2.184341 1_555
In1 O25 2.191804 1_555
In1 O114 2.274220 1_455
In2 O2 2.137783 1_555
In2 O23 2.144425 1_555
In2 O11 2.150859 1_555
In2 O26 2.179852 1_555
In2 O47 2.183038 1_555
In2 O116 2.280875 1_455
In3 O49 2.141796 1_555
In3 O28 2.144469 1_555
In3 O58 2.152567 1_555
In3 O64 2.177583 1_555
In3 O34 2.184862 1_555
In3 O13 2.269503 1_545
In4 O50 2.141429 1_555
In4 O29 2.143787 1_555
In4 O59 2.152614 1_555
In4 O65 2.179768 1_555
In4 O35 2.184394 1_555
In4 O14 2.267305 1_545
In5 O90 2.139126 1_555
In5 O62 2.141243 1_554
In5 O54 2.155341 1_555
In5 O69 2.170524 1_555
In5 O86 2.172360 1_554
In5 O105 2.282221 1_565
In6 O70 2.146144 1_555
In6 O85 2.149120 1_555
In6 O91 2.156510 1_555
In6 O60 2.190550 1_555
In6 O56 2.207332 1_555
In6 O106 2.212287 1_565
In7 O71 2.142443 1_555
In7 O92 2.144472 1_555
In7 O61 2.152208 1_555
In7 O55 2.179550 1_555
In7 O84 2.182452 1_555
In7 O107 2.267001 1_565
In8 O96 2.121027 1_555
In8 O93 2.150153 1_555
In8 O117 2.168348 1_555
In8 O108 2.169805 1_555
In8 O73 2.220187 1_555
In8 O3 2.255117 1_655
In9 O97 2.138327 1_555
In9 O118 2.144196 1_555
In9 O109 2.144772 1_555
In9 O72 2.184379 1_555
In9 O94 2.185711 1_555
In9 O5 2.279549 1_655
In10 O119 2.140492 1_555
In10 O110 2.144349 1_555
In10 O98 2.153628 1_555
In10 O74 2.181976 1_555
In10 O95 2.187805 1_555
In10 O4 2.278477 1_655
O3 P0 1.525550 1_555
O4 P2 1.541709 1_555
O5 P1 1.540297 1_555
O6 P3 1.557111 1_555
O7 P4 1.566090 1_555
O8 P5 1.566511 1_555
O12 P3 1.563331 1_555
O13 P4 1.540135 1_555
O14 P5 1.540298 1_555
O15 P1 1.567569 1_555
O16 P0 1.566460 1_555
O17 P2 1.567453 1_555
O18 P1 1.549304 1_555
O19 P0 1.546218 1_555
O20 P2 1.546481 1_555
O21 P3 1.545114 1_555
O22 P4 1.560645 1_555
O23 P5 1.560024 1_555
O24 P9 1.542786 1_555
O25 P10 1.549609 1_555
O26 P11 1.555890 1_555
O27 P0 1.589010 1_555
O28 P1 1.559504 1_555
O29 P2 1.560326 1_555
O30 P6 1.539233 1_555
O31 P7 1.561275 1_555
O32 P8 1.560519 1_555
O33 P6 1.580828 1_555
O34 P7 1.555986 1_555
O35 P8 1.555388 1_555
O36 P3 1.548590 1_555
O37 P4 1.548464 1_555
O38 P5 1.548440 1_555
O39 P10 1.586440 1_555
O40 P11 1.559986 1_555
O41 P9 1.561733 1_556
O42 P10 1.556688 1_555
O43 P11 1.566557 1_555
O44 P9 1.573295 1_556
O45 P6 1.538071 1_555
O46 P7 1.539060 1_555
O47 P8 1.537966 1_555
O51 P6 1.573221 1_555
O52 P7 1.566680 1_555
O53 P8 1.568056 1_555
O54 P9 1.540674 1_555
O55 P11 1.537233 1_555
O56 P10 1.529755 1_555
O63 P12 1.582864 1_555
O64 P14 1.537905 1_555
O65 P16 1.537787 1_555
O66 P13 1.591097 1_555
O67 P15 1.567711 1_555
O68 P17 1.566538 1_555
O72 P15 1.537625 1_555
O73 P13 1.539277 1_555
O74 P17 1.538527 1_555
O75 P12 1.554697 1_555
O76 P14 1.567105 1_555
O77 P16 1.566505 1_555
O78 P14 1.559381 1_555
O79 P12 1.552844 1_555
O80 P16 1.560424 1_555
O81 P18 1.576685 1_555
O82 P19 1.552106 1_555
O83 P20 1.548509 1_555
O84 P15 1.556324 1_555
O85 P13 1.546769 1_555
O86 P17 1.557331 1_555
O87 P13 1.547871 1_555
O88 P15 1.560109 1_555
O89 P17 1.559514 1_555
O90 P21 1.559667 1_555
O91 P22 1.558551 1_555
O92 P23 1.560143 1_555
O93 P12 1.536726 1_555
O94 P14 1.556217 1_555
O95 P16 1.556518 1_555
O96 P19 1.549168 1_555
O97 P20 1.559504 1_555
O98 P18 1.553924 1_556
O99 P21 1.550312 1_555
O100 P22 1.549286 1_555
O101 P23 1.548694 1_555
O102 P21 1.583662 1_555
O103 P22 1.567810 1_555
O104 P23 1.567327 1_555
O105 P18 1.533754 1_555
O106 P19 1.533913 1_555
O107 P20 1.539923 1_555
O111 P18 1.546997 1_555
O112 P19 1.573692 1_555
O113 P20 1.566173 1_555
O114 P22 1.541269 1_555
O115 P21 1.523406 1_555
O116 P23 1.540106 1_555
