# generated using pymatgen
data_Al2Fe3(SiO4)3
_symmetry_space_group_name_H-M   'P 1'
_cell_length_a   10.10306275
_cell_length_b   10.10306275
_cell_length_c   10.10306275
_cell_angle_alpha   109.47122063
_cell_angle_beta   109.47122063
_cell_angle_gamma   109.47122063
_symmetry_Int_Tables_number   1
_chemical_formula_structural   Al2Fe3(SiO4)3
_chemical_formula_sum   'Al8 Fe12 Si12 O48'
_cell_volume   793.84782787
_cell_formula_units_Z   4
loop_
 _symmetry_equiv_pos_site_id
 _symmetry_equiv_pos_as_xyz
  1  'x, y, z'
loop_
 _atom_site_type_symbol
 _atom_site_label
 _atom_site_symmetry_multiplicity
 _atom_site_fract_x
 _atom_site_fract_y
 _atom_site_fract_z
 _atom_site_occupancy
  Al  Al0  1  0.00000000  0.00000000  0.00000000  1
  Al  Al1  1  0.50000000  0.00000000  0.00000000  1
  Al  Al2  1  0.50000000  0.50000000  0.00000000  1
  Al  Al3  1  0.00000000  0.50000000  0.50000000  1
  Al  Al4  1  0.00000000  0.00000000  0.50000000  1
  Al  Al5  1  0.50000000  0.50000000  0.50000000  1
  Al  Al6  1  0.00000000  0.50000000  0.00000000  1
  Al  Al7  1  0.50000000  0.00000000  0.50000000  1
  Fe  Fe0  1  0.75000000  0.62500000  0.87500000  1
  Fe  Fe1  1  0.25000000  0.87500000  0.62500000  1
  Fe  Fe2  1  0.62500000  0.25000000  0.87500000  1
  Fe  Fe3  1  0.87500000  0.75000000  0.62500000  1
  Fe  Fe4  1  0.87500000  0.62500000  0.25000000  1
  Fe  Fe5  1  0.62500000  0.87500000  0.75000000  1
  Fe  Fe6  1  0.25000000  0.37500000  0.12500000  1
  Fe  Fe7  1  0.75000000  0.12500000  0.37500000  1
  Fe  Fe8  1  0.37500000  0.75000000  0.12500000  1
  Fe  Fe9  1  0.12500000  0.25000000  0.37500000  1
  Fe  Fe10  1  0.12500000  0.37500000  0.75000000  1
  Fe  Fe11  1  0.37500000  0.12500000  0.25000000  1
  Si  Si0  1  0.12500000  0.75000000  0.87500000  1
  Si  Si1  1  0.75000000  0.87500000  0.12500000  1
  Si  Si2  1  0.25000000  0.62500000  0.37500000  1
  Si  Si3  1  0.62500000  0.75000000  0.37500000  1
  Si  Si4  1  0.87500000  0.12500000  0.75000000  1
  Si  Si5  1  0.37500000  0.25000000  0.62500000  1
  Si  Si6  1  0.37500000  0.62500000  0.75000000  1
  Si  Si7  1  0.25000000  0.12500000  0.87500000  1
  Si  Si8  1  0.62500000  0.37500000  0.25000000  1
  Si  Si9  1  0.12500000  0.87500000  0.25000000  1
  Si  Si10  1  0.75000000  0.37500000  0.62500000  1
  Si  Si11  1  0.87500000  0.25000000  0.12500000  1
  O  O0  1  0.58174000  0.89530100  0.38131900  1
  O  O1  1  0.38131900  0.58174000  0.89530100  1
  O  O2  1  0.29957900  0.31356100  0.91826000  1
  O  O3  1  0.48601800  0.60469900  0.18643900  1
  O  O4  1  0.31356100  0.89530100  0.01398200  1
  O  O5  1  0.11868100  0.01398200  0.20042100  1
  O  O6  1  0.38131900  0.29957900  0.48601800  1
  O  O7  1  0.89530100  0.38131900  0.58174000  1
  O  O8  1  0.18643900  0.20042100  0.58174000  1
  O  O9  1  0.48601800  0.38131900  0.29957900  1
  O  O10  1  0.89530100  0.01398200  0.31356100  1
  O  O11  1  0.60469900  0.91826000  0.11868100  1
  O  O12  1  0.91826000  0.11868100  0.60469900  1
  O  O13  1  0.29957900  0.48601800  0.38131900  1
  O  O14  1  0.58174000  0.18643900  0.20042100  1
  O  O15  1  0.20042100  0.58174000  0.18643900  1
  O  O16  1  0.01398200  0.31356100  0.89530100  1
  O  O17  1  0.91826000  0.29957900  0.31356100  1
  O  O18  1  0.01398200  0.20042100  0.11868100  1
  O  O19  1  0.81356100  0.79957900  0.41826000  1
  O  O20  1  0.18643900  0.48601800  0.60469900  1
  O  O21  1  0.60469900  0.18643900  0.48601800  1
  O  O22  1  0.20042100  0.11868100  0.01398200  1
  O  O23  1  0.11868100  0.60469900  0.91826000  1
  O  O24  1  0.41826000  0.10469900  0.61868100  1
  O  O25  1  0.61868100  0.41826000  0.10469900  1
  O  O26  1  0.70042100  0.68643900  0.08174000  1
  O  O27  1  0.51398200  0.39530100  0.81356100  1
  O  O28  1  0.68643900  0.10469900  0.98601800  1
  O  O29  1  0.88131900  0.98601800  0.79957900  1
  O  O30  1  0.61868100  0.70042100  0.51398200  1
  O  O31  1  0.10469900  0.61868100  0.41826000  1
  O  O32  1  0.88131900  0.39530100  0.08174000  1
  O  O33  1  0.79957900  0.88131900  0.98601800  1
  O  O34  1  0.39530100  0.81356100  0.51398200  1
  O  O35  1  0.68643900  0.08174000  0.70042100  1
  O  O36  1  0.81356100  0.51398200  0.39530100  1
  O  O37  1  0.98601800  0.79957900  0.88131900  1
  O  O38  1  0.08174000  0.70042100  0.68643900  1
  O  O39  1  0.98601800  0.68643900  0.10469900  1
  O  O40  1  0.79957900  0.41826000  0.81356100  1
  O  O41  1  0.41826000  0.81356100  0.79957900  1
  O  O42  1  0.70042100  0.51398200  0.61868100  1
  O  O43  1  0.08174000  0.88131900  0.39530100  1
  O  O44  1  0.39530100  0.08174000  0.88131900  1
  O  O45  1  0.10469900  0.98601800  0.68643900  1
  O  O46  1  0.51398200  0.61868100  0.70042100  1
  O  O47  1  0.31356100  0.91826000  0.29957900  1
loop_
_geom_bond_atom_site_label_1
_geom_bond_atom_site_label_2
_geom_bond_distance
_geom_bond_site_symmetry_2
Al0 O33 1.906707 1_444
Al0 O37 1.906707 1_444
Al0 O5 1.906707 1_555
Al0 O29 1.906707 1_444
Al0 O22 1.906707 1_555
Al0 O18 1.906707 1_555
Al1 O14 1.906707 1_555
Al1 O41 1.906707 1_544
Al1 O11 1.906707 1_545
Al1 O4 1.906707 1_545
Al1 O44 1.906707 1_554
Al1 O28 1.906707 1_554
Al2 O3 1.906707 1_555
Al2 O2 1.906707 1_554
Al2 O25 1.906707 1_555
Al2 O26 1.906707 1_555
Al2 O1 1.906707 1_554
Al2 O27 1.906707 1_554
Al3 O20 1.906707 1_555
Al3 O38 1.906707 1_555
Al3 O31 1.906707 1_555
Al3 O7 1.906707 1_455
Al3 O17 1.906707 1_455
Al3 O36 1.906707 1_455
Al4 O8 1.906707 1_555
Al4 O19 1.906707 1_445
Al4 O10 1.906707 1_455
Al4 O43 1.906707 1_545
Al4 O12 1.906707 1_455
Al4 O45 1.906707 1_545
Al5 O42 1.906707 1_555
Al5 O30 1.906707 1_555
Al5 O46 1.906707 1_555
Al5 O9 1.906707 1_555
Al5 O6 1.906707 1_555
Al5 O13 1.906707 1_555
Al6 O15 1.906707 1_555
Al6 O32 1.906707 1_455
Al6 O40 1.906707 1_454
Al6 O16 1.906707 1_554
Al6 O23 1.906707 1_554
Al6 O39 1.906707 1_455
Al7 O35 1.906707 1_555
Al7 O21 1.906707 1_555
Al7 O24 1.906707 1_555
Al7 O0 1.906707 1_545
Al7 O47 1.906707 1_545
Al7 O34 1.906707 1_545
Fe0 O33 2.244844 1_555
Fe0 O26 2.244844 1_556
Fe0 O42 2.244844 1_555
Fe0 O40 2.244844 1_555
Fe0 O27 2.412567 1_555
Fe0 O46 2.412567 1_555
Fe0 O37 2.412567 1_555
Fe0 O39 2.412567 1_556
Fe1 O34 2.244844 1_555
Fe1 O44 2.244844 1_565
Fe1 O31 2.244844 1_555
Fe1 O45 2.244844 1_555
Fe1 O43 2.412567 1_555
Fe1 O38 2.412567 1_555
Fe1 O24 2.412567 1_565
Fe1 O41 2.412567 1_555
Fe2 O32 2.244844 1_556
Fe2 O27 2.244844 1_555
Fe2 O24 2.244844 1_555
Fe2 O28 2.244844 1_555
Fe2 O44 2.412567 1_555
Fe2 O35 2.412567 1_555
Fe2 O40 2.412567 1_555
Fe2 O25 2.412567 1_556
Fe3 O37 2.244844 1_555
Fe3 O38 2.244844 1_655
Fe3 O30 2.244844 1_555
Fe3 O19 2.244844 1_555
Fe3 O36 2.412567 1_555
Fe3 O29 2.412567 1_555
Fe3 O45 2.412567 1_655
Fe3 O42 2.412567 1_555
Fe4 O25 2.244844 1_555
Fe4 O43 2.244844 1_655
Fe4 O39 2.244844 1_555
Fe4 O36 2.244844 1_555
Fe4 O32 2.412567 1_555
Fe4 O31 2.412567 1_655
Fe4 O19 2.412567 1_555
Fe4 O26 2.412567 1_555
Fe5 O35 2.244844 1_565
Fe5 O46 2.244844 1_555
Fe5 O29 2.244844 1_555
Fe5 O41 2.244844 1_555
Fe5 O34 2.412567 1_555
Fe5 O28 2.412567 1_565
Fe5 O30 2.412567 1_555
Fe5 O33 2.412567 1_555
Fe6 O13 2.244844 1_555
Fe6 O22 2.244844 1_555
Fe6 O15 2.244844 1_555
Fe6 O2 2.244844 1_554
Fe6 O18 2.412567 1_555
Fe6 O3 2.412567 1_555
Fe6 O9 2.412567 1_555
Fe6 O16 2.412567 1_554
Fe7 O10 2.244844 1_555
Fe7 O21 2.244844 1_555
Fe7 O7 2.244844 1_555
Fe7 O11 2.244844 1_545
Fe7 O12 2.412567 1_555
Fe7 O17 2.412567 1_555
Fe7 O14 2.412567 1_555
Fe7 O0 2.412567 1_545
Fe8 O0 2.244844 1_555
Fe8 O3 2.244844 1_555
Fe8 O4 2.244844 1_555
Fe8 O23 2.244844 1_554
Fe8 O11 2.412567 1_555
Fe8 O47 2.412567 1_555
Fe8 O15 2.412567 1_555
Fe8 O1 2.412567 1_554
Fe9 O18 2.244844 1_555
Fe9 O6 2.244844 1_555
Fe9 O17 2.244844 1_455
Fe9 O8 2.244844 1_555
Fe9 O13 2.412567 1_555
Fe9 O20 2.412567 1_555
Fe9 O10 2.412567 1_455
Fe9 O5 2.412567 1_555
Fe10 O20 2.244844 1_555
Fe10 O16 2.244844 1_555
Fe10 O1 2.244844 1_555
Fe10 O12 2.244844 1_455
Fe10 O2 2.412567 1_555
Fe10 O8 2.412567 1_555
Fe10 O7 2.412567 1_455
Fe10 O23 2.412567 1_555
Fe11 O9 2.244844 1_555
Fe11 O5 2.244844 1_555
Fe11 O14 2.244844 1_555
Fe11 O47 2.244844 1_545
Fe11 O21 2.412567 1_555
Fe11 O4 2.412567 1_545
Fe11 O6 2.412567 1_555
Fe11 O22 2.412567 1_555
O0 Si3 1.653460 1_555
O1 Si6 1.653460 1_555
O2 Si7 1.653460 1_555
O3 Si3 1.653460 1_555
O4 Si0 1.653460 1_554
O5 Si9 1.653460 1_545
O6 Si5 1.653460 1_555
O7 Si10 1.653460 1_555
O8 Si5 1.653460 1_555
O9 Si8 1.653460 1_555
O10 Si1 1.653460 1_545
O11 Si1 1.653460 1_555
O12 Si4 1.653460 1_555
O13 Si2 1.653460 1_555
O14 Si8 1.653460 1_555
O15 Si2 1.653460 1_555
O16 Si4 1.653460 1_455
O17 Si11 1.653460 1_555
O18 Si11 1.653460 1_455
O19 Si3 1.653460 1_555
O20 Si6 1.653460 1_555
O21 Si10 1.653460 1_555
O22 Si7 1.653460 1_554
O23 Si0 1.653460 1_555
O24 Si5 1.653460 1_555
O25 Si8 1.653460 1_555
O26 Si1 1.653460 1_555
O27 Si5 1.653460 1_555
O28 Si11 1.653460 1_556
O29 Si4 1.653460 1_565
O30 Si3 1.653460 1_555
O31 Si2 1.653460 1_555
O32 Si11 1.653460 1_555
O33 Si1 1.653460 1_556
O34 Si2 1.653460 1_555
O35 Si4 1.653460 1_555
O36 Si8 1.653460 1_555
O37 Si0 1.653460 1_655
O38 Si0 1.653460 1_555
O39 Si9 1.653460 1_655
O40 Si10 1.653460 1_555
O41 Si6 1.653460 1_555
O42 Si10 1.653460 1_555
O43 Si9 1.653460 1_555
O44 Si7 1.653460 1_555
O45 Si7 1.653460 1_565
O46 Si6 1.653460 1_555
O47 Si9 1.653460 1_555
