# generated using pymatgen
data_Si3N4
_symmetry_space_group_name_H-M   'P 1'
_cell_length_a   7.71131416
_cell_length_b   7.71131416
_cell_length_c   5.63373300
_cell_angle_alpha   90.00000000
_cell_angle_beta   90.00000000
_cell_angle_gamma   120.00000133
_symmetry_Int_Tables_number   1
_chemical_formula_structural   Si3N4
_chemical_formula_sum   'Si12 N16'
_cell_volume   290.12401522
_cell_formula_units_Z   4
loop_
 _symmetry_equiv_pos_site_id
 _symmetry_equiv_pos_as_xyz
  1  'x, y, z'
loop_
 _atom_site_type_symbol
 _atom_site_label
 _atom_site_symmetry_multiplicity
 _atom_site_fract_x
 _atom_site_fract_y
 _atom_site_fract_z
 _atom_site_occupancy
  Si  Si0  1  0.09777700  0.58356100  0.16728200  1
  Si  Si1  1  0.48578400  0.90222300  0.16728200  1
  Si  Si2  1  0.91016200  0.16493500  0.95617300  1
  Si  Si3  1  0.58356100  0.09777700  0.66728200  1
  Si  Si4  1  0.08983800  0.25477300  0.45617300  1
  Si  Si5  1  0.16493500  0.91016200  0.45617300  1
  Si  Si6  1  0.41643900  0.51421600  0.16728200  1
  Si  Si7  1  0.74522700  0.83506500  0.45617300  1
  Si  Si8  1  0.90222300  0.48578400  0.66728200  1
  Si  Si9  1  0.51421600  0.41643900  0.66728200  1
  Si  Si10  1  0.83506500  0.74522700  0.95617300  1
  Si  Si11  1  0.25477300  0.08983800  0.95617300  1
  N  N0  1  0.35024700  0.36976900  0.42781700  1
  N  N1  1  0.01952200  0.64975300  0.42781700  1
  N  N2  1  0.36976900  0.35024700  0.92781700  1
  N  N3  1  0.63023100  0.98047800  0.42781700  1
  N  N4  1  0.00000000  0.00000000  0.95704200  1
  N  N5  1  0.97266900  0.30347800  0.69183700  1
  N  N6  1  0.00000000  0.00000000  0.45704200  1
  N  N7  1  0.66666700  0.33333300  0.10932900  1
  N  N8  1  0.66919100  0.69652200  0.19183700  1
  N  N9  1  0.64975300  0.01952200  0.92781700  1
  N  N10  1  0.98047800  0.63023100  0.92781700  1
  N  N11  1  0.33333300  0.66666700  0.60932900  1
  N  N12  1  0.02733100  0.33080900  0.19183700  1
  N  N13  1  0.33080900  0.02733100  0.69183700  1
  N  N14  1  0.69652200  0.66919100  0.69183700  1
  N  N15  1  0.30347800  0.97266900  0.19183700  1
loop_
_geom_bond_atom_site_label_1
_geom_bond_atom_site_label_2
_geom_bond_distance
_geom_bond_site_symmetry_2
N0 Si4 1.750317 1_555
N0 Si6 1.757013 1_555
N0 Si9 1.758762 1_555
N1 Si5 1.750317 1_555
N1 Si0 1.757013 1_555
N1 Si8 1.758762 1_455
N2 Si11 1.750317 1_555
N2 Si9 1.757013 1_555
N2 Si6 1.758762 1_556
N3 Si7 1.750317 1_555
N3 Si1 1.757013 1_555
N3 Si3 1.758762 1_565
N4 Si10 1.725892 1_445
N4 Si11 1.725892 1_555
N4 Si2 1.725892 1_455
N5 Si8 1.747641 1_555
N5 Si4 1.749134 1_655
N5 Si2 1.753984 1_555
N6 Si7 1.725892 1_445
N6 Si4 1.725892 1_555
N6 Si5 1.725892 1_545
N8 Si6 1.747641 1_555
N8 Si10 1.749134 1_554
N8 Si7 1.753984 1_555
N9 Si2 1.750317 1_555
N9 Si3 1.757013 1_555
N9 Si1 1.758762 1_546
N10 Si10 1.750317 1_555
N10 Si8 1.757013 1_555
N10 Si0 1.758762 1_656
N12 Si0 1.747641 1_555
N12 Si2 1.749134 1_454
N12 Si4 1.753984 1_555
N13 Si3 1.747641 1_555
N13 Si5 1.749134 1_545
N13 Si11 1.753984 1_555
N14 Si9 1.747641 1_555
N14 Si7 1.749134 1_555
N14 Si10 1.753984 1_555
N15 Si1 1.747641 1_555
N15 Si11 1.749134 1_564
N15 Si5 1.753984 1_555
