# generated using pymatgen
data_Li2NiO3
_symmetry_space_group_name_H-M   'P 1'
_cell_length_a   4.83367262
_cell_length_b   4.83367262
_cell_length_c   9.44393508
_cell_angle_alpha   85.05095585
_cell_angle_beta   85.05095585
_cell_angle_gamma   120.03290650
_symmetry_Int_Tables_number   1
_chemical_formula_structural   Li2NiO3
_chemical_formula_sum   'Li8 Ni4 O12'
_cell_volume   188.15888561
_cell_formula_units_Z   4
loop_
 _symmetry_equiv_pos_site_id
 _symmetry_equiv_pos_as_xyz
  1  'x, y, z'
loop_
 _atom_site_type_symbol
 _atom_site_label
 _atom_site_symmetry_multiplicity
 _atom_site_fract_x
 _atom_site_fract_y
 _atom_site_fract_z
 _atom_site_occupancy
  Li  Li0  1  0.83838570  0.67562127  0.50019101  1
  Li  Li1  1  0.67562127  0.83838570  0.00019101  1
  Li  Li2  1  0.50000000  -0.00000000  0.50000000  1
  Li  Li3  1  0.08383743  0.91616257  0.75000000  1
  Li  Li4  1  0.91616257  0.08383743  0.25000000  1
  Li  Li5  1  0.32437873  0.16161430  0.99980899  1
  Li  Li6  1  -0.00000000  0.50000000  -0.00000000  1
  Li  Li7  1  0.16161430  0.32437873  0.49980899  1
  Ni  Ni0  1  0.75030448  0.24969552  0.75000000  1
  Ni  Ni1  1  0.41720217  0.58279783  0.75000000  1
  Ni  Ni2  1  0.58279783  0.41720217  0.25000000  1
  Ni  Ni3  1  0.24969552  0.75030448  0.25000000  1
  O  O0  1  0.23431355  0.04630788  0.36271405  1
  O  O1  1  0.59715761  0.12141242  0.13842540  1
  O  O2  1  0.47789801  0.30985329  0.63852869  1
  O  O3  1  0.87858758  0.40284239  0.36157460  1
  O  O4  1  0.69014671  0.52210199  0.86147131  1
  O  O5  1  0.04630788  0.23431355  0.86271405  1
  O  O6  1  0.95369212  0.76568645  0.13728595  1
  O  O7  1  0.30985329  0.47789801  0.13852869  1
  O  O8  1  0.12141242  0.59715761  0.63842540  1
  O  O9  1  0.52210199  0.69014671  0.36147131  1
  O  O10  1  0.40284239  0.87858758  0.86157460  1
  O  O11  1  0.76568645  0.95369212  0.63728595  1
loop_
_geom_bond_atom_site_label_1
_geom_bond_atom_site_label_2
_geom_bond_distance
_geom_bond_site_symmetry_2
Li0 O2 1.998449 1_555
Li0 O3 2.000091 1_555
Li0 O0 2.072705 1_665
Li0 O11 2.073871 1_555
Li0 O8 2.112296 1_655
Li0 O9 2.120282 1_555
Li1 O7 1.998449 1_555
Li1 O10 2.000091 1_554
Li1 O5 2.072705 1_664
Li1 O6 2.073871 1_555
Li1 O1 2.112296 1_565
Li1 O4 2.120282 1_554
Li2 O0 1.976184 1_555
Li2 O11 1.976184 1_545
Li2 O8 2.104885 1_545
Li2 O3 2.104885 1_555
Li2 O9 2.107194 1_545
Li2 O2 2.107194 1_555
Li3 O4 2.009406 1_455
Li3 O2 2.009406 1_565
Li3 O10 2.012111 1_555
Li3 O8 2.012111 1_555
Li3 O5 2.014773 1_565
Li3 O11 2.014773 1_455
Li4 O7 2.009406 1_655
Li4 O9 2.009406 1_545
Li4 O3 2.012111 1_555
Li4 O1 2.012111 1_555
Li4 O0 2.014773 1_655
Li4 O6 2.014773 1_545
Li5 O4 1.998449 1_555
Li5 O1 2.000091 1_556
Li5 O6 2.072705 1_446
Li5 O5 2.073871 1_555
Li5 O10 2.112296 1_545
Li5 O7 2.120282 1_556
Li6 O5 1.976184 1_554
Li6 O6 1.976184 1_455
Li6 O1 2.104885 1_455
Li6 O10 2.104885 1_554
Li6 O7 2.107194 1_555
Li6 O4 2.107194 1_454
Li7 O9 1.998449 1_555
Li7 O8 2.000091 1_555
Li7 O11 2.072705 1_445
Li7 O0 2.073871 1_555
Li7 O3 2.112296 1_455
Li7 O2 2.120282 1_555
Ni0 O4 1.869803 1_555
Ni0 O2 1.869803 1_555
Ni0 O10 1.871264 1_545
Ni0 O8 1.871264 1_655
Ni0 O11 1.881852 1_545
Ni0 O5 1.881852 1_655
Ni1 O10 1.872419 1_555
Ni1 O8 1.872419 1_555
Ni1 O2 1.873160 1_555
Ni1 O4 1.873160 1_555
Ni1 O5 1.876977 1_555
Ni1 O11 1.876977 1_555
Ni2 O3 1.872419 1_555
Ni2 O1 1.872419 1_555
Ni2 O7 1.873160 1_555
Ni2 O9 1.873160 1_555
Ni2 O0 1.876977 1_555
Ni2 O6 1.876977 1_555
Ni3 O9 1.869803 1_555
Ni3 O7 1.869803 1_555
Ni3 O3 1.871264 1_455
Ni3 O1 1.871264 1_565
Ni3 O6 1.881852 1_455
Ni3 O0 1.881852 1_565
