# generated using pymatgen
data_La21Fe8Bi7C12
_symmetry_space_group_name_H-M   'P 1'
_cell_length_a   11.66393425
_cell_length_b   11.66393425
_cell_length_c   11.66393425
_cell_angle_alpha   60.00000000
_cell_angle_beta   60.00000000
_cell_angle_gamma   60.00000000
_symmetry_Int_Tables_number   1
_chemical_formula_structural   La21Fe8Bi7C12
_chemical_formula_sum   'La21 Fe8 Bi7 C12'
_cell_volume   1122.07061766
_cell_formula_units_Z   1
loop_
 _symmetry_equiv_pos_site_id
 _symmetry_equiv_pos_as_xyz
  1  'x, y, z'
loop_
 _atom_site_type_symbol
 _atom_site_label
 _atom_site_symmetry_multiplicity
 _atom_site_fract_x
 _atom_site_fract_y
 _atom_site_fract_z
 _atom_site_occupancy
  La  La0  1  0.15786000  0.84214000  0.50000000  1
  La  La1  1  0.84214000  0.50000000  0.50000000  1
  La  La2  1  0.13741900  0.58774200  0.13741900  1
  La  La3  1  0.15786000  0.50000000  0.50000000  1
  La  La4  1  0.50000000  0.84214000  0.15786000  1
  La  La5  1  0.41225800  0.86258100  0.86258100  1
  La  La6  1  0.13741900  0.13741900  0.13741900  1
  La  La7  1  0.84214000  0.50000000  0.15786000  1
  La  La8  1  0.84214000  0.15786000  0.50000000  1
  La  La9  1  0.86258100  0.86258100  0.41225800  1
  La  La10  1  0.50000000  0.84214000  0.50000000  1
  La  La11  1  0.86258100  0.86258100  0.86258100  1
  La  La12  1  0.50000000  0.50000000  0.15786000  1
  La  La13  1  0.50000000  0.15786000  0.50000000  1
  La  La14  1  0.58774200  0.13741900  0.13741900  1
  La  La15  1  0.86258100  0.41225800  0.86258100  1
  La  La16  1  0.50000000  0.50000000  0.84214000  1
  La  La17  1  0.50000000  0.15786000  0.84214000  1
  La  La18  1  0.13741900  0.13741900  0.58774200  1
  La  La19  1  0.15786000  0.50000000  0.84214000  1
  La  La20  1  0.00000000  0.00000000  0.00000000  1
  Fe  Fe0  1  0.69635900  0.69635900  0.69635900  1
  Fe  Fe1  1  0.30364100  0.30364100  0.30364100  1
  Fe  Fe2  1  0.69635900  0.91092300  0.69635900  1
  Fe  Fe3  1  0.08907700  0.30364100  0.30364100  1
  Fe  Fe4  1  0.91092300  0.69635900  0.69635900  1
  Fe  Fe5  1  0.30364100  0.30364100  0.08907700  1
  Fe  Fe6  1  0.30364100  0.08907700  0.30364100  1
  Fe  Fe7  1  0.69635900  0.69635900  0.91092300  1
  Bi  Bi0  1  0.20908000  0.20908000  0.79092000  1
  Bi  Bi1  1  0.79092000  0.20908000  0.79092000  1
  Bi  Bi2  1  0.20908000  0.79092000  0.79092000  1
  Bi  Bi3  1  0.79092000  0.20908000  0.20908000  1
  Bi  Bi4  1  0.50000000  0.50000000  0.50000000  1
  Bi  Bi5  1  0.20908000  0.79092000  0.20908000  1
  Bi  Bi6  1  0.79092000  0.79092000  0.20908000  1
  C  C0  1  0.60860800  0.60860800  0.89139200  1
  C  C1  1  0.89139200  0.60860800  0.89139200  1
  C  C2  1  0.39139200  0.10860800  0.10860800  1
  C  C3  1  0.60860800  0.89139200  0.89139200  1
  C  C4  1  0.10860800  0.10860800  0.39139200  1
  C  C5  1  0.10860800  0.39139200  0.39139200  1
  C  C6  1  0.39139200  0.39139200  0.10860800  1
  C  C7  1  0.39139200  0.10860800  0.39139200  1
  C  C8  1  0.89139200  0.60860800  0.60860800  1
  C  C9  1  0.10860800  0.39139200  0.10860800  1
  C  C10  1  0.89139200  0.89139200  0.60860800  1
  C  C11  1  0.60860800  0.89139200  0.60860800  1
loop_
_geom_bond_atom_site_label_1
_geom_bond_atom_site_label_2
_geom_bond_distance
_geom_bond_site_symmetry_2
Bi0 La6 3.416687 1_556
Bi0 La15 3.416690 1_455
Bi0 La5 3.416690 1_545
Bi0 La18 3.416698 1_555
Bi0 La17 3.445463 1_555
Bi0 La19 3.445463 1_555
Bi0 La3 3.445463 1_555
Bi0 La13 3.445463 1_555
Bi0 La20 3.448836 1_556
Bi1 La11 3.416687 1_545
Bi1 La14 3.416690 1_556
Bi1 La18 3.416690 1_655
Bi1 La15 3.416698 1_555
Bi1 La16 3.445463 1_555
Bi1 La1 3.445463 1_555
Bi1 La8 3.445463 1_555
Bi1 La17 3.445463 1_555
Bi1 La20 3.448836 1_656
Bi2 La11 3.416687 1_455
Bi2 La2 3.416690 1_556
Bi2 La18 3.416690 1_565
Bi2 La5 3.416698 1_555
Bi2 La10 3.445463 1_555
Bi2 La16 3.445463 1_555
Bi2 La0 3.445463 1_555
Bi2 La19 3.445463 1_555
Bi2 La20 3.448836 1_566
Bi3 La6 3.416687 1_655
Bi3 La9 3.416690 1_545
Bi3 La15 3.416690 1_554
Bi3 La14 3.416698 1_555
Bi3 La7 3.445463 1_555
Bi3 La8 3.445463 1_555
Bi3 La12 3.445463 1_555
Bi3 La13 3.445463 1_555
Bi3 La20 3.448836 1_655
Bi4 La12 3.990698 1_555
Bi4 La3 3.990698 1_555
Bi4 La13 3.990698 1_555
Bi4 La19 3.990698 1_555
Bi4 La7 3.990698 1_555
Bi4 La4 3.990698 1_555
Bi4 La8 3.990698 1_555
Bi4 La0 3.990698 1_555
Bi4 La17 3.990698 1_555
Bi4 La10 3.990698 1_555
Bi4 La16 3.990698 1_555
Bi4 La1 3.990698 1_555
Bi5 La6 3.416687 1_565
Bi5 La9 3.416690 1_455
Bi5 La5 3.416690 1_554
Bi5 La2 3.416698 1_555
Bi5 La4 3.445463 1_555
Bi5 La0 3.445463 1_555
Bi5 La12 3.445463 1_555
Bi5 La3 3.445463 1_555
Bi5 La20 3.448836 1_565
Bi6 La11 3.416687 1_554
Bi6 La14 3.416690 1_565
Bi6 La2 3.416690 1_655
Bi6 La9 3.416698 1_555
Bi6 La1 3.445463 1_555
Bi6 La10 3.445463 1_555
Bi6 La7 3.445463 1_555
Bi6 La4 3.445463 1_555
Bi6 La20 3.448836 1_665
C0 Fe0 1.913380 1_555
C0 Fe7 1.913380 1_555
C0 La16 2.569011 1_555
C0 La12 2.569011 1_556
C0 La15 2.668924 1_555
C0 La5 2.668924 1_555
C1 Fe4 1.913380 1_555
C1 Fe7 1.913380 1_555
C1 La19 2.569011 1_655
C1 La7 2.569011 1_556
C1 La15 2.668917 1_555
C1 La11 2.668928 1_555
C2 Fe5 1.913380 1_555
C2 Fe6 1.913380 1_555
C2 La17 2.569011 1_554
C2 La4 2.569011 1_545
C2 La14 2.668917 1_555
C2 La6 2.668928 1_555
C3 Fe2 1.913380 1_555
C3 Fe7 1.913380 1_555
C3 La17 2.569011 1_565
C3 La4 2.569011 1_556
C3 La5 2.668917 1_555
C3 La11 2.668928 1_555
C4 Fe6 1.913380 1_555
C4 Fe3 1.913380 1_555
C4 La8 2.569011 1_455
C4 La0 2.569011 1_545
C4 La18 2.668917 1_555
C4 La6 2.668928 1_555
C5 Fe3 1.913380 1_555
C5 Fe1 1.913380 1_555
C5 La1 2.569011 1_455
C5 La3 2.569011 1_555
C5 La2 2.668924 1_555
C5 La18 2.668924 1_555
C6 Fe5 1.913380 1_555
C6 Fe1 1.913380 1_555
C6 La16 2.569011 1_554
C6 La12 2.569011 1_555
C6 La2 2.668924 1_555
C6 La14 2.668924 1_555
C7 Fe6 1.913380 1_555
C7 Fe1 1.913380 1_555
C7 La10 2.569011 1_545
C7 La13 2.569011 1_555
C7 La18 2.668924 1_555
C7 La14 2.668924 1_555
C8 Fe0 1.913380 1_555
C8 Fe4 1.913380 1_555
C8 La1 2.569011 1_555
C8 La3 2.569011 1_655
C8 La15 2.668924 1_555
C8 La9 2.668924 1_555
C9 Fe5 1.913380 1_555
C9 Fe3 1.913380 1_555
C9 La7 2.569011 1_455
C9 La19 2.569011 1_554
C9 La2 2.668917 1_555
C9 La6 2.668928 1_555
C10 Fe2 1.913380 1_555
C10 Fe4 1.913380 1_555
C10 La0 2.569011 1_655
C10 La8 2.569011 1_565
C10 La9 2.668917 1_555
C10 La11 2.668928 1_555
C11 Fe0 1.913380 1_555
C11 Fe2 1.913380 1_555
C11 La10 2.569011 1_555
C11 La13 2.569011 1_565
C11 La9 2.668924 1_555
C11 La5 2.668924 1_555
