# generated using pymatgen
data_NaCaScZn(SiO3)4
_symmetry_space_group_name_H-M   'P 1'
_cell_length_a   9.10677300
_cell_length_b   5.36091300
_cell_length_c   9.89431132
_cell_angle_alpha   75.01450879
_cell_angle_beta   90.00000000
_cell_angle_gamma   90.00000000
_symmetry_Int_Tables_number   1
_chemical_formula_structural   NaCaScZn(SiO3)4
_chemical_formula_sum   'Na2 Ca2 Sc2 Zn2 Si8 O24'
_cell_volume   466.61862805
_cell_formula_units_Z   2
loop_
 _symmetry_equiv_pos_site_id
 _symmetry_equiv_pos_as_xyz
  1  'x, y, z'
loop_
 _atom_site_type_symbol
 _atom_site_label
 _atom_site_symmetry_multiplicity
 _atom_site_fract_x
 _atom_site_fract_y
 _atom_site_fract_z
 _atom_site_occupancy
  Na  Na0  1  0.55287300  0.00000000  0.75000000  1
  Na  Na1  1  0.44712700  0.00000000  0.25000000  1
  Ca  Ca0  1  0.04953700  0.50000000  0.25000000  1
  Ca  Ca1  1  0.95046300  0.50000000  0.75000000  1
  Sc  Sc0  1  0.64637900  0.50000000  0.25000000  1
  Sc  Sc1  1  0.35362100  0.50000000  0.75000000  1
  Zn  Zn0  1  0.15162400  0.00000000  0.75000000  1
  Zn  Zn1  1  0.84837600  0.00000000  0.25000000  1
  Si  Si0  1  0.84072400  0.19747200  0.53916900  1
  Si  Si1  1  0.84072400  0.80252800  0.96083100  1
  Si  Si2  1  0.33927300  0.70001300  0.03681600  1
  Si  Si3  1  0.15927600  0.19747200  0.03916900  1
  Si  Si4  1  0.33927300  0.29998700  0.46318400  1
  Si  Si5  1  0.15927600  0.80252800  0.46083100  1
  Si  Si6  1  0.66072700  0.70001300  0.53681600  1
  Si  Si7  1  0.66072700  0.29998700  0.96318400  1
  O  O0  1  0.76649800  0.09545800  0.90224100  1
  O  O1  1  0.99737400  0.20919600  0.61235700  1
  O  O2  1  0.83592700  0.28315600  0.36788800  1
  O  O3  1  0.26027300  0.58996400  0.40037800  1
  O  O4  1  0.83592700  0.71684400  0.13211200  1
  O  O5  1  0.49706100  0.70022100  0.11011000  1
  O  O6  1  0.23350200  0.09545800  0.40224100  1
  O  O7  1  0.99737400  0.79080400  0.88764300  1
  O  O8  1  0.33465300  0.77599900  0.86690900  1
  O  O9  1  0.00262600  0.20919600  0.11235700  1
  O  O10  1  0.76649800  0.90454200  0.59775900  1
  O  O11  1  0.16407300  0.28315600  0.86788800  1
  O  O12  1  0.33465300  0.22400100  0.63309100  1
  O  O13  1  0.73972700  0.58996400  0.90037800  1
  O  O14  1  0.49706100  0.29977900  0.38989000  1
  O  O15  1  0.16407300  0.71684400  0.63211200  1
  O  O16  1  0.50293900  0.70022100  0.61011000  1
  O  O17  1  0.26027300  0.41003600  0.09962200  1
  O  O18  1  0.00262600  0.79080400  0.38764300  1
  O  O19  1  0.66534700  0.77599900  0.36690900  1
  O  O20  1  0.23350200  0.90454200  0.09775900  1
  O  O21  1  0.66534700  0.22400100  0.13309100  1
  O  O22  1  0.50293900  0.29977900  0.88989000  1
  O  O23  1  0.73972700  0.41003600  0.59962200  1
loop_
_geom_bond_atom_site_label_1
_geom_bond_atom_site_label_2
_geom_bond_distance
_geom_bond_site_symmetry_2
Na0 O22 2.419843 1_555
Na0 O16 2.419843 1_545
Na0 O8 2.451735 1_545
Na0 O12 2.451735 1_555
Na0 O0 2.591184 1_555
Na0 O10 2.591184 1_545
Na0 O23 2.872267 1_555
Na0 O13 2.872267 1_545
Na1 O14 2.419843 1_555
Na1 O5 2.419843 1_545
Na1 O21 2.451735 1_555
Na1 O19 2.451735 1_545
Na1 O6 2.591184 1_555
Na1 O20 2.591184 1_545
Na1 O17 2.872267 1_555
Na1 O3 2.872267 1_545
Ca0 O18 2.359155 1_555
Ca0 O9 2.359155 1_555
Ca0 O4 2.407252 1_455
Ca0 O2 2.407252 1_455
Ca0 O3 2.549618 1_555
Ca0 O17 2.549618 1_555
Ca0 O6 2.844228 1_555
Ca0 O20 2.844228 1_555
Ca1 O7 2.359155 1_555
Ca1 O1 2.359155 1_555
Ca1 O15 2.407252 1_655
Ca1 O11 2.407252 1_655
Ca1 O13 2.549618 1_555
Ca1 O23 2.549618 1_555
Ca1 O0 2.844228 1_555
Ca1 O10 2.844228 1_555
O0 Si1 1.669809 1_545
O0 Si7 1.683911 1_555
O1 Si0 1.608413 1_555
O1 Zn0 2.072638 1_655
O2 Si0 1.637792 1_555
O2 Zn1 2.143198 1_555
O2 Sc0 2.233907 1_555
O3 Si4 1.679515 1_555
O3 Si5 1.689604 1_555
O4 Si1 1.637792 1_554
O4 Zn1 2.143198 1_565
O4 Sc0 2.233907 1_555
O5 Si2 1.609696 1_555
O5 Sc0 2.036824 1_555
O6 Si5 1.669809 1_545
O6 Si4 1.683911 1_555
O7 Si1 1.608413 1_555
O7 Zn0 2.072638 1_665
O8 Si2 1.624715 1_556
O8 Sc1 2.107656 1_555
O8 Zn0 2.199990 1_565
O9 Si3 1.608413 1_555
O9 Zn1 2.072638 1_455
O10 Si0 1.669809 1_565
O10 Si6 1.683911 1_555
O11 Si3 1.637792 1_556
O11 Zn0 2.143198 1_555
O11 Sc1 2.233907 1_555
O12 Si4 1.624715 1_555
O12 Sc1 2.107656 1_555
O12 Zn0 2.199990 1_555
O13 Si7 1.679515 1_555
O13 Si1 1.689604 1_555
O14 Si4 1.609696 1_555
O14 Sc0 2.036824 1_555
O15 Si5 1.637792 1_555
O15 Zn0 2.143198 1_565
O15 Sc1 2.233907 1_555
O16 Si6 1.609696 1_555
O16 Sc1 2.036824 1_555
O17 Si2 1.679515 1_555
O17 Si3 1.689604 1_555
O18 Si5 1.608413 1_555
O18 Zn1 2.072638 1_465
O19 Si6 1.624715 1_555
O19 Sc0 2.107656 1_555
O19 Zn1 2.199990 1_565
O20 Si3 1.669809 1_565
O20 Si2 1.683911 1_555
O21 Si7 1.624715 1_554
O21 Sc0 2.107656 1_555
O21 Zn1 2.199990 1_555
O22 Si7 1.609696 1_555
O22 Sc1 2.036824 1_555
O23 Si6 1.679515 1_555
O23 Si0 1.689604 1_555
