# generated using pymatgen
data_ZnP2(HO)4
_symmetry_space_group_name_H-M   'P 1'
_cell_length_a   5.47740600
_cell_length_b   6.55752600
_cell_length_c   7.50651600
_cell_angle_alpha   90.00000000
_cell_angle_beta   90.00000000
_cell_angle_gamma   90.00000000
_symmetry_Int_Tables_number   1
_chemical_formula_structural   ZnP2(HO)4
_chemical_formula_sum   'Zn2 P4 H8 O8'
_cell_volume   269.62078513
_cell_formula_units_Z   2
loop_
 _symmetry_equiv_pos_site_id
 _symmetry_equiv_pos_as_xyz
  1  'x, y, z'
loop_
 _atom_site_type_symbol
 _atom_site_label
 _atom_site_symmetry_multiplicity
 _atom_site_fract_x
 _atom_site_fract_y
 _atom_site_fract_z
 _atom_site_occupancy
  Zn  Zn0  1  0.50000000  0.50000000  0.00000000  1
  Zn  Zn1  1  0.50000000  0.00000000  0.00000000  1
  P  P0  1  0.00000000  0.25000000  0.85825700  1
  P  P1  1  0.00000000  0.75000000  0.14174300  1
  P  P2  1  0.50000000  0.25000000  0.37223300  1
  P  P3  1  0.50000000  0.75000000  0.62776700  1
  H  H0  1  0.00000000  0.42278100  0.74592100  1
  H  H1  1  0.00000000  0.57721900  0.25407900  1
  H  H2  1  0.00000000  0.07721900  0.74592100  1
  H  H3  1  0.00000000  0.92278100  0.25407900  1
  H  H4  1  0.29829700  0.25000000  0.49060500  1
  H  H5  1  0.29829700  0.75000000  0.50939500  1
  H  H6  1  0.70170300  0.75000000  0.50939500  1
  H  H7  1  0.70170300  0.25000000  0.49060500  1
  O  O0  1  0.76234100  0.25000000  0.96646100  1
  O  O1  1  0.76234100  0.75000000  0.03353900  1
  O  O2  1  0.23765900  0.75000000  0.03353900  1
  O  O3  1  0.23765900  0.25000000  0.96646100  1
  O  O4  1  0.50000000  0.44960500  0.26720400  1
  O  O5  1  0.50000000  0.55039500  0.73279600  1
  O  O6  1  0.50000000  0.05039500  0.26720400  1
  O  O7  1  0.50000000  0.94960500  0.73279600  1
loop_
_geom_bond_atom_site_label_1
_geom_bond_atom_site_label_2
_geom_bond_distance
_geom_bond_site_symmetry_2
H0 P0 1.412374 1_555
H1 P1 1.412374 1_555
H2 P0 1.412374 1_555
H3 P1 1.412374 1_555
H4 P2 1.417796 1_555
H5 P3 1.417796 1_555
H6 P3 1.417796 1_555
H7 P2 1.417796 1_555
O0 P0 1.534370 1_655
O0 Zn1 2.194487 1_556
O0 Zn0 2.194487 1_556
O1 P1 1.534370 1_655
O1 Zn0 2.194487 1_555
O1 Zn1 2.194487 1_565
O2 P1 1.534370 1_555
O2 Zn0 2.194487 1_555
O2 Zn1 2.194487 1_565
O3 P0 1.534370 1_555
O3 Zn1 2.194487 1_556
O3 Zn0 2.194487 1_556
O4 P2 1.528017 1_555
O4 Zn0 2.032812 1_555
O5 P3 1.528017 1_555
O5 Zn0 2.032812 1_556
O6 P2 1.528017 1_555
O6 Zn1 2.032812 1_555
O7 P3 1.528017 1_555
O7 Zn1 2.032812 1_566
