# generated using pymatgen
data_US2
_symmetry_space_group_name_H-M   'P 1'
_cell_length_a   4.06966608
_cell_length_b   7.15871711
_cell_length_c   8.56399754
_cell_angle_alpha   90.00000000
_cell_angle_beta   90.00000000
_cell_angle_gamma   90.00000000
_symmetry_Int_Tables_number   1
_chemical_formula_structural   US2
_chemical_formula_sum   'U4 S8'
_cell_volume   249.49997767
_cell_formula_units_Z   4
loop_
 _symmetry_equiv_pos_site_id
 _symmetry_equiv_pos_as_xyz
  1  'x, y, z'
loop_
 _atom_site_type_symbol
 _atom_site_label
 _atom_site_symmetry_multiplicity
 _atom_site_fract_x
 _atom_site_fract_y
 _atom_site_fract_z
 _atom_site_occupancy
  U  U0  1  0.25000000  0.25373209  0.62319035  1
  U  U1  1  0.75000000  0.74627457  0.37680156  1
  U  U2  1  0.25000000  0.75373209  0.87680965  1
  U  U3  1  0.75000000  0.24627457  0.12319844  1
  S  S0  1  0.25000000  0.53375317  0.16364509  1
  S  S1  1  0.75000000  0.46622177  0.83635943  1
  S  S2  1  0.25000000  0.03375317  0.33635491  1
  S  S3  1  0.75000000  0.96622177  0.66364057  1
  S  S4  1  0.25000000  0.13794443  0.92850927  1
  S  S5  1  0.75000000  0.86207397  0.07153927  1
  S  S6  1  0.25000000  0.63794443  0.57149073  1
  S  S7  1  0.75000000  0.36207397  0.42846073  1
loop_
_geom_bond_atom_site_label_1
_geom_bond_atom_site_label_2
_geom_bond_distance
_geom_bond_site_symmetry_2
S0 U3 2.914756 1_455
S0 U3 2.914756 1_555
S0 U2 2.917889 1_554
S0 U1 3.128497 1_455
S0 U1 3.128497 1_555
S1 U2 2.914920 1_555
S1 U2 2.914920 1_655
S1 U3 2.917792 1_556
S1 U0 3.128449 1_555
S1 U0 3.128449 1_655
S2 U1 2.914756 1_545
S2 U1 2.914756 1_445
S2 U0 2.917889 1_555
S2 U3 3.128497 1_455
S2 U3 3.128497 1_555
S3 U0 2.914920 1_565
S3 U0 2.914920 1_665
S3 U1 2.917792 1_555
S3 U2 3.128449 1_555
S3 U2 3.128449 1_655
S4 U3 2.742608 1_556
S4 U3 2.742608 1_456
S4 U0 2.742988 1_555
S4 U2 2.785876 1_545
S5 U1 2.742551 1_555
S5 U2 2.742843 1_654
S5 U2 2.742843 1_554
S5 U3 2.785738 1_565
S6 U1 2.742608 1_555
S6 U1 2.742608 1_455
S6 U2 2.742988 1_555
S6 U0 2.785876 1_555
S7 U3 2.742551 1_555
S7 U0 2.742843 1_655
S7 U0 2.742843 1_555
S7 U1 2.785738 1_555
