# generated using pymatgen
data_TaPbBr
_symmetry_space_group_name_H-M   'P 1'
_cell_length_a   4.79944344
_cell_length_b   4.79944344
_cell_length_c   4.79944344
_cell_angle_alpha   60.00000000
_cell_angle_beta   60.00000000
_cell_angle_gamma   60.00000000
_symmetry_Int_Tables_number   1
_chemical_formula_structural   TaPbBr
_chemical_formula_sum   'Ta1 Pb1 Br1'
_cell_volume   78.17315414
_cell_formula_units_Z   1
loop_
 _symmetry_equiv_pos_site_id
 _symmetry_equiv_pos_as_xyz
  1  'x, y, z'
loop_
 _atom_site_type_symbol
 _atom_site_label
 _atom_site_symmetry_multiplicity
 _atom_site_fract_x
 _atom_site_fract_y
 _atom_site_fract_z
 _atom_site_occupancy
  Ta  Ta0  1  0.50000000  0.50000000  0.50000000  1
  Pb  Pb0  1  0.00000000  0.00000000  0.00000000  1
  Br  Br0  1  0.75000000  0.75000000  0.75000000  1
loop_
_geom_bond_atom_site_label_1
_geom_bond_atom_site_label_2
_geom_bond_distance
_geom_bond_site_symmetry_2
Pb0 Ta0 3.393719 1_455
Pb0 Ta0 3.393719 1_445
Pb0 Ta0 3.393719 1_454
Pb0 Ta0 3.393719 1_544
Pb0 Ta0 3.393719 1_545
Pb0 Ta0 3.393719 1_554
Br0 Ta0 2.939047 1_565
Br0 Pb0 2.939047 1_566
Br0 Ta0 2.939047 1_655
Br0 Pb0 2.939047 1_656
Br0 Pb0 2.939047 1_665
Br0 Pb0 2.939047 1_666
Br0 Ta0 2.939047 1_556
Br0 Ta0 2.939047 1_555
