# generated using pymatgen
data_Li10Sn(PO6)2
_symmetry_space_group_name_H-M   'P 1'
_cell_length_a   7.14681000
_cell_length_b   7.14681000
_cell_length_c   10.82532800
_cell_angle_alpha   90.00000000
_cell_angle_beta   90.00000000
_cell_angle_gamma   90.00000000
_symmetry_Int_Tables_number   1
_chemical_formula_structural   Li10Sn(PO6)2
_chemical_formula_sum   'Li20 Sn2 P4 O24'
_cell_volume   552.92412185
_cell_formula_units_Z   2
loop_
 _symmetry_equiv_pos_site_id
 _symmetry_equiv_pos_as_xyz
  1  'x, y, z'
loop_
 _atom_site_type_symbol
 _atom_site_label
 _atom_site_symmetry_multiplicity
 _atom_site_fract_x
 _atom_site_fract_y
 _atom_site_fract_z
 _atom_site_occupancy
  Li  Li0  1  0.20019200  0.26655900  0.29404400  1
  Li  Li1  1  0.79980800  0.73344100  0.29404400  1
  Li  Li2  1  0.26655900  0.79980800  0.79404400  1
  Li  Li3  1  0.73344100  0.20019200  0.79404400  1
  Li  Li4  1  0.20019200  0.73344100  0.29404400  1
  Li  Li5  1  0.79980800  0.26655900  0.29404400  1
  Li  Li6  1  0.26655900  0.20019200  0.79404400  1
  Li  Li7  1  0.73344100  0.79980800  0.79404400  1
  Li  Li8  1  0.00000000  0.00000000  0.93075100  1
  Li  Li9  1  0.00000000  0.00000000  0.43075100  1
  Li  Li10  1  0.50000000  0.50000000  0.55894000  1
  Li  Li11  1  0.50000000  0.50000000  0.05894000  1
  Li  Li12  1  0.23325000  0.69133900  0.04991600  1
  Li  Li13  1  0.76675000  0.30866100  0.04991600  1
  Li  Li14  1  0.30866100  0.23325000  0.54991600  1
  Li  Li15  1  0.69133900  0.76675000  0.54991600  1
  Li  Li16  1  0.30866100  0.76675000  0.54991600  1
  Li  Li17  1  0.69133900  0.23325000  0.54991600  1
  Li  Li18  1  0.23325000  0.30866100  0.04991600  1
  Li  Li19  1  0.76675000  0.69133900  0.04991600  1
  Sn  Sn0  1  0.50000000  0.50000000  0.81003100  1
  Sn  Sn1  1  0.50000000  0.50000000  0.31003100  1
  P  P0  1  0.00000000  0.00000000  0.67834800  1
  P  P1  1  0.00000000  0.00000000  0.17834800  1
  P  P2  1  0.00000000  0.50000000  0.49328000  1
  P  P3  1  0.50000000  0.00000000  0.99328000  1
  O  O0  1  0.00000000  0.68274200  0.41083000  1
  O  O1  1  0.00000000  0.31725800  0.41083000  1
  O  O2  1  0.31725800  0.00000000  0.91083000  1
  O  O3  1  0.68274200  0.00000000  0.91083000  1
  O  O4  1  0.50000000  0.18577300  0.06783700  1
  O  O5  1  0.50000000  0.81422700  0.06783700  1
  O  O6  1  0.18577300  0.50000000  0.56783700  1
  O  O7  1  0.81422700  0.50000000  0.56783700  1
  O  O8  1  0.00000000  0.82280700  0.09367300  1
  O  O9  1  0.00000000  0.17719300  0.09367300  1
  O  O10  1  0.17719300  0.00000000  0.59367300  1
  O  O11  1  0.82280700  0.00000000  0.59367300  1
  O  O12  1  0.50000000  0.28583100  0.42438400  1
  O  O13  1  0.50000000  0.71416900  0.42438400  1
  O  O14  1  0.28583100  0.50000000  0.92438400  1
  O  O15  1  0.71416900  0.50000000  0.92438400  1
  O  O16  1  0.00000000  0.17305500  0.76484600  1
  O  O17  1  0.00000000  0.82694500  0.76484600  1
  O  O18  1  0.82694500  0.00000000  0.26484600  1
  O  O19  1  0.17305500  0.00000000  0.26484600  1
  O  O20  1  0.50000000  0.72068600  0.69843700  1
  O  O21  1  0.50000000  0.27931400  0.69843700  1
  O  O22  1  0.72068600  0.50000000  0.19843700  1
  O  O23  1  0.27931400  0.50000000  0.19843700  1
loop_
_geom_bond_atom_site_label_1
_geom_bond_atom_site_label_2
_geom_bond_distance
_geom_bond_site_symmetry_2
Li0 O19 1.940804 1_555
Li0 O1 1.943350 1_555
Li0 O23 2.043124 1_555
Li0 O12 2.569213 1_555
Li1 O18 1.940804 1_565
Li1 O0 1.943350 1_655
Li1 O22 2.043124 1_555
Li1 O13 2.569213 1_555
Li2 O17 1.940804 1_555
Li2 O2 1.943350 1_565
Li2 O20 2.043124 1_555
Li2 O14 2.569213 1_555
Li3 O16 1.940804 1_655
Li3 O3 1.943350 1_555
Li3 O21 2.043124 1_555
Li3 O15 2.569213 1_555
Li4 O19 1.940804 1_565
Li4 O0 1.943350 1_555
Li4 O23 2.043124 1_555
Li4 O13 2.569213 1_555
Li5 O18 1.940804 1_555
Li5 O1 1.943350 1_655
Li5 O22 2.043124 1_555
Li5 O12 2.569213 1_555
Li6 O16 1.940804 1_555
Li6 O2 1.943350 1_555
Li6 O21 2.043124 1_555
Li6 O14 2.569213 1_555
Li7 O17 1.940804 1_655
Li7 O3 1.943350 1_565
Li7 O20 2.043124 1_555
Li7 O15 2.569213 1_555
Li8 O9 2.171235 1_556
Li8 O8 2.171235 1_546
Li8 O17 2.180638 1_545
Li8 O16 2.180638 1_555
Li8 O2 2.277615 1_555
Li8 O3 2.277615 1_455
Li9 O10 2.171235 1_555
Li9 O11 2.171235 1_455
Li9 O18 2.180638 1_455
Li9 O19 2.180638 1_555
Li9 O1 2.277615 1_555
Li9 O0 2.277615 1_545
Li10 O12 2.112944 1_555
Li10 O13 2.112944 1_555
Li10 O21 2.183568 1_555
Li10 O20 2.183568 1_555
Li10 O7 2.247785 1_555
Li10 O6 2.247785 1_555
Li11 O14 2.112944 1_554
Li11 O15 2.112944 1_554
Li11 O22 2.183568 1_555
Li11 O23 2.183568 1_555
Li11 O5 2.247785 1_555
Li11 O4 2.247785 1_555
Li12 O14 1.964141 1_554
Li12 O8 1.971306 1_555
Li12 O5 2.107932 1_555
Li12 O23 2.136193 1_555
Li13 O15 1.964141 1_554
Li13 O9 1.971306 1_655
Li13 O4 2.107932 1_555
Li13 O22 2.136193 1_555
Li14 O12 1.964141 1_555
Li14 O10 1.971306 1_555
Li14 O6 2.107932 1_555
Li14 O21 2.136193 1_555
Li15 O13 1.964141 1_555
Li15 O11 1.971306 1_565
Li15 O7 2.107932 1_555
Li15 O20 2.136193 1_555
Li16 O13 1.964141 1_555
Li16 O10 1.971306 1_565
Li16 O6 2.107932 1_555
Li16 O20 2.136193 1_555
Li17 O12 1.964141 1_555
Li17 O11 1.971306 1_555
Li17 O7 2.107932 1_555
Li17 O21 2.136193 1_555
Li18 O14 1.964141 1_554
Li18 O9 1.971306 1_555
Li18 O4 2.107932 1_555
Li18 O23 2.136193 1_555
Li19 O15 1.964141 1_554
Li19 O8 1.971306 1_655
Li19 O5 2.107932 1_555
Li19 O22 2.136193 1_555
O0 P2 1.581878 1_555
O1 P2 1.581878 1_555
O2 P3 1.581878 1_555
O3 P3 1.581878 1_555
O4 P3 1.553758 1_554
O5 P3 1.553758 1_564
O6 P2 1.553758 1_555
O7 P2 1.553758 1_655
O8 P1 1.563297 1_565
O9 P1 1.563297 1_555
O10 P0 1.563297 1_555
O11 P0 1.563297 1_655
O12 Sn1 1.968561 1_555
O13 Sn1 1.968561 1_555
O14 Sn0 1.968561 1_555
O15 Sn0 1.968561 1_555
O16 P0 1.551270 1_555
O17 P0 1.551270 1_565
O18 P1 1.551270 1_655
O19 P1 1.551270 1_555
O20 Sn0 1.986688 1_555
O21 Sn0 1.986688 1_555
O22 Sn1 1.986688 1_555
O23 Sn1 1.986688 1_555
