# generated using pymatgen
data_CdGePH3O7
_symmetry_space_group_name_H-M   'P 1'
_cell_length_a   8.02848400
_cell_length_b   8.73765484
_cell_length_c   9.25983928
_cell_angle_alpha   87.04530143
_cell_angle_beta   87.34764146
_cell_angle_gamma   68.96625670
_symmetry_Int_Tables_number   1
_chemical_formula_structural   CdGePH3O7
_chemical_formula_sum   'Cd4 Ge4 P4 H12 O28'
_cell_volume   605.22203219
_cell_formula_units_Z   4
loop_
 _symmetry_equiv_pos_site_id
 _symmetry_equiv_pos_as_xyz
  1  'x, y, z'
loop_
 _atom_site_type_symbol
 _atom_site_label
 _atom_site_symmetry_multiplicity
 _atom_site_fract_x
 _atom_site_fract_y
 _atom_site_fract_z
 _atom_site_occupancy
  Cd  Cd0  1  0.72729000  0.77488700  0.86635500  1
  Cd  Cd1  1  0.34185800  0.85708500  0.20820700  1
  Cd  Cd2  1  0.45436500  0.83611500  0.57133100  1
  Cd  Cd3  1  0.73440100  0.25718000  0.07690900  1
  Ge  Ge0  1  0.14931900  0.43236900  0.00796100  1
  Ge  Ge1  1  0.51452600  0.13854800  0.40596400  1
  Ge  Ge2  1  0.36758700  0.06409000  0.88702300  1
  Ge  Ge3  1  0.99707900  0.60046800  0.45487600  1
  P  P0  1  0.11153800  0.18965400  0.61665500  1
  P  P1  1  0.30893500  0.46716500  0.19188900  1
  P  P2  1  0.72942700  0.43224100  0.71698000  1
  P  P3  1  0.91260400  0.94082100  0.27296600  1
  H  H0  1  0.90091400  0.91986500  0.57333100  1
  H  H1  1  0.58196500  0.56365800  0.10499800  1
  H  H2  1  0.36067200  0.61309100  0.43597900  1
  H  H3  1  0.62741300  0.28853500  0.58259800  1
  H  H4  1  0.73392700  0.54209400  0.41144300  1
  H  H5  1  0.76493600  0.53630100  0.18831500  1
  H  H6  1  0.91759100  0.07833300  0.86029900  1
  H  H7  1  0.42089200  0.36642700  0.85154800  1
  H  H8  1  0.04142500  0.08520800  0.40265500  1
  H  H9  1  0.02392300  0.88484400  0.70113700  1
  H  H10  1  0.72601700  0.06683600  0.85698700  1
  H  H11  1  0.01685500  0.71577900  0.03261800  1
  O  O0  1  0.91150900  0.96245100  0.66684500  1
  O  O1  1  0.46895900  0.88245700  0.99897000  1
  O  O2  1  0.20991200  0.13548600  0.05185300  1
  O  O3  1  0.66249700  0.38537200  0.57206600  1
  O  O4  1  0.05285600  0.84981100  0.16117300  1
  O  O5  1  0.23854700  0.27574200  0.56627900  1
  O  O6  1  0.56348600  0.03028600  0.77393000  1
  O  O7  1  0.18764600  0.51832300  0.32733900  1
  O  O8  1  0.31548200  0.32997300  0.87059100  1
  O  O9  1  0.46291500  0.30276400  0.22261700  1
  O  O10  1  0.37703900  0.59386300  0.11949800  1
  O  O11  1  0.05900500  0.60000800  0.62301600  1
  O  O12  1  0.04312400  0.28056100  0.02567000  1
  O  O13  1  0.91032300  0.82722000  0.40966400  1
  O  O14  1  0.20171300  0.06198100  0.75633600  1
  O  O15  1  0.20769300  0.70922500  0.78895700  1
  O  O16  1  0.84518700  0.53735900  0.35829100  1
  O  O17  1  0.62500500  0.39272200  0.84646600  1
  O  O18  1  0.36182900  0.71576600  0.78016500  1
  O  O19  1  0.71666500  0.51739100  0.09689800  1
  O  O20  1  0.72150200  0.02177600  0.22012200  1
  O  O21  1  0.39783900  0.00458100  0.37847300  1
  O  O22  1  0.69848200  0.61744700  0.69022400  1
  O  O23  1  0.82620400  0.05758800  0.92413300  1
  O  O24  1  0.43098600  0.68093700  0.40567400  1
  O  O25  1  0.98687000  0.63712700  0.97307500  1
  O  O26  1  0.93511700  0.33310100  0.72844900  1
  O  O27  1  0.95314900  0.09449000  0.32720400  1
loop_
_geom_bond_atom_site_label_1
_geom_bond_atom_site_label_2
_geom_bond_distance
_geom_bond_site_symmetry_2
Cd0 O25 2.244081 1_555
Cd0 O22 2.258431 1_555
Cd0 O1 2.275267 1_555
Cd0 O6 2.289658 1_565
Cd1 O1 2.186197 1_554
Cd1 O21 2.244895 1_565
Cd1 O24 2.294507 1_555
Cd1 O10 2.398174 1_555
Cd1 O4 2.404062 1_555
Cd1 O2 2.657974 1_565
Cd2 O24 2.156491 1_555
Cd2 O21 2.210522 1_565
Cd2 O18 2.369682 1_555
Cd2 O22 2.449200 1_555
Cd3 O23 2.195706 1_554
Cd3 O19 2.243322 1_555
Cd3 O20 2.420555 1_555
Cd3 O9 2.426904 1_555
Cd3 O17 2.427679 1_554
Cd3 O12 2.579700 1_655
Ge0 O12 1.813751 1_555
Ge0 O8 1.817053 1_554
Ge0 O25 1.819522 1_454
Ge1 O21 1.775559 1_555
Ge1 O9 2.121346 1_555
Ge1 O20 2.337301 1_555
Ge1 O5 2.553906 1_555
Ge2 O6 1.789836 1_555
Ge2 O1 1.799152 1_545
Ge2 O14 1.845892 1_555
Ge2 O2 1.916689 1_556
Ge2 O8 2.206173 1_555
Ge3 O11 1.655551 1_655
Ge3 O16 1.795975 1_555
Ge3 O7 1.839167 1_655
Ge3 O13 1.880624 1_555
H0 O0 0.978916 1_555
H0 O13 1.740636 1_555
H1 O19 1.010125 1_555
H1 O10 1.570359 1_555
H2 O24 0.978401 1_555
H3 O3 0.982250 1_555
H4 O16 0.988295 1_555
H5 O19 0.992376 1_555
H6 O23 0.982265 1_555
H7 O8 1.011258 1_555
H7 O17 1.732748 1_555
H8 O27 0.997859 1_455
H9 O0 0.969638 1_455
H10 O23 1.017126 1_555
H10 O6 1.677364 1_555
H11 O25 1.002171 1_454
O3 P2 1.593251 1_555
O4 P3 1.518583 1_455
O5 P0 1.514456 1_555
O7 P1 1.534102 1_555
O9 P1 1.545434 1_555
O10 P1 1.515891 1_555
O12 O2 1.496196 1_555
O13 P3 1.571378 1_555
O14 P0 1.673237 1_555
O15 O18 1.257860 1_555
O17 P2 1.527023 1_555
O20 P3 1.532482 1_545
O22 P2 1.554880 1_555
O26 P2 1.571178 1_555
O26 P0 1.836430 1_655
O27 P3 1.599831 1_545
