# generated using pymatgen
data_AgCNO
_symmetry_space_group_name_H-M   'P 1'
_cell_length_a   9.58151984
_cell_length_b   9.58151984
_cell_length_c   9.58152002
_cell_angle_alpha   116.03567311
_cell_angle_beta   116.03567311
_cell_angle_gamma   116.03567523
_symmetry_Int_Tables_number   1
_chemical_formula_structural   AgCNO
_chemical_formula_sum   'Ag6 C6 N6 O6'
_cell_volume   442.35368584
_cell_formula_units_Z   6
loop_
 _symmetry_equiv_pos_site_id
 _symmetry_equiv_pos_as_xyz
  1  'x, y, z'
loop_
 _atom_site_type_symbol
 _atom_site_label
 _atom_site_symmetry_multiplicity
 _atom_site_fract_x
 _atom_site_fract_y
 _atom_site_fract_z
 _atom_site_occupancy
  Ag  Ag0  1  0.93701400  0.19225900  0.85066600  1
  Ag  Ag1  1  0.85066600  0.93701400  0.19225900  1
  Ag  Ag2  1  0.19225900  0.85066600  0.93701400  1
  Ag  Ag3  1  0.06298600  0.80774100  0.14933400  1
  Ag  Ag4  1  0.14933400  0.06298600  0.80774100  1
  Ag  Ag5  1  0.80774100  0.14933400  0.06298600  1
  C  C0  1  0.58759800  0.96251400  0.69857500  1
  C  C1  1  0.69857500  0.58759800  0.96251400  1
  C  C2  1  0.96251400  0.69857500  0.58759800  1
  C  C3  1  0.41240200  0.03748600  0.30142500  1
  C  C4  1  0.30142500  0.41240200  0.03748600  1
  C  C5  1  0.03748600  0.30142500  0.41240200  1
  N  N0  1  0.37429400  0.80688700  0.50442800  1
  N  N1  1  0.50442800  0.37429400  0.80688700  1
  N  N2  1  0.19311300  0.49557200  0.62570600  1
  N  N3  1  0.62570600  0.19311300  0.49557200  1
  N  N4  1  0.49557200  0.62570600  0.19311300  1
  N  N5  1  0.80688700  0.50442800  0.37429400  1
  O  O0  1  0.35482000  0.69709000  0.84728500  1
  O  O1  1  0.30291000  0.15271500  0.64518000  1
  O  O2  1  0.64518000  0.30291000  0.15271500  1
  O  O3  1  0.84728500  0.35482000  0.69709000  1
  O  O4  1  0.69709000  0.84728500  0.35482000  1
  O  O5  1  0.15271500  0.64518000  0.30291000  1
loop_
_geom_bond_atom_site_label_1
_geom_bond_atom_site_label_2
_geom_bond_distance
_geom_bond_site_symmetry_2
Ag0 C4 2.139657 1_656
Ag0 C0 2.146938 1_545
Ag0 O3 2.721673 1_555
Ag1 C5 2.139657 1_665
Ag1 C1 2.146938 1_554
Ag1 O4 2.721673 1_555
Ag2 C3 2.139657 1_566
Ag2 C2 2.146938 1_455
Ag2 O0 2.721673 1_555
Ag3 C1 2.139657 1_454
Ag3 C3 2.146938 1_565
Ag3 O5 2.721673 1_555
Ag4 C2 2.139657 1_445
Ag4 C4 2.146938 1_556
Ag4 O1 2.721673 1_555
Ag5 C0 2.139657 1_544
Ag5 C5 2.146938 1_655
Ag5 O2 2.721673 1_555
C0 N0 1.188712 1_555
C1 N1 1.188711 1_555
C2 N5 1.188712 1_555
C3 N3 1.188712 1_555
C4 N4 1.188711 1_555
C5 N2 1.188712 1_555
N0 O5 1.234352 1_555
N1 O1 1.234352 1_555
N2 O0 1.234352 1_555
N3 O3 1.234352 1_555
N4 O4 1.234352 1_555
N5 O2 1.234352 1_555
