# generated using pymatgen
data_Na8Si7O18
_symmetry_space_group_name_H-M   'P 1'
_cell_length_a   6.27812200
_cell_length_b   9.06869643
_cell_length_c   10.97065986
_cell_angle_alpha   103.32741023
_cell_angle_beta   101.11638746
_cell_angle_gamma   104.50908253
_symmetry_Int_Tables_number   1
_chemical_formula_structural   Na8Si7O18
_chemical_formula_sum   'Na8 Si7 O18'
_cell_volume   567.20898650
_cell_formula_units_Z   1
loop_
 _symmetry_equiv_pos_site_id
 _symmetry_equiv_pos_as_xyz
  1  'x, y, z'
loop_
 _atom_site_type_symbol
 _atom_site_label
 _atom_site_symmetry_multiplicity
 _atom_site_fract_x
 _atom_site_fract_y
 _atom_site_fract_z
 _atom_site_occupancy
  Na  Na0  1  0.27159800  0.70438900  0.26324100  1
  Na  Na1  1  0.58254400  0.31138700  0.72361900  1
  Na  Na2  1  0.46585000  0.54908900  0.96568300  1
  Na  Na3  1  0.94708400  0.87337500  0.46320700  1
  Na  Na4  1  0.40438100  0.48456800  0.47960300  1
  Na  Na5  1  0.96016100  0.43516100  0.99096900  1
  Na  Na6  1  0.57822500  0.11001800  0.48496700  1
  Na  Na7  1  0.91997000  0.56709800  0.54871000  1
  Si  Si0  1  0.97185200  0.01950100  0.01125400  1
  Si  Si1  1  0.94083900  0.69066000  0.85574200  1
  Si  Si2  1  0.79022000  0.54022700  0.26466700  1
  Si  Si3  1  0.12031700  0.08877200  0.25790700  1
  Si  Si4  1  0.34888200  0.33395000  0.15414000  1
  Si  Si5  1  0.09631200  0.36515300  0.68557500  1
  Si  Si6  1  0.78528600  0.93211600  0.75181700  1
  O  O0  1  0.28709200  0.48455900  0.12954200  1
  O  O1  1  0.87940000  0.63603400  0.17012000  1
  O  O2  1  0.70737900  0.96341900  0.61847100  1
  O  O3  1  0.75506400  0.54382900  0.86384500  1
  O  O4  1  0.12451000  0.33118900  0.82464400  1
  O  O5  1  0.20424400  0.99539500  0.35213700  1
  O  O6  1  0.26021700  0.31255400  0.59753800  1
  O  O7  1  0.19959800  0.16702000  0.03175000  1
  O  O8  1  0.83562800  0.33519500  0.60208000  1
  O  O9  1  0.68904700  0.62266000  0.37892000  1
  O  O10  1  0.02061000  0.84792100  0.98649700  1
  O  O11  1  0.17114300  0.62999700  0.43312900  1
  O  O12  1  0.00470500  0.47945000  0.34407700  1
  O  O13  1  0.61976900  0.35206100  0.17524600  1
  O  O14  1  0.28870800  0.26964200  0.28193600  1
  O  O15  1  0.21670200  0.58147000  0.72426100  1
  O  O16  1  0.20335500  0.67915700  0.85236800  1
  O  O17  1  0.84930900  0.76298400  0.73233500  1
loop_
_geom_bond_atom_site_label_1
_geom_bond_atom_site_label_2
_geom_bond_distance
_geom_bond_site_symmetry_2
Na0 O0 2.222448 1_555
Na0 O11 2.268550 1_555
Na0 O1 2.337511 1_455
Na0 O5 2.761537 1_555
Na1 O3 2.168318 1_555
Na1 O6 2.224068 1_555
Na1 O8 2.264247 1_555
Na2 O3 2.312656 1_555
Na2 O0 2.401522 1_556
Na2 O4 2.466015 1_555
Na2 O16 2.551982 1_555
Na2 O1 2.882068 1_556
Na3 O9 2.292692 1_555
Na3 O5 2.408496 1_655
Na3 O2 2.606886 1_555
Na3 O11 2.890997 1_655
Na4 O11 2.265670 1_555
Na4 O6 2.366680 1_555
Na4 O14 2.400790 1_555
Na4 O9 2.501958 1_555
Na5 O0 2.178695 1_656
Na5 O3 2.269611 1_555
Na5 O4 2.388188 1_655
Na5 O1 2.575803 1_556
Na6 O8 2.183692 1_555
Na6 O5 2.340106 1_545
Na6 O2 2.355839 1_545
Na7 O11 2.252457 1_655
Na7 O8 2.274929 1_555
Na7 O15 2.361296 1_655
Na7 O9 2.362795 1_555
Na7 O12 2.409222 1_655
Na7 O17 2.549567 1_555
O0 Si4 1.576019 1_555
O1 Si2 1.593708 1_555
O2 Si6 1.563648 1_555
O3 Si1 1.567689 1_555
O4 Si5 1.610505 1_555
O5 Si3 1.574960 1_565
O6 Si5 1.623577 1_555
O7 Si0 1.632040 1_455
O7 Si4 1.685130 1_555
O8 Si5 1.635770 1_655
O9 Si2 1.626749 1_555
O10 Si0 1.632333 1_466
O10 Si1 1.662637 1_455
O11 O12 1.478806 1_555
O12 Si2 1.736915 1_455
O13 Si4 1.632024 1_555
O13 Si2 1.711091 1_555
O14 Si3 1.643738 1_555
O14 Si4 1.708580 1_555
O15 Si5 1.830093 1_555
O16 Si1 1.684162 1_455
O17 Si6 1.658525 1_555
O17 Si1 1.700459 1_555
