# generated using pymatgen
data_Cr(FeSe2)2
_symmetry_space_group_name_H-M   'P 1'
_cell_length_a   4.61185800
_cell_length_b   5.93286653
_cell_length_c   6.40085884
_cell_angle_alpha   114.98808629
_cell_angle_beta   110.43824897
_cell_angle_gamma   90.44448408
_symmetry_Int_Tables_number   1
_chemical_formula_structural   Cr(FeSe2)2
_chemical_formula_sum   'Cr1 Fe2 Se4'
_cell_volume   146.24389516
_cell_formula_units_Z   1
loop_
 _symmetry_equiv_pos_site_id
 _symmetry_equiv_pos_as_xyz
  1  'x, y, z'
loop_
 _atom_site_type_symbol
 _atom_site_label
 _atom_site_symmetry_multiplicity
 _atom_site_fract_x
 _atom_site_fract_y
 _atom_site_fract_z
 _atom_site_occupancy
  Cr  Cr0  1  0.66865900  0.21184000  0.01008800  1
  Fe  Fe0  1  0.20913300  0.74689500  0.77968400  1
  Fe  Fe1  1  0.42958600  0.68253500  0.21112000  1
  Se  Se0  1  0.36867800  0.07178500  0.19850400  1
  Se  Se1  1  0.97749800  0.63220200  0.32419900  1
  Se  Se2  1  0.19465400  0.35747300  0.79821600  1
  Se  Se3  1  0.65179100  0.79727000  0.67818800  1
loop_
_geom_bond_atom_site_label_1
_geom_bond_atom_site_label_2
_geom_bond_distance
_geom_bond_site_symmetry_2
Cr0 Se1 2.449374 1_555
Cr0 Se3 2.456805 1_544
Cr0 Se0 2.460286 1_555
Cr0 Se2 2.512625 1_554
Fe0 Se2 2.364552 1_555
Fe0 Se0 2.382900 1_566
Fe0 Se3 2.399967 1_555
Fe0 Se3 2.475474 1_455
Fe0 Se1 2.498357 1_455
Fe1 Se2 2.353668 1_554
Fe1 Se0 2.360167 1_565
Fe1 Se1 2.432122 1_555
Fe1 Se1 2.487377 1_455
Fe1 Se3 2.565464 1_555
