# generated using pymatgen
data_CsSbOF4
_symmetry_space_group_name_H-M   'P 1'
_cell_length_a   9.12856412
_cell_length_b   9.12856412
_cell_length_c   21.07829700
_cell_angle_alpha   90.00000000
_cell_angle_beta   90.00000000
_cell_angle_gamma   105.71340822
_symmetry_Int_Tables_number   1
_chemical_formula_structural   CsSbOF4
_chemical_formula_sum   'Cs12 Sb12 O12 F48'
_cell_volume   1690.82682326
_cell_formula_units_Z   12
loop_
 _symmetry_equiv_pos_site_id
 _symmetry_equiv_pos_as_xyz
  1  'x, y, z'
loop_
 _atom_site_type_symbol
 _atom_site_label
 _atom_site_symmetry_multiplicity
 _atom_site_fract_x
 _atom_site_fract_y
 _atom_site_fract_z
 _atom_site_occupancy
  Cs  Cs0  1  0.66932000  0.66932000  0.39173900  1
  Cs  Cs1  1  0.80692400  0.30692400  0.25000000  1
  Cs  Cs2  1  0.69711500  0.30288500  0.00000000  1
  Cs  Cs3  1  0.69307600  0.19307600  0.75000000  1
  Cs  Cs4  1  0.30692400  0.80692400  0.25000000  1
  Cs  Cs5  1  0.80288500  0.19711500  0.50000000  1
  Cs  Cs6  1  0.83068000  0.83068000  0.89173900  1
  Cs  Cs7  1  0.33068000  0.33068000  0.60826100  1
  Cs  Cs8  1  0.30288500  0.69711500  0.00000000  1
  Cs  Cs9  1  0.19307600  0.69307600  0.75000000  1
  Cs  Cs10  1  0.16932000  0.16932000  0.10826100  1
  Cs  Cs11  1  0.19711500  0.80288500  0.50000000  1
  Sb  Sb0  1  0.81635200  0.56959900  0.61602500  1
  Sb  Sb1  1  0.46899200  0.46899200  0.85174500  1
  Sb  Sb2  1  0.18364800  0.43040100  0.38397500  1
  Sb  Sb3  1  0.06959900  0.31635200  0.88397500  1
  Sb  Sb4  1  0.53100800  0.53100800  0.14825500  1
  Sb  Sb5  1  0.43040100  0.18364800  0.38397500  1
  Sb  Sb6  1  0.56959900  0.81635200  0.61602500  1
  Sb  Sb7  1  0.68364800  0.93040100  0.11602500  1
  Sb  Sb8  1  0.93040100  0.68364800  0.11602500  1
  Sb  Sb9  1  0.96899200  0.96899200  0.64825500  1
  Sb  Sb10  1  0.03100800  0.03100800  0.35174500  1
  Sb  Sb11  1  0.31635200  0.06959900  0.88397500  1
  O  O0  1  0.76606800  0.96967400  0.61855800  1
  O  O1  1  0.63064300  0.63064300  0.63456200  1
  O  O2  1  0.26606800  0.46967400  0.88144200  1
  O  O3  1  0.36935700  0.36935700  0.36543800  1
  O  O4  1  0.86935700  0.86935700  0.13456200  1
  O  O5  1  0.96967400  0.76606800  0.61855800  1
  O  O6  1  0.03032600  0.23393200  0.38144200  1
  O  O7  1  0.46967400  0.26606800  0.88144200  1
  O  O8  1  0.73393200  0.53032600  0.11855800  1
  O  O9  1  0.13064300  0.13064300  0.86543800  1
  O  O10  1  0.53032600  0.73393200  0.11855800  1
  O  O11  1  0.23393200  0.03032600  0.38144200  1
  F  F0  1  0.82238300  0.00516900  0.32538600  1
  F  F1  1  0.91877200  0.70965500  0.02444600  1
  F  F2  1  0.09887600  0.09887600  0.26647700  1
  F  F3  1  0.51605200  0.01601500  0.09507800  1
  F  F4  1  0.31332800  0.64043000  0.38668000  1
  F  F5  1  0.01605200  0.51601500  0.40492200  1
  F  F6  1  0.51601500  0.01605200  0.40492200  1
  F  F7  1  0.85004500  0.53150800  0.70454400  1
  F  F8  1  0.94580400  0.94580400  0.43318600  1
  F  F9  1  0.01601500  0.51605200  0.09507800  1
  F  F10  1  0.58122800  0.79034500  0.52444600  1
  F  F11  1  0.98398500  0.48394800  0.90492200  1
  F  F12  1  0.50516900  0.32238300  0.17461400  1
  F  F13  1  0.59887600  0.59887600  0.23352300  1
  F  F14  1  0.55419600  0.55419600  0.93318600  1
  F  F15  1  0.53150800  0.85004500  0.70454400  1
  F  F16  1  0.35004500  0.03150800  0.79545600  1
  F  F17  1  0.44580400  0.44580400  0.06681400  1
  F  F18  1  0.96849200  0.64995500  0.20454400  1
  F  F19  1  0.17761700  0.99483100  0.67461400  1
  F  F20  1  0.70965500  0.91877200  0.02444600  1
  F  F21  1  0.18667200  0.85957000  0.88668000  1
  F  F22  1  0.14043000  0.81332800  0.11332000  1
  F  F23  1  0.79034500  0.58122800  0.52444600  1
  F  F24  1  0.98394800  0.48398500  0.59507800  1
  F  F25  1  0.99483100  0.17761700  0.67461400  1
  F  F26  1  0.64043000  0.31332800  0.38668000  1
  F  F27  1  0.49483100  0.67761700  0.82538600  1
  F  F28  1  0.40112400  0.40112400  0.76647700  1
  F  F29  1  0.08122800  0.29034500  0.97555400  1
  F  F30  1  0.64995500  0.96849200  0.20454400  1
  F  F31  1  0.46849200  0.14995500  0.29545600  1
  F  F32  1  0.35957000  0.68667200  0.61332000  1
  F  F33  1  0.14995500  0.46849200  0.29545600  1
  F  F34  1  0.81332800  0.14043000  0.11332000  1
  F  F35  1  0.29034500  0.08122800  0.97555400  1
  F  F36  1  0.20965500  0.41877200  0.47555400  1
  F  F37  1  0.00516900  0.82238300  0.32538600  1
  F  F38  1  0.85957000  0.18667200  0.88668000  1
  F  F39  1  0.48394800  0.98398500  0.90492200  1
  F  F40  1  0.48398500  0.98394800  0.59507800  1
  F  F41  1  0.41877200  0.20965500  0.47555400  1
  F  F42  1  0.90112400  0.90112400  0.73352300  1
  F  F43  1  0.32238300  0.50516900  0.17461400  1
  F  F44  1  0.03150800  0.35004500  0.79545600  1
  F  F45  1  0.67761700  0.49483100  0.82538600  1
  F  F46  1  0.05419600  0.05419600  0.56681400  1
  F  F47  1  0.68667200  0.35957000  0.61332000  1
loop_
_geom_bond_atom_site_label_1
_geom_bond_atom_site_label_2
_geom_bond_distance
_geom_bond_site_symmetry_2
Cs0 F8 3.170652 1_555
Cs0 F10 3.189508 1_555
Cs0 F23 3.189508 1_555
Cs0 F26 3.190178 1_555
Cs0 F4 3.190178 1_555
Cs0 F37 3.314721 1_655
Cs0 F0 3.314721 1_565
Cs0 O3 3.352895 1_555
Cs0 F13 3.424145 1_555
Cs1 F31 3.180853 1_555
Cs1 F30 3.180853 1_545
Cs1 F12 3.216082 1_555
Cs1 F0 3.216082 1_555
Cs1 F18 3.224480 1_555
Cs1 F33 3.224480 1_655
Cs1 F34 3.265202 1_555
Cs1 F26 3.265202 1_555
Cs2 F38 3.143592 1_554
Cs2 F34 3.143592 1_555
Cs2 O8 3.207904 1_555
Cs2 O7 3.207904 1_554
Cs2 F17 3.251088 1_555
Cs2 F14 3.251088 1_554
Cs2 F11 3.355808 1_554
Cs2 F3 3.355808 1_555
Cs3 F7 3.180853 1_555
Cs3 F44 3.180853 1_655
Cs3 F25 3.216082 1_555
Cs3 F45 3.216082 1_555
Cs3 F15 3.224480 1_545
Cs3 F16 3.224480 1_555
Cs3 F38 3.265202 1_555
Cs3 F47 3.265202 1_555
Cs4 F18 3.180853 1_455
Cs4 F33 3.180853 1_555
Cs4 F43 3.216082 1_555
Cs4 F37 3.216082 1_555
Cs4 F30 3.224480 1_555
Cs4 F31 3.224480 1_565
Cs4 F4 3.265202 1_555
Cs4 F22 3.265202 1_555
Cs5 F26 3.143592 1_555
Cs5 F47 3.143592 1_555
Cs5 O6 3.207904 1_655
Cs5 O0 3.207904 1_545
Cs5 F46 3.251088 1_655
Cs5 F8 3.251088 1_545
Cs5 F6 3.355808 1_555
Cs5 F24 3.355808 1_555
Cs6 F14 3.170652 1_555
Cs6 F20 3.189508 1_556
Cs6 F1 3.189508 1_556
Cs6 F38 3.190178 1_565
Cs6 F21 3.190178 1_655
Cs6 F27 3.314721 1_555
Cs6 F45 3.314721 1_555
Cs6 O9 3.352895 1_665
Cs6 F42 3.424145 1_555
Cs7 F46 3.170652 1_555
Cs7 F41 3.189508 1_555
Cs7 F36 3.189508 1_555
Cs7 F47 3.190178 1_555
Cs7 F32 3.190178 1_555
Cs7 F19 3.314721 1_545
Cs7 F25 3.314721 1_455
Cs7 O1 3.352895 1_555
Cs7 F28 3.424145 1_555
Cs8 F21 3.143592 1_554
Cs8 F22 3.143592 1_555
Cs8 O10 3.207904 1_555
Cs8 O2 3.207904 1_554
Cs8 F17 3.251088 1_555
Cs8 F14 3.251088 1_554
Cs8 F39 3.355808 1_554
Cs8 F9 3.355808 1_555
Cs9 F15 3.180853 1_555
Cs9 F16 3.180853 1_565
Cs9 F27 3.216082 1_555
Cs9 F19 3.216082 1_555
Cs9 F7 3.224480 1_455
Cs9 F44 3.224480 1_555
Cs9 F21 3.265202 1_555
Cs9 F32 3.265202 1_555
Cs10 F17 3.170652 1_555
Cs10 F29 3.189508 1_554
Cs10 F35 3.189508 1_554
Cs10 F34 3.190178 1_455
Cs10 F22 3.190178 1_545
Cs10 F43 3.314721 1_555
Cs10 F12 3.314721 1_555
Cs10 O4 3.352895 1_445
Cs10 F2 3.424145 1_555
Cs11 F4 3.143592 1_555
Cs11 F32 3.143592 1_555
Cs11 O5 3.207904 1_455
Cs11 O11 3.207904 1_565
Cs11 F46 3.251088 1_565
Cs11 F8 3.251088 1_455
Cs11 F5 3.355808 1_555
Cs11 F40 3.355808 1_555
O0 Sb6 1.954147 1_555
O0 Sb9 1.956915 1_555
O1 Sb6 1.961827 1_555
O1 Sb0 1.961827 1_555
O2 Sb3 1.954147 1_555
O2 Sb1 1.956915 1_555
O3 Sb5 1.961827 1_555
O3 Sb2 1.961827 1_555
O4 Sb8 1.961827 1_555
O4 Sb7 1.961827 1_555
O5 Sb0 1.954147 1_555
O5 Sb9 1.956915 1_555
O6 Sb2 1.954147 1_555
O6 Sb10 1.956915 1_555
O7 Sb11 1.954147 1_555
O7 Sb1 1.956915 1_555
O8 Sb8 1.954147 1_555
O8 Sb4 1.956915 1_555
O9 Sb11 1.961827 1_555
O9 Sb3 1.961827 1_555
O10 Sb7 1.954147 1_555
O10 Sb4 1.956915 1_555
O11 Sb5 1.954147 1_555
O11 Sb10 1.956915 1_555
F0 Sb10 1.935958 1_655
F1 Sb8 1.951270 1_555
F2 Sb10 1.946806 1_555
F3 Sb7 1.947821 1_545
F4 Sb2 1.962437 1_555
F5 Sb2 1.947821 1_555
F6 Sb5 1.947821 1_555
F7 Sb0 1.937719 1_555
F8 Sb10 1.956804 1_665
F9 Sb8 1.947821 1_455
F10 Sb6 1.951270 1_555
F11 Sb3 1.947821 1_655
F12 Sb4 1.935958 1_555
F13 Sb4 1.946806 1_555
F14 Sb1 1.956804 1_555
F15 Sb6 1.937719 1_555
F16 Sb11 1.937719 1_555
F17 Sb4 1.956804 1_555
F18 Sb8 1.937719 1_555
F19 Sb9 1.935958 1_455
F20 Sb7 1.951270 1_555
F21 Sb11 1.962437 1_565
F22 Sb8 1.962437 1_455
F23 Sb0 1.951270 1_555
F24 Sb0 1.947821 1_555
F25 Sb9 1.935958 1_545
F26 Sb5 1.962437 1_555
F27 Sb1 1.935958 1_555
F28 Sb1 1.946806 1_555
F29 Sb3 1.951270 1_555
F30 Sb7 1.937719 1_555
F31 Sb5 1.937719 1_555
F32 Sb6 1.962437 1_555
F33 Sb2 1.937719 1_555
F34 Sb7 1.962437 1_545
F35 Sb11 1.951270 1_555
F36 Sb2 1.951270 1_555
F37 Sb10 1.935958 1_565
F38 Sb3 1.962437 1_655
F39 Sb11 1.947821 1_565
F40 Sb6 1.947821 1_555
F41 Sb5 1.951270 1_555
F42 Sb9 1.946806 1_555
F43 Sb4 1.935958 1_555
F44 Sb3 1.937719 1_555
F45 Sb1 1.935958 1_555
F46 Sb9 1.956804 1_445
F47 Sb0 1.962437 1_555
