# generated using pymatgen
data_CaMgB2O5
_symmetry_space_group_name_H-M   'P 1'
_cell_length_a   11.21884300
_cell_length_b   5.57114000
_cell_length_c   12.40379816
_cell_angle_alpha   78.26349421
_cell_angle_beta   90.00000000
_cell_angle_gamma   90.00000000
_symmetry_Int_Tables_number   1
_chemical_formula_structural   CaMgB2O5
_chemical_formula_sum   'Ca8 Mg8 B16 O40'
_cell_volume   759.05100450
_cell_formula_units_Z   8
loop_
 _symmetry_equiv_pos_site_id
 _symmetry_equiv_pos_as_xyz
  1  'x, y, z'
loop_
 _atom_site_type_symbol
 _atom_site_label
 _atom_site_symmetry_multiplicity
 _atom_site_fract_x
 _atom_site_fract_y
 _atom_site_fract_z
 _atom_site_occupancy
  Ca  Ca0  1  0.61942100  0.37050000  0.59205700  1
  Ca  Ca1  1  0.11942100  0.12950000  0.40794300  1
  Ca  Ca2  1  0.38057900  0.62950000  0.40794300  1
  Ca  Ca3  1  0.88057900  0.87050000  0.59205700  1
  Ca  Ca4  1  0.37230600  0.65160800  0.91099400  1
  Ca  Ca5  1  0.87230600  0.84839200  0.08900600  1
  Ca  Ca6  1  0.62769400  0.34839200  0.08900600  1
  Ca  Ca7  1  0.12769400  0.15160800  0.91099400  1
  Mg  Mg0  1  0.37296900  0.25527000  0.73648500  1
  Mg  Mg1  1  0.87296900  0.24473000  0.26351500  1
  Mg  Mg2  1  0.62703100  0.74473000  0.26351500  1
  Mg  Mg3  1  0.12703100  0.75527000  0.73648500  1
  Mg  Mg4  1  0.62729800  0.74814600  0.76221300  1
  Mg  Mg5  1  0.12729800  0.75185400  0.23778700  1
  Mg  Mg6  1  0.37270200  0.25185400  0.23778700  1
  Mg  Mg7  1  0.87270200  0.24814600  0.76221300  1
  B  B0  1  0.61944500  0.85265900  0.98857100  1
  B  B1  1  0.37585700  0.12854900  0.50941300  1
  B  B2  1  0.87585700  0.37145100  0.49058700  1
  B  B3  1  0.62414300  0.87145100  0.49058700  1
  B  B4  1  0.12414300  0.62854900  0.50941300  1
  B  B5  1  0.11944500  0.64734100  0.01142900  1
  B  B6  1  0.38055500  0.14734100  0.01142900  1
  B  B7  1  0.88055500  0.35265900  0.98857100  1
  B  B8  1  0.38237800  0.79188900  0.67355100  1
  B  B9  1  0.88237800  0.70811100  0.32644900  1
  B  B10  1  0.61762200  0.20811100  0.32644900  1
  B  B11  1  0.11762200  0.29188900  0.67355100  1
  B  B12  1  0.62537400  0.20168000  0.82564600  1
  B  B13  1  0.12537400  0.29832000  0.17435400  1
  B  B14  1  0.37462600  0.79832000  0.17435400  1
  B  B15  1  0.87462600  0.70168000  0.82564600  1
  O  O0  1  0.66881100  0.81242900  0.59511700  1
  O  O1  1  0.41909300  0.31372700  0.07033100  1
  O  O2  1  0.08090700  0.81372700  0.07033100  1
  O  O3  1  0.58090700  0.68627300  0.92966900  1
  O  O4  1  0.09275300  0.80326000  0.56716300  1
  O  O5  1  0.59275300  0.69674000  0.43283700  1
  O  O6  1  0.90724700  0.19674000  0.43283700  1
  O  O7  1  0.40724700  0.30326000  0.56716300  1
  O  O8  1  0.15793300  0.71645400  0.90493900  1
  O  O9  1  0.65793300  0.78354600  0.09506100  1
  O  O10  1  0.84206700  0.28354600  0.09506100  1
  O  O11  1  0.91909300  0.18627300  0.92966900  1
  O  O12  1  0.34206700  0.21645400  0.90493900  1
  O  O13  1  0.83118900  0.31242900  0.59511700  1
  O  O14  1  0.33118900  0.18757100  0.40488300  1
  O  O15  1  0.16881100  0.68757100  0.40488300  1
  O  O16  1  0.80204100  0.89407900  0.78158600  1
  O  O17  1  0.30204100  0.60592100  0.21841400  1
  O  O18  1  0.19795900  0.10592100  0.21841400  1
  O  O19  1  0.69795900  0.39407900  0.78158600  1
  O  O20  1  0.19580200  0.40501100  0.73236200  1
  O  O21  1  0.69580200  0.09498900  0.26763800  1
  O  O22  1  0.80419800  0.59498900  0.26763800  1
  O  O23  1  0.30419800  0.90501100  0.73236200  1
  O  O24  1  0.94913800  0.59905500  0.75952700  1
  O  O25  1  0.44913800  0.90094500  0.24047300  1
  O  O26  1  0.05086200  0.40094500  0.24047300  1
  O  O27  1  0.55086200  0.09905500  0.75952700  1
  O  O28  1  0.04564000  0.10403600  0.72595900  1
  O  O29  1  0.54564000  0.39596400  0.27404100  1
  O  O30  1  0.95436000  0.89596400  0.27404100  1
  O  O31  1  0.45436000  0.60403600  0.72595900  1
  O  O32  1  0.87039000  0.60794900  0.94152200  1
  O  O33  1  0.37039000  0.89205100  0.05847800  1
  O  O34  1  0.12961000  0.39205100  0.05847800  1
  O  O35  1  0.62961000  0.10794900  0.94152200  1
  O  O36  1  0.11180400  0.37356500  0.55762600  1
  O  O37  1  0.61180400  0.12643500  0.44237400  1
  O  O38  1  0.38819600  0.87356500  0.55762600  1
  O  O39  1  0.88819600  0.62643500  0.44237400  1
loop_
_geom_bond_atom_site_label_1
_geom_bond_atom_site_label_2
_geom_bond_distance
_geom_bond_site_symmetry_2
Ca0 O13 2.396977 1_555
Ca0 O5 2.415159 1_555
Ca0 O27 2.432195 1_555
Ca0 O7 2.439012 1_555
Ca0 O37 2.516003 1_555
Ca0 O0 2.531435 1_555
Ca0 O19 2.538872 1_555
Ca1 O14 2.396977 1_555
Ca1 O4 2.415159 1_545
Ca1 O26 2.432195 1_555
Ca1 O6 2.439012 1_455
Ca1 O36 2.516003 1_555
Ca1 O15 2.531435 1_545
Ca1 O18 2.538872 1_555
Ca2 O15 2.396977 1_555
Ca2 O7 2.415159 1_555
Ca2 O25 2.432195 1_555
Ca2 O5 2.439012 1_555
Ca2 O38 2.516003 1_555
Ca2 O14 2.531435 1_555
Ca2 O17 2.538872 1_555
Ca3 O0 2.396977 1_555
Ca3 O6 2.415159 1_565
Ca3 O24 2.432195 1_555
Ca3 O4 2.439012 1_655
Ca3 O39 2.516003 1_555
Ca3 O13 2.531435 1_565
Ca3 O16 2.538872 1_555
Ca4 O3 2.363468 1_555
Ca4 O8 2.430889 1_555
Ca4 O12 2.464153 1_555
Ca4 O33 2.477563 1_556
Ca4 O1 2.492282 1_556
Ca4 O23 2.492730 1_555
Ca4 O31 2.536291 1_555
Ca5 O2 2.363468 1_655
Ca5 O9 2.430889 1_555
Ca5 O10 2.464153 1_565
Ca5 O32 2.477563 1_554
Ca5 O11 2.492282 1_564
Ca5 O22 2.492730 1_555
Ca5 O30 2.536291 1_555
Ca6 O1 2.363468 1_555
Ca6 O10 2.430889 1_555
Ca6 O9 2.464153 1_555
Ca6 O35 2.477563 1_554
Ca6 O3 2.492282 1_554
Ca6 O21 2.492730 1_555
Ca6 O29 2.536291 1_555
Ca7 O11 2.363468 1_455
Ca7 O12 2.430889 1_555
Ca7 O8 2.464153 1_545
Ca7 O34 2.477563 1_556
Ca7 O2 2.492282 1_546
Ca7 O20 2.492730 1_555
Ca7 O28 2.536291 1_555
Mg0 O12 2.085429 1_555
Mg0 O7 2.098075 1_555
Mg0 O23 2.108604 1_545
Mg0 O31 2.126725 1_555
Mg0 O20 2.152158 1_555
Mg0 O27 2.172773 1_555
Mg1 O10 2.085429 1_555
Mg1 O6 2.098075 1_555
Mg1 O22 2.108604 1_555
Mg1 O30 2.126725 1_545
Mg1 O21 2.152158 1_555
Mg1 O26 2.172773 1_655
Mg2 O9 2.085429 1_555
Mg2 O5 2.098075 1_555
Mg2 O21 2.108604 1_565
Mg2 O29 2.126725 1_555
Mg2 O22 2.152158 1_555
Mg2 O25 2.172773 1_555
Mg3 O8 2.085429 1_555
Mg3 O4 2.098075 1_555
Mg3 O20 2.108604 1_555
Mg3 O28 2.126725 1_565
Mg3 O23 2.152158 1_555
Mg3 O24 2.172773 1_455
Mg4 O0 2.083018 1_555
Mg4 O19 2.093876 1_555
Mg4 O3 2.100648 1_555
Mg4 O27 2.128812 1_565
Mg4 O16 2.154400 1_555
Mg4 O31 2.181264 1_555
Mg5 O15 2.083018 1_555
Mg5 O18 2.093876 1_565
Mg5 O2 2.100648 1_555
Mg5 O26 2.128812 1_555
Mg5 O17 2.154400 1_555
Mg5 O30 2.181264 1_455
Mg6 O14 2.083018 1_555
Mg6 O17 2.093876 1_555
Mg6 O1 2.100648 1_555
Mg6 O25 2.128812 1_545
Mg6 O18 2.154400 1_555
Mg6 O29 2.181264 1_555
Mg7 O13 2.083018 1_555
Mg7 O16 2.093876 1_545
Mg7 O11 2.100648 1_555
Mg7 O24 2.128812 1_555
Mg7 O19 2.154400 1_555
Mg7 O28 2.181264 1_655
B0 O3 1.362163 1_555
B0 O9 1.368400 1_556
B0 O35 1.427839 1_565
B1 O14 1.366344 1_555
B1 O7 1.366808 1_555
B1 O38 1.431488 1_545
B2 O13 1.366344 1_555
B2 O6 1.366808 1_555
B2 O39 1.431488 1_555
B3 O0 1.366344 1_555
B3 O5 1.366808 1_555
B3 O37 1.431488 1_565
B4 O15 1.366344 1_555
B4 O4 1.366808 1_555
B4 O36 1.431488 1_555
B5 O2 1.362163 1_555
B5 O8 1.368400 1_554
B5 O34 1.427839 1_555
B6 O1 1.362163 1_555
B6 O12 1.368400 1_554
B6 O33 1.427839 1_545
B7 O11 1.362163 1_555
B7 O10 1.368400 1_556
B7 O32 1.427839 1_555
B8 O23 1.373183 1_555
B8 O31 1.375946 1_555
B8 O38 1.418703 1_555
B9 O22 1.373183 1_555
B9 O30 1.375946 1_555
B9 O39 1.418703 1_555
B10 O21 1.373183 1_555
B10 O29 1.375946 1_555
B10 O37 1.418703 1_555
B11 O20 1.373183 1_555
B11 O28 1.375946 1_555
B11 O36 1.418703 1_555
B12 O19 1.368359 1_555
B12 O27 1.374425 1_555
B12 O35 1.426689 1_555
B13 O18 1.368359 1_555
B13 O26 1.374425 1_555
B13 O34 1.426689 1_555
B14 O17 1.368359 1_555
B14 O25 1.374425 1_555
B14 O33 1.426689 1_555
B15 O16 1.368359 1_555
B15 O24 1.374425 1_555
B15 O32 1.426689 1_555
