# generated using pymatgen
data_MgH8(NF2)2
_symmetry_space_group_name_H-M   'P 1'
_cell_length_a   5.77036400
_cell_length_b   5.88588700
_cell_length_c   13.84430012
_cell_angle_alpha   88.69114219
_cell_angle_beta   90.00000000
_cell_angle_gamma   90.00000000
_symmetry_Int_Tables_number   1
_chemical_formula_structural   MgH8(NF2)2
_chemical_formula_sum   'Mg4 H32 N8 F16'
_cell_volume   470.08111970
_cell_formula_units_Z   4
loop_
 _symmetry_equiv_pos_site_id
 _symmetry_equiv_pos_as_xyz
  1  'x, y, z'
loop_
 _atom_site_type_symbol
 _atom_site_label
 _atom_site_symmetry_multiplicity
 _atom_site_fract_x
 _atom_site_fract_y
 _atom_site_fract_z
 _atom_site_occupancy
  Mg  Mg0  1  0.50000000  0.00000000  0.50000000  1
  Mg  Mg1  1  0.00000000  0.00000000  0.00000000  1
  Mg  Mg2  1  0.00000000  0.50000000  0.50000000  1
  Mg  Mg3  1  0.50000000  0.50000000  0.00000000  1
  H  H0  1  0.56368400  0.35357200  0.62961000  1
  H  H1  1  0.06368400  0.64642800  0.87039000  1
  H  H2  1  0.43631600  0.64642800  0.37039000  1
  H  H3  1  0.93631600  0.35357200  0.12961000  1
  H  H4  1  0.31439900  0.49548000  0.64308300  1
  H  H5  1  0.81439900  0.50452000  0.85691700  1
  H  H6  1  0.68560100  0.50452000  0.35691700  1
  H  H7  1  0.18560100  0.49548000  0.14308300  1
  H  H8  1  0.51008300  0.49901500  0.73442600  1
  H  H9  1  0.01008300  0.50098500  0.76557400  1
  H  H10  1  0.48991700  0.50098500  0.26557400  1
  H  H11  1  0.98991700  0.49901500  0.23442600  1
  H  H12  1  0.56762700  0.63537100  0.62549500  1
  H  H13  1  0.06762700  0.36462900  0.87450500  1
  H  H14  1  0.43237300  0.36462900  0.37450500  1
  H  H15  1  0.93237300  0.63537100  0.12549500  1
  H  H16  1  0.98607300  0.98921100  0.73482800  1
  H  H17  1  0.48607300  0.01078900  0.76517200  1
  H  H18  1  0.01392700  0.01078900  0.26517200  1
  H  H19  1  0.51392700  0.98921100  0.23482800  1
  H  H20  1  0.96368600  0.82225200  0.63590700  1
  H  H21  1  0.46368600  0.17774800  0.86409300  1
  H  H22  1  0.03631400  0.17774800  0.36409300  1
  H  H23  1  0.53631400  0.82225200  0.13590700  1
  H  H24  1  0.19150300  0.99669100  0.64654700  1
  H  H25  1  0.69150300  0.00330900  0.85345300  1
  H  H26  1  0.80849700  0.00330900  0.35345300  1
  H  H27  1  0.30849700  0.99669100  0.14654700  1
  H  H28  1  0.92390200  0.10133500  0.62090500  1
  H  H29  1  0.42390200  0.89866500  0.87909500  1
  H  H30  1  0.07609800  0.89866500  0.37909500  1
  H  H31  1  0.57609800  0.10133500  0.12090500  1
  N  N0  1  0.49111100  0.49580500  0.65909700  1
  N  N1  1  0.99111100  0.50419500  0.84090300  1
  N  N2  1  0.50888900  0.50419500  0.34090300  1
  N  N3  1  0.00888900  0.49580500  0.15909700  1
  N  N4  1  0.01344100  0.97906000  0.66022800  1
  N  N5  1  0.51344100  0.02094000  0.83977200  1
  N  N6  1  0.98655900  0.02094000  0.33977200  1
  N  N7  1  0.48655900  0.97906000  0.16022800  1
  F  F0  1  0.47680600  0.00000000  0.64330800  1
  F  F1  1  0.97680600  0.00000000  0.85669200  1
  F  F2  1  0.52319400  0.00000000  0.35669200  1
  F  F3  1  0.02319400  0.00000000  0.14330800  1
  F  F4  1  0.02050600  0.49430200  0.64560500  1
  F  F5  1  0.52050600  0.50569800  0.85439500  1
  F  F6  1  0.97949400  0.50569800  0.35439500  1
  F  F7  1  0.47949400  0.49430200  0.14560500  1
  F  F8  1  0.24240000  0.75630300  0.48629800  1
  F  F9  1  0.74240000  0.24369700  0.01370200  1
  F  F10  1  0.75760000  0.24369700  0.51370200  1
  F  F11  1  0.25760000  0.75630300  0.98629800  1
  F  F12  1  0.25724000  0.25855200  0.48936900  1
  F  F13  1  0.75724000  0.74144800  0.01063100  1
  F  F14  1  0.74276000  0.74144800  0.51063100  1
  F  F15  1  0.24276000  0.25855200  0.98936900  1
loop_
_geom_bond_atom_site_label_1
_geom_bond_atom_site_label_2
_geom_bond_distance
_geom_bond_site_symmetry_2
H0 N0 1.028825 1_555
H1 N1 1.028825 1_455
H2 N2 1.028825 1_555
H3 N3 1.028825 1_655
H4 N0 1.043527 1_555
H5 N1 1.043527 1_555
H6 N2 1.043527 1_555
H7 N3 1.043527 1_555
H8 N0 1.049207 1_555
H9 N1 1.049207 1_455
H10 N2 1.049207 1_555
H11 N3 1.049207 1_655
H12 N0 1.033783 1_555
H13 N1 1.033783 1_455
H14 N2 1.033783 1_555
H15 N3 1.033783 1_655
H16 N4 1.047842 1_655
H17 N5 1.047842 1_555
H18 N6 1.047842 1_455
H19 N7 1.047842 1_555
H20 N4 1.030457 1_655
H21 N5 1.030457 1_555
H22 N6 1.030457 1_455
H23 N7 1.030457 1_555
H24 N4 1.049507 1_555
H25 N5 1.049507 1_555
H26 N6 1.049507 1_555
H27 N7 1.049507 1_555
H28 N4 1.031206 1_645
H29 N5 1.031206 1_565
H30 N6 1.031206 1_465
H31 N7 1.031206 1_545
F0 H24 1.647016 1_545
F0 H17 1.690611 1_555
F0 Mg0 1.988508 1_555
F1 H25 1.647016 1_555
F1 H16 1.690611 1_545
F1 Mg1 1.988508 1_656
F2 H26 1.647016 1_555
F2 H19 1.690611 1_545
F2 Mg0 1.988508 1_555
F3 H27 1.647016 1_545
F3 H18 1.690611 1_555
F3 Mg1 1.988508 1_555
F4 Mg2 2.018783 1_555
F5 Mg3 2.018783 1_556
F6 Mg2 2.018783 1_655
F7 Mg3 2.018783 1_555
F8 Mg2 2.062804 1_555
F8 Mg0 2.077345 1_565
F9 Mg3 2.062804 1_555
F9 Mg1 2.077345 1_655
F10 Mg2 2.062804 1_655
F10 Mg0 2.077345 1_555
F11 Mg3 2.062804 1_556
F11 Mg1 2.077345 1_566
F12 Mg2 2.062570 1_555
F12 Mg0 2.071137 1_555
F13 Mg3 2.062570 1_555
F13 Mg1 2.071137 1_665
F14 Mg2 2.062570 1_655
F14 Mg0 2.071137 1_565
F15 Mg3 2.062570 1_556
F15 Mg1 2.071137 1_556
