# generated using pymatgen
data_CaSi2(BO4)2
_symmetry_space_group_name_H-M   'P 1'
_cell_length_a   7.80844700
_cell_length_b   8.15174200
_cell_length_c   8.86151700
_cell_angle_alpha   90.00000000
_cell_angle_beta   90.00000000
_cell_angle_gamma   90.00000000
_symmetry_Int_Tables_number   1
_chemical_formula_structural   CaSi2(BO4)2
_chemical_formula_sum   'Ca4 Si8 B8 O32'
_cell_volume   564.05722669
_cell_formula_units_Z   4
loop_
 _symmetry_equiv_pos_site_id
 _symmetry_equiv_pos_as_xyz
  1  'x, y, z'
loop_
 _atom_site_type_symbol
 _atom_site_label
 _atom_site_symmetry_multiplicity
 _atom_site_fract_x
 _atom_site_fract_y
 _atom_site_fract_z
 _atom_site_occupancy
  Ca  Ca0  1  0.25000000  0.11196300  0.57611700  1
  Ca  Ca1  1  0.75000000  0.88803700  0.42388300  1
  Ca  Ca2  1  0.25000000  0.61196300  0.92388300  1
  Ca  Ca3  1  0.75000000  0.38803700  0.07611700  1
  Si  Si0  1  0.05520900  0.55476200  0.30798800  1
  Si  Si1  1  0.55520900  0.44523800  0.69201200  1
  Si  Si2  1  0.44479100  0.05476200  0.19201200  1
  Si  Si3  1  0.94479100  0.94523800  0.80798800  1
  Si  Si4  1  0.94479100  0.44523800  0.69201200  1
  Si  Si5  1  0.44479100  0.55476200  0.30798800  1
  Si  Si6  1  0.55520900  0.94523800  0.80798800  1
  Si  Si7  1  0.05520900  0.05476200  0.19201200  1
  B  B0  1  0.57948600  0.26009800  0.41829700  1
  B  B1  1  0.57948600  0.76009800  0.08170300  1
  B  B2  1  0.07948600  0.23990200  0.91829700  1
  B  B3  1  0.92051400  0.26009800  0.41829700  1
  B  B4  1  0.42051400  0.73990200  0.58170300  1
  B  B5  1  0.07948600  0.73990200  0.58170300  1
  B  B6  1  0.92051400  0.76009800  0.08170300  1
  B  B7  1  0.42051400  0.23990200  0.91829700  1
  O  O0  1  0.25000000  0.31397800  0.92744400  1
  O  O1  1  0.75000000  0.18602200  0.42744400  1
  O  O2  1  0.25000000  0.81397800  0.57255600  1
  O  O3  1  0.75000000  0.68602200  0.07255600  1
  O  O4  1  0.25000000  0.98868800  0.16499300  1
  O  O5  1  0.75000000  0.01131200  0.83500700  1
  O  O6  1  0.25000000  0.48868800  0.33500700  1
  O  O7  1  0.75000000  0.51131200  0.66499300  1
  O  O8  1  0.92218600  0.90024400  0.18684600  1
  O  O9  1  0.42218600  0.09975600  0.81315400  1
  O  O10  1  0.57781400  0.40024400  0.31315400  1
  O  O11  1  0.07781400  0.59975600  0.68684600  1
  O  O12  1  0.00271200  0.19305400  0.06651600  1
  O  O13  1  0.50271200  0.80694600  0.93348400  1
  O  O14  1  0.49728800  0.69305400  0.43348400  1
  O  O15  1  0.99728800  0.30694600  0.56651600  1
  O  O16  1  0.99728800  0.80694600  0.93348400  1
  O  O17  1  0.49728800  0.19305400  0.06651600  1
  O  O18  1  0.50271200  0.30694600  0.56651600  1
  O  O19  1  0.00271200  0.69305400  0.43348400  1
  O  O20  1  0.04116300  0.12803900  0.36432200  1
  O  O21  1  0.54116300  0.87196100  0.63567800  1
  O  O22  1  0.45883700  0.62803900  0.13567800  1
  O  O23  1  0.95883700  0.37196100  0.86432200  1
  O  O24  1  0.95883700  0.87196100  0.63567800  1
  O  O25  1  0.45883700  0.12803900  0.36432200  1
  O  O26  1  0.54116300  0.37196100  0.86432200  1
  O  O27  1  0.04116300  0.62803900  0.13567800  1
  O  O28  1  0.92218600  0.40024400  0.31315400  1
  O  O29  1  0.42218600  0.59975600  0.68684600  1
  O  O30  1  0.57781400  0.90024400  0.18684600  1
  O  O31  1  0.07781400  0.09975600  0.81315400  1
loop_
_geom_bond_atom_site_label_1
_geom_bond_atom_site_label_2
_geom_bond_distance
_geom_bond_site_symmetry_2
Ca0 O2 2.429302 1_545
Ca0 O25 2.489740 1_555
Ca0 O20 2.489740 1_555
Ca0 O9 2.495942 1_555
Ca0 O31 2.495942 1_555
Ca0 O18 2.535244 1_555
Ca0 O15 2.535244 1_455
Ca1 O1 2.429302 1_565
Ca1 O24 2.489740 1_555
Ca1 O21 2.489740 1_555
Ca1 O30 2.495942 1_555
Ca1 O8 2.495942 1_555
Ca1 O14 2.535244 1_555
Ca1 O19 2.535244 1_655
Ca2 O0 2.429302 1_555
Ca2 O27 2.489740 1_556
Ca2 O22 2.489740 1_556
Ca2 O11 2.495942 1_555
Ca2 O29 2.495942 1_555
Ca2 O16 2.535244 1_455
Ca2 O13 2.535244 1_555
Ca3 O3 2.429302 1_555
Ca3 O23 2.489740 1_554
Ca3 O26 2.489740 1_554
Ca3 O28 2.495942 1_555
Ca3 O10 2.495942 1_555
Ca3 O17 2.535244 1_555
Ca3 O12 2.535244 1_655
B0 O1 1.464227 1_555
B0 O10 1.474259 1_555
B0 O18 1.493440 1_555
B0 O25 1.508365 1_555
B1 O3 1.464227 1_555
B1 O30 1.474259 1_555
B1 O13 1.493440 1_554
B1 O22 1.508365 1_555
B2 O0 1.464227 1_555
B2 O31 1.474259 1_555
B2 O12 1.493440 1_556
B2 O23 1.508365 1_455
B3 O1 1.464227 1_555
B3 O28 1.474259 1_555
B3 O15 1.493440 1_555
B3 O20 1.508365 1_655
B4 O2 1.464227 1_555
B4 O29 1.474259 1_555
B4 O14 1.493440 1_555
B4 O21 1.508365 1_555
B5 O2 1.464227 1_555
B5 O11 1.474259 1_555
B5 O19 1.493440 1_555
B5 O24 1.508365 1_455
B6 O3 1.464227 1_555
B6 O8 1.474259 1_555
B6 O16 1.493440 1_554
B6 O27 1.508365 1_655
B7 O0 1.464227 1_555
B7 O9 1.474259 1_555
B7 O17 1.493440 1_556
B7 O26 1.508365 1_555
O4 Si7 1.631234 1_565
O4 Si2 1.631234 1_565
O5 Si3 1.631234 1_545
O5 Si6 1.631234 1_545
O6 Si0 1.631234 1_555
O6 Si5 1.631234 1_555
O7 Si4 1.631234 1_555
O7 Si1 1.631234 1_555
O8 Si7 1.633269 1_665
O9 Si6 1.633269 1_545
O10 Si5 1.633269 1_555
O11 Si4 1.633269 1_455
O12 Si7 1.635732 1_555
O13 Si6 1.635732 1_555
O14 Si5 1.635732 1_555
O15 Si4 1.635732 1_555
O16 Si3 1.635732 1_555
O17 Si2 1.635732 1_555
O18 Si1 1.635732 1_555
O19 Si0 1.635732 1_555
O20 Si7 1.643273 1_555
O21 Si6 1.643273 1_555
O22 Si5 1.643273 1_555
O23 Si4 1.643273 1_555
O24 Si3 1.643273 1_555
O25 Si2 1.643273 1_555
O26 Si1 1.643273 1_555
O27 Si0 1.643273 1_555
O28 Si0 1.633269 1_655
O29 Si1 1.633269 1_555
O30 Si2 1.633269 1_565
O31 Si3 1.633269 1_445
