# generated using pymatgen
data_Ba3MgNb2O9
_symmetry_space_group_name_H-M   'P 1'
_cell_length_a   5.86239835
_cell_length_b   5.86239835
_cell_length_c   7.19450200
_cell_angle_alpha   90.00000000
_cell_angle_beta   90.00000000
_cell_angle_gamma   120.00000396
_symmetry_Int_Tables_number   1
_chemical_formula_structural   Ba3MgNb2O9
_chemical_formula_sum   'Ba3 Mg1 Nb2 O9'
_cell_volume   214.13221183
_cell_formula_units_Z   1
loop_
 _symmetry_equiv_pos_site_id
 _symmetry_equiv_pos_as_xyz
  1  'x, y, z'
loop_
 _atom_site_type_symbol
 _atom_site_label
 _atom_site_symmetry_multiplicity
 _atom_site_fract_x
 _atom_site_fract_y
 _atom_site_fract_z
 _atom_site_occupancy
  Ba  Ba0  1  0.00000000  0.00000000  0.00000000  1
  Ba  Ba1  1  0.33333300  0.66666700  0.66800500  1
  Ba  Ba2  1  0.66666700  0.33333300  0.33199500  1
  Mg  Mg0  1  0.00000000  0.00000000  0.50000000  1
  Nb  Nb0  1  0.33333300  0.66666700  0.17929900  1
  Nb  Nb1  1  0.66666700  0.33333300  0.82070100  1
  O  O0  1  0.82871000  0.17129000  0.67379300  1
  O  O1  1  0.82871000  0.65742000  0.67379300  1
  O  O2  1  0.34258000  0.17129000  0.67379300  1
  O  O3  1  0.65742000  0.82871000  0.32620700  1
  O  O4  1  0.17129000  0.34258000  0.32620700  1
  O  O5  1  0.17129000  0.82871000  0.32620700  1
  O  O6  1  0.50000000  0.00000000  0.00000000  1
  O  O7  1  0.00000000  0.50000000  0.00000000  1
  O  O8  1  0.50000000  0.50000000  0.00000000  1
loop_
_geom_bond_atom_site_label_1
_geom_bond_atom_site_label_2
_geom_bond_distance
_geom_bond_site_symmetry_2
Ba0 O3 2.921130 1_445
Ba0 O2 2.921130 1_554
Ba0 O1 2.921130 1_444
Ba0 O4 2.921130 1_555
Ba0 O5 2.921130 1_545
Ba0 O0 2.921130 1_454
Ba0 O8 2.931199 1_555
Ba0 O8 2.931199 1_445
Ba0 O7 2.931199 1_555
Ba0 O7 2.931199 1_545
Ba0 O6 2.931199 1_455
Ba0 O6 2.931199 1_555
Ba1 O7 2.927300 1_556
Ba1 O6 2.927300 1_566
Ba1 O8 2.927303 1_556
Ba1 O2 2.931868 1_565
Ba1 O1 2.931868 1_455
Ba1 O0 2.931871 1_565
Ba1 O0 2.931871 1_455
Ba1 O1 2.931874 1_555
Ba1 O2 2.931874 1_555
Ba1 O5 2.958764 1_555
Ba1 O3 2.958767 1_555
Ba1 O4 2.958767 1_555
Ba2 O7 2.927300 1_655
Ba2 O6 2.927300 1_555
Ba2 O8 2.927303 1_555
Ba2 O4 2.931868 1_655
Ba2 O3 2.931868 1_545
Ba2 O5 2.931871 1_655
Ba2 O5 2.931871 1_545
Ba2 O3 2.931874 1_555
Ba2 O4 2.931874 1_555
Ba2 O0 2.958764 1_555
Ba2 O1 2.958767 1_555
Ba2 O2 2.958767 1_555
Mg0 O3 2.142069 1_445
Mg0 O4 2.142069 1_555
Mg0 O1 2.142069 1_445
Mg0 O2 2.142069 1_555
Mg0 O5 2.142069 1_545
Mg0 O0 2.142069 1_455
Nb0 O5 1.955601 1_555
Nb0 O3 1.955605 1_555
Nb0 O4 1.955605 1_555
Nb0 O6 2.127906 1_565
Nb0 O7 2.127906 1_555
Nb0 O8 2.127910 1_555
Nb1 O0 1.955601 1_555
Nb1 O1 1.955605 1_555
Nb1 O2 1.955605 1_555
Nb1 O6 2.127906 1_556
Nb1 O7 2.127906 1_656
Nb1 O8 2.127910 1_556
