# generated using pymatgen
data_H2SeO4
_symmetry_space_group_name_H-M   'P 1'
_cell_length_a   4.74622200
_cell_length_b   8.46231800
_cell_length_c   9.25393628
_cell_angle_alpha   89.50433300
_cell_angle_beta   90.00000000
_cell_angle_gamma   90.00000000
_symmetry_Int_Tables_number   1
_chemical_formula_structural   H2SeO4
_chemical_formula_sum   'H8 Se4 O16'
_cell_volume   371.66155763
_cell_formula_units_Z   4
loop_
 _symmetry_equiv_pos_site_id
 _symmetry_equiv_pos_as_xyz
  1  'x, y, z'
loop_
 _atom_site_type_symbol
 _atom_site_label
 _atom_site_symmetry_multiplicity
 _atom_site_fract_x
 _atom_site_fract_y
 _atom_site_fract_z
 _atom_site_occupancy
  H  H0  1  0.59766700  0.02651100  0.79145000  1
  H  H1  1  0.09766700  0.97348900  0.20855000  1
  H  H2  1  0.52645400  0.71381800  0.00788200  1
  H  H3  1  0.02645400  0.28618200  0.99211800  1
  H  H4  1  0.51284800  0.78117400  0.50113600  1
  H  H5  1  0.01284800  0.21882600  0.49886400  1
  H  H6  1  0.94491900  0.52474200  0.70426600  1
  H  H7  1  0.44491900  0.47525800  0.29573400  1
  Se  Se0  1  0.09244900  0.71835400  0.11697000  1
  Se  Se1  1  0.59244900  0.28164600  0.88303000  1
  Se  Se2  1  0.94564600  0.78087100  0.61115800  1
  Se  Se3  1  0.44564600  0.21912900  0.38884200  1
  O  O0  1  0.24516300  0.63401400  0.25586600  1
  O  O1  1  0.74516300  0.36598600  0.74413400  1
  O  O2  1  0.79023200  0.86615500  0.74722000  1
  O  O3  1  0.29023200  0.13384500  0.25278000  1
  O  O4  1  0.82358600  0.62836700  0.04328800  1
  O  O5  1  0.32358600  0.37163300  0.95671200  1
  O  O6  1  0.21204000  0.87121400  0.53392800  1
  O  O7  1  0.71204000  0.12878600  0.46607200  1
  O  O8  1  0.33670800  0.76454100  0.98275700  1
  O  O9  1  0.83670800  0.23545900  0.01724300  1
  O  O10  1  0.70139100  0.72872200  0.47902500  1
  O  O11  1  0.20139100  0.27127800  0.52097500  1
  O  O12  1  0.95374600  0.90127600  0.16292100  1
  O  O13  1  0.45374600  0.09872400  0.83707900  1
  O  O14  1  0.08990800  0.60042400  0.66322700  1
  O  O15  1  0.58990800  0.39957600  0.33677300  1
loop_
_geom_bond_atom_site_label_1
_geom_bond_atom_site_label_2
_geom_bond_distance
_geom_bond_site_symmetry_2
H0 O13 1.011330 1_555
H0 O2 1.689336 1_545
H1 O12 1.011330 1_455
H1 O3 1.689336 1_565
H2 O8 1.023529 1_554
H2 O4 1.617085 1_555
H3 O9 1.023529 1_456
H3 O5 1.617085 1_555
H4 O10 1.020412 1_555
H4 O6 1.647720 1_555
H5 O11 1.020412 1_555
H5 O7 1.647720 1_455
H6 O14 1.011800 1_655
H6 O1 1.682631 1_555
H7 O15 1.011800 1_555
H7 O0 1.682631 1_555
O0 Se0 1.634305 1_555
O1 Se1 1.634305 1_555
O2 Se2 1.632797 1_555
O3 Se3 1.632797 1_555
O4 Se0 1.637733 1_655
O5 Se1 1.637733 1_555
O6 Se2 1.638418 1_455
O7 Se3 1.638418 1_555
O8 Se0 1.740953 1_556
O9 Se1 1.740953 1_554
O10 Se2 1.744463 1_555
O11 Se3 1.744463 1_555
O12 Se0 1.738309 1_655
O13 Se1 1.738309 1_555
O14 Se2 1.737810 1_455
O15 Se3 1.737810 1_555
