# generated using pymatgen
data_TaTi9Al3Zn23O48
_symmetry_space_group_name_H-M   'P 1'
_cell_length_a   5.98667200
_cell_length_b   6.05445960
_cell_length_c   29.68655908
_cell_angle_alpha   90.79056677
_cell_angle_beta   90.04529381
_cell_angle_gamma   119.54506185
_symmetry_Int_Tables_number   1
_chemical_formula_structural   TaTi9Al3Zn23O48
_chemical_formula_sum   'Ta1 Ti9 Al3 Zn23 O48'
_cell_volume   935.97914191
_cell_formula_units_Z   1
loop_
 _symmetry_equiv_pos_site_id
 _symmetry_equiv_pos_as_xyz
  1  'x, y, z'
loop_
 _atom_site_type_symbol
 _atom_site_label
 _atom_site_symmetry_multiplicity
 _atom_site_fract_x
 _atom_site_fract_y
 _atom_site_fract_z
 _atom_site_occupancy
  Ta  Ta0  1  0.50097700  0.00163000  0.43846800  1
  Ti  Ti0  1  0.65966400  0.31649400  0.01681600  1
  Ti  Ti1  1  0.82719500  0.65496200  0.09916200  1
  Ti  Ti2  1  0.99159600  0.98298600  0.18371100  1
  Ti  Ti3  1  0.16101100  0.32195000  0.26636500  1
  Ti  Ti4  1  0.32553700  0.65125600  0.35086200  1
  Ti  Ti5  1  0.67518700  0.35271900  0.52581900  1
  Ti  Ti6  1  0.16556600  0.83065700  0.77146500  1
  Ti  Ti7  1  0.99757500  0.00714200  0.68628300  1
  Ti  Ti8  1  0.33804700  0.66119500  0.85640000  1
  Al  Al0  1  0.83635800  0.66904400  0.60701200  1
  Al  Al1  1  0.16775200  0.33355400  0.77081400  1
  Al  Al2  1  0.49744700  0.99934100  0.93580900  1
  Zn  Zn0  1  0.99372400  0.98773300  0.00165700  1
  Zn  Zn1  1  0.32465700  0.64875800  0.16875400  1
  Zn  Zn2  1  0.34504400  0.68998700  0.03597700  1
  Zn  Zn3  1  0.33474800  0.16882600  0.10408500  1
  Zn  Zn4  1  0.83390900  0.16871100  0.10415400  1
  Zn  Zn5  1  0.65824400  0.31588800  0.33356800  1
  Zn  Zn6  1  0.67717500  0.35492500  0.20536900  1
  Zn  Zn7  1  0.66842700  0.83553600  0.27078000  1
  Zn  Zn8  1  0.16702400  0.83544900  0.27078100  1
  Zn  Zn9  1  0.98756200  0.97532000  0.50621800  1
  Zn  Zn10  1  0.00983500  0.02021500  0.37237800  1
  Zn  Zn11  1  0.00005400  0.50035100  0.43766200  1
  Zn  Zn12  1  0.50036600  0.50038900  0.43760200  1
  Zn  Zn13  1  0.32511800  0.66044300  0.66908500  1
  Zn  Zn14  1  0.33958400  0.67898400  0.54244800  1
  Zn  Zn15  1  0.33380500  0.16084000  0.60545400  1
  Zn  Zn16  1  0.83079800  0.16400700  0.60471500  1
  Zn  Zn17  1  0.67782900  0.34147900  0.70545400  1
  Zn  Zn18  1  0.66629100  0.83256500  0.77091600  1
  Zn  Zn19  1  0.00851100  0.00593300  0.87297000  1
  Zn  Zn20  1  0.99871600  0.50427200  0.93723300  1
  Zn  Zn21  1  0.65322600  0.32557100  0.83676000  1
  Zn  Zn22  1  0.50202000  0.50085300  0.93813000  1
  O  O0  1  0.52186000  0.04393300  0.06096200  1
  O  O1  1  0.67939400  0.35889400  0.13946600  1
  O  O2  1  0.52777000  0.50804000  0.06178800  1
  O  O3  1  0.97998900  0.50738400  0.06171600  1
  O  O4  1  0.68956100  0.82900600  0.14702000  1
  O  O5  1  0.85568000  0.71164300  0.22806900  1
  O  O6  1  0.01242200  0.02515200  0.30645500  1
  O  O7  1  0.13921100  0.82866900  0.14707800  1
  O  O8  1  0.86225300  0.17565300  0.22892700  1
  O  O9  1  0.98966400  0.97930800  0.06931300  1
  O  O10  1  0.14647100  0.29267600  0.14823300  1
  O  O11  1  0.31330900  0.17522500  0.22896400  1
  O  O12  1  0.02390800  0.49589900  0.31365400  1
  O  O13  1  0.18923100  0.37880600  0.39505500  1
  O  O14  1  0.34298900  0.68596800  0.47488800  1
  O  O15  1  0.32303200  0.64582000  0.23606300  1
  O  O16  1  0.19476700  0.84031600  0.39598800  1
  O  O17  1  0.47160500  0.49542700  0.31370800  1
  O  O18  1  0.64542500  0.83999800  0.39602200  1
  O  O19  1  0.47926200  0.95828400  0.31471900  1
  O  O20  1  0.52024700  0.04128700  0.55864900  1
  O  O21  1  0.35151100  0.16048200  0.47972700  1
  O  O22  1  0.68076500  0.35725800  0.63865500  1
  O  O23  1  0.65642700  0.31289200  0.40070400  1
  O  O24  1  0.53601800  0.51165000  0.56375400  1
  O  O25  1  0.80870800  0.16000700  0.47965900  1
  O  O26  1  0.97582600  0.51096000  0.56346100  1
  O  O27  1  0.81060900  0.62109300  0.48040500  1
  O  O28  1  0.86880000  0.70008800  0.73021900  1
  O  O29  1  0.69322200  0.82595900  0.64839200  1
  O  O30  1  0.02318800  0.02142600  0.80484300  1
  O  O31  1  0.98543800  0.97407300  0.57235300  1
  O  O32  1  0.13374900  0.82849400  0.64676600  1
  O  O33  1  0.86945000  0.16580300  0.73094900  1
  O  O34  1  0.15219500  0.29816500  0.65081400  1
  O  O35  1  0.30760900  0.15153700  0.73240800  1
  O  O36  1  0.02449200  0.51624700  0.80899400  1
  O  O37  1  0.18121900  0.36815400  0.89075800  1
  O  O38  1  0.34796700  0.69307200  0.96944000  1
  O  O39  1  0.31030000  0.64515900  0.73675500  1
  O  O40  1  0.46338800  0.50149200  0.81066200  1
  O  O41  1  0.20082500  0.83869000  0.89481600  1
  O  O42  1  0.46537600  0.96816400  0.81118500  1
  O  O43  1  0.64112300  0.84102600  0.89333400  1
  O  O44  1  0.35737300  0.15722900  0.97857300  1
  O  O45  1  0.79879200  0.15666100  0.97830200  1
  O  O46  1  0.65270800  0.30915700  0.90324100  1
  O  O47  1  0.81429200  0.62771100  0.98295600  1
loop_
_geom_bond_atom_site_label_1
_geom_bond_atom_site_label_2
_geom_bond_distance
_geom_bond_site_symmetry_2
Al0 O22 1.905170 1_555
Al0 O31 1.922023 1_555
Al0 O32 1.940279 1_655
Al0 O29 1.979452 1_555
Al0 O26 2.010082 1_555
Al0 O24 2.015671 1_555
Al1 O40 1.937628 1_555
Al1 O39 1.943202 1_555
Al1 O30 1.944695 1_555
Al1 O33 1.948339 1_455
Al1 O35 2.022920 1_555
Al1 O36 2.036228 1_555
Al2 O46 1.910292 1_565
Al2 O38 1.911020 1_555
Al2 O41 1.959822 1_555
Al2 O44 1.996858 1_565
Al2 O45 2.005429 1_565
Al2 O43 2.007487 1_555
O0 Ti0 1.959610 1_555
O0 Zn2 1.995159 1_545
O0 Zn3 2.067930 1_555
O0 Zn4 2.069390 1_555
O1 Zn6 1.956888 1_555
O1 Ti1 1.980987 1_555
O1 Zn4 2.073432 1_555
O1 Zn3 2.075139 1_555
O2 Ti1 1.905938 1_555
O2 Zn2 2.051267 1_555
O2 Ti0 2.147749 1_555
O2 Zn3 2.205183 1_555
O3 Ti1 1.910778 1_555
O3 Zn2 2.055594 1_655
O3 Ti0 2.134850 1_555
O3 Zn4 2.204769 1_555
O4 Ti2 1.905640 1_555
O4 Zn1 2.012472 1_555
O4 Ti1 2.150493 1_555
O4 Zn4 2.217520 1_565
O5 Ti2 1.959111 1_555
O5 Zn6 1.985724 1_555
O5 Zn7 2.057261 1_555
O5 Zn8 2.058141 1_655
O6 Zn10 1.957625 1_555
O6 Ti3 1.980151 1_555
O6 Zn7 2.076540 1_445
O6 Zn8 2.076956 1_545
O7 Ti2 1.903768 1_455
O7 Zn1 2.010963 1_555
O7 Ti1 2.153078 1_455
O7 Zn3 2.222163 1_565
O8 Ti3 1.904219 1_655
O8 Zn6 2.024997 1_555
O8 Ti2 2.147401 1_545
O8 Zn7 2.201581 1_545
O9 Ti1 1.937317 1_555
O9 Zn0 2.009687 1_555
O9 Zn3 2.067911 1_665
O9 Zn4 2.068235 1_565
O10 Ti2 1.956046 1_445
O10 Zn1 1.962538 1_555
O10 Zn3 2.087864 1_555
O10 Zn4 2.088302 1_455
O11 Ti3 1.904312 1_555
O11 Zn6 2.026239 1_555
O11 Ti2 2.147287 1_445
O11 Zn8 2.198952 1_545
O12 Ti4 1.912763 1_555
O12 Zn5 1.999095 1_455
O12 Ti3 2.137097 1_555
O12 Zn8 2.217451 1_555
O13 Ti4 1.960090 1_555
O13 Zn10 1.994787 1_555
O13 Zn11 2.054886 1_555
O13 Zn12 2.055510 1_555
O14 Ta0 1.998003 1_565
O14 Zn14 2.006561 1_555
O14 Zn11 2.094257 1_555
O14 Zn12 2.094434 1_555
O15 Ti3 1.941473 1_555
O15 Zn1 1.998486 1_555
O15 Zn7 2.068528 1_555
O15 Zn8 2.068591 1_555
O16 Ta0 2.025189 1_565
O16 Zn10 2.027910 1_565
O16 Ti4 2.135620 1_555
O16 Zn11 2.198246 1_555
O17 Ti4 1.912540 1_555
O17 Zn5 1.998031 1_555
O17 Ti3 2.136582 1_555
O17 Zn7 2.221388 1_555
O18 Ta0 2.023743 1_565
O18 Zn10 2.029430 1_665
O18 Ti4 2.136835 1_555
O18 Zn12 2.194609 1_555
O19 Ti4 1.955278 1_555
O19 Zn5 1.956162 1_565
O19 Zn7 2.083710 1_555
O19 Zn8 2.084943 1_555
O20 Ti5 1.921672 1_555
O20 Zn14 1.960371 1_545
O20 Zn15 2.114683 1_555
O20 Zn16 2.117626 1_555
O21 Ta0 2.010931 1_555
O21 Zn9 2.059294 1_445
O21 Ti5 2.170114 1_555
O21 Zn12 2.203929 1_555
O22 Zn17 1.986323 1_555
O22 Zn16 2.048474 1_555
O22 Zn15 2.056327 1_555
O23 Zn5 1.993359 1_555
O23 Ta0 2.001164 1_555
O23 Zn12 2.091573 1_555
O23 Zn11 2.093637 1_655
O24 Ti5 1.910635 1_555
O24 Zn14 2.000226 1_555
O24 Zn15 2.246851 1_555
O25 Ta0 2.007648 1_555
O25 Zn9 2.054806 1_545
O25 Ti5 2.180714 1_555
O25 Zn11 2.204063 1_655
O26 Ti5 1.916424 1_555
O26 Zn14 2.000307 1_655
O26 Zn16 2.222669 1_555
O27 Ti5 1.969281 1_555
O27 Zn9 2.005422 1_555
O27 Zn11 2.055509 1_655
O27 Zn12 2.056782 1_555
O28 Ti6 1.966061 1_655
O28 Zn17 2.016977 1_555
O28 Ti7 2.099206 1_565
O28 Zn18 2.123050 1_555
O29 Ti7 1.944237 1_565
O29 Zn13 2.019695 1_555
O29 Zn16 2.227330 1_565
O30 Ti6 1.995766 1_545
O30 Zn19 2.025891 1_555
O30 Zn18 2.107705 1_445
O31 Zn9 1.963466 1_555
O31 Zn16 2.030582 1_565
O31 Zn15 2.057699 1_665
O32 Zn13 1.988409 1_555
O32 Ti7 2.011671 1_465
O32 Zn15 2.163577 1_565
O33 Ti7 1.990595 1_555
O33 Zn17 2.060174 1_555
O33 Zn18 2.146137 1_545
O34 Ti7 1.874666 1_455
O34 Zn13 1.975805 1_555
O34 Zn15 2.132972 1_555
O34 Zn16 2.158381 1_455
O35 Ti6 2.067903 1_545
O35 Zn17 2.095144 1_555
O35 Ti7 2.108773 1_455
O36 Ti6 2.013113 1_555
O36 Zn21 2.109725 1_455
O36 Ti8 2.147439 1_555
O37 Ti8 1.865016 1_555
O37 Zn19 1.971880 1_555
O37 Zn20 2.153012 1_455
O37 Zn22 2.180473 1_555
O38 Zn2 1.975610 1_556
O38 Zn22 2.024582 1_555
O38 Zn20 2.049893 1_455
O39 Ti6 2.000767 1_555
O39 Zn13 2.012308 1_555
O39 Zn18 2.106630 1_555
O40 Ti8 2.005630 1_555
O40 Zn21 2.059494 1_555
O40 Zn18 2.133513 1_555
O41 Zn19 1.984461 1_565
O41 Ti8 1.992140 1_555
O41 Zn20 2.192218 1_455
O42 Ti6 1.949595 1_555
O42 Zn21 2.019153 1_565
O42 Zn18 2.121066 1_555
O42 Ti8 2.123720 1_555
O43 Ti8 1.922337 1_555
O43 Zn19 2.013176 1_665
O43 Zn22 2.256017 1_555
O44 Ti0 1.933739 1_556
O44 Zn0 2.020077 1_446
O44 Zn22 2.193964 1_555
O45 Ti0 1.924400 1_556
O45 Zn0 2.020900 1_546
O45 Zn20 2.221976 1_555
O46 Zn21 1.977390 1_555
O46 Zn22 2.057786 1_555
O46 Zn20 2.062804 1_555
O47 Ti0 1.936815 1_556
O47 Zn0 1.967191 1_556
O47 Zn22 2.099397 1_555
O47 Zn20 2.099552 1_555
