# generated using pymatgen
data_Ce6Ge9(BO15)2
_symmetry_space_group_name_H-M   'P 1'
_cell_length_a   8.87028243
_cell_length_b   10.87362379
_cell_length_c   10.91746420
_cell_angle_alpha   90.00000000
_cell_angle_beta   90.00000000
_cell_angle_gamma   95.87436438
_symmetry_Int_Tables_number   1
_chemical_formula_structural   Ce6Ge9(BO15)2
_chemical_formula_sum   'Ce12 Ge18 B4 O60'
_cell_volume   1047.48282841
_cell_formula_units_Z   2
loop_
 _symmetry_equiv_pos_site_id
 _symmetry_equiv_pos_as_xyz
  1  'x, y, z'
loop_
 _atom_site_type_symbol
 _atom_site_label
 _atom_site_symmetry_multiplicity
 _atom_site_fract_x
 _atom_site_fract_y
 _atom_site_fract_z
 _atom_site_occupancy
  Ce  Ce0  1  0.50534355  0.76830766  0.32178095  1
  Ce  Ce1  1  0.95638942  0.94272399  0.33170016  1
  Ce  Ce2  1  0.99465645  0.73169234  0.82178095  1
  Ce  Ce3  1  0.84691221  0.55504227  0.33241424  1
  Ce  Ce4  1  0.00534355  0.26830766  0.17821905  1
  Ce  Ce5  1  0.15308779  0.44495773  0.66758576  1
  Ce  Ce6  1  0.04361058  0.05727601  0.66829984  1
  Ce  Ce7  1  0.54361058  0.55727601  0.83170016  1
  Ce  Ce8  1  0.65308779  0.94495773  0.83241424  1
  Ce  Ce9  1  0.45638942  0.44272399  0.16829984  1
  Ce  Ce10  1  0.34691221  0.05504227  0.16758576  1
  Ce  Ce11  1  0.49465645  0.23169234  0.67821905  1
  Ge  Ge0  1  0.65431280  0.03112088  0.46161649  1
  Ge  Ge1  1  0.36416244  0.73733729  0.67313628  1
  Ge  Ge2  1  0.24942812  0.25084647  0.91705211  1
  Ge  Ge3  1  0.12474464  0.73896525  0.48546937  1
  Ge  Ge4  1  0.34568720  0.96887912  0.53838351  1
  Ge  Ge5  1  0.62474464  0.23896525  0.01453063  1
  Ge  Ge6  1  0.84568720  0.46887912  0.96161649  1
  Ge  Ge7  1  0.63583756  0.26266271  0.32686372  1
  Ge  Ge8  1  0.75057188  0.74915353  0.08294789  1
  Ge  Ge9  1  0.50000000  0.50000000  0.50000000  1
  Ge  Ge10  1  0.25057188  0.24915353  0.41705211  1
  Ge  Ge11  1  0.37525536  0.76103475  0.98546937  1
  Ge  Ge12  1  0.13583756  0.76266271  0.17313628  1
  Ge  Ge13  1  0.87525536  0.26103475  0.51453063  1
  Ge  Ge14  1  0.74942812  0.75084647  0.58294789  1
  Ge  Ge15  1  0.15431280  0.53112088  0.03838351  1
  Ge  Ge16  1  0.00000000  0.00000000  0.00000000  1
  Ge  Ge17  1  0.86416244  0.23733729  0.82686372  1
  B  B0  1  0.78076087  0.47461442  0.66352672  1
  B  B1  1  0.21923913  0.52538558  0.33647328  1
  B  B2  1  0.71923913  0.02538558  0.16352672  1
  B  B3  1  0.28076087  0.97461442  0.83647328  1
  O  O0  1  0.64334506  0.20917527  0.48545700  1
  O  O1  1  0.87992266  0.43021609  0.57044634  1
  O  O2  1  0.35605026  0.36370565  0.81124310  1
  O  O3  1  0.45024852  0.98390660  0.38934192  1
  O  O4  1  0.11712918  0.93868927  0.86354522  1
  O  O5  1  0.82672733  0.19283142  0.67005509  1
  O  O6  1  0.79691635  0.62934527  0.95130385  1
  O  O7  1  0.19630140  0.38912396  0.31418498  1
  O  O8  1  0.63144449  0.41886411  0.98233760  1
  O  O9  1  0.69630140  0.88912396  0.18581502  1
  O  O10  1  0.57648819  0.76612315  0.69578402  1
  O  O11  1  0.64272329  0.18621239  0.85432465  1
  O  O12  1  0.86049654  0.86051205  0.97093895  1
  O  O13  1  0.86855551  0.08113589  0.48233760  1
  O  O14  1  0.85727671  0.31378761  0.35432465  1
  O  O15  1  0.12007734  0.56978391  0.42955366  1
  O  O16  1  0.14394974  0.13629435  0.31124310  1
  O  O17  1  0.36049654  0.36051205  0.52906105  1
  O  O18  1  0.08234726  0.26770068  0.53363728  1
  O  O19  1  0.38996844  0.57083009  0.63177904  1
  O  O20  1  0.20308365  0.37065473  0.04869615  1
  O  O21  1  0.95024852  0.48390660  0.11065808  1
  O  O22  1  0.88996844  0.07083009  0.86822096  1
  O  O23  1  0.13144449  0.91886411  0.51766240  1
  O  O24  1  0.07648819  0.26612315  0.80421598  1
  O  O25  1  0.13950346  0.13948795  0.02906105  1
  O  O26  1  0.64394974  0.63629435  0.18875690  1
  O  O27  1  0.35727671  0.81378761  0.14567535  1
  O  O28  1  0.68948771  0.08684662  0.28832590  1
  O  O29  1  0.29691635  0.12934527  0.54869615  1
  O  O30  1  0.32672733  0.69283142  0.82994491  1
  O  O31  1  0.62007734  0.06978391  0.07044634  1
  O  O32  1  0.85605026  0.86370565  0.68875690  1
  O  O33  1  0.88287082  0.06131073  0.13645478  1
  O  O34  1  0.54975148  0.01609340  0.61065808  1
  O  O35  1  0.18948771  0.58684662  0.21167410  1
  O  O36  1  0.17327267  0.80716858  0.32994491  1
  O  O37  1  0.30369860  0.11087604  0.81418498  1
  O  O38  1  0.67327267  0.30716858  0.17005509  1
  O  O39  1  0.11003156  0.92916991  0.13177904  1
  O  O40  1  0.36855551  0.58113589  0.01766240  1
  O  O41  1  0.37992266  0.93021609  0.92955366  1
  O  O42  1  0.70308365  0.87065473  0.45130385  1
  O  O43  1  0.04975148  0.51609340  0.88934192  1
  O  O44  1  0.92351181  0.73387685  0.19578402  1
  O  O45  1  0.41765274  0.23229932  0.03363728  1
  O  O46  1  0.81051229  0.41315338  0.78832590  1
  O  O47  1  0.14334506  0.70917527  0.01454300  1
  O  O48  1  0.85665494  0.29082473  0.98545700  1
  O  O49  1  0.31051229  0.91315338  0.71167410  1
  O  O50  1  0.38287082  0.56131073  0.36354522  1
  O  O51  1  0.91765274  0.73229932  0.46636272  1
  O  O52  1  0.61712918  0.43868927  0.63645478  1
  O  O53  1  0.35665494  0.79082473  0.51454300  1
  O  O54  1  0.61003156  0.42916991  0.36822096  1
  O  O55  1  0.42351181  0.23387685  0.30421598  1
  O  O56  1  0.14272329  0.68621239  0.64567535  1
  O  O57  1  0.58234726  0.76770068  0.96636272  1
  O  O58  1  0.80369860  0.61087604  0.68581502  1
  O  O59  1  0.63950346  0.63948795  0.47093895  1
loop_
_geom_bond_atom_site_label_1
_geom_bond_atom_site_label_2
_geom_bond_distance
_geom_bond_site_symmetry_2
Ce0 O27 2.408114 1_555
Ce0 O42 2.432091 1_555
Ce0 O50 2.440021 1_555
Ce0 O26 2.458161 1_555
Ce0 O53 2.508860 1_555
Ce0 O9 2.518516 1_555
Ce0 O59 2.524131 1_555
Ce0 O3 2.552124 1_555
Ce1 O13 2.411809 1_565
Ce1 O36 2.540569 1_655
Ce1 O16 2.555631 1_665
Ce1 O23 2.585108 1_655
Ce1 O39 2.585358 1_655
Ce1 O33 2.608406 1_565
Ce1 O42 2.647122 1_555
Ce1 O44 2.703410 1_555
Ce1 O51 2.711798 1_555
Ce1 O9 2.814894 1_555
Ce1 O28 3.007429 1_565
Ce2 O56 2.408114 1_655
Ce2 O6 2.432091 1_555
Ce2 O4 2.440021 1_655
Ce2 O32 2.458161 1_555
Ce2 O47 2.508860 1_656
Ce2 O58 2.518516 1_555
Ce2 O12 2.524131 1_555
Ce2 O43 2.552124 1_655
Ce3 O54 2.419190 1_555
Ce3 O51 2.449428 1_555
Ce3 O44 2.489505 1_555
Ce3 O26 2.609055 1_555
Ce3 O59 2.619329 1_555
Ce3 O15 2.634780 1_655
Ce3 O14 2.645148 1_555
Ce3 O21 2.728543 1_555
Ce3 O1 2.960180 1_555
Ce4 O14 2.408114 1_455
Ce4 O20 2.432091 1_555
Ce4 O33 2.440021 1_455
Ce4 O16 2.458161 1_555
Ce4 O48 2.508860 1_454
Ce4 O7 2.518516 1_555
Ce4 O25 2.524131 1_555
Ce4 O21 2.552124 1_455
Ce5 O19 2.419190 1_555
Ce5 O18 2.449428 1_555
Ce5 O24 2.489505 1_555
Ce5 O2 2.609055 1_555
Ce5 O17 2.619329 1_555
Ce5 O1 2.634780 1_455
Ce5 O56 2.645148 1_555
Ce5 O43 2.728543 1_555
Ce5 O15 2.960180 1_555
Ce6 O23 2.411809 1_545
Ce6 O5 2.540569 1_455
Ce6 O32 2.555631 1_445
Ce6 O13 2.585108 1_455
Ce6 O22 2.585358 1_455
Ce6 O4 2.608406 1_545
Ce6 O29 2.647122 1_555
Ce6 O24 2.703410 1_555
Ce6 O18 2.711798 1_555
Ce6 O37 2.814894 1_555
Ce6 O49 3.007429 1_545
Ce7 O8 2.411809 1_555
Ce7 O30 2.540569 1_555
Ce7 O2 2.555631 1_555
Ce7 O40 2.585108 1_556
Ce7 O19 2.585358 1_555
Ce7 O52 2.608406 1_555
Ce7 O6 2.647122 1_555
Ce7 O10 2.703410 1_555
Ce7 O57 2.711798 1_555
Ce7 O58 2.814894 1_555
Ce7 O46 3.007429 1_555
Ce8 O22 2.419190 1_565
Ce8 O57 2.449428 1_555
Ce8 O10 2.489505 1_555
Ce8 O32 2.609055 1_555
Ce8 O12 2.619329 1_555
Ce8 O41 2.634780 1_555
Ce8 O11 2.645148 1_565
Ce8 O34 2.728543 1_565
Ce8 O31 2.960180 1_566
Ce9 O40 2.411809 1_555
Ce9 O38 2.540569 1_555
Ce9 O26 2.555631 1_555
Ce9 O8 2.585108 1_554
Ce9 O54 2.585358 1_555
Ce9 O50 2.608406 1_555
Ce9 O20 2.647122 1_555
Ce9 O55 2.703410 1_555
Ce9 O45 2.711798 1_555
Ce9 O7 2.814894 1_555
Ce9 O35 3.007429 1_555
Ce10 O39 2.419190 1_545
Ce10 O45 2.449428 1_555
Ce10 O55 2.489505 1_555
Ce10 O16 2.609055 1_555
Ce10 O25 2.619329 1_555
Ce10 O31 2.634780 1_555
Ce10 O27 2.645148 1_545
Ce10 O3 2.728543 1_545
Ce10 O41 2.960180 1_544
Ce11 O11 2.408114 1_555
Ce11 O29 2.432091 1_555
Ce11 O52 2.440021 1_555
Ce11 O2 2.458161 1_555
Ce11 O0 2.508860 1_555
Ce11 O37 2.518516 1_555
Ce11 O17 2.524131 1_555
Ce11 O34 2.552124 1_555
Ge0 O42 1.843594 1_545
Ge0 O34 1.871777 1_555
Ge0 O13 1.935686 1_555
Ge0 O0 1.965766 1_555
Ge0 O3 1.993100 1_545
Ge0 O28 2.001269 1_555
Ge1 O30 1.800653 1_555
Ge1 O53 1.829890 1_555
Ge1 O10 1.893566 1_555
Ge1 O19 1.902404 1_555
Ge1 O56 2.008382 1_555
Ge1 O49 2.060228 1_555
Ge2 O2 1.870107 1_555
Ge2 O25 1.915893 1_556
Ge2 O45 1.987207 1_556
Ge2 O24 1.987594 1_555
Ge2 O37 1.989823 1_555
Ge2 O20 2.010317 1_556
Ge3 O51 1.842809 1_455
Ge3 O56 1.852658 1_555
Ge3 O36 1.884919 1_555
Ge3 O15 1.934674 1_555
Ge3 O23 1.982371 1_555
Ge3 O53 2.100711 1_555
Ge4 O29 1.843594 1_565
Ge4 O3 1.871777 1_555
Ge4 O23 1.935686 1_555
Ge4 O53 1.965766 1_555
Ge4 O34 1.993100 1_565
Ge4 O49 2.001269 1_555
Ge5 O45 1.842809 1_555
Ge5 O11 1.852658 1_554
Ge5 O38 1.884919 1_555
Ge5 O31 1.934674 1_555
Ge5 O8 1.982371 1_554
Ge5 O48 2.100711 1_554
Ge6 O6 1.843594 1_555
Ge6 O21 1.871777 1_556
Ge6 O8 1.935686 1_555
Ge6 O48 1.965766 1_555
Ge6 O43 1.993100 1_655
Ge6 O46 2.001269 1_555
Ge7 O38 1.800653 1_555
Ge7 O0 1.829890 1_555
Ge7 O55 1.893566 1_555
Ge7 O54 1.902404 1_555
Ge7 O14 2.008382 1_555
Ge7 O28 2.060228 1_555
Ge8 O26 1.870107 1_555
Ge8 O12 1.915893 1_554
Ge8 O57 1.987207 1_554
Ge8 O44 1.987594 1_555
Ge8 O9 1.989823 1_555
Ge8 O6 2.010317 1_554
Ge9 O17 1.883672 1_555
Ge9 O59 1.883672 1_555
Ge9 O19 1.941515 1_555
Ge9 O54 1.941515 1_555
Ge9 O50 1.971044 1_555
Ge9 O52 1.971044 1_555
Ge10 O16 1.870107 1_555
Ge10 O17 1.915893 1_555
Ge10 O18 1.987207 1_555
Ge10 O55 1.987594 1_555
Ge10 O7 1.989823 1_555
Ge10 O29 2.010317 1_555
Ge11 O57 1.842809 1_555
Ge11 O27 1.852658 1_556
Ge11 O30 1.884919 1_555
Ge11 O41 1.934674 1_555
Ge11 O40 1.982371 1_556
Ge11 O47 2.100711 1_556
Ge12 O36 1.800653 1_555
Ge12 O47 1.829890 1_555
Ge12 O44 1.893566 1_455
Ge12 O39 1.902404 1_555
Ge12 O27 2.008382 1_555
Ge12 O35 2.060228 1_555
Ge13 O18 1.842809 1_655
Ge13 O14 1.852658 1_555
Ge13 O5 1.884919 1_555
Ge13 O1 1.934674 1_555
Ge13 O13 1.982371 1_555
Ge13 O0 2.100711 1_555
Ge14 O32 1.870107 1_555
Ge14 O59 1.915893 1_555
Ge14 O51 1.987207 1_555
Ge14 O10 1.987594 1_555
Ge14 O58 1.989823 1_555
Ge14 O42 2.010317 1_555
Ge15 O20 1.843594 1_555
Ge15 O43 1.871777 1_554
Ge15 O40 1.935686 1_555
Ge15 O47 1.965766 1_555
Ge15 O21 1.993100 1_455
Ge15 O35 2.001269 1_555
Ge16 O25 1.883672 1_555
Ge16 O12 1.883672 1_444
Ge16 O22 1.941515 1_454
Ge16 O39 1.941515 1_545
Ge16 O33 1.971044 1_455
Ge16 O4 1.971044 1_544
Ge17 O5 1.800653 1_555
Ge17 O48 1.829890 1_555
Ge17 O24 1.893566 1_655
Ge17 O22 1.902404 1_555
Ge17 O11 2.008382 1_555
Ge17 O46 2.060228 1_555
B0 O1 1.458197 1_555
B0 O52 1.493527 1_555
B0 O58 1.494727 1_555
B0 O46 1.552017 1_555
B1 O15 1.458197 1_555
B1 O50 1.493527 1_555
B1 O7 1.494727 1_555
B1 O35 1.552017 1_555
B2 O31 1.458197 1_555
B2 O33 1.493527 1_555
B2 O9 1.494727 1_545
B2 O28 1.552017 1_555
B3 O41 1.458197 1_555
B3 O4 1.493527 1_555
B3 O37 1.494727 1_565
B3 O49 1.552017 1_555
