# generated using pymatgen
data_NaSi3BO8
_symmetry_space_group_name_H-M   'P 1'
_cell_length_a   7.27912866
_cell_length_b   7.52057776
_cell_length_c   6.89281532
_cell_angle_alpha   79.21181953
_cell_angle_beta   106.89073922
_cell_angle_gamma   64.76080648
_symmetry_Int_Tables_number   1
_chemical_formula_structural   NaSi3BO8
_chemical_formula_sum   'Na2 Si6 B2 O16'
_cell_volume   304.76725079
_cell_formula_units_Z   2
loop_
 _symmetry_equiv_pos_site_id
 _symmetry_equiv_pos_as_xyz
  1  'x, y, z'
loop_
 _atom_site_type_symbol
 _atom_site_label
 _atom_site_symmetry_multiplicity
 _atom_site_fract_x
 _atom_site_fract_y
 _atom_site_fract_z
 _atom_site_occupancy
  Na  Na0  1  0.73541300  0.24983500  0.86735000  1
  Na  Na1  1  0.26458700  0.75016500  0.13265000  1
  Si  Si0  1  0.18407200  0.19642700  0.79040200  1
  Si  Si1  1  0.81592800  0.80357300  0.20959800  1
  Si  Si2  1  0.19462000  0.60186100  0.67883800  1
  Si  Si3  1  0.80538000  0.39813900  0.32116200  1
  Si  Si4  1  0.45045100  0.82130100  0.64506400  1
  Si  Si5  1  0.54954900  0.17869900  0.35493600  1
  B  B0  1  0.82552800  0.85066000  0.77816800  1
  B  B1  1  0.17447200  0.14934000  0.22183200  1
  O  O0  1  0.85628000  0.87089000  0.99574100  1
  O  O1  1  0.14372000  0.12911000  0.00425900  1
  O  O2  1  0.42509600  0.61258100  0.72309400  1
  O  O3  1  0.57490400  0.38741900  0.27690600  1
  O  O4  1  0.05485300  0.74650700  0.78820200  1
  O  O5  1  0.94514700  0.25349300  0.21179800  1
  O  O6  1  0.34807700  0.98149800  0.76638900  1
  O  O7  1  0.65192300  0.01850200  0.23361100  1
  O  O8  1  0.71690900  0.73062300  0.72816900  1
  O  O9  1  0.28309100  0.26937700  0.27183100  1
  O  O10  1  0.29091200  0.34962800  0.79288600  1
  O  O11  1  0.70908800  0.65037200  0.20711400  1
  O  O12  1  0.69071100  0.07099400  0.61773000  1
  O  O13  1  0.30928900  0.92900600  0.38227000  1
  O  O14  1  0.93912400  0.32390400  0.58348700  1
  O  O15  1  0.06087600  0.67609600  0.41651300  1
loop_
_geom_bond_atom_site_label_1
_geom_bond_atom_site_label_2
_geom_bond_distance
_geom_bond_site_symmetry_2
Na0 O12 2.406137 1_555
Na0 O5 2.433599 1_556
Na0 O2 2.440814 1_555
Na0 O0 2.478755 1_545
Na0 O1 2.509294 1_656
Na0 O10 2.848786 1_555
Na0 O14 2.884406 1_555
Na1 O13 2.406137 1_555
Na1 O4 2.433599 1_554
Na1 O3 2.440814 1_555
Na1 O1 2.478755 1_565
Na1 O0 2.509294 1_454
Na1 O11 2.848786 1_555
Na1 O15 2.884406 1_555
B0 O8 1.457970 1_555
B0 O4 1.484053 1_655
B0 O12 1.492777 1_565
B0 O0 1.497234 1_555
B1 O9 1.457970 1_555
B1 O5 1.484053 1_455
B1 O13 1.492777 1_545
B1 O1 1.497234 1_555
O0 Si1 1.616949 1_556
O1 Si0 1.616949 1_554
O2 Si2 1.655680 1_555
O2 Si4 1.666126 1_555
O3 Si3 1.655680 1_555
O3 Si5 1.666126 1_555
O4 Si2 1.611056 1_555
O5 Si3 1.611056 1_555
O6 Si0 1.623166 1_565
O6 Si4 1.637013 1_555
O7 Si1 1.623166 1_545
O7 Si5 1.637013 1_555
O8 Si4 1.623364 1_555
O9 Si5 1.623364 1_555
O10 Si2 1.641745 1_555
O10 Si0 1.642063 1_555
O11 Si3 1.641745 1_555
O11 Si1 1.642063 1_555
O12 Si5 1.628631 1_555
O13 Si4 1.628631 1_555
O14 Si3 1.632353 1_555
O14 Si0 1.638605 1_655
O15 Si2 1.632353 1_555
O15 Si1 1.638605 1_455
