# generated using pymatgen
data_Gd2Be2GeO7
_symmetry_space_group_name_H-M   'P 1'
_cell_length_a   4.86829340
_cell_length_b   7.51922262
_cell_length_c   7.51505253
_cell_angle_alpha   89.95807238
_cell_angle_beta   89.93997145
_cell_angle_gamma   90.06262662
_symmetry_Int_Tables_number   1
_chemical_formula_structural   Gd2Be2GeO7
_chemical_formula_sum   'Gd4 Be4 Ge2 O14'
_cell_volume   275.09398452
_cell_formula_units_Z   2
loop_
 _symmetry_equiv_pos_site_id
 _symmetry_equiv_pos_as_xyz
  1  'x, y, z'
loop_
 _atom_site_type_symbol
 _atom_site_label
 _atom_site_symmetry_multiplicity
 _atom_site_fract_x
 _atom_site_fract_y
 _atom_site_fract_z
 _atom_site_occupancy
  Gd  Gd0  1  0.50461600  0.65863100  0.15874900  1
  Gd  Gd1  1  0.50444800  0.34131800  0.84139600  1
  Gd  Gd2  1  0.49503100  0.84129600  0.65869200  1
  Gd  Gd3  1  0.49575900  0.15869300  0.34130500  1
  Be  Be0  1  0.95358600  0.13444700  0.63494700  1
  Be  Be1  1  0.04638100  0.36558200  0.13454000  1
  Be  Be2  1  0.95357100  0.86488800  0.36548300  1
  Be  Be3  1  0.04644900  0.63496500  0.86519300  1
  Ge  Ge0  1  0.00010600  0.99963600  0.99950800  1
  Ge  Ge1  1  0.00014100  0.50071500  0.49997200  1
  O  O0  1  0.28026300  0.85763700  0.35851000  1
  O  O1  1  0.21207900  0.41939500  0.32765000  1
  O  O2  1  0.78841300  0.32754800  0.58117100  1
  O  O3  1  0.71954000  0.35864700  0.14151600  1
  O  O4  1  0.78821000  0.91866100  0.17224200  1
  O  O5  1  0.21209400  0.58113100  0.67174300  1
  O  O6  1  0.81801700  0.99974500  0.50022000  1
  O  O7  1  0.28038000  0.14131400  0.64203500  1
  O  O8  1  0.18256500  0.50029100  0.99983500  1
  O  O9  1  0.71989200  0.64216500  0.85810100  1
  O  O10  1  0.21170000  0.17243700  0.08077400  1
  O  O11  1  0.78726100  0.08088300  0.82824300  1
  O  O12  1  0.21214500  0.82835400  0.91900400  1
  O  O13  1  0.78735400  0.67162300  0.41917200  1
loop_
_geom_bond_atom_site_label_1
_geom_bond_atom_site_label_2
_geom_bond_distance
_geom_bond_site_symmetry_2
Gd0 O8 2.302994 1_554
Gd0 O0 2.385190 1_555
Gd0 O4 2.394571 1_555
Gd0 O13 2.395831 1_555
Gd0 O3 2.490941 1_555
Gd0 O9 2.492838 1_554
Gd0 O1 2.619645 1_555
Gd0 O12 2.628316 1_554
Gd1 O8 2.303129 1_555
Gd1 O7 2.387323 1_555
Gd1 O2 2.396070 1_555
Gd1 O11 2.397103 1_555
Gd1 O3 2.491074 1_556
Gd1 O9 2.495716 1_555
Gd1 O10 2.620531 1_556
Gd1 O5 2.628457 1_555
Gd2 O6 2.302191 1_555
Gd2 O9 2.385315 1_555
Gd2 O12 2.393074 1_555
Gd2 O5 2.393182 1_555
Gd2 O7 2.490335 1_565
Gd2 O0 2.490403 1_555
Gd2 O11 2.625738 1_565
Gd2 O13 2.625819 1_555
Gd3 O6 2.306920 1_545
Gd3 O3 2.385652 1_555
Gd3 O10 2.400442 1_555
Gd3 O1 2.401333 1_555
Gd3 O7 2.493672 1_555
Gd3 O0 2.497156 1_545
Gd3 O2 2.626031 1_555
Gd3 O4 2.627532 1_545
Be0 O6 1.577345 1_545
Be0 O7 1.592658 1_655
Be0 O2 1.708948 1_555
Be0 O11 1.709959 1_555
Be1 O8 1.576685 1_554
Be1 O3 1.592762 1_455
Be1 O10 1.709651 1_555
Be1 O1 1.709711 1_555
Be2 O6 1.578151 1_555
Be2 O0 1.592235 1_655
Be2 O4 1.709615 1_555
Be2 O13 1.710342 1_555
Be3 O8 1.577895 1_555
Be3 O9 1.591703 1_455
Be3 O5 1.710779 1_555
Be3 O12 1.711057 1_555
Ge0 O12 1.758703 1_555
Ge0 O11 1.762520 1_465
Ge0 O4 1.764824 1_456
Ge0 O10 1.766889 1_566
Ge1 O13 1.759652 1_455
Ge1 O5 1.760467 1_555
Ge1 O1 1.765003 1_555
Ge1 O2 1.767715 1_455
