# generated using pymatgen
data_PrTlPd
_symmetry_space_group_name_H-M   'P 1'
_cell_length_a   18.46778392
_cell_length_b   18.46778392
_cell_length_c   6.48348200
_cell_angle_alpha   90.00000000
_cell_angle_beta   90.00000000
_cell_angle_gamma   119.99999970
_symmetry_Int_Tables_number   1
_chemical_formula_structural   PrTlPd
_chemical_formula_sum   'Pr24 Tl24 Pd24'
_cell_volume   1914.99882275
_cell_formula_units_Z   24
loop_
 _symmetry_equiv_pos_site_id
 _symmetry_equiv_pos_as_xyz
  1  'x, y, z'
loop_
 _atom_site_type_symbol
 _atom_site_label
 _atom_site_symmetry_multiplicity
 _atom_site_fract_x
 _atom_site_fract_y
 _atom_site_fract_z
 _atom_site_occupancy
  Pr  Pr0_0  1  0.00000000  0.31129300  0.25000000  1
  Pr  Pr0_1  1  0.00000000  0.31129300  0.75000000  1
  Pr  Pr0_2  1  0.00000000  0.81129300  0.25000000  1
  Pr  Pr0_3  1  0.00000000  0.81129300  0.75000000  1
  Pr  Pr0_4  1  0.50000000  0.31129300  0.25000000  1
  Pr  Pr0_5  1  0.50000000  0.31129300  0.75000000  1
  Pr  Pr0_6  1  0.50000000  0.81129300  0.25000000  1
  Pr  Pr0_7  1  0.50000000  0.81129300  0.75000000  1
  Pr  Pr1_0  1  0.31129300  0.00000000  0.25000000  1
  Pr  Pr1_1  1  0.31129300  0.00000000  0.75000000  1
  Pr  Pr1_2  1  0.31129300  0.50000000  0.25000000  1
  Pr  Pr1_3  1  0.31129300  0.50000000  0.75000000  1
  Pr  Pr1_4  1  0.81129300  0.00000000  0.25000000  1
  Pr  Pr1_5  1  0.81129300  0.00000000  0.75000000  1
  Pr  Pr1_6  1  0.81129300  0.50000000  0.25000000  1
  Pr  Pr1_7  1  0.81129300  0.50000000  0.75000000  1
  Pr  Pr2_0  1  0.18870700  0.18870700  0.25000000  1
  Pr  Pr2_1  1  0.18870700  0.18870700  0.75000000  1
  Pr  Pr2_2  1  0.18870700  0.68870700  0.25000000  1
  Pr  Pr2_3  1  0.18870700  0.68870700  0.75000000  1
  Pr  Pr2_4  1  0.68870700  0.18870700  0.25000000  1
  Pr  Pr2_5  1  0.68870700  0.18870700  0.75000000  1
  Pr  Pr2_6  1  0.68870700  0.68870700  0.25000000  1
  Pr  Pr2_7  1  0.68870700  0.68870700  0.75000000  1
  Tl  Tl0_0  1  0.00000000  0.14771850  0.25000000  1
  Tl  Tl0_1  1  0.00000000  0.14771850  0.75000000  1
  Tl  Tl0_2  1  0.00000000  0.64771850  0.25000000  1
  Tl  Tl0_3  1  0.00000000  0.64771850  0.75000000  1
  Tl  Tl0_4  1  0.50000000  0.14771850  0.25000000  1
  Tl  Tl0_5  1  0.50000000  0.14771850  0.75000000  1
  Tl  Tl0_6  1  0.50000000  0.64771850  0.25000000  1
  Tl  Tl0_7  1  0.50000000  0.64771850  0.75000000  1
  Tl  Tl1_0  1  0.14771850  0.00000000  0.25000000  1
  Tl  Tl1_1  1  0.14771850  0.00000000  0.75000000  1
  Tl  Tl1_2  1  0.14771850  0.50000000  0.25000000  1
  Tl  Tl1_3  1  0.14771850  0.50000000  0.75000000  1
  Tl  Tl1_4  1  0.64771850  0.00000000  0.25000000  1
  Tl  Tl1_5  1  0.64771850  0.00000000  0.75000000  1
  Tl  Tl1_6  1  0.64771850  0.50000000  0.25000000  1
  Tl  Tl1_7  1  0.64771850  0.50000000  0.75000000  1
  Tl  Tl2_0  1  0.35228150  0.35228150  0.25000000  1
  Tl  Tl2_1  1  0.35228150  0.35228150  0.75000000  1
  Tl  Tl2_2  1  0.35228150  0.85228150  0.25000000  1
  Tl  Tl2_3  1  0.35228150  0.85228150  0.75000000  1
  Tl  Tl2_4  1  0.85228150  0.35228150  0.25000000  1
  Tl  Tl2_5  1  0.85228150  0.35228150  0.75000000  1
  Tl  Tl2_6  1  0.85228150  0.85228150  0.25000000  1
  Tl  Tl2_7  1  0.85228150  0.85228150  0.75000000  1
  Pd  Pd0_0  1  0.00000000  0.00000000  0.25000000  1
  Pd  Pd0_1  1  0.00000000  0.00000000  0.75000000  1
  Pd  Pd0_2  1  0.00000000  0.50000000  0.25000000  1
  Pd  Pd0_3  1  0.00000000  0.50000000  0.75000000  1
  Pd  Pd0_4  1  0.50000000  0.00000000  0.25000000  1
  Pd  Pd0_5  1  0.50000000  0.00000000  0.75000000  1
  Pd  Pd0_6  1  0.50000000  0.50000000  0.25000000  1
  Pd  Pd0_7  1  0.50000000  0.50000000  0.75000000  1
  Pd  Pd1_0  1  0.33333350  0.16666650  0.00000000  1
  Pd  Pd1_1  1  0.33333350  0.16666650  0.50000000  1
  Pd  Pd1_2  1  0.33333350  0.66666650  0.00000000  1
  Pd  Pd1_3  1  0.33333350  0.66666650  0.50000000  1
  Pd  Pd1_4  1  0.83333350  0.16666650  0.00000000  1
  Pd  Pd1_5  1  0.83333350  0.16666650  0.50000000  1
  Pd  Pd1_6  1  0.83333350  0.66666650  0.00000000  1
  Pd  Pd1_7  1  0.83333350  0.66666650  0.50000000  1
  Pd  Pd2_0  1  0.16666650  0.33333350  0.00000000  1
  Pd  Pd2_1  1  0.16666650  0.33333350  0.50000000  1
  Pd  Pd2_2  1  0.16666650  0.83333350  0.00000000  1
  Pd  Pd2_3  1  0.16666650  0.83333350  0.50000000  1
  Pd  Pd2_4  1  0.66666650  0.33333350  0.00000000  1
  Pd  Pd2_5  1  0.66666650  0.33333350  0.50000000  1
  Pd  Pd2_6  1  0.66666650  0.83333350  0.00000000  1
  Pd  Pd2_7  1  0.66666650  0.83333350  0.50000000  1
loop_
_geom_bond_atom_site_label_1
_geom_bond_atom_site_label_2
_geom_bond_distance
_geom_bond_site_symmetry_2
Pr0_0 Tl0_0 3.020859 1_555
Pr0_0 Tl2_4 3.174932 1_455
Pr0_0 Tl1_2 3.174932 1_555
Pr0_0 Pr0_1 3.241741 1_555
Pr0_0 Pr0_1 3.241741 1_554
Pr0_1 Tl0_1 3.020859 1_555
Pr0_1 Tl2_5 3.174932 1_455
Pr0_1 Tl1_3 3.174932 1_555
Pr0_2 Tl0_2 3.020859 1_555
Pr0_2 Tl2_6 3.174932 1_455
Pr0_2 Tl1_0 3.174932 1_565
Pr0_2 Pr0_3 3.241741 1_555
Pr0_2 Pr0_3 3.241741 1_554
Pr0_3 Tl0_3 3.020859 1_555
Pr0_3 Tl2_7 3.174932 1_455
Pr0_3 Tl1_1 3.174932 1_565
Pr0_4 Tl0_4 3.020859 1_555
Pr0_4 Tl2_0 3.174932 1_555
Pr0_4 Tl1_6 3.174932 1_555
Pr0_4 Pr0_5 3.241741 1_555
Pr0_4 Pr0_5 3.241741 1_554
Pr0_5 Tl0_5 3.020859 1_555
Pr0_5 Tl2_1 3.174932 1_555
Pr0_5 Tl1_7 3.174932 1_555
Pr0_6 Tl0_6 3.020859 1_555
Pr0_6 Tl2_2 3.174932 1_555
Pr0_6 Tl1_4 3.174932 1_565
Pr0_6 Pr0_7 3.241741 1_555
Pr0_6 Pr0_7 3.241741 1_554
Pr0_7 Tl0_7 3.020859 1_555
Pr0_7 Tl2_3 3.174932 1_555
Pr0_7 Tl1_5 3.174932 1_565
Pr1_0 Tl1_0 3.020859 1_555
Pr1_0 Tl2_2 3.174932 1_545
Pr1_0 Tl0_4 3.174932 1_555
Pr1_0 Pr1_1 3.241741 1_555
Pr1_0 Pr1_1 3.241741 1_554
Pr1_1 Tl1_1 3.020859 1_555
Pr1_1 Tl2_3 3.174932 1_545
Pr1_1 Tl0_5 3.174932 1_555
Pr1_2 Tl1_2 3.020859 1_555
Pr1_2 Tl2_0 3.174932 1_555
Pr1_2 Tl0_6 3.174932 1_555
Pr1_2 Pr1_3 3.241741 1_555
Pr1_2 Pr1_3 3.241741 1_554
Pr1_3 Tl1_3 3.020859 1_555
Pr1_3 Tl2_1 3.174932 1_555
Pr1_3 Tl0_7 3.174932 1_555
Pr1_4 Tl1_4 3.020859 1_555
Pr1_4 Tl2_6 3.174932 1_545
Pr1_4 Tl0_0 3.174932 1_655
Pr1_4 Pr1_5 3.241741 1_555
Pr1_4 Pr1_5 3.241741 1_554
Pr1_5 Tl1_5 3.020859 1_555
Pr1_5 Tl2_7 3.174932 1_545
Pr1_5 Tl0_1 3.174932 1_655
Pr1_6 Tl1_6 3.020859 1_555
Pr1_6 Tl2_4 3.174932 1_555
Pr1_6 Tl0_2 3.174932 1_655
Pr1_6 Pr1_7 3.241741 1_555
Pr1_6 Pr1_7 3.241741 1_554
Pr1_7 Tl1_7 3.020859 1_555
Pr1_7 Tl2_5 3.174932 1_555
Pr1_7 Tl0_3 3.174932 1_655
Pr2_0 Tl2_0 3.020859 1_555
Pr2_0 Tl1_0 3.174932 1_555
Pr2_0 Tl0_0 3.174932 1_555
Pr2_0 Pr2_1 3.241741 1_555
Pr2_0 Pr2_1 3.241741 1_554
Pr2_1 Tl2_1 3.020859 1_555
Pr2_1 Tl1_1 3.174932 1_555
Pr2_1 Tl0_1 3.174932 1_555
Pr2_2 Tl2_2 3.020859 1_555
Pr2_2 Tl1_2 3.174932 1_555
Pr2_2 Tl0_2 3.174932 1_555
Pr2_2 Pr2_3 3.241741 1_555
Pr2_2 Pr2_3 3.241741 1_554
Pr2_3 Tl2_3 3.020859 1_555
Pr2_3 Tl1_3 3.174932 1_555
Pr2_3 Tl0_3 3.174932 1_555
Pr2_4 Tl2_4 3.020859 1_555
Pr2_4 Tl0_4 3.174932 1_555
Pr2_4 Tl1_4 3.174932 1_555
Pr2_4 Pr2_5 3.241741 1_555
Pr2_4 Pr2_5 3.241741 1_554
Pr2_5 Tl2_5 3.020859 1_555
Pr2_5 Tl0_5 3.174932 1_555
Pr2_5 Tl1_5 3.174932 1_555
Pr2_6 Tl2_6 3.020859 1_555
Pr2_6 Tl1_6 3.174932 1_555
Pr2_6 Tl0_6 3.174932 1_555
Pr2_6 Pr2_7 3.241741 1_555
Pr2_6 Pr2_7 3.241741 1_554
Pr2_7 Tl2_7 3.020859 1_555
Pr2_7 Tl1_7 3.174932 1_555
Pr2_7 Tl0_7 3.174932 1_555
Tl0_0 Tl0_1 3.241741 1_555
Tl0_0 Tl0_1 3.241741 1_554
Tl0_2 Tl0_3 3.241741 1_555
Tl0_2 Tl0_3 3.241741 1_554
Tl0_4 Tl0_5 3.241741 1_555
Tl0_4 Tl0_5 3.241741 1_554
Tl0_6 Tl0_7 3.241741 1_555
Tl0_6 Tl0_7 3.241741 1_554
Tl1_0 Tl1_1 3.241741 1_555
Tl1_0 Tl1_1 3.241741 1_554
Tl1_2 Tl1_3 3.241741 1_555
Tl1_2 Tl1_3 3.241741 1_554
Tl1_4 Tl1_5 3.241741 1_555
Tl1_4 Tl1_5 3.241741 1_554
Tl1_6 Tl1_7 3.241741 1_555
Tl1_6 Tl1_7 3.241741 1_554
Tl2_0 Tl2_1 3.241741 1_555
Tl2_0 Tl2_1 3.241741 1_554
Tl2_2 Tl2_3 3.241741 1_555
Tl2_2 Tl2_3 3.241741 1_554
Tl2_4 Tl2_5 3.241741 1_555
Tl2_4 Tl2_5 3.241741 1_554
Tl2_6 Tl2_7 3.241741 1_555
Tl2_6 Tl2_7 3.241741 1_554
Pd0_0 Tl1_0 2.728033 1_555
Pd0_0 Tl0_0 2.728033 1_555
Pd0_0 Tl2_6 2.728033 1_445
Pd0_0 Pd0_1 3.241741 1_555
Pd0_0 Pd0_1 3.241741 1_554
Pd0_0 Pr1_4 3.485000 1_455
Pd0_0 Pr0_2 3.485000 1_545
Pd0_0 Pr2_0 3.485000 1_555
Pd0_1 Tl1_1 2.728033 1_555
Pd0_1 Tl0_1 2.728033 1_555
Pd0_1 Tl2_7 2.728033 1_445
Pd0_1 Pr1_5 3.485000 1_455
Pd0_1 Pr0_3 3.485000 1_545
Pd0_1 Pr2_1 3.485000 1_555
Pd0_2 Tl1_2 2.728033 1_555
Pd0_2 Tl0_2 2.728033 1_555
Pd0_2 Tl2_4 2.728033 1_455
Pd0_2 Pd0_3 3.241741 1_555
Pd0_2 Pd0_3 3.241741 1_554
Pd0_2 Pr0_0 3.485000 1_555
Pd0_2 Pr1_6 3.485000 1_455
Pd0_2 Pr2_2 3.485000 1_555
Pd0_3 Tl1_3 2.728033 1_555
Pd0_3 Tl0_3 2.728033 1_555
Pd0_3 Tl2_5 2.728033 1_455
Pd0_3 Pr0_1 3.485000 1_555
Pd0_3 Pr1_7 3.485000 1_455
Pd0_3 Pr2_3 3.485000 1_555
Pd0_4 Tl1_4 2.728033 1_555
Pd0_4 Tl0_4 2.728033 1_555
Pd0_4 Tl2_2 2.728033 1_545
Pd0_4 Pd0_5 3.241741 1_555
Pd0_4 Pd0_5 3.241741 1_554
Pd0_4 Pr0_6 3.485000 1_545
Pd0_4 Pr1_0 3.485000 1_555
Pd0_4 Pr2_4 3.485000 1_555
Pd0_5 Tl1_5 2.728033 1_555
Pd0_5 Tl0_5 2.728033 1_555
Pd0_5 Tl2_3 2.728033 1_545
Pd0_5 Pr0_7 3.485000 1_545
Pd0_5 Pr1_1 3.485000 1_555
Pd0_5 Pr2_5 3.485000 1_555
Pd0_6 Tl0_6 2.728033 1_555
Pd0_6 Tl1_6 2.728033 1_555
Pd0_6 Tl2_0 2.728033 1_555
Pd0_6 Pd0_7 3.241741 1_555
Pd0_6 Pd0_7 3.241741 1_554
Pd0_6 Pr0_4 3.485000 1_555
Pd0_6 Pr1_2 3.485000 1_555
Pd0_6 Pr2_6 3.485000 1_555
Pd0_7 Tl0_7 2.728033 1_555
Pd0_7 Tl1_7 2.728033 1_555
Pd0_7 Tl2_1 2.728033 1_555
Pd0_7 Pr0_5 3.485000 1_555
Pd0_7 Pr1_3 3.485000 1_555
Pd0_7 Pr2_7 3.485000 1_555
Pd1_0 Pd1_1 3.241741 1_555
Pd1_0 Pd1_1 3.241741 1_554
Pd1_0 Pr1_0 3.318719 1_555
Pd1_0 Pr1_1 3.318719 1_554
Pd1_0 Pr0_4 3.318722 1_555
Pd1_0 Pr0_5 3.318722 1_554
Pd1_0 Pr2_0 3.318727 1_555
Pd1_0 Pr2_1 3.318727 1_554
Pd1_1 Pr1_0 3.318719 1_555
Pd1_1 Pr1_1 3.318719 1_555
Pd1_1 Pr0_5 3.318722 1_555
Pd1_1 Pr0_4 3.318722 1_555
Pd1_1 Pr2_1 3.318727 1_555
Pd1_1 Pr2_0 3.318727 1_555
Pd1_2 Pd1_3 3.241741 1_555
Pd1_2 Pd1_3 3.241741 1_554
Pd1_2 Pr1_2 3.318719 1_555
Pd1_2 Pr1_3 3.318719 1_554
Pd1_2 Pr0_6 3.318722 1_555
Pd1_2 Pr0_7 3.318722 1_554
Pd1_2 Pr2_2 3.318727 1_555
Pd1_2 Pr2_3 3.318727 1_554
Pd1_3 Pr1_3 3.318719 1_555
Pd1_3 Pr1_2 3.318719 1_555
Pd1_3 Pr0_7 3.318722 1_555
Pd1_3 Pr0_6 3.318722 1_555
Pd1_3 Pr2_3 3.318727 1_555
Pd1_3 Pr2_2 3.318727 1_555
Pd1_4 Pd1_5 3.241741 1_555
Pd1_4 Pd1_5 3.241741 1_554
Pd1_4 Pr1_4 3.318719 1_555
Pd1_4 Pr1_5 3.318719 1_554
Pd1_4 Pr0_0 3.318722 1_655
Pd1_4 Pr0_1 3.318722 1_654
Pd1_4 Pr2_4 3.318727 1_555
Pd1_4 Pr2_5 3.318727 1_554
Pd1_5 Pr1_4 3.318719 1_555
Pd1_5 Pr1_5 3.318719 1_555
Pd1_5 Pr0_0 3.318722 1_655
Pd1_5 Pr0_1 3.318722 1_655
Pd1_5 Pr2_4 3.318727 1_555
Pd1_5 Pr2_5 3.318727 1_555
Pd1_6 Pd1_7 3.241741 1_555
Pd1_6 Pd1_7 3.241741 1_554
Pd1_6 Pr1_6 3.318719 1_555
Pd1_6 Pr1_7 3.318719 1_554
Pd1_6 Pr0_2 3.318722 1_655
Pd1_6 Pr0_3 3.318722 1_654
Pd1_6 Pr2_6 3.318727 1_555
Pd1_6 Pr2_7 3.318727 1_554
Pd1_7 Pr1_6 3.318719 1_555
Pd1_7 Pr1_7 3.318719 1_555
Pd1_7 Pr0_2 3.318722 1_655
Pd1_7 Pr0_3 3.318722 1_655
Pd1_7 Pr2_7 3.318727 1_555
Pd1_7 Pr2_6 3.318727 1_555
Pd2_0 Pd2_1 3.241741 1_555
Pd2_0 Pd2_1 3.241741 1_554
Pd2_0 Pr0_0 3.318719 1_555
Pd2_0 Pr0_1 3.318719 1_554
Pd2_0 Pr1_2 3.318722 1_555
Pd2_0 Pr1_3 3.318722 1_554
Pd2_0 Pr2_0 3.318727 1_555
Pd2_0 Pr2_1 3.318727 1_554
Pd2_1 Pr0_0 3.318719 1_555
Pd2_1 Pr0_1 3.318719 1_555
Pd2_1 Pr1_3 3.318722 1_555
Pd2_1 Pr1_2 3.318722 1_555
Pd2_1 Pr2_1 3.318727 1_555
Pd2_1 Pr2_0 3.318727 1_555
Pd2_2 Pd2_3 3.241741 1_555
Pd2_2 Pd2_3 3.241741 1_554
Pd2_2 Pr0_2 3.318719 1_555
Pd2_2 Pr0_3 3.318719 1_554
Pd2_2 Pr1_0 3.318722 1_565
Pd2_2 Pr1_1 3.318722 1_564
Pd2_2 Pr2_2 3.318727 1_555
Pd2_2 Pr2_3 3.318727 1_554
Pd2_3 Pr0_3 3.318719 1_555
Pd2_3 Pr0_2 3.318719 1_555
Pd2_3 Pr1_0 3.318722 1_565
Pd2_3 Pr1_1 3.318722 1_565
Pd2_3 Pr2_2 3.318727 1_555
Pd2_3 Pr2_3 3.318727 1_555
Pd2_4 Pd2_5 3.241741 1_555
Pd2_4 Pd2_5 3.241741 1_554
Pd2_4 Pr0_4 3.318719 1_555
Pd2_4 Pr0_5 3.318719 1_554
Pd2_4 Pr1_6 3.318722 1_555
Pd2_4 Pr1_7 3.318722 1_554
Pd2_4 Pr2_4 3.318727 1_555
Pd2_4 Pr2_5 3.318727 1_554
Pd2_5 Pr0_4 3.318719 1_555
Pd2_5 Pr0_5 3.318719 1_555
Pd2_5 Pr1_7 3.318722 1_555
Pd2_5 Pr1_6 3.318722 1_555
Pd2_5 Pr2_5 3.318727 1_555
Pd2_5 Pr2_4 3.318727 1_555
Pd2_6 Pd2_7 3.241741 1_555
Pd2_6 Pd2_7 3.241741 1_554
Pd2_6 Pr0_6 3.318719 1_555
Pd2_6 Pr0_7 3.318719 1_554
Pd2_6 Pr1_4 3.318722 1_565
Pd2_6 Pr1_5 3.318722 1_564
Pd2_6 Pr2_6 3.318727 1_555
Pd2_6 Pr2_7 3.318727 1_554
Pd2_7 Pr0_6 3.318719 1_555
Pd2_7 Pr0_7 3.318719 1_555
Pd2_7 Pr1_4 3.318722 1_565
Pd2_7 Pr1_5 3.318722 1_565
Pd2_7 Pr2_7 3.318727 1_555
Pd2_7 Pr2_6 3.318727 1_555
