# generated using pymatgen
data_LiVTeO5
_symmetry_space_group_name_H-M   'P 1'
_cell_length_a   6.00915400
_cell_length_b   8.28086400
_cell_length_c   10.55565700
_cell_angle_alpha   90.00000000
_cell_angle_beta   90.00000000
_cell_angle_gamma   90.00000000
_symmetry_Int_Tables_number   1
_chemical_formula_structural   LiVTeO5
_chemical_formula_sum   'Li4 V4 Te4 O20'
_cell_volume   525.25991106
_cell_formula_units_Z   4
loop_
 _symmetry_equiv_pos_site_id
 _symmetry_equiv_pos_as_xyz
  1  'x, y, z'
loop_
 _atom_site_type_symbol
 _atom_site_label
 _atom_site_symmetry_multiplicity
 _atom_site_fract_x
 _atom_site_fract_y
 _atom_site_fract_z
 _atom_site_occupancy
  Li  Li0  1  0.15448500  0.07962300  0.94406800  1
  Li  Li1  1  0.84551500  0.57962300  0.55593200  1
  Li  Li2  1  0.65448500  0.42037700  0.05593200  1
  Li  Li3  1  0.34551500  0.92037700  0.44406800  1
  V  V0  1  0.95638400  0.98509600  0.64500200  1
  V  V1  1  0.45638400  0.51490400  0.35499800  1
  V  V2  1  0.04361600  0.48509600  0.85499800  1
  V  V3  1  0.54361600  0.01490400  0.14500200  1
  Te  Te0  1  0.87163200  0.14354200  0.36317700  1
  Te  Te1  1  0.62836800  0.85645800  0.86317700  1
  Te  Te2  1  0.12836800  0.64354200  0.13682300  1
  Te  Te3  1  0.37163200  0.35645800  0.63682300  1
  O  O0  1  0.43063400  0.02190200  0.85952800  1
  O  O1  1  0.27142800  0.00738400  0.11583100  1
  O  O2  1  0.14994600  0.30965300  0.90006200  1
  O  O3  1  0.22857200  0.99261600  0.61583100  1
  O  O4  1  0.64994600  0.19034700  0.09993800  1
  O  O5  1  0.06936600  0.97809800  0.35952800  1
  O  O6  1  0.77142800  0.49261600  0.88416900  1
  O  O7  1  0.85005400  0.80965300  0.59993800  1
  O  O8  1  0.72857200  0.50738400  0.38416900  1
  O  O9  1  0.10681600  0.49200800  0.68129800  1
  O  O10  1  0.67996700  0.85239900  0.04738700  1
  O  O11  1  0.89318400  0.99200800  0.81870200  1
  O  O12  1  0.32003300  0.35239900  0.45261300  1
  O  O13  1  0.17996700  0.64760100  0.95261300  1
  O  O14  1  0.56936600  0.52190200  0.64047200  1
  O  O15  1  0.60681600  0.00799200  0.31870200  1
  O  O16  1  0.39318400  0.50799200  0.18129800  1
  O  O17  1  0.93063400  0.47809800  0.14047200  1
  O  O18  1  0.82003300  0.14760100  0.54738700  1
  O  O19  1  0.35005400  0.69034700  0.40006200  1
loop_
_geom_bond_atom_site_label_1
_geom_bond_atom_site_label_2
_geom_bond_distance
_geom_bond_site_symmetry_2
Li0 O0 1.943831 1_555
Li0 O2 1.960857 1_555
Li0 O1 2.034429 1_556
Li0 O11 2.177864 1_445
Li1 O14 1.943831 1_555
Li1 O7 1.960857 1_555
Li1 O8 2.034429 1_555
Li1 O9 2.177864 1_655
Li2 O17 1.943831 1_555
Li2 O4 1.960857 1_555
Li2 O6 2.034429 1_554
Li2 O16 2.177864 1_555
Li3 O5 1.943831 1_555
Li3 O19 1.960857 1_555
Li3 O3 2.034429 1_555
Li3 O15 2.177864 1_565
O0 Te1 1.813915 1_545
O1 V3 1.665516 1_555
O2 V2 1.656870 1_555
O3 V0 1.665516 1_455
O4 V3 1.656870 1_555
O5 Te0 1.813915 1_465
O6 V2 1.665516 1_655
O7 V0 1.656870 1_555
O8 V1 1.665516 1_555
O9 V2 1.873311 1_555
O9 Te3 2.003157 1_555
O10 V3 1.882526 1_565
O10 Te1 1.969311 1_554
O11 V0 1.873311 1_555
O11 Te1 2.003157 1_555
O12 V1 1.882526 1_555
O12 Te3 1.969311 1_555
O13 V2 1.882526 1_555
O13 Te2 1.969311 1_556
O14 Te3 1.813915 1_555
O15 V3 1.873311 1_555
O15 Te0 2.003157 1_555
O16 V1 1.873311 1_555
O16 Te2 2.003157 1_555
O17 Te2 1.813915 1_655
O18 V0 1.882526 1_545
O18 Te0 1.969311 1_555
O19 V1 1.656870 1_555
