# generated using pymatgen
data_ReW2Br
_symmetry_space_group_name_H-M   'P 1'
_cell_length_a   4.54532057
_cell_length_b   4.54532057
_cell_length_c   4.54532057
_cell_angle_alpha   60.00000000
_cell_angle_beta   60.00000000
_cell_angle_gamma   60.00000000
_symmetry_Int_Tables_number   1
_chemical_formula_structural   ReW2Br
_chemical_formula_sum   'Re1 W2 Br1'
_cell_volume   66.40160213
_cell_formula_units_Z   1
loop_
 _symmetry_equiv_pos_site_id
 _symmetry_equiv_pos_as_xyz
  1  'x, y, z'
loop_
 _atom_site_type_symbol
 _atom_site_label
 _atom_site_symmetry_multiplicity
 _atom_site_fract_x
 _atom_site_fract_y
 _atom_site_fract_z
 _atom_site_occupancy
  Re  Re0  1  0.75000000  0.75000000  0.75000000  1
  W  W0  1  0.00000000  0.00000000  0.00000000  1
  W  W1  1  0.25000000  0.25000000  0.25000000  1
  Br  Br0  1  0.50000000  0.50000000  0.50000000  1
loop_
_geom_bond_atom_site_label_1
_geom_bond_atom_site_label_2
_geom_bond_distance
_geom_bond_site_symmetry_2
Re0 W0 2.783429 1_665
Re0 W0 2.783429 1_666
Re0 W0 2.783429 1_656
Re0 W0 2.783429 1_566
W0 W1 2.783429 1_545
W0 W1 2.783429 1_555
W0 W1 2.783429 1_554
W0 W1 2.783429 1_455
Br0 W1 2.783429 1_555
Br0 W1 2.783429 1_565
Br0 Re0 2.783429 1_555
Br0 Re0 2.783429 1_554
Br0 W1 2.783429 1_556
Br0 Re0 2.783429 1_545
Br0 W1 2.783429 1_655
Br0 Re0 2.783429 1_455
Br0 W0 3.214027 1_665
Br0 W0 3.214027 1_656
Br0 W0 3.214027 1_565
Br0 W0 3.214027 1_566
Br0 W0 3.214027 1_655
Br0 W0 3.214027 1_556
