# generated using pymatgen
data_La2Ge5Ru3
_symmetry_space_group_name_H-M   'P 1'
_cell_length_a   8.59982008
_cell_length_b   8.59982008
_cell_length_c   8.59982008
_cell_angle_alpha   139.51197858
_cell_angle_beta   108.36665829
_cell_angle_gamma   85.66208798
_symmetry_Int_Tables_number   1
_chemical_formula_structural   La2Ge5Ru3
_chemical_formula_sum   'La4 Ge10 Ru6'
_cell_volume   377.78593726
_cell_formula_units_Z   2
loop_
 _symmetry_equiv_pos_site_id
 _symmetry_equiv_pos_as_xyz
  1  'x, y, z'
loop_
 _atom_site_type_symbol
 _atom_site_label
 _atom_site_symmetry_multiplicity
 _atom_site_fract_x
 _atom_site_fract_y
 _atom_site_fract_z
 _atom_site_occupancy
  La  La0  1  0.63263100  0.36441100  0.26822000  1
  La  La1  1  0.09619100  0.86441100  0.23178000  1
  La  La2  1  0.90380900  0.13558900  0.76822000  1
  La  La3  1  0.36736900  0.63558900  0.73178000  1
  Ge  Ge0  1  0.23963800  0.40794900  0.83168900  1
  Ge  Ge1  1  0.28826200  0.03826200  0.75000000  1
  Ge  Ge2  1  0.71173800  0.46173800  0.75000000  1
  Ge  Ge3  1  0.42374000  0.09205100  0.33168900  1
  Ge  Ge4  1  0.00000000  0.25000000  0.25000000  1
  Ge  Ge5  1  0.76036200  0.59205100  0.16831100  1
  Ge  Ge6  1  0.57626000  0.90794900  0.66831100  1
  Ge  Ge7  1  0.28826200  0.53826200  0.25000000  1
  Ge  Ge8  1  0.71173800  0.96173800  0.25000000  1
  Ge  Ge9  1  0.00000000  0.75000000  0.75000000  1
  Ru  Ru0  1  0.94905800  0.35479900  0.59425900  1
  Ru  Ru1  1  0.23945900  0.14520100  0.09425900  1
  Ru  Ru2  1  0.05094200  0.64520100  0.40574100  1
  Ru  Ru3  1  0.76054100  0.85479900  0.90574100  1
  Ru  Ru4  1  0.50000000  0.75000000  0.25000000  1
  Ru  Ru5  1  0.50000000  0.25000000  0.75000000  1
loop_
_geom_bond_atom_site_label_1
_geom_bond_atom_site_label_2
_geom_bond_distance
_geom_bond_site_symmetry_2
La0 Ru1 3.272791 1_555
La0 Ru0 3.283861 1_555
La0 Ru3 3.284114 1_555
La0 Ru3 3.284119 1_544
La0 Ru4 3.525179 1_555
La0 Ru5 3.525179 1_554
La1 Ru2 3.272783 1_555
La1 Ru3 3.283855 1_454
La1 Ru0 3.284115 1_454
La1 Ru0 3.284115 1_465
La1 Ru4 3.525179 1_555
La1 Ru5 3.525179 1_565
La2 Ru0 3.272783 1_555
La2 Ru1 3.283855 1_656
La2 Ru2 3.284115 1_645
La2 Ru2 3.284115 1_656
La2 Ru5 3.525179 1_555
La2 Ru4 3.525179 1_545
La3 Ru3 3.272791 1_555
La3 Ru2 3.283861 1_555
La3 Ru1 3.284114 1_555
La3 Ru1 3.284119 1_566
La3 Ru5 3.525179 1_555
La3 Ru4 3.525179 1_556
Ge0 Ru0 2.482017 1_455
Ge0 Ru4 2.536081 1_556
Ge0 Ru5 2.536081 1_555
Ge0 Ge1 2.713430 1_555
Ge0 Ge7 2.713430 1_556
Ge0 La3 3.042347 1_555
Ge0 La1 3.188668 1_556
Ge0 La1 3.188668 1_545
Ge0 La2 3.494318 1_455
Ge1 Ru2 2.523892 1_545
Ge1 Ru1 2.523897 1_556
Ge1 Ru5 2.670769 1_555
Ge1 Ge6 2.713430 1_545
Ge1 Ge7 2.975701 1_545
Ge1 Ge7 2.975701 1_556
Ge1 La1 3.228696 1_545
Ge1 La0 3.228696 1_556
Ge1 La2 3.371143 1_455
Ge1 La3 3.371143 1_545
Ge2 Ru0 2.523892 1_555
Ge2 Ru3 2.523893 1_555
Ge2 Ru5 2.670769 1_555
Ge2 Ge3 2.713430 1_555
Ge2 Ge5 2.713430 1_556
Ge2 Ge8 2.975701 1_556
Ge2 Ge8 2.975701 1_545
Ge2 La3 3.228696 1_555
Ge2 La2 3.228696 1_555
Ge2 La1 3.371143 1_656
Ge2 La0 3.371143 1_555
Ge3 Ru1 2.482020 1_555
Ge3 Ru5 2.536081 1_555
Ge3 Ru4 2.536081 1_545
Ge3 Ge8 2.713430 1_545
Ge3 La1 3.042347 1_545
Ge3 La3 3.188668 1_544
Ge3 La3 3.188668 1_555
Ge3 La0 3.494318 1_555
Ge4 Ru1 2.543254 1_555
Ge4 Ru3 2.543257 1_444
Ge4 Ru0 2.543262 1_455
Ge4 Ru2 2.543262 1_555
Ge4 La2 3.252857 1_454
Ge4 La3 3.252857 1_555
Ge4 La1 3.252857 1_545
Ge4 La0 3.252857 1_455
Ge5 Ru2 2.482017 1_655
Ge5 Ru5 2.536081 1_554
Ge5 Ru4 2.536081 1_555
Ge5 Ge8 2.713430 1_555
Ge5 La0 3.042347 1_555
Ge5 La2 3.188668 1_554
Ge5 La2 3.188668 1_565
Ge5 La1 3.494318 1_655
Ge6 Ru3 2.482020 1_555
Ge6 Ru4 2.536081 1_555
Ge6 Ru5 2.536081 1_565
Ge6 Ge7 2.713430 1_555
Ge6 La2 3.042347 1_565
Ge6 La0 3.188668 1_555
Ge6 La0 3.188668 1_566
Ge6 La3 3.494318 1_555
Ge7 Ru2 2.523892 1_555
Ge7 Ru1 2.523893 1_555
Ge7 Ru4 2.670769 1_555
Ge7 La1 3.228696 1_555
Ge7 La0 3.228696 1_555
Ge7 La2 3.371143 1_454
Ge7 La3 3.371143 1_555
Ge8 Ru0 2.523892 1_565
Ge8 Ru3 2.523897 1_554
Ge8 Ru4 2.670769 1_555
Ge8 La3 3.228696 1_554
Ge8 La2 3.228696 1_565
Ge8 La1 3.371143 1_655
Ge8 La0 3.371143 1_565
Ge9 Ru3 2.543254 1_455
Ge9 Ru1 2.543257 1_566
Ge9 Ru0 2.543262 1_455
Ge9 Ru2 2.543262 1_555
Ge9 La2 3.252857 1_465
Ge9 La3 3.252857 1_555
Ge9 La0 3.252857 1_455
Ge9 La1 3.252857 1_556
