# generated using pymatgen
data_KCaNb2O6F
_symmetry_space_group_name_H-M   'P 1'
_cell_length_a   7.59240212
_cell_length_b   7.59240212
_cell_length_c   7.59240212
_cell_angle_alpha   120.91047724
_cell_angle_beta   119.49440206
_cell_angle_gamma   89.65412201
_symmetry_Int_Tables_number   1
_chemical_formula_structural   KCaNb2O6F
_chemical_formula_sum   'K2 Ca2 Nb4 O12 F2'
_cell_volume   308.46051124
_cell_formula_units_Z   2
loop_
 _symmetry_equiv_pos_site_id
 _symmetry_equiv_pos_as_xyz
  1  'x, y, z'
loop_
 _atom_site_type_symbol
 _atom_site_label
 _atom_site_symmetry_multiplicity
 _atom_site_fract_x
 _atom_site_fract_y
 _atom_site_fract_z
 _atom_site_occupancy
  K  K0  1  0.00000000  0.50000000  0.00000000  1
  K  K1  1  0.00000000  0.00000000  0.50000000  1
  Ca  Ca0  1  0.00000000  0.50000000  0.50000000  1
  Ca  Ca1  1  0.50000000  0.50000000  0.00000000  1
  Nb  Nb0  1  0.50000000  0.00000000  0.50000000  1
  Nb  Nb1  1  0.50000000  0.50000000  0.50000000  1
  Nb  Nb2  1  0.00000000  0.00000000  0.00000000  1
  Nb  Nb3  1  0.50000000  0.00000000  0.00000000  1
  O  O0  1  0.18673100  0.92793000  0.86977700  1
  O  O1  1  0.19124500  0.94124500  0.25000000  1
  O  O2  1  0.18673100  0.31695400  0.25880100  1
  O  O3  1  0.55815300  0.92793000  0.24119900  1
  O  O4  1  0.44184700  0.68304600  0.36977700  1
  O  O5  1  0.43119300  0.68119300  0.75000000  1
  O  O6  1  0.56880600  0.31880600  0.25000000  1
  O  O7  1  0.55815300  0.31695400  0.63022300  1
  O  O8  1  0.44184700  0.07207000  0.75880100  1
  O  O9  1  0.81326900  0.68304600  0.74119900  1
  O  O10  1  0.80875500  0.05875500  0.75000000  1
  O  O11  1  0.81326900  0.07207000  0.13022300  1
  F  F0  1  0.84680200  0.59680200  0.25000000  1
  F  F1  1  0.15319800  0.40319800  0.75000000  1
loop_
_geom_bond_atom_site_label_1
_geom_bond_atom_site_label_2
_geom_bond_distance
_geom_bond_site_symmetry_2
K0 O1 2.783199 1_555
K0 O10 2.783199 1_454
K0 O4 2.800189 1_555
K0 O7 2.800189 1_454
K0 O9 2.800189 1_454
K0 O2 2.800189 1_555
K1 O1 2.783199 1_545
K1 O10 2.783199 1_455
K1 O0 2.800189 1_545
K1 O11 2.800189 1_455
K1 O8 2.800189 1_555
K1 O3 2.800189 1_445
Ca0 F0 2.178266 1_455
Ca0 F1 2.178266 1_555
Ca0 O2 2.685690 1_555
Ca0 O0 2.685690 1_555
Ca0 O11 2.685690 1_455
Ca0 O9 2.685690 1_455
Ca0 O5 2.732377 1_555
Ca0 O6 2.732385 1_455
Ca1 F0 2.178266 1_555
Ca1 F1 2.178266 1_554
Ca1 O4 2.685690 1_555
Ca1 O7 2.685690 1_554
Ca1 O8 2.685690 1_554
Ca1 O3 2.685690 1_555
Ca1 O5 2.732377 1_554
Ca1 O6 2.732385 1_555
Nb0 O1 2.014544 1_545
Nb0 O10 2.014544 1_555
Nb0 O7 2.025335 1_555
Nb0 O3 2.025335 1_545
Nb0 O8 2.025335 1_555
Nb0 O4 2.025335 1_545
Nb1 O6 2.013253 1_555
Nb1 O5 2.013257 1_555
Nb1 O9 2.019495 1_555
Nb1 O4 2.019495 1_555
Nb1 O7 2.019495 1_555
Nb1 O2 2.019495 1_555
Nb2 O10 2.014544 1_454
Nb2 O1 2.014544 1_545
Nb2 O2 2.025335 1_555
Nb2 O0 2.025335 1_544
Nb2 O11 2.025335 1_455
Nb2 O9 2.025335 1_444
Nb3 O6 2.013253 1_555
Nb3 O5 2.013257 1_544
Nb3 O11 2.019495 1_555
Nb3 O3 2.019495 1_545
Nb3 O8 2.019495 1_554
Nb3 O0 2.019495 1_544
F0 K0 2.495237 1_655
F0 K1 2.495237 1_665
F1 K0 2.495237 1_556
F1 K1 2.495237 1_555
