# generated using pymatgen
data_Yb(SbTe2)2
_symmetry_space_group_name_H-M   'P 1'
_cell_length_a   8.49473897
_cell_length_b   8.49473897
_cell_length_c   8.49473897
_cell_angle_alpha   108.89032079
_cell_angle_beta   108.89032079
_cell_angle_gamma   110.63937363
_symmetry_Int_Tables_number   1
_chemical_formula_structural   Yb(SbTe2)2
_chemical_formula_sum   'Yb2 Sb4 Te8'
_cell_volume   471.72891000
_cell_formula_units_Z   2
loop_
 _symmetry_equiv_pos_site_id
 _symmetry_equiv_pos_as_xyz
  1  'x, y, z'
loop_
 _atom_site_type_symbol
 _atom_site_label
 _atom_site_symmetry_multiplicity
 _atom_site_fract_x
 _atom_site_fract_y
 _atom_site_fract_z
 _atom_site_occupancy
  Yb  Yb0  1  0.25000000  0.75000000  0.50000000  1
  Yb  Yb1  1  0.00000000  0.00000000  0.00000000  1
  Sb  Sb0  1  0.61579100  0.87500000  0.24079100  1
  Sb  Sb1  1  0.63420900  0.37500000  0.75920900  1
  Sb  Sb2  1  0.12500000  0.36579100  0.74079100  1
  Sb  Sb3  1  0.62500000  0.38420900  0.25920900  1
  Te  Te0  1  0.96689300  0.62584900  0.71872800  1
  Te  Te1  1  0.49816500  0.65712100  0.78127200  1
  Te  Te2  1  0.34287900  0.12415100  0.84104400  1
  Te  Te3  1  0.87584900  0.71689300  0.21872800  1
  Te  Te4  1  0.75183500  0.03310700  0.65895600  1
  Te  Te5  1  0.90712100  0.24816500  0.28127200  1
  Te  Te6  1  0.37415100  0.09287900  0.34104300  1
  Te  Te7  1  0.28310700  0.50183500  0.15895600  1
loop_
_geom_bond_atom_site_label_1
_geom_bond_atom_site_label_2
_geom_bond_distance
_geom_bond_site_symmetry_2
Sb0 Te3 2.985964 1_555
Sb0 Te4 2.985964 1_565
Sb0 Te7 3.082853 1_555
Sb0 Te5 3.082853 1_565
Sb0 Te6 3.339734 1_565
Sb0 Te1 3.339737 1_554
Sb1 Te1 2.985964 1_555
Sb1 Te6 2.985970 1_555
Sb1 Te0 3.082853 1_555
Sb1 Te2 3.082853 1_555
Sb1 Te3 3.339737 1_556
Sb1 Te4 3.339737 1_555
Sb2 Te7 2.985964 1_556
Sb2 Te0 2.985964 1_455
Sb2 Te4 3.082853 1_455
Sb2 Te1 3.082853 1_555
Sb2 Te5 3.339737 1_455
Sb2 Te2 3.339737 1_555
Sb3 Te2 2.985964 1_554
Sb3 Te5 2.985964 1_555
Sb3 Te6 3.082847 1_555
Sb3 Te3 3.082853 1_555
Sb3 Te0 3.339737 1_555
Sb3 Te7 3.339737 1_555
Te0 Yb1 3.147567 1_666
Te0 Yb0 3.566845 1_655
Te1 Yb0 3.147567 1_555
Te1 Yb1 3.566845 1_666
Te2 Yb0 3.147567 1_545
Te2 Yb1 3.566845 1_556
Te3 Yb0 3.147567 1_655
Te3 Yb1 3.566845 1_665
Te4 Yb1 3.147567 1_656
Te4 Yb0 3.566845 1_545
Te5 Yb1 3.147567 1_655
Te5 Yb0 3.566845 1_655
Te6 Yb1 3.147563 1_555
Te6 Yb0 3.566851 1_545
Te7 Yb0 3.147567 1_555
Te7 Yb1 3.566845 1_555
