# generated using pymatgen
data_MgZn2H12(BrO)6
_symmetry_space_group_name_H-M   'P 1'
_cell_length_a   8.49566836
_cell_length_b   8.49566836
_cell_length_c   8.49566836
_cell_angle_alpha   121.58349478
_cell_angle_beta   104.77856415
_cell_angle_gamma   102.77808202
_symmetry_Int_Tables_number   1
_chemical_formula_structural   MgZn2H12(BrO)6
_chemical_formula_sum   'Mg1 Zn2 H12 Br6 O6'
_cell_volume   455.83002111
_cell_formula_units_Z   1
loop_
 _symmetry_equiv_pos_site_id
 _symmetry_equiv_pos_as_xyz
  1  'x, y, z'
loop_
 _atom_site_type_symbol
 _atom_site_label
 _atom_site_symmetry_multiplicity
 _atom_site_fract_x
 _atom_site_fract_y
 _atom_site_fract_z
 _atom_site_occupancy
  Mg  Mg0  1  0.00000000  0.00000000  0.00000000  1
  Zn  Zn0  1  0.34239500  0.84239500  0.50000000  1
  Zn  Zn1  1  0.65760500  0.15760500  0.50000000  1
  H  H0  1  0.10198900  0.16324600  0.41237500  1
  H  H1  1  0.24912900  0.83675400  0.93874200  1
  H  H2  1  0.75087100  0.68961300  0.58762500  1
  H  H3  1  0.89801100  0.31038700  0.06125800  1
  H  H4  1  0.89801100  0.83675400  0.58762500  1
  H  H5  1  0.75087100  0.16324600  0.06125800  1
  H  H6  1  0.24912900  0.31038700  0.41237500  1
  H  H7  1  0.10198900  0.68961300  0.93874200  1
  H  H8  1  0.82616100  0.74962200  0.07653900  1
  H  H9  1  0.32691600  0.25037800  0.07653900  1
  H  H10  1  0.67308400  0.74962200  0.92346100  1
  H  H11  1  0.17383900  0.25037800  0.92346100  1
  Br  Br0  1  0.50000000  0.22327400  0.72327400  1
  Br  Br1  1  0.50000000  0.77672600  0.27672600  1
  Br  Br2  1  0.02108300  0.71252900  0.30855500  1
  Br  Br3  1  0.59602600  0.28747100  0.30855500  1
  Br  Br4  1  0.40397400  0.71252900  0.69144500  1
  Br  Br5  1  0.97891700  0.28747100  0.69144500  1
  O  O0  1  0.14659000  0.17594100  0.32253100  1
  O  O1  1  0.14659000  0.82405900  0.97064900  1
  O  O2  1  0.85341000  0.82405900  0.67746900  1
  O  O3  1  0.85341000  0.17594100  0.02935100  1
  O  O4  1  0.80392300  0.80392300  0.00000000  1
  O  O5  1  0.19607700  0.19607700  0.00000000  1
loop_
_geom_bond_atom_site_label_1
_geom_bond_atom_site_label_2
_geom_bond_distance
_geom_bond_site_symmetry_2
Mg0 O5 2.079022 1_555
Mg0 O4 2.079022 1_445
Mg0 O3 2.106855 1_455
Mg0 O1 2.106855 1_544
Mg0 O2 2.106855 1_444
Mg0 O0 2.106855 1_555
H0 O0 0.976482 1_555
H1 O1 0.976487 1_555
H2 O2 0.976487 1_555
H3 O3 0.976486 1_555
H4 O2 0.976482 1_555
H5 O3 0.976487 1_555
H6 O0 0.976487 1_555
H7 O1 0.976486 1_555
H8 O4 0.980528 1_555
H9 O5 0.980521 1_555
H10 O4 0.980521 1_556
H11 O5 0.980528 1_556
Br0 Zn1 2.493956 1_555
Br0 Zn0 2.493956 1_545
Br1 Zn0 2.493956 1_555
Br1 Zn1 2.493956 1_565
Br2 Zn0 2.416038 1_555
Br3 Zn1 2.416030 1_555
Br4 Zn0 2.416030 1_555
Br5 Zn1 2.416038 1_555
