# generated using pymatgen
data_Bi2Pb3F12
_symmetry_space_group_name_H-M   'P 1'
_cell_length_a   4.32393100
_cell_length_b   4.33481385
_cell_length_c   17.25612757
_cell_angle_alpha   84.65213775
_cell_angle_beta   83.77876033
_cell_angle_gamma   60.31094164
_symmetry_Int_Tables_number   1
_chemical_formula_structural   Bi2Pb3F12
_chemical_formula_sum   'Bi2 Pb3 F12'
_cell_volume   279.03253449
_cell_formula_units_Z   1
loop_
 _symmetry_equiv_pos_site_id
 _symmetry_equiv_pos_as_xyz
  1  'x, y, z'
loop_
 _atom_site_type_symbol
 _atom_site_label
 _atom_site_symmetry_multiplicity
 _atom_site_fract_x
 _atom_site_fract_y
 _atom_site_fract_z
 _atom_site_occupancy
  Bi  Bi0  1  0.29722200  0.09925300  0.38766100  1
  Bi  Bi1  1  0.72577700  0.66077400  0.17842300  1
  Pb  Pb0  1  0.02351800  0.04297500  0.99119100  1
  Pb  Pb1  1  0.41636200  0.47113100  0.79234100  1
  Pb  Pb2  1  0.80286100  0.84340000  0.59239000  1
  F  F0  1  0.33612200  0.45370500  0.93436000  1
  F  F1  1  0.06826800  0.12395700  0.83970300  1
  F  F2  1  0.15106300  0.13736700  0.53056500  1
  F  F3  1  0.77188600  0.81341700  0.74264400  1
  F  F4  1  0.49347600  0.49660900  0.38264200  1
  F  F5  1  0.45308900  0.47425800  0.63353500  1
  F  F6  1  0.87045500  0.09226300  0.14537200  1
  F  F7  1  0.80118600  0.82939700  0.44922800  1
  F  F8  1  0.76224500  0.87863800  0.29992600  1
  F  F9  1  0.14814500  0.24782300  0.25338500  1
  F  F10  1  0.21308900  0.46577600  0.10805400  1
  F  F11  1  0.62123700  0.76925700  0.03858200  1
loop_
_geom_bond_atom_site_label_1
_geom_bond_atom_site_label_2
_geom_bond_distance
_geom_bond_site_symmetry_2
Bi0 F8 2.225977 1_545
Bi0 F7 2.233971 1_545
Bi0 F4 2.258020 1_555
Bi0 F4 2.319974 1_545
Bi0 F9 2.415258 1_555
Bi0 F2 2.478396 1_555
Bi1 F10 2.121639 1_655
Bi1 F9 2.248319 1_655
Bi1 F6 2.257879 1_565
Bi1 F6 2.333957 1_555
Bi1 F8 2.429209 1_555
Bi1 F11 2.462296 1_555
F0 Pb1 2.437042 1_555
F0 Pb0 2.464360 1_565
F1 Pb0 2.603992 1_555
F1 Pb1 2.624283 1_545
F1 Pb1 2.635552 1_555
F1 Pb1 2.635577 1_455
F2 Pb2 2.515514 1_445
F2 Pb2 2.746941 1_545
F3 Pb2 2.576163 1_555
F3 Pb1 2.624395 1_655
F3 Pb1 2.652665 1_555
F3 Pb1 2.656249 1_565
F5 Pb2 2.510383 1_545
F5 Pb2 2.594936 1_455
F5 Pb2 2.702725 1_555
F5 Pb1 2.726895 1_555
F6 Pb0 2.673301 1_654
F7 Pb2 2.477698 1_555
F11 Pb0 2.448622 1_564
F11 Pb0 2.580212 1_664
