# generated using pymatgen
data_Dy5(In2Ni)2
_symmetry_space_group_name_H-M   'P 1'
_cell_length_a   7.19479204
_cell_length_b   15.82437680
_cell_length_c   35.63420186
_cell_angle_alpha   90.00000000
_cell_angle_beta   90.00000000
_cell_angle_gamma   90.00000000
_symmetry_Int_Tables_number   1
_chemical_formula_structural   Dy5(In2Ni)2
_chemical_formula_sum   'Dy80 In64 Ni32'
_cell_volume   4057.06435629
_cell_formula_units_Z   16
loop_
 _symmetry_equiv_pos_site_id
 _symmetry_equiv_pos_as_xyz
  1  'x, y, z'
loop_
 _atom_site_type_symbol
 _atom_site_label
 _atom_site_symmetry_multiplicity
 _atom_site_fract_x
 _atom_site_fract_y
 _atom_site_fract_z
 _atom_site_occupancy
  Dy  Dy0_0  1  0.25000000  0.19231364  0.29365012  1
  Dy  Dy0_1  1  0.25000000  0.19231364  0.79365012  1
  Dy  Dy0_2  1  0.25000000  0.69231364  0.29365012  1
  Dy  Dy0_3  1  0.25000000  0.69231364  0.79365012  1
  Dy  Dy0_4  1  0.75000000  0.19231364  0.29365012  1
  Dy  Dy0_5  1  0.75000000  0.19231364  0.79365012  1
  Dy  Dy0_6  1  0.75000000  0.69231364  0.29365012  1
  Dy  Dy0_7  1  0.75000000  0.69231364  0.79365012  1
  Dy  Dy1_0  1  0.25000000  0.44231364  0.45634987  1
  Dy  Dy1_1  1  0.25000000  0.44231364  0.95634987  1
  Dy  Dy1_2  1  0.25000000  0.94231364  0.45634987  1
  Dy  Dy1_3  1  0.25000000  0.94231364  0.95634987  1
  Dy  Dy1_4  1  0.75000000  0.44231364  0.45634987  1
  Dy  Dy1_5  1  0.75000000  0.44231364  0.95634987  1
  Dy  Dy1_6  1  0.75000000  0.94231364  0.45634987  1
  Dy  Dy1_7  1  0.75000000  0.94231364  0.95634987  1
  Dy  Dy2_0  1  0.25000000  0.05768636  0.04365012  1
  Dy  Dy2_1  1  0.25000000  0.05768636  0.54365012  1
  Dy  Dy2_2  1  0.25000000  0.55768636  0.04365012  1
  Dy  Dy2_3  1  0.25000000  0.55768636  0.54365012  1
  Dy  Dy2_4  1  0.75000000  0.05768636  0.04365012  1
  Dy  Dy2_5  1  0.75000000  0.05768636  0.54365012  1
  Dy  Dy2_6  1  0.75000000  0.55768636  0.04365012  1
  Dy  Dy2_7  1  0.75000000  0.55768636  0.54365012  1
  Dy  Dy3_0  1  0.25000000  0.37721585  0.36075403  1
  Dy  Dy3_1  1  0.25000000  0.37721585  0.86075403  1
  Dy  Dy3_2  1  0.25000000  0.87721585  0.36075403  1
  Dy  Dy3_3  1  0.25000000  0.87721585  0.86075403  1
  Dy  Dy3_4  1  0.75000000  0.37721585  0.36075403  1
  Dy  Dy3_5  1  0.75000000  0.37721585  0.86075403  1
  Dy  Dy3_6  1  0.75000000  0.87721585  0.36075403  1
  Dy  Dy3_7  1  0.75000000  0.87721585  0.86075403  1
  Dy  Dy4_0  1  0.25000000  0.12721585  0.38924597  1
  Dy  Dy4_1  1  0.25000000  0.12721585  0.88924597  1
  Dy  Dy4_2  1  0.25000000  0.62721585  0.38924597  1
  Dy  Dy4_3  1  0.25000000  0.62721585  0.88924597  1
  Dy  Dy4_4  1  0.75000000  0.12721585  0.38924597  1
  Dy  Dy4_5  1  0.75000000  0.12721585  0.88924597  1
  Dy  Dy4_6  1  0.75000000  0.62721585  0.38924597  1
  Dy  Dy4_7  1  0.75000000  0.62721585  0.88924597  1
  Dy  Dy5_0  1  0.25000000  0.25000000  0.00000000  1
  Dy  Dy5_1  1  0.25000000  0.25000000  0.50000000  1
  Dy  Dy5_2  1  0.25000000  0.75000000  0.00000000  1
  Dy  Dy5_3  1  0.25000000  0.75000000  0.50000000  1
  Dy  Dy5_4  1  0.75000000  0.25000000  0.00000000  1
  Dy  Dy5_5  1  0.75000000  0.25000000  0.50000000  1
  Dy  Dy5_6  1  0.75000000  0.75000000  0.00000000  1
  Dy  Dy5_7  1  0.75000000  0.75000000  0.50000000  1
  Dy  Dy6_0  1  0.25000000  0.37278415  0.11075403  1
  Dy  Dy6_1  1  0.25000000  0.37278415  0.61075403  1
  Dy  Dy6_2  1  0.25000000  0.87278415  0.11075403  1
  Dy  Dy6_3  1  0.25000000  0.87278415  0.61075403  1
  Dy  Dy6_4  1  0.75000000  0.37278415  0.11075403  1
  Dy  Dy6_5  1  0.75000000  0.37278415  0.61075403  1
  Dy  Dy6_6  1  0.75000000  0.87278415  0.11075403  1
  Dy  Dy6_7  1  0.75000000  0.87278415  0.61075403  1
  Dy  Dy7_0  1  0.25000000  0.12278414  0.13924597  1
  Dy  Dy7_1  1  0.25000000  0.12278414  0.63924597  1
  Dy  Dy7_2  1  0.25000000  0.62278415  0.13924597  1
  Dy  Dy7_3  1  0.25000000  0.62278415  0.63924597  1
  Dy  Dy7_4  1  0.75000000  0.12278414  0.13924597  1
  Dy  Dy7_5  1  0.75000000  0.12278414  0.63924597  1
  Dy  Dy7_6  1  0.75000000  0.62278415  0.13924597  1
  Dy  Dy7_7  1  0.75000000  0.62278415  0.63924597  1
  Dy  Dy8_0  1  0.25000000  0.00000000  0.25000000  1
  Dy  Dy8_1  1  0.25000000  0.00000000  0.75000000  1
  Dy  Dy8_2  1  0.25000000  0.50000000  0.25000000  1
  Dy  Dy8_3  1  0.25000000  0.50000000  0.75000000  1
  Dy  Dy8_4  1  0.75000000  0.00000000  0.25000000  1
  Dy  Dy8_5  1  0.75000000  0.00000000  0.75000000  1
  Dy  Dy8_6  1  0.75000000  0.50000000  0.25000000  1
  Dy  Dy8_7  1  0.75000000  0.50000000  0.75000000  1
  Dy  Dy9_0  1  0.25000000  0.30768636  0.20634988  1
  Dy  Dy9_1  1  0.25000000  0.30768636  0.70634988  1
  Dy  Dy9_2  1  0.25000000  0.80768636  0.20634988  1
  Dy  Dy9_3  1  0.25000000  0.80768636  0.70634988  1
  Dy  Dy9_4  1  0.75000000  0.30768636  0.20634988  1
  Dy  Dy9_5  1  0.75000000  0.30768636  0.70634988  1
  Dy  Dy9_6  1  0.75000000  0.80768636  0.20634988  1
  Dy  Dy9_7  1  0.75000000  0.80768636  0.70634988  1
  In  In0_0  1  0.00000000  0.39641390  0.03496354  1
  In  In0_1  1  0.00000000  0.39641390  0.53496354  1
  In  In0_2  1  0.00000000  0.89641390  0.03496354  1
  In  In0_3  1  0.00000000  0.89641390  0.53496354  1
  In  In0_4  1  0.50000000  0.39641390  0.03496354  1
  In  In0_5  1  0.50000000  0.39641390  0.53496354  1
  In  In0_6  1  0.50000000  0.89641390  0.03496354  1
  In  In0_7  1  0.50000000  0.89641390  0.53496354  1
  In  In1_0  1  0.00000000  0.46362323  0.17380669  1
  In  In1_1  1  0.00000000  0.46362323  0.67380669  1
  In  In1_2  1  0.00000000  0.96362323  0.17380669  1
  In  In1_3  1  0.00000000  0.96362323  0.67380669  1
  In  In1_4  1  0.50000000  0.46362323  0.17380669  1
  In  In1_5  1  0.50000000  0.46362323  0.67380669  1
  In  In1_6  1  0.50000000  0.96362323  0.17380669  1
  In  In1_7  1  0.50000000  0.96362323  0.67380669  1
  In  In2_0  1  0.00000000  0.03637677  0.32619331  1
  In  In2_1  1  0.00000000  0.03637677  0.82619332  1
  In  In2_2  1  0.00000000  0.53637677  0.32619331  1
  In  In2_3  1  0.00000000  0.53637677  0.82619332  1
  In  In2_4  1  0.50000000  0.03637677  0.32619331  1
  In  In2_5  1  0.50000000  0.03637677  0.82619332  1
  In  In2_6  1  0.50000000  0.53637677  0.32619331  1
  In  In2_7  1  0.50000000  0.53637677  0.82619332  1
  In  In3_0  1  0.00000000  0.28637677  0.42380669  1
  In  In3_1  1  0.00000000  0.28637677  0.92380668  1
  In  In3_2  1  0.00000000  0.78637677  0.42380669  1
  In  In3_3  1  0.00000000  0.78637677  0.92380668  1
  In  In3_4  1  0.50000000  0.28637677  0.42380669  1
  In  In3_5  1  0.50000000  0.28637677  0.92380668  1
  In  In3_6  1  0.50000000  0.78637677  0.42380669  1
  In  In3_7  1  0.50000000  0.78637677  0.92380668  1
  In  In4_0  1  0.00000000  0.35358610  0.28496354  1
  In  In4_1  1  0.00000000  0.35358610  0.78496354  1
  In  In4_2  1  0.00000000  0.85358610  0.28496354  1
  In  In4_3  1  0.00000000  0.85358610  0.78496354  1
  In  In4_4  1  0.50000000  0.35358610  0.28496354  1
  In  In4_5  1  0.50000000  0.35358610  0.78496354  1
  In  In4_6  1  0.50000000  0.85358610  0.28496354  1
  In  In4_7  1  0.50000000  0.85358610  0.78496354  1
  In  In5_0  1  0.00000000  0.10358610  0.46503646  1
  In  In5_1  1  0.00000000  0.10358610  0.96503646  1
  In  In5_2  1  0.00000000  0.60358610  0.46503646  1
  In  In5_3  1  0.00000000  0.60358610  0.96503646  1
  In  In5_4  1  0.50000000  0.10358610  0.46503646  1
  In  In5_5  1  0.50000000  0.10358610  0.96503646  1
  In  In5_6  1  0.50000000  0.60358610  0.46503646  1
  In  In5_7  1  0.50000000  0.60358610  0.96503646  1
  In  In6_0  1  0.00000000  0.14641390  0.21503646  1
  In  In6_1  1  0.00000000  0.14641390  0.71503646  1
  In  In6_2  1  0.00000000  0.64641390  0.21503646  1
  In  In6_3  1  0.00000000  0.64641390  0.71503646  1
  In  In6_4  1  0.50000000  0.14641390  0.21503646  1
  In  In6_5  1  0.50000000  0.14641390  0.71503646  1
  In  In6_6  1  0.50000000  0.64641390  0.21503646  1
  In  In6_7  1  0.50000000  0.64641390  0.71503646  1
  In  In7_0  1  0.00000000  0.21362323  0.07619331  1
  In  In7_1  1  0.00000000  0.21362323  0.57619331  1
  In  In7_2  1  0.00000000  0.71362323  0.07619331  1
  In  In7_3  1  0.00000000  0.71362323  0.57619331  1
  In  In7_4  1  0.50000000  0.21362323  0.07619331  1
  In  In7_5  1  0.50000000  0.21362323  0.57619331  1
  In  In7_6  1  0.50000000  0.71362323  0.07619331  1
  In  In7_7  1  0.50000000  0.71362323  0.57619331  1
  Ni  Ni0_0  1  0.00000000  0.48730039  0.40227158  1
  Ni  Ni0_1  1  0.00000000  0.48730039  0.90227158  1
  Ni  Ni0_2  1  0.00000000  0.98730039  0.40227158  1
  Ni  Ni0_3  1  0.00000000  0.98730039  0.90227158  1
  Ni  Ni0_4  1  0.50000000  0.48730039  0.40227158  1
  Ni  Ni0_5  1  0.50000000  0.48730039  0.90227158  1
  Ni  Ni0_6  1  0.50000000  0.98730039  0.40227158  1
  Ni  Ni0_7  1  0.50000000  0.98730039  0.90227158  1
  Ni  Ni1_0  1  0.00000000  0.26269961  0.15227158  1
  Ni  Ni1_1  1  0.00000000  0.26269961  0.65227158  1
  Ni  Ni1_2  1  0.00000000  0.76269961  0.15227158  1
  Ni  Ni1_3  1  0.00000000  0.76269961  0.65227158  1
  Ni  Ni1_4  1  0.50000000  0.26269961  0.15227158  1
  Ni  Ni1_5  1  0.50000000  0.26269961  0.65227158  1
  Ni  Ni1_6  1  0.50000000  0.76269961  0.15227158  1
  Ni  Ni1_7  1  0.50000000  0.76269961  0.65227158  1
  Ni  Ni2_0  1  0.00000000  0.23730039  0.34772842  1
  Ni  Ni2_1  1  0.00000000  0.23730039  0.84772842  1
  Ni  Ni2_2  1  0.00000000  0.73730039  0.34772842  1
  Ni  Ni2_3  1  0.00000000  0.73730039  0.84772842  1
  Ni  Ni2_4  1  0.50000000  0.23730039  0.34772842  1
  Ni  Ni2_5  1  0.50000000  0.23730039  0.84772842  1
  Ni  Ni2_6  1  0.50000000  0.73730039  0.34772842  1
  Ni  Ni2_7  1  0.50000000  0.73730039  0.84772842  1
  Ni  Ni3_0  1  0.00000000  0.01269961  0.09772842  1
  Ni  Ni3_1  1  0.00000000  0.01269961  0.59772842  1
  Ni  Ni3_2  1  0.00000000  0.51269961  0.09772842  1
  Ni  Ni3_3  1  0.00000000  0.51269961  0.59772842  1
  Ni  Ni3_4  1  0.50000000  0.01269961  0.09772842  1
  Ni  Ni3_5  1  0.50000000  0.01269961  0.59772842  1
  Ni  Ni3_6  1  0.50000000  0.51269961  0.09772842  1
  Ni  Ni3_7  1  0.50000000  0.51269961  0.59772842  1
loop_
_geom_bond_atom_site_label_1
_geom_bond_atom_site_label_2
_geom_bond_distance
_geom_bond_site_symmetry_2
Dy0_0 Ni2_4 2.730489 1_555
Dy0_0 Ni2_0 2.730489 1_555
Dy0_0 In4_0 3.137518 1_555
Dy0_0 In4_4 3.137518 1_555
Dy0_0 In2_0 3.266370 1_555
Dy0_0 In2_4 3.266370 1_555
Dy0_0 In6_4 3.407397 1_555
Dy0_0 In6_0 3.407397 1_555
Dy0_0 Dy8_0 3.417706 1_555
Dy0_1 Ni2_5 2.730489 1_555
Dy0_1 Ni2_1 2.730489 1_555
Dy0_1 In4_1 3.137518 1_555
Dy0_1 In4_5 3.137518 1_555
Dy0_1 In2_1 3.266370 1_555
Dy0_1 In2_5 3.266370 1_555
Dy0_1 In6_1 3.407397 1_555
Dy0_1 In6_5 3.407397 1_555
Dy0_1 Dy8_1 3.417706 1_555
Dy0_2 Ni2_6 2.730489 1_555
Dy0_2 Ni2_2 2.730489 1_555
Dy0_2 In4_2 3.137518 1_555
Dy0_2 In4_6 3.137518 1_555
Dy0_2 In2_2 3.266370 1_555
Dy0_2 In2_6 3.266370 1_555
Dy0_2 In6_6 3.407397 1_555
Dy0_2 In6_2 3.407397 1_555
Dy0_2 Dy8_2 3.417706 1_555
Dy0_3 Ni2_7 2.730489 1_555
Dy0_3 Ni2_3 2.730489 1_555
Dy0_3 In4_7 3.137518 1_555
Dy0_3 In4_3 3.137518 1_555
Dy0_3 In2_7 3.266370 1_555
Dy0_3 In2_3 3.266370 1_555
Dy0_3 In6_3 3.407397 1_555
Dy0_3 In6_7 3.407397 1_555
Dy0_3 Dy8_3 3.417706 1_555
Dy0_4 Ni2_0 2.730489 1_655
Dy0_4 Ni2_4 2.730489 1_555
Dy0_4 In4_0 3.137518 1_655
Dy0_4 In4_4 3.137518 1_555
Dy0_4 In2_0 3.266370 1_655
Dy0_4 In2_4 3.266370 1_555
Dy0_4 In6_0 3.407397 1_655
Dy0_4 In6_4 3.407397 1_555
Dy0_4 Dy8_4 3.417706 1_555
Dy0_5 Ni2_1 2.730489 1_655
Dy0_5 Ni2_5 2.730489 1_555
Dy0_5 In4_1 3.137518 1_655
Dy0_5 In4_5 3.137518 1_555
Dy0_5 In2_1 3.266370 1_655
Dy0_5 In2_5 3.266370 1_555
Dy0_5 In6_1 3.407397 1_655
Dy0_5 In6_5 3.407397 1_555
Dy0_5 Dy8_5 3.417706 1_555
Dy0_6 Ni2_2 2.730489 1_655
Dy0_6 Ni2_6 2.730489 1_555
Dy0_6 In4_2 3.137518 1_655
Dy0_6 In4_6 3.137518 1_555
Dy0_6 In2_6 3.266370 1_555
Dy0_6 In2_2 3.266370 1_655
Dy0_6 In6_2 3.407397 1_655
Dy0_6 In6_6 3.407397 1_555
Dy0_6 Dy8_6 3.417706 1_555
Dy0_7 Ni2_3 2.730489 1_655
Dy0_7 Ni2_7 2.730489 1_555
Dy0_7 In4_3 3.137518 1_655
Dy0_7 In4_7 3.137518 1_555
Dy0_7 In2_3 3.266370 1_655
Dy0_7 In2_7 3.266370 1_555
Dy0_7 In6_3 3.407397 1_655
Dy0_7 In6_7 3.407397 1_555
Dy0_7 Dy8_7 3.417706 1_555
Dy1_0 Ni0_0 2.730489 1_555
Dy1_0 Ni0_4 2.730489 1_555
Dy1_0 In5_2 3.137518 1_555
Dy1_0 In5_6 3.137518 1_555
Dy1_0 In3_0 3.266370 1_555
Dy1_0 In3_4 3.266370 1_555
Dy1_0 In0_1 3.407397 1_555
Dy1_0 In0_5 3.407397 1_555
Dy1_0 Dy5_1 3.417706 1_555
Dy1_1 Ni0_1 2.730489 1_555
Dy1_1 Ni0_5 2.730489 1_555
Dy1_1 In5_3 3.137518 1_555
Dy1_1 In5_7 3.137518 1_555
Dy1_1 In3_5 3.266370 1_555
Dy1_1 In3_1 3.266370 1_555
Dy1_1 In0_4 3.407397 1_556
Dy1_1 In0_0 3.407397 1_556
Dy1_1 Dy5_0 3.417706 1_556
Dy1_2 Ni0_2 2.730489 1_555
Dy1_2 Ni0_6 2.730489 1_555
Dy1_2 In5_0 3.137518 1_565
Dy1_2 In5_4 3.137518 1_565
Dy1_2 In3_2 3.266370 1_555
Dy1_2 In3_6 3.266370 1_555
Dy1_2 In0_3 3.407397 1_555
Dy1_2 In0_7 3.407397 1_555
Dy1_2 Dy5_3 3.417706 1_555
Dy1_3 Ni0_3 2.730489 1_555
Dy1_3 Ni0_7 2.730489 1_555
Dy1_3 In5_5 3.137518 1_565
Dy1_3 In5_1 3.137518 1_565
Dy1_3 In3_3 3.266370 1_555
Dy1_3 In3_7 3.266370 1_555
Dy1_3 In0_2 3.407397 1_556
Dy1_3 In0_6 3.407397 1_556
Dy1_3 Dy5_2 3.417706 1_556
Dy1_4 Ni0_0 2.730489 1_655
Dy1_4 Ni0_4 2.730489 1_555
Dy1_4 In5_2 3.137518 1_655
Dy1_4 In5_6 3.137518 1_555
Dy1_4 In3_0 3.266370 1_655
Dy1_4 In3_4 3.266370 1_555
Dy1_4 In0_1 3.407397 1_655
Dy1_4 In0_5 3.407397 1_555
Dy1_4 Dy5_5 3.417706 1_555
Dy1_5 Ni0_1 2.730489 1_655
Dy1_5 Ni0_5 2.730489 1_555
Dy1_5 In5_3 3.137518 1_655
Dy1_5 In5_7 3.137518 1_555
Dy1_5 In3_1 3.266370 1_655
Dy1_5 In3_5 3.266370 1_555
Dy1_5 In0_0 3.407397 1_656
Dy1_5 In0_4 3.407397 1_556
Dy1_5 Dy5_4 3.417706 1_556
Dy1_6 Ni0_2 2.730489 1_655
Dy1_6 Ni0_6 2.730489 1_555
Dy1_6 In5_0 3.137518 1_665
Dy1_6 In5_4 3.137518 1_565
Dy1_6 In3_2 3.266370 1_655
Dy1_6 In3_6 3.266370 1_555
Dy1_6 In0_7 3.407397 1_555
Dy1_6 In0_3 3.407397 1_655
Dy1_6 Dy5_7 3.417706 1_555
Dy1_7 Ni0_3 2.730489 1_655
Dy1_7 Ni0_7 2.730489 1_555
Dy1_7 In5_1 3.137518 1_665
Dy1_7 In5_5 3.137518 1_565
Dy1_7 In3_7 3.266370 1_555
Dy1_7 In3_3 3.266370 1_655
Dy1_7 In0_2 3.407397 1_656
Dy1_7 In0_6 3.407397 1_556
Dy1_7 Dy5_6 3.417706 1_556
Dy2_0 Ni3_0 2.730489 1_555
Dy2_0 Ni3_4 2.730489 1_555
Dy2_0 In0_2 3.137518 1_545
Dy2_0 In0_6 3.137518 1_545
Dy2_0 In7_0 3.266370 1_555
Dy2_0 In7_4 3.266370 1_555
Dy2_0 In5_5 3.407397 1_554
Dy2_0 In5_1 3.407397 1_554
Dy2_0 Dy5_0 3.417706 1_555
Dy2_1 Ni3_1 2.730489 1_555
Dy2_1 Ni3_5 2.730489 1_555
Dy2_1 In0_7 3.137518 1_545
Dy2_1 In0_3 3.137518 1_545
Dy2_1 In7_1 3.266370 1_555
Dy2_1 In7_5 3.266370 1_555
Dy2_1 In5_4 3.407397 1_555
Dy2_1 In5_0 3.407397 1_555
Dy2_1 Dy5_1 3.417706 1_555
Dy2_2 Ni3_6 2.730489 1_555
Dy2_2 Ni3_2 2.730489 1_555
Dy2_2 In0_0 3.137518 1_555
Dy2_2 In0_4 3.137518 1_555
Dy2_2 In7_2 3.266370 1_555
Dy2_2 In7_6 3.266370 1_555
Dy2_2 In5_7 3.407397 1_554
Dy2_2 In5_3 3.407397 1_554
Dy2_2 Dy5_2 3.417706 1_555
Dy2_3 Ni3_3 2.730489 1_555
Dy2_3 Ni3_7 2.730489 1_555
Dy2_3 In0_5 3.137518 1_555
Dy2_3 In0_1 3.137518 1_555
Dy2_3 In7_7 3.266370 1_555
Dy2_3 In7_3 3.266370 1_555
Dy2_3 In5_2 3.407397 1_555
Dy2_3 In5_6 3.407397 1_555
Dy2_3 Dy5_3 3.417706 1_555
Dy2_4 Ni3_0 2.730489 1_655
Dy2_4 Ni3_4 2.730489 1_555
Dy2_4 In0_2 3.137518 1_645
Dy2_4 In0_6 3.137518 1_545
Dy2_4 In7_0 3.266370 1_655
Dy2_4 In7_4 3.266370 1_555
Dy2_4 In5_5 3.407397 1_554
Dy2_4 In5_1 3.407397 1_654
Dy2_4 Dy5_4 3.417706 1_555
Dy2_5 Ni3_5 2.730489 1_555
Dy2_5 Ni3_1 2.730489 1_655
Dy2_5 In0_7 3.137518 1_545
Dy2_5 In0_3 3.137518 1_645
Dy2_5 In7_1 3.266370 1_655
Dy2_5 In7_5 3.266370 1_555
Dy2_5 In5_4 3.407397 1_555
Dy2_5 In5_0 3.407397 1_655
Dy2_5 Dy5_5 3.417706 1_555
Dy2_6 Ni3_2 2.730489 1_655
Dy2_6 Ni3_6 2.730489 1_555
Dy2_6 In0_0 3.137518 1_655
Dy2_6 In0_4 3.137518 1_555
Dy2_6 In7_2 3.266370 1_655
Dy2_6 In7_6 3.266370 1_555
Dy2_6 In5_3 3.407397 1_654
Dy2_6 In5_7 3.407397 1_554
Dy2_6 Dy5_6 3.417706 1_555
Dy2_7 Ni3_3 2.730489 1_655
Dy2_7 Ni3_7 2.730489 1_555
Dy2_7 In0_1 3.137518 1_655
Dy2_7 In0_5 3.137518 1_555
Dy2_7 In7_3 3.266370 1_655
Dy2_7 In7_7 3.266370 1_555
Dy2_7 In5_2 3.407397 1_655
Dy2_7 In5_6 3.407397 1_555
Dy2_7 Dy5_7 3.417706 1_555
Dy3_0 Ni2_4 2.890136 1_555
Dy3_0 Ni2_0 2.890136 1_555
Dy3_0 Ni0_0 2.908385 1_555
Dy3_0 Ni0_4 2.908385 1_555
Dy3_0 In3_4 3.217124 1_555
Dy3_0 In3_0 3.217124 1_555
Dy3_0 In4_4 3.266358 1_555
Dy3_0 In4_0 3.266358 1_555
Dy3_0 In2_2 3.330987 1_555
Dy3_0 In2_6 3.330987 1_555
Dy3_1 Ni2_1 2.890136 1_555
Dy3_1 Ni2_5 2.890136 1_555
Dy3_1 Ni0_1 2.908385 1_555
Dy3_1 Ni0_5 2.908385 1_555
Dy3_1 In3_5 3.217124 1_555
Dy3_1 In3_1 3.217124 1_555
Dy3_1 In4_1 3.266358 1_555
Dy3_1 In4_5 3.266358 1_555
Dy3_1 In2_7 3.330987 1_555
Dy3_1 In2_3 3.330987 1_555
Dy3_2 Ni2_6 2.890136 1_555
Dy3_2 Ni2_2 2.890136 1_555
Dy3_2 Ni0_2 2.908385 1_555
Dy3_2 Ni0_6 2.908385 1_555
Dy3_2 In3_2 3.217124 1_555
Dy3_2 In3_6 3.217124 1_555
Dy3_2 In4_2 3.266358 1_555
Dy3_2 In4_6 3.266358 1_555
Dy3_2 In2_4 3.330987 1_565
Dy3_2 In2_0 3.330987 1_565
Dy3_3 Ni2_3 2.890136 1_555
Dy3_3 Ni2_7 2.890136 1_555
Dy3_3 Ni0_3 2.908385 1_555
Dy3_3 Ni0_7 2.908385 1_555
Dy3_3 In3_3 3.217124 1_555
Dy3_3 In3_7 3.217124 1_555
Dy3_3 In4_7 3.266358 1_555
Dy3_3 In4_3 3.266358 1_555
Dy3_3 In2_5 3.330987 1_565
Dy3_3 In2_1 3.330987 1_565
Dy3_4 Ni2_4 2.890136 1_555
Dy3_4 Ni2_0 2.890136 1_655
Dy3_4 Ni0_0 2.908385 1_655
Dy3_4 Ni0_4 2.908385 1_555
Dy3_4 In3_0 3.217124 1_655
Dy3_4 In3_4 3.217124 1_555
Dy3_4 In4_0 3.266358 1_655
Dy3_4 In4_4 3.266358 1_555
Dy3_4 In2_2 3.330987 1_655
Dy3_4 In2_6 3.330987 1_555
Dy3_5 Ni2_5 2.890136 1_555
Dy3_5 Ni2_1 2.890136 1_655
Dy3_5 Ni0_5 2.908385 1_555
Dy3_5 Ni0_1 2.908385 1_655
Dy3_5 In3_1 3.217124 1_655
Dy3_5 In3_5 3.217124 1_555
Dy3_5 In4_1 3.266358 1_655
Dy3_5 In4_5 3.266358 1_555
Dy3_5 In2_3 3.330987 1_655
Dy3_5 In2_7 3.330987 1_555
Dy3_6 Ni2_2 2.890136 1_655
Dy3_6 Ni2_6 2.890136 1_555
Dy3_6 Ni0_2 2.908385 1_655
Dy3_6 Ni0_6 2.908385 1_555
Dy3_6 In3_2 3.217124 1_655
Dy3_6 In3_6 3.217124 1_555
Dy3_6 In4_2 3.266358 1_655
Dy3_6 In4_6 3.266358 1_555
Dy3_6 In2_0 3.330987 1_665
Dy3_6 In2_4 3.330987 1_565
Dy3_7 Ni2_7 2.890136 1_555
Dy3_7 Ni2_3 2.890136 1_655
Dy3_7 Ni0_7 2.908385 1_555
Dy3_7 Ni0_3 2.908385 1_655
Dy3_7 In3_3 3.217124 1_655
Dy3_7 In3_7 3.217124 1_555
Dy3_7 In4_3 3.266358 1_655
Dy3_7 In4_7 3.266358 1_555
Dy3_7 In2_5 3.330987 1_565
Dy3_7 In2_1 3.330987 1_665
Dy4_0 Ni0_2 2.890136 1_545
Dy4_0 Ni0_6 2.890136 1_545
Dy4_0 Ni2_0 2.908385 1_555
Dy4_0 Ni2_4 2.908385 1_555
Dy4_0 In2_0 3.217124 1_555
Dy4_0 In2_4 3.217124 1_555
Dy4_0 In5_4 3.266358 1_555
Dy4_0 In5_0 3.266358 1_555
Dy4_0 In3_0 3.330987 1_555
Dy4_0 In3_4 3.330987 1_555
Dy4_1 Ni0_7 2.890136 1_545
Dy4_1 Ni0_3 2.890136 1_545
Dy4_1 Ni2_1 2.908385 1_555
Dy4_1 Ni2_5 2.908385 1_555
Dy4_1 In2_1 3.217124 1_555
Dy4_1 In2_5 3.217124 1_555
Dy4_1 In5_5 3.266358 1_555
Dy4_1 In5_1 3.266358 1_555
Dy4_1 In3_1 3.330987 1_555
Dy4_1 In3_5 3.330987 1_555
Dy4_2 Ni0_0 2.890136 1_555
Dy4_2 Ni0_4 2.890136 1_555
Dy4_2 Ni2_6 2.908385 1_555
Dy4_2 Ni2_2 2.908385 1_555
Dy4_2 In2_6 3.217124 1_555
Dy4_2 In2_2 3.217124 1_555
Dy4_2 In5_2 3.266358 1_555
Dy4_2 In5_6 3.266358 1_555
Dy4_2 In3_2 3.330987 1_555
Dy4_2 In3_6 3.330987 1_555
Dy4_3 Ni0_5 2.890136 1_555
Dy4_3 Ni0_1 2.890136 1_555
Dy4_3 Ni2_3 2.908385 1_555
Dy4_3 Ni2_7 2.908385 1_555
Dy4_3 In2_3 3.217124 1_555
Dy4_3 In2_7 3.217124 1_555
Dy4_3 In5_3 3.266358 1_555
Dy4_3 In5_7 3.266358 1_555
Dy4_3 In3_3 3.330987 1_555
Dy4_3 In3_7 3.330987 1_555
Dy4_4 Ni0_2 2.890136 1_645
Dy4_4 Ni0_6 2.890136 1_545
Dy4_4 Ni2_0 2.908385 1_655
Dy4_4 Ni2_4 2.908385 1_555
Dy4_4 In2_0 3.217124 1_655
Dy4_4 In2_4 3.217124 1_555
Dy4_4 In5_0 3.266358 1_655
Dy4_4 In5_4 3.266358 1_555
Dy4_4 In3_0 3.330987 1_655
Dy4_4 In3_4 3.330987 1_555
Dy4_5 Ni0_7 2.890136 1_545
Dy4_5 Ni0_3 2.890136 1_645
Dy4_5 Ni2_1 2.908385 1_655
Dy4_5 Ni2_5 2.908385 1_555
Dy4_5 In2_1 3.217124 1_655
Dy4_5 In2_5 3.217124 1_555
Dy4_5 In5_1 3.266358 1_655
Dy4_5 In5_5 3.266358 1_555
Dy4_5 In3_1 3.330987 1_655
Dy4_5 In3_5 3.330987 1_555
Dy4_6 Ni0_0 2.890136 1_655
Dy4_6 Ni0_4 2.890136 1_555
Dy4_6 Ni2_2 2.908385 1_655
Dy4_6 Ni2_6 2.908385 1_555
Dy4_6 In2_2 3.217124 1_655
Dy4_6 In2_6 3.217124 1_555
Dy4_6 In5_2 3.266358 1_655
Dy4_6 In5_6 3.266358 1_555
Dy4_6 In3_2 3.330987 1_655
Dy4_6 In3_6 3.330987 1_555
Dy4_7 Ni0_5 2.890136 1_555
Dy4_7 Ni0_1 2.890136 1_655
Dy4_7 Ni2_3 2.908385 1_655
Dy4_7 Ni2_7 2.908385 1_555
Dy4_7 In2_3 3.217124 1_655
Dy4_7 In2_7 3.217124 1_555
Dy4_7 In5_3 3.266358 1_655
Dy4_7 In5_7 3.266358 1_555
Dy4_7 In3_3 3.330987 1_655
Dy4_7 In3_7 3.330987 1_555
Dy5_0 In0_0 3.186792 1_555
Dy5_0 In0_4 3.186792 1_555
Dy5_0 In5_1 3.186792 1_554
Dy5_0 In5_5 3.186792 1_554
Dy5_0 In7_0 3.307322 1_555
Dy5_0 In7_4 3.307322 1_555
Dy5_0 In3_5 3.307322 1_554
Dy5_0 In3_1 3.307322 1_554
Dy5_0 Dy5_4 3.597396 1_555
Dy5_0 Dy5_4 3.597396 1_455
Dy5_1 In5_4 3.186792 1_555
Dy5_1 In5_0 3.186792 1_555
Dy5_1 In0_1 3.186792 1_555
Dy5_1 In0_5 3.186792 1_555
Dy5_1 In7_1 3.307322 1_555
Dy5_1 In7_5 3.307322 1_555
Dy5_1 In3_4 3.307322 1_555
Dy5_1 In3_0 3.307322 1_555
Dy5_1 Dy5_5 3.597396 1_555
Dy5_1 Dy5_5 3.597396 1_455
Dy5_2 In0_6 3.186792 1_555
Dy5_2 In0_2 3.186792 1_555
Dy5_2 In5_3 3.186792 1_554
Dy5_2 In5_7 3.186792 1_554
Dy5_2 In7_6 3.307322 1_555
Dy5_2 In7_2 3.307322 1_555
Dy5_2 In3_7 3.307322 1_554
Dy5_2 In3_3 3.307322 1_554
Dy5_2 Dy5_6 3.597396 1_455
Dy5_2 Dy5_6 3.597396 1_555
Dy5_3 In0_3 3.186792 1_555
Dy5_3 In0_7 3.186792 1_555
Dy5_3 In5_6 3.186792 1_555
Dy5_3 In5_2 3.186792 1_555
Dy5_3 In7_7 3.307322 1_555
Dy5_3 In7_3 3.307322 1_555
Dy5_3 In3_2 3.307322 1_555
Dy5_3 In3_6 3.307322 1_555
Dy5_3 Dy5_7 3.597396 1_555
Dy5_3 Dy5_7 3.597396 1_455
Dy5_4 In5_1 3.186792 1_654
Dy5_4 In0_4 3.186792 1_555
Dy5_4 In0_0 3.186792 1_655
Dy5_4 In5_5 3.186792 1_554
Dy5_4 In7_4 3.307322 1_555
Dy5_4 In7_0 3.307322 1_655
Dy5_4 In3_1 3.307322 1_654
Dy5_4 In3_5 3.307322 1_554
Dy5_5 In0_1 3.186792 1_655
Dy5_5 In5_0 3.186792 1_655
Dy5_5 In0_5 3.186792 1_555
Dy5_5 In5_4 3.186792 1_555
Dy5_5 In7_1 3.307322 1_655
Dy5_5 In7_5 3.307322 1_555
Dy5_5 In3_0 3.307322 1_655
Dy5_5 In3_4 3.307322 1_555
Dy5_6 In0_2 3.186792 1_655
Dy5_6 In0_6 3.186792 1_555
Dy5_6 In5_3 3.186792 1_654
Dy5_6 In5_7 3.186792 1_554
Dy5_6 In7_6 3.307322 1_555
Dy5_6 In7_2 3.307322 1_655
Dy5_6 In3_3 3.307322 1_654
Dy5_6 In3_7 3.307322 1_554
Dy5_7 In0_7 3.186792 1_555
Dy5_7 In0_3 3.186792 1_655
Dy5_7 In5_6 3.186792 1_555
Dy5_7 In5_2 3.186792 1_655
Dy5_7 In7_7 3.307322 1_555
Dy5_7 In7_3 3.307322 1_655
Dy5_7 In3_2 3.307322 1_655
Dy5_7 In3_6 3.307322 1_555
Dy6_0 Ni3_2 2.890136 1_555
Dy6_0 Ni3_6 2.890136 1_555
Dy6_0 Ni1_0 2.908385 1_555
Dy6_0 Ni1_4 2.908385 1_555
Dy6_0 In1_4 3.217124 1_555
Dy6_0 In1_0 3.217124 1_555
Dy6_0 In0_0 3.266358 1_555
Dy6_0 In0_4 3.266358 1_555
Dy6_0 In7_0 3.330987 1_555
Dy6_0 In7_4 3.330987 1_555
Dy6_1 Ni3_3 2.890136 1_555
Dy6_1 Ni3_7 2.890136 1_555
Dy6_1 Ni1_5 2.908385 1_555
Dy6_1 Ni1_1 2.908385 1_555
Dy6_1 In1_1 3.217124 1_555
Dy6_1 In1_5 3.217124 1_555
Dy6_1 In0_1 3.266358 1_555
Dy6_1 In0_5 3.266358 1_555
Dy6_1 In7_5 3.330987 1_555
Dy6_1 In7_1 3.330987 1_555
Dy6_2 Ni3_0 2.890136 1_565
Dy6_2 Ni3_4 2.890136 1_565
Dy6_2 Ni1_6 2.908385 1_555
Dy6_2 Ni1_2 2.908385 1_555
Dy6_2 In1_6 3.217124 1_555
Dy6_2 In1_2 3.217124 1_555
Dy6_2 In0_6 3.266358 1_555
Dy6_2 In0_2 3.266358 1_555
Dy6_2 In7_2 3.330987 1_555
Dy6_2 In7_6 3.330987 1_555
Dy6_3 Ni3_1 2.890136 1_565
Dy6_3 Ni3_5 2.890136 1_565
Dy6_3 Ni1_7 2.908385 1_555
Dy6_3 Ni1_3 2.908385 1_555
Dy6_3 In1_7 3.217124 1_555
Dy6_3 In1_3 3.217124 1_555
Dy6_3 In0_3 3.266358 1_555
Dy6_3 In0_7 3.266358 1_555
Dy6_3 In7_7 3.330987 1_555
Dy6_3 In7_3 3.330987 1_555
Dy6_4 Ni3_6 2.890136 1_555
Dy6_4 Ni3_2 2.890136 1_655
Dy6_4 Ni1_0 2.908385 1_655
Dy6_4 Ni1_4 2.908385 1_555
Dy6_4 In1_0 3.217124 1_655
Dy6_4 In1_4 3.217124 1_555
Dy6_4 In0_0 3.266358 1_655
Dy6_4 In0_4 3.266358 1_555
Dy6_4 In7_0 3.330987 1_655
Dy6_4 In7_4 3.330987 1_555
Dy6_5 Ni3_7 2.890136 1_555
Dy6_5 Ni3_3 2.890136 1_655
Dy6_5 Ni1_1 2.908385 1_655
Dy6_5 Ni1_5 2.908385 1_555
Dy6_5 In1_1 3.217124 1_655
Dy6_5 In1_5 3.217124 1_555
Dy6_5 In0_1 3.266358 1_655
Dy6_5 In0_5 3.266358 1_555
Dy6_5 In7_5 3.330987 1_555
Dy6_5 In7_1 3.330987 1_655
Dy6_6 Ni3_4 2.890136 1_565
Dy6_6 Ni3_0 2.890136 1_665
Dy6_6 Ni1_2 2.908385 1_655
Dy6_6 Ni1_6 2.908385 1_555
Dy6_6 In1_2 3.217124 1_655
Dy6_6 In1_6 3.217124 1_555
Dy6_6 In0_2 3.266358 1_655
Dy6_6 In0_6 3.266358 1_555
Dy6_6 In7_2 3.330987 1_655
Dy6_6 In7_6 3.330987 1_555
Dy6_7 Ni3_1 2.890136 1_665
Dy6_7 Ni3_5 2.890136 1_565
Dy6_7 Ni1_3 2.908385 1_655
Dy6_7 Ni1_7 2.908385 1_555
Dy6_7 In1_7 3.217124 1_555
Dy6_7 In1_3 3.217124 1_655
Dy6_7 In0_3 3.266358 1_655
Dy6_7 In0_7 3.266358 1_555
Dy6_7 In7_7 3.330987 1_555
Dy6_7 In7_3 3.330987 1_655
Dy7_0 Ni1_0 2.890136 1_555
Dy7_0 Ni1_4 2.890136 1_555
Dy7_0 Ni3_4 2.908385 1_555
Dy7_0 Ni3_0 2.908385 1_555
Dy7_0 In7_4 3.217124 1_555
Dy7_0 In7_0 3.217124 1_555
Dy7_0 In6_0 3.266358 1_555
Dy7_0 In6_4 3.266358 1_555
Dy7_0 In1_2 3.330987 1_545
Dy7_0 In1_6 3.330987 1_545
Dy7_1 Ni1_5 2.890136 1_555
Dy7_1 Ni1_1 2.890136 1_555
Dy7_1 Ni3_1 2.908385 1_555
Dy7_1 Ni3_5 2.908385 1_555
Dy7_1 In7_5 3.217124 1_555
Dy7_1 In7_1 3.217124 1_555
Dy7_1 In6_5 3.266358 1_555
Dy7_1 In6_1 3.266358 1_555
Dy7_1 In1_3 3.330987 1_545
Dy7_1 In1_7 3.330987 1_545
Dy7_2 Ni1_2 2.890136 1_555
Dy7_2 Ni1_6 2.890136 1_555
Dy7_2 Ni3_2 2.908385 1_555
Dy7_2 Ni3_6 2.908385 1_555
Dy7_2 In7_2 3.217124 1_555
Dy7_2 In7_6 3.217124 1_555
Dy7_2 In6_2 3.266358 1_555
Dy7_2 In6_6 3.266358 1_555
Dy7_2 In1_0 3.330987 1_555
Dy7_2 In1_4 3.330987 1_555
Dy7_3 Ni1_3 2.890136 1_555
Dy7_3 Ni1_7 2.890136 1_555
Dy7_3 Ni3_3 2.908385 1_555
Dy7_3 Ni3_7 2.908385 1_555
Dy7_3 In7_7 3.217124 1_555
Dy7_3 In7_3 3.217124 1_555
Dy7_3 In6_3 3.266358 1_555
Dy7_3 In6_7 3.266358 1_555
Dy7_3 In1_1 3.330987 1_555
Dy7_3 In1_5 3.330987 1_555
Dy7_4 Ni1_4 2.890136 1_555
Dy7_4 Ni1_0 2.890136 1_655
Dy7_4 Ni3_4 2.908385 1_555
Dy7_4 Ni3_0 2.908385 1_655
Dy7_4 In7_0 3.217124 1_655
Dy7_4 In7_4 3.217124 1_555
Dy7_4 In6_0 3.266358 1_655
Dy7_4 In6_4 3.266358 1_555
Dy7_4 In1_2 3.330987 1_645
Dy7_4 In1_6 3.330987 1_545
Dy7_5 Ni1_1 2.890136 1_655
Dy7_5 Ni1_5 2.890136 1_555
Dy7_5 Ni3_1 2.908385 1_655
Dy7_5 Ni3_5 2.908385 1_555
Dy7_5 In7_5 3.217124 1_555
Dy7_5 In7_1 3.217124 1_655
Dy7_5 In6_5 3.266358 1_555
Dy7_5 In6_1 3.266358 1_655
Dy7_5 In1_3 3.330987 1_645
Dy7_5 In1_7 3.330987 1_545
Dy7_6 Ni1_2 2.890136 1_655
Dy7_6 Ni1_6 2.890136 1_555
Dy7_6 Ni3_2 2.908385 1_655
Dy7_6 Ni3_6 2.908385 1_555
Dy7_6 In7_2 3.217124 1_655
Dy7_6 In7_6 3.217124 1_555
Dy7_6 In6_2 3.266358 1_655
Dy7_6 In6_6 3.266358 1_555
Dy7_6 In1_0 3.330987 1_655
Dy7_6 In1_4 3.330987 1_555
Dy7_7 Ni1_3 2.890136 1_655
Dy7_7 Ni1_7 2.890136 1_555
Dy7_7 Ni3_3 2.908385 1_655
Dy7_7 Ni3_7 2.908385 1_555
Dy7_7 In7_3 3.217124 1_655
Dy7_7 In7_7 3.217124 1_555
Dy7_7 In6_7 3.266358 1_555
Dy7_7 In6_3 3.266358 1_655
Dy7_7 In1_1 3.330987 1_655
Dy7_7 In1_5 3.330987 1_555
Dy8_0 In6_4 3.186792 1_555
Dy8_0 In6_0 3.186792 1_555
Dy8_0 In4_2 3.186792 1_545
Dy8_0 In4_6 3.186792 1_545
Dy8_0 In2_0 3.307322 1_555
Dy8_0 In1_2 3.307322 1_545
Dy8_0 In2_4 3.307322 1_555
Dy8_0 In1_6 3.307322 1_545
Dy8_0 Dy9_2 3.417706 1_545
Dy8_0 Dy8_4 3.597396 1_555
Dy8_0 Dy8_4 3.597396 1_455
Dy8_1 In6_1 3.186792 1_555
Dy8_1 In6_5 3.186792 1_555
Dy8_1 In4_3 3.186792 1_545
Dy8_1 In4_7 3.186792 1_545
Dy8_1 In1_3 3.307322 1_545
Dy8_1 In1_7 3.307322 1_545
Dy8_1 In2_1 3.307322 1_555
Dy8_1 In2_5 3.307322 1_555
Dy8_1 Dy9_3 3.417706 1_545
Dy8_1 Dy8_5 3.597396 1_455
Dy8_1 Dy8_5 3.597396 1_555
Dy8_2 In6_2 3.186792 1_555
Dy8_2 In6_6 3.186792 1_555
Dy8_2 In4_4 3.186792 1_555
Dy8_2 In4_0 3.186792 1_555
Dy8_2 In2_2 3.307322 1_555
Dy8_2 In1_4 3.307322 1_555
Dy8_2 In2_6 3.307322 1_555
Dy8_2 In1_0 3.307322 1_555
Dy8_2 Dy9_0 3.417706 1_555
Dy8_2 Dy8_6 3.597396 1_555
Dy8_2 Dy8_6 3.597396 1_455
Dy8_3 In6_3 3.186792 1_555
Dy8_3 In6_7 3.186792 1_555
Dy8_3 In4_5 3.186792 1_555
Dy8_3 In4_1 3.186792 1_555
Dy8_3 In1_1 3.307322 1_555
Dy8_3 In1_5 3.307322 1_555
Dy8_3 In2_3 3.307322 1_555
Dy8_3 In2_7 3.307322 1_555
Dy8_3 Dy9_1 3.417706 1_555
Dy8_3 Dy8_7 3.597396 1_555
Dy8_3 Dy8_7 3.597396 1_455
Dy8_4 In6_0 3.186792 1_655
Dy8_4 In6_4 3.186792 1_555
Dy8_4 In4_6 3.186792 1_545
Dy8_4 In4_2 3.186792 1_645
Dy8_4 In1_2 3.307322 1_645
Dy8_4 In2_0 3.307322 1_655
Dy8_4 In2_4 3.307322 1_555
Dy8_4 In1_6 3.307322 1_545
Dy8_4 Dy9_6 3.417706 1_545
Dy8_5 In6_1 3.186792 1_655
Dy8_5 In6_5 3.186792 1_555
Dy8_5 In4_3 3.186792 1_645
Dy8_5 In4_7 3.186792 1_545
Dy8_5 In1_3 3.307322 1_645
Dy8_5 In1_7 3.307322 1_545
Dy8_5 In2_1 3.307322 1_655
Dy8_5 In2_5 3.307322 1_555
Dy8_5 Dy9_7 3.417706 1_545
Dy8_6 In6_2 3.186792 1_655
Dy8_6 In6_6 3.186792 1_555
Dy8_6 In4_0 3.186792 1_655
Dy8_6 In4_4 3.186792 1_555
Dy8_6 In1_0 3.307322 1_655
Dy8_6 In2_2 3.307322 1_655
Dy8_6 In1_4 3.307322 1_555
Dy8_6 In2_6 3.307322 1_555
Dy8_6 Dy9_4 3.417706 1_555
Dy8_7 In6_3 3.186792 1_655
Dy8_7 In6_7 3.186792 1_555
Dy8_7 In4_1 3.186792 1_655
Dy8_7 In4_5 3.186792 1_555
Dy8_7 In1_5 3.307322 1_555
Dy8_7 In1_1 3.307322 1_655
Dy8_7 In2_3 3.307322 1_655
Dy8_7 In2_7 3.307322 1_555
Dy8_7 Dy9_5 3.417706 1_555
Dy9_0 Ni1_4 2.730489 1_555
Dy9_0 Ni1_0 2.730489 1_555
Dy9_0 In6_4 3.137518 1_555
Dy9_0 In6_0 3.137518 1_555
Dy9_0 In1_0 3.266370 1_555
Dy9_0 In1_4 3.266370 1_555
Dy9_0 In4_0 3.407397 1_555
Dy9_0 In4_4 3.407397 1_555
Dy9_1 Ni1_5 2.730489 1_555
Dy9_1 Ni1_1 2.730489 1_555
Dy9_1 In6_1 3.137518 1_555
Dy9_1 In6_5 3.137518 1_555
Dy9_1 In1_1 3.266370 1_555
Dy9_1 In1_5 3.266370 1_555
Dy9_1 In4_1 3.407397 1_555
Dy9_1 In4_5 3.407397 1_555
Dy9_2 Ni1_2 2.730489 1_555
Dy9_2 Ni1_6 2.730489 1_555
Dy9_2 In6_2 3.137518 1_555
Dy9_2 In6_6 3.137518 1_555
Dy9_2 In1_2 3.266370 1_555
Dy9_2 In1_6 3.266370 1_555
Dy9_2 In4_6 3.407397 1_555
Dy9_2 In4_2 3.407397 1_555
Dy9_3 Ni1_3 2.730489 1_555
Dy9_3 Ni1_7 2.730489 1_555
Dy9_3 In6_7 3.137518 1_555
Dy9_3 In6_3 3.137518 1_555
Dy9_3 In1_3 3.266370 1_555
Dy9_3 In1_7 3.266370 1_555
Dy9_3 In4_7 3.407397 1_555
Dy9_3 In4_3 3.407397 1_555
Dy9_4 Ni1_0 2.730489 1_655
Dy9_4 Ni1_4 2.730489 1_555
Dy9_4 In6_0 3.137518 1_655
Dy9_4 In6_4 3.137518 1_555
Dy9_4 In1_4 3.266370 1_555
Dy9_4 In1_0 3.266370 1_655
Dy9_4 In4_0 3.407397 1_655
Dy9_4 In4_4 3.407397 1_555
Dy9_5 Ni1_5 2.730489 1_555
Dy9_5 Ni1_1 2.730489 1_655
Dy9_5 In6_1 3.137518 1_655
Dy9_5 In6_5 3.137518 1_555
Dy9_5 In1_1 3.266370 1_655
Dy9_5 In1_5 3.266370 1_555
Dy9_5 In4_1 3.407397 1_655
Dy9_5 In4_5 3.407397 1_555
Dy9_6 Ni1_2 2.730489 1_655
Dy9_6 Ni1_6 2.730489 1_555
Dy9_6 In6_2 3.137518 1_655
Dy9_6 In6_6 3.137518 1_555
Dy9_6 In1_2 3.266370 1_655
Dy9_6 In1_6 3.266370 1_555
Dy9_6 In4_6 3.407397 1_555
Dy9_6 In4_2 3.407397 1_655
Dy9_7 Ni1_7 2.730489 1_555
Dy9_7 Ni1_3 2.730489 1_655
Dy9_7 In6_3 3.137518 1_655
Dy9_7 In6_7 3.137518 1_555
Dy9_7 In1_3 3.266370 1_655
Dy9_7 In1_7 3.266370 1_555
Dy9_7 In4_3 3.407397 1_655
Dy9_7 In4_7 3.407397 1_555
In0_0 Ni3_2 2.896277 1_555
In0_0 In7_0 3.244281 1_555
In0_1 Ni3_3 2.896277 1_555
In0_1 In7_1 3.244281 1_555
In0_2 Ni3_0 2.896277 1_565
In0_2 In7_2 3.244281 1_555
In0_3 Ni3_1 2.896277 1_565
In0_3 In7_3 3.244281 1_555
In0_4 Ni3_6 2.896277 1_555
In0_4 In7_4 3.244281 1_555
In0_5 Ni3_7 2.896277 1_555
In0_5 In7_5 3.244281 1_555
In0_6 Ni3_4 2.896277 1_565
In0_6 In7_6 3.244281 1_555
In0_7 Ni3_5 2.896277 1_565
In0_7 In7_7 3.244281 1_555
In1_0 Ni3_2 2.820030 1_555
In1_0 In6_2 3.244281 1_555
In1_0 Ni1_0 3.270787 1_555
In1_1 Ni3_3 2.820030 1_555
In1_1 In6_3 3.244281 1_555
In1_1 Ni1_1 3.270787 1_555
In1_2 Ni3_0 2.820030 1_565
In1_2 In6_0 3.244281 1_565
In1_2 Ni1_2 3.270787 1_555
In1_3 Ni3_1 2.820030 1_565
In1_3 In6_1 3.244281 1_565
In1_3 Ni1_3 3.270787 1_555
In1_4 Ni3_6 2.820030 1_555
In1_4 In6_6 3.244281 1_555
In1_4 Ni1_4 3.270787 1_555
In1_5 Ni3_7 2.820030 1_555
In1_5 In6_7 3.244281 1_555
In1_5 Ni1_5 3.270787 1_555
In1_6 Ni3_4 2.820030 1_565
In1_6 In6_4 3.244281 1_565
In1_6 Ni1_6 3.270787 1_555
In1_7 Ni3_5 2.820030 1_565
In1_7 In6_5 3.244281 1_565
In1_7 Ni1_7 3.270787 1_555
In2_0 Ni0_2 2.820030 1_545
In2_0 In4_2 3.244281 1_545
In2_0 Ni2_0 3.270787 1_555
In2_1 Ni0_3 2.820030 1_545
In2_1 In4_3 3.244281 1_545
In2_1 Ni2_1 3.270787 1_555
In2_2 Ni0_0 2.820030 1_555
In2_2 In4_0 3.244281 1_555
In2_2 Ni2_2 3.270787 1_555
In2_3 Ni0_1 2.820030 1_555
In2_3 In4_1 3.244281 1_555
In2_3 Ni2_3 3.270787 1_555
In2_4 Ni0_6 2.820030 1_545
In2_4 In4_6 3.244281 1_545
In2_4 Ni2_4 3.270787 1_555
In2_5 Ni0_7 2.820030 1_545
In2_5 In4_7 3.244281 1_545
In2_5 Ni2_5 3.270787 1_555
In2_6 Ni0_4 2.820030 1_555
In2_6 In4_4 3.244281 1_555
In2_6 Ni2_6 3.270787 1_555
In2_7 Ni0_5 2.820030 1_555
In2_7 In4_5 3.244281 1_555
In2_7 Ni2_7 3.270787 1_555
In3_0 Ni2_0 2.820030 1_555
In3_0 In5_0 3.244281 1_555
In3_0 Ni0_0 3.270787 1_555
In3_1 Ni2_1 2.820030 1_555
In3_1 In5_1 3.244281 1_555
In3_1 Ni0_1 3.270787 1_555
In3_2 Ni2_2 2.820030 1_555
In3_2 In5_2 3.244281 1_555
In3_2 Ni0_2 3.270787 1_555
In3_3 Ni2_3 2.820030 1_555
In3_3 In5_3 3.244281 1_555
In3_3 Ni0_3 3.270787 1_555
In3_4 Ni2_4 2.820030 1_555
In3_4 In5_4 3.244281 1_555
In3_4 Ni0_4 3.270787 1_555
In3_5 Ni2_5 2.820030 1_555
In3_5 In5_5 3.244281 1_555
In3_5 Ni0_5 3.270787 1_555
In3_6 Ni2_6 2.820030 1_555
In3_6 In5_6 3.244281 1_555
In3_6 Ni0_6 3.270787 1_555
In3_7 Ni2_7 2.820030 1_555
In3_7 In5_7 3.244281 1_555
In3_7 Ni0_7 3.270787 1_555
In4_0 Ni2_0 2.896277 1_555
In4_1 Ni2_1 2.896277 1_555
In4_2 Ni2_2 2.896277 1_555
In4_3 Ni2_3 2.896277 1_555
In4_4 Ni2_4 2.896277 1_555
In4_5 Ni2_5 2.896277 1_555
In4_6 Ni2_6 2.896277 1_555
In4_7 Ni2_7 2.896277 1_555
In5_0 Ni0_2 2.896277 1_545
In5_1 Ni0_3 2.896277 1_545
In5_2 Ni0_0 2.896277 1_555
In5_3 Ni0_1 2.896277 1_555
In5_4 Ni0_6 2.896277 1_545
In5_5 Ni0_7 2.896277 1_545
In5_6 Ni0_4 2.896277 1_555
In5_7 Ni0_5 2.896277 1_555
In6_0 Ni1_0 2.896277 1_555
In6_1 Ni1_1 2.896277 1_555
In6_2 Ni1_2 2.896277 1_555
In6_3 Ni1_3 2.896277 1_555
In6_4 Ni1_4 2.896277 1_555
In6_5 Ni1_5 2.896277 1_555
In6_6 Ni1_6 2.896277 1_555
In6_7 Ni1_7 2.896277 1_555
In7_0 Ni1_0 2.820030 1_555
In7_0 Ni3_0 3.270787 1_555
In7_1 Ni1_1 2.820030 1_555
In7_1 Ni3_1 3.270787 1_555
In7_2 Ni1_2 2.820030 1_555
In7_2 Ni3_2 3.270787 1_555
In7_3 Ni1_3 2.820030 1_555
In7_3 Ni3_3 3.270787 1_555
In7_4 Ni1_4 2.820030 1_555
In7_4 Ni3_4 3.270787 1_555
In7_5 Ni1_5 2.820030 1_555
In7_5 Ni3_5 3.270787 1_555
In7_6 Ni1_6 2.820030 1_555
In7_6 Ni3_6 3.270787 1_555
In7_7 Ni1_7 2.820030 1_555
In7_7 Ni3_7 3.270787 1_555
