# generated using pymatgen
data_Li7(NiO2)8
_symmetry_space_group_name_H-M   'P 1'
_cell_length_a   6.39684268
_cell_length_b   6.50238785
_cell_length_c   7.43019298
_cell_angle_alpha   64.93397107
_cell_angle_beta   75.25372000
_cell_angle_gamma   72.76979927
_symmetry_Int_Tables_number   1
_chemical_formula_structural   Li7(NiO2)8
_chemical_formula_sum   'Li7 Ni8 O16'
_cell_volume   264.39550448
_cell_formula_units_Z   1
loop_
 _symmetry_equiv_pos_site_id
 _symmetry_equiv_pos_as_xyz
  1  'x, y, z'
loop_
 _atom_site_type_symbol
 _atom_site_label
 _atom_site_symmetry_multiplicity
 _atom_site_fract_x
 _atom_site_fract_y
 _atom_site_fract_z
 _atom_site_occupancy
  Li  Li0  1  0.50000000  0.50000000  0.50000000  1
  Li  Li1  1  0.76197123  0.24016365  0.24204464  1
  Li  Li2  1  0.36538327  0.63882832  0.11863413  1
  Li  Li3  1  0.23802877  0.75983635  0.75795536  1
  Li  Li4  1  0.88034328  0.12366034  0.63035619  1
  Li  Li5  1  0.11965672  0.87633966  0.36964381  1
  Li  Li6  1  0.63461673  0.36117168  0.88136587  1
  Ni  Ni0  1  0.68239820  0.81339956  0.56417145  1
  Ni  Ni1  1  0.18720039  0.30514610  0.06556960  1
  Ni  Ni2  1  0.43183730  0.06194505  0.81050747  1
  Ni  Ni3  1  0.05807969  0.43838350  0.68805330  1
  Ni  Ni4  1  0.94192031  0.56161650  0.31194670  1
  Ni  Ni5  1  0.56816270  0.93805495  0.18949253  1
  Ni  Ni6  1  0.81279961  0.69485390  0.93443040  1
  Ni  Ni7  1  0.31760180  0.18660044  0.43582855  1
  O  O0  1  0.32199149  0.38557304  0.79189944  1
  O  O1  1  0.82038334  0.89620937  0.29724796  1
  O  O2  1  0.05799061  0.21635049  0.33719584  1
  O  O3  1  0.09782968  0.61630936  0.04878984  1
  O  O4  1  0.52613089  0.74657807  0.82811727  1
  O  O5  1  0.69273343  0.01580278  0.90801029  1
  O  O6  1  0.57165861  0.15844524  0.53629043  1
  O  O7  1  0.80215343  0.47256728  0.58597501  1
  O  O8  1  0.19784657  0.52743272  0.41402499  1
  O  O9  1  0.42834139  0.84155476  0.46370957  1
  O  O10  1  0.30726657  0.98419722  0.09198971  1
  O  O11  1  0.47386911  0.25342193  0.17188273  1
  O  O12  1  0.90217032  0.38369064  0.95121016  1
  O  O13  1  0.94200939  0.78364951  0.66280416  1
  O  O14  1  0.17961666  0.10379063  0.70275204  1
  O  O15  1  0.67800851  0.61442696  0.20810056  1
loop_
_geom_bond_atom_site_label_1
_geom_bond_atom_site_label_2
_geom_bond_distance
_geom_bond_site_symmetry_2
Li0 O9 2.041495 1_555
Li0 O6 2.041495 1_555
Li0 O15 2.105119 1_555
Li0 O0 2.105119 1_555
Li0 O7 2.122141 1_555
Li0 O8 2.122141 1_555
Li1 O11 2.008119 1_555
Li1 O1 2.028680 1_545
Li1 O12 2.036034 1_554
Li1 O2 2.127102 1_655
Li1 O6 2.142017 1_555
Li1 O15 2.247011 1_555
Li2 O3 1.971040 1_555
Li2 O4 2.055027 1_554
Li2 O10 2.094475 1_555
Li2 O8 2.098996 1_555
Li2 O15 2.205842 1_555
Li2 O11 2.277677 1_555
Li3 O4 2.008119 1_555
Li3 O14 2.028680 1_565
Li3 O3 2.036034 1_556
Li3 O13 2.127102 1_455
Li3 O9 2.142017 1_555
Li3 O0 2.247011 1_555
Li4 O13 2.044953 1_545
Li4 O5 2.049502 1_555
Li4 O7 2.069744 1_555
Li4 O14 2.071187 1_655
Li4 O2 2.105366 1_655
Li4 O6 2.177791 1_555
Li5 O2 2.044953 1_565
Li5 O10 2.049502 1_555
Li5 O8 2.069744 1_555
Li5 O1 2.071187 1_455
Li5 O13 2.105366 1_455
Li5 O9 2.177791 1_555
Li6 O12 1.971040 1_555
Li6 O11 2.055027 1_556
Li6 O5 2.094475 1_555
Li6 O7 2.098996 1_555
Li6 O0 2.205842 1_555
Li6 O4 2.277677 1_555
Ni0 O1 1.867618 1_555
Ni0 O9 1.886098 1_555
Ni0 O4 1.889836 1_555
Ni0 O13 1.908281 1_555
Ni0 O7 2.068309 1_555
Ni0 O6 2.077949 1_565
Ni1 O2 1.880406 1_555
Ni1 O3 1.890348 1_555
Ni1 O0 1.904014 1_554
Ni1 O10 1.940045 1_545
Ni1 O12 2.043666 1_454
Ni1 O11 2.060768 1_555
Ni2 O14 1.879128 1_555
Ni2 O5 1.880112 1_555
Ni2 O4 1.914712 1_545
Ni2 O6 1.914818 1_555
Ni2 O10 1.938844 1_546
Ni2 O0 1.966749 1_555
Ni3 O12 1.890114 1_455
Ni3 O7 1.891699 1_455
Ni3 O0 1.912718 1_555
Ni3 O8 1.913447 1_555
Ni3 O14 2.046864 1_555
Ni3 O13 2.086445 1_455
Ni4 O3 1.890114 1_655
Ni4 O8 1.891699 1_655
Ni4 O15 1.912718 1_555
Ni4 O7 1.913447 1_555
Ni4 O1 2.046864 1_555
Ni4 O2 2.086445 1_655
Ni5 O1 1.879128 1_555
Ni5 O10 1.880112 1_555
Ni5 O11 1.914712 1_565
Ni5 O9 1.914818 1_555
Ni5 O5 1.938844 1_564
Ni5 O15 1.966749 1_555
Ni6 O13 1.880406 1_555
Ni6 O12 1.890348 1_555
Ni6 O15 1.904014 1_556
Ni6 O5 1.940045 1_565
Ni6 O3 2.043666 1_656
Ni6 O4 2.060768 1_555
Ni7 O14 1.867618 1_555
Ni7 O6 1.886098 1_555
Ni7 O11 1.889836 1_555
Ni7 O2 1.908281 1_555
Ni7 O8 2.068309 1_555
Ni7 O9 2.077949 1_545
