# generated using pymatgen
data_ZrRh
_symmetry_space_group_name_H-M   'P 1'
_cell_length_a   4.47044155
_cell_length_b   5.26584998
_cell_length_c   6.15940958
_cell_angle_alpha   90.00000000
_cell_angle_beta   90.00000000
_cell_angle_gamma   90.00000000
_symmetry_Int_Tables_number   1
_chemical_formula_structural   ZrRh
_chemical_formula_sum   'Zr4 Rh4'
_cell_volume   144.99665632
_cell_formula_units_Z   4
loop_
 _symmetry_equiv_pos_site_id
 _symmetry_equiv_pos_as_xyz
  1  'x, y, z'
loop_
 _atom_site_type_symbol
 _atom_site_label
 _atom_site_symmetry_multiplicity
 _atom_site_fract_x
 _atom_site_fract_y
 _atom_site_fract_z
 _atom_site_occupancy
  Zr  Zr0  1  0.75000000  0.85851959  0.82305540  1
  Zr  Zr1  1  0.25000000  0.35851959  0.67694460  1
  Zr  Zr2  1  0.75000000  0.64148041  0.32305540  1
  Zr  Zr3  1  0.25000000  0.14148041  0.17694460  1
  Rh  Rh0  1  0.75000000  0.17003167  0.45401299  1
  Rh  Rh1  1  0.25000000  0.82996833  0.54598701  1
  Rh  Rh2  1  0.25000000  0.67003167  0.04598701  1
  Rh  Rh3  1  0.75000000  0.32996833  0.95401299  1
loop_
_geom_bond_atom_site_label_1
_geom_bond_atom_site_label_2
_geom_bond_distance
_geom_bond_site_symmetry_2
Rh0 Zr2 2.610332 1_555
Rh0 Zr0 2.803166 1_545
Rh0 Zr1 2.804789 1_655
Rh0 Zr1 2.804789 1_555
Rh0 Zr3 2.816243 1_655
Rh0 Zr3 2.816243 1_555
Rh0 Zr2 2.897799 1_545
Rh1 Zr1 2.610332 1_555
Rh1 Zr3 2.803166 1_565
Rh1 Zr2 2.804789 1_455
Rh1 Zr2 2.804789 1_555
Rh1 Zr0 2.816243 1_455
Rh1 Zr0 2.816243 1_555
Rh1 Zr1 2.897799 1_565
Rh2 Zr3 2.610332 1_565
Rh2 Zr1 2.803166 1_554
Rh2 Zr0 2.804789 1_554
Rh2 Zr0 2.804789 1_454
Rh2 Zr2 2.816243 1_455
Rh2 Zr2 2.816243 1_555
Rh2 Zr3 2.897799 1_555
Rh3 Zr0 2.610332 1_545
Rh3 Zr2 2.803166 1_556
Rh3 Zr3 2.804789 1_656
Rh3 Zr3 2.804789 1_556
Rh3 Zr1 2.816243 1_655
Rh3 Zr1 2.816243 1_555
Rh3 Zr0 2.897799 1_555
