# generated using pymatgen
data_Ba11(Ta3S13)2
_symmetry_space_group_name_H-M   'P 1'
_cell_length_a   6.91814200
_cell_length_b   12.08466736
_cell_length_c   14.52959557
_cell_angle_alpha   98.14251036
_cell_angle_beta   103.72916279
_cell_angle_gamma   89.56432728
_symmetry_Int_Tables_number   1
_chemical_formula_structural   Ba11(Ta3S13)2
_chemical_formula_sum   'Ba11 Ta6 S26'
_cell_volume   1167.69434752
_cell_formula_units_Z   1
loop_
 _symmetry_equiv_pos_site_id
 _symmetry_equiv_pos_as_xyz
  1  'x, y, z'
loop_
 _atom_site_type_symbol
 _atom_site_label
 _atom_site_symmetry_multiplicity
 _atom_site_fract_x
 _atom_site_fract_y
 _atom_site_fract_z
 _atom_site_occupancy
  Ba  Ba0  1  0.90164200  0.96457900  0.79140200  1
  Ba  Ba1  1  0.69581600  0.89651200  0.39130600  1
  Ba  Ba2  1  0.43265500  0.83211400  0.00137300  1
  Ba  Ba3  1  0.38932800  0.46508700  0.79155900  1
  Ba  Ba4  1  0.19732800  0.39938100  0.39155600  1
  Ba  Ba5  1  0.98552400  0.37066500  0.00282400  1
  Ba  Ba6  1  0.80495300  0.60566300  0.61017000  1
  Ba  Ba7  1  0.59792700  0.53258800  0.21024100  1
  Ba  Ba8  1  0.47877600  0.17428600  0.99647300  1
  Ba  Ba9  1  0.30237700  0.09860600  0.60870900  1
  Ba  Ba10  1  0.10896100  0.03646500  0.20814400  1
  Ta  Ta0  1  0.37339300  0.78807400  0.73495300  1
  Ta  Ta1  1  0.25358300  0.74758800  0.49956100  1
  Ta  Ta2  1  0.11775000  0.71648800  0.26525800  1
  Ta  Ta3  1  0.85915500  0.28903600  0.73148700  1
  Ta  Ta4  1  0.75398600  0.24884100  0.49914500  1
  Ta  Ta5  1  0.63362300  0.21093000  0.26588500  1
  S  S0  1  0.65590400  0.71738400  0.82099500  1
  S  S1  1  0.14398000  0.71832100  0.80857600  1
  S  S2  1  0.41762600  0.96918100  0.81875900  1
  S  S3  1  0.30306900  0.60511500  0.60529600  1
  S  S4  1  0.54601100  0.84982300  0.60684200  1
  S  S5  1  0.05977200  0.85178300  0.60596600  1
  S  S6  1  0.44759700  0.65159600  0.39878000  1
  S  S7  1  0.19172700  0.89413500  0.39449800  1
  S  S8  1  0.95065500  0.65507700  0.39612700  1
  S  S9  1  0.09607300  0.52928600  0.19919300  1
  S  S10  1  0.35365200  0.78337700  0.19576000  1
  S  S11  1  0.83142500  0.78234100  0.17954600  1
  S  S12  1  0.15762800  0.21998700  0.80773300  1
  S  S13  1  0.66213500  0.21883600  0.81812600  1
  S  S14  1  0.89724100  0.47276600  0.80672700  1
  S  S15  1  0.79922600  0.10477600  0.60396000  1
  S  S16  1  0.04630300  0.34828400  0.60219100  1
  S  S17  1  0.55323400  0.34656900  0.60301800  1
  S  S18  1  0.94257100  0.14973800  0.39322500  1
  S  S19  1  0.45465100  0.14980000  0.39284300  1
  S  S20  1  0.69817500  0.39428800  0.39414400  1
  S  S21  1  0.59933200  0.03094100  0.18054400  1
  S  S22  1  0.84184800  0.27946100  0.18192300  1
  S  S23  1  0.33685100  0.28218800  0.18902700  1
  S  S24  1  0.49309700  0.43499000  0.00031900  1
  S  S25  1  0.10783700  0.02615500  0.99953900  1
loop_
_geom_bond_atom_site_label_1
_geom_bond_atom_site_label_2
_geom_bond_distance
_geom_bond_site_symmetry_2
Ba0 S25 3.010826 1_665
Ba0 S5 3.263458 1_655
Ba0 S4 3.321750 1_555
Ba0 S15 3.341037 1_565
Ba0 S1 3.415432 1_655
Ba0 S2 3.463547 1_555
Ba0 S2 3.496678 1_655
Ba0 S13 3.496737 1_565
Ba0 S12 3.520706 1_665
Ba0 S0 3.575874 1_555
Ba1 S10 3.361770 1_555
Ba1 S8 3.398076 1_555
Ba1 S7 3.420029 1_655
Ba1 S6 3.460847 1_555
Ba1 S19 3.474749 1_565
Ba1 S7 3.499046 1_555
Ba1 S18 3.508865 1_565
Ba1 S11 3.521125 1_555
Ba1 S21 3.589530 1_565
Ba1 S5 3.617863 1_655
Ba1 S15 3.628795 1_565
Ba1 S4 3.640003 1_555
Ba2 S10 3.135518 1_555
Ba2 S1 3.165690 1_554
Ba2 S25 3.233903 1_564
Ba2 S21 3.274957 1_565
Ba2 S2 3.302415 1_554
Ba2 S11 3.420550 1_555
Ba2 S0 3.469270 1_554
Ba3 S24 3.020413 1_556
Ba3 S16 3.323539 1_555
Ba3 S3 3.325531 1_555
Ba3 S17 3.343636 1_555
Ba3 S12 3.441796 1_555
Ba3 S14 3.462969 1_455
Ba3 S14 3.469245 1_555
Ba3 S1 3.494729 1_555
Ba3 S0 3.495956 1_555
Ba3 S13 3.530000 1_555
Ba4 S9 3.326228 1_555
Ba4 S23 3.426893 1_555
Ba4 S20 3.456373 1_555
Ba4 S20 3.463437 1_455
Ba4 S19 3.490681 1_555
Ba4 S6 3.493140 1_555
Ba4 S18 3.511420 1_455
Ba4 S8 3.518550 1_455
Ba4 S22 3.560029 1_455
Ba4 S17 3.584758 1_555
Ba4 S16 3.591956 1_555
Ba4 S3 3.622579 1_555
Ba5 S9 3.136424 1_655
Ba5 S14 3.189327 1_554
Ba5 S22 3.321332 1_555
Ba5 S13 3.375093 1_554
Ba5 S23 3.468261 1_655
Ba5 S24 3.481371 1_555
Ba5 S12 3.588190 1_654
Ba5 S24 3.611945 1_655
Ba6 S1 3.375251 1_655
Ba6 S14 3.400179 1_555
Ba6 S4 3.440400 1_555
Ba6 S3 3.456020 1_555
Ba6 S3 3.463465 1_655
Ba6 S5 3.484265 1_655
Ba6 S16 3.519416 1_655
Ba6 S0 3.546244 1_555
Ba6 S6 3.565315 1_555
Ba6 S17 3.570965 1_555
Ba6 S8 3.614923 1_555
Ba6 S20 3.685031 1_555
Ba7 S24 3.027217 1_555
Ba7 S20 3.283569 1_555
Ba7 S6 3.296633 1_555
Ba7 S8 3.351784 1_555
Ba7 S9 3.437613 1_555
Ba7 S10 3.466879 1_555
Ba7 S23 3.473983 1_555
Ba7 S9 3.487498 1_655
Ba7 S22 3.502660 1_555
Ba7 S11 3.565833 1_555
Ba8 S24 3.144991 1_556
Ba8 S25 3.152560 1_555
Ba8 S12 3.206217 1_555
Ba8 S13 3.252641 1_555
Ba8 S2 3.267161 1_545
Ba8 S23 3.277601 1_556
Ba8 S22 3.324272 1_556
Ba8 S21 3.328789 1_556
Ba9 S12 3.415729 1_555
Ba9 S5 3.424351 1_545
Ba9 S4 3.435399 1_545
Ba9 S15 3.455878 1_555
Ba9 S15 3.465585 1_455
Ba9 S16 3.488746 1_555
Ba9 S17 3.495051 1_555
Ba9 S2 3.546056 1_545
Ba9 S13 3.573764 1_555
Ba9 S7 3.619116 1_545
Ba9 S18 3.633974 1_455
Ba9 S19 3.668475 1_555
Ba10 S25 3.013980 1_554
Ba10 S19 3.280134 1_555
Ba10 S18 3.291353 1_455
Ba10 S7 3.344550 1_545
Ba10 S23 3.448661 1_555
Ba10 S21 3.452625 1_455
Ba10 S22 3.476115 1_455
Ba10 S10 3.487442 1_545
Ba10 S21 3.508383 1_555
Ba10 S11 3.555244 1_445
S0 Ta0 2.286895 1_555
S1 Ta0 2.335679 1_555
S2 Ta0 2.333409 1_555
S3 Ta1 2.435658 1_555
S3 Ta0 2.659996 1_555
S4 Ta1 2.458561 1_555
S4 Ta0 2.628668 1_555
S5 Ta1 2.486016 1_555
S5 Ta0 2.695518 1_555
S6 Ta1 2.391542 1_555
S6 Ta2 2.808603 1_555
S7 Ta1 2.468591 1_555
S7 Ta2 2.610640 1_555
S8 Ta1 2.442354 1_655
S8 Ta2 2.637954 1_655
S9 Ta2 2.320230 1_555
S10 Ta2 2.317325 1_555
S11 Ta2 2.278989 1_655
S12 Ta3 2.310222 1_455
S13 Ta3 2.301449 1_555
S14 Ta3 2.319251 1_555
S15 Ta4 2.442288 1_555
S15 Ta3 2.654074 1_555
S16 Ta4 2.421894 1_455
S16 Ta3 2.695882 1_455
S17 Ta4 2.463026 1_555
S17 Ta3 2.629993 1_555
S18 Ta4 2.431475 1_555
S18 Ta5 2.650431 1_555
S19 Ta4 2.470282 1_555
S19 Ta5 2.639228 1_555
S20 Ta4 2.456770 1_555
S20 Ta5 2.651872 1_555
S21 Ta5 2.330046 1_555
S22 Ta5 2.321148 1_555
S23 Ta5 2.315404 1_555
