# generated using pymatgen
data_K3FeF3
_symmetry_space_group_name_H-M   'P 1'
_cell_length_a   5.94213200
_cell_length_b   6.17455036
_cell_length_c   10.08299281
_cell_angle_alpha   81.96254352
_cell_angle_beta   78.82145879
_cell_angle_gamma   64.74017262
_symmetry_Int_Tables_number   1
_chemical_formula_structural   K3FeF3
_chemical_formula_sum   'K6 Fe2 F6'
_cell_volume   327.54370526
_cell_formula_units_Z   2
loop_
 _symmetry_equiv_pos_site_id
 _symmetry_equiv_pos_as_xyz
  1  'x, y, z'
loop_
 _atom_site_type_symbol
 _atom_site_label
 _atom_site_symmetry_multiplicity
 _atom_site_fract_x
 _atom_site_fract_y
 _atom_site_fract_z
 _atom_site_occupancy
  K  K0  1  0.65389000  0.60559800  0.12250400  1
  K  K1  1  0.13371600  0.13448700  0.62152600  1
  K  K2  1  0.26655600  0.24266300  0.24709900  1
  K  K3  1  0.76639700  0.74348200  0.75124900  1
  K  K4  1  0.87695900  0.87829800  0.37785000  1
  K  K5  1  0.38129900  0.37080600  0.86496300  1
  Fe  Fe0  1  0.05271900  0.97723800  0.98805400  1
  Fe  Fe1  1  0.54419600  0.49134100  0.49092700  1
  F  F0  1  0.13284300  0.63520200  0.09363200  1
  F  F1  1  0.65291900  0.15955700  0.61996300  1
  F  F2  1  0.71533900  0.08885200  0.13111800  1
  F  F3  1  0.39103100  0.85045400  0.40460400  1
  F  F4  1  0.17697600  0.55386800  0.59614100  1
  F  F5  1  0.90516200  0.33815400  0.90037100  1
loop_
_geom_bond_atom_site_label_1
_geom_bond_atom_site_label_2
_geom_bond_distance
_geom_bond_site_symmetry_2
F0 Fe0 2.128335 1_554
F0 K2 2.585479 1_555
F0 K5 2.799402 1_554
F0 K0 2.885437 1_455
F0 K0 3.091242 1_555
F0 K4 3.216075 1_455
F1 Fe1 2.181285 1_555
F1 K3 2.593028 1_545
F1 K1 2.797457 1_655
F1 K5 2.822645 1_555
F1 K4 2.949596 1_545
F1 K1 3.151277 1_555
F2 Fe0 2.133642 1_644
F2 K2 2.514142 1_555
F2 K4 2.785317 1_545
F2 K0 3.043316 1_555
F2 K0 3.171594 1_545
F3 Fe1 2.132541 1_555
F3 K2 2.604834 1_565
F3 K1 2.772177 1_565
F3 K4 2.923760 1_555
F3 K4 3.048237 1_455
F3 K0 3.206348 1_555
F4 Fe1 2.129300 1_555
F4 K3 2.522641 1_455
F4 K1 2.682216 1_555
F4 K4 3.045675 1_455
F4 K5 3.057236 1_555
F5 Fe0 2.144442 1_645
F5 K3 2.621353 1_555
F5 K0 2.757931 1_556
F5 K5 2.871918 1_655
F5 K1 3.062929 1_655
F5 K5 3.119806 1_555
