# generated using pymatgen
data_TmMn6(GaSn2)2
_symmetry_space_group_name_H-M   'P 1'
_cell_length_a   5.35961000
_cell_length_b   5.35960964
_cell_length_c   8.77953200
_cell_angle_alpha   90.00000000
_cell_angle_beta   90.00000000
_cell_angle_gamma   120.00000221
_symmetry_Int_Tables_number   1
_chemical_formula_structural   TmMn6(GaSn2)2
_chemical_formula_sum   'Tm1 Mn6 Ga2 Sn4'
_cell_volume   218.40789670
_cell_formula_units_Z   1
loop_
 _symmetry_equiv_pos_site_id
 _symmetry_equiv_pos_as_xyz
  1  'x, y, z'
loop_
 _atom_site_type_symbol
 _atom_site_label
 _atom_site_symmetry_multiplicity
 _atom_site_fract_x
 _atom_site_fract_y
 _atom_site_fract_z
 _atom_site_occupancy
  Tm  Tm0  1  0.00000000  0.00000000  0.00000000  1
  Mn  Mn0  1  0.00000000  0.50000000  0.76450600  1
  Mn  Mn1  1  0.50000000  0.00000000  0.23549400  1
  Mn  Mn2  1  0.50000000  0.50000000  0.23549400  1
  Mn  Mn3  1  0.50000000  0.50000000  0.76450600  1
  Mn  Mn4  1  0.50000000  0.00000000  0.76450600  1
  Mn  Mn5  1  0.00000000  0.50000000  0.23549400  1
  Ga  Ga0  1  0.33333300  0.66666700  0.00000000  1
  Ga  Ga1  1  0.66666700  0.33333300  0.00000000  1
  Sn  Sn0  1  0.00000000  0.00000000  0.66850300  1
  Sn  Sn1  1  0.00000000  0.00000000  0.33149700  1
  Sn  Sn2  1  0.66666700  0.33333300  0.50000000  1
  Sn  Sn3  1  0.33333300  0.66666700  0.50000000  1
loop_
_geom_bond_atom_site_label_1
_geom_bond_atom_site_label_2
_geom_bond_distance
_geom_bond_site_symmetry_2
Mn0 Sn2 2.790443 1_455
Mn0 Sn3 2.790443 1_555
Mn0 Sn0 2.809229 1_565
Mn0 Sn0 2.809229 1_555
Mn1 Sn3 2.790443 1_545
Mn1 Sn2 2.790443 1_555
Mn1 Sn1 2.809229 1_655
Mn1 Sn1 2.809229 1_555
Mn2 Sn2 2.790446 1_555
Mn2 Sn3 2.790446 1_555
Mn2 Sn1 2.809229 1_665
Mn2 Sn1 2.809229 1_555
Mn3 Sn2 2.790446 1_555
Mn3 Sn3 2.790446 1_555
Mn3 Sn0 2.809229 1_665
Mn3 Sn0 2.809229 1_555
Mn4 Sn3 2.790443 1_545
Mn4 Sn2 2.790443 1_555
Mn4 Sn0 2.809229 1_555
Mn4 Sn0 2.809229 1_655
Mn5 Sn3 2.790443 1_555
Mn5 Sn2 2.790443 1_455
Mn5 Sn1 2.809229 1_565
Mn5 Sn1 2.809229 1_555
Ga0 Mn1 2.582334 1_565
Ga0 Mn4 2.582334 1_564
Ga0 Mn5 2.582334 1_555
Ga0 Mn0 2.582334 1_554
Ga0 Mn2 2.582337 1_555
Ga0 Mn3 2.582337 1_554
Ga0 Tm0 3.094369 1_565
Ga0 Tm0 3.094374 1_555
Ga0 Tm0 3.094374 1_665
Ga1 Mn1 2.582334 1_555
Ga1 Mn4 2.582334 1_554
Ga1 Mn5 2.582334 1_655
Ga1 Mn0 2.582334 1_654
Ga1 Mn2 2.582337 1_555
Ga1 Mn3 2.582337 1_554
Ga1 Tm0 3.094369 1_655
Ga1 Tm0 3.094374 1_665
Ga1 Tm0 3.094374 1_555
Sn0 Tm0 2.910389 1_556
Sn0 Sn1 2.958755 1_555
Sn1 Tm0 2.910389 1_555
