# generated using pymatgen
data_Li5TiP3
_symmetry_space_group_name_H-M   'P 1'
_cell_length_a   7.16223988
_cell_length_b   7.16223988
_cell_length_c   8.23731155
_cell_angle_alpha   73.31453419
_cell_angle_beta   73.31453419
_cell_angle_gamma   48.48022540
_symmetry_Int_Tables_number   1
_chemical_formula_structural   Li5TiP3
_chemical_formula_sum   'Li10 Ti2 P6'
_cell_volume   300.28466376
_cell_formula_units_Z   2
loop_
 _symmetry_equiv_pos_site_id
 _symmetry_equiv_pos_as_xyz
  1  'x, y, z'
loop_
 _atom_site_type_symbol
 _atom_site_label
 _atom_site_symmetry_multiplicity
 _atom_site_fract_x
 _atom_site_fract_y
 _atom_site_fract_z
 _atom_site_occupancy
  Li  Li0  1  0.42854100  0.91490500  0.90383100  1
  Li  Li1  1  0.08509500  0.57145900  0.59616900  1
  Li  Li2  1  0.41719800  0.92608900  0.42461500  1
  Li  Li3  1  0.91490500  0.42854100  0.40383100  1
  Li  Li4  1  0.73359400  0.26640600  0.25000000  1
  Li  Li5  1  0.07391100  0.58280200  0.07538500  1
  Li  Li6  1  0.57145900  0.08509500  0.09616900  1
  Li  Li7  1  0.92608900  0.41719800  0.92461500  1
  Li  Li8  1  0.26640600  0.73359400  0.75000000  1
  Li  Li9  1  0.58280200  0.07391100  0.57538500  1
  Ti  Ti0  1  0.76671700  0.23328300  0.75000000  1
  Ti  Ti1  1  0.23328300  0.76671700  0.25000000  1
  P  P0  1  0.00000000  0.00000000  0.00000000  1
  P  P1  1  0.00000000  0.00000000  0.50000000  1
  P  P2  1  0.62448600  0.68326300  0.17352500  1
  P  P3  1  0.37551400  0.31673700  0.82647500  1
  P  P4  1  0.68326300  0.62448600  0.67352500  1
  P  P5  1  0.31673700  0.37551400  0.32647500  1
loop_
_geom_bond_atom_site_label_1
_geom_bond_atom_site_label_2
_geom_bond_distance
_geom_bond_site_symmetry_2
Li0 P2 2.498877 1_556
Li0 P3 2.543624 1_565
Li0 P4 2.549805 1_555
Li0 P0 2.611642 1_566
Li1 P5 2.498877 1_555
Li1 P4 2.543624 1_455
Li1 P3 2.549805 1_555
Li1 P1 2.611642 1_565
Li2 P2 2.527038 1_555
Li2 P1 2.573054 1_565
Li2 P4 2.597020 1_555
Li2 P5 2.702165 1_565
Li3 P4 2.498877 1_555
Li3 P5 2.543624 1_655
Li3 P2 2.549805 1_555
Li3 P1 2.611642 1_655
Li4 P5 2.455806 1_555
Li4 P2 2.455806 1_555
Li4 P0 2.587577 1_655
Li4 P1 2.587577 1_655
Li5 P5 2.527038 1_555
Li5 P0 2.573054 1_565
Li5 P3 2.597020 1_554
Li5 P2 2.702165 1_455
Li6 P3 2.498877 1_554
Li6 P2 2.543624 1_545
Li6 P5 2.549805 1_555
Li6 P0 2.611642 1_655
Li7 P4 2.527038 1_555
Li7 P0 2.573054 1_656
Li7 P2 2.597020 1_556
Li7 P3 2.702165 1_655
Li8 P3 2.455806 1_555
Li8 P4 2.455806 1_555
Li8 P1 2.587577 1_565
Li8 P0 2.587577 1_566
Li9 P3 2.527038 1_555
Li9 P1 2.573054 1_655
Li9 P5 2.597020 1_555
Li9 P4 2.702165 1_545
P0 Ti1 2.474489 1_545
P0 Ti0 2.474489 1_454
P1 Ti1 2.474489 1_545
P1 Ti0 2.474489 1_455
P2 Ti1 2.363696 1_555
P3 Ti0 2.363696 1_555
P4 Ti0 2.363696 1_555
P5 Ti1 2.363696 1_555
