# generated using pymatgen
data_Li2B2Rh3
_symmetry_space_group_name_H-M   'P 1'
_cell_length_a   5.66116222
_cell_length_b   11.51664560
_cell_length_c   18.89830552
_cell_angle_alpha   90.00000000
_cell_angle_beta   90.00000000
_cell_angle_gamma   90.00000000
_symmetry_Int_Tables_number   1
_chemical_formula_structural   Li2B2Rh3
_chemical_formula_sum   'Li32 B32 Rh48'
_cell_volume   1232.12414454
_cell_formula_units_Z   16
loop_
 _symmetry_equiv_pos_site_id
 _symmetry_equiv_pos_as_xyz
  1  'x, y, z'
loop_
 _atom_site_type_symbol
 _atom_site_label
 _atom_site_symmetry_multiplicity
 _atom_site_fract_x
 _atom_site_fract_y
 _atom_site_fract_z
 _atom_site_occupancy
  Li  Li0_0  1  0.25000000  0.16995849  0.03721388  1
  Li  Li0_1  1  0.25000000  0.16995849  0.53721388  1
  Li  Li0_2  1  0.25000000  0.66995849  0.03721388  1
  Li  Li0_3  1  0.25000000  0.66995849  0.53721388  1
  Li  Li0_4  1  0.75000000  0.16995849  0.03721388  1
  Li  Li0_5  1  0.75000000  0.16995849  0.53721388  1
  Li  Li0_6  1  0.75000000  0.66995849  0.03721388  1
  Li  Li0_7  1  0.75000000  0.66995849  0.53721388  1
  Li  Li1_0  1  0.25000000  0.33004151  0.46278612  1
  Li  Li1_1  1  0.25000000  0.33004151  0.96278612  1
  Li  Li1_2  1  0.25000000  0.83004150  0.46278612  1
  Li  Li1_3  1  0.25000000  0.83004150  0.96278612  1
  Li  Li1_4  1  0.75000000  0.33004151  0.46278612  1
  Li  Li1_5  1  0.75000000  0.33004151  0.96278612  1
  Li  Li1_6  1  0.75000000  0.83004150  0.46278612  1
  Li  Li1_7  1  0.75000000  0.83004150  0.96278612  1
  Li  Li2_0  1  0.25000000  0.08004150  0.28721388  1
  Li  Li2_1  1  0.25000000  0.08004150  0.78721388  1
  Li  Li2_2  1  0.25000000  0.58004150  0.28721388  1
  Li  Li2_3  1  0.25000000  0.58004150  0.78721388  1
  Li  Li2_4  1  0.75000000  0.08004150  0.28721388  1
  Li  Li2_5  1  0.75000000  0.08004150  0.78721388  1
  Li  Li2_6  1  0.75000000  0.58004150  0.28721388  1
  Li  Li2_7  1  0.75000000  0.58004150  0.78721388  1
  Li  Li3_0  1  0.25000000  0.41995849  0.21278612  1
  Li  Li3_1  1  0.25000000  0.41995849  0.71278612  1
  Li  Li3_2  1  0.25000000  0.91995849  0.21278612  1
  Li  Li3_3  1  0.25000000  0.91995849  0.71278612  1
  Li  Li3_4  1  0.75000000  0.41995849  0.21278612  1
  Li  Li3_5  1  0.75000000  0.41995849  0.71278612  1
  Li  Li3_6  1  0.75000000  0.91995849  0.21278612  1
  Li  Li3_7  1  0.75000000  0.91995849  0.71278612  1
  B  B0_0  1  0.25000000  0.03126896  0.41547056  1
  B  B0_1  1  0.25000000  0.03126896  0.91547056  1
  B  B0_2  1  0.25000000  0.53126896  0.41547056  1
  B  B0_3  1  0.25000000  0.53126896  0.91547056  1
  B  B0_4  1  0.75000000  0.03126896  0.41547056  1
  B  B0_5  1  0.75000000  0.03126896  0.91547056  1
  B  B0_6  1  0.75000000  0.53126896  0.41547056  1
  B  B0_7  1  0.75000000  0.53126896  0.91547056  1
  B  B1_0  1  0.25000000  0.28126896  0.33452944  1
  B  B1_1  1  0.25000000  0.28126896  0.83452945  1
  B  B1_2  1  0.25000000  0.78126896  0.33452944  1
  B  B1_3  1  0.25000000  0.78126896  0.83452945  1
  B  B1_4  1  0.75000000  0.28126896  0.33452944  1
  B  B1_5  1  0.75000000  0.28126896  0.83452945  1
  B  B1_6  1  0.75000000  0.78126896  0.33452944  1
  B  B1_7  1  0.75000000  0.78126896  0.83452945  1
  B  B2_0  1  0.25000000  0.21873104  0.16547055  1
  B  B2_1  1  0.25000000  0.21873104  0.66547055  1
  B  B2_2  1  0.25000000  0.71873104  0.16547055  1
  B  B2_3  1  0.25000000  0.71873104  0.66547055  1
  B  B2_4  1  0.75000000  0.21873104  0.16547055  1
  B  B2_5  1  0.75000000  0.21873104  0.66547055  1
  B  B2_6  1  0.75000000  0.71873104  0.16547055  1
  B  B2_7  1  0.75000000  0.71873104  0.66547055  1
  B  B3_0  1  0.25000000  0.46873104  0.08452944  1
  B  B3_1  1  0.25000000  0.46873104  0.58452945  1
  B  B3_2  1  0.25000000  0.96873104  0.08452944  1
  B  B3_3  1  0.25000000  0.96873104  0.58452945  1
  B  B3_4  1  0.75000000  0.46873104  0.08452944  1
  B  B3_5  1  0.75000000  0.46873104  0.58452945  1
  B  B3_6  1  0.75000000  0.96873104  0.08452944  1
  B  B3_7  1  0.75000000  0.96873104  0.58452945  1
  Rh  Rh0_0  1  0.00000000  0.16682374  0.38943683  1
  Rh  Rh0_1  1  0.00000000  0.16682374  0.88943683  1
  Rh  Rh0_2  1  0.00000000  0.66682373  0.38943683  1
  Rh  Rh0_3  1  0.00000000  0.66682373  0.88943683  1
  Rh  Rh0_4  1  0.50000000  0.16682374  0.38943683  1
  Rh  Rh0_5  1  0.50000000  0.16682374  0.88943683  1
  Rh  Rh0_6  1  0.50000000  0.66682373  0.38943683  1
  Rh  Rh0_7  1  0.50000000  0.66682373  0.88943683  1
  Rh  Rh1_0  1  0.00000000  0.08317626  0.13943683  1
  Rh  Rh1_1  1  0.00000000  0.08317626  0.63943683  1
  Rh  Rh1_2  1  0.00000000  0.58317626  0.13943683  1
  Rh  Rh1_3  1  0.00000000  0.58317626  0.63943683  1
  Rh  Rh1_4  1  0.50000000  0.08317626  0.13943683  1
  Rh  Rh1_5  1  0.50000000  0.08317626  0.63943683  1
  Rh  Rh1_6  1  0.50000000  0.58317626  0.13943683  1
  Rh  Rh1_7  1  0.50000000  0.58317626  0.63943683  1
  Rh  Rh2_0  1  0.00000000  0.25000000  0.25000000  1
  Rh  Rh2_1  1  0.00000000  0.25000000  0.75000000  1
  Rh  Rh2_2  1  0.00000000  0.75000000  0.25000000  1
  Rh  Rh2_3  1  0.00000000  0.75000000  0.75000000  1
  Rh  Rh2_4  1  0.50000000  0.25000000  0.25000000  1
  Rh  Rh2_5  1  0.50000000  0.25000000  0.75000000  1
  Rh  Rh2_6  1  0.50000000  0.75000000  0.25000000  1
  Rh  Rh2_7  1  0.50000000  0.75000000  0.75000000  1
  Rh  Rh3_0  1  0.00000000  0.33317627  0.11056317  1
  Rh  Rh3_1  1  0.00000000  0.33317627  0.61056317  1
  Rh  Rh3_2  1  0.00000000  0.83317626  0.11056317  1
  Rh  Rh3_3  1  0.00000000  0.83317626  0.61056317  1
  Rh  Rh3_4  1  0.50000000  0.33317627  0.11056317  1
  Rh  Rh3_5  1  0.50000000  0.33317627  0.61056317  1
  Rh  Rh3_6  1  0.50000000  0.83317626  0.11056317  1
  Rh  Rh3_7  1  0.50000000  0.83317626  0.61056317  1
  Rh  Rh4_0  1  0.00000000  0.41682373  0.36056317  1
  Rh  Rh4_1  1  0.00000000  0.41682373  0.86056317  1
  Rh  Rh4_2  1  0.00000000  0.91682374  0.36056317  1
  Rh  Rh4_3  1  0.00000000  0.91682374  0.86056317  1
  Rh  Rh4_4  1  0.50000000  0.41682373  0.36056317  1
  Rh  Rh4_5  1  0.50000000  0.41682373  0.86056317  1
  Rh  Rh4_6  1  0.50000000  0.91682374  0.36056317  1
  Rh  Rh4_7  1  0.50000000  0.91682374  0.86056317  1
  Rh  Rh5_0  1  0.00000000  0.00000000  0.00000000  1
  Rh  Rh5_1  1  0.00000000  0.00000000  0.50000000  1
  Rh  Rh5_2  1  0.00000000  0.50000000  0.00000000  1
  Rh  Rh5_3  1  0.00000000  0.50000000  0.50000000  1
  Rh  Rh5_4  1  0.50000000  0.00000000  0.00000000  1
  Rh  Rh5_5  1  0.50000000  0.00000000  0.50000000  1
  Rh  Rh5_6  1  0.50000000  0.50000000  0.00000000  1
  Rh  Rh5_7  1  0.50000000  0.50000000  0.50000000  1
loop_
_geom_bond_atom_site_label_1
_geom_bond_atom_site_label_2
_geom_bond_distance
_geom_bond_site_symmetry_2
Li0_0 Li1_1 2.318909 1_554
Li0_0 Rh5_0 2.515726 1_555
Li0_0 Rh5_4 2.515726 1_555
Li0_0 Rh1_4 2.594983 1_555
Li0_0 Rh1_0 2.594983 1_555
Li0_0 Rh3_0 2.730913 1_555
Li0_0 Rh3_4 2.730913 1_555
Li0_0 Li0_4 2.830581 1_555
Li0_0 Li0_4 2.830581 1_455
Li0_0 Rh0_1 3.131090 1_554
Li0_0 Rh0_5 3.131090 1_554
Li0_1 Li1_0 2.318909 1_555
Li0_1 Rh5_1 2.515726 1_555
Li0_1 Rh5_5 2.515726 1_555
Li0_1 Rh1_1 2.594983 1_555
Li0_1 Rh1_5 2.594983 1_555
Li0_1 Rh3_5 2.730913 1_555
Li0_1 Rh3_1 2.730913 1_555
Li0_1 Li0_5 2.830581 1_555
Li0_1 Li0_5 2.830581 1_455
Li0_1 Rh0_4 3.131090 1_555
Li0_1 Rh0_0 3.131090 1_555
Li0_2 Li1_3 2.318909 1_554
Li0_2 Rh5_2 2.515726 1_555
Li0_2 Rh5_6 2.515726 1_555
Li0_2 Rh1_6 2.594983 1_555
Li0_2 Rh1_2 2.594983 1_555
Li0_2 Rh3_2 2.730913 1_555
Li0_2 Rh3_6 2.730913 1_555
Li0_2 Li0_6 2.830581 1_555
Li0_2 Li0_6 2.830581 1_455
Li0_2 Rh0_3 3.131090 1_554
Li0_2 Rh0_7 3.131090 1_554
Li0_3 Li1_2 2.318909 1_555
Li0_3 Rh5_3 2.515726 1_555
Li0_3 Rh5_7 2.515726 1_555
Li0_3 Rh1_3 2.594983 1_555
Li0_3 Rh1_7 2.594983 1_555
Li0_3 Rh3_3 2.730913 1_555
Li0_3 Rh3_7 2.730913 1_555
Li0_3 Li0_7 2.830581 1_455
Li0_3 Li0_7 2.830581 1_555
Li0_3 Rh0_2 3.131090 1_555
Li0_3 Rh0_6 3.131090 1_555
Li0_4 Li1_5 2.318909 1_554
Li0_4 Rh5_0 2.515726 1_655
Li0_4 Rh5_4 2.515726 1_555
Li0_4 Rh1_4 2.594983 1_555
Li0_4 Rh1_0 2.594983 1_655
Li0_4 Rh3_0 2.730913 1_655
Li0_4 Rh3_4 2.730913 1_555
Li0_4 Rh0_1 3.131090 1_654
Li0_4 Rh0_5 3.131090 1_554
Li0_5 Li1_4 2.318909 1_555
Li0_5 Rh5_1 2.515726 1_655
Li0_5 Rh5_5 2.515726 1_555
Li0_5 Rh1_1 2.594983 1_655
Li0_5 Rh1_5 2.594983 1_555
Li0_5 Rh3_1 2.730913 1_655
Li0_5 Rh3_5 2.730913 1_555
Li0_5 Rh0_0 3.131090 1_655
Li0_5 Rh0_4 3.131090 1_555
Li0_6 Li1_7 2.318909 1_554
Li0_6 Rh5_6 2.515726 1_555
Li0_6 Rh5_2 2.515726 1_655
Li0_6 Rh1_2 2.594983 1_655
Li0_6 Rh1_6 2.594983 1_555
Li0_6 Rh3_6 2.730913 1_555
Li0_6 Rh3_2 2.730913 1_655
Li0_6 Rh0_7 3.131090 1_554
Li0_6 Rh0_3 3.131090 1_654
Li0_7 Li1_6 2.318909 1_555
Li0_7 Rh5_7 2.515726 1_555
Li0_7 Rh5_3 2.515726 1_655
Li0_7 Rh1_7 2.594983 1_555
Li0_7 Rh1_3 2.594983 1_655
Li0_7 Rh3_3 2.730913 1_655
Li0_7 Rh3_7 2.730913 1_555
Li0_7 Rh0_2 3.131090 1_655
Li0_7 Rh0_6 3.131090 1_555
Li1_0 Rh5_3 2.515726 1_555
Li1_0 Rh5_7 2.515726 1_555
Li1_0 Rh4_4 2.594983 1_555
Li1_0 Rh4_0 2.594983 1_555
Li1_0 Rh0_0 2.730913 1_555
Li1_0 Rh0_4 2.730913 1_555
Li1_0 Li1_4 2.830581 1_455
Li1_0 Li1_4 2.830581 1_555
Li1_0 Rh3_5 3.131090 1_555
Li1_0 Rh3_1 3.131090 1_555
Li1_1 Rh5_2 2.515726 1_556
Li1_1 Rh5_6 2.515726 1_556
Li1_1 Rh4_5 2.594983 1_555
Li1_1 Rh4_1 2.594983 1_555
Li1_1 Rh0_5 2.730913 1_555
Li1_1 Rh0_1 2.730913 1_555
Li1_1 Li1_5 2.830581 1_455
Li1_1 Li1_5 2.830581 1_555
Li1_1 Rh3_0 3.131090 1_556
Li1_1 Rh3_4 3.131090 1_556
Li1_2 Rh5_5 2.515726 1_565
Li1_2 Rh5_1 2.515726 1_565
Li1_2 Rh4_2 2.594983 1_555
Li1_2 Rh4_6 2.594983 1_555
Li1_2 Rh0_2 2.730913 1_555
Li1_2 Rh0_6 2.730913 1_555
Li1_2 Li1_6 2.830581 1_455
Li1_2 Li1_6 2.830581 1_555
Li1_2 Rh3_3 3.131090 1_555
Li1_2 Rh3_7 3.131090 1_555
Li1_3 Rh5_0 2.515726 1_566
Li1_3 Rh5_4 2.515726 1_566
Li1_3 Rh4_7 2.594983 1_555
Li1_3 Rh4_3 2.594983 1_555
Li1_3 Rh0_7 2.730913 1_555
Li1_3 Rh0_3 2.730913 1_555
Li1_3 Li1_7 2.830581 1_555
Li1_3 Li1_7 2.830581 1_455
Li1_3 Rh3_2 3.131090 1_556
Li1_3 Rh3_6 3.131090 1_556
Li1_4 Rh5_7 2.515726 1_555
Li1_4 Rh5_3 2.515726 1_655
Li1_4 Rh4_0 2.594983 1_655
Li1_4 Rh4_4 2.594983 1_555
Li1_4 Rh0_0 2.730913 1_655
Li1_4 Rh0_4 2.730913 1_555
Li1_4 Rh3_5 3.131090 1_555
Li1_4 Rh3_1 3.131090 1_655
Li1_5 Rh5_6 2.515726 1_556
Li1_5 Rh5_2 2.515726 1_656
Li1_5 Rh4_5 2.594983 1_555
Li1_5 Rh4_1 2.594983 1_655
Li1_5 Rh0_5 2.730913 1_555
Li1_5 Rh0_1 2.730913 1_655
Li1_5 Rh3_0 3.131090 1_656
Li1_5 Rh3_4 3.131090 1_556
Li1_6 Rh5_5 2.515726 1_565
Li1_6 Rh5_1 2.515726 1_665
Li1_6 Rh4_2 2.594983 1_655
Li1_6 Rh4_6 2.594983 1_555
Li1_6 Rh0_2 2.730913 1_655
Li1_6 Rh0_6 2.730913 1_555
Li1_6 Rh3_3 3.131090 1_655
Li1_6 Rh3_7 3.131090 1_555
Li1_7 Rh5_4 2.515726 1_566
Li1_7 Rh5_0 2.515726 1_666
Li1_7 Rh4_3 2.594983 1_655
Li1_7 Rh4_7 2.594983 1_555
Li1_7 Rh0_7 2.730913 1_555
Li1_7 Rh0_3 2.730913 1_655
Li1_7 Rh3_6 3.131090 1_556
Li1_7 Rh3_2 3.131090 1_656
Li2_0 Li3_2 2.318909 1_545
Li2_0 Rh2_0 2.515726 1_555
Li2_0 Rh2_4 2.515726 1_555
Li2_0 Rh0_0 2.594983 1_555
Li2_0 Rh0_4 2.594983 1_555
Li2_0 Rh4_2 2.730913 1_545
Li2_0 Rh4_6 2.730913 1_545
Li2_0 Li2_4 2.830581 1_555
Li2_0 Li2_4 2.830581 1_455
Li2_0 Rh1_4 3.131090 1_555
Li2_0 Rh1_0 3.131090 1_555
Li2_1 Li3_3 2.318909 1_545
Li2_1 Rh2_1 2.515726 1_555
Li2_1 Rh2_5 2.515726 1_555
Li2_1 Rh0_1 2.594983 1_555
Li2_1 Rh0_5 2.594983 1_555
Li2_1 Rh4_7 2.730913 1_545
Li2_1 Rh4_3 2.730913 1_545
Li2_1 Li2_5 2.830581 1_555
Li2_1 Li2_5 2.830581 1_455
Li2_1 Rh1_1 3.131090 1_555
Li2_1 Rh1_5 3.131090 1_555
Li2_2 Li3_0 2.318909 1_555
Li2_2 Rh2_2 2.515726 1_555
Li2_2 Rh2_6 2.515726 1_555
Li2_2 Rh0_6 2.594983 1_555
Li2_2 Rh0_2 2.594983 1_555
Li2_2 Rh4_4 2.730913 1_555
Li2_2 Rh4_0 2.730913 1_555
Li2_2 Li2_6 2.830581 1_555
Li2_2 Li2_6 2.830581 1_455
Li2_2 Rh1_6 3.131090 1_555
Li2_2 Rh1_2 3.131090 1_555
Li2_3 Li3_1 2.318909 1_555
Li2_3 Rh2_3 2.515726 1_555
Li2_3 Rh2_7 2.515726 1_555
Li2_3 Rh0_3 2.594983 1_555
Li2_3 Rh0_7 2.594983 1_555
Li2_3 Rh4_5 2.730913 1_555
Li2_3 Rh4_1 2.730913 1_555
Li2_3 Li2_7 2.830581 1_455
Li2_3 Li2_7 2.830581 1_555
Li2_3 Rh1_3 3.131090 1_555
Li2_3 Rh1_7 3.131090 1_555
Li2_4 Li3_6 2.318909 1_545
Li2_4 Rh2_0 2.515726 1_655
Li2_4 Rh2_4 2.515726 1_555
Li2_4 Rh0_0 2.594983 1_655
Li2_4 Rh0_4 2.594983 1_555
Li2_4 Rh4_6 2.730913 1_545
Li2_4 Rh4_2 2.730913 1_645
Li2_4 Rh1_4 3.131090 1_555
Li2_4 Rh1_0 3.131090 1_655
Li2_5 Li3_7 2.318909 1_545
Li2_5 Rh2_1 2.515726 1_655
Li2_5 Rh2_5 2.515726 1_555
Li2_5 Rh0_1 2.594983 1_655
Li2_5 Rh0_5 2.594983 1_555
Li2_5 Rh4_7 2.730913 1_545
Li2_5 Rh4_3 2.730913 1_645
Li2_5 Rh1_5 3.131090 1_555
Li2_5 Rh1_1 3.131090 1_655
Li2_6 Li3_4 2.318909 1_555
Li2_6 Rh2_2 2.515726 1_655
Li2_6 Rh2_6 2.515726 1_555
Li2_6 Rh0_2 2.594983 1_655
Li2_6 Rh0_6 2.594983 1_555
Li2_6 Rh4_0 2.730913 1_655
Li2_6 Rh4_4 2.730913 1_555
Li2_6 Rh1_2 3.131090 1_655
Li2_6 Rh1_6 3.131090 1_555
Li2_7 Li3_5 2.318909 1_555
Li2_7 Rh2_7 2.515726 1_555
Li2_7 Rh2_3 2.515726 1_655
Li2_7 Rh0_3 2.594983 1_655
Li2_7 Rh0_7 2.594983 1_555
Li2_7 Rh4_5 2.730913 1_555
Li2_7 Rh4_1 2.730913 1_655
Li2_7 Rh1_7 3.131090 1_555
Li2_7 Rh1_3 3.131090 1_655
Li3_0 Rh2_4 2.515726 1_555
Li3_0 Rh2_0 2.515726 1_555
Li3_0 Rh3_0 2.594983 1_555
Li3_0 Rh3_4 2.594983 1_555
Li3_0 Rh1_2 2.730913 1_555
Li3_0 Rh1_6 2.730913 1_555
Li3_0 Li3_4 2.830581 1_455
Li3_0 Li3_4 2.830581 1_555
Li3_0 Rh4_4 3.131090 1_555
Li3_0 Rh4_0 3.131090 1_555
Li3_1 Rh2_1 2.515726 1_555
Li3_1 Rh2_5 2.515726 1_555
Li3_1 Rh3_1 2.594983 1_555
Li3_1 Rh3_5 2.594983 1_555
Li3_1 Rh1_7 2.730913 1_555
Li3_1 Rh1_3 2.730913 1_555
Li3_1 Li3_5 2.830581 1_455
Li3_1 Li3_5 2.830581 1_555
Li3_1 Rh4_1 3.131090 1_555
Li3_1 Rh4_5 3.131090 1_555
Li3_2 Rh2_2 2.515726 1_555
Li3_2 Rh2_6 2.515726 1_555
Li3_2 Rh3_2 2.594983 1_555
Li3_2 Rh3_6 2.594983 1_555
Li3_2 Rh1_0 2.730913 1_565
Li3_2 Rh1_4 2.730913 1_565
Li3_2 Li3_6 2.830581 1_455
Li3_2 Li3_6 2.830581 1_555
Li3_2 Rh4_2 3.131090 1_555
Li3_2 Rh4_6 3.131090 1_555
Li3_3 Rh2_3 2.515726 1_555
Li3_3 Rh2_7 2.515726 1_555
Li3_3 Rh3_3 2.594983 1_555
Li3_3 Rh3_7 2.594983 1_555
Li3_3 Rh1_1 2.730913 1_565
Li3_3 Rh1_5 2.730913 1_565
Li3_3 Li3_7 2.830581 1_455
Li3_3 Li3_7 2.830581 1_555
Li3_3 Rh4_3 3.131090 1_555
Li3_3 Rh4_7 3.131090 1_555
Li3_4 Rh2_0 2.515726 1_655
Li3_4 Rh2_4 2.515726 1_555
Li3_4 Rh3_4 2.594983 1_555
Li3_4 Rh3_0 2.594983 1_655
Li3_4 Rh1_6 2.730913 1_555
Li3_4 Rh1_2 2.730913 1_655
Li3_4 Rh4_0 3.131090 1_655
Li3_4 Rh4_4 3.131090 1_555
Li3_5 Rh2_1 2.515726 1_655
Li3_5 Rh2_5 2.515726 1_555
Li3_5 Rh3_1 2.594983 1_655
Li3_5 Rh3_5 2.594983 1_555
Li3_5 Rh1_3 2.730913 1_655
Li3_5 Rh1_7 2.730913 1_555
Li3_5 Rh4_1 3.131090 1_655
Li3_5 Rh4_5 3.131090 1_555
Li3_6 Rh2_2 2.515726 1_655
Li3_6 Rh2_6 2.515726 1_555
Li3_6 Rh3_6 2.594983 1_555
Li3_6 Rh3_2 2.594983 1_655
Li3_6 Rh1_0 2.730913 1_665
Li3_6 Rh1_4 2.730913 1_565
Li3_6 Rh4_2 3.131090 1_655
Li3_6 Rh4_6 3.131090 1_555
Li3_7 Rh2_3 2.515726 1_655
Li3_7 Rh2_7 2.515726 1_555
Li3_7 Rh3_3 2.594983 1_655
Li3_7 Rh3_7 2.594983 1_555
Li3_7 Rh1_1 2.730913 1_665
Li3_7 Rh1_5 2.730913 1_565
Li3_7 Rh4_3 3.131090 1_655
Li3_7 Rh4_7 3.131090 1_555
B0_0 Rh0_0 2.163851 1_555
B0_0 Rh0_4 2.163851 1_555
B0_0 Rh5_1 2.164398 1_555
B0_0 Rh5_5 2.164398 1_555
B0_0 Rh4_6 2.194759 1_545
B0_0 Rh4_2 2.194759 1_545
B0_0 Li1_2 2.483991 1_545
B0_0 Li2_0 2.488066 1_555
B0_0 Li0_1 2.800819 1_555
B0_1 Rh0_5 2.163851 1_555
B0_1 Rh0_1 2.163851 1_555
B0_1 Rh5_4 2.164398 1_556
B0_1 Rh5_0 2.164398 1_556
B0_1 Rh4_7 2.194759 1_545
B0_1 Rh4_3 2.194759 1_545
B0_1 Li1_3 2.483991 1_545
B0_1 Li2_1 2.488066 1_555
B0_1 Li0_0 2.800819 1_556
B0_2 Rh0_2 2.163851 1_555
B0_2 Rh0_6 2.163851 1_555
B0_2 Rh5_3 2.164398 1_555
B0_2 Rh5_7 2.164398 1_555
B0_2 Rh4_0 2.194759 1_555
B0_2 Rh4_4 2.194759 1_555
B0_2 Li1_0 2.483991 1_555
B0_2 Li2_2 2.488066 1_555
B0_2 Li0_3 2.800819 1_555
B0_3 Rh0_3 2.163851 1_555
B0_3 Rh0_7 2.163851 1_555
B0_3 Rh5_2 2.164398 1_556
B0_3 Rh5_6 2.164398 1_556
B0_3 Rh4_1 2.194759 1_555
B0_3 Rh4_5 2.194759 1_555
B0_3 Li1_1 2.483991 1_555
B0_3 Li2_3 2.488066 1_555
B0_3 Li0_2 2.800819 1_556
B0_4 Rh0_0 2.163851 1_655
B0_4 Rh0_4 2.163851 1_555
B0_4 Rh5_5 2.164398 1_555
B0_4 Rh5_1 2.164398 1_655
B0_4 Rh4_6 2.194759 1_545
B0_4 Rh4_2 2.194759 1_645
B0_4 Li1_6 2.483991 1_545
B0_4 Li2_4 2.488066 1_555
B0_4 Li0_5 2.800819 1_555
B0_5 Rh0_5 2.163851 1_555
B0_5 Rh0_1 2.163851 1_655
B0_5 Rh5_4 2.164398 1_556
B0_5 Rh5_0 2.164398 1_656
B0_5 Rh4_3 2.194759 1_645
B0_5 Rh4_7 2.194759 1_545
B0_5 Li1_7 2.483991 1_545
B0_5 Li2_5 2.488066 1_555
B0_5 Li0_4 2.800819 1_556
B0_6 Rh0_2 2.163851 1_655
B0_6 Rh0_6 2.163851 1_555
B0_6 Rh5_3 2.164398 1_655
B0_6 Rh5_7 2.164398 1_555
B0_6 Rh4_0 2.194759 1_655
B0_6 Rh4_4 2.194759 1_555
B0_6 Li1_4 2.483991 1_555
B0_6 Li2_6 2.488066 1_555
B0_6 Li0_7 2.800819 1_555
B0_7 Rh0_3 2.163851 1_655
B0_7 Rh0_7 2.163851 1_555
B0_7 Rh5_2 2.164398 1_656
B0_7 Rh5_6 2.164398 1_556
B0_7 Rh4_1 2.194759 1_655
B0_7 Rh4_5 2.194759 1_555
B0_7 Li1_5 2.483991 1_555
B0_7 Li2_7 2.488066 1_555
B0_7 Li0_6 2.800819 1_556
B1_0 Rh4_0 2.163851 1_555
B1_0 Rh4_4 2.163851 1_555
B1_0 Rh2_0 2.164398 1_555
B1_0 Rh2_4 2.164398 1_555
B1_0 Rh0_0 2.194759 1_555
B1_0 Rh0_4 2.194759 1_555
B1_0 Li2_0 2.483991 1_555
B1_0 Li1_0 2.488066 1_555
B1_0 Li3_0 2.800819 1_555
B1_1 Rh4_5 2.163851 1_555
B1_1 Rh4_1 2.163851 1_555
B1_1 Rh2_1 2.164398 1_555
B1_1 Rh2_5 2.164398 1_555
B1_1 Rh0_1 2.194759 1_555
B1_1 Rh0_5 2.194759 1_555
B1_1 Li2_1 2.483991 1_555
B1_1 Li1_1 2.488066 1_555
B1_1 Li3_1 2.800819 1_555
B1_2 Rh4_2 2.163851 1_555
B1_2 Rh4_6 2.163851 1_555
B1_2 Rh2_2 2.164398 1_555
B1_2 Rh2_6 2.164398 1_555
B1_2 Rh0_2 2.194759 1_555
B1_2 Rh0_6 2.194759 1_555
B1_2 Li2_2 2.483991 1_555
B1_2 Li1_2 2.488066 1_555
B1_2 Li3_2 2.800819 1_555
B1_3 Rh4_3 2.163851 1_555
B1_3 Rh4_7 2.163851 1_555
B1_3 Rh2_3 2.164398 1_555
B1_3 Rh2_7 2.164398 1_555
B1_3 Rh0_3 2.194759 1_555
B1_3 Rh0_7 2.194759 1_555
B1_3 Li2_3 2.483991 1_555
B1_3 Li1_3 2.488066 1_555
B1_3 Li3_3 2.800819 1_555
B1_4 Rh4_0 2.163851 1_655
B1_4 Rh4_4 2.163851 1_555
B1_4 Rh2_0 2.164398 1_655
B1_4 Rh2_4 2.164398 1_555
B1_4 Rh0_0 2.194759 1_655
B1_4 Rh0_4 2.194759 1_555
B1_4 Li2_4 2.483991 1_555
B1_4 Li1_4 2.488066 1_555
B1_4 Li3_4 2.800819 1_555
B1_5 Rh4_1 2.163851 1_655
B1_5 Rh4_5 2.163851 1_555
B1_5 Rh2_5 2.164398 1_555
B1_5 Rh2_1 2.164398 1_655
B1_5 Rh0_1 2.194759 1_655
B1_5 Rh0_5 2.194759 1_555
B1_5 Li2_5 2.483991 1_555
B1_5 Li1_5 2.488066 1_555
B1_5 Li3_5 2.800819 1_555
B1_6 Rh4_2 2.163851 1_655
B1_6 Rh4_6 2.163851 1_555
B1_6 Rh2_2 2.164398 1_655
B1_6 Rh2_6 2.164398 1_555
B1_6 Rh0_2 2.194759 1_655
B1_6 Rh0_6 2.194759 1_555
B1_6 Li2_6 2.483991 1_555
B1_6 Li1_6 2.488066 1_555
B1_6 Li3_6 2.800819 1_555
B1_7 Rh4_3 2.163851 1_655
B1_7 Rh4_7 2.163851 1_555
B1_7 Rh2_3 2.164398 1_655
B1_7 Rh2_7 2.164398 1_555
B1_7 Rh0_3 2.194759 1_655
B1_7 Rh0_7 2.194759 1_555
B1_7 Li2_7 2.483991 1_555
B1_7 Li1_7 2.488066 1_555
B1_7 Li3_7 2.800819 1_555
B2_0 Rh1_4 2.163851 1_555
B2_0 Rh1_0 2.163851 1_555
B2_0 Rh2_4 2.164398 1_555
B2_0 Rh2_0 2.164398 1_555
B2_0 Rh3_0 2.194759 1_555
B2_0 Rh3_4 2.194759 1_555
B2_0 Li3_0 2.483991 1_555
B2_0 Li0_0 2.488066 1_555
B2_0 Li2_0 2.800819 1_555
B2_1 Rh1_5 2.163851 1_555
B2_1 Rh1_1 2.163851 1_555
B2_1 Rh2_1 2.164398 1_555
B2_1 Rh2_5 2.164398 1_555
B2_1 Rh3_5 2.194759 1_555
B2_1 Rh3_1 2.194759 1_555
B2_1 Li3_1 2.483991 1_555
B2_1 Li0_1 2.488066 1_555
B2_1 Li2_1 2.800819 1_555
B2_2 Rh1_6 2.163851 1_555
B2_2 Rh1_2 2.163851 1_555
B2_2 Rh2_2 2.164398 1_555
B2_2 Rh2_6 2.164398 1_555
B2_2 Rh3_2 2.194759 1_555
B2_2 Rh3_6 2.194759 1_555
B2_2 Li3_2 2.483991 1_555
B2_2 Li0_2 2.488066 1_555
B2_2 Li2_2 2.800819 1_555
B2_3 Rh1_7 2.163851 1_555
B2_3 Rh1_3 2.163851 1_555
B2_3 Rh2_3 2.164398 1_555
B2_3 Rh2_7 2.164398 1_555
B2_3 Rh3_3 2.194759 1_555
B2_3 Rh3_7 2.194759 1_555
B2_3 Li3_3 2.483991 1_555
B2_3 Li0_3 2.488066 1_555
B2_3 Li2_3 2.800819 1_555
B2_4 Rh1_4 2.163851 1_555
B2_4 Rh1_0 2.163851 1_655
B2_4 Rh2_0 2.164398 1_655
B2_4 Rh2_4 2.164398 1_555
B2_4 Rh3_4 2.194759 1_555
B2_4 Rh3_0 2.194759 1_655
B2_4 Li3_4 2.483991 1_555
B2_4 Li0_4 2.488066 1_555
B2_4 Li2_4 2.800819 1_555
B2_5 Rh1_1 2.163851 1_655
B2_5 Rh1_5 2.163851 1_555
B2_5 Rh2_5 2.164398 1_555
B2_5 Rh2_1 2.164398 1_655
B2_5 Rh3_1 2.194759 1_655
B2_5 Rh3_5 2.194759 1_555
B2_5 Li3_5 2.483991 1_555
B2_5 Li0_5 2.488066 1_555
B2_5 Li2_5 2.800819 1_555
B2_6 Rh1_2 2.163851 1_655
B2_6 Rh1_6 2.163851 1_555
B2_6 Rh2_2 2.164398 1_655
B2_6 Rh2_6 2.164398 1_555
B2_6 Rh3_6 2.194759 1_555
B2_6 Rh3_2 2.194759 1_655
B2_6 Li3_6 2.483991 1_555
B2_6 Li0_6 2.488066 1_555
B2_6 Li2_6 2.800819 1_555
B2_7 Rh1_7 2.163851 1_555
B2_7 Rh1_3 2.163851 1_655
B2_7 Rh2_7 2.164398 1_555
B2_7 Rh2_3 2.164398 1_655
B2_7 Rh3_3 2.194759 1_655
B2_7 Rh3_7 2.194759 1_555
B2_7 Li3_7 2.483991 1_555
B2_7 Li0_7 2.488066 1_555
B2_7 Li2_7 2.800819 1_555
B3_0 Rh3_0 2.163851 1_555
B3_0 Rh3_4 2.163851 1_555
B3_0 Rh5_2 2.164398 1_555
B3_0 Rh5_6 2.164398 1_555
B3_0 Rh1_6 2.194759 1_555
B3_0 Rh1_2 2.194759 1_555
B3_0 Li0_2 2.483991 1_555
B3_0 Li3_0 2.488066 1_555
B3_0 Li1_1 2.800819 1_554
B3_1 Rh3_1 2.163851 1_555
B3_1 Rh3_5 2.163851 1_555
B3_1 Rh5_3 2.164398 1_555
B3_1 Rh5_7 2.164398 1_555
B3_1 Rh1_3 2.194759 1_555
B3_1 Rh1_7 2.194759 1_555
B3_1 Li0_3 2.483991 1_555
B3_1 Li3_1 2.488066 1_555
B3_1 Li1_0 2.800819 1_555
B3_2 Rh3_6 2.163851 1_555
B3_2 Rh3_2 2.163851 1_555
B3_2 Rh5_4 2.164398 1_565
B3_2 Rh5_0 2.164398 1_565
B3_2 Rh1_0 2.194759 1_565
B3_2 Rh1_4 2.194759 1_565
B3_2 Li0_0 2.483991 1_565
B3_2 Li3_2 2.488066 1_555
B3_2 Li1_3 2.800819 1_554
B3_3 Rh3_3 2.163851 1_555
B3_3 Rh3_7 2.163851 1_555
B3_3 Rh5_1 2.164398 1_565
B3_3 Rh5_5 2.164398 1_565
B3_3 Rh1_1 2.194759 1_565
B3_3 Rh1_5 2.194759 1_565
B3_3 Li0_1 2.483991 1_565
B3_3 Li3_3 2.488066 1_555
B3_3 Li1_2 2.800819 1_555
B3_4 Rh3_4 2.163851 1_555
B3_4 Rh3_0 2.163851 1_655
B3_4 Rh5_2 2.164398 1_655
B3_4 Rh5_6 2.164398 1_555
B3_4 Rh1_6 2.194759 1_555
B3_4 Rh1_2 2.194759 1_655
B3_4 Li0_6 2.483991 1_555
B3_4 Li3_4 2.488066 1_555
B3_4 Li1_5 2.800819 1_554
B3_5 Rh3_1 2.163851 1_655
B3_5 Rh3_5 2.163851 1_555
B3_5 Rh5_7 2.164398 1_555
B3_5 Rh5_3 2.164398 1_655
B3_5 Rh1_7 2.194759 1_555
B3_5 Rh1_3 2.194759 1_655
B3_5 Li0_7 2.483991 1_555
B3_5 Li3_5 2.488066 1_555
B3_5 Li1_4 2.800819 1_555
B3_6 Rh3_6 2.163851 1_555
B3_6 Rh3_2 2.163851 1_655
B3_6 Rh5_4 2.164398 1_565
B3_6 Rh5_0 2.164398 1_665
B3_6 Rh1_0 2.194759 1_665
B3_6 Rh1_4 2.194759 1_565
B3_6 Li0_4 2.483991 1_565
B3_6 Li3_6 2.488066 1_555
B3_6 Li1_7 2.800819 1_554
B3_7 Rh3_3 2.163851 1_655
B3_7 Rh3_7 2.163851 1_555
B3_7 Rh5_1 2.164398 1_665
B3_7 Rh5_5 2.164398 1_565
B3_7 Rh1_5 2.194759 1_565
B3_7 Rh1_1 2.194759 1_665
B3_7 Li0_5 2.483991 1_565
B3_7 Li3_7 2.488066 1_555
B3_7 Li1_6 2.800819 1_555
