# generated using pymatgen
data_La5MgRe3O16
_symmetry_space_group_name_H-M   'P 1'
_cell_length_a   5.67477500
_cell_length_b   5.67696150
_cell_length_c   10.26284953
_cell_angle_alpha   93.37332874
_cell_angle_beta   93.43182069
_cell_angle_gamma   90.72262507
_symmetry_Int_Tables_number   1
_chemical_formula_structural   La5MgRe3O16
_chemical_formula_sum   'La5 Mg1 Re3 O16'
_cell_volume   329.41470137
_cell_formula_units_Z   1
loop_
 _symmetry_equiv_pos_site_id
 _symmetry_equiv_pos_as_xyz
  1  'x, y, z'
loop_
 _atom_site_type_symbol
 _atom_site_label
 _atom_site_symmetry_multiplicity
 _atom_site_fract_x
 _atom_site_fract_y
 _atom_site_fract_z
 _atom_site_occupancy
  La  La0  1  0.51482500  0.02711500  0.19720600  1
  La  La1  1  0.48517500  0.97288500  0.80279400  1
  La  La2  1  0.03398300  0.50830900  0.20524900  1
  La  La3  1  0.96601700  0.49169100  0.79475100  1
  La  La4  1  0.00000000  0.00000000  0.50000000  1
  Mg  Mg0  1  0.50000000  0.50000000  0.00000000  1
  Re  Re0  1  0.44345400  0.44400500  0.60581600  1
  Re  Re1  1  0.55654600  0.55599500  0.39418400  1
  Re  Re2  1  0.00000000  0.00000000  0.00000000  1
  O  O0  1  0.31049500  0.30451700  0.43504200  1
  O  O1  1  0.68950500  0.69548300  0.56495800  1
  O  O2  1  0.22160000  0.21994000  0.67552200  1
  O  O3  1  0.77840000  0.78006000  0.32447800  1
  O  O4  1  0.54225400  0.54514900  0.80191600  1
  O  O5  1  0.45774600  0.45485100  0.19808400  1
  O  O6  1  0.92905800  0.92085500  0.81621800  1
  O  O7  1  0.07094200  0.07914500  0.18378200  1
  O  O8  1  0.70121000  0.22978700  0.63630700  1
  O  O9  1  0.29879000  0.77021300  0.36369300  1
  O  O10  1  0.22359800  0.69636900  0.63382300  1
  O  O11  1  0.77640200  0.30363100  0.36617700  1
  O  O12  1  0.29785500  0.80218200  0.00087700  1
  O  O13  1  0.70214500  0.19781800  0.99912300  1
  O  O14  1  0.80927000  0.71908100  0.03745000  1
  O  O15  1  0.19073000  0.28091900  0.96255000  1
loop_
_geom_bond_atom_site_label_1
_geom_bond_atom_site_label_2
_geom_bond_distance
_geom_bond_site_symmetry_2
La0 O3 2.438230 1_545
La0 O5 2.453358 1_555
La0 O7 2.536390 1_555
La0 O12 2.562597 1_545
La0 O13 2.581919 1_554
La0 O11 2.643383 1_555
La0 O9 2.654865 1_545
La1 O2 2.438230 1_565
La1 O4 2.453358 1_555
La1 O6 2.536390 1_555
La1 O13 2.562597 1_565
La1 O12 2.581919 1_556
La1 O10 2.643383 1_555
La1 O8 2.654865 1_565
La2 O5 2.432556 1_555
La2 O7 2.446133 1_555
La2 O3 2.455118 1_455
La2 O14 2.457952 1_455
La2 O9 2.545492 1_555
La2 O11 2.585822 1_455
La3 O4 2.432556 1_555
La3 O6 2.446133 1_555
La3 O2 2.455118 1_655
La3 O15 2.457952 1_655
La3 O8 2.545492 1_555
La3 O10 2.585822 1_655
La4 O3 2.410342 1_445
La4 O2 2.410342 1_555
La4 O10 2.567595 1_545
La4 O11 2.567595 1_455
La4 O8 2.580420 1_455
La4 O9 2.580420 1_545
La4 O0 2.595567 1_555
La4 O1 2.595567 1_445
Mg0 O12 2.075547 1_555
Mg0 O13 2.075547 1_554
Mg0 O5 2.091417 1_555
Mg0 O4 2.091417 1_554
Mg0 O15 2.140709 1_554
Mg0 O14 2.140709 1_555
O0 Re0 1.982759 1_555
O0 Re1 2.062482 1_555
O1 Re1 1.982759 1_555
O1 Re0 2.062482 1_555
O2 Re0 1.972133 1_555
O3 Re1 1.972133 1_555
O4 Re0 2.101232 1_555
O5 Re1 2.101232 1_555
O6 Re2 1.930342 1_666
O7 Re2 1.930342 1_555
O8 Re0 1.936803 1_555
O9 Re1 1.936803 1_555
O10 Re0 1.931652 1_555
O11 Re1 1.931652 1_555
O12 Re2 2.040943 1_565
O13 Re2 2.040943 1_656
O14 Re2 1.985165 1_665
O15 Re2 1.985165 1_556
