# generated using pymatgen
data_ScCoC2
_symmetry_space_group_name_H-M   'P 1'
_cell_length_a   3.34281127
_cell_length_b   3.34281104
_cell_length_c   7.18148119
_cell_angle_alpha   90.00005721
_cell_angle_beta   90.00008156
_cell_angle_gamma   89.99999931
_symmetry_Int_Tables_number   1
_chemical_formula_structural   ScCoC2
_chemical_formula_sum   'Sc2 Co2 C4'
_cell_volume   80.24864587
_cell_formula_units_Z   2
loop_
 _symmetry_equiv_pos_site_id
 _symmetry_equiv_pos_as_xyz
  1  'x, y, z'
loop_
 _atom_site_type_symbol
 _atom_site_label
 _atom_site_symmetry_multiplicity
 _atom_site_fract_x
 _atom_site_fract_y
 _atom_site_fract_z
 _atom_site_occupancy
  Sc  Sc0  1  0.25000116  0.25000068  0.65433093  1
  Sc  Sc1  1  0.74999916  0.74999976  0.34566908  1
  Co  Co0  1  0.25000004  0.74999947  0.99999978  1
  Co  Co1  1  0.75000005  0.24999945  0.00000022  1
  C  C0  1  0.74999974  0.74999926  0.85013185  1
  C  C1  1  0.24999962  0.25000002  0.34670389  1
  C  C2  1  0.25000039  0.25000000  0.14986817  1
  C  C3  1  0.75000083  0.75000036  0.65329609  1
loop_
_geom_bond_atom_site_label_1
_geom_bond_atom_site_label_2
_geom_bond_distance
_geom_bond_site_symmetry_2
C0 C3 1.413572 1_555
C0 Co0 1.987954 1_655
C0 Co0 1.987955 1_555
C0 Co1 1.987955 1_566
C0 Co1 1.987956 1_556
C1 C2 1.413572 1_555
C1 Sc0 2.209218 1_555
C1 Sc1 2.363734 1_555
C1 Sc1 2.363736 1_545
C1 Sc1 2.363737 1_455
C1 Sc1 2.363738 1_445
C2 Co1 1.987954 1_455
C2 Co1 1.987955 1_555
C2 Co0 1.987955 1_554
C2 Co0 1.987956 1_544
C3 Sc1 2.209218 1_555
C3 Sc0 2.363735 1_555
C3 Sc0 2.363736 1_565
C3 Sc0 2.363736 1_655
C3 Sc0 2.363738 1_665
