# generated using pymatgen
data_Re3(SCl)7
_symmetry_space_group_name_H-M   'P 1'
_cell_length_a   9.74097405
_cell_length_b   9.74097405
_cell_length_c   22.76368600
_cell_angle_alpha   90.00000000
_cell_angle_beta   90.00000000
_cell_angle_gamma   120.00000034
_symmetry_Int_Tables_number   1
_chemical_formula_structural   Re3(SCl)7
_chemical_formula_sum   'Re12 S28 Cl28'
_cell_volume   1870.58733410
_cell_formula_units_Z   4
loop_
 _symmetry_equiv_pos_site_id
 _symmetry_equiv_pos_as_xyz
  1  'x, y, z'
loop_
 _atom_site_type_symbol
 _atom_site_label
 _atom_site_symmetry_multiplicity
 _atom_site_fract_x
 _atom_site_fract_y
 _atom_site_fract_z
 _atom_site_occupancy
  Re  Re0  1  0.85624300  0.03146600  0.57198900  1
  Re  Re1  1  0.17522400  0.14375700  0.57198900  1
  Re  Re2  1  0.63725100  0.47885700  0.33496200  1
  Re  Re3  1  0.14375700  0.17522400  0.07198900  1
  Re  Re4  1  0.96853400  0.82477600  0.57198900  1
  Re  Re5  1  0.03146600  0.85624300  0.07198900  1
  Re  Re6  1  0.82477600  0.96853400  0.07198900  1
  Re  Re7  1  0.52114300  0.15839500  0.33496200  1
  Re  Re8  1  0.36274900  0.84160500  0.83496200  1
  Re  Re9  1  0.84160500  0.36274900  0.33496200  1
  Re  Re10  1  0.47885700  0.63725100  0.83496200  1
  Re  Re11  1  0.15839500  0.52114300  0.83496200  1
  S  S0  1  0.74126400  0.68488200  0.06590900  1
  S  S1  1  0.07241200  0.71872600  0.84229700  1
  S  S2  1  0.92758800  0.64631400  0.34229700  1
  S  S3  1  0.29910300  0.46518600  0.76279300  1
  S  S4  1  0.71872600  0.07241200  0.34229700  1
  S  S5  1  0.16529300  0.96329200  0.64510100  1
  S  S6  1  0.66666700  0.33333300  0.41312000  1
  S  S7  1  0.03670800  0.20200100  0.64510100  1
  S  S8  1  0.83391700  0.53481400  0.26279300  1
  S  S9  1  0.96329200  0.16529300  0.14510100  1
  S  S10  1  0.46518600  0.29910300  0.26279300  1
  S  S11  1  0.31511800  0.05638200  0.06590900  1
  S  S12  1  0.83470700  0.79799900  0.14510100  1
  S  S13  1  0.00000000  0.00000000  0.99502600  1
  S  S14  1  0.33333300  0.66666700  0.91312000  1
  S  S15  1  0.35368600  0.28127400  0.34229700  1
  S  S16  1  0.70089700  0.16608300  0.26279300  1
  S  S17  1  0.28127400  0.35368600  0.84229700  1
  S  S18  1  0.64631400  0.92758800  0.84229700  1
  S  S19  1  0.68488200  0.74126400  0.56590900  1
  S  S20  1  0.20200100  0.03670800  0.14510100  1
  S  S21  1  0.53481400  0.83391700  0.76279300  1
  S  S22  1  0.00000000  0.00000000  0.49502600  1
  S  S23  1  0.16608300  0.70089700  0.76279300  1
  S  S24  1  0.79799900  0.83470700  0.64510100  1
  S  S25  1  0.25873600  0.94361800  0.56590900  1
  S  S26  1  0.05638200  0.31511800  0.56590900  1
  S  S27  1  0.94361800  0.25873600  0.06590900  1
  Cl  Cl0  1  0.65922300  0.94979800  0.99139300  1
  Cl  Cl1  1  0.67522800  0.08231100  0.62557100  1
  Cl  Cl2  1  0.38636200  0.02309600  0.90892700  1
  Cl  Cl3  1  0.61363800  0.63673500  0.40892700  1
  Cl  Cl4  1  0.70942400  0.05020200  0.49139300  1
  Cl  Cl5  1  0.59291700  0.91768900  0.12557100  1
  Cl  Cl6  1  0.93377500  0.34709800  0.77321800  1
  Cl  Cl7  1  0.41332200  0.06622500  0.77321800  1
  Cl  Cl8  1  0.02309600  0.38636200  0.40892700  1
  Cl  Cl9  1  0.00000000  0.00000000  0.73363900  1
  Cl  Cl10  1  0.05020200  0.70942400  0.99139300  1
  Cl  Cl11  1  0.34709800  0.93377500  0.27321800  1
  Cl  Cl12  1  0.40708300  0.32477200  0.62557100  1
  Cl  Cl13  1  0.63673500  0.61363800  0.90892700  1
  Cl  Cl14  1  0.29057600  0.34077700  0.99139300  1
  Cl  Cl15  1  0.58667800  0.65290200  0.27321800  1
  Cl  Cl16  1  0.91768900  0.59291700  0.62557100  1
  Cl  Cl17  1  0.66666700  0.33333300  0.17474400  1
  Cl  Cl18  1  0.32477200  0.40708300  0.12557100  1
  Cl  Cl19  1  0.00000000  0.00000000  0.23363900  1
  Cl  Cl20  1  0.94979800  0.65922300  0.49139300  1
  Cl  Cl21  1  0.36326500  0.97690400  0.40892700  1
  Cl  Cl22  1  0.08231100  0.67522800  0.12557100  1
  Cl  Cl23  1  0.34077700  0.29057600  0.49139300  1
  Cl  Cl24  1  0.06622500  0.41332200  0.27321800  1
  Cl  Cl25  1  0.97690400  0.36326500  0.90892700  1
  Cl  Cl26  1  0.65290200  0.58667800  0.77321800  1
  Cl  Cl27  1  0.33333300  0.66666700  0.67474400  1
loop_
_geom_bond_atom_site_label_1
_geom_bond_atom_site_label_2
_geom_bond_distance
_geom_bond_site_symmetry_2
Re0 S22 2.356579 1_655
Re0 S24 2.382819 1_545
Re0 S7 2.387349 1_655
Re0 S26 2.463256 1_655
Re0 S19 2.465340 1_545
Re1 S22 2.356583 1_555
Re1 S7 2.382825 1_555
Re1 S5 2.387346 1_545
Re1 S25 2.463249 1_545
Re1 S26 2.465347 1_555
Re2 S8 2.371028 1_555
Re2 S10 2.374719 1_555
Re2 S6 2.379737 1_555
Re2 S15 2.458788 1_555
Re2 S2 2.464530 1_555
Re3 S13 2.356583 1_554
Re3 S20 2.382825 1_555
Re3 S9 2.387346 1_455
Re3 S27 2.463249 1_455
Re3 S11 2.465347 1_555
Re4 S22 2.356586 1_665
Re4 S5 2.382820 1_655
Re4 S24 2.387353 1_555
Re4 S19 2.463258 1_555
Re4 S25 2.465339 1_655
Re5 S13 2.356579 1_564
Re5 S12 2.382819 1_455
Re5 S20 2.387349 1_565
Re5 S11 2.463256 1_565
Re5 S0 2.465340 1_455
Re6 S13 2.356586 1_664
Re6 S9 2.382820 1_565
Re6 S12 2.387353 1_555
Re6 S0 2.463258 1_555
Re6 S27 2.465339 1_565
Re7 S10 2.371021 1_555
Re7 S16 2.374722 1_555
Re7 S6 2.379729 1_555
Re7 S4 2.458795 1_555
Re7 S15 2.464522 1_555
Re8 S23 2.371026 1_555
Re8 S21 2.374715 1_555
Re8 S14 2.379725 1_555
Re8 S18 2.458785 1_555
Re8 S1 2.464530 1_555
Re9 S16 2.371026 1_555
Re9 S8 2.374715 1_555
Re9 S6 2.379725 1_555
Re9 S2 2.458785 1_555
Re9 S4 2.464530 1_555
Re10 S21 2.371028 1_555
Re10 S3 2.374719 1_555
Re10 S14 2.379737 1_555
Re10 S17 2.458788 1_555
Re10 S18 2.464530 1_555
Re11 S3 2.371021 1_555
Re11 S23 2.374722 1_555
Re11 S14 2.379729 1_555
Re11 S1 2.458795 1_555
Re11 S17 2.464522 1_555
S0 S12 2.071089 1_555
S1 S23 2.072819 1_555
S2 S8 2.072819 1_555
S10 S15 2.072819 1_555
S11 S20 2.071089 1_555
S16 S4 2.072819 1_555
S17 S3 2.072819 1_555
S18 S21 2.072819 1_555
S19 S24 2.071089 1_555
S25 S5 2.071089 1_555
S26 S7 2.071089 1_555
S27 S9 2.071089 1_555
Cl0 Re6 2.388641 1_556
Cl1 Re0 2.390697 1_555
Cl2 Re8 2.367833 1_545
Cl3 Re2 2.367833 1_555
Cl4 Re0 2.388653 1_555
Cl5 Re6 2.390689 1_555
Cl6 Re11 2.434684 1_655
Cl7 Re8 2.434689 1_545
Cl8 Re9 2.367833 1_455
Cl9 S24 2.712582 1_445
Cl9 S7 2.712582 1_555
Cl9 S5 2.712582 1_545
Cl10 Re5 2.388653 1_556
Cl11 Re7 2.434684 1_565
Cl12 Re1 2.390691 1_555
Cl13 Re10 2.367833 1_555
Cl14 Re3 2.388646 1_556
Cl15 Re2 2.434674 1_555
Cl16 Re4 2.390689 1_555
Cl17 S16 2.706643 1_555
Cl17 S8 2.706648 1_555
Cl17 S10 2.706650 1_555
Cl18 Re3 2.390691 1_555
Cl19 S12 2.712582 1_445
Cl19 S20 2.712582 1_555
Cl19 S9 2.712582 1_455
Cl20 Re4 2.388641 1_555
Cl21 Re7 2.367833 1_565
Cl22 Re5 2.390697 1_555
Cl23 Re1 2.388646 1_555
Cl24 Re9 2.434689 1_455
Cl25 Re11 2.367833 1_655
Cl26 Re10 2.434674 1_555
Cl27 S23 2.706643 1_555
Cl27 S21 2.706648 1_555
Cl27 S3 2.706650 1_555
