# generated using pymatgen
data_KFeH5(SO5)2
_symmetry_space_group_name_H-M   'P 1'
_cell_length_a   5.17738500
_cell_length_b   6.40101661
_cell_length_c   7.74007165
_cell_angle_alpha   99.68753316
_cell_angle_beta   102.25497388
_cell_angle_gamma   94.20140985
_symmetry_Int_Tables_number   1
_chemical_formula_structural   KFeH5(SO5)2
_chemical_formula_sum   'K1 Fe1 H5 S2 O10'
_cell_volume   245.50399088
_cell_formula_units_Z   1
loop_
 _symmetry_equiv_pos_site_id
 _symmetry_equiv_pos_as_xyz
  1  'x, y, z'
loop_
 _atom_site_type_symbol
 _atom_site_label
 _atom_site_symmetry_multiplicity
 _atom_site_fract_x
 _atom_site_fract_y
 _atom_site_fract_z
 _atom_site_occupancy
  K  K0  1  0.00426500  0.10998100  0.57379400  1
  Fe  Fe0  1  0.00814600  0.02650400  0.07365500  1
  H  H0  1  0.63661000  0.16830000  0.82448800  1
  H  H1  1  0.24137600  0.59395200  0.84652500  1
  H  H2  1  0.90242300  0.70769600  0.22229100  1
  H  H3  1  0.73168400  0.35471300  0.98787800  1
  H  H4  1  0.30688600  0.81468300  0.36075300  1
  S  S0  1  0.56288300  0.31374200  0.26437400  1
  S  S1  1  0.58229100  0.70641600  0.76025600  1
  O  O0  1  0.05148500  0.81513300  0.22935000  1
  O  O1  1  0.59966600  0.47562700  0.15004500  1
  O  O2  1  0.74197400  0.58866400  0.65378300  1
  O  O3  1  0.68986800  0.11505600  0.20705200  1
  O  O4  1  0.16146700  0.94497600  0.89766500  1
  O  O5  1  0.49857400  0.84829200  0.44902700  1
  O  O6  1  0.43958000  0.88396000  0.62831300  1
  O  O7  1  0.26721500  0.24999400  0.24900800  1
  O  O8  1  0.33538400  0.52816200  0.75565500  1
  O  O9  1  0.80022200  0.24714800  0.90408900  1
loop_
_geom_bond_atom_site_label_1
_geom_bond_atom_site_label_2
_geom_bond_distance
_geom_bond_site_symmetry_2
K0 O6 2.762295 1_545
K0 O4 2.865806 1_545
K0 O5 2.886666 1_445
K0 O3 2.964048 1_455
K0 O8 3.020030 1_555
Fe0 O4 1.743123 1_544
Fe0 O0 1.952331 1_545
Fe0 O7 1.995060 1_555
Fe0 O3 2.182874 1_455
Fe0 O9 2.263390 1_454
H0 O9 0.981336 1_555
H1 O8 0.992270 1_555
H2 O0 0.981434 1_655
H3 O9 1.001895 1_555
H3 O1 1.660265 1_556
H4 O5 1.062748 1_555
H4 O0 1.487800 1_555
O1 S0 1.498114 1_555
O2 S1 1.449918 1_555
O3 S0 1.517561 1_555
O5 O6 1.467861 1_555
O6 S1 1.753205 1_555
O7 S0 1.529317 1_555
O8 S1 1.640298 1_555
