# generated using pymatgen
data_Ba2Ti(SiO4)2
_symmetry_space_group_name_H-M   'P 1'
_cell_length_a   8.56085271
_cell_length_b   8.56085271
_cell_length_c   5.23975282
_cell_angle_alpha   90.00000000
_cell_angle_beta   90.00000000
_cell_angle_gamma   90.00000000
_symmetry_Int_Tables_number   1
_chemical_formula_structural   Ba2Ti(SiO4)2
_chemical_formula_sum   'Ba4 Ti2 Si4 O16'
_cell_volume   384.01204802
_cell_formula_units_Z   2
loop_
 _symmetry_equiv_pos_site_id
 _symmetry_equiv_pos_as_xyz
  1  'x, y, z'
loop_
 _atom_site_type_symbol
 _atom_site_label
 _atom_site_symmetry_multiplicity
 _atom_site_fract_x
 _atom_site_fract_y
 _atom_site_fract_z
 _atom_site_occupancy
  Ba  Ba0  1  0.17301428  0.67301428  0.99494196  1
  Ba  Ba1  1  0.67301428  0.82698572  0.99494196  1
  Ba  Ba2  1  0.32698572  0.17301428  0.99494196  1
  Ba  Ba3  1  0.82698572  0.32698572  0.99494196  1
  Ti  Ti0  1  0.50000000  0.50000000  0.53412278  1
  Ti  Ti1  1  -0.00000000  0.00000000  0.53412278  1
  Si  Si0  1  0.37200801  0.87200801  0.51053714  1
  Si  Si1  1  0.87200801  0.62799199  0.51053714  1
  Si  Si2  1  0.12799199  0.37200801  0.51053714  1
  Si  Si3  1  0.62799199  0.12799199  0.51053714  1
  O  O0  1  0.50000000  0.50000000  0.20886314  1
  O  O1  1  -0.00000000  0.00000000  0.20886314  1
  O  O2  1  0.79265418  0.07693521  0.64084162  1
  O  O3  1  0.20734582  0.92306479  0.64084162  1
  O  O4  1  0.92306479  0.79265418  0.64084162  1
  O  O5  1  0.07693521  0.20734582  0.64084162  1
  O  O6  1  0.42306479  0.70734582  0.64084162  1
  O  O7  1  0.70734582  0.57693521  0.64084162  1
  O  O8  1  0.29265418  0.42306479  0.64084162  1
  O  O9  1  0.57693521  0.29265418  0.64084162  1
  O  O10  1  0.50000000  0.00000000  0.62559986  1
  O  O11  1  -0.00000000  0.50000000  0.62559986  1
  O  O12  1  0.62611148  0.12611148  0.20654527  1
  O  O13  1  0.12611148  0.37388852  0.20654527  1
  O  O14  1  0.87388852  0.62611148  0.20654527  1
  O  O15  1  0.37388852  0.87388852  0.20654527  1
loop_
_geom_bond_atom_site_label_1
_geom_bond_atom_site_label_2
_geom_bond_distance
_geom_bond_site_symmetry_2
Ba0 O15 2.672779 1_556
Ba0 O13 2.819238 1_556
Ba0 O14 2.819238 1_456
Ba0 O3 2.848025 1_555
Ba0 O6 2.848025 1_555
Ba0 O11 2.851814 1_555
Ba0 O8 3.011676 1_555
Ba0 O4 3.011676 1_455
Ba0 O1 3.359488 1_566
Ba0 O0 3.359488 1_556
Ba1 O14 2.672779 1_556
Ba1 O15 2.819238 1_556
Ba1 O12 2.819238 1_566
Ba1 O7 2.848025 1_555
Ba1 O4 2.848025 1_555
Ba1 O10 2.851814 1_565
Ba1 O6 3.011676 1_555
Ba1 O2 3.011676 1_565
Ba1 O0 3.359488 1_556
Ba1 O1 3.359488 1_666
Ba2 O13 2.672779 1_556
Ba2 O15 2.819238 1_546
Ba2 O12 2.819238 1_556
Ba2 O5 2.848025 1_555
Ba2 O8 2.848025 1_555
Ba2 O10 2.851814 1_555
Ba2 O3 3.011676 1_545
Ba2 O9 3.011676 1_555
Ba2 O1 3.359488 1_556
Ba2 O0 3.359488 1_556
Ba3 O12 2.672779 1_556
Ba3 O13 2.819238 1_656
Ba3 O14 2.819238 1_556
Ba3 O2 2.848025 1_555
Ba3 O9 2.848025 1_555
Ba3 O11 2.851814 1_655
Ba3 O7 3.011676 1_555
Ba3 O5 3.011676 1_655
Ba3 O1 3.359488 1_656
Ba3 O0 3.359488 1_556
O0 Ti0 1.704280 1_555
O1 Ti1 1.704280 1_555
O2 Si3 1.626137 1_555
O2 Ti1 1.974159 1_655
O3 Si0 1.626137 1_555
O3 Ti1 1.974159 1_565
O4 Si1 1.626137 1_555
O4 Ti1 1.974159 1_665
O5 Si2 1.626137 1_555
O5 Ti1 1.974159 1_555
O6 Si0 1.626137 1_555
O6 Ti0 1.974159 1_555
O7 Si1 1.626137 1_555
O7 Ti0 1.974159 1_555
O8 Si2 1.626137 1_555
O8 Ti0 1.974159 1_555
O9 Si3 1.626137 1_555
O9 Ti0 1.974159 1_555
O10 Si3 1.662737 1_555
O10 Si0 1.662737 1_545
O11 Si2 1.662737 1_555
O11 Si1 1.662737 1_455
O12 Si3 1.593005 1_555
O13 Si2 1.593005 1_555
O14 Si1 1.593005 1_555
O15 Si0 1.593005 1_555
