# generated using pymatgen
data_BaNa5LiCo5F18
_symmetry_space_group_name_H-M   'P 1'
_cell_length_a   6.92269500
_cell_length_b   6.93605714
_cell_length_c   17.41465928
_cell_angle_alpha   97.59672447
_cell_angle_beta   97.61047576
_cell_angle_gamma   109.45816590
_symmetry_Int_Tables_number   1
_chemical_formula_structural   BaNa5LiCo5F18
_chemical_formula_sum   'Ba2 Na10 Li2 Co10 F36'
_cell_volume   767.44873792
_cell_formula_units_Z   2
loop_
 _symmetry_equiv_pos_site_id
 _symmetry_equiv_pos_as_xyz
  1  'x, y, z'
loop_
 _atom_site_type_symbol
 _atom_site_label
 _atom_site_symmetry_multiplicity
 _atom_site_fract_x
 _atom_site_fract_y
 _atom_site_fract_z
 _atom_site_occupancy
  Ba  Ba0  1  0.99777000  0.00069600  0.00191700  1
  Ba  Ba1  1  0.32993700  0.33251800  0.66487400  1
  Na  Na0  1  0.15975000  0.16917000  0.33436100  1
  Na  Na1  1  0.81174900  0.33072000  0.16189400  1
  Na  Na2  1  0.34041300  0.84059500  0.16632700  1
  Na  Na3  1  0.82508500  0.84262300  0.66821600  1
  Na  Na4  1  0.65551200  0.66787200  0.33319200  1
  Na  Na5  1  0.50631800  0.00114200  0.50154600  1
  Na  Na6  1  0.49270700  0.50898600  0.00296000  1
  Na  Na7  1  0.97487400  0.48597000  0.50208900  1
  Na  Na8  1  0.15106000  0.66643700  0.82854000  1
  Na  Na9  1  0.65248200  0.15773700  0.83455600  1
  Li  Li0  1  0.82998800  0.33406100  0.66655400  1
  Li  Li1  1  0.49654800  0.99977700  0.99966200  1
  Co  Co0  1  0.66134200  0.16749400  0.33267300  1
  Co  Co1  1  0.33225500  0.33649900  0.16964200  1
  Co  Co2  1  0.16238300  0.16754500  0.83386400  1
  Co  Co3  1  0.32849400  0.83249000  0.66531500  1
  Co  Co4  1  0.82700200  0.83379000  0.17038300  1
  Co  Co5  1  0.99086000  0.99532100  0.49689400  1
  Co  Co6  1  0.16023300  0.66585700  0.33305300  1
  Co  Co7  1  0.49610200  0.49979200  0.49623400  1
  Co  Co8  1  0.66152800  0.66639400  0.83396900  1
  Co  Co9  1  0.99470400  0.50009600  0.00122500  1
  F  F0  1  0.24777100  0.76508200  0.03096600  1
  F  F1  1  0.95368700  0.66762700  0.23751600  1
  F  F2  1  0.53613800  0.63347900  0.17470500  1
  F  F3  1  0.09568000  0.39113100  0.09944400  1
  F  F4  1  0.83442600  0.64244400  0.06814000  1
  F  F5  1  0.92507600  0.43559900  0.36557300  1
  F  F6  1  0.24333900  0.44380800  0.26901800  1
  F  F7  1  0.62232100  0.34332800  0.56665000  1
  F  F8  1  0.19933900  0.29857100  0.50116500  1
  F  F9  1  0.41685400  0.23044700  0.07032900  1
  F  F10  1  0.76095600  0.05723800  0.42855300  1
  F  F11  1  0.82175600  0.02645000  0.26910400  1
  F  F12  1  0.56342100  0.27355600  0.23750400  1
  F  F13  1  0.50257600  0.30953600  0.39762100  1
  F  F14  1  0.58121600  0.09685500  0.69579200  1
  F  F15  1  0.90800700  0.10739400  0.59578500  1
  F  F16  1  0.12539500  0.03529000  0.16579100  1
  F  F17  1  0.28516900  0.00733400  0.90135500  1
  F  F18  1  0.70311600  0.98779500  0.09881100  1
  F  F19  1  0.08355800  0.89174700  0.39878800  1
  F  F20  1  0.86611200  0.96663900  0.83753000  1
  F  F21  1  0.42754400  0.72436300  0.76303000  1
  F  F22  1  0.39921800  0.89689800  0.30243000  1
  F  F23  1  0.48809500  0.69044700  0.59835100  1
  F  F24  1  0.16899700  0.97585100  0.73136600  1
  F  F25  1  0.22880000  0.94210300  0.56754400  1
  F  F26  1  0.57983900  0.77582700  0.93188900  1
  F  F27  1  0.78750200  0.69984400  0.49231600  1
  F  F28  1  0.37001200  0.66389400  0.42912500  1
  F  F29  1  0.74746800  0.56240100  0.73464400  1
  F  F30  1  0.07769700  0.56568400  0.63696100  1
  F  F31  1  0.15514500  0.35593100  0.93535800  1
  F  F32  1  0.89623200  0.60950400  0.90346600  1
  F  F33  1  0.45748700  0.36621000  0.82871300  1
  F  F34  1  0.03787600  0.32224900  0.76340500  1
  F  F35  1  0.74387900  0.23386300  0.97132100  1
loop_
_geom_bond_atom_site_label_1
_geom_bond_atom_site_label_2
_geom_bond_distance
_geom_bond_site_symmetry_2
Ba0 F0 2.791578 1_645
Ba0 F18 2.801075 1_545
Ba0 F26 2.801187 1_544
Ba0 F35 2.803959 1_554
Ba0 F9 2.806790 1_655
Ba0 F31 2.811151 1_654
Ba0 F17 2.812579 1_654
Ba0 F3 2.816695 1_655
Ba0 F32 2.824156 1_544
Ba0 F16 2.827058 1_655
Ba0 F4 2.830945 1_545
Ba0 F20 2.840503 1_544
Ba1 F30 2.786652 1_555
Ba1 F29 2.803625 1_555
Ba1 F14 2.804758 1_555
Ba1 F7 2.806840 1_555
Ba1 F34 2.809358 1_555
Ba1 F25 2.811587 1_545
Ba1 F15 2.819786 1_455
Ba1 F24 2.822220 1_545
Ba1 F23 2.826598 1_555
Ba1 F33 2.827358 1_555
Ba1 F8 2.828185 1_555
Ba1 F21 2.829739 1_555
Co0 F12 2.025953 1_555
Co0 F11 2.044223 1_555
Co0 F13 2.052797 1_555
Co0 F10 2.057257 1_555
Co0 F5 2.073393 1_555
Co0 F22 2.075875 1_545
Co1 F9 2.023409 1_555
Co1 F6 2.043200 1_555
Co1 F2 2.055477 1_555
Co1 F12 2.061338 1_555
Co1 F3 2.079867 1_555
Co1 F16 2.089077 1_555
Co2 F17 2.012154 1_555
Co2 F34 2.020908 1_555
Co2 F33 2.070275 1_555
Co2 F31 2.071306 1_555
Co2 F20 2.075222 1_445
Co2 F24 2.095412 1_545
Co3 F14 2.015992 1_565
Co3 F30 2.018305 1_555
Co3 F24 2.072789 1_555
Co3 F21 2.073478 1_555
Co3 F23 2.077026 1_555
Co3 F25 2.081812 1_555
Co4 F18 2.027138 1_555
Co4 F11 2.045505 1_565
Co4 F2 2.048020 1_555
Co4 F1 2.054823 1_555
Co4 F16 2.092040 1_665
Co4 F4 2.092660 1_555
Co5 F15 2.025780 1_565
Co5 F19 2.029738 1_655
Co5 F27 2.047755 1_555
Co5 F10 2.054922 1_565
Co5 F25 2.086045 1_655
Co5 F8 2.102458 1_665
Co6 F1 2.049308 1_455
Co6 F6 2.062221 1_555
Co6 F5 2.067049 1_455
Co6 F22 2.069506 1_555
Co6 F28 2.069769 1_555
Co6 F19 2.070705 1_555
Co7 F7 2.035877 1_555
Co7 F13 2.037937 1_555
Co7 F28 2.041254 1_555
Co7 F27 2.048419 1_555
Co7 F8 2.084222 1_555
Co7 F23 2.089841 1_555
Co8 F26 2.000742 1_555
Co8 F29 2.023543 1_555
Co8 F32 2.071938 1_555
Co8 F33 2.072356 1_555
Co8 F20 2.079455 1_555
Co8 F21 2.084894 1_555
Co9 F35 2.016477 1_554
Co9 F0 2.019468 1_655
Co9 F32 2.077909 1_554
Co9 F31 2.079265 1_654
Co9 F4 2.081347 1_555
Co9 F3 2.088678 1_655
F0 Li1 2.128055 1_554
F0 Na2 2.300362 1_555
F1 Na1 2.339717 1_555
F1 Na4 2.819483 1_555
F2 Na2 2.284897 1_555
F2 Na4 2.729076 1_555
F3 Na1 2.315117 1_455
F4 Na6 2.300754 1_555
F4 Na1 2.853117 1_555
F5 Na7 2.318600 1_555
F5 Na4 2.891421 1_555
F6 Na0 2.295982 1_555
F6 Na4 2.747289 1_555
F7 Li0 2.127531 1_555
F7 Na5 2.311055 1_555
F7 Na7 2.758934 1_555
F8 Na7 2.334764 1_455
F9 Li1 2.150809 1_544
F9 Na6 2.339062 1_555
F9 Na1 2.790184 1_555
F10 Na5 2.267584 1_555
F10 Na4 2.786392 1_545
F11 Na0 2.280633 1_655
F11 Na4 2.814781 1_545
F12 Na1 2.264896 1_555
F12 Na4 2.831147 1_555
F13 Na0 2.297489 1_555
F13 Na4 2.802865 1_555
F14 Li0 2.120866 1_555
F14 Na9 2.353069 1_555
F14 Na3 2.857345 1_545
F15 Li0 2.124156 1_555
F15 Na3 2.322729 1_545
F15 Na5 2.841694 1_555
F16 Na2 2.319097 1_545
F17 Li1 2.118062 1_545
F17 Na8 2.343835 1_545
F18 Li1 2.120435 1_554
F18 Na1 2.308346 1_565
F18 Na2 2.849700 1_555
F19 Na0 2.300227 1_565
F19 Na4 2.840018 1_455
F20 Na9 2.291400 1_565
F21 Na8 2.305125 1_555
F22 Na2 2.308635 1_555
F22 Na4 2.794528 1_555
F23 Na3 2.303224 1_555
F24 Na3 2.302951 1_455
F25 Na5 2.316187 1_565
F26 Li1 2.104879 1_555
F26 Na6 2.319667 1_556
F27 Na7 2.280864 1_555
F27 Na4 2.755879 1_555
F28 Na5 2.320974 1_565
F28 Na4 2.747457 1_555
F29 Li0 2.127532 1_555
F29 Na3 2.338377 1_555
F29 Na8 2.852248 1_655
F30 Li0 2.098744 1_455
F30 Na7 2.297957 1_455
F31 Na6 2.293869 1_556
F32 Na8 2.291793 1_655
F33 Na9 2.286127 1_555
F34 Li0 2.096359 1_455
F34 Na8 2.324263 1_555
F35 Li1 2.096420 1_545
F35 Na9 2.323244 1_555
