# generated using pymatgen
data_Y7C2I12N
_symmetry_space_group_name_H-M   'P 1'
_cell_length_a   9.93986300
_cell_length_b   10.61232684
_cell_length_c   17.02780720
_cell_angle_alpha   101.51291073
_cell_angle_beta   92.98938771
_cell_angle_gamma   112.79106864
_symmetry_Int_Tables_number   1
_chemical_formula_structural   Y7C2I12N
_chemical_formula_sum   'Y14 C4 I24 N2'
_cell_volume   1605.87240741
_cell_formula_units_Z   2
loop_
 _symmetry_equiv_pos_site_id
 _symmetry_equiv_pos_as_xyz
  1  'x, y, z'
loop_
 _atom_site_type_symbol
 _atom_site_label
 _atom_site_symmetry_multiplicity
 _atom_site_fract_x
 _atom_site_fract_y
 _atom_site_fract_z
 _atom_site_occupancy
  Y  Y0  1  0.28199800  0.24242300  0.35044400  1
  Y  Y1  1  0.71800200  0.75757700  0.64955600  1
  Y  Y2  1  0.93541200  0.57085600  0.73682600  1
  Y  Y3  1  0.48002800  0.56662100  0.32093200  1
  Y  Y4  1  0.13243600  0.11610400  0.14378300  1
  Y  Y5  1  0.33727800  0.45574100  0.11357600  1
  Y  Y6  1  0.66272200  0.54425900  0.88642400  1
  Y  Y7  1  0.54538400  0.25240300  0.19071800  1
  Y  Y8  1  0.64037600  0.45204200  0.48058400  1
  Y  Y9  1  0.06458800  0.42914400  0.26317400  1
  Y  Y10  1  0.51997200  0.43337900  0.67906800  1
  Y  Y11  1  0.45461600  0.74759700  0.80928200  1
  Y  Y12  1  0.35962400  0.54795800  0.51941600  1
  Y  Y13  1  0.86756400  0.88389600  0.85621700  1
  C  C0  1  0.75510600  0.63879600  0.76614800  1
  C  C1  1  0.36270200  0.31963300  0.21602400  1
  C  C2  1  0.63729800  0.68036700  0.78397600  1
  C  C3  1  0.24489400  0.36120400  0.23385200  1
  I  I0  1  0.45770600  0.85521700  0.65026400  1
  I  I1  1  0.27147300  0.70658500  0.38965400  1
  I  I2  1  0.17359100  0.84674700  0.83571600  1
  I  I3  1  0.96875300  0.67880000  0.57584500  1
  I  I4  1  0.95080500  0.05550400  0.73201700  1
  I  I5  1  0.66107600  0.02649400  0.91123700  1
  I  I6  1  0.60669400  0.39906700  0.05018200  1
  I  I7  1  0.33892400  0.97350600  0.08876300  1
  I  I8  1  0.43987200  0.25363800  0.80331200  1
  I  I9  1  0.90511600  0.43016600  0.87417100  1
  I  I10  1  0.70117600  0.81772500  0.46990400  1
  I  I11  1  0.12507000  0.19860300  0.98228200  1
  I  I12  1  0.72852700  0.29341500  0.61034600  1
  I  I13  1  0.03124700  0.32120000  0.42415500  1
  I  I14  1  0.56012800  0.74636200  0.19668800  1
  I  I15  1  0.39330600  0.60093300  0.94981800  1
  I  I16  1  0.29882400  0.18227500  0.53009600  1
  I  I17  1  0.21378900  0.47048000  0.68780200  1
  I  I18  1  0.87493000  0.80139700  0.01771800  1
  I  I19  1  0.54229400  0.14478300  0.34973600  1
  I  I20  1  0.09488400  0.56983400  0.12582900  1
  I  I21  1  0.82640900  0.15325300  0.16428400  1
  I  I22  1  0.04919500  0.94449600  0.26798300  1
  I  I23  1  0.78621100  0.52952000  0.31219800  1
  N  N0  1  0.55921400  0.54870500  0.58426000  1
  N  N1  1  0.44078600  0.45129500  0.41574000  1
loop_
_geom_bond_atom_site_label_1
_geom_bond_atom_site_label_2
_geom_bond_distance
_geom_bond_site_symmetry_2
C0 C2 1.428938 1_555
C0 Y2 2.220794 1_555
C0 Y13 2.518629 1_555
C0 Y6 2.519291 1_555
C0 Y10 2.610415 1_555
C0 Y1 2.636134 1_555
C1 C3 1.428938 1_555
C1 Y7 2.225886 1_555
C1 Y4 2.496549 1_555
C1 Y5 2.536931 1_555
C1 Y3 2.639471 1_555
C1 Y0 2.642870 1_555
C2 Y11 2.225886 1_555
C2 Y13 2.496549 1_555
C2 Y6 2.536931 1_555
C2 Y10 2.639471 1_555
C2 Y1 2.642870 1_555
C3 Y9 2.220794 1_555
C3 Y4 2.518629 1_555
C3 Y5 2.519291 1_555
C3 Y3 2.610415 1_555
C3 Y0 2.636134 1_555
I0 Y1 3.137402 1_555
I0 Y11 3.138961 1_555
I0 Y12 3.310223 1_555
I1 Y3 3.133317 1_555
I1 Y9 3.138797 1_555
I1 Y12 3.302930 1_555
I2 Y2 3.042800 1_455
I2 Y13 3.242706 1_455
I2 Y11 3.366269 1_555
I3 Y2 3.160710 1_555
I3 Y1 3.163581 1_555
I3 Y8 3.298512 1_555
I4 Y13 3.004389 1_545
I4 Y1 3.089240 1_545
I5 Y11 2.976078 1_545
I5 Y13 3.069423 1_545
I6 Y7 3.069932 1_555
I6 Y5 3.160477 1_555
I6 Y6 3.416418 1_554
I7 Y7 2.976078 1_565
I7 Y4 3.069423 1_565
I8 Y6 3.009891 1_555
I8 Y10 3.059097 1_555
I9 Y2 2.984674 1_555
I9 Y6 3.086468 1_555
I10 Y3 3.248028 1_555
I10 Y1 3.256098 1_555
I11 Y4 3.053548 1_556
I11 Y5 3.083399 1_556
I11 Y13 3.500824 1_445
I12 Y10 3.133317 1_555
I12 Y2 3.138797 1_555
I12 Y8 3.302930 1_555
I13 Y9 3.160710 1_555
I13 Y0 3.163581 1_555
I13 Y12 3.298512 1_555
I14 Y5 3.009891 1_555
I14 Y3 3.059097 1_555
I15 Y11 3.069932 1_555
I15 Y6 3.160477 1_555
I15 Y5 3.416418 1_556
I16 Y10 3.248028 1_555
I16 Y0 3.256098 1_555
I17 Y11 3.202952 1_555
I17 Y10 3.223619 1_555
I17 Y12 3.383725 1_555
I17 Y2 3.414311 1_455
I18 Y13 3.053548 1_554
I18 Y6 3.083399 1_554
I18 Y4 3.500824 1_665
I19 Y0 3.137402 1_555
I19 Y7 3.138961 1_555
I19 Y8 3.310223 1_555
I20 Y9 2.984674 1_555
I20 Y5 3.086468 1_555
I21 Y9 3.042800 1_655
I21 Y4 3.242706 1_655
I21 Y7 3.366269 1_555
I22 Y4 3.004389 1_565
I22 Y0 3.089240 1_565
I23 Y7 3.202952 1_555
I23 Y3 3.223619 1_555
I23 Y8 3.383725 1_555
I23 Y9 3.414311 1_655
N0 Y10 2.177324 1_555
N0 Y1 2.182526 1_555
N0 Y8 2.210541 1_555
N0 Y12 2.216057 1_555
N1 Y3 2.177324 1_555
N1 Y0 2.182526 1_555
N1 Y12 2.210541 1_555
N1 Y8 2.216057 1_555
