# generated using pymatgen
data_LiNbAs2
_symmetry_space_group_name_H-M   'P 1'
_cell_length_a   4.93328506
_cell_length_b   4.93328506
_cell_length_c   27.29618536
_cell_angle_alpha   84.93044653
_cell_angle_beta   84.93044653
_cell_angle_gamma   41.62671558
_symmetry_Int_Tables_number   1
_chemical_formula_structural   LiNbAs2
_chemical_formula_sum   'Li6 Nb6 As12'
_cell_volume   439.31180437
_cell_formula_units_Z   6
loop_
 _symmetry_equiv_pos_site_id
 _symmetry_equiv_pos_as_xyz
  1  'x, y, z'
loop_
 _atom_site_type_symbol
 _atom_site_label
 _atom_site_symmetry_multiplicity
 _atom_site_fract_x
 _atom_site_fract_y
 _atom_site_fract_z
 _atom_site_occupancy
  Li  Li0  1  0.98222900  0.98222900  0.41967700  1
  Li  Li1  1  0.32965100  0.32965100  0.33115700  1
  Li  Li2  1  0.63227700  0.63227700  0.24228800  1
  Li  Li3  1  0.02481400  0.02481400  0.16092600  1
  Li  Li4  1  0.37693700  0.37693700  0.07453000  1
  Li  Li5  1  0.74939300  0.74939300  0.99434700  1
  Nb  Nb0  1  0.05732600  0.05732600  0.91732700  1
  Nb  Nb1  1  0.37652600  0.37652600  0.83166200  1
  Nb  Nb2  1  0.69447200  0.69447200  0.74968600  1
  Nb  Nb3  1  0.01264800  0.01264800  0.66718600  1
  Nb  Nb4  1  0.32920100  0.32920100  0.58355300  1
  Nb  Nb5  1  0.65031700  0.65031700  0.50280800  1
  As  As0  1  0.03314200  0.03314200  0.01548400  1
  As  As1  1  0.34694600  0.34694600  0.92672900  1
  As  As2  1  0.65804800  0.65804800  0.84747500  1
  As  As3  1  0.97789200  0.97789200  0.76394900  1
  As  As4  1  0.29547500  0.29547500  0.68114300  1
  As  As5  1  0.61113600  0.61113600  0.59918000  1
  As  As6  1  0.93151800  0.93151800  0.51590500  1
  As  As7  1  0.28870800  0.28870800  0.43995500  1
  As  As8  1  0.66563300  0.66563300  0.38867800  1
  As  As9  1  0.92012100  0.92012100  0.26155500  1
  As  As10  1  0.32437700  0.32437700  0.19789900  1
  As  As11  1  0.73361300  0.73361300  0.13690000  1
loop_
_geom_bond_atom_site_label_1
_geom_bond_atom_site_label_2
_geom_bond_distance
_geom_bond_site_symmetry_2
As0 Nb0 2.667484 1_554
As0 Li5 2.676893 1_454
As0 Li5 2.676893 1_544
As0 Li4 2.703114 1_545
As0 Li4 2.703114 1_455
As0 Li5 2.732525 1_444
As1 Nb1 2.583492 1_555
As1 Nb0 2.609425 1_565
As1 Nb0 2.609425 1_655
As1 Li5 2.641000 1_455
As1 Li5 2.641000 1_545
As1 Nb0 2.707423 1_555
As2 Nb2 2.658627 1_555
As2 Nb1 2.671977 1_555
As2 Nb1 2.674818 1_655
As2 Nb1 2.674818 1_565
As2 Nb0 2.690026 1_655
As2 Nb0 2.690026 1_565
As3 Nb3 2.630387 1_665
As3 Nb1 2.652592 1_565
As3 Nb1 2.652592 1_655
As3 Nb2 2.658400 1_655
As3 Nb2 2.658400 1_565
As3 Nb2 2.678890 1_555
As4 Nb4 2.652566 1_555
As4 Nb3 2.661822 1_565
As4 Nb3 2.661822 1_655
As4 Nb2 2.666729 1_545
As4 Nb2 2.666729 1_455
As4 Nb3 2.671504 1_555
As5 Nb5 2.621230 1_555
As5 Nb3 2.650444 1_565
As5 Nb3 2.650444 1_655
As5 Nb4 2.671554 1_655
As5 Nb4 2.671554 1_565
As5 Nb4 2.674456 1_555
As6 Li0 2.624081 1_555
As6 Nb5 2.651226 1_555
As6 Nb4 2.653944 1_565
As6 Nb4 2.653944 1_655
As6 Nb5 2.671354 1_655
As6 Nb5 2.671354 1_565
As7 Li0 2.525428 1_545
As7 Li0 2.525428 1_455
As7 As8 2.573050 1_455
As7 As8 2.573050 1_545
As7 Nb5 2.689089 1_455
As7 Nb5 2.689089 1_545
As7 Li0 2.931152 1_445
As7 Li1 2.958057 1_555
As8 Li0 2.525709 1_545
As8 Li0 2.525709 1_455
As8 Li1 2.716087 1_565
As8 Li1 2.716087 1_655
As9 Li2 2.642583 1_565
As9 Li2 2.642583 1_655
As9 Li1 2.660583 1_565
As9 Li1 2.660583 1_655
As9 Li2 2.754631 1_555
As9 Li3 2.824127 1_665
As10 As11 2.609468 1_455
As10 As11 2.609468 1_545
As10 Li3 2.675022 1_565
As10 Li3 2.675022 1_655
As10 As9 2.676130 1_455
As10 As9 2.676130 1_545
As10 Li2 2.697001 1_545
As10 Li2 2.697001 1_455
As10 Li3 3.029631 1_555
As11 Li3 2.640518 1_565
As11 Li3 2.640518 1_655
As11 Li4 2.700533 1_565
As11 Li4 2.700533 1_655
As11 Li3 2.824160 1_665
As11 Li2 2.939472 1_555
