# generated using pymatgen
data_Yb8Si11
_symmetry_space_group_name_H-M   'P 1'
_cell_length_a   13.04595409
_cell_length_b   13.04595409
_cell_length_c   13.04595409
_cell_angle_alpha   160.52014044
_cell_angle_beta   145.45913167
_cell_angle_gamma   39.96109427
_symmetry_Int_Tables_number   1
_chemical_formula_structural   Yb8Si11
_chemical_formula_sum   'Yb8 Si11'
_cell_volume   419.22826616
_cell_formula_units_Z   1
loop_
 _symmetry_equiv_pos_site_id
 _symmetry_equiv_pos_as_xyz
  1  'x, y, z'
loop_
 _atom_site_type_symbol
 _atom_site_label
 _atom_site_symmetry_multiplicity
 _atom_site_fract_x
 _atom_site_fract_y
 _atom_site_fract_z
 _atom_site_occupancy
  Yb  Yb0  1  0.42752200  0.42752200  0.00000000  1
  Yb  Yb1  1  0.92468700  0.42468700  0.50000000  1
  Yb  Yb2  1  0.70025300  0.70025300  0.00000000  1
  Yb  Yb3  1  0.19739400  0.69739400  0.50000000  1
  Yb  Yb4  1  0.54613300  0.29464400  0.25148900  1
  Yb  Yb5  1  0.04315500  0.29464400  0.74851100  1
  Yb  Yb6  1  0.81859400  0.56867000  0.24992400  1
  Yb  Yb7  1  0.31874600  0.56867000  0.75007600  1
  Si  Si0  1  0.10539000  0.10539000  0.00000000  1
  Si  Si1  1  0.13755400  0.88437600  0.25317800  1
  Si  Si2  1  0.41457400  0.16780100  0.24677200  1
  Si  Si3  1  0.92102900  0.16780100  0.75322800  1
  Si  Si4  1  0.82790000  0.82790000  0.00000000  1
  Si  Si5  1  0.63119800  0.88437600  0.74682200  1
  Si  Si6  1  0.61234000  0.11234000  0.50000000  1
  Si  Si7  1  0.76373200  0.98020500  0.78352600  1
  Si  Si8  1  0.51606700  0.01606700  0.50000000  1
  Si  Si9  1  0.19667900  0.98020500  0.21647400  1
  Si  Si10  1  0.32537900  0.82537900  0.50000000  1
loop_
_geom_bond_atom_site_label_1
_geom_bond_atom_site_label_2
_geom_bond_distance
_geom_bond_site_symmetry_2
Si0 Si3 2.448707 1_454
Si0 Si2 2.448718 1_555
Si0 Yb6 3.071553 1_455
Si0 Yb7 3.071553 1_544
Si0 Yb6 3.071553 1_444
Si0 Yb7 3.071553 1_555
Si0 Yb3 3.156102 1_544
Si0 Yb3 3.156102 1_555
Si1 Si9 2.366999 1_555
Si1 Si10 2.397586 1_555
Si1 Si4 2.400847 1_455
Si1 Yb0 3.105803 1_555
Si1 Yb0 3.105803 1_566
Si1 Yb1 3.113589 1_454
Si1 Yb1 3.113589 1_465
Si1 Yb5 3.116730 1_554
Si1 Yb5 3.116730 1_565
Si2 Si6 2.386899 1_555
Si2 Yb3 3.008611 1_544
Si2 Yb3 3.008614 1_555
Si2 Yb2 3.058114 1_545
Si2 Yb2 3.058117 1_556
Si2 Yb4 3.110571 1_555
Si2 Yb7 3.283411 1_544
Si2 Yb7 3.283414 1_555
Si3 Si6 2.386895 1_555
Si3 Yb3 3.008613 1_645
Si3 Yb3 3.008613 1_656
Si3 Yb2 3.058121 1_545
Si3 Yb2 3.058121 1_556
Si3 Yb5 3.110583 1_655
Si3 Yb6 3.283403 1_545
Si3 Yb6 3.283403 1_556
Si4 Si5 2.400847 1_554
Si4 Yb4 3.040043 1_554
Si4 Yb4 3.040043 1_565
Si4 Yb5 3.040043 1_665
Si4 Yb5 3.040043 1_654
Si4 Yb2 3.130083 1_555
Si4 Yb1 3.240979 1_554
Si4 Yb1 3.240979 1_565
Si5 Si7 2.367012 1_555
Si5 Yb0 3.105803 1_566
Si5 Yb0 3.105803 1_555
Si5 Yb1 3.113589 1_566
Si5 Yb1 3.113589 1_555
Si5 Yb4 3.116730 1_555
Si5 Yb4 3.116730 1_566
Si6 Si8 2.360749 1_555
Si6 Yb2 3.085190 1_556
Si6 Yb2 3.085190 1_545
Si6 Yb6 3.125032 1_545
Si6 Yb6 3.125032 1_556
Si6 Yb7 3.125032 1_555
Si6 Yb7 3.125032 1_544
Si7 Si8 2.365767 1_565
Si7 Yb1 3.088098 1_555
Si7 Yb1 3.088101 1_566
Si7 Yb6 3.105581 1_555
Si7 Yb6 3.105584 1_566
Si7 Yb0 3.370997 1_555
Si7 Yb0 3.371000 1_566
Si8 Si9 2.365768 1_545
Si8 Yb0 3.096039 1_556
Si8 Yb0 3.096039 1_545
Si8 Yb7 3.206704 1_555
Si8 Yb6 3.206704 1_545
Si8 Yb6 3.206704 1_556
Si8 Yb7 3.206704 1_544
Si9 Yb1 3.088096 1_454
Si9 Yb1 3.088096 1_465
Si9 Yb7 3.105590 1_554
Si9 Yb7 3.105590 1_565
Si9 Yb0 3.370991 1_566
Si9 Yb0 3.370991 1_555
Si10 Si5 2.397586 1_555
Si10 Yb5 3.038783 1_565
Si10 Yb4 3.038783 1_555
Si10 Yb5 3.038783 1_554
Si10 Yb4 3.038783 1_566
Si10 Yb3 3.138372 1_555
Si10 Yb0 3.338354 1_555
Si10 Yb0 3.338354 1_566
