# generated using pymatgen
data_Na2H6C4O7
_symmetry_space_group_name_H-M   'P 1'
_cell_length_a   8.35764219
_cell_length_b   8.35764219
_cell_length_c   14.79774018
_cell_angle_alpha   64.91782279
_cell_angle_beta   64.91782279
_cell_angle_gamma   24.78086549
_symmetry_Int_Tables_number   1
_chemical_formula_structural   Na2H6C4O7
_chemical_formula_sum   'Na4 H12 C8 O14'
_cell_volume   390.30830417
_cell_formula_units_Z   2
loop_
 _symmetry_equiv_pos_site_id
 _symmetry_equiv_pos_as_xyz
  1  'x, y, z'
loop_
 _atom_site_type_symbol
 _atom_site_label
 _atom_site_symmetry_multiplicity
 _atom_site_fract_x
 _atom_site_fract_y
 _atom_site_fract_z
 _atom_site_occupancy
  Na  Na0  1  0.89428600  0.40140000  0.27897000  1
  Na  Na1  1  0.59860000  0.10571400  0.22103000  1
  Na  Na2  1  0.10571400  0.59860000  0.72103000  1
  Na  Na3  1  0.40140000  0.89428600  0.77897000  1
  H  H0  1  0.90022500  0.16322100  0.19067100  1
  H  H1  1  0.83677900  0.09977500  0.30932900  1
  H  H2  1  0.09977500  0.83677900  0.80932900  1
  H  H3  1  0.16322100  0.90022500  0.69067100  1
  H  H4  1  0.25743100  0.76595900  0.41386400  1
  H  H5  1  0.23404100  0.74256900  0.08613600  1
  H  H6  1  0.74256900  0.23404100  0.58613600  1
  H  H7  1  0.76595900  0.25743100  0.91386400  1
  H  H8  1  0.28960400  0.88938700  0.44895600  1
  H  H9  1  0.11061300  0.71039600  0.05104400  1
  H  H10  1  0.71039600  0.11061300  0.55104400  1
  H  H11  1  0.88938700  0.28960400  0.94895600  1
  C  C0  1  0.00591500  0.51028000  0.42617300  1
  C  C1  1  0.48972000  0.99408500  0.07382700  1
  C  C2  1  0.99408500  0.48972000  0.57382700  1
  C  C3  1  0.51028000  0.00591500  0.92617300  1
  C  C4  1  0.95961800  0.67178400  0.47612800  1
  C  C5  1  0.32821600  0.04038200  0.02387200  1
  C  C6  1  0.04038200  0.32821600  0.52387200  1
  C  C7  1  0.67178400  0.95961800  0.97612800  1
  O  O0  1  0.01123400  0.52576200  0.33626200  1
  O  O1  1  0.47423800  0.98876600  0.16373800  1
  O  O2  1  0.98876600  0.47423800  0.66373800  1
  O  O3  1  0.52576200  0.01123400  0.83626200  1
  O  O4  1  0.90656900  0.88351100  0.44698300  1
  O  O5  1  0.11648900  0.09343100  0.05301700  1
  O  O6  1  0.09343100  0.11648900  0.55301700  1
  O  O7  1  0.88351100  0.90656900  0.94698300  1
  O  O8  1  0.70810000  0.29190000  0.25000000  1
  O  O9  1  0.29190000  0.70810000  0.75000000  1
  O  O10  1  0.34253200  0.81325500  0.39041200  1
  O  O11  1  0.18674500  0.65746800  0.10958800  1
  O  O12  1  0.65746800  0.18674500  0.60958800  1
  O  O13  1  0.81325500  0.34253200  0.89041200  1
loop_
_geom_bond_atom_site_label_1
_geom_bond_atom_site_label_2
_geom_bond_distance
_geom_bond_site_symmetry_2
Na0 O10 2.318419 1_555
Na0 O10 2.417271 1_645
Na0 O1 2.433082 1_645
Na0 O1 2.452603 1_555
Na0 O0 2.459413 1_655
Na0 O8 2.631867 1_555
Na1 O11 2.318419 1_555
Na1 O11 2.417271 1_645
Na1 O0 2.433082 1_645
Na1 O0 2.452603 1_555
Na1 O1 2.459413 1_545
Na1 O8 2.631867 1_555
Na2 O12 2.318419 1_555
Na2 O12 2.417271 1_465
Na2 O3 2.433082 1_465
Na2 O3 2.452603 1_555
Na2 O2 2.459413 1_455
Na2 O9 2.631867 1_555
Na3 O13 2.318419 1_555
Na3 O13 2.417271 1_465
Na3 O2 2.433082 1_465
Na3 O2 2.452603 1_555
Na3 O3 2.459413 1_565
Na3 O9 2.631867 1_555
H0 O8 0.987562 1_555
H1 O8 0.987562 1_555
H2 O9 0.987562 1_555
H3 O9 0.987562 1_555
H4 O10 0.983609 1_555
H5 O11 0.983609 1_555
H6 O12 0.983609 1_555
H7 O13 0.983609 1_555
H8 O10 0.991158 1_555
H9 O11 0.991158 1_555
H10 O12 0.991158 1_555
H11 O13 0.991158 1_555
C0 O0 1.266189 1_555
C1 O1 1.266189 1_555
C2 O2 1.266189 1_555
C3 O3 1.266189 1_555
C4 O4 1.266612 1_555
C5 O5 1.266612 1_555
C6 O6 1.266612 1_555
C7 O7 1.266612 1_555
