# generated using pymatgen
data_Na2MoC3SeN3
_symmetry_space_group_name_H-M   'P 1'
_cell_length_a   12.24974447
_cell_length_b   12.24974447
_cell_length_c   12.24974447
_cell_angle_alpha   101.87316784
_cell_angle_beta   101.87316784
_cell_angle_gamma   126.05121436
_symmetry_Int_Tables_number   1
_chemical_formula_structural   Na2MoC3SeN3
_chemical_formula_sum   'Na16 Mo8 C24 Se8 N24'
_cell_volume   1324.45178548
_cell_formula_units_Z   8
loop_
 _symmetry_equiv_pos_site_id
 _symmetry_equiv_pos_as_xyz
  1  'x, y, z'
loop_
 _atom_site_type_symbol
 _atom_site_label
 _atom_site_symmetry_multiplicity
 _atom_site_fract_x
 _atom_site_fract_y
 _atom_site_fract_z
 _atom_site_occupancy
  Na  Na0  1  0.64091400  0.50000000  0.14091400  1
  Na  Na1  1  0.34910100  0.73281300  0.11628800  1
  Na  Na2  1  0.26718700  0.65089900  0.38371200  1
  Na  Na3  1  0.50000000  0.35908600  0.35908600  1
  Na  Na4  1  0.26718700  0.38347500  0.11628800  1
  Na  Na5  1  0.73281300  0.61652500  0.88371200  1
  Na  Na6  1  0.65089900  0.26718700  0.88371200  1
  Na  Na7  1  0.35908600  0.50000000  0.85908600  1
  Na  Na8  1  0.61652500  0.73281300  0.38371200  1
  Na  Na9  1  0.64091400  0.00000000  0.64091400  1
  Na  Na10  1  0.73281300  0.34910100  0.61628800  1
  Na  Na11  1  0.35908600  0.00000000  0.35908600  1
  Na  Na12  1  0.00000000  0.64091400  0.14091400  1
  Na  Na13  1  0.38347500  0.26718700  0.61628800  1
  Na  Na14  1  0.00000000  0.35908600  0.85908600  1
  Na  Na15  1  0.50000000  0.64091400  0.64091400  1
  Mo  Mo0  1  0.93436800  0.77979800  0.65457000  1
  Mo  Mo1  1  0.77979800  0.12522800  0.34543000  1
  Mo  Mo2  1  0.87477200  0.22020200  0.15457000  1
  Mo  Mo3  1  0.12522800  0.77979800  0.84543000  1
  Mo  Mo4  1  0.22020200  0.87477200  0.65457000  1
  Mo  Mo5  1  0.77979800  0.93436800  0.15457000  1
  Mo  Mo6  1  0.22020200  0.06563200  0.84543000  1
  Mo  Mo7  1  0.06563200  0.22020200  0.34543000  1
  C  C0  1  0.84591600  0.80651200  0.13713600  1
  C  C1  1  0.79122000  0.15408400  0.96059600  1
  C  C2  1  0.94587000  0.58808300  0.85778800  1
  C  C3  1  0.19348800  0.33062400  0.53940400  1
  C  C4  1  0.84591600  0.20878000  0.53940400  1
  C  C5  1  0.19348800  0.15408400  0.36286400  1
  C  C6  1  0.58808300  0.73029500  0.14221200  1
  C  C7  1  0.05413000  0.41191700  0.14221200  1
  C  C8  1  0.66937600  0.80651200  0.96059600  1
  C  C9  1  0.79122000  0.33062400  0.13713600  1
  C  C10  1  0.41191700  0.26970500  0.85778800  1
  C  C11  1  0.33062400  0.19348800  0.03940400  1
  C  C12  1  0.66937600  0.20878000  0.36286400  1
  C  C13  1  0.20878000  0.66937600  0.86286400  1
  C  C14  1  0.33062400  0.79122000  0.63713600  1
  C  C15  1  0.26970500  0.41191700  0.35778800  1
  C  C16  1  0.15408400  0.19348800  0.86286400  1
  C  C17  1  0.20878000  0.84591600  0.03940400  1
  C  C18  1  0.58808300  0.94587000  0.35778800  1
  C  C19  1  0.41191700  0.05413000  0.64221200  1
  C  C20  1  0.80651200  0.66937600  0.46059600  1
  C  C21  1  0.80651200  0.84591600  0.63713600  1
  C  C22  1  0.73029500  0.58808300  0.64221200  1
  C  C23  1  0.15408400  0.79122000  0.46059600  1
  Se  Se0  1  0.11765600  0.00011300  0.61754300  1
  Se  Se1  1  0.61743000  0.99988700  0.11754300  1
  Se  Se2  1  0.00011300  0.11765600  0.11754300  1
  Se  Se3  1  0.38257000  0.00011300  0.88245700  1
  Se  Se4  1  0.99988700  0.88234400  0.88245700  1
  Se  Se5  1  0.88234400  0.99988700  0.38245700  1
  Se  Se6  1  0.00011300  0.38257000  0.38245700  1
  Se  Se7  1  0.99988700  0.61743000  0.61754300  1
  N  N0  1  0.75198600  0.13731400  0.85735100  1
  N  N1  1  0.39463500  0.75198600  0.61467200  1
  N  N2  1  0.86268600  0.72003700  0.11467200  1
  N  N3  1  0.85310800  0.48283900  0.87026900  1
  N  N4  1  0.60536500  0.24801400  0.38532800  1
  N  N5  1  0.72003700  0.60536500  0.35735100  1
  N  N6  1  0.75198600  0.39463500  0.11467200  1
  N  N7  1  0.38743000  0.51716100  0.37026900  1
  N  N8  1  0.51716100  0.38743000  0.87026900  1
  N  N9  1  0.61257000  0.48283900  0.62973100  1
  N  N10  1  0.48283900  0.85310800  0.37026900  1
  N  N11  1  0.60536500  0.72003700  0.85735100  1
  N  N12  1  0.27996300  0.39463500  0.64264900  1
  N  N13  1  0.72003700  0.86268600  0.61467200  1
  N  N14  1  0.51716100  0.14689200  0.62973100  1
  N  N15  1  0.39463500  0.27996300  0.14264900  1
  N  N16  1  0.48283900  0.61257000  0.12973100  1
  N  N17  1  0.24801400  0.60536500  0.88532800  1
  N  N18  1  0.13731400  0.75198600  0.35735100  1
  N  N19  1  0.86268600  0.24801400  0.64264900  1
  N  N20  1  0.27996300  0.13731400  0.38532800  1
  N  N21  1  0.14689200  0.51716100  0.12973100  1
  N  N22  1  0.24801400  0.86268600  0.14264900  1
  N  N23  1  0.13731400  0.27996300  0.88532800  1
loop_
_geom_bond_atom_site_label_1
_geom_bond_atom_site_label_2
_geom_bond_distance
_geom_bond_site_symmetry_2
Na1 Se1 2.967997 1_555
Na2 Se6 2.967997 1_555
Na4 Se2 2.967997 1_555
Na5 Se4 2.967997 1_555
Na6 Se3 2.967997 1_555
Na8 Se5 2.967997 1_555
Na10 Se7 2.967997 1_555
Na13 Se0 2.967997 1_555
Mo0 Se0 2.514166 1_665
Mo0 Se7 2.542311 1_555
Mo0 Se4 2.542311 1_555
Mo1 Se6 2.514166 1_655
Mo1 Se1 2.542311 1_545
Mo1 Se5 2.542311 1_545
Mo2 Se1 2.514166 1_545
Mo2 Se6 2.542311 1_655
Mo2 Se2 2.542311 1_655
Mo3 Se3 2.514166 1_565
Mo3 Se7 2.542311 1_455
Mo3 Se4 2.542311 1_455
Mo4 Se7 2.514166 1_455
Mo4 Se3 2.542311 1_565
Mo4 Se0 2.542311 1_565
Mo5 Se2 2.514166 1_665
Mo5 Se1 2.542311 1_555
Mo5 Se5 2.542311 1_555
Mo6 Se4 2.514166 1_445
Mo6 Se3 2.542311 1_555
Mo6 Se0 2.542311 1_555
Mo7 Se5 2.514166 1_445
Mo7 Se2 2.542311 1_555
Mo7 Se6 2.542311 1_555
C0 N2 1.182995 1_555
C0 Mo5 2.140370 1_555
C1 N0 1.182995 1_555
C1 Mo2 2.140370 1_556
C2 N3 1.185317 1_555
C2 Mo3 2.139017 1_655
C3 N12 1.182995 1_555
C3 Mo7 2.140370 1_555
C4 N19 1.182995 1_555
C4 Mo1 2.140370 1_555
C5 N20 1.182995 1_555
C5 Mo7 2.140370 1_555
C6 N16 1.185321 1_555
C6 Mo5 2.139013 1_555
C7 N21 1.185317 1_555
C7 Mo2 2.139017 1_455
C8 N11 1.182995 1_555
C8 Mo5 2.140370 1_556
C9 N6 1.182995 1_555
C9 Mo2 2.140370 1_555
C10 N8 1.185321 1_555
C10 Mo6 2.139013 1_555
C11 N15 1.182995 1_555
C11 Mo6 2.140370 1_554
C12 N4 1.182995 1_555
C12 Mo1 2.140370 1_555
C13 N17 1.182995 1_555
C13 Mo3 2.140370 1_555
C14 N1 1.182995 1_555
C14 Mo4 2.140370 1_555
C15 N7 1.185321 1_555
C15 Mo7 2.139013 1_555
C16 N23 1.182995 1_555
C16 Mo6 2.140370 1_555
C17 N22 1.182995 1_555
C17 Mo3 2.140370 1_554
C18 N10 1.185317 1_555
C18 Mo1 2.139017 1_565
C19 N14 1.185317 1_555
C19 Mo4 2.139017 1_545
C20 N5 1.182995 1_555
C20 Mo0 2.140370 1_555
C21 N13 1.182995 1_555
C21 Mo0 2.140370 1_555
C22 N9 1.185321 1_555
C22 Mo0 2.139013 1_555
C23 N18 1.182995 1_555
C23 Mo4 2.140370 1_555
N0 Na9 2.386777 1_555
N0 Na6 2.537816 1_555
N0 Na14 2.616474 1_655
N1 Na15 2.386777 1_555
N1 Na2 2.537816 1_555
N1 Na9 2.616474 1_565
N2 Na12 2.386777 1_655
N2 Na5 2.537816 1_554
N2 Na0 2.616474 1_555
N3 Na6 2.405463 1_555
N3 Na5 2.776614 1_555
N3 Na10 2.776614 1_555
N3 Na12 2.963319 1_656
N3 Na14 2.963319 1_655
N4 Na3 2.386777 1_555
N4 Na10 2.537816 1_555
N4 Na11 2.616474 1_555
N5 Na0 2.386777 1_555
N5 Na8 2.537816 1_555
N5 Na3 2.616474 1_555
N6 Na0 2.386777 1_555
N6 Na6 2.537816 1_554
N6 Na12 2.616474 1_655
N7 Na8 2.405463 1_555
N7 Na4 2.776614 1_555
N7 Na2 2.776614 1_555
N7 Na15 2.963319 1_555
N7 Na3 2.963319 1_555
N8 Na5 2.405463 1_555
N8 Na13 2.776614 1_555
N8 Na6 2.776614 1_555
N8 Na7 2.963319 1_555
N8 Na0 2.963319 1_556
N9 Na13 2.405463 1_555
N9 Na5 2.776614 1_555
N9 Na10 2.776614 1_555
N9 Na15 2.963319 1_555
N9 Na3 2.963319 1_555
N10 Na2 2.405463 1_555
N10 Na8 2.776614 1_555
N10 Na1 2.776614 1_555
N10 Na9 2.963319 1_565
N10 Na11 2.963319 1_565
N11 Na15 2.386777 1_555
N11 Na5 2.537816 1_555
N11 Na7 2.616474 1_555
N12 Na7 2.386777 1_555
N12 Na13 2.537816 1_555
N12 Na15 2.616474 1_555
N13 Na9 2.386777 1_565
N13 Na8 2.537816 1_555
N13 Na15 2.616474 1_555
N14 Na10 2.405463 1_555
N14 Na13 2.776614 1_555
N14 Na6 2.776614 1_555
N14 Na9 2.963319 1_555
N14 Na11 2.963319 1_555
N15 Na3 2.386777 1_555
N15 Na4 2.537816 1_555
N15 Na0 2.616474 1_555
N16 Na4 2.405463 1_555
N16 Na8 2.776614 1_555
N16 Na1 2.776614 1_555
N16 Na0 2.963319 1_555
N16 Na7 2.963319 1_554
N17 Na7 2.386777 1_555
N17 Na1 2.537816 1_556
N17 Na14 2.616474 1_555
N18 Na12 2.386777 1_555
N18 Na2 2.537816 1_555
N18 Na11 2.616474 1_565
N19 Na14 2.386777 1_655
N19 Na10 2.537816 1_555
N19 Na9 2.616474 1_555
N20 Na11 2.386777 1_555
N20 Na13 2.537816 1_555
N20 Na3 2.616474 1_555
N21 Na1 2.405463 1_555
N21 Na4 2.776614 1_555
N21 Na2 2.776614 1_555
N21 Na14 2.963319 1_554
N21 Na12 2.963319 1_555
N22 Na11 2.386777 1_565
N22 Na1 2.537816 1_555
N22 Na12 2.616474 1_555
N23 Na14 2.386777 1_555
N23 Na4 2.537816 1_556
N23 Na7 2.616474 1_555
