# generated using pymatgen
data_C2Se(SN)2
_symmetry_space_group_name_H-M   'P 1'
_cell_length_a   4.79430700
_cell_length_b   9.99159600
_cell_length_c   13.66814200
_cell_angle_alpha   90.00000000
_cell_angle_beta   90.00000000
_cell_angle_gamma   90.00000000
_symmetry_Int_Tables_number   1
_chemical_formula_structural   C2Se(SN)2
_chemical_formula_sum   'C8 Se4 S8 N8'
_cell_volume   654.74198070
_cell_formula_units_Z   4
loop_
 _symmetry_equiv_pos_site_id
 _symmetry_equiv_pos_as_xyz
  1  'x, y, z'
loop_
 _atom_site_type_symbol
 _atom_site_label
 _atom_site_symmetry_multiplicity
 _atom_site_fract_x
 _atom_site_fract_y
 _atom_site_fract_z
 _atom_site_occupancy
  C  C0  1  0.98183900  0.70449900  0.38580200  1
  C  C1  1  0.01816100  0.29550100  0.88580200  1
  C  C2  1  0.51816100  0.20449900  0.11419800  1
  C  C3  1  0.48183900  0.79550100  0.88580200  1
  C  C4  1  0.98183900  0.70449900  0.11419800  1
  C  C5  1  0.01816100  0.29550100  0.61419800  1
  C  C6  1  0.51816100  0.20449900  0.38580200  1
  C  C7  1  0.48183900  0.79550100  0.61419800  1
  Se  Se0  1  0.45608600  0.03400100  0.75000000  1
  Se  Se1  1  0.95608600  0.46599900  0.25000000  1
  Se  Se2  1  0.04391400  0.53400100  0.75000000  1
  Se  Se3  1  0.54391400  0.96599900  0.25000000  1
  S  S0  1  0.32609000  0.06467500  0.37699800  1
  S  S1  1  0.82609000  0.43532500  0.62300200  1
  S  S2  1  0.17391000  0.56467500  0.12300200  1
  S  S3  1  0.67391000  0.93532500  0.87699800  1
  S  S4  1  0.67391000  0.93532500  0.62300200  1
  S  S5  1  0.17391000  0.56467500  0.37699800  1
  S  S6  1  0.82609000  0.43532500  0.87699800  1
  S  S7  1  0.32609000  0.06467500  0.12300200  1
  N  N0  1  0.14625500  0.19561300  0.89278300  1
  N  N1  1  0.85374500  0.80438700  0.39278300  1
  N  N2  1  0.35374500  0.69561300  0.60721700  1
  N  N3  1  0.35374500  0.69561300  0.89278300  1
  N  N4  1  0.85374500  0.80438700  0.10721700  1
  N  N5  1  0.14625500  0.19561300  0.60721700  1
  N  N6  1  0.64625500  0.30438700  0.39278300  1
  N  N7  1  0.64625500  0.30438700  0.10721700  1
loop_
_geom_bond_atom_site_label_1
_geom_bond_atom_site_label_2
_geom_bond_distance
_geom_bond_site_symmetry_2
C0 N1 1.175728 1_555
C0 S5 1.677567 1_655
C1 N0 1.175728 1_555
C1 S6 1.677567 1_455
C2 N7 1.175728 1_555
C2 S7 1.677567 1_555
C3 N3 1.175728 1_555
C3 S3 1.677567 1_555
C4 N4 1.175728 1_555
C4 S2 1.677567 1_655
C5 N5 1.175728 1_555
C5 S1 1.677567 1_455
C6 N6 1.175728 1_555
C6 S0 1.677567 1_555
C7 N2 1.175728 1_555
C7 S4 1.677567 1_555
S0 Se3 2.252942 1_545
S1 Se2 2.252942 1_655
S2 Se1 2.252942 1_455
S3 Se0 2.252942 1_565
S4 Se0 2.252942 1_565
S5 Se1 2.252942 1_455
S6 Se2 2.252942 1_655
S7 Se3 2.252942 1_545
