# generated using pymatgen
data_LiSn5Rh3
_symmetry_space_group_name_H-M   'P 1'
_cell_length_a   5.44537404
_cell_length_b   9.78945598
_cell_length_c   12.86827055
_cell_angle_alpha   90.00000000
_cell_angle_beta   90.00000000
_cell_angle_gamma   90.00000000
_symmetry_Int_Tables_number   1
_chemical_formula_structural   LiSn5Rh3
_chemical_formula_sum   'Li4 Sn20 Rh12'
_cell_volume   685.97210832
_cell_formula_units_Z   4
loop_
 _symmetry_equiv_pos_site_id
 _symmetry_equiv_pos_as_xyz
  1  'x, y, z'
loop_
 _atom_site_type_symbol
 _atom_site_label
 _atom_site_symmetry_multiplicity
 _atom_site_fract_x
 _atom_site_fract_y
 _atom_site_fract_z
 _atom_site_occupancy
  Li  Li0  1  0.59552928  0.10919577  0.25000000  1
  Li  Li1  1  0.59552928  0.39080423  0.75000000  1
  Li  Li2  1  0.40447072  0.60919577  0.25000000  1
  Li  Li3  1  0.40447072  0.89080423  0.75000000  1
  Sn  Sn0  1  0.86684889  0.12631752  0.06324550  1
  Sn  Sn1  1  0.62520431  0.82563321  0.11229441  1
  Sn  Sn2  1  0.13315111  0.87368248  0.56324550  1
  Sn  Sn3  1  0.62520431  0.67436679  0.61229441  1
  Sn  Sn4  1  0.86684889  0.12631752  0.43675450  1
  Sn  Sn5  1  0.13315111  0.62631752  0.06324550  1
  Sn  Sn6  1  0.37479569  0.32563321  0.11229441  1
  Sn  Sn7  1  0.62520431  0.82563321  0.38770559  1
  Sn  Sn8  1  0.13315111  0.87368248  0.93675450  1
  Sn  Sn9  1  0.37479569  0.17436679  0.88770559  1
  Sn  Sn10  1  0.62520431  0.67436679  0.88770559  1
  Sn  Sn11  1  0.37479569  0.32563321  0.38770559  1
  Sn  Sn12  1  0.37479569  0.17436679  0.61229441  1
  Sn  Sn13  1  0.86684889  0.37368248  0.93675450  1
  Sn  Sn14  1  0.84037758  0.42543047  0.25000000  1
  Sn  Sn15  1  0.15962242  0.57456953  0.75000000  1
  Sn  Sn16  1  0.13315111  0.62631752  0.43675450  1
  Sn  Sn17  1  0.84037758  0.07456953  0.75000000  1
  Sn  Sn18  1  0.15962242  0.92543047  0.25000000  1
  Sn  Sn19  1  0.86684889  0.37368248  0.56324550  1
  Rh  Rh0  1  0.64701722  0.55213701  0.42210947  1
  Rh  Rh1  1  0.35298278  0.44786299  0.92210947  1
  Rh  Rh2  1  0.64701722  0.55213701  0.07789053  1
  Rh  Rh3  1  0.64701722  0.94786299  0.92210947  1
  Rh  Rh4  1  0.09492053  0.30368296  0.75000000  1
  Rh  Rh5  1  0.35298278  0.05213701  0.07789053  1
  Rh  Rh6  1  0.35298278  0.05213701  0.42210947  1
  Rh  Rh7  1  0.64701722  0.94786299  0.57789053  1
  Rh  Rh8  1  0.90507947  0.80368296  0.75000000  1
  Rh  Rh9  1  0.90507947  0.69631704  0.25000000  1
  Rh  Rh10  1  0.35298278  0.44786299  0.57789053  1
  Rh  Rh11  1  0.09492053  0.19631704  0.25000000  1
loop_
_geom_bond_atom_site_label_1
_geom_bond_atom_site_label_2
_geom_bond_distance
_geom_bond_site_symmetry_2
Li0 Rh6 2.638470 1_555
Li0 Rh5 2.638470 1_555
Li0 Sn0 2.826008 1_555
Li0 Sn4 2.826008 1_555
Li0 Rh11 2.849978 1_655
Li0 Rh11 2.856304 1_555
Li0 Sn18 2.978356 1_545
Li0 Sn6 3.012338 1_555
Li0 Sn11 3.012338 1_555
Li0 Sn7 3.297266 1_545
Li0 Sn1 3.297266 1_545
Li0 Sn14 3.370672 1_555
Li1 Rh1 2.638470 1_555
Li1 Rh10 2.638470 1_555
Li1 Sn13 2.826008 1_555
Li1 Sn19 2.826008 1_555
Li1 Rh4 2.849978 1_655
Li1 Rh4 2.856304 1_555
Li1 Sn15 2.978356 1_555
Li1 Sn12 3.012338 1_555
Li1 Sn9 3.012338 1_555
Li1 Sn10 3.297266 1_555
Li1 Sn3 3.297266 1_555
Li1 Sn17 3.370672 1_555
Li2 Rh0 2.638470 1_555
Li2 Rh2 2.638470 1_555
Li2 Sn5 2.826008 1_555
Li2 Sn16 2.826008 1_555
Li2 Rh9 2.849978 1_455
Li2 Rh9 2.856304 1_555
Li2 Sn14 2.978356 1_555
Li2 Sn7 3.012338 1_555
Li2 Sn1 3.012338 1_555
Li2 Sn11 3.297266 1_555
Li2 Sn6 3.297266 1_555
Li2 Sn18 3.370672 1_555
Li3 Rh7 2.638470 1_555
Li3 Rh3 2.638470 1_555
Li3 Sn2 2.826008 1_555
Li3 Sn8 2.826008 1_555
Li3 Rh8 2.849978 1_455
Li3 Rh8 2.856304 1_555
Li3 Sn17 2.978356 1_565
Li3 Sn3 3.012338 1_555
Li3 Sn10 3.012338 1_555
Li3 Sn12 3.297266 1_565
Li3 Sn9 3.297266 1_565
Li3 Sn15 3.370672 1_555
Sn0 Sn13 2.917785 1_554
Sn5 Sn8 2.917785 1_554
Sn16 Sn2 2.917785 1_555
Sn19 Sn4 2.917785 1_555
Rh0 Sn11 2.703700 1_555
Rh0 Sn7 2.716333 1_555
Rh0 Sn3 2.726793 1_555
Rh0 Sn14 2.748149 1_555
Rh0 Sn16 2.751441 1_655
Rh0 Sn19 2.789871 1_555
Rh0 Sn16 2.897024 1_555
Rh1 Sn10 2.703700 1_555
Rh1 Sn9 2.716333 1_555
Rh1 Sn6 2.726793 1_556
Rh1 Sn15 2.748149 1_555
Rh1 Sn13 2.751441 1_455
Rh1 Sn5 2.789871 1_556
Rh1 Sn13 2.897024 1_555
Rh2 Sn6 2.703700 1_555
Rh2 Sn1 2.716333 1_555
Rh2 Sn10 2.726793 1_554
Rh2 Sn14 2.748149 1_555
Rh2 Sn5 2.751441 1_655
Rh2 Sn13 2.789871 1_554
Rh2 Sn5 2.897024 1_555
Rh3 Sn9 2.703700 1_565
Rh3 Sn10 2.716333 1_555
Rh3 Sn1 2.726793 1_556
Rh3 Sn17 2.748149 1_565
Rh3 Sn8 2.751441 1_655
Rh3 Sn0 2.789871 1_566
Rh3 Sn8 2.897024 1_555
Rh4 Sn17 2.636627 1_455
Rh4 Sn9 2.658071 1_555
Rh4 Sn12 2.658071 1_555
Rh4 Sn15 2.675135 1_555
Rh4 Sn19 2.790589 1_455
Rh4 Sn13 2.790589 1_455
Rh5 Sn1 2.703700 1_545
Rh5 Sn6 2.716333 1_555
Rh5 Sn9 2.726793 1_554
Rh5 Sn18 2.748149 1_545
Rh5 Sn0 2.751441 1_455
Rh5 Sn8 2.789871 1_544
Rh5 Sn0 2.897024 1_555
Rh6 Sn7 2.703700 1_545
Rh6 Sn11 2.716333 1_555
Rh6 Sn12 2.726793 1_555
Rh6 Sn18 2.748149 1_545
Rh6 Sn4 2.751441 1_455
Rh6 Sn2 2.789871 1_545
Rh6 Sn4 2.897024 1_555
Rh7 Sn12 2.703700 1_565
Rh7 Sn3 2.716333 1_555
Rh7 Sn7 2.726793 1_555
Rh7 Sn17 2.748149 1_565
Rh7 Sn2 2.751441 1_655
Rh7 Sn4 2.789871 1_565
Rh7 Sn2 2.897024 1_555
Rh8 Sn15 2.636627 1_655
Rh8 Sn3 2.658071 1_555
Rh8 Sn10 2.658071 1_555
Rh8 Sn17 2.675135 1_565
Rh8 Sn8 2.790589 1_655
Rh8 Sn2 2.790589 1_655
Rh9 Sn18 2.636627 1_655
Rh9 Sn7 2.658071 1_555
Rh9 Sn1 2.658071 1_555
Rh9 Sn14 2.675135 1_555
Rh9 Sn5 2.790589 1_655
Rh9 Sn16 2.790589 1_655
Rh10 Sn3 2.703700 1_555
Rh10 Sn12 2.716333 1_555
Rh10 Sn11 2.726793 1_555
Rh10 Sn15 2.748149 1_555
Rh10 Sn19 2.751441 1_455
Rh10 Sn16 2.789871 1_555
Rh10 Sn19 2.897024 1_555
Rh11 Sn14 2.636627 1_455
Rh11 Sn11 2.658071 1_555
Rh11 Sn6 2.658071 1_555
Rh11 Sn18 2.675135 1_545
Rh11 Sn4 2.790589 1_455
Rh11 Sn0 2.790589 1_455
