# generated using pymatgen
data_Ta22(CuS12)3
_symmetry_space_group_name_H-M   'P 1'
_cell_length_a   13.30023918
_cell_length_b   13.30023918
_cell_length_c   28.23609611
_cell_angle_alpha   66.76051979
_cell_angle_beta   66.76051979
_cell_angle_gamma   14.38857177
_symmetry_Int_Tables_number   1
_chemical_formula_structural   Ta22(CuS12)3
_chemical_formula_sum   'Ta22 Cu3 S36'
_cell_volume   1138.82317697
_cell_formula_units_Z   1
loop_
 _symmetry_equiv_pos_site_id
 _symmetry_equiv_pos_as_xyz
  1  'x, y, z'
loop_
 _atom_site_type_symbol
 _atom_site_label
 _atom_site_symmetry_multiplicity
 _atom_site_fract_x
 _atom_site_fract_y
 _atom_site_fract_z
 _atom_site_occupancy
  Ta  Ta0  1  0.11848500  0.11848500  0.00624700  1
  Ta  Ta1  1  0.56280000  0.56280000  0.11956700  1
  Ta  Ta2  1  0.00699000  0.00699000  0.23081800  1
  Ta  Ta3  1  0.32739000  0.32739000  0.10050500  1
  Ta  Ta4  1  0.45060500  0.45060500  0.34449300  1
  Ta  Ta5  1  0.77173300  0.77173300  0.21291800  1
  Ta  Ta6  1  0.89631600  0.89631600  0.45235600  1
  Ta  Ta7  1  0.21508700  0.21508700  0.32534200  1
  Ta  Ta8  1  0.21805400  0.21805400  0.56268300  1
  Ta  Ta9  1  0.34138000  0.34138000  0.56558600  1
  Ta  Ta10  1  0.65950500  0.65950500  0.43829200  1
  Ta  Ta11  1  0.67108000  0.67108000  0.65919500  1
  Ta  Ta12  1  0.78746000  0.78746000  0.67708800  1
  Ta  Ta13  1  0.10136300  0.10136300  0.54647700  1
  Ta  Ta14  1  0.23190500  0.23190500  0.78746000  1
  Ta  Ta15  1  0.54583700  0.54583700  0.65705900  1
  Ta  Ta16  1  0.55970200  0.55970200  0.88183400  1
  Ta  Ta17  1  0.10669700  0.10669700  0.78524000  1
  Ta  Ta18  1  0.67643200  0.67643200  0.89808200  1
  Ta  Ta19  1  0.99027900  0.99027900  0.76745400  1
  Ta  Ta20  1  0.43647600  0.43647600  0.87899800  1
  Ta  Ta21  1  0.88179300  0.88179300  0.99172700  1
  Cu  Cu0  1  0.22112000  0.22112000  0.09111800  1
  Cu  Cu1  1  0.66411100  0.66411100  0.20479700  1
  Cu  Cu2  1  0.10798500  0.10798500  0.31785300  1
  S  S0  1  0.30600100  0.30600100  0.02082000  1
  S  S1  1  0.42064100  0.42064100  0.03269200  1
  S  S2  1  0.74994700  0.74994700  0.13383100  1
  S  S3  1  0.86443500  0.86443500  0.14314000  1
  S  S4  1  0.02593400  0.02593400  0.07730900  1
  S  S5  1  0.13924900  0.13924900  0.08566300  1
  S  S6  1  0.19395800  0.19395800  0.24629200  1
  S  S7  1  0.30852600  0.30852600  0.25544500  1
  S  S8  1  0.46935900  0.46935900  0.18931700  1
  S  S9  1  0.58317200  0.58317200  0.19849400  1
  S  S10  1  0.63711100  0.63711100  0.36042200  1
  S  S11  1  0.75248100  0.75248100  0.36695300  1
  S  S12  1  0.91451400  0.91451400  0.30132300  1
  S  S13  1  0.02741600  0.02741600  0.31021100  1
  S  S14  1  0.08394000  0.08394000  0.46801100  1
  S  S15  1  0.19992700  0.19992700  0.47984000  1
  S  S16  1  0.35668700  0.35668700  0.41201600  1
  S  S17  1  0.47223200  0.47223200  0.42167800  1
  S  S18  1  0.52553700  0.52553700  0.57887600  1
  S  S19  1  0.64129700  0.64129700  0.58698900  1
  S  S20  1  0.79889200  0.79889200  0.52304700  1
  S  S21  1  0.91568100  0.91568100  0.53194800  1
  S  S22  1  0.97056400  0.97056400  0.68933600  1
  S  S23  1  0.09032200  0.09032200  0.69860900  1
  S  S24  1  0.24741000  0.24741000  0.63555800  1
  S  S25  1  0.36313400  0.36313400  0.64327100  1
  S  S26  1  0.41458800  0.41458800  0.80131300  1
  S  S27  1  0.53032300  0.53032300  0.80896900  1
  S  S28  1  0.68739900  0.68739900  0.74588200  1
  S  S29  1  0.80718500  0.80718500  0.75519100  1
  S  S30  1  0.86228700  0.86228700  0.91207100  1
  S  S31  1  0.97904600  0.97904600  0.92156100  1
  S  S32  1  0.13649700  0.13649700  0.85747800  1
  S  S33  1  0.25225800  0.25225800  0.86565000  1
  S  S34  1  0.57805100  0.57805100  0.96463700  1
  S  S35  1  0.69397400  0.69397400  0.97685700  1
loop_
_geom_bond_atom_site_label_1
_geom_bond_atom_site_label_2
_geom_bond_distance
_geom_bond_site_symmetry_2
Cu0 S5 2.226410 1_555
Cu0 S0 2.328360 1_555
Cu0 S2 2.353194 1_455
Cu0 S2 2.353194 1_545
Cu1 S9 2.212879 1_555
Cu1 S6 2.345572 1_655
Cu1 S6 2.345572 1_565
Cu1 S2 2.352928 1_555
Cu2 S13 2.220960 1_555
Cu2 S10 2.354758 1_455
Cu2 S10 2.354758 1_545
Cu2 S6 2.363090 1_555
S0 Ta21 2.478537 1_454
S0 Ta21 2.478537 1_544
S0 Ta3 2.528109 1_555
S1 Ta3 2.444313 1_555
S1 Ta21 2.471173 1_454
S1 Ta21 2.471173 1_544
S2 Ta3 2.511421 1_565
S2 Ta3 2.511421 1_655
S2 Ta5 2.517659 1_555
S3 Ta5 2.456261 1_555
S3 Ta3 2.472973 1_655
S3 Ta3 2.472973 1_565
S4 Ta1 2.463352 1_455
S4 Ta1 2.463352 1_545
S4 Ta0 2.468546 1_555
S5 Ta1 2.495019 1_545
S5 Ta1 2.495019 1_455
S5 Ta0 2.511182 1_555
S6 Ta7 2.506600 1_555
S6 Ta5 2.517322 1_455
S6 Ta5 2.517322 1_545
S7 Ta5 2.467099 1_455
S7 Ta5 2.467099 1_545
S7 Ta7 2.470819 1_555
S8 Ta2 2.461609 1_565
S8 Ta2 2.461609 1_655
S8 Ta1 2.469189 1_555
S9 Ta2 2.487975 1_565
S9 Ta2 2.487975 1_655
S9 Ta1 2.491729 1_555
S10 Ta10 2.493465 1_555
S10 Ta7 2.523687 1_655
S10 Ta7 2.523687 1_565
S11 Ta7 2.459884 1_655
S11 Ta7 2.459884 1_565
S11 Ta10 2.479298 1_555
S12 Ta2 2.460666 1_665
S12 Ta4 2.467982 1_565
S12 Ta4 2.467982 1_655
S13 Ta4 2.501964 1_455
S13 Ta4 2.501964 1_545
S13 Ta2 2.505442 1_555
S14 Ta13 2.435265 1_555
S14 Ta10 2.474762 1_455
S14 Ta10 2.474762 1_545
S15 Ta10 2.506818 1_455
S15 Ta10 2.506818 1_545
S15 Ta13 2.532500 1_555
S15 Ta8 2.567223 1_555
S16 Ta4 2.453500 1_555
S16 Ta6 2.472479 1_455
S16 Ta6 2.472479 1_545
S17 Ta4 2.462720 1_555
S17 Ta6 2.481597 1_455
S17 Ta6 2.481597 1_545
S18 Ta15 2.470053 1_555
S18 Ta13 2.481864 1_565
S18 Ta13 2.481864 1_655
S19 Ta11 2.459519 1_555
S19 Ta13 2.480425 1_565
S19 Ta13 2.480425 1_655
S19 Ta8 2.498605 1_565
S19 Ta8 2.498605 1_655
S19 Ta15 2.509308 1_555
S20 Ta6 2.552006 1_555
S20 Ta9 2.558459 1_565
S20 Ta9 2.558459 1_655
S20 Ta8 2.584406 1_565
S20 Ta8 2.584406 1_655
S21 Ta9 2.457671 1_565
S21 Ta9 2.457671 1_655
S21 Ta6 2.495078 1_555
S22 Ta19 2.459449 1_555
S22 Ta15 2.472089 1_565
S22 Ta15 2.472089 1_655
S23 Ta15 2.573840 1_455
S23 Ta15 2.573840 1_545
S23 Ta19 2.582111 1_445
S23 Ta11 2.582376 1_455
S23 Ta11 2.582376 1_545
S23 Ta17 2.647847 1_555
S24 Ta8 2.470303 1_555
S24 Ta9 2.481218 1_555
S24 Ta11 2.491655 1_545
S24 Ta11 2.491655 1_455
S24 Ta12 2.500502 1_455
S24 Ta12 2.500502 1_545
S25 Ta9 2.478472 1_555
S25 Ta12 2.481488 1_455
S25 Ta12 2.481488 1_545
S26 Ta20 2.480537 1_555
S26 Ta19 2.481858 1_545
S26 Ta19 2.481858 1_455
S27 Ta16 2.470424 1_555
S27 Ta20 2.479646 1_555
S27 Ta17 2.492332 1_565
S27 Ta17 2.492332 1_655
S27 Ta19 2.500135 1_455
S27 Ta19 2.500135 1_545
S28 Ta14 2.574698 1_565
S28 Ta14 2.574698 1_655
S28 Ta17 2.581248 1_565
S28 Ta17 2.581248 1_655
S28 Ta12 2.581956 1_555
S28 Ta11 2.648627 1_555
S29 Ta12 2.459183 1_555
S29 Ta14 2.472199 1_655
S29 Ta14 2.472199 1_565
S30 Ta20 2.454707 1_655
S30 Ta20 2.454707 1_565
S30 Ta21 2.498949 1_555
S31 Ta21 2.543230 1_555
S31 Ta20 2.560249 1_565
S31 Ta20 2.560249 1_655
S31 Ta16 2.581544 1_565
S31 Ta16 2.581544 1_655
S32 Ta17 2.460675 1_555
S32 Ta18 2.482079 1_455
S32 Ta18 2.482079 1_545
S32 Ta16 2.499241 1_455
S32 Ta16 2.499241 1_545
S32 Ta14 2.507789 1_555
S33 Ta14 2.471047 1_555
S33 Ta18 2.481909 1_455
S33 Ta18 2.481909 1_545
S34 Ta0 2.508128 1_566
S34 Ta0 2.508128 1_656
S34 Ta18 2.528192 1_555
S34 Ta16 2.569330 1_555
S35 Ta18 2.445588 1_555
S35 Ta0 2.473258 1_656
S35 Ta0 2.473258 1_566
