# generated using pymatgen
data_Ba8Tl2Bi2Pb4O17
_symmetry_space_group_name_H-M   'P 1'
_cell_length_a   6.45778600
_cell_length_b   6.45941474
_cell_length_c   16.01815386
_cell_angle_alpha   91.70002106
_cell_angle_beta   90.95738781
_cell_angle_gamma   93.23413943
_symmetry_Int_Tables_number   1
_chemical_formula_structural   Ba8Tl2Bi2Pb4O17
_chemical_formula_sum   'Ba8 Tl2 Bi2 Pb4 O17'
_cell_volume   666.70260692
_cell_formula_units_Z   1
loop_
 _symmetry_equiv_pos_site_id
 _symmetry_equiv_pos_as_xyz
  1  'x, y, z'
loop_
 _atom_site_type_symbol
 _atom_site_label
 _atom_site_symmetry_multiplicity
 _atom_site_fract_x
 _atom_site_fract_y
 _atom_site_fract_z
 _atom_site_occupancy
  Ba  Ba0  1  0.98218400  0.51324000  0.87849400  1
  Ba  Ba1  1  0.50848900  0.01861300  0.62384700  1
  Ba  Ba2  1  0.52946700  0.00522300  0.87250800  1
  Ba  Ba3  1  0.99367700  0.47660400  0.39254700  1
  Ba  Ba4  1  0.99691700  0.51383400  0.62909800  1
  Ba  Ba5  1  0.49685800  0.98060400  0.14073500  1
  Ba  Ba6  1  0.49391100  0.99424800  0.39059100  1
  Ba  Ba7  1  0.00211500  0.49221500  0.14044000  1
  Tl  Tl0  1  0.00115600  0.99944000  0.52863600  1
  Tl  Tl1  1  0.50315600  0.51204200  0.99342600  1
  Bi  Bi0  1  0.02017300  0.01393300  0.74421000  1
  Bi  Bi1  1  0.48771600  0.47943100  0.25458800  1
  Pb  Pb0  1  0.49343100  0.50875000  0.77157500  1
  Pb  Pb1  1  0.49669500  0.50932200  0.53150700  1
  Pb  Pb2  1  0.00768000  0.00708000  0.00664600  1
  Pb  Pb3  1  0.98781000  0.97187800  0.29009900  1
  O  O0  1  0.77825400  0.73779500  0.75128800  1
  O  O1  1  0.28152900  0.77546400  0.73244000  1
  O  O2  1  0.10666900  0.08550900  0.87566900  1
  O  O3  1  0.26428700  0.25241300  0.47689100  1
  O  O4  1  0.75121300  0.24339700  0.74478800  1
  O  O5  1  0.74700900  0.25858300  0.49919500  1
  O  O6  1  0.25849100  0.27622000  0.70499400  1
  O  O7  1  0.75080500  0.73335200  0.22016900  1
  O  O8  1  0.24820500  0.73651800  0.49282600  1
  O  O9  1  0.24528800  0.76504400  0.23915700  1
  O  O10  1  0.73276700  0.74127000  0.47634500  1
  O  O11  1  0.70726200  0.22097400  0.25743800  1
  O  O12  1  0.75563600  0.28010500  0.98243500  1
  O  O13  1  0.19349900  0.25778600  0.25305700  1
  O  O14  1  0.43711900  0.40871600  0.12301200  1
  O  O15  1  0.22611600  0.71786400  0.99866000  1
  O  O16  1  0.73507300  0.79187300  0.98268700  1
loop_
_geom_bond_atom_site_label_1
_geom_bond_atom_site_label_2
_geom_bond_distance
_geom_bond_site_symmetry_2
Ba0 O12 2.676146 1_555
Ba0 O15 2.728784 1_655
Ba0 O0 2.879464 1_555
Ba0 O2 2.919979 1_655
Ba0 O16 2.967521 1_555
Ba0 O4 3.037809 1_555
Ba1 O6 2.703648 1_555
Ba1 O1 2.761923 1_545
Ba1 O4 2.791582 1_555
Ba1 O5 2.962949 1_555
Ba1 O8 3.140034 1_545
Ba1 O3 3.265643 1_555
Ba1 O0 3.309044 1_545
Ba1 O10 3.323468 1_545
Ba2 O16 2.655063 1_545
Ba2 O12 2.796844 1_555
Ba2 O2 2.808752 1_555
Ba2 O4 2.939216 1_555
Ba2 O1 3.035514 1_545
Ba2 O0 3.090934 1_545
Ba2 O15 3.363157 1_545
Ba3 O3 2.701675 1_655
Ba3 O5 2.723887 1_555
Ba3 O8 2.746075 1_655
Ba3 O10 2.797813 1_555
Ba3 O13 2.961442 1_655
Ba3 O11 3.184481 1_555
Ba4 O6 2.649849 1_655
Ba4 O0 2.841214 1_555
Ba4 O1 2.890706 1_655
Ba4 O4 2.996812 1_555
Ba4 O5 3.006112 1_555
Ba4 O8 3.083570 1_655
Ba5 O9 2.650303 1_555
Ba5 O7 2.684299 1_555
Ba5 O11 2.693753 1_565
Ba5 O14 2.835470 1_565
Ba5 O15 3.227913 1_554
Ba5 O16 3.228079 1_554
Ba5 O13 3.256216 1_565
Ba6 O3 2.664851 1_565
Ba6 O10 2.698723 1_555
Ba6 O8 2.814517 1_555
Ba6 O5 2.833197 1_565
Ba6 O11 2.940757 1_565
Ba6 O9 3.168959 1_555
Ba7 O7 2.632000 1_455
Ba7 O13 2.715395 1_555
Ba7 O9 2.740729 1_555
Ba7 O14 2.906624 1_555
Ba7 O15 3.072941 1_554
Ba7 O11 3.185148 1_455
Ba7 O12 3.198435 1_454
Bi0 O2 2.198557 1_555
Bi0 O0 2.310533 1_445
Bi0 O6 2.331259 1_555
Bi0 O4 2.346058 1_455
Bi0 O1 2.354493 1_545
Bi1 O14 2.158803 1_555
Bi1 O11 2.251396 1_555
Bi1 O13 2.312953 1_555
Bi1 O7 2.377225 1_555
Bi1 O9 2.501136 1_555
O0 Pb0 2.327892 1_555
O1 Pb0 2.352669 1_555
O2 Pb2 2.266776 1_556
O3 Pb1 2.315323 1_555
O3 Tl0 2.461445 1_545
O4 Pb0 2.489057 1_555
O5 Pb1 2.403684 1_555
O5 Tl0 2.459463 1_645
O6 Pb0 2.299801 1_555
O7 Pb3 2.354858 1_555
O8 Pb1 2.323597 1_555
O8 Tl0 2.457050 1_555
O9 Pb3 2.333843 1_455
O10 Pb1 2.283733 1_555
O10 Tl0 2.455407 1_655
O11 Pb3 2.547969 1_545
O12 Tl1 2.281118 1_555
O12 Pb2 2.500645 1_656
O13 Pb3 2.311202 1_445
O14 Tl1 2.239561 1_554
O15 Tl1 2.289564 1_555
O15 Pb2 2.405292 1_566
O16 Pb2 2.201926 1_666
O16 Tl1 2.293781 1_555
