# generated using pymatgen
data_LiBiP2O7
_symmetry_space_group_name_H-M   'P 1'
_cell_length_a   6.78392370
_cell_length_b   6.78392370
_cell_length_c   13.94764158
_cell_angle_alpha   75.46476669
_cell_angle_beta   75.46476669
_cell_angle_gamma   82.96500499
_symmetry_Int_Tables_number   1
_chemical_formula_structural   LiBiP2O7
_chemical_formula_sum   'Li4 Bi4 P8 O28'
_cell_volume   600.24781904
_cell_formula_units_Z   4
loop_
 _symmetry_equiv_pos_site_id
 _symmetry_equiv_pos_as_xyz
  1  'x, y, z'
loop_
 _atom_site_type_symbol
 _atom_site_label
 _atom_site_symmetry_multiplicity
 _atom_site_fract_x
 _atom_site_fract_y
 _atom_site_fract_z
 _atom_site_occupancy
  Li  Li0  1  0.99527900  0.77066300  0.62462000  1
  Li  Li1  1  0.77066300  0.99527900  0.12462000  1
  Li  Li2  1  0.22933700  0.00472100  0.87538000  1
  Li  Li3  1  0.00472100  0.22933700  0.37538000  1
  Bi  Bi0  1  0.86118700  0.39505200  0.85931200  1
  Bi  Bi1  1  0.13881300  0.60494800  0.14068800  1
  Bi  Bi2  1  0.39505200  0.86118700  0.35931200  1
  Bi  Bi3  1  0.60494800  0.13881300  0.64068800  1
  P  P0  1  0.41517100  0.32133200  0.42797400  1
  P  P1  1  0.32133200  0.41517100  0.92797400  1
  P  P2  1  0.58482900  0.67866800  0.57202600  1
  P  P3  1  0.11069200  0.25229700  0.62888700  1
  P  P4  1  0.67866800  0.58482900  0.07202600  1
  P  P5  1  0.25229700  0.11069200  0.12888700  1
  P  P6  1  0.88930800  0.74770300  0.37111300  1
  P  P7  1  0.74770300  0.88930800  0.87111300  1
  O  O0  1  0.19463100  0.29909400  0.88559300  1
  O  O1  1  0.12319100  0.97646400  0.09725500  1
  O  O2  1  0.98997500  0.42348300  0.67784500  1
  O  O3  1  0.20244800  0.59947800  0.96701100  1
  O  O4  1  0.01002500  0.57651700  0.32215500  1
  O  O5  1  0.11386200  0.25111700  0.19356300  1
  O  O6  1  0.40052200  0.79755200  0.53298900  1
  O  O7  1  0.79755200  0.40052200  0.03298900  1
  O  O8  1  0.47098800  0.52411500  0.35622300  1
  O  O9  1  0.74888300  0.88613800  0.30643700  1
  O  O10  1  0.29909400  0.19463100  0.38559300  1
  O  O11  1  0.97646400  0.12319100  0.59725500  1
  O  O12  1  0.70090600  0.80536900  0.61440700  1
  O  O13  1  0.87680900  0.02353600  0.90274500  1
  O  O14  1  0.52411500  0.47098800  0.85622300  1
  O  O15  1  0.52901200  0.47588500  0.64377700  1
  O  O16  1  0.38079700  0.25175800  0.02624500  1
  O  O17  1  0.25175800  0.38079700  0.52624500  1
  O  O18  1  0.02353600  0.87680900  0.40274500  1
  O  O19  1  0.42348300  0.98997500  0.17784500  1
  O  O20  1  0.25111700  0.11386200  0.69356300  1
  O  O21  1  0.74824200  0.61920300  0.47375500  1
  O  O22  1  0.80536900  0.70090600  0.11440700  1
  O  O23  1  0.61920300  0.74824200  0.97375500  1
  O  O24  1  0.59947800  0.20244800  0.46701100  1
  O  O25  1  0.57651700  0.01002500  0.82215500  1
  O  O26  1  0.47588500  0.52901200  0.14377700  1
  O  O27  1  0.88613800  0.74888300  0.80643700  1
loop_
_geom_bond_atom_site_label_1
_geom_bond_atom_site_label_2
_geom_bond_distance
_geom_bond_site_symmetry_2
Li0 O12 2.018547 1_555
Li0 O2 2.286763 1_555
Li0 O11 2.317943 1_565
Li0 O27 2.428408 1_555
Li1 O22 2.018547 1_555
Li1 O19 2.286763 1_555
Li1 O1 2.317943 1_655
Li1 O9 2.428408 1_555
Li2 O0 2.018547 1_555
Li2 O25 2.286763 1_555
Li2 O13 2.317943 1_455
Li2 O20 2.428408 1_555
Li3 O10 2.018547 1_555
Li3 O4 2.286763 1_555
Li3 O18 2.317943 1_545
Li3 O5 2.428408 1_555
Bi0 O14 2.290384 1_555
Bi0 O27 2.341489 1_555
Bi0 O7 2.360503 1_556
Bi0 O0 2.368706 1_655
Bi0 O2 2.427537 1_555
Bi0 O13 2.435309 1_555
Bi1 O26 2.290384 1_555
Bi1 O5 2.341489 1_555
Bi1 O3 2.360503 1_554
Bi1 O22 2.368706 1_455
Bi1 O4 2.427537 1_555
Bi1 O1 2.435309 1_555
Bi2 O8 2.290384 1_555
Bi2 O9 2.341489 1_555
Bi2 O6 2.360503 1_555
Bi2 O10 2.368706 1_565
Bi2 O19 2.427537 1_555
Bi2 O18 2.435309 1_555
Bi3 O15 2.290384 1_555
Bi3 O20 2.341489 1_555
Bi3 O24 2.360503 1_555
Bi3 O12 2.368706 1_545
Bi3 O25 2.427537 1_555
Bi3 O11 2.435309 1_555
O0 P1 1.537130 1_555
O1 P5 1.543344 1_565
O2 P3 1.539473 1_655
O3 P1 1.544182 1_555
O4 P6 1.539473 1_455
O5 P5 1.546024 1_555
O6 P2 1.544182 1_555
O7 P4 1.544182 1_555
O8 P0 1.511190 1_555
O9 P6 1.546024 1_555
O10 P0 1.537130 1_555
O11 P3 1.543344 1_655
O12 P2 1.537130 1_555
O13 P7 1.543344 1_545
O14 P1 1.511190 1_555
O15 P2 1.511190 1_555
O16 P5 1.617246 1_555
O16 P1 1.635746 1_554
O17 P3 1.617246 1_555
O17 P0 1.635746 1_555
O18 P6 1.543344 1_455
O19 P5 1.539473 1_565
O20 P3 1.546024 1_555
O21 P6 1.617246 1_555
O21 P2 1.635746 1_555
O22 P4 1.537130 1_555
O23 P7 1.617246 1_555
O23 P4 1.635746 1_556
O24 P0 1.544182 1_555
O25 P7 1.539473 1_545
O26 P4 1.511190 1_555
O27 P7 1.546024 1_555
