# generated using pymatgen
data_Mo12PH24C6N3O40
_symmetry_space_group_name_H-M   'P 1'
_cell_length_a   12.90058444
_cell_length_b   12.90058444
_cell_length_c   12.90058442
_cell_angle_alpha   81.14179399
_cell_angle_beta   81.14179399
_cell_angle_gamma   81.14179013
_symmetry_Int_Tables_number   1
_chemical_formula_structural   Mo12PH24C6N3O40
_chemical_formula_sum   'Mo24 P2 H48 C12 N6 O80'
_cell_volume   2077.32409066
_cell_formula_units_Z   2
loop_
 _symmetry_equiv_pos_site_id
 _symmetry_equiv_pos_as_xyz
  1  'x, y, z'
loop_
 _atom_site_type_symbol
 _atom_site_label
 _atom_site_symmetry_multiplicity
 _atom_site_fract_x
 _atom_site_fract_y
 _atom_site_fract_z
 _atom_site_occupancy
  Mo  Mo0  1  0.98123900  0.54982200  0.75749600  1
  Mo  Mo1  1  0.45017800  0.24250400  0.01876100  1
  Mo  Mo2  1  0.19812000  0.42148400  0.42137600  1
  Mo  Mo3  1  0.95208500  0.74527500  0.95204400  1
  Mo  Mo4  1  0.24250400  0.01876100  0.45017800  1
  Mo  Mo5  1  0.54982200  0.75749600  0.98123900  1
  Mo  Mo6  1  0.57851600  0.57862400  0.80188000  1
  Mo  Mo7  1  0.74527500  0.95204400  0.95208500  1
  Mo  Mo8  1  0.75749600  0.98123900  0.54982200  1
  Mo  Mo9  1  0.25472500  0.04795600  0.04791500  1
  Mo  Mo10  1  0.80188000  0.57851600  0.57862400  1
  Mo  Mo11  1  0.04791500  0.25472500  0.04795600  1
  Mo  Mo12  1  0.01877000  0.24248800  0.45005400  1
  Mo  Mo13  1  0.04795600  0.04791500  0.25472500  1
  Mo  Mo14  1  0.45005400  0.01877000  0.24248800  1
  Mo  Mo15  1  0.57862400  0.80188000  0.57851600  1
  Mo  Mo16  1  0.54994600  0.98123000  0.75751200  1
  Mo  Mo17  1  0.42148400  0.42137600  0.19812000  1
  Mo  Mo18  1  0.98123000  0.75751200  0.54994600  1
  Mo  Mo19  1  0.24248800  0.45005400  0.01877000  1
  Mo  Mo20  1  0.42137600  0.19812000  0.42148400  1
  Mo  Mo21  1  0.01876100  0.45017800  0.24250400  1
  Mo  Mo22  1  0.95204400  0.95208500  0.74527500  1
  Mo  Mo23  1  0.75751200  0.54994600  0.98123000  1
  P  P0  1  0.76545700  0.76545700  0.76545700  1
  P  P1  1  0.23454300  0.23454300  0.23454300  1
  H  H0  1  0.63108400  0.62432200  0.24058800  1
  H  H1  1  0.73971800  0.84837800  0.32262900  1
  H  H2  1  0.25866800  0.67647100  0.15296700  1
  H  H3  1  0.38836400  0.65845100  0.28377500  1
  H  H4  1  0.84575400  0.84638700  0.21427700  1
  H  H5  1  0.67737100  0.26028200  0.15162200  1
  H  H6  1  0.36891600  0.37567800  0.75941200  1
  H  H7  1  0.83156100  0.30788400  0.20945100  1
  H  H8  1  0.61163600  0.34154900  0.71622500  1
  H  H9  1  0.21427700  0.84575400  0.84638700  1
  H  H10  1  0.69218700  0.16885900  0.79132300  1
  H  H11  1  0.32262900  0.73971800  0.84837800  1
  H  H12  1  0.37567800  0.75941200  0.36891600  1
  H  H13  1  0.20945100  0.83156100  0.30788400  1
  H  H14  1  0.79054900  0.16843900  0.69211600  1
  H  H15  1  0.62432200  0.24058800  0.63108400  1
  H  H16  1  0.33594000  0.60682200  0.71654800  1
  H  H17  1  0.32352900  0.84703300  0.74133200  1
  H  H18  1  0.78572300  0.15424600  0.15361300  1
  H  H19  1  0.15424600  0.15361300  0.78572300  1
  H  H20  1  0.83114100  0.20867700  0.30781300  1
  H  H21  1  0.16885900  0.79132300  0.69218700  1
  H  H22  1  0.79132300  0.69218700  0.16885900  1
  H  H23  1  0.84837800  0.32262900  0.73971800  1
  H  H24  1  0.84703300  0.74133200  0.32352900  1
  H  H25  1  0.20867700  0.30781300  0.83114100  1
  H  H26  1  0.66406000  0.39317800  0.28345200  1
  H  H27  1  0.74133200  0.32352900  0.84703300  1
  H  H28  1  0.26028200  0.15162200  0.67737100  1
  H  H29  1  0.65845100  0.28377500  0.38836400  1
  H  H30  1  0.24058800  0.63108400  0.62432200  1
  H  H31  1  0.39317800  0.28345200  0.66406000  1
  H  H32  1  0.15162200  0.67737100  0.26028200  1
  H  H33  1  0.84638700  0.21427700  0.84575400  1
  H  H34  1  0.28345200  0.66406000  0.39317800  1
  H  H35  1  0.34154900  0.71622500  0.61163600  1
  H  H36  1  0.67647100  0.15296700  0.25866800  1
  H  H37  1  0.30788400  0.20945100  0.83156100  1
  H  H38  1  0.16843900  0.69211600  0.79054900  1
  H  H39  1  0.15296700  0.25866800  0.67647100  1
  H  H40  1  0.71622500  0.61163600  0.34154900  1
  H  H41  1  0.30781300  0.83114100  0.20867700  1
  H  H42  1  0.15361300  0.78572300  0.15424600  1
  H  H43  1  0.75941200  0.36891600  0.37567800  1
  H  H44  1  0.28377500  0.38836400  0.65845100  1
  H  H45  1  0.71654800  0.33594000  0.60682200  1
  H  H46  1  0.69211600  0.79054900  0.16843900  1
  H  H47  1  0.60682200  0.71654800  0.33594000  1
  C  C0  1  0.33287700  0.71058500  0.33235000  1
  C  C1  1  0.28941500  0.66765000  0.66712300  1
  C  C2  1  0.27374100  0.79696300  0.79796100  1
  C  C3  1  0.66712300  0.28941500  0.66765000  1
  C  C4  1  0.79796100  0.27374100  0.79696300  1
  C  C5  1  0.20303700  0.20203900  0.72625900  1
  C  C6  1  0.72625900  0.20303700  0.20203900  1
  C  C7  1  0.66765000  0.66712300  0.28941500  1
  C  C8  1  0.20203900  0.72625900  0.20303700  1
  C  C9  1  0.71058500  0.33235000  0.33287700  1
  C  C10  1  0.79696300  0.79796100  0.27374100  1
  C  C11  1  0.33235000  0.33287700  0.71058500  1
  N  N0  1  0.73769400  0.73760400  0.21756900  1
  N  N1  1  0.26230600  0.26239600  0.78243100  1
  N  N2  1  0.21756900  0.73769400  0.73760400  1
  N  N3  1  0.78243100  0.26230600  0.26239600  1
  N  N4  1  0.26239600  0.78243100  0.26230600  1
  N  N5  1  0.73760400  0.21756900  0.73769400  1
  O  O0  1  0.91165200  0.65714100  0.49767200  1
  O  O1  1  0.63779400  0.04869200  0.63764400  1
  O  O2  1  0.34938100  0.15303100  0.99548100  1
  O  O3  1  0.30484700  0.30506300  0.15416200  1
  O  O4  1  0.84583800  0.69515300  0.69493700  1
  O  O5  1  0.49767200  0.91165200  0.65714100  1
  O  O6  1  0.50232800  0.08834800  0.34285900  1
  O  O7  1  0.85697100  0.85699500  0.01696800  1
  O  O8  1  0.50651600  0.21287600  0.50643800  1
  O  O9  1  0.91838800  0.55166900  0.22078700  1
  O  O10  1  0.49356200  0.49348400  0.78712400  1
  O  O11  1  0.99524600  0.15317200  0.34924400  1
  O  O12  1  0.86779800  0.51566800  0.86790900  1
  O  O13  1  0.95881300  0.28983400  0.95926600  1
  O  O14  1  0.34924400  0.99524600  0.15317200  1
  O  O15  1  0.55166900  0.22078700  0.91838800  1
  O  O16  1  0.63764400  0.63779400  0.04869200  1
  O  O17  1  0.15416200  0.30484700  0.30506300  1
  O  O18  1  0.22078700  0.91838800  0.55166900  1
  O  O19  1  0.69493700  0.84583800  0.69515300  1
  O  O20  1  0.21287600  0.50643800  0.50651600  1
  O  O21  1  0.84682800  0.65075600  0.00475400  1
  O  O22  1  0.44833100  0.77921300  0.08161200  1
  O  O23  1  0.49755000  0.65719000  0.91170800  1
  O  O24  1  0.30208900  0.30209700  0.45814400  1
  O  O25  1  0.36220600  0.95130800  0.36235600  1
  O  O26  1  0.65075600  0.00475400  0.84682800  1
  O  O27  1  0.14302900  0.14300500  0.98303200  1
  O  O28  1  0.28983400  0.95926600  0.95881300  1
  O  O29  1  0.04118700  0.71016600  0.04073400  1
  O  O30  1  0.13209100  0.13220200  0.48433200  1
  O  O31  1  0.08834800  0.34285900  0.50232800  1
  O  O32  1  0.30506300  0.15416200  0.30484700  1
  O  O33  1  0.95926600  0.95881300  0.28983400  1
  O  O34  1  0.54185600  0.69791100  0.69790300  1
  O  O35  1  0.85699500  0.01696800  0.85697100  1
  O  O36  1  0.15303100  0.99548100  0.34938100  1
  O  O37  1  0.65061900  0.84696900  0.00451900  1
  O  O38  1  0.77897900  0.44869000  0.08191500  1
  O  O39  1  0.04073400  0.04118700  0.71016600  1
  O  O40  1  0.65714100  0.49767200  0.91165200  1
  O  O41  1  0.77921300  0.08161200  0.44833100  1
  O  O42  1  0.49348400  0.78712400  0.49356200  1
  O  O43  1  0.84696900  0.00451900  0.65061900  1
  O  O44  1  0.34281000  0.08829200  0.50245000  1
  O  O45  1  0.08161200  0.44833100  0.77921300  1
  O  O46  1  0.50245000  0.34281000  0.08829200  1
  O  O47  1  0.78712400  0.49356200  0.49348400  1
  O  O48  1  0.65719000  0.91170800  0.49755000  1
  O  O49  1  0.00451900  0.65061900  0.84696900  1
  O  O50  1  0.45814400  0.30208900  0.30209700  1
  O  O51  1  0.44869000  0.08191500  0.77897900  1
  O  O52  1  0.69790300  0.54185600  0.69791100  1
  O  O53  1  0.71016600  0.04073400  0.04118700  1
  O  O54  1  0.50643800  0.50651600  0.21287600  1
  O  O55  1  0.13220200  0.48433200  0.13209100  1
  O  O56  1  0.36235600  0.36220600  0.95130800  1
  O  O57  1  0.08191500  0.77897900  0.44869000  1
  O  O58  1  0.98303200  0.14302900  0.14300500  1
  O  O59  1  0.34285900  0.50232800  0.08834800  1
  O  O60  1  0.91808500  0.22102100  0.55131000  1
  O  O61  1  0.69515300  0.69493700  0.84583800  1
  O  O62  1  0.82604100  0.82604100  0.82604100  1
  O  O63  1  0.95130800  0.36235600  0.36220600  1
  O  O64  1  0.99548100  0.34938100  0.15303100  1
  O  O65  1  0.69791100  0.69790300  0.54185600  1
  O  O66  1  0.22102100  0.55131000  0.91808500  1
  O  O67  1  0.15317200  0.34924400  0.99524600  1
  O  O68  1  0.48433200  0.13209100  0.13220200  1
  O  O69  1  0.08829200  0.50245000  0.34281000  1
  O  O70  1  0.01696800  0.85697100  0.85699500  1
  O  O71  1  0.17395900  0.17395900  0.17395900  1
  O  O72  1  0.30209700  0.45814400  0.30208900  1
  O  O73  1  0.91170800  0.49755000  0.65719000  1
  O  O74  1  0.51566800  0.86790900  0.86779800  1
  O  O75  1  0.86790900  0.86779800  0.51566800  1
  O  O76  1  0.00475400  0.84682800  0.65075600  1
  O  O77  1  0.04869200  0.63764400  0.63779400  1
  O  O78  1  0.55131000  0.91808500  0.22102100  1
  O  O79  1  0.14300500  0.98303200  0.14302900  1
loop_
_geom_bond_atom_site_label_1
_geom_bond_atom_site_label_2
_geom_bond_distance
_geom_bond_site_symmetry_2
Mo0 O45 1.716405 1_655
Mo0 O12 1.930812 1_555
Mo0 O73 1.935532 1_555
Mo0 O77 1.943296 1_655
Mo0 O49 1.950044 1_655
Mo1 O15 1.716405 1_554
Mo1 O68 1.930812 1_555
Mo1 O46 1.935532 1_555
Mo1 O56 1.943295 1_554
Mo1 O2 1.950044 1_554
Mo2 O20 1.715552 1_555
Mo2 O72 1.930429 1_555
Mo2 O24 1.931528 1_555
Mo2 O31 1.945642 1_555
Mo2 O69 1.945809 1_555
Mo3 O29 1.708978 1_656
Mo3 O49 1.938852 1_655
Mo3 O21 1.939905 1_556
Mo3 O70 1.947222 1_655
Mo3 O7 1.948055 1_556
Mo4 O18 1.716405 1_545
Mo4 O30 1.930812 1_555
Mo4 O44 1.935532 1_555
Mo4 O25 1.943295 1_545
Mo4 O36 1.950044 1_545
Mo5 O22 1.716405 1_556
Mo5 O74 1.930812 1_555
Mo5 O23 1.935532 1_555
Mo5 O16 1.943295 1_556
Mo5 O37 1.950044 1_556
Mo6 O10 1.715552 1_555
Mo6 O34 1.930429 1_555
Mo6 O52 1.931528 1_555
Mo6 O40 1.945641 1_555
Mo6 O23 1.945809 1_555
Mo7 O53 1.708978 1_566
Mo7 O37 1.938852 1_556
Mo7 O26 1.939905 1_565
Mo7 O7 1.947222 1_556
Mo7 O35 1.948055 1_565
Mo8 O41 1.716405 1_565
Mo8 O75 1.930812 1_555
Mo8 O48 1.935532 1_555
Mo8 O1 1.943295 1_565
Mo8 O43 1.950044 1_565
Mo9 O28 1.708978 1_544
Mo9 O2 1.938852 1_554
Mo9 O14 1.939905 1_545
Mo9 O27 1.947222 1_554
Mo9 O79 1.948055 1_545
Mo10 O47 1.715552 1_555
Mo10 O52 1.930429 1_555
Mo10 O65 1.931528 1_555
Mo10 O0 1.945642 1_555
Mo10 O73 1.945809 1_555
Mo11 O13 1.708978 1_454
Mo11 O64 1.938852 1_455
Mo11 O67 1.939905 1_554
Mo11 O58 1.947222 1_455
Mo11 O27 1.948055 1_554
Mo12 O60 1.716673 1_455
Mo12 O30 1.929171 1_555
Mo12 O31 1.936587 1_555
Mo12 O63 1.944884 1_455
Mo12 O11 1.949818 1_455
Mo13 O33 1.708978 1_445
Mo13 O36 1.938852 1_545
Mo13 O11 1.939905 1_455
Mo13 O79 1.947222 1_545
Mo13 O58 1.948055 1_455
Mo14 O78 1.716673 1_545
Mo14 O68 1.929172 1_555
Mo14 O6 1.936587 1_555
Mo14 O25 1.944884 1_545
Mo14 O14 1.949818 1_545
Mo15 O42 1.715552 1_555
Mo15 O65 1.930429 1_555
Mo15 O34 1.931528 1_555
Mo15 O5 1.945641 1_555
Mo15 O48 1.945809 1_555
Mo16 O51 1.716673 1_565
Mo16 O74 1.929172 1_555
Mo16 O5 1.936587 1_555
Mo16 O1 1.944884 1_565
Mo16 O26 1.949818 1_565
Mo17 O54 1.715552 1_555
Mo17 O50 1.930429 1_555
Mo17 O72 1.931528 1_555
Mo17 O59 1.945641 1_555
Mo17 O46 1.945809 1_555
Mo18 O57 1.716673 1_655
Mo18 O75 1.929171 1_555
Mo18 O0 1.936587 1_555
Mo18 O77 1.944884 1_655
Mo18 O76 1.949818 1_655
Mo19 O66 1.716673 1_554
Mo19 O55 1.929172 1_555
Mo19 O59 1.936587 1_555
Mo19 O56 1.944884 1_554
Mo19 O67 1.949818 1_554
Mo20 O8 1.715552 1_555
Mo20 O24 1.930429 1_555
Mo20 O50 1.931528 1_555
Mo20 O6 1.945641 1_555
Mo20 O44 1.945809 1_555
Mo21 O9 1.716405 1_455
Mo21 O55 1.930812 1_555
Mo21 O69 1.935532 1_555
Mo21 O63 1.943296 1_455
Mo21 O64 1.950044 1_455
Mo22 O39 1.708978 1_665
Mo22 O43 1.938852 1_565
Mo22 O76 1.939905 1_655
Mo22 O35 1.947222 1_565
Mo22 O70 1.948055 1_655
Mo23 O38 1.716673 1_556
Mo23 O12 1.929172 1_555
Mo23 O40 1.936587 1_555
Mo23 O16 1.944884 1_556
Mo23 O21 1.949818 1_556
H7 N3 1.035236 1_555
H10 N5 1.035115 1_555
H13 N4 1.035236 1_555
H14 N5 1.035236 1_555
H20 N3 1.035115 1_555
H21 N2 1.035115 1_555
H22 N0 1.035115 1_555
H25 N1 1.035115 1_555
H37 N1 1.035236 1_555
H38 N2 1.035236 1_555
H41 N4 1.035115 1_555
H46 N0 1.035236 1_555
C0 H3 1.095807 1_555
C0 H34 1.096029 1_555
C0 H12 1.096821 1_555
C0 N4 1.495945 1_555
C1 H35 1.095807 1_555
C1 H16 1.096029 1_555
C1 H30 1.096821 1_555
C1 N2 1.495945 1_555
C2 H9 1.095326 1_555
C2 H11 1.095960 1_555
C2 H17 1.096084 1_555
C2 N2 1.497931 1_555
C3 H8 1.095807 1_555
C3 H45 1.096029 1_555
C3 H15 1.096821 1_555
C3 N5 1.495945 1_555
C4 H33 1.095326 1_555
C4 H23 1.095960 1_555
C4 H27 1.096084 1_555
C4 N5 1.497931 1_555
C5 H19 1.095326 1_555
C5 H28 1.095960 1_555
C5 H39 1.096084 1_555
C5 N1 1.497931 1_555
C6 H18 1.095326 1_555
C6 H5 1.095960 1_555
C6 H36 1.096084 1_555
C6 N3 1.497931 1_555
C7 H40 1.095807 1_555
C7 H47 1.096029 1_555
C7 H0 1.096821 1_555
C7 N0 1.495945 1_555
C8 H42 1.095326 1_555
C8 H32 1.095960 1_555
C8 H2 1.096084 1_555
C8 N4 1.497931 1_555
C9 H29 1.095807 1_555
C9 H26 1.096029 1_555
C9 H43 1.096821 1_555
C9 N3 1.495945 1_555
C10 H4 1.095326 1_555
C10 H1 1.095960 1_555
C10 H24 1.096084 1_555
C10 N0 1.497931 1_555
C11 H44 1.095807 1_555
C11 H31 1.096029 1_555
C11 H6 1.096821 1_555
C11 N1 1.495945 1_555
O3 P1 1.549013 1_555
O4 P0 1.549013 1_555
O17 P1 1.549013 1_555
O19 P0 1.549013 1_555
O32 P1 1.549013 1_555
O61 P0 1.549013 1_555
O62 P0 1.548205 1_555
O71 P1 1.548205 1_555
