# generated using pymatgen
data_BiSb2Os
_symmetry_space_group_name_H-M   'P 1'
_cell_length_a   5.06026260
_cell_length_b   5.06026260
_cell_length_c   5.06026260
_cell_angle_alpha   60.00000000
_cell_angle_beta   60.00000000
_cell_angle_gamma   60.00000000
_symmetry_Int_Tables_number   1
_chemical_formula_structural   BiSb2Os
_chemical_formula_sum   'Bi1 Sb2 Os1'
_cell_volume   91.62292819
_cell_formula_units_Z   1
loop_
 _symmetry_equiv_pos_site_id
 _symmetry_equiv_pos_as_xyz
  1  'x, y, z'
loop_
 _atom_site_type_symbol
 _atom_site_label
 _atom_site_symmetry_multiplicity
 _atom_site_fract_x
 _atom_site_fract_y
 _atom_site_fract_z
 _atom_site_occupancy
  Bi  Bi0  1  0.00000000  0.00000000  0.00000000  1
  Sb  Sb0  1  0.25000000  0.25000000  0.25000000  1
  Sb  Sb1  1  0.75000000  0.75000000  0.75000000  1
  Os  Os0  1  0.50000000  0.50000000  0.50000000  1
loop_
_geom_bond_atom_site_label_1
_geom_bond_atom_site_label_2
_geom_bond_distance
_geom_bond_site_symmetry_2
Bi0 Sb1 3.098765 1_454
Bi0 Sb0 3.098765 1_455
Bi0 Sb0 3.098765 1_545
Bi0 Sb1 3.098765 1_544
Bi0 Sb1 3.098765 1_445
Bi0 Sb0 3.098765 1_554
Bi0 Sb0 3.098765 1_555
Bi0 Sb1 3.098765 1_444
Os0 Sb1 3.098765 1_545
Os0 Sb0 3.098765 1_565
Os0 Sb0 3.098765 1_655
Os0 Sb1 3.098765 1_455
Os0 Sb0 3.098765 1_556
Os0 Sb0 3.098765 1_555
Os0 Sb1 3.098765 1_555
Os0 Sb1 3.098765 1_554
