# generated using pymatgen
data_GdGaGe2O7
_symmetry_space_group_name_H-M   'P 1'
_cell_length_a   6.58000409
_cell_length_b   7.18252489
_cell_length_c   12.79837460
_cell_angle_alpha   62.30734341
_cell_angle_beta   90.00000000
_cell_angle_gamma   90.00000000
_symmetry_Int_Tables_number   1
_chemical_formula_structural   GdGaGe2O7
_chemical_formula_sum   'Gd4 Ga4 Ge8 O28'
_cell_volume   535.57923460
_cell_formula_units_Z   4
loop_
 _symmetry_equiv_pos_site_id
 _symmetry_equiv_pos_as_xyz
  1  'x, y, z'
loop_
 _atom_site_type_symbol
 _atom_site_label
 _atom_site_symmetry_multiplicity
 _atom_site_fract_x
 _atom_site_fract_y
 _atom_site_fract_z
 _atom_site_occupancy
  Gd  Gd0  1  0.64579549  0.76055854  0.47402487  1
  Gd  Gd1  1  0.14579549  0.23944146  0.02597513  1
  Gd  Gd2  1  0.35420451  0.23944146  0.52597513  1
  Gd  Gd3  1  0.85420451  0.76055854  0.97402487  1
  Ga  Ga0  1  0.59968412  0.78902072  0.73094983  1
  Ga  Ga1  1  0.90031588  0.78902072  0.23094983  1
  Ga  Ga2  1  0.40031588  0.21097928  0.26905017  1
  Ga  Ga3  1  0.09968412  0.21097928  0.76905017  1
  Ge  Ge0  1  0.84204713  0.21646123  0.54168253  1
  Ge  Ge1  1  0.15795287  0.78353877  0.45831747  1
  Ge  Ge2  1  0.08827011  0.70068783  0.72271225  1
  Ge  Ge3  1  0.41172989  0.70068783  0.22271225  1
  Ge  Ge4  1  0.34204713  0.78353877  0.95831747  1
  Ge  Ge5  1  0.58827011  0.29931217  0.77728775  1
  Ge  Ge6  1  0.91172989  0.29931217  0.27728775  1
  Ge  Ge7  1  0.65795287  0.21646123  0.04168253  1
  O  O0  1  0.82802658  0.41147999  0.02035819  1
  O  O1  1  0.11173881  0.21639934  0.21940538  1
  O  O2  1  0.31157272  0.84978620  0.68681505  1
  O  O3  1  0.32802658  0.58852001  0.47964181  1
  O  O4  1  0.00074920  0.74401452  0.57969277  1
  O  O5  1  0.83864073  0.01081714  0.07620947  1
  O  O6  1  0.81157272  0.15021380  0.81318495  1
  O  O7  1  0.38826119  0.21639934  0.71940538  1
  O  O8  1  0.49925080  0.74401452  0.07969277  1
  O  O9  1  0.16135927  0.98918286  0.92379053  1
  O  O10  1  -0.00074920  0.25598548  0.42030723  1
  O  O11  1  0.66135927  0.01081714  0.57620947  1
  O  O12  1  0.62191130  0.57150545  0.68984751  1
  O  O13  1  0.55242705  0.78930135  0.87411013  1
  O  O14  1  0.94757295  0.78930135  0.37411013  1
  O  O15  1  0.18842728  0.84978620  0.18681505  1
  O  O16  1  0.44757295  0.21069865  0.12588987  1
  O  O17  1  0.87808870  0.57150545  0.18984751  1
  O  O18  1  0.05242705  0.21069865  0.62588987  1
  O  O19  1  0.67197342  0.41147999  0.52035819  1
  O  O20  1  0.88826119  0.78360066  0.78059462  1
  O  O21  1  0.68842728  0.15021380  0.31318495  1
  O  O22  1  0.50074920  0.25598548  0.92030723  1
  O  O23  1  0.37808870  0.42849455  0.31015249  1
  O  O24  1  0.61173881  0.78360066  0.28059462  1
  O  O25  1  0.12191130  0.42849455  0.81015249  1
  O  O26  1  0.17197342  0.58852001  0.97964181  1
  O  O27  1  0.33864073  0.98918286  0.42379053  1
loop_
_geom_bond_atom_site_label_1
_geom_bond_atom_site_label_2
_geom_bond_distance
_geom_bond_site_symmetry_2
Gd0 O19 2.299083 1_555
Gd0 O14 2.318498 1_555
Gd0 O3 2.412765 1_555
Gd0 O24 2.413578 1_555
Gd0 O12 2.451948 1_555
Gd0 O27 2.492657 1_555
Gd0 O21 2.606556 1_565
Gd0 O11 2.671462 1_565
Gd0 O4 2.673704 1_655
Gd1 O26 2.299083 1_554
Gd1 O16 2.318498 1_555
Gd1 O0 2.412765 1_455
Gd1 O1 2.413578 1_555
Gd1 O25 2.451948 1_554
Gd1 O5 2.492657 1_455
Gd1 O15 2.606556 1_545
Gd1 O9 2.671462 1_544
Gd1 O22 2.673704 1_554
Gd2 O3 2.299083 1_555
Gd2 O18 2.318498 1_555
Gd2 O19 2.412765 1_555
Gd2 O7 2.413578 1_555
Gd2 O23 2.451948 1_555
Gd2 O11 2.492657 1_555
Gd2 O2 2.606556 1_545
Gd2 O27 2.671462 1_545
Gd2 O10 2.673704 1_555
Gd3 O0 2.299083 1_556
Gd3 O13 2.318498 1_555
Gd3 O26 2.412765 1_655
Gd3 O20 2.413578 1_555
Gd3 O17 2.451948 1_556
Gd3 O9 2.492657 1_655
Gd3 O6 2.606556 1_565
Gd3 O5 2.671462 1_566
Gd3 O8 2.673704 1_556
Ga0 O13 1.859343 1_555
Ga0 O12 1.871573 1_555
Ga0 O11 1.921519 1_565
Ga0 O2 1.968342 1_555
Ga0 O20 1.996950 1_555
Ga1 O14 1.859343 1_555
Ga1 O17 1.871573 1_555
Ga1 O5 1.921519 1_565
Ga1 O15 1.968342 1_655
Ga1 O24 1.996950 1_555
Ga2 O16 1.859343 1_555
Ga2 O23 1.871573 1_555
Ga2 O27 1.921519 1_545
Ga2 O21 1.968342 1_555
Ga2 O1 1.996950 1_555
Ga3 O18 1.859343 1_555
Ga3 O25 1.871573 1_555
Ga3 O9 1.921519 1_545
Ga3 O6 1.968342 1_455
Ga3 O7 1.996950 1_555
Ge0 O19 1.712763 1_555
Ge0 O18 1.742990 1_655
Ge0 O10 1.775885 1_655
Ge0 O11 1.784328 1_555
Ge1 O3 1.712763 1_555
Ge1 O14 1.742990 1_455
Ge1 O4 1.775885 1_555
Ge1 O27 1.784328 1_555
Ge2 O20 1.745133 1_455
Ge2 O2 1.749156 1_555
Ge2 O25 1.757841 1_555
Ge2 O4 1.802632 1_555
Ge3 O24 1.745133 1_555
Ge3 O15 1.749156 1_555
Ge3 O23 1.757841 1_555
Ge3 O8 1.802632 1_555
Ge4 O26 1.712763 1_555
Ge4 O13 1.742990 1_555
Ge4 O8 1.775885 1_556
Ge4 O9 1.784328 1_555
Ge5 O7 1.745133 1_555
Ge5 O6 1.749156 1_555
Ge5 O12 1.757841 1_555
Ge5 O22 1.802632 1_555
Ge6 O1 1.745133 1_655
Ge6 O21 1.749156 1_555
Ge6 O17 1.757841 1_555
Ge6 O10 1.802632 1_655
Ge7 O0 1.712763 1_555
Ge7 O16 1.742990 1_555
Ge7 O22 1.775885 1_554
Ge7 O5 1.784328 1_555
