# generated using pymatgen
data_Ti6Co16Si7
_symmetry_space_group_name_H-M   'P 1'
_cell_length_a   7.78381025
_cell_length_b   7.78381357
_cell_length_c   7.78380962
_cell_angle_alpha   59.99975950
_cell_angle_beta   59.99981498
_cell_angle_gamma   59.99978412
_symmetry_Int_Tables_number   1
_chemical_formula_structural   Ti6Co16Si7
_chemical_formula_sum   'Ti6 Co16 Si7'
_cell_volume   333.47230243
_cell_formula_units_Z   1
loop_
 _symmetry_equiv_pos_site_id
 _symmetry_equiv_pos_as_xyz
  1  'x, y, z'
loop_
 _atom_site_type_symbol
 _atom_site_label
 _atom_site_symmetry_multiplicity
 _atom_site_fract_x
 _atom_site_fract_y
 _atom_site_fract_z
 _atom_site_occupancy
  Ti  Ti0  1  0.20043496  0.79956353  0.79956564  1
  Ti  Ti1  1  0.79956353  0.79956285  0.20043787  1
  Ti  Ti2  1  0.79956134  0.20043422  0.20043908  1
  Ti  Ti3  1  0.20043729  0.20043584  0.79956239  1
  Ti  Ti4  1  0.79956249  0.20043545  0.79956291  1
  Ti  Ti5  1  0.20043658  0.79955972  0.20043872  1
  Co  Co0  1  0.61917038  0.61916471  0.14250434  1
  Co  Co1  1  0.16741348  0.49773839  0.16742788  1
  Co  Co2  1  0.85754883  0.38082290  0.38080702  1
  Co  Co3  1  0.50223565  0.83258442  0.83259399  1
  Co  Co4  1  0.49773694  0.16741725  0.16742774  1
  Co  Co5  1  0.83258390  0.83259093  0.50223329  1
  Co  Co6  1  0.16742005  0.16742431  0.49772972  1
  Co  Co7  1  0.14250503  0.61916994  0.61915964  1
  Co  Co8  1  0.16741422  0.16742178  0.16742931  1
  Co  Co9  1  0.38082010  0.38081763  0.85754693  1
  Co  Co10  1  0.61916999  0.61916695  0.61915527  1
  Co  Co11  1  0.38082618  0.85754653  0.38080780  1
  Co  Co12  1  0.38082409  0.38081928  0.38080508  1
  Co  Co13  1  0.83258514  0.83258856  0.83260083  1
  Co  Co14  1  0.61917337  0.14250300  0.61915767  1
  Co  Co15  1  0.83258112  0.50223659  0.83259717  1
  Si  Si0  1  0.49998558  0.00001237  0.49998176  1
  Si  Si1  1  0.49997593  0.49997550  0.00001310  1
  Si  Si2  1  0.49998904  0.49999960  0.50002035  1
  Si  Si3  1  0.00001866  0.00001148  0.49998376  1
  Si  Si4  1  0.00003336  0.49997745  0.00001173  1
  Si  Si5  1  0.00001532  0.49998624  0.49998247  1
  Si  Si6  1  0.49997746  0.00003061  0.00001655  1
loop_
_geom_bond_atom_site_label_1
_geom_bond_atom_site_label_2
_geom_bond_distance
_geom_bond_site_symmetry_2
Co0 Si2 2.272170 1_555
Co0 Si4 2.422817 1_655
Co0 Si6 2.422833 1_565
Co0 Si1 2.422901 1_555
Co0 Co15 2.466426 1_554
Co0 Co13 2.466427 1_554
Co0 Co3 2.466471 1_554
Co0 Co2 2.623640 1_555
Co0 Co11 2.623666 1_555
Co0 Co12 2.623701 1_555
Co0 Ti1 2.717502 1_555
Co0 Ti2 2.717528 1_555
Co0 Ti5 2.717550 1_555
Co1 Si5 2.246835 1_555
Co1 Si4 2.246839 1_555
Co1 Si1 2.246864 1_555
Co1 Co2 2.466101 1_455
Co1 Co12 2.466144 1_555
Co1 Co9 2.466227 1_554
Co1 Co6 2.571046 1_555
Co1 Co8 2.571114 1_555
Co1 Co4 2.571158 1_555
Co1 Ti1 2.631514 1_455
Co1 Ti5 2.631540 1_555
Co1 Ti0 2.631572 1_554
Co2 Si2 2.272449 1_555
Co2 Si4 2.422390 1_655
Co2 Si5 2.422458 1_655
Co2 Si3 2.422487 1_655
Co2 Co8 2.466096 1_655
Co2 Co6 2.466171 1_655
Co2 Ti1 2.717522 1_555
Co2 Ti2 2.717557 1_555
Co2 Ti4 2.717626 1_555
Co3 Si0 2.247227 1_565
Co3 Si1 2.247228 1_556
Co3 Si6 2.247243 1_566
Co3 Co5 2.571409 1_555
Co3 Ti5 2.631412 1_556
Co3 Ti3 2.631440 1_565
Co3 Ti0 2.631450 1_555
Co4 Si0 2.246832 1_555
Co4 Si1 2.246839 1_555
Co4 Si6 2.246844 1_555
Co4 Co9 2.466208 1_554
Co4 Co6 2.571059 1_555
Co4 Co8 2.571146 1_555
Co4 Ti2 2.631536 1_555
Co4 Ti1 2.631542 1_545
Co4 Ti4 2.631587 1_554
Co5 Si0 2.247138 1_565
Co5 Si5 2.247180 1_655
Co5 Si3 2.247191 1_665
Co5 Co7 2.466507 1_655
Co5 Ti2 2.631389 1_565
Co5 Ti1 2.631406 1_555
Co5 Ti5 2.631435 1_655
Co6 Si3 2.246894 1_555
Co6 Si5 2.246896 1_555
Co6 Si0 2.246918 1_555
Co6 Co8 2.571028 1_555
Co6 Ti4 2.631577 1_455
Co6 Ti0 2.631599 1_545
Co6 Ti3 2.631602 1_555
Co7 Si2 2.271968 1_555
Co7 Si3 2.422680 1_565
Co7 Si4 2.422742 1_556
Co7 Si5 2.422748 1_555
Co7 Co9 2.623757 1_555
Co7 Ti5 2.717467 1_555
Co7 Ti0 2.717538 1_555
Co7 Ti3 2.717555 1_555
Co8 Si4 2.246827 1_555
Co8 Si3 2.246839 1_555
Co8 Si6 2.246875 1_555
Co8 Co9 2.466228 1_554
Co8 Ti2 2.631553 1_455
Co8 Ti5 2.631596 1_545
Co8 Ti3 2.631615 1_554
Co9 Si2 2.272238 1_555
Co9 Si1 2.422299 1_556
Co9 Si4 2.422332 1_556
Co9 Si6 2.422334 1_556
Co9 Ti4 2.717539 1_555
Co9 Ti0 2.717567 1_555
Co9 Ti3 2.717594 1_555
Co10 Si2 2.271972 1_555
Co10 Si0 2.422705 1_565
Co10 Si5 2.422706 1_655
Co10 Si1 2.422778 1_556
Co10 Co5 2.466461 1_555
Co10 Co15 2.466536 1_555
Co10 Co3 2.466550 1_555
Co10 Co11 2.623696 1_555
Co10 Co2 2.623705 1_555
Co10 Co9 2.623742 1_555
Co10 Ti1 2.717447 1_555
Co10 Ti4 2.717536 1_555
Co10 Ti0 2.717565 1_555
Co11 Si2 2.272367 1_555
Co11 Si6 2.422365 1_565
Co11 Si0 2.422420 1_565
Co11 Si3 2.422462 1_565
Co11 Co4 2.466121 1_565
Co11 Co8 2.466164 1_565
Co11 Co6 2.466212 1_565
Co11 Co7 2.623734 1_555
Co11 Ti1 2.717507 1_555
Co11 Ti5 2.717566 1_555
Co11 Ti0 2.717644 1_555
Co12 Si2 2.272464 1_555
Co12 Si1 2.422370 1_555
Co12 Si0 2.422459 1_555
Co12 Si5 2.422470 1_555
Co12 Co4 2.466107 1_555
Co12 Co6 2.466204 1_555
Co12 Co14 2.623754 1_555
Co12 Co7 2.623776 1_555
Co12 Ti2 2.717501 1_555
Co12 Ti5 2.717520 1_555
Co12 Ti3 2.717633 1_555
Co13 Si6 2.247196 1_566
Co13 Si4 2.247213 1_656
Co13 Si3 2.247234 1_665
Co13 Co14 2.466518 1_565
Co13 Co7 2.466553 1_655
Co13 Co3 2.571420 1_555
Co13 Co15 2.571428 1_555
Co13 Co5 2.571514 1_555
Co13 Ti1 2.631353 1_556
Co13 Ti4 2.631390 1_565
Co13 Ti0 2.631412 1_655
Co14 Si2 2.272048 1_555
Co14 Si3 2.422706 1_655
Co14 Si0 2.422772 1_555
Co14 Si6 2.422784 1_556
Co14 Co5 2.466442 1_545
Co14 Co3 2.466538 1_545
Co14 Co2 2.623721 1_555
Co14 Co9 2.623768 1_555
Co14 Ti2 2.717453 1_555
Co14 Ti4 2.717516 1_555
Co14 Ti3 2.717568 1_555
Co15 Si1 2.247207 1_556
Co15 Si4 2.247225 1_656
Co15 Si5 2.247246 1_655
Co15 Co7 2.466554 1_655
Co15 Co3 2.571348 1_555
Co15 Co5 2.571444 1_555
Co15 Ti2 2.631408 1_556
Co15 Ti3 2.631470 1_655
Co15 Ti4 2.631472 1_555
Si0 Ti1 2.805516 1_545
Si0 Ti2 2.805529 1_555
Si0 Ti0 2.805554 1_545
Si0 Ti3 2.805569 1_555
Si1 Ti0 2.805499 1_554
Si1 Ti4 2.805507 1_554
Si1 Ti5 2.805589 1_555
Si1 Ti2 2.805596 1_555
Si3 Ti5 2.805536 1_545
Si3 Ti0 2.805548 1_545
Si3 Ti2 2.805556 1_455
Si3 Ti4 2.805565 1_455
Si4 Ti0 2.805500 1_554
Si4 Ti3 2.805516 1_554
Si4 Ti1 2.805603 1_455
Si4 Ti2 2.805623 1_455
Si5 Ti5 2.805515 1_555
Si5 Ti1 2.805525 1_455
Si5 Ti3 2.805558 1_555
Si5 Ti4 2.805569 1_455
Si6 Ti4 2.805502 1_554
Si6 Ti3 2.805528 1_554
Si6 Ti1 2.805581 1_545
Si6 Ti5 2.805607 1_545
