# generated using pymatgen
data_CuH12N2(Cl2O)2
_symmetry_space_group_name_H-M   'P 1'
_cell_length_a   7.66807700
_cell_length_b   7.66807700
_cell_length_c   8.11293800
_cell_angle_alpha   90.00000000
_cell_angle_beta   90.00000000
_cell_angle_gamma   90.00000000
_symmetry_Int_Tables_number   1
_chemical_formula_structural   CuH12N2(Cl2O)2
_chemical_formula_sum   'Cu2 H24 N4 Cl8 O4'
_cell_volume   477.03592621
_cell_formula_units_Z   2
loop_
 _symmetry_equiv_pos_site_id
 _symmetry_equiv_pos_as_xyz
  1  'x, y, z'
loop_
 _atom_site_type_symbol
 _atom_site_label
 _atom_site_symmetry_multiplicity
 _atom_site_fract_x
 _atom_site_fract_y
 _atom_site_fract_z
 _atom_site_occupancy
  Cu  Cu0  1  0.50000000  0.50000000  0.00000000  1
  Cu  Cu1  1  0.00000000  0.00000000  0.50000000  1
  H  H0  1  0.42570200  0.57429800  0.31262200  1
  H  H1  1  0.57429800  0.42570200  0.31262200  1
  H  H2  1  0.07429800  0.07429800  0.81262200  1
  H  H3  1  0.92570200  0.92570200  0.81262200  1
  H  H4  1  0.57429800  0.42570200  0.68737800  1
  H  H5  1  0.42570200  0.57429800  0.68737800  1
  H  H6  1  0.92570200  0.92570200  0.18737800  1
  H  H7  1  0.07429800  0.07429800  0.18737800  1
  H  H8  1  0.08672700  0.56827000  0.32355700  1
  H  H9  1  0.91327300  0.43173000  0.32355700  1
  H  H10  1  0.41327300  0.06827000  0.82355700  1
  H  H11  1  0.58672700  0.93173000  0.82355700  1
  H  H12  1  0.91327300  0.43173000  0.67644300  1
  H  H13  1  0.08672700  0.56827000  0.67644300  1
  H  H14  1  0.58672700  0.93173000  0.17644300  1
  H  H15  1  0.41327300  0.06827000  0.17644300  1
  H  H16  1  0.56827000  0.08672700  0.32355700  1
  H  H17  1  0.43173000  0.91327300  0.32355700  1
  H  H18  1  0.06827000  0.41327300  0.82355700  1
  H  H19  1  0.93173000  0.58672700  0.82355700  1
  H  H20  1  0.43173000  0.91327300  0.67644300  1
  H  H21  1  0.56827000  0.08672700  0.67644300  1
  H  H22  1  0.93173000  0.58672700  0.17644300  1
  H  H23  1  0.06827000  0.41327300  0.17644300  1
  N  N0  1  0.00000000  0.50000000  0.25000000  1
  N  N1  1  0.50000000  0.00000000  0.75000000  1
  N  N2  1  0.00000000  0.50000000  0.75000000  1
  N  N3  1  0.50000000  0.00000000  0.25000000  1
  Cl  Cl0  1  0.29134600  0.70865400  0.00000000  1
  Cl  Cl1  1  0.70865400  0.29134600  0.00000000  1
  Cl  Cl2  1  0.20865400  0.20865400  0.50000000  1
  Cl  Cl3  1  0.79134600  0.79134600  0.50000000  1
  Cl  Cl4  1  0.28351000  0.71649000  0.50000000  1
  Cl  Cl5  1  0.71649000  0.28351000  0.50000000  1
  Cl  Cl6  1  0.21649000  0.21649000  0.00000000  1
  Cl  Cl7  1  0.78351000  0.78351000  0.00000000  1
  O  O0  1  0.50000000  0.50000000  0.24140000  1
  O  O1  1  0.00000000  0.00000000  0.74140000  1
  O  O2  1  0.50000000  0.50000000  0.75860000  1
  O  O3  1  0.00000000  0.00000000  0.25860000  1
loop_
_geom_bond_atom_site_label_1
_geom_bond_atom_site_label_2
_geom_bond_distance
_geom_bond_site_symmetry_2
Cu0 O2 1.958463 1_554
Cu0 O0 1.958463 1_555
Cu1 O1 1.958463 1_555
Cu1 O3 1.958463 1_555
H0 O0 0.991486 1_555
H1 O0 0.991486 1_555
H2 O1 0.991486 1_555
H3 O1 0.991486 1_665
H4 O2 0.991486 1_555
H5 O2 0.991486 1_555
H6 O3 0.991486 1_665
H7 O3 0.991486 1_555
H8 N0 1.035588 1_555
H9 N0 1.035588 1_655
H10 N1 1.035588 1_555
H11 N1 1.035588 1_565
H12 N2 1.035588 1_655
H13 N2 1.035588 1_555
H14 N3 1.035588 1_565
H15 N3 1.035588 1_555
H16 N3 1.035588 1_555
H17 N3 1.035588 1_565
H18 N2 1.035588 1_555
H19 N2 1.035588 1_655
H20 N1 1.035588 1_565
H21 N1 1.035588 1_555
H22 N0 1.035588 1_655
H23 N0 1.035588 1_555
Cl0 Cu0 2.262706 1_555
Cl1 Cu0 2.262706 1_555
Cl2 Cu1 2.262706 1_555
Cl3 Cu1 2.262706 1_665
