# generated using pymatgen
data_Cs4MgZr3(PO4)6
_symmetry_space_group_name_H-M   'P 1'
_cell_length_a   10.44633043
_cell_length_b   10.45660813
_cell_length_c   10.45038131
_cell_angle_alpha   90.00000000
_cell_angle_beta   90.00000000
_cell_angle_gamma   90.11667442
_symmetry_Int_Tables_number   1
_chemical_formula_structural   Cs4MgZr3(PO4)6
_chemical_formula_sum   'Cs8 Mg2 Zr6 P12 O48'
_cell_volume   1141.52605403
_cell_formula_units_Z   2
loop_
 _symmetry_equiv_pos_site_id
 _symmetry_equiv_pos_as_xyz
  1  'x, y, z'
loop_
 _atom_site_type_symbol
 _atom_site_label
 _atom_site_symmetry_multiplicity
 _atom_site_fract_x
 _atom_site_fract_y
 _atom_site_fract_z
 _atom_site_occupancy
  Cs  Cs0  1  0.06380587  0.06512936  0.06597936  1
  Cs  Cs1  1  0.20611308  0.71549958  0.78972405  1
  Cs  Cs2  1  0.29388692  0.28450042  0.28972405  1
  Cs  Cs3  1  0.43619413  0.93487064  0.56597936  1
  Cs  Cs4  1  0.57157324  0.42931984  0.93022350  1
  Cs  Cs5  1  0.71364922  0.79658596  0.20993489  1
  Cs  Cs6  1  0.78635078  0.20341404  0.70993489  1
  Cs  Cs7  1  0.92842676  0.57068016  0.43022350  1
  Mg  Mg0  1  0.64474078  0.14113426  0.35593414  1
  Mg  Mg1  1  0.85525922  0.85886574  0.85593414  1
  Zr  Zr0  1  0.08319603  0.91405639  0.41389669  1
  Zr  Zr1  1  0.13966669  0.35625791  0.64079094  1
  Zr  Zr2  1  0.36033331  0.64374209  0.14079094  1
  Zr  Zr3  1  0.41680397  0.08594361  0.91389669  1
  Zr  Zr4  1  0.59032938  0.58826842  0.58720223  1
  Zr  Zr5  1  0.90967062  0.41173158  0.08720223  1
  P  P0  1  0.04025714  0.72827831  0.12268941  1
  P  P1  1  0.12378699  0.03978532  0.72974490  1
  P  P2  1  0.22744340  0.37446192  0.95760634  1
  P  P3  1  0.27255660  0.62553808  0.45760634  1
  P  P4  1  0.37621301  0.96021468  0.22974490  1
  P  P5  1  0.45974286  0.27172169  0.62268941  1
  P  P6  1  0.54706525  0.77174408  0.87523621  1
  P  P7  1  0.62313865  0.45333466  0.27267916  1
  P  P8  1  0.73020504  0.12064861  0.04499125  1
  P  P9  1  0.76979496  0.87935139  0.54499125  1
  P  P10  1  0.87686135  0.54666534  0.77267916  1
  P  P11  1  0.95293475  0.22825592  0.37523621  1
  O  O0  1  0.00714412  0.09034675  0.35764426  1
  O  O1  1  0.02679822  0.79905282  0.25446215  1
  O  O2  1  0.02261090  0.96124505  0.79737570  1
  O  O3  1  0.04103214  0.29593062  0.47741001  1
  O  O4  1  0.08860084  0.35771556  0.00562438  1
  O  O5  1  0.08691360  0.18486682  0.72881856  1
  O  O6  1  0.14305153  0.99493262  0.58829869  1
  O  O7  1  0.18573449  0.72707840  0.08696842  1
  O  O8  1  0.20382043  0.52136847  0.53841449  1
  O  O9  1  0.19872544  0.75271867  0.47575088  1
  O  O10  1  0.22972933  0.41531325  0.81540853  1
  O  O11  1  0.25528547  0.02686566  0.80031151  1
  O  O12  1  0.24471453  0.97313434  0.30031151  1
  O  O13  1  0.27027067  0.58468675  0.31540853  1
  O  O14  1  0.30127456  0.24728133  0.97575088  1
  O  O15  1  0.29617957  0.47863153  0.03841449  1
  O  O16  1  0.31426551  0.27292160  0.58696842  1
  O  O17  1  0.35694847  0.00506738  0.08829869  1
  O  O18  1  0.41308640  0.81513318  0.22881856  1
  O  O19  1  0.41139916  0.64228444  0.50562438  1
  O  O20  1  0.45896786  0.70406938  0.97741001  1
  O  O21  1  0.47738910  0.03875495  0.29737570  1
  O  O22  1  0.47320178  0.20094718  0.75446215  1
  O  O23  1  0.49285588  0.90965325  0.85764426  1
  O  O24  1  0.50562379  0.41264893  0.64252032  1
  O  O25  1  0.52409540  0.69786995  0.74678698  1
  O  O26  1  0.52118763  0.54067467  0.20448808  1
  O  O27  1  0.53736707  0.20327589  0.52156330  1
  O  O28  1  0.58876103  0.14270932  0.99296864  1
  O  O29  1  0.58148060  0.31497309  0.26898307  1
  O  O30  1  0.64165519  0.50739766  0.41067183  1
  O  O31  1  0.68516958  0.76766413  0.91774417  1
  O  O32  1  0.70286363  0.97622282  0.45902381  1
  O  O33  1  0.70016879  0.74449564  0.52701555  1
  O  O34  1  0.72992614  0.08449558  0.18579722  1
  O  O35  1  0.75239705  0.47603628  0.19931640  1
  O  O36  1  0.74760295  0.52396372  0.69931640  1
  O  O37  1  0.77007386  0.91550442  0.68579722  1
  O  O38  1  0.79983121  0.25550436  0.02701555  1
  O  O39  1  0.79713637  0.02377718  0.95902381  1
  O  O40  1  0.81483042  0.23233587  0.41774417  1
  O  O41  1  0.85834481  0.49260234  0.91067183  1
  O  O42  1  0.91851940  0.68502691  0.76898307  1
  O  O43  1  0.91123897  0.85729068  0.49296864  1
  O  O44  1  0.96263293  0.79672411  0.02156330  1
  O  O45  1  0.97881237  0.45932533  0.70448808  1
  O  O46  1  0.97590460  0.30213005  0.24678698  1
  O  O47  1  0.99437621  0.58735107  0.14252032  1
loop_
_geom_bond_atom_site_label_1
_geom_bond_atom_site_label_2
_geom_bond_distance
_geom_bond_site_symmetry_2
Cs0 O39 3.031766 1_454
Cs0 O44 3.032726 1_445
Cs0 O2 3.040163 1_544
Cs0 O0 3.116229 1_555
Cs0 O4 3.134003 1_555
Cs0 O17 3.135943 1_555
Cs0 O12 3.240547 1_545
Cs0 O46 3.250273 1_455
Cs0 O14 3.263658 1_554
Cs0 O38 3.428575 1_455
Cs0 O1 3.430134 1_545
Cs0 O11 3.445634 1_554
Cs1 O42 3.028271 1_455
Cs1 O7 3.115973 1_556
Cs1 O10 3.160530 1_555
Cs1 O2 3.210020 1_555
Cs1 O20 3.292361 1_555
Cs1 O11 3.296929 1_565
Cs1 O9 3.305060 1_555
Cs1 O8 3.319403 1_555
Cs1 O25 3.357355 1_555
Cs2 O29 3.028271 1_555
Cs2 O16 3.115973 1_555
Cs2 O13 3.160530 1_555
Cs2 O21 3.210020 1_555
Cs2 O3 3.292361 1_555
Cs2 O12 3.296929 1_545
Cs2 O14 3.305060 1_554
Cs2 O15 3.319403 1_555
Cs2 O46 3.357355 1_455
Cs3 O32 3.031766 1_555
Cs3 O27 3.032726 1_565
Cs3 O21 3.040163 1_565
Cs3 O23 3.116229 1_555
Cs3 O19 3.134003 1_555
Cs3 O6 3.135943 1_555
Cs3 O11 3.240547 1_565
Cs3 O25 3.250273 1_555
Cs3 O9 3.263658 1_555
Cs3 O33 3.428575 1_555
Cs3 O22 3.430134 1_565
Cs3 O12 3.445634 1_555
Cs4 O41 3.073407 1_555
Cs4 O28 3.073473 1_555
Cs4 O24 3.089371 1_555
Cs4 O15 3.134732 1_556
Cs4 O26 3.138515 1_556
Cs4 O20 3.145548 1_555
Cs4 O38 3.166991 1_556
Cs4 O22 3.181557 1_555
Cs4 O36 3.190034 1_555
Cs4 O35 3.422137 1_556
Cs4 O14 3.435213 1_555
Cs4 O25 3.436864 1_555
Cs5 O34 3.025544 1_565
Cs5 O31 3.082774 1_554
Cs5 O18 3.152340 1_555
Cs5 O32 3.212150 1_555
Cs5 O44 3.261935 1_555
Cs5 O1 3.304237 1_655
Cs5 O26 3.344293 1_555
Cs5 O33 3.360988 1_555
Cs5 O35 3.378855 1_555
Cs6 O37 3.025544 1_545
Cs6 O40 3.082774 1_555
Cs6 O5 3.152340 1_655
Cs6 O39 3.212150 1_555
Cs6 O27 3.261935 1_555
Cs6 O22 3.304237 1_555
Cs6 O45 3.344293 1_555
Cs6 O38 3.360988 1_556
Cs6 O36 3.378855 1_555
Cs7 O30 3.073407 1_555
Cs7 O43 3.073473 1_555
Cs7 O47 3.089371 1_555
Cs7 O8 3.134732 1_655
Cs7 O45 3.138515 1_555
Cs7 O3 3.145548 1_655
Cs7 O33 3.166991 1_555
Cs7 O1 3.181557 1_655
Cs7 O35 3.190034 1_555
Cs7 O36 3.422137 1_555
Cs7 O9 3.435213 1_655
Cs7 O46 3.436864 1_555
Mg0 O34 2.075102 1_555
Mg0 O40 2.115860 1_555
Mg0 O32 2.123007 1_545
Mg0 O21 2.137561 1_555
Mg0 O29 2.138118 1_555
Mg0 O27 2.163167 1_555
Mg1 O37 2.075102 1_555
Mg1 O31 2.115860 1_555
Mg1 O39 2.123007 1_565
Mg1 O2 2.137561 1_655
Mg1 O42 2.138118 1_555
Mg1 O44 2.163167 1_556
O0 P11 1.561202 1_455
O0 Zr0 2.093045 1_545
O1 P0 1.569783 1_555
O1 Zr0 2.136912 1_555
O2 P1 1.512461 1_565
O3 P11 1.576438 1_455
O3 Zr1 2.090965 1_555
O4 P2 1.544372 1_554
O4 Zr5 2.131640 1_455
O5 P1 1.565988 1_555
O5 Zr1 2.087532 1_555
O6 P1 1.563914 1_565
O6 Zr0 2.103748 1_555
O7 P0 1.564956 1_555
O7 Zr2 2.099733 1_555
O8 P3 1.553070 1_555
O8 Zr1 2.137717 1_555
O9 P3 1.550341 1_555
O9 Zr0 2.174570 1_555
O10 P2 1.546370 1_555
O10 Zr1 2.143381 1_555
O11 P1 1.565191 1_555
O11 Zr3 2.152502 1_555
O12 P4 1.565191 1_555
O12 Zr0 2.152502 1_555
O13 P3 1.546370 1_555
O13 Zr2 2.143381 1_555
O14 P2 1.550341 1_555
O14 Zr3 2.174570 1_555
O15 P2 1.553070 1_554
O15 Zr2 2.137717 1_555
O16 P5 1.564956 1_555
O16 Zr1 2.099733 1_555
O17 P4 1.563914 1_545
O17 Zr3 2.103748 1_554
O18 P4 1.565988 1_555
O18 Zr2 2.087532 1_555
O19 P3 1.544372 1_555
O19 Zr4 2.131640 1_555
O20 P6 1.576438 1_555
O20 Zr2 2.090965 1_556
O21 P4 1.512461 1_545
O22 P5 1.569783 1_555
O22 Zr3 2.136912 1_555
O23 P6 1.561202 1_555
O23 Zr3 2.093045 1_565
O24 P5 1.562481 1_555
O24 Zr4 2.117278 1_555
O25 P6 1.566978 1_555
O25 Zr4 2.139324 1_555
O26 P7 1.574842 1_555
O26 Zr2 2.106069 1_555
O27 P5 1.512939 1_555
O28 P8 1.591659 1_556
O28 Zr3 2.063391 1_555
O29 P7 1.510468 1_555
O30 P7 1.560812 1_555
O30 Zr4 2.099462 1_555
O31 P6 1.510212 1_555
O32 P9 1.524768 1_555
O33 P9 1.596436 1_555
O33 Zr4 2.091223 1_555
O34 P8 1.519263 1_555
O35 P7 1.570373 1_555
O35 Zr5 2.128048 1_555
O36 P10 1.570373 1_555
O36 Zr4 2.128048 1_555
O37 P9 1.519263 1_555
O38 P8 1.596436 1_555
O38 Zr5 2.091223 1_555
O39 P8 1.524768 1_556
O40 P11 1.510212 1_555
O41 P10 1.560812 1_555
O41 Zr5 2.099462 1_556
O42 P10 1.510468 1_555
O43 P9 1.591659 1_555
O43 Zr0 2.063391 1_655
O44 P0 1.512939 1_655
O45 P10 1.574842 1_555
O45 Zr1 2.106069 1_655
O46 P11 1.566978 1_555
O46 Zr5 2.139324 1_555
O47 P0 1.562481 1_655
O47 Zr5 2.117278 1_555
