# generated using pymatgen
data_Fe9Co7
_symmetry_space_group_name_H-M   'P 1'
_cell_length_a   5.67309446
_cell_length_b   5.67305930
_cell_length_c   5.67310802
_cell_angle_alpha   89.99999899
_cell_angle_beta   90.00001040
_cell_angle_gamma   90.00000000
_symmetry_Int_Tables_number   1
_chemical_formula_structural   Fe9Co7
_chemical_formula_sum   'Fe9 Co7'
_cell_volume   182.58218119
_cell_formula_units_Z   1
loop_
 _symmetry_equiv_pos_site_id
 _symmetry_equiv_pos_as_xyz
  1  'x, y, z'
loop_
 _atom_site_type_symbol
 _atom_site_label
 _atom_site_symmetry_multiplicity
 _atom_site_fract_x
 _atom_site_fract_y
 _atom_site_fract_z
 _atom_site_occupancy
  Fe  Fe0  1  0.24958097  0.24957927  0.24957627  1
  Fe  Fe1  1  0.75042466  0.24957873  0.24957573  1
  Fe  Fe2  1  0.75042466  0.75042227  0.75042427  1
  Fe  Fe3  1  0.24957857  0.75042257  0.24957443  1
  Fe  Fe4  1  0.24957757  0.24957743  0.75042557  1
  Fe  Fe5  1  0.24957997  0.75042173  0.75042273  1
  Fe  Fe6  1  0.75042197  0.75041968  0.24957932  1
  Fe  Fe7  1  0.75042297  0.24957932  0.75042168  1
  Fe  Fe8  1  0.49999679  0.49999900  0.50000100  1
  Co  Co0  1  0.49999992  0.00000000  -0.00000000  1
  Co  Co1  1  0.99999712  0.50000000  0.50000000  1
  Co  Co2  1  -0.00000030  0.00000000  0.50000000  1
  Co  Co3  1  -0.00000130  0.50000000  0.00000000  1
  Co  Co4  1  0.49999865  0.50000000  -0.00000000  1
  Co  Co5  1  -0.00000087  0.00000000  0.00000000  1
  Co  Co6  1  0.49999965  0.00000000  0.50000000  1
loop_
_geom_bond_atom_site_label_1
_geom_bond_atom_site_label_2
_geom_bond_distance
_geom_bond_site_symmetry_2
Fe0 Fe8 2.460647 1_555
Fe1 Fe8 2.460690 1_555
Fe2 Fe8 2.460693 1_555
Fe3 Fe8 2.460673 1_555
Fe4 Fe8 2.460663 1_555
Fe5 Fe8 2.460650 1_555
Fe6 Fe8 2.460671 1_555
Fe7 Fe8 2.460667 1_555
Co0 Fe3 2.455124 1_545
Co0 Fe4 2.455127 1_554
Co0 Fe0 2.455128 1_555
Co0 Fe5 2.455131 1_544
Co0 Fe2 2.455141 1_544
Co0 Fe1 2.455144 1_555
Co0 Fe7 2.455149 1_554
Co0 Fe6 2.455152 1_545
Co1 Fe6 2.457883 1_555
Co1 Fe7 2.457886 1_555
Co1 Fe1 2.457891 1_555
Co1 Fe2 2.457895 1_555
Co1 Fe5 2.457921 1_655
Co1 Fe0 2.457925 1_655
Co1 Fe4 2.457926 1_655
Co1 Fe3 2.457929 1_655
Co1 Fe8 2.836545 1_655
Co1 Fe8 2.836549 1_555
Co2 Fe2 2.455137 1_445
Co2 Fe7 2.455139 1_455
Co2 Fe1 2.455140 1_455
Co2 Fe6 2.455142 1_445
Co2 Fe4 2.455149 1_555
Co2 Fe5 2.455150 1_545
Co2 Fe3 2.455153 1_545
Co2 Fe0 2.455160 1_555
Co3 Fe1 2.455117 1_455
Co3 Fe2 2.455120 1_454
Co3 Fe7 2.455129 1_454
Co3 Fe6 2.455132 1_455
Co3 Fe4 2.455133 1_554
Co3 Fe3 2.455136 1_555
Co3 Fe0 2.455144 1_555
Co3 Fe5 2.455147 1_554
Co4 Fe0 2.457880 1_555
Co4 Fe3 2.457888 1_555
Co4 Fe5 2.457890 1_554
Co4 Fe4 2.457891 1_554
Co4 Fe6 2.457905 1_555
Co4 Fe1 2.457907 1_555
Co4 Fe7 2.457909 1_554
Co4 Fe2 2.457911 1_554
Co4 Fe8 2.836548 1_554
Co4 Fe8 2.836560 1_555
Co5 Fe2 2.452352 1_444
Co5 Fe1 2.452356 1_455
Co5 Fe4 2.452360 1_554
Co5 Fe3 2.452363 1_545
Co5 Fe7 2.452371 1_454
Co5 Fe5 2.452380 1_544
Co5 Fe6 2.452382 1_445
Co5 Fe0 2.452383 1_555
Co6 Fe5 2.457900 1_545
Co6 Fe0 2.457903 1_555
Co6 Fe6 2.457909 1_545
Co6 Fe3 2.457911 1_545
Co6 Fe7 2.457912 1_555
Co6 Fe4 2.457914 1_555
Co6 Fe2 2.457920 1_545
Co6 Fe1 2.457924 1_555
Co6 Fe8 2.836524 1_555
Co6 Fe8 2.836535 1_545
