# generated using pymatgen
data_La21Fe8Sn7C12
_symmetry_space_group_name_H-M   'P 1'
_cell_length_a   11.64356250
_cell_length_b   11.64356250
_cell_length_c   11.64356250
_cell_angle_alpha   60.00000000
_cell_angle_beta   60.00000000
_cell_angle_gamma   60.00000000
_symmetry_Int_Tables_number   1
_chemical_formula_structural   La21Fe8Sn7C12
_chemical_formula_sum   'La21 Fe8 Sn7 C12'
_cell_volume   1116.20159345
_cell_formula_units_Z   1
loop_
 _symmetry_equiv_pos_site_id
 _symmetry_equiv_pos_as_xyz
  1  'x, y, z'
loop_
 _atom_site_type_symbol
 _atom_site_label
 _atom_site_symmetry_multiplicity
 _atom_site_fract_x
 _atom_site_fract_y
 _atom_site_fract_z
 _atom_site_occupancy
  La  La0  1  0.09422500  0.63525800  0.63525800  1
  La  La1  1  0.36474200  0.36474200  0.36474200  1
  La  La2  1  0.63525800  0.63525800  0.63525800  1
  La  La3  1  0.00000000  0.33982500  0.66017500  1
  La  La4  1  0.00000000  0.33982500  0.00000000  1
  La  La5  1  0.33982500  0.00000000  0.00000000  1
  La  La6  1  0.66017500  0.00000000  0.33982500  1
  La  La7  1  0.36474200  0.90577500  0.36474200  1
  La  La8  1  0.63525800  0.63525800  0.09422500  1
  La  La9  1  0.66017500  0.33982500  0.00000000  1
  La  La10  1  0.33982500  0.00000000  0.66017500  1
  La  La11  1  0.33982500  0.66017500  0.00000000  1
  La  La12  1  0.00000000  0.00000000  0.66017500  1
  La  La13  1  0.63525800  0.09422500  0.63525800  1
  La  La14  1  0.00000000  0.00000000  0.33982500  1
  La  La15  1  0.66017500  0.00000000  0.00000000  1
  La  La16  1  0.50000000  0.50000000  0.50000000  1
  La  La17  1  0.00000000  0.66017500  0.33982500  1
  La  La18  1  0.90577500  0.36474200  0.36474200  1
  La  La19  1  0.00000000  0.66017500  0.00000000  1
  La  La20  1  0.36474200  0.36474200  0.90577500  1
  Fe  Fe0  1  0.41151600  0.19616200  0.19616100  1
  Fe  Fe1  1  0.58848500  0.80383800  0.80383800  1
  Fe  Fe2  1  0.80383900  0.80383800  0.80383800  1
  Fe  Fe3  1  0.80383800  0.58848500  0.80383800  1
  Fe  Fe4  1  0.19616200  0.19616200  0.41151500  1
  Fe  Fe5  1  0.19616200  0.41151500  0.19616100  1
  Fe  Fe6  1  0.19616200  0.19616200  0.19616100  1
  Fe  Fe7  1  0.80383800  0.80383800  0.58848400  1
  Sn  Sn0  1  0.28933700  0.71066300  0.28933700  1
  Sn  Sn1  1  0.28933700  0.71066300  0.71066300  1
  Sn  Sn2  1  0.71066300  0.28933700  0.71066300  1
  Sn  Sn3  1  0.71066300  0.28933700  0.28933700  1
  Sn  Sn4  1  0.00000000  0.00000000  0.00000000  1
  Sn  Sn5  1  0.28933700  0.28933700  0.71066300  1
  Sn  Sn6  1  0.71066300  0.71066300  0.28933700  1
  C  C0  1  0.88989600  0.61010400  0.61010400  1
  C  C1  1  0.38989600  0.11010400  0.11010400  1
  C  C2  1  0.61010400  0.88989600  0.61010400  1
  C  C3  1  0.11010400  0.11010400  0.38989600  1
  C  C4  1  0.88989600  0.88989600  0.61010400  1
  C  C5  1  0.38989600  0.11010400  0.38989600  1
  C  C6  1  0.11010400  0.38989600  0.11010400  1
  C  C7  1  0.61010400  0.61010400  0.88989600  1
  C  C8  1  0.88989600  0.61010400  0.88989600  1
  C  C9  1  0.61010400  0.88989600  0.88989600  1
  C  C10  1  0.38989600  0.38989600  0.11010400  1
  C  C11  1  0.11010400  0.38989600  0.38989600  1
loop_
_geom_bond_atom_site_label_1
_geom_bond_atom_site_label_2
_geom_bond_distance
_geom_bond_site_symmetry_2
La0 Sn0 3.385672 1_555
La0 Sn5 3.385672 1_555
La0 Sn1 3.385680 1_555
La1 Sn3 3.385670 1_555
La1 Sn0 3.385670 1_555
La1 Sn5 3.385670 1_555
La2 Sn6 3.385670 1_555
La2 Sn1 3.385670 1_555
La2 Sn2 3.385670 1_555
La3 Sn2 3.419818 1_455
La3 Sn5 3.419818 1_555
La3 Sn4 3.956774 1_556
La4 Sn3 3.419818 1_455
La4 Sn5 3.419818 1_554
La4 Sn4 3.956774 1_555
La5 Sn0 3.419818 1_545
La5 Sn5 3.419818 1_554
La5 Sn4 3.956774 1_555
La6 Sn6 3.419818 1_545
La6 Sn3 3.419818 1_555
La6 Sn4 3.956774 1_655
La7 Sn6 3.385672 1_555
La7 Sn1 3.385672 1_555
La7 Sn0 3.385680 1_555
La8 Sn3 3.385672 1_555
La8 Sn0 3.385672 1_555
La8 Sn6 3.385680 1_555
La9 Sn2 3.419818 1_554
La9 Sn3 3.419818 1_555
La9 Sn4 3.956774 1_655
La10 Sn1 3.419818 1_545
La10 Sn5 3.419818 1_555
La10 Sn4 3.956774 1_556
La11 Sn1 3.419818 1_554
La11 Sn0 3.419818 1_555
La11 Sn4 3.956774 1_565
La12 Sn1 3.419818 1_545
La12 Sn2 3.419818 1_455
La12 Sn4 3.956774 1_556
La13 Sn3 3.385672 1_555
La13 Sn5 3.385672 1_555
La13 Sn2 3.385680 1_555
La14 Sn0 3.419818 1_545
La14 Sn3 3.419818 1_455
La14 Sn4 3.956774 1_555
La15 Sn6 3.419818 1_545
La15 Sn2 3.419818 1_554
La15 Sn4 3.956774 1_655
La16 Sn3 3.468879 1_555
La16 Sn0 3.468879 1_555
La16 Sn5 3.468879 1_555
La16 Sn6 3.468879 1_555
La16 Sn1 3.468879 1_555
La16 Sn2 3.468879 1_555
La17 Sn6 3.419818 1_455
La17 Sn0 3.419818 1_555
La17 Sn4 3.956774 1_565
La18 Sn6 3.385672 1_555
La18 Sn2 3.385672 1_555
La18 Sn3 3.385680 1_555
La19 Sn6 3.419818 1_455
La19 Sn1 3.419818 1_554
La19 Sn4 3.956774 1_565
La20 Sn1 3.385672 1_555
La20 Sn2 3.385672 1_555
La20 Sn5 3.385680 1_555
C0 Fe7 1.892068 1_555
C0 Fe3 1.892070 1_555
C0 La17 2.601022 1_655
C0 La3 2.601022 1_655
C0 La0 2.703912 1_655
C0 La2 2.703924 1_555
C1 Fe6 1.892070 1_555
C1 Fe0 1.892078 1_555
C1 La15 2.601022 1_555
C1 La5 2.601022 1_555
C1 La7 2.703919 1_545
C1 La20 2.703919 1_554
C2 Fe7 1.892068 1_555
C2 Fe1 1.892070 1_555
C2 La10 2.601022 1_565
C2 La6 2.601022 1_565
C2 La13 2.703912 1_565
C2 La2 2.703924 1_555
C3 Fe6 1.892081 1_555
C3 Fe4 1.892081 1_555
C3 La12 2.601022 1_555
C3 La14 2.601022 1_555
C3 La7 2.703919 1_545
C3 La18 2.703919 1_455
C4 Fe2 1.892070 1_555
C4 Fe7 1.892088 1_555
C4 La12 2.601022 1_665
C4 La14 2.601022 1_665
C4 La13 2.703919 1_565
C4 La0 2.703919 1_655
C5 Fe4 1.892070 1_555
C5 Fe0 1.892078 1_555
C5 La10 2.601022 1_555
C5 La6 2.601022 1_555
C5 La7 2.703912 1_545
C5 La1 2.703924 1_555
C6 Fe6 1.892070 1_555
C6 Fe5 1.892070 1_555
C6 La19 2.601022 1_555
C6 La4 2.601022 1_555
C6 La18 2.703919 1_455
C6 La20 2.703919 1_554
C7 Fe1 1.892070 1_555
C7 Fe3 1.892070 1_555
C7 La11 2.601022 1_556
C7 La9 2.601022 1_556
C7 La8 2.703912 1_556
C7 La2 2.703924 1_555
C8 Fe2 1.892070 1_555
C8 Fe3 1.892081 1_555
C8 La19 2.601022 1_656
C8 La4 2.601022 1_656
C8 La0 2.703919 1_655
C8 La8 2.703919 1_556
C9 Fe1 1.892081 1_555
C9 Fe2 1.892081 1_555
C9 La15 2.601022 1_566
C9 La5 2.601022 1_566
C9 La13 2.703919 1_565
C9 La8 2.703919 1_556
C10 Fe0 1.892068 1_555
C10 Fe5 1.892070 1_555
C10 La11 2.601022 1_555
C10 La9 2.601022 1_555
C10 La20 2.703912 1_554
C10 La1 2.703924 1_555
C11 Fe4 1.892070 1_555
C11 Fe5 1.892081 1_555
C11 La17 2.601022 1_555
C11 La3 2.601022 1_555
C11 La18 2.703912 1_455
C11 La1 2.703924 1_555
