# generated using pymatgen
data_U8Bi2O19
_symmetry_space_group_name_H-M   'P 1'
_cell_length_a   3.83503800
_cell_length_b   3.83467701
_cell_length_c   27.47633195
_cell_angle_alpha   89.97713734
_cell_angle_beta   89.93670764
_cell_angle_gamma   89.99651863
_symmetry_Int_Tables_number   1
_chemical_formula_structural   U8Bi2O19
_chemical_formula_sum   'U8 Bi2 O19'
_cell_volume   404.07028620
_cell_formula_units_Z   1
loop_
 _symmetry_equiv_pos_site_id
 _symmetry_equiv_pos_as_xyz
  1  'x, y, z'
loop_
 _atom_site_type_symbol
 _atom_site_label
 _atom_site_symmetry_multiplicity
 _atom_site_fract_x
 _atom_site_fract_y
 _atom_site_fract_z
 _atom_site_occupancy
  U  U0  1  0.99725900  0.00164200  0.79937900  1
  U  U1  1  0.50126000  0.50387500  0.69919300  1
  U  U2  1  0.99954500  0.00313300  0.59963400  1
  U  U3  1  0.49941500  0.50062400  0.49984700  1
  U  U4  1  0.00015200  0.99810800  0.39983300  1
  U  U5  1  0.49904500  0.49886800  0.30000700  1
  U  U6  1  0.99959000  0.00033300  0.20042000  1
  U  U7  1  0.50208400  0.49871600  0.10026300  1
  Bi  Bi0  1  0.00406400  0.99640200  0.99833700  1
  Bi  Bi1  1  0.49101900  0.49828600  0.90105500  1
  O  O0  1  0.50037700  0.00427600  0.64889700  1
  O  O1  1  0.99842700  0.50277100  0.54987700  1
  O  O2  1  0.50073700  0.99899000  0.44979700  1
  O  O3  1  0.99930500  0.49733800  0.34993400  1
  O  O4  1  0.49854100  0.99987200  0.25066400  1
  O  O5  1  0.00122900  0.50015100  0.15247600  1
  O  O6  1  0.50125800  0.00010700  0.15258400  1
  O  O7  1  0.50292700  0.99673900  0.05683200  1
  O  O8  1  0.00341400  0.49644100  0.05775300  1
  O  O9  1  0.49293600  0.99873500  0.84250000  1
  O  O10  1  0.50398600  0.99765400  0.94941100  1
  O  O11  1  0.99263400  0.49981200  0.84259600  1
  O  O12  1  0.00135500  0.50367900  0.74752600  1
  O  O13  1  0.50129900  0.00397100  0.74690800  1
  O  O14  1  0.00067000  0.50428700  0.64928100  1
  O  O15  1  0.49847200  0.00198600  0.54969400  1
  O  O16  1  0.00058700  0.49857800  0.44986600  1
  O  O17  1  0.50007000  0.99803600  0.34997800  1
  O  O18  1  0.99848000  0.50027600  0.25058600  1
loop_
_geom_bond_atom_site_label_1
_geom_bond_atom_site_label_2
_geom_bond_distance
_geom_bond_site_symmetry_2
Bi0 O10 2.340346 1_555
Bi0 O10 2.343267 1_455
Bi0 O7 2.500031 1_556
Bi0 O7 2.503993 1_456
Bi0 O8 2.517594 1_556
Bi0 O8 2.518814 1_566
Bi1 O10 2.331707 1_555
Bi1 O10 2.334814 1_545
Bi1 O11 2.497994 1_455
Bi1 O9 2.502111 1_545
Bi1 O9 2.503766 1_555
Bi1 O11 2.504770 1_555
O0 U2 2.343308 1_555
O0 U2 2.350965 1_455
O0 U1 2.362671 1_555
O0 U1 2.364271 1_545
O1 U2 2.353269 1_555
O1 U2 2.356419 1_565
O1 U3 2.357518 1_555
O1 U3 2.361208 1_655
O2 U3 2.353988 1_555
O2 U4 2.355237 1_655
O2 U4 2.361352 1_555
O2 U3 2.365063 1_565
O3 U4 2.354263 1_645
O3 U5 2.355662 1_655
O3 U5 2.359748 1_555
O3 U4 2.359957 1_655
O4 U5 2.345552 1_565
O4 U5 2.350956 1_555
O4 U6 2.360750 1_465
O4 U6 2.364805 1_565
O5 U6 2.325267 1_455
O5 U6 2.327283 1_465
O5 U7 2.393441 1_455
O5 U7 2.396153 1_555
O6 U6 2.320663 1_555
O6 U6 2.328820 1_455
O6 U7 2.391700 1_555
O6 U7 2.401153 1_545
O7 U7 2.251529 1_555
O7 U7 2.265209 1_565
O8 U7 2.242016 1_555
O8 U7 2.248523 1_455
O9 U0 2.241077 1_465
O9 U0 2.267059 1_565
O11 U0 2.249761 1_555
O11 U0 2.260889 1_565
O12 U1 2.330982 1_555
O12 U1 2.333993 1_455
O12 U0 2.382964 1_465
O12 U0 2.394592 1_455
O13 U1 2.321977 1_555
O13 U1 2.323449 1_545
O13 U0 2.387961 1_555
O13 U0 2.410183 1_455
O14 U2 2.349043 1_465
O14 U1 2.354387 1_455
O14 U2 2.357142 1_455
O14 U1 2.360532 1_555
O15 U3 2.351582 1_555
O15 U2 2.353334 1_455
O15 U3 2.360971 1_545
O15 U2 2.362493 1_555
O16 U3 2.356157 1_555
O16 U4 2.357339 1_555
O16 U3 2.360998 1_455
O16 U4 2.361161 1_545
O17 U4 2.355061 1_555
O17 U5 2.356114 1_555
O17 U4 2.358035 1_655
O17 U5 2.360410 1_565
O18 U5 2.346650 1_555
O18 U5 2.352634 1_655
O18 U6 2.361111 1_565
O18 U6 2.361649 1_555
