# generated using pymatgen
data_LiFe4P7O24
_symmetry_space_group_name_H-M   'P 1'
_cell_length_a   10.24311900
_cell_length_b   10.31467679
_cell_length_c   10.74364057
_cell_angle_alpha   108.80084921
_cell_angle_beta   111.21668992
_cell_angle_gamma   105.20849835
_symmetry_Int_Tables_number   1
_chemical_formula_structural   LiFe4P7O24
_chemical_formula_sum   'Li2 Fe8 P14 O48'
_cell_volume   904.64787422
_cell_formula_units_Z   2
loop_
 _symmetry_equiv_pos_site_id
 _symmetry_equiv_pos_as_xyz
  1  'x, y, z'
loop_
 _atom_site_type_symbol
 _atom_site_label
 _atom_site_symmetry_multiplicity
 _atom_site_fract_x
 _atom_site_fract_y
 _atom_site_fract_z
 _atom_site_occupancy
  Li  Li0  1  0.44874000  0.75345100  0.32991900  1
  Li  Li1  1  0.55126000  0.24654900  0.67008100  1
  Fe  Fe0  1  0.01479700  0.17657400  0.59219900  1
  Fe  Fe1  1  0.98520300  0.82342600  0.40780100  1
  Fe  Fe2  1  0.51236300  0.66040200  0.88886800  1
  Fe  Fe3  1  0.48763700  0.33959800  0.11113200  1
  Fe  Fe4  1  0.99989900  0.38265300  0.07585900  1
  Fe  Fe5  1  0.50019800  0.10038700  0.25676200  1
  Fe  Fe6  1  0.49980200  0.89961300  0.74323800  1
  Fe  Fe7  1  0.00010100  0.61734700  0.92414100  1
  P  P0  1  0.80528600  0.37692200  0.56740900  1
  P  P1  1  0.80367800  0.05906900  0.73823000  1
  P  P2  1  0.19632200  0.94093100  0.26177000  1
  P  P3  1  0.74048800  0.96483600  0.24272100  1
  P  P4  1  0.74913000  0.53911800  0.04868000  1
  P  P5  1  0.26845200  0.82111900  0.88212400  1
  P  P6  1  0.25951200  0.03516400  0.75727900  1
  P  P7  1  0.73154800  0.17888100  0.11787600  1
  P  P8  1  0.22796000  0.21865400  0.22522400  1
  P  P9  1  0.77204000  0.78134600  0.77477600  1
  P  P10  1  0.25087000  0.46088200  0.95132000  1
  P  P11  1  0.75044500  0.60931300  0.47817500  1
  P  P12  1  0.19471400  0.62307800  0.43259100  1
  P  P13  1  0.24955500  0.39068700  0.52182500  1
  O  O0  1  0.36467600  0.59372600  0.95268800  1
  O  O1  1  0.62504100  0.98299500  0.65934500  1
  O  O2  1  0.37655500  0.01320700  0.70343500  1
  O  O3  1  0.87241600  0.20952400  0.87534200  1
  O  O4  1  0.34932900  0.43873300  0.08385700  1
  O  O5  1  0.86265300  0.94414800  0.79463800  1
  O  O6  1  0.35732700  0.93706900  0.04700700  1
  O  O7  1  0.87221000  0.49794600  0.00967800  1
  O  O8  1  0.88133500  0.97501900  0.37075800  1
  O  O9  1  0.62344500  0.98679300  0.29656500  1
  O  O10  1  0.37997100  0.78211500  0.82317000  1
  O  O11  1  0.85428100  0.06680400  0.62439500  1
  O  O12  1  0.11330800  0.25495700  0.12767100  1
  O  O13  1  0.39417300  0.49251800  0.67149000  1
  O  O14  1  0.90996100  0.30516100  0.53929800  1
  O  O15  1  0.84673200  0.52086800  0.53088300  1
  O  O16  1  0.18655000  0.89270900  0.78160900  1
  O  O17  1  0.62002900  0.21788500  0.17683000  1
  O  O18  1  0.33706900  0.17461300  0.90739300  1
  O  O19  1  0.15326800  0.47913200  0.46911700  1
  O  O20  1  0.60582700  0.50748200  0.32851000  1
  O  O21  1  0.11866500  0.02498100  0.62924200  1
  O  O22  1  0.13356300  0.68063700  0.84123100  1
  O  O23  1  0.83548000  0.67899500  0.20282800  1
  O  O24  1  0.12758400  0.79047600  0.12465800  1
  O  O25  1  0.14416200  0.24691400  0.50618500  1
  O  O26  1  0.09003900  0.69483900  0.46070200  1
  O  O27  1  0.36508200  0.21818500  0.19822400  1
  O  O28  1  0.37495900  0.01700500  0.34065500  1
  O  O29  1  0.83422900  0.43984100  0.72971200  1
  O  O30  1  0.16452000  0.32100500  0.79717200  1
  O  O31  1  0.36961500  0.72477100  0.53423400  1
  O  O32  1  0.16577100  0.56015900  0.27028800  1
  O  O33  1  0.13734700  0.05585200  0.20536200  1
  O  O34  1  0.63038500  0.27522900  0.46576600  1
  O  O35  1  0.69087700  0.66207200  0.59879800  1
  O  O36  1  0.14571900  0.93319600  0.37560500  1
  O  O37  1  0.63491800  0.78181500  0.80177600  1
  O  O38  1  0.64267300  0.06293100  0.95299300  1
  O  O39  1  0.63532400  0.40627400  0.04731200  1
  O  O40  1  0.81345000  0.10729100  0.21839100  1
  O  O41  1  0.66293100  0.82538700  0.09260700  1
  O  O42  1  0.88669200  0.74504300  0.87232900  1
  O  O43  1  0.86643700  0.31936300  0.15876900  1
  O  O44  1  0.30912300  0.33792800  0.40120200  1
  O  O45  1  0.85583800  0.75308600  0.49381500  1
  O  O46  1  0.12779000  0.50205400  0.99032200  1
  O  O47  1  0.65067100  0.56126700  0.91614300  1
loop_
_geom_bond_atom_site_label_1
_geom_bond_atom_site_label_2
_geom_bond_distance
_geom_bond_site_symmetry_2
Fe0 O30 1.913928 1_555
Fe0 O11 1.947388 1_455
Fe0 O25 1.987538 1_555
Fe0 O14 2.006673 1_455
Fe0 O21 2.168583 1_555
Fe0 O8 2.194956 1_445
Fe1 O23 1.913928 1_555
Fe1 O36 1.947388 1_655
Fe1 O45 1.987538 1_555
Fe1 O26 2.006673 1_655
Fe1 O8 2.168583 1_555
Fe1 O21 2.194956 1_665
Fe2 O0 1.934023 1_555
Fe2 O47 1.947109 1_555
Fe2 O41 1.960729 1_556
Fe2 O13 2.040955 1_555
Fe2 O10 2.164470 1_555
Fe2 O37 2.190975 1_555
Fe3 O39 1.934023 1_555
Fe3 O4 1.947109 1_555
Fe3 O18 1.960729 1_554
Fe3 O20 2.040955 1_555
Fe3 O17 2.164470 1_555
Fe3 O27 2.190975 1_555
Fe4 O3 1.948295 1_554
Fe4 O43 1.968868 1_555
Fe4 O32 1.984016 1_655
Fe4 O12 2.049758 1_655
Fe4 O7 2.078086 1_555
Fe4 O46 2.198136 1_654
Fe5 O9 1.964112 1_545
Fe5 O6 1.982551 1_545
Fe5 O28 1.988820 1_555
Fe5 O34 2.008361 1_555
Fe5 O17 2.089546 1_555
Fe5 O27 2.128895 1_555
Fe6 O2 1.964112 1_565
Fe6 O38 1.982551 1_565
Fe6 O1 1.988820 1_555
Fe6 O31 2.008361 1_555
Fe6 O10 2.089546 1_555
Fe6 O37 2.128895 1_555
Fe7 O24 1.948295 1_556
Fe7 O22 1.968868 1_555
Fe7 O29 1.984016 1_455
Fe7 O42 2.049758 1_455
Fe7 O46 2.078086 1_555
Fe7 O7 2.198136 1_456
O0 P10 1.540539 1_555
O1 P1 1.541999 1_565
O2 P6 1.543776 1_555
O3 P1 1.508838 1_555
O4 P10 1.545331 1_554
O5 P9 1.592113 1_555
O5 P1 1.646527 1_565
O6 P5 1.514300 1_554
O7 P4 1.579215 1_555
O8 P3 1.541308 1_555
O9 P3 1.543776 1_555
O10 P5 1.571123 1_555
O11 P1 1.506915 1_555
O12 P8 1.486836 1_555
O13 P13 1.501381 1_555
O14 P0 1.515053 1_555
O15 P11 1.589492 1_555
O15 P0 1.644430 1_555
O16 P5 1.612001 1_555
O16 P6 1.612061 1_565
O17 P7 1.571123 1_555
O18 P6 1.509624 1_555
O19 P13 1.589492 1_555
O19 P12 1.644430 1_555
O20 P11 1.501381 1_555
O21 P6 1.541308 1_555
O22 P5 1.517109 1_555
O23 P4 1.528652 1_555
O24 P2 1.508838 1_555
O25 P13 1.503664 1_555
O26 P12 1.515053 1_555
O27 P8 1.534440 1_555
O28 P2 1.541999 1_545
O29 P0 1.531378 1_555
O30 P10 1.528652 1_555
O31 P12 1.536903 1_555
O32 P12 1.531378 1_555
O33 P8 1.592113 1_555
O33 P2 1.646527 1_545
O34 P0 1.536903 1_555
O35 P9 1.614227 1_555
O35 P11 1.624761 1_555
O36 P2 1.506915 1_555
O37 P9 1.534440 1_555
O38 P7 1.514300 1_556
O39 P4 1.540539 1_555
O40 P7 1.612001 1_555
O40 P3 1.612061 1_545
O41 P3 1.509624 1_555
O42 P9 1.486836 1_555
O43 P7 1.517109 1_555
O44 P8 1.614227 1_555
O44 P13 1.624761 1_555
O45 P11 1.503664 1_555
O46 P10 1.579215 1_555
O47 P4 1.545331 1_556
