# generated using pymatgen
data_TiBrO
_symmetry_space_group_name_H-M   'P 1'
_cell_length_a   3.38439100
_cell_length_b   7.56566100
_cell_length_c   10.48944489
_cell_angle_alpha   76.45308007
_cell_angle_beta   90.00000000
_cell_angle_gamma   90.00000000
_symmetry_Int_Tables_number   1
_chemical_formula_structural   TiBrO
_chemical_formula_sum   'Ti4 Br4 O4'
_cell_volume   261.11143586
_cell_formula_units_Z   4
loop_
 _symmetry_equiv_pos_site_id
 _symmetry_equiv_pos_as_xyz
  1  'x, y, z'
loop_
 _atom_site_type_symbol
 _atom_site_label
 _atom_site_symmetry_multiplicity
 _atom_site_fract_x
 _atom_site_fract_y
 _atom_site_fract_z
 _atom_site_occupancy
  Ti  Ti0  1  0.00000000  0.31919800  0.73025500  1
  Ti  Ti1  1  0.00000000  0.68080200  0.26974500  1
  Ti  Ti2  1  0.00000000  0.89055700  0.90328300  1
  Ti  Ti3  1  0.00000000  0.10944300  0.09671700  1
  Br  Br0  1  0.00000000  0.97151100  0.34579800  1
  Br  Br1  1  0.00000000  0.59088400  0.83471500  1
  Br  Br2  1  0.00000000  0.40911600  0.16528500  1
  Br  Br3  1  0.00000000  0.02848900  0.65420200  1
  O  O0  1  0.00000000  0.85192400  0.09055800  1
  O  O1  1  0.00000000  0.54374100  0.43700900  1
  O  O2  1  0.00000000  0.45625900  0.56299100  1
  O  O3  1  0.00000000  0.14807600  0.90944200  1
loop_
_geom_bond_atom_site_label_1
_geom_bond_atom_site_label_2
_geom_bond_distance
_geom_bond_site_symmetry_2
Br0 Ti1 2.509141 1_555
Br0 Ti3 2.576429 1_565
Br1 Ti2 2.534079 1_555
Br1 Ti0 2.545737 1_555
Br2 Ti3 2.534079 1_555
Br2 Ti1 2.545737 1_555
Br3 Ti0 2.509141 1_555
Br3 Ti2 2.576429 1_545
O0 Ti2 1.917121 1_554
O0 Ti3 1.964439 1_565
O0 Ti1 2.017154 1_555
O1 Ti1 1.816931 1_555
O2 Ti0 1.816931 1_555
O3 Ti3 1.917121 1_556
O3 Ti2 1.964439 1_545
O3 Ti0 2.017154 1_555
