# generated using pymatgen
data_K3MnH5
_symmetry_space_group_name_H-M   'P 1'
_cell_length_a   7.94311212
_cell_length_b   7.94311212
_cell_length_c   7.94311212
_cell_angle_alpha   122.36360478
_cell_angle_beta   122.36360478
_cell_angle_gamma   85.95265795
_symmetry_Int_Tables_number   1
_chemical_formula_structural   K3MnH5
_chemical_formula_sum   'K6 Mn2 H10'
_cell_volume   340.78342965
_cell_formula_units_Z   2
loop_
 _symmetry_equiv_pos_site_id
 _symmetry_equiv_pos_as_xyz
  1  'x, y, z'
loop_
 _atom_site_type_symbol
 _atom_site_label
 _atom_site_symmetry_multiplicity
 _atom_site_fract_x
 _atom_site_fract_y
 _atom_site_fract_z
 _atom_site_occupancy
  K  K0  1  0.18634600  0.68634600  0.87269100  1
  K  K1  1  0.81365400  0.31365400  0.12730900  1
  K  K2  1  0.68634600  0.81365400  0.50000000  1
  K  K3  1  0.31365400  0.18634600  0.50000000  1
  K  K4  1  0.25000000  0.25000000  0.00000000  1
  K  K5  1  0.75000000  0.75000000  0.00000000  1
  Mn  Mn0  1  0.25000000  0.75000000  0.50000000  1
  Mn  Mn1  1  0.75000000  0.25000000  0.50000000  1
  H  H0  1  0.46963800  0.96963800  0.75493800  1
  H  H1  1  0.21470000  0.71470000  0.24506200  1
  H  H2  1  0.96963800  0.21470000  0.50000000  1
  H  H3  1  0.71470000  0.46963800  0.50000000  1
  H  H4  1  0.53036200  0.03036200  0.24506200  1
  H  H5  1  0.78530000  0.28530000  0.75493800  1
  H  H6  1  0.03036200  0.78530000  0.50000000  1
  H  H7  1  0.28530000  0.53036200  0.50000000  1
  H  H8  1  0.50000000  0.50000000  0.00000000  1
  H  H9  1  0.00000000  0.00000000  0.00000000  1
loop_
_geom_bond_atom_site_label_1
_geom_bond_atom_site_label_2
_geom_bond_distance
_geom_bond_site_symmetry_2
H0 Mn0 1.747349 1_555
H0 K1 2.725935 1_566
H1 Mn0 1.747349 1_555
H1 K0 2.725943 1_554
H2 Mn1 1.747349 1_555
H2 K3 2.725935 1_655
H3 Mn1 1.747349 1_555
H3 K2 2.725935 1_555
H4 Mn1 1.747349 1_555
H4 K0 2.725935 1_544
H5 Mn1 1.747349 1_555
H5 K1 2.725943 1_556
H6 Mn0 1.747349 1_555
H6 K2 2.725935 1_455
H7 Mn0 1.747349 1_555
H7 K3 2.725935 1_555
H8 K2 2.793776 1_555
H8 K3 2.793776 1_554
H8 K1 2.793777 1_555
H8 K0 2.793777 1_554
H8 K4 2.905731 1_555
H8 K5 2.905731 1_555
H9 K2 2.793776 1_444
H9 K3 2.793776 1_555
H9 K0 2.793777 1_544
H9 K1 2.793777 1_455
H9 K4 2.905731 1_555
H9 K5 2.905731 1_445
