# generated using pymatgen
data_FeSNO
_symmetry_space_group_name_H-M   'P 1'
_cell_length_a   10.43503900
_cell_length_b   11.21700400
_cell_length_c   15.29255335
_cell_angle_alpha   58.19865375
_cell_angle_beta   90.00000000
_cell_angle_gamma   90.00000000
_symmetry_Int_Tables_number   1
_chemical_formula_structural   FeSNO
_chemical_formula_sum   'Fe16 S16 N16 O16'
_cell_volume   1521.27848704
_cell_formula_units_Z   16
loop_
 _symmetry_equiv_pos_site_id
 _symmetry_equiv_pos_as_xyz
  1  'x, y, z'
loop_
 _atom_site_type_symbol
 _atom_site_label
 _atom_site_symmetry_multiplicity
 _atom_site_fract_x
 _atom_site_fract_y
 _atom_site_fract_z
 _atom_site_occupancy
  Fe  Fe0  1  0.08605400  0.21605500  0.54418600  1
  Fe  Fe1  1  0.65096700  0.75266200  0.38578200  1
  Fe  Fe2  1  0.81983700  0.72877100  0.09154800  1
  Fe  Fe3  1  0.68016300  0.72877100  0.59154800  1
  Fe  Fe4  1  0.91394600  0.78394500  0.45581400  1
  Fe  Fe5  1  0.21244400  0.98961500  0.10650600  1
  Fe  Fe6  1  0.84903300  0.75266200  0.88578200  1
  Fe  Fe7  1  0.58605400  0.78394500  0.95581400  1
  Fe  Fe8  1  0.41394600  0.21605500  0.04418600  1
  Fe  Fe9  1  0.71244400  0.01038500  0.39349400  1
  Fe  Fe10  1  0.15096700  0.24733800  0.11421800  1
  Fe  Fe11  1  0.18016300  0.27122900  0.90845200  1
  Fe  Fe12  1  0.34903300  0.24733800  0.61421800  1
  Fe  Fe13  1  0.31983700  0.27122900  0.40845200  1
  Fe  Fe14  1  0.78755600  0.01038500  0.89349400  1
  Fe  Fe15  1  0.28755600  0.98961500  0.60650600  1
  S  S0  1  0.22841500  0.41160700  0.46704600  1
  S  S1  1  0.30956600  0.07336200  0.20567300  1
  S  S2  1  0.65484500  0.89782200  0.04243300  1
  S  S3  1  0.27158500  0.41160700  0.96704600  1
  S  S4  1  0.15484500  0.10217800  0.45756700  1
  S  S5  1  0.03040500  0.13897300  0.04285300  1
  S  S6  1  0.72841500  0.58839300  0.03295400  1
  S  S7  1  0.96959500  0.86102700  0.95714700  1
  S  S8  1  0.80956600  0.92663800  0.29432700  1
  S  S9  1  0.77158500  0.58839300  0.53295400  1
  S  S10  1  0.69043400  0.92663800  0.79432700  1
  S  S11  1  0.34515500  0.10217800  0.95756700  1
  S  S12  1  0.84515500  0.89782200  0.54243300  1
  S  S13  1  0.19043400  0.07336200  0.70567300  1
  S  S14  1  0.53040500  0.86102700  0.45714700  1
  S  S15  1  0.46959500  0.13897300  0.54285300  1
  N  N0  1  0.41730300  0.75605000  0.95552600  1
  N  N1  1  0.69797600  0.19643800  0.33380000  1
  N  N2  1  0.62703800  0.63377500  0.72231500  1
  N  N3  1  0.87296200  0.63377500  0.22231500  1
  N  N4  1  0.56078100  0.68223200  0.32371500  1
  N  N5  1  0.93921900  0.68223200  0.82371500  1
  N  N6  1  0.30202400  0.80356200  0.66620000  1
  N  N7  1  0.19797600  0.80356200  0.16620000  1
  N  N8  1  0.80202400  0.19643800  0.83380000  1
  N  N9  1  0.91730300  0.24395000  0.54447400  1
  N  N10  1  0.43921900  0.31776800  0.67628500  1
  N  N11  1  0.12703800  0.36622500  0.77768500  1
  N  N12  1  0.08269700  0.75605000  0.45552600  1
  N  N13  1  0.06078100  0.31776800  0.17628500  1
  N  N14  1  0.58269700  0.24395000  0.04447400  1
  N  N15  1  0.37296200  0.36622500  0.27768500  1
  O  O0  1  0.19403200  0.68182800  0.19971700  1
  O  O1  1  0.90771700  0.56845200  0.30883100  1
  O  O2  1  0.99840800  0.63160900  0.78571900  1
  O  O3  1  0.69403200  0.31817200  0.30028300  1
  O  O4  1  0.50159200  0.63160900  0.28571900  1
  O  O5  1  0.69458400  0.25846400  0.04498900  1
  O  O6  1  0.30596800  0.68182800  0.69971700  1
  O  O7  1  0.80596800  0.31817200  0.80028300  1
  O  O8  1  0.40771700  0.43154800  0.19116900  1
  O  O9  1  0.59228300  0.56845200  0.80883100  1
  O  O10  1  0.19458400  0.74153600  0.45501100  1
  O  O11  1  0.30541600  0.74153600  0.95501100  1
  O  O12  1  0.80541600  0.25846400  0.54498900  1
  O  O13  1  0.49840800  0.36839100  0.71428100  1
  O  O14  1  0.00159200  0.36839100  0.21428100  1
  O  O15  1  0.09228300  0.43154800  0.69116900  1
loop_
_geom_bond_atom_site_label_1
_geom_bond_atom_site_label_2
_geom_bond_distance
_geom_bond_site_symmetry_2
Fe0 N9 1.788918 1_455
Fe0 S13 2.383473 1_555
Fe0 S0 2.383844 1_555
Fe0 S4 2.384298 1_555
Fe1 N4 1.789133 1_555
Fe1 S8 2.372078 1_555
Fe1 S14 2.376857 1_555
Fe1 S9 2.382014 1_555
Fe2 N3 1.787722 1_555
Fe2 S2 2.371294 1_555
Fe2 S7 2.377755 1_554
Fe2 S6 2.383171 1_555
Fe3 N2 1.787722 1_555
Fe3 S12 2.371294 1_555
Fe3 S14 2.377755 1_555
Fe3 S9 2.383171 1_555
Fe4 N12 1.788918 1_655
Fe4 S8 2.383473 1_555
Fe4 S9 2.383844 1_555
Fe4 S12 2.384298 1_555
Fe5 N7 1.789863 1_555
Fe5 S5 2.375701 1_565
Fe5 S11 2.380915 1_564
Fe5 S1 2.389741 1_565
Fe6 N5 1.789133 1_555
Fe6 S10 2.372078 1_555
Fe6 S7 2.376857 1_555
Fe6 S6 2.382014 1_556
Fe7 N0 1.788918 1_555
Fe7 S10 2.383473 1_555
Fe7 S6 2.383844 1_556
Fe7 S2 2.384298 1_556
Fe8 N14 1.788918 1_555
Fe8 S1 2.383473 1_555
Fe8 S3 2.383844 1_554
Fe8 S11 2.384298 1_554
Fe9 N1 1.789863 1_555
Fe9 S14 2.375701 1_545
Fe9 S12 2.380915 1_545
Fe9 S8 2.389741 1_545
Fe10 N13 1.789133 1_555
Fe10 S1 2.372078 1_555
Fe10 S5 2.376857 1_555
Fe10 S3 2.382014 1_554
Fe11 N11 1.787722 1_555
Fe11 S11 2.371294 1_555
Fe11 S5 2.377755 1_556
Fe11 S3 2.383171 1_555
Fe12 N10 1.789133 1_555
Fe12 S13 2.372078 1_555
Fe12 S15 2.376857 1_555
Fe12 S0 2.382014 1_555
Fe13 N15 1.787722 1_555
Fe13 S4 2.371294 1_555
Fe13 S15 2.377755 1_555
Fe13 S0 2.383171 1_555
Fe14 N8 1.789863 1_555
Fe14 S7 2.375701 1_545
Fe14 S2 2.380915 1_546
Fe14 S10 2.389741 1_545
Fe15 N6 1.789863 1_555
Fe15 S15 2.375701 1_565
Fe15 S4 2.380915 1_565
Fe15 S13 2.389741 1_565
N0 O11 1.179441 1_555
N1 O3 1.179542 1_555
N2 O9 1.182008 1_555
N3 O1 1.182008 1_555
N4 O4 1.178682 1_555
N5 O2 1.178682 1_555
N6 O6 1.179542 1_555
N7 O0 1.179542 1_555
N8 O7 1.179542 1_555
N9 O12 1.179441 1_555
N10 O13 1.178682 1_555
N11 O15 1.182008 1_555
N12 O10 1.179441 1_555
N13 O14 1.178682 1_555
N14 O5 1.179441 1_555
N15 O8 1.182008 1_555
