# generated using pymatgen
data_CaReBi
_symmetry_space_group_name_H-M   'P 1'
_cell_length_a   4.77769849
_cell_length_b   4.77769849
_cell_length_c   4.77769849
_cell_angle_alpha   60.00000000
_cell_angle_beta   60.00000000
_cell_angle_gamma   60.00000000
_symmetry_Int_Tables_number   1
_chemical_formula_structural   CaReBi
_chemical_formula_sum   'Ca1 Re1 Bi1'
_cell_volume   77.11541829
_cell_formula_units_Z   1
loop_
 _symmetry_equiv_pos_site_id
 _symmetry_equiv_pos_as_xyz
  1  'x, y, z'
loop_
 _atom_site_type_symbol
 _atom_site_label
 _atom_site_symmetry_multiplicity
 _atom_site_fract_x
 _atom_site_fract_y
 _atom_site_fract_z
 _atom_site_occupancy
  Ca  Ca0  1  0.50000000  0.50000000  0.50000000  1
  Re  Re0  1  0.25000000  0.25000000  0.25000000  1
  Bi  Bi0  1  0.00000000  0.00000000  0.00000000  1
loop_
_geom_bond_atom_site_label_1
_geom_bond_atom_site_label_2
_geom_bond_distance
_geom_bond_site_symmetry_2
Ca0 Re0 2.925731 1_565
Ca0 Re0 2.925731 1_655
Ca0 Re0 2.925731 1_556
Ca0 Re0 2.925731 1_555
Bi0 Re0 2.925731 1_545
Bi0 Re0 2.925731 1_455
Bi0 Re0 2.925731 1_554
Bi0 Re0 2.925731 1_555
Bi0 Ca0 3.378343 1_454
Bi0 Ca0 3.378343 1_445
Bi0 Ca0 3.378343 1_545
Bi0 Ca0 3.378343 1_544
Bi0 Ca0 3.378343 1_554
Bi0 Ca0 3.378343 1_455
