# generated using pymatgen
data_NaZnSiHO4
_symmetry_space_group_name_H-M   'P 1'
_cell_length_a   5.22454800
_cell_length_b   7.76076300
_cell_length_c   9.49642600
_cell_angle_alpha   90.00000000
_cell_angle_beta   90.00000000
_cell_angle_gamma   90.00000000
_symmetry_Int_Tables_number   1
_chemical_formula_structural   NaZnSiHO4
_chemical_formula_sum   'Na4 Zn4 Si4 H4 O16'
_cell_volume   385.04663558
_cell_formula_units_Z   4
loop_
 _symmetry_equiv_pos_site_id
 _symmetry_equiv_pos_as_xyz
  1  'x, y, z'
loop_
 _atom_site_type_symbol
 _atom_site_label
 _atom_site_symmetry_multiplicity
 _atom_site_fract_x
 _atom_site_fract_y
 _atom_site_fract_z
 _atom_site_occupancy
  Na  Na0  1  0.02440200  0.20524200  0.33387600  1
  Na  Na1  1  0.52440200  0.29475800  0.66612400  1
  Na  Na2  1  0.97559800  0.70524200  0.16612400  1
  Na  Na3  1  0.47559800  0.79475800  0.83387600  1
  Zn  Zn0  1  0.47835600  0.88949400  0.48884700  1
  Zn  Zn1  1  0.97835600  0.61050600  0.51115300  1
  Zn  Zn2  1  0.52164400  0.38949400  0.01115300  1
  Zn  Zn3  1  0.02164400  0.11050600  0.98884700  1
  Si  Si0  1  0.51145100  0.01543000  0.16148100  1
  Si  Si1  1  0.01145100  0.48457000  0.83851900  1
  Si  Si2  1  0.48854900  0.51543000  0.33851900  1
  Si  Si3  1  0.98854900  0.98457000  0.66148100  1
  H  H0  1  0.97363400  0.78013200  0.87494400  1
  H  H1  1  0.47363400  0.71986800  0.12505600  1
  H  H2  1  0.02636600  0.28013200  0.62505600  1
  H  H3  1  0.52636600  0.21986800  0.37494400  1
  O  O0  1  0.82334100  0.01936000  0.14895500  1
  O  O1  1  0.32334100  0.48064000  0.85104500  1
  O  O2  1  0.17665900  0.51936000  0.35104500  1
  O  O3  1  0.67665900  0.98064000  0.64895500  1
  O  O4  1  0.42279400  0.04035500  0.32641100  1
  O  O5  1  0.92279400  0.45964500  0.67358900  1
  O  O6  1  0.57720600  0.54035500  0.17358900  1
  O  O7  1  0.07720600  0.95964500  0.82641100  1
  O  O8  1  0.63350500  0.66766500  0.43020200  1
  O  O9  1  0.13350500  0.83233500  0.56979800  1
  O  O10  1  0.36649500  0.16766500  0.06979800  1
  O  O11  1  0.86649500  0.33233500  0.93020200  1
  O  O12  1  0.60751900  0.33324200  0.40706500  1
  O  O13  1  0.10751900  0.16675800  0.59293500  1
  O  O14  1  0.39248100  0.83324200  0.09293500  1
  O  O15  1  0.89248100  0.66675800  0.90706500  1
loop_
_geom_bond_atom_site_label_1
_geom_bond_atom_site_label_2
_geom_bond_distance
_geom_bond_site_symmetry_2
Na0 O4 2.444346 1_555
Na0 O12 2.492722 1_455
Na0 O0 2.503668 1_455
Na0 O13 2.515956 1_555
Na0 O2 2.569476 1_555
Na1 O5 2.444346 1_555
Na1 O13 2.492722 1_555
Na1 O1 2.503668 1_555
Na1 O12 2.515956 1_555
Na1 O3 2.569476 1_545
Na2 O6 2.444346 1_555
Na2 O14 2.492722 1_655
Na2 O2 2.503668 1_655
Na2 O15 2.515956 1_554
Na2 O0 2.569476 1_565
Na3 O7 2.444346 1_555
Na3 O15 2.492722 1_555
Na3 O3 2.503668 1_555
Na3 O14 2.515956 1_556
Na3 O1 2.569476 1_555
H0 O15 1.023221 1_555
H0 O7 1.564006 1_655
H1 O14 1.023221 1_555
H1 O6 1.564006 1_555
H2 O13 1.023221 1_555
H2 O5 1.564006 1_455
H3 O12 1.023221 1_555
H3 O4 1.564006 1_555
O0 Si0 1.634105 1_555
O0 Zn3 1.971174 1_654
O1 Si1 1.634105 1_555
O1 Zn2 1.971174 1_556
O2 Si2 1.634105 1_555
O2 Zn1 1.971174 1_455
O3 Si3 1.634105 1_555
O3 Zn0 1.971174 1_555
O4 Si0 1.644716 1_555
O4 Zn0 1.958195 1_545
O5 Si1 1.644716 1_655
O5 Zn1 1.958195 1_555
O6 Si2 1.644716 1_555
O6 Zn2 1.958195 1_555
O7 Si3 1.644716 1_455
O7 Zn3 1.958195 1_565
O8 Si2 1.651498 1_555
O8 Zn0 1.982670 1_555
O8 Zn1 2.008441 1_555
O9 Si3 1.651498 1_455
O9 Zn1 1.982670 1_455
O9 Zn0 2.008441 1_555
O10 Si0 1.651498 1_555
O10 Zn2 1.982670 1_555
O10 Zn3 2.008441 1_554
O11 Si1 1.651498 1_655
O11 Zn3 1.982670 1_655
O11 Zn2 2.008441 1_556
O12 Si2 1.676076 1_555
O13 Si3 1.676076 1_445
O14 Si0 1.676076 1_565
O15 Si1 1.676076 1_655
