# generated using pymatgen
data_Ba3Pb5
_symmetry_space_group_name_H-M   'P 1'
_cell_length_a   7.31282284
_cell_length_b   7.31282399
_cell_length_c   11.50537272
_cell_angle_alpha   90.00000000
_cell_angle_beta   90.00000000
_cell_angle_gamma   101.36374457
_symmetry_Int_Tables_number   1
_chemical_formula_structural   Ba3Pb5
_chemical_formula_sum   'Ba6 Pb10'
_cell_volume   603.21539693
_cell_formula_units_Z   2
loop_
 _symmetry_equiv_pos_site_id
 _symmetry_equiv_pos_as_xyz
  1  'x, y, z'
loop_
 _atom_site_type_symbol
 _atom_site_label
 _atom_site_symmetry_multiplicity
 _atom_site_fract_x
 _atom_site_fract_y
 _atom_site_fract_z
 _atom_site_occupancy
  Ba  Ba0  1  0.86000867  0.86000867  0.75000000  1
  Ba  Ba1  1  0.70663479  0.29336521  0.50000000  1
  Ba  Ba2  1  0.29336521  0.70663479  0.50000000  1
  Ba  Ba3  1  0.29336521  0.70663479  -0.00000000  1
  Ba  Ba4  1  0.13999133  0.13999133  0.25000000  1
  Ba  Ba5  1  0.70663479  0.29336521  -0.00000000  1
  Pb  Pb0  1  0.41174569  0.01488021  0.75000000  1
  Pb  Pb1  1  0.98511979  0.58825431  0.25000000  1
  Pb  Pb2  1  0.19629684  0.19629684  0.55573394  1
  Pb  Pb3  1  0.19629684  0.19629684  0.94426606  1
  Pb  Pb4  1  0.54449020  0.54449020  0.25000000  1
  Pb  Pb5  1  0.80370316  0.80370316  0.44426606  1
  Pb  Pb6  1  0.45550980  0.45550980  0.75000000  1
  Pb  Pb7  1  0.58825431  0.98511979  0.25000000  1
  Pb  Pb8  1  0.01488021  0.41174569  0.75000000  1
  Pb  Pb9  1  0.80370316  0.80370316  0.05573394  1
loop_
_geom_bond_atom_site_label_1
_geom_bond_atom_site_label_2
_geom_bond_distance
_geom_bond_site_symmetry_2
Ba0 Pb5 3.556073 1_555
Ba0 Pb9 3.556073 1_556
Ba0 Pb0 3.673067 1_565
Ba0 Pb8 3.673067 1_655
Ba0 Pb6 3.748566 1_555
Ba0 Pb2 3.835090 1_665
Ba0 Pb3 3.835090 1_665
Ba0 Pb0 3.970034 1_665
Ba0 Pb8 3.970035 1_665
Ba1 Pb8 3.651705 1_655
Ba1 Pb7 3.651705 1_545
Ba1 Pb2 3.714702 1_555
Ba1 Pb5 3.714703 1_555
Ba1 Pb6 3.729599 1_555
Ba1 Pb4 3.729599 1_555
Ba1 Pb2 3.839133 1_655
Ba1 Pb5 3.839134 1_545
Ba1 Pb0 3.916689 1_555
Ba1 Pb1 3.916689 1_555
Ba2 Pb1 3.651705 1_455
Ba2 Pb0 3.651705 1_565
Ba2 Pb5 3.714702 1_555
Ba2 Pb2 3.714703 1_555
Ba2 Pb4 3.729599 1_555
Ba2 Pb6 3.729599 1_555
Ba2 Pb5 3.839133 1_455
Ba2 Pb2 3.839134 1_565
Ba2 Pb7 3.916689 1_555
Ba2 Pb8 3.916689 1_555
Ba3 Pb1 3.651705 1_455
Ba3 Pb0 3.651705 1_564
Ba3 Pb9 3.714702 1_555
Ba3 Pb3 3.714703 1_554
Ba3 Pb4 3.729599 1_555
Ba3 Pb6 3.729599 1_554
Ba3 Pb9 3.839133 1_455
Ba3 Pb3 3.839134 1_564
Ba3 Pb7 3.916689 1_555
Ba3 Pb8 3.916689 1_554
Ba4 Pb2 3.556073 1_555
Ba4 Pb3 3.556073 1_554
Ba4 Pb7 3.673067 1_545
Ba4 Pb1 3.673067 1_455
Ba4 Pb4 3.748566 1_555
Ba4 Pb9 3.835090 1_445
Ba4 Pb5 3.835090 1_445
Ba4 Pb7 3.970034 1_445
Ba4 Pb1 3.970035 1_445
Ba5 Pb8 3.651705 1_654
Ba5 Pb7 3.651705 1_545
Ba5 Pb3 3.714702 1_554
Ba5 Pb9 3.714703 1_555
Ba5 Pb6 3.729599 1_554
Ba5 Pb4 3.729599 1_555
Ba5 Pb3 3.839133 1_654
Ba5 Pb9 3.839134 1_545
Ba5 Pb0 3.916689 1_554
Ba5 Pb1 3.916689 1_555
Pb0 Pb3 3.172028 1_555
Pb0 Pb2 3.172028 1_555
Pb0 Pb6 3.174730 1_555
Pb1 Pb9 3.172028 1_555
Pb1 Pb5 3.172028 1_555
Pb1 Pb4 3.174730 1_555
Pb2 Pb8 3.172028 1_555
Pb2 Pb6 3.281178 1_555
Pb3 Pb8 3.172028 1_555
Pb3 Pb6 3.281178 1_555
Pb4 Pb7 3.174730 1_555
Pb4 Pb5 3.281178 1_555
Pb4 Pb9 3.281178 1_555
Pb5 Pb7 3.172028 1_555
Pb6 Pb8 3.174730 1_555
Pb7 Pb9 3.172028 1_555
