# generated using pymatgen
data_Li7P3S11
_symmetry_space_group_name_H-M   'P 1'
_cell_length_a   6.18883800
_cell_length_b   12.62787574
_cell_length_c   12.67313285
_cell_angle_alpha   107.48331704
_cell_angle_beta   103.55243778
_cell_angle_gamma   101.86041383
_symmetry_Int_Tables_number   1
_chemical_formula_structural   Li7P3S11
_chemical_formula_sum   'Li14 P6 S22'
_cell_volume   876.76726455
_cell_formula_units_Z   2
loop_
 _symmetry_equiv_pos_site_id
 _symmetry_equiv_pos_as_xyz
  1  'x, y, z'
loop_
 _atom_site_type_symbol
 _atom_site_label
 _atom_site_symmetry_multiplicity
 _atom_site_fract_x
 _atom_site_fract_y
 _atom_site_fract_z
 _atom_site_occupancy
  Li  Li0  1  0.73546800  0.66833100  0.10393200  1
  Li  Li1  1  0.21349700  0.03562700  0.75422200  1
  Li  Li2  1  0.62351800  0.34317400  0.50770200  1
  Li  Li3  1  0.57664800  0.86468200  0.87873100  1
  Li  Li4  1  0.69638800  0.17870000  0.70547200  1
  Li  Li5  1  0.30361200  0.82130000  0.29452800  1
  Li  Li6  1  0.78650300  0.96437300  0.24577800  1
  Li  Li7  1  0.86272100  0.38272500  0.11284100  1
  Li  Li8  1  0.98591100  0.68099700  0.67998500  1
  Li  Li9  1  0.13727900  0.61727500  0.88715900  1
  Li  Li10  1  0.26453200  0.33166900  0.89606800  1
  Li  Li11  1  0.42335200  0.13531800  0.12126900  1
  Li  Li12  1  0.37648200  0.65682600  0.49229800  1
  Li  Li13  1  0.01408900  0.31900300  0.32001500  1
  P  P0  1  0.51184900  0.47554800  0.27764000  1
  P  P1  1  0.83047100  0.78849000  0.45443000  1
  P  P2  1  0.87665600  0.16711400  0.94396700  1
  P  P3  1  0.12334400  0.83288600  0.05603300  1
  P  P4  1  0.48815100  0.52445200  0.72236000  1
  P  P5  1  0.16952900  0.21151000  0.54557000  1
  S  S0  1  0.90785000  0.81641300  0.31716500  1
  S  S1  1  0.20378200  0.50207900  0.29503100  1
  S  S2  1  0.78096200  0.60430900  0.43124300  1
  S  S3  1  0.44399800  0.15975300  0.51698700  1
  S  S4  1  0.56179800  0.48163200  0.12777000  1
  S  S5  1  0.43820200  0.51836800  0.87223000  1
  S  S6  1  0.55600200  0.84024700  0.48301300  1
  S  S7  1  0.10539600  0.83675200  0.60133600  1
  S  S8  1  0.36384400  0.97120800  0.19645000  1
  S  S9  1  0.20547200  0.15431600  0.94867200  1
  S  S10  1  0.57051900  0.33136800  0.30713000  1
  S  S11  1  0.89460400  0.16324800  0.39866400  1
  S  S12  1  0.21903800  0.39569100  0.56875700  1
  S  S13  1  0.82768700  0.17665700  0.10104800  1
  S  S14  1  0.63615600  0.02879200  0.80355000  1
  S  S15  1  0.79452800  0.84568400  0.05132800  1
  S  S16  1  0.09215000  0.18358700  0.68283500  1
  S  S17  1  0.85534400  0.31711400  0.91260400  1
  S  S18  1  0.79621800  0.49792100  0.70496900  1
  S  S19  1  0.42948100  0.66863200  0.69287000  1
  S  S20  1  0.17231300  0.82334300  0.89895200  1
  S  S21  1  0.14465600  0.68288600  0.08739600  1
loop_
_geom_bond_atom_site_label_1
_geom_bond_atom_site_label_2
_geom_bond_distance
_geom_bond_site_symmetry_2
Li0 S15 2.503721 1_555
Li0 S4 2.518600 1_555
Li0 S21 2.563450 1_655
Li0 S0 2.594229 1_555
Li0 S5 2.878898 1_554
Li1 S16 2.479413 1_555
Li1 S9 2.488029 1_555
Li1 S7 2.507346 1_545
Li1 S14 2.568918 1_555
Li2 S3 2.404228 1_555
Li2 S10 2.439753 1_555
Li2 S18 2.482888 1_555
Li2 S12 2.930303 1_555
Li3 S15 2.392953 1_556
Li3 S14 2.524920 1_565
Li3 S20 2.538497 1_555
Li3 S19 2.659058 1_555
Li4 S3 2.440749 1_555
Li4 S17 2.497919 1_555
Li4 S16 2.522506 1_655
Li4 S14 2.570658 1_555
Li5 S6 2.440749 1_555
Li5 S21 2.497919 1_555
Li5 S0 2.522506 1_455
Li5 S8 2.570658 1_555
Li6 S0 2.479413 1_555
Li6 S15 2.488029 1_555
Li6 S11 2.507346 1_565
Li6 S8 2.568918 1_555
Li7 S17 2.407273 1_554
Li7 S4 2.458344 1_555
Li7 S13 2.521906 1_555
Li7 S1 2.524934 1_655
Li8 S18 2.514274 1_555
Li8 S7 2.516807 1_655
Li8 S20 2.629194 1_655
Li8 S19 2.751091 1_655
Li8 S2 2.875896 1_555
Li9 S21 2.407273 1_556
Li9 S5 2.458344 1_555
Li9 S20 2.521906 1_555
Li9 S18 2.524934 1_455
Li10 S9 2.503721 1_555
Li10 S5 2.518600 1_555
Li10 S17 2.563450 1_455
Li10 S16 2.594229 1_555
Li10 S4 2.878898 1_556
Li11 S9 2.392953 1_554
Li11 S8 2.524920 1_545
Li11 S13 2.538497 1_555
Li11 S10 2.659058 1_555
Li12 S6 2.404228 1_555
Li12 S19 2.439753 1_555
Li12 S1 2.482888 1_555
Li12 S2 2.930303 1_555
Li13 S1 2.514274 1_555
Li13 S11 2.516807 1_455
Li13 S13 2.629194 1_455
Li13 S10 2.751091 1_455
Li13 S12 2.875896 1_555
P0 S4 2.015434 1_555
P0 S10 2.050223 1_555
P0 S1 2.052070 1_555
P0 S2 2.161618 1_555
P1 S6 2.011530 1_555
P1 S0 2.017269 1_555
P1 S7 2.034684 1_655
P1 S2 2.200878 1_555
P2 S13 2.054972 1_556
P2 S9 2.062756 1_655
P2 S14 2.062864 1_555
P2 S17 2.072148 1_555
P3 S20 2.054972 1_554
P3 S15 2.062756 1_455
P3 S8 2.062864 1_555
P3 S21 2.072148 1_555
P4 S5 2.015434 1_555
P4 S19 2.050223 1_555
P4 S18 2.052070 1_555
P4 S12 2.161618 1_555
P5 S3 2.011530 1_555
P5 S16 2.017269 1_555
P5 S11 2.034684 1_455
P5 S12 2.200878 1_555
