# generated using pymatgen
data_RbLiSO4
_symmetry_space_group_name_H-M   'P 1'
_cell_length_a   5.24518981
_cell_length_b   8.69061981
_cell_length_c   9.01933054
_cell_angle_alpha   90.00000000
_cell_angle_beta   90.36024907
_cell_angle_gamma   90.00000000
_symmetry_Int_Tables_number   1
_chemical_formula_structural   RbLiSO4
_chemical_formula_sum   'Rb4 Li4 S4 O16'
_cell_volume   411.12859003
_cell_formula_units_Z   4
loop_
 _symmetry_equiv_pos_site_id
 _symmetry_equiv_pos_as_xyz
  1  'x, y, z'
loop_
 _atom_site_type_symbol
 _atom_site_label
 _atom_site_symmetry_multiplicity
 _atom_site_fract_x
 _atom_site_fract_y
 _atom_site_fract_z
 _atom_site_occupancy
  Rb  Rb0  1  0.23236388  0.50559554  0.22930104  1
  Rb  Rb1  1  0.26763612  0.00559554  0.27069896  1
  Rb  Rb2  1  0.76763612  0.49440446  0.77069896  1
  Rb  Rb3  1  0.73236388  0.99440446  0.72930104  1
  Li  Li0  1  0.25789537  0.67961304  0.59057581  1
  Li  Li1  1  0.75789537  0.82038696  0.09057581  1
  Li  Li2  1  0.74210463  0.32038696  0.40942419  1
  Li  Li3  1  0.24210463  0.17961304  0.90942419  1
  S  S0  1  0.75392375  0.70578200  0.42403701  1
  S  S1  1  0.74607625  0.20578200  0.07596299  1
  S  S2  1  0.24607625  0.29421800  0.57596299  1
  S  S3  1  0.25392375  0.79421800  0.92403701  1
  O  O0  1  0.91909130  0.74817713  0.55062876  1
  O  O1  1  0.41909130  0.75182287  0.05062876  1
  O  O2  1  0.08090870  0.25182287  0.44937124  1
  O  O3  1  0.58090870  0.24817713  0.94937124  1
  O  O4  1  0.85904338  0.77238455  0.28759432  1
  O  O5  1  0.64095662  0.27238455  0.21240568  1
  O  O6  1  0.14095662  0.22761545  0.71240568  1
  O  O7  1  0.35904338  0.72761545  0.78759432  1
  O  O8  1  0.24379301  0.96226313  0.90974304  1
  O  O9  1  0.25620699  0.46226313  0.59025696  1
  O  O10  1  0.75620699  0.03773687  0.09025696  1
  O  O11  1  0.74379301  0.53773687  0.40974304  1
  O  O12  1  -0.00524009  0.73414413  0.94986528  1
  O  O13  1  0.50524009  0.23414413  0.55013472  1
  O  O14  1  0.00524009  0.26585587  0.05013472  1
  O  O15  1  0.49475991  0.76585587  0.44986528  1
loop_
_geom_bond_atom_site_label_1
_geom_bond_atom_site_label_2
_geom_bond_distance
_geom_bond_site_symmetry_2
Li0 O9 1.888928 1_555
Li0 O7 1.897706 1_555
Li0 O0 1.906534 1_455
Li0 O15 1.932820 1_555
Li1 O10 1.888928 1_565
Li1 O4 1.897706 1_555
Li1 O1 1.906534 1_555
Li1 O12 1.932820 1_654
Li2 O11 1.888928 1_555
Li2 O5 1.897706 1_555
Li2 O2 1.906534 1_655
Li2 O13 1.932820 1_555
Li3 O8 1.888928 1_545
Li3 O6 1.897706 1_555
Li3 O3 1.906534 1_555
Li3 O14 1.932820 1_556
O0 S0 1.475632 1_555
O0 Rb3 2.855713 1_555
O0 Rb2 3.074844 1_555
O1 S3 1.475632 1_554
O1 Rb0 2.855713 1_555
O1 Rb1 3.074844 1_565
O2 S2 1.475632 1_555
O2 Rb1 2.855713 1_555
O2 Rb0 3.074844 1_555
O3 S1 1.475632 1_556
O3 Rb2 2.855713 1_555
O3 Rb3 3.074844 1_545
O4 S0 1.470375 1_555
O4 Rb1 2.954338 1_665
O4 Rb0 3.082111 1_655
O5 S1 1.470375 1_555
O5 Rb0 2.954338 1_555
O5 Rb1 3.082111 1_555
O6 S2 1.470375 1_555
O6 Rb3 2.954338 1_445
O6 Rb2 3.082111 1_455
O7 S3 1.470375 1_555
O7 Rb2 2.954338 1_555
O7 Rb3 3.082111 1_555
O8 S3 1.467029 1_555
O8 Rb3 3.057168 1_555
O8 Rb3 3.141307 1_455
O8 Rb1 3.278894 1_566
O9 S2 1.467029 1_555
O9 Rb2 3.057168 1_455
O9 Rb2 3.141307 1_555
O9 Rb0 3.278894 1_555
O10 S1 1.467029 1_555
O10 Rb1 3.057168 1_555
O10 Rb1 3.141307 1_655
O10 Rb3 3.278894 1_544
O11 S0 1.467029 1_555
O11 Rb0 3.057168 1_655
O11 Rb0 3.141307 1_555
O11 Rb2 3.278894 1_555
O12 S3 1.476037 1_555
O12 Rb2 2.889160 1_455
O12 Rb3 3.306531 1_455
O12 Rb0 3.436691 1_556
O13 S2 1.476037 1_555
O13 Rb3 2.889160 1_545
O13 Rb2 3.306531 1_555
O13 Rb1 3.436691 1_555
O14 S1 1.476037 1_455
O14 Rb0 2.889160 1_555
O14 Rb1 3.306531 1_555
O14 Rb2 3.436691 1_454
O15 S0 1.476037 1_555
O15 Rb1 2.889160 1_565
O15 Rb0 3.306531 1_555
O15 Rb3 3.436691 1_555
