# generated using pymatgen
data_Lu2FeS4
_symmetry_space_group_name_H-M   'P 1'
_cell_length_a   7.68211020
_cell_length_b   7.56059606
_cell_length_c   37.61642062
_cell_angle_alpha   60.07302841
_cell_angle_beta   60.40238393
_cell_angle_gamma   60.68592034
_symmetry_Int_Tables_number   1
_chemical_formula_structural   Lu2FeS4
_chemical_formula_sum   'Lu20 Fe10 S40'
_cell_volume   1558.33269831
_cell_formula_units_Z   10
loop_
 _symmetry_equiv_pos_site_id
 _symmetry_equiv_pos_as_xyz
  1  'x, y, z'
loop_
 _atom_site_type_symbol
 _atom_site_label
 _atom_site_symmetry_multiplicity
 _atom_site_fract_x
 _atom_site_fract_y
 _atom_site_fract_z
 _atom_site_occupancy
  Lu  Lu0  1  0.12025808  0.63280563  0.12294234  1
  Lu  Lu1  1  0.63085983  0.62559841  0.02131403  1
  Lu  Lu2  1  0.62863831  0.11491078  0.12292522  1
  Lu  Lu3  1  0.62873484  0.64173360  0.12261965  1
  Lu  Lu4  1  0.66715572  0.11323689  0.22141131  1
  Lu  Lu5  1  0.11559527  0.62403546  0.32729295  1
  Lu  Lu6  1  0.61962567  0.63312390  0.22284822  1
  Lu  Lu7  1  0.62006966  0.11076649  0.32807399  1
  Lu  Lu8  1  0.62000352  0.62867697  0.32805913  1
  Lu  Lu9  1  0.12327921  0.62318548  0.52582551  1
  Lu  Lu10  1  0.66418024  0.11154938  0.42260395  1
  Lu  Lu11  1  0.62570819  0.12093413  0.52614864  1
  Lu  Lu12  1  0.62569671  0.62144060  0.52639227  1
  Lu  Lu13  1  0.62120005  0.11481575  0.62692357  1
  Lu  Lu14  1  0.13703585  0.62862637  0.72146366  1
  Lu  Lu15  1  0.62726866  0.13813937  0.72217016  1
  Lu  Lu16  1  0.62665510  0.12681908  0.82455272  1
  Lu  Lu17  1  0.11320180  0.62575985  0.92777016  1
  Lu  Lu18  1  0.62353538  0.62539448  0.82506219  1
  Lu  Lu19  1  0.62613465  0.11757744  0.92846879  1
  Fe  Fe0  1  0.24283404  0.25452544  0.04965814  1
  Fe  Fe1  1  0.20990906  0.26476212  0.25200139  1
  Fe  Fe2  1  0.20653815  0.25587660  0.45618531  1
  Fe  Fe3  1  0.62550281  0.63668267  0.42029611  1
  Fe  Fe4  1  0.18628798  0.25223567  0.65954239  1
  Fe  Fe5  1  0.05509646  0.98935612  0.59361736  1
  Fe  Fe6  1  0.05933229  0.98740167  0.79637595  1
  Fe  Fe7  1  0.19313105  0.26149130  0.85368625  1
  Fe  Fe8  1  0.62376669  0.62713667  0.72229593  1
  Fe  Fe9  1  0.62804628  0.61361659  0.93287304  1
  S  S0  1  0.37326524  0.37843659  0.07514680  1
  S  S1  1  0.38874904  0.36409683  0.17654715  1
  S  S2  1  0.37482947  0.87136804  0.07413606  1
  S  S3  1  0.86952603  0.37665412  0.07467782  1
  S  S4  1  0.39114154  0.86919187  0.17383352  1
  S  S5  1  0.37930350  0.36381489  0.27537680  1
  S  S6  1  0.37938910  0.36596791  0.37769541  1
  S  S7  1  0.37907902  0.88030374  0.27535695  1
  S  S8  1  0.87321023  0.38292778  0.17489959  1
  S  S9  1  0.87898291  0.86824584  0.07675386  1
  S  S10  1  0.87352625  0.86889466  0.17507175  1
  S  S11  1  0.84626867  0.38147036  0.27808993  1
  S  S12  1  0.39700132  0.85333991  0.37926387  1
  S  S13  1  0.38585733  0.37421142  0.47303881  1
  S  S14  1  0.36871164  0.37134431  0.57738575  1
  S  S15  1  0.38573061  0.87436376  0.47311315  1
  S  S16  1  0.87139677  0.38598128  0.37591598  1
  S  S17  1  0.87515831  0.86804522  0.27770399  1
  S  S18  1  0.87157244  0.86328513  0.37595337  1
  S  S19  1  0.84006426  0.39979896  0.47200628  1
  S  S20  1  0.36776198  0.36660082  0.67532154  1
  S  S21  1  0.40231279  0.86356592  0.57411967  1
  S  S22  1  0.37231567  0.37860055  0.77518959  1
  S  S23  1  0.36779404  0.88311126  0.67728629  1
  S  S24  1  0.88361923  0.36103101  0.57422042  1
  S  S25  1  0.87344680  0.86707625  0.47830425  1
  S  S26  1  0.88498982  0.88349887  0.57368795  1
  S  S27  1  0.83585132  0.40725687  0.67983245  1
  S  S28  1  0.41876502  0.85068451  0.76892462  1
  S  S29  1  0.37406528  0.37262555  0.87401058  1
  S  S30  1  0.37933722  0.38883330  0.97290564  1
  S  S31  1  0.87842811  0.37431177  0.77423808  1
  S  S32  1  0.37315028  0.88505299  0.87326871  1
  S  S33  1  0.87729420  0.87452739  0.67372289  1
  S  S34  1  0.87742972  0.87741117  0.77415329  1
  S  S35  1  0.83493848  0.40423453  0.87927352  1
  S  S36  1  0.40625539  0.85740505  0.96839031  1
  S  S37  1  0.86509990  0.39418969  0.96963872  1
  S  S38  1  0.88122784  0.88125871  0.87157708  1
  S  S39  1  0.87287168  0.86976624  0.97356728  1
loop_
_geom_bond_atom_site_label_1
_geom_bond_atom_site_label_2
_geom_bond_distance
_geom_bond_site_symmetry_2
Lu0 S9 2.547015 1_455
Lu0 S0 2.654576 1_555
Lu0 S2 2.655487 1_555
Lu0 S10 2.670595 1_455
Lu0 S8 2.674595 1_455
Lu0 S1 2.892274 1_555
Lu1 S39 2.616136 1_554
Lu1 S37 2.633059 1_554
Lu1 S36 2.638694 1_554
Lu1 S0 2.719449 1_555
Lu1 S3 2.724011 1_555
Lu1 S2 2.741201 1_555
Lu2 S9 2.571672 1_545
Lu2 S4 2.600993 1_545
Lu2 S0 2.670398 1_555
Lu2 S3 2.705393 1_555
Lu2 S10 2.724868 1_545
Lu2 S1 2.781063 1_555
Lu3 S9 2.569937 1_555
Lu3 S4 2.599796 1_555
Lu3 S2 2.680225 1_555
Lu3 S3 2.715061 1_555
Lu3 S8 2.726505 1_555
Lu3 S1 2.786842 1_555
Lu4 S10 2.565176 1_545
Lu4 S8 2.567010 1_555
Lu4 S17 2.645521 1_545
Lu4 S1 2.723824 1_555
Lu4 S5 2.810851 1_555
Lu4 S7 2.816258 1_545
Lu5 S18 2.594312 1_455
Lu5 S16 2.595398 1_455
Lu5 S17 2.632063 1_455
Lu5 S6 2.782227 1_555
Lu5 S5 2.794905 1_555
Lu5 S7 2.797305 1_555
Lu6 S4 2.551778 1_555
Lu6 S8 2.636581 1_555
Lu6 S10 2.637648 1_555
Lu6 S11 2.711957 1_555
Lu6 S7 2.739479 1_555
Lu6 S5 2.742547 1_555
Lu7 S12 2.588307 1_545
Lu7 S18 2.648143 1_545
Lu7 S17 2.660483 1_545
Lu7 S11 2.675642 1_555
Lu7 S6 2.704950 1_555
Lu7 S5 2.717231 1_555
Lu8 S12 2.585662 1_555
Lu8 S16 2.646827 1_555
Lu8 S17 2.662856 1_555
Lu8 S11 2.672933 1_555
Lu8 S6 2.708036 1_555
Lu8 S7 2.718162 1_555
Lu9 S25 2.629406 1_455
Lu9 S26 2.686664 1_455
Lu9 S24 2.700807 1_455
Lu9 S14 2.711864 1_555
Lu9 S13 2.758624 1_555
Lu9 S15 2.765138 1_555
Lu10 S18 2.595677 1_545
Lu10 S16 2.600024 1_555
Lu10 S25 2.635213 1_545
Lu10 S6 2.761879 1_555
Lu10 S13 2.776537 1_555
Lu10 S15 2.782660 1_545
Lu11 S21 2.587480 1_545
Lu11 S25 2.651655 1_545
Lu11 S19 2.665910 1_555
Lu11 S26 2.683649 1_545
Lu11 S13 2.723461 1_555
Lu11 S14 2.723783 1_555
Lu12 S21 2.584396 1_555
Lu12 S25 2.655511 1_555
Lu12 S19 2.663813 1_555
Lu12 S24 2.684430 1_555
Lu12 S15 2.728634 1_555
Lu12 S14 2.729066 1_555
Lu13 S23 2.613881 1_545
Lu13 S33 2.645801 1_545
Lu13 S20 2.656395 1_555
Lu13 S26 2.681581 1_545
Lu13 S14 2.697554 1_555
Lu13 S24 2.739349 1_555
Lu14 S23 2.616407 1_555
Lu14 S20 2.651903 1_555
Lu14 S33 2.690496 1_455
Lu14 S22 2.715766 1_555
Lu14 S34 2.754218 1_455
Lu14 S31 2.760573 1_455
Lu15 S27 2.585003 1_555
Lu15 S20 2.669224 1_555
Lu15 S28 2.682205 1_545
Lu15 S22 2.718736 1_555
Lu15 S33 2.720418 1_545
Lu15 S34 2.749393 1_545
Lu16 S38 2.643010 1_545
Lu16 S29 2.651973 1_555
Lu16 S32 2.666472 1_545
Lu16 S31 2.686733 1_555
Lu16 S34 2.695079 1_545
Lu16 S22 2.702619 1_555
Lu17 S39 2.544401 1_455
Lu17 S37 2.594112 1_455
Lu17 S30 2.660732 1_555
Lu17 S38 2.766091 1_455
Lu17 S32 2.795197 1_555
Lu17 S29 2.805579 1_555
Lu18 S35 2.608054 1_555
Lu18 S28 2.627510 1_555
Lu18 S32 2.692798 1_555
Lu18 S29 2.702753 1_555
Lu18 S31 2.715964 1_555
Lu18 S34 2.722258 1_555
Lu19 S39 2.551184 1_545
Lu19 S36 2.603465 1_545
Lu19 S30 2.660320 1_555
Lu19 S35 2.676714 1_555
Lu19 S38 2.802949 1_545
Lu19 S29 2.825815 1_555
Fe0 S0 2.359099 1_555
Fe0 S3 2.360225 1_455
Fe0 S30 2.364986 1_554
Fe0 S2 2.377497 1_545
Fe1 S11 2.299514 1_455
Fe1 S1 2.353520 1_555
Fe1 S5 2.401880 1_555
Fe1 S7 2.406385 1_545
Fe2 S19 2.335706 1_455
Fe2 S13 2.394883 1_555
Fe2 S15 2.401187 1_545
Fe2 S6 2.435313 1_555
Fe3 S12 2.342003 1_555
Fe3 S16 2.546416 1_555
Fe3 S18 2.548726 1_555
Fe3 S19 2.551175 1_555
Fe3 S15 2.697342 1_555
Fe3 S13 2.702657 1_555
Fe4 S27 2.230896 1_455
Fe4 S23 2.329934 1_545
Fe4 S20 2.356550 1_555
Fe4 S14 2.550763 1_555
Fe4 Lu13 2.751553 1_555
Fe5 S21 2.199251 1_555
Fe5 S24 2.333055 1_465
Fe5 S26 2.345363 1_455
Fe5 S33 2.486864 1_455
Fe5 Lu13 2.746730 1_465
Fe6 S28 2.283142 1_555
Fe6 S38 2.346260 1_455
Fe6 S31 2.431837 1_465
Fe6 S34 2.515643 1_455
Fe6 Lu16 2.736165 1_465
Fe7 S35 2.274910 1_455
Fe7 S32 2.369753 1_545
Fe7 S22 2.442819 1_555
Fe7 S29 2.461050 1_555
Fe7 Lu16 2.741682 1_555
Fe8 S27 2.322982 1_555
Fe8 S28 2.456892 1_555
Fe8 S23 2.602243 1_555
Fe8 S22 2.692268 1_555
Fe8 S33 2.696677 1_555
Fe8 S31 2.772410 1_555
Fe9 S36 2.284450 1_555
Fe9 S37 2.285054 1_555
Fe9 S30 2.567146 1_555
Fe9 S35 2.579316 1_555
Fe9 S38 2.821786 1_555
Fe9 S32 2.980558 1_555
