# generated using pymatgen
data_U5Ge3
_symmetry_space_group_name_H-M   'P 1'
_cell_length_a   8.55522955
_cell_length_b   8.55522955
_cell_length_c   5.46529100
_cell_angle_alpha   90.00000000
_cell_angle_beta   90.00000000
_cell_angle_gamma   119.99999655
_symmetry_Int_Tables_number   1
_chemical_formula_structural   U5Ge3
_chemical_formula_sum   'U10 Ge6'
_cell_volume   346.42344147
_cell_formula_units_Z   2
loop_
 _symmetry_equiv_pos_site_id
 _symmetry_equiv_pos_as_xyz
  1  'x, y, z'
loop_
 _atom_site_type_symbol
 _atom_site_label
 _atom_site_symmetry_multiplicity
 _atom_site_fract_x
 _atom_site_fract_y
 _atom_site_fract_z
 _atom_site_occupancy
  U  U0  1  0.00000000  0.23376900  0.25000000  1
  U  U1  1  0.23376900  0.00000000  0.25000000  1
  U  U2  1  0.33333300  0.66666700  0.00000000  1
  U  U3  1  0.76623100  0.76623100  0.25000000  1
  U  U4  1  0.23376900  0.23376900  0.75000000  1
  U  U5  1  0.66666700  0.33333300  0.00000000  1
  U  U6  1  0.76623100  0.00000000  0.75000000  1
  U  U7  1  0.00000000  0.76623100  0.75000000  1
  U  U8  1  0.33333300  0.66666700  0.50000000  1
  U  U9  1  0.66666700  0.33333300  0.50000000  1
  Ge  Ge0  1  0.39284400  0.00000000  0.75000000  1
  Ge  Ge1  1  0.39284400  0.39284400  0.25000000  1
  Ge  Ge2  1  0.00000000  0.60715600  0.25000000  1
  Ge  Ge3  1  0.60715600  0.00000000  0.25000000  1
  Ge  Ge4  1  0.60715600  0.60715600  0.75000000  1
  Ge  Ge5  1  0.00000000  0.39284400  0.75000000  1
loop_
_geom_bond_atom_site_label_1
_geom_bond_atom_site_label_2
_geom_bond_distance
_geom_bond_site_symmetry_2
U2 U8 2.732645 1_555
U2 U8 2.732645 1_554
U5 U9 2.732645 1_555
U5 U9 2.732645 1_554
Ge0 U4 2.928084 1_555
Ge0 U7 2.928084 1_545
Ge0 U2 2.967586 1_546
Ge0 U8 2.967586 1_545
Ge0 U9 2.967589 1_555
Ge0 U5 2.967589 1_556
Ge0 U1 3.052780 1_556
Ge0 U1 3.052780 1_555
Ge0 U6 3.194411 1_555
Ge1 U0 2.928084 1_555
Ge1 U1 2.928084 1_555
Ge1 U8 2.967594 1_555
Ge1 U5 2.967594 1_555
Ge1 U2 2.967594 1_555
Ge1 U9 2.967594 1_555
Ge1 U4 3.052780 1_554
Ge1 U4 3.052780 1_555
Ge1 U3 3.194412 1_555
Ge2 U3 2.928084 1_455
Ge2 U1 2.928084 1_565
Ge2 U8 2.967586 1_555
Ge2 U2 2.967586 1_555
Ge2 U5 2.967589 1_455
Ge2 U9 2.967589 1_455
Ge2 U7 3.052780 1_555
Ge2 U7 3.052780 1_554
Ge2 U0 3.194411 1_555
Ge3 U3 2.928084 1_545
Ge3 U0 2.928084 1_655
Ge3 U5 2.967586 1_555
Ge3 U9 2.967586 1_555
Ge3 U2 2.967589 1_545
Ge3 U8 2.967589 1_545
Ge3 U6 3.052780 1_555
Ge3 U6 3.052780 1_554
Ge3 U1 3.194411 1_555
Ge4 U7 2.928084 1_655
Ge4 U6 2.928084 1_565
Ge4 U8 2.967594 1_555
Ge4 U5 2.967594 1_556
Ge4 U9 2.967594 1_555
Ge4 U2 2.967594 1_556
Ge4 U3 3.052780 1_555
Ge4 U3 3.052780 1_556
Ge4 U4 3.194412 1_555
Ge5 U4 2.928084 1_555
Ge5 U6 2.928084 1_455
Ge5 U5 2.967586 1_456
Ge5 U9 2.967586 1_455
Ge5 U2 2.967589 1_556
Ge5 U8 2.967589 1_555
Ge5 U0 3.052780 1_556
Ge5 U0 3.052780 1_555
Ge5 U7 3.194411 1_555
