# generated using pymatgen
data_Sn2H2SO5F2
_symmetry_space_group_name_H-M   'P 1'
_cell_length_a   13.03686700
_cell_length_b   7.11259800
_cell_length_c   7.32496599
_cell_angle_alpha   89.03032472
_cell_angle_beta   90.00000000
_cell_angle_gamma   90.00000000
_symmetry_Int_Tables_number   1
_chemical_formula_structural   Sn2H2SO5F2
_chemical_formula_sum   'Sn8 H8 S4 O20 F8'
_cell_volume   679.11748490
_cell_formula_units_Z   4
loop_
 _symmetry_equiv_pos_site_id
 _symmetry_equiv_pos_as_xyz
  1  'x, y, z'
loop_
 _atom_site_type_symbol
 _atom_site_label
 _atom_site_symmetry_multiplicity
 _atom_site_fract_x
 _atom_site_fract_y
 _atom_site_fract_z
 _atom_site_occupancy
  Sn  Sn0  1  0.68097100  0.32125100  0.15448700  1
  Sn  Sn1  1  0.18097100  0.67874900  0.34551300  1
  Sn  Sn2  1  0.31902900  0.67874900  0.84551300  1
  Sn  Sn3  1  0.81902900  0.32125100  0.65448700  1
  Sn  Sn4  1  0.52034200  0.23933000  0.67043200  1
  Sn  Sn5  1  0.02034200  0.76067000  0.82956800  1
  Sn  Sn6  1  0.47965800  0.76067000  0.32956800  1
  Sn  Sn7  1  0.97965800  0.23933000  0.17043200  1
  H  H0  1  0.68132200  0.93790800  0.04966800  1
  H  H1  1  0.18132200  0.06209200  0.45033200  1
  H  H2  1  0.31867800  0.06209200  0.95033200  1
  H  H3  1  0.81867800  0.93790800  0.54966800  1
  H  H4  1  0.73696900  0.94515900  0.24588000  1
  H  H5  1  0.23696900  0.05484100  0.25412000  1
  H  H6  1  0.26303100  0.05484100  0.75412000  1
  H  H7  1  0.76303100  0.94515900  0.74588000  1
  S  S0  1  0.41872900  0.24172500  0.22518300  1
  S  S1  1  0.91872900  0.75827500  0.27481700  1
  S  S2  1  0.58127100  0.75827500  0.77481700  1
  S  S3  1  0.08127100  0.24172500  0.72518300  1
  O  O0  1  0.32004200  0.21091300  0.12747200  1
  O  O1  1  0.82004200  0.78908700  0.37252800  1
  O  O2  1  0.67995800  0.78908700  0.87252800  1
  O  O3  1  0.17995800  0.21091300  0.62747200  1
  O  O4  1  0.43701900  0.07937400  0.35701100  1
  O  O5  1  0.93701900  0.92062600  0.14298900  1
  O  O6  1  0.56298100  0.92062600  0.64298900  1
  O  O7  1  0.06298100  0.07937400  0.85701100  1
  O  O8  1  0.50387500  0.25201000  0.08800000  1
  O  O9  1  0.00387500  0.74799000  0.41200000  1
  O  O10  1  0.49612500  0.74799000  0.91200000  1
  O  O11  1  0.99612500  0.25201000  0.58800000  1
  O  O12  1  0.41594800  0.41407600  0.33614000  1
  O  O13  1  0.91594800  0.58592400  0.16386000  1
  O  O14  1  0.58405200  0.58592400  0.66386000  1
  O  O15  1  0.08405200  0.41407600  0.83614000  1
  O  O16  1  0.68394300  0.00761600  0.16786700  1
  O  O17  1  0.18394300  0.99238400  0.33213300  1
  O  O18  1  0.31605700  0.99238400  0.83213300  1
  O  O19  1  0.81605700  0.00761600  0.66786700  1
  F  F0  1  0.86177300  0.26183700  0.96323600  1
  F  F1  1  0.36177300  0.73816300  0.53676400  1
  F  F2  1  0.13822700  0.73816300  0.03676400  1
  F  F3  1  0.63822700  0.26183700  0.46323600  1
  F  F4  1  0.83717600  0.23642900  0.34087300  1
  F  F5  1  0.33717600  0.76357100  0.15912700  1
  F  F6  1  0.16282400  0.76357100  0.65912700  1
  F  F7  1  0.66282400  0.23642900  0.84087300  1
loop_
_geom_bond_atom_site_label_1
_geom_bond_atom_site_label_2
_geom_bond_distance
_geom_bond_site_symmetry_2
H0 O16 1.005552 1_565
H1 O17 1.005552 1_545
H2 O18 1.005552 1_545
H3 O19 1.005552 1_565
H4 O16 0.996585 1_565
H5 O17 0.996585 1_545
H6 O18 0.996585 1_545
H7 O19 0.996585 1_565
O0 S0 1.490257 1_555
O1 S1 1.490257 1_555
O2 S2 1.490257 1_555
O3 S3 1.490257 1_555
O4 S0 1.511617 1_555
O4 Sn6 2.345906 1_545
O5 S1 1.511617 1_555
O5 Sn7 2.345906 1_565
O6 S2 1.511617 1_555
O6 Sn4 2.345906 1_565
O7 S3 1.511617 1_555
O7 Sn5 2.345906 1_545
O8 S0 1.498263 1_555
O8 Sn0 2.412114 1_555
O9 S1 1.498263 1_455
O9 Sn1 2.412114 1_555
O10 S2 1.498263 1_555
O10 Sn2 2.412114 1_555
O11 S3 1.498263 1_655
O11 Sn3 2.412114 1_555
O12 S0 1.482684 1_555
O12 Sn6 2.601018 1_555
O13 S1 1.482684 1_555
O13 Sn7 2.601018 1_555
O14 S2 1.482684 1_555
O14 Sn4 2.601018 1_555
O15 S3 1.482684 1_555
O15 Sn5 2.601018 1_555
O16 Sn0 2.231590 1_555
O17 Sn1 2.231590 1_555
O18 Sn2 2.231590 1_555
O19 Sn3 2.231590 1_555
F0 Sn7 2.163964 1_556
F0 Sn3 2.360399 1_555
F1 Sn6 2.163964 1_555
F1 Sn2 2.360399 1_555
F2 Sn5 2.163964 1_554
F2 Sn1 2.360399 1_555
F3 Sn4 2.163964 1_555
F3 Sn0 2.360399 1_555
F4 Sn7 2.237994 1_555
F4 Sn3 2.396672 1_555
F4 Sn0 2.519342 1_555
F5 Sn6 2.237994 1_555
F5 Sn2 2.396672 1_554
F5 Sn1 2.519342 1_555
F6 Sn5 2.237994 1_555
F6 Sn1 2.396672 1_555
F6 Sn2 2.519342 1_555
F7 Sn4 2.237994 1_555
F7 Sn0 2.396672 1_556
F7 Sn3 2.519342 1_555
