# generated using pymatgen
data_Ca(CeTe2)2
_symmetry_space_group_name_H-M   'P 1'
_cell_length_a   8.30215692
_cell_length_b   8.30215692
_cell_length_c   8.30215692
_cell_angle_alpha   109.77696722
_cell_angle_beta   109.77696722
_cell_angle_gamma   108.86144290
_symmetry_Int_Tables_number   1
_chemical_formula_structural   Ca(CeTe2)2
_chemical_formula_sum   'Ca2 Ce4 Te8'
_cell_volume   440.46770793
_cell_formula_units_Z   2
loop_
 _symmetry_equiv_pos_site_id
 _symmetry_equiv_pos_as_xyz
  1  'x, y, z'
loop_
 _atom_site_type_symbol
 _atom_site_label
 _atom_site_symmetry_multiplicity
 _atom_site_fract_x
 _atom_site_fract_y
 _atom_site_fract_z
 _atom_site_occupancy
  Ca  Ca0  1  0.75000000  0.25000000  0.50000000  1
  Ca  Ca1  1  0.00000000  0.00000000  0.00000000  1
  Ce  Ce0  1  0.87500000  0.49828100  0.12328100  1
  Ce  Ce1  1  0.24828100  0.12500000  0.62328100  1
  Ce  Ce2  1  0.37500000  0.75171900  0.87671900  1
  Ce  Ce3  1  0.50171900  0.62500000  0.37671900  1
  Te  Te0  1  0.62445100  0.02199000  0.75213200  1
  Te  Te1  1  0.62231900  0.51985800  0.74786800  1
  Te  Te2  1  0.48014200  0.22801000  0.10246100  1
  Te  Te3  1  0.12768100  0.37554900  0.39753900  1
  Te  Te4  1  0.77199000  0.87445100  0.25213200  1
  Te  Te5  1  0.12554900  0.37768100  0.89753900  1
  Te  Te6  1  0.97801000  0.73014200  0.60246100  1
  Te  Te7  1  0.26985800  0.87231900  0.24786800  1
loop_
_geom_bond_atom_site_label_1
_geom_bond_atom_site_label_2
_geom_bond_distance
_geom_bond_site_symmetry_2
Ca0 Te5 3.204608 1_655
Ca0 Te4 3.204608 1_545
Ca0 Te2 3.204608 1_555
Ca0 Te1 3.204608 1_555
Ca0 Te7 3.454516 1_545
Ca0 Te3 3.454516 1_655
Ca0 Te0 3.454516 1_555
Ca0 Te6 3.454516 1_555
Ca1 Te7 3.204608 1_545
Ca1 Te6 3.204608 1_444
Ca1 Te3 3.204608 1_555
Ca1 Te0 3.204608 1_454
Ca1 Te1 3.454516 1_444
Ca1 Te5 3.454516 1_554
Ca1 Te4 3.454516 1_445
Ca1 Te2 3.454516 1_555
Ce0 Te3 3.216071 1_655
Ce0 Te1 3.216071 1_554
Ce0 Te7 3.226340 1_655
Ce0 Te2 3.226340 1_555
Ce0 Te5 3.399495 1_654
Ce0 Te0 3.399495 1_554
Ce0 Te4 3.422592 1_555
Ce0 Te6 3.422592 1_555
Ce1 Te7 3.216071 1_545
Ce1 Te5 3.216071 1_555
Ce1 Te1 3.226340 1_555
Ce1 Te6 3.226340 1_445
Ce1 Te3 3.399495 1_555
Ce1 Te4 3.399495 1_445
Ce1 Te2 3.422592 1_556
Ce1 Te0 3.422592 1_555
Ce2 Te4 3.216071 1_556
Ce2 Te6 3.216071 1_455
Ce2 Te0 3.226340 1_565
Ce2 Te5 3.226340 1_555
Ce2 Te2 3.399495 1_566
Ce2 Te7 3.399495 1_556
Ce2 Te3 3.422592 1_555
Ce2 Te1 3.422592 1_555
Ce3 Te0 3.216071 1_565
Ce3 Te2 3.216071 1_555
Ce3 Te3 3.226340 1_555
Ce3 Te4 3.226340 1_555
Ce3 Te1 3.399495 1_555
Ce3 Te6 3.399495 1_555
Ce3 Te7 3.422592 1_555
Ce3 Te5 3.422592 1_554
