# generated using pymatgen
data_As8S9
_symmetry_space_group_name_H-M   'P 1'
_cell_length_a   8.60399500
_cell_length_b   9.90713978
_cell_length_c   22.22517146
_cell_angle_alpha   95.25705762
_cell_angle_beta   95.23029114
_cell_angle_gamma   99.79822583
_symmetry_Int_Tables_number   1
_chemical_formula_structural   As8S9
_chemical_formula_sum   'As24 S27'
_cell_volume   1847.97451160
_cell_formula_units_Z   3
loop_
 _symmetry_equiv_pos_site_id
 _symmetry_equiv_pos_as_xyz
  1  'x, y, z'
loop_
 _atom_site_type_symbol
 _atom_site_label
 _atom_site_symmetry_multiplicity
 _atom_site_fract_x
 _atom_site_fract_y
 _atom_site_fract_z
 _atom_site_occupancy
  As  As0  1  0.12408600  0.37806600  0.03776300  1
  As  As1  1  0.98861100  0.50634100  0.35309500  1
  As  As2  1  0.38992800  0.20567900  0.68578100  1
  As  As3  1  0.92620000  0.26340300  0.84776900  1
  As  As4  1  0.08817500  0.86907200  0.16936400  1
  As  As5  1  0.39445800  0.16777100  0.34309600  1
  As  As6  1  0.63955100  0.98983100  0.62852000  1
  As  As7  1  0.40168400  0.64980500  0.98806000  1
  As  As8  1  0.33211900  0.72727800  0.56543400  1
  As  As9  1  0.68869400  0.83947400  0.77206500  1
  As  As10  1  0.35419800  0.15686900  0.03288600  1
  As  As11  1  0.91359900  0.75339800  0.24280300  1
  As  As12  1  0.59828500  0.74955100  0.38651900  1
  As  As13  1  0.27388500  0.23579400  0.25243300  1
  As  As14  1  0.66149600  0.52440500  0.41918200  1
  As  As15  1  0.95227900  0.12652500  0.91694400  1
  As  As16  1  0.23222800  0.79912400  0.71486200  1
  As  As17  1  0.55186800  0.38016000  0.05526500  1
  As  As18  1  0.19055500  0.92331400  0.87093200  1
  As  As19  1  0.57767500  0.03045400  0.00528800  1
  As  As20  1  0.10188400  0.81409700  0.60906800  1
  As  As21  1  0.38123700  0.40318600  0.37853900  1
  As  As22  1  0.47648100  0.97781700  0.71675100  1
  As  As23  1  0.01892700  0.35554700  0.25910300  1
  S  S0  1  0.10291000  0.70724500  0.86253100  1
  S  S1  1  0.15537900  0.51200800  0.95118600  1
  S  S2  1  0.10352100  0.58608900  0.57537400  1
  S  S3  1  0.16038300  0.14433800  0.61944000  1
  S  S4  1  0.08246000  0.09995200  0.18580300  1
  S  S5  1  0.18584000  0.79780200  0.25535000  1
  S  S6  1  0.52582600  0.75170600  0.84822200  1
  S  S7  1  0.49158100  0.93994300  0.88380900  1
  S  S8  1  0.54403000  0.48774100  0.96603300  1
  S  S9  1  0.33216800  0.35851300  0.47676300  1
  S  S10  1  0.30386400  0.80559800  0.46985600  1
  S  S11  1  0.49990200  0.49546100  0.52772400  1
  S  S12  1  0.52700700  0.17598500  0.60384200  1
  S  S13  1  0.34190600  0.49745500  0.09389400  1
  S  S14  1  0.44128100  0.09123800  0.12793700  1
  S  S15  1  0.74515500  0.22150800  0.00712700  1
  S  S16  1  0.54042200  0.88624800  0.46890300  1
  S  S17  1  0.49528000  0.25323700  0.19202700  1
  S  S18  1  0.84253300  0.93304400  0.30133900  1
  S  S19  1  0.84530900  0.10560800  0.70172100  1
  S  S20  1  0.98803700  0.23908300  0.65546700  1
  S  S21  1  0.15321700  0.97551100  0.77090600  1
  S  S22  1  0.73263300  0.52027800  0.31898800  1
  S  S23  1  0.85206500  0.87239400  0.38777000  1
  S  S24  1  0.95134000  0.26879900  0.34303400  1
  S  S25  1  0.00093000  0.56015200  0.01225300  1
  S  S26  1  0.63131600  0.69203200  0.69451400  1
loop_
_geom_bond_atom_site_label_1
_geom_bond_atom_site_label_2
_geom_bond_distance
_geom_bond_site_symmetry_2
As0 S13 2.239762 1_555
As0 S25 2.329594 1_555
As0 S1 2.444714 1_554
As1 S22 2.294056 1_555
As1 S24 2.307549 1_555
As2 S12 2.281566 1_555
As2 S3 2.310911 1_555
As2 As22 2.624492 1_545
As4 S5 2.239024 1_555
As4 S4 2.292670 1_565
As6 S12 2.310002 1_565
As6 S19 2.353375 1_565
As7 S8 2.225343 1_555
As7 S1 2.349473 1_555
As8 S2 2.252413 1_555
As8 S10 2.333589 1_555
As8 S11 3.009534 1_555
As9 S26 2.118077 1_555
As9 S6 2.423238 1_555
As10 S14 2.361330 1_555
As10 As17 2.529280 1_555
As10 As19 2.556517 1_555
As11 S5 2.294701 1_655
As11 S18 2.307626 1_555
As12 S23 2.308235 1_555
As12 S16 2.318567 1_555
As12 As14 2.536885 1_555
As13 S4 2.269915 1_555
As13 As5 2.386689 1_555
As13 S17 2.420240 1_555
As14 S22 2.361225 1_555
As14 As21 2.547792 1_555
As14 S11 2.904717 1_555
As15 As3 2.162329 1_555
As15 S15 2.992503 1_556
As16 S21 2.286307 1_555
As16 As22 2.501276 1_555
As16 As20 2.539303 1_555
As17 S8 2.336880 1_554
As17 S13 2.483022 1_555
As17 S15 2.699401 1_555
As18 S0 2.130134 1_555
As18 S21 2.334475 1_555
As18 S7 2.555048 1_555
As19 S15 2.169697 1_555
As19 S7 2.758234 1_544
As20 S2 2.316552 1_555
As20 As8 2.526207 1_555
As21 S9 2.328368 1_555
As21 As5 2.417229 1_555
As22 As6 2.513084 1_555
As22 As9 2.734034 1_555
As23 S24 2.208589 1_455
S1 S25 2.064317 1_556
S6 S7 2.037011 1_555
S10 S16 2.058869 1_555
S11 S9 1.990064 1_555
S14 S17 2.006810 1_555
S18 S23 2.063336 1_555
S19 S20 2.059135 1_555
S20 S3 2.067262 1_655
