# generated using pymatgen
data_RbNO3
_symmetry_space_group_name_H-M   'P 1'
_cell_length_a   11.66064320
_cell_length_b   11.66064320
_cell_length_c   7.39170800
_cell_angle_alpha   90.00000000
_cell_angle_beta   90.00000000
_cell_angle_gamma   119.99999544
_symmetry_Int_Tables_number   1
_chemical_formula_structural   RbNO3
_chemical_formula_sum   'Rb9 N9 O27'
_cell_volume   870.40317613
_cell_formula_units_Z   9
loop_
 _symmetry_equiv_pos_site_id
 _symmetry_equiv_pos_as_xyz
  1  'x, y, z'
loop_
 _atom_site_type_symbol
 _atom_site_label
 _atom_site_symmetry_multiplicity
 _atom_site_fract_x
 _atom_site_fract_y
 _atom_site_fract_z
 _atom_site_occupancy
  Rb  Rb0  1  0.09225200  0.56797900  0.91891500  1
  Rb  Rb1  1  0.47572700  0.90774800  0.25224800  1
  Rb  Rb2  1  0.73905600  0.56135900  0.25023400  1
  Rb  Rb3  1  0.43202100  0.52427300  0.58558200  1
  Rb  Rb4  1  0.10189700  0.22903700  0.05438800  1
  Rb  Rb5  1  0.77096300  0.87286000  0.72105500  1
  Rb  Rb6  1  0.12714000  0.89810300  0.38772200  1
  Rb  Rb7  1  0.82230300  0.26094400  0.58356800  1
  Rb  Rb8  1  0.43864100  0.17769700  0.91690100  1
  N  N0  1  0.76251000  0.22802500  0.07535300  1
  N  N1  1  0.40428500  0.53487600  0.07803100  1
  N  N2  1  0.08205700  0.18607500  0.57505400  1
  N  N3  1  0.13059000  0.59571500  0.41136500  1
  N  N4  1  0.46551500  0.23749000  0.40868600  1
  N  N5  1  0.46512400  0.86941000  0.74469800  1
  N  N6  1  0.77197500  0.53448500  0.74202000  1
  N  N7  1  0.10401800  0.91794300  0.90838800  1
  N  N8  1  0.81392500  0.89598200  0.24172100  1
  O  O0  1  0.06148100  0.13374300  0.42035800  1
  O  O1  1  0.07226200  0.93851900  0.75369200  1
  O  O2  1  0.17185800  0.01623100  0.01444300  1
  O  O3  1  0.88751500  0.29187600  0.05665800  1
  O  O4  1  0.35452300  0.46345600  0.21696600  1
  O  O5  1  0.49250700  0.28926800  0.56522200  1
  O  O6  1  0.53654400  0.89106800  0.88363200  1
  O  O7  1  0.73246700  0.93016700  0.29514400  1
  O  O8  1  0.52565000  0.62155400  0.07189500  1
  O  O9  1  0.98376900  0.15562700  0.68111000  1
  O  O10  1  0.79676100  0.50749300  0.89855600  1
  O  O11  1  0.71073200  0.20323900  0.23188900  1
  O  O12  1  0.68807800  0.18866400  0.93717400  1
  O  O13  1  0.06983300  0.80229900  0.96181000  1
  O  O14  1  0.50058600  0.31192200  0.27050700  1
  O  O15  1  0.32878600  0.51655300  0.94159700  1
  O  O16  1  0.84437300  0.82814200  0.34777600  1
  O  O17  1  0.86625700  0.92773800  0.08702500  1
  O  O18  1  0.09590400  0.47435000  0.40522800  1
  O  O19  1  0.37844600  0.90409600  0.73856200  1
  O  O20  1  0.40436100  0.11248500  0.38999200  1
  O  O21  1  0.81133600  0.49941400  0.60384100  1
  O  O22  1  0.10893200  0.64547700  0.55029900  1
  O  O23  1  0.70812400  0.59563900  0.72332500  1
  O  O24  1  0.18776600  0.67121400  0.27493100  1
  O  O25  1  0.48344700  0.81223400  0.60826400  1
  O  O26  1  0.19770100  0.26753300  0.62847700  1
loop_
_geom_bond_atom_site_label_1
_geom_bond_atom_site_label_2
_geom_bond_distance
_geom_bond_site_symmetry_2
N0 O12 1.268389 1_554
N0 O11 1.269792 1_555
N0 O3 1.269991 1_555
N1 O8 1.263338 1_555
N1 O4 1.265575 1_555
N1 O15 1.284380 1_554
N2 O0 1.261367 1_555
N2 O26 1.263211 1_555
N2 O9 1.283449 1_455
N3 O18 1.263341 1_555
N3 O22 1.265569 1_555
N3 O24 1.284380 1_555
N4 O14 1.268389 1_555
N4 O5 1.269792 1_555
N4 O20 1.269990 1_555
N5 O19 1.263329 1_555
N5 O6 1.265569 1_555
N5 O25 1.284379 1_555
N6 O21 1.268389 1_555
N6 O10 1.269792 1_555
N6 O23 1.269991 1_555
N7 O1 1.261367 1_555
N7 O13 1.263212 1_555
N7 O2 1.283445 1_566
N8 O17 1.261367 1_555
N8 O7 1.263203 1_555
N8 O16 1.283445 1_555
O0 Rb4 2.872450 1_555
O0 Rb6 3.209055 1_545
O1 Rb6 2.872450 1_555
O1 Rb5 3.209055 1_455
O2 Rb8 2.808043 1_554
O2 Rb4 2.989090 1_555
O2 Rb6 3.010652 1_545
O3 Rb4 2.935658 1_655
O3 Rb0 3.068447 1_654
O4 Rb3 2.846523 1_555
O4 Rb4 3.088924 1_555
O5 Rb8 2.833262 1_555
O5 Rb3 3.156288 1_555
O6 Rb1 2.846520 1_556
O6 Rb5 3.088927 1_555
O7 Rb1 2.889431 1_555
O7 Rb5 3.295334 1_555
O8 Rb2 3.188961 1_555
O9 Rb7 2.808043 1_555
O9 Rb5 2.989090 1_545
O9 Rb4 3.010645 1_656
O10 Rb2 2.833256 1_556
O10 Rb0 3.156288 1_655
O11 Rb7 2.833262 1_555
O11 Rb1 3.156288 1_545
O12 Rb8 2.850751 1_555
O12 Rb7 2.944928 1_555
O13 Rb0 2.889418 1_555
O13 Rb6 3.295344 1_556
O14 Rb2 2.850751 1_555
O14 Rb8 2.944928 1_554
O15 Rb3 2.876446 1_555
O15 Rb0 3.106280 1_555
O15 Rb4 3.172507 1_556
O16 Rb2 2.808043 1_555
O16 Rb6 2.989091 1_655
O16 Rb5 3.010652 1_555
O17 Rb5 2.872450 1_554
O17 Rb4 3.209055 1_665
O18 Rb7 3.188965 1_455
O19 Rb8 3.188962 1_565
O20 Rb6 2.935658 1_545
O20 Rb1 3.068450 1_545
O21 Rb7 2.850751 1_555
O21 Rb2 2.944935 1_555
O22 Rb0 2.846524 1_555
O22 Rb6 3.088916 1_555
O23 Rb5 2.935658 1_555
O23 Rb3 3.068447 1_555
O24 Rb0 2.876451 1_554
O24 Rb1 3.106288 1_555
O24 Rb6 3.172499 1_555
O25 Rb1 2.876448 1_555
O25 Rb3 3.106292 1_555
O25 Rb5 3.172510 1_555
O26 Rb3 2.889425 1_555
O26 Rb4 3.295338 1_556
