# generated using pymatgen
data_Gd3B2(O2F)3
_symmetry_space_group_name_H-M   'P 1'
_cell_length_a   6.23672800
_cell_length_b   7.14510396
_cell_length_c   8.36450335
_cell_angle_alpha   96.18442755
_cell_angle_beta   90.00000000
_cell_angle_gamma   115.87655617
_symmetry_Int_Tables_number   1
_chemical_formula_structural   Gd3B2(O2F)3
_chemical_formula_sum   'Gd6 B4 O12 F6'
_cell_volume   332.95474701
_cell_formula_units_Z   2
loop_
 _symmetry_equiv_pos_site_id
 _symmetry_equiv_pos_as_xyz
  1  'x, y, z'
loop_
 _atom_site_type_symbol
 _atom_site_label
 _atom_site_symmetry_multiplicity
 _atom_site_fract_x
 _atom_site_fract_y
 _atom_site_fract_z
 _atom_site_occupancy
  Gd  Gd0  1  0.78622200  0.35604900  0.17983500  1
  Gd  Gd1  1  0.21377800  0.64395100  0.82016500  1
  Gd  Gd2  1  0.10367400  0.00000000  0.25000000  1
  Gd  Gd3  1  0.89632600  0.00000000  0.75000000  1
  Gd  Gd4  1  0.43017200  0.64395100  0.32016500  1
  Gd  Gd5  1  0.56982800  0.35604900  0.67983500  1
  B  B0  1  0.27168300  0.36152400  0.02140500  1
  B  B1  1  0.72831700  0.63847600  0.97859500  1
  B  B2  1  0.08984100  0.36152400  0.52140500  1
  B  B3  1  0.91015900  0.63847600  0.47859500  1
  O  O0  1  0.68445100  0.47811300  0.42508100  1
  O  O1  1  0.94873400  0.70097000  0.64317800  1
  O  O2  1  0.20633900  0.52188700  0.07491900  1
  O  O3  1  0.08212600  0.70116800  0.36613500  1
  O  O4  1  0.24776400  0.29903000  0.85682200  1
  O  O5  1  0.38095800  0.29883200  0.13386500  1
  O  O6  1  0.61904200  0.70116800  0.86613500  1
  O  O7  1  0.79366100  0.47811300  0.92508100  1
  O  O8  1  0.31554900  0.52188700  0.57491900  1
  O  O9  1  0.91787400  0.29883200  0.63386500  1
  O  O10  1  0.75223600  0.70097000  0.14317800  1
  O  O11  1  0.05126600  0.29903000  0.35682200  1
  F  F0  1  0.12705600  0.89521900  0.95857900  1
  F  F1  1  0.87294400  0.10478100  0.04142100  1
  F  F2  1  0.76816300  0.89521900  0.45857900  1
  F  F3  1  0.47824000  0.00000000  0.25000000  1
  F  F4  1  0.23183700  0.10478100  0.54142100  1
  F  F5  1  0.52176000  0.00000000  0.75000000  1
loop_
_geom_bond_atom_site_label_1
_geom_bond_atom_site_label_2
_geom_bond_distance
_geom_bond_site_symmetry_2
Gd0 O0 2.338660 1_555
Gd0 O7 2.380885 1_554
Gd0 O5 2.401571 1_555
Gd0 O11 2.409938 1_655
Gd0 O2 2.559972 1_655
Gd0 O10 2.613707 1_555
Gd0 O3 2.667332 1_655
Gd1 O8 2.338660 1_555
Gd1 O2 2.380885 1_556
Gd1 O6 2.401571 1_555
Gd1 O1 2.409938 1_455
Gd1 O7 2.559972 1_455
Gd1 O4 2.613707 1_555
Gd1 O9 2.667332 1_455
Gd2 O10 2.380863 1_445
Gd2 O11 2.380863 1_555
Gd2 O3 2.391055 1_545
Gd2 O5 2.391055 1_555
Gd3 O4 2.380863 1_655
Gd3 O1 2.380863 1_545
Gd3 O6 2.391055 1_545
Gd3 O9 2.391055 1_555
Gd4 O2 2.338655 1_555
Gd4 O8 2.380884 1_555
Gd4 O3 2.401565 1_555
Gd4 O10 2.409943 1_555
Gd4 O0 2.559972 1_555
Gd4 O11 2.613704 1_555
Gd4 O5 2.667333 1_555
Gd5 O7 2.338655 1_555
Gd5 O0 2.380884 1_555
Gd5 O9 2.401565 1_555
Gd5 O4 2.409943 1_555
Gd5 O8 2.559972 1_555
Gd5 O1 2.613704 1_555
Gd5 O6 2.667333 1_555
B0 O5 1.381028 1_555
B0 O4 1.387887 1_554
B0 O2 1.405849 1_555
B1 O6 1.381028 1_555
B1 O10 1.387887 1_556
B1 O7 1.405849 1_555
B2 O9 1.381028 1_455
B2 O11 1.387887 1_555
B2 O8 1.405853 1_555
B3 O3 1.381028 1_655
B3 O1 1.387887 1_555
B3 O0 1.405853 1_555
F0 Gd1 2.292578 1_555
F0 Gd2 2.495140 1_566
F0 Gd3 2.626189 1_465
F1 Gd0 2.292578 1_555
F1 Gd3 2.495140 1_554
F1 Gd2 2.626189 1_655
F2 Gd4 2.292581 1_555
F2 Gd3 2.495140 1_565
F2 Gd2 2.626189 1_665
F3 Gd2 2.336066 1_555
F3 Gd4 2.561695 1_545
F3 Gd0 2.561697 1_555
F4 Gd5 2.292581 1_555
F4 Gd2 2.495140 1_555
F4 Gd3 2.626189 1_455
F5 Gd3 2.336066 1_555
F5 Gd5 2.561695 1_555
F5 Gd1 2.561697 1_545
