# generated using pymatgen
data_Li2CoP2O7
_symmetry_space_group_name_H-M   'P 1'
_cell_length_a   5.06020400
_cell_length_b   7.00385602
_cell_length_c   8.20079988
_cell_angle_alpha   113.11351160
_cell_angle_beta   91.14366501
_cell_angle_gamma   90.93473285
_symmetry_Int_Tables_number   1
_chemical_formula_structural   Li2CoP2O7
_chemical_formula_sum   'Li4 Co2 P4 O14'
_cell_volume   267.16832817
_cell_formula_units_Z   2
loop_
 _symmetry_equiv_pos_site_id
 _symmetry_equiv_pos_as_xyz
  1  'x, y, z'
loop_
 _atom_site_type_symbol
 _atom_site_label
 _atom_site_symmetry_multiplicity
 _atom_site_fract_x
 _atom_site_fract_y
 _atom_site_fract_z
 _atom_site_occupancy
  Li  Li0  1  0.23737800  0.81289800  0.42953000  1
  Li  Li1  1  0.70817500  0.15223800  0.99527500  1
  Li  Li2  1  0.29182500  0.84776200  0.00472500  1
  Li  Li3  1  0.76262200  0.18710200  0.57047000  1
  Co  Co0  1  0.78032200  0.76137100  0.72166400  1
  Co  Co1  1  0.21967800  0.23862900  0.27833600  1
  P  P0  1  0.28680100  0.45469100  0.69501100  1
  P  P1  1  0.22680100  0.12224800  0.82216600  1
  P  P2  1  0.77319900  0.87775200  0.17783400  1
  P  P3  1  0.71319900  0.54530900  0.30498900  1
  O  O0  1  0.85400100  0.33954200  0.21848300  1
  O  O1  1  0.13347100  0.29491800  0.53457800  1
  O  O2  1  0.07287200  0.92012800  0.21777000  1
  O  O3  1  0.86652900  0.70508200  0.46542200  1
  O  O4  1  0.92712800  0.07987200  0.78223000  1
  O  O5  1  0.58090500  0.47890200  0.66331000  1
  O  O6  1  0.39938500  0.97785600  0.67656800  1
  O  O7  1  0.71422600  0.64017500  0.15254600  1
  O  O8  1  0.41909500  0.52109800  0.33669000  1
  O  O9  1  0.69075800  0.86957500  0.99319400  1
  O  O10  1  0.60061500  0.02214400  0.32343200  1
  O  O11  1  0.30924200  0.13042500  0.00680600  1
  O  O12  1  0.14599900  0.66045800  0.78151700  1
  O  O13  1  0.28577400  0.35982500  0.84745400  1
loop_
_geom_bond_atom_site_label_1
_geom_bond_atom_site_label_2
_geom_bond_distance
_geom_bond_site_symmetry_2
Li0 O6 2.043609 1_555
Li0 O3 2.080552 1_455
Li0 O8 2.114151 1_555
Li0 O2 2.293342 1_555
Li1 O0 1.909276 1_556
Li1 O9 1.973605 1_545
Li1 O4 1.984262 1_555
Li1 O11 2.028857 1_556
Li2 O12 1.909276 1_554
Li2 O11 1.973605 1_565
Li2 O2 1.984262 1_555
Li2 O9 2.028857 1_554
Li3 O10 2.043609 1_555
Li3 O1 2.080552 1_655
Li3 O5 2.114151 1_555
Li3 O4 2.293342 1_555
Co0 O3 2.037973 1_555
Co0 O5 2.081710 1_555
Co0 O12 2.107896 1_655
Co0 O9 2.113006 1_555
Co0 O4 2.199102 1_565
Co0 O6 2.580422 1_555
Co1 O1 2.037973 1_555
Co1 O8 2.081710 1_555
Co1 O0 2.107896 1_455
Co1 O11 2.113006 1_555
Co1 O2 2.199102 1_545
Co1 O10 2.580422 1_555
O0 P3 1.529332 1_555
O1 P0 1.536310 1_555
O2 P2 1.544025 1_455
O3 P3 1.536310 1_555
O4 P1 1.544025 1_655
O5 P0 1.533942 1_555
O6 P1 1.527579 1_565
O7 P2 1.615925 1_555
O7 P3 1.629928 1_555
O8 P3 1.533942 1_555
O9 P2 1.541434 1_556
O10 P2 1.527579 1_545
O11 P1 1.541434 1_554
O12 P0 1.529332 1_555
O13 P1 1.615925 1_555
O13 P0 1.629928 1_555
