# generated using pymatgen
data_BaCuAs2O7
_symmetry_space_group_name_H-M   'P 1'
_cell_length_a   8.52500200
_cell_length_b   6.01172400
_cell_length_c   14.33297982
_cell_angle_alpha   67.25636933
_cell_angle_beta   90.00000000
_cell_angle_gamma   90.00000000
_symmetry_Int_Tables_number   1
_chemical_formula_structural   BaCuAs2O7
_chemical_formula_sum   'Ba4 Cu4 As8 O28'
_cell_volume   677.44778967
_cell_formula_units_Z   4
loop_
 _symmetry_equiv_pos_site_id
 _symmetry_equiv_pos_as_xyz
  1  'x, y, z'
loop_
 _atom_site_type_symbol
 _atom_site_label
 _atom_site_symmetry_multiplicity
 _atom_site_fract_x
 _atom_site_fract_y
 _atom_site_fract_z
 _atom_site_occupancy
  Ba  Ba0  1  0.34900100  0.50195400  0.78720300  1
  Ba  Ba1  1  0.84900100  0.49804600  0.71279700  1
  Ba  Ba2  1  0.65099900  0.49804600  0.21279700  1
  Ba  Ba3  1  0.15099900  0.50195400  0.28720300  1
  Cu  Cu0  1  0.35875100  0.15298800  0.12107900  1
  Cu  Cu1  1  0.14124900  0.15298800  0.62107900  1
  Cu  Cu2  1  0.64124900  0.84701200  0.87892100  1
  Cu  Cu3  1  0.85875100  0.84701200  0.37892100  1
  As  As0  1  0.46581400  0.90544100  0.34287400  1
  As  As1  1  0.68056800  0.16459100  0.00549400  1
  As  As2  1  0.03418600  0.90544100  0.84287400  1
  As  As3  1  0.53418600  0.09455900  0.65712600  1
  As  As4  1  0.31943200  0.83540900  0.99450600  1
  As  As5  1  0.81943200  0.16459100  0.50549400  1
  As  As6  1  0.18056800  0.83540900  0.49450600  1
  As  As7  1  0.96581400  0.09455900  0.15712600  1
  O  O0  1  0.58809800  0.20010700  0.10640400  1
  O  O1  1  0.08809800  0.79989300  0.39359600  1
  O  O2  1  0.41190200  0.79989300  0.89359600  1
  O  O3  1  0.91190200  0.20010700  0.60640400  1
  O  O4  1  0.64941800  0.87265600  0.01303400  1
  O  O5  1  0.14941800  0.12734400  0.48696600  1
  O  O6  1  0.35058200  0.12734400  0.98696600  1
  O  O7  1  0.85058200  0.87265600  0.51303400  1
  O  O8  1  0.65820100  0.39289800  0.89222100  1
  O  O9  1  0.15820100  0.60710200  0.60777900  1
  O  O10  1  0.34179900  0.60710200  0.10777900  1
  O  O11  1  0.84179900  0.39289800  0.39222100  1
  O  O12  1  0.88658700  0.17294100  0.03323500  1
  O  O13  1  0.38658700  0.82705900  0.46676500  1
  O  O14  1  0.11341300  0.82705900  0.96676500  1
  O  O15  1  0.61341300  0.17294100  0.53323500  1
  O  O16  1  0.62731000  0.83658800  0.73891300  1
  O  O17  1  0.12731000  0.16341200  0.76108700  1
  O  O18  1  0.37269000  0.16341200  0.26108700  1
  O  O19  1  0.87269000  0.83658800  0.23891300  1
  O  O20  1  0.44350600  0.66665500  0.31002700  1
  O  O21  1  0.94350600  0.33334500  0.18997300  1
  O  O22  1  0.55649400  0.33334500  0.68997300  1
  O  O23  1  0.05649400  0.66665500  0.81002700  1
  O  O24  1  0.34631600  0.00149900  0.65119200  1
  O  O25  1  0.84631600  0.99850100  0.84880800  1
  O  O26  1  0.65368400  0.99850100  0.34880800  1
  O  O27  1  0.15368400  0.00149900  0.15119200  1
loop_
_geom_bond_atom_site_label_1
_geom_bond_atom_site_label_2
_geom_bond_distance
_geom_bond_site_symmetry_2
Ba0 O22 2.681553 1_555
Ba0 O23 2.748817 1_555
Ba0 O2 2.816559 1_555
Ba0 O6 2.878206 1_555
Ba0 O24 2.879736 1_565
Ba0 O9 2.898603 1_555
Ba0 O17 2.905698 1_555
Ba0 O8 2.980034 1_555
Ba0 O16 3.013078 1_555
Ba1 O23 2.681553 1_655
Ba1 O22 2.748817 1_555
Ba1 O3 2.816559 1_555
Ba1 O7 2.878206 1_555
Ba1 O25 2.879736 1_545
Ba1 O8 2.898603 1_555
Ba1 O16 2.905698 1_555
Ba1 O9 2.980034 1_655
Ba1 O17 3.013078 1_655
Ba2 O20 2.681553 1_555
Ba2 O21 2.748817 1_555
Ba2 O0 2.816559 1_555
Ba2 O4 2.878206 1_555
Ba2 O26 2.879736 1_545
Ba2 O11 2.898603 1_555
Ba2 O19 2.905698 1_555
Ba2 O10 2.980034 1_555
Ba2 O18 3.013078 1_555
Ba3 O21 2.681553 1_455
Ba3 O20 2.748817 1_555
Ba3 O1 2.816559 1_555
Ba3 O5 2.878206 1_555
Ba3 O27 2.879736 1_565
Ba3 O10 2.898603 1_555
Ba3 O18 2.905698 1_555
Ba3 O11 2.980034 1_455
Ba3 O19 3.013078 1_455
Cu0 O27 1.941119 1_555
Cu0 O0 1.975134 1_555
Cu0 O6 1.988154 1_554
Cu0 O18 2.035253 1_555
Cu1 O24 1.941119 1_555
Cu1 O3 1.975134 1_455
Cu1 O5 1.988154 1_555
Cu1 O17 2.035253 1_555
Cu2 O25 1.941119 1_555
Cu2 O2 1.975134 1_555
Cu2 O4 1.988154 1_556
Cu2 O16 2.035253 1_555
Cu3 O26 1.941119 1_555
Cu3 O1 1.975134 1_655
Cu3 O7 1.988154 1_555
Cu3 O19 2.035253 1_555
As0 O20 1.685552 1_555
As0 O26 1.709417 1_555
As0 O18 1.733165 1_565
As0 O13 1.784501 1_555
As1 O8 1.683169 1_554
As1 O0 1.731386 1_555
As1 O4 1.736572 1_545
As1 O12 1.805735 1_555
As2 O23 1.685552 1_555
As2 O25 1.709417 1_455
As2 O17 1.733165 1_565
As2 O14 1.784501 1_555
As3 O22 1.685552 1_555
As3 O24 1.709417 1_555
As3 O16 1.733165 1_545
As3 O15 1.784501 1_555
As4 O10 1.683169 1_556
As4 O2 1.731386 1_555
As4 O6 1.736572 1_565
As4 O14 1.805735 1_555
As5 O11 1.683169 1_555
As5 O3 1.731386 1_555
As5 O7 1.736572 1_545
As5 O15 1.805735 1_555
As6 O9 1.683169 1_555
As6 O1 1.731386 1_555
As6 O5 1.736572 1_565
As6 O13 1.805735 1_555
As7 O21 1.685552 1_555
As7 O27 1.709417 1_655
As7 O19 1.733165 1_545
As7 O12 1.784501 1_555
