# generated using pymatgen
data_K2Rb2Re6S13
_symmetry_space_group_name_H-M   'P 1'
_cell_length_a   9.71825164
_cell_length_b   9.71825164
_cell_length_c   13.80329221
_cell_angle_alpha   84.62721190
_cell_angle_beta   84.62721190
_cell_angle_gamma   118.10877539
_symmetry_Int_Tables_number   1
_chemical_formula_structural   K2Rb2Re6S13
_chemical_formula_sum   'K4 Rb4 Re12 S26'
_cell_volume   1130.66111766
_cell_formula_units_Z   2
loop_
 _symmetry_equiv_pos_site_id
 _symmetry_equiv_pos_as_xyz
  1  'x, y, z'
loop_
 _atom_site_type_symbol
 _atom_site_label
 _atom_site_symmetry_multiplicity
 _atom_site_fract_x
 _atom_site_fract_y
 _atom_site_fract_z
 _atom_site_occupancy
  K  K0  1  0.68541900  0.72947300  0.20878900  1
  K  K1  1  0.72947300  0.68541900  0.70878900  1
  K  K2  1  0.27052700  0.31458100  0.29121100  1
  K  K3  1  0.31458100  0.27052700  0.79121100  1
  Rb  Rb0  1  0.64532300  0.88093000  0.91122600  1
  Rb  Rb1  1  0.11907000  0.35467700  0.58877400  1
  Rb  Rb2  1  0.88093000  0.64532300  0.41122600  1
  Rb  Rb3  1  0.35467700  0.11907000  0.08877400  1
  Re  Re0  1  0.58197000  0.15544700  0.57934800  1
  Re  Re1  1  0.84455300  0.41803000  0.92065200  1
  Re  Re2  1  0.99251800  0.30364700  0.02382000  1
  Re  Re3  1  0.69635300  0.00748200  0.47618000  1
  Re  Re4  1  0.15699000  0.56019200  0.89001400  1
  Re  Re5  1  0.43980800  0.84301000  0.60998600  1
  Re  Re6  1  0.00748200  0.69635300  0.97618000  1
  Re  Re7  1  0.30364700  0.99251800  0.52382000  1
  Re  Re8  1  0.15544700  0.58197000  0.07934800  1
  Re  Re9  1  0.56019200  0.15699000  0.39001400  1
  Re  Re10  1  0.41803000  0.84455300  0.42065200  1
  Re  Re11  1  0.84301000  0.43980800  0.10998600  1
  S  S0  1  0.29972500  0.99235400  0.34809500  1
  S  S1  1  0.71946300  0.55096100  0.00476000  1
  S  S2  1  0.00764600  0.70027500  0.15190500  1
  S  S3  1  0.62885600  0.37114400  0.25000000  1
  S  S4  1  0.65909800  0.00771700  0.30508300  1
  S  S5  1  0.99228300  0.34090200  0.19491700  1
  S  S6  1  0.36802100  0.71600600  0.17398500  1
  S  S7  1  0.44903900  0.28053700  0.49524000  1
  S  S8  1  0.28399400  0.63197900  0.32601500  1
  S  S9  1  0.71600600  0.36802100  0.67398500  1
  S  S10  1  0.70945600  0.18957300  0.05039600  1
  S  S11  1  0.70027500  0.00764600  0.65190500  1
  S  S12  1  0.34090200  0.99228300  0.69491700  1
  S  S13  1  0.99235400  0.29972500  0.84809500  1
  S  S14  1  0.29054400  0.81042700  0.94960400  1
  S  S15  1  0.03120500  0.96300200  0.93506500  1
  S  S16  1  0.63197900  0.28399400  0.82601500  1
  S  S17  1  0.81042700  0.29054400  0.44960400  1
  S  S18  1  0.28053700  0.44903900  0.99524000  1
  S  S19  1  0.96879500  0.03699800  0.06493500  1
  S  S20  1  0.37114400  0.62885600  0.75000000  1
  S  S21  1  0.03699800  0.96879500  0.56493500  1
  S  S22  1  0.00771700  0.65909800  0.80508300  1
  S  S23  1  0.96300200  0.03120500  0.43506500  1
  S  S24  1  0.55096100  0.71946300  0.50476000  1
  S  S25  1  0.18957300  0.70945600  0.55039600  1
loop_
_geom_bond_atom_site_label_1
_geom_bond_atom_site_label_2
_geom_bond_distance
_geom_bond_site_symmetry_2
K0 S6 3.109868 1_555
K0 S4 3.225704 1_565
K0 S3 3.243317 1_555
K0 S19 3.250822 1_565
K0 S2 3.304811 1_655
K0 S1 3.511662 1_555
K1 S9 3.109868 1_555
K1 S22 3.225704 1_655
K1 S20 3.243317 1_555
K1 S21 3.250822 1_655
K1 S11 3.304811 1_565
K1 S24 3.511662 1_555
K2 S8 3.109868 1_555
K2 S5 3.225704 1_455
K2 S3 3.243317 1_555
K2 S23 3.250822 1_455
K2 S0 3.304811 1_545
K2 S7 3.511662 1_555
K3 S16 3.109868 1_555
K3 S12 3.225704 1_545
K3 S20 3.243317 1_555
K3 S15 3.250822 1_545
K3 S13 3.304811 1_455
K3 S18 3.511662 1_555
Rb0 S14 3.162529 1_555
Rb0 S15 3.502778 1_655
Rb0 S10 3.552074 1_566
Rb0 S11 3.579277 1_565
Rb0 S20 3.746231 1_555
Rb0 S19 3.747399 1_566
Rb0 S1 3.747681 1_556
Rb0 S13 3.814362 1_565
Rb1 S25 3.162529 1_555
Rb1 S21 3.502778 1_545
Rb1 S17 3.552074 1_455
Rb1 S13 3.579277 1_455
Rb1 S20 3.746231 1_555
Rb1 S23 3.747399 1_455
Rb1 S7 3.747681 1_555
Rb1 S11 3.814362 1_455
Rb2 S17 3.162529 1_555
Rb2 S23 3.502778 1_565
Rb2 S25 3.552074 1_655
Rb2 S2 3.579277 1_655
Rb2 S3 3.746231 1_555
Rb2 S21 3.747399 1_655
Rb2 S24 3.747681 1_555
Rb2 S0 3.814362 1_655
Rb3 S10 3.162529 1_555
Rb3 S19 3.502778 1_455
Rb3 S14 3.552074 1_544
Rb3 S0 3.579277 1_545
Rb3 S3 3.746231 1_555
Rb3 S15 3.747399 1_544
Rb3 S18 3.747681 1_554
Rb3 S2 3.814362 1_545
Re0 S12 2.423547 1_545
Re0 S11 2.427017 1_555
Re0 S17 2.434887 1_555
Re0 S9 2.441159 1_555
Re0 S7 2.447643 1_555
Re1 S22 2.423547 1_655
Re1 S13 2.427017 1_555
Re1 S10 2.434887 1_556
Re1 S16 2.441159 1_555
Re1 S1 2.447643 1_556
Re2 S10 2.406672 1_555
Re2 S5 2.422524 1_555
Re2 S13 2.429587 1_554
Re2 S18 2.439023 1_654
Re2 S19 2.495501 1_555
Re3 S17 2.406672 1_555
Re3 S4 2.422524 1_555
Re3 S11 2.429587 1_555
Re3 S24 2.439023 1_545
Re3 S23 2.495501 1_555
Re4 S22 2.413311 1_555
Re4 S14 2.423914 1_555
Re4 S13 2.435877 1_455
Re4 S18 2.443970 1_555
Re4 S20 2.491674 1_555
Re5 S12 2.413311 1_555
Re5 S25 2.423914 1_555
Re5 S11 2.435877 1_565
Re5 S24 2.443970 1_555
Re5 S20 2.491674 1_555
Re6 S14 2.406672 1_555
Re6 S22 2.422524 1_555
Re6 S2 2.429587 1_556
Re6 S1 2.439023 1_456
Re6 S15 2.495501 1_555
Re7 S25 2.406672 1_555
Re7 S12 2.422524 1_555
Re7 S0 2.429587 1_555
Re7 S7 2.439023 1_565
Re7 S21 2.495501 1_555
Re8 S5 2.423547 1_455
Re8 S2 2.427017 1_555
Re8 S14 2.434887 1_554
Re8 S6 2.441159 1_555
Re8 S18 2.447643 1_554
Re9 S4 2.413311 1_555
Re9 S17 2.423914 1_555
Re9 S0 2.435877 1_545
Re9 S7 2.443970 1_555
Re9 S3 2.491674 1_555
Re10 S4 2.423547 1_565
Re10 S0 2.427017 1_555
Re10 S25 2.434887 1_555
Re10 S8 2.441159 1_555
Re10 S24 2.447643 1_555
Re11 S5 2.413311 1_555
Re11 S10 2.423914 1_555
Re11 S2 2.435877 1_655
Re11 S1 2.443970 1_555
Re11 S3 2.491674 1_555
S6 S8 2.113585 1_555
S15 S19 2.132440 1_466
S16 S9 2.113585 1_555
S21 S23 2.132440 1_465
