# generated using pymatgen
data_Cr3B7ClO13
_symmetry_space_group_name_H-M   'P 1'
_cell_length_a   12.29874900
_cell_length_b   12.29874900
_cell_length_c   12.31993400
_cell_angle_alpha   90.00000000
_cell_angle_beta   90.00000000
_cell_angle_gamma   90.00000000
_symmetry_Int_Tables_number   1
_chemical_formula_structural   Cr3B7ClO13
_chemical_formula_sum   'Cr24 B56 Cl8 O104'
_cell_volume   1863.50369310
_cell_formula_units_Z   8
loop_
 _symmetry_equiv_pos_site_id
 _symmetry_equiv_pos_as_xyz
  1  'x, y, z'
loop_
 _atom_site_type_symbol
 _atom_site_label
 _atom_site_symmetry_multiplicity
 _atom_site_fract_x
 _atom_site_fract_y
 _atom_site_fract_z
 _atom_site_occupancy
  Cr  Cr0  1  0.75656000  0.99770800  0.25558600  1
  Cr  Cr1  1  0.50000000  0.00000000  0.97448300  1
  Cr  Cr2  1  0.24382700  0.00440500  0.75654600  1
  Cr  Cr3  1  0.99770800  0.24344000  0.74441400  1
  Cr  Cr4  1  0.25656000  0.50229200  0.24441400  1
  Cr  Cr5  1  0.50229200  0.74344000  0.75558600  1
  Cr  Cr6  1  0.49770800  0.25656000  0.75558600  1
  Cr  Cr7  1  0.00000000  0.50000000  0.52551700  1
  Cr  Cr8  1  0.75617300  0.99559500  0.75654600  1
  Cr  Cr9  1  0.00000000  0.00000000  0.50000000  1
  Cr  Cr10  1  0.74382700  0.49559500  0.74345400  1
  Cr  Cr11  1  0.00229200  0.75656000  0.74441400  1
  Cr  Cr12  1  0.00440500  0.75617300  0.24345400  1
  Cr  Cr13  1  0.49559500  0.25617300  0.25654600  1
  Cr  Cr14  1  0.74344000  0.49770800  0.24441400  1
  Cr  Cr15  1  0.25617300  0.50440500  0.74345400  1
  Cr  Cr16  1  0.99559500  0.24382700  0.24345400  1
  Cr  Cr17  1  0.00000000  0.00000000  0.00000000  1
  Cr  Cr18  1  0.50000000  0.50000000  0.50000000  1
  Cr  Cr19  1  0.24344000  0.00229200  0.25558600  1
  Cr  Cr20  1  0.00000000  0.50000000  0.02551700  1
  Cr  Cr21  1  0.50000000  0.00000000  0.47448300  1
  Cr  Cr22  1  0.50440500  0.74382700  0.25654600  1
  Cr  Cr23  1  0.50000000  0.50000000  0.00000000  1
  B  B0  1  0.74796400  0.24830100  0.24870600  1
  B  B1  1  0.65152800  0.15072100  0.59777400  1
  B  B2  1  0.17156100  0.82468200  0.92104000  1
  B  B3  1  0.75203600  0.74830100  0.25129400  1
  B  B4  1  0.17395600  0.67260200  0.07316400  1
  B  B5  1  0.17467800  0.17168800  0.57898500  1
  B  B6  1  0.74830100  0.24796400  0.74870600  1
  B  B7  1  0.99950200  0.74800600  0.99939800  1
  B  B8  1  0.17531800  0.17156100  0.07896000  1
  B  B9  1  0.82604400  0.32739800  0.07316400  1
  B  B10  1  0.25203600  0.75169900  0.24870600  1
  B  B11  1  0.15152800  0.34927900  0.90222600  1
  B  B12  1  0.34847200  0.84927900  0.59777400  1
  B  B13  1  0.67531800  0.32843900  0.42104000  1
  B  B14  1  0.24796400  0.25169900  0.25129400  1
  B  B15  1  0.49928100  0.74824800  0.00396000  1
  B  B16  1  0.25175200  0.49928100  0.99604000  1
  B  B17  1  0.24830100  0.25203600  0.75129400  1
  B  B18  1  0.32468200  0.67156100  0.42104000  1
  B  B19  1  0.32831200  0.32532200  0.07898500  1
  B  B20  1  0.82739800  0.32604400  0.57316400  1
  B  B21  1  0.84927900  0.65152800  0.40222600  1
  B  B22  1  0.74800600  0.00049800  0.00060200  1
  B  B23  1  0.00071900  0.24824800  0.49604000  1
  B  B24  1  0.15072100  0.34847200  0.40222600  1
  B  B25  1  0.67156100  0.67531800  0.57896000  1
  B  B26  1  0.32604400  0.17260200  0.42683600  1
  B  B27  1  0.25199400  0.99950200  0.00060200  1
  B  B28  1  0.84847200  0.65072100  0.90222600  1
  B  B29  1  0.00049800  0.25199400  0.99939800  1
  B  B30  1  0.74824800  0.50071900  0.99604000  1
  B  B31  1  0.25169900  0.75203600  0.74870600  1
  B  B32  1  0.75199400  0.50049800  0.49939800  1
  B  B33  1  0.82831200  0.17467800  0.42101500  1
  B  B34  1  0.75169900  0.74796400  0.75129400  1
  B  B35  1  0.67467800  0.32831200  0.92101500  1
  B  B36  1  0.67168800  0.67467800  0.07898500  1
  B  B37  1  0.50049800  0.24800600  0.50060200  1
  B  B38  1  0.82843900  0.17531800  0.92104000  1
  B  B39  1  0.17260200  0.67395600  0.57316400  1
  B  B40  1  0.99928100  0.75175200  0.49604000  1
  B  B41  1  0.67395600  0.82739800  0.42683600  1
  B  B42  1  0.24800600  0.49950200  0.49939800  1
  B  B43  1  0.49950200  0.75199400  0.50060200  1
  B  B44  1  0.67260200  0.82604400  0.92683600  1
  B  B45  1  0.32739800  0.17395600  0.92683600  1
  B  B46  1  0.50071900  0.25175200  0.00396000  1
  B  B47  1  0.65072100  0.15152800  0.09777400  1
  B  B48  1  0.82468200  0.82843900  0.07896000  1
  B  B49  1  0.24824800  0.99928100  0.50396000  1
  B  B50  1  0.17168800  0.82532200  0.42101500  1
  B  B51  1  0.32532200  0.67168800  0.92101500  1
  B  B52  1  0.82532200  0.82831200  0.57898500  1
  B  B53  1  0.75175200  0.00071900  0.50396000  1
  B  B54  1  0.32843900  0.32468200  0.57896000  1
  B  B55  1  0.34927900  0.84847200  0.09777400  1
  Cl  Cl0  1  0.00000000  0.50000000  0.74375800  1
  Cl  Cl1  1  0.00000000  0.50000000  0.24375800  1
  Cl  Cl2  1  0.50000000  0.00000000  0.75624200  1
  Cl  Cl3  1  0.00000000  0.00000000  0.75210500  1
  Cl  Cl4  1  0.50000000  0.50000000  0.25210500  1
  Cl  Cl5  1  0.50000000  0.50000000  0.74789500  1
  Cl  Cl6  1  0.50000000  0.00000000  0.25624200  1
  Cl  Cl7  1  0.00000000  0.00000000  0.24789500  1
  O  O0  1  0.77334500  0.93319400  0.60007200  1
  O  O1  1  0.84695000  0.43234400  0.52337500  1
  O  O2  1  0.92677800  0.76896900  0.09164700  1
  O  O3  1  0.22665500  0.06680600  0.60007200  1
  O  O4  1  0.65097800  0.06709800  0.52316600  1
  O  O5  1  0.84555300  0.22656700  0.81479000  1
  O  O6  1  0.27334500  0.56680600  0.89992800  1
  O  O7  1  0.42677800  0.73103100  0.40835300  1
  O  O8  1  0.15097800  0.43290200  0.97683400  1
  O  O9  1  0.74138100  0.75852600  0.01018100  1
  O  O10  1  0.93290200  0.65097800  0.47683400  1
  O  O11  1  0.26962100  0.34544300  0.17982000  1
  O  O12  1  0.43101600  0.34318700  0.52173200  1
  O  O13  1  0.73103100  0.57322200  0.59164700  1
  O  O14  1  0.75861900  0.25852600  0.48981900  1
  O  O15  1  0.73200700  0.92965000  0.40921200  1
  O  O16  1  0.15305000  0.56765600  0.52337500  1
  O  O17  1  0.34555300  0.27343300  0.68521000  1
  O  O18  1  0.84544300  0.76962100  0.67982000  1
  O  O19  1  0.07366000  0.15578900  0.51787500  1
  O  O20  1  0.23037900  0.84544300  0.32018000  1
  O  O21  1  0.66016000  0.76667900  0.32528500  1
  O  O22  1  0.83984000  0.26667900  0.17471500  1
  O  O23  1  0.26799300  0.07035000  0.40921200  1
  O  O24  1  0.65444700  0.72656700  0.68521000  1
  O  O25  1  0.74147400  0.75861900  0.51018100  1
  O  O26  1  0.84318700  0.93101600  0.02173200  1
  O  O27  1  0.77343300  0.84555300  0.18521000  1
  O  O28  1  0.76799300  0.42965000  0.09078800  1
  O  O29  1  0.64750100  0.22479800  0.18356400  1
  O  O30  1  0.34544300  0.73037900  0.82018000  1
  O  O31  1  0.65578900  0.57366000  0.01787500  1
  O  O32  1  0.65681300  0.43101600  0.47826800  1
  O  O33  1  0.23103100  0.92677800  0.90835300  1
  O  O34  1  0.43234400  0.15305000  0.47662500  1
  O  O35  1  0.24147400  0.74138100  0.98981900  1
  O  O36  1  0.22479800  0.35249900  0.81643600  1
  O  O37  1  0.75852600  0.25861900  0.98981900  1
  O  O38  1  0.65455700  0.26962100  0.82018000  1
  O  O39  1  0.56632800  0.22514600  0.60096100  1
  O  O40  1  0.15578900  0.92634000  0.48212500  1
  O  O41  1  0.76896900  0.07322200  0.90835300  1
  O  O42  1  0.34695000  0.06765600  0.97662500  1
  O  O43  1  0.25861900  0.24147400  0.01018100  1
  O  O44  1  0.92634000  0.84421100  0.51787500  1
  O  O45  1  0.84902200  0.56709800  0.97683400  1
  O  O46  1  0.93319400  0.22665500  0.39992800  1
  O  O47  1  0.16016000  0.73332100  0.17471500  1
  O  O48  1  0.06709800  0.34902200  0.47683400  1
  O  O49  1  0.43319400  0.27334500  0.10007200  1
  O  O50  1  0.34318700  0.56898400  0.47826800  1
  O  O51  1  0.23332100  0.66016000  0.67471500  1
  O  O52  1  0.93234400  0.34695000  0.02337500  1
  O  O53  1  0.73332100  0.83984000  0.82528500  1
  O  O54  1  0.57366000  0.34421100  0.98212500  1
  O  O55  1  0.56898400  0.65681300  0.52173200  1
  O  O56  1  0.06765600  0.65305000  0.02337500  1
  O  O57  1  0.35249900  0.77520200  0.18356400  1
  O  O58  1  0.72514600  0.06632800  0.10096100  1
  O  O59  1  0.14750100  0.27520200  0.31643600  1
  O  O60  1  0.76667900  0.33984000  0.67471500  1
  O  O61  1  0.73037900  0.65455700  0.17982000  1
  O  O62  1  0.27485400  0.93367200  0.10096100  1
  O  O63  1  0.92965000  0.26799300  0.59078800  1
  O  O64  1  0.24138100  0.74147400  0.48981900  1
  O  O65  1  0.15444700  0.77343300  0.81479000  1
  O  O66  1  0.56680600  0.72665500  0.10007200  1
  O  O67  1  0.22656700  0.15444700  0.18521000  1
  O  O68  1  0.34421100  0.42634000  0.01787500  1
  O  O69  1  0.85249900  0.72479800  0.31643600  1
  O  O70  1  0.27343300  0.65444700  0.31479000  1
  O  O71  1  0.65305000  0.93234400  0.97662500  1
  O  O72  1  0.23200700  0.57035000  0.09078800  1
  O  O73  1  0.27520200  0.85249900  0.68356400  1
  O  O74  1  0.72479800  0.14750100  0.68356400  1
  O  O75  1  0.07035000  0.73200700  0.59078800  1
  O  O76  1  0.57322200  0.26896900  0.40835300  1
  O  O77  1  0.43367200  0.77485400  0.60096100  1
  O  O78  1  0.15681300  0.06898400  0.02173200  1
  O  O79  1  0.26667900  0.16016000  0.82528500  1
  O  O80  1  0.93367200  0.72514600  0.89903900  1
  O  O81  1  0.43290200  0.84902200  0.02316600  1
  O  O82  1  0.33984000  0.23332100  0.32528500  1
  O  O83  1  0.15455700  0.23037900  0.67982000  1
  O  O84  1  0.56709800  0.15097800  0.02316600  1
  O  O85  1  0.06632800  0.27485400  0.89903900  1
  O  O86  1  0.77520200  0.64750100  0.81643600  1
  O  O87  1  0.06680600  0.77334500  0.39992800  1
  O  O88  1  0.57035000  0.76799300  0.90921200  1
  O  O89  1  0.22514600  0.43367200  0.39903900  1
  O  O90  1  0.56765600  0.84695000  0.47662500  1
  O  O91  1  0.25852600  0.24138100  0.51018100  1
  O  O92  1  0.72656700  0.34555300  0.31479000  1
  O  O93  1  0.93101600  0.15681300  0.97826800  1
  O  O94  1  0.42634000  0.65578900  0.98212500  1
  O  O95  1  0.26896900  0.42677800  0.59164700  1
  O  O96  1  0.72665500  0.43319400  0.89992800  1
  O  O97  1  0.34902200  0.93290200  0.52316600  1
  O  O98  1  0.76962100  0.15455700  0.32018000  1
  O  O99  1  0.84421100  0.07366000  0.48212500  1
  O  O100  1  0.77485400  0.56632800  0.39903900  1
  O  O101  1  0.06898400  0.84318700  0.97826800  1
  O  O102  1  0.07322200  0.23103100  0.09164700  1
  O  O103  1  0.42965000  0.23200700  0.90921200  1
loop_
_geom_bond_atom_site_label_1
_geom_bond_atom_site_label_2
_geom_bond_distance
_geom_bond_site_symmetry_2
Cr0 O27 2.072830 1_555
Cr0 O15 2.091405 1_555
Cr0 O98 2.092919 1_565
Cr0 O58 2.119060 1_565
Cr1 O42 2.058204 1_555
Cr1 O71 2.058204 1_545
Cr1 O81 2.118625 1_546
Cr1 O84 2.118625 1_556
Cr2 O3 2.085619 1_555
Cr2 O33 2.105728 1_545
Cr2 O73 2.108960 1_545
Cr2 O79 2.113209 1_555
Cr3 O5 2.072830 1_555
Cr3 O63 2.091405 1_555
Cr3 O83 2.092919 1_655
Cr3 O85 2.119060 1_655
Cr4 O70 2.072830 1_555
Cr4 O72 2.091405 1_555
Cr4 O11 2.092919 1_555
Cr4 O89 2.119060 1_555
Cr5 O24 2.072830 1_555
Cr5 O88 2.091405 1_555
Cr5 O30 2.092919 1_555
Cr5 O77 2.119060 1_555
Cr6 O17 2.072830 1_555
Cr6 O103 2.091405 1_555
Cr6 O38 2.092919 1_555
Cr6 O39 2.119060 1_555
Cr7 O16 2.058204 1_555
Cr7 O1 2.058204 1_455
Cr7 O10 2.118625 1_455
Cr7 O48 2.118625 1_555
Cr8 O0 2.085619 1_555
Cr8 O41 2.105728 1_565
Cr8 O74 2.108960 1_565
Cr8 O53 2.113209 1_555
Cr9 O44 2.130796 1_445
Cr9 O40 2.130796 1_545
Cr9 O99 2.130796 1_455
Cr9 O19 2.130796 1_555
Cr10 O96 2.085619 1_555
Cr10 O13 2.105728 1_555
Cr10 O86 2.108960 1_555
Cr10 O60 2.113209 1_555
Cr11 O65 2.072830 1_555
Cr11 O75 2.091405 1_555
Cr11 O18 2.092919 1_455
Cr11 O80 2.119060 1_455
Cr12 O87 2.085619 1_555
Cr12 O2 2.105728 1_455
Cr12 O69 2.108960 1_455
Cr12 O47 2.113209 1_555
Cr13 O49 2.085619 1_555
Cr13 O76 2.105728 1_555
Cr13 O29 2.108960 1_555
Cr13 O82 2.113209 1_555
Cr14 O92 2.072830 1_555
Cr14 O28 2.091405 1_555
Cr14 O61 2.092919 1_555
Cr14 O100 2.119060 1_555
Cr15 O6 2.085619 1_555
Cr15 O95 2.105728 1_555
Cr15 O36 2.108960 1_555
Cr15 O51 2.113209 1_555
Cr16 O46 2.085619 1_555
Cr16 O102 2.105728 1_655
Cr16 O59 2.108960 1_655
Cr16 O22 2.113209 1_555
Cr17 O26 2.123913 1_445
Cr17 O78 2.123913 1_555
Cr17 O101 2.123913 1_544
Cr17 O93 2.123913 1_454
Cr18 O32 2.123913 1_555
Cr18 O55 2.123913 1_555
Cr18 O50 2.123913 1_555
Cr18 O12 2.123913 1_555
Cr19 O67 2.072830 1_555
Cr19 O23 2.091405 1_555
Cr19 O20 2.092919 1_545
Cr19 O62 2.119060 1_545
Cr20 O56 2.058204 1_555
Cr20 O52 2.058204 1_455
Cr20 O45 2.118625 1_454
Cr20 O8 2.118625 1_554
Cr21 O34 2.058204 1_555
Cr21 O90 2.058204 1_545
Cr21 O4 2.118625 1_555
Cr21 O97 2.118625 1_545
Cr22 O66 2.085619 1_555
Cr22 O7 2.105728 1_555
Cr22 O57 2.108960 1_555
Cr22 O21 2.113209 1_555
Cr23 O31 2.130796 1_555
Cr23 O54 2.130796 1_554
Cr23 O94 2.130796 1_554
Cr23 O68 2.130796 1_555
B0 O22 1.469301 1_555
B0 O92 1.470610 1_555
B0 O98 1.474984 1_555
B0 O29 1.501421 1_555
B1 O4 1.379361 1_555
B1 O74 1.389495 1_555
B1 O39 1.391896 1_555
B2 O33 1.461523 1_555
B2 O101 1.463025 1_555
B2 O65 1.468006 1_555
B2 O35 1.583329 1_555
B3 O21 1.469301 1_555
B3 O27 1.470610 1_555
B3 O61 1.474984 1_555
B3 O69 1.501421 1_555
B4 O72 1.462314 1_555
B4 O56 1.463988 1_555
B4 O47 1.466870 1_555
B4 O35 1.568251 1_554
B5 O83 1.457920 1_555
B5 O3 1.462881 1_555
B5 O19 1.465809 1_555
B5 O91 1.586392 1_555
B6 O60 1.469301 1_555
B6 O5 1.470610 1_555
B6 O38 1.474984 1_555
B6 O74 1.501421 1_555
B7 O56 1.467550 1_656
B7 O2 1.469042 1_556
B7 O101 1.472525 1_655
B7 O80 1.504415 1_555
B8 O102 1.461523 1_555
B8 O78 1.463025 1_555
B8 O67 1.468006 1_555
B8 O43 1.583329 1_555
B9 O28 1.462314 1_555
B9 O52 1.463988 1_555
B9 O22 1.466870 1_555
B9 O37 1.568251 1_554
B10 O47 1.469301 1_555
B10 O70 1.470610 1_555
B10 O20 1.474984 1_555
B10 O57 1.501421 1_555
B11 O8 1.379361 1_555
B11 O36 1.389495 1_555
B11 O85 1.391896 1_555
B12 O97 1.379361 1_555
B12 O73 1.389495 1_555
B12 O77 1.391896 1_555
B13 O76 1.461523 1_555
B13 O32 1.463025 1_555
B13 O92 1.468006 1_555
B13 O14 1.583329 1_555
B14 O82 1.469301 1_555
B14 O67 1.470610 1_555
B14 O11 1.474984 1_555
B14 O59 1.501421 1_555
B15 O66 1.470472 1_555
B15 O94 1.473155 1_554
B15 O88 1.478349 1_554
B15 O81 1.502850 1_555
B16 O6 1.470472 1_555
B16 O68 1.473155 1_556
B16 O72 1.478349 1_556
B16 O8 1.502850 1_555
B17 O79 1.469301 1_555
B17 O17 1.470610 1_555
B17 O83 1.474984 1_555
B17 O36 1.501421 1_555
B18 O7 1.461523 1_555
B18 O50 1.463025 1_555
B18 O70 1.468006 1_555
B18 O64 1.583329 1_555
B19 O11 1.457920 1_555
B19 O49 1.462881 1_555
B19 O68 1.465809 1_555
B19 O43 1.586392 1_555
B20 O63 1.462314 1_555
B20 O1 1.463988 1_555
B20 O60 1.466870 1_555
B20 O14 1.568251 1_555
B21 O10 1.379361 1_555
B21 O69 1.389495 1_555
B21 O100 1.391896 1_555
B22 O71 1.467550 1_544
B22 O41 1.469042 1_554
B22 O26 1.472525 1_545
B22 O58 1.504415 1_555
B23 O46 1.470472 1_455
B23 O19 1.473155 1_555
B23 O63 1.478349 1_455
B23 O48 1.502850 1_555
B24 O48 1.379361 1_555
B24 O59 1.389495 1_555
B24 O89 1.391896 1_555
B25 O13 1.461523 1_555
B25 O55 1.463025 1_555
B25 O24 1.468006 1_555
B25 O25 1.583329 1_555
B26 O23 1.462314 1_555
B26 O34 1.463988 1_555
B26 O82 1.466870 1_555
B26 O91 1.568251 1_555
B27 O42 1.467550 1_564
B27 O33 1.469042 1_554
B27 O78 1.472525 1_565
B27 O62 1.504415 1_555
B28 O45 1.379361 1_555
B28 O86 1.389495 1_555
B28 O80 1.391896 1_555
B29 O52 1.467550 1_456
B29 O102 1.469042 1_556
B29 O93 1.472525 1_455
B29 O85 1.504415 1_555
B30 O96 1.470472 1_555
B30 O31 1.473155 1_556
B30 O28 1.478349 1_556
B30 O45 1.502850 1_555
B31 O51 1.469301 1_555
B31 O65 1.470610 1_555
B31 O30 1.474984 1_555
B31 O73 1.501421 1_555
B32 O1 1.467550 1_555
B32 O13 1.469042 1_555
B32 O32 1.472525 1_555
B32 O100 1.504415 1_555
B33 O98 1.457920 1_555
B33 O46 1.462881 1_555
B33 O99 1.465809 1_555
B33 O14 1.586392 1_555
B34 O53 1.469301 1_555
B34 O24 1.470610 1_555
B34 O18 1.474984 1_555
B34 O86 1.501421 1_555
B35 O38 1.457920 1_555
B35 O96 1.462881 1_555
B35 O54 1.465809 1_555
B35 O37 1.586392 1_555
B36 O61 1.457920 1_555
B36 O66 1.462881 1_555
B36 O31 1.465809 1_555
B36 O9 1.586392 1_555
B37 O34 1.467550 1_555
B37 O76 1.469042 1_555
B37 O12 1.472525 1_555
B37 O39 1.504415 1_555
B38 O41 1.461523 1_555
B38 O93 1.463025 1_555
B38 O5 1.468006 1_555
B38 O37 1.583329 1_555
B39 O75 1.462314 1_555
B39 O16 1.463988 1_555
B39 O51 1.466870 1_555
B39 O64 1.568251 1_555
B40 O87 1.470472 1_655
B40 O44 1.473155 1_555
B40 O75 1.478349 1_655
B40 O10 1.502850 1_555
B41 O15 1.462314 1_555
B41 O90 1.463988 1_555
B41 O21 1.466870 1_555
B41 O25 1.568251 1_555
B42 O16 1.467550 1_555
B42 O95 1.469042 1_555
B42 O50 1.472525 1_555
B42 O89 1.504415 1_555
B43 O90 1.467550 1_555
B43 O7 1.469042 1_555
B43 O55 1.472525 1_555
B43 O77 1.504415 1_555
B44 O88 1.462314 1_555
B44 O71 1.463988 1_555
B44 O53 1.466870 1_555
B44 O9 1.568251 1_556
B45 O103 1.462314 1_555
B45 O42 1.463988 1_555
B45 O79 1.466870 1_555
B45 O43 1.568251 1_556
B46 O49 1.470472 1_555
B46 O54 1.473155 1_554
B46 O103 1.478349 1_554
B46 O84 1.502850 1_555
B47 O84 1.379361 1_555
B47 O29 1.389495 1_555
B47 O58 1.391896 1_555
B48 O2 1.461523 1_555
B48 O26 1.463025 1_555
B48 O27 1.468006 1_555
B48 O9 1.583329 1_555
B49 O3 1.470472 1_565
B49 O40 1.473155 1_555
B49 O23 1.478349 1_565
B49 O97 1.502850 1_555
B50 O20 1.457920 1_555
B50 O87 1.462881 1_555
B50 O40 1.465809 1_555
B50 O64 1.586392 1_555
B51 O30 1.457920 1_555
B51 O6 1.462881 1_555
B51 O94 1.465809 1_555
B51 O35 1.586392 1_555
B52 O18 1.457920 1_555
B52 O0 1.462881 1_555
B52 O44 1.465809 1_555
B52 O25 1.586392 1_555
B53 O0 1.470472 1_545
B53 O99 1.473155 1_555
B53 O15 1.478349 1_545
B53 O4 1.502850 1_555
B54 O95 1.461523 1_555
B54 O12 1.463025 1_555
B54 O17 1.468006 1_555
B54 O91 1.583329 1_555
B55 O81 1.379361 1_555
B55 O57 1.389495 1_555
B55 O62 1.391896 1_555
Cl0 Cr7 2.688715 1_555
Cl1 Cr20 2.688715 1_555
Cl2 Cr1 2.688715 1_555
Cl3 Cr11 2.995639 1_545
Cl3 Cr3 2.995639 1_455
Cl3 Cr8 2.999755 1_445
Cl3 Cr2 2.999755 1_555
Cl3 Cr17 3.054050 1_556
Cl3 Cr9 3.105917 1_555
Cl4 Cr4 2.995639 1_555
Cl4 Cr14 2.995639 1_555
Cl4 Cr22 2.999755 1_555
Cl4 Cr13 2.999755 1_555
Cl4 Cr18 3.054050 1_555
Cl4 Cr23 3.105917 1_555
Cl5 Cr5 2.995639 1_555
Cl5 Cr6 2.995639 1_555
Cl5 Cr15 2.999755 1_555
Cl5 Cr10 2.999755 1_555
Cl5 Cr18 3.054050 1_555
Cl5 Cr23 3.105917 1_556
Cl6 Cr21 2.688715 1_555
Cl7 Cr19 2.995639 1_555
Cl7 Cr0 2.995639 1_445
Cl7 Cr16 2.999755 1_455
Cl7 Cr12 2.999755 1_545
Cl7 Cr17 3.054050 1_555
Cl7 Cr9 3.105917 1_555
