# generated using pymatgen
data_Cu4Bi4S9
_symmetry_space_group_name_H-M   'P 1'
_cell_length_a   3.92984000
_cell_length_b   11.30814400
_cell_length_c   33.33139500
_cell_angle_alpha   90.00000000
_cell_angle_beta   90.00000000
_cell_angle_gamma   90.00000000
_symmetry_Int_Tables_number   1
_chemical_formula_structural   Cu4Bi4S9
_chemical_formula_sum   'Cu16 Bi16 S36'
_cell_volume   1481.22041592
_cell_formula_units_Z   4
loop_
 _symmetry_equiv_pos_site_id
 _symmetry_equiv_pos_as_xyz
  1  'x, y, z'
loop_
 _atom_site_type_symbol
 _atom_site_label
 _atom_site_symmetry_multiplicity
 _atom_site_fract_x
 _atom_site_fract_y
 _atom_site_fract_z
 _atom_site_occupancy
  Cu  Cu0  1  0.25000000  0.42235600  0.30273700  1
  Cu  Cu1  1  0.75000000  0.89911700  0.01285200  1
  Cu  Cu2  1  0.75000000  0.83423600  0.30691600  1
  Cu  Cu3  1  0.25000000  0.07764400  0.80273700  1
  Cu  Cu4  1  0.75000000  0.92235600  0.19726300  1
  Cu  Cu5  1  0.25000000  0.16576400  0.69308400  1
  Cu  Cu6  1  0.25000000  0.88089500  0.35861200  1
  Cu  Cu7  1  0.25000000  0.10088300  0.98714800  1
  Cu  Cu8  1  0.75000000  0.66576400  0.80691600  1
  Cu  Cu9  1  0.75000000  0.38089500  0.14138800  1
  Cu  Cu10  1  0.75000000  0.11910500  0.64138800  1
  Cu  Cu11  1  0.25000000  0.33423600  0.19308400  1
  Cu  Cu12  1  0.75000000  0.57764400  0.69726300  1
  Cu  Cu13  1  0.75000000  0.60088300  0.51285200  1
  Cu  Cu14  1  0.25000000  0.39911700  0.48714800  1
  Cu  Cu15  1  0.25000000  0.61910500  0.85861200  1
  Bi  Bi0  1  0.75000000  0.62085900  0.96723600  1
  Bi  Bi1  1  0.75000000  0.90951000  0.90808100  1
  Bi  Bi2  1  0.75000000  0.85233000  0.72342900  1
  Bi  Bi3  1  0.25000000  0.72036300  0.11106500  1
  Bi  Bi4  1  0.75000000  0.27963700  0.88893500  1
  Bi  Bi5  1  0.75000000  0.59049000  0.40808100  1
  Bi  Bi6  1  0.25000000  0.09049000  0.09191900  1
  Bi  Bi7  1  0.25000000  0.77963700  0.61106500  1
  Bi  Bi8  1  0.25000000  0.14767000  0.27657100  1
  Bi  Bi9  1  0.25000000  0.12085900  0.53276400  1
  Bi  Bi10  1  0.75000000  0.22036300  0.38893500  1
  Bi  Bi11  1  0.25000000  0.35233000  0.77657100  1
  Bi  Bi12  1  0.25000000  0.37914100  0.03276400  1
  Bi  Bi13  1  0.75000000  0.64767000  0.22342900  1
  Bi  Bi14  1  0.25000000  0.40951000  0.59191900  1
  Bi  Bi15  1  0.75000000  0.87914100  0.46723600  1
  S  S0  1  0.25000000  0.01632600  0.73729600  1
  S  S1  1  0.75000000  0.31934400  0.31670400  1
  S  S2  1  0.25000000  0.07811900  0.35137800  1
  S  S3  1  0.25000000  0.31981200  0.11118400  1
  S  S4  1  0.25000000  0.84488800  0.97717600  1
  S  S5  1  0.75000000  0.88201100  0.08160500  1
  S  S6  1  0.75000000  0.41811300  0.65466100  1
  S  S7  1  0.25000000  0.03890600  0.45136700  1
  S  S8  1  0.75000000  0.18065600  0.81670400  1
  S  S9  1  0.25000000  0.46109400  0.95136700  1
  S  S10  1  0.75000000  0.92188100  0.64862200  1
  S  S11  1  0.75000000  0.53890600  0.04863300  1
  S  S12  1  0.25000000  0.38201100  0.41839500  1
  S  S13  1  0.75000000  0.57811900  0.14862200  1
  S  S14  1  0.75000000  0.51632600  0.76270400  1
  S  S15  1  0.25000000  0.76786400  0.80731700  1
  S  S16  1  0.75000000  0.34488800  0.52282400  1
  S  S17  1  0.75000000  0.08188700  0.15466100  1
  S  S18  1  0.25000000  0.91811300  0.84533900  1
  S  S19  1  0.75000000  0.26786400  0.69268300  1
  S  S20  1  0.75000000  0.96109400  0.54863300  1
  S  S21  1  0.75000000  0.23213600  0.19268300  1
  S  S22  1  0.75000000  0.61798900  0.58160500  1
  S  S23  1  0.75000000  0.68018800  0.88881600  1
  S  S24  1  0.25000000  0.81934400  0.18329600  1
  S  S25  1  0.25000000  0.58188700  0.34533900  1
  S  S26  1  0.75000000  0.15511200  0.02282400  1
  S  S27  1  0.25000000  0.73213600  0.30731700  1
  S  S28  1  0.25000000  0.68065600  0.68329600  1
  S  S29  1  0.25000000  0.65511200  0.47717600  1
  S  S30  1  0.25000000  0.48367400  0.23729600  1
  S  S31  1  0.75000000  0.81981200  0.38881600  1
  S  S32  1  0.25000000  0.42188100  0.85137800  1
  S  S33  1  0.25000000  0.18018800  0.61118400  1
  S  S34  1  0.75000000  0.98367400  0.26270400  1
  S  S35  1  0.25000000  0.11798900  0.91839500  1
loop_
_geom_bond_atom_site_label_1
_geom_bond_atom_site_label_2
_geom_bond_distance
_geom_bond_site_symmetry_2
Cu0 S30 2.288799 1_555
Cu0 S25 2.295816 1_555
Cu0 S1 2.331217 1_455
Cu0 S1 2.331217 1_555
Cu1 S5 2.299783 1_555
Cu1 S4 2.377182 1_654
Cu1 S4 2.377182 1_554
Cu1 S26 2.913848 1_565
Cu2 S34 2.242161 1_555
Cu2 S27 2.279057 1_655
Cu2 S27 2.279057 1_555
Cu2 S31 2.734710 1_555
Cu3 S0 2.288799 1_555
Cu3 S18 2.295816 1_545
Cu3 S8 2.331217 1_455
Cu3 S8 2.331217 1_555
Cu4 S34 2.288799 1_555
Cu4 S17 2.295816 1_565
Cu4 S24 2.331217 1_555
Cu4 S24 2.331217 1_655
Cu5 S0 2.242161 1_555
Cu5 S19 2.279057 1_455
Cu5 S19 2.279057 1_555
Cu5 S33 2.734710 1_555
Cu6 S2 2.243234 1_565
Cu6 S31 2.313343 1_555
Cu6 S31 2.313343 1_455
Cu6 S27 2.398530 1_555
Cu7 S35 2.299783 1_555
Cu7 S26 2.377182 1_556
Cu7 S26 2.377182 1_456
Cu7 S4 2.913848 1_545
Cu8 S14 2.242161 1_555
Cu8 S15 2.279057 1_655
Cu8 S15 2.279057 1_555
Cu8 S23 2.734710 1_555
Cu9 S13 2.243234 1_555
Cu9 S3 2.313343 1_555
Cu9 S3 2.313343 1_655
Cu9 S21 2.398530 1_555
Cu10 S10 2.243234 1_545
Cu10 S33 2.313343 1_555
Cu10 S33 2.313343 1_655
Cu10 S19 2.398530 1_555
Cu11 S30 2.242161 1_555
Cu11 S21 2.279057 1_455
Cu11 S21 2.279057 1_555
Cu11 S3 2.734710 1_555
Cu12 S14 2.288799 1_555
Cu12 S6 2.295816 1_555
Cu12 S28 2.331217 1_555
Cu12 S28 2.331217 1_655
Cu13 S22 2.299783 1_555
Cu13 S29 2.377182 1_555
Cu13 S29 2.377182 1_655
Cu13 S16 2.913848 1_555
Cu14 S12 2.299783 1_555
Cu14 S16 2.377182 1_555
Cu14 S16 2.377182 1_455
Cu14 S29 2.913848 1_555
Cu15 S32 2.243234 1_555
Cu15 S23 2.313343 1_555
Cu15 S23 2.313343 1_455
Cu15 S15 2.398530 1_555
Bi0 S23 2.698575 1_555
Bi0 S9 2.721149 1_655
Bi0 S9 2.721149 1_555
Bi0 S11 2.866988 1_556
Bi1 S23 2.671525 1_555
Bi1 S18 2.871205 1_555
Bi1 S18 2.871205 1_655
Bi1 S35 3.088195 1_565
Bi1 S35 3.088195 1_665
Bi1 S4 3.114301 1_655
Bi1 S4 3.114301 1_555
Bi2 S10 2.614521 1_555
Bi2 S0 2.741109 1_565
Bi2 S0 2.741109 1_665
Bi2 S28 3.069043 1_555
Bi2 S28 3.069043 1_655
Bi3 S24 2.655025 1_555
Bi3 S13 2.831131 1_455
Bi3 S13 2.831131 1_555
Bi3 S5 2.857706 1_555
Bi3 S5 2.857706 1_455
Bi4 S8 2.655025 1_555
Bi4 S32 2.831131 1_655
Bi4 S32 2.831131 1_555
Bi4 S35 2.857706 1_555
Bi4 S35 2.857706 1_655
Bi5 S31 2.671525 1_555
Bi5 S25 2.871205 1_655
Bi5 S25 2.871205 1_555
Bi5 S12 3.088195 1_655
Bi5 S12 3.088195 1_555
Bi5 S29 3.114301 1_655
Bi5 S29 3.114301 1_555
Bi6 S3 2.671525 1_555
Bi6 S17 2.871205 1_555
Bi6 S17 2.871205 1_455
Bi6 S5 3.088195 1_545
Bi6 S5 3.088195 1_445
Bi6 S26 3.114301 1_455
Bi6 S26 3.114301 1_555
Bi7 S28 2.655025 1_555
Bi7 S10 2.831131 1_555
Bi7 S10 2.831131 1_455
Bi7 S22 2.857706 1_455
Bi7 S22 2.857706 1_555
Bi8 S2 2.614521 1_555
Bi8 S34 2.741109 1_445
Bi8 S34 2.741109 1_545
Bi8 S1 3.069043 1_455
Bi8 S1 3.069043 1_555
Bi9 S33 2.698575 1_555
Bi9 S20 2.721149 1_545
Bi9 S20 2.721149 1_445
Bi9 S7 2.866988 1_555
Bi10 S1 2.655025 1_555
Bi10 S2 2.831131 1_555
Bi10 S2 2.831131 1_655
Bi10 S12 2.857706 1_655
Bi10 S12 2.857706 1_555
Bi11 S32 2.614521 1_555
Bi11 S14 2.741109 1_455
Bi11 S14 2.741109 1_555
Bi11 S8 3.069043 1_455
Bi11 S8 3.069043 1_555
Bi12 S3 2.698575 1_555
Bi12 S11 2.721149 1_555
Bi12 S11 2.721149 1_455
Bi12 S9 2.866988 1_554
Bi13 S13 2.614521 1_555
Bi13 S30 2.741109 1_555
Bi13 S30 2.741109 1_655
Bi13 S24 3.069043 1_555
Bi13 S24 3.069043 1_655
Bi14 S33 2.671525 1_555
Bi14 S6 2.871205 1_555
Bi14 S6 2.871205 1_455
Bi14 S22 3.088195 1_455
Bi14 S22 3.088195 1_555
Bi14 S16 3.114301 1_455
Bi14 S16 3.114301 1_555
Bi15 S31 2.698575 1_555
Bi15 S7 2.721149 1_565
Bi15 S7 2.721149 1_665
Bi15 S20 2.866988 1_555
S15 S18 2.119633 1_555
S17 S21 2.119633 1_555
S19 S6 2.119633 1_555
S25 S27 2.119633 1_555
