# generated using pymatgen
data_Na13Zr7Si5P7O48
_symmetry_space_group_name_H-M   'P 1'
_cell_length_a   9.39020247
_cell_length_b   9.39809938
_cell_length_c   18.68812984
_cell_angle_alpha   58.85728302
_cell_angle_beta   58.73401373
_cell_angle_gamma   58.91101138
_symmetry_Int_Tables_number   1
_chemical_formula_structural   Na13Zr7Si5P7O48
_chemical_formula_sum   'Na13 Zr7 Si5 P7 O48'
_cell_volume   1135.13071829
_cell_formula_units_Z   1
loop_
 _symmetry_equiv_pos_site_id
 _symmetry_equiv_pos_as_xyz
  1  'x, y, z'
loop_
 _atom_site_type_symbol
 _atom_site_label
 _atom_site_symmetry_multiplicity
 _atom_site_fract_x
 _atom_site_fract_y
 _atom_site_fract_z
 _atom_site_occupancy
  Na  Na0  1  0.02444200  0.98448700  0.00865100  1
  Na  Na1  1  0.04943200  0.34123800  0.37978300  1
  Na  Na2  1  0.34339600  0.82099900  0.07705800  1
  Na  Na3  1  0.83934500  0.13531900  0.17045100  1
  Na  Na4  1  0.47632300  0.43694800  0.28978800  1
  Na  Na5  1  0.24829600  0.87432900  0.29132400  1
  Na  Na6  1  0.14985700  0.31161500  0.92381000  1
  Na  Na7  1  0.88948400  0.58676700  0.12006700  1
  Na  Na8  1  0.32746200  0.76800900  0.53428800  1
  Na  Na9  1  0.76055100  0.07985400  0.65815200  1
  Na  Na10  1  0.46833300  0.52196200  0.75308100  1
  Na  Na11  1  0.55124400  0.22233100  0.96013800  1
  Na  Na12  1  0.88554200  0.62159800  0.62161500  1
  Zr  Zr0  1  0.35517300  0.35472300  0.17219000  1
  Zr  Zr1  1  0.14578200  0.15098300  0.57057800  1
  Zr  Zr2  1  0.35128700  0.35280800  0.68488000  1
  Zr  Zr3  1  0.64684300  0.63289900  0.33959800  1
  Zr  Zr4  1  0.85109600  0.85726400  0.42549200  1
  Zr  Zr5  1  0.65352500  0.67451800  0.81121700  1
  Zr  Zr6  1  0.85442000  0.85746100  0.92003200  1
  Si  Si0  1  0.04629100  0.72258300  0.23971900  1
  Si  Si1  1  0.46376100  0.03953000  0.36948000  1
  Si  Si2  1  0.04411200  0.74771100  0.72310800  1
  Si  Si3  1  0.47076300  0.04068600  0.86842100  1
  Si  Si4  1  0.74012200  0.46904200  0.53637700  1
  P  P0  1  0.73695400  0.47695400  0.01484300  1
  P  P1  1  0.24917700  0.54468900  0.48030400  1
  P  P2  1  0.56353100  0.93935200  0.13074700  1
  P  P3  1  0.94627200  0.25605800  0.27290700  1
  P  P4  1  0.25909900  0.56769900  0.96470600  1
  P  P5  1  0.53965700  0.96782200  0.61973300  1
  P  P6  1  0.95309300  0.25489300  0.77206500  1
  O  O0  1  0.11517500  0.29080200  0.25143900  1
  O  O1  1  0.28651700  0.49590900  0.05523100  1
  O  O2  1  0.04017800  0.88409600  0.14878200  1
  O  O3  1  0.51868900  0.11816100  0.13791500  1
  O  O4  1  0.02727300  0.76356200  0.32150800  1
  O  O5  1  0.23621000  0.55450400  0.22357400  1
  O  O6  1  0.28683400  0.08846400  0.45465700  1
  O  O7  1  0.45001000  0.21176900  0.27888300  1
  O  O8  1  0.56715500  0.45875600  0.09880000  1
  O  O9  1  0.21307100  0.38287100  0.50080800  1
  O  O10  1  0.08231700  0.71325800  0.47450300  1
  O  O11  1  0.40089900  0.93610300  0.13364200  1
  O  O12  1  0.64575100  0.99372200  0.38161400  1
  O  O13  1  0.10929300  0.29700300  0.75603100  1
  O  O14  1  0.88502500  0.29939400  0.02179100  1
  O  O15  1  0.78141100  0.62321600  0.00893300  1
  O  O16  1  0.40047300  0.57528800  0.38823900  1
  O  O17  1  0.29653200  0.51265700  0.55709300  1
  O  O18  1  0.62544900  0.77429200  0.20770100  1
  O  O19  1  0.06680800  0.93097900  0.63928400  1
  O  O20  1  0.49964300  0.12134200  0.64571700  1
  O  O21  1  0.72567800  0.92914000  0.04210500  1
  O  O22  1  0.98238900  0.77286300  0.81696500  1
  O  O23  1  0.23616000  0.59128000  0.70572600  1
  O  O24  1  0.77217300  0.38844300  0.31599900  1
  O  O25  1  0.93786500  0.28198400  0.18796400  1
  O  O26  1  0.29767700  0.00498400  0.94909800  1
  O  O27  1  0.46727300  0.86633700  0.36716200  1
  O  O28  1  0.96325600  0.06793200  0.34403300  1
  O  O29  1  0.40996900  0.24402200  0.79760500  1
  O  O30  1  0.67798400  0.51875700  0.45734900  1
  O  O31  1  0.58423600  0.41050500  0.62966200  1
  O  O32  1  0.27979200  0.41734700  0.94598200  1
  O  O33  1  0.07261000  0.71486700  0.97334600  1
  O  O34  1  0.88937000  0.64262600  0.28223600  1
  O  O35  1  0.37818600  0.99890700  0.60458600  1
  O  O36  1  0.61906300  0.02022400  0.90014800  1
  O  O37  1  0.92220000  0.29478500  0.53374200  1
  O  O38  1  0.77365200  0.63741100  0.52275300  1
  O  O39  1  0.40173100  0.65045900  0.88587600  1
  O  O40  1  0.57671600  0.78537500  0.69601200  1
  O  O41  1  0.71014800  0.95622200  0.53696400  1
  O  O42  1  0.77587900  0.41469700  0.78621100  1
  O  O43  1  0.99137900  0.22739800  0.68810100  1
  O  O44  1  0.58763000  0.91460000  0.80676200  1
  O  O45  1  0.93061700  0.08863400  0.85646000  1
  O  O46  1  0.69533400  0.54470500  0.93009700  1
  O  O47  1  0.89980200  0.70116600  0.72208200  1
loop_
_geom_bond_atom_site_label_1
_geom_bond_atom_site_label_2
_geom_bond_distance
_geom_bond_site_symmetry_2
Na0 O26 2.276690 1_564
Na0 O2 2.339252 1_555
Na0 O14 2.636223 1_465
Na0 O33 2.701199 1_554
Na0 O21 2.807498 1_455
Na0 O45 2.941871 1_464
Na1 O37 2.359558 1_455
Na1 O0 2.386500 1_555
Na1 O34 2.590724 1_455
Na1 O6 2.627059 1_555
Na1 O5 2.806961 1_555
Na1 O30 2.879939 1_455
Na2 O26 2.216924 1_564
Na2 O11 2.226900 1_555
Na2 O2 2.317790 1_555
Na2 O5 2.726253 1_555
Na2 O8 2.870179 1_555
Na3 O2 2.211960 1_645
Na3 O25 2.227261 1_555
Na3 O14 2.301095 1_555
Na4 O7 2.370546 1_555
Na4 O16 2.395907 1_555
Na4 O5 2.597112 1_555
Na4 O24 2.835358 1_555
Na5 O28 2.352135 1_465
Na5 O11 2.404244 1_555
Na5 O4 2.473463 1_555
Na5 O16 2.548491 1_555
Na5 O10 2.824481 1_555
Na5 O18 2.864385 1_555
Na5 O27 2.999644 1_555
Na6 O32 2.202390 1_555
Na6 O14 2.213837 1_456
Na6 O26 2.365546 1_555
Na6 O29 2.428908 1_555
Na7 O25 2.348664 1_555
Na7 O33 2.398730 1_654
Na7 O18 2.488612 1_555
Na7 O15 2.560002 1_555
Na7 O21 2.684763 1_555
Na8 O17 2.357665 1_555
Na8 O6 2.489436 1_565
Na8 O27 2.518661 1_555
Na8 O19 2.537415 1_555
Na8 O23 2.621761 1_555
Na9 O19 2.377929 1_645
Na9 O20 2.391476 1_555
Na9 O44 2.494726 1_545
Na9 O37 2.536796 1_555
Na9 O31 2.563493 1_555
Na9 O47 2.867211 1_545
Na10 O23 2.429051 1_555
Na10 O31 2.513453 1_555
Na10 O29 2.563744 1_555
Na10 O40 2.654450 1_555
Na10 O42 2.818420 1_555
Na10 O32 2.933153 1_555
Na10 O39 2.952474 1_555
Na11 O32 2.302216 1_555
Na11 O36 2.341470 1_555
Na11 O21 2.489869 1_546
Na12 O10 2.373970 1_655
Na12 O47 2.432874 1_555
Na12 O38 2.471667 1_555
Na12 O40 2.475965 1_555
Na12 O42 2.626106 1_555
Na12 O41 2.704581 1_555
O0 P3 1.588053 1_455
O0 Zr0 2.155567 1_555
O1 P4 1.573408 1_554
O1 Zr0 2.129126 1_555
O2 Si0 1.593280 1_555
O3 P2 1.569310 1_545
O3 Zr0 2.153439 1_555
O4 Si0 1.664626 1_555
O4 Zr4 2.053550 1_455
O5 Si0 1.670875 1_555
O5 Zr0 2.068954 1_555
O6 Si1 1.651815 1_555
O6 Zr1 2.080151 1_555
O7 Si1 1.637006 1_555
O7 Zr0 2.100099 1_555
O8 P0 1.562218 1_555
O8 Zr0 2.142032 1_555
O9 P1 1.539299 1_555
O9 Zr1 2.115770 1_555
O10 P1 1.552970 1_555
O10 Zr4 2.265427 1_455
O11 P2 1.515494 1_555
O12 Si1 1.642761 1_565
O12 Zr4 2.008701 1_555
O13 P6 1.555109 1_455
O13 Zr2 2.140056 1_555
O14 P0 1.517191 1_555
O15 P0 1.569612 1_555
O15 Zr6 2.160996 1_554
O16 P1 1.560179 1_555
O16 Zr3 2.252369 1_555
O17 P1 1.557243 1_555
O17 Zr2 2.233893 1_555
O18 P2 1.562569 1_555
O18 Zr3 2.175387 1_555
O19 Si2 1.645511 1_555
O19 Zr1 2.079126 1_565
O20 P5 1.560146 1_545
O20 Zr2 2.160377 1_555
O21 P2 1.570682 1_555
O21 Zr6 2.237282 1_554
O22 Si2 1.643307 1_655
O22 Zr6 1.995204 1_555
O23 Si2 1.633057 1_555
O23 Zr2 2.075358 1_555
O24 P3 1.561504 1_555
O24 Zr3 2.138840 1_555
O25 P3 1.515147 1_555
O26 Si3 1.588605 1_555
O27 Si1 1.633504 1_565
O27 Zr3 2.090115 1_555
O28 P3 1.554417 1_555
O28 Zr4 2.172166 1_545
O29 Si3 1.664592 1_555
O29 Zr2 2.045034 1_555
O30 Si4 1.624555 1_555
O30 Zr3 1.995244 1_555
O31 Si4 1.635628 1_555
O31 Zr2 2.108759 1_555
O32 P4 1.521223 1_555
O33 P4 1.562621 1_555
O33 Zr6 2.211041 1_455
O34 Si0 1.636422 1_655
O34 Zr3 1.980771 1_555
O35 P5 1.538507 1_555
O35 Zr1 2.118527 1_565
O36 Si3 1.670434 1_555
O36 Zr6 2.033593 1_545
O37 Si4 1.646816 1_555
O37 Zr1 2.077459 1_655
O38 Si4 1.637796 1_555
O38 Zr4 2.096886 1_555
O39 P4 1.552931 1_555
O39 Zr5 2.095151 1_555
O40 P5 1.569627 1_555
O40 Zr5 2.180977 1_555
O41 P5 1.546341 1_555
O41 Zr4 2.197073 1_555
O42 P6 1.570862 1_555
O42 Zr5 2.286167 1_555
O43 P6 1.547923 1_555
O43 Zr1 2.166161 1_655
O44 Si3 1.641028 1_565
O44 Zr5 1.974359 1_555
O45 P6 1.555490 1_555
O45 Zr6 2.167204 1_545
O46 P0 1.552051 1_556
O46 Zr5 2.045843 1_555
O47 Si2 1.635797 1_655
O47 Zr5 2.086501 1_555
