# generated using pymatgen
data_Er4Zr3O12
_symmetry_space_group_name_H-M   'P 1'
_cell_length_a   6.31730425
_cell_length_b   6.38236987
_cell_length_c   12.67477180
_cell_angle_alpha   99.31272351
_cell_angle_beta   99.29307421
_cell_angle_gamma   99.39551281
_symmetry_Int_Tables_number   1
_chemical_formula_structural   Er4Zr3O12
_chemical_formula_sum   'Er8 Zr6 O24'
_cell_volume   488.18359724
_cell_formula_units_Z   2
loop_
 _symmetry_equiv_pos_site_id
 _symmetry_equiv_pos_as_xyz
  1  'x, y, z'
loop_
 _atom_site_type_symbol
 _atom_site_label
 _atom_site_symmetry_multiplicity
 _atom_site_fract_x
 _atom_site_fract_y
 _atom_site_fract_z
 _atom_site_occupancy
  Er  Er0  1  0.38860514  0.86464502  0.09760514  1
  Er  Er1  1  0.31033436  0.60963239  0.81824632  1
  Er  Er2  1  0.29826300  0.61047706  0.31879357  1
  Er  Er3  1  0.85826718  0.69176286  0.44726202  1
  Er  Er4  1  0.68966564  0.39036761  0.18175368  1
  Er  Er5  1  0.14173282  0.30823714  0.55273798  1
  Er  Er6  1  0.61139486  0.13535498  0.90239486  1
  Er  Er7  1  0.70173700  0.38952294  0.68120643  1
  Zr  Zr0  1  0.39164738  0.85665446  0.59443541  1
  Zr  Zr1  1  0.00786141  0.00609161  0.75226851  1
  Zr  Zr2  1  0.85398813  0.67636714  0.94650150  1
  Zr  Zr3  1  0.14601187  0.32363286  0.05349850  1
  Zr  Zr4  1  0.99213859  0.99390839  0.24773149  1
  Zr  Zr5  1  0.60835262  0.14334554  0.40556459  1
  O  O0  1  0.32111524  0.94240911  0.78492066  1
  O  O1  1  0.03480913  0.89472039  0.08884292  1
  O  O2  1  0.31700015  0.96015971  0.29515655  1
  O  O3  1  0.58759790  0.81954325  0.96217087  1
  O  O4  1  0.07375931  0.92142631  0.59309462  1
  O  O5  1  0.92411951  0.69290044  0.79088511  1
  O  O6  1  0.56721197  0.83054344  0.46207349  1
  O  O7  1  0.17368382  0.57588115  0.96548976  1
  O  O8  1  0.92547772  0.68138078  0.27894176  1
  O  O9  1  0.40953227  0.56791399  0.15814007  1
  O  O10  1  0.18467844  0.59176594  0.46956289  1
  O  O11  1  0.59046773  0.43208601  0.84185993  1
  O  O12  1  0.42891007  0.58337320  0.65816162  1
  O  O13  1  0.82631618  0.42411885  0.03451024  1
  O  O14  1  0.57108993  0.41662680  0.34183838  1
  O  O15  1  0.07588049  0.30709956  0.20911489  1
  O  O16  1  0.81532156  0.40823406  0.53043711  1
  O  O17  1  0.41240210  0.18045675  0.03782913  1
  O  O18  1  0.07452228  0.31861922  0.72105824  1
  O  O19  1  0.96519087  0.10527961  0.91115708  1
  O  O20  1  0.43278803  0.16945656  0.53792651  1
  O  O21  1  0.67888476  0.05759089  0.21507934  1
  O  O22  1  0.92624069  0.07857369  0.40690538  1
  O  O23  1  0.68299985  0.03984029  0.70484345  1
loop_
_geom_bond_atom_site_label_1
_geom_bond_atom_site_label_2
_geom_bond_distance
_geom_bond_site_symmetry_2
Er0 O9 2.170738 1_555
Er0 O21 2.209901 1_565
Er0 O17 2.256432 1_565
Er0 O1 2.260835 1_555
Er0 O3 2.294566 1_554
Er0 O7 2.343931 1_554
Er0 O2 2.609154 1_555
Er1 O7 2.205526 1_555
Er1 O0 2.224059 1_555
Er1 O18 2.224824 1_555
Er1 O11 2.258071 1_555
Er1 O12 2.264512 1_555
Er1 O3 2.366745 1_555
Er1 O5 2.562271 1_455
Er2 O10 2.160942 1_555
Er2 O9 2.249397 1_555
Er2 O2 2.286114 1_555
Er2 O14 2.288490 1_555
Er2 O15 2.294611 1_555
Er2 O6 2.357173 1_555
Er2 O8 2.458392 1_455
Er3 O6 2.188597 1_555
Er3 O8 2.234310 1_555
Er3 O16 2.238102 1_555
Er3 O10 2.244782 1_655
Er3 O4 2.253283 1_655
Er3 O14 2.361755 1_555
Er3 O22 2.583482 1_565
Er4 O13 2.205526 1_555
Er4 O21 2.224059 1_555
Er4 O8 2.224824 1_555
Er4 O9 2.258071 1_555
Er4 O14 2.264512 1_555
Er4 O17 2.366745 1_555
Er4 O15 2.562271 1_655
Er5 O20 2.188597 1_555
Er5 O18 2.234310 1_555
Er5 O10 2.238102 1_555
Er5 O16 2.244782 1_455
Er5 O22 2.253283 1_455
Er5 O12 2.361755 1_555
Er5 O4 2.583482 1_545
Er6 O11 2.170738 1_555
Er6 O0 2.209901 1_545
Er6 O3 2.256432 1_545
Er6 O19 2.260835 1_555
Er6 O17 2.294566 1_556
Er6 O13 2.343931 1_556
Er6 O23 2.609154 1_555
Er7 O16 2.160942 1_555
Er7 O11 2.249397 1_555
Er7 O23 2.286114 1_555
Er7 O12 2.288490 1_555
Er7 O5 2.294611 1_555
Er7 O20 2.357173 1_555
Er7 O18 2.458392 1_655
O0 Zr1 2.074883 1_565
O0 Zr0 2.515274 1_555
O1 Zr4 2.085078 1_455
O1 Zr2 2.121992 1_454
O2 Zr4 2.099347 1_455
O2 Zr5 2.156139 1_565
O3 Zr2 2.063449 1_555
O4 Zr0 2.113372 1_555
O4 Zr1 2.127779 1_565
O5 Zr2 2.105259 1_555
O5 Zr1 2.137769 1_665
O6 Zr0 2.154809 1_555
O6 Zr5 2.218046 1_565
O7 Zr3 2.102168 1_556
O7 Zr2 2.205437 1_455
O8 Zr4 2.085053 1_555
O9 Zr3 2.175190 1_555
O10 Zr0 2.194692 1_555
O11 Zr2 2.175190 1_555
O12 Zr0 2.068474 1_555
O13 Zr2 2.102168 1_554
O13 Zr3 2.205437 1_655
O14 Zr5 2.068474 1_555
O15 Zr3 2.105259 1_555
O15 Zr4 2.137769 1_445
O16 Zr5 2.194692 1_555
O17 Zr3 2.063449 1_555
O18 Zr1 2.085053 1_555
O19 Zr1 2.085078 1_655
O19 Zr3 2.121992 1_656
O20 Zr5 2.154809 1_555
O20 Zr0 2.218046 1_545
O21 Zr4 2.074883 1_545
O21 Zr5 2.515274 1_555
O22 Zr5 2.113372 1_555
O22 Zr4 2.127779 1_545
O23 Zr1 2.099347 1_655
O23 Zr0 2.156139 1_545
