# generated using pymatgen
data_Sr22Nb10O47
_symmetry_space_group_name_H-M   'P 1'
_cell_length_a   6.00792700
_cell_length_b   6.30185129
_cell_length_c   39.91098228
_cell_angle_alpha   91.58496747
_cell_angle_beta   93.11171073
_cell_angle_gamma   116.05613739
_symmetry_Int_Tables_number   1
_chemical_formula_structural   Sr22Nb10O47
_chemical_formula_sum   'Sr22 Nb10 O47'
_cell_volume   1353.25553407
_cell_formula_units_Z   1
loop_
 _symmetry_equiv_pos_site_id
 _symmetry_equiv_pos_as_xyz
  1  'x, y, z'
loop_
 _atom_site_type_symbol
 _atom_site_label
 _atom_site_symmetry_multiplicity
 _atom_site_fract_x
 _atom_site_fract_y
 _atom_site_fract_z
 _atom_site_occupancy
  Sr  Sr0  1  0.55539600  0.34700000  0.02800600  1
  Sr  Sr1  1  0.44392100  0.81179500  0.05802400  1
  Sr  Sr2  1  0.38370500  0.90924000  0.15709900  1
  Sr  Sr3  1  0.22785200  0.34504400  0.19376200  1
  Sr  Sr4  1  0.20434200  0.47762300  0.30424000  1
  Sr  Sr5  1  0.07802500  0.18077600  0.09279900  1
  Sr  Sr6  1  0.83452400  0.90108000  0.40693500  1
  Sr  Sr7  1  0.92866600  0.88020400  0.31879000  1
  Sr  Sr8  1  0.82351400  0.75307000  0.22990000  1
  Sr  Sr9  1  0.55996700  0.27280000  0.44750300  1
  Sr  Sr10  1  0.52958200  0.21822400  0.36144900  1
  Sr  Sr11  1  0.74397600  0.41185300  0.54144800  1
  Sr  Sr12  1  0.25745800  0.60748300  0.47369500  1
  Sr  Sr13  1  0.38706700  0.88919600  0.64966500  1
  Sr  Sr14  1  0.07323600  0.16657000  0.60088400  1
  Sr  Sr15  1  0.20280100  0.48401400  0.79896900  1
  Sr  Sr16  1  0.90556700  0.88220200  0.81895600  1
  Sr  Sr17  1  0.95752900  0.71406800  0.71539100  1
  Sr  Sr18  1  0.92082200  0.97724100  0.90900700  1
  Sr  Sr19  1  0.72562300  0.44897900  0.94994100  1
  Sr  Sr20  1  0.56393000  0.23351400  0.85990100  1
  Sr  Sr21  1  0.34044400  0.74279100  0.96417200  1
  Nb  Nb0  1  0.92955000  0.04851500  0.00619900  1
  Nb  Nb1  1  0.66669400  0.58179700  0.13140400  1
  Nb  Nb2  1  0.43000600  0.08260900  0.25885200  1
  Nb  Nb3  1  0.17448700  0.55006000  0.38424900  1
  Nb  Nb4  1  0.89207600  0.93413600  0.49793900  1
  Nb  Nb5  1  0.71523300  0.58780700  0.62928800  1
  Nb  Nb6  1  0.47968800  0.78517100  0.56397700  1
  Nb  Nb7  1  0.49815700  0.11847100  0.76049100  1
  Nb  Nb8  1  0.36083100  0.35978300  0.69498900  1
  Nb  Nb9  1  0.22353400  0.57486800  0.87930500  1
  O  O0  1  0.80561100  0.16380800  0.04914200  1
  O  O1  1  0.16843900  0.36350500  0.99621000  1
  O  O2  1  0.17049300  0.00509000  0.04220600  1
  O  O3  1  0.63409800  0.73179300  0.01239600  1
  O  O4  1  0.51021100  0.49111400  0.08625000  1
  O  O5  1  0.58911200  0.67681800  0.17767000  1
  O  O6  1  0.71627400  0.90278100  0.12181200  1
  O  O7  1  0.98084900  0.57459000  0.13717500  1
  O  O8  1  0.39274500  0.27135100  0.14346700  1
  O  O9  1  0.25407800  0.99139200  0.21112000  1
  O  O10  1  0.47849300  0.40510300  0.24611900  1
  O  O11  1  0.37796400  0.17951000  0.30223900  1
  O  O12  1  0.73887500  0.06021100  0.26069400  1
  O  O13  1  0.10503500  0.22128200  0.35561400  1
  O  O14  1  0.15665900  0.77131600  0.26860400  1
  O  O15  1  0.92522800  0.56065800  0.34766100  1
  O  O16  1  0.21831700  0.83594400  0.41050000  1
  O  O17  1  0.45433400  0.75139700  0.35169700  1
  O  O18  1  0.44019600  0.50938000  0.41131700  1
  O  O19  1  0.87585200  0.62941400  0.48179400  1
  O  O20  1  0.88768300  0.32683200  0.40942500  1
  O  O21  1  0.66971200  0.96656900  0.46590200  1
  O  O22  1  0.90516600  0.10847600  0.53916600  1
  O  O23  1  0.19755000  0.15441200  0.48140400  1
  O  O24  1  0.51636800  0.07993000  0.58101100  1
  O  O25  1  0.16734700  0.67733500  0.54216900  1
  O  O26  1  0.89085400  0.41511800  0.62750000  1
  O  O27  1  0.57060100  0.67784700  0.52164600  1
  O  O28  1  0.38070400  0.59766000  0.60480900  1
  O  O29  1  0.58296000  0.66792000  0.68014600  1
  O  O30  1  0.79153900  0.72398000  0.58471600  1
  O  O31  1  0.97012600  0.87376000  0.64898900  1
  O  O32  1  0.07845000  0.39037500  0.70174000  1
  O  O33  1  0.41589500  0.28186100  0.64794600  1
  O  O34  1  0.35281800  0.04611000  0.70865600  1
  O  O35  1  0.44990700  0.26166400  0.79891900  1
  O  O36  1  0.56827800  0.44245500  0.73895200  1
  O  O37  1  0.79397300  0.10045000  0.77193600  1
  O  O38  1  0.15266100  0.23645800  0.85568800  1
  O  O39  1  0.22130000  0.82157800  0.76758000  1
  O  O40  1  0.97483000  0.57099100  0.84166000  1
  O  O41  1  0.25387300  0.86330400  0.90252900  1
  O  O42  1  0.50619500  0.75927400  0.84784800  1
  O  O43  1  0.47785700  0.56033000  0.91316600  1
  O  O44  1  0.99586100  0.87418900  0.96798200  1
  O  O45  1  0.66201300  0.12085500  0.98103900  1
  O  O46  1  0.92325500  0.36552600  0.90563500  1
loop_
_geom_bond_atom_site_label_1
_geom_bond_atom_site_label_2
_geom_bond_distance
_geom_bond_site_symmetry_2
Nb0 O1 1.939640 1_654
Nb0 O44 2.012418 1_544
Nb0 O3 2.039184 1_545
Nb0 O45 2.072083 1_554
Nb0 O2 2.092712 1_655
Nb0 O0 2.136523 1_555
Nb1 O7 1.909492 1_555
Nb1 O4 1.935266 1_555
Nb1 O6 1.962872 1_555
Nb1 O8 2.019283 1_555
Nb1 O5 2.064689 1_555
Nb2 O11 1.907138 1_555
Nb2 O12 1.919551 1_555
Nb2 O14 1.994551 1_545
Nb2 O10 2.006615 1_555
Nb2 O9 2.064899 1_545
Nb3 O16 1.965106 1_555
Nb3 O18 1.992177 1_555
Nb3 O20 2.023445 1_455
Nb3 O15 2.057978 1_455
Nb3 O17 2.139806 1_555
Nb3 O13 2.197902 1_555
Nb4 O21 1.878910 1_555
Nb4 O23 1.916959 1_665
Nb4 O22 1.931493 1_565
Nb4 O19 1.967892 1_555
Nb4 O27 2.185545 1_555
Nb5 O26 1.820794 1_555
Nb5 O31 1.891368 1_555
Nb5 O30 1.984561 1_555
Nb5 O33 2.164433 1_555
Nb5 O28 2.213043 1_555
Nb5 O29 2.340377 1_555
Nb6 O25 1.846721 1_555
Nb6 O24 1.874947 1_565
Nb6 O27 1.992885 1_555
Nb6 O28 2.000033 1_555
Nb6 O30 2.197294 1_555
Nb7 O35 1.857974 1_555
Nb7 O37 1.863378 1_555
Nb7 O39 1.921902 1_545
Nb7 O36 2.113239 1_555
Nb7 O34 2.156888 1_555
Nb8 O32 1.822647 1_555
Nb8 O29 1.943067 1_555
Nb8 O33 2.008693 1_555
Nb8 O36 2.011216 1_555
Nb8 O34 2.046013 1_555
Nb9 O41 1.947745 1_555
Nb9 O43 2.018672 1_555
Nb9 O40 2.052497 1_455
Nb9 O46 2.071472 1_455
Nb9 O42 2.095012 1_555
Nb9 O38 2.159924 1_555
O0 Sr5 2.291796 1_655
O0 Sr1 2.379280 1_545
O0 Sr0 2.396867 1_555
O1 Sr21 2.560971 1_555
O1 Sr0 2.631612 1_556
O2 Sr0 2.478688 1_555
O2 Sr5 2.479937 1_555
O2 Sr1 2.503760 1_545
O3 Sr1 2.357340 1_555
O3 Sr0 2.366468 1_555
O3 Sr21 2.562789 1_554
O4 Sr5 2.505192 1_555
O4 Sr1 2.509172 1_555
O4 Sr0 2.543710 1_555
O5 Sr8 2.364502 1_555
O5 Sr3 2.394511 1_555
O5 Sr2 2.426261 1_555
O6 Sr5 2.484755 1_665
O6 Sr2 2.520129 1_555
O6 Sr1 2.851360 1_555
O7 Sr2 2.480324 1_655
O8 Sr2 2.338665 1_545
O8 Sr3 2.407265 1_555
O8 Sr5 2.561877 1_555
O9 Sr3 2.419453 1_565
O9 Sr2 2.449031 1_555
O9 Sr8 2.523624 1_455
O10 Sr8 2.399023 1_555
O10 Sr3 2.427187 1_555
O10 Sr4 3.052869 1_555
O11 Sr10 2.452108 1_555
O11 Sr4 2.519153 1_555
O11 Sr7 2.658977 1_445
O12 Sr8 2.513237 1_545
O12 Sr7 2.992991 1_545
O12 Sr4 3.243047 1_655
O13 Sr7 2.357563 1_445
O13 Sr10 2.557215 1_555
O13 Sr4 2.576621 1_555
O13 Sr6 2.935564 1_445
O14 Sr8 2.420278 1_455
O14 Sr4 2.469329 1_555
O14 Sr7 2.721503 1_455
O15 Sr7 2.340442 1_555
O15 Sr10 2.512218 1_555
O15 Sr4 2.669306 1_655
O16 Sr6 2.510886 1_455
O16 Sr9 2.907739 1_565
O16 Sr12 2.987204 1_555
O16 Sr10 3.135894 1_565
O17 Sr4 2.460449 1_555
O17 Sr10 2.785617 1_565
O17 Sr6 2.900492 1_555
O17 Sr7 2.989651 1_555
O18 Sr9 2.403137 1_555
O18 Sr6 2.582205 1_555
O18 Sr10 2.897557 1_555
O18 Sr12 2.931443 1_555
O19 Sr12 2.395042 1_655
O19 Sr9 2.515207 1_555
O19 Sr11 2.758079 1_555
O20 Sr9 2.463043 1_555
O20 Sr6 2.557250 1_545
O20 Sr10 2.636315 1_555
O20 Sr12 3.212738 1_655
O21 Sr9 2.416985 1_565
O21 Sr12 2.559445 1_555
O21 Sr6 2.692151 1_555
O22 Sr11 2.495536 1_555
O22 Sr14 2.564457 1_655
O23 Sr9 2.465122 1_555
O23 Sr12 2.744836 1_555
O24 Sr11 2.577363 1_555
O24 Sr14 3.081776 1_555
O24 Sr14 3.194306 1_655
O25 Sr11 2.349595 1_455
O25 Sr12 2.873822 1_555
O26 Sr14 2.514849 1_655
O27 Sr11 2.457074 1_555
O27 Sr12 2.495573 1_555
O28 Sr13 2.516095 1_555
O28 Sr14 2.520621 1_555
O29 Sr17 2.487220 1_555
O29 Sr13 2.487910 1_555
O30 Sr11 2.489473 1_555
O30 Sr14 2.587460 1_665
O31 Sr13 2.462402 1_655
O31 Sr14 2.606849 1_665
O31 Sr17 2.853818 1_555
O32 Sr17 2.503804 1_455
O33 Sr13 2.406680 1_545
O33 Sr14 2.546504 1_555
O34 Sr17 2.413615 1_445
O34 Sr13 2.581833 1_545
O35 Sr15 2.448489 1_555
O35 Sr20 2.524682 1_555
O36 Sr17 2.468661 1_555
O37 Sr16 2.584391 1_545
O37 Sr15 2.718823 1_655
O38 Sr16 2.451142 1_445
O38 Sr20 2.475717 1_555
O38 Sr15 2.739610 1_555
O38 Sr18 2.766266 1_445
O39 Sr17 2.435003 1_455
O39 Sr15 2.462098 1_555
O39 Sr16 2.994025 1_455
O40 Sr16 2.369579 1_555
O40 Sr15 2.437334 1_655
O40 Sr20 2.610696 1_555
O41 Sr18 2.427802 1_455
O41 Sr21 2.685420 1_555
O41 Sr20 2.924584 1_565
O42 Sr16 2.530565 1_555
O42 Sr15 2.605033 1_555
O42 Sr20 2.876639 1_565
O42 Sr18 3.193523 1_555
O43 Sr19 2.366402 1_555
O43 Sr21 2.652297 1_555
O43 Sr18 2.818222 1_555
O43 Sr20 3.137068 1_555
O44 Sr19 2.505820 1_555
O44 Sr18 2.528179 1_555
O44 Sr21 2.554962 1_655
O45 Sr19 2.336985 1_555
O45 Sr21 2.363976 1_545
O45 Sr0 2.596070 1_556
O46 Sr19 2.353369 1_555
O46 Sr18 2.448004 1_545
O46 Sr20 2.568003 1_555
