# generated using pymatgen
data_Ca2MgSi2O7
_symmetry_space_group_name_H-M   'P 1'
_cell_length_a   7.82995400
_cell_length_b   7.82995400
_cell_length_c   4.87087200
_cell_angle_alpha   90.00000000
_cell_angle_beta   90.00000000
_cell_angle_gamma   90.00000000
_symmetry_Int_Tables_number   1
_chemical_formula_structural   Ca2MgSi2O7
_chemical_formula_sum   'Ca4 Mg2 Si4 O14'
_cell_volume   298.62429559
_cell_formula_units_Z   2
loop_
 _symmetry_equiv_pos_site_id
 _symmetry_equiv_pos_as_xyz
  1  'x, y, z'
loop_
 _atom_site_type_symbol
 _atom_site_label
 _atom_site_symmetry_multiplicity
 _atom_site_fract_x
 _atom_site_fract_y
 _atom_site_fract_z
 _atom_site_occupancy
  Ca  Ca0  1  0.65310900  0.84689100  0.48406900  1
  Ca  Ca1  1  0.34689100  0.15310900  0.48406900  1
  Ca  Ca2  1  0.15310900  0.65310900  0.51593100  1
  Ca  Ca3  1  0.84689100  0.34689100  0.51593100  1
  Mg  Mg0  1  0.00000000  0.00000000  0.50000000  1
  Mg  Mg1  1  0.50000000  0.50000000  0.50000000  1
  Si  Si0  1  0.85296700  0.64703300  0.09358300  1
  Si  Si1  1  0.14703300  0.35296700  0.09358300  1
  Si  Si2  1  0.64703300  0.14703300  0.90641700  1
  Si  Si3  1  0.35296700  0.85296700  0.90641700  1
  O  O0  1  0.08038200  0.18302600  0.25809600  1
  O  O1  1  0.91961800  0.81697400  0.25809600  1
  O  O2  1  0.68302600  0.58038200  0.25809600  1
  O  O3  1  0.31697400  0.41961800  0.25809600  1
  O  O4  1  0.85185300  0.64814700  0.76305000  1
  O  O5  1  0.14814700  0.35185300  0.76305000  1
  O  O6  1  0.50000000  0.00000000  0.81042300  1
  O  O7  1  0.00000000  0.50000000  0.18957700  1
  O  O8  1  0.35185300  0.85185300  0.23695000  1
  O  O9  1  0.64814700  0.14814700  0.23695000  1
  O  O10  1  0.81697400  0.08038200  0.74190400  1
  O  O11  1  0.18302600  0.91961800  0.74190400  1
  O  O12  1  0.41961800  0.68302600  0.74190400  1
  O  O13  1  0.58038200  0.31697400  0.74190400  1
loop_
_geom_bond_atom_site_label_1
_geom_bond_atom_site_label_2
_geom_bond_distance
_geom_bond_site_symmetry_2
Ca0 O6 2.324078 1_565
Ca0 O1 2.370848 1_555
Ca0 O2 2.370848 1_555
Ca0 O10 2.562396 1_565
Ca0 O12 2.562396 1_555
Ca0 O4 2.586465 1_555
Ca0 O8 2.648472 1_555
Ca0 O9 2.648472 1_565
Ca1 O6 2.324078 1_555
Ca1 O3 2.370848 1_555
Ca1 O0 2.370848 1_555
Ca1 O13 2.562396 1_555
Ca1 O11 2.562396 1_545
Ca1 O5 2.586465 1_555
Ca1 O9 2.648472 1_555
Ca1 O8 2.648472 1_545
Ca2 O7 2.324078 1_555
Ca2 O12 2.370848 1_555
Ca2 O11 2.370848 1_555
Ca2 O1 2.562396 1_455
Ca2 O3 2.562396 1_555
Ca2 O8 2.586465 1_555
Ca2 O4 2.648472 1_455
Ca2 O5 2.648472 1_555
Ca3 O7 2.324078 1_655
Ca3 O13 2.370848 1_555
Ca3 O10 2.370848 1_555
Ca3 O2 2.562396 1_555
Ca3 O0 2.562396 1_655
Ca3 O9 2.586465 1_555
Ca3 O5 2.648472 1_655
Ca3 O4 2.648472 1_555
Mg0 O11 1.959136 1_545
Mg0 O0 1.959136 1_555
Mg0 O1 1.959136 1_445
Mg0 O10 1.959136 1_455
Mg1 O2 1.959136 1_555
Mg1 O13 1.959136 1_555
Mg1 O12 1.959136 1_555
Mg1 O3 1.959136 1_555
O0 Si1 1.638611 1_555
O1 Si0 1.638611 1_555
O2 Si0 1.638611 1_555
O3 Si1 1.638611 1_555
O4 Si0 1.610031 1_556
O5 Si1 1.610031 1_556
O6 Si2 1.693940 1_555
O6 Si3 1.693940 1_545
O7 Si0 1.693940 1_455
O7 Si1 1.693940 1_555
O8 Si3 1.610031 1_554
O9 Si2 1.610031 1_554
O10 Si2 1.638611 1_555
O11 Si3 1.638611 1_555
O12 Si3 1.638611 1_555
O13 Si2 1.638611 1_555
