# generated using pymatgen
data_FePbC5N6O
_symmetry_space_group_name_H-M   'P 1'
_cell_length_a   8.01466500
_cell_length_b   9.27638200
_cell_length_c   13.32580500
_cell_angle_alpha   90.00000000
_cell_angle_beta   90.00000000
_cell_angle_gamma   90.00000000
_symmetry_Int_Tables_number   1
_chemical_formula_structural   FePbC5N6O
_chemical_formula_sum   'Fe4 Pb4 C20 N24 O4'
_cell_volume   990.73487885
_cell_formula_units_Z   4
loop_
 _symmetry_equiv_pos_site_id
 _symmetry_equiv_pos_as_xyz
  1  'x, y, z'
loop_
 _atom_site_type_symbol
 _atom_site_label
 _atom_site_symmetry_multiplicity
 _atom_site_fract_x
 _atom_site_fract_y
 _atom_site_fract_z
 _atom_site_occupancy
  Fe  Fe0  1  0.75000000  0.85807800  0.21848100  1
  Fe  Fe1  1  0.75000000  0.64192200  0.71848100  1
  Fe  Fe2  1  0.25000000  0.35807800  0.28151900  1
  Fe  Fe3  1  0.25000000  0.14192200  0.78151900  1
  Pb  Pb0  1  0.75000000  0.35802800  0.00774300  1
  Pb  Pb1  1  0.25000000  0.64197200  0.99225700  1
  Pb  Pb2  1  0.75000000  0.14197200  0.50774300  1
  Pb  Pb3  1  0.25000000  0.85802800  0.49225700  1
  C  C0  1  0.92059800  0.82518900  0.11965500  1
  C  C1  1  0.41794900  0.42196200  0.18892800  1
  C  C2  1  0.57940200  0.67481100  0.61965500  1
  C  C3  1  0.58205100  0.92196200  0.31107200  1
  C  C4  1  0.41794900  0.07803800  0.68892800  1
  C  C5  1  0.07940200  0.32518900  0.38034500  1
  C  C6  1  0.42059800  0.32518900  0.38034500  1
  C  C7  1  0.42059800  0.17481100  0.88034500  1
  C  C8  1  0.08205100  0.07803800  0.68892800  1
  C  C9  1  0.75000000  0.05379700  0.16770900  1
  C  C10  1  0.08205100  0.42196200  0.18892800  1
  C  C11  1  0.25000000  0.55379700  0.33229100  1
  C  C12  1  0.92059800  0.67481100  0.61965500  1
  C  C13  1  0.07940200  0.17481100  0.88034500  1
  C  C14  1  0.91794900  0.92196200  0.31107200  1
  C  C15  1  0.91794900  0.57803800  0.81107200  1
  C  C16  1  0.58205100  0.57803800  0.81107200  1
  C  C17  1  0.57940200  0.82518900  0.11965500  1
  C  C18  1  0.25000000  0.94620300  0.83229100  1
  C  C19  1  0.75000000  0.44620300  0.66770900  1
  N  N0  1  0.98274000  0.04154300  0.62926300  1
  N  N1  1  0.47359100  0.80421400  0.06073600  1
  N  N2  1  0.75000000  0.17076900  0.13527300  1
  N  N3  1  0.52640900  0.30421400  0.43926400  1
  N  N4  1  0.02640900  0.69578600  0.56073600  1
  N  N5  1  0.52640900  0.19578600  0.93926400  1
  N  N6  1  0.48274000  0.54154300  0.87073700  1
  N  N7  1  0.51726000  0.04154300  0.62926300  1
  N  N8  1  0.25000000  0.82923100  0.86472700  1
  N  N9  1  0.97359100  0.19578600  0.93926400  1
  N  N10  1  0.98274000  0.45845700  0.12926300  1
  N  N11  1  0.25000000  0.30797300  0.73337000  1
  N  N12  1  0.75000000  0.80797300  0.76663000  1
  N  N13  1  0.25000000  0.19202700  0.23337000  1
  N  N14  1  0.25000000  0.67076900  0.36472700  1
  N  N15  1  0.47359100  0.69578600  0.56073600  1
  N  N16  1  0.75000000  0.32923100  0.63527300  1
  N  N17  1  0.51726000  0.45845700  0.12926300  1
  N  N18  1  0.01726000  0.95845700  0.37073700  1
  N  N19  1  0.48274000  0.95845700  0.37073700  1
  N  N20  1  0.75000000  0.69202700  0.26663000  1
  N  N21  1  0.01726000  0.54154300  0.87073700  1
  N  N22  1  0.97359100  0.30421400  0.43926400  1
  N  N23  1  0.02640900  0.80421400  0.06073600  1
  O  O0  1  0.25000000  0.41750900  0.69351900  1
  O  O1  1  0.75000000  0.91750900  0.80648100  1
  O  O2  1  0.75000000  0.58249100  0.30648100  1
  O  O3  1  0.25000000  0.08249100  0.19351900  1
loop_
_geom_bond_atom_site_label_1
_geom_bond_atom_site_label_2
_geom_bond_distance
_geom_bond_site_symmetry_2
Fe0 N20 1.668642 1_555
Fe1 N12 1.668642 1_555
Fe2 N13 1.668642 1_555
Fe3 N11 1.668642 1_555
C0 N23 1.171955 1_655
C0 Fe0 1.922725 1_555
C1 N17 1.174860 1_555
C1 Fe2 1.919750 1_555
C2 N15 1.171955 1_555
C2 Fe1 1.922725 1_555
C3 N19 1.174860 1_555
C3 Fe0 1.919750 1_555
C4 N7 1.174860 1_555
C4 Fe3 1.919750 1_555
C5 N22 1.171955 1_455
C5 Fe2 1.922725 1_555
C6 N3 1.171955 1_555
C6 Fe2 1.922725 1_555
C7 N5 1.171955 1_555
C7 Fe3 1.922725 1_555
C8 N0 1.174860 1_455
C8 Fe3 1.919750 1_555
C9 N2 1.167998 1_555
C9 Fe0 1.937532 1_545
C10 N10 1.174860 1_455
C10 Fe2 1.919750 1_555
C11 N14 1.167998 1_555
C11 Fe2 1.937532 1_555
C12 N4 1.171955 1_655
C12 Fe1 1.922725 1_555
C13 N9 1.171955 1_455
C13 Fe3 1.922725 1_555
C14 N18 1.174860 1_655
C14 Fe0 1.919750 1_555
C15 N21 1.174860 1_655
C15 Fe1 1.919750 1_555
C16 N6 1.174860 1_555
C16 Fe1 1.919750 1_555
C17 N1 1.171955 1_555
C17 Fe0 1.922725 1_555
C18 N8 1.167998 1_555
C18 Fe3 1.937532 1_565
C19 N16 1.167998 1_555
C19 Fe1 1.937532 1_555
N0 Pb2 2.640015 1_555
N1 Pb1 2.511791 1_554
N2 Pb0 2.430137 1_555
N3 Pb2 2.511791 1_555
N4 Pb3 2.511791 1_555
N5 Pb0 2.511791 1_556
N6 Pb1 2.640015 1_555
N7 Pb2 2.640015 1_555
N8 Pb1 2.430137 1_555
N9 Pb0 2.511791 1_556
N10 Pb0 2.640015 1_555
N11 O0 1.146501 1_555
N12 O1 1.146501 1_555
N13 O3 1.146501 1_555
N14 Pb3 2.430137 1_555
N15 Pb3 2.511791 1_555
N16 Pb2 2.430137 1_555
N17 Pb0 2.640015 1_555
N18 Pb3 2.640015 1_555
N19 Pb3 2.640015 1_555
N20 O2 1.146501 1_555
N21 Pb1 2.640015 1_555
N22 Pb2 2.511791 1_555
N23 Pb1 2.511791 1_554
