# generated using pymatgen
data_Ca3Al4Si8(ClO12)2
_symmetry_space_group_name_H-M   'P 1'
_cell_length_a   9.41719800
_cell_length_b   9.48640583
_cell_length_c   9.57448501
_cell_angle_alpha   95.54620694
_cell_angle_beta   94.21019450
_cell_angle_gamma   95.18288289
_symmetry_Int_Tables_number   1
_chemical_formula_structural   Ca3Al4Si8(ClO12)2
_chemical_formula_sum   'Ca3 Al4 Si8 Cl2 O24'
_cell_volume   844.93870778
_cell_formula_units_Z   1
loop_
 _symmetry_equiv_pos_site_id
 _symmetry_equiv_pos_as_xyz
  1  'x, y, z'
loop_
 _atom_site_type_symbol
 _atom_site_label
 _atom_site_symmetry_multiplicity
 _atom_site_fract_x
 _atom_site_fract_y
 _atom_site_fract_z
 _atom_site_occupancy
  Ca  Ca0  1  0.97839700  0.97805600  0.05380700  1
  Ca  Ca1  1  0.78137500  0.74875700  0.79356900  1
  Ca  Ca2  1  0.24066600  0.20990000  0.23439600  1
  Al  Al0  1  0.10160800  0.88498700  0.33442400  1
  Al  Al1  1  0.66936000  0.88729900  0.10858500  1
  Al  Al2  1  0.11972300  0.65693400  0.88684000  1
  Al  Al3  1  0.88373700  0.32293700  0.10984300  1
  Si  Si0  1  0.32677900  0.88220900  0.09524800  1
  Si  Si1  1  0.10333500  0.87603500  0.67149100  1
  Si  Si2  1  0.88407300  0.66900200  0.10781700  1
  Si  Si3  1  0.10724200  0.30777400  0.88527700  1
  Si  Si4  1  0.89247100  0.11683200  0.33393200  1
  Si  Si5  1  0.32463400  0.09112700  0.87622400  1
  Si  Si6  1  0.88985700  0.10635200  0.66991700  1
  Si  Si7  1  0.67076000  0.10539400  0.88741800  1
  Cl  Cl0  1  0.41896100  0.23111300  0.43440100  1
  Cl  Cl1  1  0.64154500  0.54955700  0.64974500  1
  O  O0  1  0.78955800  0.00263400  0.22451100  1
  O  O1  1  0.24813500  0.88885100  0.23769700  1
  O  O2  1  0.72117300  0.95352900  0.94299800  1
  O  O3  1  0.95240000  0.95408500  0.71345700  1
  O  O4  1  0.49542800  0.90291100  0.12773100  1
  O  O5  1  0.12021600  0.87092200  0.50896200  1
  O  O6  1  0.07763000  0.72068300  0.72447700  1
  O  O7  1  0.72393000  0.71687400  0.07354900  1
  O  O8  1  0.96545700  0.77532400  0.23637000  1
  O  O9  1  0.26820100  0.75526700  0.97716400  1
  O  O10  1  0.96513500  0.72353700  0.96722300  1
  O  O11  1  0.12400700  0.47630400  0.89126600  1
  O  O12  1  0.89383800  0.50403700  0.11597100  1
  O  O13  1  0.04299400  0.24973600  0.03222800  1
  O  O14  1  0.00154800  0.23576900  0.74715900  1
  O  O15  1  0.26578500  0.24732100  0.87770400  1
  O  O16  1  0.89760500  0.27314700  0.28184600  1
  O  O17  1  0.74218400  0.23300800  0.99863200  1
  O  O18  1  0.87120600  0.10757800  0.50069800  1
  O  O19  1  0.49626700  0.09996300  0.86858300  1
  O  O20  1  0.27756100  0.03803100  0.03103200  1
  O  O21  1  0.05294500  0.06220300  0.30029900  1
  O  O22  1  0.73325600  0.10659200  0.73142800  1
  O  O23  1  0.23902000  0.97742700  0.75608000  1
loop_
_geom_bond_atom_site_label_1
_geom_bond_atom_site_label_2
_geom_bond_distance
_geom_bond_site_symmetry_2
Ca0 O21 2.447681 1_665
Ca0 O10 2.464938 1_554
Ca0 O0 2.513190 1_565
Ca0 O2 2.553530 1_554
Ca0 O13 2.625485 1_665
Ca0 O8 2.721688 1_555
Ca0 O20 2.851832 1_665
Ca1 O10 2.354890 1_555
Ca1 O2 2.433658 1_555
Ca1 Cl1 2.445883 1_555
Ca1 O3 2.622921 1_555
Ca1 O7 2.812504 1_556
Ca1 O6 2.943332 1_655
Ca2 O21 2.318098 1_555
Ca2 Cl0 2.432909 1_555
Ca2 O20 2.481582 1_555
Ca2 O13 2.663499 1_555
Al0 O5 1.686846 1_555
Al0 O1 1.717015 1_555
Al0 O8 1.732351 1_455
Al0 O21 1.834771 1_565
Al1 O4 1.679611 1_555
Al1 O7 1.749568 1_555
Al1 O0 1.751380 1_565
Al1 O2 1.843118 1_554
Al2 O11 1.722173 1_555
Al2 O9 1.733208 1_555
Al2 O6 1.753284 1_555
Al2 O10 1.829627 1_455
Al3 O12 1.707087 1_555
Al3 O17 1.746160 1_554
Al3 O16 1.755606 1_555
Al3 O13 1.880363 1_655
O0 Si4 1.628581 1_555
O1 Si0 1.597735 1_555
O2 Si7 1.678903 1_565
O3 Si6 1.685590 1_565
O3 Si1 1.716533 1_655
O4 Si0 1.586503 1_555
O5 Si1 1.572354 1_555
O6 Si1 1.608088 1_555
O7 Si2 1.633442 1_555
O8 Si2 1.612914 1_555
O9 Si0 1.599355 1_556
O10 Si2 1.696041 1_556
O11 Si3 1.587307 1_555
O12 Si2 1.584962 1_555
O13 Si3 1.692140 1_554
O14 Si6 1.624034 1_455
O14 Si3 1.647831 1_555
O15 Si5 1.627353 1_555
O15 Si3 1.651009 1_555
O16 Si4 1.607315 1_555
O17 Si7 1.596980 1_555
O18 Si6 1.618089 1_555
O18 Si4 1.633439 1_555
O19 Si5 1.618296 1_555
O19 Si7 1.635480 1_555
O20 Si5 1.687483 1_554
O20 Si0 1.742273 1_545
O21 Si4 1.684258 1_455
O22 Si6 1.627757 1_555
O22 Si7 1.645678 1_555
O23 Si5 1.613544 1_565
O23 Si1 1.639880 1_555
