# generated using pymatgen
data_Ce3LuSe6
_symmetry_space_group_name_H-M   'P 1'
_cell_length_a   4.10090700
_cell_length_b   14.52152800
_cell_length_c   17.57191000
_cell_angle_alpha   90.00000000
_cell_angle_beta   90.00000000
_cell_angle_gamma   90.00000000
_symmetry_Int_Tables_number   1
_chemical_formula_structural   Ce3LuSe6
_chemical_formula_sum   'Ce12 Lu4 Se24'
_cell_volume   1046.43247070
_cell_formula_units_Z   4
loop_
 _symmetry_equiv_pos_site_id
 _symmetry_equiv_pos_as_xyz
  1  'x, y, z'
loop_
 _atom_site_type_symbol
 _atom_site_label
 _atom_site_symmetry_multiplicity
 _atom_site_fract_x
 _atom_site_fract_y
 _atom_site_fract_z
 _atom_site_occupancy
  Ce  Ce0  1  0.00000000  0.74908600  0.60036700  1
  Ce  Ce1  1  0.50000000  0.24908600  0.89963300  1
  Ce  Ce2  1  0.50000000  0.68113800  0.84897400  1
  Ce  Ce3  1  0.00000000  0.18113800  0.65102600  1
  Ce  Ce4  1  0.00000000  0.04822000  0.21912800  1
  Ce  Ce5  1  0.50000000  0.54822000  0.28087200  1
  Ce  Ce6  1  0.00000000  0.25091400  0.39963300  1
  Ce  Ce7  1  0.50000000  0.75091400  0.10036700  1
  Ce  Ce8  1  0.00000000  0.95178000  0.78087200  1
  Ce  Ce9  1  0.50000000  0.31886200  0.15102600  1
  Ce  Ce10  1  0.50000000  0.45178000  0.71912800  1
  Ce  Ce11  1  0.00000000  0.81886200  0.34897400  1
  Lu  Lu0  1  0.50000000  0.00000000  0.50000000  1
  Lu  Lu1  1  0.00000000  0.50000000  0.00000000  1
  Lu  Lu2  1  0.50000000  0.00000000  0.00000000  1
  Lu  Lu3  1  0.00000000  0.50000000  0.50000000  1
  Se  Se0  1  0.50000000  0.59215300  0.57942000  1
  Se  Se1  1  0.00000000  0.02287200  0.39356100  1
  Se  Se2  1  0.50000000  0.81070200  0.47632900  1
  Se  Se3  1  0.50000000  0.52287200  0.10643900  1
  Se  Se4  1  0.50000000  0.87475600  0.88795600  1
  Se  Se5  1  0.50000000  0.89540200  0.24617300  1
  Se  Se6  1  0.00000000  0.68929800  0.97632900  1
  Se  Se7  1  0.00000000  0.39540200  0.25382700  1
  Se  Se8  1  0.50000000  0.12524400  0.11204400  1
  Se  Se9  1  0.00000000  0.68613900  0.21031200  1
  Se  Se10  1  0.50000000  0.10459800  0.75382700  1
  Se  Se11  1  0.50000000  0.40784700  0.42058000  1
  Se  Se12  1  0.00000000  0.31070200  0.02367100  1
  Se  Se13  1  0.00000000  0.62524400  0.38795600  1
  Se  Se14  1  0.50000000  0.18929800  0.52367100  1
  Se  Se15  1  0.00000000  0.09215300  0.92058000  1
  Se  Se16  1  0.50000000  0.18613900  0.28968800  1
  Se  Se17  1  0.50000000  0.47712800  0.89356100  1
  Se  Se18  1  0.00000000  0.60459800  0.74617300  1
  Se  Se19  1  0.50000000  0.81386100  0.71031200  1
  Se  Se20  1  0.00000000  0.97712800  0.60643900  1
  Se  Se21  1  0.00000000  0.31386100  0.78968800  1
  Se  Se22  1  0.00000000  0.37475600  0.61204400  1
  Se  Se23  1  0.00000000  0.90784700  0.07942000  1
loop_
_geom_bond_atom_site_label_1
_geom_bond_atom_site_label_2
_geom_bond_distance
_geom_bond_site_symmetry_2
Ce0 Se19 2.970110 1_555
Ce0 Se19 2.970110 1_455
Ce0 Se0 3.087598 1_455
Ce0 Se0 3.087598 1_555
Ce0 Se2 3.123386 1_455
Ce0 Se2 3.123386 1_555
Ce0 Se18 3.311600 1_555
Ce0 Se20 3.313237 1_555
Ce1 Se21 2.970110 1_555
Ce1 Se21 2.970110 1_655
Ce1 Se15 3.087598 1_555
Ce1 Se15 3.087598 1_655
Ce1 Se12 3.123386 1_656
Ce1 Se12 3.123386 1_556
Ce1 Se10 3.311600 1_555
Ce1 Se17 3.313237 1_555
Ce2 Se4 2.893867 1_555
Ce2 Se18 2.950061 1_555
Ce2 Se18 2.950061 1_655
Ce2 Se6 3.037510 1_655
Ce2 Se6 3.037510 1_555
Ce2 Se17 3.064386 1_555
Ce2 Se19 3.106678 1_555
Ce3 Se22 2.893867 1_555
Ce3 Se10 2.950061 1_455
Ce3 Se10 2.950061 1_555
Ce3 Se14 3.037510 1_555
Ce3 Se14 3.037510 1_455
Ce3 Se20 3.064386 1_545
Ce3 Se21 3.106678 1_555
Ce4 Se8 2.999350 1_555
Ce4 Se8 2.999350 1_455
Ce4 Se5 3.058568 1_445
Ce4 Se5 3.058568 1_545
Ce4 Se1 3.087144 1_555
Ce4 Se16 3.122953 1_455
Ce4 Se16 3.122953 1_555
Ce4 Se23 3.190911 1_545
Ce5 Se13 2.999350 1_555
Ce5 Se13 2.999350 1_655
Ce5 Se7 3.058568 1_555
Ce5 Se7 3.058568 1_655
Ce5 Se3 3.087144 1_555
Ce5 Se9 3.122953 1_655
Ce5 Se9 3.122953 1_555
Ce5 Se11 3.190911 1_555
Ce6 Se16 2.970110 1_455
Ce6 Se16 2.970110 1_555
Ce6 Se11 3.087598 1_455
Ce6 Se11 3.087598 1_555
Ce6 Se14 3.123386 1_455
Ce6 Se14 3.123386 1_555
Ce6 Se7 3.311600 1_555
Ce6 Se1 3.313237 1_555
Ce7 Se9 2.970110 1_655
Ce7 Se9 2.970110 1_555
Ce7 Se23 3.087598 1_655
Ce7 Se23 3.087598 1_555
Ce7 Se6 3.123386 1_654
Ce7 Se6 3.123386 1_554
Ce7 Se5 3.311600 1_555
Ce7 Se3 3.313237 1_555
Ce8 Se4 2.999350 1_455
Ce8 Se4 2.999350 1_555
Ce8 Se10 3.058568 1_565
Ce8 Se10 3.058568 1_465
Ce8 Se20 3.087144 1_555
Ce8 Se19 3.122953 1_555
Ce8 Se19 3.122953 1_455
Ce8 Se15 3.190911 1_565
Ce9 Se8 2.893867 1_555
Ce9 Se7 2.950061 1_555
Ce9 Se7 2.950061 1_655
Ce9 Se12 3.037510 1_555
Ce9 Se12 3.037510 1_655
Ce9 Se3 3.064386 1_555
Ce9 Se16 3.106678 1_555
Ce10 Se22 2.999350 1_555
Ce10 Se22 2.999350 1_655
Ce10 Se18 3.058568 1_655
Ce10 Se18 3.058568 1_555
Ce10 Se17 3.087144 1_555
Ce10 Se21 3.122953 1_555
Ce10 Se21 3.122953 1_655
Ce10 Se0 3.190911 1_555
Ce11 Se13 2.893867 1_555
Ce11 Se5 2.950061 1_555
Ce11 Se5 2.950061 1_455
Ce11 Se2 3.037510 1_555
Ce11 Se2 3.037510 1_455
Ce11 Se1 3.064386 1_565
Ce11 Se9 3.106678 1_555
Lu0 Se14 2.780187 1_555
Lu0 Se2 2.780187 1_545
Lu0 Se20 2.795145 1_545
Lu0 Se20 2.795145 1_645
Lu0 Se1 2.795145 1_655
Lu0 Se1 2.795145 1_555
Lu1 Se12 2.780187 1_555
Lu1 Se6 2.780187 1_554
Lu1 Se3 2.795145 1_555
Lu1 Se3 2.795145 1_455
Lu1 Se17 2.795145 1_554
Lu1 Se17 2.795145 1_454
Lu2 Se8 2.680312 1_555
Lu2 Se4 2.680312 1_544
Lu2 Se15 2.818286 1_554
Lu2 Se15 2.818286 1_654
Lu2 Se23 2.818286 1_645
Lu2 Se23 2.818286 1_545
Lu3 Se22 2.680312 1_555
Lu3 Se13 2.680312 1_555
Lu3 Se0 2.818286 1_455
Lu3 Se0 2.818286 1_555
Lu3 Se11 2.818286 1_555
Lu3 Se11 2.818286 1_455
