# generated using pymatgen
data_Sr2CuCO5
_symmetry_space_group_name_H-M   'P 1'
_cell_length_a   9.45830827
_cell_length_b   9.45830827
_cell_length_c   9.45830827
_cell_angle_alpha   130.83845338
_cell_angle_beta   130.83845338
_cell_angle_gamma   72.06986868
_symmetry_Int_Tables_number   1
_chemical_formula_structural   Sr2CuCO5
_chemical_formula_sum   'Sr8 Cu4 C4 O20'
_cell_volume   473.58872368
_cell_formula_units_Z   4
loop_
 _symmetry_equiv_pos_site_id
 _symmetry_equiv_pos_as_xyz
  1  'x, y, z'
loop_
 _atom_site_type_symbol
 _atom_site_label
 _atom_site_symmetry_multiplicity
 _atom_site_fract_x
 _atom_site_fract_y
 _atom_site_fract_z
 _atom_site_occupancy
  Sr  Sr0  1  0.12750500  0.12750500  0.00000000  1
  Sr  Sr1  1  0.87249500  0.87249500  0.00000000  1
  Sr  Sr2  1  0.35018600  0.35018600  0.00000000  1
  Sr  Sr3  1  0.64981400  0.64981400  0.00000000  1
  Sr  Sr4  1  0.13423300  0.63423300  0.50000000  1
  Sr  Sr5  1  0.36576700  0.86576700  0.50000000  1
  Sr  Sr6  1  0.86576700  0.36576700  0.50000000  1
  Sr  Sr7  1  0.63423300  0.13423300  0.50000000  1
  Cu  Cu0  1  0.50000000  0.00000000  0.00000000  1
  Cu  Cu1  1  0.50000000  0.50000000  0.50000000  1
  Cu  Cu2  1  0.00000000  0.00000000  0.50000000  1
  Cu  Cu3  1  0.00000000  0.50000000  0.00000000  1
  C  C0  1  0.73670100  0.25034000  0.98704100  1
  C  C1  1  0.26329900  0.74966000  0.01295900  1
  C  C2  1  0.74966000  0.73670100  0.48636100  1
  C  C3  1  0.25034000  0.26329900  0.51363900  1
  O  O0  1  0.08361000  0.26723000  0.35084000  1
  O  O1  1  0.26723000  0.91639000  0.18362000  1
  O  O2  1  0.73277000  0.08361000  0.81638000  1
  O  O3  1  0.91639000  0.73277000  0.64916000  1
  O  O4  1  0.40415900  0.33387800  0.59516800  1
  O  O5  1  0.19100800  0.59584100  0.92971800  1
  O  O6  1  0.66612200  0.26129000  0.07028200  1
  O  O7  1  0.73871000  0.80899200  0.40483200  1
  O  O8  1  0.33387800  0.73871000  0.92971800  1
  O  O9  1  0.80899200  0.40415900  0.07028200  1
  O  O10  1  0.26129000  0.19100800  0.59516800  1
  O  O11  1  0.59584100  0.66612200  0.40483200  1
  O  O12  1  0.98825600  0.23784900  0.75170900  1
  O  O13  1  0.76345200  0.01174400  0.24959300  1
  O  O14  1  0.76215100  0.51386000  0.75040700  1
  O  O15  1  0.48614000  0.23654800  0.24829100  1
  O  O16  1  0.51386000  0.76345200  0.75170900  1
  O  O17  1  0.23784900  0.48614000  0.24959300  1
  O  O18  1  0.23654800  0.98825600  0.75040700  1
  O  O19  1  0.01174400  0.76215100  0.24829100  1
loop_
_geom_bond_atom_site_label_1
_geom_bond_atom_site_label_2
_geom_bond_distance
_geom_bond_site_symmetry_2
Cu0 O15 1.971860 1_555
Cu0 O16 1.971860 1_544
Cu0 O18 1.982047 1_544
Cu0 O13 1.982047 1_555
Cu1 O17 1.971857 1_555
Cu1 O14 1.971857 1_555
Cu1 O15 1.982047 1_555
Cu1 O16 1.982047 1_555
Cu2 O13 1.971860 1_455
Cu2 O18 1.971860 1_545
Cu2 O19 1.982051 1_545
Cu2 O12 1.982051 1_455
Cu3 O19 1.971857 1_555
Cu3 O12 1.971857 1_454
Cu3 O14 1.982051 1_454
Cu3 O17 1.982051 1_555
C0 O9 1.270583 1_556
C0 O6 1.270591 1_556
C0 O2 1.312338 1_555
C1 O5 1.270583 1_554
C1 O8 1.270591 1_554
C1 O1 1.312338 1_555
C2 O11 1.270583 1_555
C2 O7 1.270591 1_555
C2 O3 1.312338 1_555
C3 O4 1.270583 1_555
C3 O10 1.270591 1_555
C3 O0 1.312338 1_555
O0 Sr4 2.829147 1_555
O0 Sr6 2.829147 1_455
O0 Sr0 2.942595 1_555
O0 Sr1 2.942595 1_445
O1 Sr7 2.829147 1_565
O1 Sr5 2.829147 1_555
O1 Sr0 2.942595 1_565
O1 Sr1 2.942595 1_455
O2 Sr7 2.829147 1_555
O2 Sr5 2.829147 1_545
O2 Sr0 2.942595 1_656
O2 Sr1 2.942595 1_546
O3 Sr4 2.829147 1_655
O3 Sr6 2.829147 1_555
O3 Sr0 2.942595 1_666
O3 Sr1 2.942595 1_556
O4 Sr3 2.581545 1_556
O4 Sr7 2.630614 1_555
O5 Sr2 2.581551 1_556
O5 Sr6 2.630608 1_455
O6 Sr2 2.581542 1_555
O6 Sr6 2.630607 1_555
O7 Sr3 2.581542 1_555
O7 Sr7 2.630607 1_565
O8 Sr3 2.581542 1_556
O8 Sr4 2.630607 1_555
O9 Sr3 2.581551 1_555
O9 Sr4 2.630608 1_655
O10 Sr2 2.581542 1_556
O10 Sr5 2.630607 1_545
O11 Sr2 2.581545 1_555
O11 Sr5 2.630614 1_555
O12 Sr7 2.526580 1_555
O12 Sr0 2.579320 1_656
O12 Sr2 2.612391 1_656
O12 Sr6 2.787617 1_555
O13 Sr6 2.526581 1_555
O13 Sr1 2.579328 1_545
O13 Sr3 2.612389 1_545
O13 Sr7 2.787608 1_555
O14 Sr6 2.526580 1_555
O14 Sr1 2.579320 1_556
O14 Sr3 2.612391 1_556
O14 Sr7 2.787617 1_555
O15 Sr7 2.526587 1_555
O15 Sr0 2.579322 1_555
O15 Sr2 2.612383 1_555
O15 Sr6 2.787614 1_555
O16 Sr5 2.526587 1_555
O16 Sr1 2.579322 1_556
O16 Sr3 2.612383 1_556
O16 Sr4 2.787614 1_555
O17 Sr4 2.526580 1_555
O17 Sr0 2.579320 1_555
O17 Sr2 2.612391 1_555
O17 Sr5 2.787617 1_555
O18 Sr4 2.526581 1_555
O18 Sr0 2.579328 1_566
O18 Sr2 2.612389 1_566
O18 Sr5 2.787608 1_555
O19 Sr5 2.526580 1_555
O19 Sr1 2.579320 1_455
O19 Sr3 2.612391 1_455
O19 Sr4 2.787617 1_555
