# generated using pymatgen
data_Ti7Co3N10
_symmetry_space_group_name_H-M   'P 1'
_cell_length_a   7.95088896
_cell_length_b   7.95088896
_cell_length_c   7.95088896
_cell_angle_alpha   143.54095172
_cell_angle_beta   140.67847615
_cell_angle_gamma   54.69814704
_symmetry_Int_Tables_number   1
_chemical_formula_structural   Ti7Co3N10
_chemical_formula_sum   'Ti7 Co3 N10'
_cell_volume   187.95387828
_cell_formula_units_Z   1
loop_
 _symmetry_equiv_pos_site_id
 _symmetry_equiv_pos_as_xyz
  1  'x, y, z'
loop_
 _atom_site_type_symbol
 _atom_site_label
 _atom_site_symmetry_multiplicity
 _atom_site_fract_x
 _atom_site_fract_y
 _atom_site_fract_z
 _atom_site_occupancy
  Ti  Ti0  1  0.90180200  0.40828600  0.50648400  1
  Ti  Ti1  1  0.80126000  0.80393400  0.00267500  1
  Ti  Ti2  1  0.60162000  0.59330100  0.99168100  1
  Ti  Ti3  1  0.50000000  0.99681000  0.49681000  1
  Ti  Ti4  1  0.39838000  0.39006100  0.99168100  1
  Ti  Ti5  1  0.19874000  0.20141500  0.00267500  1
  Ti  Ti6  1  0.09819800  0.60468100  0.50648400  1
  Co  Co0  1  0.00000000  0.05944900  0.05944900  1
  Co  Co1  1  0.70461900  0.20937800  0.50475900  1
  Co  Co2  1  0.29538100  0.80014000  0.50475900  1
  N  N0  1  0.95209700  0.86587400  0.41863000  1
  N  N1  1  0.85349800  0.26782400  0.92407600  1
  N  N2  1  0.73759800  0.64770000  0.38529800  1
  N  N3  1  0.65625300  0.07057800  0.92407600  1
  N  N4  1  0.55275600  0.46653300  0.41863000  1
  N  N5  1  0.44724400  0.86587400  0.91377700  1
  N  N6  1  0.34374700  0.26782400  0.41432500  1
  N  N7  1  0.26240200  0.64770000  0.91010300  1
  N  N8  1  0.14650200  0.07057800  0.41432500  1
  N  N9  1  0.04790300  0.46653300  0.91377700  1
loop_
_geom_bond_atom_site_label_1
_geom_bond_atom_site_label_2
_geom_bond_distance
_geom_bond_site_symmetry_2
Co0 N8 1.989565 1_555
Co0 N3 1.989565 1_454
Co0 N6 1.989569 1_555
Co0 N1 1.989572 1_454
Co0 N7 2.483175 1_544
Co0 N2 2.483176 1_444
Co1 N4 2.055946 1_555
Co1 N9 2.055946 1_655
Co1 N5 2.159883 1_544
Co1 N0 2.159883 1_545
Co1 N1 2.184030 1_555
Co1 N6 2.184033 1_555
Co2 N5 2.055946 1_555
Co2 N0 2.055946 1_455
Co2 N4 2.159883 1_555
Co2 N9 2.159883 1_554
Co2 N3 2.184035 1_565
Co2 N8 2.184035 1_565
N0 Ti6 2.107107 1_655
N0 Ti2 2.120271 1_554
N0 Ti1 2.131785 1_555
N0 Ti5 2.134506 1_666
N1 Ti5 2.098993 1_656
N1 Ti2 2.105850 1_555
N1 Ti6 2.129549 1_656
N1 Ti3 2.129617 1_545
N2 Ti2 2.068428 1_554
N2 Ti4 2.068428 1_554
N2 Ti6 2.094778 1_655
N2 Ti0 2.094780 1_555
N2 Ti3 2.152166 1_555
N3 Ti1 2.099003 1_546
N3 Ti4 2.105853 1_555
N3 Ti0 2.129549 1_556
N3 Ti3 2.129613 1_545
N4 Ti0 2.107100 1_555
N4 Ti4 2.120271 1_554
N4 Ti5 2.131791 1_555
N4 Ti1 2.134506 1_556
N5 Ti6 2.107104 1_555
N5 Ti2 2.120271 1_555
N5 Ti1 2.131789 1_556
N5 Ti5 2.134506 1_566
N6 Ti5 2.098990 1_555
N6 Ti2 2.105853 1_555
N6 Ti6 2.129542 1_555
N6 Ti3 2.129621 1_545
N7 Ti4 2.068423 1_555
N7 Ti2 2.068433 1_555
N7 Ti0 2.094778 1_455
N7 Ti6 2.094782 1_555
N7 Ti3 2.152162 1_556
N8 Ti1 2.098999 1_445
N8 Ti4 2.105853 1_555
N8 Ti0 2.129549 1_455
N8 Ti3 2.129613 1_545
N9 Ti0 2.107100 1_455
N9 Ti4 2.120271 1_555
N9 Ti5 2.131791 1_556
N9 Ti1 2.134503 1_456
