# generated using pymatgen
data_Cs3HgI5
_symmetry_space_group_name_H-M   'P 1'
_cell_length_a   10.40034800
_cell_length_b   18.93609700
_cell_length_c   19.33909400
_cell_angle_alpha   90.00000000
_cell_angle_beta   90.00000000
_cell_angle_gamma   90.00000000
_symmetry_Int_Tables_number   1
_chemical_formula_structural   Cs3HgI5
_chemical_formula_sum   'Cs24 Hg8 I40'
_cell_volume   3808.67982273
_cell_formula_units_Z   8
loop_
 _symmetry_equiv_pos_site_id
 _symmetry_equiv_pos_as_xyz
  1  'x, y, z'
loop_
 _atom_site_type_symbol
 _atom_site_label
 _atom_site_symmetry_multiplicity
 _atom_site_fract_x
 _atom_site_fract_y
 _atom_site_fract_z
 _atom_site_occupancy
  Cs  Cs0  1  0.91372900  0.59502700  0.10171000  1
  Cs  Cs1  1  0.92768400  0.35575700  0.31102600  1
  Cs  Cs2  1  0.91372900  0.09502700  0.39829000  1
  Cs  Cs3  1  0.41372900  0.40497300  0.39829000  1
  Cs  Cs4  1  0.58627100  0.59502700  0.60171000  1
  Cs  Cs5  1  0.42768400  0.64424300  0.18897400  1
  Cs  Cs6  1  0.42768400  0.14424300  0.31102600  1
  Cs  Cs7  1  0.08343300  0.68018500  0.42813800  1
  Cs  Cs8  1  0.58343300  0.81981500  0.42813800  1
  Cs  Cs9  1  0.08627100  0.40497300  0.89829000  1
  Cs  Cs10  1  0.58343300  0.31981500  0.07186200  1
  Cs  Cs11  1  0.91656700  0.81981500  0.92813800  1
  Cs  Cs12  1  0.07231600  0.14424300  0.81102600  1
  Cs  Cs13  1  0.08343300  0.18018500  0.07186200  1
  Cs  Cs14  1  0.41656700  0.68018500  0.92813800  1
  Cs  Cs15  1  0.07231600  0.64424300  0.68897400  1
  Cs  Cs16  1  0.57231600  0.35575700  0.81102600  1
  Cs  Cs17  1  0.58627100  0.09502700  0.89829000  1
  Cs  Cs18  1  0.08627100  0.90497300  0.60171000  1
  Cs  Cs19  1  0.92768400  0.85575700  0.18897400  1
  Cs  Cs20  1  0.57231600  0.85575700  0.68897400  1
  Cs  Cs21  1  0.41656700  0.18018500  0.57186200  1
  Cs  Cs22  1  0.41372900  0.90497300  0.10171000  1
  Cs  Cs23  1  0.91656700  0.31981500  0.57186200  1
  Hg  Hg0  1  0.80875000  0.56615700  0.84359000  1
  Hg  Hg1  1  0.80875000  0.06615700  0.65641000  1
  Hg  Hg2  1  0.69125000  0.06615700  0.15641000  1
  Hg  Hg3  1  0.69125000  0.56615700  0.34359000  1
  Hg  Hg4  1  0.19125000  0.43384300  0.15641000  1
  Hg  Hg5  1  0.30875000  0.43384300  0.65641000  1
  Hg  Hg6  1  0.19125000  0.93384300  0.34359000  1
  Hg  Hg7  1  0.30875000  0.93384300  0.84359000  1
  I  I0  1  0.32985600  0.75178600  0.57094400  1
  I  I1  1  0.33213100  0.99672800  0.45201900  1
  I  I2  1  0.36350700  0.52792000  0.76900400  1
  I  I3  1  0.45299300  0.61510700  0.40334300  1
  I  I4  1  0.63649300  0.97208000  0.26900400  1
  I  I5  1  0.33213100  0.49672800  0.04798100  1
  I  I6  1  0.86350700  0.97208000  0.76900400  1
  I  I7  1  0.67014400  0.74821400  0.07094400  1
  I  I8  1  0.45299300  0.11510700  0.09665700  1
  I  I9  1  0.17014400  0.25178600  0.42905600  1
  I  I10  1  0.66786900  0.50327200  0.95201900  1
  I  I11  1  0.86350700  0.47208000  0.73099600  1
  I  I12  1  0.66786900  0.00327200  0.54798100  1
  I  I13  1  0.95299300  0.88489300  0.40334300  1
  I  I14  1  0.13649300  0.02792000  0.23099600  1
  I  I15  1  0.36350700  0.02792000  0.73099600  1
  I  I16  1  0.83213100  0.00327200  0.04798100  1
  I  I17  1  0.04700700  0.11510700  0.59665700  1
  I  I18  1  0.79971800  0.69314000  0.28828800  1
  I  I19  1  0.13649300  0.52792000  0.26900400  1
  I  I20  1  0.82985600  0.74821400  0.57094400  1
  I  I21  1  0.95299300  0.38489300  0.09665700  1
  I  I22  1  0.67014400  0.24821400  0.42905600  1
  I  I23  1  0.79971800  0.19314000  0.21171200  1
  I  I24  1  0.20028200  0.80686000  0.78828800  1
  I  I25  1  0.16786900  0.99672800  0.95201900  1
  I  I26  1  0.04700700  0.61510700  0.90334300  1
  I  I27  1  0.16786900  0.49672800  0.54798100  1
  I  I28  1  0.29971800  0.80686000  0.28828800  1
  I  I29  1  0.29971800  0.30686000  0.21171200  1
  I  I30  1  0.83213100  0.50327200  0.45201900  1
  I  I31  1  0.32985600  0.25178600  0.92905600  1
  I  I32  1  0.63649300  0.47208000  0.23099600  1
  I  I33  1  0.82985600  0.24821400  0.92905600  1
  I  I34  1  0.54700700  0.88489300  0.90334300  1
  I  I35  1  0.17014400  0.75178600  0.07094400  1
  I  I36  1  0.54700700  0.38489300  0.59665700  1
  I  I37  1  0.70028200  0.69314000  0.78828800  1
  I  I38  1  0.20028200  0.30686000  0.71171200  1
  I  I39  1  0.70028200  0.19314000  0.71171200  1
loop_
_geom_bond_atom_site_label_1
_geom_bond_atom_site_label_2
_geom_bond_distance
_geom_bond_site_symmetry_2
Cs0 I7 3.896973 1_555
Cs0 I21 4.001210 1_555
Cs0 I35 4.034511 1_655
Cs0 I26 4.096667 1_654
Cs0 I19 4.177286 1_655
Cs0 I18 4.228142 1_555
Cs0 I10 4.235283 1_554
Cs0 Hg4 4.331946 1_655
Cs0 I32 4.470492 1_555
Cs1 I23 3.865543 1_555
Cs1 I9 3.930043 1_655
Cs1 I19 4.000609 1_655
Cs1 I30 4.028055 1_555
Cs1 I32 4.052041 1_555
Cs1 I22 4.065923 1_555
Cs1 I21 4.190529 1_555
Cs1 Hg4 4.317562 1_655
Cs1 I29 4.417867 1_655
Cs2 I22 3.896973 1_555
Cs2 I13 4.001210 1_545
Cs2 I9 4.034511 1_655
Cs2 I17 4.096667 1_655
Cs2 I14 4.177286 1_655
Cs2 I23 4.228142 1_555
Cs2 I12 4.235283 1_555
Cs2 Hg6 4.331946 1_645
Cs2 I4 4.470492 1_545
Cs3 I9 3.896973 1_555
Cs3 I3 4.001210 1_555
Cs3 I22 4.034511 1_555
Cs3 I36 4.096667 1_555
Cs3 I32 4.177286 1_555
Cs3 I29 4.228142 1_555
Cs3 I27 4.235283 1_555
Cs3 Hg3 4.331946 1_555
Cs3 I19 4.470492 1_555
Cs4 I20 3.896973 1_555
Cs4 I36 4.001210 1_555
Cs4 I0 4.034511 1_555
Cs4 I3 4.096667 1_555
Cs4 I2 4.177286 1_555
Cs4 I37 4.228142 1_555
Cs4 I30 4.235283 1_555
Cs4 Hg5 4.331946 1_555
Cs4 I11 4.470492 1_555
Cs5 I28 3.865543 1_555
Cs5 I7 3.930043 1_555
Cs5 I32 4.000609 1_555
Cs5 I5 4.028055 1_555
Cs5 I19 4.052041 1_555
Cs5 I35 4.065923 1_555
Cs5 I3 4.190529 1_555
Cs5 Hg3 4.317562 1_555
Cs5 I18 4.417867 1_555
Cs6 I29 3.865543 1_555
Cs6 I22 3.930043 1_555
Cs6 I4 4.000609 1_545
Cs6 I1 4.028055 1_545
Cs6 I14 4.052041 1_555
Cs6 I9 4.065923 1_555
Cs6 I8 4.190529 1_555
Cs6 Hg2 4.317562 1_555
Cs6 I23 4.417867 1_555
Cs7 I0 4.004234 1_555
Cs7 I18 4.010203 1_455
Cs7 I20 4.030132 1_455
Cs7 I3 4.064659 1_555
Cs7 I13 4.134804 1_455
Cs7 I19 4.253120 1_555
Cs7 I28 4.257769 1_555
Cs7 I27 4.267446 1_555
Cs7 I30 4.274006 1_455
Cs8 I20 4.004234 1_555
Cs8 I28 4.010203 1_555
Cs8 I0 4.030132 1_555
Cs8 I13 4.064659 1_555
Cs8 I3 4.134804 1_555
Cs8 I4 4.253120 1_555
Cs8 I18 4.257769 1_555
Cs8 I12 4.267446 1_565
Cs8 I1 4.274006 1_555
Cs9 I31 3.896973 1_555
Cs9 I26 4.001210 1_555
Cs9 I33 4.034511 1_455
Cs9 I21 4.096667 1_456
Cs9 I11 4.177286 1_455
Cs9 I38 4.228142 1_555
Cs9 I5 4.235283 1_556
Cs9 Hg0 4.331946 1_455
Cs9 I2 4.470492 1_555
Cs10 I33 4.004234 1_554
Cs10 I29 4.010203 1_555
Cs10 I31 4.030132 1_554
Cs10 I21 4.064659 1_555
Cs10 I8 4.134804 1_555
Cs10 I32 4.253120 1_555
Cs10 I23 4.257769 1_555
Cs10 I10 4.267446 1_554
Cs10 I5 4.274006 1_555
Cs11 I7 4.004234 1_556
Cs11 I24 4.010203 1_655
Cs11 I35 4.030132 1_656
Cs11 I34 4.064659 1_555
Cs11 I26 4.134804 1_655
Cs11 I6 4.253120 1_555
Cs11 I37 4.257769 1_555
Cs11 I16 4.267446 1_566
Cs11 I25 4.274006 1_655
Cs12 I38 3.865543 1_555
Cs12 I33 3.930043 1_455
Cs12 I6 4.000609 1_445
Cs12 I25 4.028055 1_545
Cs12 I15 4.052041 1_555
Cs12 I31 4.065923 1_555
Cs12 I17 4.190529 1_555
Cs12 Hg1 4.317562 1_455
Cs12 I39 4.417867 1_455
Cs13 I31 4.004234 1_554
Cs13 I23 4.010203 1_455
Cs13 I33 4.030132 1_454
Cs13 I8 4.064659 1_555
Cs13 I21 4.134804 1_455
Cs13 I14 4.253120 1_555
Cs13 I29 4.257769 1_555
Cs13 I25 4.267446 1_544
Cs13 I16 4.274006 1_455
Cs14 I35 4.004234 1_556
Cs14 I37 4.010203 1_555
Cs14 I7 4.030132 1_556
Cs14 I26 4.064659 1_555
Cs14 I34 4.134804 1_555
Cs14 I2 4.253120 1_555
Cs14 I24 4.257769 1_555
Cs14 I5 4.267446 1_556
Cs14 I10 4.274006 1_555
Cs15 I24 3.865543 1_555
Cs15 I20 3.930043 1_455
Cs15 I11 4.000609 1_455
Cs15 I27 4.028055 1_555
Cs15 I2 4.052041 1_555
Cs15 I0 4.065923 1_555
Cs15 I26 4.190529 1_555
Cs15 Hg0 4.317562 1_455
Cs15 I37 4.417867 1_455
Cs16 I39 3.865543 1_555
Cs16 I31 3.930043 1_555
Cs16 I2 4.000609 1_555
Cs16 I10 4.028055 1_555
Cs16 I11 4.052041 1_555
Cs16 I33 4.065923 1_555
Cs16 I36 4.190529 1_555
Cs16 Hg5 4.317562 1_555
Cs16 I38 4.417867 1_555
Cs17 I33 3.896973 1_555
Cs17 I34 4.001210 1_545
Cs17 I31 4.034511 1_555
Cs17 I8 4.096667 1_556
Cs17 I15 4.177286 1_555
Cs17 I39 4.228142 1_555
Cs17 I16 4.235283 1_556
Cs17 Hg7 4.331946 1_545
Cs17 I6 4.470492 1_545
Cs18 I0 3.896973 1_555
Cs18 I17 4.001210 1_565
Cs18 I20 4.034511 1_455
Cs18 I13 4.096667 1_455
Cs18 I6 4.177286 1_455
Cs18 I24 4.228142 1_555
Cs18 I1 4.235283 1_555
Cs18 Hg1 4.331946 1_465
Cs18 I15 4.470492 1_565
Cs19 I18 3.865543 1_555
Cs19 I35 3.930043 1_655
Cs19 I14 4.000609 1_665
Cs19 I16 4.028055 1_565
Cs19 I4 4.052041 1_555
Cs19 I7 4.065923 1_555
Cs19 I13 4.190529 1_555
Cs19 Hg6 4.317562 1_655
Cs19 I28 4.417867 1_655
Cs20 I37 3.865543 1_555
Cs20 I0 3.930043 1_555
Cs20 I15 4.000609 1_565
Cs20 I12 4.028055 1_565
Cs20 I6 4.052041 1_555
Cs20 I20 4.065923 1_555
Cs20 I34 4.190529 1_555
Cs20 Hg7 4.317562 1_555
Cs20 I24 4.417867 1_555
Cs21 I9 4.004234 1_555
Cs21 I39 4.010203 1_555
Cs21 I22 4.030132 1_555
Cs21 I17 4.064659 1_555
Cs21 I36 4.134804 1_555
Cs21 I15 4.253120 1_555
Cs21 I38 4.257769 1_555
Cs21 I1 4.267446 1_545
Cs21 I12 4.274006 1_555
Cs22 I35 3.896973 1_555
Cs22 I8 4.001210 1_565
Cs22 I7 4.034511 1_555
Cs22 I34 4.096667 1_554
Cs22 I4 4.177286 1_555
Cs22 I28 4.228142 1_555
Cs22 I25 4.235283 1_554
Cs22 Hg2 4.331946 1_565
Cs22 I14 4.470492 1_565
Cs23 I22 4.004234 1_555
Cs23 I38 4.010203 1_655
Cs23 I9 4.030132 1_655
Cs23 I36 4.064659 1_555
Cs23 I17 4.134804 1_655
Cs23 I11 4.253120 1_555
Cs23 I39 4.257769 1_555
Cs23 I30 4.267446 1_555
Cs23 I27 4.274006 1_655
Hg0 I10 2.821685 1_555
Hg0 I37 2.863276 1_555
Hg0 I11 2.870409 1_555
Hg0 I26 2.887003 1_655
Hg1 I12 2.821685 1_555
Hg1 I39 2.863276 1_555
Hg1 I6 2.870409 1_545
Hg1 I17 2.887003 1_655
Hg2 I16 2.821685 1_555
Hg2 I23 2.863276 1_555
Hg2 I4 2.870409 1_545
Hg2 I8 2.887003 1_555
Hg3 I30 2.821685 1_555
Hg3 I18 2.863276 1_555
Hg3 I32 2.870409 1_555
Hg3 I3 2.887003 1_555
Hg4 I5 2.821685 1_555
Hg4 I29 2.863276 1_555
Hg4 I19 2.870409 1_555
Hg4 I21 2.887003 1_455
Hg5 I27 2.821685 1_555
Hg5 I38 2.863276 1_555
Hg5 I2 2.870409 1_555
Hg5 I36 2.887003 1_555
Hg6 I1 2.821685 1_555
Hg6 I28 2.863276 1_555
Hg6 I14 2.870409 1_565
Hg6 I13 2.887003 1_455
Hg7 I25 2.821685 1_555
Hg7 I24 2.863276 1_555
Hg7 I15 2.870409 1_565
Hg7 I34 2.887003 1_555
