# generated using pymatgen
data_Pr2Pd2Pb
_symmetry_space_group_name_H-M   'P 1'
_cell_length_a   8.02933432
_cell_length_b   8.02933432
_cell_length_c   3.83138151
_cell_angle_alpha   90.00000000
_cell_angle_beta   90.00000000
_cell_angle_gamma   90.00001484
_symmetry_Int_Tables_number   1
_chemical_formula_structural   Pr2Pd2Pb
_chemical_formula_sum   'Pr4 Pd4 Pb2'
_cell_volume   247.00996909
_cell_formula_units_Z   2
loop_
 _symmetry_equiv_pos_site_id
 _symmetry_equiv_pos_as_xyz
  1  'x, y, z'
loop_
 _atom_site_type_symbol
 _atom_site_label
 _atom_site_symmetry_multiplicity
 _atom_site_fract_x
 _atom_site_fract_y
 _atom_site_fract_z
 _atom_site_occupancy
  Pr  Pr0  1  0.32331448  0.82331448  0.50000000  1
  Pr  Pr1  1  0.67668552  0.17668552  0.50000000  1
  Pr  Pr2  1  0.82331648  0.67668352  0.50000000  1
  Pr  Pr3  1  0.17668352  0.32331648  0.50000000  1
  Pd  Pd0  1  0.87761074  0.37761074  -0.00000000  1
  Pd  Pd1  1  0.62238926  0.87761074  -0.00000000  1
  Pd  Pd2  1  0.37761074  0.12238926  0.00000000  1
  Pd  Pd3  1  0.12238926  0.62238926  0.00000000  1
  Pb  Pb0  1  0.50000000  0.50000000  -0.00000000  1
  Pb  Pb1  1  -0.00000000  0.00000000  -0.00000000  1
loop_
_geom_bond_atom_site_label_1
_geom_bond_atom_site_label_2
_geom_bond_distance
_geom_bond_site_symmetry_2
Pd0 Pd3 2.779507 1_655
Pd0 Pr1 2.979147 1_554
Pd0 Pr1 2.979147 1_555
Pd0 Pr2 3.102649 1_554
Pd0 Pr2 3.102649 1_555
Pd0 Pr3 3.102649 1_655
Pd0 Pr3 3.102649 1_654
Pd1 Pd2 2.779508 1_565
Pd1 Pr2 2.979165 1_554
Pd1 Pr2 2.979165 1_555
Pd1 Pr1 3.102663 1_565
Pd1 Pr1 3.102663 1_564
Pd1 Pr0 3.102663 1_554
Pd1 Pr0 3.102663 1_555
Pd2 Pr3 2.979165 1_554
Pd2 Pr3 2.979165 1_555
Pd2 Pr1 3.102663 1_554
Pd2 Pr0 3.102663 1_544
Pd2 Pr0 3.102663 1_545
Pd2 Pr1 3.102663 1_555
Pd3 Pr0 2.979147 1_555
Pd3 Pr0 2.979147 1_554
Pd3 Pr3 3.102649 1_555
Pd3 Pr2 3.102649 1_455
Pd3 Pr2 3.102649 1_454
Pd3 Pr3 3.102649 1_554
Pb0 Pd1 3.187241 1_555
Pb0 Pd2 3.187241 1_555
Pb0 Pd0 3.187241 1_555
Pb0 Pd3 3.187241 1_555
Pb0 Pr0 3.524444 1_554
Pb0 Pr0 3.524444 1_555
Pb0 Pr1 3.524444 1_555
Pb0 Pr1 3.524444 1_554
Pb0 Pr3 3.524449 1_555
Pb0 Pr2 3.524449 1_555
Pb0 Pr3 3.524449 1_554
Pb0 Pr2 3.524449 1_554
Pb1 Pd1 3.187241 1_445
Pb1 Pd2 3.187241 1_555
Pb1 Pd3 3.187241 1_545
Pb1 Pd0 3.187241 1_455
Pb1 Pr1 3.524444 1_455
Pb1 Pr1 3.524444 1_454
Pb1 Pr0 3.524444 1_544
Pb1 Pr0 3.524444 1_545
Pb1 Pr2 3.524449 1_444
Pb1 Pr2 3.524449 1_445
Pb1 Pr3 3.524449 1_554
Pb1 Pr3 3.524449 1_555
