# generated using pymatgen
data_Dy3(Ge3Pt2)2
_symmetry_space_group_name_H-M   'P 1'
_cell_length_a   4.34664200
_cell_length_b   8.80429900
_cell_length_c   26.24637500
_cell_angle_alpha   90.00000000
_cell_angle_beta   90.00000000
_cell_angle_gamma   90.00000000
_symmetry_Int_Tables_number   1
_chemical_formula_structural   Dy3(Ge3Pt2)2
_chemical_formula_sum   'Dy12 Ge24 Pt16'
_cell_volume   1004.42608950
_cell_formula_units_Z   4
loop_
 _symmetry_equiv_pos_site_id
 _symmetry_equiv_pos_as_xyz
  1  'x, y, z'
loop_
 _atom_site_type_symbol
 _atom_site_label
 _atom_site_symmetry_multiplicity
 _atom_site_fract_x
 _atom_site_fract_y
 _atom_site_fract_z
 _atom_site_occupancy
  Dy  Dy0  1  0.75000000  0.37471200  0.78030300  1
  Dy  Dy1  1  0.75000000  0.13542600  0.90587000  1
  Dy  Dy2  1  0.75000000  0.61330900  0.90688800  1
  Dy  Dy3  1  0.75000000  0.88669100  0.40688800  1
  Dy  Dy4  1  0.75000000  0.12528800  0.28030300  1
  Dy  Dy5  1  0.75000000  0.36457400  0.40587000  1
  Dy  Dy6  1  0.25000000  0.11330900  0.59311200  1
  Dy  Dy7  1  0.25000000  0.62528800  0.21969700  1
  Dy  Dy8  1  0.25000000  0.63542600  0.59413000  1
  Dy  Dy9  1  0.25000000  0.87471200  0.71969700  1
  Dy  Dy10  1  0.25000000  0.86457400  0.09413000  1
  Dy  Dy11  1  0.25000000  0.38669100  0.09311200  1
  Ge  Ge0  1  0.25000000  0.12167700  0.00149800  1
  Ge  Ge1  1  0.75000000  0.87404900  0.63855100  1
  Ge  Ge2  1  0.75000000  0.12694100  0.14248300  1
  Ge  Ge3  1  0.25000000  0.37404900  0.86144900  1
  Ge  Ge4  1  0.25000000  0.27293100  0.21614300  1
  Ge  Ge5  1  0.75000000  0.87832300  0.99850200  1
  Ge  Ge6  1  0.75000000  0.12875600  0.50303600  1
  Ge  Ge7  1  0.25000000  0.12595100  0.36144900  1
  Ge  Ge8  1  0.75000000  0.77293100  0.28385700  1
  Ge  Ge9  1  0.25000000  0.87305900  0.85751700  1
  Ge  Ge10  1  0.25000000  0.97727700  0.21645300  1
  Ge  Ge11  1  0.25000000  0.52272300  0.71645300  1
  Ge  Ge12  1  0.75000000  0.62167700  0.49850200  1
  Ge  Ge13  1  0.75000000  0.62595100  0.13855100  1
  Ge  Ge14  1  0.25000000  0.22706900  0.71614300  1
  Ge  Ge15  1  0.75000000  0.37305900  0.64248300  1
  Ge  Ge16  1  0.25000000  0.62694100  0.35751700  1
  Ge  Ge17  1  0.75000000  0.02272300  0.78354700  1
  Ge  Ge18  1  0.75000000  0.72706900  0.78385700  1
  Ge  Ge19  1  0.75000000  0.37124400  0.00303600  1
  Ge  Ge20  1  0.25000000  0.37832300  0.50149800  1
  Ge  Ge21  1  0.25000000  0.62875600  0.99696400  1
  Ge  Ge22  1  0.75000000  0.47727700  0.28354700  1
  Ge  Ge23  1  0.25000000  0.87124400  0.49696400  1
  Pt  Pt0  1  0.25000000  0.62090500  0.44962600  1
  Pt  Pt1  1  0.25000000  0.62228300  0.81272800  1
  Pt  Pt2  1  0.25000000  0.87771700  0.31272800  1
  Pt  Pt3  1  0.75000000  0.12228300  0.68727200  1
  Pt  Pt4  1  0.25000000  0.12615900  0.81262900  1
  Pt  Pt5  1  0.75000000  0.62925600  0.04487900  1
  Pt  Pt6  1  0.25000000  0.37074400  0.95512100  1
  Pt  Pt7  1  0.25000000  0.37384100  0.31262900  1
  Pt  Pt8  1  0.75000000  0.62615900  0.68737100  1
  Pt  Pt9  1  0.25000000  0.87909500  0.94962600  1
  Pt  Pt10  1  0.75000000  0.37909500  0.55037400  1
  Pt  Pt11  1  0.25000000  0.12925600  0.45512100  1
  Pt  Pt12  1  0.75000000  0.87384100  0.18737100  1
  Pt  Pt13  1  0.75000000  0.12090500  0.05037400  1
  Pt  Pt14  1  0.75000000  0.87074400  0.54487900  1
  Pt  Pt15  1  0.75000000  0.37771700  0.18727200  1
loop_
_geom_bond_atom_site_label_1
_geom_bond_atom_site_label_2
_geom_bond_distance
_geom_bond_site_symmetry_2
Dy0 Ge11 3.038073 1_555
Dy0 Ge11 3.038073 1_655
Dy0 Ge14 3.041183 1_655
Dy0 Ge14 3.041183 1_555
Dy0 Ge3 3.042919 1_555
Dy0 Ge3 3.042919 1_655
Dy0 Ge17 3.100186 1_555
Dy0 Ge18 3.103658 1_555
Dy0 Pt1 3.193530 1_555
Dy0 Pt1 3.193530 1_655
Dy0 Pt4 3.198747 1_655
Dy0 Pt4 3.198747 1_555
Dy0 Pt8 3.293983 1_555
Dy0 Pt3 3.301721 1_555
Dy1 Ge3 3.239821 1_655
Dy1 Ge3 3.239821 1_555
Dy1 Pt6 3.269051 1_555
Dy1 Pt6 3.269051 1_655
Dy1 Pt4 3.273982 1_555
Dy1 Pt4 3.273982 1_655
Dy1 Ge19 3.288534 1_556
Dy1 Ge5 3.321887 1_545
Dy1 Ge0 3.322276 1_656
Dy1 Ge0 3.322276 1_556
Dy1 Pt9 3.336981 1_645
Dy1 Pt9 3.336981 1_545
Dy1 Ge17 3.360378 1_555
Dy1 Ge9 3.416112 1_645
Dy1 Ge9 3.416112 1_545
Dy2 Ge21 3.214205 1_555
Dy2 Ge21 3.214205 1_655
Dy2 Ge3 3.253160 1_655
Dy2 Ge3 3.253160 1_555
Dy2 Pt1 3.291987 1_655
Dy2 Pt1 3.291987 1_555
Dy2 Pt6 3.299512 1_555
Dy2 Pt6 3.299512 1_655
Dy2 Ge19 3.303075 1_556
Dy2 Ge5 3.350508 1_555
Dy2 Ge18 3.380881 1_555
Dy2 Pt9 3.384886 1_655
Dy2 Pt9 3.384886 1_555
Dy2 Ge9 3.410636 1_655
Dy2 Ge9 3.410636 1_555
Dy3 Ge23 3.214205 1_655
Dy3 Ge23 3.214205 1_555
Dy3 Ge7 3.253160 1_665
Dy3 Ge7 3.253160 1_565
Dy3 Pt2 3.291987 1_555
Dy3 Pt2 3.291987 1_655
Dy3 Pt11 3.299512 1_665
Dy3 Pt11 3.299512 1_565
Dy3 Ge6 3.303075 1_565
Dy3 Ge12 3.350508 1_555
Dy3 Ge8 3.380881 1_555
Dy3 Pt0 3.384886 1_655
Dy3 Pt0 3.384886 1_555
Dy3 Ge16 3.410636 1_655
Dy3 Ge16 3.410636 1_555
Dy4 Ge10 3.038073 1_545
Dy4 Ge10 3.038073 1_645
Dy4 Ge4 3.041183 1_655
Dy4 Ge4 3.041183 1_555
Dy4 Ge7 3.042919 1_555
Dy4 Ge7 3.042919 1_655
Dy4 Ge22 3.100186 1_555
Dy4 Ge8 3.103658 1_545
Dy4 Pt2 3.193530 1_545
Dy4 Pt2 3.193530 1_645
Dy4 Pt7 3.198747 1_655
Dy4 Pt7 3.198747 1_555
Dy4 Pt12 3.293983 1_545
Dy4 Pt15 3.301721 1_555
Dy5 Ge7 3.239821 1_555
Dy5 Ge7 3.239821 1_655
Dy5 Pt11 3.269051 1_655
Dy5 Pt11 3.269051 1_555
Dy5 Pt7 3.273982 1_555
Dy5 Pt7 3.273982 1_655
Dy5 Ge6 3.288534 1_555
Dy5 Ge12 3.321887 1_555
Dy5 Ge20 3.322276 1_655
Dy5 Ge20 3.322276 1_555
Dy5 Pt0 3.336981 1_555
Dy5 Pt0 3.336981 1_655
Dy5 Ge22 3.360378 1_555
Dy5 Ge16 3.416112 1_555
Dy5 Ge16 3.416112 1_655
Dy6 Ge6 3.214205 1_455
Dy6 Ge6 3.214205 1_555
Dy6 Ge1 3.253160 1_545
Dy6 Ge1 3.253160 1_445
Dy6 Pt3 3.291987 1_455
Dy6 Pt3 3.291987 1_555
Dy6 Pt14 3.299512 1_445
Dy6 Pt14 3.299512 1_545
Dy6 Ge23 3.303075 1_545
Dy6 Ge20 3.350508 1_555
Dy6 Ge14 3.380881 1_555
Dy6 Pt10 3.384886 1_455
Dy6 Pt10 3.384886 1_555
Dy6 Ge15 3.410636 1_455
Dy6 Ge15 3.410636 1_555
Dy7 Ge22 3.038073 1_555
Dy7 Ge22 3.038073 1_455
Dy7 Ge8 3.041183 1_455
Dy7 Ge8 3.041183 1_555
Dy7 Ge13 3.042919 1_555
Dy7 Ge13 3.042919 1_455
Dy7 Ge10 3.100186 1_555
Dy7 Ge4 3.103658 1_555
Dy7 Pt15 3.193530 1_455
Dy7 Pt15 3.193530 1_555
Dy7 Pt12 3.198747 1_455
Dy7 Pt12 3.198747 1_555
Dy7 Pt7 3.293983 1_555
Dy7 Pt2 3.301721 1_555
Dy8 Ge1 3.239821 1_555
Dy8 Ge1 3.239821 1_455
Dy8 Pt14 3.269051 1_555
Dy8 Pt14 3.269051 1_455
Dy8 Pt8 3.273982 1_555
Dy8 Pt8 3.273982 1_455
Dy8 Ge23 3.288534 1_555
Dy8 Ge20 3.321887 1_555
Dy8 Ge12 3.322276 1_455
Dy8 Ge12 3.322276 1_555
Dy8 Pt10 3.336981 1_555
Dy8 Pt10 3.336981 1_455
Dy8 Ge11 3.360378 1_555
Dy8 Ge15 3.416112 1_455
Dy8 Ge15 3.416112 1_555
Dy9 Ge17 3.038073 1_565
Dy9 Ge17 3.038073 1_465
Dy9 Ge18 3.041183 1_455
Dy9 Ge18 3.041183 1_555
Dy9 Ge1 3.042919 1_555
Dy9 Ge1 3.042919 1_455
Dy9 Ge11 3.100186 1_555
Dy9 Ge14 3.103658 1_565
Dy9 Pt3 3.193530 1_565
Dy9 Pt3 3.193530 1_465
Dy9 Pt8 3.198747 1_555
Dy9 Pt8 3.198747 1_455
Dy9 Pt4 3.293983 1_565
Dy9 Pt1 3.301721 1_555
Dy10 Ge13 3.239821 1_555
Dy10 Ge13 3.239821 1_455
Dy10 Pt5 3.269051 1_455
Dy10 Pt5 3.269051 1_555
Dy10 Pt12 3.273982 1_455
Dy10 Pt12 3.273982 1_555
Dy10 Ge21 3.288534 1_554
Dy10 Ge0 3.321887 1_565
Dy10 Ge5 3.322276 1_454
Dy10 Ge5 3.322276 1_554
Dy10 Pt13 3.336981 1_465
Dy10 Pt13 3.336981 1_565
Dy10 Ge10 3.360378 1_555
Dy10 Ge2 3.416112 1_465
Dy10 Ge2 3.416112 1_565
Dy11 Ge19 3.214205 1_455
Dy11 Ge19 3.214205 1_555
Dy11 Ge13 3.253160 1_455
Dy11 Ge13 3.253160 1_555
Dy11 Pt15 3.291987 1_455
Dy11 Pt15 3.291987 1_555
Dy11 Pt5 3.299512 1_555
Dy11 Pt5 3.299512 1_455
Dy11 Ge21 3.303075 1_554
Dy11 Ge0 3.350508 1_555
Dy11 Ge4 3.380881 1_555
Dy11 Pt13 3.384886 1_555
Dy11 Pt13 3.384886 1_455
Dy11 Ge2 3.410636 1_455
Dy11 Ge2 3.410636 1_555
Ge0 Pt6 2.508043 1_554
Ge0 Pt13 2.523686 1_455
Ge0 Pt13 2.523686 1_555
Ge0 Pt9 2.532793 1_544
Ge1 Pt14 2.458723 1_555
Ge1 Pt8 2.530840 1_555
Ge1 Pt3 2.532139 1_565
Ge2 Pt13 2.418111 1_555
Ge2 Pt15 2.501353 1_555
Ge2 Pt12 2.520646 1_545
Ge3 Pt6 2.458723 1_555
Ge3 Pt4 2.530840 1_555
Ge3 Pt1 2.532139 1_555
Ge4 Pt15 2.479648 1_455
Ge4 Pt15 2.479648 1_555
Ge4 Pt7 2.683732 1_555
Ge5 Pt5 2.508043 1_556
Ge5 Pt9 2.523686 1_555
Ge5 Pt9 2.523686 1_655
Ge5 Pt13 2.532793 1_566
Ge6 Pt11 2.510954 1_655
Ge6 Pt11 2.510954 1_555
Ge6 Pt14 2.523160 1_545
Ge6 Pt10 2.530131 1_555
Ge7 Pt11 2.458723 1_555
Ge7 Pt7 2.530840 1_555
Ge7 Pt2 2.532139 1_545
Ge8 Pt2 2.479648 1_555
Ge8 Pt2 2.479648 1_655
Ge8 Pt12 2.683732 1_555
Ge9 Pt9 2.418111 1_555
Ge9 Pt1 2.501353 1_555
Ge9 Pt4 2.520646 1_565
Ge10 Pt12 2.476951 1_555
Ge10 Pt12 2.476951 1_455
Ge10 Ge4 2.603039 1_565
Ge10 Pt2 2.674588 1_555
Ge11 Pt8 2.476951 1_455
Ge11 Pt8 2.476951 1_555
Ge11 Ge14 2.603039 1_555
Ge11 Pt1 2.674588 1_555
Ge12 Pt14 2.508043 1_555
Ge12 Pt0 2.523686 1_555
Ge12 Pt0 2.523686 1_655
Ge12 Pt10 2.532793 1_555
Ge13 Pt5 2.458723 1_555
Ge13 Pt12 2.530840 1_555
Ge13 Pt15 2.532139 1_555
Ge14 Pt3 2.479648 1_455
Ge14 Pt3 2.479648 1_555
Ge14 Pt4 2.683732 1_555
Ge15 Pt10 2.418111 1_555
Ge15 Pt3 2.501353 1_555
Ge15 Pt8 2.520646 1_555
Ge16 Pt0 2.418111 1_555
Ge16 Pt2 2.501353 1_555
Ge16 Pt7 2.520646 1_555
Ge17 Pt4 2.476951 1_655
Ge17 Pt4 2.476951 1_555
Ge17 Ge18 2.603039 1_545
Ge17 Pt3 2.674588 1_555
Ge18 Pt1 2.479648 1_555
Ge18 Pt1 2.479648 1_655
Ge18 Pt8 2.683732 1_555
Ge19 Pt6 2.510954 1_554
Ge19 Pt6 2.510954 1_654
Ge19 Pt5 2.523160 1_555
Ge19 Pt13 2.530131 1_555
Ge20 Pt11 2.508043 1_555
Ge20 Pt10 2.523686 1_455
Ge20 Pt10 2.523686 1_555
Ge20 Pt0 2.532793 1_555
Ge21 Pt5 2.510954 1_456
Ge21 Pt5 2.510954 1_556
Ge21 Pt6 2.523160 1_555
Ge21 Pt9 2.530131 1_555
Ge22 Pt7 2.476951 1_555
Ge22 Pt7 2.476951 1_655
Ge22 Ge8 2.603039 1_555
Ge22 Pt15 2.674588 1_555
Ge23 Pt14 2.510954 1_455
Ge23 Pt14 2.510954 1_555
Ge23 Pt11 2.523160 1_565
Ge23 Pt0 2.530131 1_555
