# generated using pymatgen
data_Na3Mg(BO2)5
_symmetry_space_group_name_H-M   'P 1'
_cell_length_a   7.90472700
_cell_length_b   12.38776900
_cell_length_c   18.32573800
_cell_angle_alpha   90.00000000
_cell_angle_beta   90.00000000
_cell_angle_gamma   90.00000000
_symmetry_Int_Tables_number   1
_chemical_formula_structural   Na3Mg(BO2)5
_chemical_formula_sum   'Na24 Mg8 B40 O80'
_cell_volume   1794.49167183
_cell_formula_units_Z   8
loop_
 _symmetry_equiv_pos_site_id
 _symmetry_equiv_pos_as_xyz
  1  'x, y, z'
loop_
 _atom_site_type_symbol
 _atom_site_label
 _atom_site_symmetry_multiplicity
 _atom_site_fract_x
 _atom_site_fract_y
 _atom_site_fract_z
 _atom_site_occupancy
  Na  Na0  1  0.16980800  0.91537000  0.42011500  1
  Na  Na1  1  0.69049900  0.64777100  0.25325000  1
  Na  Na2  1  0.16980800  0.58463000  0.92011500  1
  Na  Na3  1  0.83019200  0.41537000  0.07988500  1
  Na  Na4  1  0.33019200  0.41537000  0.42011500  1
  Na  Na5  1  0.83019200  0.08463000  0.57988500  1
  Na  Na6  1  0.70860800  0.57251500  0.93221100  1
  Na  Na7  1  0.79139200  0.07251500  0.93221100  1
  Na  Na8  1  0.79139200  0.42748500  0.43221100  1
  Na  Na9  1  0.80950100  0.35222900  0.75325000  1
  Na  Na10  1  0.30950100  0.14777100  0.24675000  1
  Na  Na11  1  0.19049900  0.85222900  0.74675000  1
  Na  Na12  1  0.29139200  0.42748500  0.06778900  1
  Na  Na13  1  0.80950100  0.14777100  0.25325000  1
  Na  Na14  1  0.20860800  0.92748500  0.06778900  1
  Na  Na15  1  0.66980800  0.58463000  0.57988500  1
  Na  Na16  1  0.69049900  0.85222900  0.75325000  1
  Na  Na17  1  0.29139200  0.07251500  0.56778900  1
  Na  Na18  1  0.66980800  0.91537000  0.07988500  1
  Na  Na19  1  0.33019200  0.08463000  0.92011500  1
  Na  Na20  1  0.30950100  0.35222900  0.74675000  1
  Na  Na21  1  0.19049900  0.64777100  0.24675000  1
  Na  Na22  1  0.70860800  0.92748500  0.43221100  1
  Na  Na23  1  0.20860800  0.57251500  0.56778900  1
  Mg  Mg0  1  0.91594200  0.82179800  0.90222200  1
  Mg  Mg1  1  0.41594200  0.82179800  0.59777800  1
  Mg  Mg2  1  0.08405800  0.17820200  0.09777800  1
  Mg  Mg3  1  0.41594200  0.67820200  0.09777800  1
  Mg  Mg4  1  0.91594200  0.67820200  0.40222200  1
  Mg  Mg5  1  0.58405800  0.32179800  0.90222200  1
  Mg  Mg6  1  0.58405800  0.17820200  0.40222200  1
  Mg  Mg7  1  0.08405800  0.32179800  0.59777800  1
  B  B0  1  0.23176300  0.17298800  0.42749800  1
  B  B1  1  0.07852600  0.65342900  0.07341000  1
  B  B2  1  0.48827800  0.47561600  0.19596900  1
  B  B3  1  0.55441700  0.34969400  0.29602900  1
  B  B4  1  0.55441700  0.15030600  0.79602900  1
  B  B5  1  0.05441700  0.15030600  0.70397100  1
  B  B6  1  0.01172200  0.97561600  0.19596900  1
  B  B7  1  0.94558300  0.84969400  0.29602900  1
  B  B8  1  0.55940700  0.28252600  0.16393100  1
  B  B9  1  0.73176300  0.32701200  0.57250200  1
  B  B10  1  0.55940700  0.21747400  0.66393100  1
  B  B11  1  0.42147400  0.34657100  0.57341000  1
  B  B12  1  0.98827800  0.02438400  0.80403100  1
  B  B13  1  0.26823700  0.67298800  0.42749800  1
  B  B14  1  0.44558300  0.65030600  0.70397100  1
  B  B15  1  0.07852600  0.84657100  0.57341000  1
  B  B16  1  0.73176300  0.17298800  0.07250200  1
  B  B17  1  0.51172200  0.97561600  0.30403100  1
  B  B18  1  0.92147400  0.34657100  0.92659000  1
  B  B19  1  0.51172200  0.52438400  0.80403100  1
  B  B20  1  0.57852600  0.84657100  0.92659000  1
  B  B21  1  0.44059300  0.71747400  0.83606900  1
  B  B22  1  0.05441700  0.34969400  0.20397100  1
  B  B23  1  0.23176300  0.32701200  0.92749800  1
  B  B24  1  0.94059300  0.71747400  0.66393100  1
  B  B25  1  0.98827800  0.47561600  0.30403100  1
  B  B26  1  0.76823700  0.67298800  0.07250200  1
  B  B27  1  0.42147400  0.15342900  0.07341000  1
  B  B28  1  0.94558300  0.65030600  0.79602900  1
  B  B29  1  0.92147400  0.15342900  0.42659000  1
  B  B30  1  0.57852600  0.65342900  0.42659000  1
  B  B31  1  0.94059300  0.78252600  0.16393100  1
  B  B32  1  0.26823700  0.82701200  0.92749800  1
  B  B33  1  0.44059300  0.78252600  0.33606900  1
  B  B34  1  0.48827800  0.02438400  0.69596900  1
  B  B35  1  0.44558300  0.84969400  0.20397100  1
  B  B36  1  0.01172200  0.52438400  0.69596900  1
  B  B37  1  0.76823700  0.82701200  0.57250200  1
  B  B38  1  0.05940700  0.28252600  0.33606900  1
  B  B39  1  0.05940700  0.21747400  0.83606900  1
  O  O0  1  0.53744400  0.39821600  0.14468400  1
  O  O1  1  0.71992100  0.25731200  0.63193400  1
  O  O2  1  0.62082700  0.85150200  0.54079500  1
  O  O3  1  0.37917300  0.35150200  0.95920500  1
  O  O4  1  0.06828300  0.23145600  0.75617600  1
  O  O5  1  0.58590000  0.71930700  0.36512900  1
  O  O6  1  0.72164000  0.61634200  0.45784200  1
  O  O7  1  0.08161900  0.37643500  0.95439100  1
  O  O8  1  0.08161900  0.12356500  0.45439100  1
  O  O9  1  0.91410000  0.21930700  0.36512900  1
  O  O10  1  0.12082700  0.64849800  0.45920500  1
  O  O11  1  0.27836000  0.38365800  0.54215800  1
  O  O12  1  0.91838100  0.62356500  0.04560900  1
  O  O13  1  0.28007900  0.74268800  0.36806600  1
  O  O14  1  0.43171700  0.73145600  0.75617600  1
  O  O15  1  0.57656600  0.33156400  0.36787800  1
  O  O16  1  0.51013600  0.45403700  0.27137700  1
  O  O17  1  0.21992100  0.24268800  0.36806600  1
  O  O18  1  0.57446600  0.42863600  0.82355700  1
  O  O19  1  0.56828300  0.23145600  0.74382400  1
  O  O20  1  0.77836000  0.11634200  0.45784200  1
  O  O21  1  0.48986400  0.95403700  0.22862300  1
  O  O22  1  0.41410000  0.21930700  0.13487100  1
  O  O23  1  0.42553400  0.92863600  0.67644300  1
  O  O24  1  0.62082700  0.64849800  0.04079500  1
  O  O25  1  0.22164000  0.61634200  0.04215800  1
  O  O26  1  0.93171700  0.73145600  0.74382400  1
  O  O27  1  0.87917300  0.35150200  0.54079500  1
  O  O28  1  0.92553400  0.92863600  0.82355700  1
  O  O29  1  0.43171700  0.76854400  0.25617600  1
  O  O30  1  0.12082700  0.85150200  0.95920500  1
  O  O31  1  0.57656600  0.16843600  0.86787800  1
  O  O32  1  0.03744400  0.10178400  0.85531600  1
  O  O33  1  0.98986400  0.54596300  0.77137700  1
  O  O34  1  0.01013600  0.04596300  0.72862300  1
  O  O35  1  0.27836000  0.11634200  0.04215800  1
  O  O36  1  0.22164000  0.88365800  0.54215800  1
  O  O37  1  0.93171700  0.76854400  0.24382400  1
  O  O38  1  0.08590000  0.78069300  0.63487100  1
  O  O39  1  0.96255600  0.89821600  0.14468400  1
  O  O40  1  0.08590000  0.71930700  0.13487100  1
  O  O41  1  0.01013600  0.45403700  0.22862300  1
  O  O42  1  0.51013600  0.04596300  0.77137700  1
  O  O43  1  0.07446600  0.07136400  0.17644300  1
  O  O44  1  0.06828300  0.26854400  0.25617600  1
  O  O45  1  0.46255600  0.60178400  0.85531600  1
  O  O46  1  0.92343400  0.66843600  0.86787800  1
  O  O47  1  0.58590000  0.78069300  0.86512900  1
  O  O48  1  0.07446600  0.42863600  0.67644300  1
  O  O49  1  0.42343400  0.83156400  0.13212200  1
  O  O50  1  0.53744400  0.10178400  0.64468400  1
  O  O51  1  0.07656600  0.16843600  0.63212200  1
  O  O52  1  0.42553400  0.57136400  0.17644300  1
  O  O53  1  0.92343400  0.83156400  0.36787800  1
  O  O54  1  0.72164000  0.88365800  0.95784200  1
  O  O55  1  0.21992100  0.25731200  0.86806600  1
  O  O56  1  0.56828300  0.26854400  0.24382400  1
  O  O57  1  0.58161900  0.12356500  0.04560900  1
  O  O58  1  0.37917300  0.14849800  0.45920500  1
  O  O59  1  0.03744400  0.39821600  0.35531600  1
  O  O60  1  0.78007900  0.74268800  0.13193400  1
  O  O61  1  0.57446600  0.07136400  0.32355700  1
  O  O62  1  0.78007900  0.75731200  0.63193400  1
  O  O63  1  0.07656600  0.33156400  0.13212200  1
  O  O64  1  0.58161900  0.37643500  0.54560900  1
  O  O65  1  0.87917300  0.14849800  0.04079500  1
  O  O66  1  0.41838100  0.87643500  0.95439100  1
  O  O67  1  0.42343400  0.66843600  0.63212200  1
  O  O68  1  0.77836000  0.38365800  0.95784200  1
  O  O69  1  0.46255600  0.89821600  0.35531600  1
  O  O70  1  0.71992100  0.24268800  0.13193400  1
  O  O71  1  0.41410000  0.28069300  0.63487100  1
  O  O72  1  0.48986400  0.54596300  0.72862300  1
  O  O73  1  0.92553400  0.57136400  0.32355700  1
  O  O74  1  0.91838100  0.87643500  0.54560900  1
  O  O75  1  0.91410000  0.28069300  0.86512900  1
  O  O76  1  0.96255600  0.60178400  0.64468400  1
  O  O77  1  0.98986400  0.95403700  0.27137700  1
  O  O78  1  0.41838100  0.62356500  0.45439100  1
  O  O79  1  0.28007900  0.75731200  0.86806600  1
loop_
_geom_bond_atom_site_label_1
_geom_bond_atom_site_label_2
_geom_bond_distance
_geom_bond_site_symmetry_2
Na0 O36 2.307434 1_555
Na0 O53 2.405621 1_455
Na0 O13 2.499108 1_555
Na0 O69 2.609658 1_555
Na0 O8 2.744471 1_565
Na1 O5 2.381707 1_555
Na1 O37 2.429799 1_555
Na1 O73 2.451056 1_555
Na1 O29 2.534896 1_555
Na1 O60 2.612773 1_555
Na1 O52 2.695162 1_555
Na1 O16 2.811175 1_555
Na2 O25 2.307434 1_556
Na2 O46 2.405621 1_455
Na2 O79 2.499108 1_555
Na2 O45 2.609658 1_555
Na2 O7 2.744471 1_555
Na3 O68 2.307434 1_554
Na3 O63 2.405621 1_655
Na3 O70 2.499108 1_555
Na3 O0 2.609658 1_555
Na3 O12 2.744471 1_555
Na4 O11 2.307434 1_555
Na4 O15 2.405621 1_555
Na4 O17 2.499108 1_555
Na4 O59 2.609658 1_555
Na4 O78 2.744471 1_555
Na5 O20 2.307434 1_555
Na5 O51 2.405621 1_655
Na5 O1 2.499108 1_555
Na5 O50 2.609658 1_555
Na5 O74 2.744471 1_545
Na6 O24 2.308046 1_556
Na6 O46 2.384436 1_555
Na6 O45 2.429014 1_555
Na6 O68 2.449076 1_555
Na7 O65 2.308046 1_556
Na7 O31 2.384436 1_555
Na7 O32 2.429014 1_655
Na7 O54 2.449076 1_545
Na8 O27 2.308046 1_555
Na8 O15 2.384436 1_555
Na8 O59 2.429014 1_655
Na8 O6 2.449076 1_555
Na9 O75 2.381707 1_555
Na9 O19 2.429799 1_555
Na9 O18 2.451056 1_555
Na9 O4 2.534896 1_655
Na9 O1 2.612773 1_555
Na9 O48 2.695162 1_655
Na9 O33 2.811175 1_555
Na10 O22 2.381707 1_555
Na10 O44 2.429799 1_555
Na10 O43 2.451056 1_555
Na10 O56 2.534896 1_555
Na10 O17 2.612773 1_555
Na10 O61 2.695162 1_555
Na10 O21 2.811175 1_545
Na11 O38 2.381707 1_555
Na11 O14 2.429799 1_555
Na11 O23 2.451056 1_555
Na11 O26 2.534896 1_455
Na11 O79 2.612773 1_555
Na11 O28 2.695162 1_455
Na11 O34 2.811175 1_565
Na12 O3 2.308046 1_554
Na12 O63 2.384436 1_555
Na12 O0 2.429014 1_555
Na12 O25 2.449076 1_555
Na13 O9 2.381707 1_555
Na13 O56 2.429799 1_555
Na13 O61 2.451056 1_555
Na13 O44 2.534896 1_655
Na13 O70 2.612773 1_555
Na13 O43 2.695162 1_655
Na13 O77 2.811175 1_545
Na14 O30 2.308046 1_554
Na14 O49 2.384436 1_555
Na14 O39 2.429014 1_455
Na14 O35 2.449076 1_565
Na15 O6 2.307434 1_555
Na15 O67 2.405621 1_555
Na15 O62 2.499108 1_555
Na15 O76 2.609658 1_555
Na15 O64 2.744471 1_555
Na16 O47 2.381707 1_555
Na16 O26 2.429799 1_555
Na16 O28 2.451056 1_555
Na16 O14 2.534896 1_555
Na16 O62 2.612773 1_555
Na16 O23 2.695162 1_555
Na16 O42 2.811175 1_565
Na17 O58 2.308046 1_555
Na17 O51 2.384436 1_555
Na17 O50 2.429014 1_555
Na17 O36 2.449076 1_545
Na18 O54 2.307434 1_554
Na18 O49 2.405621 1_555
Na18 O60 2.499108 1_555
Na18 O39 2.609658 1_555
Na18 O57 2.744471 1_565
Na19 O35 2.307434 1_556
Na19 O31 2.405621 1_555
Na19 O55 2.499108 1_555
Na19 O32 2.609658 1_555
Na19 O66 2.744471 1_545
Na20 O71 2.381707 1_555
Na20 O4 2.429799 1_555
Na20 O48 2.451056 1_555
Na20 O19 2.534896 1_555
Na20 O55 2.612773 1_555
Na20 O18 2.695162 1_555
Na20 O72 2.811175 1_555
Na21 O40 2.381707 1_555
Na21 O29 2.429799 1_555
Na21 O52 2.451056 1_555
Na21 O37 2.534896 1_455
Na21 O13 2.612773 1_555
Na21 O73 2.695162 1_455
Na21 O41 2.811175 1_555
Na22 O2 2.308046 1_555
Na22 O53 2.384436 1_555
Na22 O69 2.429014 1_555
Na22 O20 2.449076 1_565
Na23 O10 2.308046 1_555
Na23 O67 2.384436 1_555
Na23 O76 2.429014 1_455
Na23 O11 2.449076 1_555
Mg0 O28 1.958457 1_555
Mg0 O30 1.961847 1_655
Mg0 O54 1.996285 1_555
Mg0 O46 2.002227 1_555
Mg1 O23 1.958457 1_555
Mg1 O2 1.961847 1_555
Mg1 O36 1.996285 1_555
Mg1 O67 2.002227 1_555
Mg2 O43 1.958457 1_555
Mg2 O65 1.961847 1_455
Mg2 O35 1.996285 1_555
Mg2 O63 2.002227 1_555
Mg3 O52 1.958457 1_555
Mg3 O24 1.961847 1_555
Mg3 O25 1.996285 1_555
Mg3 O49 2.002227 1_555
Mg4 O73 1.958457 1_555
Mg4 O10 1.961847 1_655
Mg4 O6 1.996285 1_555
Mg4 O53 2.002227 1_555
Mg5 O18 1.958457 1_555
Mg5 O3 1.961847 1_555
Mg5 O68 1.996285 1_555
Mg5 O31 2.002227 1_555
Mg6 O61 1.958457 1_555
Mg6 O58 1.961847 1_555
Mg6 O20 1.996285 1_555
Mg6 O15 2.002227 1_555
Mg7 O48 1.958457 1_555
Mg7 O27 1.961847 1_455
Mg7 O11 1.996285 1_555
Mg7 O51 2.002227 1_555
B0 O58 1.336950 1_555
B0 O17 1.393013 1_555
B0 O8 1.423492 1_555
B1 O25 1.348652 1_555
B1 O40 1.392113 1_555
B1 O12 1.413837 1_455
B2 O52 1.334494 1_555
B2 O0 1.397733 1_555
B2 O16 1.418090 1_555
B3 O15 1.347129 1_555
B3 O56 1.392064 1_555
B3 O16 1.413283 1_555
B4 O31 1.347129 1_555
B4 O19 1.392064 1_555
B4 O42 1.413283 1_555
B5 O51 1.347129 1_555
B5 O4 1.392064 1_555
B5 O34 1.413283 1_555
B6 O43 1.334494 1_565
B6 O39 1.397733 1_455
B6 O77 1.418090 1_455
B7 O53 1.347129 1_555
B7 O37 1.392064 1_555
B7 O77 1.413283 1_555
B8 O56 1.475976 1_555
B8 O70 1.482321 1_555
B8 O0 1.486083 1_555
B8 O22 1.488700 1_555
B9 O27 1.336950 1_555
B9 O1 1.393013 1_555
B9 O64 1.423492 1_555
B10 O19 1.475976 1_555
B10 O1 1.482321 1_555
B10 O50 1.486083 1_555
B10 O71 1.488700 1_555
B11 O11 1.348652 1_555
B11 O71 1.392113 1_555
B11 O64 1.413837 1_555
B12 O28 1.334494 1_545
B12 O32 1.397733 1_655
B12 O34 1.418090 1_655
B13 O10 1.336950 1_555
B13 O13 1.393013 1_555
B13 O78 1.423492 1_555
B14 O67 1.347129 1_555
B14 O14 1.392064 1_555
B14 O72 1.413283 1_555
B15 O36 1.348652 1_555
B15 O38 1.392113 1_555
B15 O74 1.413837 1_455
B16 O65 1.336950 1_555
B16 O70 1.393013 1_555
B16 O57 1.423492 1_555
B17 O61 1.334494 1_565
B17 O69 1.397733 1_555
B17 O21 1.418090 1_555
B18 O68 1.348652 1_555
B18 O75 1.392113 1_555
B18 O7 1.413837 1_655
B19 O18 1.334494 1_555
B19 O45 1.397733 1_555
B19 O72 1.418090 1_555
B20 O54 1.348652 1_555
B20 O47 1.392113 1_555
B20 O66 1.413837 1_555
B21 O14 1.475976 1_555
B21 O79 1.482321 1_555
B21 O45 1.486083 1_555
B21 O47 1.488700 1_555
B22 O63 1.347129 1_555
B22 O44 1.392064 1_555
B22 O41 1.413283 1_555
B23 O3 1.336950 1_555
B23 O55 1.393013 1_555
B23 O7 1.423492 1_555
B24 O26 1.475976 1_555
B24 O62 1.482321 1_555
B24 O76 1.486083 1_555
B24 O38 1.488700 1_655
B25 O73 1.334494 1_555
B25 O59 1.397733 1_655
B25 O41 1.418090 1_655
B26 O24 1.336950 1_555
B26 O60 1.393013 1_555
B26 O12 1.423492 1_555
B27 O35 1.348652 1_555
B27 O22 1.392113 1_555
B27 O57 1.413837 1_555
B28 O46 1.347129 1_555
B28 O26 1.392064 1_555
B28 O33 1.413283 1_555
B29 O20 1.348652 1_555
B29 O9 1.392113 1_555
B29 O8 1.413837 1_655
B30 O6 1.348652 1_555
B30 O5 1.392113 1_555
B30 O78 1.413837 1_555
B31 O37 1.475976 1_555
B31 O60 1.482321 1_555
B31 O39 1.486083 1_555
B31 O40 1.488700 1_655
B32 O30 1.336950 1_555
B32 O79 1.393013 1_555
B32 O66 1.423492 1_555
B33 O29 1.475976 1_555
B33 O13 1.482321 1_555
B33 O69 1.486083 1_555
B33 O5 1.488700 1_555
B34 O23 1.334494 1_545
B34 O50 1.397733 1_555
B34 O42 1.418090 1_555
B35 O49 1.347129 1_555
B35 O29 1.392064 1_555
B35 O21 1.413283 1_555
B36 O48 1.334494 1_555
B36 O76 1.397733 1_455
B36 O33 1.418090 1_455
B37 O2 1.336950 1_555
B37 O62 1.393013 1_555
B37 O74 1.423492 1_555
B38 O44 1.475976 1_555
B38 O17 1.482321 1_555
B38 O59 1.486083 1_555
B38 O9 1.488700 1_455
B39 O4 1.475976 1_555
B39 O55 1.482321 1_555
B39 O32 1.486083 1_555
B39 O75 1.488700 1_455
