# generated using pymatgen
data_Rb5Mo18S19
_symmetry_space_group_name_H-M   'P 1'
_cell_length_a   26.54158247
_cell_length_b   26.54158257
_cell_length_c   26.54158239
_cell_angle_alpha   19.89390399
_cell_angle_beta   19.89390335
_cell_angle_gamma   19.89390316
_symmetry_Int_Tables_number   1
_chemical_formula_structural   Rb5Mo18S19
_chemical_formula_sum   'Rb10 Mo36 S38'
_cell_volume   1893.75076796
_cell_formula_units_Z   2
loop_
 _symmetry_equiv_pos_site_id
 _symmetry_equiv_pos_as_xyz
  1  'x, y, z'
loop_
 _atom_site_type_symbol
 _atom_site_label
 _atom_site_symmetry_multiplicity
 _atom_site_fract_x
 _atom_site_fract_y
 _atom_site_fract_z
 _atom_site_occupancy
  Rb  Rb0  1  0.72678311  0.72678311  0.72678311  1
  Rb  Rb1  1  0.96491353  0.96491353  0.96491353  1
  Rb  Rb2  1  0.90591199  0.90591199  0.90591199  1
  Rb  Rb3  1  0.84762149  0.84762149  0.84762149  1
  Rb  Rb4  1  0.78899659  0.78899659  0.78899659  1
  Rb  Rb5  1  0.15237851  0.15237851  0.15237851  1
  Rb  Rb6  1  0.03508647  0.03508647  0.03508647  1
  Rb  Rb7  1  0.09408801  0.09408801  0.09408801  1
  Rb  Rb8  1  0.27321689  0.27321689  0.27321689  1
  Rb  Rb9  1  0.21100341  0.21100341  0.21100341  1
  Mo  Mo0  1  0.27301009  0.60713342  0.40604152  1
  Mo  Mo1  1  0.51880130  0.38807540  0.72179848  1
  Mo  Mo2  1  0.46083816  0.33152238  0.66507916  1
  Mo  Mo3  1  0.63768368  0.50128094  0.83376920  1
  Mo  Mo4  1  0.45132006  0.64575507  0.78761429  1
  Mo  Mo5  1  0.38807540  0.72179848  0.51880130  1
  Mo  Mo6  1  0.54867994  0.35424493  0.21238571  1
  Mo  Mo7  1  0.66847762  0.33492084  0.53916184  1
  Mo  Mo8  1  0.72179848  0.51880130  0.38807540  1
  Mo  Mo9  1  0.21238571  0.54867994  0.35424493  1
  Mo  Mo10  1  0.40604152  0.27301009  0.60713342  1
  Mo  Mo11  1  0.61192460  0.27820152  0.48119870  1
  Mo  Mo12  1  0.77804601  0.57899655  0.44264713  1
  Mo  Mo13  1  0.48119870  0.61192460  0.27820152  1
  Mo  Mo14  1  0.59395848  0.72698991  0.39286658  1
  Mo  Mo15  1  0.55735287  0.22195399  0.42100345  1
  Mo  Mo16  1  0.22195399  0.42100345  0.55735287  1
  Mo  Mo17  1  0.39286658  0.59395848  0.72698991  1
  Mo  Mo18  1  0.44264713  0.77804601  0.57899655  1
  Mo  Mo19  1  0.33152238  0.66507916  0.46083816  1
  Mo  Mo20  1  0.60713342  0.40604152  0.27301009  1
  Mo  Mo21  1  0.49871906  0.16623080  0.36231632  1
  Mo  Mo22  1  0.64575507  0.78761429  0.45132006  1
  Mo  Mo23  1  0.27820152  0.48119870  0.61192460  1
  Mo  Mo24  1  0.78761429  0.45132006  0.64575507  1
  Mo  Mo25  1  0.16623080  0.36231632  0.49871906  1
  Mo  Mo26  1  0.33492084  0.53916184  0.66847762  1
  Mo  Mo27  1  0.83376920  0.63768368  0.50128094  1
  Mo  Mo28  1  0.72698991  0.39286658  0.59395848  1
  Mo  Mo29  1  0.53916184  0.66847762  0.33492084  1
  Mo  Mo30  1  0.66507916  0.46083816  0.33152238  1
  Mo  Mo31  1  0.50128094  0.83376920  0.63768368  1
  Mo  Mo32  1  0.36231632  0.49871906  0.16623080  1
  Mo  Mo33  1  0.57899655  0.44264713  0.77804601  1
  Mo  Mo34  1  0.42100345  0.55735287  0.22195399  1
  Mo  Mo35  1  0.35424493  0.21238571  0.54867994  1
  S  S0  1  0.73436335  0.35874658  0.10801252  1
  S  S1  1  0.69323042  0.94428285  0.32734486  1
  S  S2  1  0.04429321  0.40444875  0.66590265  1
  S  S3  1  0.77334854  0.14852048  0.53522630  1
  S  S4  1  0.30676958  0.05571715  0.67265514  1
  S  S5  1  0.68130878  0.68130878  0.68130878  1
  S  S6  1  0.33409735  0.95570679  0.59555125  1
  S  S7  1  0.31869122  0.31869122  0.31869122  1
  S  S8  1  0.22665146  0.85147952  0.46477370  1
  S  S9  1  0.14852048  0.53522630  0.77334854  1
  S  S10  1  0.52600908  0.28132954  0.90634551  1
  S  S11  1  0.10801252  0.73436335  0.35874658  1
  S  S12  1  0.94428285  0.32734486  0.69323042  1
  S  S13  1  0.28132954  0.90634551  0.52600908  1
  S  S14  1  0.40444875  0.66590265  0.04429321  1
  S  S15  1  0.90634551  0.52600908  0.28132954  1
  S  S16  1  0.59555125  0.33409735  0.95570679  1
  S  S17  1  0.53522630  0.77334854  0.14852048  1
  S  S18  1  0.85147952  0.46477370  0.22665146  1
  S  S19  1  0.67265514  0.30676958  0.05571715  1
  S  S20  1  0.79412942  0.40931893  0.16860390  1
  S  S21  1  0.09365449  0.47399092  0.71867046  1
  S  S22  1  0.26563665  0.64125342  0.89198748  1
  S  S23  1  0.89198748  0.26563665  0.64125342  1
  S  S24  1  0.32734486  0.69323042  0.94428285  1
  S  S25  1  0.95570679  0.59555125  0.33409735  1
  S  S26  1  0.40931893  0.16860390  0.79412942  1
  S  S27  1  0.59068107  0.83139610  0.20587058  1
  S  S28  1  0.35874658  0.10801252  0.73436335  1
  S  S29  1  0.83139610  0.20587058  0.59068107  1
  S  S30  1  0.47399092  0.71867046  0.09365449  1
  S  S31  1  0.64125342  0.89198748  0.26563665  1
  S  S32  1  0.71867046  0.09365449  0.47399092  1
  S  S33  1  0.05571715  0.67265514  0.30676958  1
  S  S34  1  0.46477370  0.22665146  0.85147952  1
  S  S35  1  0.66590265  0.04429321  0.40444875  1
  S  S36  1  0.20587058  0.59068107  0.83139610  1
  S  S37  1  0.16860390  0.79412942  0.40931893  1
loop_
_geom_bond_atom_site_label_1
_geom_bond_atom_site_label_2
_geom_bond_distance
_geom_bond_site_symmetry_2
Rb0 S2 3.409018 1_655
Rb0 S14 3.409018 1_556
Rb0 S35 3.409018 1_565
Rb0 S28 3.477386 1_565
Rb0 S11 3.477386 1_655
Rb0 S0 3.477386 1_556
Rb0 S5 3.548125 1_555
Rb1 S16 3.395138 1_565
Rb1 S6 3.395138 1_655
Rb1 S25 3.395138 1_556
Rb1 S24 3.449591 1_655
Rb1 S1 3.449591 1_556
Rb1 S12 3.449591 1_565
Rb1 S22 3.810062 1_655
Rb1 S23 3.810062 1_565
Rb1 S31 3.810062 1_556
Rb2 S10 3.464546 1_565
Rb2 S13 3.464546 1_655
Rb2 S15 3.464546 1_556
Rb2 S22 3.571268 1_655
Rb2 S31 3.571268 1_556
Rb2 S23 3.571268 1_565
Rb2 S36 3.678812 1_655
Rb2 S29 3.678812 1_565
Rb2 S27 3.678812 1_556
Rb3 S34 3.493111 1_565
Rb3 S8 3.493111 1_655
Rb3 S18 3.493111 1_556
Rb3 S36 3.602376 1_655
Rb3 S27 3.602376 1_556
Rb3 S29 3.602377 1_565
Rb3 S9 3.607448 1_655
Rb3 S3 3.607448 1_565
Rb3 S17 3.607448 1_556
Rb4 S26 3.483686 1_565
Rb4 S37 3.483686 1_655
Rb4 S20 3.483687 1_556
Rb4 S21 3.548585 1_655
Rb4 S32 3.548585 1_565
Rb4 S30 3.548585 1_556
Rb4 S9 3.678257 1_655
Rb4 S17 3.678257 1_556
Rb4 S3 3.678257 1_565
Rb5 S17 3.493111 1_545
Rb5 S3 3.493111 1_455
Rb5 S9 3.493111 1_554
Rb5 S20 3.602376 1_455
Rb5 S26 3.602376 1_554
Rb5 S37 3.602377 1_545
Rb5 S18 3.607448 1_455
Rb5 S8 3.607448 1_545
Rb5 S34 3.607448 1_554
Rb6 S14 3.395138 1_545
Rb6 S35 3.395138 1_455
Rb6 S2 3.395138 1_554
Rb6 S19 3.449591 1_455
Rb6 S4 3.449591 1_554
Rb6 S33 3.449591 1_545
Rb6 S0 3.810062 1_455
Rb6 S11 3.810062 1_545
Rb6 S28 3.810062 1_554
Rb7 S30 3.464546 1_545
Rb7 S32 3.464546 1_455
Rb7 S21 3.464546 1_554
Rb7 S0 3.571268 1_455
Rb7 S28 3.571268 1_554
Rb7 S11 3.571268 1_545
Rb7 S20 3.678812 1_455
Rb7 S37 3.678812 1_545
Rb7 S26 3.678812 1_554
Rb8 S25 3.409018 1_455
Rb8 S16 3.409018 1_554
Rb8 S6 3.409018 1_545
Rb8 S31 3.477386 1_545
Rb8 S23 3.477386 1_455
Rb8 S22 3.477386 1_554
Rb8 S7 3.548125 1_555
Rb9 S27 3.483686 1_545
Rb9 S29 3.483686 1_455
Rb9 S36 3.483687 1_554
Rb9 S15 3.548585 1_455
Rb9 S13 3.548585 1_545
Rb9 S10 3.548585 1_554
Rb9 S18 3.678257 1_455
Rb9 S34 3.678257 1_554
Rb9 S8 3.678257 1_545
Mo0 S21 2.491245 1_555
Mo0 S30 2.514652 1_555
Mo0 S11 2.590757 1_555
Mo0 S37 2.610137 1_555
Mo1 S29 2.495306 1_555
Mo1 S36 2.519453 1_555
Mo1 S10 2.588419 1_555
Mo1 S34 2.607344 1_555
Mo2 S3 2.494479 1_555
Mo2 S9 2.517509 1_555
Mo2 S26 2.599461 1_555
Mo2 S34 2.600404 1_555
Mo3 S5 2.403544 1_555
Mo3 S12 2.468809 1_555
Mo3 S24 2.480362 1_555
Mo3 S19 2.508539 1_556
Mo3 S16 2.632914 1_555
Mo4 S24 2.455625 1_555
Mo4 S16 2.479089 1_555
Mo4 S6 2.483419 1_555
Mo4 S22 2.605008 1_555
Mo5 S36 2.495306 1_555
Mo5 S27 2.519453 1_555
Mo5 S13 2.588419 1_555
Mo5 S8 2.607344 1_555
Mo6 S19 2.455625 1_555
Mo6 S14 2.479089 1_555
Mo6 S35 2.483419 1_555
Mo6 S0 2.605008 1_555
Mo7 S18 2.494479 1_555
Mo7 S34 2.517509 1_555
Mo7 S29 2.599461 1_555
Mo7 S3 2.600404 1_555
Mo8 S27 2.495306 1_555
Mo8 S29 2.519453 1_555
Mo8 S15 2.588419 1_555
Mo8 S18 2.607344 1_555
Mo9 S33 2.455625 1_555
Mo9 S2 2.479089 1_555
Mo9 S14 2.483419 1_555
Mo9 S11 2.605008 1_555
Mo10 S32 2.491245 1_555
Mo10 S21 2.514652 1_555
Mo10 S28 2.590757 1_555
Mo10 S26 2.610137 1_555
Mo11 S20 2.495306 1_555
Mo11 S26 2.519453 1_555
Mo11 S32 2.588419 1_555
Mo11 S3 2.607344 1_555
Mo12 S31 2.494501 1_555
Mo12 S23 2.516425 1_555
Mo12 S25 2.587465 1_555
Mo12 S15 2.608425 1_555
Mo13 S37 2.495306 1_555
Mo13 S20 2.519453 1_555
Mo13 S30 2.588419 1_555
Mo13 S17 2.607344 1_555
Mo14 S13 2.491245 1_555
Mo14 S15 2.514652 1_555
Mo14 S31 2.590757 1_555
Mo14 S27 2.610137 1_555
Mo15 S0 2.494501 1_555
Mo15 S28 2.516425 1_555
Mo15 S35 2.587465 1_555
Mo15 S32 2.608425 1_555
Mo16 S28 2.494501 1_555
Mo16 S11 2.516425 1_555
Mo16 S2 2.587465 1_555
Mo16 S21 2.608425 1_555
Mo17 S10 2.491245 1_555
Mo17 S13 2.514652 1_555
Mo17 S22 2.590757 1_555
Mo17 S36 2.610137 1_555
Mo18 S22 2.494501 1_555
Mo18 S31 2.516425 1_555
Mo18 S6 2.587465 1_555
Mo18 S13 2.608425 1_555
Mo19 S9 2.494479 1_555
Mo19 S17 2.517509 1_555
Mo19 S37 2.599461 1_555
Mo19 S8 2.600404 1_555
Mo20 S30 2.491245 1_555
Mo20 S32 2.514652 1_555
Mo20 S0 2.590757 1_555
Mo20 S20 2.610137 1_555
Mo21 S7 2.403544 1_555
Mo21 S19 2.468809 1_555
Mo21 S4 2.480362 1_555
Mo21 S1 2.508539 1_545
Mo21 S35 2.632914 1_555
Mo22 S1 2.455625 1_555
Mo22 S6 2.479089 1_555
Mo22 S25 2.483419 1_555
Mo22 S31 2.605008 1_555
Mo23 S26 2.495306 1_555
Mo23 S37 2.519453 1_555
Mo23 S21 2.588419 1_555
Mo23 S9 2.607344 1_555
Mo24 S12 2.455625 1_555
Mo24 S25 2.479089 1_555
Mo24 S16 2.483419 1_555
Mo24 S23 2.605008 1_555
Mo25 S7 2.403544 1_555
Mo25 S4 2.468809 1_555
Mo25 S33 2.480362 1_555
Mo25 S12 2.508539 1_455
Mo25 S2 2.632914 1_555
Mo26 S34 2.494479 1_555
Mo26 S8 2.517509 1_555
Mo26 S36 2.599461 1_555
Mo26 S9 2.600404 1_555
Mo27 S5 2.403544 1_555
Mo27 S1 2.468809 1_555
Mo27 S12 2.480362 1_555
Mo27 S33 2.508539 1_655
Mo27 S25 2.632914 1_555
Mo28 S15 2.491245 1_555
Mo28 S10 2.514652 1_555
Mo28 S23 2.590757 1_555
Mo28 S29 2.610137 1_555
Mo29 S8 2.494479 1_555
Mo29 S18 2.517509 1_555
Mo29 S27 2.599461 1_555
Mo29 S17 2.600404 1_555
Mo30 S17 2.494479 1_555
Mo30 S3 2.517509 1_555
Mo30 S20 2.599461 1_555
Mo30 S18 2.600404 1_555
Mo31 S5 2.403544 1_555
Mo31 S24 2.468809 1_555
Mo31 S1 2.480362 1_555
Mo31 S4 2.508539 1_565
Mo31 S6 2.632914 1_555
Mo32 S7 2.403544 1_555
Mo32 S33 2.468809 1_555
Mo32 S19 2.480362 1_555
Mo32 S24 2.508539 1_554
Mo32 S14 2.632914 1_555
Mo33 S23 2.494501 1_555
Mo33 S22 2.516425 1_555
Mo33 S16 2.587465 1_555
Mo33 S10 2.608425 1_555
Mo34 S11 2.494501 1_555
Mo34 S0 2.516425 1_555
Mo34 S14 2.587465 1_555
Mo34 S30 2.608425 1_555
Mo35 S4 2.455625 1_555
Mo35 S35 2.479089 1_555
Mo35 S2 2.483419 1_555
Mo35 S28 2.605008 1_555
