# generated using pymatgen
data_Ag8GeTe6
_symmetry_space_group_name_H-M   'P 1'
_cell_length_a   8.18140600
_cell_length_b   8.19069543
_cell_length_c   8.38428628
_cell_angle_alpha   61.46822174
_cell_angle_beta   61.90870288
_cell_angle_gamma   61.73741452
_symmetry_Int_Tables_number   1
_chemical_formula_structural   Ag8GeTe6
_chemical_formula_sum   'Ag8 Ge1 Te6'
_cell_volume   412.45232668
_cell_formula_units_Z   1
loop_
 _symmetry_equiv_pos_site_id
 _symmetry_equiv_pos_as_xyz
  1  'x, y, z'
loop_
 _atom_site_type_symbol
 _atom_site_label
 _atom_site_symmetry_multiplicity
 _atom_site_fract_x
 _atom_site_fract_y
 _atom_site_fract_z
 _atom_site_occupancy
  Ag  Ag0  1  0.19265400  0.81605200  0.22354000  1
  Ag  Ag1  1  0.84769400  0.17496700  0.23808300  1
  Ag  Ag2  1  0.20211400  0.20394000  0.60666700  1
  Ag  Ag3  1  0.21252000  0.19954600  0.94640000  1
  Ag  Ag4  1  0.59875500  0.37402000  0.98290200  1
  Ag  Ag5  1  0.02210100  0.01235600  0.55040900  1
  Ag  Ag6  1  0.01452100  0.59419800  0.01503000  1
  Ag  Ag7  1  0.58950800  0.00515200  0.01932300  1
  Ge  Ge0  1  0.51123800  0.50115700  0.52334100  1
  Te  Te0  1  0.98348700  0.99364300  0.96173700  1
  Te  Te1  1  0.25256300  0.25998800  0.22907000  1
  Te  Te2  1  0.61100700  0.60744700  0.14643900  1
  Te  Te3  1  0.60304300  0.11574300  0.62440300  1
  Te  Te4  1  0.12375800  0.60078600  0.62452600  1
  Te  Te5  1  0.66093700  0.63660500  0.61902900  1
loop_
_geom_bond_atom_site_label_1
_geom_bond_atom_site_label_2
_geom_bond_distance
_geom_bond_site_symmetry_2
Ag0 Te0 2.827106 1_454
Ag0 Te4 2.867615 1_555
Ag0 Ag3 2.906453 1_564
Ag0 Te2 2.912963 1_555
Ag0 Ag1 2.963664 1_465
Ag0 Ag5 3.244435 1_565
Ag1 Te3 2.836526 1_555
Ag1 Te0 2.847597 1_544
Ag1 Ag3 2.855636 1_654
Ag1 Ag4 3.001740 1_554
Ag1 Ag5 3.009064 1_655
Ag1 Te2 3.032025 1_555
Ag2 Te1 2.822122 1_555
Ag2 Te0 2.834305 1_445
Ag2 Ag3 2.872208 1_555
Ag2 Ag5 2.898938 1_555
Ag2 Te4 3.065936 1_555
Ag2 Te3 3.068571 1_555
Ag3 Te1 2.823983 1_556
Ag3 Ag7 2.935484 1_556
Ag3 Te0 2.988414 1_445
Ag3 Ag6 3.056827 1_556
Ag3 Te3 3.088347 1_555
Ag3 Te4 3.118307 1_555
Ag4 Te5 2.738315 1_555
Ag4 Te1 2.883190 1_556
Ag4 Te2 2.891506 1_556
Ag4 Ag7 2.922413 1_556
Ag4 Te0 3.218819 1_545
Ag5 Te4 2.876145 1_545
Ag5 Te1 2.923210 1_555
Ag5 Te3 2.933556 1_455
Ag5 Te0 3.245247 1_445
Ag6 Te1 2.838404 1_555
Ag6 Te2 2.910986 1_455
Ag6 Te4 2.939825 1_554
Ag6 Te0 2.981940 1_454
Ag7 Te2 2.845241 1_545
Ag7 Te1 2.922422 1_555
Ag7 Te3 2.946321 1_554
Ag7 Te0 2.986934 1_544
Ge0 Te5 2.537094 1_555
Ge0 Te2 2.650629 1_555
Ge0 Te3 2.654464 1_555
Ge0 Te4 2.667214 1_555
