# generated using pymatgen
data_UB4
_symmetry_space_group_name_H-M   'P 1'
_cell_length_a   3.94227883
_cell_length_b   7.00967008
_cell_length_c   7.00967008
_cell_angle_alpha   90.00000000
_cell_angle_beta   90.00000000
_cell_angle_gamma   90.00000000
_symmetry_Int_Tables_number   1
_chemical_formula_structural   UB4
_chemical_formula_sum   'U4 B16'
_cell_volume   193.70574144
_cell_formula_units_Z   4
loop_
 _symmetry_equiv_pos_site_id
 _symmetry_equiv_pos_as_xyz
  1  'x, y, z'
loop_
 _atom_site_type_symbol
 _atom_site_label
 _atom_site_symmetry_multiplicity
 _atom_site_fract_x
 _atom_site_fract_y
 _atom_site_fract_z
 _atom_site_occupancy
  U  U0  1  -0.00000000  0.30984692  0.80984692  1
  U  U1  1  0.00000000  0.19015308  0.30984692  1
  U  U2  1  -0.00000000  0.80984692  0.69015308  1
  U  U3  1  0.00000000  0.69015308  0.19015308  1
  B  B0  1  0.19998599  -0.00000000  0.00000000  1
  B  B1  1  0.80001401  0.50000000  0.50000000  1
  B  B2  1  0.80001401  -0.00000000  0.00000000  1
  B  B3  1  0.19998599  0.50000000  0.50000000  1
  B  B4  1  0.50000000  0.08699055  0.58699055  1
  B  B5  1  0.50000000  0.41300945  0.08699055  1
  B  B6  1  0.50000000  0.58699055  0.91300945  1
  B  B7  1  0.50000000  0.91300945  0.41300945  1
  B  B8  1  0.50000000  0.17892651  0.03827024  1
  B  B9  1  0.50000000  0.96172976  0.17892651  1
  B  B10  1  0.50000000  0.03827024  0.82107349  1
  B  B11  1  0.50000000  0.82107349  0.96172976  1
  B  B12  1  0.50000000  0.67892651  0.46172976  1
  B  B13  1  0.50000000  0.32107349  0.53827024  1
  B  B14  1  0.50000000  0.53827024  0.67892651  1
  B  B15  1  0.50000000  0.46172976  0.32107349  1
loop_
_geom_bond_atom_site_label_1
_geom_bond_atom_site_label_2
_geom_bond_distance
_geom_bond_site_symmetry_2
B0 B2 1.576801 1_455
B0 B9 1.744676 1_545
B0 B8 1.744676 1_555
B0 B11 1.744676 1_544
B0 B10 1.744676 1_554
B0 U2 2.667486 1_544
B0 U1 2.667486 1_555
B0 U3 2.667486 1_545
B0 U0 2.667486 1_554
B1 B3 1.576801 1_655
B1 B15 1.744676 1_555
B1 B13 1.744676 1_555
B1 B12 1.744676 1_555
B1 B14 1.744676 1_555
B1 U0 2.667486 1_655
B1 U3 2.667486 1_655
B1 U1 2.667486 1_655
B1 U2 2.667486 1_655
B2 B8 1.744676 1_555
B2 B9 1.744676 1_545
B2 U2 2.667486 1_644
B2 U0 2.667486 1_654
B2 U1 2.667486 1_655
B2 U3 2.667486 1_645
B3 U0 2.667486 1_555
B3 U1 2.667486 1_555
B3 U2 2.667486 1_555
B3 U3 2.667486 1_555
B4 B7 1.724704 1_545
B4 U1 2.860479 1_555
B4 U2 2.860479 1_545
B4 U2 2.860479 1_645
B4 U1 2.860479 1_655
B4 U0 2.960745 1_655
B4 U0 2.960745 1_555
B5 B8 1.676007 1_555
B5 B6 1.724704 1_554
B5 U0 2.860479 1_654
B5 U0 2.860479 1_554
B5 U3 2.860479 1_655
B5 U3 2.860479 1_555
B5 U1 2.960745 1_655
B5 U1 2.960745 1_555
B6 U0 2.860479 1_655
B6 U3 2.860479 1_656
B6 U3 2.860479 1_556
B6 U0 2.860479 1_555
B6 U2 2.960745 1_555
B6 U2 2.960745 1_655
B7 B9 1.676007 1_555
B7 U1 2.860479 1_565
B7 U1 2.860479 1_665
B7 U2 2.860479 1_555
B7 U2 2.860479 1_655
B7 U3 2.960745 1_655
B7 U3 2.960745 1_555
B8 B9 1.813848 1_545
B8 U0 2.700247 1_654
B8 U0 2.700247 1_554
B8 U1 2.741444 1_555
B8 U1 2.741444 1_655
B9 U1 2.700247 1_565
B9 U1 2.700247 1_665
B9 U3 2.741444 1_655
B9 U3 2.741444 1_555
B10 B4 1.676007 1_555
B10 B2 1.744676 1_556
B10 B8 1.813848 1_556
B10 B11 1.813848 1_545
B10 U2 2.700247 1_545
B10 U2 2.700247 1_645
B10 U0 2.741444 1_655
B10 U0 2.741444 1_555
B11 B6 1.676007 1_555
B11 B2 1.744676 1_566
B11 B9 1.813848 1_556
B11 U3 2.700247 1_656
B11 U3 2.700247 1_556
B11 U2 2.741444 1_555
B11 U2 2.741444 1_655
B12 B7 1.676007 1_555
B12 B3 1.744676 1_555
B12 B15 1.813848 1_555
B12 B14 1.813848 1_555
B12 U2 2.700247 1_555
B12 U2 2.700247 1_655
B12 U3 2.741444 1_655
B12 U3 2.741444 1_555
B13 B4 1.676007 1_555
B13 B3 1.744676 1_555
B13 B15 1.813848 1_555
B13 B14 1.813848 1_555
B13 U1 2.700247 1_555
B13 U1 2.700247 1_655
B13 U0 2.741444 1_655
B13 U0 2.741444 1_555
B14 B6 1.676007 1_555
B14 B3 1.744676 1_555
B14 U0 2.700247 1_555
B14 U0 2.700247 1_655
B14 U2 2.741444 1_555
B14 U2 2.741444 1_655
B15 B5 1.676007 1_555
B15 B3 1.744676 1_555
B15 U3 2.700247 1_655
B15 U3 2.700247 1_555
B15 U1 2.741444 1_555
B15 U1 2.741444 1_655
