# generated using pymatgen
data_NdH12S2NO12
_symmetry_space_group_name_H-M   'P 1'
_cell_length_a   19.23074500
_cell_length_b   6.73385900
_cell_length_c   8.84429917
_cell_angle_alpha   82.45511898
_cell_angle_beta   90.00000000
_cell_angle_gamma   90.00000000
_symmetry_Int_Tables_number   1
_chemical_formula_structural   NdH12S2NO12
_chemical_formula_sum   'Nd4 H48 S8 N4 O48'
_cell_volume   1135.39557137
_cell_formula_units_Z   4
loop_
 _symmetry_equiv_pos_site_id
 _symmetry_equiv_pos_as_xyz
  1  'x, y, z'
loop_
 _atom_site_type_symbol
 _atom_site_label
 _atom_site_symmetry_multiplicity
 _atom_site_fract_x
 _atom_site_fract_y
 _atom_site_fract_z
 _atom_site_occupancy
  Nd  Nd0  1  0.12300900  0.85595000  0.28825300  1
  Nd  Nd1  1  0.87699100  0.14405000  0.71174700  1
  Nd  Nd2  1  0.62300900  0.14405000  0.21174700  1
  Nd  Nd3  1  0.37699100  0.85595000  0.78825300  1
  H  H0  1  0.81980100  0.64971000  0.31636100  1
  H  H1  1  0.72443500  0.51768700  0.96605400  1
  H  H2  1  0.97155900  0.82271600  0.43389300  1
  H  H3  1  0.93436500  0.28313400  0.38303700  1
  H  H4  1  0.46317600  0.25448600  0.22615300  1
  H  H5  1  0.41586900  0.87258000  0.45140200  1
  H  H6  1  0.77556500  0.51768700  0.46605400  1
  H  H7  1  0.86302200  0.18762900  0.34944900  1
  H  H8  1  0.52844100  0.82271600  0.93389300  1
  H  H9  1  0.13697800  0.81237100  0.65055100  1
  H  H10  1  0.36302200  0.81237100  0.15055100  1
  H  H11  1  0.23369500  0.30968400  0.15911600  1
  H  H12  1  0.47062300  0.71446100  0.52038400  1
  H  H13  1  0.56563500  0.28313400  0.88303700  1
  H  H14  1  0.26630500  0.30968400  0.65911600  1
  H  H15  1  0.08413100  0.87258000  0.95140200  1
  H  H16  1  0.78992400  0.76180500  0.46671400  1
  H  H17  1  0.02844100  0.17728400  0.56610700  1
  H  H18  1  0.02937700  0.71446100  0.02038400  1
  H  H19  1  0.96317600  0.74551400  0.27384700  1
  H  H20  1  0.03682400  0.25448600  0.72615300  1
  H  H21  1  0.71007600  0.76180500  0.96671400  1
  H  H22  1  0.76630500  0.69031600  0.84088400  1
  H  H23  1  0.43436500  0.71686600  0.11696300  1
  H  H24  1  0.58739500  0.51392000  0.66691300  1
  H  H25  1  0.18019900  0.35029000  0.68363900  1
  H  H26  1  0.58413100  0.12742000  0.54859800  1
  H  H27  1  0.91260500  0.51392000  0.16691300  1
  H  H28  1  0.53682400  0.74551400  0.77384700  1
  H  H29  1  0.31980100  0.35029000  0.18363900  1
  H  H30  1  0.08739500  0.48608000  0.83308700  1
  H  H31  1  0.52937700  0.28553900  0.47961600  1
  H  H32  1  0.38707600  0.29337100  0.43633400  1
  H  H33  1  0.27556500  0.48231300  0.03394600  1
  H  H34  1  0.41260500  0.48608000  0.33308700  1
  H  H35  1  0.61292400  0.70662900  0.56366600  1
  H  H36  1  0.68019900  0.64971000  0.81636100  1
  H  H37  1  0.47155900  0.17728400  0.06610700  1
  H  H38  1  0.11292400  0.29337100  0.93633400  1
  H  H39  1  0.06563500  0.71686600  0.61696300  1
  H  H40  1  0.73369500  0.69031600  0.34088400  1
  H  H41  1  0.22443500  0.48231300  0.53394600  1
  H  H42  1  0.88707600  0.70662900  0.06366600  1
  H  H43  1  0.91586900  0.12742000  0.04859800  1
  H  H44  1  0.97062300  0.28553900  0.97961600  1
  H  H45  1  0.63697800  0.18762900  0.84944900  1
  H  H46  1  0.21007600  0.23819500  0.53328600  1
  H  H47  1  0.28992400  0.23819500  0.03328600  1
  S  S0  1  0.57605000  0.68452600  0.23730000  1
  S  S1  1  0.72294700  0.12104300  0.58561100  1
  S  S2  1  0.07605000  0.31547400  0.26270000  1
  S  S3  1  0.22294700  0.87895700  0.91438900  1
  S  S4  1  0.42395000  0.31547400  0.76270000  1
  S  S5  1  0.77705300  0.12104300  0.08561100  1
  S  S6  1  0.27705300  0.87895700  0.41438900  1
  S  S7  1  0.92395000  0.68452600  0.73730000  1
  N  N0  1  0.22002400  0.34587400  0.60361100  1
  N  N1  1  0.77997600  0.65412600  0.39638900  1
  N  N2  1  0.27997600  0.34587400  0.10361100  1
  N  N3  1  0.72002400  0.65412600  0.89638900  1
  O  O0  1  0.26166400  0.69403300  0.88580200  1
  O  O1  1  0.89079400  0.64408600  0.17132300  1
  O  O2  1  0.15893800  0.90728000  0.82071600  1
  O  O3  1  0.20490500  0.86630200  0.07808200  1
  O  O4  1  0.11132300  0.75082700  0.57084100  1
  O  O5  1  0.34106200  0.90728000  0.32071600  1
  O  O6  1  0.11045500  0.20976300  0.14263600  1
  O  O7  1  0.38238100  0.49446600  0.78567300  1
  O  O8  1  0.39079400  0.35591400  0.32867700  1
  O  O9  1  0.61045500  0.79023700  0.35736400  1
  O  O10  1  0.88238100  0.50553400  0.71432700  1
  O  O11  1  0.88867700  0.24917300  0.42915900  1
  O  O12  1  0.61761900  0.50553400  0.21432700  1
  O  O13  1  0.11761900  0.49446600  0.28567300  1
  O  O14  1  0.94119800  0.17718200  0.95373400  1
  O  O15  1  0.73833600  0.30596700  0.11419800  1
  O  O16  1  0.65893800  0.09272000  0.67928400  1
  O  O17  1  0.88954500  0.79023700  0.85736400  1
  O  O18  1  0.49803300  0.20560000  0.15695800  1
  O  O19  1  0.50196700  0.79440000  0.84304200  1
  O  O20  1  0.38954500  0.20976300  0.64263600  1
  O  O21  1  0.92228500  0.83491500  0.59600600  1
  O  O22  1  0.29509500  0.86630200  0.57808200  1
  O  O23  1  0.38867700  0.75082700  0.07084100  1
  O  O24  1  0.60920600  0.64408600  0.67132300  1
  O  O25  1  0.05880200  0.82281800  0.04626600  1
  O  O26  1  0.00196700  0.20560000  0.65695800  1
  O  O27  1  0.72705400  0.95072100  0.12634400  1
  O  O28  1  0.76166400  0.30596700  0.61419800  1
  O  O29  1  0.22705400  0.04927900  0.37365600  1
  O  O30  1  0.50365200  0.62926700  0.28082000  1
  O  O31  1  0.10920600  0.35591400  0.82867700  1
  O  O32  1  0.99634800  0.62926700  0.78082000  1
  O  O33  1  0.61132300  0.24917300  0.92915900  1
  O  O34  1  0.44119800  0.82281800  0.54626600  1
  O  O35  1  0.77294600  0.95072100  0.62634400  1
  O  O36  1  0.27294600  0.04927900  0.87365600  1
  O  O37  1  0.49634800  0.37073300  0.71918000  1
  O  O38  1  0.57771500  0.83491500  0.09600600  1
  O  O39  1  0.99803300  0.79440000  0.34304200  1
  O  O40  1  0.00365200  0.37073300  0.21918000  1
  O  O41  1  0.84106200  0.09272000  0.17928400  1
  O  O42  1  0.79509500  0.13369800  0.92191800  1
  O  O43  1  0.70490500  0.13369800  0.42191800  1
  O  O44  1  0.55880200  0.17718200  0.45373400  1
  O  O45  1  0.42228500  0.16508500  0.90399400  1
  O  O46  1  0.23833600  0.69403300  0.38580200  1
  O  O47  1  0.07771500  0.16508500  0.40399400  1
loop_
_geom_bond_atom_site_label_1
_geom_bond_atom_site_label_2
_geom_bond_distance
_geom_bond_site_symmetry_2
Nd0 O3 2.430309 1_555
Nd0 O13 2.439486 1_555
Nd0 O39 2.475903 1_455
Nd0 O25 2.506043 1_555
Nd0 O4 2.516637 1_555
Nd0 O29 2.554803 1_565
Nd0 O6 2.566627 1_565
Nd0 O46 2.569994 1_555
Nd0 O47 2.588340 1_565
Nd1 O42 2.430309 1_555
Nd1 O10 2.439486 1_555
Nd1 O26 2.475903 1_655
Nd1 O14 2.506043 1_555
Nd1 O11 2.516637 1_555
Nd1 O35 2.554803 1_545
Nd1 O17 2.566627 1_545
Nd1 O28 2.569994 1_555
Nd1 O21 2.588340 1_545
Nd2 O43 2.430309 1_555
Nd2 O12 2.439486 1_555
Nd2 O18 2.475903 1_555
Nd2 O44 2.506043 1_555
Nd2 O33 2.516637 1_554
Nd2 O27 2.554803 1_545
Nd2 O9 2.566627 1_545
Nd2 O15 2.569994 1_555
Nd2 O38 2.588340 1_545
Nd3 O22 2.430309 1_555
Nd3 O7 2.439486 1_555
Nd3 O19 2.475903 1_555
Nd3 O34 2.506043 1_555
Nd3 O23 2.516637 1_556
Nd3 O36 2.554803 1_565
Nd3 O20 2.566627 1_565
Nd3 O0 2.569994 1_555
Nd3 O45 2.588340 1_565
H0 N1 1.045910 1_555
H1 N3 1.040330 1_555
H2 O39 0.990668 1_555
H2 O21 1.729535 1_555
H3 O11 0.982934 1_555
H4 O18 0.992537 1_555
H5 O34 0.989772 1_555
H6 N1 1.040330 1_555
H7 O11 0.994424 1_555
H8 O19 0.990668 1_555
H8 O38 1.729535 1_556
H9 O4 0.994424 1_555
H10 O23 0.994424 1_555
H11 N2 1.030093 1_555
H12 O34 0.974099 1_555
H13 O33 0.982934 1_555
H14 N0 1.030093 1_555
H15 O25 0.989772 1_556
H16 N1 1.033270 1_555
H17 O26 0.990668 1_555
H17 O47 1.729535 1_555
H18 O25 0.974099 1_555
H19 O39 0.992537 1_555
H20 O26 0.992537 1_555
H21 N3 1.033270 1_555
H22 N3 1.030093 1_555
H23 O23 0.982934 1_555
H24 O24 0.977096 1_555
H25 N0 1.045910 1_555
H26 O44 0.989772 1_555
H27 O1 0.977096 1_555
H28 O19 0.992537 1_555
H29 N2 1.045910 1_555
H30 O31 0.977096 1_555
H31 O44 0.974099 1_555
H32 O8 0.991852 1_555
H33 N2 1.040330 1_555
H34 O8 0.977096 1_555
H35 O24 0.991852 1_555
H36 N3 1.045910 1_555
H37 O18 0.990668 1_555
H37 O45 1.729535 1_554
H38 O31 0.991852 1_555
H39 O4 0.982934 1_555
H40 N1 1.030093 1_555
H41 N0 1.040330 1_555
H42 O1 0.991852 1_555
H43 O14 0.989772 1_554
H44 O14 0.974099 1_555
H45 O33 0.994424 1_555
H46 N0 1.033270 1_555
H47 N2 1.033270 1_555
O0 S3 1.500540 1_555
O2 S3 1.482047 1_555
O3 S3 1.480279 1_554
O5 S6 1.482047 1_555
O6 S2 1.506843 1_555
O7 S4 1.482364 1_555
O9 S0 1.506843 1_555
O10 S7 1.482364 1_555
O12 S0 1.482364 1_555
O13 S2 1.482364 1_555
O15 S5 1.500540 1_555
O16 S1 1.482047 1_555
O17 S7 1.506843 1_555
O20 S4 1.506843 1_555
O21 S7 1.501955 1_555
O22 S6 1.480279 1_555
O27 S5 1.503739 1_565
O28 S1 1.500540 1_555
O29 S6 1.503739 1_545
O30 S0 1.478990 1_555
O32 S7 1.478990 1_555
O35 S1 1.503739 1_565
O36 S3 1.503739 1_545
O37 S4 1.478990 1_555
O38 S0 1.501955 1_555
O40 S2 1.478990 1_555
O41 S5 1.482047 1_555
O42 S5 1.480279 1_556
O43 S1 1.480279 1_555
O45 S4 1.501955 1_555
O46 S6 1.500540 1_555
O47 S2 1.501955 1_555
