# generated using pymatgen
data_CaN6
_symmetry_space_group_name_H-M   'P 1'
_cell_length_a   5.93096731
_cell_length_b   6.28271898
_cell_length_c   6.37036711
_cell_angle_alpha   77.30713748
_cell_angle_beta   62.25663340
_cell_angle_gamma   61.83537916
_symmetry_Int_Tables_number   1
_chemical_formula_structural   CaN6
_chemical_formula_sum   'Ca2 N12'
_cell_volume   185.21256044
_cell_formula_units_Z   2
loop_
 _symmetry_equiv_pos_site_id
 _symmetry_equiv_pos_as_xyz
  1  'x, y, z'
loop_
 _atom_site_type_symbol
 _atom_site_label
 _atom_site_symmetry_multiplicity
 _atom_site_fract_x
 _atom_site_fract_y
 _atom_site_fract_z
 _atom_site_occupancy
  Ca  Ca0  1  0.62500000  0.75000000  0.75000000  1
  Ca  Ca1  1  0.37500000  0.25000000  0.25000000  1
  N  N0  1  0.83447188  0.38699598  0.49695692  1
  N  N1  1  0.21842678  0.11300402  0.00304308  1
  N  N2  1  0.00040054  0.25000000  0.99919792  1
  N  N3  1  0.74959946  0.25000000  0.50080208  1
  N  N4  1  0.99959946  0.75000000  0.00080208  1
  N  N5  1  0.25040054  0.75000000  0.49919792  1
  N  N6  1  0.33142881  0.88699598  0.50304308  1
  N  N7  1  0.22146986  0.61300402  0.99695692  1
  N  N8  1  0.78157322  0.88699598  0.99695692  1
  N  N9  1  0.16552812  0.61300402  0.50304308  1
  N  N10  1  0.66857119  0.11300402  0.49695692  1
  N  N11  1  0.77853014  0.38699598  0.00304308  1
loop_
_geom_bond_atom_site_label_1
_geom_bond_atom_site_label_2
_geom_bond_distance
_geom_bond_site_symmetry_2
Ca0 N11 2.533687 1_556
Ca0 N1 2.533687 1_566
Ca0 N0 2.533690 1_555
Ca0 N10 2.533690 1_565
Ca0 N8 2.605357 1_555
Ca0 N7 2.605357 1_555
Ca0 N6 2.605366 1_555
Ca0 N9 2.605366 1_655
Ca1 N7 2.533687 1_554
Ca1 N8 2.533687 1_544
Ca1 N9 2.533690 1_555
Ca1 N6 2.533690 1_545
Ca1 N1 2.605357 1_555
Ca1 N11 2.605357 1_555
Ca1 N10 2.605366 1_555
Ca1 N0 2.605366 1_455
N0 N3 1.176036 1_555
N1 N2 1.176050 1_554
N4 N7 1.176045 1_654
N4 N8 1.176050 1_554
N5 N9 1.176036 1_555
N5 N6 1.176041 1_555
N10 N3 1.176041 1_555
N11 N2 1.176045 1_654
