# generated using pymatgen
data_Sc39N34
_symmetry_space_group_name_H-M   'P 1'
_cell_length_a   3.22026946
_cell_length_b   3.22026946
_cell_length_c   101.38622800
_cell_angle_alpha   90.00000000
_cell_angle_beta   90.00000000
_cell_angle_gamma   119.99998884
_symmetry_Int_Tables_number   1
_chemical_formula_structural   Sc39N34
_chemical_formula_sum   'Sc39 N34'
_cell_volume   910.52960730
_cell_formula_units_Z   1
loop_
 _symmetry_equiv_pos_site_id
 _symmetry_equiv_pos_as_xyz
  1  'x, y, z'
loop_
 _atom_site_type_symbol
 _atom_site_label
 _atom_site_symmetry_multiplicity
 _atom_site_fract_x
 _atom_site_fract_y
 _atom_site_fract_z
 _atom_site_occupancy
  Sc  Sc0  1  0.00000000  0.00000000  0.88582900  1
  Sc  Sc1  1  0.66666700  0.33333300  0.91026500  1
  Sc  Sc2  1  0.33333300  0.66666700  0.93473000  1
  Sc  Sc3  1  0.00000000  0.00000000  0.96244400  1
  Sc  Sc4  1  0.66666700  0.33333300  0.98638000  1
  Sc  Sc5  1  0.33333300  0.66666700  0.01362000  1
  Sc  Sc6  1  0.00000000  0.00000000  0.03755600  1
  Sc  Sc7  1  0.66666700  0.33333300  0.06527000  1
  Sc  Sc8  1  0.33333300  0.66666700  0.08973500  1
  Sc  Sc9  1  0.00000000  0.00000000  0.11417100  1
  Sc  Sc10  1  0.66666700  0.33333300  0.14225800  1
  Sc  Sc11  1  0.33333300  0.66666700  0.16735000  1
  Sc  Sc12  1  0.00000000  0.00000000  0.19263300  1
  Sc  Sc13  1  0.66666700  0.33333300  0.21811600  1
  Sc  Sc14  1  0.33333300  0.66666700  0.24369100  1
  Sc  Sc15  1  0.00000000  0.00000000  0.26928900  1
  Sc  Sc16  1  0.66666700  0.33333300  0.29489300  1
  Sc  Sc17  1  0.33333300  0.66666700  0.32050800  1
  Sc  Sc18  1  0.00000000  0.00000000  0.34614500  1
  Sc  Sc19  1  0.66666700  0.33333300  0.37180000  1
  Sc  Sc20  1  0.33333300  0.66666700  0.39745000  1
  Sc  Sc21  1  0.00000000  0.00000000  0.42308500  1
  Sc  Sc22  1  0.66666700  0.33333300  0.44871600  1
  Sc  Sc23  1  0.33333300  0.66666700  0.47435100  1
  Sc  Sc24  1  0.00000000  0.00000000  0.50000000  1
  Sc  Sc25  1  0.66666700  0.33333300  0.52564900  1
  Sc  Sc26  1  0.33333300  0.66666700  0.55128400  1
  Sc  Sc27  1  0.00000000  0.00000000  0.57691500  1
  Sc  Sc28  1  0.66666700  0.33333300  0.60255000  1
  Sc  Sc29  1  0.33333300  0.66666700  0.62820000  1
  Sc  Sc30  1  0.00000000  0.00000000  0.65385500  1
  Sc  Sc31  1  0.66666700  0.33333300  0.67949200  1
  Sc  Sc32  1  0.33333300  0.66666700  0.70510700  1
  Sc  Sc33  1  0.00000000  0.00000000  0.73071100  1
  Sc  Sc34  1  0.66666700  0.33333300  0.75630900  1
  Sc  Sc35  1  0.33333300  0.66666700  0.78188400  1
  Sc  Sc36  1  0.00000000  0.00000000  0.80736700  1
  Sc  Sc37  1  0.66666700  0.33333300  0.83265000  1
  Sc  Sc38  1  0.33333300  0.66666700  0.85774200  1
  N  N0  1  0.33333300  0.66666700  0.89696500  1
  N  N1  1  0.00000000  0.00000000  0.92353700  1
  N  N2  1  0.33333300  0.66666700  0.97438300  1
  N  N3  1  0.66666700  0.33333300  0.02561700  1
  N  N4  1  0.00000000  0.00000000  0.07646300  1
  N  N5  1  0.66666700  0.33333300  0.10303500  1
  N  N6  1  0.00000000  0.00000000  0.15300200  1
  N  N7  1  0.33333300  0.66666700  0.20490100  1
  N  N8  1  0.66666700  0.33333300  0.17903600  1
  N  N9  1  0.00000000  0.00000000  0.23069300  1
  N  N10  1  0.66666700  0.33333300  0.25641600  1
  N  N11  1  0.33333300  0.66666700  0.28208400  1
  N  N12  1  0.00000000  0.00000000  0.30771000  1
  N  N13  1  0.66666700  0.33333300  0.33332700  1
  N  N14  1  0.33333300  0.66666700  0.35896100  1
  N  N15  1  0.00000000  0.00000000  0.38460300  1
  N  N16  1  0.66666700  0.33333300  0.41024200  1
  N  N17  1  0.33333300  0.66666700  0.43588200  1
  N  N18  1  0.00000000  0.00000000  0.46153800  1
  N  N19  1  0.66666700  0.33333300  0.48720300  1
  N  N20  1  0.33333300  0.66666700  0.51279700  1
  N  N21  1  0.00000000  0.00000000  0.53846200  1
  N  N22  1  0.66666700  0.33333300  0.56411800  1
  N  N23  1  0.33333300  0.66666700  0.58975800  1
  N  N24  1  0.00000000  0.00000000  0.61539700  1
  N  N25  1  0.66666700  0.33333300  0.64103900  1
  N  N26  1  0.33333300  0.66666700  0.66667300  1
  N  N27  1  0.00000000  0.00000000  0.69229000  1
  N  N28  1  0.66666700  0.33333300  0.71791600  1
  N  N29  1  0.33333300  0.66666700  0.74358400  1
  N  N30  1  0.00000000  0.00000000  0.76930700  1
  N  N31  1  0.66666700  0.33333300  0.79509900  1
  N  N32  1  0.33333300  0.66666700  0.82096400  1
  N  N33  1  0.00000000  0.00000000  0.84699800  1
loop_
_geom_bond_atom_site_label_1
_geom_bond_atom_site_label_2
_geom_bond_distance
_geom_bond_site_symmetry_2
N0 Sc0 2.175185 1_565
N0 Sc0 2.175187 1_555
N0 Sc0 2.175187 1_665
N0 Sc1 2.296734 1_565
N0 Sc1 2.296734 1_455
N0 Sc1 2.296738 1_555
N1 Sc2 2.178190 1_545
N1 Sc2 2.178193 1_445
N1 Sc2 2.178193 1_555
N1 Sc1 2.295068 1_455
N1 Sc1 2.295071 1_555
N1 Sc1 2.295071 1_445
N2 Sc3 2.218534 1_565
N2 Sc3 2.218537 1_665
N2 Sc3 2.218537 1_555
N2 Sc4 2.221748 1_565
N2 Sc4 2.221748 1_455
N2 Sc4 2.221753 1_555
N3 Sc6 2.218534 1_655
N3 Sc6 2.218537 1_665
N3 Sc6 2.218537 1_555
N3 Sc5 2.221748 1_545
N3 Sc5 2.221748 1_655
N3 Sc5 2.221753 1_555
N4 Sc7 2.178190 1_455
N4 Sc7 2.178193 1_445
N4 Sc7 2.178193 1_555
N4 Sc8 2.295068 1_545
N4 Sc8 2.295071 1_445
N4 Sc8 2.295071 1_555
N5 Sc9 2.175185 1_655
N5 Sc9 2.175187 1_555
N5 Sc9 2.175187 1_665
N5 Sc8 2.296734 1_655
N5 Sc8 2.296734 1_545
N5 Sc8 2.296738 1_555
N6 Sc10 2.154824 1_455
N6 Sc10 2.154826 1_445
N6 Sc10 2.154826 1_555
N6 Sc11 2.360683 1_545
N6 Sc11 2.360686 1_555
N6 Sc11 2.360686 1_445
N7 Sc12 2.236908 1_565
N7 Sc12 2.236911 1_665
N7 Sc12 2.236911 1_555
N7 Sc13 2.291685 1_565
N7 Sc13 2.291685 1_455
N7 Sc13 2.291689 1_555
N8 Sc11 2.204644 1_545
N8 Sc11 2.204644 1_655
N8 Sc11 2.204648 1_555
N8 Sc12 2.314541 1_655
N8 Sc12 2.314544 1_555
N8 Sc12 2.314544 1_665
N9 Sc13 2.254478 1_455
N9 Sc13 2.254481 1_555
N9 Sc13 2.254481 1_445
N9 Sc14 2.278892 1_545
N9 Sc14 2.278895 1_445
N9 Sc14 2.278895 1_555
N10 Sc14 2.262999 1_545
N10 Sc14 2.262999 1_655
N10 Sc14 2.263004 1_555
N10 Sc15 2.271587 1_655
N10 Sc15 2.271590 1_665
N10 Sc15 2.271590 1_555
N11 Sc15 2.267053 1_565
N11 Sc15 2.267055 1_555
N11 Sc15 2.267055 1_665
N11 Sc16 2.267865 1_455
N11 Sc16 2.267865 1_565
N11 Sc16 2.267870 1_555
N12 Sc17 2.267227 1_545
N12 Sc17 2.267229 1_555
N12 Sc17 2.267229 1_445
N12 Sc16 2.268330 1_455
N12 Sc16 2.268332 1_555
N12 Sc16 2.268332 1_445
N13 Sc18 2.268388 1_655
N13 Sc18 2.268390 1_665
N13 Sc18 2.268390 1_555
N13 Sc17 2.268446 1_545
N13 Sc17 2.268446 1_655
N13 Sc17 2.268450 1_555
N14 Sc18 2.268272 1_565
N14 Sc18 2.268274 1_555
N14 Sc18 2.268274 1_665
N14 Sc19 2.269609 1_565
N14 Sc19 2.269609 1_455
N14 Sc19 2.269613 1_555
N15 Sc19 2.267517 1_455
N15 Sc19 2.267519 1_445
N15 Sc19 2.267519 1_555
N15 Sc20 2.270074 1_545
N15 Sc20 2.270076 1_445
N15 Sc20 2.270076 1_555
N16 Sc20 2.266879 1_545
N16 Sc20 2.266879 1_655
N16 Sc20 2.266883 1_555
N16 Sc21 2.269841 1_655
N16 Sc21 2.269843 1_555
N16 Sc21 2.269843 1_665
N17 Sc21 2.267169 1_565
N17 Sc21 2.267171 1_665
N17 Sc21 2.267171 1_555
N17 Sc22 2.269318 1_565
N17 Sc22 2.269318 1_455
N17 Sc22 2.269322 1_555
N18 Sc23 2.268097 1_545
N18 Sc23 2.268100 1_555
N18 Sc23 2.268100 1_445
N18 Sc22 2.268620 1_455
N18 Sc22 2.268623 1_555
N18 Sc22 2.268623 1_445
N19 Sc24 2.267169 1_655
N19 Sc24 2.267171 1_665
N19 Sc24 2.267171 1_555
N19 Sc23 2.270365 1_545
N19 Sc23 2.270365 1_655
N19 Sc23 2.270369 1_555
N20 Sc24 2.267169 1_565
N20 Sc24 2.267171 1_555
N20 Sc24 2.267171 1_665
N20 Sc25 2.270365 1_455
N20 Sc25 2.270365 1_565
N20 Sc25 2.270369 1_555
N21 Sc25 2.268097 1_455
N21 Sc25 2.268100 1_445
N21 Sc25 2.268100 1_555
N21 Sc26 2.268620 1_545
N21 Sc26 2.268623 1_555
N21 Sc26 2.268623 1_445
N22 Sc27 2.267169 1_655
N22 Sc27 2.267171 1_665
N22 Sc27 2.267171 1_555
N22 Sc26 2.269318 1_545
N22 Sc26 2.269318 1_655
N22 Sc26 2.269322 1_555
N23 Sc28 2.266879 1_455
N23 Sc28 2.266879 1_565
N23 Sc28 2.266883 1_555
N23 Sc27 2.269841 1_565
N23 Sc27 2.269843 1_555
N23 Sc27 2.269843 1_665
N24 Sc29 2.267517 1_545
N24 Sc29 2.267519 1_555
N24 Sc29 2.267519 1_445
N24 Sc28 2.270074 1_455
N24 Sc28 2.270076 1_445
N24 Sc28 2.270076 1_555
N25 Sc30 2.268272 1_655
N25 Sc30 2.268274 1_555
N25 Sc30 2.268274 1_665
N25 Sc29 2.269609 1_655
N25 Sc29 2.269609 1_545
N25 Sc29 2.269613 1_555
N26 Sc30 2.268388 1_565
N26 Sc30 2.268390 1_555
N26 Sc30 2.268390 1_665
N26 Sc31 2.268446 1_455
N26 Sc31 2.268446 1_565
N26 Sc31 2.268450 1_555
N27 Sc31 2.267227 1_455
N27 Sc31 2.267229 1_555
N27 Sc31 2.267229 1_445
N27 Sc32 2.268330 1_545
N27 Sc32 2.268332 1_555
N27 Sc32 2.268332 1_445
N28 Sc33 2.267053 1_655
N28 Sc33 2.267055 1_555
N28 Sc33 2.267055 1_665
N28 Sc32 2.267865 1_545
N28 Sc32 2.267865 1_655
N28 Sc32 2.267870 1_555
N29 Sc34 2.262999 1_455
N29 Sc34 2.262999 1_565
N29 Sc34 2.263004 1_555
N29 Sc33 2.271587 1_565
N29 Sc33 2.271590 1_555
N29 Sc33 2.271590 1_665
N30 Sc35 2.254478 1_545
N30 Sc35 2.254481 1_445
N30 Sc35 2.254481 1_555
N30 Sc34 2.278892 1_455
N30 Sc34 2.278895 1_445
N30 Sc34 2.278895 1_555
N31 Sc36 2.236908 1_655
N31 Sc36 2.236911 1_665
N31 Sc36 2.236911 1_555
N31 Sc35 2.291685 1_545
N31 Sc35 2.291685 1_655
N31 Sc35 2.291689 1_555
N32 Sc37 2.204644 1_455
N32 Sc37 2.204644 1_565
N32 Sc37 2.204648 1_555
N32 Sc36 2.314541 1_565
N32 Sc36 2.314544 1_665
N32 Sc36 2.314544 1_555
N33 Sc38 2.154824 1_545
N33 Sc38 2.154826 1_555
N33 Sc38 2.154826 1_445
N33 Sc37 2.360683 1_455
N33 Sc37 2.360686 1_555
N33 Sc37 2.360686 1_445
