# generated using pymatgen
data_KSb(MoO4)2
_symmetry_space_group_name_H-M   'P 1'
_cell_length_a   5.10420900
_cell_length_b   7.55811417
_cell_length_c   10.43993559
_cell_angle_alpha   90.50678840
_cell_angle_beta   100.56288230
_cell_angle_gamma   107.64586938
_symmetry_Int_Tables_number   1
_chemical_formula_structural   KSb(MoO4)2
_chemical_formula_sum   'K2 Sb2 Mo4 O16'
_cell_volume   376.40682878
_cell_formula_units_Z   2
loop_
 _symmetry_equiv_pos_site_id
 _symmetry_equiv_pos_as_xyz
  1  'x, y, z'
loop_
 _atom_site_type_symbol
 _atom_site_label
 _atom_site_symmetry_multiplicity
 _atom_site_fract_x
 _atom_site_fract_y
 _atom_site_fract_z
 _atom_site_occupancy
  K  K0  1  0.59676900  0.96372600  0.68826100  1
  K  K1  1  0.40323100  0.03627400  0.31173900  1
  Sb  Sb0  1  0.94803300  0.52999400  0.80803300  1
  Sb  Sb1  1  0.05196700  0.47000600  0.19196700  1
  Mo  Mo0  1  0.64246200  0.75560100  0.07340800  1
  Mo  Mo1  1  0.78789700  0.63542200  0.45997800  1
  Mo  Mo2  1  0.35753800  0.24439900  0.92659200  1
  Mo  Mo3  1  0.21210300  0.36457800  0.54002200  1
  O  O0  1  0.13432500  0.37891400  0.71311100  1
  O  O1  1  0.89701300  0.95937600  0.14537800  1
  O  O2  1  0.86415000  0.32578100  0.44655800  1
  O  O3  1  0.50539200  0.80981700  0.91770400  1
  O  O4  1  0.49460800  0.19018300  0.08229600  1
  O  O5  1  0.19643800  0.42748700  0.96644500  1
  O  O6  1  0.35914100  0.70805100  0.17396700  1
  O  O7  1  0.73426700  0.85172900  0.46150500  1
  O  O8  1  0.26573300  0.14827100  0.53849500  1
  O  O9  1  0.37181100  0.46884600  0.38520900  1
  O  O10  1  0.80356200  0.57251300  0.03355500  1
  O  O11  1  0.10298700  0.04062400  0.85462200  1
  O  O12  1  0.64085900  0.29194900  0.82603300  1
  O  O13  1  0.86567500  0.62108600  0.28688900  1
  O  O14  1  0.13585000  0.67421900  0.55344200  1
  O  O15  1  0.62818900  0.53115400  0.61479100  1
loop_
_geom_bond_atom_site_label_1
_geom_bond_atom_site_label_2
_geom_bond_distance
_geom_bond_site_symmetry_2
K0 O3 2.727357 1_555
K0 O11 2.730734 1_665
K0 O8 2.782806 1_565
K0 O7 2.783367 1_555
K0 O12 2.784472 1_565
K0 O14 2.813244 1_555
K1 O4 2.727357 1_555
K1 O1 2.730734 1_445
K1 O7 2.782806 1_545
K1 O8 2.783367 1_555
K1 O6 2.784472 1_545
K1 O2 2.813244 1_555
Mo0 O1 1.741601 1_555
Mo0 O3 1.751688 1_554
Mo0 O10 1.889252 1_555
Mo0 O6 1.889653 1_555
Mo1 O7 1.737946 1_555
Mo1 O14 1.798944 1_655
Mo1 O13 1.928824 1_555
Mo1 O15 2.003472 1_555
Mo1 O9 2.111547 1_555
Mo1 O2 2.492900 1_555
Mo2 O11 1.741601 1_555
Mo2 O4 1.751688 1_556
Mo2 O5 1.889252 1_555
Mo2 O12 1.889653 1_555
Mo3 O8 1.737946 1_555
Mo3 O2 1.798944 1_455
Mo3 O0 1.928824 1_555
Mo3 O9 2.003472 1_555
Mo3 O15 2.111547 1_555
Mo3 O14 2.492900 1_555
O0 Sb0 2.042993 1_455
O5 Sb0 2.189151 1_455
O5 Sb1 2.637657 1_556
O6 Sb1 2.033316 1_555
O9 Sb1 2.353043 1_555
O10 Sb1 2.189151 1_655
O10 Sb0 2.637657 1_554
O12 Sb0 2.033316 1_555
O13 Sb1 2.042993 1_655
O15 Sb0 2.353043 1_555
