# generated using pymatgen
data_Fe2CuS3
_symmetry_space_group_name_H-M   'P 1'
_cell_length_a   6.20731889
_cell_length_b   6.37779644
_cell_length_c   10.99529246
_cell_angle_alpha   90.01164070
_cell_angle_beta   90.03185733
_cell_angle_gamma   90.07966272
_symmetry_Int_Tables_number   1
_chemical_formula_structural   Fe2CuS3
_chemical_formula_sum   'Fe8 Cu4 S12'
_cell_volume   435.29231548
_cell_formula_units_Z   4
loop_
 _symmetry_equiv_pos_site_id
 _symmetry_equiv_pos_as_xyz
  1  'x, y, z'
loop_
 _atom_site_type_symbol
 _atom_site_label
 _atom_site_symmetry_multiplicity
 _atom_site_fract_x
 _atom_site_fract_y
 _atom_site_fract_z
 _atom_site_occupancy
  Fe  Fe0  1  0.87171700  0.91960600  0.91613100  1
  Fe  Fe1  1  0.37146800  0.58339000  0.58245500  1
  Fe  Fe2  1  0.63122000  0.41812500  0.41658700  1
  Fe  Fe3  1  0.13484700  0.08321900  0.08216000  1
  Fe  Fe4  1  0.37147100  0.58349000  0.91752800  1
  Fe  Fe5  1  0.87169500  0.91967600  0.58396300  1
  Fe  Fe6  1  0.63123300  0.41812000  0.08343400  1
  Fe  Fe7  1  0.13474900  0.08319900  0.41775000  1
  Cu  Cu0  1  0.60939300  0.91523000  0.24979100  1
  Cu  Cu1  1  0.38678600  0.08400400  0.75013000  1
  Cu  Cu2  1  0.10886100  0.58386700  0.24995000  1
  Cu  Cu3  1  0.88672800  0.41573200  0.75010400  1
  S  S0  1  0.76709800  0.08435300  0.41186900  1
  S  S1  1  0.23527000  0.90576700  0.91467200  1
  S  S2  1  0.25277200  0.42110000  0.75012300  1
  S  S3  1  0.73003100  0.58873100  0.58699400  1
  S  S4  1  0.76722500  0.08453700  0.08794400  1
  S  S5  1  0.24269100  0.91798200  0.25004900  1
  S  S6  1  0.26609200  0.41822000  0.41624200  1
  S  S7  1  0.75443600  0.08082700  0.75003600  1
  S  S8  1  0.73001800  0.58893300  0.91303300  1
  S  S9  1  0.26603000  0.41811400  0.08379400  1
  S  S10  1  0.74262100  0.57792800  0.24986100  1
  S  S11  1  0.23554600  0.90584800  0.58539900  1
loop_
_geom_bond_atom_site_label_1
_geom_bond_atom_site_label_2
_geom_bond_distance
_geom_bond_site_symmetry_2
Fe0 S7 2.218976 1_565
Fe0 S4 2.257979 1_566
Fe0 S1 2.258603 1_655
Fe0 S8 2.284145 1_555
Fe1 S6 2.207599 1_555
Fe1 S11 2.224233 1_555
Fe1 S3 2.226460 1_555
Fe1 S2 2.238986 1_555
Fe2 S10 2.208565 1_555
Fe2 S3 2.250963 1_555
Fe2 S6 2.266468 1_555
Fe2 S0 2.291411 1_555
Fe3 S5 2.228850 1_545
Fe3 S1 2.250166 1_544
Fe3 S4 2.282895 1_455
Fe3 S9 2.284856 1_555
Fe4 S9 2.209784 1_556
Fe4 S1 2.223809 1_555
Fe4 S8 2.226414 1_555
Fe4 S2 2.235885 1_555
Fe5 S7 2.218847 1_565
Fe5 S0 2.259751 1_565
Fe5 S11 2.260429 1_655
Fe5 S3 2.285679 1_555
Fe6 S10 2.204844 1_555
Fe6 S8 2.252438 1_554
Fe6 S9 2.266937 1_555
Fe6 S4 2.290500 1_555
Fe7 S5 2.227524 1_545
Fe7 S11 2.251744 1_545
Fe7 S0 2.283029 1_455
Fe7 S6 2.285962 1_555
Cu0 S5 2.276332 1_555
Cu0 S0 2.300423 1_565
Cu0 S4 2.300524 1_565
Cu0 S10 2.305798 1_555
Cu1 S7 2.282240 1_555
Cu1 S2 2.306334 1_555
Cu1 S11 2.333961 1_545
Cu1 S1 2.334457 1_545
Cu2 S10 2.273631 1_455
Cu2 S5 2.286043 1_555
Cu2 S9 2.326174 1_555
Cu2 S6 2.326688 1_555
Cu3 S2 2.272362 1_655
Cu3 S7 2.287305 1_555
Cu3 S8 2.319460 1_555
Cu3 S3 2.319861 1_555
