# generated using pymatgen
data_B3H52C16(NO)12
_symmetry_space_group_name_H-M   'P 1'
_cell_length_a   10.74672682
_cell_length_b   10.74672682
_cell_length_c   10.68607600
_cell_angle_alpha   90.00000000
_cell_angle_beta   90.00000000
_cell_angle_gamma   91.30186973
_symmetry_Int_Tables_number   1
_chemical_formula_structural   B3H52C16(NO)12
_chemical_formula_sum   'B3 H52 C16 N12 O12'
_cell_volume   1233.83918090
_cell_formula_units_Z   1
loop_
 _symmetry_equiv_pos_site_id
 _symmetry_equiv_pos_as_xyz
  1  'x, y, z'
loop_
 _atom_site_type_symbol
 _atom_site_label
 _atom_site_symmetry_multiplicity
 _atom_site_fract_x
 _atom_site_fract_y
 _atom_site_fract_z
 _atom_site_occupancy
  B  B0  1  0.00000000  0.50000000  0.49660800  1
  B  B1  1  0.50000000  0.50000000  0.99994000  1
  B  B2  1  0.50000000  0.00000000  0.49660800  1
  H  H0  1  0.49121600  0.34847700  0.77096800  1
  H  H1  1  0.34847700  0.49121600  0.77096800  1
  H  H2  1  0.65152300  0.50878400  0.77096800  1
  H  H3  1  0.50878400  0.65152300  0.77096800  1
  H  H4  1  0.77348300  0.34585400  0.49852400  1
  H  H5  1  0.65414600  0.22651700  0.49852400  1
  H  H6  1  0.34585400  0.77348300  0.49852400  1
  H  H7  1  0.22651700  0.65414600  0.49852400  1
  H  H8  1  0.26909400  0.97689100  0.38726900  1
  H  H9  1  0.02310900  0.73090600  0.38726900  1
  H  H10  1  0.97689100  0.26909400  0.38726900  1
  H  H11  1  0.73090600  0.02310900  0.38726900  1
  H  H12  1  0.77407100  0.49890000  0.34673600  1
  H  H13  1  0.49890000  0.77407100  0.34673600  1
  H  H14  1  0.50110000  0.22592900  0.34673600  1
  H  H15  1  0.22592900  0.50110000  0.34673600  1
  H  H16  1  0.29142800  0.11187200  0.29163700  1
  H  H17  1  0.11187200  0.29142800  0.29163700  1
  H  H18  1  0.88812800  0.70857200  0.29163700  1
  H  H19  1  0.70857200  0.88812800  0.29163700  1
  H  H20  1  0.38267000  0.97544500  0.26555700  1
  H  H21  1  0.02455500  0.61733000  0.26555700  1
  H  H22  1  0.97544500  0.38267000  0.26555700  1
  H  H23  1  0.61733000  0.02455500  0.26555700  1
  H  H24  1  0.28970300  0.28970300  0.11091000  1
  H  H25  1  0.71029700  0.71029700  0.11091000  1
  H  H26  1  0.38626700  0.73247300  0.02455900  1
  H  H27  1  0.26752700  0.61373300  0.02455900  1
  H  H28  1  0.73247300  0.38626700  0.02455900  1
  H  H29  1  0.61373300  0.26752700  0.02455900  1
  H  H30  1  0.38474200  0.26814600  0.97504500  1
  H  H31  1  0.73185400  0.61525800  0.97504500  1
  H  H32  1  0.26814600  0.38474200  0.97504500  1
  H  H33  1  0.61525800  0.73185400  0.97504500  1
  H  H34  1  0.29225700  0.70774300  0.88850800  1
  H  H35  1  0.70774300  0.29225700  0.88850800  1
  H  H36  1  0.38799300  0.02562700  0.72983600  1
  H  H37  1  0.97437300  0.61200700  0.72983600  1
  H  H38  1  0.02562700  0.38799300  0.72983600  1
  H  H39  1  0.61200700  0.97437300  0.72983600  1
  H  H40  1  0.29170400  0.88851800  0.70811700  1
  H  H41  1  0.11148200  0.70829600  0.70811700  1
  H  H42  1  0.88851800  0.29170400  0.70811700  1
  H  H43  1  0.70829600  0.11148200  0.70811700  1
  H  H44  1  0.26609700  0.02684700  0.61701000  1
  H  H45  1  0.02684700  0.26609700  0.61701000  1
  H  H46  1  0.97315300  0.73390300  0.61701000  1
  H  H47  1  0.73390300  0.97315300  0.61701000  1
  H  H48  1  0.49489100  0.65786800  0.22696000  1
  H  H49  1  0.34213200  0.50510900  0.22696000  1
  H  H50  1  0.65786800  0.49489100  0.22696000  1
  H  H51  1  0.50510900  0.34213200  0.22696000  1
  C  C0  1  0.35345400  0.35345400  0.64697500  1
  C  C1  1  0.64654600  0.64654600  0.64697500  1
  C  C2  1  0.35129000  0.64871000  0.35324400  1
  C  C3  1  0.33926900  0.03499400  0.33706900  1
  C  C4  1  0.03499400  0.33926900  0.33706900  1
  C  C5  1  0.96500600  0.66073100  0.33706900  1
  C  C6  1  0.66073100  0.96500600  0.33706900  1
  C  C7  1  0.33767100  0.33767100  0.03325000  1
  C  C8  1  0.66232900  0.66232900  0.03325000  1
  C  C9  1  0.33917300  0.66082700  0.96606700  1
  C  C10  1  0.66082700  0.33917300  0.96606700  1
  C  C11  1  0.33741300  0.96775500  0.66009700  1
  C  C12  1  0.03224500  0.66258700  0.66009700  1
  C  C13  1  0.96775500  0.33741300  0.66009700  1
  C  C14  1  0.66258700  0.03224500  0.66009700  1
  C  C15  1  0.64871000  0.35129000  0.35324400  1
  N  N0  1  0.29422900  0.44987200  0.69955600  1
  N  N1  1  0.70577100  0.55012800  0.69955600  1
  N  N2  1  0.55012800  0.70577100  0.69955600  1
  N  N3  1  0.69897800  0.30102200  0.45491400  1
  N  N4  1  0.30102200  0.69897800  0.45491400  1
  N  N5  1  0.70135900  0.45307900  0.30084600  1
  N  N6  1  0.45307900  0.70135900  0.30084600  1
  N  N7  1  0.29864100  0.54692100  0.30084600  1
  N  N8  1  0.44987200  0.29422900  0.69955600  1
  N  N9  1  0.69959400  0.69959400  0.54269800  1
  N  N10  1  0.30040600  0.30040600  0.54269800  1
  N  N11  1  0.54692100  0.29864100  0.30084600  1
  O  O0  1  0.42992600  0.08803500  0.41847300  1
  O  O1  1  0.08803500  0.42992600  0.41847300  1
  O  O2  1  0.91196500  0.57007400  0.41847300  1
  O  O3  1  0.57007400  0.91196500  0.41847300  1
  O  O4  1  0.42404200  0.42404200  0.08808200  1
  O  O5  1  0.57595800  0.57595800  0.08808200  1
  O  O6  1  0.42454800  0.57545200  0.91328000  1
  O  O7  1  0.57545200  0.42454800  0.91328000  1
  O  O8  1  0.41736600  0.91696700  0.56918500  1
  O  O9  1  0.08303300  0.58263400  0.56918500  1
  O  O10  1  0.91696700  0.41736600  0.56918500  1
  O  O11  1  0.58263400  0.08303300  0.56918500  1
loop_
_geom_bond_atom_site_label_1
_geom_bond_atom_site_label_2
_geom_bond_distance
_geom_bond_site_symmetry_2
B0 O9 1.466415 1_555
B0 O10 1.466415 1_455
B0 O2 1.480445 1_455
B0 O1 1.480445 1_555
B1 O5 1.479721 1_556
B1 O4 1.479721 1_556
B1 O7 1.484065 1_555
B1 O6 1.484065 1_555
B2 O11 1.466415 1_555
B2 O8 1.466415 1_545
B2 O3 1.480445 1_545
B2 O0 1.480445 1_555
H0 N8 1.052550 1_555
H1 N0 1.052550 1_555
H2 N1 1.052550 1_555
H3 N2 1.052550 1_555
H4 N3 1.035794 1_555
H5 N3 1.035794 1_555
H6 N4 1.035794 1_555
H7 N4 1.035794 1_555
H12 N5 1.037346 1_555
H13 N6 1.037346 1_555
H14 N11 1.037346 1_555
H15 N7 1.037346 1_555
H48 N6 1.026300 1_555
H49 N7 1.026300 1_555
H50 N5 1.026300 1_555
H51 N11 1.026300 1_555
C0 N0 1.350721 1_555
C0 N8 1.350721 1_555
C0 N10 1.370012 1_555
C1 N1 1.350721 1_555
C1 N2 1.350721 1_555
C1 N9 1.370012 1_555
C2 N4 1.333158 1_555
C2 N6 1.342440 1_555
C2 N7 1.342440 1_555
C3 H16 1.096321 1_555
C3 H20 1.106630 1_545
C3 H8 1.106803 1_545
C3 O0 1.416187 1_555
C4 H17 1.096321 1_555
C4 H22 1.106630 1_455
C4 H10 1.106803 1_455
C4 O1 1.416187 1_555
C5 H18 1.096321 1_555
C5 H21 1.106630 1_655
C5 H9 1.106803 1_655
C5 O2 1.416187 1_555
C6 H19 1.096321 1_555
C6 H23 1.106630 1_565
C6 H11 1.106803 1_565
C6 O3 1.416187 1_555
C7 H24 1.099138 1_555
C7 H32 1.103716 1_554
C7 H30 1.103716 1_554
C7 O4 1.423835 1_555
C8 H25 1.099138 1_555
C8 H33 1.103716 1_554
C8 H31 1.103716 1_554
C8 O5 1.423835 1_555
C9 H34 1.098583 1_555
C9 H26 1.105424 1_556
C9 H27 1.105424 1_556
C9 O6 1.428308 1_555
C10 H35 1.098583 1_555
C10 H28 1.105424 1_556
C10 H29 1.105424 1_556
C10 O7 1.428308 1_555
C11 H40 1.100331 1_555
C11 H36 1.105570 1_565
C11 H44 1.106700 1_565
C11 O8 1.414670 1_555
C12 H41 1.100331 1_555
C12 H37 1.105570 1_455
C12 H46 1.106700 1_455
C12 O9 1.414670 1_555
C13 H42 1.100331 1_555
C13 H38 1.105570 1_655
C13 H45 1.106700 1_655
C13 O10 1.414670 1_555
C14 H43 1.100331 1_555
C14 H39 1.105570 1_545
C14 H47 1.106700 1_545
C14 O11 1.414670 1_555
C15 N3 1.333158 1_555
C15 N5 1.342440 1_555
C15 N11 1.342440 1_555
