# generated using pymatgen
data_SiO2
_symmetry_space_group_name_H-M   'P 1'
_cell_length_a   13.37837913
_cell_length_b   13.37837913
_cell_length_c   16.94002090
_cell_angle_alpha   61.58270856
_cell_angle_beta   61.58270856
_cell_angle_gamma   37.66306567
_symmetry_Int_Tables_number   1
_chemical_formula_structural   SiO2
_chemical_formula_sum   'Si28 O56'
_cell_volume   1601.36069447
_cell_formula_units_Z   28
loop_
 _symmetry_equiv_pos_site_id
 _symmetry_equiv_pos_as_xyz
  1  'x, y, z'
loop_
 _atom_site_type_symbol
 _atom_site_label
 _atom_site_symmetry_multiplicity
 _atom_site_fract_x
 _atom_site_fract_y
 _atom_site_fract_z
 _atom_site_occupancy
  Si  Si0  1  0.75838400  0.12755600  0.21327000  1
  Si  Si1  1  0.44098400  0.80963400  0.88750200  1
  Si  Si2  1  0.75909600  0.39086200  0.09814000  1
  Si  Si3  1  0.55599900  0.92106500  0.22052400  1
  Si  Si4  1  0.84255800  0.47059700  0.59809300  1
  Si  Si5  1  0.55901600  0.19036600  0.11249800  1
  Si  Si6  1  0.47059700  0.84255800  0.59809300  1
  Si  Si7  1  0.07893500  0.44400100  0.77947600  1
  Si  Si8  1  0.59570500  0.96526100  0.59787700  1
  Si  Si9  1  0.24161600  0.87244400  0.78673000  1
  Si  Si10  1  0.44400100  0.07893500  0.77947600  1
  Si  Si11  1  0.96526100  0.59570500  0.59787700  1
  Si  Si12  1  0.19036600  0.55901600  0.11249800  1
  Si  Si13  1  0.12755600  0.75838400  0.21327000  1
  Si  Si14  1  0.52940300  0.15744200  0.40190700  1
  Si  Si15  1  0.40429500  0.03473900  0.40212300  1
  Si  Si16  1  0.80963400  0.44098400  0.88750200  1
  Si  Si17  1  0.62265000  0.99117600  0.90605000  1
  Si  Si18  1  0.60913800  0.24090400  0.90186000  1
  Si  Si19  1  0.24090400  0.60913800  0.90186000  1
  Si  Si20  1  0.03473900  0.40429500  0.40212300  1
  Si  Si21  1  0.00882400  0.37735000  0.09395000  1
  Si  Si22  1  0.87244400  0.24161600  0.78673000  1
  Si  Si23  1  0.99117600  0.62265000  0.90605000  1
  Si  Si24  1  0.39086200  0.75909600  0.09814000  1
  Si  Si25  1  0.37735000  0.00882400  0.09395000  1
  Si  Si26  1  0.15744200  0.52940300  0.40190700  1
  Si  Si27  1  0.92106500  0.55599900  0.22052400  1
  O  O0  1  0.48453100  0.93154800  0.32851000  1
  O  O1  1  0.06803800  0.59829000  0.49570500  1
  O  O2  1  0.51817900  0.05583700  0.38539700  1
  O  O3  1  0.34732500  0.34732500  0.40992900  1
  O  O4  1  0.63908900  0.17855500  0.00497000  1
  O  O5  1  0.78400400  0.78400400  0.61120100  1
  O  O6  1  0.15563400  0.65775800  0.31762000  1
  O  O7  1  0.51546900  0.06845200  0.67149000  1
  O  O8  1  0.84436600  0.34224200  0.68238000  1
  O  O9  1  0.14161200  0.59583300  0.88621000  1
  O  O10  1  0.40416700  0.85838800  0.11379000  1
  O  O11  1  0.93170800  0.93170800  0.21311800  1
  O  O12  1  0.41956300  0.98975100  0.17864400  1
  O  O13  1  0.35305500  0.80870700  0.84787300  1
  O  O14  1  0.20423800  0.76535500  0.82916700  1
  O  O15  1  0.40900200  0.96846500  0.83269800  1
  O  O16  1  0.21599600  0.21599600  0.38879900  1
  O  O17  1  0.06845200  0.51546900  0.67149000  1
  O  O18  1  0.59829000  0.06803800  0.49570500  1
  O  O19  1  0.59583300  0.14161200  0.88621000  1
  O  O20  1  0.35959400  0.35959400  0.12558000  1
  O  O21  1  0.05583700  0.51817900  0.38539700  1
  O  O22  1  0.85838800  0.40416700  0.11379000  1
  O  O23  1  0.23464500  0.79576200  0.17083300  1
  O  O24  1  0.98975100  0.41956300  0.17864400  1
  O  O25  1  0.19129300  0.64694500  0.15212700  1
  O  O26  1  0.64694500  0.19129300  0.15212700  1
  O  O27  1  0.65267500  0.65267500  0.59007100  1
  O  O28  1  0.43903000  0.43903000  0.88491600  1
  O  O29  1  0.76535500  0.20423800  0.82916700  1
  O  O30  1  0.56097000  0.56097000  0.11508400  1
  O  O31  1  0.40171000  0.93196200  0.50429500  1
  O  O32  1  0.72891500  0.72891500  0.20850000  1
  O  O33  1  0.59099800  0.03153500  0.16730200  1
  O  O34  1  0.82144500  0.36091100  0.99503000  1
  O  O35  1  0.96846500  0.40900200  0.83269800  1
  O  O36  1  0.81429400  0.81429400  0.91592800  1
  O  O37  1  0.06829200  0.06829200  0.78688200  1
  O  O38  1  0.18570600  0.18570600  0.08407200  1
  O  O39  1  0.00000000  0.50000000  0.00000000  1
  O  O40  1  0.93154800  0.48453100  0.32851000  1
  O  O41  1  0.34224200  0.84436600  0.68238000  1
  O  O42  1  0.58043700  0.01024900  0.82135600  1
  O  O43  1  0.01024900  0.58043700  0.82135600  1
  O  O44  1  0.64040600  0.64040600  0.87442000  1
  O  O45  1  0.27108500  0.27108500  0.79150000  1
  O  O46  1  0.48182100  0.94416300  0.61460300  1
  O  O47  1  0.36091100  0.82144500  0.99503000  1
  O  O48  1  0.50000000  0.00000000  0.00000000  1
  O  O49  1  0.17855500  0.63908900  0.00497000  1
  O  O50  1  0.93196200  0.40171000  0.50429500  1
  O  O51  1  0.80870700  0.35305500  0.84787300  1
  O  O52  1  0.79576200  0.23464500  0.17083300  1
  O  O53  1  0.65775800  0.15563400  0.31762000  1
  O  O54  1  0.03153500  0.59099800  0.16730200  1
  O  O55  1  0.94416300  0.48182100  0.61460300  1
loop_
_geom_bond_atom_site_label_1
_geom_bond_atom_site_label_2
_geom_bond_distance
_geom_bond_site_symmetry_2
O0 Si15 1.622167 1_565
O0 Si3 1.627059 1_555
O1 Si11 1.625021 1_455
O1 Si26 1.626151 1_555
O2 Si14 1.635072 1_555
O2 Si15 1.635580 1_555
O3 Si26 1.619203 1_555
O3 Si14 1.619203 1_555
O4 Si5 1.624572 1_555
O4 Si18 1.630186 1_554
O5 Si11 1.620480 1_555
O5 Si8 1.620480 1_555
O6 Si26 1.619100 1_555
O6 Si13 1.626209 1_555
O7 Si8 1.622167 1_545
O7 Si10 1.627059 1_555
O8 Si4 1.619100 1_555
O8 Si22 1.626209 1_555
O9 Si23 1.618635 1_455
O9 Si19 1.618942 1_555
O10 Si25 1.618635 1_565
O10 Si24 1.618942 1_555
O11 Si13 1.619759 1_655
O11 Si0 1.619759 1_565
O12 Si3 1.623547 1_555
O12 Si25 1.623899 1_565
O13 Si1 1.617793 1_555
O13 Si9 1.624505 1_555
O14 Si19 1.620855 1_555
O14 Si9 1.622117 1_555
O15 Si1 1.619014 1_555
O15 Si10 1.625396 1_565
O16 Si20 1.620480 1_555
O16 Si15 1.620480 1_555
O17 Si11 1.622167 1_455
O17 Si7 1.627059 1_555
O18 Si8 1.625021 1_545
O18 Si14 1.626151 1_555
O19 Si17 1.618635 1_545
O19 Si18 1.618942 1_555
O20 Si5 1.626171 1_555
O20 Si12 1.626171 1_555
O21 Si26 1.635072 1_555
O21 Si20 1.635580 1_555
O22 Si21 1.618635 1_655
O22 Si2 1.618942 1_555
O23 Si24 1.620855 1_555
O23 Si13 1.622117 1_555
O24 Si27 1.623547 1_555
O24 Si21 1.623899 1_655
O25 Si12 1.617793 1_555
O25 Si13 1.624505 1_555
O26 Si5 1.617793 1_555
O26 Si0 1.624505 1_555
O27 Si6 1.619203 1_555
O27 Si4 1.619203 1_555
O28 Si18 1.623109 1_555
O28 Si19 1.623109 1_555
O29 Si18 1.620855 1_555
O29 Si22 1.622117 1_555
O30 Si2 1.623109 1_555
O30 Si24 1.623109 1_555
O31 Si15 1.625021 1_565
O31 Si6 1.626151 1_555
O32 Si27 1.623576 1_555
O32 Si3 1.623576 1_555
O33 Si5 1.619014 1_555
O33 Si3 1.625396 1_545
O34 Si16 1.624572 1_555
O34 Si2 1.630186 1_556
O35 Si16 1.619014 1_555
O35 Si7 1.625396 1_655
O36 Si23 1.620814 1_555
O36 Si17 1.620814 1_555
O37 Si22 1.619759 1_455
O37 Si9 1.619759 1_545
O38 Si25 1.620814 1_555
O38 Si21 1.620814 1_555
O39 Si21 1.620459 1_555
O39 Si23 1.620459 1_454
O40 Si20 1.622167 1_655
O40 Si27 1.627059 1_555
O41 Si6 1.619100 1_555
O41 Si9 1.626209 1_555
O42 Si10 1.623547 1_555
O42 Si17 1.623899 1_545
O43 Si7 1.623547 1_555
O43 Si23 1.623899 1_455
O44 Si16 1.626171 1_555
O44 Si1 1.626171 1_555
O45 Si10 1.623576 1_555
O45 Si7 1.623576 1_555
O46 Si6 1.635072 1_555
O46 Si8 1.635580 1_555
O47 Si1 1.624572 1_555
O47 Si24 1.630186 1_556
O48 Si17 1.620459 1_544
O48 Si25 1.620459 1_555
O49 Si12 1.624572 1_555
O49 Si19 1.630186 1_554
O50 Si20 1.625021 1_655
O50 Si4 1.626151 1_555
O51 Si16 1.617793 1_555
O51 Si22 1.624505 1_555
O52 Si2 1.620855 1_555
O52 Si0 1.622117 1_555
O53 Si14 1.619100 1_555
O53 Si0 1.626209 1_555
O54 Si12 1.619014 1_555
O54 Si27 1.625396 1_455
O55 Si4 1.635072 1_555
O55 Si11 1.635580 1_555
