# generated using pymatgen
data_Sr3La9Mn10(CuO18)2
_symmetry_space_group_name_H-M   'P 1'
_cell_length_a   5.50073218
_cell_length_b   5.50073218
_cell_length_c   27.22387207
_cell_angle_alpha   89.44613010
_cell_angle_beta   89.44613010
_cell_angle_gamma   60.75510015
_symmetry_Int_Tables_number   1
_chemical_formula_structural   Sr3La9Mn10(CuO18)2
_chemical_formula_sum   'Sr3 La9 Mn10 Cu2 O36'
_cell_volume   718.70179069
_cell_formula_units_Z   1
loop_
 _symmetry_equiv_pos_site_id
 _symmetry_equiv_pos_as_xyz
  1  'x, y, z'
loop_
 _atom_site_type_symbol
 _atom_site_label
 _atom_site_symmetry_multiplicity
 _atom_site_fract_x
 _atom_site_fract_y
 _atom_site_fract_z
 _atom_site_occupancy
  Sr  Sr0  1  0.66555000  0.00121100  0.83492900  1
  Sr  Sr1  1  0.33342600  0.66657400  0.00000000  1
  Sr  Sr2  1  0.99878900  0.33445000  0.16507100  1
  La  La0  1  0.99958200  0.33294600  0.91773300  1
  La  La1  1  0.66871600  0.99869400  0.33247800  1
  La  La2  1  0.66705400  0.00041800  0.08226700  1
  La  La3  1  0.33335700  0.66664300  0.50000000  1
  La  La4  1  0.33379700  0.66664900  0.24880400  1
  La  La5  1  0.00130600  0.33128400  0.66752200  1
  La  La6  1  0.00062400  0.33350200  0.41427800  1
  La  La7  1  0.66649800  0.99937600  0.58572200  1
  La  La8  1  0.33335100  0.66620300  0.75119600  1
  Mn  Mn0  1  0.00084900  0.33265000  0.79260400  1
  Mn  Mn1  1  0.66724700  0.99963400  0.95833400  1
  Mn  Mn2  1  0.33282200  0.66722100  0.12471900  1
  Mn  Mn3  1  0.33277900  0.66717800  0.87528100  1
  Mn  Mn4  1  0.00036600  0.33275300  0.04166600  1
  Mn  Mn5  1  0.66888100  0.99829600  0.45818700  1
  Mn  Mn6  1  0.66735000  0.99915100  0.20739600  1
  Mn  Mn7  1  0.00170400  0.33111900  0.54181300  1
  Mn  Mn8  1  0.99632900  0.33688700  0.29113000  1
  Mn  Mn9  1  0.66311300  0.00367100  0.70887000  1
  Cu  Cu0  1  0.33409200  0.66616300  0.37494700  1
  Cu  Cu1  1  0.33383700  0.66590800  0.62505300  1
  O  O0  1  0.14643100  0.03864400  0.84257600  1
  O  O1  1  0.55568000  0.77859100  0.91673200  1
  O  O2  1  0.02611200  0.82009600  0.92355800  1
  O  O3  1  0.63108300  0.51908000  0.82375800  1
  O  O4  1  0.81556100  0.70286900  0.00909100  1
  O  O5  1  0.12475500  0.54430800  0.83242800  1
  O  O6  1  0.22140900  0.44432000  0.08326800  1
  O  O7  1  0.51329200  0.30577000  0.91015000  1
  O  O8  1  0.69423000  0.48670800  0.08985000  1
  O  O9  1  0.29713100  0.18443800  0.99090900  1
  O  O10  1  0.48092000  0.36891700  0.17624200  1
  O  O11  1  0.79254200  0.20745800  0.00000000  1
  O  O12  1  0.88967600  0.10546600  0.25161300  1
  O  O13  1  0.17990400  0.97388800  0.07644200  1
  O  O14  1  0.37062100  0.14988600  0.25987800  1
  O  O15  1  0.96135600  0.85356900  0.15742400  1
  O  O16  1  0.14051500  0.05008100  0.34173400  1
  O  O17  1  0.45569200  0.87524500  0.16757200  1
  O  O18  1  0.56905400  0.77086200  0.41904600  1
  O  O19  1  0.84867600  0.63696300  0.24242500  1
  O  O20  1  0.03419400  0.81904600  0.42891700  1
  O  O21  1  0.63234000  0.51193200  0.32142400  1
  O  O22  1  0.81106700  0.71092100  0.51141700  1
  O  O23  1  0.09924000  0.55733400  0.33216400  1
  O  O24  1  0.22913800  0.43094600  0.58095400  1
  O  O25  1  0.52991100  0.27989400  0.40747200  1
  O  O26  1  0.72010600  0.47008900  0.59252800  1
  O  O27  1  0.28907900  0.18893300  0.48858300  1
  O  O28  1  0.48806800  0.36766000  0.67857600  1
  O  O29  1  0.76961300  0.23038700  0.50000000  1
  O  O30  1  0.89453400  0.11032400  0.74838700  1
  O  O31  1  0.18095400  0.96580600  0.57108300  1
  O  O32  1  0.36303700  0.15132400  0.75757500  1
  O  O33  1  0.94991900  0.85948500  0.65826600  1
  O  O34  1  0.44266600  0.90076000  0.66783600  1
  O  O35  1  0.85011400  0.62937900  0.74012200  1
loop_
_geom_bond_atom_site_label_1
_geom_bond_atom_site_label_2
_geom_bond_distance
_geom_bond_site_symmetry_2
La0 O9 2.457640 1_655
La0 O1 2.474613 1_555
La0 O0 2.492790 1_655
La0 O11 2.734658 1_556
La0 O2 2.755778 1_645
La0 O2 2.760054 1_655
La0 O7 2.760853 1_555
La0 O7 2.761626 1_655
La0 O5 2.813919 1_655
La0 O4 3.063920 1_556
La0 O1 3.089074 1_645
La0 O3 3.118348 1_555
La1 O23 2.425879 1_655
La1 O14 2.446465 1_565
La1 O25 2.453726 1_565
La1 O12 2.699896 1_565
La1 O21 2.744768 1_565
La1 O16 2.758526 1_665
La1 O16 2.787479 1_565
La1 O21 2.800016 1_555
La1 O18 2.830987 1_555
La2 O4 2.457640 1_545
La2 O6 2.474613 1_555
La2 O15 2.492790 1_545
La2 O11 2.734658 1_555
La2 O13 2.755778 1_645
La2 O13 2.760054 1_545
La2 O8 2.760853 1_555
La2 O8 2.761626 1_545
La2 O17 2.813919 1_545
La2 O9 3.063920 1_554
La2 O6 3.089074 1_645
La2 O10 3.118348 1_555
La3 O31 2.416178 1_555
La3 O20 2.416178 1_555
La3 O29 2.427064 1_555
La3 O24 2.741028 1_555
La3 O18 2.741028 1_555
La3 O27 2.775542 1_555
La3 O22 2.775542 1_555
La3 O22 2.776763 1_455
La3 O27 2.776763 1_565
La4 O10 2.444593 1_555
La4 O21 2.448327 1_555
La4 O12 2.457376 1_465
La4 O17 2.707527 1_555
La4 O19 2.759186 1_455
La4 O19 2.759963 1_555
La4 O14 2.763000 1_555
La4 O14 2.782174 1_565
La4 O23 2.802043 1_555
La5 O34 2.425879 1_545
La5 O35 2.446465 1_455
La5 O26 2.453726 1_455
La5 O30 2.699896 1_455
La5 O28 2.744768 1_455
La5 O33 2.758526 1_445
La5 O33 2.787479 1_455
La5 O28 2.800016 1_555
La5 O24 2.830987 1_555
La6 O16 2.404369 1_555
La6 O18 2.420755 1_455
La6 O27 2.457665 1_555
La6 O23 2.717248 1_555
La6 O25 2.753535 1_455
La6 O20 2.769513 1_545
La6 O25 2.783824 1_555
La6 O20 2.798258 1_555
La6 O29 2.829115 1_455
La7 O33 2.404369 1_555
La7 O24 2.420755 1_565
La7 O22 2.457665 1_555
La7 O34 2.717248 1_555
La7 O26 2.753535 1_565
La7 O31 2.769513 1_655
La7 O26 2.783824 1_555
La7 O31 2.798258 1_555
La7 O29 2.829115 1_565
La8 O3 2.444593 1_555
La8 O28 2.448327 1_555
La8 O30 2.457376 1_465
La8 O5 2.707527 1_555
La8 O32 2.759186 1_565
La8 O32 2.759963 1_555
La8 O35 2.763000 1_555
La8 O35 2.782174 1_455
La8 O34 2.802043 1_555
Mn0 O5 1.951803 1_555
Mn0 O0 1.954649 1_555
Mn0 O3 1.963027 1_455
Mn0 O32 1.978265 1_555
Mn0 O30 2.006873 1_455
Mn0 O35 2.012084 1_455
Mn1 O2 1.960993 1_655
Mn1 O7 1.964432 1_565
Mn1 O11 1.969410 1_566
Mn1 O1 1.976590 1_555
Mn1 O4 1.979062 1_556
Mn1 O9 1.981183 1_565
Mn2 O13 1.967888 1_555
Mn2 O8 1.972870 1_555
Mn2 O17 1.980892 1_555
Mn2 O6 1.981591 1_555
Mn2 O15 1.988623 1_455
Mn2 O10 1.998772 1_555
Mn3 O2 1.967888 1_555
Mn3 O7 1.972870 1_555
Mn3 O5 1.980892 1_555
Mn3 O1 1.981591 1_555
Mn3 O0 1.988623 1_565
Mn3 O3 1.998772 1_555
Mn4 O13 1.960993 1_545
Mn4 O8 1.964432 1_455
Mn4 O11 1.969410 1_455
Mn4 O6 1.976590 1_555
Mn4 O9 1.979062 1_554
Mn4 O4 1.981183 1_455
Mn5 O20 1.921842 1_655
Mn5 O18 1.926249 1_555
Mn5 O25 1.926668 1_565
Mn5 O29 1.991018 1_565
Mn5 O22 1.995024 1_555
Mn5 O27 1.997962 1_565
Mn6 O17 1.951803 1_555
Mn6 O15 1.954649 1_555
Mn6 O10 1.963027 1_565
Mn6 O19 1.978265 1_555
Mn6 O12 2.006873 1_565
Mn6 O14 2.012084 1_565
Mn7 O31 1.921842 1_545
Mn7 O24 1.926249 1_555
Mn7 O26 1.926668 1_455
Mn7 O29 1.991018 1_455
Mn7 O27 1.995024 1_555
Mn7 O22 1.997962 1_455
Mn8 O21 1.927653 1_555
Mn8 O23 1.935964 1_655
Mn8 O16 1.942265 1_655
Mn8 O19 1.952169 1_555
Mn8 O12 1.972414 1_555
Mn8 O14 1.983603 1_655
Mn9 O28 1.927653 1_555
Mn9 O34 1.935964 1_545
Mn9 O33 1.942265 1_545
Mn9 O32 1.952169 1_555
Mn9 O30 1.972414 1_555
Mn9 O35 1.983603 1_545
Cu0 O21 2.037682 1_555
Cu0 O23 2.045004 1_555
Cu0 O16 2.048347 1_565
Cu0 O25 2.050541 1_555
Cu0 O20 2.051552 1_555
Cu0 O18 2.052833 1_555
Cu1 O28 2.037682 1_555
Cu1 O34 2.045004 1_555
Cu1 O33 2.048347 1_455
Cu1 O26 2.050541 1_555
Cu1 O31 2.051552 1_555
Cu1 O24 2.052833 1_555
O0 Sr0 2.761607 1_455
O0 Sr0 2.766703 1_555
O1 Sr0 2.732897 1_565
O1 Sr1 2.769210 1_556
O2 Sr1 2.557484 1_556
O2 Sr0 2.977136 1_465
O3 Sr0 2.769464 1_565
O3 Sr0 2.774877 1_555
O4 Sr1 2.765406 1_655
O4 Sr1 2.768704 1_555
O5 Sr0 2.549264 1_465
O5 Sr0 3.015845 1_555
O6 Sr2 2.732897 1_455
O6 Sr1 2.769210 1_555
O7 Sr0 2.522657 1_555
O7 Sr1 3.004919 1_556
O8 Sr2 2.522657 1_555
O8 Sr1 3.004919 1_555
O9 Sr1 2.765401 1_546
O9 Sr1 2.768710 1_556
O10 Sr2 2.769464 1_455
O10 Sr2 2.774877 1_555
O11 Sr1 2.554243 1_555
O11 Sr1 3.009151 1_645
O12 Sr2 2.855088 1_555
O13 Sr1 2.557484 1_555
O13 Sr2 2.977136 1_465
O14 Sr2 3.146149 1_455
O15 Sr2 2.761607 1_565
O15 Sr2 2.766703 1_555
O17 Sr2 2.549264 1_465
O17 Sr2 3.015845 1_555
O19 Sr2 2.564594 1_555
O30 Sr0 2.855088 1_555
O32 Sr0 2.564594 1_555
O35 Sr0 3.146149 1_565
