# generated using pymatgen
data_ZnH4(BrO)2
_symmetry_space_group_name_H-M   'P 1'
_cell_length_a   8.44863160
_cell_length_b   8.44863160
_cell_length_c   8.44863209
_cell_angle_alpha   122.15583228
_cell_angle_beta   105.75005022
_cell_angle_gamma   101.32271234
_symmetry_Int_Tables_number   1
_chemical_formula_structural   ZnH4(BrO)2
_chemical_formula_sum   'Zn3 H12 Br6 O6'
_cell_volume   446.33715741
_cell_formula_units_Z   3
loop_
 _symmetry_equiv_pos_site_id
 _symmetry_equiv_pos_as_xyz
  1  'x, y, z'
loop_
 _atom_site_type_symbol
 _atom_site_label
 _atom_site_symmetry_multiplicity
 _atom_site_fract_x
 _atom_site_fract_y
 _atom_site_fract_z
 _atom_site_occupancy
  Zn  Zn0  1  0.34444100  0.84444100  0.50000000  1
  Zn  Zn1  1  0.65555900  0.15555900  0.50000000  1
  Zn  Zn2  1  0.00000000  0.00000000  0.00000000  1
  H  H0  1  0.09045800  0.17697900  0.41259900  1
  H  H1  1  0.23561900  0.82302100  0.91347900  1
  H  H2  1  0.76438100  0.67785900  0.58740100  1
  H  H3  1  0.90954200  0.32214100  0.08652100  1
  H  H4  1  0.90954200  0.82302100  0.58740100  1
  H  H5  1  0.76438100  0.17697900  0.08652100  1
  H  H6  1  0.23561900  0.32214100  0.41259900  1
  H  H7  1  0.09045800  0.67785900  0.91347900  1
  H  H8  1  0.82978100  0.75012900  0.07965200  1
  H  H9  1  0.32952300  0.24987100  0.07965200  1
  H  H10  1  0.67047700  0.75012900  0.92034800  1
  H  H11  1  0.17021900  0.24987100  0.92034800  1
  Br  Br0  1  0.50000000  0.22546000  0.72546000  1
  Br  Br1  1  0.50000000  0.77454000  0.27454000  1
  Br  Br2  1  0.01749700  0.70660400  0.31089300  1
  Br  Br3  1  0.60429000  0.29339600  0.31089300  1
  Br  Br4  1  0.39571000  0.70660400  0.68910700  1
  Br  Br5  1  0.98250300  0.29339600  0.68910700  1
  O  O0  1  0.15288800  0.17705300  0.32994100  1
  O  O1  1  0.15288800  0.82294700  0.97583500  1
  O  O2  1  0.84711200  0.82294700  0.67005900  1
  O  O3  1  0.84711200  0.17705300  0.02416500  1
  O  O4  1  0.80169800  0.80169800  0.00000000  1
  O  O5  1  0.19830200  0.19830200  0.00000000  1
loop_
_geom_bond_atom_site_label_1
_geom_bond_atom_site_label_2
_geom_bond_distance
_geom_bond_site_symmetry_2
H0 O0 0.982951 1_555
H1 O1 0.982943 1_555
H2 O2 0.982948 1_555
H3 O3 0.982951 1_555
H4 O2 0.982951 1_555
H5 O3 0.982943 1_555
H6 O0 0.982948 1_555
H7 O1 0.982951 1_555
H8 O4 0.982335 1_555
H9 O5 0.982335 1_555
H10 O4 0.982335 1_556
H11 O5 0.982335 1_556
Br0 Zn0 2.484118 1_545
Br0 Zn1 2.484118 1_555
Br1 Zn0 2.484118 1_555
Br1 Zn1 2.484118 1_565
Br2 Zn0 2.428836 1_555
Br3 Zn1 2.428836 1_555
Br4 Zn0 2.428836 1_555
Br5 Zn1 2.428836 1_555
O0 Zn2 2.127097 1_555
O1 Zn2 2.127097 1_566
O2 Zn2 2.127097 1_666
O3 Zn2 2.127097 1_655
O4 Zn2 2.124056 1_665
O5 Zn2 2.124056 1_555
