# generated using pymatgen
data_KV(CuS2)2
_symmetry_space_group_name_H-M   'P 1'
_cell_length_a   9.41910168
_cell_length_b   9.41910168
_cell_length_c   7.43462500
_cell_angle_alpha   90.00000000
_cell_angle_beta   90.00000000
_cell_angle_gamma   146.65463777
_symmetry_Int_Tables_number   1
_chemical_formula_structural   KV(CuS2)2
_chemical_formula_sum   'K2 V2 Cu4 S8'
_cell_volume   362.56963337
_cell_formula_units_Z   2
loop_
 _symmetry_equiv_pos_site_id
 _symmetry_equiv_pos_as_xyz
  1  'x, y, z'
loop_
 _atom_site_type_symbol
 _atom_site_label
 _atom_site_symmetry_multiplicity
 _atom_site_fract_x
 _atom_site_fract_y
 _atom_site_fract_z
 _atom_site_occupancy
  K  K0  1  0.91796100  0.55365200  0.25000000  1
  K  K1  1  0.55365200  0.91796100  0.75000000  1
  V  V0  1  0.86847300  0.08707500  0.25000000  1
  V  V1  1  0.08707500  0.86847300  0.75000000  1
  Cu  Cu0  1  0.99448500  0.99448500  0.50000000  1
  Cu  Cu1  1  0.99448500  0.99448500  0.00000000  1
  Cu  Cu2  1  0.36963900  0.58500500  0.25000000  1
  Cu  Cu3  1  0.58500500  0.36963900  0.75000000  1
  S  S0  1  0.32116200  0.10312700  0.50833600  1
  S  S1  1  0.10312700  0.32116200  0.49166400  1
  S  S2  1  0.53633600  0.94955200  0.25000000  1
  S  S3  1  0.94955200  0.53633600  0.75000000  1
  S  S4  1  0.73566100  0.75053600  0.25000000  1
  S  S5  1  0.75053600  0.73566100  0.75000000  1
  S  S6  1  0.32116200  0.10312700  0.99166400  1
  S  S7  1  0.10312700  0.32116200  0.00833600  1
loop_
_geom_bond_atom_site_label_1
_geom_bond_atom_site_label_2
_geom_bond_distance
_geom_bond_site_symmetry_2
K0 S2 3.335499 1_545
K0 S2 3.397432 1_655
K0 S4 3.421649 1_555
K0 S0 3.472580 1_665
K0 S6 3.472580 1_664
K0 S6 3.666226 1_554
K0 S0 3.666226 1_555
K0 S3 3.743613 1_555
K0 S3 3.743613 1_554
K1 S3 3.335499 1_455
K1 S3 3.397432 1_565
K1 S5 3.421649 1_555
K1 S7 3.472580 1_666
K1 S1 3.472580 1_665
K1 S7 3.666226 1_556
K1 S1 3.666226 1_555
K1 S2 3.743613 1_555
K1 S2 3.743613 1_556
Cu0 S0 2.293084 1_665
Cu0 S1 2.293084 1_665
Cu0 S5 2.306216 1_555
Cu0 S4 2.306216 1_555
Cu1 S6 2.293084 1_664
Cu1 S7 2.293084 1_665
Cu1 S4 2.306216 1_555
Cu1 S5 2.306216 1_554
Cu2 S2 2.290858 1_555
Cu2 S1 2.298425 1_555
Cu2 S7 2.298425 1_555
Cu2 S4 2.309996 1_555
Cu3 S3 2.290858 1_555
Cu3 S6 2.298425 1_555
Cu3 S0 2.298425 1_555
Cu3 S5 2.309996 1_555
S0 V1 2.198330 1_545
S1 V0 2.198330 1_455
S2 V0 2.166676 1_565
S3 V1 2.166676 1_655
S4 V0 2.233364 1_565
S5 V1 2.233364 1_655
S6 V1 2.198330 1_545
S7 V0 2.198330 1_455
