# generated using pymatgen
data_Ti7Fe13O30
_symmetry_space_group_name_H-M   'P 1'
_cell_length_a   5.15220300
_cell_length_b   5.54552771
_cell_length_c   21.27716947
_cell_angle_alpha   94.76433519
_cell_angle_beta   89.98436813
_cell_angle_gamma   117.66930897
_symmetry_Int_Tables_number   1
_chemical_formula_structural   Ti7Fe13O30
_chemical_formula_sum   'Ti7 Fe13 O30'
_cell_volume   536.03817602
_cell_formula_units_Z   1
loop_
 _symmetry_equiv_pos_site_id
 _symmetry_equiv_pos_as_xyz
  1  'x, y, z'
loop_
 _atom_site_type_symbol
 _atom_site_label
 _atom_site_symmetry_multiplicity
 _atom_site_fract_x
 _atom_site_fract_y
 _atom_site_fract_z
 _atom_site_occupancy
  Ti  Ti0  1  0.19702200  0.42016600  0.03028100  1
  Ti  Ti1  1  0.88175900  0.79927900  0.12895800  1
  Ti  Ti2  1  0.01334100  0.00875200  0.42877700  1
  Ti  Ti3  1  0.31711600  0.61344900  0.33103600  1
  Ti  Ti4  1  0.40302200  0.81613800  0.62635800  1
  Ti  Ti5  1  0.69324900  0.39285500  0.67165500  1
  Ti  Ti6  1  0.09539400  0.19155400  0.87121800  1
  Fe  Fe0  1  0.49323400  0.00117400  0.07259500  1
  Fe  Fe1  1  0.59756800  0.19510300  0.23104800  1
  Fe  Fe2  1  0.88972800  0.79014400  0.27079600  1
  Fe  Fe3  1  0.17745400  0.37893700  0.17290800  1
  Fe  Fe4  1  0.29732500  0.58111200  0.47054500  1
  Fe  Fe5  1  0.60740500  0.20080500  0.37183900  1
  Fe  Fe6  1  0.70456000  0.40352700  0.52426500  1
  Fe  Fe7  1  0.80692800  0.61832700  0.83098700  1
  Fe  Fe8  1  0.99319800  0.99479500  0.56672400  1
  Fe  Fe9  1  0.10695200  0.20965200  0.72930700  1
  Fe  Fe10  1  0.40075500  0.79895100  0.77394900  1
  Fe  Fe11  1  0.50577000  0.00394900  0.93138000  1
  Fe  Fe12  1  0.79742500  0.57909800  0.96901600  1
  O  O0  1  0.21625400  0.17996700  0.08481700  1
  O  O1  1  0.75646100  0.09049100  0.14922900  1
  O  O2  1  0.79691500  0.24474600  0.00710400  1
  O  O3  1  0.62347900  0.56032600  0.18379700  1
  O  O4  1  0.65770200  0.68399400  0.05264400  1
  O  O5  1  0.62919700  0.94990800  0.29109700  1
  O  O6  1  0.13851600  0.62862600  0.11071500  1
  O  O7  1  0.12591900  0.88759000  0.35211500  1
  O  O8  1  0.15069400  0.02824800  0.20758300  1
  O  O9  1  0.05885600  0.37241000  0.38654900  1
  O  O10  1  0.07290400  0.51612200  0.25360400  1
  O  O11  1  0.03448800  0.77882800  0.48799200  1
  O  O12  1  0.55066300  0.45370700  0.30863700  1
  O  O13  1  0.54630600  0.71379500  0.55732500  1
  O  O14  1  0.59892600  0.84033300  0.41206900  1
  O  O15  1  0.42086600  0.14557000  0.59334700  1
  O  O16  1  0.43348700  0.28774300  0.44971700  1
  O  O17  1  0.44532800  0.56455700  0.68674300  1
  O  O18  1  0.97933300  0.23932600  0.51153900  1
  O  O19  1  0.92642400  0.49400500  0.74653400  1
  O  O20  1  0.98282800  0.63327800  0.61648500  1
  O  O21  1  0.85426000  0.96635100  0.78930300  1
  O  O22  1  0.84889300  0.10440400  0.65096100  1
  O  O23  1  0.83995000  0.35184100  0.88433500  1
  O  O24  1  0.37990800  0.05819900  0.70926800  1
  O  O25  1  0.32918400  0.29785600  0.94858900  1
  O  O26  1  0.36486700  0.42543600  0.81406400  1
  O  O27  1  0.24429900  0.76003200  0.98891200  1
  O  O28  1  0.24702700  0.90043600  0.85395600  1
  O  O29  1  0.76686500  0.84411100  0.90732600  1
loop_
_geom_bond_atom_site_label_1
_geom_bond_atom_site_label_2
_geom_bond_distance
_geom_bond_site_symmetry_2
Fe0 O1 1.996621 1_555
Fe0 O0 2.087643 1_555
Fe0 O2 2.136110 1_555
Fe0 O27 2.148574 1_544
Fe0 O6 2.244337 1_545
Fe0 O4 2.291746 1_545
Fe1 O5 2.000595 1_545
Fe1 O1 2.076035 1_555
Fe1 O8 2.086082 1_555
Fe1 O12 2.183756 1_555
Fe1 O10 2.281854 1_655
Fe1 O3 2.284230 1_555
Fe2 O5 1.952931 1_555
Fe2 O7 2.000423 1_655
Fe2 O8 2.001373 1_665
Fe2 O12 2.098262 1_555
Fe2 O10 2.138474 1_655
Fe2 O3 2.217739 1_555
Fe3 O10 1.995007 1_555
Fe3 O3 2.039880 1_555
Fe3 O1 2.040016 1_455
Fe3 O6 2.066671 1_555
Fe3 O8 2.081989 1_555
Fe3 O0 2.152126 1_555
Fe4 O14 2.061699 1_555
Fe4 O16 2.067691 1_555
Fe4 O9 2.092863 1_555
Fe4 O18 2.104120 1_455
Fe4 O11 2.117759 1_555
Fe4 O13 2.120208 1_555
Fe5 O16 2.012161 1_555
Fe5 O9 2.075785 1_655
Fe5 O12 2.134263 1_555
Fe5 O5 2.155872 1_545
Fe5 O14 2.221207 1_545
Fe5 O7 2.285766 1_545
Fe6 O16 1.969251 1_555
Fe6 O18 2.015616 1_555
Fe6 O15 2.179336 1_555
Fe6 O11 2.190240 1_655
Fe6 O13 2.285090 1_555
Fe6 O20 2.327811 1_555
Fe7 O23 2.003387 1_555
Fe7 O26 2.033488 1_555
Fe7 O29 2.037309 1_555
Fe7 O19 2.066664 1_555
Fe7 O28 2.099248 1_655
Fe7 O21 2.101908 1_555
Fe8 O18 1.891347 1_565
Fe8 O15 2.021398 1_665
Fe8 O11 2.046718 1_655
Fe8 O22 2.091097 1_565
Fe8 O13 2.094258 1_555
Fe8 O20 2.322968 1_555
Fe9 O21 1.949047 1_445
Fe9 O24 1.975378 1_555
Fe9 O22 2.001530 1_455
Fe9 O26 2.148480 1_555
Fe9 O19 2.179911 1_455
Fe9 O17 2.200378 1_555
Fe10 O28 2.023872 1_555
Fe10 O21 2.088904 1_555
Fe10 O24 2.108219 1_565
Fe10 O26 2.234065 1_555
Fe10 O17 2.249788 1_555
Fe10 O19 2.274006 1_455
Fe11 O27 1.929956 1_545
Fe11 O29 1.972028 1_545
Fe11 O28 1.988435 1_545
Fe11 O2 2.100668 1_556
Fe11 O25 2.212729 1_555
Fe11 O23 2.218849 1_555
Fe12 O4 2.058891 1_556
Fe12 O27 2.066736 1_655
Fe12 O2 2.083206 1_556
Fe12 O29 2.107836 1_555
Fe12 O23 2.182125 1_555
Fe12 O25 2.198845 1_555
O0 Ti0 1.873495 1_555
O0 Ti1 2.293131 1_445
O1 Ti1 2.015722 1_545
O2 Ti0 1.870146 1_655
O3 Ti1 1.872568 1_555
O4 Ti1 1.876444 1_555
O4 Ti0 2.158793 1_555
O5 Ti3 2.065239 1_555
O6 Ti1 1.974241 1_455
O6 Ti0 2.085873 1_555
O7 Ti2 1.904708 1_565
O7 Ti3 2.181761 1_555
O8 Ti1 2.084524 1_445
O9 Ti3 1.887312 1_555
O9 Ti2 2.188819 1_555
O10 Ti3 1.952313 1_555
O11 Ti2 1.902891 1_565
O12 Ti3 1.838282 1_555
O13 Ti4 1.809583 1_555
O14 Ti2 1.910694 1_665
O14 Ti3 2.146686 1_555
O15 Ti4 1.973928 1_545
O15 Ti5 2.111992 1_555
O16 Ti2 2.013361 1_555
O17 Ti5 1.928698 1_555
O17 Ti4 2.055496 1_555
O18 Ti2 2.144865 1_655
O19 Ti5 1.876961 1_555
O20 Ti4 1.919713 1_655
O20 Ti5 1.947595 1_555
O21 Ti6 2.083157 1_665
O22 Ti5 2.114198 1_555
O22 Ti4 2.134894 1_545
O23 Ti6 1.909236 1_655
O24 Ti5 2.038227 1_555
O24 Ti4 2.164047 1_545
O25 Ti6 1.920653 1_555
O25 Ti0 2.043873 1_556
O26 Ti6 1.917636 1_555
O27 Ti0 2.058018 1_556
O28 Ti6 2.103389 1_565
O29 Ti6 2.093795 1_665
