# generated using pymatgen
data_K4PH5S3O16
_symmetry_space_group_name_H-M   'P 1'
_cell_length_a   7.38736500
_cell_length_b   7.61810371
_cell_length_c   7.64466113
_cell_angle_alpha   70.78580341
_cell_angle_beta   87.85493789
_cell_angle_gamma   85.52811335
_symmetry_Int_Tables_number   1
_chemical_formula_structural   K4PH5S3O16
_chemical_formula_sum   'K4 P1 H5 S3 O16'
_cell_volume   404.98992859
_cell_formula_units_Z   1
loop_
 _symmetry_equiv_pos_site_id
 _symmetry_equiv_pos_as_xyz
  1  'x, y, z'
loop_
 _atom_site_type_symbol
 _atom_site_label
 _atom_site_symmetry_multiplicity
 _atom_site_fract_x
 _atom_site_fract_y
 _atom_site_fract_z
 _atom_site_occupancy
  K  K0  1  0.16190900  0.18663400  0.33622200  1
  K  K1  1  0.46542300  0.25663100  0.77658200  1
  K  K2  1  0.53726000  0.74305600  0.22369700  1
  K  K3  1  0.83841400  0.80931600  0.66380300  1
  P  P0  1  0.95986000  0.27709600  0.80930800  1
  H  H0  1  0.00997700  0.47348600  0.52456800  1
  H  H1  1  0.12087800  0.05495200  0.04462500  1
  H  H2  1  0.25084700  0.58092900  0.96608700  1
  H  H3  1  0.75002800  0.42055600  0.03067900  1
  H  H4  1  0.86869600  0.98940900  0.91564400  1
  S  S0  1  0.03554700  0.72354000  0.19786100  1
  S  S1  1  0.37324200  0.77978400  0.72313200  1
  S  S2  1  0.62702800  0.22128700  0.27561500  1
  O  O0  1  0.05927800  0.34655800  0.61576000  1
  O  O1  1  0.11595100  0.19445500  0.95243500  1
  O  O2  1  0.15504200  0.56912800  0.16900700  1
  O  O3  1  0.14930900  0.88150100  0.18965400  1
  O  O4  1  0.20569100  0.89681500  0.65957200  1
  O  O5  1  0.31367500  0.57741100  0.84676100  1
  O  O6  1  0.51911300  0.14969800  0.15821200  1
  O  O7  1  0.48230200  0.73772100  0.57641000  1
  O  O8  1  0.51732400  0.26271000  0.42337200  1
  O  O9  1  0.48060900  0.84935000  0.84228900  1
  O  O10  1  0.68529500  0.42183800  0.15219100  1
  O  O11  1  0.79415600  0.10389300  0.34025700  1
  O  O12  1  0.84437900  0.11157300  0.80702000  1
  O  O13  1  0.84078800  0.43203700  0.84430000  1
  O  O14  1  0.89408400  0.79209900  0.05155400  1
  O  O15  1  0.94389600  0.65653700  0.38338300  1
loop_
_geom_bond_atom_site_label_1
_geom_bond_atom_site_label_2
_geom_bond_distance
_geom_bond_site_symmetry_2
K0 O4 2.728712 1_545
K0 O2 2.767209 1_555
K0 O11 2.833166 1_455
K0 O0 2.841494 1_555
K0 O8 2.880243 1_555
K0 O3 2.902315 1_545
K0 O1 2.946704 1_554
K0 O6 2.960017 1_555
K1 O8 2.698710 1_555
K1 O6 2.793615 1_556
K1 O5 2.811951 1_555
K1 O1 2.865034 1_555
K1 O12 2.917111 1_555
K1 O9 2.969145 1_545
K2 O7 2.699147 1_555
K2 O9 2.795858 1_554
K2 O10 2.810926 1_555
K2 O14 2.896567 1_555
K2 O6 2.963902 1_565
K2 O3 2.966058 1_555
K3 O13 2.747475 1_555
K3 O11 2.748341 1_565
K3 O15 2.816579 1_555
K3 O4 2.840447 1_655
K3 O12 2.860329 1_565
K3 O7 2.873973 1_555
K3 O14 2.966464 1_556
K3 O9 2.969795 1_555
H0 O0 1.036356 1_555
H0 O15 1.513433 1_455
H1 O1 1.063181 1_554
H1 O3 1.424509 1_545
H1 K0 2.763559 1_555
H2 O5 1.015242 1_555
H2 O2 1.658710 1_556
H3 O10 1.031336 1_555
H3 O13 1.530642 1_554
H4 O12 1.031687 1_565
H4 O14 1.522089 1_556
H4 K3 2.730849 1_555
O0 P0 1.572441 1_455
O1 P0 1.565574 1_455
O2 S0 1.485238 1_555
O3 S0 1.504113 1_555
O4 S1 1.466566 1_555
O5 S1 1.606023 1_555
O6 S2 1.477167 1_555
O7 S1 1.462368 1_555
O8 S2 1.469170 1_555
O9 S1 1.475502 1_555
O10 S2 1.591566 1_555
O11 S2 1.466607 1_555
O12 P0 1.581619 1_555
O13 P0 1.505605 1_555
O14 S0 1.494573 1_655
O15 S0 1.495297 1_655
