# generated using pymatgen
data_K57Se34
_symmetry_space_group_name_H-M   'P 1'
_cell_length_a   6.18567347
_cell_length_b   9.58285107
_cell_length_c   58.14129800
_cell_angle_alpha   84.91499420
_cell_angle_beta   72.93980965
_cell_angle_gamma   72.61178759
_symmetry_Int_Tables_number   1
_chemical_formula_structural   K57Se34
_chemical_formula_sum   'K57 Se34'
_cell_volume   3144.18823128
_cell_formula_units_Z   1
loop_
 _symmetry_equiv_pos_site_id
 _symmetry_equiv_pos_as_xyz
  1  'x, y, z'
loop_
 _atom_site_type_symbol
 _atom_site_label
 _atom_site_symmetry_multiplicity
 _atom_site_fract_x
 _atom_site_fract_y
 _atom_site_fract_z
 _atom_site_occupancy
  K  K0  1  0.06559040  0.70682387  0.02110025  1
  K  K1  1  0.32007370  0.32828173  0.01741190  1
  K  K2  1  0.05960399  0.70548497  0.19233187  1
  K  K3  1  0.17239047  0.83515286  0.12065344  1
  K  K4  1  0.30451804  0.33146827  0.18832029  1
  K  K5  1  0.42759373  0.82777555  0.05127215  1
  K  K6  1  0.55494602  0.13389688  0.12054379  1
  K  K7  1  0.81620985  0.13145803  0.04600981  1
  K  K8  1  0.06926719  0.69300875  0.35311425  1
  K  K9  1  0.19971919  0.81242638  0.28182415  1
  K  K10  1  0.29930643  0.31273570  0.35498929  1
  K  K11  1  0.76324967  0.52821071  0.08553618  1
  K  K12  1  0.45157341  0.81708274  0.21895265  1
  K  K13  1  0.55794485  0.15779023  0.28164768  1
  K  K14  1  0.24828598  0.50590207  0.41457002  1
  K  K15  1  0.68053046  0.68877541  0.14856135  1
  K  K16  1  0.82533313  0.13769082  0.21263855  1
  K  K17  1  0.07191821  0.69793470  0.52077247  1
  K  K18  1  0.91730426  0.30652291  0.15025905  1
  K  K19  1  0.18198730  0.87353794  0.44876114  1
  K  K20  1  0.30187875  0.31724452  0.52127017  1
  K  K21  1  0.42212658  0.86871195  0.38448431  1
  K  K22  1  0.57838689  0.13164253  0.44595771  1
  K  K23  1  0.25324560  0.50377923  0.58169074  1
  K  K24  1  0.69942316  0.68080355  0.30517404  1
  K  K25  1  0.81996490  0.12584210  0.38214050  1
  K  K26  1  0.07088532  0.69773455  0.68785913  1
  K  K27  1  0.90157191  0.31932592  0.31494402  1
  K  K28  1  0.17898765  0.87310090  0.61656972  1
  K  K29  1  0.30129215  0.31751689  0.68831488  1
  K  K30  1  0.74436008  0.49800274  0.41704530  1
  K  K31  1  0.42397119  0.86901673  0.55291553  1
  K  K32  1  0.57743655  0.13094546  0.61342309  1
  K  K33  1  0.25257285  0.50386683  0.74859838  1
  K  K34  1  0.69960584  0.68289034  0.47771713  1
  K  K35  1  0.82251396  0.12689790  0.54972286  1
  K  K36  1  0.07049452  0.69808694  0.85481547  1
  K  K37  1  0.93016870  0.30222669  0.47815133  1
  K  K38  1  0.17821009  0.87321282  0.78342334  1
  K  K39  1  0.30149547  0.31748977  0.85522775  1
  K  K40  1  0.74731867  0.49597982  0.58468200  1
  K  K41  1  0.42314556  0.86889168  0.71985930  1
  K  K42  1  0.57669843  0.13077591  0.78029616  1
  K  K43  1  0.25401718  0.50554634  0.91565682  1
  K  K44  1  0.69928913  0.68267441  0.64492229  1
  K  K45  1  0.82194969  0.12697829  0.71665652  1
  K  K46  1  0.92974215  0.30229384  0.64538782  1
  K  K47  1  0.17852504  0.87764243  0.95130657  1
  K  K48  1  0.74664238  0.49605193  0.75159205  1
  K  K49  1  0.42183763  0.86951076  0.88715453  1
  K  K50  1  0.57876627  0.12646223  0.94831110  1
  K  K51  1  0.69862746  0.68304138  0.81179165  1
  K  K52  1  0.81917471  0.12742132  0.88409947  1
  K  K53  1  0.92887592  0.30223080  0.81230857  1
  K  K54  1  0.75017512  0.49616013  0.91820907  1
  K  K55  1  0.70209341  0.68991195  0.97821545  1
  K  K56  1  0.93858371  0.29856145  0.97833203  1
  Se  Se0  1  0.28053531  0.99969685  0.00188787  1
  Se  Se1  1  0.71153424  0.00156397  0.00160190  1
  Se  Se2  1  0.36278736  0.48531991  0.13331542  1
  Se  Se3  1  0.70349622  0.48163791  0.03332647  1
  Se  Se4  1  0.26608345  0.99631895  0.16726840  1
  Se  Se5  1  0.14812690  0.19148094  0.41666024  1
  Se  Se6  1  0.32886057  0.48637465  0.30260366  1
  Se  Se7  1  0.69408187  0.48695646  0.19835383  1
  Se  Se8  1  0.30228424  0.99888382  0.49953523  1
  Se  Se9  1  0.30121133  0.99654732  0.33058905  1
  Se  Se10  1  0.81398180  0.85898247  0.08295093  1
  Se  Se11  1  0.14903198  0.19049854  0.58447346  1
  Se  Se12  1  0.72706037  0.00014162  0.16759991  1
  Se  Se13  1  0.33218715  0.50589697  0.46752447  1
  Se  Se14  1  0.65688836  0.49883453  0.36471007  1
  Se  Se15  1  0.82746218  0.86920160  0.24896482  1
  Se  Se16  1  0.14852018  0.19069939  0.75137025  1
  Se  Se17  1  0.70020832  0.00125942  0.49948801  1
  Se  Se18  1  0.70014054  0.99745257  0.33074034  1
  Se  Se19  1  0.33208552  0.50555112  0.63480069  1
  Se  Se20  1  0.66857088  0.49429493  0.53163495  1
  Se  Se21  1  0.30141723  0.99846858  0.66672515  1
  Se  Se22  1  0.84693879  0.81136446  0.41445834  1
  Se  Se23  1  0.15201261  0.19172914  0.91848872  1
  Se  Se24  1  0.33124099  0.50573773  0.80167933  1
  Se  Se25  1  0.66775637  0.49447291  0.69864221  1
  Se  Se26  1  0.30013762  0.99877572  0.83380074  1
  Se  Se27  1  0.85057960  0.80933953  0.58210732  1
  Se  Se28  1  0.69909906  0.00148673  0.66669354  1
  Se  Se29  1  0.33915954  0.51066304  0.96829534  1
  Se  Se30  1  0.66673338  0.49516494  0.86557622  1
  Se  Se31  1  0.84991235  0.80928512  0.74902840  1
  Se  Se32  1  0.69824198  0.00116542  0.83373673  1
  Se  Se33  1  0.84943078  0.80991919  0.91653791  1
loop_
_geom_bond_atom_site_label_1
_geom_bond_atom_site_label_2
_geom_bond_distance
_geom_bond_site_symmetry_2
K0 Se1 3.354275 1_465
K0 Se0 3.419860 1_555
K0 Se3 3.444027 1_455
K0 Se29 3.449113 1_554
K0 Se10 3.710706 1_455
K1 Se29 3.203794 1_554
K1 Se1 3.344208 1_555
K1 Se0 3.447159 1_545
K1 Se3 3.500411 1_555
K1 Se3 3.518868 1_455
K2 Se12 3.437473 1_465
K2 Se4 3.440611 1_555
K2 Se7 3.443190 1_455
K2 Se15 3.487156 1_455
K2 Se2 3.858084 1_555
K3 Se2 3.298335 1_555
K3 Se12 3.359823 1_465
K3 Se10 3.497514 1_455
K3 Se4 3.502178 1_555
K4 Se2 3.366985 1_555
K4 Se7 3.390003 1_555
K4 Se12 3.497750 1_555
K4 Se7 3.509587 1_455
K4 Se4 3.632292 1_545
K5 Se3 3.344980 1_555
K5 Se0 3.403546 1_555
K5 Se1 3.481068 1_565
K5 Se10 3.507431 1_555
K5 Se10 3.633966 1_455
K6 Se4 3.199351 1_545
K6 Se12 3.245513 1_555
K6 Se10 3.275350 1_545
K6 Se2 3.292131 1_555
K7 Se10 3.231264 1_545
K7 Se0 3.241585 1_645
K7 Se1 3.266097 1_555
K7 Se3 3.279542 1_555
K8 Se6 3.389306 1_555
K8 Se14 3.468305 1_455
K8 Se18 3.536340 1_455
K8 Se22 3.578449 1_455
K8 Se9 3.598760 1_555
K8 Se14 3.781793 1_555
K9 Se6 3.203997 1_555
K9 Se15 3.300969 1_455
K9 Se18 3.639253 1_455
K9 Se9 3.760207 1_555
K10 Se6 3.321985 1_555
K10 Se18 3.389728 1_545
K10 Se14 3.414972 1_555
K10 Se9 3.453172 1_545
K10 Se5 3.608997 1_555
K10 Se14 3.730420 1_455
K11 Se2 3.223443 1_555
K11 Se3 3.247673 1_555
K11 Se10 3.263539 1_555
K12 Se7 3.236318 1_555
K12 Se15 3.453932 1_555
K12 Se12 3.573314 1_565
K12 Se4 3.636865 1_555
K12 Se15 3.639719 1_455
K13 Se15 3.217971 1_545
K13 Se6 3.226065 1_555
K13 Se9 3.322984 1_545
K13 Se18 3.342075 1_545
K14 Se22 3.224050 1_455
K14 Se14 3.229531 1_555
K14 Se5 3.237859 1_555
K14 Se13 3.268963 1_555
K15 Se4 3.295033 1_555
K15 Se7 3.343859 1_555
K15 Se12 3.390686 1_565
K15 Se2 3.474044 1_555
K15 Se2 3.948519 1_655
K16 Se15 3.180175 1_545
K16 Se4 3.229987 1_645
K16 Se7 3.290873 1_555
K16 Se12 3.314935 1_555
K17 Se13 3.446418 1_555
K17 Se20 3.492696 1_455
K17 Se17 3.507764 1_465
K17 Se8 3.558783 1_555
K17 Se27 3.559170 1_455
K17 Se20 3.830506 1_555
K18 Se7 3.143266 1_555
K18 Se4 3.371459 1_645
K18 Se12 3.444651 1_555
K18 Se2 3.525548 1_655
K18 Se2 3.720524 1_555
K19 Se5 3.413237 1_565
K19 Se22 3.464370 1_455
K19 Se17 3.518573 1_465
K19 Se13 3.524518 1_555
K19 Se8 3.628080 1_555
K19 Se22 3.896592 1_555
K20 Se17 3.351634 1_555
K20 Se8 3.403134 1_545
K20 Se20 3.416151 1_555
K20 Se13 3.453326 1_555
K20 Se20 3.662186 1_455
K20 Se11 3.705307 1_555
K21 Se18 3.416889 1_555
K21 Se22 3.449391 1_555
K21 Se5 3.459954 1_565
K21 Se9 3.467889 1_555
K21 Se14 3.558130 1_555
K21 Se22 3.654948 1_455
K22 Se22 3.420158 1_545
K22 Se8 3.422502 1_545
K22 Se5 3.447956 1_555
K22 Se17 3.455361 1_555
K22 Se5 3.628068 1_655
K22 Se13 3.628536 1_555
K23 Se27 3.224364 1_455
K23 Se11 3.234788 1_555
K23 Se20 3.255545 1_555
K23 Se19 3.266643 1_555
K24 Se6 3.398647 1_555
K24 Se9 3.407085 1_555
K24 Se18 3.496948 1_555
K24 Se15 3.585672 1_555
K24 Se14 3.709694 1_555
K24 Se6 3.745026 1_655
K25 Se22 3.394093 1_545
K25 Se5 3.452780 1_655
K25 Se9 3.549495 1_645
K25 Se14 3.552905 1_555
K25 Se18 3.672951 1_545
K26 Se19 3.438439 1_555
K26 Se25 3.489202 1_455
K26 Se28 3.507220 1_465
K26 Se31 3.550737 1_455
K26 Se21 3.556542 1_555
K26 Se25 3.829064 1_555
K27 Se14 3.221584 1_555
K27 Se6 3.357932 1_655
K27 Se9 3.571608 1_645
K27 Se18 3.610171 1_545
K27 Se6 3.677729 1_555
K28 Se11 3.409954 1_565
K28 Se27 3.444122 1_455
K28 Se28 3.492145 1_465
K28 Se19 3.515629 1_555
K28 Se21 3.602926 1_555
K29 Se28 3.348544 1_555
K29 Se21 3.406119 1_545
K29 Se25 3.413386 1_555
K29 Se19 3.439102 1_555
K29 Se25 3.663524 1_455
K29 Se16 3.697862 1_555
K30 Se22 3.231935 1_555
K30 Se5 3.234263 1_655
K30 Se14 3.242042 1_555
K30 Se13 3.263945 1_555
K31 Se17 3.414241 1_565
K31 Se27 3.424207 1_555
K31 Se11 3.433551 1_565
K31 Se8 3.445845 1_555
K31 Se20 3.627195 1_555
K31 Se27 3.646326 1_455
K32 Se21 3.409444 1_545
K32 Se11 3.424039 1_555
K32 Se27 3.427148 1_545
K32 Se28 3.438986 1_555
K32 Se19 3.628031 1_555
K32 Se11 3.633703 1_655
K33 Se31 3.223317 1_455
K33 Se16 3.233318 1_555
K33 Se25 3.251353 1_555
K33 Se24 3.264647 1_555
K34 Se8 3.349996 1_555
K34 Se17 3.406501 1_565
K34 Se13 3.415504 1_555
K34 Se20 3.461265 1_555
K34 Se13 3.659225 1_655
K34 Se22 3.711439 1_555
K35 Se27 3.419975 1_545
K35 Se11 3.446942 1_655
K35 Se8 3.493456 1_645
K35 Se20 3.512207 1_555
K35 Se17 3.607880 1_555
K36 Se24 3.442711 1_555
K36 Se30 3.490089 1_455
K36 Se32 3.502435 1_465
K36 Se26 3.552097 1_555
K36 Se33 3.580938 1_455
K36 Se30 3.824508 1_555
K37 Se20 3.458003 1_555
K37 Se13 3.487204 1_655
K37 Se8 3.511883 1_645
K37 Se17 3.558500 1_555
K37 Se5 3.565812 1_655
K37 Se13 3.832145 1_555
K38 Se16 3.409531 1_565
K38 Se31 3.441192 1_455
K38 Se32 3.498482 1_465
K38 Se24 3.515389 1_555
K38 Se26 3.613730 1_555
K39 Se32 3.346437 1_555
K39 Se26 3.402367 1_545
K39 Se30 3.412250 1_555
K39 Se24 3.442073 1_555
K39 Se30 3.671179 1_455
K39 Se23 3.704100 1_555
K40 Se11 3.222609 1_655
K40 Se27 3.233928 1_555
K40 Se19 3.257576 1_555
K40 Se20 3.262669 1_555
K41 Se28 3.404031 1_565
K41 Se31 3.424196 1_555
K41 Se21 3.431993 1_555
K41 Se16 3.434625 1_565
K41 Se25 3.623466 1_555
K41 Se31 3.644967 1_455
K42 Se26 3.417182 1_545
K42 Se16 3.421471 1_555
K42 Se31 3.424995 1_545
K42 Se32 3.448252 1_555
K42 Se24 3.631199 1_555
K42 Se16 3.636160 1_655
K43 Se33 3.218958 1_455
K43 Se23 3.233301 1_555
K43 Se30 3.247086 1_555
K43 Se29 3.260989 1_555
K44 Se21 3.349611 1_555
K44 Se28 3.408608 1_565
K44 Se19 3.413536 1_555
K44 Se25 3.449670 1_555
K44 Se19 3.661057 1_655
K44 Se27 3.684424 1_555
K45 Se31 3.420721 1_545
K45 Se16 3.446014 1_655
K45 Se21 3.484158 1_645
K45 Se25 3.511897 1_555
K45 Se28 3.594837 1_555
K46 Se25 3.447842 1_555
K46 Se19 3.486064 1_655
K46 Se21 3.511991 1_645
K46 Se11 3.537815 1_655
K46 Se28 3.559116 1_555
K46 Se19 3.828677 1_555
K47 Se23 3.405488 1_565
K47 Se1 3.451756 1_466
K47 Se33 3.476821 1_455
K47 Se29 3.493107 1_555
K47 Se0 3.543242 1_556
K48 Se16 3.222170 1_655
K48 Se31 3.232822 1_555
K48 Se24 3.256759 1_555
K48 Se25 3.257308 1_555
K49 Se32 3.411709 1_565
K49 Se23 3.431010 1_565
K49 Se33 3.437450 1_555
K49 Se26 3.443195 1_555
K49 Se30 3.629351 1_555
K49 Se33 3.642492 1_455
K50 Se33 3.400046 1_545
K50 Se23 3.445657 1_555
K50 Se0 3.446598 1_546
K50 Se1 3.457631 1_556
K50 Se23 3.673813 1_655
K50 Se29 3.686237 1_555
K51 Se26 3.353483 1_555
K51 Se32 3.406599 1_565
K51 Se24 3.415522 1_555
K51 Se30 3.451291 1_555
K51 Se24 3.660393 1_655
K51 Se31 3.680472 1_555
K52 Se33 3.420363 1_545
K52 Se23 3.465311 1_655
K52 Se26 3.502165 1_645
K52 Se30 3.522043 1_555
K52 Se32 3.612713 1_555
K52 Se23 3.907078 1_555
K53 Se30 3.451940 1_555
K53 Se24 3.487784 1_655
K53 Se26 3.512809 1_645
K53 Se16 3.538390 1_655
K53 Se32 3.562445 1_555
K53 Se24 3.830032 1_555
K54 Se23 3.220344 1_655
K54 Se33 3.231598 1_555
K54 Se29 3.237250 1_555
K54 Se30 3.250514 1_555
K55 Se0 3.390935 1_556
K55 Se29 3.400501 1_555
K55 Se1 3.412067 1_566
K55 Se33 3.604217 1_555
K55 Se3 3.622554 1_556
K55 Se29 3.688966 1_655
K56 Se0 3.454832 1_646
K56 Se23 3.467766 1_655
K56 Se3 3.486772 1_556
K56 Se1 3.534785 1_556
K56 Se29 3.544413 1_655
K56 Se29 3.843794 1_555
Se0 Se1 2.666590 1_565
Se12 Se4 2.868327 1_545
Se17 Se8 2.467523 1_545
Se18 Se9 2.472847 1_555
Se21 Se28 2.468189 1_565
Se26 Se32 2.468395 1_565
