# generated using pymatgen
data_Cu8Ge5C4(S2N)8
_symmetry_space_group_name_H-M   'P 1'
_cell_length_a   11.47302200
_cell_length_b   11.47302200
_cell_length_c   17.50758000
_cell_angle_alpha   90.00000000
_cell_angle_beta   90.00000000
_cell_angle_gamma   90.00000000
_symmetry_Int_Tables_number   1
_chemical_formula_structural   Cu8Ge5C4(S2N)8
_chemical_formula_sum   'Cu16 Ge10 C8 S32 N16'
_cell_volume   2304.52684889
_cell_formula_units_Z   2
loop_
 _symmetry_equiv_pos_site_id
 _symmetry_equiv_pos_as_xyz
  1  'x, y, z'
loop_
 _atom_site_type_symbol
 _atom_site_label
 _atom_site_symmetry_multiplicity
 _atom_site_fract_x
 _atom_site_fract_y
 _atom_site_fract_z
 _atom_site_occupancy
  Cu  Cu0  1  0.13313100  0.86297800  0.59092800  1
  Cu  Cu1  1  0.86686900  0.13702200  0.59092800  1
  Cu  Cu2  1  0.13702200  0.86686900  0.90907200  1
  Cu  Cu3  1  0.86686900  0.86297800  0.40907200  1
  Cu  Cu4  1  0.13702200  0.13313100  0.90907200  1
  Cu  Cu5  1  0.86297800  0.13313100  0.09092800  1
  Cu  Cu6  1  0.13313100  0.86297800  0.40907200  1
  Cu  Cu7  1  0.13313100  0.13702200  0.40907200  1
  Cu  Cu8  1  0.86297800  0.86686900  0.09092800  1
  Cu  Cu9  1  0.86686900  0.13702200  0.40907200  1
  Cu  Cu10  1  0.86297800  0.13313100  0.90907200  1
  Cu  Cu11  1  0.86686900  0.86297800  0.59092800  1
  Cu  Cu12  1  0.86297800  0.86686900  0.90907200  1
  Cu  Cu13  1  0.13702200  0.86686900  0.09092800  1
  Cu  Cu14  1  0.13313100  0.13702200  0.59092800  1
  Cu  Cu15  1  0.13702200  0.13313100  0.09092800  1
  Ge  Ge0  1  0.62851400  0.00000000  0.00000000  1
  Ge  Ge1  1  0.00000000  0.37156600  0.00000000  1
  Ge  Ge2  1  0.00000000  0.37148600  0.50000000  1
  Ge  Ge3  1  0.37156600  0.00000000  0.50000000  1
  Ge  Ge4  1  0.00000000  0.62851400  0.50000000  1
  Ge  Ge5  1  0.62843400  0.00000000  0.50000000  1
  Ge  Ge6  1  0.00000000  0.00000000  0.75000000  1
  Ge  Ge7  1  0.00000000  0.00000000  0.25000000  1
  Ge  Ge8  1  0.37148600  0.00000000  0.00000000  1
  Ge  Ge9  1  0.00000000  0.62843400  0.00000000  1
  C  C0  1  0.50000000  0.82652000  0.74210000  1
  C  C1  1  0.50000000  0.17348000  0.74210000  1
  C  C2  1  0.17348000  0.50000000  0.24210000  1
  C  C3  1  0.50000000  0.17348000  0.25790000  1
  C  C4  1  0.82652000  0.50000000  0.75790000  1
  C  C5  1  0.82652000  0.50000000  0.24210000  1
  C  C6  1  0.17348000  0.50000000  0.75790000  1
  C  C7  1  0.50000000  0.82652000  0.25790000  1
  S  S0  1  0.00000000  0.83357300  0.68133800  1
  S  S1  1  0.26832000  0.00000000  0.39009100  1
  S  S2  1  0.00000000  0.50000000  0.40249500  1
  S  S3  1  0.00000000  0.83357300  0.31866200  1
  S  S4  1  0.00000000  0.73168000  0.10990900  1
  S  S5  1  0.50000000  0.00000000  0.90249500  1
  S  S6  1  0.83257200  0.26864700  0.50000000  1
  S  S7  1  0.73168000  0.00000000  0.39009100  1
  S  S8  1  0.16742800  0.26864700  0.50000000  1
  S  S9  1  0.16642700  0.00000000  0.81866200  1
  S  S10  1  0.50000000  0.14958300  0.50000000  1
  S  S11  1  0.00000000  0.73168000  0.89009100  1
  S  S12  1  0.50000000  0.00000000  0.09750500  1
  S  S13  1  0.83257200  0.73135300  0.50000000  1
  S  S14  1  0.83357300  0.00000000  0.18133800  1
  S  S15  1  0.85041700  0.50000000  0.00000000  1
  S  S16  1  0.73168000  0.00000000  0.60990900  1
  S  S17  1  0.16642700  0.00000000  0.18133800  1
  S  S18  1  0.26832000  0.00000000  0.60990900  1
  S  S19  1  0.00000000  0.26832000  0.10990900  1
  S  S20  1  0.14958300  0.50000000  0.00000000  1
  S  S21  1  0.00000000  0.26832000  0.89009100  1
  S  S22  1  0.73135300  0.16742800  0.00000000  1
  S  S23  1  0.00000000  0.50000000  0.59750500  1
  S  S24  1  0.00000000  0.16642700  0.31866200  1
  S  S25  1  0.73135300  0.83257200  0.00000000  1
  S  S26  1  0.83357300  0.00000000  0.81866200  1
  S  S27  1  0.26864700  0.83257200  0.00000000  1
  S  S28  1  0.16742800  0.73135300  0.50000000  1
  S  S29  1  0.50000000  0.85041700  0.50000000  1
  S  S30  1  0.26864700  0.16742800  0.00000000  1
  S  S31  1  0.00000000  0.16642700  0.68133800  1
  N  N0  1  0.39238700  0.82599200  0.74340600  1
  N  N1  1  0.82599200  0.60761300  0.75659400  1
  N  N2  1  0.82599200  0.39238700  0.24340600  1
  N  N3  1  0.39238700  0.17400800  0.25659400  1
  N  N4  1  0.60761300  0.82599200  0.25659400  1
  N  N5  1  0.82599200  0.60761300  0.24340600  1
  N  N6  1  0.60761300  0.17400800  0.74340600  1
  N  N7  1  0.60761300  0.17400800  0.25659400  1
  N  N8  1  0.82599200  0.39238700  0.75659400  1
  N  N9  1  0.17400800  0.60761300  0.24340600  1
  N  N10  1  0.17400800  0.39238700  0.24340600  1
  N  N11  1  0.17400800  0.60761300  0.75659400  1
  N  N12  1  0.39238700  0.17400800  0.74340600  1
  N  N13  1  0.17400800  0.39238700  0.75659400  1
  N  N14  1  0.39238700  0.82599200  0.25659400  1
  N  N15  1  0.60761300  0.82599200  0.74340600  1
loop_
_geom_bond_atom_site_label_1
_geom_bond_atom_site_label_2
_geom_bond_distance
_geom_bond_site_symmetry_2
Cu0 S0 2.225367 1_555
Cu0 S28 2.229257 1_555
Cu0 S18 2.233266 1_565
Cu1 S31 2.225367 1_655
Cu1 S6 2.229257 1_555
Cu1 S16 2.233266 1_555
Cu2 S9 2.225367 1_565
Cu2 S27 2.229257 1_556
Cu2 S11 2.233266 1_555
Cu3 S3 2.225367 1_655
Cu3 S13 2.229257 1_555
Cu3 S7 2.233266 1_565
Cu4 S9 2.225367 1_555
Cu4 S30 2.229257 1_556
Cu4 S21 2.233266 1_555
Cu5 S14 2.225367 1_555
Cu5 S22 2.229257 1_555
Cu5 S19 2.233266 1_655
Cu6 S3 2.225367 1_555
Cu6 S28 2.229257 1_555
Cu6 S1 2.233266 1_565
Cu7 S24 2.225367 1_555
Cu7 S8 2.229257 1_555
Cu7 S1 2.233266 1_555
Cu8 S14 2.225367 1_565
Cu8 S25 2.229257 1_555
Cu8 S4 2.233266 1_655
Cu9 S24 2.225367 1_655
Cu9 S6 2.229257 1_555
Cu9 S7 2.233266 1_555
Cu10 S26 2.225367 1_555
Cu10 S22 2.229257 1_556
Cu10 S21 2.233266 1_655
Cu11 S0 2.225367 1_655
Cu11 S13 2.229257 1_555
Cu11 S16 2.233266 1_565
Cu12 S26 2.225367 1_565
Cu12 S25 2.229257 1_556
Cu12 S11 2.233266 1_655
Cu13 S17 2.225367 1_565
Cu13 S27 2.229257 1_555
Cu13 S4 2.233266 1_555
Cu14 S31 2.225367 1_555
Cu14 S8 2.229257 1_555
Cu14 S18 2.233266 1_555
Cu15 S17 2.225367 1_555
Cu15 S30 2.229257 1_555
Cu15 S19 2.233266 1_555
Ge0 S22 2.254325 1_555
Ge0 S25 2.254325 1_545
Ge0 S5 2.255681 1_554
Ge0 S12 2.255681 1_555
Ge1 S19 2.259612 1_555
Ge1 S21 2.259612 1_554
Ge1 S20 2.261972 1_555
Ge1 S15 2.261972 1_455
Ge2 S8 2.254325 1_555
Ge2 S6 2.254325 1_455
Ge2 S23 2.255681 1_555
Ge2 S2 2.255681 1_555
Ge3 S1 2.259612 1_555
Ge3 S18 2.259612 1_555
Ge3 S10 2.261972 1_555
Ge3 S29 2.261972 1_545
Ge4 S28 2.254325 1_555
Ge4 S13 2.254325 1_455
Ge4 S23 2.255681 1_555
Ge4 S2 2.255681 1_555
Ge5 S7 2.259612 1_555
Ge5 S16 2.259612 1_555
Ge5 S10 2.261972 1_555
Ge5 S29 2.261972 1_545
Ge6 S0 2.256312 1_545
Ge6 S9 2.256312 1_555
Ge6 S26 2.256312 1_455
Ge6 S31 2.256312 1_555
Ge7 S14 2.256312 1_455
Ge7 S24 2.256312 1_555
Ge7 S3 2.256312 1_545
Ge7 S17 2.256312 1_555
Ge8 S30 2.254325 1_555
Ge8 S27 2.254325 1_545
Ge8 S5 2.255681 1_554
Ge8 S12 2.255681 1_555
Ge9 S4 2.259612 1_555
Ge9 S11 2.259612 1_554
Ge9 S20 2.261972 1_555
Ge9 S15 2.261972 1_455
C0 N15 1.234873 1_555
C0 N0 1.234873 1_555
C1 N6 1.234873 1_555
C1 N12 1.234873 1_555
C2 N9 1.234873 1_555
C2 N10 1.234873 1_555
C3 N7 1.234873 1_555
C3 N3 1.234873 1_555
C4 N1 1.234873 1_555
C4 N8 1.234873 1_555
C5 N5 1.234873 1_555
C5 N2 1.234873 1_555
C6 N11 1.234873 1_555
C6 N13 1.234873 1_555
C7 N4 1.234873 1_555
C7 N14 1.234873 1_555
