# generated using pymatgen
data_SiO2
_symmetry_space_group_name_H-M   'P 1'
_cell_length_a   19.81695247
_cell_length_b   7.60287932
_cell_length_c   9.06308853
_cell_angle_alpha   90.00000000
_cell_angle_beta   90.00000000
_cell_angle_gamma   90.00000000
_symmetry_Int_Tables_number   1
_chemical_formula_structural   SiO2
_chemical_formula_sum   'Si24 O48'
_cell_volume   1365.49837311
_cell_formula_units_Z   24
loop_
 _symmetry_equiv_pos_site_id
 _symmetry_equiv_pos_as_xyz
  1  'x, y, z'
loop_
 _atom_site_type_symbol
 _atom_site_label
 _atom_site_symmetry_multiplicity
 _atom_site_fract_x
 _atom_site_fract_y
 _atom_site_fract_z
 _atom_site_occupancy
  Si  Si0  1  0.05464673  0.20256586  0.28927500  1
  Si  Si1  1  0.55464673  0.79743414  0.71072500  1
  Si  Si2  1  0.94535327  0.20256586  0.71072500  1
  Si  Si3  1  0.44535327  0.79743414  0.28927500  1
  Si  Si4  1  0.94535327  0.79743414  0.71072500  1
  Si  Si5  1  0.44535327  0.20256586  0.28927500  1
  Si  Si6  1  0.05464673  0.79743414  0.28927500  1
  Si  Si7  1  0.55464673  0.20256586  0.71072500  1
  Si  Si8  1  0.09664355  0.20261079  0.61819486  1
  Si  Si9  1  0.59664355  0.79738921  0.38180514  1
  Si  Si10  1  0.90335645  0.20261079  0.38180514  1
  Si  Si11  1  0.40335645  0.79738921  0.61819486  1
  Si  Si12  1  0.90335645  0.79738921  0.38180514  1
  Si  Si13  1  0.40335645  0.20261079  0.61819486  1
  Si  Si14  1  0.09664355  0.79738921  0.61819486  1
  Si  Si15  1  0.59664355  0.20261079  0.38180514  1
  Si  Si16  1  0.07527230  0.50000000  0.06511010  1
  Si  Si17  1  0.57527230  0.50000000  0.93488990  1
  Si  Si18  1  0.92472770  0.50000000  0.93488990  1
  Si  Si19  1  0.42472770  0.50000000  0.06511010  1
  Si  Si20  1  0.67115073  0.50000000  0.21649248  1
  Si  Si21  1  0.17115073  0.50000000  0.78350752  1
  Si  Si22  1  0.32884927  0.50000000  0.78350752  1
  Si  Si23  1  0.82884927  0.50000000  0.21649248  1
  O  O0  1  0.97630281  0.25537110  0.31435257  1
  O  O1  1  0.47630281  0.74462990  0.68564743  1
  O  O2  1  0.02369719  0.25537110  0.68564743  1
  O  O3  1  0.52369719  0.74462990  0.31435257  1
  O  O4  1  0.02369719  0.74462990  0.68564743  1
  O  O5  1  0.52369719  0.25537110  0.31435257  1
  O  O6  1  0.97630281  0.74462990  0.31435257  1
  O  O7  1  0.47630281  0.25537110  0.68564743  1
  O  O8  1  0.05975575  0.00000000  0.23720630  1
  O  O9  1  0.55975575  0.00000000  0.76279370  1
  O  O10  1  0.94024425  0.00000000  0.76279370  1
  O  O11  1  0.44024425  0.00000000  0.23720630  1
  O  O12  1  0.09569136  0.22928900  0.44143946  1
  O  O13  1  0.59569136  0.77071100  0.55856054  1
  O  O14  1  0.90430864  0.22928900  0.55856054  1
  O  O15  1  0.40430864  0.77071100  0.44143946  1
  O  O16  1  0.90430864  0.77071100  0.55856054  1
  O  O17  1  0.40430864  0.22928900  0.44143946  1
  O  O18  1  0.09569136  0.77071100  0.44143946  1
  O  O19  1  0.59569136  0.22928900  0.55856054  1
  O  O20  1  0.08646752  0.32593106  0.16400245  1
  O  O21  1  0.58646752  0.67406894  0.83599755  1
  O  O22  1  0.91353248  0.32593106  0.83599755  1
  O  O23  1  0.41353248  0.67406894  0.16400245  1
  O  O24  1  0.91353248  0.67406894  0.83599755  1
  O  O25  1  0.41353248  0.32593106  0.16400245  1
  O  O26  1  0.08646752  0.67406894  0.16400245  1
  O  O27  1  0.58646752  0.32593106  0.83599755  1
  O  O28  1  0.15338607  0.32624819  0.68899466  1
  O  O29  1  0.65338607  0.67375181  0.31100534  1
  O  O30  1  0.84661393  0.32624819  0.31100534  1
  O  O31  1  0.34661393  0.67375181  0.68899466  1
  O  O32  1  0.84661393  0.67375181  0.31100534  1
  O  O33  1  0.34661393  0.32624819  0.68899466  1
  O  O34  1  0.15338607  0.67375181  0.68899466  1
  O  O35  1  0.65338607  0.32624819  0.31100534  1
  O  O36  1  0.11324891  0.00000000  0.65660145  1
  O  O37  1  0.61324891  0.00000000  0.34339855  1
  O  O38  1  0.88675109  0.00000000  0.34339855  1
  O  O39  1  0.38675109  0.00000000  0.65660145  1
  O  O40  1  -0.00000000  0.50000000  0.00000000  1
  O  O41  1  0.50000000  0.50000000  0.00000000  1
  O  O42  1  0.12973489  0.50000000  0.93535356  1
  O  O43  1  0.62973489  0.50000000  0.06464644  1
  O  O44  1  0.87026511  0.50000000  0.06464644  1
  O  O45  1  0.37026511  0.50000000  0.93535356  1
  O  O46  1  0.75000000  0.50000000  0.17930345  1
  O  O47  1  0.25000000  0.50000000  0.82069655  1
loop_
_geom_bond_atom_site_label_1
_geom_bond_atom_site_label_2
_geom_bond_distance
_geom_bond_site_symmetry_2
O0 Si0 1.619632 1_655
O0 Si10 1.619973 1_555
O1 Si1 1.619631 1_555
O1 Si11 1.619972 1_555
O2 Si2 1.619632 1_455
O2 Si8 1.619973 1_555
O3 Si3 1.619631 1_555
O3 Si9 1.619972 1_555
O4 Si4 1.619631 1_455
O4 Si14 1.619972 1_555
O5 Si5 1.619632 1_555
O5 Si15 1.619973 1_555
O6 Si6 1.619631 1_655
O6 Si12 1.619972 1_555
O7 Si7 1.619632 1_555
O7 Si13 1.619973 1_555
O8 Si0 1.613940 1_555
O8 Si6 1.613940 1_545
O9 Si1 1.613940 1_545
O9 Si7 1.613940 1_555
O10 Si2 1.613940 1_555
O10 Si4 1.613940 1_545
O11 Si3 1.613940 1_545
O11 Si5 1.613940 1_555
O12 Si0 1.613917 1_555
O12 Si8 1.614850 1_555
O13 Si1 1.613917 1_555
O13 Si9 1.614850 1_555
O14 Si2 1.613917 1_555
O14 Si10 1.614850 1_555
O15 Si3 1.613917 1_555
O15 Si11 1.614850 1_555
O16 Si4 1.613917 1_555
O16 Si12 1.614850 1_555
O17 Si5 1.613917 1_555
O17 Si13 1.614850 1_555
O18 Si6 1.613917 1_555
O18 Si14 1.614850 1_555
O19 Si7 1.613917 1_555
O19 Si15 1.614850 1_555
O20 Si0 1.601997 1_555
O20 Si16 1.613683 1_555
O21 Si1 1.601997 1_555
O21 Si17 1.613683 1_555
O22 Si2 1.601997 1_555
O22 Si18 1.613683 1_555
O23 Si3 1.601997 1_555
O23 Si19 1.613683 1_555
O24 Si4 1.601997 1_555
O24 Si18 1.613683 1_555
O25 Si5 1.601997 1_555
O25 Si19 1.613683 1_555
O26 Si6 1.601997 1_555
O26 Si16 1.613683 1_555
O27 Si7 1.601997 1_555
O27 Si17 1.613683 1_555
O28 Si8 1.599923 1_555
O28 Si21 1.613300 1_555
O29 Si9 1.599923 1_555
O29 Si20 1.613300 1_555
O30 Si10 1.599923 1_555
O30 Si23 1.613300 1_555
O31 Si11 1.599923 1_555
O31 Si22 1.613300 1_555
O32 Si12 1.599923 1_555
O32 Si23 1.613300 1_555
O33 Si13 1.599923 1_555
O33 Si22 1.613300 1_555
O34 Si14 1.599923 1_555
O34 Si21 1.613300 1_555
O35 Si15 1.599923 1_555
O35 Si20 1.613300 1_555
O36 Si8 1.613182 1_555
O36 Si14 1.613182 1_545
O37 Si9 1.613182 1_545
O37 Si15 1.613182 1_555
O38 Si10 1.613182 1_555
O38 Si12 1.613182 1_545
O39 Si13 1.613182 1_555
O39 Si11 1.613182 1_545
O40 Si18 1.604147 1_454
O40 Si16 1.604147 1_555
O41 Si17 1.604147 1_554
O41 Si19 1.604147 1_555
O42 Si16 1.596188 1_556
O42 Si21 1.602347 1_555
O43 Si17 1.596188 1_554
O43 Si20 1.602347 1_555
O44 Si18 1.596188 1_554
O44 Si23 1.602347 1_555
O45 Si19 1.596188 1_556
O45 Si22 1.602347 1_555
O46 Si23 1.598490 1_555
O46 Si20 1.598490 1_555
O47 Si21 1.598490 1_555
O47 Si22 1.598490 1_555
