# generated using pymatgen
data_Eu4Ir
_symmetry_space_group_name_H-M   'P 1'
_cell_length_a   7.71318820
_cell_length_b   7.71318078
_cell_length_c   7.71324037
_cell_angle_alpha   107.52368979
_cell_angle_beta   107.52199313
_cell_angle_gamma   113.44101918
_symmetry_Int_Tables_number   1
_chemical_formula_structural   Eu4Ir
_chemical_formula_sum   'Eu8 Ir2'
_cell_volume   351.97489372
_cell_formula_units_Z   2
loop_
 _symmetry_equiv_pos_site_id
 _symmetry_equiv_pos_as_xyz
  1  'x, y, z'
loop_
 _atom_site_type_symbol
 _atom_site_label
 _atom_site_symmetry_multiplicity
 _atom_site_fract_x
 _atom_site_fract_y
 _atom_site_fract_z
 _atom_site_occupancy
  Eu  Eu0  1  0.30439637  0.24759105  0.44319336  1
  Eu  Eu1  1  0.69559921  0.13879379  0.94321113  1
  Eu  Eu2  1  0.86118211  0.30438702  0.55678374  1
  Eu  Eu3  1  0.30439358  0.86119755  0.05678644  1
  Eu  Eu4  1  0.13881435  0.69561089  0.44321771  1
  Eu  Eu5  1  0.69559725  0.75240364  0.55680601  1
  Eu  Eu6  1  0.24758533  0.30438964  0.94320101  1
  Eu  Eu7  1  0.75241438  0.69560976  0.05680102  1
  Ir  Ir0  1  0.62501282  0.37499799  0.24999580  1
  Ir  Ir1  1  0.37500361  0.62501966  0.75000379  1
loop_
_geom_bond_atom_site_label_1
_geom_bond_atom_site_label_2
_geom_bond_distance
_geom_bond_site_symmetry_2
Eu0 Ir1 2.861064 1_555
Eu0 Ir0 3.235635 1_555
Eu1 Ir0 2.860744 1_556
Eu1 Ir1 3.235415 1_545
Eu2 Ir0 2.860823 1_555
Eu2 Ir1 3.235749 1_655
Eu3 Ir1 2.860765 1_554
Eu3 Ir0 3.235597 1_565
Eu4 Ir1 2.860779 1_555
Eu4 Ir0 3.235605 1_455
Eu5 Ir0 2.861022 1_555
Eu5 Ir1 3.235474 1_555
Eu6 Ir0 2.861055 1_556
Eu6 Ir1 3.235744 1_555
Eu7 Ir1 2.861040 1_554
Eu7 Ir0 3.235602 1_555
