# generated using pymatgen
data_Ni3Sn2
_symmetry_space_group_name_H-M   'P 1'
_cell_length_a   5.15978058
_cell_length_b   7.09907483
_cell_length_c   8.11883105
_cell_angle_alpha   90.00546803
_cell_angle_beta   89.99996156
_cell_angle_gamma   89.99998504
_symmetry_Int_Tables_number   1
_chemical_formula_structural   Ni3Sn2
_chemical_formula_sum   'Ni12 Sn8'
_cell_volume   297.39008805
_cell_formula_units_Z   4
loop_
 _symmetry_equiv_pos_site_id
 _symmetry_equiv_pos_as_xyz
  1  'x, y, z'
loop_
 _atom_site_type_symbol
 _atom_site_label
 _atom_site_symmetry_multiplicity
 _atom_site_fract_x
 _atom_site_fract_y
 _atom_site_fract_z
 _atom_site_occupancy
  Ni  Ni0  1  0.24999531  0.40790161  0.62804737  1
  Ni  Ni1  1  0.75000451  0.59217724  0.37191813  1
  Ni  Ni2  1  0.49599958  0.73558159  0.62356314  1
  Ni  Ni3  1  0.99597997  0.26440167  0.37646823  1
  Ni  Ni4  1  0.50401396  0.76437629  0.12359368  1
  Ni  Ni5  1  0.99600497  0.76437570  0.12359575  1
  Ni  Ni6  1  0.50401113  0.26439903  0.37646788  1
  Ni  Ni7  1  0.00401173  0.73558096  0.62356207  1
  Ni  Ni8  1  0.49597156  0.23558578  0.87637301  1
  Ni  Ni9  1  0.25000263  0.90779256  0.87186769  1
  Ni  Ni10  1  0.00400471  0.23558543  0.87637042  1
  Ni  Ni11  1  0.74999785  0.09213846  0.12815827  1
  Sn  Sn0  1  0.24999936  0.06046460  0.59600250  1
  Sn  Sn1  1  0.25000436  0.59578022  0.35913842  1
  Sn  Sn2  1  0.74999327  0.40430427  0.64086325  1
  Sn  Sn3  1  0.75000439  0.90430296  0.85911284  1
  Sn  Sn4  1  0.24999778  0.09575942  0.14083502  1
  Sn  Sn5  1  0.24999973  0.56047432  0.90395900  1
  Sn  Sn6  1  0.75000256  0.93951520  0.40409532  1
  Sn  Sn7  1  0.74999966  0.43950568  0.09600901  1
loop_
_geom_bond_atom_site_label_1
_geom_bond_atom_site_label_2
_geom_bond_distance
_geom_bond_site_symmetry_2
Ni0 Sn0 2.480140 1_555
Ni0 Sn5 2.488103 1_555
Ni0 Sn1 2.558507 1_555
Ni0 Sn2 2.582104 1_555
Ni0 Sn2 2.582125 1_455
Ni0 Ni3 2.631948 1_455
Ni0 Ni6 2.631957 1_555
Ni0 Ni7 2.650201 1_555
Ni0 Ni2 2.650256 1_555
Ni0 Ni8 2.678141 1_555
Ni0 Ni10 2.678160 1_555
Ni1 Sn6 2.479554 1_555
Ni1 Sn7 2.488390 1_555
Ni1 Sn2 2.558737 1_555
Ni1 Sn1 2.582102 1_655
Ni1 Sn1 2.582103 1_555
Ni1 Ni7 2.632072 1_655
Ni1 Ni2 2.632073 1_555
Ni1 Ni3 2.650788 1_555
Ni1 Ni6 2.650849 1_555
Ni1 Ni4 2.677790 1_555
Ni1 Ni5 2.677798 1_555
Ni2 Ni7 2.538549 1_555
Ni2 Sn3 2.609432 1_555
Ni2 Ni7 2.621231 1_655
Ni2 Sn0 2.642091 1_565
Ni2 Sn6 2.643672 1_555
Ni2 Ni9 2.677545 1_555
Ni2 Sn1 2.684117 1_555
Ni2 Sn2 2.695946 1_555
Ni2 Sn5 2.887795 1_555
Ni3 Ni6 2.538451 1_555
Ni3 Sn4 2.609703 1_655
Ni3 Ni6 2.621329 1_655
Ni3 Sn6 2.642102 1_545
Ni3 Sn0 2.644092 1_655
Ni3 Sn2 2.684168 1_555
Ni3 Sn1 2.696663 1_655
Ni3 Sn7 2.888147 1_555
Ni4 Ni5 2.538566 1_555
Ni4 Sn1 2.609173 1_555
Ni4 Ni5 2.621215 1_455
Ni4 Ni9 2.632784 1_554
Ni4 Sn7 2.641957 1_555
Ni4 Sn5 2.644306 1_554
Ni4 Sn3 2.684949 1_554
Ni4 Sn4 2.696609 1_565
Ni4 Sn6 2.888358 1_555
Ni5 Sn1 2.609133 1_655
Ni5 Ni9 2.632763 1_654
Ni5 Sn7 2.642004 1_555
Ni5 Sn5 2.644264 1_654
Ni5 Sn3 2.684990 1_554
Ni5 Sn4 2.696554 1_665
Ni5 Sn6 2.888376 1_555
Ni6 Sn4 2.609682 1_555
Ni6 Sn6 2.642120 1_545
Ni6 Sn0 2.644063 1_555
Ni6 Sn2 2.684167 1_555
Ni6 Sn1 2.696634 1_555
Ni6 Sn7 2.888171 1_555
Ni7 Sn3 2.609445 1_455
Ni7 Sn0 2.642063 1_565
Ni7 Sn6 2.643685 1_455
Ni7 Ni9 2.677541 1_555
Ni7 Sn1 2.684101 1_555
Ni7 Sn2 2.696005 1_455
Ni7 Sn5 2.887774 1_555
Ni8 Sn2 2.609395 1_555
Ni8 Sn5 2.642035 1_555
Ni8 Sn7 2.644419 1_556
Ni8 Ni9 2.650871 1_545
Ni8 Sn4 2.684523 1_556
Ni8 Sn3 2.696037 1_545
Ni8 Sn0 2.887427 1_555
Ni9 Sn5 2.479391 1_555
Ni9 Sn0 2.488256 1_565
Ni9 Sn4 2.559021 1_566
Ni9 Sn3 2.582077 1_455
Ni9 Sn3 2.582095 1_555
Ni10 Ni8 2.538441 1_555
Ni10 Sn2 2.609355 1_455
Ni10 Ni8 2.621340 1_455
Ni10 Ni11 2.633246 1_456
Ni10 Sn5 2.642097 1_555
Ni10 Sn7 2.644374 1_456
Ni10 Ni9 2.650939 1_545
Ni10 Sn4 2.684587 1_556
Ni10 Sn3 2.695953 1_445
Ni10 Sn0 2.887459 1_555
Ni11 Sn7 2.479786 1_555
Ni11 Sn6 2.488631 1_545
Ni11 Sn3 2.559076 1_544
Ni11 Sn4 2.582070 1_655
Ni11 Sn4 2.582071 1_555
Ni11 Ni8 2.633282 1_554
Ni11 Ni4 2.650721 1_545
Ni11 Ni5 2.650781 1_545
Ni11 Ni6 2.677712 1_555
Ni11 Ni3 2.677713 1_555
Sn0 Sn6 3.133736 1_445
Sn0 Sn6 3.133761 1_545
Sn5 Sn7 3.134444 1_456
Sn5 Sn7 3.134444 1_556
