# generated using pymatgen
data_YTi2CdO6F
_symmetry_space_group_name_H-M   'P 1'
_cell_length_a   7.22564367
_cell_length_b   7.22564367
_cell_length_c   7.22564367
_cell_angle_alpha   121.18506546
_cell_angle_beta   118.32892792
_cell_angle_gamma   90.43907757
_symmetry_Int_Tables_number   1
_chemical_formula_structural   YTi2CdO6F
_chemical_formula_sum   'Y2 Ti4 Cd2 O12 F2'
_cell_volume   267.52156115
_cell_formula_units_Z   2
loop_
 _symmetry_equiv_pos_site_id
 _symmetry_equiv_pos_as_xyz
  1  'x, y, z'
loop_
 _atom_site_type_symbol
 _atom_site_label
 _atom_site_symmetry_multiplicity
 _atom_site_fract_x
 _atom_site_fract_y
 _atom_site_fract_z
 _atom_site_occupancy
  Y  Y0  1  0.50000000  0.00000000  0.50000000  1
  Y  Y1  1  0.00000000  0.00000000  0.00000000  1
  Ti  Ti0  1  0.50000000  0.00000000  0.00000000  1
  Ti  Ti1  1  0.50000000  0.50000000  0.00000000  1
  Ti  Ti2  1  0.50000000  0.50000000  0.50000000  1
  Ti  Ti3  1  0.00000000  0.50000000  0.50000000  1
  Cd  Cd0  1  0.00000000  0.50000000  0.00000000  1
  Cd  Cd1  1  0.00000000  0.00000000  0.50000000  1
  O  O0  1  0.42818700  0.16835200  0.84151500  1
  O  O1  1  0.41540100  0.16540100  0.25000000  1
  O  O2  1  0.42818700  0.58667200  0.25983500  1
  O  O3  1  0.82683700  0.16835200  0.24016500  1
  O  O4  1  0.82683700  0.58667200  0.65848500  1
  O  O5  1  0.82910300  0.57910300  0.25000000  1
  O  O6  1  0.17316300  0.41332800  0.34151500  1
  O  O7  1  0.17089700  0.42089700  0.75000000  1
  O  O8  1  0.17316300  0.83164800  0.75983500  1
  O  O9  1  0.57181300  0.41332800  0.74016500  1
  O  O10  1  0.58459900  0.83459900  0.75000000  1
  O  O11  1  0.57181300  0.83164800  0.15848500  1
  F  F0  1  0.86624700  0.11624700  0.75000000  1
  F  F1  1  0.13375300  0.88375300  0.25000000  1
loop_
_geom_bond_atom_site_label_1
_geom_bond_atom_site_label_2
_geom_bond_distance
_geom_bond_site_symmetry_2
Cd0 F0 2.236217 1_454
Cd0 F1 2.236217 1_555
Cd0 O5 2.484597 1_455
Cd0 O7 2.484597 1_554
Cd0 O9 2.594078 1_454
Cd0 O4 2.594078 1_454
Cd0 O2 2.594078 1_555
Cd0 O6 2.594078 1_555
Cd1 F1 2.236217 1_545
Cd1 F0 2.236217 1_455
Cd1 O5 2.484597 1_445
Cd1 O7 2.484597 1_555
Cd1 O11 2.594078 1_445
Cd1 O0 2.594078 1_555
Cd1 O8 2.594078 1_545
Cd1 O3 2.594078 1_455
O0 Ti1 1.974407 1_556
O0 Ti0 1.987145 1_556
O0 Y0 2.440207 1_555
O1 Ti2 1.971936 1_555
O1 Ti0 1.971936 1_555
O1 Y0 2.502818 1_555
O1 Y1 2.502818 1_555
O2 Ti1 1.974407 1_555
O2 Ti2 1.987145 1_555
O2 Y0 2.440207 1_565
O3 Ti3 1.974407 1_655
O3 Ti0 1.987145 1_555
O3 Y1 2.440207 1_655
O4 Ti3 1.974407 1_655
O4 Ti2 1.987145 1_555
O4 Y1 2.440207 1_666
O5 Ti3 2.019333 1_655
O5 Ti1 2.019333 1_555
O6 Ti3 1.974407 1_555
O6 Ti2 1.987145 1_555
O6 Y1 2.440207 1_555
O7 Ti3 2.019333 1_555
O7 Ti1 2.019333 1_556
O8 Ti3 1.974407 1_555
O8 Ti0 1.987145 1_566
O8 Y1 2.440207 1_566
O9 Ti1 1.974407 1_556
O9 Ti2 1.987145 1_555
O9 Y0 2.440207 1_555
O10 Ti0 1.971936 1_566
O10 Ti2 1.971936 1_555
O10 Y0 2.502818 1_565
O10 Y1 2.502818 1_666
O11 Ti1 1.974407 1_555
O11 Ti0 1.987145 1_565
O11 Y0 2.440207 1_565
F0 Y1 2.197630 1_656
F0 Y0 2.197630 1_555
F1 Y1 2.197630 1_565
F1 Y0 2.197630 1_565
