# generated using pymatgen
data_Co21(B3W)2
_symmetry_space_group_name_H-M   'P 1'
_cell_length_a   7.35678863
_cell_length_b   7.35680961
_cell_length_c   7.35677761
_cell_angle_alpha   59.99959422
_cell_angle_beta   59.99966577
_cell_angle_gamma   59.99996520
_symmetry_Int_Tables_number   1
_chemical_formula_structural   Co21(B3W)2
_chemical_formula_sum   'Co21 B6 W2'
_cell_volume   281.54504127
_cell_formula_units_Z   1
loop_
 _symmetry_equiv_pos_site_id
 _symmetry_equiv_pos_as_xyz
  1  'x, y, z'
loop_
 _atom_site_type_symbol
 _atom_site_label
 _atom_site_symmetry_multiplicity
 _atom_site_fract_x
 _atom_site_fract_y
 _atom_site_fract_z
 _atom_site_occupancy
  Co  Co0  1  0.99999930  0.34252423  0.65747892  1
  Co  Co1  1  0.34254899  0.65746788  -0.00000574  1
  Co  Co2  1  0.34253850  0.99999400  -0.00000536  1
  Co  Co3  1  0.65746904  0.34254213  -0.00000618  1
  Co  Co4  1  0.34253019  0.00000209  0.65747233  1
  Co  Co5  1  0.38230795  0.38230581  0.85307987  1
  Co  Co6  1  0.61769427  0.61769683  0.61769454  1
  Co  Co7  1  -0.00000113  0.00000304  0.65747674  1
  Co  Co8  1  0.14691512  0.61769064  0.61769753  1
  Co  Co9  1  0.99999571  0.34253956  -0.00000720  1
  Co  Co10  1  0.00000260  0.65746386  0.34253401  1
  Co  Co11  1  0.65746351  0.00000354  0.34252961  1
  Co  Co12  1  0.61769381  0.14691006  0.61769757  1
  Co  Co13  1  -0.00000591  -0.00000454  0.00001039  1
  Co  Co14  1  -0.00000207  0.00000727  0.34252857  1
  Co  Co15  1  0.99999405  0.65747435  -0.00000572  1
  Co  Co16  1  0.65747083  0.99999706  -0.00000392  1
  Co  Co17  1  0.38230864  0.85308783  0.38229887  1
  Co  Co18  1  0.38230915  0.38230555  0.38230060  1
  Co  Co19  1  0.85308252  0.38230859  0.38230118  1
  Co  Co20  1  0.61769408  0.61769793  0.14691378  1
  B  B0  1  0.72490867  0.27508595  0.27509328  1
  B  B1  1  0.72491336  0.72490948  0.27509077  1
  B  B2  1  0.27508997  0.72490049  0.72491671  1
  B  B3  1  0.72490210  0.27509013  0.72491449  1
  B  B4  1  0.27509146  0.27509147  0.72491300  1
  B  B5  1  0.27508619  0.72490629  0.27509347  1
  W  W0  1  0.24999836  0.25000057  0.25000085  1
  W  W1  1  0.75000173  0.74999990  0.74999706  1
loop_
_geom_bond_atom_site_label_1
_geom_bond_atom_site_label_2
_geom_bond_distance
_geom_bond_site_symmetry_2
Co0 Co13 2.519908 1_656
Co1 Co13 2.520006 1_565
Co5 W0 2.384205 1_556
Co6 W1 2.384180 1_555
Co8 W1 2.384172 1_455
Co10 Co13 2.519889 1_565
Co11 Co13 2.519869 1_655
Co12 W1 2.384158 1_545
Co13 Co14 2.519888 1_555
Co13 Co7 2.519898 1_554
Co13 Co16 2.519918 1_445
Co13 Co15 2.519922 1_445
Co13 Co4 2.519958 1_554
Co13 Co2 2.519964 1_545
Co13 Co3 2.519966 1_455
Co13 Co9 2.519973 1_455
Co17 W0 2.384173 1_565
Co18 W0 2.384195 1_555
Co19 W0 2.384187 1_655
Co20 W1 2.384180 1_554
B0 Co18 2.059845 1_555
B0 Co12 2.059863 1_555
B0 Co19 2.059883 1_555
B0 Co20 2.059924 1_555
B0 Co14 2.083666 1_655
B0 Co11 2.083689 1_555
B0 Co3 2.083726 1_555
B0 Co9 2.083733 1_555
B1 Co19 2.059857 1_555
B1 Co6 2.059860 1_555
B1 Co17 2.059878 1_555
B1 Co20 2.059904 1_555
B1 Co15 2.083694 1_555
B1 Co10 2.083702 1_655
B1 Co11 2.083712 1_565
B1 Co16 2.083717 1_555
B2 Co5 2.059818 1_555
B2 Co6 2.059875 1_555
B2 Co8 2.059880 1_555
B2 Co17 2.059947 1_555
B2 Co15 2.083663 1_456
B2 Co1 2.083719 1_556
B2 Co7 2.083747 1_565
B2 Co4 2.083782 1_565
B3 Co5 2.059811 1_555
B3 Co12 2.059890 1_555
B3 Co6 2.059894 1_555
B3 Co19 2.059918 1_555
B3 Co16 2.083672 1_546
B3 Co3 2.083702 1_556
B3 Co7 2.083712 1_655
B3 Co0 2.083743 1_555
B4 Co5 2.059841 1_555
B4 Co8 2.059849 1_555
B4 Co12 2.059865 1_555
B4 Co18 2.059913 1_555
B4 Co9 2.083683 1_456
B4 Co2 2.083693 1_546
B4 Co0 2.083717 1_455
B4 Co4 2.083717 1_555
B5 Co18 2.059857 1_555
B5 Co8 2.059861 1_555
B5 Co20 2.059896 1_555
B5 Co17 2.059915 1_555
B5 Co10 2.083670 1_555
B5 Co1 2.083703 1_555
B5 Co2 2.083731 1_555
B5 Co14 2.083746 1_565
