# generated using pymatgen
data_La16Mg2Ga14O47
_symmetry_space_group_name_H-M   'P 1'
_cell_length_a   5.53601100
_cell_length_b   9.68122116
_cell_length_c   18.53673074
_cell_angle_alpha   100.36556893
_cell_angle_beta   90.69256806
_cell_angle_gamma   90.57890830
_symmetry_Int_Tables_number   1
_chemical_formula_structural   La16Mg2Ga14O47
_chemical_formula_sum   'La16 Mg2 Ga14 O47'
_cell_volume   977.12111982
_cell_formula_units_Z   1
loop_
 _symmetry_equiv_pos_site_id
 _symmetry_equiv_pos_as_xyz
  1  'x, y, z'
loop_
 _atom_site_type_symbol
 _atom_site_label
 _atom_site_symmetry_multiplicity
 _atom_site_fract_x
 _atom_site_fract_y
 _atom_site_fract_z
 _atom_site_occupancy
  La  La0  1  0.48932900  0.17436200  0.06276600  1
  La  La1  1  0.99506700  0.43688400  0.31118700  1
  La  La2  1  0.01688100  0.69661200  0.06279600  1
  La  La3  1  0.50026500  0.68785500  0.56336800  1
  La  La4  1  0.49797500  0.94039000  0.31299200  1
  La  La5  1  0.48784500  0.57004700  0.19502200  1
  La  La6  1  0.00298600  0.93612800  0.81196800  1
  La  La7  1  0.00022000  0.18738100  0.56260600  1
  La  La8  1  0.99745200  0.06614500  0.18839900  1
  La  La9  1  0.00138800  0.81282800  0.43717300  1
  La  La10  1  0.49956800  0.43748100  0.81018000  1
  La  La11  1  0.50078700  0.06279400  0.68844000  1
  La  La12  1  0.49849800  0.31288600  0.43715100  1
  La  La13  1  0.99773100  0.31126700  0.93636400  1
  La  La14  1  0.99999400  0.56304800  0.68782700  1
  La  La15  1  0.50192500  0.80892700  0.93771700  1
  Mg  Mg0  1  0.02221100  0.36859300  0.12783300  1
  Mg  Mg1  1  0.48192100  0.50339200  0.99349900  1
  Ga  Ga0  1  0.99602500  0.00249200  0.99847400  1
  Ga  Ga1  1  0.49865500  0.62558400  0.37693200  1
  Ga  Ga2  1  0.50720600  0.87280900  0.12547200  1
  Ga  Ga3  1  0.00000200  0.87518900  0.62474600  1
  Ga  Ga4  1  0.00024900  0.12568900  0.37526600  1
  Ga  Ga5  1  0.99213500  0.75084700  0.24986100  1
  Ga  Ga6  1  0.50360200  0.12566800  0.87696300  1
  Ga  Ga7  1  0.50043200  0.37468200  0.62444200  1
  Ga  Ga8  1  0.50029600  0.00047500  0.50045100  1
  Ga  Ga9  1  0.50236500  0.24830600  0.24873100  1
  Ga  Ga10  1  0.99976900  0.62320600  0.87555300  1
  Ga  Ga11  1  0.00011400  0.24994800  0.75005900  1
  Ga  Ga12  1  0.99934700  0.50001900  0.50018600  1
  Ga  Ga13  1  0.49928400  0.75074600  0.75018500  1
  O  O0  1  0.77338300  0.27999000  0.18506100  1
  O  O1  1  0.96480600  0.54944000  0.20167200  1
  O  O2  1  0.98693300  0.20532100  0.04254800  1
  O  O3  1  0.21674900  0.95510100  0.07993000  1
  O  O4  1  0.21360000  0.69903500  0.32675100  1
  O  O5  1  0.21571500  0.47839200  0.06555000  1
  O  O6  1  0.28424000  0.52803800  0.43805900  1
  O  O7  1  0.28619500  0.77808100  0.18919000  1
  O  O8  1  0.28807800  0.28715100  0.17319300  1
  O  O9  1  0.49688000  0.79507000  0.45505000  1
  O  O10  1  0.50428200  0.04182100  0.20496200  1
  O  O11  1  0.49592500  0.45637700  0.29639700  1
  O  O12  1  0.51565000  0.70332200  0.04957600  1
  O  O13  1  0.71436100  0.95491800  0.58004600  1
  O  O14  1  0.71699000  0.20667000  0.32917500  1
  O  O15  1  0.70886600  0.72449700  0.31346300  1
  O  O16  1  0.71795700  0.97015600  0.06223400  1
  O  O17  1  0.78461500  0.77789800  0.68759300  1
  O  O18  1  0.78447200  0.02717900  0.43728600  1
  O  O19  1  0.79125200  0.80045800  0.17091600  1
  O  O20  1  0.78623700  0.54477300  0.41940700  1
  O  O21  1  0.00101100  0.04564900  0.70484400  1
  O  O22  1  0.99899300  0.29497900  0.45505700  1
  O  O23  1  0.99840500  0.70548600  0.54449600  1
  O  O24  1  0.00031000  0.95568600  0.29587100  1
  O  O25  1  0.21482100  0.45517300  0.57993900  1
  O  O26  1  0.22188000  0.20687900  0.83051600  1
  O  O27  1  0.21398900  0.97209600  0.56189100  1
  O  O28  1  0.21598300  0.22244900  0.31335900  1
  O  O29  1  0.28490500  0.27796500  0.68746000  1
  O  O30  1  0.28684400  0.02725300  0.93811100  1
  O  O31  1  0.28495700  0.79567100  0.66930700  1
  O  O32  1  0.28453000  0.04478000  0.42044400  1
  O  O33  1  0.50075500  0.54556700  0.70389600  1
  O  O34  1  0.51891100  0.29212800  0.96077900  1
  O  O35  1  0.49911000  0.20524400  0.54452300  1
  O  O36  1  0.49887900  0.95497500  0.79477500  1
  O  O37  1  0.71267100  0.70206700  0.83061700  1
  O  O38  1  0.71469800  0.47242700  0.56206200  1
  O  O39  1  0.71743600  0.22216100  0.81311500  1
  O  O40  1  0.80145900  0.52831000  0.94301300  1
  O  O41  1  0.78372000  0.29367400  0.66943900  1
  O  O42  1  0.78333800  0.03743100  0.91762400  1
  O  O43  1  0.00360500  0.79741600  0.95438700  1
  O  O44  1  0.99312800  0.45380900  0.79390200  1
  O  O45  1  0.21083700  0.72231600  0.80963000  1
  O  O46  1  0.28961900  0.55279100  0.91402400  1
loop_
_geom_bond_atom_site_label_1
_geom_bond_atom_site_label_2
_geom_bond_distance
_geom_bond_site_symmetry_2
La0 O16 2.356755 1_545
La0 O34 2.383285 1_554
La0 O8 2.428789 1_555
La0 O3 2.659729 1_545
La0 O30 2.710180 1_554
La0 O0 2.775740 1_555
La0 O2 2.804921 1_555
La0 O2 2.828042 1_455
La1 O20 2.403785 1_555
La1 O28 2.426370 1_655
La1 O1 2.475495 1_555
La1 O4 2.766592 1_655
La1 O14 2.767470 1_555
La1 O11 2.785175 1_555
La1 O11 2.797386 1_655
La1 O0 2.809696 1_555
La1 O6 2.829497 1_655
La2 O43 2.387401 1_554
La2 O5 2.400401 1_555
La2 O19 2.438964 1_455
La2 O3 2.690193 1_555
La2 O7 2.749741 1_555
La2 O40 2.757176 1_454
La2 O12 2.776132 1_555
La2 O12 2.785109 1_455
La3 O31 2.389709 1_555
La3 O38 2.406680 1_555
La3 O9 2.420477 1_555
La3 O17 2.775379 1_555
La3 O23 2.791374 1_555
La3 O6 2.796742 1_555
La3 O13 2.797630 1_555
La3 O25 2.802619 1_555
La3 O23 2.806787 1_455
La4 O10 2.384161 1_565
La4 O32 2.396157 1_565
La4 O15 2.405681 1_555
La4 O4 2.855356 1_555
La5 O7 2.331319 1_555
La5 O11 2.342519 1_555
La5 O1 2.653047 1_555
La5 O15 2.696282 1_555
La5 O5 2.817112 1_555
La5 O19 2.880609 1_555
La5 O8 2.901183 1_555
La5 O1 2.906030 1_455
La5 O4 2.976164 1_555
La5 O12 3.196129 1_555
La5 O0 3.213793 1_555
La6 O45 2.372278 1_555
La6 O42 2.380480 1_465
La6 O21 2.413471 1_565
La6 O36 2.775486 1_555
La6 O17 2.783468 1_455
La6 O30 2.802871 1_565
La6 O36 2.816526 1_455
La6 O26 2.838801 1_565
La6 O37 2.838841 1_455
La7 O41 2.401279 1_455
La7 O27 2.405190 1_545
La7 O22 2.409718 1_455
La7 O29 2.786180 1_555
La7 O35 2.793515 1_555
La7 O18 2.797750 1_455
La7 O35 2.801116 1_455
La7 O25 2.804420 1_555
La7 O13 2.806413 1_445
La8 O24 2.424627 1_645
La8 O0 2.434079 1_555
La8 O3 2.445379 1_645
La8 O8 2.721100 1_655
La8 O10 2.763507 1_555
La8 O19 2.766937 1_545
La8 O28 2.784386 1_655
La8 O16 2.797949 1_545
La8 O10 2.835642 1_655
La9 O23 2.404664 1_455
La9 O18 2.407751 1_465
La9 O4 2.460955 1_555
La9 O9 2.769791 1_555
La9 O27 2.778887 1_555
La9 O32 2.790516 1_565
La9 O15 2.790875 1_455
La9 O20 2.807522 1_455
La9 O9 2.823682 1_455
La10 O46 2.368434 1_555
La10 O33 2.391354 1_555
La10 O39 2.427573 1_555
La10 O29 2.757779 1_555
La11 O36 2.390731 1_545
La11 O29 2.414837 1_555
La11 O13 2.419314 1_545
La11 O39 2.787908 1_555
La11 O21 2.792101 1_655
La11 O41 2.792746 1_555
La11 O21 2.793604 1_555
La11 O31 2.799728 1_545
La11 O27 2.816951 1_545
La12 O6 2.404913 1_555
La12 O35 2.407009 1_555
La12 O14 2.422721 1_555
La12 O28 2.764220 1_555
La12 O38 2.790723 1_555
La12 O22 2.796448 1_455
La12 O22 2.797398 1_555
La12 O32 2.806397 1_555
La12 O20 2.809185 1_555
La13 O40 2.359493 1_555
La13 O2 2.378641 1_556
La13 O26 2.404479 1_655
La13 O34 2.704607 1_555
La13 O39 2.747649 1_555
La13 O34 2.928017 1_655
La14 O44 2.394884 1_555
La14 O17 2.408604 1_555
La14 O25 2.415709 1_655
La14 O45 2.735842 1_655
La14 O33 2.790073 1_555
La14 O33 2.794677 1_655
La14 O38 2.801074 1_555
La14 O31 2.810321 1_655
La14 O41 2.820965 1_555
La15 O37 2.390414 1_555
La15 O30 2.435339 1_565
La15 O12 2.472059 1_556
La15 O46 2.694432 1_555
La15 O42 2.774978 1_565
La15 O43 2.783010 1_555
La15 O16 2.791643 1_556
La15 O43 2.796289 1_655
La15 O45 2.846234 1_555
Mg0 O8 1.930564 1_555
Mg0 O5 2.014682 1_555
Mg0 O0 2.024249 1_455
Mg0 O2 2.030513 1_455
Mg0 O1 2.049193 1_455
Mg1 O46 1.938636 1_555
Mg1 O12 2.031204 1_556
Mg1 O34 2.039139 1_555
Mg1 O5 2.042285 1_556
Mg1 O40 2.043497 1_555
Ga0 O42 1.973493 1_555
Ga0 O2 1.987849 1_556
Ga0 O43 2.007492 1_645
Ga0 O16 2.007984 1_546
Ga0 O30 2.008426 1_655
Ga0 O3 2.049272 1_646
Ga1 O9 1.983665 1_555
Ga1 O6 1.994902 1_555
Ga1 O20 1.995786 1_555
Ga1 O11 2.007796 1_555
Ga1 O15 2.017780 1_555
Ga1 O4 2.021492 1_555
Ga2 O12 1.961184 1_555
Ga2 O19 1.968629 1_555
Ga2 O10 1.995549 1_565
Ga2 O16 2.007967 1_555
Ga2 O7 2.033506 1_555
Ga2 O3 2.041582 1_555
Ga3 O31 1.996337 1_555
Ga3 O13 2.001510 1_455
Ga3 O23 2.008005 1_455
Ga3 O27 2.011298 1_555
Ga3 O21 2.011410 1_565
Ga3 O17 2.017889 1_455
Ga4 O22 2.000485 1_455
Ga4 O24 2.000781 1_545
Ga4 O28 2.004524 1_555
Ga4 O32 2.005188 1_555
Ga4 O14 2.009258 1_455
Ga4 O18 2.015662 1_455
Ga5 O19 1.957880 1_555
Ga5 O1 1.996693 1_555
Ga5 O4 2.003414 1_655
Ga5 O24 2.012639 1_655
Ga5 O15 2.014717 1_555
Ga5 O7 2.031440 1_655
Ga6 O42 1.981481 1_555
Ga6 O26 2.006922 1_555
Ga6 O30 2.007714 1_555
Ga6 O39 2.020932 1_555
Ga6 O34 2.027606 1_555
Ga6 O36 2.035860 1_545
Ga7 O41 1.999731 1_555
Ga7 O35 2.002629 1_555
Ga7 O25 2.003116 1_555
Ga7 O33 2.007288 1_555
Ga7 O38 2.010921 1_555
Ga7 O29 2.017338 1_555
Ga8 O13 1.994559 1_545
Ga8 O32 2.001675 1_555
Ga8 O35 2.003749 1_555
Ga8 O27 2.008041 1_545
Ga8 O18 2.014444 1_555
Ga8 O9 2.014859 1_545
Ga9 O8 1.915127 1_555
Ga9 O0 1.975323 1_555
Ga9 O14 1.995231 1_555
Ga9 O10 2.017790 1_555
Ga9 O28 2.038921 1_555
Ga9 O11 2.049738 1_555
Ga10 O46 1.928065 1_655
Ga10 O37 2.006043 1_555
Ga10 O40 2.009785 1_555
Ga10 O44 2.021356 1_555
Ga10 O43 2.022880 1_655
Ga10 O45 2.052574 1_655
Ga11 O44 1.995565 1_455
Ga11 O21 2.004546 1_555
Ga11 O39 2.009076 1_455
Ga11 O41 2.010536 1_455
Ga11 O29 2.013601 1_555
Ga11 O26 2.023676 1_555
Ga12 O25 1.998946 1_655
Ga12 O38 2.003888 1_555
Ga12 O20 2.005701 1_555
Ga12 O6 2.008727 1_655
Ga12 O22 2.010597 1_555
Ga12 O23 2.010929 1_555
Ga13 O45 1.995667 1_555
Ga13 O36 2.001125 1_555
Ga13 O31 2.011640 1_555
Ga13 O17 2.013969 1_555
Ga13 O37 2.015450 1_555
Ga13 O33 2.017222 1_555
