# generated using pymatgen
data_K2ZnCl4
_symmetry_space_group_name_H-M   'P 1'
_cell_length_a   14.63476337
_cell_length_b   14.63476337
_cell_length_c   27.29891720
_cell_angle_alpha   89.95402205
_cell_angle_beta   89.95402205
_cell_angle_gamma   119.08090635
_symmetry_Int_Tables_number   1
_chemical_formula_structural   K2ZnCl4
_chemical_formula_sum   'K48 Zn24 Cl96'
_cell_volume   5109.69577950
_cell_formula_units_Z   24
loop_
 _symmetry_equiv_pos_site_id
 _symmetry_equiv_pos_as_xyz
  1  'x, y, z'
loop_
 _atom_site_type_symbol
 _atom_site_label
 _atom_site_symmetry_multiplicity
 _atom_site_fract_x
 _atom_site_fract_y
 _atom_site_fract_z
 _atom_site_occupancy
  K  K0  1  0.89334000  0.33036100  0.33024200  1
  K  K1  1  0.39458200  0.83114300  0.33438600  1
  K  K2  1  0.86581900  0.93145600  0.00074400  1
  K  K3  1  0.34428000  0.91206700  0.16485100  1
  K  K4  1  0.03393100  0.19441000  0.20937500  1
  K  K5  1  0.43452700  0.87172700  0.99854700  1
  K  K6  1  0.33660000  0.39929700  0.66771100  1
  K  K7  1  0.43599500  0.37770500  0.50226800  1
  K  K8  1  0.55514400  0.21180100  0.62028000  1
  K  K9  1  0.91206700  0.34428000  0.66485100  1
  K  K10  1  0.83897200  0.89901000  0.33475100  1
  K  K11  1  0.87172700  0.43452700  0.49854700  1
  K  K12  1  0.05564100  0.73445200  0.61943100  1
  K  K13  1  0.39929700  0.33660000  0.16771100  1
  K  K14  1  0.57439900  0.74512100  0.54334900  1
  K  K15  1  0.83114300  0.39458200  0.83438600  1
  K  K16  1  0.36935600  0.93188700  0.50041200  1
  K  K17  1  0.33036100  0.89334000  0.83024200  1
  K  K18  1  0.74512100  0.57439900  0.04334900  1
  K  K19  1  0.22160700  0.54134400  0.45749500  1
  K  K20  1  0.05007500  0.21355400  0.54273300  1
  K  K21  1  0.21927300  0.06356900  0.38077400  1
  K  K22  1  0.52165600  0.19160100  0.29120600  1
  K  K23  1  0.70194700  0.52557200  0.71030900  1
  K  K24  1  0.82844800  0.89249400  0.66994100  1
  K  K25  1  0.06356900  0.21927300  0.88077400  1
  K  K26  1  0.52557200  0.70194700  0.21030900  1
  K  K27  1  0.74056400  0.07759000  0.45631600  1
  K  K28  1  0.19160100  0.52165600  0.79120600  1
  K  K29  1  0.73445200  0.05564100  0.11943100  1
  K  K30  1  0.54134400  0.22160700  0.95749500  1
  K  K31  1  0.82977700  0.39520500  0.16831600  1
  K  K32  1  0.93145600  0.86581900  0.50074400  1
  K  K33  1  0.07759000  0.74056400  0.95631600  1
  K  K34  1  0.33843400  0.40820900  0.33370900  1
  K  K35  1  0.72002800  0.54586100  0.38013500  1
  K  K36  1  0.89901000  0.83897200  0.83475100  1
  K  K37  1  0.21180100  0.55514400  0.12028000  1
  K  K38  1  0.19441000  0.03393100  0.70937500  1
  K  K39  1  0.89249400  0.82844800  0.16994100  1
  K  K40  1  0.37770500  0.43599500  0.00226800  1
  K  K41  1  0.21355400  0.05007500  0.04273300  1
  K  K42  1  0.40820900  0.33843400  0.83370900  1
  K  K43  1  0.03671100  0.70254800  0.28978600  1
  K  K44  1  0.70254800  0.03671100  0.78978600  1
  K  K45  1  0.39520500  0.82977700  0.66831600  1
  K  K46  1  0.93188700  0.36935600  0.00041200  1
  K  K47  1  0.54586100  0.72002800  0.88013500  1
  Zn  Zn0  1  0.20511500  0.04009500  0.24054700  1
  Zn  Zn1  1  0.70578900  0.03523000  0.26038100  1
  Zn  Zn2  1  0.05893400  0.72341000  0.09656100  1
  Zn  Zn3  1  0.70331100  0.53712400  0.24178300  1
  Zn  Zn4  1  0.71342300  0.05014400  0.92837500  1
  Zn  Zn5  1  0.05027200  0.21306200  0.07123500  1
  Zn  Zn6  1  0.22446600  0.05575700  0.90393100  1
  Zn  Zn7  1  0.73116400  0.56482900  0.90545300  1
  Zn  Zn8  1  0.04009500  0.20511500  0.74054700  1
  Zn  Zn9  1  0.53855900  0.21375900  0.42886500  1
  Zn  Zn10  1  0.05575700  0.22446600  0.40393100  1
  Zn  Zn11  1  0.21306200  0.05027200  0.57123500  1
  Zn  Zn12  1  0.56482900  0.73116400  0.40545300  1
  Zn  Zn13  1  0.20023900  0.53773200  0.25834000  1
  Zn  Zn14  1  0.05014400  0.71342300  0.42837500  1
  Zn  Zn15  1  0.72341000  0.05893400  0.59656100  1
  Zn  Zn16  1  0.21375900  0.53855900  0.92886500  1
  Zn  Zn17  1  0.53712400  0.70331100  0.74178300  1
  Zn  Zn18  1  0.54217000  0.71669000  0.07343000  1
  Zn  Zn19  1  0.71669000  0.54217000  0.57343000  1
  Zn  Zn20  1  0.53773200  0.20023900  0.75834000  1
  Zn  Zn21  1  0.22819400  0.56106200  0.59475300  1
  Zn  Zn22  1  0.56106200  0.22819400  0.09475300  1
  Zn  Zn23  1  0.03523000  0.70578900  0.76038100  1
  Cl  Cl0  1  0.99015200  0.53534900  0.74814200  1
  Cl  Cl1  1  0.82933700  0.01612900  0.88653400  1
  Cl  Cl2  1  0.98165900  0.31211500  0.44263600  1
  Cl  Cl3  1  0.52490100  0.34869900  0.05773600  1
  Cl  Cl4  1  0.18665400  0.99303700  0.49283400  1
  Cl  Cl5  1  0.31859200  0.00308700  0.61346900  1
  Cl  Cl6  1  0.31211500  0.98165900  0.94263600  1
  Cl  Cl7  1  0.44371100  0.06786100  0.06382000  1
  Cl  Cl8  1  0.76044300  0.56918100  0.82423400  1
  Cl  Cl9  1  0.03027400  0.49413300  0.24411600  1
  Cl  Cl10  1  0.18831100  0.48900200  0.00826600  1
  Cl  Cl11  1  0.30668300  0.20063800  0.27782900  1
  Cl  Cl12  1  0.24392600  0.56423300  0.33857800  1
  Cl  Cl13  1  0.84387000  0.52327000  0.94628500  1
  Cl  Cl14  1  0.21940300  0.28652100  0.43702300  1
  Cl  Cl15  1  0.44077200  0.55920800  0.11295500  1
  Cl  Cl16  1  0.93149900  0.25370500  0.77954800  1
  Cl  Cl17  1  0.75564400  0.06497800  0.33995500  1
  Cl  Cl18  1  0.42421200  0.24228500  0.71946700  1
  Cl  Cl19  1  0.22127100  0.75585800  0.42246200  1
  Cl  Cl20  1  0.06786100  0.44371100  0.56382000  1
  Cl  Cl21  1  0.05358500  0.43920700  0.89119100  1
  Cl  Cl22  1  0.95893200  0.55081500  0.07821300  1
  Cl  Cl23  1  0.20063800  0.30668300  0.77782900  1
  Cl  Cl24  1  0.81323800  0.19293500  0.22174100  1
  Cl  Cl25  1  0.22226100  0.77397800  0.06499200  1
  Cl  Cl26  1  0.56918100  0.76044300  0.32423400  1
  Cl  Cl27  1  0.41705200  0.73769500  0.78008100  1
  Cl  Cl28  1  0.50562100  0.83500300  0.11215600  1
  Cl  Cl29  1  0.03408900  0.98951200  0.25590700  1
  Cl  Cl30  1  0.99137000  0.68650200  0.50676500  1
  Cl  Cl31  1  0.56373700  0.45022700  0.92790800  1
  Cl  Cl32  1  0.52327000  0.84387000  0.44628500  1
  Cl  Cl33  1  0.24413900  0.55972500  0.67695300  1
  Cl  Cl34  1  0.05055100  0.95704300  0.60939100  1
  Cl  Cl35  1  0.00308700  0.31859200  0.11346900  1
  Cl  Cl36  1  0.94937200  0.55517900  0.38884200  1
  Cl  Cl37  1  0.76624000  0.07376000  0.67638300  1
  Cl  Cl38  1  0.05459400  0.95930500  0.92812100  1
  Cl  Cl39  1  0.26976600  0.71106800  0.91561600  1
  Cl  Cl40  1  0.99160200  0.81311900  0.05289600  1
  Cl  Cl41  1  0.73769500  0.41705200  0.28008100  1
  Cl  Cl42  1  0.55517900  0.94937200  0.88884200  1
  Cl  Cl43  1  0.75585800  0.22127100  0.92246200  1
  Cl  Cl44  1  0.01612900  0.82933700  0.38653400  1
  Cl  Cl45  1  0.68650200  0.99137000  0.00676500  1
  Cl  Cl46  1  0.99303700  0.18665400  0.99283400  1
  Cl  Cl47  1  0.32505900  0.49467600  0.88860900  1
  Cl  Cl48  1  0.55920800  0.44077200  0.61295500  1
  Cl  Cl49  1  0.24228500  0.42421200  0.21946700  1
  Cl  Cl50  1  0.26560400  0.22317200  0.58000200  1
  Cl  Cl51  1  0.28652100  0.21940300  0.93702300  1
  Cl  Cl52  1  0.56250600  0.74930600  0.66169700  1
  Cl  Cl53  1  0.25972200  0.72350900  0.57031800  1
  Cl  Cl54  1  0.83500300  0.50562100  0.61215600  1
  Cl  Cl55  1  0.22317200  0.26560400  0.08000200  1
  Cl  Cl56  1  0.72614200  0.76146000  0.43150100  1
  Cl  Cl57  1  0.76146000  0.72614200  0.93150100  1
  Cl  Cl58  1  0.06497800  0.75564400  0.83995500  1
  Cl  Cl59  1  0.48900200  0.18831100  0.50826600  1
  Cl  Cl60  1  0.71495700  0.76820300  0.08405600  1
  Cl  Cl61  1  0.81278800  0.69333700  0.28025300  1
  Cl  Cl62  1  0.92066400  0.74579500  0.72035000  1
  Cl  Cl63  1  0.06749100  0.24835800  0.66034100  1
  Cl  Cl64  1  0.49098000  0.68847900  0.99406300  1
  Cl  Cl65  1  0.45022700  0.56373700  0.42790800  1
  Cl  Cl66  1  0.53422600  0.49703200  0.25472200  1
  Cl  Cl67  1  0.95704300  0.05055100  0.10939100  1
  Cl  Cl68  1  0.24835800  0.06749100  0.16034100  1
  Cl  Cl69  1  0.53534900  0.99015200  0.24814200  1
  Cl  Cl70  1  0.30499300  0.69804800  0.22095500  1
  Cl  Cl71  1  0.49413300  0.03027400  0.74411600  1
  Cl  Cl72  1  0.74579500  0.92066400  0.22035000  1
  Cl  Cl73  1  0.72350900  0.25972200  0.07031800  1
  Cl  Cl74  1  0.81311900  0.99160200  0.55289600  1
  Cl  Cl75  1  0.19293500  0.81323800  0.72174100  1
  Cl  Cl76  1  0.69804800  0.30499300  0.72095500  1
  Cl  Cl77  1  0.77397800  0.22226100  0.56499200  1
  Cl  Cl78  1  0.06987900  0.25677000  0.32326600  1
  Cl  Cl79  1  0.43920700  0.05358500  0.39119100  1
  Cl  Cl80  1  0.49703200  0.53422600  0.75472200  1
  Cl  Cl81  1  0.07376000  0.76624000  0.17638300  1
  Cl  Cl82  1  0.25370500  0.93149900  0.27954800  1
  Cl  Cl83  1  0.25677000  0.06987900  0.82326600  1
  Cl  Cl84  1  0.68847900  0.49098000  0.49406300  1
  Cl  Cl85  1  0.74930600  0.56250600  0.16169700  1
  Cl  Cl86  1  0.55972500  0.24413900  0.17695300  1
  Cl  Cl87  1  0.69333700  0.81278800  0.78025300  1
  Cl  Cl88  1  0.56423300  0.24392600  0.83857800  1
  Cl  Cl89  1  0.76820300  0.71495700  0.58405600  1
  Cl  Cl90  1  0.55081500  0.95893200  0.57821300  1
  Cl  Cl91  1  0.98951200  0.03408900  0.75590700  1
  Cl  Cl92  1  0.49467600  0.32505900  0.38860900  1
  Cl  Cl93  1  0.71106800  0.26976600  0.41561600  1
  Cl  Cl94  1  0.34869900  0.52490100  0.55773600  1
  Cl  Cl95  1  0.95930500  0.05459400  0.42812100  1
loop_
_geom_bond_atom_site_label_1
_geom_bond_atom_site_label_2
_geom_bond_distance
_geom_bond_site_symmetry_2
Cl0 Zn23 2.273918 1_655
Cl0 K15 3.244303 1_555
Cl0 K28 3.270064 1_655
Cl0 K9 3.347087 1_555
Cl1 Zn4 2.291033 1_555
Cl1 K25 3.271952 1_655
Cl1 K44 3.325522 1_555
Cl1 K2 3.490120 1_546
Cl1 K36 3.511868 1_545
Cl2 Zn10 2.300050 1_655
Cl2 K11 3.305978 1_555
Cl2 K0 3.390656 1_555
Cl2 K20 3.457141 1_655
Cl2 K19 3.507531 1_655
Cl2 K27 3.548617 1_555
Cl3 Zn22 2.305778 1_555
Cl3 K18 3.331523 1_555
Cl3 K40 3.353041 1_555
Cl3 K30 3.383465 1_554
Cl3 K13 3.478127 1_555
Cl4 Zn11 2.263010 1_565
Cl4 K21 3.188282 1_565
Cl4 K16 3.212399 1_555
Cl4 K32 3.271106 1_455
Cl5 Zn11 2.286833 1_555
Cl5 K8 3.327445 1_555
Cl5 K38 3.339600 1_555
Cl5 K16 3.452120 1_545
Cl5 K45 3.562725 1_545
Cl6 Zn6 2.300050 1_565
Cl6 K5 3.305978 1_555
Cl6 K17 3.390656 1_555
Cl6 K41 3.457141 1_566
Cl6 K30 3.507531 1_565
Cl6 K33 3.548617 1_555
Cl7 Zn22 2.292710 1_555
Cl7 K41 3.300849 1_555
Cl7 K5 3.326528 1_544
Cl7 K3 3.417745 1_545
Cl7 K30 3.519480 1_554
Cl8 Zn7 2.252846 1_555
Cl8 K15 3.200913 1_555
Cl8 K23 3.207617 1_555
Cl8 K36 3.464609 1_555
Cl9 Zn13 2.281267 1_555
Cl9 K43 3.254743 1_555
Cl9 K0 3.256182 1_455
Cl9 K31 3.297361 1_455
Cl10 Zn16 2.257573 1_554
Cl10 K37 3.176260 1_555
Cl10 K40 3.225017 1_555
Cl10 K46 3.287716 1_455
Cl11 Zn0 2.318805 1_555
Cl11 K34 3.226038 1_555
Cl11 K22 3.233403 1_555
Cl11 K21 3.323969 1_555
Cl11 K13 3.492154 1_555
Cl12 Zn13 2.262665 1_555
Cl12 K34 3.196032 1_555
Cl12 K19 3.263064 1_555
Cl12 K1 3.429187 1_555
Cl13 Zn7 2.304357 1_555
Cl13 K18 3.273798 1_556
Cl13 K33 3.363989 1_655
Cl13 K46 3.425561 1_556
Cl13 K15 3.547120 1_555
Cl14 Zn10 2.294997 1_555
Cl14 K7 3.301762 1_555
Cl14 K34 3.335994 1_555
Cl14 K21 3.606394 1_555
Cl14 K20 3.608330 1_555
Cl15 Zn18 2.312322 1_555
Cl15 K26 3.234368 1_555
Cl15 K37 3.328283 1_555
Cl15 K13 3.359263 1_555
Cl15 K40 3.410138 1_555
Cl16 Zn8 2.293931 1_655
Cl16 K44 3.323145 1_555
Cl16 K15 3.404940 1_555
Cl16 K9 3.464529 1_555
Cl16 K25 3.546682 1_655
Cl17 Zn1 2.266269 1_555
Cl17 K27 3.195704 1_555
Cl17 K10 3.207258 1_545
Cl17 K0 3.406558 1_555
Cl18 Zn20 2.293541 1_555
Cl18 K38 3.273879 1_555
Cl18 K6 3.432487 1_555
Cl18 K8 3.467985 1_555
Cl18 K42 3.476670 1_555
Cl19 Zn14 2.273998 1_555
Cl19 K16 3.232713 1_555
Cl19 K1 3.270711 1_555
Cl19 K19 3.283358 1_555
Cl20 Zn21 2.292710 1_555
Cl20 K20 3.300849 1_555
Cl20 K11 3.326528 1_455
Cl20 K9 3.417745 1_455
Cl20 K19 3.519480 1_555
Cl21 Zn16 2.315114 1_555
Cl21 K28 3.256140 1_555
Cl21 K25 3.304648 1_555
Cl21 K46 3.365088 1_456
Cl21 K15 3.372212 1_455
Cl22 Zn2 2.276526 1_655
Cl22 K31 3.257032 1_555
Cl22 K46 3.272377 1_555
Cl22 K18 3.445308 1_555
Cl23 Zn8 2.318805 1_555
Cl23 K42 3.226038 1_555
Cl23 K28 3.233403 1_555
Cl23 K25 3.323969 1_555
Cl23 K6 3.492154 1_555
Cl24 Zn1 2.318966 1_555
Cl24 K31 3.200669 1_555
Cl24 K4 3.236732 1_655
Cl24 K29 3.305949 1_555
Cl24 K0 3.451900 1_555
Cl25 Zn2 2.297785 1_555
Cl25 K5 3.263988 1_554
Cl25 K3 3.348546 1_555
Cl25 K37 3.474662 1_555
Cl25 K33 3.539671 1_554
Cl26 Zn12 2.252846 1_555
Cl26 K1 3.200913 1_555
Cl26 K26 3.207617 1_555
Cl26 K10 3.464609 1_555
Cl27 Zn17 2.300340 1_555
Cl27 K28 3.291039 1_555
Cl27 K17 3.388900 1_555
Cl27 K47 3.400249 1_555
Cl27 K45 3.411896 1_555
Cl28 Zn18 2.303060 1_555
Cl28 K29 3.342341 1_565
Cl28 K3 3.391504 1_555
Cl28 K5 3.396491 1_554
Cl28 K26 3.406191 1_555
Cl29 Zn0 2.277092 1_565
Cl29 K4 3.256691 1_565
Cl29 K39 3.259761 1_455
Cl29 K10 3.293903 1_455
Cl30 Zn14 2.267328 1_655
Cl30 K32 3.149433 1_555
Cl30 K12 3.194262 1_655
Cl30 K11 3.231082 1_555
Cl31 Zn7 2.278939 1_555
Cl31 K42 3.296421 1_555
Cl31 K30 3.299017 1_555
Cl31 K40 3.318958 1_556
Cl32 Zn12 2.304357 1_555
Cl32 K14 3.273798 1_555
Cl32 K27 3.363989 1_565
Cl32 K16 3.425561 1_555
Cl32 K1 3.547120 1_555
Cl33 Zn21 2.257310 1_555
Cl33 K28 3.194774 1_555
Cl33 K6 3.239694 1_555
Cl33 K45 3.473736 1_555
Cl34 Zn11 2.332864 1_565
Cl34 K38 3.295423 1_565
Cl34 K12 3.305586 1_555
Cl34 K24 3.345731 1_455
Cl34 K32 3.371896 1_455
Cl35 Zn5 2.286833 1_555
Cl35 K37 3.327445 1_555
Cl35 K4 3.339600 1_555
Cl35 K46 3.452120 1_455
Cl35 K31 3.562725 1_455
Cl36 Zn14 2.321506 1_655
Cl36 K35 3.301044 1_555
Cl36 K43 3.301938 1_655
Cl36 K11 3.378401 1_555
Cl36 K0 3.382978 1_555
Cl37 Zn15 2.249219 1_555
Cl37 K24 3.200812 1_545
Cl37 K44 3.201259 1_555
Cl37 K9 3.480087 1_555
Cl38 Zn6 2.278943 1_565
Cl38 K2 3.259492 1_456
Cl38 K36 3.301705 1_455
Cl38 K33 3.463704 1_555
Cl39 Zn16 2.272201 1_555
Cl39 K33 3.241387 1_555
Cl39 K5 3.312677 1_555
Cl39 K17 3.319786 1_555
Cl40 Zn2 2.317854 1_655
Cl40 K33 3.310658 1_654
Cl40 K2 3.393221 1_555
Cl40 K41 3.420635 1_665
Cl40 K39 3.559969 1_555
Cl40 K18 3.610770 1_555
Cl41 Zn3 2.300340 1_555
Cl41 K22 3.291039 1_555
Cl41 K0 3.388900 1_555
Cl41 K35 3.400249 1_555
Cl41 K31 3.411896 1_555
Cl42 Zn4 2.321506 1_565
Cl42 K47 3.301044 1_555
Cl42 K44 3.301938 1_565
Cl42 K5 3.378401 1_555
Cl42 K17 3.382978 1_555
Cl43 Zn4 2.273998 1_555
Cl43 K46 3.232713 1_556
Cl43 K15 3.270711 1_555
Cl43 K30 3.283358 1_555
Cl44 Zn14 2.291033 1_555
Cl44 K21 3.271952 1_565
Cl44 K43 3.325522 1_555
Cl44 K32 3.490120 1_455
Cl44 K10 3.511868 1_455
Cl45 Zn4 2.267328 1_564
Cl45 K2 3.149433 1_555
Cl45 K29 3.194262 1_565
Cl45 K5 3.231082 1_554
Cl46 Zn5 2.263010 1_656
Cl46 K25 3.188282 1_655
Cl46 K46 3.212399 1_556
Cl46 K2 3.271106 1_546
Cl47 Zn16 2.299654 1_555
Cl47 K47 3.318132 1_555
Cl47 K40 3.406030 1_556
Cl47 K42 3.415069 1_555
Cl47 K28 3.434702 1_555
Cl48 Zn19 2.312322 1_555
Cl48 K23 3.234368 1_555
Cl48 K8 3.328283 1_555
Cl48 K6 3.359263 1_555
Cl48 K7 3.410138 1_555
Cl49 Zn13 2.293541 1_555
Cl49 K4 3.273879 1_555
Cl49 K13 3.432487 1_555
Cl49 K37 3.467985 1_555
Cl49 K34 3.476670 1_555
Cl50 Zn11 2.271807 1_555
Cl50 K7 3.215225 1_555
Cl50 K20 3.252352 1_555
Cl50 K6 3.296484 1_555
Cl51 Zn6 2.294997 1_555
Cl51 K40 3.301762 1_556
Cl51 K42 3.335994 1_555
Cl51 K25 3.606394 1_555
Cl51 K41 3.608330 1_556
Cl52 Zn17 2.263646 1_555
Cl52 K45 3.196382 1_555
Cl52 K14 3.237547 1_555
Cl52 K24 3.415194 1_555
Cl53 Zn21 2.289192 1_555
Cl53 K45 3.244160 1_555
Cl53 K16 3.278013 1_555
Cl53 K12 3.346988 1_555
Cl54 Zn19 2.303060 1_555
Cl54 K12 3.342341 1_655
Cl54 K9 3.391504 1_555
Cl54 K11 3.396491 1_555
Cl54 K23 3.406191 1_555
Cl55 Zn5 2.271807 1_555
Cl55 K40 3.215225 1_555
Cl55 K41 3.252352 1_555
Cl55 K13 3.296484 1_555
Cl56 Zn12 2.293730 1_555
Cl56 K32 3.238333 1_555
Cl56 K10 3.241584 1_555
Cl56 K35 3.415066 1_555
Cl56 K14 3.712595 1_555
Cl57 Zn7 2.293730 1_555
Cl57 K2 3.238333 1_556
Cl57 K36 3.241584 1_555
Cl57 K47 3.415066 1_555
Cl57 K18 3.712595 1_556
Cl58 Zn23 2.266269 1_555
Cl58 K33 3.195704 1_555
Cl58 K36 3.207258 1_455
Cl58 K17 3.406558 1_555
Cl59 Zn9 2.257573 1_555
Cl59 K8 3.176260 1_555
Cl59 K7 3.225017 1_555
Cl59 K16 3.287716 1_545
Cl60 Zn18 2.279296 1_555
Cl60 K2 3.257419 1_555
Cl60 K18 3.270413 1_555
Cl60 K39 3.288056 1_555
Cl61 Zn3 2.311339 1_555
Cl61 K10 3.210457 1_555
Cl61 K43 3.224442 1_655
Cl61 K35 3.327497 1_555
Cl61 K39 3.475868 1_555
Cl62 Zn23 2.303107 1_655
Cl62 K23 3.268411 1_555
Cl62 K24 3.337505 1_555
Cl62 K12 3.439515 1_655
Cl62 K36 3.484033 1_555
Cl63 Zn8 2.259433 1_555
Cl63 K9 3.203646 1_455
Cl63 K20 3.241898 1_555
Cl63 K6 3.460594 1_555
Cl64 Zn18 2.264809 1_556
Cl64 K5 3.169181 1_555
Cl64 K47 3.188143 1_555
Cl64 K40 3.239636 1_556
Cl65 Zn12 2.278939 1_555
Cl65 K34 3.296421 1_555
Cl65 K19 3.299017 1_555
Cl65 K7 3.318958 1_555
Cl66 Zn3 2.275778 1_555
Cl66 K13 3.250157 1_555
Cl66 K26 3.292861 1_555
Cl66 K34 3.303694 1_555
Cl67 Zn5 2.332864 1_655
Cl67 K4 3.295423 1_655
Cl67 K29 3.305586 1_555
Cl67 K39 3.345731 1_545
Cl67 K2 3.371896 1_545
Cl68 Zn0 2.259433 1_555
Cl68 K3 3.203646 1_545
Cl68 K41 3.241898 1_555
Cl68 K13 3.460594 1_555
Cl69 Zn1 2.273918 1_565
Cl69 K1 3.244303 1_555
Cl69 K22 3.270064 1_565
Cl69 K3 3.347087 1_555
Cl70 Zn13 2.322416 1_555
Cl70 K26 3.213704 1_555
Cl70 K3 3.275178 1_555
Cl70 K37 3.321098 1_555
Cl70 K1 3.554610 1_555
Cl71 Zn20 2.281267 1_555
Cl71 K44 3.254743 1_555
Cl71 K17 3.256182 1_545
Cl71 K45 3.297361 1_545
Cl72 Zn1 2.303107 1_565
Cl72 K26 3.268411 1_555
Cl72 K39 3.337505 1_555
Cl72 K29 3.439515 1_565
Cl72 K10 3.484033 1_555
Cl73 Zn22 2.289192 1_555
Cl73 K31 3.244160 1_555
Cl73 K46 3.278013 1_555
Cl73 K29 3.346988 1_555
Cl74 Zn15 2.317854 1_565
Cl74 K27 3.310658 1_565
Cl74 K32 3.393221 1_555
Cl74 K20 3.420635 1_665
Cl74 K24 3.559969 1_555
Cl74 K14 3.610770 1_555
Cl75 Zn23 2.318966 1_555
Cl75 K45 3.200669 1_555
Cl75 K38 3.236732 1_565
Cl75 K12 3.305949 1_555
Cl75 K17 3.451900 1_555
Cl76 Zn20 2.322416 1_555
Cl76 K23 3.213704 1_555
Cl76 K9 3.275178 1_555
Cl76 K8 3.321098 1_555
Cl76 K15 3.554610 1_555
Cl77 Zn15 2.297785 1_555
Cl77 K11 3.263988 1_555
Cl77 K9 3.348546 1_555
Cl77 K8 3.474662 1_555
Cl77 K27 3.539671 1_555
Cl78 Zn10 2.240075 1_555
Cl78 K4 3.211950 1_555
Cl78 K0 3.252011 1_455
Cl78 K34 3.460545 1_555
Cl79 Zn9 2.315114 1_555
Cl79 K22 3.256140 1_555
Cl79 K21 3.304648 1_555
Cl79 K16 3.365088 1_545
Cl79 K1 3.372212 1_545
Cl80 Zn17 2.275778 1_555
Cl80 K6 3.250157 1_555
Cl80 K23 3.292861 1_555
Cl80 K42 3.303694 1_555
Cl81 Zn2 2.249219 1_555
Cl81 K39 3.200812 1_455
Cl81 K43 3.201259 1_555
Cl81 K3 3.480087 1_555
Cl82 Zn0 2.293931 1_565
Cl82 K43 3.323145 1_555
Cl82 K1 3.404940 1_555
Cl82 K3 3.464529 1_555
Cl82 K21 3.546682 1_565
Cl83 Zn6 2.240075 1_555
Cl83 K38 3.211950 1_555
Cl83 K17 3.252011 1_545
Cl83 K42 3.460545 1_555
Cl84 Zn19 2.264809 1_555
Cl84 K11 3.169181 1_555
Cl84 K35 3.188143 1_555
Cl84 K7 3.239636 1_555
Cl85 Zn3 2.263646 1_555
Cl85 K31 3.196382 1_555
Cl85 K18 3.237547 1_555
Cl85 K39 3.415194 1_555
Cl86 Zn22 2.257310 1_555
Cl86 K22 3.194774 1_555
Cl86 K13 3.239694 1_555
Cl86 K31 3.473736 1_555
Cl87 Zn17 2.311339 1_555
Cl87 K36 3.210457 1_555
Cl87 K44 3.224442 1_565
Cl87 K47 3.327497 1_555
Cl87 K24 3.475868 1_555
Cl88 Zn20 2.262665 1_555
Cl88 K42 3.196032 1_555
Cl88 K30 3.263064 1_555
Cl88 K15 3.429187 1_555
Cl89 Zn19 2.279296 1_555
Cl89 K32 3.257419 1_555
Cl89 K14 3.270413 1_555
Cl89 K24 3.288056 1_555
Cl90 Zn15 2.276526 1_565
Cl90 K45 3.257032 1_555
Cl90 K16 3.272377 1_555
Cl90 K14 3.445308 1_555
Cl91 Zn8 2.277092 1_655
Cl91 K38 3.256691 1_655
Cl91 K24 3.259761 1_545
Cl91 K36 3.293903 1_545
Cl92 Zn9 2.299654 1_555
Cl92 K35 3.318132 1_555
Cl92 K7 3.406030 1_555
Cl92 K34 3.415069 1_555
Cl92 K22 3.434702 1_555
Cl93 Zn9 2.272201 1_555
Cl93 K27 3.241387 1_555
Cl93 K11 3.312677 1_555
Cl93 K0 3.319786 1_555
Cl94 Zn21 2.305778 1_555
Cl94 K14 3.331523 1_555
Cl94 K7 3.353041 1_555
Cl94 K19 3.383465 1_555
Cl94 K6 3.478127 1_555
Cl95 Zn10 2.278943 1_655
Cl95 K32 3.259492 1_545
Cl95 K10 3.301705 1_545
Cl95 K27 3.463704 1_555
