# generated using pymatgen
data_Rb3LiZn2(MoO4)4
_symmetry_space_group_name_H-M   'P 1'
_cell_length_a   10.49609102
_cell_length_b   10.49609102
_cell_length_c   10.49609102
_cell_angle_alpha   109.30696534
_cell_angle_beta   109.30696534
_cell_angle_gamma   109.80023305
_symmetry_Int_Tables_number   1
_chemical_formula_structural   Rb3LiZn2(MoO4)4
_chemical_formula_sum   'Rb6 Li2 Zn4 Mo8 O32'
_cell_volume   890.12321185
_cell_formula_units_Z   2
loop_
 _symmetry_equiv_pos_site_id
 _symmetry_equiv_pos_as_xyz
  1  'x, y, z'
loop_
 _atom_site_type_symbol
 _atom_site_label
 _atom_site_symmetry_multiplicity
 _atom_site_fract_x
 _atom_site_fract_y
 _atom_site_fract_z
 _atom_site_occupancy
  Rb  Rb0  1  0.75000000  0.25000000  0.50000000  1
  Rb  Rb1  1  0.50000000  0.50000000  0.00000000  1
  Rb  Rb2  1  0.12500000  0.75171300  0.12671300  1
  Rb  Rb3  1  0.00171300  0.87500000  0.62671300  1
  Rb  Rb4  1  0.62500000  0.99828700  0.87328700  1
  Rb  Rb5  1  0.24828700  0.37500000  0.37328700  1
  Li  Li0  1  0.25000000  0.75000000  0.50000000  1
  Li  Li1  1  0.00000000  0.00000000  0.00000000  1
  Zn  Zn0  1  0.50036200  0.87500000  0.12536200  1
  Zn  Zn1  1  0.12500000  0.25036200  0.62536200  1
  Zn  Zn2  1  0.74963800  0.37500000  0.87463800  1
  Zn  Zn3  1  0.62500000  0.49963800  0.37463800  1
  Mo  Mo0  1  0.16043100  0.62583500  0.74972400  1
  Mo  Mo1  1  0.66070700  0.62611000  0.75027600  1
  Mo  Mo2  1  0.87583500  0.91043100  0.24972400  1
  Mo  Mo3  1  0.37416500  0.12389000  0.53459600  1
  Mo  Mo4  1  0.08956900  0.33929300  0.96540400  1
  Mo  Mo5  1  0.37389000  0.12416500  0.03459600  1
  Mo  Mo6  1  0.58929300  0.83956900  0.46540400  1
  Mo  Mo7  1  0.87611000  0.41070700  0.25027600  1
  O  O0  1  0.99263500  0.62494000  0.74916500  1
  O  O1  1  0.30198200  0.69256400  0.94963600  1
  O  O2  1  0.00487200  0.98318600  0.18356100  1
  O  O3  1  0.67541100  0.85230800  0.11693000  1
  O  O4  1  0.49347100  0.62577600  0.75083500  1
  O  O5  1  0.10230800  0.42541100  0.61693000  1
  O  O6  1  0.73537700  0.55848000  0.88307000  1
  O  O7  1  0.51462300  0.89769200  0.32310300  1
  O  O8  1  0.30743600  0.25707200  0.60941800  1
  O  O9  1  0.14769200  0.26462300  0.82310300  1
  O  O10  1  0.94256400  0.05198200  0.44963600  1
  O  O11  1  0.37506000  0.12422400  0.36769500  1
  O  O12  1  0.44152000  0.32458900  0.17689700  1
  O  O13  1  0.94801800  0.39765400  0.89058200  1
  O  O14  1  0.57458900  0.19152000  0.67689700  1
  O  O15  1  0.74292800  0.35234600  0.05036400  1
  O  O16  1  0.25736500  0.50652900  0.13230500  1
  O  O17  1  0.37422400  0.12506000  0.86769500  1
  O  O18  1  0.87494000  0.74263500  0.24916500  1
  O  O19  1  0.24512800  0.92868900  0.47831400  1
  O  O20  1  0.64765400  0.69801800  0.39058200  1
  O  O21  1  0.17868900  0.99512800  0.97831400  1
  O  O22  1  0.75652900  0.00736500  0.63230500  1
  O  O23  1  0.01681400  0.20037600  0.02168600  1
  O  O24  1  0.50707200  0.05743600  0.10941800  1
  O  O25  1  0.23318600  0.75487200  0.68356100  1
  O  O26  1  0.45037600  0.76681400  0.52168600  1
  O  O27  1  0.07131100  0.54962400  0.31643900  1
  O  O28  1  0.80848000  0.48537700  0.38307000  1
  O  O29  1  0.79962400  0.82131100  0.81643900  1
  O  O30  1  0.87577600  0.24347100  0.25083500  1
  O  O31  1  0.60234600  0.49292800  0.55036400  1
loop_
_geom_bond_atom_site_label_1
_geom_bond_atom_site_label_2
_geom_bond_distance
_geom_bond_site_symmetry_2
Li0 O25 1.977786 1_555
Li0 O19 1.977786 1_555
Li0 O27 1.977790 1_555
Li0 O26 1.977796 1_555
Li1 O2 1.977786 1_545
Li1 O21 1.977786 1_544
Li1 O29 1.977790 1_444
Li1 O23 1.977796 1_555
Mo0 O0 1.756097 1_455
Mo0 O25 1.780926 1_555
Mo0 O1 1.833718 1_555
Mo0 O5 1.835671 1_555
Mo1 O4 1.756094 1_555
Mo1 O29 1.780931 1_555
Mo1 O31 1.833715 1_555
Mo1 O6 1.835668 1_555
Mo2 O18 1.756097 1_555
Mo2 O2 1.780926 1_655
Mo2 O10 1.833718 1_565
Mo2 O3 1.835671 1_555
Mo3 O11 1.756090 1_555
Mo3 O19 1.780935 1_545
Mo3 O8 1.833710 1_555
Mo3 O14 1.835671 1_555
Mo4 O16 1.756094 1_556
Mo4 O23 1.780918 1_556
Mo4 O13 1.833718 1_455
Mo4 O9 1.835668 1_555
Mo5 O17 1.756090 1_554
Mo5 O21 1.780935 1_544
Mo5 O24 1.833710 1_555
Mo5 O12 1.835671 1_555
Mo6 O22 1.756094 1_565
Mo6 O26 1.780918 1_555
Mo6 O20 1.833718 1_555
Mo6 O7 1.835668 1_555
Mo7 O30 1.756094 1_555
Mo7 O27 1.780931 1_655
Mo7 O15 1.833715 1_555
Mo7 O28 1.835668 1_555
O0 Rb3 3.269865 1_655
O0 Rb0 3.288288 1_555
O0 Rb2 3.320324 1_656
O1 Zn0 1.956528 1_556
O1 Rb2 3.097096 1_556
O1 Rb1 3.392692 1_556
O2 Rb2 3.076178 1_555
O2 Rb5 3.392311 1_565
O3 Zn0 1.957142 1_555
O3 Rb1 3.076111 1_555
O3 Rb4 3.378301 1_554
O4 Rb4 3.269857 1_555
O4 Rb1 3.288296 1_556
O4 Rb5 3.320327 1_555
O5 Zn1 1.957142 1_555
O5 Rb0 3.076111 1_455
O5 Rb5 3.378301 1_555
O6 Zn2 1.957136 1_555
O6 Rb1 3.076102 1_556
O6 Rb2 3.378309 1_656
O7 Zn0 1.957139 1_555
O7 Rb0 3.076109 1_565
O7 Rb2 3.378310 1_555
O8 Zn1 1.956528 1_555
O8 Rb5 3.097096 1_555
O8 Rb1 3.392692 1_556
O9 Zn1 1.957139 1_555
O9 Rb1 3.076109 1_556
O9 Rb3 3.378310 1_545
O10 Zn1 1.956528 1_655
O10 Rb3 3.097096 1_645
O10 Rb0 3.392692 1_555
O11 Rb2 3.269858 1_545
O11 Rb0 3.288287 1_555
O11 Rb5 3.320334 1_555
O12 Zn3 1.957139 1_555
O12 Rb1 3.076109 1_555
O12 Rb5 3.378310 1_555
O13 Zn2 1.956528 1_555
O13 Rb2 3.097096 1_656
O13 Rb0 3.392692 1_555
O14 Zn2 1.957139 1_555
O14 Rb0 3.076109 1_555
O14 Rb4 3.378310 1_545
O15 Zn2 1.956528 1_554
O15 Rb4 3.097096 1_544
O15 Rb1 3.392692 1_555
O16 Rb5 3.269858 1_555
O16 Rb1 3.288287 1_555
O16 Rb2 3.320334 1_555
O17 Rb3 3.269858 1_545
O17 Rb1 3.288287 1_556
O17 Rb4 3.320334 1_545
O18 Rb2 3.269865 1_655
O18 Rb1 3.288288 1_555
O18 Rb3 3.320324 1_655
O19 Rb2 3.076178 1_555
O19 Rb3 3.392311 1_555
O20 Zn3 1.956528 1_555
O20 Rb3 3.097096 1_655
O20 Rb1 3.392692 1_555
O21 Rb3 3.076178 1_555
O21 Rb2 3.392311 1_556
O22 Rb4 3.269858 1_545
O22 Rb0 3.288287 1_555
O22 Rb3 3.320334 1_645
O23 Rb5 3.076178 1_555
O23 Rb4 3.392311 1_444
O24 Zn0 1.956528 1_545
O24 Rb4 3.097096 1_544
O24 Rb0 3.392692 1_555
O25 Rb3 3.076178 1_555
O25 Rb4 3.392311 1_555
O26 Rb4 3.076178 1_555
O26 Rb5 3.392311 1_555
O27 Rb5 3.076169 1_555
O27 Rb2 3.392319 1_555
O28 Zn3 1.957136 1_555
O28 Rb0 3.076102 1_555
O28 Rb3 3.378309 1_655
O29 Rb4 3.076169 1_555
O29 Rb3 3.392319 1_655
O30 Rb5 3.269857 1_655
O30 Rb0 3.288296 1_555
O30 Rb4 3.320327 1_544
O31 Zn3 1.956528 1_555
O31 Rb5 3.097096 1_555
O31 Rb0 3.392692 1_555
