# generated using pymatgen
data_SrUO4
_symmetry_space_group_name_H-M   'P 1'
_cell_length_a   4.18113829
_cell_length_b   4.18113829
_cell_length_c   6.30308581
_cell_angle_alpha   60.64045875
_cell_angle_beta   60.64045875
_cell_angle_gamma   56.33022447
_symmetry_Int_Tables_number   1
_chemical_formula_structural   SrUO4
_chemical_formula_sum   'Sr1 U1 O4'
_cell_volume   76.21519090
_cell_formula_units_Z   1
loop_
 _symmetry_equiv_pos_site_id
 _symmetry_equiv_pos_as_xyz
  1  'x, y, z'
loop_
 _atom_site_type_symbol
 _atom_site_label
 _atom_site_symmetry_multiplicity
 _atom_site_fract_x
 _atom_site_fract_y
 _atom_site_fract_z
 _atom_site_occupancy
  Sr  Sr0  1  0.50000000  0.50000000  0.50000000  1
  U  U0  1  0.00000000  0.00000000  0.00000000  1
  O  O0  1  0.11912400  0.11912400  0.64185500  1
  O  O1  1  0.88087600  0.88087600  0.35814500  1
  O  O2  1  0.66286700  0.66286700  0.99561400  1
  O  O3  1  0.33713300  0.33713300  0.00438600  1
loop_
_geom_bond_atom_site_label_1
_geom_bond_atom_site_label_2
_geom_bond_distance
_geom_bond_site_symmetry_2
O0 U0 1.913667 1_556
O0 Sr0 2.427152 1_555
O0 Sr0 2.517735 1_455
O0 Sr0 2.517735 1_545
O1 U0 1.913667 1_665
O1 Sr0 2.427152 1_555
O1 Sr0 2.517735 1_565
O1 Sr0 2.517735 1_655
O2 U0 2.302256 1_566
O2 U0 2.302256 1_656
O2 U0 2.500861 1_666
O2 Sr0 2.702424 1_556
O3 U0 2.302256 1_565
O3 U0 2.302256 1_655
O3 U0 2.500861 1_555
O3 Sr0 2.702424 1_554
