# generated using pymatgen
data_Ba9La9Cu9Ru9O46
_symmetry_space_group_name_H-M   'P 1'
_cell_length_a   5.57101088
_cell_length_b   5.59438594
_cell_length_c   52.38124696
_cell_angle_alpha   119.83419019
_cell_angle_beta   119.11517306
_cell_angle_gamma   90.46787875
_symmetry_Int_Tables_number   1
_chemical_formula_structural   Ba9La9Cu9Ru9O46
_chemical_formula_sum   'Ba9 La9 Cu9 Ru9 O46'
_cell_volume   1167.84372756
_cell_formula_units_Z   1
loop_
 _symmetry_equiv_pos_site_id
 _symmetry_equiv_pos_as_xyz
  1  'x, y, z'
loop_
 _atom_site_type_symbol
 _atom_site_label
 _atom_site_symmetry_multiplicity
 _atom_site_fract_x
 _atom_site_fract_y
 _atom_site_fract_z
 _atom_site_occupancy
  Ba  Ba0  1  0.74579395  0.26449838  0.94410328  1
  Ba  Ba1  1  0.74419849  0.24248862  0.83188277  1
  Ba  Ba2  1  0.75843139  0.25468418  0.72411196  1
  Ba  Ba3  1  0.75931216  0.25479428  0.61336379  1
  Ba  Ba4  1  0.76237848  0.24528812  0.50190413  1
  Ba  Ba5  1  0.25153226  0.72962184  0.27767525  1
  Ba  Ba6  1  0.23131128  0.73195500  0.16109863  1
  Ba  Ba7  1  0.72791175  0.24969014  0.27733496  1
  Ba  Ba8  1  0.73376256  0.23271339  0.16153760  1
  La  La0  1  0.16391555  0.70114963  0.92808990  1
  La  La1  1  0.29592872  0.79585628  0.84515319  1
  La  La2  1  0.28857830  0.78306767  0.73076764  1
  La  La3  1  0.29709533  0.78970250  0.62192361  1
  La  La4  1  0.29857816  0.77672321  0.50985601  1
  La  La5  1  0.20033912  0.70252743  0.38597337  1
  La  La6  1  0.71866879  0.21994100  0.38890543  1
  La  La7  1  0.25652985  0.74365667  0.05741042  1
  La  La8  1  0.73769421  0.25087372  0.05643868  1
  Cu  Cu0  1  0.98907256  0.99654636  0.88666766  1
  Cu  Cu1  1  0.49802098  0.50398909  0.88914617  1
  Cu  Cu2  1  0.51924571  0.51824321  0.78165432  1
  Cu  Cu3  1  0.52066924  0.52041123  0.67125893  1
  Cu  Cu4  1  0.51975601  0.51638928  0.56022357  1
  Cu  Cu5  1  0.49120223  0.48792464  0.44477616  1
  Cu  Cu6  1  0.48387134  0.48287896  0.33512083  1
  Cu  Cu7  1  0.47699094  0.47638120  0.21838782  1
  Cu  Cu8  1  0.47198945  0.47280126  0.10735800  1
  Ru  Ru0  1  0.00800588  0.00860602  0.66848728  1
  Ru  Ru1  1  0.00061284  -0.00041343  0.55585111  1
  Ru  Ru2  1  0.00530384  0.00542739  0.77871404  1
  Ru  Ru3  1  0.98433293  0.98643042  0.44403305  1
  Ru  Ru4  1  0.99278176  0.99033191  0.33382755  1
  Ru  Ru5  1  0.95345863  0.95332992  0.21661867  1
  Ru  Ru6  1  -0.00284956  -0.00277039  0.10870067  1
  Ru  Ru7  1  0.02980485  0.02364386  0.00352774  1
  Ru  Ru8  1  0.49859848  0.49061152  0.00387351  1
  O  O0  1  0.27930122  0.25538313  0.95254520  1
  O  O1  1  0.25865896  0.75720017  0.88975081  1
  O  O2  1  0.26139519  0.26669022  0.89105349  1
  O  O3  1  0.23364390  0.24215496  0.82986830  1
  O  O4  1  0.85732985  0.82154128  0.95323254  1
  O  O5  1  0.24032203  0.74764326  0.77377503  1
  O  O6  1  0.24099354  0.22233459  0.77395119  1
  O  O7  1  0.74107665  0.75138587  0.88827884  1
  O  O8  1  0.74108800  0.25370819  0.88902589  1
  O  O9  1  0.23849492  0.24098115  0.71958640  1
  O  O10  1  0.76253455  0.75065702  0.83323851  1
  O  O11  1  0.24324985  0.74952995  0.66356574  1
  O  O12  1  0.24000514  0.22403671  0.66312480  1
  O  O13  1  0.72222584  0.74473820  0.77350451  1
  O  O14  1  0.73017453  0.22455117  0.77432725  1
  O  O15  1  0.23293088  0.24682981  0.60663454  1
  O  O16  1  0.75089180  0.75528008  0.72418001  1
  O  O17  1  0.23551015  0.74042372  0.55120080  1
  O  O18  1  0.22670743  0.20625925  0.54884010  1
  O  O19  1  0.72881576  0.74691799  0.66370502  1
  O  O20  1  0.73458866  0.23009250  0.66417685  1
  O  O21  1  0.24679062  0.26710533  0.49348876  1
  O  O22  1  0.74967954  0.75318703  0.61356638  1
  O  O23  1  0.20785793  0.71552578  0.43736764  1
  O  O24  1  0.73225926  0.74504431  0.55299635  1
  O  O25  1  0.72559332  0.21904567  0.55087651  1
  O  O26  1  0.26468815  0.25604979  0.38927706  1
  O  O27  1  0.70744838  0.71692813  0.49716512  1
  O  O28  1  0.26026041  0.74013126  0.33628496  1
  O  O29  1  0.69874455  0.72669085  0.43530967  1
  O  O30  1  0.76613070  0.25557731  0.43982792  1
  O  O31  1  0.78388840  0.78266767  0.39134625  1
  O  O32  1  0.24819234  0.73231579  0.22062799  1
  O  O33  1  0.79469459  0.80222146  0.34396124  1
  O  O34  1  0.75448489  0.27045462  0.33624981  1
  O  O35  1  0.80020638  0.79876329  0.28413026  1
  O  O36  1  0.19498743  0.66565588  0.09929235  1
  O  O37  1  0.81961778  0.81682048  0.23414874  1
  O  O38  1  0.73357521  0.24810731  0.22081916  1
  O  O39  1  0.79311985  0.79364097  0.16803606  1
  O  O40  1  0.29266441  0.78208553  0.00857247  1
  O  O41  1  0.72267836  0.72316771  0.10451505  1
  O  O42  1  0.66779514  0.19716082  0.09950427  1
  O  O43  1  0.77843537  0.77653861  0.05671457  1
  O  O44  1  0.89870887  0.89607520  0.02308993  1
  O  O45  1  0.79273081  0.28870548  0.00806496  1
loop_
_geom_bond_atom_site_label_1
_geom_bond_atom_site_label_2
_geom_bond_distance
_geom_bond_site_symmetry_2
Ba0 O4 2.769600 1_545
Ba0 O2 2.782334 1_555
Ba0 O0 2.788888 1_655
Ba0 O1 2.800156 1_545
Ba0 O8 2.842671 1_555
Ba0 O0 2.844413 1_555
Ba0 O7 2.891987 1_545
Ba0 O4 2.919358 1_555
Ba0 O40 3.030673 1_656
Ba0 O45 3.163428 1_556
Ba1 O3 2.779558 1_655
Ba1 O10 2.788935 1_545
Ba1 O3 2.794433 1_555
Ba1 O10 2.807993 1_555
Ba1 O5 2.825356 1_545
Ba1 O13 2.877099 1_545
Ba1 O1 2.901803 1_655
Ba1 O6 2.907919 1_555
Ba1 O7 2.918046 1_555
Ba1 O14 2.928313 1_555
Ba1 O2 2.968563 1_655
Ba1 O8 2.971063 1_555
Ba2 O5 2.743123 1_655
Ba2 O13 2.776689 1_555
Ba2 O6 2.779160 1_655
Ba2 O9 2.786089 1_555
Ba2 O16 2.795633 1_545
Ba2 O14 2.795636 1_555
Ba2 O9 2.795875 1_655
Ba2 O16 2.799439 1_555
Ba2 O11 2.893793 1_545
Ba2 O19 2.941027 1_545
Ba2 O12 3.007420 1_555
Ba2 O20 3.009489 1_555
Ba3 O11 2.753420 1_655
Ba3 O12 2.766985 1_655
Ba3 O15 2.775247 1_555
Ba3 O22 2.783993 1_555
Ba3 O19 2.789663 1_555
Ba3 O20 2.800870 1_555
Ba3 O22 2.811652 1_545
Ba3 O15 2.824793 1_655
Ba3 O17 2.948200 1_545
Ba3 O24 2.951448 1_545
Ba3 O25 3.088462 1_555
Ba3 O18 3.100913 1_555
Ba4 O18 2.671720 1_655
Ba4 O21 2.699389 1_555
Ba4 O17 2.725571 1_655
Ba4 O25 2.744043 1_555
Ba4 O27 2.776346 1_555
Ba4 O24 2.829673 1_555
Ba4 O27 2.841400 1_545
Ba4 O21 2.949201 1_655
Ba4 O29 3.069409 1_545
Ba4 O23 3.077991 1_545
Ba4 O30 3.290775 1_555
Ba5 O37 2.648241 1_455
Ba5 O35 2.701652 1_455
Ba5 O38 2.824946 1_455
Ba5 O35 2.907228 1_555
Ba5 O34 2.945865 1_565
Ba5 O32 2.986747 1_555
Ba5 O28 3.017634 1_555
Ba5 O33 3.119243 1_555
Ba6 O39 2.638693 1_455
Ba6 O38 2.883695 1_565
Ba6 O41 2.914850 1_455
Ba6 O39 2.966115 1_555
Ba6 O36 2.970913 1_555
Ba6 O32 3.072543 1_555
Ba6 O42 3.098675 1_455
Ba7 O37 2.633803 1_545
Ba7 O35 2.724560 1_545
Ba7 O32 2.817315 1_545
Ba7 O28 2.895525 1_655
Ba7 O35 2.911498 1_555
Ba7 O34 2.959301 1_555
Ba7 O38 2.971476 1_555
Ba7 O33 3.139597 1_555
Ba8 O39 2.644710 1_545
Ba8 O32 2.869647 1_655
Ba8 O41 2.897797 1_545
Ba8 O39 2.980476 1_555
Ba8 O42 2.987774 1_555
Ba8 O38 3.063825 1_555
Ba8 O36 3.119800 1_545
La0 O7 2.406304 1_455
La0 O1 2.462793 1_555
La0 O8 2.473543 1_455
La0 O2 2.514208 1_555
La0 O4 2.535857 1_455
La0 O0 2.623367 1_565
La0 O0 3.267496 1_555
La1 O7 2.536250 1_555
La1 O8 2.546696 1_565
La1 O1 2.553640 1_555
La1 O2 2.629256 1_565
La1 O10 2.703609 1_455
La1 O3 2.757014 1_555
La1 O10 2.939922 1_555
La1 O3 2.954329 1_565
La1 O14 3.251371 1_455
La2 O13 2.473243 1_555
La2 O14 2.487896 1_565
La2 O5 2.493846 1_555
La2 O6 2.507838 1_565
La2 O16 2.755856 1_555
La2 O9 2.770862 1_555
La2 O16 2.837104 1_455
La2 O9 2.885986 1_565
La2 O20 3.145411 1_455
La2 O12 3.230481 1_555
La2 O19 3.275383 1_455
La2 O11 3.311685 1_555
La3 O11 2.453940 1_555
La3 O19 2.457635 1_555
La3 O12 2.475044 1_565
La3 O20 2.477048 1_565
La3 O15 2.697481 1_555
La3 O22 2.753927 1_555
La3 O22 2.852276 1_455
La3 O15 3.013856 1_565
La3 O25 3.265091 1_455
La3 O24 3.321684 1_455
La3 O18 3.398283 1_555
La3 O17 3.415089 1_555
La4 O17 2.455974 1_555
La4 O18 2.456333 1_565
La4 O25 2.457370 1_565
La4 O24 2.463254 1_555
La4 O21 2.502063 1_555
La4 O27 2.647073 1_555
La4 O27 3.004877 1_455
La4 O21 3.233708 1_565
La5 O34 2.477569 1_455
La5 O31 2.487911 1_455
La5 O33 2.581297 1_455
La5 O26 2.604157 1_555
La5 O23 2.636258 1_555
La5 O29 2.658936 1_555
La5 O28 2.884286 1_555
La5 O26 3.022551 1_565
La5 O31 3.131970 1_555
La5 O30 3.157445 1_565
La6 O30 2.451180 1_555
La6 O31 2.532416 1_545
La6 O26 2.547554 1_555
La6 O33 2.587537 1_545
La6 O28 2.645921 1_545
La6 O29 2.714582 1_555
La6 O23 2.774800 1_655
La6 O34 3.006214 1_555
La6 O26 3.036881 1_655
La6 O31 3.097514 1_555
La7 O42 2.443528 1_565
La7 O44 2.449146 1_455
La7 O45 2.585122 1_455
La7 O36 2.608230 1_555
La7 O41 2.626016 1_555
La7 O43 2.655078 1_455
La7 O40 2.771055 1_555
La7 O43 2.930876 1_555
La8 O44 2.428971 1_545
La8 O36 2.463594 1_655
La8 O40 2.571613 1_545
La8 O42 2.618794 1_555
La8 O41 2.630244 1_555
La8 O43 2.671739 1_545
La8 O45 2.801410 1_555
La8 O43 2.939981 1_555
Cu0 O2 1.978972 1_665
Cu0 O7 1.998667 1_555
Cu0 O8 2.003828 1_565
Cu0 O10 2.005390 1_555
Cu0 O1 2.021527 1_655
Cu0 O0 2.485810 1_665
Cu1 O2 1.934339 1_555
Cu1 O1 1.952728 1_555
Cu1 O8 1.955675 1_555
Cu1 O7 1.960339 1_555
Cu1 O3 2.223771 1_555
Cu1 O4 2.429186 1_555
Cu2 O10 1.934000 1_555
Cu2 O6 1.997749 1_555
Cu2 O13 2.012729 1_555
Cu2 O14 2.017586 1_555
Cu2 O5 2.041418 1_555
Cu2 O9 2.327394 1_555
Cu3 O16 1.986042 1_555
Cu3 O12 1.995459 1_555
Cu3 O19 2.007063 1_555
Cu3 O20 2.014474 1_555
Cu3 O11 2.033262 1_555
Cu3 O15 2.428056 1_555
Cu4 O18 2.002026 1_555
Cu4 O22 2.002353 1_555
Cu4 O24 2.018510 1_555
Cu4 O25 2.022110 1_555
Cu4 O17 2.048243 1_555
Cu4 O21 2.533534 1_555
Cu5 O27 1.970497 1_555
Cu5 O30 2.046039 1_555
Cu5 O23 2.047419 1_555
Cu5 O26 2.092264 1_555
Cu5 O29 2.135110 1_555
Cu6 O28 1.908579 1_555
Cu6 O34 1.923801 1_555
Cu6 O31 2.128285 1_555
Cu6 O33 2.179580 1_555
Cu7 O32 1.922682 1_555
Cu7 O38 1.924797 1_555
Cu7 O37 2.189743 1_555
Cu7 O35 2.467191 1_555
Cu8 O42 1.889451 1_555
Cu8 O36 1.889499 1_555
Cu8 O41 2.076639 1_555
Cu8 O39 2.293966 1_555
O0 Ru8 1.926130 1_556
O3 Ru2 1.917448 1_555
O4 Ru7 1.922868 1_666
O5 Ru2 1.962189 1_565
O6 Ru2 1.962845 1_555
O9 Ru0 1.915498 1_555
O11 Ru0 1.967918 1_565
O12 Ru0 1.966362 1_555
O13 Ru2 1.958595 1_665
O14 Ru2 1.968014 1_655
O15 Ru1 1.903651 1_555
O16 Ru2 2.043858 1_665
O17 Ru1 1.965626 1_565
O18 Ru1 1.976627 1_555
O19 Ru0 1.960599 1_665
O20 Ru0 1.970020 1_655
O21 Ru3 1.882442 1_445
O22 Ru0 2.058257 1_665
O23 Ru3 1.974051 1_455
O24 Ru1 1.954737 1_665
O25 Ru1 1.970586 1_655
O26 Ru4 2.079970 1_445
O27 Ru1 2.202995 1_665
O28 Ru4 2.054978 1_455
O29 Ru3 1.856262 1_555
O30 Ru3 1.972995 1_545
O31 Ru3 2.003225 1_555
O32 Ru5 2.055453 1_455
O33 Ru4 1.927155 1_555
O34 Ru4 2.057766 1_545
O35 Ru4 1.887797 1_555
O36 Ru6 2.133271 1_565
O37 Ru5 1.826765 1_555
O38 Ru5 2.050061 1_545
O39 Ru5 1.893392 1_555
O40 Ru8 1.985375 1_555
O40 Ru7 2.012843 1_565
O41 Ru6 2.009454 1_665
O42 Ru6 2.135230 1_655
O43 Ru6 1.955927 1_665
O43 Ru8 2.001284 1_555
O44 Ru7 1.881511 1_665
O44 Ru8 2.566950 1_555
O45 Ru8 1.983936 1_555
O45 Ru7 1.996622 1_655
