# generated using pymatgen
data_Cu2BiAsO6
_symmetry_space_group_name_H-M   'P 1'
_cell_length_a   5.29358300
_cell_length_b   7.75145707
_cell_length_c   12.48774511
_cell_angle_alpha   90.01534925
_cell_angle_beta   90.00000000
_cell_angle_gamma   90.00002561
_symmetry_Int_Tables_number   1
_chemical_formula_structural   Cu2BiAsO6
_chemical_formula_sum   'Cu8 Bi4 As4 O24'
_cell_volume   512.40939413
_cell_formula_units_Z   4
loop_
 _symmetry_equiv_pos_site_id
 _symmetry_equiv_pos_as_xyz
  1  'x, y, z'
loop_
 _atom_site_type_symbol
 _atom_site_label
 _atom_site_symmetry_multiplicity
 _atom_site_fract_x
 _atom_site_fract_y
 _atom_site_fract_z
 _atom_site_occupancy
  Cu  Cu0  1  0.75000000  0.21839000  0.87233100  1
  Cu  Cu1  1  0.75000000  0.54495700  0.19407500  1
  Cu  Cu2  1  0.25000000  0.78150600  0.12774200  1
  Cu  Cu3  1  0.75000600  0.28144400  0.37228100  1
  Cu  Cu4  1  0.25000000  0.04487100  0.30590700  1
  Cu  Cu5  1  0.25000000  0.71861900  0.62782800  1
  Cu  Cu6  1  0.25000000  0.45510500  0.80587500  1
  Cu  Cu7  1  0.75000000  0.95506900  0.69407200  1
  Bi  Bi0  1  0.75000000  0.64989400  0.94259300  1
  Bi  Bi1  1  0.25000000  0.14999600  0.55741700  1
  Bi  Bi2  1  0.74999900  0.85008700  0.44259900  1
  Bi  Bi3  1  0.25000000  0.35006700  0.05743000  1
  As  As0  1  0.25000100  0.52458900  0.37271600  1
  As  As1  1  0.75000000  0.47561700  0.62729300  1
  As  As2  1  0.25000000  0.97542300  0.87269500  1
  As  As3  1  0.75000000  0.02450500  0.12726600  1
  O  O0  1  0.25000000  0.75581100  0.87909800  1
  O  O1  1  0.98904200  0.05594300  0.79978100  1
  O  O2  1  0.48925300  0.55594900  0.70017100  1
  O  O3  1  0.49885700  0.38928500  0.91084300  1
  O  O4  1  0.50127000  0.61064800  0.08924400  1
  O  O5  1  0.49902400  0.11072700  0.41090400  1
  O  O6  1  0.25000000  0.74421700  0.37908600  1
  O  O7  1  0.75000000  0.25596600  0.62093000  1
  O  O8  1  0.51095700  0.05594300  0.79978100  1
  O  O9  1  0.74999900  0.56509700  0.50283100  1
  O  O10  1  0.01074500  0.55594900  0.70017100  1
  O  O11  1  0.51111600  0.44397900  0.29974000  1
  O  O12  1  0.98888600  0.44398000  0.29974000  1
  O  O13  1  0.00114300  0.38928500  0.91084300  1
  O  O14  1  0.99872900  0.61064800  0.08924400  1
  O  O15  1  0.48918300  0.94397400  0.20012900  1
  O  O16  1  0.75000000  0.24414700  0.12093300  1
  O  O17  1  0.74999900  0.93483100  0.00282200  1
  O  O18  1  0.50138300  0.88939800  0.58920100  1
  O  O19  1  0.99861700  0.88939800  0.58920100  1
  O  O20  1  0.01081600  0.94397400  0.20012900  1
  O  O21  1  0.24999900  0.43483600  0.49706400  1
  O  O22  1  0.24999900  0.06515400  0.99709300  1
  O  O23  1  0.00097900  0.11072500  0.41090400  1
loop_
_geom_bond_atom_site_label_1
_geom_bond_atom_site_label_2
_geom_bond_distance
_geom_bond_site_symmetry_2
Cu0 O13 1.937309 1_655
Cu0 O3 1.937310 1_555
Cu0 O1 2.001748 1_555
Cu0 O8 2.001751 1_555
Cu1 O14 1.925359 1_555
Cu1 O4 1.925363 1_555
Cu1 O11 1.988324 1_555
Cu1 O12 1.988328 1_555
Cu1 O16 2.504000 1_555
Cu2 O4 1.937532 1_555
Cu2 O14 1.937535 1_455
Cu2 O15 2.001402 1_555
Cu2 O20 2.001406 1_555
Cu3 O23 1.936281 1_655
Cu3 O5 1.936302 1_555
Cu3 O12 2.001894 1_555
Cu3 O11 2.001924 1_555
Cu4 O23 1.927974 1_555
Cu4 O5 1.927989 1_555
Cu4 O15 1.989743 1_545
Cu4 O20 1.989746 1_545
Cu4 O6 2.503499 1_545
Cu5 O18 1.938100 1_555
Cu5 O19 1.938101 1_455
Cu5 O2 2.002679 1_555
Cu5 O10 2.002685 1_555
Cu6 O13 1.927250 1_555
Cu6 O3 1.927251 1_555
Cu6 O2 1.989481 1_555
Cu6 O10 1.989489 1_555
Cu6 O0 2.503619 1_555
Cu7 O18 1.925066 1_555
Cu7 O19 1.925067 1_555
Cu7 O1 1.988625 1_565
Cu7 O8 1.988629 1_565
Cu7 O7 2.505084 1_565
Bi0 O14 2.276020 1_556
Bi0 O4 2.276023 1_556
Bi0 O17 2.333036 1_556
Bi0 O3 2.450510 1_555
Bi0 O13 2.450511 1_655
Bi1 O23 2.275423 1_555
Bi1 O5 2.275430 1_555
Bi1 O21 2.333205 1_555
Bi1 O19 2.451373 1_445
Bi1 O18 2.451374 1_545
Bi2 O18 2.275117 1_555
Bi2 O19 2.275123 1_555
Bi2 O9 2.333818 1_555
Bi2 O5 2.450291 1_565
Bi2 O23 2.450291 1_665
Bi3 O3 2.275740 1_554
Bi3 O13 2.275740 1_554
Bi3 O22 2.333294 1_554
Bi3 O4 2.450825 1_555
Bi3 O14 2.450829 1_455
As0 O21 1.701725 1_555
As0 O6 1.704273 1_555
As0 O12 1.769510 1_455
As0 O11 1.769513 1_555
As1 O9 1.702161 1_555
As1 O7 1.704447 1_555
As1 O10 1.766592 1_655
As1 O2 1.766601 1_555
As2 O22 1.701885 1_565
As2 O0 1.704211 1_555
As2 O8 1.768386 1_565
As2 O1 1.768391 1_465
As3 O17 1.702229 1_545
As3 O16 1.704402 1_555
As3 O20 1.767506 1_645
As3 O15 1.767510 1_545
