# generated using pymatgen
data_H7BrO3
_symmetry_space_group_name_H-M   'P 1'
_cell_length_a   6.67008318
_cell_length_b   6.67008318
_cell_length_c   6.12895623
_cell_angle_alpha   88.15364771
_cell_angle_beta   88.15364771
_cell_angle_gamma   58.54625193
_symmetry_Int_Tables_number   1
_chemical_formula_structural   H7BrO3
_chemical_formula_sum   'H14 Br2 O6'
_cell_volume   232.45184529
_cell_formula_units_Z   2
loop_
 _symmetry_equiv_pos_site_id
 _symmetry_equiv_pos_as_xyz
  1  'x, y, z'
loop_
 _atom_site_type_symbol
 _atom_site_label
 _atom_site_symmetry_multiplicity
 _atom_site_fract_x
 _atom_site_fract_y
 _atom_site_fract_z
 _atom_site_occupancy
  H  H0  1  0.13807400  0.51907000  0.45785800  1
  H  H1  1  0.18495800  0.67881100  0.61228200  1
  H  H2  1  0.51907000  0.13807400  0.95785800  1
  H  H3  1  0.67881100  0.18495800  0.11228200  1
  H  H4  1  0.02148500  0.96384900  0.86433100  1
  H  H5  1  0.25832300  0.93129100  0.74584000  1
  H  H6  1  0.47611800  0.75418800  0.23250100  1
  H  H7  1  0.31957100  0.73664500  0.03364000  1
  H  H8  1  0.30986100  0.64425000  0.30241000  1
  H  H9  1  0.75418800  0.47611800  0.73250100  1
  H  H10  1  0.73664500  0.31957100  0.53364000  1
  H  H11  1  0.64425000  0.30986100  0.80241000  1
  H  H12  1  0.96384900  0.02148500  0.36433100  1
  H  H13  1  0.93129100  0.25832300  0.24584000  1
  Br  Br0  1  0.45219300  0.01240700  0.50021600  1
  Br  Br1  1  0.01240700  0.45219300  0.00021600  1
  O  O0  1  0.14865300  0.66079600  0.46112600  1
  O  O1  1  0.66079600  0.14865300  0.96112600  1
  O  O2  1  0.18827600  0.85021200  0.83339200  1
  O  O3  1  0.41994700  0.65398400  0.17356600  1
  O  O4  1  0.65398400  0.41994700  0.67356600  1
  O  O5  1  0.85021200  0.18827600  0.33339200  1
loop_
_geom_bond_atom_site_label_1
_geom_bond_atom_site_label_2
_geom_bond_distance
_geom_bond_site_symmetry_2
H0 O0 0.984857 1_555
H1 O0 0.991638 1_555
H2 O1 0.984857 1_555
H3 O1 0.991638 1_554
H4 O2 0.981728 1_555
H5 O2 1.013679 1_555
H6 O3 1.001588 1_555
H7 O3 1.053095 1_555
H7 O2 1.471078 1_554
H8 O3 1.084466 1_555
H8 O0 1.389361 1_555
H9 O4 1.001588 1_555
H10 O4 1.053095 1_555
H10 O5 1.471078 1_555
H11 O4 1.084466 1_555
H11 O1 1.389361 1_555
H12 O5 0.981728 1_555
H13 O5 1.013679 1_555
Br0 H5 2.187108 1_545
Br1 H13 2.187108 1_455
