# generated using pymatgen
data_MgBe2B
_symmetry_space_group_name_H-M   'P 1'
_cell_length_a   3.85777661
_cell_length_b   3.85777661
_cell_length_c   3.85777661
_cell_angle_alpha   60.00000000
_cell_angle_beta   60.00000000
_cell_angle_gamma   60.00000000
_symmetry_Int_Tables_number   1
_chemical_formula_structural   MgBe2B
_chemical_formula_sum   'Mg1 Be2 B1'
_cell_volume   40.59721376
_cell_formula_units_Z   1
loop_
 _symmetry_equiv_pos_site_id
 _symmetry_equiv_pos_as_xyz
  1  'x, y, z'
loop_
 _atom_site_type_symbol
 _atom_site_label
 _atom_site_symmetry_multiplicity
 _atom_site_fract_x
 _atom_site_fract_y
 _atom_site_fract_z
 _atom_site_occupancy
  Mg  Mg0  1  0.75000000  0.75000000  0.75000000  1
  Be  Be0  1  0.00000000  0.00000000  0.00000000  1
  Be  Be1  1  0.25000000  0.25000000  0.25000000  1
  B  B0  1  0.50000000  0.50000000  0.50000000  1
loop_
_geom_bond_atom_site_label_1
_geom_bond_atom_site_label_2
_geom_bond_distance
_geom_bond_site_symmetry_2
Be0 Be1 2.362396 1_554
Be0 Mg0 2.362396 1_444
Be0 Be1 2.362396 1_555
Be0 Mg0 2.362396 1_445
Be0 Mg0 2.362396 1_544
Be0 Be1 2.362396 1_455
Be0 Mg0 2.362396 1_454
Be0 Be1 2.362396 1_545
B0 Be1 2.362396 1_556
B0 Be1 2.362396 1_555
B0 Mg0 2.362396 1_554
B0 Mg0 2.362396 1_555
B0 Be1 2.362396 1_655
B0 Mg0 2.362396 1_545
B0 Mg0 2.362396 1_455
B0 Be1 2.362396 1_565
