# generated using pymatgen
data_La19Mn19O60
_symmetry_space_group_name_H-M   'P 1'
_cell_length_a   11.05135905
_cell_length_b   30.68159008
_cell_length_c   14.57445660
_cell_angle_alpha   18.37332385
_cell_angle_beta   56.36524724
_cell_angle_gamma   51.91867875
_symmetry_Int_Tables_number   1
_chemical_formula_structural   La19Mn19O60
_chemical_formula_sum   'La19 Mn19 O60'
_cell_volume   1216.23249687
_cell_formula_units_Z   1
loop_
 _symmetry_equiv_pos_site_id
 _symmetry_equiv_pos_as_xyz
  1  'x, y, z'
loop_
 _atom_site_type_symbol
 _atom_site_label
 _atom_site_symmetry_multiplicity
 _atom_site_fract_x
 _atom_site_fract_y
 _atom_site_fract_z
 _atom_site_occupancy
  La  La0  1  0.33549417  0.04958346  0.75478544  1
  La  La1  1  0.55003852  0.15099056  0.24886047  1
  La  La2  1  0.24649701  0.24298725  0.77202684  1
  La  La3  1  0.44942389  0.34820747  0.25334619  1
  La  La4  1  0.14558148  0.44555976  0.75706315  1
  La  La5  1  0.35041861  0.54932868  0.25255979  1
  La  La6  1  0.86152467  0.04750366  0.75804902  1
  La  La7  1  0.04705779  0.66572481  0.71397885  1
  La  La8  1  0.24277731  0.75991640  0.23701094  1
  La  La9  1  0.75776625  0.23984272  0.76187399  1
  La  La10  1  0.95256804  0.33434597  0.28422788  1
  La  La11  1  0.14009587  0.95541545  0.23262979  1
  La  La12  1  0.66095793  0.44264735  0.76214772  1
  La  La13  1  0.85046194  0.54894433  0.25227594  1
  La  La14  1  0.54939288  0.65147177  0.74776543  1
  La  La15  1  0.75527836  0.75161654  0.24315405  1
  La  La16  1  0.44006072  0.85719537  0.73602636  1
  La  La17  1  0.66099104  0.95256253  0.24117136  1
  La  La18  1  0.95505912  0.85814698  0.73710098  1
  Mn  Mn0  1  0.50043961  -0.00002308  0.99921608  1
  Mn  Mn1  1  0.19919715  0.10059416  0.49496225  1
  Mn  Mn2  1  0.39728562  0.19887193  0.00382205  1
  Mn  Mn3  1  0.10070840  0.30478454  0.49113518  1
  Mn  Mn4  1  0.30113778  0.39988972  -0.00015956  1
  Mn  Mn5  1  0.99992611  0.49737747  0.50553250  1
  Mn  Mn6  1  0.20027360  0.60009999  0.00033923  1
  Mn  Mn7  1  0.70337635  0.09894770  0.50196404  1
  Mn  Mn8  1  0.90140979  0.19944147  0.00269183  1
  Mn  Mn9  1  0.09941449  0.80272153  0.99471800  1
  Mn  Mn10  1  0.59680570  0.30213688  0.49659085  1
  Mn  Mn11  1  0.80185166  0.39787307  0.00256031  1
  Mn  Mn12  1  0.49917038  0.50070367  0.49914722  1
  Mn  Mn13  1  0.69922213  0.60104482  0.99822627  1
  Mn  Mn14  1  0.40350325  0.69692231  0.50476642  1
  Mn  Mn15  1  0.59970290  0.79983308  0.99966110  1
  Mn  Mn16  1  0.29895472  0.90319251  0.49338353  1
  Mn  Mn17  1  0.89932405  0.69574317  0.50869687  1
  Mn  Mn18  1  0.79887417  0.89979695  0.50286291  1
  O  O0  1  0.08785395  0.01946688  0.30746670  1
  O  O1  1  0.33295133  0.05651611  0.24800407  1
  O  O2  1  0.12497819  0.02370438  0.78172901  1
  O  O3  1  0.29670553  0.18832275  0.18599021  1
  O  O4  1  0.21534781  0.26251413  0.25083428  1
  O  O5  1  0.58036125  0.02656037  0.31217244  1
  O  O6  1  0.08518758  0.15332845  0.72367936  1
  O  O7  1  0.01611024  0.21473401  0.80780960  1
  O  O8  1  0.18101966  0.39419120  0.17663782  1
  O  O9  1  0.10958808  0.46284969  0.25291449  1
  O  O10  1  0.47743200  0.22395342  0.31854071  1
  O  O11  1  0.81277112  0.06070011  0.25356118  1
  O  O12  1  0.31805861  0.17704489  0.68524502  1
  O  O13  1  0.08255177  0.59236381  0.17846786  1
  O  O14  1  0.61628063  0.01359517  0.81181182  1
  O  O15  1  0.76680034  0.18505941  0.19264247  1
  O  O16  1  0.01814100  0.66121923  0.24993238  1
  O  O17  1  0.38098429  0.41761520  0.32887722  1
  O  O18  1  0.70860340  0.26726246  0.24249081  1
  O  O19  1  0.22172862  0.37441956  0.68701336  1
  O  O20  1  0.59104317  0.13392110  0.75541939  1
  O  O21  1  0.51834416  0.21461429  0.81064490  1
  O  O22  1  0.67491084  0.38985679  0.18432803  1
  O  O23  1  0.28081571  0.61972010  0.32063719  1
  O  O24  1  0.60930325  0.46711715  0.24160622  1
  O  O25  1  0.97602161  0.23571671  0.30398105  1
  O  O26  1  0.12088661  0.57521461  0.68706942  1
  O  O27  1  0.49146172  0.33956754  0.74232644  1
  O  O28  1  0.80093069  0.18317285  0.67967550  1
  O  O29  1  0.41931473  0.41079951  0.81540441  1
  O  O30  1  0.57708545  0.59345313  0.17757490  1
  O  O31  1  0.19957003  0.81575344  0.32162299  1
  O  O32  1  0.50822993  0.66270581  0.25202292  1
  O  O33  1  0.87821935  0.42576689  0.31382432  1
  O  O34  1  0.01828670  0.77456765  0.68723410  1
  O  O35  1  0.39559203  0.53039044  0.76177929  1
  O  O36  1  0.71582168  0.37688748  0.68536861  1
  O  O37  1  0.32022999  0.60993423  0.81968233  1
  O  O38  1  0.48427764  0.78774181  0.18399529  1
  O  O39  1  0.41065006  0.86381499  0.24765498  1
  O  O40  1  0.77883792  0.62825888  0.30540611  1
  O  O41  1  0.29051650  0.73110231  0.76272452  1
  O  O42  1  0.61701777  0.57864231  0.68291303  1
  O  O43  1  0.97829389  0.35191415  0.71628767  1
  O  O44  1  0.22071113  0.80988183  0.81681890  1
  O  O45  1  0.38354327  0.98594662  0.18751188  1
  O  O46  1  0.90600157  0.43632199  0.77211928  1
  O  O47  1  0.68153483  0.82206757  0.31666909  1
  O  O48  1  0.19284893  0.92328548  0.78403979  1
  O  O49  1  0.52094987  0.77489302  0.68473985  1
  O  O50  1  0.88839840  0.53896584  0.74583426  1
  O  O51  1  0.81894462  0.60657743  0.82257373  1
  O  O52  1  0.98287855  0.78529742  0.19240779  1
  O  O53  1  0.91388462  0.84729397  0.27617723  1
  O  O54  1  0.42234193  0.97200669  0.69120820  1
  O  O55  1  0.78721081  0.73872601  0.74581734  1
  O  O56  1  0.71995620  0.80973760  0.81642636  1
  O  O57  1  0.87469287  0.97866016  0.21380232  1
  O  O58  1  0.68633704  0.93656219  0.75131822  1
  O  O59  1  0.90862506  0.95577780  0.73136007  1
loop_
_geom_bond_atom_site_label_1
_geom_bond_atom_site_label_2
_geom_bond_distance
_geom_bond_site_symmetry_2
La0 O6 2.403775 1_555
La0 O38 2.467596 1_546
La0 O10 2.499685 1_555
La0 O2 2.621456 1_555
La0 O4 2.723457 1_555
La0 O54 2.797841 1_545
La0 O39 2.799109 1_546
La0 O12 2.849883 1_555
La0 O14 2.903039 1_555
La0 O31 3.004547 1_546
La0 O8 3.205715 1_555
La0 O58 3.254355 1_545
La1 O29 2.421072 1_554
La1 O54 2.448457 1_545
La1 O11 2.459172 1_555
La1 O15 2.606022 1_555
La1 O3 2.623698 1_555
La1 O5 2.759847 1_555
La1 O58 2.780238 1_545
La1 O10 2.807695 1_555
La1 O27 2.827903 1_554
La2 O43 2.430925 1_455
La2 O45 2.437413 1_546
La2 O17 2.477478 1_555
La2 O1 2.652756 1_556
La2 O19 2.720703 1_555
La2 O21 2.795958 1_555
La2 O7 2.810610 1_555
La2 O12 2.844947 1_555
La2 O9 2.873332 1_555
La2 O0 3.016603 1_556
La2 O13 3.228272 1_555
La2 O20 3.248640 1_555
La3 O12 2.418109 1_555
La3 O18 2.421957 1_555
La3 O37 2.447494 1_554
La3 O10 2.743563 1_555
La3 O35 2.745158 1_554
La3 O8 2.748897 1_555
La3 O22 2.750641 1_555
La3 O17 2.803405 1_555
La3 O20 2.810688 1_555
La4 O3 2.412201 1_556
La4 O50 2.428039 1_455
La4 O23 2.460446 1_555
La4 O19 2.743478 1_555
La4 O4 2.831548 1_556
La4 O26 2.864711 1_555
La5 O19 2.420323 1_555
La5 O44 2.425065 1_554
La5 O24 2.435076 1_555
La5 O23 2.722684 1_555
La5 O27 2.749095 1_555
La5 O41 2.760169 1_554
La5 O30 2.764863 1_555
La5 O13 2.772393 1_555
La5 O17 2.807689 1_555
La6 O25 2.438303 1_555
La6 O52 2.454816 1_546
La6 O20 2.474693 1_555
La6 O2 2.672365 1_655
La6 O28 2.732080 1_555
La6 O53 2.739436 1_546
La6 O59 2.896367 1_545
La6 O14 2.936040 1_555
La6 O18 2.937291 1_555
La6 O48 3.107724 1_645
La6 O22 3.190377 1_555
La6 O47 3.198371 1_546
La7 O31 2.379424 1_555
La7 O55 2.457804 1_455
La7 O8 2.507091 1_556
La7 O53 2.595249 1_455
La7 O26 2.729279 1_555
La7 O34 2.786021 1_555
La7 O51 2.815181 1_455
La7 O37 2.861764 1_555
La7 O9 2.970972 1_556
La7 O57 2.988273 1_455
La7 O35 3.211839 1_555
La7 O33 3.289899 1_456
La8 O2 2.422400 1_564
La8 O26 2.455423 1_555
La8 O32 2.495768 1_555
La8 O48 2.613056 1_554
La8 O31 2.651819 1_555
La8 O52 2.761741 1_455
La8 O38 2.779045 1_555
La8 O35 2.889395 1_555
La8 O23 2.924195 1_555
La8 O53 3.051261 1_455
La8 O54 3.122935 1_554
La8 O29 3.264783 1_555
La9 O57 2.396296 1_546
La9 O33 2.447246 1_555
La9 O27 2.504150 1_555
La9 O28 2.642593 1_555
La9 O21 2.739349 1_555
La9 O7 2.760141 1_655
La9 O11 2.806651 1_556
La9 O24 2.850108 1_555
La9 O36 2.899577 1_555
La10 O28 2.385060 1_555
La10 O4 2.470370 1_655
La10 O51 2.517946 1_554
La10 O25 2.601716 1_555
La10 O6 2.618479 1_655
La10 O33 2.791011 1_555
La10 O8 2.841183 1_655
La10 O22 2.869159 1_555
La10 O50 2.942591 1_554
La10 O2 2.962871 1_655
La10 O24 3.180574 1_555
La10 O26 3.281004 1_654
La11 O7 2.442236 1_564
La11 O34 2.460388 1_555
La11 O39 2.465352 1_555
La11 O57 2.669561 1_455
La11 O6 2.685430 1_564
La11 O0 2.712227 1_565
La11 O31 2.719760 1_555
La11 O45 2.920299 1_555
La11 O41 3.001776 1_555
La11 O11 3.137975 1_465
La11 O12 3.146743 1_564
La11 O37 3.197782 1_555
La12 O15 2.409128 1_556
La12 O40 2.456063 1_555
La12 O35 2.469605 1_555
La12 O46 2.669559 1_555
La12 O18 2.707344 1_556
La12 O36 2.777632 1_555
La12 O42 2.820572 1_555
La12 O29 2.858649 1_555
La12 O32 2.877016 1_555
La12 O43 3.063877 1_555
La12 O10 3.191654 1_556
La12 O38 3.210276 1_555
La13 O9 2.414553 1_655
La13 O56 2.428149 1_554
La13 O36 2.442036 1_555
La13 O43 2.593754 1_555
La13 O33 2.760765 1_555
La13 O40 2.769397 1_555
La13 O30 2.812517 1_555
La13 O13 2.819412 1_655
La13 O55 2.827493 1_554
La14 O47 2.418698 1_555
La14 O41 2.428862 1_555
La14 O22 2.437804 1_556
La14 O49 2.744365 1_555
La14 O42 2.758847 1_555
La14 O24 2.761090 1_556
La14 O37 2.764425 1_555
La14 O51 2.765118 1_555
La14 O39 2.801665 1_555
La15 O16 2.449527 1_655
La15 O14 2.458780 1_564
La15 O42 2.484273 1_555
La15 O52 2.763408 1_555
La15 O58 2.770579 1_554
La15 O40 2.782824 1_555
La15 O38 2.809518 1_555
La16 O48 2.409781 1_555
La16 O5 2.442850 1_565
La16 O30 2.454945 1_556
La16 O1 2.688395 1_565
La16 O44 2.702685 1_555
La16 O49 2.791430 1_555
La16 O54 2.792340 1_555
La16 O56 2.877881 1_555
La16 O32 2.878513 1_556
La17 O53 2.412451 1_555
La17 O21 2.463409 1_564
La17 O49 2.517688 1_555
La17 O57 2.657208 1_555
La17 O55 2.751766 1_555
La17 O20 2.768806 1_564
La17 O5 2.821633 1_565
La17 O47 2.843622 1_555
La17 O45 2.885142 1_555
La17 O28 3.000117 1_564
La17 O1 3.043832 1_565
La17 O51 3.214494 1_555
La18 O0 2.411551 1_665
La18 O58 2.470131 1_555
La18 O13 2.483099 1_656
La18 O59 2.630371 1_555
La18 O44 2.704058 1_655
La18 O16 2.778074 1_656
La18 O11 2.802280 1_565
La18 O34 2.890822 1_655
La18 O56 2.909780 1_555
La18 O15 3.062562 1_565
La18 O41 3.165779 1_655
La18 O40 3.214903 1_556
Mn0 O14 1.973265 1_555
Mn0 O45 1.975288 1_546
Mn0 O20 1.983850 1_555
Mn0 O39 1.992573 1_546
Mn0 O12 2.010215 1_555
Mn0 O47 2.013466 1_546
Mn1 O2 1.892368 1_555
Mn1 O3 1.969945 1_555
Mn1 O48 1.997627 1_545
Mn1 O25 2.026659 1_455
Mn1 O4 2.052369 1_555
Mn1 O54 2.054598 1_545
Mn2 O1 1.942212 1_555
Mn2 O19 1.980952 1_554
Mn2 O3 1.983129 1_555
Mn2 O21 1.998312 1_554
Mn2 O5 2.005546 1_555
Mn2 O27 2.040630 1_554
Mn3 O6 1.885787 1_555
Mn3 O9 1.958099 1_555
Mn3 O8 1.988381 1_555
Mn3 O12 2.000932 1_555
Mn3 O7 2.003013 1_555
Mn3 O33 2.018880 1_455
Mn4 O4 1.966794 1_555
Mn4 O35 1.983704 1_554
Mn4 O10 1.992791 1_555
Mn4 O26 1.995735 1_554
Mn4 O29 1.996435 1_554
Mn4 O8 2.018473 1_555
Mn5 O46 1.949061 1_555
Mn5 O43 1.973199 1_555
Mn5 O16 2.015368 1_655
Mn5 O19 2.018014 1_655
Mn5 O13 2.035329 1_655
Mn5 O40 2.040396 1_555
Mn6 O41 1.960071 1_554
Mn6 O37 1.974796 1_554
Mn6 O13 1.989600 1_555
Mn6 O9 1.996182 1_555
Mn6 O34 2.011385 1_554
Mn6 O17 2.044294 1_555
Mn7 O59 1.963069 1_545
Mn7 O15 1.992999 1_555
Mn7 O14 2.006327 1_555
Mn7 O18 2.007902 1_555
Mn7 O58 2.024331 1_545
Mn7 O10 2.052271 1_555
Mn8 O43 1.985192 1_554
Mn8 O15 2.000174 1_555
Mn8 O0 2.004131 1_655
Mn8 O11 2.020672 1_555
Mn8 O7 2.027317 1_654
Mn8 O36 2.044254 1_554
Mn9 O59 1.941750 1_455
Mn9 O48 1.954154 1_555
Mn9 O16 1.987246 1_556
Mn9 O44 1.999897 1_555
Mn9 O52 2.015183 1_456
Mn9 O23 2.037124 1_556
Mn10 O28 1.885952 1_555
Mn10 O17 1.952714 1_555
Mn10 O22 1.991526 1_555
Mn10 O24 2.010320 1_555
Mn10 O20 2.014256 1_555
Mn10 O21 2.014856 1_555
Mn11 O25 1.956130 1_555
Mn11 O18 1.963007 1_555
Mn11 O46 1.966926 1_554
Mn11 O50 2.013492 1_554
Mn11 O22 2.029407 1_555
Mn11 O42 2.039932 1_554
Mn12 O32 1.980705 1_555
Mn12 O27 1.984432 1_555
Mn12 O36 1.984792 1_555
Mn12 O23 1.994784 1_555
Mn12 O29 1.999374 1_555
Mn12 O30 2.010638 1_555
Mn13 O24 1.980291 1_556
Mn13 O55 1.982883 1_555
Mn13 O49 1.989996 1_555
Mn13 O33 1.999365 1_556
Mn13 O30 2.008077 1_556
Mn13 O51 2.008267 1_555
Mn14 O31 1.885088 1_555
Mn14 O42 1.954122 1_555
Mn14 O35 2.001682 1_555
Mn14 O39 2.004852 1_555
Mn14 O37 2.033707 1_555
Mn14 O38 2.033955 1_555
Mn15 O54 1.967588 1_555
Mn15 O38 1.969285 1_556
Mn15 O40 1.969998 1_556
Mn15 O58 1.977796 1_555
Mn15 O32 2.001824 1_556
Mn15 O56 2.004125 1_555
Mn16 O1 1.954577 1_565
Mn16 O0 1.974931 1_565
Mn16 O45 2.005328 1_555
Mn16 O44 2.021883 1_555
Mn16 O49 2.030199 1_555
Mn16 O41 2.039214 1_555
Mn17 O53 1.881853 1_555
Mn17 O50 1.948612 1_555
Mn17 O51 1.985565 1_555
Mn17 O47 2.003488 1_555
Mn17 O52 2.006403 1_555
Mn17 O26 2.015926 1_655
Mn18 O57 1.883500 1_555
Mn18 O11 1.966759 1_565
Mn18 O56 1.967277 1_555
Mn18 O34 1.998008 1_655
Mn18 O5 2.003753 1_565
Mn18 O55 2.010876 1_555
