# generated using pymatgen
data_Ba6Fe14Cu11S27
_symmetry_space_group_name_H-M   'P 1'
_cell_length_a   10.20852400
_cell_length_b   10.32883286
_cell_length_c   10.44188587
_cell_angle_alpha   89.53904977
_cell_angle_beta   89.88420543
_cell_angle_gamma   89.87428441
_symmetry_Int_Tables_number   1
_chemical_formula_structural   Ba6Fe14Cu11S27
_chemical_formula_sum   'Ba6 Fe14 Cu11 S27'
_cell_volume   1100.97428247
_cell_formula_units_Z   1
loop_
 _symmetry_equiv_pos_site_id
 _symmetry_equiv_pos_as_xyz
  1  'x, y, z'
loop_
 _atom_site_type_symbol
 _atom_site_label
 _atom_site_symmetry_multiplicity
 _atom_site_fract_x
 _atom_site_fract_y
 _atom_site_fract_z
 _atom_site_occupancy
  Ba  Ba0  1  0.30338800  0.00004800  0.99758600  1
  Ba  Ba1  1  0.69680300  0.00065200  0.99706700  1
  Ba  Ba2  1  0.00054200  0.00069100  0.30306700  1
  Ba  Ba3  1  0.00004300  0.99976200  0.69780000  1
  Ba  Ba4  1  0.00036200  0.69667200  0.99713700  1
  Ba  Ba5  1  0.99996400  0.30338900  0.99911600  1
  Fe  Fe0  1  0.37035400  0.63027400  0.13659200  1
  Fe  Fe1  1  0.62953400  0.62874800  0.13520600  1
  Fe  Fe2  1  0.37152700  0.36969600  0.13778000  1
  Fe  Fe3  1  0.62879400  0.36912400  0.13803200  1
  Fe  Fe4  1  0.63044200  0.86707700  0.37235600  1
  Fe  Fe5  1  0.62779400  0.13535100  0.36785300  1
  Fe  Fe6  1  0.13328900  0.63262400  0.36696200  1
  Fe  Fe7  1  0.86561100  0.63234600  0.36841800  1
  Fe  Fe8  1  0.37246700  0.13948300  0.36747700  1
  Fe  Fe9  1  0.50051700  0.50083800  0.50472500  1
  Fe  Fe10  1  0.63278600  0.85978300  0.63186400  1
  Fe  Fe11  1  0.13434500  0.36515000  0.63414200  1
  Fe  Fe12  1  0.36831100  0.86143800  0.63309100  1
  Fe  Fe13  1  0.86596100  0.36534200  0.63449500  1
  Cu  Cu0  1  0.14131600  0.36482000  0.36547600  1
  Cu  Cu1  1  0.85868900  0.36458100  0.36513500  1
  Cu  Cu2  1  0.36422100  0.85925900  0.36483000  1
  Cu  Cu3  1  0.14027600  0.63591400  0.63434700  1
  Cu  Cu4  1  0.63578300  0.14033700  0.63489600  1
  Cu  Cu5  1  0.85969100  0.63571100  0.63430200  1
  Cu  Cu6  1  0.36473900  0.13951700  0.63424200  1
  Cu  Cu7  1  0.63315800  0.63421700  0.85823800  1
  Cu  Cu8  1  0.36713200  0.63375600  0.85895400  1
  Cu  Cu9  1  0.63430400  0.36738500  0.85881100  1
  Cu  Cu10  1  0.36561700  0.36723000  0.85866000  1
  S  S0  1  0.00009200  0.99985300  0.00146800  1
  S  S1  1  0.50020100  0.24795000  0.00195500  1
  S  S2  1  0.21898200  0.77796600  0.21910000  1
  S  S3  1  0.77864400  0.77998900  0.22091000  1
  S  S4  1  0.22183600  0.21978600  0.21951900  1
  S  S5  1  0.77875300  0.21925600  0.21967100  1
  S  S6  1  0.99937400  0.50327700  0.24613900  1
  S  S7  1  0.50040700  0.99891500  0.24257500  1
  S  S8  1  0.49995700  0.50056200  0.27299400  1
  S  S9  1  0.26502200  0.49963100  0.50137800  1
  S  S10  1  0.50026500  0.26800500  0.49986400  1
  S  S11  1  0.99982100  0.75466100  0.49548600  1
  S  S12  1  0.75495700  0.00018200  0.49975800  1
  S  S13  1  0.49949500  0.72973700  0.50191200  1
  S  S14  1  0.73476700  0.49914300  0.50174900  1
  S  S15  1  0.00017900  0.24553000  0.50332500  1
  S  S16  1  0.24806300  0.99945800  0.49962800  1
  S  S17  1  0.50002200  0.50050600  0.73162100  1
  S  S18  1  0.99974800  0.49724500  0.75380800  1
  S  S19  1  0.50023000  0.99715000  0.75296200  1
  S  S20  1  0.22053400  0.78160300  0.77869500  1
  S  S21  1  0.78062900  0.78180400  0.77896000  1
  S  S22  1  0.21819000  0.22170200  0.77911700  1
  S  S23  1  0.78182300  0.22150500  0.77882000  1
  S  S24  1  0.50003400  0.75268700  0.00322200  1
  S  S25  1  0.24773600  0.50062100  0.00368700  1
  S  S26  1  0.75247800  0.50006000  0.00302000  1
loop_
_geom_bond_atom_site_label_1
_geom_bond_atom_site_label_2
_geom_bond_distance
_geom_bond_site_symmetry_2
Ba0 S0 3.096393 1_546
Ba0 S24 3.246029 1_546
Ba0 S19 3.247107 1_545
Ba0 S7 3.257251 1_546
Ba0 S1 3.258839 1_556
Ba0 S22 3.334244 1_555
Ba0 S20 3.336092 1_545
Ba0 S2 3.357011 1_546
Ba0 S4 3.359052 1_556
Ba1 S0 3.096559 1_646
Ba1 S1 3.245667 1_556
Ba1 S19 3.247720 1_545
Ba1 S7 3.251233 1_546
Ba1 S24 3.258556 1_546
Ba1 S23 3.326777 1_555
Ba1 S21 3.330936 1_545
Ba1 S3 3.357041 1_546
Ba1 S5 3.361779 1_556
Ba2 S0 3.149357 1_545
Ba2 S11 3.226854 1_445
Ba2 S12 3.237692 1_455
Ba2 S16 3.258531 1_545
Ba2 S15 3.294381 1_555
Ba2 S5 3.306803 1_455
Ba2 S4 3.311857 1_555
Ba2 S2 3.322002 1_545
Ba2 S3 3.335542 1_445
Ba3 S0 3.170875 1_556
Ba3 S15 3.238011 1_565
Ba3 S12 3.249141 1_465
Ba3 S16 3.266722 1_555
Ba3 S21 3.284389 1_455
Ba3 S20 3.288206 1_555
Ba3 S23 3.305335 1_465
Ba3 S11 3.310281 1_455
Ba3 S22 3.316127 1_565
Ba4 S0 3.132191 1_556
Ba4 S25 3.233961 1_556
Ba4 S26 3.248278 1_456
Ba4 S6 3.266032 1_456
Ba4 S18 3.283760 1_455
Ba4 S21 3.312821 1_455
Ba4 S20 3.313585 1_555
Ba4 S2 3.334390 1_556
Ba4 S3 3.365383 1_456
Ba5 S0 3.135069 1_646
Ba5 S18 3.238500 1_555
Ba5 S26 3.238766 1_556
Ba5 S25 3.251896 1_656
Ba5 S22 3.309716 1_655
Ba5 S6 3.316843 1_556
Ba5 S23 3.320553 1_555
Ba5 S5 3.333772 1_556
Ba5 S4 3.339594 1_656
Fe0 S24 2.293952 1_555
Fe0 S25 2.308776 1_555
Fe0 S2 2.337238 1_555
Fe0 S8 2.354404 1_555
Fe1 S24 2.292891 1_555
Fe1 S26 2.293976 1_555
Fe1 S8 2.354182 1_555
Fe1 S3 2.365727 1_555
Fe2 S1 2.309148 1_555
Fe2 S25 2.314178 1_555
Fe2 S4 2.333456 1_555
Fe2 S8 2.363346 1_555
Fe3 S1 2.313458 1_555
Fe3 S26 2.319562 1_555
Fe3 S5 2.332393 1_555
Fe3 S8 2.361014 1_555
Fe4 S12 2.306412 1_565
Fe4 S7 2.328644 1_555
Fe4 S13 2.366329 1_555
Fe4 S3 2.367717 1_555
Fe5 S7 2.330847 1_545
Fe5 S10 2.342574 1_555
Fe5 S5 2.344086 1_555
Fe5 S12 2.345160 1_555
Fe6 S11 2.293172 1_455
Fe6 S6 2.299476 1_455
Fe6 S2 2.316405 1_555
Fe6 S9 2.373585 1_555
Fe7 S11 2.296875 1_555
Fe7 S6 2.298809 1_555
Fe7 S3 2.334086 1_555
Fe7 S14 2.363281 1_555
Fe8 S10 2.328010 1_555
Fe8 S4 2.328699 1_555
Fe8 S7 2.351616 1_545
Fe8 S16 2.361700 1_545
Fe9 S13 2.364206 1_555
Fe9 S17 2.369192 1_555
Fe9 S14 2.391513 1_555
Fe9 S9 2.404442 1_555
Fe9 S10 2.405844 1_555
Fe9 S8 2.419752 1_555
Fe10 S21 2.295623 1_555
Fe10 S19 2.335964 1_555
Fe10 S12 2.351610 1_565
Fe10 S13 2.354118 1_555
Fe11 S22 2.276647 1_555
Fe11 S15 2.304449 1_555
Fe11 S18 2.307193 1_455
Fe11 S9 2.366545 1_555
Fe12 S20 2.289841 1_555
Fe12 S19 2.321318 1_555
Fe12 S16 2.334221 1_555
Fe12 S13 2.352597 1_555
Fe13 S23 2.276056 1_555
Fe13 S15 2.301528 1_655
Fe13 S18 2.305639 1_555
Fe13 S14 2.365068 1_555
Cu0 S4 2.295390 1_555
Cu0 S9 2.365210 1_555
Cu0 S15 2.374194 1_555
Cu0 S6 2.380576 1_455
Cu1 S5 2.296345 1_555
Cu1 S14 2.363034 1_555
Cu1 S6 2.373177 1_555
Cu1 S15 2.377517 1_655
Cu2 S2 2.292174 1_555
Cu2 S16 2.345803 1_555
Cu2 S7 2.369644 1_555
Cu2 S13 2.390547 1_555
Cu3 S20 2.292256 1_555
Cu3 S9 2.355295 1_555
Cu3 S11 2.373757 1_455
Cu3 S18 2.374557 1_455
Cu4 S23 2.284479 1_555
Cu4 S12 2.363290 1_555
Cu4 S19 2.365337 1_545
Cu4 S10 2.368713 1_555
Cu5 S21 2.288325 1_555
Cu5 S14 2.361844 1_555
Cu5 S18 2.369895 1_555
Cu5 S11 2.372259 1_555
Cu6 S22 2.291977 1_555
Cu6 S16 2.352510 1_545
Cu6 S19 2.362393 1_545
Cu6 S10 2.369496 1_555
Cu7 S21 2.293516 1_555
Cu7 S17 2.355307 1_555
Cu7 S24 2.377041 1_556
Cu7 S26 2.378173 1_556
Cu8 S20 2.290947 1_555
Cu8 S17 2.348708 1_555
Cu8 S25 2.372140 1_556
Cu8 S24 2.380004 1_556
Cu9 S23 2.289347 1_555
Cu9 S17 2.345911 1_555
Cu9 S1 2.366337 1_556
Cu9 S26 2.376672 1_556
Cu10 S22 2.291158 1_555
Cu10 S17 2.347084 1_555
Cu10 S1 2.369713 1_556
Cu10 S25 2.378783 1_556
