# generated using pymatgen
data_RbSmH8(SO6)2
_symmetry_space_group_name_H-M   'P 1'
_cell_length_a   19.14428500
_cell_length_b   6.70774600
_cell_length_c   8.65922892
_cell_angle_alpha   84.18823872
_cell_angle_beta   90.00000000
_cell_angle_gamma   90.00000000
_symmetry_Int_Tables_number   1
_chemical_formula_structural   RbSmH8(SO6)2
_chemical_formula_sum   'Rb4 Sm4 H32 S8 O48'
_cell_volume   1106.25927855
_cell_formula_units_Z   4
loop_
 _symmetry_equiv_pos_site_id
 _symmetry_equiv_pos_as_xyz
  1  'x, y, z'
loop_
 _atom_site_type_symbol
 _atom_site_label
 _atom_site_symmetry_multiplicity
 _atom_site_fract_x
 _atom_site_fract_y
 _atom_site_fract_z
 _atom_site_occupancy
  Rb  Rb0  1  0.71824200  0.35139500  0.61920000  1
  Rb  Rb1  1  0.21824200  0.64860500  0.88080000  1
  Rb  Rb2  1  0.28175800  0.64860500  0.38080000  1
  Rb  Rb3  1  0.78175800  0.35139500  0.11920000  1
  Sm  Sm0  1  0.62185800  0.84550300  0.28319800  1
  Sm  Sm1  1  0.12185800  0.15449700  0.21680200  1
  Sm  Sm2  1  0.37814200  0.15449700  0.71680200  1
  Sm  Sm3  1  0.87814200  0.84550300  0.78319800  1
  H  H0  1  0.90787600  0.86589300  0.44209200  1
  H  H1  1  0.40787600  0.13410700  0.05790800  1
  H  H2  1  0.09212400  0.13410700  0.55790800  1
  H  H3  1  0.59212400  0.86589300  0.94209200  1
  H  H4  1  0.97711300  0.75259300  0.48782100  1
  H  H5  1  0.47711300  0.24740700  0.01217900  1
  H  H6  1  0.02288700  0.24740700  0.51217900  1
  H  H7  1  0.52288700  0.75259300  0.98782100  1
  H  H8  1  0.63713400  0.80985000  0.64640800  1
  H  H9  1  0.13713400  0.19015000  0.85359200  1
  H  H10  1  0.36286600  0.19015000  0.35359200  1
  H  H11  1  0.86286600  0.80985000  0.14640800  1
  H  H12  1  0.56793500  0.70283500  0.61037100  1
  H  H13  1  0.06793500  0.29716500  0.88962900  1
  H  H14  1  0.43206500  0.29716500  0.38962900  1
  H  H15  1  0.93206500  0.70283500  0.11037100  1
  H  H16  1  0.60324500  0.30103200  0.94699200  1
  H  H17  1  0.10324500  0.69896800  0.55300800  1
  H  H18  1  0.39675500  0.69896800  0.05300800  1
  H  H19  1  0.89675500  0.30103200  0.44699200  1
  H  H20  1  0.57038300  0.48000800  0.83694900  1
  H  H21  1  0.07038300  0.51999200  0.66305100  1
  H  H22  1  0.42961700  0.51999200  0.16305100  1
  H  H23  1  0.92961700  0.48000800  0.33694900  1
  H  H24  1  0.52703200  0.17158500  0.56802700  1
  H  H25  1  0.02703200  0.82841500  0.93197300  1
  H  H26  1  0.47296800  0.82841500  0.43197300  1
  H  H27  1  0.97296800  0.17158500  0.06802700  1
  H  H28  1  0.53575700  0.23313200  0.73941600  1
  H  H29  1  0.03575700  0.76686800  0.76058400  1
  H  H30  1  0.46424300  0.76686800  0.26058400  1
  H  H31  1  0.96424300  0.23313200  0.23941600  1
  S  S0  1  0.77630700  0.87340700  0.40579600  1
  S  S1  1  0.27630700  0.12659300  0.09420400  1
  S  S2  1  0.22369300  0.12659300  0.59420400  1
  S  S3  1  0.72369300  0.87340700  0.90579600  1
  S  S4  1  0.57560800  0.30208600  0.27190100  1
  S  S5  1  0.07560800  0.69791400  0.22809900  1
  S  S6  1  0.42439200  0.69791400  0.72809900  1
  S  S7  1  0.92439200  0.30208600  0.77190100  1
  O  O0  1  0.65959800  0.91296100  0.80966400  1
  O  O1  1  0.15959800  0.08703900  0.69033600  1
  O  O2  1  0.34040200  0.08703900  0.19033600  1
  O  O3  1  0.84040200  0.91296100  0.30966400  1
  O  O4  1  0.79542300  0.86080200  0.57247100  1
  O  O5  1  0.29542300  0.13919800  0.92752900  1
  O  O6  1  0.20457700  0.13919800  0.42752900  1
  O  O7  1  0.70457700  0.86080200  0.07247100  1
  O  O8  1  0.77545600  0.04037000  0.87127800  1
  O  O9  1  0.27545600  0.95963000  0.62872200  1
  O  O10  1  0.22454400  0.95963000  0.12872200  1
  O  O11  1  0.72454400  0.04037000  0.37127800  1
  O  O12  1  0.75980100  0.68559000  0.87123100  1
  O  O13  1  0.25980100  0.31441000  0.62876900  1
  O  O14  1  0.24019900  0.31441000  0.12876900  1
  O  O15  1  0.74019900  0.68559000  0.37123100  1
  O  O16  1  0.88259300  0.48433100  0.79038300  1
  O  O17  1  0.38259300  0.51566900  0.70961700  1
  O  O18  1  0.11740700  0.51566900  0.20961700  1
  O  O19  1  0.61740700  0.48433100  0.29038300  1
  O  O20  1  0.50158300  0.35081800  0.23788400  1
  O  O21  1  0.00158300  0.64918200  0.26211600  1
  O  O22  1  0.49841700  0.64918200  0.76211600  1
  O  O23  1  0.99841700  0.35081800  0.73788400  1
  O  O24  1  0.89291500  0.19372300  0.64414200  1
  O  O25  1  0.39291500  0.80627700  0.85585800  1
  O  O26  1  0.10708500  0.80627700  0.35585800  1
  O  O27  1  0.60708500  0.19372300  0.14414200  1
  O  O28  1  0.91865200  0.15653400  0.91473200  1
  O  O29  1  0.41865200  0.84346600  0.58526800  1
  O  O30  1  0.08134800  0.84346600  0.08526800  1
  O  O31  1  0.58134800  0.15653400  0.41473200  1
  O  O32  1  0.93607800  0.81015300  0.53290100  1
  O  O33  1  0.43607800  0.18984700  0.96709900  1
  O  O34  1  0.06392200  0.18984700  0.46709900  1
  O  O35  1  0.56392200  0.81015300  0.03290100  1
  O  O36  1  0.61380200  0.73955900  0.56394000  1
  O  O37  1  0.11380200  0.26044100  0.93606000  1
  O  O38  1  0.38619800  0.26044100  0.43606000  1
  O  O39  1  0.88619800  0.73955900  0.06394000  1
  O  O40  1  0.59633600  0.35334800  0.83726200  1
  O  O41  1  0.09633600  0.64665200  0.66273800  1
  O  O42  1  0.40366400  0.64665200  0.16273800  1
  O  O43  1  0.90366400  0.35334800  0.33726200  1
  O  O44  1  0.50050400  0.18893300  0.66458000  1
  O  O45  1  0.00050400  0.81106700  0.83542000  1
  O  O46  1  0.49949600  0.81106700  0.33542000  1
  O  O47  1  0.99949600  0.18893300  0.16458000  1
loop_
_geom_bond_atom_site_label_1
_geom_bond_atom_site_label_2
_geom_bond_distance
_geom_bond_site_symmetry_2
H0 O32 0.995025 1_555
H1 O33 0.995025 1_554
H2 O34 0.995025 1_555
H3 O35 0.995025 1_556
H4 O32 0.974227 1_555
H5 O33 0.974227 1_554
H6 O34 0.974227 1_555
H7 O35 0.974227 1_556
H8 O36 0.999983 1_555
H9 O37 0.999983 1_555
H10 O38 0.999983 1_555
H11 O39 0.999983 1_555
H12 O36 0.986568 1_555
H13 O37 0.986568 1_555
H14 O38 0.986568 1_555
H15 O39 0.986568 1_555
H16 O40 0.987902 1_555
H17 O41 0.987902 1_555
H18 O42 0.987902 1_555
H19 O43 0.987902 1_555
H20 O40 0.983986 1_555
H21 O41 0.983986 1_555
H22 O42 0.983986 1_555
H23 O43 0.983986 1_555
H24 O44 0.995081 1_555
H25 O45 0.995081 1_555
H26 O46 0.995081 1_555
H27 O47 0.995081 1_555
H28 O44 1.001110 1_555
H29 O45 1.001110 1_555
H30 O46 1.001110 1_555
H31 O47 1.001110 1_555
O0 S3 1.491396 1_555
O1 S2 1.491396 1_555
O2 S1 1.491396 1_555
O3 S0 1.491396 1_555
O4 S0 1.483041 1_555
O4 Sm3 2.410402 1_555
O5 S1 1.483041 1_556
O5 Sm2 2.410402 1_555
O6 S2 1.483041 1_555
O6 Sm1 2.410402 1_555
O7 S3 1.483041 1_554
O7 Sm0 2.410402 1_555
O8 S3 1.502610 1_545
O8 Sm3 2.521259 1_545
O8 Rb0 3.065067 1_555
O8 Rb3 3.143720 1_556
O9 S2 1.502610 1_565
O9 Sm2 2.521259 1_565
O9 Rb1 3.065067 1_555
O9 Rb2 3.143720 1_555
O10 S1 1.502610 1_565
O10 Sm1 2.521259 1_565
O10 Rb2 3.065067 1_555
O10 Rb1 3.143720 1_554
O11 S0 1.502610 1_545
O11 Sm0 2.521259 1_545
O11 Rb3 3.065067 1_555
O11 Rb0 3.143720 1_555
O12 S3 1.493640 1_555
O12 Sm3 2.588209 1_555
O12 Rb3 2.972815 1_556
O13 S2 1.493640 1_555
O13 Sm2 2.588209 1_555
O13 Rb2 2.972815 1_555
O14 S1 1.493640 1_555
O14 Sm1 2.588209 1_555
O14 Rb1 2.972815 1_554
O15 S0 1.493640 1_555
O15 Sm0 2.588209 1_555
O15 Rb0 2.972815 1_555
O16 S7 1.483228 1_555
O16 Sm3 2.418644 1_555
O17 S6 1.483228 1_555
O17 Sm2 2.418644 1_555
O18 S5 1.483228 1_555
O18 Sm1 2.418644 1_555
O19 S4 1.483228 1_555
O19 Sm0 2.418644 1_555
O20 S4 1.477311 1_555
O21 S5 1.477311 1_555
O22 S6 1.477311 1_555
O23 S7 1.477311 1_555
O24 S7 1.509376 1_555
O24 Sm3 2.533005 1_545
O25 S6 1.509376 1_555
O25 Sm2 2.533005 1_565
O26 S5 1.509376 1_555
O26 Sm1 2.533005 1_565
O27 S4 1.509376 1_555
O27 Sm0 2.533005 1_545
O28 S7 1.500143 1_555
O28 Sm3 2.594745 1_545
O29 S6 1.500143 1_555
O29 Sm2 2.594745 1_565
O30 S5 1.500143 1_555
O30 Sm1 2.594745 1_565
O31 S4 1.500143 1_555
O31 Sm0 2.594745 1_545
O32 Sm3 2.467395 1_555
O33 Sm2 2.467395 1_555
O34 Sm1 2.467395 1_555
O35 Sm0 2.467395 1_555
O36 Sm0 2.467536 1_555
O37 Sm1 2.467536 1_556
O38 Sm2 2.467536 1_555
O39 Sm3 2.467536 1_554
O40 Rb0 3.002882 1_555
O41 Rb1 3.002882 1_555
O42 Rb2 3.002882 1_555
O43 Rb3 3.002882 1_555
O44 Sm2 2.392519 1_555
O45 Sm3 2.392519 1_455
O46 Sm0 2.392519 1_555
O47 Sm1 2.392519 1_655
