# generated using pymatgen
data_NdReMoO8
_symmetry_space_group_name_H-M   'P 1'
_cell_length_a   9.97673400
_cell_length_b   6.27926500
_cell_length_c   13.32449313
_cell_angle_alpha   68.41973303
_cell_angle_beta   90.00000000
_cell_angle_gamma   90.00000000
_symmetry_Int_Tables_number   1
_chemical_formula_structural   NdReMoO8
_chemical_formula_sum   'Nd4 Re4 Mo4 O32'
_cell_volume   776.22147069
_cell_formula_units_Z   4
loop_
 _symmetry_equiv_pos_site_id
 _symmetry_equiv_pos_as_xyz
  1  'x, y, z'
loop_
 _atom_site_type_symbol
 _atom_site_label
 _atom_site_symmetry_multiplicity
 _atom_site_fract_x
 _atom_site_fract_y
 _atom_site_fract_z
 _atom_site_occupancy
  Nd  Nd0  1  0.23808900  0.82372900  0.37494900  1
  Nd  Nd1  1  0.26191100  0.82372900  0.87494900  1
  Nd  Nd2  1  0.76191100  0.17627100  0.62505100  1
  Nd  Nd3  1  0.73808900  0.17627100  0.12505100  1
  Re  Re0  1  0.98892600  0.37564700  0.84502400  1
  Re  Re1  1  0.01107400  0.62435300  0.15497600  1
  Re  Re2  1  0.48892600  0.62435300  0.65497600  1
  Re  Re3  1  0.51107400  0.37564700  0.34502400  1
  Mo  Mo0  1  0.33639400  0.15833600  0.07959100  1
  Mo  Mo1  1  0.66360600  0.84166400  0.92040900  1
  Mo  Mo2  1  0.16360600  0.15833600  0.57959100  1
  Mo  Mo3  1  0.83639400  0.84166400  0.42040900  1
  O  O0  1  0.07396300  0.63900100  0.80900300  1
  O  O1  1  0.22017200  0.07637900  0.19065300  1
  O  O2  1  0.42104600  0.69740200  0.52536600  1
  O  O3  1  0.92104600  0.30259800  0.97463400  1
  O  O4  1  0.92603700  0.36099900  0.19099700  1
  O  O5  1  0.50248900  0.15571000  0.13056400  1
  O  O6  1  0.39867400  0.16064900  0.34658300  1
  O  O7  1  0.00248900  0.84429000  0.36943600  1
  O  O8  1  0.20432000  0.43951100  0.48706000  1
  O  O9  1  0.17755100  0.96089200  0.51155400  1
  O  O10  1  0.57895400  0.30259800  0.47463400  1
  O  O11  1  0.63833700  0.40090900  0.25107000  1
  O  O12  1  0.36166300  0.59909100  0.74893000  1
  O  O13  1  0.07895400  0.69740200  0.02536600  1
  O  O14  1  0.57396300  0.36099900  0.69099700  1
  O  O15  1  0.86166300  0.40090900  0.75107000  1
  O  O16  1  0.72017200  0.92362100  0.30934700  1
  O  O17  1  0.29568000  0.43951100  0.98706000  1
  O  O18  1  0.42603700  0.63900100  0.30900300  1
  O  O19  1  0.27982800  0.07637900  0.69065300  1
  O  O20  1  0.60132600  0.83935100  0.65341700  1
  O  O21  1  0.13833700  0.59909100  0.24893000  1
  O  O22  1  0.32244900  0.96089200  0.01155400  1
  O  O23  1  0.49751100  0.84429000  0.86943600  1
  O  O24  1  0.67755100  0.03910800  0.98844600  1
  O  O25  1  0.82244900  0.03910800  0.48844600  1
  O  O26  1  0.70432000  0.56048900  0.01294000  1
  O  O27  1  0.79568000  0.56048900  0.51294000  1
  O  O28  1  0.89867400  0.83935100  0.15341700  1
  O  O29  1  0.99751100  0.15571000  0.63056400  1
  O  O30  1  0.10132600  0.16064900  0.84658300  1
  O  O31  1  0.77982800  0.92362100  0.80934700  1
loop_
_geom_bond_atom_site_label_1
_geom_bond_atom_site_label_2
_geom_bond_distance
_geom_bond_site_symmetry_2
Nd0 O8 2.348306 1_555
Nd0 O7 2.353726 1_555
Nd0 O9 2.360700 1_555
Nd0 O1 2.390240 1_565
Nd0 O18 2.526540 1_555
Nd0 O6 2.568506 1_565
Nd0 O2 2.609299 1_555
Nd0 O21 2.746256 1_555
Nd1 O17 2.348306 1_555
Nd1 O23 2.353726 1_555
Nd1 O22 2.360700 1_556
Nd1 O19 2.390240 1_565
Nd1 O0 2.526540 1_555
Nd1 O30 2.568506 1_565
Nd1 O13 2.609299 1_556
Nd1 O12 2.746256 1_555
Nd2 O27 2.348306 1_555
Nd2 O29 2.353726 1_555
Nd2 O25 2.360700 1_555
Nd2 O31 2.390240 1_545
Nd2 O14 2.526540 1_555
Nd2 O20 2.568506 1_545
Nd2 O10 2.609299 1_555
Nd2 O15 2.746256 1_555
Nd3 O26 2.348306 1_555
Nd3 O5 2.353726 1_555
Nd3 O24 2.360700 1_554
Nd3 O16 2.390240 1_545
Nd3 O4 2.526540 1_555
Nd3 O28 2.568506 1_545
Nd3 O3 2.609299 1_554
Nd3 O11 2.746256 1_555
Mo0 O5 1.788649 1_555
Mo0 O17 1.789151 1_554
Mo0 O22 1.790281 1_545
Mo0 O1 1.799734 1_555
Mo1 O23 1.788649 1_555
Mo1 O26 1.789151 1_556
Mo1 O24 1.790281 1_565
Mo1 O31 1.799734 1_555
Mo2 O29 1.788649 1_455
Mo2 O8 1.789151 1_555
Mo2 O9 1.790281 1_545
Mo2 O19 1.799734 1_555
Mo3 O7 1.788649 1_655
Mo3 O27 1.789151 1_555
Mo3 O25 1.790281 1_565
Mo3 O16 1.799734 1_555
O0 Re0 1.760938 1_455
O2 Re2 1.751798 1_555
O3 Re0 1.751798 1_555
O4 Re1 1.760938 1_655
O6 Re3 1.749253 1_555
O10 Re3 1.751798 1_555
O11 Re3 1.748820 1_555
O12 Re2 1.748820 1_555
O13 Re1 1.751798 1_555
O14 Re2 1.760938 1_555
O15 Re0 1.748820 1_555
O18 Re3 1.760938 1_555
O20 Re2 1.749253 1_555
O21 Re1 1.748820 1_555
O28 Re1 1.749253 1_655
O30 Re0 1.749253 1_455
