# generated using pymatgen
data_BaYbSi4N7
_symmetry_space_group_name_H-M   'P 1'
_cell_length_a   6.13185011
_cell_length_b   6.13185011
_cell_length_c   9.93131200
_cell_angle_alpha   90.00000000
_cell_angle_beta   90.00000000
_cell_angle_gamma   120.00000119
_symmetry_Int_Tables_number   1
_chemical_formula_structural   BaYbSi4N7
_chemical_formula_sum   'Ba2 Yb2 Si8 N14'
_cell_volume   323.38532853
_cell_formula_units_Z   2
loop_
 _symmetry_equiv_pos_site_id
 _symmetry_equiv_pos_as_xyz
  1  'x, y, z'
loop_
 _atom_site_type_symbol
 _atom_site_label
 _atom_site_symmetry_multiplicity
 _atom_site_fract_x
 _atom_site_fract_y
 _atom_site_fract_z
 _atom_site_occupancy
  Ba  Ba0  1  0.33333300  0.66666700  0.36364600  1
  Ba  Ba1  1  0.66666700  0.33333300  0.86364600  1
  Yb  Yb0  1  0.66666700  0.33333300  0.23460800  1
  Yb  Yb1  1  0.33333300  0.66666700  0.73460800  1
  Si  Si0  1  0.82543000  0.65086000  0.54696200  1
  Si  Si1  1  0.17457000  0.82543000  0.04696200  1
  Si  Si2  1  0.65086000  0.82543000  0.04696200  1
  Si  Si3  1  0.34914000  0.17457000  0.54696200  1
  Si  Si4  1  0.82543000  0.17457000  0.54696200  1
  Si  Si5  1  0.17457000  0.34914000  0.04696200  1
  Si  Si6  1  0.00000000  0.00000000  0.81425800  1
  Si  Si7  1  0.00000000  0.00000000  0.31425800  1
  N  N0  1  0.15027700  0.30055500  0.87552400  1
  N  N1  1  0.84972300  0.15027700  0.37552400  1
  N  N2  1  0.30055500  0.15027700  0.37552400  1
  N  N3  1  0.69944500  0.84972300  0.87552400  1
  N  N4  1  0.15027700  0.84972300  0.87552400  1
  N  N5  1  0.84972300  0.69944500  0.37552400  1
  N  N6  1  0.97418900  0.48709400  0.59569500  1
  N  N7  1  0.48709400  0.97418900  0.09569500  1
  N  N8  1  0.48709400  0.51290600  0.09569500  1
  N  N9  1  0.51290600  0.48709400  0.59569500  1
  N  N10  1  0.51290600  0.02581100  0.59569500  1
  N  N11  1  0.02581100  0.51290600  0.09569500  1
  N  N12  1  0.00000000  0.00000000  0.12554400  1
  N  N13  1  0.00000000  0.00000000  0.62554400  1
loop_
_geom_bond_atom_site_label_1
_geom_bond_atom_site_label_2
_geom_bond_distance
_geom_bond_site_symmetry_2
Ba0 N10 2.991367 1_565
Ba0 N6 2.991367 1_455
Ba0 N9 2.991374 1_555
Ba0 N2 3.073121 1_565
Ba0 N5 3.073121 1_455
Ba0 N1 3.073128 1_565
Ba0 N1 3.073128 1_455
Ba0 N5 3.073133 1_555
Ba0 N2 3.073133 1_555
Ba0 N11 3.122230 1_555
Ba0 N7 3.122230 1_555
Ba0 N8 3.122230 1_555
Ba1 N7 2.991367 1_546
Ba1 N11 2.991367 1_656
Ba1 N8 2.991374 1_556
Ba1 N3 3.073121 1_545
Ba1 N0 3.073121 1_655
Ba1 N4 3.073128 1_655
Ba1 N4 3.073128 1_545
Ba1 N3 3.073133 1_555
Ba1 N0 3.073133 1_555
Ba1 N6 3.122230 1_555
Ba1 N10 3.122230 1_555
Ba1 N9 3.122230 1_555
N0 Si6 1.708094 1_555
N0 Si5 1.722041 1_556
N0 Yb1 2.395491 1_555
N1 Si7 1.708089 1_655
N1 Si4 1.722042 1_555
N1 Yb0 2.395491 1_555
N2 Si7 1.708094 1_555
N2 Si3 1.722041 1_555
N2 Yb0 2.395491 1_555
N3 Si6 1.708094 1_665
N3 Si2 1.722041 1_556
N3 Yb1 2.395491 1_555
N4 Si6 1.708089 1_565
N4 Si1 1.722042 1_556
N4 Yb1 2.395491 1_555
N5 Si7 1.708094 1_665
N5 Si0 1.722041 1_555
N5 Yb0 2.395491 1_555
N6 Si4 1.729351 1_555
N6 Si0 1.729356 1_555
N6 Yb1 2.353845 1_655
N7 Si1 1.729351 1_555
N7 Si2 1.729356 1_555
N7 Yb0 2.353845 1_565
N8 Si2 1.729351 1_555
N8 Si5 1.729351 1_555
N8 Yb0 2.353853 1_555
N9 Si0 1.729351 1_555
N9 Si3 1.729351 1_555
N9 Yb1 2.353853 1_555
N10 Si4 1.729351 1_555
N10 Si3 1.729356 1_555
N10 Yb1 2.353845 1_545
N11 Si1 1.729351 1_555
N11 Si5 1.729356 1_555
N11 Yb0 2.353845 1_455
N12 Si7 1.874178 1_555
N12 Si5 2.011608 1_555
N12 Si2 2.011608 1_445
N12 Si1 2.011608 1_545
N13 Si6 1.874178 1_555
N13 Si3 2.011608 1_555
N13 Si0 2.011608 1_445
N13 Si4 2.011608 1_455
