# generated using pymatgen
data_TlCoMo2
_symmetry_space_group_name_H-M   'P 1'
_cell_length_a   4.50427727
_cell_length_b   4.50427727
_cell_length_c   4.50427727
_cell_angle_alpha   60.00000000
_cell_angle_beta   60.00000000
_cell_angle_gamma   60.00000000
_symmetry_Int_Tables_number   1
_chemical_formula_structural   TlCoMo2
_chemical_formula_sum   'Tl1 Co1 Mo2'
_cell_volume   64.61901758
_cell_formula_units_Z   1
loop_
 _symmetry_equiv_pos_site_id
 _symmetry_equiv_pos_as_xyz
  1  'x, y, z'
loop_
 _atom_site_type_symbol
 _atom_site_label
 _atom_site_symmetry_multiplicity
 _atom_site_fract_x
 _atom_site_fract_y
 _atom_site_fract_z
 _atom_site_occupancy
  Tl  Tl0  1  0.75000000  0.75000000  0.75000000  1
  Co  Co0  1  0.00000000  0.00000000  0.00000000  1
  Mo  Mo0  1  0.50000000  0.50000000  0.50000000  1
  Mo  Mo1  1  0.25000000  0.25000000  0.25000000  1
loop_
_geom_bond_atom_site_label_1
_geom_bond_atom_site_label_2
_geom_bond_distance
_geom_bond_site_symmetry_2
Co0 Mo1 2.758295 1_455
Co0 Tl0 2.758295 1_544
Co0 Tl0 2.758295 1_444
Co0 Mo1 2.758295 1_554
Co0 Tl0 2.758295 1_445
Co0 Mo1 2.758295 1_545
Co0 Mo1 2.758295 1_555
Co0 Tl0 2.758295 1_454
Mo0 Tl0 2.758295 1_455
Mo0 Mo1 2.758295 1_655
Mo0 Mo1 2.758295 1_565
Mo0 Mo1 2.758295 1_556
Mo0 Tl0 2.758295 1_554
Mo0 Tl0 2.758295 1_555
Mo0 Mo1 2.758295 1_555
Mo0 Tl0 2.758295 1_545
Mo1 Tl0 3.185005 1_554
Mo1 Tl0 3.185005 1_445
Mo1 Tl0 3.185005 1_454
Mo1 Tl0 3.185005 1_545
Mo1 Tl0 3.185005 1_455
Mo1 Tl0 3.185005 1_544
