# generated using pymatgen
data_Rb4CdCl6
_symmetry_space_group_name_H-M   'P 1'
_cell_length_a   12.96035379
_cell_length_b   12.96035379
_cell_length_c   8.83667097
_cell_angle_alpha   85.29766625
_cell_angle_beta   85.29766625
_cell_angle_gamma   145.30496032
_symmetry_Int_Tables_number   1
_chemical_formula_structural   Rb4CdCl6
_chemical_formula_sum   'Rb8 Cd2 Cl12'
_cell_volume   812.31598028
_cell_formula_units_Z   2
loop_
 _symmetry_equiv_pos_site_id
 _symmetry_equiv_pos_as_xyz
  1  'x, y, z'
loop_
 _atom_site_type_symbol
 _atom_site_label
 _atom_site_symmetry_multiplicity
 _atom_site_fract_x
 _atom_site_fract_y
 _atom_site_fract_z
 _atom_site_occupancy
  Rb  Rb0  1  0.52630800  0.47369200  0.25000000  1
  Rb  Rb1  1  0.47369200  0.52630800  0.75000000  1
  Rb  Rb2  1  0.01115800  0.65278600  0.10714000  1
  Rb  Rb3  1  0.35714400  0.64285600  0.25000000  1
  Rb  Rb4  1  0.34721400  0.98884200  0.39286000  1
  Rb  Rb5  1  0.98884200  0.34721400  0.89286000  1
  Rb  Rb6  1  0.64285600  0.35714400  0.75000000  1
  Rb  Rb7  1  0.65278600  0.01115800  0.60714000  1
  Cd  Cd0  1  0.00000000  0.00000000  0.50000000  1
  Cd  Cd1  1  0.00000000  0.00000000  0.00000000  1
  Cl  Cl0  1  0.29679200  0.17495500  0.58510700  1
  Cl  Cl1  1  0.75521200  0.32770900  0.45072200  1
  Cl  Cl2  1  0.90057400  0.74271000  0.45099800  1
  Cl  Cl3  1  0.70320800  0.82504500  0.41489300  1
  Cl  Cl4  1  0.24478800  0.67229100  0.54927800  1
  Cl  Cl5  1  0.09942600  0.25729000  0.54900200  1
  Cl  Cl6  1  0.32770900  0.75521200  0.95072200  1
  Cl  Cl7  1  0.74271000  0.90057400  0.95099800  1
  Cl  Cl8  1  0.17495500  0.29679200  0.08510700  1
  Cl  Cl9  1  0.67229100  0.24478800  0.04927800  1
  Cl  Cl10  1  0.25729000  0.09942600  0.04900200  1
  Cl  Cl11  1  0.82504500  0.70320800  0.91489300  1
loop_
_geom_bond_atom_site_label_1
_geom_bond_atom_site_label_2
_geom_bond_distance
_geom_bond_site_symmetry_2
Cd0 Cl5 2.495952 1_555
Cd0 Cl2 2.495952 1_445
Cd0 Cl0 2.629549 1_555
Cd0 Cl3 2.629549 1_445
Cd1 Cl7 2.495952 1_444
Cd1 Cl10 2.495952 1_555
Cd1 Cl8 2.629549 1_555
Cd1 Cl11 2.629549 1_444
Cl0 Rb0 3.216406 1_555
Cl0 Rb6 3.469254 1_555
Cl0 Rb4 3.494718 1_545
Cl0 Rb1 3.547311 1_555
Cl1 Rb6 3.115683 1_555
Cl1 Rb4 3.183413 1_545
Cl1 Rb7 3.212166 1_555
Cl1 Rb2 3.352927 1_655
Cl2 Rb6 3.471364 1_555
Cl2 Rb4 3.581508 1_655
Cl2 Rb0 3.668434 1_555
Cl3 Rb1 3.216406 1_555
Cl3 Rb3 3.469254 1_555
Cl3 Rb7 3.494718 1_565
Cl3 Rb0 3.547311 1_555
Cl4 Rb3 3.115683 1_555
Cl4 Rb7 3.183413 1_565
Cl4 Rb4 3.212166 1_555
Cl4 Rb5 3.352927 1_455
Cl5 Rb3 3.471364 1_555
Cl5 Rb7 3.581508 1_455
Cl5 Rb1 3.668434 1_555
Cl6 Rb3 3.115683 1_556
Cl6 Rb5 3.183413 1_455
Cl6 Rb2 3.212166 1_556
Cl6 Rb7 3.352927 1_565
Cl7 Rb3 3.471364 1_556
Cl7 Rb5 3.581508 1_565
Cl7 Rb1 3.668434 1_555
Cl8 Rb1 3.216406 1_554
Cl8 Rb3 3.469254 1_555
Cl8 Rb5 3.494718 1_454
Cl8 Rb0 3.547311 1_555
Cl9 Rb6 3.115683 1_554
Cl9 Rb2 3.183413 1_655
Cl9 Rb5 3.212166 1_554
Cl9 Rb4 3.352927 1_545
Cl10 Rb6 3.471364 1_554
Cl10 Rb2 3.581508 1_545
Cl10 Rb0 3.668434 1_555
Cl11 Rb0 3.216406 1_556
Cl11 Rb6 3.469254 1_555
Cl11 Rb2 3.494718 1_656
Cl11 Rb1 3.547311 1_555
