# generated using pymatgen
data_ZnH8C2(SN3)2
_symmetry_space_group_name_H-M   'P 1'
_cell_length_a   15.32007200
_cell_length_b   4.26648000
_cell_length_c   7.29087836
_cell_angle_alpha   75.05469939
_cell_angle_beta   90.00000000
_cell_angle_gamma   90.00000000
_symmetry_Int_Tables_number   1
_chemical_formula_structural   ZnH8C2(SN3)2
_chemical_formula_sum   'Zn2 H16 C4 S4 N12'
_cell_volume   460.43150710
_cell_formula_units_Z   2
loop_
 _symmetry_equiv_pos_site_id
 _symmetry_equiv_pos_as_xyz
  1  'x, y, z'
loop_
 _atom_site_type_symbol
 _atom_site_label
 _atom_site_symmetry_multiplicity
 _atom_site_fract_x
 _atom_site_fract_y
 _atom_site_fract_z
 _atom_site_occupancy
  Zn  Zn0  1  0.00000000  0.00000000  0.00000000  1
  Zn  Zn1  1  0.50000000  0.00000000  0.50000000  1
  H  H0  1  0.87632200  0.53958900  0.06842200  1
  H  H1  1  0.37632200  0.46041100  0.43157800  1
  H  H2  1  0.12367800  0.46041100  0.93157800  1
  H  H3  1  0.62367800  0.53958900  0.56842200  1
  H  H4  1  0.84648400  0.81928900  0.87607600  1
  H  H5  1  0.34648400  0.18071100  0.62392400  1
  H  H6  1  0.15351600  0.18071100  0.12392400  1
  H  H7  1  0.65351600  0.81928900  0.37607600  1
  H  H8  1  0.87621200  0.42372100  0.74832100  1
  H  H9  1  0.37621200  0.57627900  0.75167900  1
  H  H10  1  0.12378800  0.57627900  0.25167900  1
  H  H11  1  0.62378800  0.42372100  0.24832100  1
  H  H12  1  0.97334600  0.59491200  0.73841000  1
  H  H13  1  0.47334600  0.40508800  0.76159000  1
  H  H14  1  0.02665400  0.40508800  0.26159000  1
  H  H15  1  0.52665400  0.59491200  0.23841000  1
  C  C0  1  0.12457600  0.95129400  0.64020000  1
  C  C1  1  0.62457600  0.04870600  0.85980000  1
  C  C2  1  0.87542400  0.04870600  0.35980000  1
  C  C3  1  0.37542400  0.95129400  0.14020000  1
  S  S0  1  0.20000800  0.91160600  0.49198300  1
  S  S1  1  0.70000800  0.08839400  0.00801700  1
  S  S2  1  0.79999200  0.08839400  0.50801700  1
  S  S3  1  0.29999200  0.91160600  0.99198300  1
  N  N0  1  0.89846500  0.68228600  0.94179800  1
  N  N1  1  0.39846500  0.31771400  0.55820200  1
  N  N2  1  0.10153500  0.31771400  0.05820200  1
  N  N3  1  0.60153500  0.68228600  0.44179800  1
  N  N4  1  0.92733300  0.46682100  0.83010400  1
  N  N5  1  0.42733300  0.53317900  0.66989600  1
  N  N6  1  0.07266700  0.53317900  0.16989600  1
  N  N7  1  0.57266700  0.46682100  0.33010500  1
  N  N8  1  0.06884800  0.97559700  0.74955200  1
  N  N9  1  0.56884800  0.02440300  0.75044800  1
  N  N10  1  0.93115200  0.02440300  0.25044800  1
  N  N11  1  0.43115200  0.97559700  0.24955200  1
loop_
_geom_bond_atom_site_label_1
_geom_bond_atom_site_label_2
_geom_bond_distance
_geom_bond_site_symmetry_2
H0 N0 1.023780 1_554
H1 N1 1.023780 1_555
H2 N2 1.023780 1_556
H3 N3 1.023780 1_555
H4 N0 1.030039 1_555
H5 N1 1.030039 1_555
H6 N2 1.030039 1_555
H7 N3 1.030039 1_555
H8 N4 1.029210 1_555
H9 N5 1.029210 1_555
H10 N6 1.029210 1_555
H11 N7 1.029214 1_555
H12 N4 1.026675 1_555
H13 N5 1.026675 1_555
H14 N6 1.026675 1_555
H15 N7 1.026679 1_555
C0 N8 1.190771 1_555
C0 S0 1.620582 1_555
C1 N9 1.190771 1_555
C1 S1 1.620582 1_556
C2 N10 1.190771 1_555
C2 S2 1.620582 1_555
C3 N11 1.190771 1_555
C3 S3 1.620582 1_554
N0 Zn0 2.175740 1_666
N1 Zn1 2.175740 1_555
N2 Zn0 2.175740 1_555
N3 Zn1 2.175740 1_565
N4 Zn0 2.338377 1_656
N5 Zn1 2.338377 1_565
N6 Zn0 2.338377 1_565
N7 Zn1 2.338375 1_555
N8 Zn0 2.134393 1_566
N9 Zn1 2.134393 1_555
N10 Zn0 2.134393 1_655
N11 Zn1 2.134393 1_565
