# generated using pymatgen
data_Eu(Ni3S4)2
_symmetry_space_group_name_H-M   'P 1'
_cell_length_a   6.22846646
_cell_length_b   6.22846646
_cell_length_c   6.22846614
_cell_angle_alpha   89.51854312
_cell_angle_beta   89.51854312
_cell_angle_gamma   89.51854756
_symmetry_Int_Tables_number   1
_chemical_formula_structural   Eu(Ni3S4)2
_chemical_formula_sum   'Eu1 Ni6 S8'
_cell_volume   241.60038594
_cell_formula_units_Z   1
loop_
 _symmetry_equiv_pos_site_id
 _symmetry_equiv_pos_as_xyz
  1  'x, y, z'
loop_
 _atom_site_type_symbol
 _atom_site_label
 _atom_site_symmetry_multiplicity
 _atom_site_fract_x
 _atom_site_fract_y
 _atom_site_fract_z
 _atom_site_occupancy
  Eu  Eu0  1  0.00000000  0.00000000  0.00000000  1
  Ni  Ni0  1  0.59289600  0.80744700  0.43124900  1
  Ni  Ni1  1  0.43124900  0.59289600  0.80744700  1
  Ni  Ni2  1  0.40710400  0.19255300  0.56875100  1
  Ni  Ni3  1  0.19255300  0.56875100  0.40710400  1
  Ni  Ni4  1  0.80744700  0.43124900  0.59289600  1
  Ni  Ni5  1  0.56875100  0.40710400  0.19255300  1
  S  S0  1  0.85269500  0.61674400  0.27072100  1
  S  S1  1  0.72927900  0.14730500  0.38325600  1
  S  S2  1  0.25552900  0.25552900  0.25552900  1
  S  S3  1  0.74447100  0.74447100  0.74447100  1
  S  S4  1  0.14730500  0.38325600  0.72927900  1
  S  S5  1  0.61674400  0.27072100  0.85269500  1
  S  S6  1  0.27072100  0.85269500  0.61674400  1
  S  S7  1  0.38325600  0.72927900  0.14730500  1
loop_
_geom_bond_atom_site_label_1
_geom_bond_atom_site_label_2
_geom_bond_distance
_geom_bond_site_symmetry_2
Eu0 S2 2.779719 1_555
Eu0 S3 2.779719 1_444
Eu0 S4 3.053910 1_554
Eu0 S0 3.053910 1_445
Eu0 S1 3.053910 1_455
Eu0 S6 3.053910 1_544
Eu0 S7 3.053910 1_545
Eu0 S5 3.053910 1_454
Ni0 S3 2.205220 1_555
Ni0 S0 2.233697 1_555
Ni0 S7 2.265759 1_555
Ni0 S1 2.303707 1_565
Ni0 S6 2.323345 1_555
Ni1 S3 2.205220 1_555
Ni1 S6 2.233696 1_555
Ni1 S4 2.265759 1_555
Ni1 S7 2.303707 1_556
Ni1 S5 2.323345 1_555
Ni2 S2 2.205220 1_555
Ni2 S4 2.233697 1_555
Ni2 S5 2.265759 1_555
Ni2 S6 2.303707 1_545
Ni2 S1 2.323345 1_555
Ni3 S2 2.205220 1_555
Ni3 S7 2.233696 1_555
Ni3 S6 2.265759 1_555
Ni3 S0 2.303707 1_455
Ni3 S4 2.323345 1_555
Ni4 S3 2.205220 1_555
Ni4 S5 2.233696 1_555
Ni4 S1 2.265759 1_555
Ni4 S4 2.303707 1_655
Ni4 S0 2.323345 1_555
Ni5 S2 2.205220 1_555
Ni5 S1 2.233696 1_555
Ni5 S0 2.265759 1_555
Ni5 S5 2.303707 1_554
Ni5 S7 2.323345 1_555
