# generated using pymatgen
data_Al24Tl10Cd7(SiO4)24
_symmetry_space_group_name_H-M   'P 1'
_cell_length_a   17.78995400
_cell_length_b   17.79522098
_cell_length_c   17.82185340
_cell_angle_alpha   89.74336400
_cell_angle_beta   119.92341689
_cell_angle_gamma   119.97301046
_symmetry_Int_Tables_number   1
_chemical_formula_structural   Al24Tl10Cd7(SiO4)24
_chemical_formula_sum   'Al24 Tl10 Cd7 Si24 O96'
_cell_volume   4004.51789943
_cell_formula_units_Z   1
loop_
 _symmetry_equiv_pos_site_id
 _symmetry_equiv_pos_as_xyz
  1  'x, y, z'
loop_
 _atom_site_type_symbol
 _atom_site_label
 _atom_site_symmetry_multiplicity
 _atom_site_fract_x
 _atom_site_fract_y
 _atom_site_fract_z
 _atom_site_occupancy
  Al  Al0  1  0.23864500  0.60202000  0.02789300  1
  Al  Al1  1  0.60554500  0.96714000  0.21028100  1
  Al  Al2  1  0.42665200  0.78679800  0.39757400  1
  Al  Al3  1  0.89499300  0.79012200  0.03224500  1
  Al  Al4  1  0.24014300  0.13708400  0.20990600  1
  Al  Al5  1  0.42659800  0.13625400  0.02954900  1
  Al  Al6  1  0.74324800  0.21295600  0.13826100  1
  Al  Al7  1  0.07345500  0.60191600  0.21317300  1
  Al  Al8  1  0.25979700  0.97091900  0.39778900  1
  Al  Al9  1  0.10944300  0.39507300  0.13844900  1
  Al  Al10  1  0.60759600  0.13862800  0.39756900  1
  Al  Al11  1  0.07196700  0.96536000  0.86275900  1
  Al  Al12  1  0.92418800  0.02932100  0.13898200  1
  Al  Al13  1  0.38943500  0.86041500  0.60529100  1
  Al  Al14  1  0.89668500  0.60584800  0.86184500  1
  Al  Al15  1  0.74667900  0.03118000  0.60649100  1
  Al  Al16  1  0.92496600  0.39495500  0.78513800  1
  Al  Al17  1  0.25623600  0.79090600  0.86309600  1
  Al  Al18  1  0.57558700  0.86105100  0.97083500  1
  Al  Al19  1  0.75585000  0.86053600  0.78683500  1
  Al  Al20  1  0.10898700  0.21389800  0.96980100  1
  Al  Al21  1  0.57649900  0.21619400  0.60580200  1
  Al  Al22  1  0.39061200  0.03108400  0.78563500  1
  Al  Al23  1  0.75519000  0.39428900  0.96893800  1
  Tl  Tl0  1  0.98937600  0.74468200  0.73413900  1
  Tl  Tl1  1  0.00239400  0.25449600  0.25090900  1
  Tl  Tl2  1  0.81648500  0.15731400  0.40800100  1
  Tl  Tl3  1  0.49827200  0.74893400  0.74727300  1
  Tl  Tl4  1  0.24392100  0.59201000  0.83706400  1
  Tl  Tl5  1  0.00064600  0.25123900  0.75110800  1
  Tl  Tl6  1  0.24880100  0.15783200  0.40799400  1
  Tl  Tl7  1  0.68566100  0.59312400  0.83763500  1
  Tl  Tl8  1  0.24429900  0.15166600  0.83580800  1
  Tl  Tl9  1  0.50190800  0.25144600  0.75103100  1
  Cd  Cd0  1  0.99205000  0.00158500  0.99492900  1
  Cd  Cd1  1  0.99441300  0.49190400  0.99684800  1
  Cd  Cd2  1  0.50416200  0.00152000  0.99457700  1
  Cd  Cd3  1  0.43622200  0.77607200  0.22235800  1
  Cd  Cd4  1  0.50679300  0.00182700  0.51169600  1
  Cd  Cd5  1  0.43982700  0.16062900  0.21905400  1
  Cd  Cd6  1  0.06162900  0.77550400  0.22175600  1
  Si  Si0  1  0.42814200  0.78992700  0.03427500  1
  Si  Si1  1  0.24389000  0.60313000  0.20970800  1
  Si  Si2  1  0.60560500  0.96700100  0.39621400  1
  Si  Si3  1  0.24241400  0.13750400  0.03234500  1
  Si  Si4  1  0.07114200  0.96552000  0.21013400  1
  Si  Si5  1  0.89458300  0.60381400  0.03258600  1
  Si  Si6  1  0.93128000  0.39515400  0.14197700  1
  Si  Si7  1  0.60512900  0.13788300  0.20998800  1
  Si  Si8  1  0.42942000  0.13959400  0.39590000  1
  Si  Si9  1  0.74754900  0.03662400  0.14419500  1
  Si  Si10  1  0.25579500  0.79015100  0.39640200  1
  Si  Si11  1  0.89605700  0.79047200  0.86095000  1
  Si  Si12  1  0.10579500  0.20956200  0.14385000  1
  Si  Si13  1  0.74860100  0.21122500  0.60400700  1
  Si  Si14  1  0.25545500  0.96511300  0.86054000  1
  Si  Si15  1  0.56845400  0.85751300  0.60474200  1
  Si  Si16  1  0.39280400  0.85522500  0.79050600  1
  Si  Si17  1  0.06880800  0.60445600  0.85917100  1
  Si  Si18  1  0.10583800  0.39543000  0.96151800  1
  Si  Si19  1  0.93550000  0.03783200  0.78984600  1
  Si  Si20  1  0.75268200  0.85605100  0.96384600  1
  Si  Si21  1  0.39414900  0.03908300  0.60455300  1
  Si  Si22  1  0.75242400  0.39756800  0.78920000  1
  Si  Si23  1  0.56609700  0.21052800  0.96222800  1
  O  O0  1  0.33844700  0.68711300  0.01899900  1
  O  O1  1  0.06710200  0.40711100  0.02647200  1
  O  O2  1  0.63174400  0.97159000  0.04138800  1
  O  O3  1  0.49818200  0.78396300  0.00537800  1
  O  O4  1  0.50029600  0.84783800  0.14697800  1
  O  O5  1  0.29267500  0.64077300  0.14626400  1
  O  O6  1  0.22218500  0.50489000  0.21446700  1
  O  O7  1  0.86860700  0.95948700  0.02895100  1
  O  O8  1  0.07007200  0.15961200  0.04147000  1
  O  O9  1  0.33728700  0.68559200  0.30700600  1
  O  O10  1  0.63264700  0.98173100  0.32019500  1
  O  O11  1  0.22001000  0.21333600  0.00174000  1
  O  O12  1  0.50869400  0.85608700  0.35845900  1
  O  O13  1  0.33308800  0.15113300  0.02114900  1
  O  O14  1  0.86987000  0.68111200  0.02125000  1
  O  O15  1  0.71245300  0.99908700  0.49439700  1
  O  O16  1  0.00295100  0.99618200  0.21715300  1
  O  O17  1  0.62393400  0.96297600  0.59556800  1
  O  O18  1  0.29509300  0.15212700  0.14510100  1
  O  O19  1  0.78814900  0.50568200  0.00155500  1
  O  O20  1  0.00021000  0.85362700  0.15285500  1
  O  O21  1  0.16276400  0.98331700  0.31390300  1
  O  O22  1  0.99126200  0.64018100  0.14389200  1
  O  O23  1  0.61828400  0.15943600  0.02852300  1
  O  O24  1  0.87790700  0.40541800  0.03730400  1
  O  O25  1  0.50735300  0.15246500  0.15015900  1
  O  O26  1  0.33873800  0.15145700  0.31909000  1
  O  O27  1  0.84118500  0.31963700  0.15302300  1
  O  O28  1  0.55679700  0.03277000  0.15707400  1
  O  O29  1  0.13216500  0.59636900  0.15794000  1
  O  O30  1  0.50279000  0.15401800  0.35663400  1
  O  O31  1  0.71157100  0.21302900  0.21798700  1
  O  O32  1  0.20603200  0.85313400  0.35770500  1
  O  O33  1  0.00054900  0.49477500  0.21741100  1
  O  O34  1  0.88063400  0.97105600  0.83895300  1
  O  O35  1  0.49620100  0.21437000  0.49357800  1
  O  O36  1  0.78664500  0.78032300  0.78823200  1
  O  O37  1  0.63115000  0.15112600  0.31254200  1
  O  O38  1  0.16316500  0.69267200  0.31457300  1
  O  O39  1  0.00718500  0.36280200  0.15303100  1
  O  O40  1  0.79129900  0.14428300  0.15330600  1
  O  O41  1  0.72374600  0.01036000  0.22217300  1
  O  O42  1  0.36820000  0.84245100  0.40375500  1
  O  O43  1  0.55715800  0.02446500  0.40170400  1
  O  O44  1  0.83244200  0.01979700  0.15534400  1
  O  O45  1  0.13262600  0.31098200  0.15401700  1
  O  O46  1  0.98841300  0.84778000  0.84323100  1
  O  O47  1  0.27744000  0.78617400  0.49454200  1
  O  O48  1  0.72539400  0.21396700  0.50250600  1
  O  O49  1  0.00761000  0.14577300  0.15346000  1
  O  O50  1  0.86502100  0.68582400  0.85029300  1
  O  O51  1  0.17187700  0.98632200  0.85064300  1
  O  O52  1  0.43199500  0.97318700  0.59330700  1
  O  O53  1  0.63239500  0.16140900  0.59105900  1
  O  O54  1  0.28175600  0.00289700  0.78786500  1
  O  O55  1  0.20270400  0.85534300  0.84333600  1
  O  O56  1  0.99432300  0.64003800  0.84157000  1
  O  O57  1  0.83360400  0.31224500  0.67784400  1
  O  O58  1  0.36524400  0.84392200  0.68860000  1
  O  O59  1  0.20981900  0.21245300  0.22262500  1
  O  O60  1  0.49983300  0.78315600  0.50485000  1
  O  O61  1  0.12287300  0.02294600  0.15628300  1
  O  O62  1  0.00712200  0.50592100  0.78677000  1
  O  O63  1  0.79291500  0.14743800  0.63835300  1
  O  O64  1  0.29051500  0.77789100  0.79000500  1
  O  O65  1  0.49245300  0.84706800  0.63668700  1
  O  O66  1  0.86753000  0.40882100  0.83839900  1
  O  O67  1  0.42934500  0.95895900  0.83859200  1
  O  O68  1  0.16385000  0.67888100  0.84963200  1
  O  O69  1  0.65862600  0.84644000  0.68022900  1
  O  O70  1  0.49213800  0.84679900  0.85451300  1
  O  O71  1  0.12053700  0.59800100  0.96504600  1
  O  O72  1  0.37664700  0.84396700  0.97723000  1
  O  O73  1  0.00738600  0.36038900  0.85386800  1
  O  O74  1  0.84667000  0.02272400  0.68798100  1
  O  O75  1  0.00702000  0.14511300  0.85380400  1
  O  O76  1  0.20905000  0.49620800  0.98605000  1
  O  O77  1  0.70883700  0.84744600  0.85632100  1
  O  O78  1  0.37864900  0.03452500  0.40181900  1
  O  O79  1  0.01319400  0.01371600  0.78960700  1
  O  O80  1  0.29076800  0.01441600  0.50349600  1
  O  O81  1  0.13412600  0.32152900  0.97800000  1
  O  O82  1  0.66788400  0.84536200  0.98067900  1
  O  O83  1  0.49251100  0.14661200  0.63852900  1
  O  O84  1  0.77746100  0.77898600  0.99094300  1
  O  O85  1  0.36524300  0.02256500  0.67799300  1
  O  O86  1  0.66636100  0.32367200  0.68758300  1
  O  O87  1  0.94352300  0.84379000  0.96698200  1
  O  O88  1  0.13298200  0.03237000  0.97680300  1
  O  O89  1  0.77639300  0.49926300  0.78840400  1
  O  O90  1  0.70726300  0.36172800  0.85237300  1
  O  O91  1  0.49424200  0.14696800  0.85502600  1
  O  O92  1  0.49005300  0.21295200  0.98745800  1
  O  O93  1  0.36724200  0.02274800  0.96658600  1
  O  O94  1  0.94356900  0.59927000  0.97575700  1
  O  O95  1  0.65578800  0.31169600  0.97771700  1
loop_
_geom_bond_atom_site_label_1
_geom_bond_atom_site_label_2
_geom_bond_distance
_geom_bond_site_symmetry_2
Al0 O76 1.734678 1_554
Al0 O0 1.750054 1_555
Al0 O71 1.782426 1_554
Al0 O5 1.782563 1_555
Al1 O41 1.731777 1_565
Al1 O10 1.753356 1_555
Al1 O28 1.787985 1_565
Al1 O4 1.796631 1_555
Al2 O60 1.718792 1_555
Al2 O9 1.726652 1_555
Al2 O42 1.794017 1_555
Al2 O12 1.829130 1_555
Al3 O84 1.733408 1_554
Al3 O14 1.746694 1_555
Al3 O87 1.782782 1_554
Al3 O20 1.815253 1_655
Al4 O59 1.728845 1_555
Al4 O26 1.754816 1_555
Al4 O61 1.784775 1_555
Al4 O18 1.795368 1_555
Al5 O92 1.730915 1_554
Al5 O13 1.746759 1_555
Al5 O93 1.777935 1_554
Al5 O25 1.810533 1_555
Al6 O27 1.717859 1_555
Al6 O40 1.763011 1_555
Al6 O31 1.770883 1_555
Al6 O23 1.799320 1_555
Al7 O33 1.717157 1_555
Al7 O38 1.730443 1_555
Al7 O29 1.788625 1_555
Al7 O22 1.819985 1_455
Al8 O80 1.732955 1_565
Al8 O21 1.751110 1_555
Al8 O32 1.773978 1_555
Al8 O78 1.792997 1_565
Al9 O45 1.727748 1_555
Al9 O6 1.753158 1_555
Al9 O39 1.770078 1_555
Al9 O1 1.803750 1_555
Al10 O48 1.729651 1_555
Al10 O37 1.748901 1_555
Al10 O43 1.783536 1_555
Al10 O30 1.798588 1_555
Al11 O79 1.749945 1_565
Al11 O51 1.750604 1_555
Al11 O46 1.758228 1_455
Al11 O88 1.805127 1_565
Al12 O44 1.725019 1_555
Al12 O49 1.764444 1_655
Al12 O16 1.767114 1_645
Al12 O7 1.796375 1_545
Al13 O58 1.727169 1_555
Al13 O47 1.755171 1_555
Al13 O65 1.771692 1_555
Al13 O52 1.812577 1_555
Al14 O89 1.749948 1_555
Al14 O50 1.751533 1_555
Al14 O56 1.756727 1_555
Al14 O94 1.799127 1_555
Al15 O74 1.727470 1_555
Al15 O63 1.767293 1_555
Al15 O15 1.771159 1_545
Al15 O17 1.791398 1_545
Al16 O57 1.731663 1_555
Al16 O62 1.763707 1_655
Al16 O73 1.769517 1_655
Al16 O66 1.796548 1_555
Al17 O64 1.748909 1_555
Al17 O68 1.752133 1_555
Al17 O55 1.760316 1_555
Al17 O72 1.807418 1_555
Al18 O82 1.724809 1_555
Al18 O3 1.762886 1_556
Al18 O70 1.767457 1_555
Al18 O2 1.803822 1_556
Al19 O69 1.719423 1_555
Al19 O36 1.762292 1_555
Al19 O77 1.767312 1_555
Al19 O34 1.804315 1_555
Al20 O81 1.723728 1_555
Al20 O11 1.767241 1_556
Al20 O75 1.767832 1_555
Al20 O8 1.801898 1_556
Al21 O86 1.727210 1_555
Al21 O83 1.766425 1_555
Al21 O35 1.773594 1_555
Al21 O53 1.799974 1_555
Al22 O85 1.725487 1_555
Al22 O54 1.763354 1_555
Al22 O91 1.769256 1_555
Al22 O67 1.799129 1_545
Al23 O95 1.728813 1_555
Al23 O19 1.766355 1_556
Al23 O90 1.768708 1_555
Al23 O24 1.790579 1_556
Cd0 O34 2.321979 1_545
Cd0 O7 2.330676 1_546
Cd0 O8 2.344102 1_656
Cd0 O87 2.457558 1_545
Cd0 O88 2.474766 1_655
Cd0 O61 2.505794 1_656
Cd1 O24 2.340515 1_556
Cd1 O1 2.342883 1_656
Cd1 O66 2.366152 1_555
Cd1 O71 2.438566 1_655
Cd1 O94 2.447641 1_555
Cd1 O29 2.486017 1_656
Cd2 O67 2.322358 1_545
Cd2 O2 2.333640 1_546
Cd2 O23 2.339659 1_556
Cd2 O93 2.455624 1_555
Cd2 O72 2.460776 1_545
Cd2 O28 2.522206 1_556
Cd3 O5 2.141968 1_555
Cd3 O12 2.156328 1_555
Cd3 O4 2.189269 1_555
Cd4 O17 2.318968 1_545
Cd4 O52 2.322170 1_545
Cd4 O53 2.366522 1_555
Cd4 O42 2.480560 1_545
Cd4 O43 2.488432 1_555
Cd4 O78 2.496301 1_555
Cd5 O18 2.148598 1_555
Cd5 O25 2.149260 1_555
Cd5 O30 2.160894 1_555
Cd6 O22 2.139262 1_455
Cd6 O32 2.156929 1_555
Cd6 O20 2.190500 1_555
O0 Si0 1.619169 1_555
O0 Tl4 2.823285 1_554
O1 Si18 1.673103 1_554
O2 Si9 1.676728 1_565
O3 Si0 1.613025 1_555
O4 Si0 1.693693 1_555
O5 Si1 1.694626 1_555
O6 Si1 1.602923 1_555
O7 Si20 1.681162 1_554
O8 Si12 1.678205 1_555
O9 Si1 1.622661 1_555
O10 Si2 1.629938 1_555
O10 Tl2 2.763142 1_565
O11 Si3 1.609747 1_555
O12 Si2 1.665899 1_555
O13 Si3 1.621870 1_555
O14 Si5 1.624606 1_555
O14 Tl7 2.849420 1_554
O15 Si2 1.614651 1_555
O16 Si4 1.611957 1_555
O17 Si15 1.682398 1_555
O18 Si3 1.693013 1_555
O19 Si5 1.612652 1_555
O20 Si4 1.679768 1_555
O21 Si4 1.630717 1_555
O21 Tl6 2.745089 1_565
O22 Si5 1.675529 1_555
O23 Si23 1.680454 1_554
O24 Si6 1.678676 1_555
O25 Si7 1.681664 1_555
O26 Si8 1.629544 1_555
O26 Tl6 2.792020 1_555
O27 Si6 1.604331 1_555
O28 Si7 1.651438 1_555
O29 Si1 1.657923 1_555
O30 Si8 1.683506 1_555
O31 Si7 1.611368 1_555
O32 Si10 1.700262 1_555
O33 Si6 1.629219 1_455
O34 Si19 1.677709 1_565
O35 Si8 1.609441 1_555
O36 Si11 1.623248 1_555
O37 Si7 1.631279 1_555
O37 Tl2 2.796419 1_555
O38 Si10 1.618702 1_555
O39 Si6 1.644397 1_455
O39 Tl1 2.592057 1_555
O40 Si9 1.639909 1_555
O40 Tl1 2.670055 1_655
O41 Si9 1.646998 1_555
O42 Si10 1.661976 1_555
O43 Si2 1.662443 1_545
O44 Si9 1.600599 1_555
O45 Si12 1.604312 1_555
O46 Si11 1.637001 1_555
O46 Tl0 2.691250 1_555
O47 Si10 1.602062 1_555
O48 Si13 1.649037 1_555
O49 Si12 1.638426 1_555
O49 Tl1 2.671766 1_555
O50 Si11 1.637079 1_555
O50 Tl7 2.641827 1_555
O51 Si14 1.637907 1_555
O51 Tl8 2.632921 1_565
O52 Si21 1.671569 1_565
O53 Si13 1.675586 1_555
O54 Si14 1.622046 1_545
O55 Si14 1.636167 1_555
O55 Tl0 2.695627 1_455
O56 Si17 1.636169 1_655
O56 Tl0 2.665495 1_555
O57 Si13 1.603015 1_555
O58 Si16 1.611090 1_555
O59 Si12 1.646741 1_555
O60 Si15 1.627670 1_555
O61 Si4 1.656809 1_545
O62 Si17 1.621326 1_555
O63 Si13 1.640453 1_555
O63 Tl5 2.628808 1_655
O64 Si16 1.639208 1_555
O65 Si15 1.643971 1_555
O65 Tl3 2.625038 1_555
O66 Si22 1.674106 1_555
O67 Si16 1.680463 1_555
O68 Si17 1.639824 1_555
O68 Tl4 2.643994 1_555
O69 Si15 1.606979 1_555
O70 Si16 1.642744 1_555
O70 Tl3 2.669336 1_555
O71 Si17 1.670837 1_555
O72 Si0 1.655258 1_556
O73 Si18 1.644445 1_555
O73 Tl5 2.592509 1_555
O74 Si19 1.607158 1_555
O75 Si19 1.645684 1_455
O75 Tl5 2.627762 1_555
O76 Si18 1.641538 1_555
O77 Si20 1.641972 1_555
O77 Tl3 2.662354 1_555
O78 Si8 1.651879 1_555
O79 Si19 1.641083 1_455
O80 Si21 1.647600 1_555
O81 Si18 1.606023 1_555
O82 Si20 1.601935 1_555
O83 Si21 1.642493 1_555
O83 Tl9 2.629771 1_555
O84 Si20 1.641328 1_555
O85 Si21 1.606521 1_555
O86 Si22 1.611334 1_555
O87 Si11 1.675627 1_555
O88 Si3 1.650690 1_556
O89 Si22 1.640657 1_555
O90 Si22 1.644328 1_555
O90 Tl9 2.597095 1_555
O91 Si23 1.643663 1_555
O91 Tl9 2.622641 1_555
O92 Si23 1.643022 1_555
O93 Si14 1.675779 1_545
O94 Si5 1.656336 1_556
O95 Si23 1.599386 1_555
