# generated using pymatgen
data_NaMo6Br13
_symmetry_space_group_name_H-M   'P 1'
_cell_length_a   9.46297196
_cell_length_b   9.59646990
_cell_length_c   14.76918051
_cell_angle_alpha   97.18103010
_cell_angle_beta   101.14561458
_cell_angle_gamma   114.85940664
_symmetry_Int_Tables_number   1
_chemical_formula_structural   NaMo6Br13
_chemical_formula_sum   'Na2 Mo12 Br26'
_cell_volume   1161.48800963
_cell_formula_units_Z   2
loop_
 _symmetry_equiv_pos_site_id
 _symmetry_equiv_pos_as_xyz
  1  'x, y, z'
loop_
 _atom_site_type_symbol
 _atom_site_label
 _atom_site_symmetry_multiplicity
 _atom_site_fract_x
 _atom_site_fract_y
 _atom_site_fract_z
 _atom_site_occupancy
  Na  Na0  1  0.00069652  0.75604149  0.22874166  1
  Na  Na1  1  0.99930348  0.24395851  0.77125834  1
  Mo  Mo0  1  0.45925246  0.31853126  0.41501794  1
  Mo  Mo1  1  0.54074754  0.68146874  0.58498206  1
  Mo  Mo2  1  0.44782826  0.01248831  0.11497280  1
  Mo  Mo3  1  0.55217174  0.98751169  0.88502720  1
  Mo  Mo4  1  0.37275633  0.54392835  0.40669647  1
  Mo  Mo5  1  0.68145750  0.61528152  0.46112105  1
  Mo  Mo6  1  0.39788563  0.78096488  0.97581566  1
  Mo  Mo7  1  0.31854250  0.38471848  0.53887895  1
  Mo  Mo8  1  0.62724367  0.45607165  0.59330353  1
  Mo  Mo9  1  0.30732950  0.99686748  0.93949282  1
  Mo  Mo10  1  0.69267050  0.00313252  0.06050718  1
  Mo  Mo11  1  0.60211437  0.21903512  0.02418434  1
  Br  Br0  1  0.84620348  0.21241786  0.96970530  1
  Br  Br1  1  0.23427360  0.61316080  0.53064598  1
  Br  Br2  1  0.15379652  0.78758214  0.03029470  1
  Br  Br3  1  0.76572640  0.38683920  0.46935402  1
  Br  Br4  1  0.61649749  0.95706212  0.71095133  1
  Br  Br5  1  0.74314739  0.52671667  0.06355209  1
  Br  Br6  1  0.15296450  0.24843909  0.36403317  1
  Br  Br7  1  0.25685261  0.47328333  0.93644791  1
  Br  Br8  1  0.40661027  0.15939026  0.54700815  1
  Br  Br9  1  0.38350251  0.04293788  0.28904867  1
  Br  Br10  1  0.96157024  0.00223253  0.14174855  1
  Br  Br11  1  0.03842976  0.99776747  0.85825145  1
  Br  Br12  1  0.74308371  0.23274189  0.19911151  1
  Br  Br13  1  0.51845272  0.48021530  0.28537340  1
  Br  Br14  1  0.53685389  0.79725509  0.15138680  1
  Br  Br15  1  0.93961372  0.78186425  0.40953459  1
  Br  Br16  1  0.25691629  0.76725811  0.80088849  1
  Br  Br17  1  0.84703550  0.75156091  0.63596683  1
  Br  Br18  1  0.64674823  0.77878156  0.92455291  1
  Br  Br19  1  0.59338973  0.84060974  0.45299185  1
  Br  Br20  1  0.35325177  0.22121844  0.07544709  1
  Br  Br21  1  0.80947911  0.41166499  0.73208054  1
  Br  Br22  1  0.46314611  0.20274491  0.84861320  1
  Br  Br23  1  0.19052089  0.58833501  0.26791946  1
  Br  Br24  1  0.06038628  0.21813575  0.59046541  1
  Br  Br25  1  0.48154728  0.51978470  0.71462660  1
loop_
_geom_bond_atom_site_label_1
_geom_bond_atom_site_label_2
_geom_bond_distance
_geom_bond_site_symmetry_2
Br0 Mo11 2.610690 1_556
Br0 Mo3 2.625809 1_545
Br0 Mo10 2.629878 1_556
Br0 Na1 3.503635 1_555
Br1 Mo1 2.618185 1_555
Br1 Mo4 2.620180 1_555
Br1 Mo7 2.637346 1_555
Br2 Mo6 2.610690 1_554
Br2 Mo2 2.625809 1_565
Br2 Mo9 2.629878 1_554
Br2 Na0 3.503635 1_555
Br3 Mo0 2.618185 1_555
Br3 Mo8 2.620180 1_555
Br3 Mo5 2.637346 1_555
Br4 Mo1 2.762250 1_555
Br4 Mo3 2.762698 1_555
Br4 Na1 3.354075 1_565
Br5 Mo11 2.606718 1_555
Br5 Na0 2.929932 1_655
Br6 Mo7 2.588887 1_555
Br6 Mo0 2.609708 1_555
Br6 Mo4 2.617575 1_555
Br7 Mo6 2.606718 1_555
Br7 Na1 2.929932 1_455
Br8 Mo0 2.619287 1_555
Br8 Mo8 2.626040 1_555
Br8 Mo7 2.631749 1_555
Br9 Mo0 2.762250 1_555
Br9 Mo2 2.762698 1_555
Br9 Na0 3.354075 1_545
Br10 Mo10 2.599114 1_555
Br10 Na0 2.946185 1_645
Br11 Mo9 2.599114 1_555
Br11 Na1 2.946185 1_465
Br12 Mo2 2.617995 1_555
Br12 Mo10 2.623773 1_555
Br12 Mo11 2.628035 1_555
Br13 Mo5 2.593591 1_555
Br13 Mo0 2.610393 1_555
Br13 Mo4 2.622090 1_555
Br14 Mo2 2.613566 1_565
Br14 Mo10 2.618743 1_565
Br14 Mo6 2.623957 1_554
Br15 Mo5 2.616193 1_555
Br15 Na0 2.842006 1_655
Br16 Mo3 2.617995 1_555
Br16 Mo9 2.623773 1_555
Br16 Mo6 2.628035 1_555
Br17 Mo5 2.588887 1_555
Br17 Mo1 2.609708 1_555
Br17 Mo8 2.617575 1_555
Br18 Mo10 2.578986 1_566
Br18 Mo3 2.598402 1_555
Br18 Mo6 2.616565 1_555
Br19 Mo1 2.619287 1_555
Br19 Mo4 2.626040 1_555
Br19 Mo5 2.631749 1_555
Br20 Mo9 2.578986 1_544
Br20 Mo2 2.598402 1_555
Br20 Mo11 2.616565 1_555
Br21 Mo8 2.612697 1_555
Br21 Na1 2.900569 1_555
Br22 Mo3 2.613566 1_545
Br22 Mo9 2.618743 1_545
Br22 Mo11 2.623957 1_556
Br23 Mo4 2.612697 1_555
Br23 Na0 2.900569 1_555
Br24 Mo7 2.616193 1_555
Br24 Na1 2.842006 1_455
Br25 Mo7 2.593591 1_555
Br25 Mo1 2.610393 1_555
Br25 Mo8 2.622090 1_555
