# generated using pymatgen
data_Cs2H6Pt
_symmetry_space_group_name_H-M   'P 1'
_cell_length_a   6.34440910
_cell_length_b   6.34440910
_cell_length_c   6.34440910
_cell_angle_alpha   60.00000000
_cell_angle_beta   60.00000000
_cell_angle_gamma   60.00000000
_symmetry_Int_Tables_number   1
_chemical_formula_structural   Cs2H6Pt
_chemical_formula_sum   'Cs2 H6 Pt1'
_cell_volume   180.57538152
_cell_formula_units_Z   1
loop_
 _symmetry_equiv_pos_site_id
 _symmetry_equiv_pos_as_xyz
  1  'x, y, z'
loop_
 _atom_site_type_symbol
 _atom_site_label
 _atom_site_symmetry_multiplicity
 _atom_site_fract_x
 _atom_site_fract_y
 _atom_site_fract_z
 _atom_site_occupancy
  Cs  Cs0  1  0.75000000  0.75000000  0.75000000  1
  Cs  Cs1  1  0.25000000  0.25000000  0.25000000  1
  H  H0  1  0.18313823  0.81686177  0.81686177  1
  H  H1  1  0.18313823  0.18313823  0.81686177  1
  H  H2  1  0.18313823  0.81686177  0.18313823  1
  H  H3  1  0.81686177  0.18313823  0.18313823  1
  H  H4  1  0.81686177  0.81686177  0.18313823  1
  H  H5  1  0.81686177  0.18313823  0.81686177  1
  Pt  Pt0  1  -0.00000000  0.00000000  -0.00000000  1
loop_
_geom_bond_atom_site_label_1
_geom_bond_atom_site_label_2
_geom_bond_distance
_geom_bond_site_symmetry_2
Cs0 H1 3.228432 1_655
Cs0 H4 3.228432 1_556
Cs0 H0 3.228432 1_555
Cs0 H2 3.228432 1_655
Cs0 H3 3.228432 1_556
Cs0 H2 3.228432 1_556
Cs0 H0 3.228432 1_655
Cs0 H4 3.228432 1_555
Cs0 H5 3.228432 1_565
Cs0 H1 3.228432 1_565
Cs0 H3 3.228432 1_565
Cs0 H5 3.228432 1_555
Cs1 H2 3.228432 1_545
Cs1 H1 3.228432 1_554
Cs1 H3 3.228432 1_455
Cs1 H4 3.228432 1_545
Cs1 H5 3.228432 1_554
Cs1 H5 3.228432 1_455
Cs1 H0 3.228432 1_545
Cs1 H3 3.228432 1_555
Cs1 H4 3.228432 1_455
Cs1 H0 3.228432 1_554
Cs1 H2 3.228432 1_555
Cs1 H1 3.228432 1_555
H0 Pt0 1.643180 1_566
H1 Pt0 1.643180 1_556
H2 Pt0 1.643180 1_565
H3 Pt0 1.643180 1_655
H4 Pt0 1.643180 1_665
H5 Pt0 1.643180 1_656
