# generated using pymatgen
data_Sr10Al6O19
_symmetry_space_group_name_H-M   'P 1'
_cell_length_a   7.91840100
_cell_length_b   15.90686735
_cell_length_c   17.89542801
_cell_angle_alpha   103.27974750
_cell_angle_beta   102.73081677
_cell_angle_gamma   90.03112087
_symmetry_Int_Tables_number   1
_chemical_formula_structural   Sr10Al6O19
_chemical_formula_sum   'Sr40 Al24 O76'
_cell_volume   2136.73899971
_cell_formula_units_Z   4
loop_
 _symmetry_equiv_pos_site_id
 _symmetry_equiv_pos_as_xyz
  1  'x, y, z'
loop_
 _atom_site_type_symbol
 _atom_site_label
 _atom_site_symmetry_multiplicity
 _atom_site_fract_x
 _atom_site_fract_y
 _atom_site_fract_z
 _atom_site_occupancy
  Sr  Sr0  1  0.37524000  0.32348900  0.25058000  1
  Sr  Sr1  1  0.99978800  0.88204200  0.49820700  1
  Sr  Sr2  1  0.62460000  0.17272800  0.74895100  1
  Sr  Sr3  1  0.39157000  0.83234000  0.87113300  1
  Sr  Sr4  1  0.37456400  0.82862300  0.25175100  1
  Sr  Sr5  1  0.52200200  0.66797200  0.12829500  1
  Sr  Sr6  1  0.36672500  0.56250600  0.25925800  1
  Sr  Sr7  1  0.58120300  0.92502300  0.76089500  1
  Sr  Sr8  1  0.24467600  0.02599600  0.00002100  1
  Sr  Sr9  1  0.82058500  0.57504500  0.24017400  1
  Sr  Sr10  1  0.15716500  0.75012400  0.00014800  1
  Sr  Sr11  1  0.16394900  0.47721200  0.37332600  1
  Sr  Sr12  1  0.17724100  0.42419900  0.76001500  1
  Sr  Sr13  1  0.62960500  0.43759000  0.73930600  1
  Sr  Sr14  1  0.47780900  0.33300000  0.87194600  1
  Sr  Sr15  1  0.49757600  0.38294300  0.49913400  1
  Sr  Sr16  1  0.75589000  0.97440900  0.99935400  1
  Sr  Sr17  1  0.83693700  0.52256500  0.62610300  1
  Sr  Sr18  1  0.02354700  0.34753900  0.49950800  1
  Sr  Sr19  1  0.20762300  0.97732800  0.37352400  1
  Sr  Sr20  1  0.71617600  0.75080900  0.99821500  1
  Sr  Sr21  1  0.12366700  0.67149700  0.74846000  1
  Sr  Sr22  1  0.87266400  0.82253800  0.25058700  1
  Sr  Sr23  1  0.87460900  0.32841000  0.25269300  1
  Sr  Sr24  1  0.10682500  0.93696200  0.73818200  1
  Sr  Sr25  1  0.78868400  0.02229100  0.62690700  1
  Sr  Sr26  1  0.75847500  0.52833100  0.00232100  1
  Sr  Sr27  1  0.52290600  0.15054100  0.50046800  1
  Sr  Sr28  1  0.50154300  0.61832000  0.50157700  1
  Sr  Sr29  1  0.99633000  0.11816200  0.50245500  1
  Sr  Sr30  1  0.24306800  0.47288000  0.99824400  1
  Sr  Sr31  1  0.60606900  0.16826500  0.12922900  1
  Sr  Sr32  1  0.84089600  0.24992600  0.00014600  1
  Sr  Sr33  1  0.97506800  0.65039900  0.49960500  1
  Sr  Sr34  1  0.47368600  0.84922400  0.50063500  1
  Sr  Sr35  1  0.62451000  0.67690800  0.74888500  1
  Sr  Sr36  1  0.89126400  0.06251100  0.26031400  1
  Sr  Sr37  1  0.28249200  0.24966000  0.00050500  1
  Sr  Sr38  1  0.41701100  0.07463800  0.23952500  1
  Sr  Sr39  1  0.12531300  0.17624900  0.74917600  1
  Al  Al0  1  0.52082000  0.91106600  0.11306200  1
  Al  Al1  1  0.91461700  0.84874700  0.85263200  1
  Al  Al2  1  0.69992300  0.46216400  0.38784400  1
  Al  Al3  1  0.78577900  0.78490000  0.64273300  1
  Al  Al4  1  0.14194800  0.71501600  0.35738200  1
  Al  Al5  1  0.93548200  0.34881900  0.85201700  1
  Al  Al6  1  0.30234400  0.26238800  0.63021300  1
  Al  Al7  1  0.68563300  0.96213600  0.38792200  1
  Al  Al8  1  0.04363700  0.43362000  0.12819300  1
  Al  Al9  1  0.85540600  0.28462500  0.64223500  1
  Al  Al10  1  0.06259400  0.65178600  0.14763900  1
  Al  Al11  1  0.21208400  0.21536700  0.35736800  1
  Al  Al12  1  0.40681300  0.58970900  0.88660700  1
  Al  Al13  1  0.31228800  0.03790900  0.61167100  1
  Al  Al14  1  0.67090000  0.23762600  0.37082800  1
  Al  Al15  1  0.95394600  0.56715700  0.87113700  1
  Al  Al16  1  0.29928800  0.53830100  0.61178000  1
  Al  Al17  1  0.69603800  0.73766200  0.37041600  1
  Al  Al18  1  0.08331200  0.15150300  0.14794100  1
  Al  Al19  1  0.47835600  0.08981900  0.88670500  1
  Al  Al20  1  0.91504200  0.06630400  0.87072900  1
  Al  Al21  1  0.32662000  0.76277200  0.62961400  1
  Al  Al22  1  0.59197500  0.41099100  0.11312100  1
  Al  Al23  1  0.08391600  0.93253200  0.12881100  1
  O  O0  1  0.50466700  0.87805200  0.00996300  1
  O  O1  1  0.55263100  0.77134600  0.62698700  1
  O  O2  1  0.24370200  0.48543100  0.51060900  1
  O  O3  1  0.26966300  0.98508500  0.51071700  1
  O  O4  1  0.90724800  0.46226100  0.88819900  1
  O  O5  1  0.22479800  0.71384700  0.12912300  1
  O  O6  1  0.77503000  0.28602300  0.87154400  1
  O  O7  1  0.41205900  0.31685300  0.72593500  1
  O  O8  1  0.47313000  0.47201400  0.35529500  1
  O  O9  1  0.23874500  0.81928700  0.37100000  1
  O  O10  1  0.56679500  0.32998000  0.16400400  1
  O  O11  1  0.09404500  0.78587700  0.87114600  1
  O  O12  1  0.92075100  0.07376800  0.77413900  1
  O  O13  1  0.83968200  0.86648900  0.59944700  1
  O  O14  1  0.50883900  0.00719100  0.66416300  1
  O  O15  1  0.68665500  0.18177800  0.27528400  1
  O  O16  1  0.09154800  0.36038600  0.04701800  1
  O  O17  1  0.81827000  0.43375000  0.12335200  1
  O  O18  1  0.34504800  0.15154700  0.62146300  1
  O  O19  1  0.63100200  0.01521600  0.14667300  1
  O  O20  1  0.16135700  0.13439100  0.40227100  1
  O  O21  1  0.31309800  0.81793000  0.72567100  1
  O  O22  1  0.50182400  0.37567300  0.01064600  1
  O  O23  1  0.14401400  0.16619500  0.25334500  1
  O  O24  1  0.02053800  0.03761200  0.11275700  1
  O  O25  1  0.09059700  0.53836900  0.11043900  1
  O  O26  1  0.83758200  0.66907800  0.12478700  1
  O  O27  1  0.17902700  0.56835700  0.87447500  1
  O  O28  1  0.72095600  0.34852500  0.37760500  1
  O  O29  1  0.11523100  0.02920500  0.64293700  1
  O  O30  1  0.27603600  0.65172200  0.62127900  1
  O  O31  1  0.44404800  0.23022400  0.37198300  1
  O  O32  1  0.90710900  0.63952300  0.95290600  1
  O  O33  1  0.15576100  0.50888000  0.66530900  1
  O  O34  1  0.84683600  0.49060700  0.33535400  1
  O  O35  1  0.71182300  0.83252400  0.87581900  1
  O  O36  1  0.66313700  0.71086000  0.45525700  1
  O  O37  1  0.07774200  0.92389400  0.22500400  1
  O  O38  1  0.72943700  0.01463000  0.48917500  1
  O  O39  1  0.30647500  0.93158700  0.12614700  1
  O  O40  1  0.04303800  0.13900100  0.95239700  1
  O  O41  1  0.51544400  0.51492500  0.14679400  1
  O  O42  1  0.90398800  0.21358800  0.12907600  1
  O  O43  1  0.48737900  0.99094800  0.33502400  1
  O  O44  1  0.36573200  0.98621900  0.85413600  1
  O  O45  1  0.10712800  0.66574800  0.25315100  1
  O  O46  1  0.85392600  0.83371600  0.74722000  1
  O  O47  1  0.95601000  0.86070000  0.04612500  1
  O  O48  1  0.12864400  0.31932800  0.37075500  1
  O  O49  1  0.33649700  0.29195600  0.54661400  1
  O  O50  1  0.43411500  0.67094300  0.83644900  1
  O  O51  1  0.85227400  0.57460000  0.77452800  1
  O  O52  1  0.07374300  0.27037300  0.62763700  1
  O  O53  1  0.65388100  0.84830500  0.37750400  1
  O  O54  1  0.92461600  0.72935200  0.37298700  1
  O  O55  1  0.88829700  0.33299200  0.74636400  1
  O  O56  1  0.97919300  0.96200200  0.88921300  1
  O  O57  1  0.49741800  0.12432600  0.98985100  1
  O  O58  1  0.69218700  0.06729500  0.87293100  1
  O  O59  1  0.20840700  0.79115700  0.54589000  1
  O  O60  1  0.76314100  0.36630200  0.59766500  1
  O  O61  1  0.52698800  0.52900200  0.64331900  1
  O  O62  1  0.86743100  0.68037800  0.62968600  1
  O  O63  1  0.75623300  0.51583600  0.48871900  1
  O  O64  1  0.58767400  0.68136500  0.27466700  1
  O  O65  1  0.75930500  0.18009900  0.62848400  1
  O  O66  1  0.49549000  0.62464700  0.98924200  1
  O  O67  1  0.16110400  0.33249700  0.87437600  1
  O  O68  1  0.28640000  0.16823300  0.12449600  1
  O  O69  1  0.14466500  0.42615400  0.22476400  1
  O  O70  1  0.23473700  0.63371800  0.40231100  1
  O  O71  1  0.78757400  0.21060400  0.45524800  1
  O  O72  1  0.88226600  0.97197200  0.35663600  1
  O  O73  1  0.40174400  0.17098300  0.83645700  1
  O  O74  1  0.48086300  0.48534000  0.85220400  1
  O  O75  1  0.59736800  0.82936900  0.16275100  1
loop_
_geom_bond_atom_site_label_1
_geom_bond_atom_site_label_2
_geom_bond_distance
_geom_bond_site_symmetry_2
Al0 O75 1.772311 1_555
Al0 O0 1.773968 1_555
Al0 O19 1.782409 1_565
Al0 O39 1.784030 1_555
Al1 O11 1.753516 1_655
Al1 O35 1.777581 1_555
Al1 O46 1.799919 1_555
Al1 O56 1.801442 1_555
Al2 O34 1.765400 1_555
Al2 O63 1.767270 1_555
Al2 O8 1.780468 1_555
Al2 O28 1.786194 1_555
Al3 O13 1.753153 1_555
Al3 O62 1.768108 1_555
Al3 O1 1.810129 1_555
Al3 O46 1.810594 1_555
Al4 O70 1.754137 1_555
Al4 O9 1.768759 1_555
Al4 O45 1.808569 1_555
Al4 O54 1.809570 1_455
Al5 O6 1.757492 1_555
Al5 O67 1.775525 1_655
Al5 O55 1.802114 1_555
Al5 O4 1.803590 1_555
Al6 O49 1.741817 1_555
Al6 O7 1.761007 1_555
Al6 O18 1.773316 1_555
Al6 O52 1.805846 1_555
Al7 O43 1.765142 1_555
Al7 O38 1.768718 1_565
Al7 O72 1.785060 1_555
Al7 O53 1.788951 1_555
Al8 O16 1.754179 1_555
Al8 O17 1.767502 1_455
Al8 O69 1.767976 1_555
Al8 O25 1.819378 1_555
Al9 O60 1.754476 1_555
Al9 O65 1.769818 1_555
Al9 O55 1.805375 1_555
Al9 O52 1.811338 1_655
Al10 O5 1.752284 1_555
Al10 O26 1.774414 1_455
Al10 O45 1.803526 1_555
Al10 O25 1.805791 1_555
Al11 O20 1.755959 1_555
Al11 O48 1.765667 1_555
Al11 O23 1.804446 1_555
Al11 O31 1.804836 1_555
Al12 O66 1.771323 1_555
Al12 O50 1.772067 1_555
Al12 O74 1.780353 1_555
Al12 O27 1.791283 1_555
Al13 O14 1.763741 1_555
Al13 O3 1.765605 1_545
Al13 O29 1.785260 1_555
Al13 O18 1.788698 1_555
Al14 O71 1.733267 1_555
Al14 O15 1.767625 1_555
Al14 O28 1.778615 1_555
Al14 O31 1.805064 1_555
Al15 O32 1.752042 1_555
Al15 O51 1.769692 1_555
Al15 O27 1.770022 1_655
Al15 O4 1.815825 1_555
Al16 O33 1.764508 1_555
Al16 O2 1.768552 1_555
Al16 O61 1.783660 1_555
Al16 O30 1.786363 1_555
Al17 O36 1.739641 1_555
Al17 O64 1.766470 1_555
Al17 O53 1.772514 1_555
Al17 O54 1.806084 1_555
Al18 O42 1.746133 1_455
Al18 O68 1.783575 1_555
Al18 O23 1.800376 1_555
Al18 O24 1.806276 1_555
Al19 O73 1.771219 1_555
Al19 O57 1.772809 1_555
Al19 O44 1.782922 1_545
Al19 O58 1.788878 1_555
Al20 O40 1.752096 1_655
Al20 O12 1.769925 1_555
Al20 O58 1.773754 1_555
Al20 O56 1.816345 1_545
Al21 O59 1.737247 1_555
Al21 O21 1.767627 1_555
Al21 O30 1.776206 1_555
Al21 O1 1.806490 1_555
Al22 O22 1.771282 1_555
Al22 O10 1.774339 1_555
Al22 O41 1.779885 1_555
Al22 O17 1.788775 1_555
Al23 O47 1.755666 1_455
Al23 O37 1.769262 1_555
Al23 O39 1.773406 1_555
Al23 O24 1.812805 1_565
O0 Sr3 2.385756 1_554
O0 Sr16 2.576706 1_554
O0 Sr20 2.628556 1_554
O0 Sr8 3.137559 1_565
O1 Sr34 2.775387 1_555
O1 Sr35 2.880686 1_555
O1 Sr7 2.972974 1_555
O2 Sr11 2.370658 1_555
O2 Sr15 2.602468 1_555
O2 Sr18 2.744565 1_555
O2 Sr28 2.993441 1_555
O3 Sr19 2.369260 1_555
O3 Sr1 2.630623 1_455
O3 Sr34 2.695568 1_555
O3 Sr29 3.032333 1_465
O4 Sr26 2.595922 1_556
O4 Sr30 2.918299 1_655
O4 Sr13 3.003965 1_555
O5 Sr10 2.452423 1_555
O5 Sr5 2.466453 1_555
O5 Sr4 2.562303 1_555
O6 Sr32 2.444685 1_556
O6 Sr14 2.470705 1_555
O6 Sr2 2.551316 1_555
O7 Sr14 2.501277 1_555
O7 Sr13 2.513321 1_555
O7 Sr12 2.601877 1_555
O7 Sr2 2.896632 1_555
O8 Sr6 2.497037 1_555
O8 Sr11 2.537887 1_555
O8 Sr0 2.649153 1_555
O9 Sr19 2.517154 1_555
O9 Sr34 2.580479 1_555
O9 Sr4 2.624814 1_555
O9 Sr1 3.258121 1_455
O10 Sr0 2.412637 1_555
O10 Sr31 2.540049 1_555
O10 Sr23 2.602648 1_555
O11 Sr10 2.448993 1_556
O11 Sr3 2.468813 1_555
O11 Sr21 2.564744 1_555
O12 Sr39 2.476153 1_655
O12 Sr25 2.549448 1_555
O12 Sr24 2.664333 1_645
O12 Sr2 2.836271 1_555
O13 Sr25 2.464889 1_565
O13 Sr1 2.483701 1_555
O13 Sr24 2.880863 1_655
O13 Sr34 3.019707 1_555
O14 Sr7 2.374096 1_545
O14 Sr25 2.477228 1_555
O14 Sr2 2.761333 1_555
O15 Sr36 2.501423 1_555
O15 Sr31 2.508299 1_555
O15 Sr38 2.601094 1_555
O15 Sr23 2.917778 1_555
O16 Sr37 2.442364 1_555
O16 Sr32 2.513073 1_455
O16 Sr30 2.565182 1_554
O17 Sr9 2.691991 1_555
O17 Sr26 2.867858 1_555
O17 Sr23 3.113148 1_555
O18 Sr2 2.763836 1_555
O18 Sr27 2.828457 1_555
O18 Sr29 3.054390 1_455
O19 Sr31 2.527027 1_555
O19 Sr36 2.529254 1_555
O19 Sr38 2.654578 1_555
O19 Sr16 2.951804 1_544
O20 Sr19 2.476764 1_545
O20 Sr29 2.496662 1_455
O20 Sr36 2.933128 1_455
O20 Sr27 2.987414 1_555
O21 Sr3 2.495521 1_555
O21 Sr24 2.504558 1_555
O21 Sr7 2.592146 1_555
O21 Sr21 2.923030 1_555
O22 Sr14 2.382335 1_554
O22 Sr30 2.568848 1_554
O22 Sr37 2.599492 1_555
O22 Sr26 3.216096 1_555
O23 Sr38 2.632251 1_555
O23 Sr36 2.634792 1_455
O24 Sr16 2.589729 1_444
O24 Sr8 2.943038 1_555
O24 Sr36 2.981403 1_455
O25 Sr30 2.585123 1_554
O25 Sr26 2.881013 1_455
O25 Sr6 2.997261 1_555
O26 Sr5 2.513622 1_555
O26 Sr26 2.710553 1_555
O26 Sr9 2.839097 1_555
O26 Sr20 2.852963 1_554
O26 Sr22 2.881501 1_555
O27 Sr12 2.698785 1_555
O27 Sr30 2.919024 1_555
O27 Sr21 3.038765 1_555
O28 Sr23 2.729476 1_555
O28 Sr18 2.865698 1_655
O29 Sr24 2.502278 1_545
O29 Sr25 2.537452 1_455
O29 Sr39 2.642312 1_555
O29 Sr1 3.031892 1_445
O29 Sr29 3.130717 1_455
O30 Sr21 2.759783 1_555
O30 Sr33 2.848321 1_455
O30 Sr35 3.128982 1_555
O31 Sr27 2.826694 1_555
O31 Sr0 2.859668 1_555
O31 Sr38 2.978305 1_555
O32 Sr20 2.441449 1_555
O32 Sr10 2.511099 1_656
O32 Sr26 2.543728 1_556
O33 Sr12 2.374389 1_555
O33 Sr17 2.490626 1_455
O33 Sr21 2.714592 1_555
O34 Sr9 2.375649 1_555
O34 Sr11 2.475373 1_655
O34 Sr23 2.698857 1_555
O35 Sr3 2.518718 1_555
O35 Sr16 2.733084 1_555
O35 Sr20 2.786221 1_555
O35 Sr7 2.814017 1_555
O35 Sr35 2.913427 1_555
O36 Sr28 2.348879 1_555
O36 Sr33 2.673002 1_555
O36 Sr34 2.733755 1_555
O37 Sr22 2.471824 1_455
O37 Sr19 2.569178 1_555
O37 Sr36 2.686296 1_465
O37 Sr4 2.809126 1_555
O38 Sr25 2.379571 1_555
O38 Sr29 2.613432 1_555
O38 Sr27 2.708881 1_555
O38 Sr1 3.010991 1_545
O39 Sr38 2.674825 1_565
O39 Sr8 2.942844 1_565
O39 Sr4 3.030451 1_555
O40 Sr37 2.452652 1_556
O40 Sr32 2.513718 1_456
O40 Sr8 2.571773 1_556
O41 Sr6 2.521091 1_555
O41 Sr5 2.533134 1_555
O41 Sr9 2.651213 1_555
O41 Sr30 2.969941 1_554
O42 Sr32 2.451961 1_555
O42 Sr31 2.467136 1_555
O42 Sr23 2.579701 1_555
O43 Sr38 2.372692 1_565
O43 Sr19 2.483858 1_555
O43 Sr4 2.707195 1_555
O44 Sr3 2.537899 1_555
O44 Sr24 2.549336 1_555
O44 Sr7 2.674545 1_555
O44 Sr8 2.911970 1_566
O45 Sr9 2.625657 1_455
O45 Sr6 2.630879 1_555
O46 Sr7 2.627925 1_555
O46 Sr24 2.644772 1_655
O46 Sr35 3.094460 1_555
O47 Sr20 2.446935 1_554
O47 Sr10 2.494723 1_655
O47 Sr16 2.568511 1_554
O48 Sr11 2.515568 1_555
O48 Sr18 2.563838 1_555
O48 Sr23 2.607377 1_455
O49 Sr15 2.341828 1_555
O49 Sr18 2.656546 1_555
O49 Sr27 2.758306 1_555
O50 Sr35 2.418012 1_555
O50 Sr3 2.539864 1_555
O50 Sr21 2.612056 1_555
O51 Sr35 2.468447 1_555
O51 Sr17 2.569548 1_555
O51 Sr13 2.670356 1_555
O51 Sr21 2.824904 1_655
O52 Sr18 2.795357 1_555
O52 Sr29 2.856175 1_455
O52 Sr39 2.871283 1_555
O52 Sr12 2.958042 1_555
O53 Sr4 2.745178 1_555
O53 Sr34 2.874440 1_555
O53 Sr1 3.051930 1_555
O54 Sr33 2.789270 1_555
O54 Sr1 2.860958 1_555
O54 Sr22 2.873924 1_555
O54 Sr9 2.967665 1_555
O55 Sr13 2.639421 1_555
O55 Sr12 2.643218 1_655
O56 Sr8 2.573062 1_666
O56 Sr16 2.899679 1_555
O56 Sr24 3.032284 1_655
O57 Sr31 2.388000 1_556
O57 Sr8 2.602453 1_556
O57 Sr37 2.622881 1_556
O57 Sr16 3.153235 1_545
O58 Sr7 2.655268 1_545
O58 Sr16 2.930781 1_545
O58 Sr2 3.034588 1_555
O59 Sr1 2.344164 1_455
O59 Sr34 2.648171 1_555
O59 Sr33 2.753570 1_455
O60 Sr17 2.462751 1_555
O60 Sr15 2.486350 1_555
O60 Sr13 2.948032 1_555
O60 Sr18 2.963549 1_655
O61 Sr13 2.501756 1_555
O61 Sr17 2.539298 1_555
O61 Sr35 2.648328 1_555
O61 Sr15 3.015018 1_555
O61 Sr28 3.150220 1_555
O62 Sr17 2.506521 1_555
O62 Sr33 2.595702 1_555
O62 Sr21 2.625266 1_655
O62 Sr35 3.180514 1_555
O63 Sr17 2.377152 1_555
O63 Sr28 2.610267 1_555
O63 Sr33 2.697756 1_555
O63 Sr15 3.007129 1_555
O64 Sr6 2.501183 1_555
O64 Sr5 2.513995 1_555
O64 Sr9 2.582277 1_555
O64 Sr4 2.939949 1_555
O65 Sr25 2.515384 1_555
O65 Sr27 2.566605 1_555
O65 Sr2 2.632198 1_555
O65 Sr29 3.229035 1_555
O66 Sr5 2.385993 1_556
O66 Sr26 2.586877 1_556
O66 Sr20 2.613687 1_555
O66 Sr30 3.188176 1_555
O67 Sr14 2.517778 1_555
O67 Sr30 2.722439 1_555
O67 Sr12 2.796239 1_555
O67 Sr37 2.857684 1_556
O67 Sr39 2.904924 1_555
O68 Sr31 2.513956 1_555
O68 Sr8 2.747655 1_555
O68 Sr37 2.809296 1_555
O68 Sr38 2.827520 1_555
O68 Sr0 2.902335 1_555
O69 Sr0 2.488364 1_555
O69 Sr11 2.565143 1_555
O69 Sr6 2.660739 1_555
O69 Sr23 2.839799 1_455
O70 Sr11 2.461310 1_555
O70 Sr28 2.495071 1_555
O70 Sr33 2.948884 1_455
O70 Sr6 2.962651 1_555
O71 Sr29 2.359289 1_555
O71 Sr27 2.657126 1_555
O71 Sr18 2.722871 1_655
O72 Sr36 2.498991 1_565
O72 Sr19 2.526009 1_655
O72 Sr22 2.668597 1_555
O72 Sr29 3.033805 1_565
O72 Sr1 3.155653 1_555
O73 Sr39 2.406522 1_555
O73 Sr14 2.546718 1_555
O73 Sr2 2.608617 1_555
O74 Sr13 2.527989 1_555
O74 Sr14 2.528747 1_555
O74 Sr12 2.638175 1_555
O74 Sr26 3.011370 1_556
O75 Sr22 2.408954 1_555
O75 Sr5 2.537001 1_555
O75 Sr4 2.626119 1_555
