# generated using pymatgen
data_LaNb2CuClO7
_symmetry_space_group_name_H-M   'P 1'
_cell_length_a   3.92223400
_cell_length_b   3.92223400
_cell_length_c   11.84313800
_cell_angle_alpha   90.00000000
_cell_angle_beta   90.00000000
_cell_angle_gamma   90.00000000
_symmetry_Int_Tables_number   1
_chemical_formula_structural   LaNb2CuClO7
_chemical_formula_sum   'La1 Nb2 Cu1 Cl1 O7'
_cell_volume   182.19388222
_cell_formula_units_Z   1
loop_
 _symmetry_equiv_pos_site_id
 _symmetry_equiv_pos_as_xyz
  1  'x, y, z'
loop_
 _atom_site_type_symbol
 _atom_site_label
 _atom_site_symmetry_multiplicity
 _atom_site_fract_x
 _atom_site_fract_y
 _atom_site_fract_z
 _atom_site_occupancy
  La  La0  1  0.00000000  0.00000000  0.00000000  1
  Nb  Nb0  1  0.50000000  0.50000000  0.80667600  1
  Nb  Nb1  1  0.50000000  0.50000000  0.19332400  1
  Cu  Cu0  1  0.50000000  0.50000000  0.50000000  1
  Cl  Cl0  1  0.00000000  0.00000000  0.50000000  1
  O  O0  1  0.00000000  0.50000000  0.15600400  1
  O  O1  1  0.50000000  0.50000000  0.65440000  1
  O  O2  1  0.00000000  0.50000000  0.84399600  1
  O  O3  1  0.50000000  0.50000000  0.34560000  1
  O  O4  1  0.50000000  0.00000000  0.15600400  1
  O  O5  1  0.50000000  0.00000000  0.84399600  1
  O  O6  1  0.50000000  0.50000000  0.00000000  1
loop_
_geom_bond_atom_site_label_1
_geom_bond_atom_site_label_2
_geom_bond_distance
_geom_bond_site_symmetry_2
La0 O4 2.694350 1_555
La0 O5 2.694350 1_554
La0 O5 2.694350 1_454
La0 O0 2.694350 1_545
La0 O2 2.694350 1_554
La0 O0 2.694350 1_555
La0 O2 2.694350 1_544
La0 O4 2.694350 1_455
La0 O6 2.773438 1_445
La0 O6 2.773438 1_545
La0 O6 2.773438 1_455
La0 O6 2.773438 1_555
Nb0 O1 1.803426 1_555
Nb0 O5 2.010306 1_565
Nb0 O2 2.010306 1_655
Nb0 O2 2.010306 1_555
Nb0 O5 2.010306 1_555
Nb0 O6 2.289563 1_556
Nb1 O3 1.803426 1_555
Nb1 O0 2.010306 1_555
Nb1 O4 2.010306 1_555
Nb1 O4 2.010306 1_565
Nb1 O0 2.010306 1_655
Nb1 O6 2.289563 1_555
Cu0 O1 1.828581 1_555
Cu0 O3 1.828581 1_555
Cl0 Cu0 2.773438 1_545
Cl0 Cu0 2.773438 1_555
Cl0 Cu0 2.773438 1_445
Cl0 Cu0 2.773438 1_455
