# generated using pymatgen
data_Ba2U2O3
_symmetry_space_group_name_H-M   'P 1'
_cell_length_a   4.02408100
_cell_length_b   5.92571800
_cell_length_c   7.98387304
_cell_angle_alpha   88.99792424
_cell_angle_beta   90.00000000
_cell_angle_gamma   90.00000000
_symmetry_Int_Tables_number   1
_chemical_formula_structural   Ba2U2O3
_chemical_formula_sum   'Ba2 U2 O3'
_cell_volume   190.35088079
_cell_formula_units_Z   1
loop_
 _symmetry_equiv_pos_site_id
 _symmetry_equiv_pos_as_xyz
  1  'x, y, z'
loop_
 _atom_site_type_symbol
 _atom_site_label
 _atom_site_symmetry_multiplicity
 _atom_site_fract_x
 _atom_site_fract_y
 _atom_site_fract_z
 _atom_site_occupancy
  Ba  Ba0  1  0.50000000  0.98275700  0.01671600  1
  Ba  Ba1  1  0.50000000  0.96227500  0.51399500  1
  U  U0  1  0.00000000  0.50287100  0.77013600  1
  U  U1  1  0.00000000  0.46468800  0.27831400  1
  O  O0  1  0.50000000  0.63073000  0.79748400  1
  O  O1  1  0.00000000  0.63387900  0.51643100  1
  O  O2  1  0.50000000  0.32279900  0.26687500  1
loop_
_geom_bond_atom_site_label_1
_geom_bond_atom_site_label_2
_geom_bond_distance
_geom_bond_site_symmetry_2
Ba0 O0 2.746412 1_554
Ba0 O2 2.861803 1_565
Ba1 O1 2.798965 1_555
Ba1 O1 2.798965 1_655
Ba1 O2 2.882577 1_565
Ba1 O0 2.971026 1_555
O0 U0 2.162362 1_555
O0 U0 2.162362 1_655
O1 U0 2.156505 1_555
O1 U1 2.164716 1_555
O2 U1 2.183179 1_655
O2 U1 2.183179 1_555
