# generated using pymatgen
data_Er17(TeRu2)3
_symmetry_space_group_name_H-M   'P 1'
_cell_length_a   3.98913000
_cell_length_b   16.26305034
_cell_length_c   20.52738685
_cell_angle_alpha   95.35448360
_cell_angle_beta   95.56231916
_cell_angle_gamma   89.97677596
_symmetry_Int_Tables_number   1
_chemical_formula_structural   Er17(TeRu2)3
_chemical_formula_sum   'Er34 Te6 Ru12'
_cell_volume   1319.61839415
_cell_formula_units_Z   2
loop_
 _symmetry_equiv_pos_site_id
 _symmetry_equiv_pos_as_xyz
  1  'x, y, z'
loop_
 _atom_site_type_symbol
 _atom_site_label
 _atom_site_symmetry_multiplicity
 _atom_site_fract_x
 _atom_site_fract_y
 _atom_site_fract_z
 _atom_site_occupancy
  Er  Er0  1  0.72773400  0.93085700  0.45812600  1
  Er  Er1  1  0.35683500  0.07864700  0.71095100  1
  Er  Er2  1  0.73110400  0.41648600  0.46173300  1
  Er  Er3  1  0.86901400  0.90282800  0.73237700  1
  Er  Er4  1  0.81553500  0.22018300  0.63041300  1
  Er  Er5  1  0.86893600  0.40157400  0.73887600  1
  Er  Er6  1  0.18446500  0.77981700  0.36958700  1
  Er  Er7  1  0.47487800  0.16384200  0.94575600  1
  Er  Er8  1  0.55722000  0.10894300  0.11599900  1
  Er  Er9  1  0.13106400  0.59842600  0.26112400  1
  Er  Er10  1  0.55619600  0.60997300  0.11566100  1
  Er  Er11  1  0.90777300  0.22830200  0.81273700  1
  Er  Er12  1  0.52512200  0.83615800  0.05424400  1
  Er  Er13  1  0.08890600  0.26687100  0.17964600  1
  Er  Er14  1  0.36232500  0.57818100  0.72252800  1
  Er  Er15  1  0.63767500  0.42181900  0.27747200  1
  Er  Er16  1  0.64316500  0.92135300  0.28904900  1
  Er  Er17  1  0.47370300  0.66608000  0.94948300  1
  Er  Er18  1  0.69543000  0.59972600  0.39169100  1
  Er  Er19  1  0.44278000  0.89105700  0.88400100  1
  Er  Er20  1  0.69958700  0.12471600  0.40327500  1
  Er  Er21  1  0.30041300  0.87528400  0.59672500  1
  Er  Er22  1  0.17564000  0.29099500  0.35210600  1
  Er  Er23  1  0.52629700  0.33392000  0.05051700  1
  Er  Er24  1  0.00000000  0.00000000  0.00000000  1
  Er  Er25  1  0.09222700  0.77169800  0.18726300  1
  Er  Er26  1  0.82436000  0.70900500  0.64789400  1
  Er  Er27  1  0.13098600  0.09717200  0.26762300  1
  Er  Er28  1  0.91109400  0.73312900  0.82035400  1
  Er  Er29  1  0.44380400  0.39002700  0.88433900  1
  Er  Er30  1  0.27226600  0.06914300  0.54187400  1
  Er  Er31  1  0.30457000  0.40027400  0.60830900  1
  Er  Er32  1  0.00000000  0.50000000  0.00000000  1
  Er  Er33  1  0.26889600  0.58351400  0.53826700  1
  Te  Te0  1  0.74678100  0.74857800  0.49970600  1
  Te  Te1  1  0.07233000  0.45308500  0.14756600  1
  Te  Te2  1  0.25321900  0.25142200  0.50029400  1
  Te  Te3  1  0.07836600  0.95357900  0.15118100  1
  Te  Te4  1  0.92767000  0.54691500  0.85243400  1
  Te  Te5  1  0.92163400  0.04642100  0.84881900  1
  Ru  Ru0  1  0.97669700  0.81147100  0.95151300  1
  Ru  Ru1  1  0.36140800  0.27495600  0.72214200  1
  Ru  Ru2  1  0.02293000  0.69093600  0.05067900  1
  Ru  Ru3  1  0.63859200  0.72504400  0.27785800  1
  Ru  Ru4  1  0.18789100  0.99523700  0.38046100  1
  Ru  Ru5  1  0.81210900  0.00476300  0.61953900  1
  Ru  Ru6  1  0.63333700  0.22052800  0.26875300  1
  Ru  Ru7  1  0.18675300  0.47695300  0.37477000  1
  Ru  Ru8  1  0.02330300  0.18852900  0.04848700  1
  Ru  Ru9  1  0.81324700  0.52304700  0.62523000  1
  Ru  Ru10  1  0.36666300  0.77947200  0.73124700  1
  Ru  Ru11  1  0.97707000  0.30906400  0.94932100  1
loop_
_geom_bond_atom_site_label_1
_geom_bond_atom_site_label_2
_geom_bond_distance
_geom_bond_site_symmetry_2
Er0 Ru4 2.808529 1_655
Er0 Ru4 2.814184 1_555
Er0 Te0 3.159351 1_555
Er0 Ru5 3.402549 1_565
Er1 Ru5 2.911627 1_455
Er1 Ru5 2.915702 1_555
Er1 Ru1 3.179316 1_555
Er1 Te5 3.521364 1_555
Er1 Te5 3.539482 1_455
Er2 Ru7 2.900967 1_655
Er2 Ru7 2.905768 1_555
Er2 Te2 3.487149 1_555
Er2 Te2 3.499034 1_655
Er2 Ru9 3.616115 1_555
Er3 Ru10 2.821903 1_655
Er3 Ru10 2.833109 1_555
Er3 Ru5 2.962982 1_565
Er3 Te5 3.173667 1_565
Er4 Ru1 2.822714 1_555
Er4 Ru1 2.823905 1_655
Er4 Te2 3.393367 1_555
Er4 Te2 3.405706 1_655
Er4 Ru5 3.489588 1_555
Er5 Ru1 2.862483 1_555
Er5 Ru1 2.865868 1_655
Er5 Te4 3.153085 1_555
Er5 Ru9 3.186464 1_555
Er6 Ru3 2.822714 1_555
Er6 Ru3 2.823905 1_455
Er6 Te0 3.393367 1_555
Er6 Te0 3.405706 1_455
Er6 Ru4 3.489588 1_555
Er7 Ru8 2.888384 1_656
Er7 Ru8 2.903627 1_556
Er7 Ru11 3.085260 1_455
Er7 Ru11 3.088630 1_555
Er7 Te5 3.279917 1_555
Er7 Te5 3.304511 1_455
Er8 Ru8 2.808718 1_655
Er8 Ru8 2.809353 1_555
Er8 Te3 3.341640 1_545
Er8 Te3 3.357514 1_645
Er8 Ru6 3.459984 1_555
Er9 Ru3 2.862483 1_555
Er9 Ru3 2.865868 1_455
Er9 Te1 3.153085 1_555
Er9 Ru7 3.186464 1_555
Er10 Ru2 2.791201 1_655
Er10 Ru2 2.795307 1_555
Er10 Te1 3.350276 1_655
Er10 Te1 3.350460 1_555
Er10 Ru3 3.649808 1_555
Er11 Ru1 2.868032 1_655
Er11 Ru1 2.874136 1_555
Er11 Ru11 2.970707 1_555
Er11 Te5 3.114783 1_555
Er12 Ru0 2.888384 1_454
Er12 Ru0 2.903627 1_554
Er12 Ru2 3.085260 1_655
Er12 Ru2 3.088630 1_555
Er12 Te3 3.279917 1_555
Er12 Te3 3.304511 1_655
Er13 Ru6 2.848924 1_555
Er13 Ru6 2.849427 1_455
Er13 Ru8 2.857271 1_555
Er13 Te1 3.157985 1_555
Er14 Ru9 2.896486 1_555
Er14 Ru9 2.899995 1_455
Er14 Ru10 3.261736 1_555
Er14 Te4 3.394992 1_455
Er14 Te4 3.397331 1_555
Er15 Ru7 2.896486 1_555
Er15 Ru7 2.899995 1_655
Er15 Ru6 3.261736 1_555
Er15 Te1 3.394992 1_655
Er15 Te1 3.397331 1_555
Er16 Ru4 2.911627 1_655
Er16 Ru4 2.915702 1_555
Er16 Ru3 3.179316 1_555
Er16 Te3 3.521364 1_555
Er16 Te3 3.539482 1_655
Er17 Ru2 2.870620 1_656
Er17 Ru2 2.877299 1_556
Er17 Ru0 3.084999 1_455
Er17 Ru0 3.096438 1_555
Er17 Te4 3.303135 1_455
Er17 Te4 3.313601 1_555
Er18 Ru7 2.819235 1_655
Er18 Ru7 2.821718 1_555
Er18 Te0 3.119139 1_555
Er18 Ru3 3.232791 1_555
Er19 Ru0 2.808718 1_455
Er19 Ru0 2.809353 1_555
Er19 Te5 3.341640 1_565
Er19 Te5 3.357514 1_465
Er19 Ru10 3.459984 1_555
Er20 Ru4 2.904686 1_645
Er20 Ru4 2.907593 1_545
Er20 Ru6 3.283947 1_555
Er20 Te2 3.361786 1_555
Er20 Te2 3.387488 1_655
Er21 Ru5 2.904686 1_465
Er21 Ru5 2.907593 1_565
Er21 Ru10 3.283947 1_555
Er21 Te0 3.361786 1_555
Er21 Te0 3.387488 1_455
Er22 Ru6 2.795079 1_555
Er22 Ru6 2.799885 1_455
Er22 Ru7 3.016286 1_555
Er22 Te2 3.153715 1_555
Er23 Ru11 2.870620 1_454
Er23 Ru11 2.877299 1_554
Er23 Ru8 3.084999 1_655
Er23 Ru8 3.096438 1_555
Er23 Te1 3.303135 1_655
Er23 Te1 3.313601 1_555
Er24 Ru8 3.132528 1_555
Er24 Ru0 3.132528 1_444
Er24 Te3 3.247685 1_545
Er24 Te5 3.247685 1_454
Er25 Ru3 2.868032 1_455
Er25 Ru3 2.874136 1_555
Er25 Ru2 2.970707 1_555
Er25 Te3 3.114783 1_555
Er26 Ru10 2.795079 1_555
Er26 Ru10 2.799885 1_655
Er26 Ru9 3.016286 1_555
Er26 Te0 3.153715 1_555
Er27 Ru6 2.821903 1_455
Er27 Ru6 2.833109 1_555
Er27 Ru4 2.962982 1_545
Er27 Te3 3.173667 1_545
Er28 Ru10 2.848924 1_555
Er28 Ru10 2.849427 1_655
Er28 Ru0 2.857271 1_555
Er28 Te4 3.157985 1_555
Er29 Ru11 2.791201 1_455
Er29 Ru11 2.795307 1_555
Er29 Te4 3.350276 1_455
Er29 Te4 3.350460 1_555
Er29 Ru1 3.649808 1_555
Er30 Ru5 2.808529 1_455
Er30 Ru5 2.814184 1_555
Er30 Te2 3.159351 1_555
Er30 Ru4 3.402549 1_545
Er31 Ru9 2.819235 1_455
Er31 Ru9 2.821718 1_555
Er31 Te2 3.119139 1_555
Er31 Ru1 3.232791 1_555
Er32 Te1 3.178497 1_555
Er32 Te4 3.178497 1_454
Er32 Ru2 3.179901 1_555
Er32 Ru11 3.179901 1_454
Er33 Ru9 2.900967 1_455
Er33 Ru9 2.905768 1_555
Er33 Te0 3.487149 1_555
Er33 Te0 3.499034 1_455
Er33 Ru7 3.616115 1_555
