# generated using pymatgen
data_Sr5Re3ClO15
_symmetry_space_group_name_H-M   'P 1'
_cell_length_a   7.52361300
_cell_length_b   10.69220400
_cell_length_c   18.68288900
_cell_angle_alpha   90.00000000
_cell_angle_beta   90.00000000
_cell_angle_gamma   90.00000000
_symmetry_Int_Tables_number   1
_chemical_formula_structural   Sr5Re3ClO15
_chemical_formula_sum   'Sr20 Re12 Cl4 O60'
_cell_volume   1502.92641637
_cell_formula_units_Z   4
loop_
 _symmetry_equiv_pos_site_id
 _symmetry_equiv_pos_as_xyz
  1  'x, y, z'
loop_
 _atom_site_type_symbol
 _atom_site_label
 _atom_site_symmetry_multiplicity
 _atom_site_fract_x
 _atom_site_fract_y
 _atom_site_fract_z
 _atom_site_occupancy
  Sr  Sr0  1  0.27827500  0.48958500  0.75000000  1
  Sr  Sr1  1  0.26036900  0.38601100  0.11014700  1
  Sr  Sr2  1  0.49966200  0.75349600  0.41485300  1
  Sr  Sr3  1  0.00033800  0.25349600  0.58514700  1
  Sr  Sr4  1  0.50033800  0.24650400  0.58514700  1
  Sr  Sr5  1  0.73963100  0.61398900  0.88985300  1
  Sr  Sr6  1  0.50033800  0.24650400  0.91485300  1
  Sr  Sr7  1  0.23963100  0.88601100  0.61014700  1
  Sr  Sr8  1  0.73963100  0.61398900  0.61014700  1
  Sr  Sr9  1  0.49966200  0.75349600  0.08514700  1
  Sr  Sr10  1  0.26036900  0.38601100  0.38985300  1
  Sr  Sr11  1  0.99966200  0.74650400  0.08514700  1
  Sr  Sr12  1  0.22172500  0.98958500  0.25000000  1
  Sr  Sr13  1  0.72172500  0.51041500  0.25000000  1
  Sr  Sr14  1  0.77827500  0.01041500  0.75000000  1
  Sr  Sr15  1  0.76036900  0.11398900  0.11014700  1
  Sr  Sr16  1  0.00033800  0.25349600  0.91485300  1
  Sr  Sr17  1  0.76036900  0.11398900  0.38985300  1
  Sr  Sr18  1  0.23963100  0.88601100  0.88985300  1
  Sr  Sr19  1  0.99966200  0.74650400  0.41485300  1
  Re  Re0  1  0.79229200  0.44089400  0.05730200  1
  Re  Re1  1  0.22060600  0.14639300  0.75000000  1
  Re  Re2  1  0.29229200  0.05910600  0.44269800  1
  Re  Re3  1  0.29229200  0.05910600  0.05730200  1
  Re  Re4  1  0.70770800  0.94089400  0.55730200  1
  Re  Re5  1  0.79229200  0.44089400  0.44269800  1
  Re  Re6  1  0.77939400  0.85360700  0.25000000  1
  Re  Re7  1  0.27939400  0.64639300  0.25000000  1
  Re  Re8  1  0.20770800  0.55910600  0.55730200  1
  Re  Re9  1  0.70770800  0.94089400  0.94269800  1
  Re  Re10  1  0.20770800  0.55910600  0.94269800  1
  Re  Re11  1  0.72060600  0.35360700  0.75000000  1
  Cl  Cl0  1  0.87721400  0.24350200  0.25000000  1
  Cl  Cl1  1  0.62278600  0.74350200  0.75000000  1
  Cl  Cl2  1  0.37721400  0.25649800  0.25000000  1
  Cl  Cl3  1  0.12278600  0.75649800  0.75000000  1
  O  O0  1  0.92287400  0.92926000  0.18209300  1
  O  O1  1  0.73576700  0.60415400  0.03114800  1
  O  O2  1  0.08176000  0.56014300  0.25000000  1
  O  O3  1  0.74936700  0.72611800  0.18256000  1
  O  O4  1  0.42287400  0.57074000  0.31790700  1
  O  O5  1  0.44591700  0.19436900  0.05151700  1
  O  O6  1  0.03852600  0.48879900  0.88369600  1
  O  O7  1  0.22573900  0.09980900  0.53570200  1
  O  O8  1  0.77426100  0.90019100  0.03570200  1
  O  O9  1  0.91824000  0.43985700  0.75000000  1
  O  O10  1  0.27426100  0.59980900  0.03570200  1
  O  O11  1  0.03852600  0.48879900  0.61630400  1
  O  O12  1  0.23576700  0.89584600  0.03114800  1
  O  O13  1  0.96147400  0.51120100  0.38369600  1
  O  O14  1  0.72573900  0.40019100  0.53570200  1
  O  O15  1  0.72573900  0.40019100  0.96429800  1
  O  O16  1  0.55408300  0.80563100  0.94848300  1
  O  O17  1  0.62534800  0.38906600  0.38323700  1
  O  O18  1  0.12534800  0.11093400  0.11676300  1
  O  O19  1  0.12534800  0.11093400  0.38323700  1
  O  O20  1  0.87465200  0.88906600  0.61676300  1
  O  O21  1  0.05408300  0.69436900  0.55151700  1
  O  O22  1  0.26423300  0.39584600  0.53114800  1
  O  O23  1  0.53852600  0.01120100  0.88369600  1
  O  O24  1  0.96147400  0.51120100  0.11630400  1
  O  O25  1  0.57712600  0.42926000  0.81790700  1
  O  O26  1  0.27426100  0.59980900  0.46429800  1
  O  O27  1  0.37465200  0.61093400  0.88323700  1
  O  O28  1  0.25063300  0.27388200  0.68256000  1
  O  O29  1  0.77426100  0.90019100  0.46429800  1
  O  O30  1  0.44591700  0.19436900  0.44848300  1
  O  O31  1  0.26423300  0.39584600  0.96885200  1
  O  O32  1  0.42287400  0.57074000  0.18209300  1
  O  O33  1  0.74936700  0.72611800  0.31744000  1
  O  O34  1  0.53852600  0.01120100  0.61630400  1
  O  O35  1  0.73576700  0.60415400  0.46885200  1
  O  O36  1  0.92287400  0.92926000  0.31790700  1
  O  O37  1  0.87465200  0.88906600  0.88323700  1
  O  O38  1  0.22573900  0.09980900  0.96429800  1
  O  O39  1  0.25063300  0.27388200  0.81744000  1
  O  O40  1  0.46147400  0.98879900  0.11630400  1
  O  O41  1  0.94591700  0.30563100  0.05151700  1
  O  O42  1  0.62534800  0.38906600  0.11676300  1
  O  O43  1  0.55408300  0.80563100  0.55151700  1
  O  O44  1  0.58176000  0.93985700  0.25000000  1
  O  O45  1  0.75063300  0.22611800  0.68256000  1
  O  O46  1  0.07712600  0.07074000  0.81790700  1
  O  O47  1  0.41824000  0.06014300  0.75000000  1
  O  O48  1  0.57712600  0.42926000  0.68209300  1
  O  O49  1  0.24936700  0.77388200  0.18256000  1
  O  O50  1  0.76423300  0.10415400  0.96885200  1
  O  O51  1  0.24936700  0.77388200  0.31744000  1
  O  O52  1  0.23576700  0.89584600  0.46885200  1
  O  O53  1  0.75063300  0.22611800  0.81744000  1
  O  O54  1  0.05408300  0.69436900  0.94848300  1
  O  O55  1  0.37465200  0.61093400  0.61676300  1
  O  O56  1  0.76423300  0.10415400  0.53114800  1
  O  O57  1  0.94591700  0.30563100  0.44848300  1
  O  O58  1  0.46147400  0.98879900  0.38369600  1
  O  O59  1  0.07712600  0.07074000  0.68209300  1
loop_
_geom_bond_atom_site_label_1
_geom_bond_atom_site_label_2
_geom_bond_distance
_geom_bond_site_symmetry_2
Cl0 Sr13 3.084348 1_555
Cl0 Sr17 3.085037 1_555
Cl0 Sr15 3.085037 1_555
Cl1 Sr14 3.084348 1_565
Cl1 Sr5 3.085037 1_555
Cl1 Sr8 3.085037 1_555
Cl2 Sr12 3.084348 1_545
Cl2 Sr1 3.085037 1_555
Cl2 Sr10 3.085037 1_555
Cl3 Sr0 3.084348 1_555
Cl3 Sr7 3.085037 1_555
Cl3 Sr18 3.085037 1_555
O0 Re6 1.851812 1_555
O0 Sr12 2.661036 1_655
O0 Sr15 2.683809 1_565
O0 Sr11 2.726296 1_555
O1 Re0 1.861926 1_555
O1 Sr9 2.592877 1_555
O1 Sr5 2.642052 1_554
O1 Sr11 2.697475 1_555
O2 Re7 1.749684 1_555
O2 Sr13 2.760455 1_455
O3 Re6 1.869951 1_555
O3 Sr11 2.627909 1_555
O3 Sr9 2.631993 1_555
O3 Sr13 2.636284 1_555
O4 Re7 1.851812 1_555
O4 Sr13 2.661036 1_555
O4 Sr10 2.683809 1_555
O4 Sr2 2.726296 1_555
O5 Re3 1.854523 1_555
O5 Sr6 2.645300 1_554
O5 Sr1 2.710600 1_555
O5 Sr15 2.745099 1_555
O6 Re10 1.844019 1_555
O6 Sr16 2.598304 1_555
O6 Sr5 2.619530 1_455
O6 Sr0 3.081044 1_555
O7 Re2 1.859924 1_555
O7 Sr3 2.535642 1_555
O7 Sr7 2.677881 1_545
O7 Sr4 2.753505 1_555
O8 Re9 1.859924 1_554
O8 Sr11 2.535642 1_555
O8 Sr15 2.677881 1_565
O8 Sr9 2.753505 1_555
O9 Re11 1.749684 1_555
O9 Sr0 2.760455 1_655
O10 Re10 1.859924 1_554
O10 Sr9 2.535642 1_555
O10 Sr1 2.677881 1_555
O10 Sr11 2.753505 1_455
O11 Re8 1.844019 1_555
O11 Sr3 2.598304 1_555
O11 Sr8 2.619530 1_455
O11 Sr0 3.081044 1_555
O12 Re3 1.861926 1_565
O12 Sr11 2.592877 1_455
O12 Sr18 2.642052 1_554
O12 Sr9 2.697475 1_555
O13 Re5 1.844019 1_555
O13 Sr19 2.598304 1_555
O13 Sr10 2.619530 1_655
O13 Sr13 3.081044 1_555
O14 Re5 1.859924 1_555
O14 Sr4 2.535642 1_555
O14 Sr8 2.677881 1_555
O14 Sr3 2.753505 1_655
O15 Re0 1.859924 1_556
O15 Sr6 2.535642 1_555
O15 Sr5 2.677881 1_555
O15 Sr16 2.753505 1_655
O16 Re9 1.854523 1_555
O16 Sr9 2.645300 1_556
O16 Sr5 2.710600 1_555
O16 Sr18 2.745099 1_555
O17 Re5 1.766008 1_555
O17 Sr10 2.748935 1_555
O17 Sr13 2.899246 1_555
O17 Sr17 3.114122 1_555
O18 Re3 1.766008 1_555
O18 Sr15 2.748935 1_455
O18 Sr12 2.899246 1_545
O18 Sr1 3.114122 1_555
O19 Re2 1.766008 1_555
O19 Sr17 2.748935 1_455
O19 Sr12 2.899246 1_545
O19 Sr10 3.114122 1_555
O20 Re4 1.766008 1_555
O20 Sr7 2.748935 1_655
O20 Sr14 2.899246 1_565
O20 Sr8 3.114122 1_555
O21 Re8 1.854523 1_555
O21 Sr19 2.645300 1_455
O21 Sr7 2.710600 1_555
O21 Sr8 2.745099 1_455
O22 Re8 1.861926 1_555
O22 Sr4 2.592877 1_555
O22 Sr10 2.642052 1_555
O22 Sr3 2.697475 1_555
O23 Re9 1.844019 1_545
O23 Sr6 2.598304 1_555
O23 Sr18 2.619530 1_545
O23 Sr14 3.081044 1_555
O24 Re0 1.844019 1_555
O24 Sr11 2.598304 1_555
O24 Sr1 2.619530 1_655
O24 Sr13 3.081044 1_555
O25 Re11 1.851812 1_555
O25 Sr0 2.661036 1_555
O25 Sr5 2.683809 1_555
O25 Sr6 2.726296 1_555
O26 Re8 1.859924 1_555
O26 Sr2 2.535642 1_555
O26 Sr10 2.677881 1_555
O26 Sr19 2.753505 1_455
O27 Re10 1.766008 1_555
O27 Sr5 2.748935 1_555
O27 Sr0 2.899246 1_555
O27 Sr18 3.114122 1_555
O28 Re1 1.869951 1_555
O28 Sr3 2.627909 1_555
O28 Sr4 2.631993 1_555
O28 Sr0 2.636284 1_555
O29 Re4 1.859924 1_555
O29 Sr19 2.535642 1_555
O29 Sr17 2.677881 1_565
O29 Sr2 2.753505 1_555
O30 Re2 1.854523 1_555
O30 Sr4 2.645300 1_555
O30 Sr10 2.710600 1_555
O30 Sr17 2.745099 1_555
O31 Re10 1.861926 1_555
O31 Sr6 2.592877 1_555
O31 Sr1 2.642052 1_556
O31 Sr16 2.697475 1_555
O32 Re7 1.851812 1_555
O32 Sr13 2.661036 1_555
O32 Sr1 2.683809 1_555
O32 Sr9 2.726296 1_555
O33 Re6 1.869951 1_555
O33 Sr19 2.627909 1_555
O33 Sr2 2.631993 1_555
O33 Sr13 2.636284 1_555
O34 Re4 1.844019 1_545
O34 Sr4 2.598304 1_555
O34 Sr7 2.619530 1_545
O34 Sr14 3.081044 1_555
O35 Re5 1.861926 1_555
O35 Sr2 2.592877 1_555
O35 Sr8 2.642052 1_555
O35 Sr19 2.697475 1_555
O36 Re6 1.851812 1_555
O36 Sr12 2.661036 1_655
O36 Sr17 2.683809 1_565
O36 Sr19 2.726296 1_555
O37 Re9 1.766008 1_555
O37 Sr18 2.748935 1_655
O37 Sr14 2.899246 1_565
O37 Sr5 3.114122 1_555
O38 Re3 1.859924 1_556
O38 Sr16 2.535642 1_555
O38 Sr18 2.677881 1_545
O38 Sr6 2.753505 1_555
O39 Re1 1.869951 1_555
O39 Sr16 2.627909 1_555
O39 Sr6 2.631993 1_555
O39 Sr0 2.636284 1_555
O40 Re3 1.844019 1_565
O40 Sr9 2.598304 1_555
O40 Sr15 2.619530 1_565
O40 Sr12 3.081044 1_555
O41 Re0 1.854523 1_555
O41 Sr16 2.645300 1_654
O41 Sr15 2.710600 1_555
O41 Sr1 2.745099 1_655
O42 Re0 1.766008 1_555
O42 Sr1 2.748935 1_555
O42 Sr13 2.899246 1_555
O42 Sr15 3.114122 1_555
O43 Re4 1.854523 1_555
O43 Sr2 2.645300 1_555
O43 Sr8 2.710600 1_555
O43 Sr7 2.745099 1_555
O44 Re6 1.749684 1_555
O44 Sr12 2.760455 1_555
O45 Re11 1.869951 1_555
O45 Sr4 2.627909 1_555
O45 Sr3 2.631993 1_655
O45 Sr14 2.636284 1_555
O46 Re1 1.851812 1_555
O46 Sr14 2.661036 1_455
O46 Sr18 2.683809 1_545
O46 Sr16 2.726296 1_555
O47 Re1 1.749684 1_555
O47 Sr14 2.760455 1_555
O48 Re11 1.851812 1_555
O48 Sr0 2.661036 1_555
O48 Sr8 2.683809 1_555
O48 Sr4 2.726296 1_555
O49 Re7 1.869951 1_555
O49 Sr9 2.627909 1_555
O49 Sr11 2.631993 1_455
O49 Sr12 2.636284 1_555
O50 Re9 1.861926 1_545
O50 Sr16 2.592877 1_655
O50 Sr15 2.642052 1_556
O50 Sr6 2.697475 1_555
O51 Re7 1.869951 1_555
O51 Sr2 2.627909 1_555
O51 Sr19 2.631993 1_455
O51 Sr12 2.636284 1_555
O52 Re2 1.861926 1_565
O52 Sr19 2.592877 1_455
O52 Sr7 2.642052 1_555
O52 Sr2 2.697475 1_555
O53 Re11 1.869951 1_555
O53 Sr6 2.627909 1_555
O53 Sr16 2.631993 1_655
O53 Sr14 2.636284 1_555
O54 Re10 1.854523 1_555
O54 Sr11 2.645300 1_456
O54 Sr18 2.710600 1_555
O54 Sr5 2.745099 1_455
O55 Re8 1.766008 1_555
O55 Sr8 2.748935 1_555
O55 Sr0 2.899246 1_555
O55 Sr7 3.114122 1_555
O56 Re4 1.861926 1_545
O56 Sr3 2.592877 1_655
O56 Sr17 2.642052 1_555
O56 Sr4 2.697475 1_555
O57 Re5 1.854523 1_555
O57 Sr3 2.645300 1_655
O57 Sr17 2.710600 1_555
O57 Sr10 2.745099 1_655
O58 Re2 1.844019 1_565
O58 Sr2 2.598304 1_555
O58 Sr17 2.619530 1_565
O58 Sr12 3.081044 1_555
O59 Re1 1.851812 1_555
O59 Sr14 2.661036 1_455
O59 Sr7 2.683809 1_545
O59 Sr3 2.726296 1_555
