# generated using pymatgen
data_Cu14I19
_symmetry_space_group_name_H-M   'P 1'
_cell_length_a   4.22313188
_cell_length_b   4.22313188
_cell_length_c   67.35931072
_cell_angle_alpha   88.48193098
_cell_angle_beta   88.48193098
_cell_angle_gamma   60.30550454
_symmetry_Int_Tables_number   1
_chemical_formula_structural   Cu14I19
_chemical_formula_sum   'Cu14 I19'
_cell_volume   1043.09141886
_cell_formula_units_Z   1
loop_
 _symmetry_equiv_pos_site_id
 _symmetry_equiv_pos_as_xyz
  1  'x, y, z'
loop_
 _atom_site_type_symbol
 _atom_site_label
 _atom_site_symmetry_multiplicity
 _atom_site_fract_x
 _atom_site_fract_y
 _atom_site_fract_z
 _atom_site_occupancy
  Cu  Cu0  1  0.96090500  0.96090500  0.11851700  1
  Cu  Cu1  1  0.90824000  0.90824000  0.27591300  1
  Cu  Cu2  1  0.56243300  0.56243300  0.38123800  1
  Cu  Cu3  1  0.87905200  0.87905200  0.43520200  1
  Cu  Cu4  1  0.19566800  0.19566800  0.48799500  1
  Cu  Cu5  1  0.51166200  0.51166200  0.54065400  1
  Cu  Cu6  1  0.82737100  0.82737100  0.59326400  1
  Cu  Cu7  1  0.14320600  0.14320600  0.64588100  1
  Cu  Cu8  1  0.45881900  0.45881900  0.69857100  1
  Cu  Cu9  1  0.77437600  0.77437600  0.75125300  1
  Cu  Cu10  1  0.09036900  0.09036900  0.80389900  1
  Cu  Cu11  1  0.40644800  0.40644800  0.85649500  1
  Cu  Cu12  1  0.72178000  0.72178000  0.90939700  1
  Cu  Cu13  1  0.03756700  0.03756700  0.96366900  1
  I  I0  1  0.00827600  0.00827600  0.00069400  1
  I  I1  1  0.31583800  0.31583800  0.05232900  1
  I  I2  1  0.62987800  0.62987800  0.10303900  1
  I  I3  1  0.57730100  0.57730100  0.26043200  1
  I  I4  1  0.95054100  0.95054100  0.15539500  1
  I  I5  1  0.26306100  0.26306100  0.20929000  1
  I  I6  1  0.89831900  0.89831900  0.31283600  1
  I  I7  1  0.23161600  0.23161600  0.36907600  1
  I  I8  1  0.54820800  0.54820800  0.42197200  1
  I  I9  1  0.18059100  0.18059100  0.52714200  1
  I  I10  1  0.86472000  0.86472000  0.47463400  1
  I  I11  1  0.49643300  0.49643300  0.57968000  1
  I  I12  1  0.81221600  0.81221600  0.63224300  1
  I  I13  1  0.12781600  0.12781600  0.68485900  1
  I  I14  1  0.75915700  0.75915700  0.79013100  1
  I  I15  1  0.44335300  0.44335300  0.73750400  1
  I  I16  1  0.39069900  0.39069900  0.89514900  1
  I  I17  1  0.07531000  0.07531000  0.84266700  1
  I  I18  1  0.70519000  0.70519000  0.94771700  1
loop_
_geom_bond_atom_site_label_1
_geom_bond_atom_site_label_2
_geom_bond_distance
_geom_bond_site_symmetry_2
Cu0 I4 2.482911 1_555
Cu0 I2 2.651612 1_655
Cu0 I2 2.651612 1_565
Cu0 I2 2.662016 1_555
Cu1 I6 2.485943 1_555
Cu1 I3 2.651980 1_655
Cu1 I3 2.651980 1_565
Cu1 I3 2.661509 1_555
Cu2 I7 2.574857 1_555
Cu2 I7 2.576002 1_655
Cu2 I7 2.576002 1_565
Cu2 I8 2.742598 1_555
Cu3 I8 2.598636 1_565
Cu3 I8 2.598636 1_655
Cu3 I8 2.600874 1_555
Cu3 I10 2.654968 1_555
Cu4 I10 2.601194 1_545
Cu4 I10 2.601194 1_455
Cu4 I10 2.604875 1_445
Cu4 I9 2.635840 1_555
Cu5 I9 2.604167 1_565
Cu5 I9 2.604167 1_655
Cu5 I9 2.609537 1_555
Cu5 I11 2.627710 1_555
Cu6 I11 2.606245 1_565
Cu6 I11 2.606245 1_655
Cu6 I11 2.610460 1_555
Cu6 I12 2.624540 1_555
Cu7 I12 2.607296 1_455
Cu7 I12 2.607296 1_545
Cu7 I12 2.612196 1_445
Cu7 I13 2.624493 1_555
Cu8 I13 2.608940 1_565
Cu8 I13 2.608940 1_655
Cu8 I13 2.614183 1_555
Cu8 I15 2.621472 1_555
Cu9 I15 2.609720 1_655
Cu9 I15 2.609720 1_565
Cu9 I15 2.615272 1_555
Cu9 I14 2.617748 1_555
Cu10 I14 2.609519 1_455
Cu10 I14 2.609519 1_545
Cu10 I17 2.610332 1_555
Cu10 I14 2.617053 1_445
Cu11 I16 2.602723 1_555
Cu11 I17 2.611149 1_565
Cu11 I17 2.611149 1_655
Cu11 I17 2.618097 1_555
Cu12 I18 2.580340 1_555
Cu12 I16 2.621157 1_655
Cu12 I16 2.621157 1_565
Cu12 I16 2.628705 1_555
Cu13 I0 2.496598 1_556
Cu13 I18 2.659443 1_455
Cu13 I18 2.659443 1_545
Cu13 I18 2.684599 1_445
