# generated using pymatgen
data_Hf6Fe16Si7
_symmetry_space_group_name_H-M   'P 1'
_cell_length_a   8.13294314
_cell_length_b   8.13287768
_cell_length_c   8.13293488
_cell_angle_alpha   60.00115060
_cell_angle_beta   60.00141738
_cell_angle_gamma   60.00121900
_symmetry_Int_Tables_number   1
_chemical_formula_structural   Hf6Fe16Si7
_chemical_formula_sum   'Hf6 Fe16 Si7'
_cell_volume   380.39666677
_cell_formula_units_Z   1
loop_
 _symmetry_equiv_pos_site_id
 _symmetry_equiv_pos_as_xyz
  1  'x, y, z'
loop_
 _atom_site_type_symbol
 _atom_site_label
 _atom_site_symmetry_multiplicity
 _atom_site_fract_x
 _atom_site_fract_y
 _atom_site_fract_z
 _atom_site_occupancy
  Hf  Hf0  1  0.30234602  0.69765596  0.69765410  1
  Hf  Hf1  1  0.69765754  0.69765843  0.30234278  1
  Hf  Hf2  1  0.30235136  0.30235049  0.69764885  1
  Hf  Hf3  1  0.69765209  0.30234807  0.30234836  1
  Hf  Hf4  1  0.69764806  0.30235304  0.69764817  1
  Hf  Hf5  1  0.30234263  0.69765842  0.30234253  1
  Fe  Fe0  1  0.88499840  0.88500351  0.88500445  1
  Fe  Fe1  1  0.02479510  0.32506924  0.32506564  1
  Fe  Fe2  1  0.11499697  0.11498290  0.65503475  1
  Fe  Fe3  1  0.32507047  0.02478808  0.32506837  1
  Fe  Fe4  1  0.32507022  0.32507292  0.32506925  1
  Fe  Fe5  1  0.67494827  0.67494851  0.97515863  1
  Fe  Fe6  1  0.88499553  0.88500271  0.34499683  1
  Fe  Fe7  1  0.67494283  0.67494400  0.67494211  1
  Fe  Fe8  1  0.67494763  0.97516206  0.67494644  1
  Fe  Fe9  1  0.32506675  0.32506880  0.02479428  1
  Fe  Fe10  1  0.88499985  0.34498919  0.88500379  1
  Fe  Fe11  1  0.65503391  0.11497979  0.11499691  1
  Fe  Fe12  1  0.11499066  0.65502962  0.11499525  1
  Fe  Fe13  1  0.11499664  0.11497715  0.11499261  1
  Fe  Fe14  1  0.97515583  0.67494986  0.67494888  1
  Fe  Fe15  1  0.34499422  0.88500375  0.88499828  1
  Si  Si0  1  -0.00000013  -0.00000266  0.49999966  1
  Si  Si1  1  -0.00000208  0.50000769  -0.00000104  1
  Si  Si2  1  0.00000291  -0.00001413  0.00000867  1
  Si  Si3  1  0.50000315  -0.00000173  0.49999865  1
  Si  Si4  1  -0.00000222  0.50001028  0.49999398  1
  Si  Si5  1  0.50000233  -0.00000318  -0.00000030  1
  Si  Si6  1  0.49999507  0.50000721  -0.00000088  1
loop_
_geom_bond_atom_site_label_1
_geom_bond_atom_site_label_2
_geom_bond_distance
_geom_bond_site_symmetry_2
Hf0 Si6 2.937768 1_556
Hf0 Si3 2.937777 1_565
Hf0 Si1 2.937806 1_556
Hf0 Si0 2.937811 1_565
Hf1 Si4 2.937749 1_655
Hf1 Si3 2.937756 1_565
Hf1 Si1 2.937789 1_655
Hf1 Si5 2.937792 1_565
Hf2 Si3 2.937811 1_555
Hf2 Si5 2.937835 1_556
Hf2 Si4 2.937847 1_555
Hf2 Si1 2.937868 1_556
Hf3 Si3 2.937788 1_555
Hf3 Si0 2.937818 1_655
Hf3 Si6 2.937829 1_555
Hf3 Si1 2.937849 1_655
Hf4 Si6 2.937832 1_556
Hf4 Si5 2.937838 1_556
Hf4 Si4 2.937839 1_655
Hf4 Si0 2.937851 1_655
Hf5 Si4 2.937758 1_555
Hf5 Si6 2.937764 1_555
Hf5 Si0 2.937784 1_565
Hf5 Si5 2.937790 1_565
Fe0 Si2 2.290892 1_666
Fe0 Si1 2.563476 1_656
Fe0 Si5 2.563509 1_566
Fe0 Si0 2.563562 1_665
Fe0 Fe5 2.605320 1_555
Fe0 Fe14 2.605338 1_555
Fe0 Fe8 2.605339 1_555
Fe0 Fe11 2.645233 1_566
Fe0 Fe2 2.645285 1_665
Fe0 Fe12 2.645316 1_656
Fe0 Hf1 2.853458 1_556
Fe0 Hf4 2.853531 1_565
Fe0 Hf0 2.853532 1_655
Fe1 Si4 2.353556 1_555
Fe1 Si1 2.353562 1_555
Fe1 Si0 2.353579 1_555
Fe1 Fe9 2.442142 1_555
Fe1 Fe4 2.442150 1_555
Fe1 Fe3 2.442181 1_555
Fe1 Fe12 2.605564 1_555
Fe1 Fe13 2.605587 1_555
Fe1 Fe2 2.605660 1_555
Fe1 Hf3 2.857375 1_455
Fe1 Hf1 2.857437 1_455
Fe1 Hf4 2.857461 1_455
Fe2 Si2 2.290841 1_556
Fe2 Si0 2.563592 1_555
Fe2 Si3 2.563595 1_555
Fe2 Si4 2.563706 1_555
Fe2 Fe3 2.605622 1_555
Fe2 Fe4 2.605639 1_555
Fe2 Hf0 2.853396 1_545
Fe2 Hf2 2.853423 1_555
Fe2 Hf4 2.853586 1_455
Fe3 Si3 2.353550 1_555
Fe3 Si5 2.353566 1_555
Fe3 Si0 2.353581 1_555
Fe3 Fe9 2.442170 1_555
Fe3 Fe4 2.442182 1_555
Fe3 Hf5 2.857317 1_545
Fe3 Hf0 2.857404 1_545
Fe3 Hf1 2.857406 1_545
Fe4 Si6 2.353582 1_555
Fe4 Si3 2.353596 1_555
Fe4 Si4 2.353603 1_555
Fe4 Fe9 2.442148 1_555
Fe4 Hf5 2.857343 1_555
Fe4 Hf2 2.857363 1_555
Fe4 Hf3 2.857369 1_555
Fe5 Si5 2.353543 1_566
Fe5 Si6 2.353551 1_556
Fe5 Si1 2.353568 1_656
Fe5 Fe8 2.441646 1_555
Fe5 Fe7 2.441682 1_555
Fe5 Hf1 2.857618 1_556
Fe5 Hf3 2.857669 1_556
Fe5 Hf5 2.857698 1_556
Fe6 Si2 2.290936 1_665
Fe6 Si4 2.563458 1_655
Fe6 Si0 2.563472 1_665
Fe6 Si3 2.563488 1_565
Fe6 Fe8 2.605372 1_555
Fe6 Fe7 2.605380 1_555
Fe6 Hf1 2.853358 1_555
Fe6 Hf3 2.853476 1_565
Fe6 Hf5 2.853505 1_655
Fe7 Si3 2.353568 1_565
Fe7 Si4 2.353585 1_655
Fe7 Si6 2.353598 1_556
Fe7 Fe8 2.441674 1_555
Fe7 Hf4 2.857538 1_555
Fe7 Hf1 2.857566 1_555
Fe7 Hf0 2.857567 1_555
Fe8 Si3 2.353560 1_565
Fe8 Si0 2.353577 1_665
Fe8 Si5 2.353580 1_566
Fe8 Hf4 2.857578 1_565
Fe8 Hf3 2.857650 1_565
Fe8 Hf2 2.857655 1_565
Fe9 Si6 2.353547 1_555
Fe9 Si1 2.353576 1_555
Fe9 Si5 2.353579 1_555
Fe9 Hf2 2.857371 1_554
Fe9 Hf0 2.857433 1_554
Fe9 Hf4 2.857453 1_554
Fe10 Si2 2.291016 1_656
Fe10 Si1 2.563542 1_656
Fe10 Si6 2.563575 1_556
Fe10 Si4 2.563604 1_655
Fe10 Fe5 2.605404 1_555
Fe10 Fe14 2.605416 1_555
Fe10 Fe7 2.605427 1_555
Fe10 Fe11 2.645270 1_556
Fe10 Fe2 2.645271 1_655
Fe10 Fe13 2.645330 1_656
Fe10 Hf4 2.853444 1_555
Fe10 Hf3 2.853510 1_556
Fe10 Hf2 2.853567 1_655
Fe11 Si2 2.290813 1_655
Fe11 Si5 2.563551 1_555
Fe11 Si3 2.563559 1_555
Fe11 Si6 2.563706 1_555
Fe11 Fe3 2.605591 1_555
Fe11 Fe4 2.605645 1_555
Fe11 Fe9 2.605653 1_555
Fe11 Fe6 2.645192 1_545
Fe11 Hf1 2.853348 1_545
Fe11 Hf3 2.853428 1_555
Fe11 Hf4 2.853578 1_554
Fe12 Si2 2.290703 1_565
Fe12 Si4 2.563532 1_555
Fe12 Si1 2.563539 1_555
Fe12 Si6 2.563574 1_555
Fe12 Fe4 2.605565 1_555
Fe12 Fe9 2.605590 1_555
Fe12 Fe6 2.645267 1_455
Fe12 Fe15 2.645283 1_554
Fe12 Hf5 2.853348 1_555
Fe12 Hf1 2.853454 1_455
Fe12 Hf0 2.853511 1_554
Fe13 Si2 2.290745 1_555
Fe13 Si5 2.563584 1_555
Fe13 Si0 2.563587 1_555
Fe13 Si1 2.563719 1_555
Fe13 Fe3 2.605526 1_555
Fe13 Fe9 2.605574 1_555
Fe13 Fe15 2.645227 1_544
Fe13 Fe6 2.645271 1_445
Fe13 Hf5 2.853349 1_545
Fe13 Hf2 2.853558 1_554
Fe13 Hf3 2.853564 1_455
Fe14 Si0 2.353544 1_665
Fe14 Si4 2.353544 1_655
Fe14 Si1 2.353572 1_656
Fe14 Fe8 2.441628 1_555
Fe14 Fe5 2.441631 1_555
Fe14 Fe7 2.441667 1_555
Fe14 Fe6 2.605385 1_555
Fe14 Hf0 2.857633 1_655
Fe14 Hf2 2.857688 1_655
Fe14 Hf5 2.857710 1_655
Fe15 Si2 2.290961 1_566
Fe15 Si5 2.563480 1_566
Fe15 Si6 2.563487 1_556
Fe15 Si3 2.563534 1_565
Fe15 Fe8 2.605395 1_555
Fe15 Fe5 2.605402 1_555
Fe15 Fe7 2.605411 1_555
Fe15 Fe2 2.645187 1_565
Fe15 Hf0 2.853394 1_555
Fe15 Hf5 2.853484 1_556
Fe15 Hf2 2.853494 1_565
