# generated using pymatgen
data_ZrSnIr
_symmetry_space_group_name_H-M   'P 1'
_cell_length_a   7.35153635
_cell_length_b   7.35153624
_cell_length_c   7.40606333
_cell_angle_alpha   90.00000000
_cell_angle_beta   90.00000000
_cell_angle_gamma   119.99999595
_symmetry_Int_Tables_number   1
_chemical_formula_structural   ZrSnIr
_chemical_formula_sum   'Zr6 Sn6 Ir6'
_cell_volume   346.63649303
_cell_formula_units_Z   6
loop_
 _symmetry_equiv_pos_site_id
 _symmetry_equiv_pos_as_xyz
  1  'x, y, z'
loop_
 _atom_site_type_symbol
 _atom_site_label
 _atom_site_symmetry_multiplicity
 _atom_site_fract_x
 _atom_site_fract_y
 _atom_site_fract_z
 _atom_site_occupancy
  Zr  Zr0  1  0.40445337  0.01887737  0.25000000  1
  Zr  Zr1  1  0.59554663  0.61442500  0.75000000  1
  Zr  Zr2  1  0.61442500  0.59554663  0.25000000  1
  Zr  Zr3  1  0.98112263  0.38557500  0.25000000  1
  Zr  Zr4  1  0.01887737  0.40445337  0.75000000  1
  Zr  Zr5  1  0.38557500  0.98112263  0.75000000  1
  Sn  Sn0  1  0.27038219  0.27038219  0.50000000  1
  Sn  Sn1  1  0.27038219  0.27038219  -0.00000000  1
  Sn  Sn2  1  0.72961781  -0.00000000  -0.00000000  1
  Sn  Sn3  1  -0.00000000  0.72961781  0.50000000  1
  Sn  Sn4  1  0.72961781  -0.00000000  0.50000000  1
  Sn  Sn5  1  -0.00000000  0.72961781  -0.00000000  1
  Ir  Ir0  1  0.66666700  0.33333300  0.53854288  1
  Ir  Ir1  1  0.66666700  0.33333300  0.96145712  1
  Ir  Ir2  1  0.33333300  0.66666700  0.03854288  1
  Ir  Ir3  1  0.33333300  0.66666700  0.46145712  1
  Ir  Ir4  1  -0.00000000  -0.00000000  0.75000000  1
  Ir  Ir5  1  -0.00000000  -0.00000000  0.25000000  1
loop_
_geom_bond_atom_site_label_1
_geom_bond_atom_site_label_2
_geom_bond_distance
_geom_bond_site_symmetry_2
Sn0 Zr1 3.081140 1_555
Sn0 Zr2 3.081140 1_555
Sn0 Zr0 3.104924 1_555
Sn0 Zr4 3.104924 1_555
Sn0 Zr5 3.235442 1_545
Sn0 Zr3 3.235442 1_455
Sn1 Zr1 3.081140 1_554
Sn1 Zr2 3.081140 1_555
Sn1 Zr0 3.104924 1_555
Sn1 Zr4 3.104924 1_554
Sn1 Zr5 3.235442 1_544
Sn1 Zr3 3.235442 1_455
Sn2 Zr0 3.081137 1_555
Sn2 Zr5 3.081142 1_544
Sn2 Zr1 3.104919 1_544
Sn2 Zr3 3.104920 1_555
Sn2 Zr4 3.235446 1_654
Sn2 Zr2 3.235448 1_545
Sn3 Zr4 3.081137 1_555
Sn3 Zr3 3.081142 1_455
Sn3 Zr2 3.104919 1_455
Sn3 Zr5 3.104920 1_555
Sn3 Zr0 3.235446 1_565
Sn3 Zr1 3.235448 1_455
Sn4 Zr0 3.081137 1_555
Sn4 Zr5 3.081142 1_545
Sn4 Zr1 3.104919 1_545
Sn4 Zr3 3.104920 1_555
Sn4 Zr4 3.235446 1_655
Sn4 Zr2 3.235448 1_545
Sn5 Zr4 3.081137 1_554
Sn5 Zr3 3.081142 1_455
Sn5 Zr2 3.104919 1_455
Sn5 Zr5 3.104920 1_554
Sn5 Zr0 3.235446 1_565
Sn5 Zr1 3.235448 1_454
Ir0 Sn4 2.726666 1_555
Ir0 Sn3 2.726671 1_655
Ir0 Sn0 2.726674 1_555
Ir0 Zr4 2.841926 1_655
Ir0 Zr5 2.841930 1_545
Ir0 Zr1 2.841937 1_555
Ir0 Zr2 3.028265 1_555
Ir0 Zr3 3.028266 1_555
Ir0 Zr0 3.028266 1_555
Ir1 Sn2 2.726666 1_556
Ir1 Sn5 2.726671 1_656
Ir1 Sn1 2.726674 1_556
Ir1 Zr4 2.841926 1_655
Ir1 Zr5 2.841930 1_545
Ir1 Zr1 2.841937 1_555
Ir1 Zr2 3.028265 1_556
Ir1 Zr3 3.028266 1_556
Ir1 Zr0 3.028266 1_556
Ir2 Sn5 2.726666 1_555
Ir2 Sn2 2.726671 1_565
Ir2 Sn1 2.726674 1_555
Ir2 Zr0 2.841925 1_565
Ir2 Zr3 2.841930 1_455
Ir2 Zr2 2.841938 1_555
Ir2 Zr1 3.028265 1_554
Ir2 Zr5 3.028266 1_554
Ir2 Zr4 3.028266 1_554
Ir3 Sn3 2.726666 1_555
Ir3 Sn4 2.726671 1_565
Ir3 Sn0 2.726674 1_555
Ir3 Zr0 2.841925 1_565
Ir3 Zr3 2.841930 1_455
Ir3 Zr2 2.841938 1_555
Ir3 Zr1 3.028265 1_555
Ir3 Zr5 3.028266 1_555
Ir3 Zr4 3.028266 1_555
Ir4 Sn3 2.716461 1_545
Ir4 Sn5 2.716461 1_546
Ir4 Sn4 2.716461 1_455
Ir4 Sn2 2.716461 1_456
Ir4 Sn1 2.716461 1_556
Ir4 Sn0 2.716461 1_555
Ir4 Zr5 2.906443 1_545
Ir4 Zr1 2.906448 1_445
Ir4 Zr4 2.906451 1_555
Ir5 Sn5 2.716461 1_545
Ir5 Sn3 2.716461 1_545
Ir5 Sn2 2.716461 1_455
Ir5 Sn4 2.716461 1_455
Ir5 Sn1 2.716461 1_555
Ir5 Sn0 2.716461 1_555
Ir5 Zr3 2.906443 1_455
Ir5 Zr2 2.906448 1_445
Ir5 Zr0 2.906451 1_555
