# generated using pymatgen
data_LiSb2P5O18
_symmetry_space_group_name_H-M   'P 1'
_cell_length_a   6.60902300
_cell_length_b   9.72458021
_cell_length_c   10.20320300
_cell_angle_alpha   95.11666272
_cell_angle_beta   93.28101957
_cell_angle_gamma   92.90424697
_symmetry_Int_Tables_number   1
_chemical_formula_structural   LiSb2P5O18
_chemical_formula_sum   'Li2 Sb4 P10 O36'
_cell_volume   651.04946933
_cell_formula_units_Z   2
loop_
 _symmetry_equiv_pos_site_id
 _symmetry_equiv_pos_as_xyz
  1  'x, y, z'
loop_
 _atom_site_type_symbol
 _atom_site_label
 _atom_site_symmetry_multiplicity
 _atom_site_fract_x
 _atom_site_fract_y
 _atom_site_fract_z
 _atom_site_occupancy
  Li  Li0  1  0.11204300  0.18653400  0.69476700  1
  Li  Li1  1  0.88795700  0.81346600  0.30523300  1
  Sb  Sb0  1  0.76257100  0.65550400  0.58765600  1
  Sb  Sb1  1  0.23742900  0.34449600  0.41234400  1
  Sb  Sb2  1  0.66058400  0.22657800  0.04156200  1
  Sb  Sb3  1  0.33941600  0.77342200  0.95843800  1
  P  P0  1  0.83584100  0.72510400  0.90594300  1
  P  P1  1  0.21121400  0.01124100  0.41221000  1
  P  P2  1  0.16415900  0.27489600  0.09405700  1
  P  P3  1  0.27444700  0.59836100  0.64777100  1
  P  P4  1  0.52211600  0.96797700  0.21354700  1
  P  P5  1  0.47788400  0.03202300  0.78645300  1
  P  P6  1  0.78878600  0.98875900  0.58779000  1
  P  P7  1  0.72555300  0.40163900  0.35222900  1
  P  P8  1  0.17759200  0.57375400  0.18357900  1
  P  P9  1  0.82240800  0.42624600  0.81642100  1
  O  O0  1  0.96761800  0.19425100  0.03850500  1
  O  O1  1  0.07534300  0.66294600  0.60571600  1
  O  O2  1  0.37228100  0.15543900  0.75408900  1
  O  O3  1  0.59274200  0.96038200  0.67415900  1
  O  O4  1  0.64197200  0.06681900  0.90692800  1
  O  O5  1  0.21616900  0.16892900  0.49042400  1
  O  O6  1  0.31472400  0.61430600  0.80201200  1
  O  O7  1  0.26001800  0.91488600  0.51254700  1
  O  O8  1  0.66225300  0.09445000  0.17652900  1
  O  O9  1  0.27895500  0.52366700  0.31320300  1
  O  O10  1  0.45499500  0.66105400  0.57830900  1
  O  O11  1  0.99632500  0.33907800  0.79707000  1
  O  O12  1  0.77328300  0.75633900  0.76556000  1
  O  O13  1  0.73998200  0.08511400  0.48745300  1
  O  O14  1  0.75160700  0.56054700  0.40279000  1
  O  O15  1  0.68527600  0.38569400  0.19798800  1
  O  O16  1  0.03496600  0.98295400  0.31481300  1
  O  O17  1  0.54500500  0.33894600  0.42169100  1
  O  O18  1  0.10301300  0.43016700  0.09571000  1
  O  O19  1  0.89698700  0.56983300  0.90429000  1
  O  O20  1  0.33774700  0.90555000  0.82347100  1
  O  O21  1  0.00367500  0.66092200  0.20293000  1
  O  O22  1  0.62771900  0.84456100  0.24591100  1
  O  O23  1  0.35802800  0.93318100  0.09307200  1
  O  O24  1  0.72104500  0.47633300  0.68679700  1
  O  O25  1  0.92465700  0.33705400  0.39428400  1
  O  O26  1  0.03238200  0.80574900  0.96149500  1
  O  O27  1  0.65137200  0.75379900  0.98674200  1
  O  O28  1  0.34862800  0.24620100  0.01325800  1
  O  O29  1  0.34160100  0.63158100  0.09301100  1
  O  O30  1  0.65839900  0.36841900  0.90698900  1
  O  O31  1  0.78383100  0.83107100  0.50957600  1
  O  O32  1  0.24839300  0.43945300  0.59721000  1
  O  O33  1  0.96503400  0.01704600  0.68518700  1
  O  O34  1  0.40725800  0.03961800  0.32584100  1
  O  O35  1  0.22671700  0.24366100  0.23444000  1
loop_
_geom_bond_atom_site_label_1
_geom_bond_atom_site_label_2
_geom_bond_distance
_geom_bond_site_symmetry_2
Li0 O2 1.839049 1_555
Li0 O33 1.862315 1_455
Li0 O11 1.950681 1_455
Li0 O5 2.227651 1_555
Li1 O22 1.839049 1_555
Li1 O16 1.862315 1_655
Li1 O21 1.950681 1_655
Li1 O31 2.227651 1_555
O0 P2 1.535177 1_655
O0 Sb2 2.070644 1_555
O1 P3 1.541856 1_555
O1 Sb0 2.061802 1_455
O2 P5 1.471648 1_555
O3 P5 1.544385 1_565
O3 P6 1.633802 1_555
O4 P5 1.592984 1_555
O4 Sb2 1.973941 1_556
O5 P1 1.662240 1_555
O5 Sb1 1.949476 1_555
O6 P3 1.573511 1_555
O6 Sb3 2.114791 1_555
O7 P1 1.481230 1_565
O8 P4 1.587629 1_545
O8 Sb2 1.965390 1_555
O9 P8 1.575370 1_555
O9 Sb1 2.105253 1_555
O10 P3 1.548543 1_555
O10 Sb0 2.033233 1_555
O11 P9 1.474299 1_555
O12 P0 1.528852 1_555
O12 Sb0 1.980463 1_555
O13 P6 1.481230 1_545
O14 P7 1.582546 1_555
O14 Sb0 2.020568 1_555
O15 P7 1.573511 1_555
O15 Sb2 2.114791 1_555
O16 P1 1.485369 1_565
O17 P7 1.548543 1_555
O17 Sb1 2.033233 1_555
O18 P2 1.581645 1_555
O18 P8 1.628754 1_555
O19 P0 1.581645 1_555
O19 P9 1.628754 1_555
O20 P5 1.587629 1_565
O20 Sb3 1.965390 1_555
O21 P8 1.474299 1_555
O22 P4 1.471648 1_555
O23 P4 1.592984 1_555
O23 Sb3 1.973941 1_554
O24 P9 1.575370 1_555
O24 Sb0 2.105253 1_555
O25 P7 1.541856 1_555
O25 Sb1 2.061802 1_655
O26 P0 1.535177 1_455
O26 Sb3 2.070644 1_555
O27 P0 1.533740 1_555
O27 Sb3 2.086160 1_555
O28 P2 1.533740 1_555
O28 Sb2 2.086160 1_555
O29 P8 1.578183 1_555
O29 Sb3 2.031183 1_554
O30 P9 1.578183 1_555
O30 Sb2 2.031183 1_556
O31 P6 1.662240 1_555
O31 Sb0 1.949476 1_555
O32 P3 1.582546 1_555
O32 Sb1 2.020568 1_555
O33 P6 1.485369 1_545
O34 P4 1.544385 1_545
O34 P1 1.633802 1_555
O35 P2 1.528852 1_555
O35 Sb1 1.980463 1_555
