# generated using pymatgen
data_Ca3La5Mn7FeO24
_symmetry_space_group_name_H-M   'P 1'
_cell_length_a   5.53071700
_cell_length_b   7.78477800
_cell_length_c   11.06517961
_cell_angle_alpha   89.90725594
_cell_angle_beta   89.93505202
_cell_angle_gamma   89.99963936
_symmetry_Int_Tables_number   1
_chemical_formula_structural   Ca3La5Mn7FeO24
_chemical_formula_sum   'Ca3 La5 Mn7 Fe1 O24'
_cell_volume   476.41484830
_cell_formula_units_Z   1
loop_
 _symmetry_equiv_pos_site_id
 _symmetry_equiv_pos_as_xyz
  1  'x, y, z'
loop_
 _atom_site_type_symbol
 _atom_site_label
 _atom_site_symmetry_multiplicity
 _atom_site_fract_x
 _atom_site_fract_y
 _atom_site_fract_z
 _atom_site_occupancy
  Ca  Ca0  1  0.53045400  0.24934300  0.74640100  1
  Ca  Ca1  1  0.53185700  0.25086700  0.24345500  1
  Ca  Ca2  1  0.96698900  0.75028200  0.99521900  1
  La  La0  1  0.02275400  0.25045100  0.50296100  1
  La  La1  1  0.02351400  0.24996000  0.00384900  1
  La  La2  1  0.47551200  0.74934500  0.75814500  1
  La  La3  1  0.47981000  0.75068000  0.24801500  1
  La  La4  1  0.97739000  0.74914800  0.49715300  1
  Mn  Mn0  1  0.99954000  0.00132900  0.75247000  1
  Mn  Mn1  1  0.00064300  0.00132500  0.24807100  1
  Mn  Mn2  1  0.00116800  0.49907400  0.24746200  1
  Mn  Mn3  1  0.49929900  0.49867100  0.99983500  1
  Mn  Mn4  1  0.49968000  0.00215800  0.99966700  1
  Mn  Mn5  1  0.49993400  0.49717500  0.50012400  1
  Mn  Mn6  1  0.99912700  0.49807900  0.75266300  1
  Fe  Fe0  1  0.49995300  0.00386700  0.50047900  1
  O  O0  1  0.00835700  0.75153200  0.71400100  1
  O  O1  1  0.01345200  0.75089100  0.21221900  1
  O  O2  1  0.22032600  0.54158700  0.88941200  1
  O  O3  1  0.22326900  0.96006200  0.38663800  1
  O  O4  1  0.21650600  0.95814600  0.88635500  1
  O  O5  1  0.22649100  0.54001400  0.38710000  1
  O  O6  1  0.27228200  0.03984100  0.63892900  1
  O  O7  1  0.27376700  0.45982900  0.63690600  1
  O  O8  1  0.27526700  0.04224600  0.14126600  1
  O  O9  1  0.27893400  0.45804800  0.13868500  1
  O  O10  1  0.48675000  0.24795400  0.96063600  1
  O  O11  1  0.48896200  0.25365900  0.46012500  1
  O  O12  1  0.50692400  0.74563600  0.53644600  1
  O  O13  1  0.51525500  0.75273000  0.03357900  1
  O  O14  1  0.72309100  0.53802000  0.86403400  1
  O  O15  1  0.72768400  0.96174400  0.86078000  1
  O  O16  1  0.73141300  0.54217100  0.36469700  1
  O  O17  1  0.73212200  0.95742000  0.36411600  1
  O  O18  1  0.77863100  0.03595800  0.61302400  1
  O  O19  1  0.77519400  0.46298400  0.61198900  1
  O  O20  1  0.77746600  0.03918800  0.11671300  1
  O  O21  1  0.77373800  0.46150800  0.11371700  1
  O  O22  1  0.98313100  0.24828700  0.78644400  1
  O  O23  1  0.98336300  0.24879200  0.28622200  1
loop_
_geom_bond_atom_site_label_1
_geom_bond_atom_site_label_2
_geom_bond_distance
_geom_bond_site_symmetry_2
Ca0 O10 2.382575 1_555
Ca0 O6 2.474490 1_555
Ca0 O7 2.483100 1_555
Ca0 O22 2.543039 1_555
Ca0 O19 2.607251 1_555
Ca0 O18 2.612447 1_555
Ca0 O15 2.792539 1_545
Ca0 O14 2.809324 1_555
Ca1 O11 2.409067 1_555
Ca1 O9 2.428919 1_555
Ca1 O8 2.437150 1_555
Ca1 O23 2.542169 1_555
Ca1 O21 2.554896 1_555
Ca1 O20 2.555513 1_555
Ca2 O1 2.415158 1_656
Ca2 O4 2.442114 1_655
Ca2 O2 2.444539 1_655
Ca2 O13 2.533815 1_556
Ca2 O14 2.582521 1_555
Ca2 O15 2.582845 1_555
Ca2 O21 2.811160 1_556
Ca2 O20 2.823275 1_566
La0 O23 2.408432 1_455
La0 O19 2.463784 1_455
La0 O18 2.466588 1_455
La0 O7 2.606398 1_555
La0 O6 2.617817 1_555
La0 O11 2.621251 1_555
La0 O5 2.825249 1_555
La0 O3 2.828976 1_545
La0 O11 2.990688 1_455
La0 O22 3.144206 1_455
La0 O16 3.176261 1_455
La0 O17 3.188241 1_445
La1 O22 2.416279 1_454
La1 O20 2.468461 1_455
La1 O21 2.470041 1_455
La1 O10 2.605784 1_554
La1 O9 2.618851 1_555
La1 O8 2.619596 1_555
La1 O2 2.816013 1_554
La1 O4 2.827824 1_544
La1 O10 3.007531 1_454
La1 O23 3.132137 1_455
La1 O14 3.190219 1_454
La1 O15 3.199179 1_444
La2 O14 2.439584 1_555
La2 O15 2.445121 1_555
La2 O12 2.459303 1_555
La2 O2 2.589454 1_555
La2 O4 2.590293 1_555
La2 O0 2.630064 1_555
La2 O6 2.848044 1_565
La2 O7 2.852650 1_555
La2 O0 2.986719 1_655
La2 O13 3.056048 1_556
La2 O19 3.215240 1_555
La2 O18 3.217107 1_565
La3 O13 2.380664 1_555
La3 O17 2.489731 1_555
La3 O16 2.497075 1_555
La3 O1 2.609973 1_555
La3 O5 2.647254 1_555
La3 O3 2.650655 1_555
La3 O8 2.796641 1_565
La3 O9 2.810593 1_555
La3 O1 2.977437 1_655
La3 O20 3.138383 1_565
La3 O21 3.150224 1_555
La3 O12 3.195409 1_555
La4 O0 2.405862 1_655
La4 O3 2.455678 1_655
La4 O5 2.456457 1_655
La4 O16 2.570463 1_555
La4 O17 2.575399 1_555
La4 O12 2.637738 1_555
La4 O19 2.795639 1_555
La4 O18 2.800626 1_565
La4 O12 2.961407 1_655
La4 O1 3.158930 1_655
La4 O7 3.185191 1_655
La4 O6 3.203049 1_665
Mn0 O4 1.936517 1_645
Mn0 O15 1.945946 1_545
Mn0 O22 1.961600 1_555
Mn0 O6 1.984500 1_655
Mn0 O18 1.987257 1_555
Mn0 O0 1.991915 1_645
Mn1 O20 1.930229 1_455
Mn1 O8 1.949320 1_555
Mn1 O23 1.975143 1_455
Mn1 O17 1.991344 1_445
Mn1 O1 1.991399 1_545
Mn1 O3 1.993196 1_545
Mn2 O21 1.965573 1_455
Mn2 O9 1.976826 1_555
Mn2 O23 1.996764 1_455
Mn2 O1 1.999272 1_555
Mn2 O16 2.004558 1_455
Mn2 O5 2.011950 1_555
Mn3 O14 1.969290 1_555
Mn3 O9 1.984978 1_556
Mn3 O21 1.994646 1_556
Mn3 O2 1.997019 1_555
Mn3 O10 2.001298 1_555
Mn3 O13 2.015276 1_556
Mn4 O10 1.962241 1_555
Mn4 O13 1.978964 1_546
Mn4 O15 2.011994 1_545
Mn4 O8 2.022368 1_556
Mn4 O20 2.031401 1_556
Mn4 O4 2.036699 1_545
Mn5 O11 1.948358 1_555
Mn5 O12 1.976553 1_555
Mn5 O19 1.980875 1_555
Mn5 O7 1.983485 1_555
Mn5 O5 1.991328 1_555
Mn5 O16 2.000314 1_555
Mn6 O2 1.976585 1_655
Mn6 O22 1.981539 1_555
Mn6 O14 1.985712 1_555
Mn6 O7 2.008319 1_655
Mn6 O19 2.009291 1_555
Mn6 O0 2.018877 1_655
Fe0 O11 1.995420 1_555
Fe0 O18 1.998548 1_555
Fe0 O6 2.001981 1_555
Fe0 O3 2.012592 1_545
Fe0 O17 2.013366 1_545
Fe0 O12 2.049026 1_545
