# generated using pymatgen
data_CsH2CO3
_symmetry_space_group_name_H-M   'P 1'
_cell_length_a   10.98858800
_cell_length_b   6.27326500
_cell_length_c   6.27623636
_cell_angle_alpha   68.98987850
_cell_angle_beta   90.00000000
_cell_angle_gamma   90.00000000
_symmetry_Int_Tables_number   1
_chemical_formula_structural   CsH2CO3
_chemical_formula_sum   'Cs4 H8 C4 O12'
_cell_volume   403.88441495
_cell_formula_units_Z   4
loop_
 _symmetry_equiv_pos_site_id
 _symmetry_equiv_pos_as_xyz
  1  'x, y, z'
loop_
 _atom_site_type_symbol
 _atom_site_label
 _atom_site_symmetry_multiplicity
 _atom_site_fract_x
 _atom_site_fract_y
 _atom_site_fract_z
 _atom_site_occupancy
  Cs  Cs0  1  0.61598000  0.10967800  0.70889300  1
  Cs  Cs1  1  0.11598000  0.89032200  0.79110700  1
  Cs  Cs2  1  0.38402000  0.89032200  0.29110700  1
  Cs  Cs3  1  0.88402000  0.10967800  0.20889300  1
  H  H0  1  0.63806700  0.66289500  0.39073500  1
  H  H1  1  0.13806700  0.33710500  0.10926500  1
  H  H2  1  0.36193300  0.33710500  0.60926500  1
  H  H3  1  0.86193300  0.66289500  0.89073500  1
  H  H4  1  0.73297900  0.65139300  0.58356200  1
  H  H5  1  0.23297900  0.34860700  0.91643800  1
  H  H6  1  0.26702100  0.34860700  0.41643800  1
  H  H7  1  0.76702100  0.65139300  0.08356200  1
  C  C0  1  0.93973800  0.47222400  0.57462300  1
  C  C1  1  0.43973800  0.52777600  0.92537700  1
  C  C2  1  0.06026200  0.52777600  0.42537700  1
  C  C3  1  0.56026200  0.47222400  0.07462300  1
  O  O0  1  0.89482100  0.27488300  0.63133600  1
  O  O1  1  0.39482100  0.72511700  0.86866400  1
  O  O2  1  0.10517900  0.72511700  0.36866400  1
  O  O3  1  0.60517900  0.27488300  0.13133600  1
  O  O4  1  0.89526500  0.63708300  0.62547400  1
  O  O5  1  0.39526500  0.36291700  0.87452600  1
  O  O6  1  0.10473500  0.36291700  0.37452600  1
  O  O7  1  0.60473500  0.63708300  0.12547400  1
  O  O8  1  0.64731900  0.69278300  0.53430200  1
  O  O9  1  0.14731900  0.30721700  0.96569800  1
  O  O10  1  0.35268100  0.30721700  0.46569800  1
  O  O11  1  0.85268100  0.69278300  0.03430200  1
loop_
_geom_bond_atom_site_label_1
_geom_bond_atom_site_label_2
_geom_bond_distance
_geom_bond_site_symmetry_2
Cs0 H2 3.095144 1_555
Cs0 O7 3.175286 1_546
Cs0 O3 3.176189 1_556
Cs0 O8 3.195937 1_545
Cs0 O0 3.215244 1_555
Cs0 O5 3.266641 1_555
Cs0 O10 3.298511 1_555
Cs0 O1 3.316141 1_545
Cs0 H0 3.334850 1_555
Cs0 O3 3.396192 1_555
Cs1 H3 3.095144 1_455
Cs1 O6 3.175286 1_565
Cs1 O2 3.176189 1_555
Cs1 O9 3.195937 1_565
Cs1 O1 3.215244 1_555
Cs1 O4 3.266641 1_455
Cs1 O11 3.298511 1_456
Cs1 O0 3.316141 1_465
Cs1 H1 3.334850 1_556
Cs1 O2 3.396192 1_556
Cs2 H0 3.095144 1_555
Cs2 O5 3.175286 1_564
Cs2 O1 3.176189 1_554
Cs2 O10 3.195937 1_565
Cs2 O2 3.215244 1_555
Cs2 O7 3.266641 1_555
Cs2 O8 3.298511 1_555
Cs2 O3 3.316141 1_565
Cs2 H2 3.334850 1_555
Cs2 O1 3.396192 1_555
Cs3 H1 3.095144 1_655
Cs3 O4 3.175286 1_545
Cs3 O0 3.176189 1_555
Cs3 O11 3.195937 1_545
Cs3 O3 3.215244 1_555
Cs3 O6 3.266641 1_655
Cs3 O9 3.298511 1_654
Cs3 O2 3.316141 1_645
Cs3 H3 3.334850 1_554
Cs3 O0 3.396192 1_554
H0 O8 0.989214 1_555
H1 O9 0.989214 1_554
H2 O10 0.989214 1_555
H3 O11 0.989214 1_556
H4 O8 0.995717 1_555
H5 O9 0.995717 1_555
H6 O10 0.995717 1_555
H7 O11 0.995717 1_555
C0 O0 1.259727 1_555
C0 O4 1.283332 1_555
C1 O1 1.259727 1_555
C1 O5 1.283332 1_555
C2 O2 1.259727 1_555
C2 O6 1.283332 1_555
C3 O3 1.259727 1_555
C3 O7 1.283332 1_555
