# generated using pymatgen
data_U4Ga12Fe
_symmetry_space_group_name_H-M   'P 1'
_cell_length_a   7.41295056
_cell_length_b   7.41295056
_cell_length_c   7.41295056
_cell_angle_alpha   109.47122063
_cell_angle_beta   109.47122063
_cell_angle_gamma   109.47122063
_symmetry_Int_Tables_number   1
_chemical_formula_structural   U4Ga12Fe
_chemical_formula_sum   'U4 Ga12 Fe1'
_cell_volume   313.58221236
_cell_formula_units_Z   1
loop_
 _symmetry_equiv_pos_site_id
 _symmetry_equiv_pos_as_xyz
  1  'x, y, z'
loop_
 _atom_site_type_symbol
 _atom_site_label
 _atom_site_symmetry_multiplicity
 _atom_site_fract_x
 _atom_site_fract_y
 _atom_site_fract_z
 _atom_site_occupancy
  U  U0  1  0.00000000  0.50000000  0.00000000  1
  U  U1  1  0.50000000  0.00000000  0.00000000  1
  U  U2  1  0.50000000  0.50000000  0.50000000  1
  U  U3  1  0.00000000  0.00000000  0.50000000  1
  Ga  Ga0  1  0.25000000  0.50000000  0.75000000  1
  Ga  Ga1  1  0.28409400  0.28409400  0.00000000  1
  Ga  Ga2  1  0.71590600  0.71590600  0.00000000  1
  Ga  Ga3  1  0.00000000  0.71590600  0.71590600  1
  Ga  Ga4  1  0.50000000  0.75000000  0.25000000  1
  Ga  Ga5  1  0.00000000  0.28409400  0.28409400  1
  Ga  Ga6  1  0.75000000  0.25000000  0.50000000  1
  Ga  Ga7  1  0.75000000  0.50000000  0.25000000  1
  Ga  Ga8  1  0.25000000  0.75000000  0.50000000  1
  Ga  Ga9  1  0.28409400  0.00000000  0.28409400  1
  Ga  Ga10  1  0.50000000  0.25000000  0.75000000  1
  Ga  Ga11  1  0.71590600  0.00000000  0.71590600  1
  Fe  Fe0  1  0.00000000  0.00000000  0.00000000  1
loop_
_geom_bond_atom_site_label_1
_geom_bond_atom_site_label_2
_geom_bond_distance
_geom_bond_site_symmetry_2
Ga0 Ga5 2.827506 1_555
Ga0 Ga1 2.827506 1_556
Ga0 Ga2 2.827506 1_556
Ga0 Ga3 2.827506 1_555
Ga0 Ga6 3.026324 1_455
Ga0 Ga10 3.026324 1_555
Ga0 U1 3.026324 1_566
Ga0 Ga8 3.026324 1_555
Ga0 U2 3.026324 1_555
Ga0 U3 3.026324 1_555
Ga0 U0 3.026324 1_556
Ga0 Ga4 3.026324 1_556
Ga1 Ga10 2.827506 1_554
Ga1 Ga7 2.827506 1_555
Ga1 Ga4 2.827506 1_555
Ga1 U1 3.040363 1_555
Ga1 U3 3.040363 1_554
Ga1 U2 3.040363 1_555
Ga1 U0 3.040363 1_555
Ga2 Ga4 2.827506 1_555
Ga2 Ga7 2.827506 1_555
Ga2 U3 3.040363 1_665
Ga2 U1 3.040363 1_565
Ga2 U2 3.040363 1_554
Ga2 U0 3.040363 1_655
Ga3 Ga8 2.827506 1_555
Ga3 Ga7 2.827506 1_455
Ga3 Ga6 2.827506 1_455
Ga3 U3 3.040363 1_565
Ga3 U1 3.040363 1_566
Ga3 U0 3.040363 1_556
Ga3 U2 3.040363 1_455
Ga4 Ga9 2.827506 1_565
Ga4 Ga7 3.026324 1_555
Ga4 U3 3.026324 1_665
Ga4 Ga8 3.026324 1_555
Ga4 U1 3.026324 1_565
Ga4 U2 3.026324 1_555
Ga4 Ga6 3.026324 1_565
Ga4 U0 3.026324 1_555
Ga5 Ga6 2.827506 1_455
Ga5 Ga8 2.827506 1_555
Ga5 Ga7 2.827506 1_455
Ga5 U3 3.040363 1_555
Ga5 U2 3.040363 1_555
Ga5 U1 3.040363 1_455
Ga5 U0 3.040363 1_555
Ga6 Ga9 2.827506 1_555
Ga6 U0 3.026324 1_656
Ga6 Ga7 3.026324 1_555
Ga6 U2 3.026324 1_555
Ga6 U1 3.026324 1_555
Ga6 U3 3.026324 1_655
Ga7 Ga8 3.026324 1_655
Ga7 U3 3.026324 1_665
Ga7 U2 3.026324 1_555
Ga7 U1 3.026324 1_555
Ga7 U0 3.026324 1_655
Ga8 Ga9 2.827506 1_565
Ga8 U1 3.026324 1_566
Ga8 U2 3.026324 1_555
Ga8 U3 3.026324 1_565
Ga8 U0 3.026324 1_555
Ga9 U1 3.040363 1_555
Ga9 U3 3.040363 1_555
Ga9 U2 3.040363 1_555
Ga9 U0 3.040363 1_545
Ga10 Ga9 2.827506 1_555
Ga10 Ga2 2.827506 1_556
Ga10 Ga11 2.827506 1_555
Ga10 U0 3.026324 1_656
Ga10 Ga8 3.026324 1_545
Ga10 U2 3.026324 1_555
Ga10 U3 3.026324 1_555
Ga10 Ga6 3.026324 1_555
Ga10 Ga7 3.026324 1_556
Ga10 U1 3.026324 1_556
Ga11 Ga4 2.827506 1_545
Ga11 Ga6 2.827506 1_555
Ga11 Ga8 2.827506 1_545
Ga11 U0 3.040363 1_656
Ga11 U3 3.040363 1_655
Ga11 U2 3.040363 1_545
Ga11 U1 3.040363 1_556
Fe0 Ga11 2.431770 1_454
Fe0 Ga2 2.431770 1_445
Fe0 Ga3 2.431770 1_544
Fe0 Ga1 2.431770 1_555
Fe0 Ga5 2.431770 1_555
Fe0 Ga9 2.431770 1_555
