# generated using pymatgen
data_K2Al4Fe5Si5(HO6)4
_symmetry_space_group_name_H-M   'P 1'
_cell_length_a   6.65624100
_cell_length_b   7.79562043
_cell_length_c   11.49506221
_cell_angle_alpha   78.35222674
_cell_angle_beta   83.75604957
_cell_angle_gamma   78.02415340
_symmetry_Int_Tables_number   1
_chemical_formula_structural   K2Al4Fe5Si5(HO6)4
_chemical_formula_sum   'K2 Al4 Fe5 Si5 H4 O24'
_cell_volume   570.08193746
_cell_formula_units_Z   1
loop_
 _symmetry_equiv_pos_site_id
 _symmetry_equiv_pos_as_xyz
  1  'x, y, z'
loop_
 _atom_site_type_symbol
 _atom_site_label
 _atom_site_symmetry_multiplicity
 _atom_site_fract_x
 _atom_site_fract_y
 _atom_site_fract_z
 _atom_site_occupancy
  K  K0  1  0.07251800  0.89127900  0.89294900  1
  K  K1  1  0.90382800  0.51162700  0.43608500  1
  Al  Al0  1  0.95742100  0.53803400  0.70834300  1
  Al  Al1  1  0.22949500  0.73894100  0.49583200  1
  Al  Al2  1  0.49164900  0.55493100  0.70403100  1
  Al  Al3  1  0.26582000  0.25994800  0.81204400  1
  Fe  Fe0  1  0.50828200  0.42487000  0.31191900  1
  Fe  Fe1  1  0.61166500  0.06250800  0.74722100  1
  Fe  Fe2  1  0.88529600  0.09893100  0.41029600  1
  Fe  Fe3  1  0.18301100  0.79628300  0.25034200  1
  Fe  Fe4  1  0.32956000  0.48735600  0.03412100  1
  Si  Si0  1  0.82428400  0.43285200  0.13191300  1
  Si  Si1  1  0.84525800  0.75552200  0.18476100  1
  Si  Si2  1  0.48557200  0.09404300  0.22445200  1
  Si  Si3  1  0.34409700  0.09678400  0.48282700  1
  Si  Si4  1  0.67009100  0.69122600  0.89448800  1
  H  H0  1  0.40034300  0.21395900  0.55459900  1
  H  H1  1  0.41668200  0.78659800  0.06893400  1
  H  H2  1  0.86130900  0.28095400  0.98657600  1
  H  H3  1  0.74452900  0.89930900  0.58318100  1
  O  O0  1  0.67770700  0.62003800  0.22029300  1
  O  O1  1  0.81608700  0.30631100  0.27656500  1
  O  O2  1  0.28480700  0.34080100  0.94220000  1
  O  O3  1  0.99735300  0.57286000  0.10276900  1
  O  O4  1  0.37669800  0.88345300  0.52672800  1
  O  O5  1  0.44465300  0.31008700  0.16966500  1
  O  O6  1  0.51029000  0.31923600  0.73683000  1
  O  O7  1  0.00952400  0.85608900  0.41438100  1
  O  O8  1  0.29404800  0.73284500  0.09106600  1
  O  O9  1  0.65833200  0.89980100  0.90473700  1
  O  O10  1  0.69069500  0.96086000  0.17481500  1
  O  O11  1  0.52681700  0.11784900  0.36559200  1
  O  O12  1  0.75842300  0.02153000  0.58739600  1
  O  O13  1  0.10931500  0.18885400  0.44754100  1
  O  O14  1  0.28317300  0.01025600  0.23323400  1
  O  O15  1  0.90313200  0.25495800  0.06811900  1
  O  O16  1  0.21337100  0.60400800  0.64100200  1
  O  O17  1  0.31142200  0.60488900  0.38275500  1
  O  O18  1  0.02003200  0.31285400  0.76217600  1
  O  O19  1  0.72894400  0.59938300  0.62839200  1
  O  O20  1  0.89739000  0.64845200  0.82784500  1
  O  O21  1  0.65043700  0.54175000  0.02167000  1
  O  O22  1  0.47141000  0.65218500  0.83418600  1
  O  O23  1  0.34265400  0.04375200  0.77454500  1
loop_
_geom_bond_atom_site_label_1
_geom_bond_atom_site_label_2
_geom_bond_distance
_geom_bond_site_symmetry_2
K0 O23 2.489940 1_565
K0 O20 2.679526 1_455
K0 O9 2.733086 1_455
K0 O8 2.779402 1_556
K0 O22 3.007409 1_555
K1 O19 2.535774 1_555
K1 O13 2.587779 1_655
K1 O1 2.841004 1_555
K1 O7 2.871121 1_655
K1 O17 2.922640 1_655
K1 O0 2.927534 1_555
Al0 O18 1.718131 1_655
Al0 O20 1.732895 1_555
Al0 O19 1.791898 1_555
Al0 O16 1.918906 1_655
Al1 O4 1.746612 1_555
Al1 O16 1.789353 1_555
Al1 O17 1.799109 1_555
Al1 O7 1.803465 1_555
Al2 O6 1.780276 1_555
Al2 O19 1.782588 1_555
Al2 O22 1.789741 1_555
Al2 O16 1.997040 1_555
Al3 O18 1.733145 1_555
Al3 O2 1.762581 1_555
Al3 O23 1.782011 1_555
Al3 O6 1.858442 1_555
Fe0 O17 1.953366 1_555
Fe0 O1 2.098038 1_555
Fe0 O0 2.121924 1_555
Fe0 O5 2.133715 1_555
Fe0 O11 2.328536 1_555
Fe1 O23 1.814954 1_555
Fe1 O6 1.958462 1_555
Fe1 O9 2.003817 1_545
Fe1 O12 2.036832 1_555
Fe2 O13 1.895259 1_655
Fe2 O7 1.895445 1_645
Fe2 O1 2.007585 1_555
Fe2 O12 2.136149 1_555
Fe2 O11 2.463632 1_555
Fe3 O14 1.888413 1_565
Fe3 O8 2.015575 1_555
Fe3 O17 2.027376 1_555
Fe3 O7 2.182750 1_555
Fe4 O2 1.790992 1_554
Fe4 O5 1.968529 1_555
Fe4 O8 2.105041 1_555
Fe4 O21 2.246537 1_555
Fe4 O3 2.275472 1_455
Fe4 O22 2.581397 1_554
H0 Si3 1.472630 1_555
H1 O8 0.979982 1_555
H2 O15 0.976638 1_556
H3 O12 0.987365 1_565
O0 Si1 1.655810 1_555
O0 Si0 1.976244 1_555
O1 Si0 1.755339 1_555
O3 Si0 1.709027 1_555
O3 Si1 1.917552 1_555
O4 Si3 1.613276 1_565
O5 Si2 1.651055 1_555
O9 Si4 1.638999 1_555
O10 Si2 1.658055 1_565
O10 Si1 1.703562 1_555
O11 Si3 1.720252 1_555
O11 Si2 1.726744 1_555
O13 Si3 1.636079 1_555
O14 Si2 1.600247 1_555
O15 Si0 1.661706 1_555
O20 Si4 1.621342 1_555
O21 Si4 1.687027 1_554
O21 Si0 1.772723 1_555
O22 Si4 1.665433 1_555
