# generated using pymatgen
data_Cs5Nb2S4Cl9
_symmetry_space_group_name_H-M   'P 1'
_cell_length_a   10.43025891
_cell_length_b   10.43025891
_cell_length_c   10.43025891
_cell_angle_alpha   138.93070316
_cell_angle_beta   119.74715763
_cell_angle_gamma   75.51722206
_symmetry_Int_Tables_number   1
_chemical_formula_structural   Cs5Nb2S4Cl9
_chemical_formula_sum   'Cs5 Nb2 S4 Cl9'
_cell_volume   631.76177391
_cell_formula_units_Z   1
loop_
 _symmetry_equiv_pos_site_id
 _symmetry_equiv_pos_as_xyz
  1  'x, y, z'
loop_
 _atom_site_type_symbol
 _atom_site_label
 _atom_site_symmetry_multiplicity
 _atom_site_fract_x
 _atom_site_fract_y
 _atom_site_fract_z
 _atom_site_occupancy
  Cs  Cs0  1  0.44290953  0.66401551  0.77889401  1
  Cs  Cs1  1  0.88512150  0.66401551  0.22110599  1
  Cs  Cs2  1  0.50000000  0.00000000  0.50000000  1
  Cs  Cs3  1  0.55709047  0.33598449  0.22110599  1
  Cs  Cs4  1  0.11487850  0.33598449  0.77889401  1
  Nb  Nb0  1  0.08865715  0.08865715  -0.00000000  1
  Nb  Nb1  1  0.91134285  0.91134285  0.00000000  1
  S  S0  1  0.09554886  0.75607070  0.85161955  1
  S  S1  1  0.90445114  0.75607070  0.66052284  1
  S  S2  1  0.90445114  0.24392930  0.14838045  1
  S  S3  1  0.09554886  0.24392930  0.33947716  1
  Cl  Cl0  1  0.20195199  0.96489883  0.76294584  1
  Cl  Cl1  1  0.62706664  0.87127034  0.75579731  1
  Cl  Cl2  1  0.79804801  0.03510117  0.23705416  1
  Cl  Cl3  1  0.37293336  0.12872966  0.24420269  1
  Cl  Cl4  1  0.11547303  0.87127034  0.24420269  1
  Cl  Cl5  1  0.20195199  0.43900615  0.23705416  1
  Cl  Cl6  1  0.79804801  0.56099385  0.76294584  1
  Cl  Cl7  1  0.88452697  0.12872966  0.75579731  1
  Cl  Cl8  1  0.50000000  0.50000000  -0.00000000  1
loop_
_geom_bond_atom_site_label_1
_geom_bond_atom_site_label_2
_geom_bond_distance
_geom_bond_site_symmetry_2
Cs0 S3 3.809583 1_555
Cs0 S0 3.809584 1_555
Cs1 S2 3.809584 1_555
Cs1 S1 3.809595 1_555
Cs3 S1 3.809583 1_555
Cs3 S2 3.809584 1_555
Cs4 S0 3.809584 1_555
Cs4 S3 3.809595 1_555
Nb0 S3 2.514870 1_555
Nb0 S0 2.514879 1_544
Nb0 S2 2.514879 1_455
Nb0 S1 2.514880 1_444
Nb1 S1 2.514870 1_554
Nb1 S2 2.514879 1_565
Nb1 S0 2.514879 1_654
Nb1 S3 2.514880 1_665
S0 S1 2.000806 1_455
S2 S3 2.000806 1_655
Cl0 Nb0 2.549532 1_566
Cl0 Cs1 3.552481 1_455
Cl0 Cs0 3.552490 1_555
Cl0 Cs4 3.640647 1_565
Cl0 Cs3 3.640654 1_566
Cl1 Nb1 2.640864 1_556
Cl1 Cs2 3.417631 1_565
Cl1 Cs0 3.426639 1_555
Cl1 Cs3 3.722412 1_566
Cl1 Cs3 3.722419 1_555
Cl2 Nb1 2.549532 1_545
Cl2 Cs4 3.552481 1_655
Cl2 Cs3 3.552490 1_555
Cl2 Cs1 3.640647 1_545
Cl2 Cs0 3.640654 1_544
Cl3 Nb0 2.640864 1_555
Cl3 Cs2 3.417631 1_555
Cl3 Cs3 3.426639 1_555
Cl3 Cs0 3.722412 1_544
Cl3 Cs0 3.722419 1_555
Cl4 Nb1 2.640857 1_455
Cl4 Cs2 3.417630 1_565
Cl4 Cs1 3.426647 1_455
Cl4 Cs4 3.722417 1_554
Cl4 Cs4 3.722417 1_565
Cl5 Nb0 2.549529 1_555
Cl5 Cs1 3.552482 1_455
Cl5 Cs0 3.552482 1_555
Cl5 Cs3 3.640657 1_555
Cl5 Cs4 3.640657 1_554
Cl6 Nb1 2.549529 1_556
Cl6 Cs4 3.552482 1_655
Cl6 Cs3 3.552482 1_555
Cl6 Cs0 3.640657 1_555
Cl6 Cs1 3.640657 1_556
Cl7 Nb0 2.640857 1_656
Cl7 Cs2 3.417630 1_555
Cl7 Cs4 3.426647 1_655
Cl7 Cs1 3.722417 1_545
Cl7 Cs1 3.722417 1_556
Cl8 Cs4 3.560364 1_554
Cl8 Cs1 3.560364 1_555
Cl8 Cs3 3.560364 1_555
Cl8 Cs0 3.560364 1_554
Cl8 Cs2 3.658661 1_554
Cl8 Cs2 3.658661 1_565
