# generated using pymatgen
data_CdI2
_symmetry_space_group_name_H-M   'P 1'
_cell_length_a   4.34172376
_cell_length_b   4.34172376
_cell_length_c   103.19125500
_cell_angle_alpha   90.00000000
_cell_angle_beta   90.00000000
_cell_angle_gamma   119.99999630
_symmetry_Int_Tables_number   1
_chemical_formula_structural   CdI2
_chemical_formula_sum   'Cd14 I28'
_cell_volume   1684.60435127
_cell_formula_units_Z   14
loop_
 _symmetry_equiv_pos_site_id
 _symmetry_equiv_pos_as_xyz
  1  'x, y, z'
loop_
 _atom_site_type_symbol
 _atom_site_label
 _atom_site_symmetry_multiplicity
 _atom_site_fract_x
 _atom_site_fract_y
 _atom_site_fract_z
 _atom_site_occupancy
  Cd  Cd0  1  0.00000000  0.00000000  0.30357700  1
  Cd  Cd1  1  0.00000000  0.00000000  0.94644300  1
  Cd  Cd2  1  0.00000000  0.00000000  0.16071000  1
  Cd  Cd3  1  0.00000000  0.00000000  0.66070800  1
  Cd  Cd4  1  0.00000000  0.00000000  0.44643900  1
  Cd  Cd5  1  0.00000000  0.00000000  0.58928700  1
  Cd  Cd6  1  0.33333300  0.66666700  0.23214800  1
  Cd  Cd7  1  0.33333300  0.66666700  0.73214600  1
  Cd  Cd8  1  0.00000000  0.00000000  0.01784900  1
  Cd  Cd9  1  0.33333300  0.66666700  0.51784500  1
  Cd  Cd10  1  0.00000000  0.00000000  0.80357700  1
  Cd  Cd11  1  0.33333300  0.66666700  0.08928500  1
  Cd  Cd12  1  0.33333300  0.66666700  0.37499700  1
  Cd  Cd13  1  0.33333300  0.66666700  0.87499600  1
  I  I0  1  0.00000000  0.00000000  0.07254600  1
  I  I1  1  0.33333300  0.66666700  0.92968800  1
  I  I2  1  0.33333300  0.66666700  0.64395900  1
  I  I3  1  0.66666700  0.33333300  0.53458400  1
  I  I4  1  0.66666700  0.33333300  0.17745300  1
  I  I5  1  0.66666700  0.33333300  0.10603900  1
  I  I6  1  0.66666700  0.33333300  0.46317400  1
  I  I7  1  0.66666700  0.33333300  0.82032200  1
  I  I8  1  0.33333300  0.66666700  0.28681800  1
  I  I9  1  0.33333300  0.66666700  0.78681800  1
  I  I10  1  0.66666700  0.33333300  0.32032200  1
  I  I11  1  0.66666700  0.33333300  0.60604200  1
  I  I12  1  0.33333300  0.66666700  0.14395700  1
  I  I13  1  0.66666700  0.33333300  0.96317600  1
  I  I14  1  0.33333300  0.66666700  0.00112700  1
  I  I15  1  0.00000000  0.00000000  0.85826000  1
  I  I16  1  0.66666700  0.33333300  0.67745000  1
  I  I17  1  0.00000000  0.00000000  0.71540200  1
  I  I18  1  0.00000000  0.00000000  0.21540900  1
  I  I19  1  0.66666700  0.33333300  0.03459300  1
  I  I20  1  0.66666700  0.33333300  0.89173100  1
  I  I21  1  0.66666700  0.33333300  0.24890100  1
  I  I22  1  0.00000000  0.00000000  0.35826000  1
  I  I23  1  0.66666700  0.33333300  0.39173500  1
  I  I24  1  0.00000000  0.00000000  0.50109500  1
  I  I25  1  0.33333300  0.66666700  0.57254900  1
  I  I26  1  0.33333300  0.66666700  0.42968600  1
  I  I27  1  0.66666700  0.33333300  0.74890000  1
loop_
_geom_bond_atom_site_label_1
_geom_bond_atom_site_label_2
_geom_bond_distance
_geom_bond_site_symmetry_2
Cd0 I10 3.044549 1_455
Cd0 I10 3.044552 1_445
Cd0 I10 3.044552 1_555
Cd0 I8 3.045369 1_545
Cd0 I8 3.045372 1_445
Cd0 I8 3.045372 1_555
Cd1 I13 3.043846 1_455
Cd1 I13 3.043849 1_555
Cd1 I13 3.043849 1_445
Cd1 I1 3.045135 1_545
Cd1 I1 3.045138 1_445
Cd1 I1 3.045138 1_555
Cd2 I4 3.044432 1_455
Cd2 I4 3.044435 1_445
Cd2 I4 3.044435 1_555
Cd2 I12 3.045017 1_545
Cd2 I12 3.045021 1_555
Cd2 I12 3.045021 1_445
Cd3 I16 3.044373 1_455
Cd3 I16 3.044376 1_445
Cd3 I16 3.044376 1_555
Cd3 I2 3.044783 1_545
Cd3 I2 3.044786 1_555
Cd3 I2 3.044786 1_445
Cd4 I6 3.043963 1_455
Cd4 I6 3.043966 1_445
Cd4 I6 3.043966 1_555
Cd4 I26 3.045017 1_545
Cd4 I26 3.045021 1_445
Cd4 I26 3.045021 1_555
Cd5 I25 3.044139 1_545
Cd5 I25 3.044142 1_555
Cd5 I25 3.044142 1_445
Cd5 I11 3.045135 1_455
Cd5 I11 3.045138 1_445
Cd5 I11 3.045138 1_555
Cd6 I18 3.044197 1_565
Cd6 I18 3.044201 1_665
Cd6 I18 3.044201 1_555
Cd6 I21 3.045017 1_565
Cd6 I21 3.045017 1_455
Cd6 I21 3.045024 1_555
Cd7 I17 3.044490 1_565
Cd7 I17 3.044493 1_555
Cd7 I17 3.044493 1_665
Cd7 I27 3.045076 1_565
Cd7 I27 3.045076 1_455
Cd7 I27 3.045082 1_555
Cd8 I14 3.043202 1_545
Cd8 I14 3.043206 1_555
Cd8 I14 3.043206 1_445
Cd8 I19 3.044490 1_455
Cd8 I19 3.044493 1_555
Cd8 I19 3.044493 1_445
Cd9 I3 3.044198 1_455
Cd9 I3 3.044198 1_565
Cd9 I3 3.044204 1_555
Cd9 I24 3.044842 1_565
Cd9 I24 3.044845 1_555
Cd9 I24 3.044845 1_665
Cd10 I7 3.044549 1_455
Cd10 I7 3.044552 1_445
Cd10 I7 3.044552 1_555
Cd10 I9 3.045369 1_545
Cd10 I9 3.045372 1_555
Cd10 I9 3.045372 1_445
Cd11 I0 3.044197 1_565
Cd11 I0 3.044201 1_555
Cd11 I0 3.044201 1_665
Cd11 I5 3.045076 1_455
Cd11 I5 3.045076 1_565
Cd11 I5 3.045082 1_555
Cd12 I22 3.044080 1_565
Cd12 I22 3.044084 1_555
Cd12 I22 3.044084 1_665
Cd12 I23 3.044139 1_565
Cd12 I23 3.044139 1_455
Cd12 I23 3.044145 1_555
Cd13 I20 3.043963 1_455
Cd13 I20 3.043963 1_565
Cd13 I20 3.043969 1_555
Cd13 I15 3.044022 1_565
Cd13 I15 3.044025 1_555
Cd13 I15 3.044025 1_665
