# generated using pymatgen
data_Bi(Mo2Cl5)3
_symmetry_space_group_name_H-M   'P 1'
_cell_length_a   9.34113644
_cell_length_b   9.34113644
_cell_length_c   26.49434626
_cell_angle_alpha   88.80192390
_cell_angle_beta   88.80192390
_cell_angle_gamma   91.46450764
_symmetry_Int_Tables_number   1
_chemical_formula_structural   Bi(Mo2Cl5)3
_chemical_formula_sum   'Bi4 Mo24 Cl60'
_cell_volume   2310.02042979
_cell_formula_units_Z   4
loop_
 _symmetry_equiv_pos_site_id
 _symmetry_equiv_pos_as_xyz
  1  'x, y, z'
loop_
 _atom_site_type_symbol
 _atom_site_label
 _atom_site_symmetry_multiplicity
 _atom_site_fract_x
 _atom_site_fract_y
 _atom_site_fract_z
 _atom_site_occupancy
  Bi  Bi0  1  0.66874900  0.75747500  0.39167100  1
  Bi  Bi1  1  0.75747500  0.66874900  0.89167100  1
  Bi  Bi2  1  0.33125100  0.24252500  0.60832900  1
  Bi  Bi3  1  0.24252500  0.33125100  0.10832900  1
  Mo  Mo0  1  0.67193900  0.79677300  0.06392100  1
  Mo  Mo1  1  0.18223800  0.22835000  0.30109400  1
  Mo  Mo2  1  0.44175700  0.29957200  0.85012900  1
  Mo  Mo3  1  0.82377500  0.63912100  0.12582600  1
  Mo  Mo4  1  0.91452800  0.88647900  0.61211200  1
  Mo  Mo5  1  0.97704900  0.62217200  0.63707100  1
  Mo  Mo6  1  0.81776200  0.77165000  0.69890600  1
  Mo  Mo7  1  0.37782800  0.02295100  0.86292900  1
  Mo  Mo8  1  0.63912100  0.82377500  0.62582600  1
  Mo  Mo9  1  0.32806100  0.20322700  0.93607900  1
  Mo  Mo10  1  0.88647900  0.91452800  0.11211200  1
  Mo  Mo11  1  0.22835000  0.18223800  0.80109400  1
  Mo  Mo12  1  0.55824300  0.70042800  0.14987100  1
  Mo  Mo13  1  0.79677300  0.67193900  0.56392100  1
  Mo  Mo14  1  0.02295100  0.37782800  0.36292900  1
  Mo  Mo15  1  0.29957200  0.44175700  0.35012900  1
  Mo  Mo16  1  0.70042800  0.55824300  0.64987100  1
  Mo  Mo17  1  0.62217200  0.97704900  0.13707100  1
  Mo  Mo18  1  0.20322700  0.32806100  0.43607900  1
  Mo  Mo19  1  0.08547200  0.11352100  0.38788800  1
  Mo  Mo20  1  0.36087900  0.17622500  0.37417400  1
  Mo  Mo21  1  0.77165000  0.81776200  0.19890600  1
  Mo  Mo22  1  0.17622500  0.36087900  0.87417400  1
  Mo  Mo23  1  0.11352100  0.08547200  0.88788800  1
  Cl  Cl0  1  0.92525700  0.16991800  0.31717600  1
  Cl  Cl1  1  0.89893000  0.94190800  0.91937000  1
  Cl  Cl2  1  0.42470600  0.85664400  0.09168400  1
  Cl  Cl3  1  0.21364200  0.51086800  0.64937100  1
  Cl  Cl4  1  0.05625800  0.73555300  0.55491900  1
  Cl  Cl5  1  0.76136600  0.02020400  0.67160500  1
  Cl  Cl6  1  0.51086800  0.21364200  0.14937100  1
  Cl  Cl7  1  0.53888400  0.61739400  0.57979300  1
  Cl  Cl8  1  0.87704600  0.51772400  0.71755400  1
  Cl  Cl9  1  0.82748600  0.83812900  0.78770700  1
  Cl  Cl10  1  0.16187100  0.17251400  0.71229300  1
  Cl  Cl11  1  0.59673300  0.04891300  0.37674200  1
  Cl  Cl12  1  0.97979600  0.23863400  0.82839500  1
  Cl  Cl13  1  0.45206200  0.66109800  0.32529600  1
  Cl  Cl14  1  0.78635800  0.48913200  0.35062900  1
  Cl  Cl15  1  0.07645000  0.26238700  0.95566500  1
  Cl  Cl16  1  0.14335600  0.57529400  0.40831600  1
  Cl  Cl17  1  0.40326700  0.95108700  0.62325800  1
  Cl  Cl18  1  0.12295400  0.48227600  0.28244600  1
  Cl  Cl19  1  0.53466600  0.23919000  0.54435300  1
  Cl  Cl20  1  0.38260600  0.46111600  0.92020700  1
  Cl  Cl21  1  0.04891300  0.59673300  0.87674200  1
  Cl  Cl22  1  0.26444700  0.94374200  0.94508100  1
  Cl  Cl23  1  0.48913200  0.78635800  0.85062900  1
  Cl  Cl24  1  0.21505000  0.40788300  0.52516700  1
  Cl  Cl25  1  0.23863400  0.97979600  0.32839500  1
  Cl  Cl26  1  0.85664400  0.42470600  0.59168400  1
  Cl  Cl27  1  0.57529400  0.14335600  0.90831600  1
  Cl  Cl28  1  0.44204700  0.29134100  0.29254900  1
  Cl  Cl29  1  0.48227600  0.12295400  0.78244600  1
  Cl  Cl30  1  0.55795300  0.70865900  0.70745100  1
  Cl  Cl31  1  0.73555300  0.05625800  0.05491900  1
  Cl  Cl32  1  0.26238700  0.07645000  0.45566500  1
  Cl  Cl33  1  0.16991800  0.92525700  0.81717600  1
  Cl  Cl34  1  0.66109800  0.45206200  0.82529600  1
  Cl  Cl35  1  0.78495000  0.59211700  0.47483300  1
  Cl  Cl36  1  0.54793800  0.33890200  0.67470400  1
  Cl  Cl37  1  0.40788300  0.21505000  0.02516700  1
  Cl  Cl38  1  0.07474300  0.83008200  0.68282400  1
  Cl  Cl39  1  0.83812900  0.82748600  0.28770700  1
  Cl  Cl40  1  0.46111600  0.38260600  0.42020700  1
  Cl  Cl41  1  0.70865900  0.55795300  0.20745100  1
  Cl  Cl42  1  0.46533400  0.76081000  0.45564700  1
  Cl  Cl43  1  0.05809200  0.10107000  0.58063000  1
  Cl  Cl44  1  0.17251400  0.16187100  0.21229300  1
  Cl  Cl45  1  0.33890200  0.54793800  0.17470400  1
  Cl  Cl46  1  0.59211700  0.78495000  0.97483300  1
  Cl  Cl47  1  0.94374200  0.26444700  0.44508100  1
  Cl  Cl48  1  0.94190800  0.89893000  0.41937000  1
  Cl  Cl49  1  0.10107000  0.05809200  0.08063000  1
  Cl  Cl50  1  0.23919000  0.53466600  0.04435300  1
  Cl  Cl51  1  0.02020400  0.76136600  0.17160500  1
  Cl  Cl52  1  0.95108700  0.40326700  0.12325800  1
  Cl  Cl53  1  0.83008200  0.07474300  0.18282400  1
  Cl  Cl54  1  0.61739400  0.53888400  0.07979300  1
  Cl  Cl55  1  0.29134100  0.44204700  0.79254900  1
  Cl  Cl56  1  0.76081000  0.46533400  0.95564700  1
  Cl  Cl57  1  0.73761300  0.92355000  0.54433500  1
  Cl  Cl58  1  0.51772400  0.87704600  0.21755400  1
  Cl  Cl59  1  0.92355000  0.73761300  0.04433500  1
loop_
_geom_bond_atom_site_label_1
_geom_bond_atom_site_label_2
_geom_bond_distance
_geom_bond_site_symmetry_2
Bi0 Cl42 2.520920 1_555
Bi0 Cl11 2.842526 1_565
Bi0 Cl13 2.849900 1_555
Bi0 Cl35 2.908971 1_555
Bi0 Cl48 2.956651 1_555
Bi0 Cl14 2.979479 1_555
Bi0 Cl39 3.194938 1_555
Bi1 Cl56 2.520920 1_555
Bi1 Cl21 2.842526 1_655
Bi1 Cl34 2.849900 1_555
Bi1 Cl46 2.908971 1_555
Bi1 Cl1 2.956651 1_555
Bi1 Cl23 2.979479 1_555
Bi1 Cl9 3.194938 1_555
Bi2 Cl19 2.520920 1_555
Bi2 Cl17 2.842526 1_545
Bi2 Cl36 2.849900 1_555
Bi2 Cl24 2.908971 1_555
Bi2 Cl43 2.956651 1_555
Bi2 Cl3 2.979479 1_555
Bi2 Cl10 3.194938 1_555
Bi3 Cl50 2.520920 1_555
Bi3 Cl52 2.842526 1_455
Bi3 Cl45 2.849900 1_555
Bi3 Cl37 2.908971 1_555
Bi3 Cl49 2.956651 1_555
Bi3 Cl6 2.979479 1_555
Bi3 Cl44 3.194938 1_555
Cl0 Mo1 2.474342 1_655
Cl0 Mo14 2.475507 1_655
Cl0 Mo19 2.478603 1_655
Cl1 Mo23 2.501629 1_665
Cl2 Mo12 2.478172 1_555
Cl2 Mo17 2.481261 1_555
Cl2 Mo0 2.489882 1_555
Cl3 Mo5 2.490963 1_455
Cl4 Mo4 2.477360 1_455
Cl4 Mo13 2.486259 1_455
Cl4 Mo5 2.490541 1_455
Cl5 Mo4 2.484182 1_545
Cl5 Mo8 2.487101 1_545
Cl5 Mo6 2.489898 1_545
Cl6 Mo17 2.490963 1_545
Cl7 Mo13 2.474984 1_555
Cl7 Mo8 2.476796 1_555
Cl7 Mo16 2.479214 1_555
Cl8 Mo5 2.480836 1_555
Cl8 Mo6 2.491291 1_555
Cl8 Mo16 2.491590 1_555
Cl9 Mo6 2.448743 1_555
Cl10 Mo11 2.448743 1_555
Cl11 Mo20 2.531714 1_555
Cl12 Mo23 2.484182 1_655
Cl12 Mo22 2.487101 1_655
Cl12 Mo11 2.489898 1_655
Cl13 Mo15 2.532805 1_555
Cl14 Mo14 2.490963 1_655
Cl15 Mo9 2.475098 1_555
Cl15 Mo22 2.483053 1_555
Cl15 Mo23 2.490556 1_555
Cl16 Mo15 2.478172 1_555
Cl16 Mo14 2.481261 1_555
Cl16 Mo18 2.489882 1_555
Cl17 Mo8 2.531714 1_555
Cl18 Mo14 2.480836 1_555
Cl18 Mo1 2.491291 1_555
Cl18 Mo15 2.491590 1_555
Cl20 Mo9 2.474984 1_555
Cl20 Mo22 2.476796 1_555
Cl20 Mo2 2.479214 1_555
Cl21 Mo22 2.531714 1_555
Cl22 Mo23 2.477360 1_565
Cl22 Mo9 2.486259 1_565
Cl22 Mo7 2.490541 1_565
Cl23 Mo7 2.490963 1_565
Cl24 Mo18 2.493912 1_555
Cl25 Mo19 2.484182 1_565
Cl25 Mo20 2.487101 1_565
Cl25 Mo1 2.489898 1_565
Cl26 Mo16 2.478172 1_555
Cl26 Mo5 2.481261 1_555
Cl26 Mo13 2.489882 1_555
Cl27 Mo2 2.478172 1_555
Cl27 Mo7 2.481261 1_555
Cl27 Mo9 2.489882 1_555
Cl28 Mo15 2.484557 1_555
Cl28 Mo1 2.487134 1_555
Cl28 Mo20 2.490085 1_555
Cl29 Mo7 2.480836 1_555
Cl29 Mo11 2.491291 1_555
Cl29 Mo2 2.491590 1_555
Cl30 Mo16 2.484557 1_555
Cl30 Mo6 2.487134 1_555
Cl30 Mo8 2.490085 1_555
Cl31 Mo10 2.477360 1_545
Cl31 Mo0 2.486259 1_545
Cl31 Mo17 2.490541 1_545
Cl32 Mo18 2.475098 1_555
Cl32 Mo20 2.483053 1_555
Cl32 Mo19 2.490556 1_555
Cl33 Mo11 2.474342 1_565
Cl33 Mo7 2.475507 1_565
Cl33 Mo23 2.478603 1_565
Cl34 Mo2 2.532805 1_555
Cl35 Mo13 2.493912 1_555
Cl36 Mo16 2.532805 1_555
Cl37 Mo9 2.493912 1_554
Cl38 Mo6 2.474342 1_455
Cl38 Mo5 2.475507 1_455
Cl38 Mo4 2.478603 1_455
Cl39 Mo21 2.448743 1_555
Cl40 Mo18 2.474984 1_555
Cl40 Mo20 2.476796 1_555
Cl40 Mo15 2.479214 1_555
Cl41 Mo12 2.484557 1_555
Cl41 Mo21 2.487134 1_555
Cl41 Mo3 2.490085 1_555
Cl43 Mo4 2.501629 1_445
Cl44 Mo1 2.448743 1_555
Cl45 Mo12 2.532805 1_555
Cl46 Mo0 2.493912 1_556
Cl47 Mo19 2.477360 1_655
Cl47 Mo18 2.486259 1_655
Cl47 Mo14 2.490541 1_655
Cl48 Mo19 2.501629 1_665
Cl49 Mo10 2.501629 1_445
Cl51 Mo10 2.484182 1_455
Cl51 Mo3 2.487101 1_455
Cl51 Mo21 2.489898 1_455
Cl52 Mo3 2.531714 1_555
Cl53 Mo21 2.474342 1_545
Cl53 Mo17 2.475507 1_545
Cl53 Mo10 2.478603 1_545
Cl54 Mo0 2.474984 1_555
Cl54 Mo3 2.476796 1_555
Cl54 Mo12 2.479214 1_555
Cl55 Mo2 2.484557 1_555
Cl55 Mo11 2.487134 1_555
Cl55 Mo22 2.490085 1_555
Cl57 Mo13 2.475098 1_555
Cl57 Mo8 2.483053 1_555
Cl57 Mo4 2.490556 1_555
Cl58 Mo17 2.480836 1_555
Cl58 Mo21 2.491291 1_555
Cl58 Mo12 2.491590 1_555
Cl59 Mo0 2.475098 1_555
Cl59 Mo3 2.483053 1_555
Cl59 Mo10 2.490556 1_555
