# generated using pymatgen
data_SiO2
_symmetry_space_group_name_H-M   'P 1'
_cell_length_a   7.53766176
_cell_length_b   12.96727114
_cell_length_c   13.52520136
_cell_angle_alpha   90.00000000
_cell_angle_beta   90.00000000
_cell_angle_gamma   90.00000000
_symmetry_Int_Tables_number   1
_chemical_formula_structural   SiO2
_chemical_formula_sum   'Si24 O48'
_cell_volume   1321.99245545
_cell_formula_units_Z   24
loop_
 _symmetry_equiv_pos_site_id
 _symmetry_equiv_pos_as_xyz
  1  'x, y, z'
loop_
 _atom_site_type_symbol
 _atom_site_label
 _atom_site_symmetry_multiplicity
 _atom_site_fract_x
 _atom_site_fract_y
 _atom_site_fract_z
 _atom_site_occupancy
  Si  Si0  1  0.04720243  0.63008393  0.66429617  1
  Si  Si1  1  0.54720243  0.86991607  0.83570383  1
  Si  Si2  1  0.95279757  0.13008393  0.33570383  1
  Si  Si3  1  0.45279757  0.36991607  0.16429617  1
  Si  Si4  1  0.95279757  0.36991607  0.33570383  1
  Si  Si5  1  0.45279757  0.13008393  0.16429617  1
  Si  Si6  1  0.04720243  0.86991607  0.66429617  1
  Si  Si7  1  0.54720243  0.63008393  0.83570383  1
  Si  Si8  1  0.65826979  0.55841934  0.62785929  1
  Si  Si9  1  0.15826979  0.94158066  0.87214071  1
  Si  Si10  1  0.34173021  0.05841934  0.37214071  1
  Si  Si11  1  0.84173021  0.44158066  0.12785929  1
  Si  Si12  1  0.34173021  0.44158066  0.37214071  1
  Si  Si13  1  0.84173021  0.05841934  0.12785929  1
  Si  Si14  1  0.65826979  0.94158066  0.62785929  1
  Si  Si15  1  0.15826979  0.55841934  0.87214071  1
  Si  Si16  1  0.33665480  0.63150875  0.50216531  1
  Si  Si17  1  0.83665480  0.86849125  0.99783469  1
  Si  Si18  1  0.66334520  0.13150875  0.49783469  1
  Si  Si19  1  0.16334520  0.36849125  0.00216531  1
  Si  Si20  1  0.66334520  0.36849125  0.49783469  1
  Si  Si21  1  0.16334520  0.13150875  0.00216531  1
  Si  Si22  1  0.33665480  0.86849125  0.50216531  1
  Si  Si23  1  0.83665480  0.63150875  0.99783469  1
  O  O0  1  0.52984742  0.61876905  0.55207674  1
  O  O1  1  0.02984742  0.88123095  0.94792326  1
  O  O2  1  0.47015258  0.11876905  0.44792326  1
  O  O3  1  0.97015258  0.38123095  0.05207674  1
  O  O4  1  0.47015258  0.38123095  0.44792326  1
  O  O5  1  0.97015258  0.11876905  0.05207674  1
  O  O6  1  0.52984742  0.88123095  0.55207674  1
  O  O7  1  0.02984742  0.61876905  0.94792326  1
  O  O8  1  0.07734810  0.56104559  0.76181854  1
  O  O9  1  0.57734810  0.93895441  0.73818146  1
  O  O10  1  0.92265190  0.06104559  0.23818146  1
  O  O11  1  0.42265190  0.43895441  0.26181854  1
  O  O12  1  0.92265190  0.43895441  0.23818146  1
  O  O13  1  0.42265190  0.06104559  0.26181854  1
  O  O14  1  0.07734810  0.93895441  0.76181854  1
  O  O15  1  0.57734810  0.56104559  0.73818146  1
  O  O16  1  0.84834459  0.61471051  0.62447129  1
  O  O17  1  0.34834459  0.88528949  0.87552871  1
  O  O18  1  0.15165541  0.11471051  0.37552871  1
  O  O19  1  0.65165541  0.38528949  0.12447129  1
  O  O20  1  0.15165541  0.38528949  0.37552871  1
  O  O21  1  0.65165541  0.11471051  0.12447129  1
  O  O22  1  0.84834459  0.88528949  0.62447129  1
  O  O23  1  0.34834459  0.61471051  0.87552871  1
  O  O24  1  0.18618970  0.59569841  0.58009400  1
  O  O25  1  0.68618970  0.90430159  0.91990600  1
  O  O26  1  0.81381030  0.09569841  0.41990600  1
  O  O27  1  0.31381030  0.40430159  0.08009400  1
  O  O28  1  0.81381030  0.40430159  0.41990600  1
  O  O29  1  0.31381030  0.09569841  0.08009400  1
  O  O30  1  0.18618970  0.90430159  0.58009400  1
  O  O31  1  0.68618970  0.59569841  0.91990600  1
  O  O32  1  0.32288481  0.56085995  0.40457475  1
  O  O33  1  0.82288481  0.93914005  0.09542525  1
  O  O34  1  0.67711519  0.06085995  0.59542525  1
  O  O35  1  0.17711519  0.43914005  0.90457475  1
  O  O36  1  0.67711519  0.43914005  0.59542525  1
  O  O37  1  0.17711519  0.06085995  0.90457475  1
  O  O38  1  0.32288481  0.93914005  0.40457475  1
  O  O39  1  0.82288481  0.56085995  0.09542525  1
  O  O40  1  0.07919574  0.75000000  0.69226113  1
  O  O41  1  0.57919574  0.75000000  0.80773887  1
  O  O42  1  0.92080426  0.25000000  0.30773887  1
  O  O43  1  0.42080426  0.25000000  0.19226113  1
  O  O44  1  0.30693596  0.75000000  0.47092463  1
  O  O45  1  0.80693596  0.75000000  0.02907537  1
  O  O46  1  0.69306404  0.25000000  0.52907537  1
  O  O47  1  0.19306404  0.25000000  0.97092463  1
loop_
_geom_bond_atom_site_label_1
_geom_bond_atom_site_label_2
_geom_bond_distance
_geom_bond_site_symmetry_2
O0 Si8 1.612458 1_555
O0 Si16 1.613561 1_555
O1 Si9 1.612458 1_555
O1 Si17 1.613561 1_455
O2 Si10 1.612458 1_555
O2 Si18 1.613561 1_555
O3 Si11 1.612458 1_555
O3 Si19 1.613561 1_655
O4 Si12 1.612458 1_555
O4 Si20 1.613561 1_555
O5 Si13 1.612458 1_555
O5 Si21 1.613561 1_655
O6 Si14 1.612458 1_555
O6 Si22 1.613561 1_555
O7 Si15 1.612458 1_555
O7 Si23 1.613561 1_455
O8 Si0 1.610240 1_555
O8 Si15 1.612347 1_555
O9 Si1 1.610240 1_555
O9 Si14 1.612347 1_555
O10 Si2 1.610240 1_555
O10 Si13 1.612347 1_555
O11 Si3 1.610240 1_555
O11 Si12 1.612347 1_555
O12 Si4 1.610240 1_555
O12 Si11 1.612347 1_555
O13 Si5 1.610240 1_555
O13 Si10 1.612347 1_555
O14 Si6 1.610240 1_555
O14 Si9 1.612347 1_555
O15 Si7 1.610240 1_555
O15 Si8 1.612347 1_555
O16 Si0 1.605193 1_655
O16 Si8 1.608602 1_555
O17 Si1 1.605193 1_555
O17 Si9 1.608602 1_555
O18 Si2 1.605193 1_455
O18 Si10 1.608602 1_555
O19 Si3 1.605193 1_555
O19 Si11 1.608602 1_555
O20 Si4 1.605193 1_455
O20 Si12 1.608602 1_555
O21 Si5 1.605193 1_555
O21 Si13 1.608602 1_555
O22 Si6 1.605193 1_655
O22 Si14 1.608602 1_555
O23 Si7 1.605193 1_555
O23 Si15 1.608602 1_555
O24 Si0 1.610386 1_555
O24 Si16 1.616434 1_555
O25 Si1 1.610386 1_555
O25 Si17 1.616434 1_555
O26 Si2 1.610386 1_555
O26 Si18 1.616434 1_555
O27 Si3 1.610386 1_555
O27 Si19 1.616434 1_555
O28 Si4 1.610386 1_555
O28 Si20 1.616434 1_555
O29 Si5 1.610386 1_555
O29 Si21 1.616434 1_555
O30 Si6 1.610386 1_555
O30 Si22 1.616434 1_555
O31 Si7 1.610386 1_555
O31 Si23 1.616434 1_555
O32 Si16 1.610054 1_555
O32 Si12 1.613995 1_555
O33 Si17 1.610054 1_554
O33 Si13 1.613995 1_565
O34 Si18 1.610054 1_555
O34 Si14 1.613995 1_545
O35 Si19 1.610054 1_556
O35 Si15 1.613995 1_555
O36 Si20 1.610054 1_555
O36 Si8 1.613995 1_555
O37 Si21 1.610054 1_556
O37 Si9 1.613995 1_545
O38 Si22 1.610054 1_555
O38 Si10 1.613995 1_565
O39 Si23 1.610054 1_554
O39 Si11 1.613995 1_555
O40 Si6 1.618391 1_555
O40 Si0 1.618391 1_555
O41 Si7 1.618391 1_555
O41 Si1 1.618391 1_555
O42 Si4 1.618391 1_555
O42 Si2 1.618391 1_555
O43 Si3 1.618391 1_555
O43 Si5 1.618391 1_555
O44 Si22 1.609216 1_555
O44 Si16 1.609216 1_555
O45 Si23 1.609216 1_554
O45 Si17 1.609216 1_554
O46 Si20 1.609216 1_555
O46 Si18 1.609216 1_555
O47 Si19 1.609216 1_556
O47 Si21 1.609216 1_556
