# generated using pymatgen
data_Cs4Re6S13
_symmetry_space_group_name_H-M   'P 1'
_cell_length_a   10.00711253
_cell_length_b   10.00711253
_cell_length_c   13.79824178
_cell_angle_alpha   84.74228369
_cell_angle_beta   84.74228369
_cell_angle_gamma   119.35139039
_symmetry_Int_Tables_number   1
_chemical_formula_structural   Cs4Re6S13
_chemical_formula_sum   'Cs8 Re12 S26'
_cell_volume   1184.40459880
_cell_formula_units_Z   2
loop_
 _symmetry_equiv_pos_site_id
 _symmetry_equiv_pos_as_xyz
  1  'x, y, z'
loop_
 _atom_site_type_symbol
 _atom_site_label
 _atom_site_symmetry_multiplicity
 _atom_site_fract_x
 _atom_site_fract_y
 _atom_site_fract_z
 _atom_site_occupancy
  Cs  Cs0  1  0.09196200  0.34076633  0.58667950  1
  Cs  Cs1  1  0.90803800  0.65923367  0.41332050  1
  Cs  Cs2  1  0.65923367  0.90803800  0.91332050  1
  Cs  Cs3  1  0.34076633  0.09196200  0.08667950  1
  Cs  Cs4  1  0.72421134  0.68330605  0.71491055  1
  Cs  Cs5  1  0.68330605  0.72421134  0.21491055  1
  Cs  Cs6  1  0.31669395  0.27578866  0.78508945  1
  Cs  Cs7  1  0.27578866  0.31669395  0.28508945  1
  Re  Re0  1  0.99570541  0.31108056  0.02163904  1
  Re  Re1  1  0.68891944  0.00429459  0.47836096  1
  Re  Re2  1  0.15334061  0.56482750  0.89081133  1
  Re  Re3  1  0.41723673  0.84934770  0.42086828  1
  Re  Re4  1  0.56482750  0.15334061  0.39081133  1
  Re  Re5  1  0.43517250  0.84665939  0.60918867  1
  Re  Re6  1  0.84665939  0.43517250  0.10918867  1
  Re  Re7  1  0.15065230  0.58276327  0.07913172  1
  Re  Re8  1  0.84934770  0.41723673  0.92086828  1
  Re  Re9  1  0.31108056  0.99570541  0.52163904  1
  Re  Re10  1  0.58276327  0.15065230  0.57913172  1
  Re  Re11  1  0.00429459  0.68891944  0.97836096  1
  S  S0  1  0.72130252  0.35794732  0.67428802  1
  S  S1  1  0.64121889  0.35878111  0.25000000  1
  S  S2  1  0.95292629  0.02358879  0.43862002  1
  S  S3  1  0.27756720  0.46208125  0.99457246  1
  S  S4  1  0.00545655  0.69137336  0.15268320  1
  S  S5  1  0.53791875  0.72243280  0.50542754  1
  S  S6  1  0.35794732  0.72130252  0.17428802  1
  S  S7  1  0.99454345  0.30862664  0.84731680  1
  S  S8  1  0.69137336  0.00545655  0.65268320  1
  S  S9  1  0.46208125  0.27756720  0.49457246  1
  S  S10  1  0.02358879  0.95292629  0.93862002  1
  S  S11  1  0.80764281  0.28230918  0.45068112  1
  S  S12  1  0.19235719  0.71769082  0.54931888  1
  S  S13  1  0.27869748  0.64205268  0.32571198  1
  S  S14  1  0.30862664  0.99454345  0.34731680  1
  S  S15  1  0.04707371  0.97641121  0.56137998  1
  S  S16  1  0.64205268  0.27869748  0.82571198  1
  S  S17  1  0.99174633  0.34365680  0.19295025  1
  S  S18  1  0.34365680  0.99174633  0.69295025  1
  S  S19  1  0.72243280  0.53791875  0.00542754  1
  S  S20  1  0.35878111  0.64121889  0.75000000  1
  S  S21  1  0.00825367  0.65634320  0.80704975  1
  S  S22  1  0.65634320  0.00825367  0.30704975  1
  S  S23  1  0.71769082  0.19235719  0.04931888  1
  S  S24  1  0.97641121  0.04707371  0.06137998  1
  S  S25  1  0.28230918  0.80764281  0.95068112  1
loop_
_geom_bond_atom_site_label_1
_geom_bond_atom_site_label_2
_geom_bond_distance
_geom_bond_site_symmetry_2
Cs0 S12 3.366937 1_555
Cs0 S11 3.392179 1_455
Cs0 S15 3.503481 1_545
Cs0 S7 3.581279 1_455
Cs0 S2 3.682941 1_455
Cs0 S8 3.707135 1_455
Cs1 S11 3.366937 1_555
Cs1 S12 3.392179 1_655
Cs1 S2 3.503481 1_565
Cs1 S4 3.581279 1_655
Cs1 S15 3.682941 1_655
Cs1 S14 3.707135 1_655
Cs2 S25 3.366937 1_555
Cs2 S23 3.392179 1_566
Cs2 S10 3.503481 1_655
Cs2 S8 3.581279 1_565
Cs2 S24 3.682941 1_566
Cs2 S7 3.707135 1_565
Cs3 S23 3.366937 1_555
Cs3 S25 3.392179 1_544
Cs3 S24 3.503481 1_455
Cs3 S14 3.581279 1_545
Cs3 S10 3.682941 1_544
Cs3 S4 3.707135 1_545
Cs4 S21 3.334657 1_655
Cs4 S0 3.340729 1_555
Cs4 S8 3.438174 1_565
Cs4 S15 3.441868 1_655
Cs4 S20 3.451519 1_555
Cs4 S5 3.671438 1_555
Cs5 S22 3.334657 1_565
Cs5 S6 3.340729 1_555
Cs5 S4 3.438174 1_655
Cs5 S24 3.441868 1_565
Cs5 S1 3.451519 1_555
Cs5 S19 3.671438 1_555
Cs6 S18 3.334657 1_545
Cs6 S16 3.340729 1_555
Cs6 S7 3.438174 1_455
Cs6 S10 3.441868 1_545
Cs6 S20 3.451519 1_555
Cs6 S3 3.671438 1_555
Cs7 S17 3.334657 1_455
Cs7 S13 3.340729 1_555
Cs7 S14 3.438174 1_545
Cs7 S2 3.441868 1_455
Cs7 S1 3.451519 1_555
Cs7 S9 3.671438 1_555
Re0 S23 2.404028 1_555
Re0 S7 2.408749 1_554
Re0 S17 2.414971 1_555
Re0 S3 2.429799 1_654
Re0 S24 2.555948 1_555
Re1 S11 2.404028 1_555
Re1 S8 2.408749 1_555
Re1 S22 2.414971 1_555
Re1 S5 2.429799 1_545
Re1 S2 2.555948 1_555
Re2 S21 2.387377 1_555
Re2 S25 2.396116 1_555
Re2 S7 2.433390 1_455
Re2 S3 2.441697 1_555
Re2 S20 2.457853 1_555
Re3 S14 2.408840 1_555
Re3 S22 2.417433 1_565
Re3 S12 2.424032 1_555
Re3 S5 2.433757 1_555
Re3 S13 2.441853 1_555
Re4 S22 2.387377 1_555
Re4 S11 2.396116 1_555
Re4 S14 2.433390 1_545
Re4 S9 2.441697 1_555
Re4 S1 2.457853 1_555
Re5 S18 2.387377 1_555
Re5 S12 2.396116 1_555
Re5 S8 2.433390 1_565
Re5 S5 2.441697 1_555
Re5 S20 2.457853 1_555
Re6 S17 2.387377 1_555
Re6 S23 2.396116 1_555
Re6 S4 2.433390 1_655
Re6 S19 2.441697 1_555
Re6 S1 2.457853 1_555
Re7 S4 2.408840 1_555
Re7 S17 2.417433 1_455
Re7 S25 2.424032 1_554
Re7 S3 2.433757 1_554
Re7 S6 2.441853 1_555
Re8 S7 2.408840 1_555
Re8 S21 2.417433 1_655
Re8 S23 2.424032 1_556
Re8 S19 2.433757 1_556
Re8 S16 2.441853 1_555
Re9 S12 2.404028 1_555
Re9 S14 2.408749 1_555
Re9 S18 2.414971 1_555
Re9 S9 2.429799 1_565
Re9 S15 2.555948 1_555
Re10 S8 2.408840 1_555
Re10 S18 2.417433 1_545
Re10 S11 2.424032 1_555
Re10 S9 2.433757 1_555
Re10 S0 2.441853 1_555
Re11 S25 2.404028 1_555
Re11 S4 2.408749 1_556
Re11 S21 2.414971 1_555
Re11 S19 2.429799 1_456
Re11 S10 2.555948 1_555
S0 S16 2.097494 1_555
S10 S24 2.135811 1_466
S13 S6 2.097494 1_555
S15 S2 2.135811 1_465
