# generated using pymatgen
data_PuIO
_symmetry_space_group_name_H-M   'P 1'
_cell_length_a   4.01087500
_cell_length_b   4.01087500
_cell_length_c   9.46777800
_cell_angle_alpha   90.00000000
_cell_angle_beta   90.00000000
_cell_angle_gamma   90.00000000
_symmetry_Int_Tables_number   1
_chemical_formula_structural   PuIO
_chemical_formula_sum   'Pu2 I2 O2'
_cell_volume   152.30926440
_cell_formula_units_Z   2
loop_
 _symmetry_equiv_pos_site_id
 _symmetry_equiv_pos_as_xyz
  1  'x, y, z'
loop_
 _atom_site_type_symbol
 _atom_site_label
 _atom_site_symmetry_multiplicity
 _atom_site_fract_x
 _atom_site_fract_y
 _atom_site_fract_z
 _atom_site_occupancy
  Pu  Pu0  1  0.00000000  0.50000000  0.87747800  1
  Pu  Pu1  1  0.50000000  0.00000000  0.12252200  1
  I  I0  1  0.00000000  0.50000000  0.32301500  1
  I  I1  1  0.50000000  0.00000000  0.67698500  1
  O  O0  1  0.50000000  0.50000000  0.00000000  1
  O  O1  1  0.00000000  0.00000000  0.00000000  1
loop_
_geom_bond_atom_site_label_1
_geom_bond_atom_site_label_2
_geom_bond_distance
_geom_bond_site_symmetry_2
I0 Pu1 3.412742 1_455
I0 Pu1 3.412742 1_555
I0 Pu1 3.412742 1_465
I0 Pu1 3.412742 1_565
I1 Pu0 3.412742 1_655
I1 Pu0 3.412742 1_545
I1 Pu0 3.412742 1_645
I1 Pu0 3.412742 1_555
O0 Pu0 2.316766 1_654
O0 Pu0 2.316766 1_554
O0 Pu1 2.316766 1_555
O0 Pu1 2.316766 1_565
O1 Pu1 2.316766 1_455
O1 Pu0 2.316766 1_544
O1 Pu0 2.316766 1_554
O1 Pu1 2.316766 1_555
