# generated using pymatgen
data_Yb2S3
_symmetry_space_group_name_H-M   'P 1'
_cell_length_a   11.11673336
_cell_length_b   11.11673336
_cell_length_c   11.11673336
_cell_angle_alpha   109.47122063
_cell_angle_beta   109.47122063
_cell_angle_gamma   109.47122063
_symmetry_Int_Tables_number   1
_chemical_formula_structural   Yb2S3
_chemical_formula_sum   'Yb16 S24'
_cell_volume   1057.57134919
_cell_formula_units_Z   8
loop_
 _symmetry_equiv_pos_site_id
 _symmetry_equiv_pos_as_xyz
  1  'x, y, z'
loop_
 _atom_site_type_symbol
 _atom_site_label
 _atom_site_symmetry_multiplicity
 _atom_site_fract_x
 _atom_site_fract_y
 _atom_site_fract_z
 _atom_site_occupancy
  Yb  Yb0  1  0.50000000  0.00000000  0.50000000  1
  Yb  Yb1  1  0.50000000  0.50000000  0.00000000  1
  Yb  Yb2  1  0.00000000  0.50000000  0.50000000  1
  Yb  Yb3  1  0.00000000  0.00000000  0.00000000  1
  Yb  Yb4  1  0.25000000  0.54798800  0.29798800  1
  Yb  Yb5  1  0.75000000  0.95201200  0.20201200  1
  Yb  Yb6  1  0.54798800  0.29798800  0.25000000  1
  Yb  Yb7  1  0.95201200  0.20201200  0.75000000  1
  Yb  Yb8  1  0.29798800  0.25000000  0.54798800  1
  Yb  Yb9  1  0.20201200  0.75000000  0.95201200  1
  Yb  Yb10  1  0.75000000  0.45201200  0.70201200  1
  Yb  Yb11  1  0.25000000  0.04798800  0.79798800  1
  Yb  Yb12  1  0.45201200  0.70201200  0.75000000  1
  Yb  Yb13  1  0.04798800  0.79798800  0.25000000  1
  Yb  Yb14  1  0.70201200  0.75000000  0.45201200  1
  Yb  Yb15  1  0.79798800  0.25000000  0.04798800  1
  S  S0  1  0.28004500  0.76302100  0.21836300  1
  S  S1  1  0.45534200  0.73697900  0.01702400  1
  S  S2  1  0.21995500  0.43831700  0.48297600  1
  S  S3  1  0.04465800  0.06168300  0.28163700  1
  S  S4  1  0.76302100  0.21836300  0.28004500  1
  S  S5  1  0.73697900  0.01702400  0.45534200  1
  S  S6  1  0.43831700  0.48297600  0.21995500  1
  S  S7  1  0.06168300  0.28163700  0.04465800  1
  S  S8  1  0.21836300  0.28004500  0.76302100  1
  S  S9  1  0.01702400  0.45534200  0.73697900  1
  S  S10  1  0.48297600  0.21995500  0.43831700  1
  S  S11  1  0.28163700  0.04465800  0.06168300  1
  S  S12  1  0.71995500  0.23697900  0.78163700  1
  S  S13  1  0.54465800  0.26302100  0.98297600  1
  S  S14  1  0.78004500  0.56168300  0.51702400  1
  S  S15  1  0.95534200  0.93831700  0.71836300  1
  S  S16  1  0.23697900  0.78163700  0.71995500  1
  S  S17  1  0.26302100  0.98297600  0.54465800  1
  S  S18  1  0.56168300  0.51702400  0.78004500  1
  S  S19  1  0.93831700  0.71836300  0.95534200  1
  S  S20  1  0.78163700  0.71995500  0.23697900  1
  S  S21  1  0.98297600  0.54465800  0.26302100  1
  S  S22  1  0.51702400  0.78004500  0.56168300  1
  S  S23  1  0.71836300  0.95534200  0.93831700  1
loop_
_geom_bond_atom_site_label_1
_geom_bond_atom_site_label_2
_geom_bond_distance
_geom_bond_site_symmetry_2
S0 Yb9 2.731098 1_554
S0 Yb4 2.772159 1_555
S0 Yb0 2.797263 1_565
S0 Yb13 2.848152 1_555
S1 Yb9 2.731098 1_554
S1 Yb5 2.772159 1_555
S1 Yb1 2.797263 1_555
S1 Yb12 2.848152 1_554
S2 Yb8 2.731087 1_555
S2 Yb4 2.772167 1_555
S2 Yb2 2.797269 1_555
S2 Yb12 2.848156 1_555
S3 Yb8 2.731097 1_555
S3 Yb5 2.772159 1_445
S3 Yb3 2.797261 1_555
S3 Yb13 2.848163 1_545
S4 Yb5 2.731098 1_545
S4 Yb6 2.772159 1_555
S4 Yb2 2.797263 1_655
S4 Yb15 2.848152 1_555
S5 Yb5 2.731098 1_545
S5 Yb7 2.772159 1_555
S5 Yb0 2.797263 1_555
S5 Yb14 2.848152 1_545
S6 Yb4 2.731087 1_555
S6 Yb6 2.772167 1_555
S6 Yb1 2.797269 1_555
S6 Yb14 2.848156 1_555
S7 Yb4 2.731097 1_555
S7 Yb7 2.772159 1_454
S7 Yb3 2.797261 1_555
S7 Yb15 2.848163 1_455
S8 Yb7 2.731098 1_455
S8 Yb8 2.772159 1_555
S8 Yb1 2.797263 1_556
S8 Yb11 2.848152 1_555
S9 Yb7 2.731098 1_455
S9 Yb9 2.772159 1_555
S9 Yb2 2.797263 1_555
S9 Yb10 2.848152 1_455
S10 Yb6 2.731087 1_555
S10 Yb8 2.772167 1_555
S10 Yb0 2.797269 1_555
S10 Yb10 2.848156 1_555
S11 Yb6 2.731097 1_555
S11 Yb9 2.772159 1_544
S11 Yb3 2.797261 1_555
S11 Yb11 2.848163 1_554
S12 Yb15 2.731098 1_556
S12 Yb10 2.772159 1_555
S12 Yb0 2.797263 1_555
S12 Yb7 2.848152 1_555
S13 Yb15 2.731098 1_556
S13 Yb11 2.772159 1_555
S13 Yb1 2.797263 1_556
S13 Yb6 2.848152 1_556
S14 Yb14 2.731087 1_555
S14 Yb10 2.772167 1_555
S14 Yb2 2.797269 1_655
S14 Yb6 2.848156 1_555
S15 Yb14 2.731097 1_555
S15 Yb11 2.772159 1_665
S15 Yb3 2.797261 1_666
S15 Yb7 2.848163 1_565
S16 Yb11 2.731098 1_565
S16 Yb12 2.772159 1_555
S16 Yb2 2.797263 1_555
S16 Yb9 2.848152 1_555
S17 Yb11 2.731098 1_565
S17 Yb13 2.772159 1_555
S17 Yb0 2.797263 1_565
S17 Yb8 2.848152 1_565
S18 Yb10 2.731087 1_555
S18 Yb12 2.772167 1_555
S18 Yb1 2.797269 1_556
S18 Yb8 2.848156 1_555
S19 Yb10 2.731097 1_555
S19 Yb13 2.772159 1_656
S19 Yb3 2.797261 1_666
S19 Yb9 2.848163 1_655
S20 Yb13 2.731098 1_655
S20 Yb14 2.772159 1_555
S20 Yb1 2.797263 1_555
S20 Yb5 2.848152 1_555
S21 Yb13 2.731098 1_655
S21 Yb15 2.772159 1_555
S21 Yb2 2.797263 1_655
S21 Yb4 2.848152 1_655
S22 Yb12 2.731087 1_555
S22 Yb14 2.772167 1_555
S22 Yb0 2.797269 1_565
S22 Yb4 2.848156 1_555
S23 Yb12 2.731097 1_555
S23 Yb15 2.772159 1_566
S23 Yb3 2.797261 1_666
S23 Yb5 2.848163 1_556
