# generated using pymatgen
data_Ag13(PbO3)6
_symmetry_space_group_name_H-M   'P 1'
_cell_length_a   6.00226800
_cell_length_b   10.39779975
_cell_length_c   19.46632734
_cell_angle_alpha   90.26591436
_cell_angle_beta   90.04204250
_cell_angle_gamma   90.37922129
_symmetry_Int_Tables_number   1
_chemical_formula_structural   Ag13(PbO3)6
_chemical_formula_sum   'Ag26 Pb12 O36'
_cell_volume   1214.86085036
_cell_formula_units_Z   2
loop_
 _symmetry_equiv_pos_site_id
 _symmetry_equiv_pos_as_xyz
  1  'x, y, z'
loop_
 _atom_site_type_symbol
 _atom_site_label
 _atom_site_symmetry_multiplicity
 _atom_site_fract_x
 _atom_site_fract_y
 _atom_site_fract_z
 _atom_site_occupancy
  Ag  Ag0  1  0.00134000  0.99841000  0.41118000  1
  Ag  Ag1  1  0.99435100  0.00607600  0.74438000  1
  Ag  Ag2  1  0.25070300  0.74931800  0.00026100  1
  Ag  Ag3  1  0.48603500  0.49979100  0.25497200  1
  Ag  Ag4  1  0.49370700  0.50589300  0.74424300  1
  Ag  Ag5  1  0.75209600  0.75020900  0.00074100  1
  Ag  Ag6  1  0.74912800  0.74734800  0.33471100  1
  Ag  Ag7  1  0.75083400  0.75049300  0.66638100  1
  Ag  Ag8  1  0.00006500  0.49969000  0.99906500  1
  Ag  Ag9  1  0.99999000  0.49995500  0.66673100  1
  Ag  Ag10  1  0.00247200  0.99985900  0.25532300  1
  Ag  Ag11  1  0.00750100  0.99397700  0.58782800  1
  Ag  Ag12  1  0.99759500  0.00162900  0.91990100  1
  Ag  Ag13  1  0.24970600  0.74670900  0.33261400  1
  Ag  Ag14  1  0.25123500  0.25054800  0.99944700  1
  Ag  Ag15  1  0.24875500  0.25017000  0.66594400  1
  Ag  Ag16  1  0.24960400  0.25307000  0.33353200  1
  Ag  Ag17  1  0.49818900  0.50014100  0.07778800  1
  Ag  Ag18  1  0.50842100  0.49373900  0.58806000  1
  Ag  Ag19  1  0.51409100  0.49844700  0.41269500  1
  Ag  Ag20  1  0.49937300  0.50153300  0.92204200  1
  Ag  Ag21  1  0.49668900  0.99962600  0.00010700  1
  Ag  Ag22  1  0.49924800  0.00033400  0.33439400  1
  Ag  Ag23  1  0.49951600  0.00017100  0.66651900  1
  Ag  Ag24  1  0.75000500  0.25303900  0.33386800  1
  Ag  Ag25  1  0.75163700  0.24957400  0.00151200  1
  Pb  Pb0  1  0.49259800  0.83232500  0.50221600  1
  Pb  Pb1  1  0.50468900  0.83483900  0.16499000  1
  Pb  Pb2  1  0.49792300  0.83039400  0.83138700  1
  Pb  Pb3  1  0.99877600  0.66469600  0.16788100  1
  Pb  Pb4  1  0.00522300  0.66661300  0.83103900  1
  Pb  Pb5  1  0.00022600  0.66589800  0.50030600  1
  Pb  Pb6  1  0.00009900  0.33535100  0.16796700  1
  Pb  Pb7  1  0.99283200  0.33780000  0.50041800  1
  Pb  Pb8  1  0.99780700  0.33002800  0.83092200  1
  Pb  Pb9  1  0.50286700  0.16504400  0.16497700  1
  Pb  Pb10  1  0.50064800  0.17101600  0.50242000  1
  Pb  Pb11  1  0.50524900  0.16631800  0.83133000  1
  O  O0  1  0.31114200  0.68757300  0.10309500  1
  O  O1  1  0.31272000  0.68685500  0.77107400  1
  O  O2  1  0.31331800  0.68510200  0.43483600  1
  O  O3  1  0.62583000  0.00142100  0.56421500  1
  O  O4  1  0.62556000  0.00069400  0.23112700  1
  O  O5  1  0.61986700  0.99786700  0.89659400  1
  O  O6  1  0.68502600  0.68735000  0.23157100  1
  O  O7  1  0.68421100  0.68803000  0.56414600  1
  O  O8  1  0.69455500  0.68929700  0.89635900  1
  O  O9  1  0.81271700  0.80502100  0.10430000  1
  O  O10  1  0.80528400  0.81227800  0.43767300  1
  O  O11  1  0.81492400  0.81259700  0.76917000  1
  O  O12  1  0.81217100  0.19395800  0.10443600  1
  O  O13  1  0.81154300  0.18711700  0.43559500  1
  O  O14  1  0.81175000  0.18662300  0.77085900  1
  O  O15  1  0.87367500  0.49930100  0.10179800  1
  O  O16  1  0.87782300  0.50300000  0.43866100  1
  O  O17  1  0.87233800  0.49826500  0.76907800  1
  O  O18  1  0.12286500  0.50078100  0.22796400  1
  O  O19  1  0.13014600  0.50159800  0.56531700  1
  O  O20  1  0.12205600  0.49777600  0.89541500  1
  O  O21  1  0.19237500  0.81254600  0.23007300  1
  O  O22  1  0.18267500  0.81102000  0.56098400  1
  O  O23  1  0.18733700  0.81322000  0.89786400  1
  O  O24  1  0.19210600  0.18844900  0.23014300  1
  O  O25  1  0.18120000  0.18914300  0.56306300  1
  O  O26  1  0.19314000  0.18813300  0.89576900  1
  O  O27  1  0.31135500  0.31140600  0.10305100  1
  O  O28  1  0.30717100  0.31390900  0.43702500  1
  O  O29  1  0.31521600  0.31205400  0.76896600  1
  O  O30  1  0.38295000  0.99919000  0.10304500  1
  O  O31  1  0.37750400  0.00254700  0.43821000  1
  O  O32  1  0.37357300  0.99810400  0.76904900  1
  O  O33  1  0.68502600  0.31368600  0.23151300  1
  O  O34  1  0.68863400  0.31206900  0.56282700  1
  O  O35  1  0.68899200  0.31195200  0.89840800  1
loop_
_geom_bond_atom_site_label_1
_geom_bond_atom_site_label_2
_geom_bond_distance
_geom_bond_site_symmetry_2
Ag0 O31 2.318038 1_565
Ag0 O10 2.318711 1_455
Ag0 O13 2.322800 1_465
Ag1 O14 2.238360 1_555
Ag1 O32 2.328044 1_645
Ag1 O11 2.328302 1_545
Ag2 O0 2.136570 1_555
Ag2 O23 2.138664 1_554
Ag3 O18 2.242075 1_555
Ag3 O33 2.324405 1_555
Ag3 O6 2.327142 1_555
Ag4 O1 2.238778 1_555
Ag4 O17 2.325092 1_555
Ag4 O29 2.328696 1_555
Ag5 O9 2.122883 1_555
Ag5 O8 2.152511 1_554
Ag6 O6 2.133629 1_555
Ag6 O10 2.137764 1_555
Ag7 O7 2.127390 1_555
Ag7 O11 2.133602 1_555
Ag8 O15 2.139422 1_456
Ag8 O20 2.146995 1_555
Ag9 O19 2.123750 1_655
Ag9 O17 2.135205 1_555
Ag10 O4 2.310580 1_465
Ag10 O21 2.314193 1_555
Ag10 O24 2.315436 1_565
Ag11 O22 2.239550 1_555
Ag11 O25 2.327929 1_565
Ag11 O3 2.338075 1_465
Ag12 O26 2.310418 1_655
Ag12 O23 2.311138 1_645
Ag12 O5 2.311890 1_545
Ag13 O2 2.128316 1_555
Ag13 O21 2.141549 1_555
Ag14 O27 2.140594 1_556
Ag14 O26 2.144722 1_555
Ag15 O25 2.135776 1_555
Ag15 O29 2.139741 1_555
Ag16 O28 2.136012 1_555
Ag16 O24 2.145813 1_555
Ag17 O15 2.301466 1_555
Ag17 O0 2.306980 1_555
Ag17 O27 2.308941 1_555
Ag18 O34 2.235785 1_555
Ag18 O19 2.314995 1_555
Ag18 O7 2.322167 1_555
Ag19 O16 2.240750 1_555
Ag19 O28 2.329454 1_555
Ag19 O2 2.329953 1_555
Ag20 O20 2.322980 1_555
Ag20 O8 2.326734 1_555
Ag20 O35 2.326975 1_555
Ag21 O30 2.117417 1_555
Ag21 O5 2.146926 1_554
Ag22 O4 2.148979 1_555
Ag22 O31 2.149551 1_555
Ag23 O3 2.131507 1_555
Ag23 O32 2.134914 1_545
Ag24 O33 2.129203 1_555
Ag24 O13 2.131323 1_555
Ag25 O12 2.119698 1_555
Ag25 O35 2.145819 1_554
O0 Pb1 2.259044 1_555
O0 Pb3 2.272155 1_455
O1 Pb2 2.191248 1_555
O1 Pb4 2.194018 1_555
O2 Pb0 2.275782 1_555
O2 Pb5 2.279618 1_555
O3 Pb0 2.268862 1_545
O3 Pb10 2.270929 1_555
O4 Pb1 2.262591 1_545
O4 Pb9 2.270784 1_555
O5 Pb2 2.267270 1_555
O5 Pb11 2.278264 1_565
O6 Pb3 2.268411 1_555
O6 Pb1 2.289470 1_555
O7 Pb0 2.250501 1_555
O7 Pb5 2.280744 1_655
O8 Pb4 2.270709 1_655
O8 Pb2 2.276604 1_555
O9 Pb1 2.217557 1_555
O9 Pb3 2.223568 1_555
O10 Pb0 2.269517 1_555
O10 Pb5 2.282747 1_655
O11 Pb4 2.257682 1_655
O11 Pb2 2.264381 1_555
O12 Pb6 2.218643 1_655
O12 Pb9 2.219250 1_555
O13 Pb7 2.277763 1_555
O13 Pb10 2.281204 1_555
O14 Pb8 2.190304 1_555
O14 Pb11 2.194333 1_555
O15 Pb3 2.266521 1_555
O15 Pb6 2.275320 1_655
O16 Pb5 2.193637 1_655
O16 Pb7 2.214943 1_555
O17 Pb8 2.261009 1_555
O17 Pb4 2.261762 1_655
O18 Pb6 2.197523 1_555
O18 Pb3 2.204894 1_455
O19 Pb7 2.266261 1_455
O19 Pb5 2.272533 1_555
O20 Pb8 2.266201 1_455
O20 Pb4 2.275855 1_555
O21 Pb3 2.266350 1_455
O21 Pb1 2.274509 1_555
O22 Pb0 2.195067 1_555
O22 Pb5 2.197966 1_555
O23 Pb4 2.273379 1_555
O23 Pb2 2.276639 1_555
O24 Pb9 2.270303 1_555
O24 Pb6 2.272590 1_555
O25 Pb10 2.260887 1_555
O25 Pb7 2.278871 1_455
O26 Pb11 2.267347 1_555
O26 Pb8 2.276600 1_455
O27 Pb9 2.264660 1_555
O27 Pb6 2.270660 1_555
O28 Pb7 2.269609 1_455
O28 Pb10 2.283615 1_555
O29 Pb11 2.260306 1_555
O29 Pb8 2.263886 1_455
O30 Pb9 2.215508 1_565
O30 Pb1 2.223208 1_555
O31 Pb10 2.266787 1_555
O31 Pb0 2.279851 1_545
O32 Pb2 2.259664 1_555
O32 Pb11 2.261490 1_565
O33 Pb6 2.271073 1_655
O33 Pb9 2.284452 1_555
O34 Pb10 2.183364 1_555
O34 Pb7 2.209329 1_555
O35 Pb11 2.274159 1_555
O35 Pb8 2.279955 1_555
