# generated using pymatgen
data_CeZnRh
_symmetry_space_group_name_H-M   'P 1'
_cell_length_a   3.93513500
_cell_length_b   7.37481500
_cell_length_c   16.23207400
_cell_angle_alpha   90.00000000
_cell_angle_beta   90.00000000
_cell_angle_gamma   90.00000000
_symmetry_Int_Tables_number   1
_chemical_formula_structural   CeZnRh
_chemical_formula_sum   'Ce8 Zn8 Rh8'
_cell_volume   471.06927664
_cell_formula_units_Z   8
loop_
 _symmetry_equiv_pos_site_id
 _symmetry_equiv_pos_as_xyz
  1  'x, y, z'
loop_
 _atom_site_type_symbol
 _atom_site_label
 _atom_site_symmetry_multiplicity
 _atom_site_fract_x
 _atom_site_fract_y
 _atom_site_fract_z
 _atom_site_occupancy
  Ce  Ce0  1  0.25000000  0.67284300  0.55907500  1
  Ce  Ce1  1  0.75000000  0.82715700  0.05907500  1
  Ce  Ce2  1  0.25000000  0.05299200  0.71635200  1
  Ce  Ce3  1  0.25000000  0.17284300  0.94092500  1
  Ce  Ce4  1  0.75000000  0.94700800  0.28364800  1
  Ce  Ce5  1  0.25000000  0.55299200  0.78364800  1
  Ce  Ce6  1  0.75000000  0.44700800  0.21635200  1
  Ce  Ce7  1  0.75000000  0.32715700  0.44092500  1
  Zn  Zn0  1  0.25000000  0.11839000  0.15193100  1
  Zn  Zn1  1  0.75000000  0.50238600  0.93976200  1
  Zn  Zn2  1  0.75000000  0.00238600  0.56023800  1
  Zn  Zn3  1  0.75000000  0.38161000  0.65193100  1
  Zn  Zn4  1  0.75000000  0.88161000  0.84806900  1
  Zn  Zn5  1  0.25000000  0.49761400  0.06023800  1
  Zn  Zn6  1  0.25000000  0.61839000  0.34806900  1
  Zn  Zn7  1  0.25000000  0.99761400  0.43976200  1
  Rh  Rh0  1  0.75000000  0.74950000  0.43753400  1
  Rh  Rh1  1  0.75000000  0.25479800  0.81501900  1
  Rh  Rh2  1  0.75000000  0.75479800  0.68498100  1
  Rh  Rh3  1  0.25000000  0.74520200  0.18498100  1
  Rh  Rh4  1  0.25000000  0.75050000  0.93753400  1
  Rh  Rh5  1  0.25000000  0.25050000  0.56246600  1
  Rh  Rh6  1  0.75000000  0.24950000  0.06246600  1
  Rh  Rh7  1  0.25000000  0.24520200  0.31501900  1
loop_
_geom_bond_atom_site_label_1
_geom_bond_atom_site_label_2
_geom_bond_distance
_geom_bond_site_symmetry_2
Ce0 Rh0 2.843081 1_455
Ce0 Rh0 2.843081 1_555
Ce0 Rh2 2.900586 1_455
Ce0 Rh2 2.900586 1_555
Ce0 Rh5 3.115188 1_555
Ce1 Rh4 2.843081 1_654
Ce1 Rh4 2.843081 1_554
Ce1 Rh3 2.900586 1_555
Ce1 Rh3 2.900586 1_655
Ce1 Rh6 3.115188 1_565
Ce2 Rh5 2.891555 1_555
Ce2 Rh1 2.941315 1_555
Ce2 Rh1 2.941315 1_455
Ce2 Rh2 2.994458 1_545
Ce2 Rh2 2.994458 1_445
Ce2 Zn4 3.168597 1_445
Ce2 Zn4 3.168597 1_545
Ce2 Zn2 3.229866 1_555
Ce2 Zn2 3.229866 1_455
Ce2 Zn3 3.292130 1_555
Ce2 Zn3 3.292130 1_455
Ce3 Rh6 2.843081 1_456
Ce3 Rh6 2.843081 1_556
Ce3 Rh1 2.900586 1_555
Ce3 Rh1 2.900586 1_455
Ce3 Rh4 3.115188 1_545
Ce4 Rh0 2.891555 1_555
Ce4 Rh3 2.941315 1_555
Ce4 Rh3 2.941315 1_655
Ce4 Rh7 2.994458 1_565
Ce4 Rh7 2.994458 1_665
Ce4 Zn0 3.168597 1_665
Ce4 Zn0 3.168597 1_565
Ce4 Zn7 3.229866 1_555
Ce4 Zn7 3.229866 1_655
Ce4 Zn6 3.292130 1_555
Ce4 Zn6 3.292130 1_655
Ce5 Rh4 2.891555 1_555
Ce5 Rh2 2.941315 1_555
Ce5 Rh2 2.941315 1_455
Ce5 Rh1 2.994458 1_455
Ce5 Rh1 2.994458 1_555
Ce5 Zn3 3.168597 1_455
Ce5 Zn3 3.168597 1_555
Ce5 Zn1 3.229866 1_555
Ce5 Zn1 3.229866 1_455
Ce5 Zn4 3.292130 1_555
Ce5 Zn4 3.292130 1_455
Ce6 Rh6 2.891555 1_555
Ce6 Rh7 2.941315 1_555
Ce6 Rh7 2.941315 1_655
Ce6 Rh3 2.994458 1_555
Ce6 Rh3 2.994458 1_655
Ce6 Zn6 3.168597 1_655
Ce6 Zn6 3.168597 1_555
Ce6 Zn5 3.229866 1_555
Ce6 Zn5 3.229866 1_655
Ce6 Zn0 3.292130 1_555
Ce6 Zn0 3.292130 1_655
Ce7 Rh5 2.843081 1_555
Ce7 Rh5 2.843081 1_655
Ce7 Rh7 2.900586 1_655
Ce7 Rh7 2.900586 1_555
Ce7 Rh0 3.115188 1_555
Rh0 Zn6 2.629664 1_655
Rh0 Zn6 2.629664 1_555
Rh0 Zn7 2.687151 1_555
Rh0 Zn7 2.687151 1_655
Rh0 Zn2 2.728591 1_565
Rh1 Zn1 2.726524 1_555
Rh1 Zn4 2.803991 1_545
Rh1 Zn3 2.807596 1_555
Rh2 Zn2 2.726524 1_565
Rh2 Zn3 2.803991 1_555
Rh2 Zn4 2.807596 1_555
Rh3 Zn5 2.726524 1_555
Rh3 Zn0 2.803991 1_565
Rh3 Zn6 2.807596 1_555
Rh4 Zn4 2.629664 1_455
Rh4 Zn4 2.629664 1_555
Rh4 Zn1 2.687151 1_555
Rh4 Zn1 2.687151 1_455
Rh4 Zn5 2.728591 1_556
Rh5 Zn3 2.629664 1_555
Rh5 Zn3 2.629664 1_455
Rh5 Zn2 2.687151 1_555
Rh5 Zn2 2.687151 1_455
Rh5 Zn7 2.728591 1_545
Rh6 Zn0 2.629664 1_655
Rh6 Zn0 2.629664 1_555
Rh6 Zn5 2.687151 1_555
Rh6 Zn5 2.687151 1_655
Rh6 Zn1 2.728591 1_554
Rh7 Zn7 2.726524 1_545
Rh7 Zn6 2.803991 1_555
Rh7 Zn0 2.807596 1_555
