# generated using pymatgen
data_V2Pb4O9
_symmetry_space_group_name_H-M   'P 1'
_cell_length_a   7.57261800
_cell_length_b   11.77914300
_cell_length_c   23.26459800
_cell_angle_alpha   90.00000000
_cell_angle_beta   90.00000000
_cell_angle_gamma   90.00000000
_symmetry_Int_Tables_number   1
_chemical_formula_structural   V2Pb4O9
_chemical_formula_sum   'V16 Pb32 O72'
_cell_volume   2075.17772090
_cell_formula_units_Z   8
loop_
 _symmetry_equiv_pos_site_id
 _symmetry_equiv_pos_as_xyz
  1  'x, y, z'
loop_
 _atom_site_type_symbol
 _atom_site_label
 _atom_site_symmetry_multiplicity
 _atom_site_fract_x
 _atom_site_fract_y
 _atom_site_fract_z
 _atom_site_occupancy
  V  V0  1  0.36699000  0.25000000  0.17830400  1
  V  V1  1  0.49505700  0.99617600  0.40472400  1
  V  V2  1  0.11369600  0.75000000  0.68379500  1
  V  V3  1  0.86699000  0.75000000  0.32169600  1
  V  V4  1  0.61369600  0.25000000  0.81620500  1
  V  V5  1  0.00494300  0.99617600  0.90472400  1
  V  V6  1  0.99505700  0.49617600  0.09527600  1
  V  V7  1  0.63301000  0.75000000  0.82169600  1
  V  V8  1  0.99505700  0.00382400  0.09527600  1
  V  V9  1  0.49505700  0.50382400  0.40472400  1
  V  V10  1  0.88630400  0.25000000  0.31620500  1
  V  V11  1  0.38630400  0.75000000  0.18379500  1
  V  V12  1  0.00494300  0.50382400  0.90472400  1
  V  V13  1  0.50494300  0.00382400  0.59527600  1
  V  V14  1  0.13301000  0.25000000  0.67830400  1
  V  V15  1  0.50494300  0.49617600  0.59527600  1
  Pb  Pb0  1  0.65145100  0.52731400  0.24508800  1
  Pb  Pb1  1  0.83684800  0.25000000  0.16379200  1
  Pb  Pb2  1  0.49102200  0.99057400  0.92380300  1
  Pb  Pb3  1  0.23613700  0.25000000  0.51446100  1
  Pb  Pb4  1  0.42937100  0.25000000  0.34679900  1
  Pb  Pb5  1  0.92937100  0.75000000  0.15320100  1
  Pb  Pb6  1  0.73613700  0.75000000  0.98553900  1
  Pb  Pb7  1  0.26386300  0.25000000  0.01446100  1
  Pb  Pb8  1  0.65145100  0.97268600  0.24508800  1
  Pb  Pb9  1  0.84854900  0.52731400  0.74508800  1
  Pb  Pb10  1  0.24916300  0.75000000  0.51161300  1
  Pb  Pb11  1  0.16315200  0.75000000  0.83620800  1
  Pb  Pb12  1  0.74916300  0.25000000  0.98838700  1
  Pb  Pb13  1  0.15145100  0.02731400  0.25491200  1
  Pb  Pb14  1  0.07062900  0.25000000  0.84679900  1
  Pb  Pb15  1  0.76386300  0.75000000  0.48553900  1
  Pb  Pb16  1  0.00897800  0.50942600  0.42380300  1
  Pb  Pb17  1  0.00897800  0.99057400  0.42380300  1
  Pb  Pb18  1  0.99102200  0.49057400  0.57619700  1
  Pb  Pb19  1  0.66315200  0.25000000  0.66379200  1
  Pb  Pb20  1  0.57062900  0.75000000  0.65320100  1
  Pb  Pb21  1  0.33684800  0.75000000  0.33620800  1
  Pb  Pb22  1  0.15145100  0.47268600  0.25491200  1
  Pb  Pb23  1  0.50897800  0.00942600  0.07619700  1
  Pb  Pb24  1  0.84854900  0.97268600  0.74508800  1
  Pb  Pb25  1  0.49102200  0.50942600  0.92380300  1
  Pb  Pb26  1  0.34854900  0.47268600  0.75491200  1
  Pb  Pb27  1  0.75083700  0.25000000  0.48838700  1
  Pb  Pb28  1  0.25083700  0.75000000  0.01161300  1
  Pb  Pb29  1  0.50897800  0.49057400  0.07619700  1
  Pb  Pb30  1  0.34854900  0.02731400  0.75491200  1
  Pb  Pb31  1  0.99102200  0.00942600  0.57619700  1
  O  O0  1  0.63603700  0.75000000  0.31569200  1
  O  O1  1  0.55402300  0.87228000  0.78730600  1
  O  O2  1  0.01364200  0.98838700  0.16990200  1
  O  O3  1  0.01364200  0.51161300  0.16990200  1
  O  O4  1  0.10966800  0.37809800  0.92624900  1
  O  O5  1  0.00759100  0.62553100  0.50379900  1
  O  O6  1  0.60966800  0.62190200  0.57375100  1
  O  O7  1  0.80210600  0.52305600  0.93759700  1
  O  O8  1  0.39033200  0.37809800  0.42624900  1
  O  O9  1  0.48635800  0.51161300  0.66990200  1
  O  O10  1  0.30210600  0.02305600  0.56240300  1
  O  O11  1  0.14453200  0.62120200  0.91693200  1
  O  O12  1  0.56240800  0.75000000  0.89273100  1
  O  O13  1  0.44597700  0.37228000  0.21269400  1
  O  O14  1  0.99240900  0.37446900  0.49620100  1
  O  O15  1  0.69789400  0.97694400  0.43759700  1
  O  O16  1  0.14453200  0.87879800  0.91693200  1
  O  O17  1  0.89033200  0.87809800  0.07375100  1
  O  O18  1  0.69789400  0.52305600  0.43759700  1
  O  O19  1  0.99240900  0.12553100  0.49620100  1
  O  O20  1  0.10966800  0.12190200  0.92624900  1
  O  O21  1  0.19789400  0.02305600  0.06240300  1
  O  O22  1  0.85546800  0.37879800  0.08306800  1
  O  O23  1  0.05402300  0.37228000  0.71269400  1
  O  O24  1  0.74857300  0.25000000  0.37661100  1
  O  O25  1  0.64453200  0.12120200  0.58306800  1
  O  O26  1  0.98635800  0.48838700  0.83009800  1
  O  O27  1  0.19789400  0.47694400  0.06240300  1
  O  O28  1  0.60966800  0.87809800  0.57375100  1
  O  O29  1  0.39685800  0.25000000  0.83712600  1
  O  O30  1  0.86396300  0.75000000  0.81569200  1
  O  O31  1  0.94597700  0.87228000  0.28730600  1
  O  O32  1  0.89033200  0.62190200  0.07375100  1
  O  O33  1  0.84960000  0.13071200  0.27151600  1
  O  O34  1  0.34960000  0.63071200  0.22848400  1
  O  O35  1  0.10314200  0.25000000  0.33712600  1
  O  O36  1  0.55402300  0.62772000  0.78730600  1
  O  O37  1  0.39033200  0.12190200  0.42624900  1
  O  O38  1  0.43759200  0.25000000  0.10726900  1
  O  O39  1  0.35546800  0.62120200  0.41693200  1
  O  O40  1  0.65040000  0.13071200  0.77151600  1
  O  O41  1  0.50759100  0.37446900  0.99620100  1
  O  O42  1  0.51364200  0.48838700  0.33009800  1
  O  O43  1  0.51364200  0.01161300  0.33009800  1
  O  O44  1  0.75142700  0.25000000  0.87661100  1
  O  O45  1  0.80210600  0.97694400  0.93759700  1
  O  O46  1  0.48635800  0.98838700  0.66990200  1
  O  O47  1  0.60314200  0.75000000  0.16287400  1
  O  O48  1  0.34960000  0.86928800  0.22848400  1
  O  O49  1  0.94597700  0.62772000  0.28730600  1
  O  O50  1  0.64453200  0.37879800  0.58306800  1
  O  O51  1  0.50759100  0.12553100  0.99620100  1
  O  O52  1  0.35546800  0.87879800  0.41693200  1
  O  O53  1  0.98635800  0.01161300  0.83009800  1
  O  O54  1  0.15040000  0.86928800  0.72848400  1
  O  O55  1  0.49240900  0.62553100  0.00379900  1
  O  O56  1  0.44597700  0.12772000  0.21269400  1
  O  O57  1  0.00759100  0.87446900  0.50379900  1
  O  O58  1  0.93759200  0.75000000  0.39273100  1
  O  O59  1  0.65040000  0.36928800  0.77151600  1
  O  O60  1  0.85546800  0.12120200  0.08306800  1
  O  O61  1  0.05402300  0.12772000  0.71269400  1
  O  O62  1  0.25142700  0.75000000  0.62338900  1
  O  O63  1  0.13603700  0.25000000  0.18430800  1
  O  O64  1  0.49240900  0.87446900  0.00379900  1
  O  O65  1  0.06240800  0.25000000  0.60726900  1
  O  O66  1  0.24857300  0.75000000  0.12338900  1
  O  O67  1  0.30210600  0.47694400  0.56240300  1
  O  O68  1  0.36396300  0.25000000  0.68430800  1
  O  O69  1  0.84960000  0.36928800  0.27151600  1
  O  O70  1  0.89685800  0.75000000  0.66287400  1
  O  O71  1  0.15040000  0.63071200  0.72848400  1
loop_
_geom_bond_atom_site_label_1
_geom_bond_atom_site_label_2
_geom_bond_distance
_geom_bond_site_symmetry_2
O0 V3 1.754488 1_555
O0 Pb21 2.315374 1_555
O1 V7 1.752855 1_555
O1 Pb30 2.514739 1_565
O1 Pb24 2.708845 1_555
O2 V8 1.751304 1_465
O2 Pb13 2.282693 1_565
O3 V6 1.751304 1_455
O3 Pb22 2.282693 1_555
O4 V12 1.752964 1_555
O4 Pb14 2.404290 1_555
O4 Pb7 2.802098 1_556
O5 Pb16 2.309564 1_555
O5 Pb18 2.319422 1_455
O5 Pb10 2.351397 1_555
O5 Pb15 2.395096 1_455
O6 V15 1.752964 1_555
O6 Pb20 2.404290 1_555
O6 Pb15 2.802098 1_555
O7 V12 1.730757 1_655
O7 Pb25 2.382893 1_555
O8 V9 1.752964 1_555
O8 Pb4 2.404290 1_555
O8 Pb3 2.802098 1_555
O9 V15 1.751304 1_555
O9 Pb26 2.282693 1_555
O10 V13 1.730757 1_555
O10 Pb31 2.382893 1_455
O11 V12 1.763418 1_555
O11 Pb11 2.418366 1_555
O11 Pb28 2.793148 1_556
O12 V7 1.736932 1_555
O12 Pb6 2.528369 1_555
O13 V0 1.752855 1_555
O13 Pb0 2.514739 1_555
O13 Pb22 2.708845 1_555
O14 Pb18 2.309564 1_555
O14 Pb16 2.319422 1_655
O14 Pb27 2.351397 1_555
O14 Pb3 2.395096 1_655
O15 V1 1.730757 1_555
O15 Pb17 2.382893 1_655
O16 V5 1.763418 1_555
O16 Pb11 2.418366 1_555
O16 Pb28 2.793148 1_556
O17 V8 1.752964 1_565
O17 Pb5 2.404290 1_555
O17 Pb6 2.802098 1_554
O18 V9 1.730757 1_555
O18 Pb16 2.382893 1_655
O19 Pb31 2.309564 1_555
O19 Pb17 2.319422 1_645
O19 Pb27 2.351397 1_555
O19 Pb3 2.395096 1_655
O20 V5 1.752964 1_545
O20 Pb14 2.404290 1_555
O20 Pb7 2.802098 1_556
O21 V8 1.730757 1_455
O21 Pb23 2.382893 1_555
O22 V6 1.763418 1_555
O22 Pb1 2.418366 1_555
O22 Pb12 2.793148 1_554
O23 V14 1.752855 1_555
O23 Pb9 2.514739 1_455
O23 Pb26 2.708845 1_555
O24 V10 1.750070 1_555
O24 Pb4 2.514729 1_555
O24 Pb27 2.600480 1_555
O25 V13 1.763418 1_555
O25 Pb19 2.418366 1_555
O25 Pb27 2.793148 1_555
O26 V12 1.751304 1_655
O26 Pb9 2.282693 1_555
O27 V6 1.730757 1_455
O27 Pb29 2.382893 1_555
O28 V13 1.752964 1_565
O28 Pb20 2.404290 1_555
O28 Pb15 2.802098 1_555
O29 V4 1.712648 1_555
O29 Pb14 2.480636 1_555
O30 V7 1.754488 1_555
O30 Pb11 2.315374 1_655
O31 V3 1.752855 1_555
O31 Pb13 2.514739 1_665
O31 Pb8 2.708845 1_555
O32 V6 1.752964 1_555
O32 Pb5 2.404290 1_555
O32 Pb6 2.802098 1_554
O33 V10 1.769889 1_555
O33 Pb8 2.468683 1_545
O33 Pb13 2.618680 1_655
O34 V11 1.769889 1_555
O34 Pb22 2.468683 1_555
O34 Pb0 2.618680 1_555
O35 V10 1.712648 1_455
O35 Pb4 2.480636 1_555
O36 V7 1.752855 1_555
O36 Pb26 2.514739 1_555
O36 Pb9 2.708845 1_555
O37 V1 1.752964 1_545
O37 Pb4 2.404290 1_555
O37 Pb3 2.802098 1_555
O38 V0 1.736932 1_555
O38 Pb7 2.528369 1_555
O39 V9 1.763418 1_555
O39 Pb21 2.418366 1_555
O39 Pb10 2.793148 1_555
O40 V4 1.769889 1_555
O40 Pb24 2.468683 1_545
O40 Pb30 2.618680 1_555
O41 Pb29 2.309564 1_556
O41 Pb25 2.319422 1_555
O41 Pb12 2.351397 1_555
O41 Pb7 2.395096 1_556
O42 V9 1.751304 1_555
O42 Pb0 2.282693 1_555
O43 V1 1.751304 1_545
O43 Pb8 2.282693 1_545
O44 V4 1.750070 1_555
O44 Pb14 2.514729 1_655
O44 Pb12 2.600480 1_555
O45 V5 1.730757 1_655
O45 Pb2 2.382893 1_555
O46 V13 1.751304 1_565
O46 Pb30 2.282693 1_565
O47 V11 1.712648 1_555
O47 Pb5 2.480636 1_555
O48 V11 1.769889 1_555
O48 Pb13 2.468683 1_565
O48 Pb8 2.618680 1_555
O49 V3 1.752855 1_555
O49 Pb22 2.514739 1_655
O49 Pb0 2.708845 1_555
O50 V15 1.763418 1_555
O50 Pb19 2.418366 1_555
O50 Pb27 2.793148 1_555
O51 Pb23 2.309564 1_556
O51 Pb2 2.319422 1_545
O51 Pb12 2.351397 1_555
O51 Pb7 2.395096 1_556
O52 V1 1.763418 1_555
O52 Pb21 2.418366 1_555
O52 Pb10 2.793148 1_555
O53 V5 1.751304 1_645
O53 Pb24 2.282693 1_545
O54 V2 1.769889 1_555
O54 Pb30 2.468683 1_565
O54 Pb24 2.618680 1_455
O55 Pb25 2.309564 1_554
O55 Pb29 2.319422 1_555
O55 Pb28 2.351397 1_555
O55 Pb6 2.395096 1_554
O56 V0 1.752855 1_555
O56 Pb8 2.514739 1_545
O56 Pb13 2.708845 1_555
O57 Pb17 2.309564 1_555
O57 Pb31 2.319422 1_465
O57 Pb10 2.351397 1_555
O57 Pb15 2.395096 1_455
O58 V3 1.736932 1_555
O58 Pb15 2.528369 1_555
O59 V4 1.769889 1_555
O59 Pb9 2.468683 1_555
O59 Pb26 2.618680 1_555
O60 V8 1.763418 1_555
O60 Pb1 2.418366 1_555
O60 Pb12 2.793148 1_554
O61 V14 1.752855 1_555
O61 Pb24 2.514739 1_445
O61 Pb30 2.708845 1_555
O62 V2 1.750070 1_555
O62 Pb20 2.514729 1_555
O62 Pb10 2.600480 1_555
O63 V0 1.754488 1_555
O63 Pb1 2.315374 1_455
O64 Pb2 2.309564 1_554
O64 Pb23 2.319422 1_565
O64 Pb28 2.351397 1_555
O64 Pb6 2.395096 1_554
O65 V14 1.736932 1_555
O65 Pb3 2.528369 1_555
O66 V11 1.750070 1_555
O66 Pb5 2.514729 1_455
O66 Pb28 2.600480 1_555
O67 V15 1.730757 1_555
O67 Pb18 2.382893 1_455
O68 V14 1.754488 1_555
O68 Pb19 2.315374 1_555
O69 V10 1.769889 1_555
O69 Pb0 2.468683 1_555
O69 Pb22 2.618680 1_655
O70 V2 1.712648 1_655
O70 Pb20 2.480636 1_555
O71 V2 1.769889 1_555
O71 Pb26 2.468683 1_555
O71 Pb9 2.618680 1_455
