# generated using pymatgen
data_Ba5SrLa2Fe4O15
_symmetry_space_group_name_H-M   'P 1'
_cell_length_a   11.95786144
_cell_length_b   11.95786144
_cell_length_c   14.31294884
_cell_angle_alpha   89.73837355
_cell_angle_beta   89.73837355
_cell_angle_gamma   59.93996009
_symmetry_Int_Tables_number   1
_chemical_formula_structural   Ba5SrLa2Fe4O15
_chemical_formula_sum   'Ba20 Sr4 La8 Fe16 O60'
_cell_volume   1771.32268024
_cell_formula_units_Z   4
loop_
 _symmetry_equiv_pos_site_id
 _symmetry_equiv_pos_as_xyz
  1  'x, y, z'
loop_
 _atom_site_type_symbol
 _atom_site_label
 _atom_site_symmetry_multiplicity
 _atom_site_fract_x
 _atom_site_fract_y
 _atom_site_fract_z
 _atom_site_occupancy
  Ba  Ba0  1  0.17252200  0.17534500  0.91792200  1
  Ba  Ba1  1  0.17534500  0.17252200  0.41792200  1
  Ba  Ba2  1  0.00081700  0.00175200  0.00458300  1
  Ba  Ba3  1  0.00014200  0.99864500  0.75437200  1
  Ba  Ba4  1  0.00175200  0.00081700  0.50458300  1
  Ba  Ba5  1  0.99864500  0.00014200  0.25437200  1
  Ba  Ba6  1  0.17523600  0.65256900  0.91743900  1
  Ba  Ba7  1  0.33636100  0.33364400  0.75743900  1
  Ba  Ba8  1  0.17696300  0.65233700  0.41422300  1
  Ba  Ba9  1  0.33364400  0.33636100  0.25743900  1
  Ba  Ba10  1  0.65233700  0.17696300  0.91422300  1
  Ba  Ba11  1  0.65256900  0.17523600  0.41743900  1
  Ba  Ba12  1  0.34863800  0.82612000  0.66734200  1
  Ba  Ba13  1  0.34577400  0.82435400  0.16833400  1
  Ba  Ba14  1  0.82435400  0.34577400  0.66833400  1
  Ba  Ba15  1  0.66351600  0.66856800  0.50527400  1
  Ba  Ba16  1  0.82612000  0.34863800  0.16734200  1
  Ba  Ba17  1  0.66856800  0.66351600  0.00527400  1
  Ba  Ba18  1  0.82305000  0.82914200  0.66367600  1
  Ba  Ba19  1  0.82914200  0.82305000  0.16367600  1
  Sr  Sr0  1  0.04435400  0.47722500  0.08037300  1
  Sr  Sr1  1  0.47722500  0.04435400  0.58037300  1
  Sr  Sr2  1  0.52123400  0.52297900  0.83044000  1
  Sr  Sr3  1  0.52297900  0.52123400  0.33044000  1
  La  La0  1  0.04244500  0.47885500  0.57958700  1
  La  La1  1  0.47885500  0.04244500  0.07958700  1
  La  La2  1  0.47771500  0.47920200  0.58123500  1
  La  La3  1  0.47920200  0.47771500  0.08123500  1
  La  La4  1  0.52151300  0.95668500  0.82849400  1
  La  La5  1  0.52194000  0.95738100  0.33272900  1
  La  La6  1  0.95738100  0.52194000  0.83272900  1
  La  La7  1  0.95668500  0.52151300  0.32849400  1
  Fe  Fe0  1  0.17988500  0.18064700  0.66986600  1
  Fe  Fe1  1  0.18064700  0.17988500  0.16986600  1
  Fe  Fe2  1  0.17739100  0.64094400  0.16738900  1
  Fe  Fe3  1  0.17584400  0.64321900  0.66785600  1
  Fe  Fe4  1  0.33110900  0.33366500  0.98454400  1
  Fe  Fe5  1  0.33366500  0.33110900  0.48454400  1
  Fe  Fe6  1  0.64094400  0.17739100  0.66738900  1
  Fe  Fe7  1  0.64321900  0.17584400  0.16785600  1
  Fe  Fe8  1  0.35855400  0.81850400  0.41721400  1
  Fe  Fe9  1  0.35874400  0.82043800  0.92002900  1
  Fe  Fe10  1  0.66390300  0.66809700  0.23284600  1
  Fe  Fe11  1  0.66809700  0.66390300  0.73284600  1
  Fe  Fe12  1  0.81850400  0.35855400  0.91721400  1
  Fe  Fe13  1  0.82043800  0.35874400  0.42002900  1
  Fe  Fe14  1  0.82006700  0.82274100  0.91621200  1
  Fe  Fe15  1  0.82274100  0.82006700  0.41621200  1
  O  O0  1  0.09679700  0.09644100  0.62243100  1
  O  O1  1  0.09644100  0.09679700  0.12243100  1
  O  O2  1  0.06406100  0.33331800  0.73577600  1
  O  O3  1  0.06825400  0.32796000  0.24056700  1
  O  O4  1  0.32796000  0.06825400  0.74056700  1
  O  O5  1  0.33331800  0.06406100  0.23577600  1
  O  O6  1  0.06117800  0.60533900  0.73494200  1
  O  O7  1  0.06435000  0.60739700  0.24020600  1
  O  O8  1  0.24349900  0.25374400  0.57743600  1
  O  O9  1  0.25374400  0.24349900  0.07743600  1
  O  O10  1  0.17034200  0.41350900  0.90975900  1
  O  O11  1  0.16616500  0.41609800  0.41462600  1
  O  O12  1  0.09053400  0.81104100  0.62122400  1
  O  O13  1  0.09182700  0.80886100  0.12005200  1
  O  O14  1  0.25236100  0.50081300  0.07749000  1
  O  O15  1  0.24450600  0.50494600  0.57691000  1
  O  O16  1  0.41609800  0.16616500  0.91462600  1
  O  O17  1  0.41350900  0.17034200  0.40975900  1
  O  O18  1  0.41537200  0.41363000  0.91660200  1
  O  O19  1  0.41363000  0.41537200  0.41660200  1
  O  O20  1  0.50081300  0.25236100  0.57749000  1
  O  O21  1  0.50494600  0.24450600  0.07691000  1
  O  O22  1  0.32862200  0.60376300  0.73162300  1
  O  O23  1  0.32859300  0.60446700  0.23244000  1
  O  O24  1  0.19221800  0.90259700  0.87102700  1
  O  O25  1  0.19206800  0.90104600  0.36877600  1
  O  O26  1  0.60533900  0.06117800  0.23494200  1
  O  O27  1  0.60739700  0.06435000  0.74020600  1
  O  O28  1  0.39307800  0.67227200  0.99112900  1
  O  O29  1  0.39427000  0.67131800  0.48981700  1
  O  O30  1  0.60446700  0.32859300  0.73244000  1
  O  O31  1  0.60376300  0.32862200  0.23162300  1
  O  O32  1  0.39539400  0.93550200  0.98625800  1
  O  O33  1  0.39503500  0.93374900  0.48197300  1
  O  O34  1  0.80886100  0.09182700  0.62005200  1
  O  O35  1  0.81104100  0.09053400  0.12122400  1
  O  O36  1  0.67131800  0.39427000  0.98981700  1
  O  O37  1  0.67227200  0.39307800  0.49112900  1
  O  O38  1  0.49605100  0.75621800  0.82788000  1
  O  O39  1  0.49822100  0.75488100  0.32590600  1
  O  O40  1  0.58489000  0.58594600  0.16000300  1
  O  O41  1  0.58594600  0.58489000  0.66000300  1
  O  O42  1  0.75488100  0.49822100  0.82590600  1
  O  O43  1  0.58697000  0.82933400  0.66588300  1
  O  O44  1  0.58402800  0.83402800  0.16235600  1
  O  O45  1  0.75621800  0.49605100  0.32788000  1
  O  O46  1  0.90104600  0.19206800  0.86877600  1
  O  O47  1  0.90259700  0.19221800  0.37102700  1
  O  O48  1  0.83402800  0.58402800  0.66235600  1
  O  O49  1  0.82933400  0.58697000  0.16588300  1
  O  O50  1  0.75165900  0.75169700  0.82684300  1
  O  O51  1  0.75169700  0.75165900  0.32684300  1
  O  O52  1  0.93374900  0.39503500  0.98197300  1
  O  O53  1  0.93550200  0.39539400  0.48625800  1
  O  O54  1  0.66607600  0.93571600  0.98261400  1
  O  O55  1  0.66942600  0.93506200  0.48009400  1
  O  O56  1  0.93506200  0.66942600  0.98009400  1
  O  O57  1  0.93571600  0.66607600  0.48261400  1
  O  O58  1  0.90574000  0.90695000  0.87403700  1
  O  O59  1  0.90695000  0.90574000  0.37403700  1
loop_
_geom_bond_atom_site_label_1
_geom_bond_atom_site_label_2
_geom_bond_distance
_geom_bond_site_symmetry_2
Ba0 O9 2.765923 1_556
Ba0 O10 2.836840 1_555
Ba0 O16 2.859419 1_555
Ba0 O52 2.894428 1_455
Ba0 O32 2.936940 1_545
Ba0 O4 3.023338 1_555
Ba0 O2 3.094942 1_555
Ba0 O24 3.223703 1_545
Ba0 O46 3.231456 1_455
Ba0 O1 3.329355 1_556
Ba1 O8 2.765923 1_555
Ba1 O17 2.836840 1_555
Ba1 O11 2.859419 1_555
Ba1 O33 2.894428 1_545
Ba1 O53 2.936940 1_455
Ba1 O3 3.023338 1_555
Ba1 O5 3.094942 1_555
Ba1 O47 3.223703 1_455
Ba1 O25 3.231456 1_545
Ba1 O0 3.329355 1_555
Ba2 O35 2.575275 1_455
Ba2 O13 2.588993 1_545
Ba2 O1 2.604113 1_555
Ba2 O58 2.720093 1_444
Ba2 O24 2.749625 1_544
Ba2 O46 2.764345 1_454
Ba3 O58 2.572020 1_455
Ba3 O46 2.589632 1_465
Ba3 O24 2.599437 1_555
Ba3 O12 2.724662 1_555
Ba3 O0 2.753848 1_565
Ba3 O34 2.763466 1_465
Ba4 O12 2.575275 1_545
Ba4 O34 2.588993 1_455
Ba4 O0 2.604113 1_555
Ba4 O59 2.720093 1_445
Ba4 O47 2.749625 1_455
Ba4 O25 2.764345 1_545
Ba5 O59 2.572020 1_545
Ba5 O25 2.589632 1_645
Ba5 O47 2.599437 1_555
Ba5 O35 2.724662 1_555
Ba5 O1 2.753848 1_655
Ba5 O13 2.763466 1_645
Ba6 O14 2.774181 1_556
Ba6 O18 2.861808 1_555
Ba6 O10 2.891002 1_555
Ba6 O56 2.913967 1_455
Ba6 O28 2.931857 1_555
Ba6 O22 3.110523 1_555
Ba6 O6 3.133650 1_555
Ba6 O24 3.163905 1_555
Ba6 O58 3.194444 1_455
Ba6 O13 3.324641 1_556
Ba7 O10 2.772430 1_555
Ba7 O18 2.818162 1_555
Ba7 O16 2.836721 1_555
Ba7 O20 3.083393 1_555
Ba7 O15 3.130899 1_555
Ba7 O8 3.145645 1_555
Ba7 O30 3.194633 1_555
Ba7 O22 3.204410 1_555
Ba7 O4 3.235134 1_555
Ba7 O27 3.237117 1_555
Ba7 O2 3.274211 1_555
Ba7 O6 3.282826 1_555
Ba8 O15 2.781067 1_555
Ba8 O19 2.829449 1_555
Ba8 O11 2.891730 1_555
Ba8 O29 2.931434 1_555
Ba8 O57 2.967849 1_455
Ba8 O7 3.012230 1_555
Ba8 O23 3.052150 1_555
Ba8 O25 3.133689 1_555
Ba8 O59 3.183910 1_455
Ba8 O12 3.392088 1_555
Ba9 O17 2.772430 1_555
Ba9 O19 2.818162 1_555
Ba9 O11 2.836721 1_555
Ba9 O14 3.083393 1_555
Ba9 O21 3.130899 1_555
Ba9 O9 3.145645 1_555
Ba9 O23 3.194633 1_555
Ba9 O31 3.204410 1_555
Ba9 O3 3.235134 1_555
Ba9 O7 3.237117 1_555
Ba9 O5 3.274211 1_555
Ba9 O26 3.282826 1_555
Ba10 O21 2.781067 1_556
Ba10 O18 2.829449 1_555
Ba10 O16 2.891730 1_555
Ba10 O36 2.931434 1_555
Ba10 O54 2.967849 1_545
Ba10 O27 3.012230 1_555
Ba10 O30 3.052150 1_555
Ba10 O46 3.133689 1_555
Ba10 O58 3.183910 1_545
Ba10 O35 3.392088 1_556
Ba11 O20 2.774181 1_555
Ba11 O19 2.861808 1_555
Ba11 O17 2.891002 1_555
Ba11 O55 2.913967 1_545
Ba11 O37 2.931857 1_555
Ba11 O31 3.110523 1_555
Ba11 O26 3.133650 1_555
Ba11 O47 3.163905 1_555
Ba11 O59 3.194444 1_545
Ba11 O34 3.324641 1_555
Ba12 O38 2.762074 1_555
Ba12 O41 2.860774 1_555
Ba12 O43 2.869365 1_555
Ba12 O22 2.930327 1_555
Ba12 O4 2.975074 1_565
Ba12 O29 3.032971 1_555
Ba12 O33 3.110350 1_555
Ba12 O0 3.190230 1_565
Ba12 O12 3.251327 1_555
Ba12 O24 3.330912 1_555
Ba13 O39 2.757355 1_555
Ba13 O40 2.854991 1_555
Ba13 O23 2.883601 1_555
Ba13 O44 2.909537 1_555
Ba13 O5 2.960806 1_565
Ba13 O28 3.009751 1_554
Ba13 O32 3.107139 1_554
Ba13 O1 3.194049 1_565
Ba13 O13 3.212031 1_555
Ba13 O25 3.276761 1_555
Ba14 O42 2.757355 1_555
Ba14 O41 2.854991 1_555
Ba14 O30 2.883601 1_555
Ba14 O48 2.909537 1_555
Ba14 O2 2.960806 1_655
Ba14 O37 3.009751 1_555
Ba14 O53 3.107139 1_555
Ba14 O0 3.194049 1_655
Ba14 O34 3.212031 1_555
Ba14 O46 3.276761 1_555
Ba15 O41 2.767130 1_555
Ba15 O43 2.841874 1_555
Ba15 O48 2.861877 1_555
Ba15 O39 3.088924 1_555
Ba15 O51 3.102129 1_555
Ba15 O45 3.108436 1_555
Ba15 O33 3.205431 1_555
Ba15 O29 3.211894 1_555
Ba15 O55 3.241115 1_555
Ba15 O37 3.250312 1_555
Ba15 O57 3.254831 1_555
Ba15 O53 3.267898 1_555
Ba16 O45 2.762074 1_555
Ba16 O40 2.860774 1_555
Ba16 O49 2.869365 1_555
Ba16 O31 2.930327 1_555
Ba16 O3 2.975074 1_655
Ba16 O36 3.032971 1_554
Ba16 O52 3.110350 1_554
Ba16 O1 3.190230 1_655
Ba16 O35 3.251327 1_555
Ba16 O47 3.330912 1_555
Ba17 O40 2.767130 1_555
Ba17 O49 2.841874 1_555
Ba17 O44 2.861877 1_555
Ba17 O42 3.088924 1_554
Ba17 O50 3.102129 1_554
Ba17 O38 3.108436 1_554
Ba17 O52 3.205431 1_554
Ba17 O36 3.211894 1_554
Ba17 O56 3.241115 1_554
Ba17 O28 3.250312 1_554
Ba17 O54 3.254831 1_554
Ba17 O32 3.267898 1_554
Ba18 O50 2.791871 1_555
Ba18 O43 2.821895 1_555
Ba18 O48 2.867682 1_555
Ba18 O27 2.914900 1_565
Ba18 O6 2.945855 1_655
Ba18 O55 3.092873 1_555
Ba18 O57 3.117013 1_555
Ba18 O34 3.120033 1_565
Ba18 O12 3.152230 1_655
Ba18 O58 3.447211 1_555
Ba19 O51 2.791871 1_555
Ba19 O49 2.821895 1_555
Ba19 O44 2.867682 1_555
Ba19 O7 2.914900 1_655
Ba19 O26 2.945855 1_565
Ba19 O56 3.092873 1_554
Ba19 O54 3.117013 1_554
Ba19 O13 3.120033 1_655
Ba19 O35 3.152230 1_565
Ba19 O59 3.447211 1_555
La0 O57 2.385944 1_455
La0 O53 2.392101 1_455
La0 O48 2.458232 1_455
La0 O8 2.558068 1_555
La0 O15 2.586729 1_555
La0 O11 2.683021 1_555
La0 O2 2.759015 1_555
La0 O6 2.767092 1_555
La1 O54 2.385944 1_544
La1 O32 2.392101 1_544
La1 O44 2.458232 1_545
La1 O9 2.558068 1_555
La1 O21 2.586729 1_555
La1 O16 2.683021 1_554
La1 O5 2.759015 1_555
La1 O26 2.767092 1_555
La2 O29 2.381871 1_555
La2 O37 2.391831 1_555
La2 O41 2.491616 1_555
La2 O20 2.586044 1_555
La2 O15 2.648907 1_555
La2 O19 2.709476 1_555
La2 O22 2.713707 1_555
La2 O30 2.735726 1_555
La3 O36 2.381871 1_554
La3 O28 2.391831 1_554
La3 O40 2.491616 1_555
La3 O14 2.586044 1_555
La3 O21 2.648907 1_555
La3 O18 2.709476 1_554
La3 O31 2.713707 1_555
La3 O23 2.735726 1_555
La4 O27 2.367897 1_565
La4 O4 2.374526 1_565
La4 O16 2.496831 1_565
La4 O38 2.563308 1_555
La4 O50 2.612401 1_555
La4 O43 2.677743 1_555
La4 O54 2.740937 1_555
La4 O32 2.789950 1_555
La5 O26 2.388616 1_565
La5 O5 2.402135 1_565
La5 O17 2.467067 1_565
La5 O39 2.577584 1_555
La5 O51 2.614539 1_555
La5 O55 2.680990 1_555
La5 O33 2.709282 1_555
La5 O44 2.755473 1_555
La6 O6 2.388616 1_655
La6 O2 2.402135 1_655
La6 O10 2.467067 1_655
La6 O42 2.577584 1_555
La6 O50 2.614539 1_555
La6 O56 2.680990 1_555
La6 O52 2.709282 1_555
La6 O48 2.755473 1_555
La7 O7 2.367897 1_655
La7 O3 2.374526 1_655
La7 O11 2.496831 1_655
La7 O45 2.563308 1_555
La7 O51 2.612401 1_555
La7 O49 2.677743 1_555
La7 O57 2.740937 1_555
La7 O53 2.789950 1_555
Fe0 O0 1.864578 1_555
Fe0 O4 1.893525 1_555
Fe0 O2 1.900469 1_555
Fe0 O8 1.933705 1_555
Fe1 O1 1.864578 1_555
Fe1 O3 1.893525 1_555
Fe1 O5 1.900469 1_555
Fe1 O9 1.933705 1_555
Fe2 O13 1.863714 1_555
Fe2 O23 1.883558 1_555
Fe2 O7 1.897597 1_555
Fe2 O14 1.942013 1_555
Fe3 O12 1.859150 1_555
Fe3 O22 1.881742 1_555
Fe3 O6 1.900909 1_555
Fe3 O15 1.937091 1_555
Fe4 O18 1.955264 1_555
Fe4 O10 1.980837 1_555
Fe4 O16 2.003956 1_555
Fe4 O9 2.181975 1_556
Fe4 O14 2.186033 1_556
Fe4 O21 2.235506 1_556
Fe5 O19 1.955264 1_555
Fe5 O17 1.980837 1_555
Fe5 O11 2.003956 1_555
Fe5 O8 2.181975 1_555
Fe5 O20 2.186033 1_555
Fe5 O15 2.235506 1_555
Fe6 O34 1.863714 1_555
Fe6 O30 1.883558 1_555
Fe6 O27 1.897597 1_555
Fe6 O20 1.942013 1_555
Fe7 O35 1.859150 1_555
Fe7 O31 1.881742 1_555
Fe7 O26 1.900909 1_555
Fe7 O21 1.937091 1_555
Fe8 O25 1.859039 1_555
Fe8 O33 1.888428 1_555
Fe8 O29 1.895856 1_555
Fe8 O39 1.947378 1_555
Fe9 O24 1.862509 1_555
Fe9 O28 1.897863 1_555
Fe9 O32 1.898315 1_555
Fe9 O38 1.936860 1_555
Fe10 O49 1.960005 1_555
Fe10 O40 1.973044 1_555
Fe10 O44 1.989747 1_555
Fe10 O39 2.169104 1_555
Fe10 O51 2.233094 1_555
Fe10 O45 2.239253 1_555
Fe11 O43 1.960005 1_555
Fe11 O41 1.973044 1_555
Fe11 O48 1.989747 1_555
Fe11 O42 2.169104 1_555
Fe11 O50 2.233094 1_555
Fe11 O38 2.239253 1_555
Fe12 O46 1.859039 1_555
Fe12 O52 1.888428 1_555
Fe12 O36 1.895856 1_555
Fe12 O42 1.947378 1_555
Fe13 O47 1.862509 1_555
Fe13 O37 1.897863 1_555
Fe13 O53 1.898315 1_555
Fe13 O45 1.936860 1_555
Fe14 O58 1.857460 1_555
Fe14 O56 1.886418 1_555
Fe14 O54 1.903335 1_555
Fe14 O50 1.934608 1_555
Fe15 O59 1.857460 1_555
Fe15 O55 1.886418 1_555
Fe15 O57 1.903335 1_555
Fe15 O51 1.934608 1_555
O3 Sr0 2.825286 1_555
O4 Sr1 2.825286 1_555
O7 Sr0 2.850260 1_555
O8 Sr1 2.659286 1_555
O9 Sr0 2.659286 1_555
O10 Sr0 2.765314 1_556
O14 Sr0 2.640043 1_555
O17 Sr1 2.765314 1_555
O18 Sr2 2.542116 1_555
O19 Sr3 2.542116 1_555
O20 Sr1 2.640043 1_555
O22 Sr2 2.454944 1_555
O23 Sr3 2.461797 1_555
O27 Sr1 2.850260 1_555
O28 Sr2 2.844245 1_555
O29 Sr3 2.833987 1_555
O30 Sr2 2.461797 1_555
O31 Sr3 2.454944 1_555
O33 Sr1 2.455739 1_565
O36 Sr2 2.833987 1_555
O37 Sr3 2.844245 1_555
O38 Sr2 2.651138 1_555
O39 Sr3 2.658517 1_555
O40 Sr3 2.763693 1_555
O41 Sr2 2.763693 1_555
O42 Sr2 2.658517 1_555
O43 Sr1 2.537060 1_565
O45 Sr3 2.651138 1_555
O49 Sr0 2.537060 1_655
O52 Sr0 2.455739 1_656
O55 Sr1 2.455233 1_565
O56 Sr0 2.455233 1_656
