# generated using pymatgen
data_TiCdFe(PO4)3
_symmetry_space_group_name_H-M   'P 1'
_cell_length_a   8.80207394
_cell_length_b   8.80207394
_cell_length_c   8.80207392
_cell_angle_alpha   58.88666486
_cell_angle_beta   58.88666486
_cell_angle_gamma   58.88667191
_symmetry_Int_Tables_number   1
_chemical_formula_structural   TiCdFe(PO4)3
_chemical_formula_sum   'Ti2 Cd2 Fe2 P6 O24'
_cell_volume   469.96003691
_cell_formula_units_Z   2
loop_
 _symmetry_equiv_pos_site_id
 _symmetry_equiv_pos_as_xyz
  1  'x, y, z'
loop_
 _atom_site_type_symbol
 _atom_site_label
 _atom_site_symmetry_multiplicity
 _atom_site_fract_x
 _atom_site_fract_y
 _atom_site_fract_z
 _atom_site_occupancy
  Ti  Ti0  1  0.14691700  0.14691700  0.14691700  1
  Ti  Ti1  1  0.64691700  0.64691700  0.64691700  1
  Cd  Cd0  1  0.99878100  0.99878100  0.99878100  1
  Cd  Cd1  1  0.49878100  0.49878100  0.49878100  1
  Fe  Fe0  1  0.35348600  0.35348600  0.35348600  1
  Fe  Fe1  1  0.85348600  0.85348600  0.85348600  1
  P  P0  1  0.74999900  0.04171500  0.46034000  1
  P  P1  1  0.04171500  0.46034000  0.74999900  1
  P  P2  1  0.46034000  0.74999900  0.04171500  1
  P  P3  1  0.54171500  0.24999900  0.96034000  1
  P  P4  1  0.96034000  0.54171500  0.24999900  1
  P  P5  1  0.24999900  0.96034000  0.54171500  1
  O  O0  1  0.30266900  0.11894800  0.50383000  1
  O  O1  1  0.50383000  0.30266900  0.11894800  1
  O  O2  1  0.91937100  0.05718500  0.26993600  1
  O  O3  1  0.11894800  0.50383000  0.30266900  1
  O  O4  1  0.80266900  0.00383000  0.61894800  1
  O  O5  1  0.58232600  0.22910300  0.44126000  1
  O  O6  1  0.05718500  0.26993600  0.91937100  1
  O  O7  1  0.22910300  0.44126000  0.58232600  1
  O  O8  1  0.37557600  0.19916400  0.99939500  1
  O  O9  1  0.44126000  0.58232600  0.22910300  1
  O  O10  1  0.72910300  0.08232600  0.94126000  1
  O  O11  1  0.99939500  0.37557600  0.19916400  1
  O  O12  1  0.00383000  0.61894800  0.80266900  1
  O  O13  1  0.26993600  0.91937100  0.05718500  1
  O  O14  1  0.55718500  0.41937100  0.76993600  1
  O  O15  1  0.61894800  0.80266900  0.00383000  1
  O  O16  1  0.76993600  0.55718500  0.41937100  1
  O  O17  1  0.94126000  0.72910300  0.08232600  1
  O  O18  1  0.41937100  0.76993600  0.55718500  1
  O  O19  1  0.19916400  0.99939500  0.37557600  1
  O  O20  1  0.87557600  0.49939500  0.69916400  1
  O  O21  1  0.08232600  0.94126000  0.72910300  1
  O  O22  1  0.49939500  0.69916400  0.87557600  1
  O  O23  1  0.69916400  0.87557600  0.49939500  1
loop_
_geom_bond_atom_site_label_1
_geom_bond_atom_site_label_2
_geom_bond_distance
_geom_bond_site_symmetry_2
Cd0 O17 2.342001 1_556
Cd0 O21 2.342002 1_655
Cd0 O10 2.342002 1_565
Cd0 O6 2.371051 1_665
Cd0 O2 2.371051 1_566
Cd0 O13 2.371051 1_656
Cd1 O7 2.342001 1_555
Cd1 O9 2.342002 1_555
Cd1 O5 2.342002 1_555
Cd1 O16 2.371051 1_555
Cd1 O14 2.371051 1_555
Cd1 O18 2.371051 1_555
Fe0 O0 1.931930 1_555
Fe0 O1 1.931930 1_555
Fe0 O3 1.931930 1_555
Fe0 O9 2.075540 1_555
Fe0 O7 2.075540 1_555
Fe0 O5 2.075540 1_555
Fe1 O15 1.931930 1_556
Fe1 O4 1.931930 1_565
Fe1 O12 1.931930 1_655
Fe1 O21 2.075540 1_655
Fe1 O17 2.075540 1_556
Fe1 O10 2.075540 1_565
O0 P5 1.517617 1_545
O1 P3 1.517617 1_554
O2 P0 1.562592 1_555
O2 Ti0 2.077862 1_655
O3 P4 1.517617 1_455
O4 P0 1.517617 1_555
O5 P0 1.543062 1_555
O6 P1 1.562592 1_555
O6 Ti0 2.077863 1_556
O7 P1 1.543062 1_555
O8 P3 1.566731 1_555
O8 Ti0 1.893927 1_556
O9 P2 1.543062 1_555
O10 P3 1.543062 1_555
O11 P4 1.566731 1_555
O11 Ti0 1.893927 1_655
O12 P1 1.517617 1_555
O13 P2 1.562593 1_555
O13 Ti0 2.077863 1_565
O14 P3 1.562592 1_555
O14 Ti1 2.077862 1_555
O15 P2 1.517617 1_555
O16 P4 1.562592 1_555
O16 Ti1 2.077863 1_555
O17 P4 1.543062 1_555
O18 P5 1.562593 1_555
O18 Ti1 2.077863 1_555
O19 P5 1.566731 1_555
O19 Ti0 1.893927 1_565
O20 P1 1.566731 1_655
O20 Ti1 1.893927 1_555
O21 P5 1.543062 1_555
O22 P2 1.566731 1_556
O22 Ti1 1.893927 1_555
O23 P0 1.566731 1_565
O23 Ti1 1.893927 1_555
