# generated using pymatgen
data_Pd7Se2
_symmetry_space_group_name_H-M   'P 1'
_cell_length_a   5.38263049
_cell_length_b   5.60069159
_cell_length_c   9.48754784
_cell_angle_alpha   93.58133206
_cell_angle_beta   90.00000000
_cell_angle_gamma   90.00000000
_symmetry_Int_Tables_number   1
_chemical_formula_structural   Pd7Se2
_chemical_formula_sum   'Pd14 Se4'
_cell_volume   285.45736724
_cell_formula_units_Z   2
loop_
 _symmetry_equiv_pos_site_id
 _symmetry_equiv_pos_as_xyz
  1  'x, y, z'
loop_
 _atom_site_type_symbol
 _atom_site_label
 _atom_site_symmetry_multiplicity
 _atom_site_fract_x
 _atom_site_fract_y
 _atom_site_fract_z
 _atom_site_occupancy
  Pd  Pd0  1  0.07992032  0.79531652  0.57375398  1
  Pd  Pd1  1  0.57992032  0.20468348  0.92624602  1
  Pd  Pd2  1  0.40328868  0.03037871  0.35033879  1
  Pd  Pd3  1  0.90328868  0.96962129  0.14966121  1
  Pd  Pd4  1  0.59671132  0.96962129  0.64966121  1
  Pd  Pd5  1  0.09671132  0.03037871  0.85033879  1
  Pd  Pd6  1  0.65613446  0.42864655  0.20763808  1
  Pd  Pd7  1  0.15613446  0.57135345  0.29236192  1
  Pd  Pd8  1  0.34386554  0.57135345  0.79236192  1
  Pd  Pd9  1  0.84386554  0.42864655  0.70763808  1
  Pd  Pd10  1  0.42007968  0.79531652  0.07375398  1
  Pd  Pd11  1  0.92007968  0.20468348  0.42624602  1
  Pd  Pd12  1  0.50000000  0.50000000  0.50000000  1
  Pd  Pd13  1  -0.00000000  0.50000000  0.00000000  1
  Se  Se0  1  0.22738949  0.22716593  0.62170109  1
  Se  Se1  1  0.72738949  0.77283407  0.87829891  1
  Se  Se2  1  0.77261051  0.77283407  0.37829891  1
  Se  Se3  1  0.27261051  0.22716593  0.12170109  1
loop_
_geom_bond_atom_site_label_1
_geom_bond_atom_site_label_2
_geom_bond_distance
_geom_bond_site_symmetry_2
Pd0 Se2 2.482258 1_455
Pd0 Se0 2.559189 1_565
Pd1 Se3 2.482258 1_556
Pd1 Se1 2.559189 1_545
Pd2 Se2 2.480042 1_545
Pd2 Se3 2.591070 1_555
Pd2 Se0 2.895692 1_555
Pd3 Se3 2.480042 1_665
Pd3 Se2 2.591070 1_555
Pd3 Se1 2.895692 1_554
Pd4 Se0 2.480042 1_565
Pd4 Se1 2.591070 1_555
Pd4 Se2 2.895692 1_555
Pd5 Se1 2.480042 1_445
Pd5 Se0 2.591070 1_555
Pd5 Se3 2.895692 1_556
Pd6 Se3 2.466737 1_555
Pd6 Se2 2.518087 1_555
Pd7 Se2 2.466737 1_455
Pd7 Se3 2.518087 1_555
Pd8 Se1 2.466737 1_555
Pd8 Se0 2.518087 1_555
Pd9 Se0 2.466737 1_655
Pd9 Se1 2.518087 1_555
Pd10 Se1 2.482258 1_554
Pd10 Se3 2.559189 1_565
Pd11 Se0 2.482258 1_655
Pd11 Se2 2.559189 1_545
Pd12 Se0 2.457996 1_555
Pd12 Se2 2.457996 1_555
Pd13 Se3 2.457996 1_555
Pd13 Se1 2.457996 1_454
