# generated using pymatgen
data_Ti3H2O7
_symmetry_space_group_name_H-M   'P 1'
_cell_length_a   8.31655307
_cell_length_b   8.31655307
_cell_length_c   9.29680581
_cell_angle_alpha   78.83766617
_cell_angle_beta   78.83766617
_cell_angle_gamma   26.28647867
_symmetry_Int_Tables_number   1
_chemical_formula_structural   Ti3H2O7
_chemical_formula_sum   'Ti6 H4 O14'
_cell_volume   279.08125870
_cell_formula_units_Z   2
loop_
 _symmetry_equiv_pos_site_id
 _symmetry_equiv_pos_as_xyz
  1  'x, y, z'
loop_
 _atom_site_type_symbol
 _atom_site_label
 _atom_site_symmetry_multiplicity
 _atom_site_fract_x
 _atom_site_fract_y
 _atom_site_fract_z
 _atom_site_occupancy
  Ti  Ti0  1  0.77229800  0.77229800  0.21233600  1
  Ti  Ti1  1  0.22711900  0.22711900  0.78410800  1
  Ti  Ti2  1  0.83214000  0.83214000  0.51535400  1
  Ti  Ti3  1  0.17720600  0.17720600  0.48503000  1
  Ti  Ti4  1  0.87357000  0.87357000  0.82246600  1
  Ti  Ti5  1  0.12068000  0.12068000  0.16671100  1
  H  H0  1  0.02103300  0.02103300  0.46364100  1
  H  H1  1  0.99996100  0.99996100  0.96630900  1
  H  H2  1  0.04665500  0.04665500  0.78777500  1
  H  H3  1  0.95565900  0.95565900  0.21110200  1
  O  O0  1  0.83253000  0.83253000  0.03063200  1
  O  O1  1  0.16797200  0.16797200  0.96476400  1
  O  O2  1  0.86557000  0.86557000  0.31615000  1
  O  O3  1  0.13417900  0.13417900  0.68194000  1
  O  O4  1  0.92090600  0.92090600  0.60768200  1
  O  O5  1  0.07832600  0.07832600  0.40108500  1
  O  O6  1  0.99076200  0.99076200  0.86156400  1
  O  O7  1  0.01219100  0.01219100  0.14017000  1
  O  O8  1  0.65177400  0.65177400  0.17729800  1
  O  O9  1  0.34691000  0.34691000  0.82104400  1
  O  O10  1  0.70648500  0.70648500  0.45867200  1
  O  O11  1  0.29490300  0.29490300  0.54489500  1
  O  O12  1  0.75997300  0.75997300  0.74948500  1
  O  O13  1  0.23833900  0.23833900  0.25464600  1
loop_
_geom_bond_atom_site_label_1
_geom_bond_atom_site_label_2
_geom_bond_distance
_geom_bond_site_symmetry_2
H0 O5 0.992383 1_555
H1 O6 1.013984 1_555
H1 O7 1.667075 1_666
H2 O6 1.021410 1_445
H2 O3 1.556689 1_555
H3 O7 1.016482 1_665
H3 O2 1.586333 1_555
O0 Ti0 1.774871 1_555
O0 Ti4 1.917211 1_554
O1 Ti1 1.760362 1_555
O1 Ti5 1.881444 1_556
O2 Ti2 1.823253 1_555
O2 Ti0 1.947724 1_555
O3 Ti3 1.824738 1_555
O3 Ti1 1.933102 1_555
O4 Ti2 1.815120 1_555
O4 Ti4 1.991577 1_555
O5 Ti3 1.916020 1_555
O5 Ti5 2.150358 1_555
O6 Ti4 2.002407 1_555
O7 Ti5 1.822407 1_555
O8 Ti5 1.964484 1_655
O8 Ti5 1.964484 1_565
O8 Ti0 2.042040 1_555
O9 Ti4 1.940377 1_455
O9 Ti4 1.940377 1_545
O9 Ti1 2.036564 1_555
O10 Ti3 1.953176 1_655
O10 Ti3 1.953176 1_565
O10 Ti2 2.201476 1_555
O10 Ti0 2.326037 1_555
O11 Ti2 1.987333 1_545
O11 Ti2 1.987333 1_455
O11 Ti3 2.089475 1_555
O11 Ti1 2.276058 1_555
O12 Ti1 1.973533 1_565
O12 Ti1 1.973533 1_655
O12 Ti4 2.083799 1_555
O12 Ti2 2.256689 1_555
O13 Ti0 1.986806 1_545
O13 Ti0 1.986806 1_455
O13 Ti3 2.173641 1_555
O13 Ti5 2.218048 1_555
