# generated using pymatgen
data_Al2Si2H4O9
_symmetry_space_group_name_H-M   'P 1'
_cell_length_a   5.23463002
_cell_length_b   5.23463002
_cell_length_c   14.53244944
_cell_angle_alpha   89.02868470
_cell_angle_beta   89.02868470
_cell_angle_gamma   120.05065010
_symmetry_Int_Tables_number   1
_chemical_formula_structural   Al2Si2H4O9
_chemical_formula_sum   'Al4 Si4 H8 O18'
_cell_volume   344.48429181
_cell_formula_units_Z   2
loop_
 _symmetry_equiv_pos_site_id
 _symmetry_equiv_pos_as_xyz
  1  'x, y, z'
loop_
 _atom_site_type_symbol
 _atom_site_label
 _atom_site_symmetry_multiplicity
 _atom_site_fract_x
 _atom_site_fract_y
 _atom_site_fract_z
 _atom_site_occupancy
  Al  Al0  1  0.55064400  0.21689500  0.73113300  1
  Al  Al1  1  0.21689500  0.55064400  0.23113300  1
  Al  Al2  1  0.89201400  0.88891800  0.73115800  1
  Al  Al3  1  0.88891800  0.89201400  0.23115800  1
  Si  Si0  1  0.57802700  0.54058300  0.54101800  1
  Si  Si1  1  0.54058300  0.57802700  0.04101800  1
  Si  Si2  1  0.89335800  0.19870200  0.54045900  1
  Si  Si3  1  0.19870200  0.89335800  0.04045900  1
  H  H0  1  0.22645000  0.75173800  0.65823300  1
  H  H1  1  0.75173800  0.22645000  0.15823300  1
  H  H2  1  0.87728300  0.54789100  0.85809900  1
  H  H3  1  0.54789100  0.87728300  0.35809900  1
  H  H4  1  0.21267100  0.24694000  0.85574400  1
  H  H5  1  0.24694000  0.21267100  0.35574400  1
  H  H6  1  0.52436200  0.85794700  0.85623300  1
  H  H7  1  0.85794700  0.52436200  0.35623300  1
  O  O0  1  0.73523200  0.37006600  0.49259600  1
  O  O1  1  0.37006600  0.73523200  0.99259600  1
  O  O2  1  0.74114300  0.87381600  0.49393500  1
  O  O3  1  0.87381600  0.74114300  0.99393500  1
  O  O4  1  0.23919200  0.38146700  0.50631300  1
  O  O5  1  0.38146700  0.23919200  0.00631300  1
  O  O6  1  0.60905000  0.55039300  0.65179600  1
  O  O7  1  0.55039300  0.60905000  0.15179600  1
  O  O8  1  0.84634000  0.17071800  0.65172100  1
  O  O9  1  0.17071800  0.84634000  0.15172100  1
  O  O10  1  0.22772000  0.93872900  0.65755700  1
  O  O11  1  0.93872900  0.22772000  0.15755700  1
  O  O12  1  0.82722400  0.54563300  0.79406700  1
  O  O13  1  0.54563300  0.82722400  0.29406700  1
  O  O14  1  0.21569300  0.15952600  0.79795500  1
  O  O15  1  0.15952600  0.21569300  0.29795500  1
  O  O16  1  0.60691800  0.93672000  0.79498300  1
  O  O17  1  0.93672000  0.60691800  0.29498300  1
loop_
_geom_bond_atom_site_label_1
_geom_bond_atom_site_label_2
_geom_bond_distance
_geom_bond_site_symmetry_2
Al0 O16 1.869367 1_545
Al0 O12 1.869985 1_555
Al0 O14 1.874154 1_555
Al0 O10 1.941605 1_545
Al0 O6 1.963582 1_555
Al0 O8 2.027251 1_555
Al1 O17 1.869367 1_455
Al1 O13 1.869985 1_555
Al1 O15 1.874154 1_555
Al1 O11 1.941605 1_455
Al1 O7 1.963582 1_555
Al1 O9 2.027251 1_555
Al2 O16 1.866828 1_555
Al2 O12 1.871721 1_555
Al2 O14 1.875707 1_665
Al2 O10 1.941145 1_655
Al2 O8 1.967398 1_565
Al2 O6 2.040275 1_555
Al3 O17 1.866828 1_555
Al3 O13 1.871721 1_555
Al3 O15 1.875707 1_665
Al3 O11 1.941145 1_565
Al3 O9 1.967398 1_655
Al3 O7 2.040275 1_555
H0 O10 0.975398 1_555
H1 O11 0.975398 1_555
H2 O12 0.969665 1_555
H3 O13 0.969665 1_555
H4 O14 0.966824 1_555
H5 O15 0.966824 1_555
H6 O16 0.972178 1_555
H7 O17 0.972178 1_555
O0 Si0 1.645112 1_555
O0 Si2 1.647911 1_555
O1 Si1 1.645112 1_556
O1 Si3 1.647911 1_556
O2 Si2 1.638396 1_565
O2 Si0 1.639520 1_555
O3 Si3 1.638396 1_656
O3 Si1 1.639520 1_556
O4 Si2 1.630220 1_455
O4 Si0 1.630653 1_555
O5 Si3 1.630220 1_545
O5 Si1 1.630653 1_555
O6 Si0 1.619884 1_555
O7 Si1 1.619884 1_555
O8 Si2 1.624438 1_555
O9 Si3 1.624438 1_555
