# generated using pymatgen
data_U2InRh2
_symmetry_space_group_name_H-M   'P 1'
_cell_length_a   7.64290944
_cell_length_b   7.64290944
_cell_length_c   3.60452431
_cell_angle_alpha   90.00000000
_cell_angle_beta   90.00000000
_cell_angle_gamma   89.99280342
_symmetry_Int_Tables_number   1
_chemical_formula_structural   U2InRh2
_chemical_formula_sum   'U4 In2 Rh4'
_cell_volume   210.55491435
_cell_formula_units_Z   2
loop_
 _symmetry_equiv_pos_site_id
 _symmetry_equiv_pos_as_xyz
  1  'x, y, z'
loop_
 _atom_site_type_symbol
 _atom_site_label
 _atom_site_symmetry_multiplicity
 _atom_site_fract_x
 _atom_site_fract_y
 _atom_site_fract_z
 _atom_site_occupancy
  U  U0  1  0.16791077  0.33208923  0.50000000  1
  U  U1  1  0.66793063  0.16793063  0.50000000  1
  U  U2  1  0.33206937  0.83206937  0.50000000  1
  U  U3  1  0.83208923  0.66791077  0.50000000  1
  In  In0  1  0.50000000  0.50000000  -0.00000000  1
  In  In1  1  -0.00000000  -0.00000000  -0.00000000  1
  Rh  Rh0  1  0.36023954  0.13976046  -0.00000000  1
  Rh  Rh1  1  0.63976046  0.86023954  -0.00000000  1
  Rh  Rh2  1  0.86026558  0.36026558  0.00000000  1
  Rh  Rh3  1  0.13973442  0.63973442  0.00000000  1
loop_
_geom_bond_atom_site_label_1
_geom_bond_atom_site_label_2
_geom_bond_distance
_geom_bond_site_symmetry_2
In0 Rh2 2.953214 1_555
In0 Rh3 2.953214 1_555
In0 Rh0 2.953351 1_555
In0 Rh1 2.953351 1_555
In0 U1 3.366893 1_554
In0 U1 3.366893 1_555
In0 U2 3.366893 1_555
In0 U2 3.366893 1_554
In0 U0 3.367193 1_554
In0 U3 3.367193 1_554
In0 U3 3.367193 1_555
In0 U0 3.367193 1_555
In1 Rh2 2.953214 1_455
In1 Rh3 2.953214 1_545
In1 Rh1 2.953351 1_445
In1 Rh0 2.953351 1_555
In1 U2 3.366893 1_544
In1 U2 3.366893 1_545
In1 U1 3.366893 1_454
In1 U1 3.366893 1_455
In1 U0 3.367193 1_554
In1 U3 3.367193 1_445
In1 U3 3.367193 1_444
In1 U0 3.367193 1_555
Rh0 U0 2.751203 1_554
Rh0 U0 2.751203 1_555
Rh0 U2 2.970675 1_544
Rh0 U1 2.970675 1_555
Rh0 U2 2.970675 1_545
Rh0 U1 2.970675 1_554
Rh1 U3 2.751203 1_554
Rh1 U3 2.751203 1_555
Rh1 U2 2.970675 1_554
Rh1 U2 2.970675 1_555
Rh1 U1 2.970675 1_565
Rh1 U1 2.970675 1_564
Rh2 U1 2.751451 1_554
Rh2 U1 2.751451 1_555
Rh2 U0 2.970358 1_655
Rh2 U0 2.970358 1_654
Rh2 U3 2.970358 1_554
Rh2 U3 2.970358 1_555
Rh3 U2 2.751451 1_555
Rh3 U2 2.751451 1_554
Rh3 U3 2.970358 1_455
Rh3 U3 2.970358 1_454
Rh3 U0 2.970358 1_554
Rh3 U0 2.970358 1_555
