# generated using pymatgen
data_La10(ErS3)9
_symmetry_space_group_name_H-M   'P 1'
_cell_length_a   3.93597878
_cell_length_b   15.02645322
_cell_length_c   18.88874372
_cell_angle_alpha   79.23227881
_cell_angle_beta   84.02269584
_cell_angle_gamma   82.47309875
_symmetry_Int_Tables_number   1
_chemical_formula_structural   La10(ErS3)9
_chemical_formula_sum   'La10 Er9 S27'
_cell_volume   1084.37982794
_cell_formula_units_Z   1
loop_
 _symmetry_equiv_pos_site_id
 _symmetry_equiv_pos_as_xyz
  1  'x, y, z'
loop_
 _atom_site_type_symbol
 _atom_site_label
 _atom_site_symmetry_multiplicity
 _atom_site_fract_x
 _atom_site_fract_y
 _atom_site_fract_z
 _atom_site_occupancy
  La  La0  1  0.12642857  0.95338597  0.79103552  1
  La  La1  1  0.04109292  0.60674468  0.30715702  1
  La  La2  1  0.11452578  0.15855183  0.60807786  1
  La  La3  1  0.95577917  0.39275842  0.69267276  1
  La  La4  1  0.87094645  0.04599495  0.20964987  1
  La  La5  1  0.81834955  0.46427299  0.89726259  1
  La  La6  1  0.79881235  0.67879815  0.71980204  1
  La  La7  1  0.88157717  0.84034677  0.39245486  1
  La  La8  1  0.19776912  0.32037789  0.28065939  1
  La  La9  1  0.18034704  0.53495314  0.10298579  1
  Er  Er0  1  0.17863683  0.71654544  0.92388207  1
  Er  Er1  1  0.81935841  0.28284111  0.07655960  1
  Er  Er2  1  0.57099523  0.38095615  0.47171447  1
  Er  Er3  1  0.99942548  -0.00006617  0.00026409  1
  Er  Er4  1  0.74977674  0.90839040  0.58699951  1
  Er  Er5  1  0.24560501  0.09056638  0.41349301  1
  Er  Er6  1  0.42407957  0.61799419  0.52868905  1
  Er  Er7  1  0.52626916  0.80742823  0.13975265  1
  Er  Er8  1  0.47295060  0.19213772  0.86045714  1
  S  S0  1  0.67589653  0.80349773  0.84183649  1
  S  S1  1  0.32158568  0.19591880  0.15870463  1
  S  S2  1  0.29812253  0.91303148  0.48566995  1
  S  S3  1  0.60493145  0.45332159  0.33250122  1
  S  S4  1  0.45223628  0.99337038  0.10118414  1
  S  S5  1  0.45696579  0.69565827  0.38628471  1
  S  S6  1  0.24425499  0.82741804  0.67962347  1
  S  S7  1  0.53945633  0.30317513  0.61408673  1
  S  S8  1  0.85736679  0.72773640  0.55264346  1
  S  S9  1  0.75173347  0.17170896  0.32086002  1
  S  S10  1  0.59302658  0.62600252  0.18565366  1
  S  S11  1  0.13789379  0.27127877  0.44764981  1
  S  S12  1  0.07542082  0.81296266  0.03598676  1
  S  S13  1  0.54638104  0.00623316  0.89941862  1
  S  S14  1  0.71504626  0.39902092  0.16902729  1
  S  S15  1  0.39112392  0.54606840  0.66793268  1
  S  S16  1  0.28266297  0.60031353  0.83141072  1
  S  S17  1  0.69724278  0.08593897  0.51481400  1
  S  S18  1  0.29882988  0.39295665  0.00773019  1
  S  S19  1  0.92365538  0.18683657  0.96421350  1
  S  S20  1  0.69962506  0.60632228  0.99256300  1
  S  S21  1  0.02532671  0.18133142  0.76626374  1
  S  S22  1  0.64288861  0.02569653  0.68463476  1
  S  S23  1  0.40521723  0.37350691  0.81432472  1
  S  S24  1  0.99742975  0.49925226  0.50062246  1
  S  S25  1  0.97363428  0.81785784  0.23405902  1
  S  S26  1  0.35389593  0.97322358  0.31592094  1
loop_
_geom_bond_atom_site_label_1
_geom_bond_atom_site_label_2
_geom_bond_distance
_geom_bond_site_symmetry_2
La0 S22 2.874688 1_565
La0 S22 2.877656 1_465
La0 S0 3.003224 1_555
La0 S0 3.003751 1_455
La0 S13 3.032014 1_465
La0 S13 3.034793 1_565
La0 S6 3.046601 1_555
La0 S21 3.345475 1_565
La1 S5 2.920086 1_555
La1 S5 2.920717 1_455
La1 S10 2.987022 1_455
La1 S3 2.989593 1_555
La1 S3 2.990739 1_455
La1 S10 2.991396 1_555
La1 S25 3.203020 1_455
La1 S24 3.705260 1_455
La2 S7 2.934079 1_455
La2 S7 2.935441 1_555
La2 S17 2.962334 1_555
La2 S17 2.963399 1_455
La2 S22 2.975847 1_455
La2 S22 2.976794 1_555
La2 S21 3.049650 1_555
La2 S11 3.182003 1_555
La3 S7 2.918809 1_655
La3 S7 2.920905 1_555
La3 S15 2.987754 1_655
La3 S15 2.989570 1_555
La3 S23 2.989730 1_555
La3 S23 2.992864 1_655
La3 S21 3.209634 1_655
La3 S24 3.677337 1_555
La4 S26 2.875481 1_645
La4 S26 2.877283 1_545
La4 S1 3.003960 1_555
La4 S1 3.004760 1_655
La4 S4 3.031305 1_545
La4 S4 3.035228 1_645
La4 S9 3.040798 1_555
La4 S25 3.348579 1_545
La5 S18 2.921215 1_556
La5 S18 2.921326 1_656
La5 S16 2.936158 1_655
La5 S16 2.939127 1_555
La5 S23 2.978002 1_555
La5 S23 2.978154 1_655
La5 S20 3.002336 1_555
La6 S6 2.958469 1_655
La6 S6 2.960108 1_555
La6 S16 2.961260 1_555
La6 S16 2.963231 1_655
La6 S15 3.067362 1_555
La6 S15 3.067431 1_655
La6 S8 3.096518 1_555
La6 S0 3.194165 1_555
La7 S5 2.935851 1_655
La7 S5 2.936125 1_555
La7 S2 2.961403 1_655
La7 S2 2.964134 1_555
La7 S26 2.974990 1_555
La7 S26 2.977707 1_655
La7 S25 3.052354 1_555
La7 S8 3.177532 1_555
La8 S9 2.959086 1_555
La8 S9 2.960622 1_455
La8 S14 2.961026 1_455
La8 S14 2.965306 1_555
La8 S3 3.068280 1_555
La8 S3 3.070534 1_455
La8 S11 3.093586 1_555
La8 S1 3.190403 1_555
La9 S20 2.920347 1_554
La9 S20 2.921481 1_454
La9 S14 2.936994 1_555
La9 S14 2.938446 1_455
La9 S10 2.976094 1_555
La9 S10 2.978566 1_455
La9 S18 3.001093 1_555
Er0 S16 2.659424 1_555
Er0 S0 2.687218 1_555
Er0 S0 2.688705 1_455
Er0 S20 2.736178 1_455
Er0 S20 2.737251 1_555
Er0 S12 2.749715 1_556
Er1 S14 2.658777 1_555
Er1 S1 2.688156 1_655
Er1 S1 2.689253 1_555
Er1 S18 2.736506 1_555
Er1 S18 2.737311 1_655
Er1 S19 2.749572 1_554
Er2 S11 2.646879 1_555
Er2 S11 2.647020 1_655
Er2 S3 2.647896 1_555
Er2 S7 2.721665 1_555
Er2 S24 2.758447 1_455
Er2 S24 2.758669 1_555
Er3 S13 2.721014 1_654
Er3 S4 2.722358 1_645
Er3 S4 2.722572 1_545
Er3 S13 2.722669 1_554
Er3 S19 2.747452 1_554
Er3 S12 2.748027 1_645
Er4 S2 2.730333 1_555
Er4 S2 2.730493 1_655
Er4 S22 2.746632 1_565
Er4 S17 2.752207 1_565
Er4 S6 2.759380 1_555
Er4 S6 2.760911 1_655
Er4 S8 2.875637 1_555
Er5 S17 2.730202 1_555
Er5 S17 2.730440 1_455
Er5 S26 2.746120 1_545
Er5 S2 2.751976 1_545
Er5 S9 2.759905 1_455
Er5 S9 2.762231 1_555
Er5 S11 2.875032 1_555
Er6 S8 2.646590 1_455
Er6 S15 2.646897 1_555
Er6 S8 2.647404 1_555
Er6 S5 2.721771 1_555
Er6 S24 2.758030 1_555
Er6 S24 2.758353 1_455
Er7 S25 2.669840 1_555
Er7 S25 2.671524 1_455
Er7 S10 2.688760 1_555
Er7 S4 2.737279 1_555
Er7 S12 2.760853 1_555
Er7 S12 2.761208 1_655
Er8 S21 2.669948 1_655
Er8 S21 2.670530 1_555
Er8 S23 2.688589 1_555
Er8 S13 2.737391 1_555
Er8 S19 2.760968 1_555
Er8 S19 2.761501 1_455
