# generated using pymatgen
data_Ba2Y(CuO2)4
_symmetry_space_group_name_H-M   'P 1'
_cell_length_a   13.88942687
_cell_length_b   13.88942687
_cell_length_c   3.88992200
_cell_angle_alpha   90.00000000
_cell_angle_beta   90.00000000
_cell_angle_gamma   163.86029294
_symmetry_Int_Tables_number   1
_chemical_formula_structural   Ba2Y(CuO2)4
_chemical_formula_sum   'Ba2 Y1 Cu4 O8'
_cell_volume   208.60454116
_cell_formula_units_Z   1
loop_
 _symmetry_equiv_pos_site_id
 _symmetry_equiv_pos_as_xyz
  1  'x, y, z'
loop_
 _atom_site_type_symbol
 _atom_site_label
 _atom_site_symmetry_multiplicity
 _atom_site_fract_x
 _atom_site_fract_y
 _atom_site_fract_z
 _atom_site_occupancy
  Ba  Ba0  1  0.36427000  0.63573000  0.50000000  1
  Ba  Ba1  1  0.63573000  0.36427000  0.50000000  1
  Y  Y0  1  0.50000000  0.50000000  0.50000000  1
  Cu  Cu0  1  0.06155000  0.93845000  0.00000000  1
  Cu  Cu1  1  0.93845000  0.06155000  0.00000000  1
  Cu  Cu2  1  0.21265200  0.78734800  0.00000000  1
  Cu  Cu3  1  0.78734800  0.21265200  0.00000000  1
  O  O0  1  0.14540900  0.85459100  0.00000000  1
  O  O1  1  0.85459100  0.14540900  0.00000000  1
  O  O2  1  0.55209400  0.44790600  0.00000000  1
  O  O3  1  0.44790600  0.55209400  0.00000000  1
  O  O4  1  0.05227800  0.94772200  0.50000000  1
  O  O5  1  0.94772200  0.05227800  0.50000000  1
  O  O6  1  0.71848100  0.28151900  0.00000000  1
  O  O7  1  0.28151900  0.71848100  0.00000000  1
loop_
_geom_bond_atom_site_label_1
_geom_bond_atom_site_label_2
_geom_bond_distance
_geom_bond_site_symmetry_2
Ba0 O1 2.766852 1_565
Ba0 O1 2.766852 1_566
Ba0 O1 2.766852 1_456
Ba0 O1 2.766852 1_455
Ba0 O7 2.993809 1_556
Ba0 O7 2.993809 1_555
Ba0 O5 3.011624 1_565
Ba0 O5 3.011624 1_455
Ba0 O3 3.012355 1_556
Ba0 O3 3.012355 1_555
Ba1 O0 2.766852 1_655
Ba1 O0 2.766852 1_656
Ba1 O0 2.766852 1_546
Ba1 O0 2.766852 1_545
Ba1 O6 2.993809 1_556
Ba1 O6 2.993809 1_555
Ba1 O4 3.011624 1_655
Ba1 O4 3.011624 1_545
Ba1 O2 3.012355 1_555
Ba1 O2 3.012355 1_556
Cu0 O4 1.961608 1_555
Cu0 O4 1.961608 1_554
Cu0 O2 1.967071 1_565
Cu0 O2 1.967071 1_455
Cu0 O0 2.306439 1_555
Cu1 O5 1.961608 1_554
Cu1 O5 1.961608 1_555
Cu1 O3 1.967071 1_655
Cu1 O3 1.967071 1_545
Cu1 O1 2.306439 1_555
Cu2 O0 1.849437 1_555
Cu2 O7 1.894103 1_555
Cu2 O6 1.956382 1_565
Cu2 O6 1.956382 1_455
Cu3 O1 1.849437 1_555
Cu3 O6 1.894103 1_555
Cu3 O7 1.956382 1_545
Cu3 O7 1.956382 1_655
O2 Y0 2.415727 1_555
O2 Y0 2.415727 1_554
O3 Y0 2.415727 1_555
O3 Y0 2.415727 1_554
O4 Y0 2.422626 1_565
O4 Y0 2.422626 1_455
O5 Y0 2.422626 1_655
O5 Y0 2.422626 1_545
