# generated using pymatgen
data_LiSn2P3O10
_symmetry_space_group_name_H-M   'P 1'
_cell_length_a   7.84913600
_cell_length_b   10.30806500
_cell_length_c   12.30863224
_cell_angle_alpha   78.48628361
_cell_angle_beta   90.00000000
_cell_angle_gamma   90.00000000
_symmetry_Int_Tables_number   1
_chemical_formula_structural   LiSn2P3O10
_chemical_formula_sum   'Li4 Sn8 P12 O40'
_cell_volume   975.84387261
_cell_formula_units_Z   4
loop_
 _symmetry_equiv_pos_site_id
 _symmetry_equiv_pos_as_xyz
  1  'x, y, z'
loop_
 _atom_site_type_symbol
 _atom_site_label
 _atom_site_symmetry_multiplicity
 _atom_site_fract_x
 _atom_site_fract_y
 _atom_site_fract_z
 _atom_site_occupancy
  Li  Li0  1  0.15393800  0.38268400  0.15992100  1
  Li  Li1  1  0.65393800  0.11731600  0.84007900  1
  Li  Li2  1  0.34606200  0.88268400  0.15992100  1
  Li  Li3  1  0.84606200  0.61731600  0.84007900  1
  Sn  Sn0  1  0.49282000  0.43266300  0.87208100  1
  Sn  Sn1  1  0.99282000  0.06733700  0.12791900  1
  Sn  Sn2  1  0.50718000  0.56733700  0.12791900  1
  Sn  Sn3  1  0.00718000  0.93266300  0.87208100  1
  Sn  Sn4  1  0.89446100  0.19716100  0.42473700  1
  Sn  Sn5  1  0.39446100  0.30283900  0.57526300  1
  Sn  Sn6  1  0.10553900  0.80283900  0.57526300  1
  Sn  Sn7  1  0.60553900  0.69716100  0.42473700  1
  P  P0  1  0.93606300  0.57441400  0.26759700  1
  P  P1  1  0.56393700  0.07441400  0.26759700  1
  P  P2  1  0.09474000  0.69849800  0.05453600  1
  P  P3  1  0.70877000  0.46858400  0.65134800  1
  P  P4  1  0.90526000  0.30150200  0.94546400  1
  P  P5  1  0.06393700  0.42558600  0.73240300  1
  P  P6  1  0.20877000  0.03141600  0.34865200  1
  P  P7  1  0.43606300  0.92558600  0.73240300  1
  P  P8  1  0.79123000  0.96858400  0.65134800  1
  P  P9  1  0.29123000  0.53141600  0.34865200  1
  P  P10  1  0.40526000  0.19849800  0.05453600  1
  P  P11  1  0.59474000  0.80150200  0.94546400  1
  O  O0  1  0.81209800  0.99081500  0.52525800  1
  O  O1  1  0.06964700  0.13622800  0.29538500  1
  O  O2  1  0.70411200  0.58792200  0.70467400  1
  O  O3  1  0.35051400  0.33483000  0.07094200  1
  O  O4  1  0.56289700  0.15109000  0.13990200  1
  O  O5  1  0.88719000  0.38702000  0.68033100  1
  O  O6  1  0.22872900  0.58791200  0.08354500  1
  O  O7  1  0.79588800  0.08792200  0.70467400  1
  O  O8  1  0.57689700  0.92846000  0.27035900  1
  O  O9  1  0.18790200  0.00918500  0.47474200  1
  O  O10  1  0.77127100  0.41208800  0.91645500  1
  O  O11  1  0.29588800  0.41207800  0.29532600  1
  O  O12  1  0.29899700  0.85463000  0.68077700  1
  O  O13  1  0.11281000  0.61298000  0.31966900  1
  O  O14  1  0.70100300  0.14537000  0.31922300  1
  O  O15  1  0.38719000  0.11298000  0.31966900  1
  O  O16  1  0.79899700  0.64537000  0.31922300  1
  O  O17  1  0.14948600  0.83483000  0.07094200  1
  O  O18  1  0.06289700  0.34891000  0.86009800  1
  O  O19  1  0.20100300  0.35463000  0.68077700  1
  O  O20  1  0.92310300  0.42846000  0.27035900  1
  O  O21  1  0.20411200  0.91207800  0.29532600  1
  O  O22  1  0.61281000  0.88702000  0.68033100  1
  O  O23  1  0.43710300  0.84891000  0.86009800  1
  O  O24  1  0.98395600  0.29047200  0.06186500  1
  O  O25  1  0.51604400  0.79047200  0.06186500  1
  O  O26  1  0.93710300  0.65109000  0.13990200  1
  O  O27  1  0.07689700  0.57154000  0.72964100  1
  O  O28  1  0.27127100  0.08791200  0.08354500  1
  O  O29  1  0.68790200  0.49081500  0.52525800  1
  O  O30  1  0.42310300  0.07154000  0.72964100  1
  O  O31  1  0.56964700  0.36377200  0.70461500  1
  O  O32  1  0.01604400  0.70952800  0.93813500  1
  O  O33  1  0.31209800  0.50918500  0.47474200  1
  O  O34  1  0.64948600  0.66517000  0.92905800  1
  O  O35  1  0.93035300  0.86377200  0.70461500  1
  O  O36  1  0.48395600  0.20952800  0.93813500  1
  O  O37  1  0.43035300  0.63622800  0.29538500  1
  O  O38  1  0.85051400  0.16517000  0.92905800  1
  O  O39  1  0.72872900  0.91208800  0.91645500  1
loop_
_geom_bond_atom_site_label_1
_geom_bond_atom_site_label_2
_geom_bond_distance
_geom_bond_site_symmetry_2
Li0 O3 2.009771 1_555
Li0 O11 2.076663 1_555
Li0 O24 2.144363 1_455
Li0 O6 2.215810 1_555
Li0 O20 2.368404 1_455
Li1 O38 2.009771 1_555
Li1 O7 2.076663 1_555
Li1 O36 2.144363 1_555
Li1 O39 2.215810 1_545
Li1 O30 2.368404 1_555
Li2 O17 2.009771 1_555
Li2 O21 2.076663 1_555
Li2 O25 2.144363 1_555
Li2 O28 2.215810 1_565
Li2 O8 2.368404 1_555
Li3 O34 2.009771 1_555
Li3 O2 2.076663 1_555
Li3 O32 2.144363 1_655
Li3 O10 2.215810 1_555
Li3 O27 2.368404 1_655
O0 P8 1.531683 1_555
O0 Sn4 2.328613 1_565
O1 P6 1.583295 1_555
O1 Sn4 2.284610 1_455
O1 Sn1 2.387706 1_455
O2 P3 1.505903 1_555
O3 P10 1.521065 1_555
O3 Sn0 2.696388 1_554
O4 P1 1.612217 1_555
O4 P10 1.633655 1_555
O5 P5 1.610958 1_655
O5 P3 1.635744 1_555
O6 P2 1.539646 1_555
O6 Sn2 2.252532 1_555
O7 P8 1.505903 1_545
O8 P1 1.501538 1_565
O8 Sn7 2.745407 1_555
O9 P6 1.531683 1_555
O9 Sn6 2.328613 1_545
O10 P4 1.539646 1_555
O10 Sn0 2.252532 1_555
O11 P9 1.505903 1_555
O12 P7 1.510549 1_555
O12 Sn6 2.134077 1_555
O13 P0 1.610958 1_455
O13 P9 1.635744 1_555
O14 P1 1.510549 1_555
O14 Sn4 2.134077 1_555
O15 P1 1.610958 1_555
O15 P6 1.635744 1_555
O16 P0 1.510549 1_555
O16 Sn7 2.134077 1_555
O17 P2 1.521065 1_555
O17 Sn3 2.696388 1_554
O18 P5 1.612217 1_555
O18 P4 1.633655 1_455
O19 P5 1.510549 1_555
O19 Sn5 2.134077 1_555
O20 P0 1.501538 1_555
O20 Sn4 2.745407 1_555
O21 P6 1.505903 1_565
O22 P7 1.610958 1_555
O22 P8 1.635744 1_555
O23 P7 1.612217 1_555
O23 P11 1.633655 1_555
O24 P4 1.543431 1_554
O24 Sn1 2.282487 1_555
O25 P11 1.543431 1_554
O25 Sn2 2.282487 1_555
O26 P0 1.612217 1_555
O26 P2 1.633655 1_655
O27 P5 1.501538 1_555
O27 Sn6 2.745407 1_555
O28 P10 1.539646 1_555
O28 Sn1 2.252532 1_455
O29 P3 1.531683 1_555
O29 Sn7 2.328613 1_555
O30 P7 1.501538 1_545
O30 Sn5 2.745407 1_555
O31 P3 1.583295 1_555
O31 Sn5 2.284610 1_555
O31 Sn0 2.387706 1_555
O32 P2 1.543431 1_556
O32 Sn3 2.282487 1_555
O33 P9 1.531683 1_555
O33 Sn5 2.328613 1_555
O34 P11 1.521065 1_555
O34 Sn2 2.696388 1_556
O35 P8 1.583295 1_555
O35 Sn6 2.284610 1_655
O35 Sn3 2.387706 1_655
O36 P10 1.543431 1_556
O36 Sn0 2.282487 1_555
O37 P9 1.583295 1_555
O37 Sn7 2.284610 1_555
O37 Sn2 2.387706 1_555
O38 P4 1.521065 1_555
O38 Sn1 2.696388 1_556
O39 P11 1.539646 1_555
O39 Sn3 2.252532 1_655
