# generated using pymatgen
data_Ba2Tl(NO2)5
_symmetry_space_group_name_H-M   'P 1'
_cell_length_a   4.97093900
_cell_length_b   13.42980500
_cell_length_c   19.04292100
_cell_angle_alpha   90.00000000
_cell_angle_beta   90.00000000
_cell_angle_gamma   90.00000000
_symmetry_Int_Tables_number   1
_chemical_formula_structural   Ba2Tl(NO2)5
_chemical_formula_sum   'Ba8 Tl4 N20 O40'
_cell_volume   1271.28143924
_cell_formula_units_Z   4
loop_
 _symmetry_equiv_pos_site_id
 _symmetry_equiv_pos_as_xyz
  1  'x, y, z'
loop_
 _atom_site_type_symbol
 _atom_site_label
 _atom_site_symmetry_multiplicity
 _atom_site_fract_x
 _atom_site_fract_y
 _atom_site_fract_z
 _atom_site_occupancy
  Ba  Ba0  1  0.15701900  0.75196900  0.34640400  1
  Ba  Ba1  1  0.99759200  0.63250100  0.59954000  1
  Ba  Ba2  1  0.84298100  0.25196900  0.65359600  1
  Ba  Ba3  1  0.00240800  0.13250100  0.40046000  1
  Ba  Ba4  1  0.99759200  0.13250100  0.90046000  1
  Ba  Ba5  1  0.00240800  0.63250100  0.09954000  1
  Ba  Ba6  1  0.84298100  0.75196900  0.84640400  1
  Ba  Ba7  1  0.15701900  0.25196900  0.15359600  1
  Tl  Tl0  1  0.46671200  0.89599600  0.11419400  1
  Tl  Tl1  1  0.53328800  0.89599600  0.61419400  1
  Tl  Tl2  1  0.53328800  0.39599600  0.88580600  1
  Tl  Tl3  1  0.46671200  0.39599600  0.38580600  1
  N  N0  1  0.54877200  0.20531900  0.27343700  1
  N  N1  1  0.61518500  0.94801800  0.37673300  1
  N  N2  1  0.01125300  0.49585800  0.96904300  1
  N  N3  1  0.88763000  0.99740400  0.74664100  1
  N  N4  1  0.45122800  0.20531900  0.77343700  1
  N  N5  1  0.88763000  0.49740400  0.75335900  1
  N  N6  1  0.98874700  0.99585800  0.03095700  1
  N  N7  1  0.54877200  0.70531900  0.22656300  1
  N  N8  1  0.11237000  0.49740400  0.25335900  1
  N  N9  1  0.39753200  0.14431700  0.53154600  1
  N  N10  1  0.38481500  0.94801800  0.87673300  1
  N  N11  1  0.39753200  0.64431700  0.96845400  1
  N  N12  1  0.60246800  0.14431700  0.03154600  1
  N  N13  1  0.11237000  0.99740400  0.24664100  1
  N  N14  1  0.01125300  0.99585800  0.53095700  1
  N  N15  1  0.61518500  0.44801800  0.12326700  1
  N  N16  1  0.98874700  0.49585800  0.46904300  1
  N  N17  1  0.38481500  0.44801800  0.62326700  1
  N  N18  1  0.60246800  0.64431700  0.46845400  1
  N  N19  1  0.45122800  0.70531900  0.72656300  1
  O  O0  1  0.02271600  0.91971400  0.00330100  1
  O  O1  1  0.17003700  0.54956800  0.30676100  1
  O  O2  1  0.83137900  0.90546100  0.74096200  1
  O  O3  1  0.97728400  0.91971400  0.50330100  1
  O  O4  1  0.67304200  0.86363100  0.35097100  1
  O  O5  1  0.47866300  0.68598500  0.16315000  1
  O  O6  1  0.67304200  0.36363100  0.14902900  1
  O  O7  1  0.08108600  0.31124800  0.43732000  1
  O  O8  1  0.37031100  0.95742500  0.39498400  1
  O  O9  1  0.35085000  0.15211100  0.01942200  1
  O  O10  1  0.64915000  0.15211100  0.51942200  1
  O  O11  1  0.91891400  0.31124800  0.93732000  1
  O  O12  1  0.79943900  0.70846700  0.23553300  1
  O  O13  1  0.62968900  0.95742500  0.89498400  1
  O  O14  1  0.32695800  0.36363100  0.64902900  1
  O  O15  1  0.02271600  0.41971400  0.49669900  1
  O  O16  1  0.47866300  0.18598500  0.33685000  1
  O  O17  1  0.52133700  0.18598500  0.83685000  1
  O  O18  1  0.37031100  0.45742500  0.10501600  1
  O  O19  1  0.32866900  0.16653700  0.59345000  1
  O  O20  1  0.62968900  0.45742500  0.60501600  1
  O  O21  1  0.16862100  0.90546100  0.24096200  1
  O  O22  1  0.82996300  0.04956800  0.69323900  1
  O  O23  1  0.67133100  0.16653700  0.09345000  1
  O  O24  1  0.64915000  0.65211100  0.98057800  1
  O  O25  1  0.52133700  0.68598500  0.66315000  1
  O  O26  1  0.20056100  0.20846700  0.76446700  1
  O  O27  1  0.83137900  0.40546100  0.75903800  1
  O  O28  1  0.82996300  0.54956800  0.80676100  1
  O  O29  1  0.79943900  0.20846700  0.26446700  1
  O  O30  1  0.32695800  0.86363100  0.85097100  1
  O  O31  1  0.32866900  0.66653700  0.90655000  1
  O  O32  1  0.16862100  0.40546100  0.25903800  1
  O  O33  1  0.17003700  0.04956800  0.19323900  1
  O  O34  1  0.08108600  0.81124800  0.06268000  1
  O  O35  1  0.91891400  0.81124800  0.56268000  1
  O  O36  1  0.20056100  0.70846700  0.73553300  1
  O  O37  1  0.35085000  0.65211100  0.48057800  1
  O  O38  1  0.67133100  0.66653700  0.40655000  1
  O  O39  1  0.97728400  0.41971400  0.99669900  1
loop_
_geom_bond_atom_site_label_1
_geom_bond_atom_site_label_2
_geom_bond_distance
_geom_bond_site_symmetry_2
Ba0 O12 2.821077 1_455
Ba0 O1 2.821832 1_555
Ba0 O4 2.836253 1_455
Ba0 O21 2.878249 1_555
Ba0 O38 2.908124 1_455
Ba0 O4 2.972574 1_555
Ba0 O38 3.027291 1_555
Ba0 O37 3.042238 1_555
Ba0 N7 3.064780 1_555
Ba0 O8 3.097313 1_555
Ba1 O35 2.531449 1_555
Ba1 O25 2.754627 1_555
Ba1 O37 2.878358 1_655
Ba1 O25 2.959976 1_655
Ba1 O36 2.960636 1_655
Ba1 O20 2.980567 1_555
Ba1 N16 3.089487 1_555
Ba1 N17 3.169795 1_655
Ba1 N18 3.180304 1_555
Ba2 O26 2.821077 1_655
Ba2 O22 2.821832 1_555
Ba2 O14 2.836253 1_655
Ba2 O27 2.878249 1_555
Ba2 O19 2.908124 1_655
Ba2 O14 2.972574 1_555
Ba2 O19 3.027291 1_555
Ba2 O10 3.042238 1_555
Ba2 N4 3.064780 1_555
Ba2 O20 3.097313 1_555
Ba3 O7 2.531449 1_555
Ba3 O16 2.754627 1_555
Ba3 O10 2.878358 1_455
Ba3 O16 2.959976 1_455
Ba3 O29 2.960636 1_455
Ba3 O8 2.980567 1_545
Ba3 N14 3.089487 1_545
Ba3 N1 3.169795 1_445
Ba3 N9 3.180304 1_555
Ba4 O11 2.531449 1_555
Ba4 O17 2.754627 1_555
Ba4 O9 2.878358 1_656
Ba4 O17 2.959976 1_655
Ba4 O26 2.960636 1_655
Ba4 O13 2.980567 1_545
Ba4 N6 3.089487 1_546
Ba4 N10 3.169795 1_645
Ba4 N12 3.180304 1_556
Ba5 O34 2.531449 1_555
Ba5 O5 2.754627 1_555
Ba5 O24 2.878358 1_454
Ba5 O5 2.959976 1_455
Ba5 O12 2.960636 1_455
Ba5 O18 2.980567 1_555
Ba5 N2 3.089487 1_554
Ba5 N15 3.169795 1_455
Ba5 N11 3.180304 1_554
Ba6 O36 2.821077 1_655
Ba6 O28 2.821832 1_555
Ba6 O30 2.836253 1_655
Ba6 O2 2.878249 1_555
Ba6 O31 2.908124 1_655
Ba6 O30 2.972574 1_555
Ba6 O31 3.027291 1_555
Ba6 O24 3.042238 1_555
Ba6 N19 3.064780 1_555
Ba6 O13 3.097313 1_555
Ba7 O29 2.821077 1_455
Ba7 O33 2.821832 1_555
Ba7 O6 2.836253 1_455
Ba7 O32 2.878249 1_555
Ba7 O23 2.908124 1_455
Ba7 O6 2.972574 1_555
Ba7 O23 3.027291 1_555
Ba7 O9 3.042238 1_555
Ba7 N0 3.064780 1_555
Ba7 O18 3.097313 1_555
N0 O29 1.258414 1_555
N0 O16 1.283394 1_555
N1 O4 1.267974 1_555
N1 O8 1.272187 1_555
N2 O39 1.162576 1_455
N3 O22 1.267712 1_565
N3 O2 1.270652 1_555
N4 O26 1.258414 1_555
N4 O17 1.283394 1_555
N5 O28 1.267712 1_555
N5 O27 1.270652 1_555
N6 O0 1.162576 1_655
N7 O12 1.258414 1_555
N7 O5 1.283394 1_555
N8 O1 1.267712 1_555
N8 O32 1.270652 1_555
N9 O19 1.263279 1_555
N9 O10 1.276207 1_555
N10 O30 1.267974 1_555
N10 O13 1.272187 1_555
N11 O31 1.263279 1_555
N11 O24 1.276207 1_555
N12 O23 1.263279 1_555
N12 O9 1.276207 1_555
N13 O33 1.267712 1_565
N13 O21 1.270652 1_555
N14 O3 1.162576 1_455
N15 O6 1.267974 1_555
N15 O18 1.272187 1_555
N16 O15 1.162576 1_655
N17 O14 1.267974 1_555
N17 O20 1.272187 1_555
N18 O38 1.263279 1_555
N18 O37 1.276207 1_555
N19 O36 1.258414 1_555
N19 O25 1.283394 1_555
O0 O34 1.866733 1_555
O3 O35 1.866733 1_555
O7 Tl3 2.435630 1_555
O11 O39 1.866733 1_555
O11 Tl2 2.435630 1_555
O15 O7 1.866733 1_555
O34 Tl0 2.435630 1_555
O35 Tl1 2.435630 1_555
