# generated using pymatgen
data_Tl3PbCl5
_symmetry_space_group_name_H-M   'P 1'
_cell_length_a   8.26255348
_cell_length_b   8.67363456
_cell_length_c   14.91573589
_cell_angle_alpha   90.00000000
_cell_angle_beta   90.00000000
_cell_angle_gamma   90.00000000
_symmetry_Int_Tables_number   1
_chemical_formula_structural   Tl3PbCl5
_chemical_formula_sum   'Tl12 Pb4 Cl20'
_cell_volume   1068.95663843
_cell_formula_units_Z   4
loop_
 _symmetry_equiv_pos_site_id
 _symmetry_equiv_pos_as_xyz
  1  'x, y, z'
loop_
 _atom_site_type_symbol
 _atom_site_label
 _atom_site_symmetry_multiplicity
 _atom_site_fract_x
 _atom_site_fract_y
 _atom_site_fract_z
 _atom_site_occupancy
  Tl  Tl0  1  0.06386340  0.59266492  0.71410589  1
  Tl  Tl1  1  0.09452701  0.66785950  0.02086760  1
  Tl  Tl2  1  0.77206646  0.70387774  0.55101719  1
  Tl  Tl3  1  0.27206646  0.79612226  0.44898281  1
  Tl  Tl4  1  0.59452701  0.83214050  0.97913240  1
  Tl  Tl5  1  0.56386340  0.90733508  0.28589411  1
  Tl  Tl6  1  0.93613660  0.09266492  0.78589411  1
  Tl  Tl7  1  0.90547299  0.16785950  0.47913240  1
  Tl  Tl8  1  0.22793354  0.20387774  0.94898281  1
  Tl  Tl9  1  0.72793354  0.29612226  0.05101719  1
  Tl  Tl10  1  0.40547299  0.33214050  0.52086760  1
  Tl  Tl11  1  0.43613660  0.40733508  0.21410589  1
  Pb  Pb0  1  0.92636649  0.53900906  0.29506300  1
  Pb  Pb1  1  0.42636649  0.96099094  0.70493700  1
  Pb  Pb2  1  0.07363351  0.03900906  0.20493700  1
  Pb  Pb3  1  0.57363351  0.46099094  0.79506300  1
  Cl  Cl0  1  0.07313220  0.49819799  0.47860636  1
  Cl  Cl1  1  0.60983131  0.54880702  0.38830912  1
  Cl  Cl2  1  0.74491028  0.65778637  0.15353919  1
  Cl  Cl3  1  0.41543171  0.65208773  0.63478766  1
  Cl  Cl4  1  0.22107092  0.70597447  0.22880573  1
  Cl  Cl5  1  0.72107092  0.79402553  0.77119427  1
  Cl  Cl6  1  0.91543171  0.84791227  0.36521234  1
  Cl  Cl7  1  0.24491028  0.84221363  0.84646081  1
  Cl  Cl8  1  0.10983131  0.95119298  0.61169088  1
  Cl  Cl9  1  0.57313220  0.00180201  0.52139364  1
  Cl  Cl10  1  0.92686780  0.99819799  0.02139364  1
  Cl  Cl11  1  0.39016869  0.04880702  0.11169088  1
  Cl  Cl12  1  0.25508972  0.15778637  0.34646081  1
  Cl  Cl13  1  0.58456829  0.15208773  0.86521234  1
  Cl  Cl14  1  0.77892908  0.20597447  0.27119427  1
  Cl  Cl15  1  0.27892908  0.29402553  0.72880573  1
  Cl  Cl16  1  0.08456829  0.34791227  0.13478766  1
  Cl  Cl17  1  0.75508972  0.34221363  0.65353919  1
  Cl  Cl18  1  0.89016869  0.45119298  0.88830912  1
  Cl  Cl19  1  0.42686780  0.50180201  0.97860636  1
loop_
_geom_bond_atom_site_label_1
_geom_bond_atom_site_label_2
_geom_bond_distance
_geom_bond_site_symmetry_2
Cl0 Pb0 3.015089 1_455
Cl0 Tl3 3.094270 1_555
Cl0 Tl10 3.164222 1_555
Cl0 Tl7 3.182558 1_455
Cl0 Tl2 3.246101 1_455
Cl1 Pb0 2.963427 1_555
Cl1 Tl2 3.081537 1_555
Cl1 Tl10 3.208141 1_555
Cl1 Tl11 3.211998 1_555
Cl2 Pb0 2.786626 1_555
Cl2 Tl4 3.255494 1_554
Cl3 Pb1 2.877792 1_555
Cl3 Tl0 3.178603 1_555
Cl3 Pb3 3.189208 1_555
Cl3 Tl2 3.232051 1_555
Cl3 Tl10 3.255037 1_555
Cl3 Tl3 3.262621 1_555
Cl4 Pb0 3.000540 1_455
Cl4 Tl11 3.148868 1_555
Cl4 Pb2 3.155141 1_565
Cl4 Tl1 3.289701 1_555
Cl5 Pb1 3.000540 1_555
Cl5 Tl6 3.148868 1_565
Cl5 Pb3 3.155141 1_555
Cl5 Tl4 3.289701 1_555
Cl6 Pb0 2.877792 1_555
Cl6 Tl5 3.178603 1_555
Cl6 Pb2 3.189208 1_665
Cl6 Tl3 3.232051 1_655
Cl6 Tl7 3.255037 1_565
Cl6 Tl2 3.262621 1_555
Cl7 Pb1 2.786626 1_555
Cl7 Tl1 3.255494 1_556
Cl8 Pb1 2.963427 1_555
Cl8 Tl3 3.081537 1_555
Cl8 Tl7 3.208141 1_465
Cl8 Tl6 3.211998 1_465
Cl9 Pb1 3.015089 1_545
Cl9 Tl2 3.094270 1_545
Cl9 Tl7 3.164222 1_555
Cl9 Tl10 3.182558 1_555
Cl9 Tl3 3.246101 1_545
Cl10 Pb2 3.015089 1_665
Cl10 Tl9 3.094270 1_565
Cl10 Tl4 3.164222 1_554
Cl10 Tl1 3.182558 1_655
Cl10 Tl8 3.246101 1_664
Cl11 Pb2 2.963427 1_555
Cl11 Tl8 3.081537 1_554
Cl11 Tl4 3.208141 1_544
Cl11 Tl5 3.211998 1_545
Cl12 Pb2 2.786626 1_555
Cl12 Tl10 3.255494 1_555
Cl13 Pb3 2.877792 1_555
Cl13 Tl6 3.178603 1_555
Cl13 Pb1 3.189208 1_545
Cl13 Tl8 3.232051 1_555
Cl13 Tl4 3.255037 1_545
Cl13 Tl9 3.262621 1_556
Cl14 Pb2 3.000540 1_655
Cl14 Tl5 3.148868 1_545
Cl14 Pb0 3.155141 1_555
Cl14 Tl7 3.289701 1_555
Cl15 Pb3 3.000540 1_555
Cl15 Tl0 3.148868 1_555
Cl15 Pb1 3.155141 1_545
Cl15 Tl10 3.289701 1_555
Cl16 Pb2 2.877792 1_555
Cl16 Tl11 3.178603 1_555
Cl16 Pb0 3.189208 1_455
Cl16 Tl9 3.232051 1_455
Cl16 Tl1 3.255037 1_555
Cl16 Tl8 3.262621 1_554
Cl17 Pb3 2.786626 1_555
Cl17 Tl7 3.255494 1_555
Cl18 Pb3 2.963427 1_555
Cl18 Tl9 3.081537 1_556
Cl18 Tl1 3.208141 1_656
Cl18 Tl0 3.211998 1_655
Cl19 Pb3 3.015089 1_555
Cl19 Tl8 3.094270 1_555
Cl19 Tl1 3.164222 1_556
Cl19 Tl4 3.182558 1_555
Cl19 Tl9 3.246101 1_556
