# generated using pymatgen
data_Ba7U7O24
_symmetry_space_group_name_H-M   'P 1'
_cell_length_a   6.22129600
_cell_length_b   10.67997322
_cell_length_c   10.73593507
_cell_angle_alpha   108.90851761
_cell_angle_beta   90.11375978
_cell_angle_gamma   89.98826721
_symmetry_Int_Tables_number   1
_chemical_formula_structural   Ba7U7O24
_chemical_formula_sum   'Ba7 U7 O24'
_cell_volume   674.83595568
_cell_formula_units_Z   1
loop_
 _symmetry_equiv_pos_site_id
 _symmetry_equiv_pos_as_xyz
  1  'x, y, z'
loop_
 _atom_site_type_symbol
 _atom_site_label
 _atom_site_symmetry_multiplicity
 _atom_site_fract_x
 _atom_site_fract_y
 _atom_site_fract_z
 _atom_site_occupancy
  Ba  Ba0  1  0.00985100  0.63158700  0.40087100  1
  Ba  Ba1  1  0.00506100  0.09776600  0.86070000  1
  Ba  Ba2  1  0.47682400  0.64548800  0.86374000  1
  Ba  Ba3  1  0.52441700  0.85494000  0.63234500  1
  Ba  Ba4  1  0.50911600  0.37748100  0.11377200  1
  Ba  Ba5  1  0.98834100  0.86305500  0.10356700  1
  Ba  Ba6  1  0.99327700  0.39508500  0.63250600  1
  U  U0  1  0.49951800  0.75579900  0.25352100  1
  U  U1  1  0.49797200  0.01144000  0.01643200  1
  U  U2  1  0.49971100  0.24551400  0.74491300  1
  U  U3  1  0.50104700  0.48585400  0.48976900  1
  U  U4  1  0.99979000  0.49935300  0.00275800  1
  U  U5  1  0.00120400  0.24518800  0.25129400  1
  U  U6  1  0.00194800  0.00203600  0.49364400  1
  O  O0  1  0.99186900  0.91336600  0.62932200  1
  O  O1  1  0.99470200  0.41412200  0.15674600  1
  O  O2  1  0.26107400  0.88573300  0.92335500  1
  O  O3  1  0.24832300  0.65087500  0.10899800  1
  O  O4  1  0.22732700  0.14979200  0.62673200  1
  O  O5  1  0.22380500  0.36546000  0.39255300  1
  O  O6  1  0.28675100  0.62251400  0.59366900  1
  O  O7  1  0.25695200  0.84774800  0.39938900  1
  O  O8  1  0.24847600  0.16091000  0.10619000  1
  O  O9  1  0.26336300  0.36199300  0.89413400  1
  O  O10  1  0.50573000  0.91061500  0.17023800  1
  O  O11  1  0.50664200  0.40433700  0.66134300  1
  O  O12  1  0.49485300  0.58877300  0.32991700  1
  O  O13  1  0.49455000  0.09552000  0.84254400  1
  O  O14  1  0.73457900  0.64352400  0.10136500  1
  O  O15  1  0.71560700  0.87699500  0.91269000  1
  O  O16  1  0.75430600  0.14019500  0.61952000  1
  O  O17  1  0.75750400  0.35536200  0.38151400  1
  O  O18  1  0.75808800  0.84267700  0.39095700  1
  O  O19  1  0.73544500  0.61356500  0.58369900  1
  O  O20  1  0.75571200  0.35233100  0.88732200  1
  O  O21  1  0.76645600  0.15041600  0.09984000  1
  O  O22  1  0.00917800  0.58324400  0.86359100  1
  O  O23  1  0.00483200  0.08169700  0.33689000  1
loop_
_geom_bond_atom_site_label_1
_geom_bond_atom_site_label_2
_geom_bond_distance
_geom_bond_site_symmetry_2
Ba0 O19 2.657525 1_455
Ba0 O6 2.716085 1_555
Ba0 O18 2.774975 1_455
Ba0 O7 2.778214 1_555
Ba0 O1 2.885499 1_455
Ba1 O0 2.623813 1_445
Ba1 O21 2.861881 1_456
Ba1 O8 2.920084 1_556
Ba1 O2 3.016416 1_545
Ba1 O13 3.051467 1_555
Ba1 O20 3.062048 1_455
Ba1 O4 3.073916 1_555
Ba1 O15 3.157909 1_445
Ba1 O9 3.165061 1_555
Ba1 O16 3.176091 1_455
Ba1 O13 3.181249 1_455
Ba2 O2 2.780703 1_555
Ba2 O15 2.784327 1_555
Ba2 O11 2.786299 1_555
Ba2 O3 2.978910 1_556
Ba2 O22 2.984359 1_555
Ba2 O14 3.016380 1_556
Ba2 O6 3.064446 1_555
Ba2 O19 3.331469 1_555
Ba2 O22 3.377756 1_655
Ba2 O9 3.417724 1_555
Ba3 O19 2.787579 1_555
Ba3 O6 2.802056 1_555
Ba3 O13 2.823544 1_565
Ba3 O18 2.939628 1_555
Ba3 O0 2.976917 1_555
Ba3 O7 2.981401 1_555
Ba3 O15 3.171023 1_555
Ba3 O0 3.373300 1_455
Ba3 O16 3.408833 1_565
Ba3 O2 3.450726 1_555
Ba4 O12 2.663041 1_555
Ba4 O9 2.767337 1_554
Ba4 O8 2.804421 1_555
Ba4 O20 2.815612 1_554
Ba4 O21 2.868914 1_555
Ba4 O1 3.061081 1_555
Ba4 O14 3.210306 1_555
Ba4 O1 3.239813 1_455
Ba5 O2 2.645331 1_654
Ba5 O15 2.698958 1_554
Ba5 O3 2.799701 1_655
Ba5 O23 2.818861 1_665
Ba5 O14 2.820544 1_555
Ba6 O22 2.640242 1_655
Ba6 O5 2.877430 1_655
Ba6 O17 2.972579 1_555
Ba6 O4 2.980024 1_655
Ba6 O19 3.013248 1_555
Ba6 O11 3.042227 1_555
Ba6 O16 3.065138 1_555
Ba6 O6 3.173058 1_655
Ba6 O11 3.206605 1_655
Ba6 O20 3.271510 1_555
Ba6 O9 3.385578 1_655
O0 U6 1.979119 1_665
O1 U4 2.130308 1_555
O1 U5 2.339641 1_655
O2 U1 2.024492 1_566
O3 U0 2.229254 1_555
O3 U4 2.260123 1_455
O4 U2 2.162878 1_555
O4 U6 2.242625 1_555
O5 U5 2.144195 1_555
O5 U3 2.200353 1_555
O6 U3 2.025299 1_555
O7 U0 2.169371 1_555
O7 U6 2.276104 1_565
O8 U5 2.168798 1_555
O8 U1 2.212263 1_555
O9 U2 2.234508 1_555
O9 U4 2.258034 1_456
O10 U0 2.119692 1_555
O10 U1 2.245115 1_565
O11 U2 2.161142 1_555
O11 U3 2.278427 1_555
O12 U0 2.191793 1_555
O12 U3 2.318873 1_555
O13 U2 2.180424 1_555
O13 U1 2.319108 1_556
O14 U0 2.232509 1_555
O14 U4 2.272295 1_555
O15 U1 2.025869 1_566
O16 U2 2.147693 1_555
O16 U6 2.256560 1_655
O17 U5 2.139906 1_655
O17 U3 2.189818 1_555
O18 U0 2.174772 1_555
O18 U6 2.278604 1_665
O19 U3 2.026655 1_555
O20 U2 2.244139 1_555
O20 U4 2.244879 1_556
O21 U5 2.173878 1_655
O21 U1 2.220025 1_555
O22 U4 1.976462 1_456
O23 U6 2.117636 1_555
O23 U5 2.221176 1_555
