# generated using pymatgen
data_Ti8Fe35O64
_symmetry_space_group_name_H-M   'P 1'
_cell_length_a   8.53056700
_cell_length_b   8.56171197
_cell_length_c   17.11535381
_cell_angle_alpha   90.22791169
_cell_angle_beta   90.20367326
_cell_angle_gamma   90.06170781
_symmetry_Int_Tables_number   1
_chemical_formula_structural   Ti8Fe35O64
_chemical_formula_sum   'Ti8 Fe35 O64'
_cell_volume   1250.02285710
_cell_formula_units_Z   1
loop_
 _symmetry_equiv_pos_site_id
 _symmetry_equiv_pos_as_xyz
  1  'x, y, z'
loop_
 _atom_site_type_symbol
 _atom_site_label
 _atom_site_symmetry_multiplicity
 _atom_site_fract_x
 _atom_site_fract_y
 _atom_site_fract_z
 _atom_site_occupancy
  Ti  Ti0  1  0.37511500  0.11419800  0.57214100  1
  Ti  Ti1  1  0.63139900  0.12145900  0.44555800  1
  Ti  Ti2  1  0.62759500  0.13598000  0.94565300  1
  Ti  Ti3  1  0.88289600  0.13963400  0.31558500  1
  Ti  Ti4  1  0.88435100  0.14502200  0.80910100  1
  Ti  Ti5  1  0.12268400  0.35737900  0.05694900  1
  Ti  Ti6  1  0.10688400  0.36381200  0.56094900  1
  Ti  Ti7  1  0.37820300  0.61615100  0.81233700  1
  Fe  Fe0  1  0.50104700  0.00384300  0.25372100  1
  Fe  Fe1  1  0.51099000  0.99512000  0.75340900  1
  Fe  Fe2  1  0.13682100  0.11707600  0.18202500  1
  Fe  Fe3  1  0.25691100  0.25315200  0.37821400  1
  Fe  Fe4  1  0.25314200  0.24477800  0.87815400  1
  Fe  Fe5  1  0.75892900  0.25648700  0.12888300  1
  Fe  Fe6  1  0.74697800  0.25603400  0.63063000  1
  Fe  Fe7  1  0.37829500  0.36700400  0.18622500  1
  Fe  Fe8  1  0.37158100  0.36882700  0.68887300  1
  Fe  Fe9  1  0.62606100  0.38088700  0.31723000  1
  Fe  Fe10  1  0.63494600  0.38221400  0.81658200  1
  Fe  Fe11  1  0.49284900  0.50105900  0.00133000  1
  Fe  Fe12  1  0.49396500  0.48716800  0.49968600  1
  Fe  Fe13  1  0.99972100  0.49802600  0.24581900  1
  Fe  Fe14  1  0.00325400  0.50757000  0.74260000  1
  Fe  Fe15  1  0.11985700  0.61788600  0.43542600  1
  Fe  Fe16  1  0.11246000  0.61730800  0.93443600  1
  Fe  Fe17  1  0.87100800  0.62086300  0.05568800  1
  Fe  Fe18  1  0.37566100  0.62688100  0.31442600  1
  Fe  Fe19  1  0.86247300  0.62766000  0.55584200  1
  Fe  Fe20  1  0.62622000  0.63024200  0.18703900  1
  Fe  Fe21  1  0.62074300  0.62970800  0.68113000  1
  Fe  Fe22  1  0.24840200  0.73822400  0.12440800  1
  Fe  Fe23  1  0.23871200  0.74865900  0.62511000  1
  Fe  Fe24  1  0.75571000  0.75939700  0.37375400  1
  Fe  Fe25  1  0.74888300  0.76379500  0.87432100  1
  Fe  Fe26  1  0.37024800  0.87966100  0.94227500  1
  Fe  Fe27  1  0.38326900  0.86994500  0.44223600  1
  Fe  Fe28  1  0.61535000  0.88387400  0.06533700  1
  Fe  Fe29  1  0.13069800  0.87310200  0.31126000  1
  Fe  Fe30  1  0.12702400  0.88152600  0.80805900  1
  Fe  Fe31  1  0.87505300  0.87483300  0.18515800  1
  Fe  Fe32  1  0.87402000  0.88393000  0.68330700  1
  Fe  Fe33  1  0.00371600  0.99309700  0.49772900  1
  Fe  Fe34  1  0.99106200  0.99148100  0.99515000  1
  O  O0  1  0.39069500  0.12047500  0.44206300  1
  O  O1  1  0.39774700  0.11043200  0.92877000  1
  O  O2  1  0.10973900  0.12154300  0.31831400  1
  O  O3  1  0.11027400  0.11623600  0.82117400  1
  O  O4  1  0.88031000  0.12560800  0.19837200  1
  O  O5  1  0.86338300  0.10994400  0.70163900  1
  O  O6  1  0.85977000  0.11322900  0.43159100  1
  O  O7  1  0.85445700  0.10583300  0.92662900  1
  O  O8  1  0.65196600  0.12924900  0.05403300  1
  O  O9  1  0.60395800  0.13859800  0.55302100  1
  O  O10  1  0.10008900  0.13962000  0.05949000  1
  O  O11  1  0.13780500  0.14169400  0.55248700  1
  O  O12  1  0.37464600  0.13827100  0.19422800  1
  O  O13  1  0.39810800  0.12103900  0.67979200  1
  O  O14  1  0.64368700  0.13787300  0.31802900  1
  O  O15  1  0.64282400  0.12712100  0.81947900  1
  O  O16  1  0.35399200  0.39109900  0.06905900  1
  O  O17  1  0.36034300  0.35568600  0.56322100  1
  O  O18  1  0.61203600  0.35279700  0.43101800  1
  O  O19  1  0.60525700  0.35624000  0.93647800  1
  O  O20  1  0.86911700  0.35861200  0.30672600  1
  O  O21  1  0.88656200  0.36188100  0.80351700  1
  O  O22  1  0.38535500  0.37517100  0.30863000  1
  O  O23  1  0.36561800  0.39306500  0.81393100  1
  O  O24  1  0.13772300  0.37254100  0.18161100  1
  O  O25  1  0.13394400  0.39574200  0.67413300  1
  O  O26  1  0.13748900  0.38598000  0.44487200  1
  O  O27  1  0.14299600  0.37715300  0.94768300  1
  O  O28  1  0.89518900  0.38674300  0.07073400  1
  O  O29  1  0.89493900  0.38746500  0.56475200  1
  O  O30  1  0.61712700  0.38363300  0.19329700  1
  O  O31  1  0.60985000  0.39743900  0.69730100  1
  O  O32  1  0.10914600  0.60917900  0.06136400  1
  O  O33  1  0.11792400  0.61132400  0.55500200  1
  O  O34  1  0.38668700  0.61260600  0.19190100  1
  O  O35  1  0.38176400  0.63436400  0.69494400  1
  O  O36  1  0.63210400  0.61515200  0.30936800  1
  O  O37  1  0.60745800  0.63139000  0.81081700  1
  O  O38  1  0.63301300  0.61952500  0.06753600  1
  O  O39  1  0.63099900  0.60682300  0.56509700  1
  O  O40  1  0.86924900  0.63935300  0.94059000  1
  O  O41  1  0.88397500  0.64061800  0.44200400  1
  O  O42  1  0.37883600  0.63446300  0.92715600  1
  O  O43  1  0.36610700  0.62350400  0.43669200  1
  O  O44  1  0.11797600  0.63199700  0.31633800  1
  O  O45  1  0.14158900  0.63208400  0.81053500  1
  O  O46  1  0.86363600  0.62497800  0.18313900  1
  O  O47  1  0.86132200  0.63587100  0.68050600  1
  O  O48  1  0.13115000  0.86252100  0.43080700  1
  O  O49  1  0.13510300  0.86895800  0.93082400  1
  O  O50  1  0.87028500  0.86247300  0.06408800  1
  O  O51  1  0.89246100  0.86552200  0.56801000  1
  O  O52  1  0.62314000  0.86521300  0.18982300  1
  O  O53  1  0.63881900  0.86102700  0.69456800  1
  O  O54  1  0.12741600  0.87190000  0.19281000  1
  O  O55  1  0.11129700  0.86086300  0.69398100  1
  O  O56  1  0.36280800  0.87735900  0.31495600  1
  O  O57  1  0.36572300  0.86288400  0.81583700  1
  O  O58  1  0.37561800  0.85185600  0.05524700  1
  O  O59  1  0.34805700  0.89645000  0.56303600  1
  O  O60  1  0.61072700  0.89229500  0.93762500  1
  O  O61  1  0.62160000  0.89943500  0.42650600  1
  O  O62  1  0.88683100  0.89556700  0.30939100  1
  O  O63  1  0.88999800  0.88325000  0.80780000  1
loop_
_geom_bond_atom_site_label_1
_geom_bond_atom_site_label_2
_geom_bond_distance
_geom_bond_site_symmetry_2
Fe0 O12 1.878385 1_555
Fe0 O56 1.917513 1_545
Fe0 O52 1.920937 1_545
Fe0 O14 1.996567 1_555
Fe1 O53 1.876878 1_555
Fe1 O13 1.918723 1_565
Fe1 O15 1.949052 1_565
Fe1 O57 1.993766 1_555
Fe2 O12 2.046558 1_555
Fe2 O54 2.109423 1_545
Fe2 O10 2.128965 1_555
Fe2 O24 2.187263 1_555
Fe2 O4 2.208235 1_455
Fe2 O2 2.345029 1_555
Fe3 O26 1.906086 1_555
Fe3 O22 1.930550 1_555
Fe3 O0 1.947006 1_555
Fe3 O2 1.968635 1_555
Fe4 O27 1.892883 1_555
Fe4 O1 1.896995 1_555
Fe4 O3 1.904660 1_555
Fe4 O23 1.938217 1_555
Fe5 O28 1.897257 1_555
Fe5 O8 1.907599 1_555
Fe5 O4 1.935622 1_555
Fe5 O30 1.966338 1_555
Fe6 O5 2.008420 1_555
Fe6 O31 2.034148 1_555
Fe6 O29 2.036623 1_555
Fe6 O9 2.058894 1_555
Fe7 O12 1.963895 1_555
Fe7 O16 2.026658 1_555
Fe7 O30 2.045310 1_555
Fe7 O24 2.054059 1_555
Fe7 O22 2.096542 1_555
Fe7 O34 2.105759 1_555
Fe8 O31 2.051516 1_555
Fe8 O25 2.055245 1_555
Fe8 O13 2.138865 1_555
Fe8 O23 2.150413 1_555
Fe8 O17 2.154860 1_555
Fe8 O35 2.276962 1_555
Fe9 O18 1.967312 1_555
Fe9 O36 2.011370 1_555
Fe9 O22 2.058621 1_555
Fe9 O14 2.086299 1_555
Fe9 O20 2.090677 1_555
Fe9 O30 2.122480 1_555
Fe10 O31 2.056639 1_555
Fe10 O19 2.081288 1_555
Fe10 O37 2.149090 1_555
Fe10 O21 2.165956 1_555
Fe10 O15 2.185893 1_555
Fe10 O23 2.299792 1_555
Fe11 O16 1.910296 1_555
Fe11 O19 1.920429 1_554
Fe11 O38 1.928992 1_555
Fe11 O42 1.966546 1_554
Fe12 O39 1.910067 1_555
Fe12 O43 1.928466 1_555
Fe12 O18 1.928583 1_555
Fe12 O17 1.940312 1_555
Fe13 O46 1.919134 1_555
Fe13 O24 1.936582 1_655
Fe13 O44 1.941104 1_655
Fe13 O20 1.941132 1_555
Fe14 O25 1.880283 1_555
Fe14 O21 1.910207 1_455
Fe14 O47 1.950655 1_455
Fe14 O45 1.964349 1_555
Fe15 O26 1.998511 1_555
Fe15 O41 2.025293 1_455
Fe15 O44 2.042297 1_555
Fe15 O33 2.047704 1_555
Fe15 O48 2.098422 1_555
Fe15 O43 2.101184 1_555
Fe16 O27 2.086002 1_555
Fe16 O40 2.086493 1_455
Fe16 O45 2.140221 1_555
Fe16 O49 2.164136 1_555
Fe16 O32 2.174092 1_556
Fe16 O42 2.280802 1_555
Fe17 O40 1.976926 1_554
Fe17 O28 2.032579 1_555
Fe17 O32 2.036014 1_655
Fe17 O38 2.041076 1_555
Fe17 O50 2.073032 1_555
Fe17 O46 2.182644 1_555
Fe18 O43 2.094815 1_555
Fe18 O34 2.102576 1_555
Fe18 O56 2.147424 1_555
Fe18 O22 2.158643 1_555
Fe18 O36 2.192018 1_555
Fe18 O44 2.199040 1_555
Fe19 O41 1.961210 1_555
Fe19 O39 1.989390 1_555
Fe19 O51 2.061867 1_555
Fe19 O29 2.081464 1_555
Fe19 O47 2.134605 1_555
Fe19 O33 2.183871 1_655
Fe20 O52 2.012331 1_555
Fe20 O46 2.027174 1_555
Fe20 O38 2.048057 1_555
Fe20 O34 2.050770 1_555
Fe20 O36 2.098625 1_555
Fe20 O30 2.115889 1_555
Fe21 O39 1.997048 1_555
Fe21 O53 1.998617 1_555
Fe21 O31 2.010973 1_555
Fe21 O47 2.052964 1_555
Fe21 O35 2.053537 1_555
Fe21 O37 2.222923 1_555
Fe22 O58 1.881866 1_555
Fe22 O54 1.935492 1_555
Fe22 O32 1.942866 1_555
Fe22 O34 1.971198 1_555
Fe23 O55 1.869778 1_555
Fe23 O59 1.901340 1_555
Fe23 O33 1.965058 1_555
Fe23 O35 1.968969 1_555
Fe24 O61 1.887642 1_555
Fe24 O41 1.897018 1_555
Fe24 O36 1.956909 1_555
Fe24 O62 1.959594 1_555
Fe25 O40 1.865367 1_555
Fe25 O60 1.943108 1_555
Fe25 O63 1.951337 1_555
Fe25 O37 1.974799 1_555
Fe26 O58 1.949478 1_556
Fe26 O1 2.003807 1_565
Fe26 O49 2.016728 1_555
Fe26 O60 2.055996 1_555
Fe26 O42 2.115560 1_555
Fe26 O57 2.168427 1_555
Fe27 O61 2.067135 1_555
Fe27 O59 2.101726 1_555
Fe27 O43 2.116601 1_555
Fe27 O0 2.145847 1_565
Fe27 O48 2.159747 1_555
Fe27 O56 2.185984 1_555
Fe28 O58 2.069566 1_555
Fe28 O8 2.133245 1_565
Fe28 O52 2.138040 1_555
Fe28 O50 2.182815 1_555
Fe28 O60 2.187528 1_554
Fe28 O38 2.268905 1_555
Fe29 O56 1.981107 1_555
Fe29 O54 2.027392 1_555
Fe29 O48 2.048444 1_555
Fe29 O44 2.069193 1_555
Fe29 O62 2.089546 1_455
Fe29 O2 2.137742 1_565
Fe30 O55 1.963882 1_555
Fe30 O63 2.022025 1_455
Fe30 O3 2.026383 1_565
Fe30 O57 2.046559 1_555
Fe30 O49 2.105235 1_555
Fe30 O45 2.139974 1_555
Fe31 O50 2.074688 1_555
Fe31 O62 2.134986 1_555
Fe31 O46 2.141434 1_555
Fe31 O52 2.152227 1_555
Fe31 O54 2.156494 1_655
Fe31 O4 2.158448 1_565
Fe32 O5 1.961355 1_565
Fe32 O51 1.985819 1_555
Fe32 O53 2.025693 1_555
Fe32 O55 2.041546 1_655
Fe32 O47 2.126795 1_555
Fe32 O63 2.134645 1_555
Fe33 O51 1.886009 1_455
Fe33 O48 1.935144 1_555
Fe33 O11 1.945538 1_565
Fe33 O6 1.961936 1_465
Fe34 O10 1.914516 1_666
Fe34 O50 1.920993 1_556
Fe34 O7 1.921912 1_565
Fe34 O49 1.955906 1_655
O0 Ti1 2.054007 1_555
O0 Ti0 2.231623 1_555
O1 Ti2 1.992577 1_555
O2 Ti3 1.941866 1_455
O3 Ti4 1.953544 1_455
O4 Ti3 2.009297 1_555
O5 Ti4 1.870343 1_555
O6 Ti1 1.964894 1_555
O6 Ti3 2.009585 1_555
O7 Ti2 1.980596 1_555
O7 Ti4 2.057354 1_555
O8 Ti2 1.866966 1_554
O9 Ti1 1.860167 1_555
O9 Ti0 1.991449 1_555
O10 Ti5 1.874813 1_555
O11 Ti6 1.925153 1_555
O11 Ti0 2.064834 1_555
O13 Ti0 1.852890 1_555
O14 Ti3 2.041206 1_555
O14 Ti1 2.190655 1_555
O15 Ti4 2.074192 1_555
O15 Ti2 2.164911 1_555
O16 Ti5 2.003789 1_555
O17 Ti0 2.077712 1_555
O17 Ti6 2.163559 1_555
O18 Ti1 2.004125 1_555
O19 Ti2 1.902667 1_555
O20 Ti3 1.885309 1_555
O21 Ti4 1.859601 1_555
O23 Ti7 1.913206 1_555
O24 Ti5 2.140448 1_555
O25 Ti6 1.968038 1_555
O26 Ti6 2.014383 1_555
O27 Ti5 1.887013 1_556
O28 Ti5 1.972022 1_655
O29 Ti6 1.820899 1_655
O32 Ti5 2.160091 1_555
O33 Ti6 2.123978 1_555
O35 Ti7 2.016217 1_555
O37 Ti7 1.960154 1_555
O42 Ti7 1.970778 1_555
O45 Ti7 2.023337 1_555
O57 Ti7 2.115873 1_555
O59 Ti0 1.884056 1_565
O60 Ti2 2.095094 1_565
O61 Ti1 1.929065 1_565
O62 Ti3 2.092209 1_565
O63 Ti4 2.241810 1_565
