# generated using pymatgen
data_HgH16(Br3N2)2
_symmetry_space_group_name_H-M   'P 1'
_cell_length_a   9.30946200
_cell_length_b   9.04224500
_cell_length_c   12.83304428
_cell_angle_alpha   46.00110866
_cell_angle_beta   90.00000000
_cell_angle_gamma   90.00000000
_symmetry_Int_Tables_number   1
_chemical_formula_structural   HgH16(Br3N2)2
_chemical_formula_sum   'Hg2 H32 Br12 N8'
_cell_volume   777.09256056
_cell_formula_units_Z   2
loop_
 _symmetry_equiv_pos_site_id
 _symmetry_equiv_pos_as_xyz
  1  'x, y, z'
loop_
 _atom_site_type_symbol
 _atom_site_label
 _atom_site_symmetry_multiplicity
 _atom_site_fract_x
 _atom_site_fract_y
 _atom_site_fract_z
 _atom_site_occupancy
  Hg  Hg0  1  0.00000000  0.00000000  0.00000000  1
  Hg  Hg1  1  0.50000000  0.00000000  0.50000000  1
  H  H0  1  0.55879800  0.80698600  0.31815500  1
  H  H1  1  0.87040100  0.04434400  0.70184800  1
  H  H2  1  0.76252900  0.83944700  0.81152100  1
  H  H3  1  0.23747100  0.16055300  0.18847900  1
  H  H4  1  0.39434200  0.48548800  0.35415700  1
  H  H5  1  0.62959900  0.04434400  0.20184800  1
  H  H6  1  0.73747100  0.83944700  0.31152100  1
  H  H7  1  0.62068000  0.25358200  0.78627400  1
  H  H8  1  0.60565800  0.51451200  0.64584300  1
  H  H9  1  0.25554700  0.59602300  0.74877500  1
  H  H10  1  0.74445300  0.40397700  0.25122500  1
  H  H11  1  0.59943200  0.40608600  0.81703900  1
  H  H12  1  0.84364000  0.89143800  0.67025800  1
  H  H13  1  0.12068000  0.74641800  0.71372600  1
  H  H14  1  0.12959900  0.95565600  0.29815200  1
  H  H15  1  0.24445300  0.59602300  0.24877500  1
  H  H16  1  0.90056800  0.40608600  0.31703900  1
  H  H17  1  0.89434200  0.51451200  0.14584300  1
  H  H18  1  0.75554700  0.40397700  0.75122500  1
  H  H19  1  0.87932000  0.25358200  0.28627400  1
  H  H20  1  0.37040100  0.95565600  0.79815200  1
  H  H21  1  0.40056800  0.59391400  0.18296100  1
  H  H22  1  0.15636000  0.10856200  0.32974200  1
  H  H23  1  0.10565800  0.48548800  0.85415700  1
  H  H24  1  0.37932000  0.74641800  0.21372600  1
  H  H25  1  0.34364000  0.10856200  0.82974200  1
  H  H26  1  0.94120200  0.80698600  0.81815500  1
  H  H27  1  0.44120200  0.19301400  0.68184500  1
  H  H28  1  0.05879800  0.19301400  0.18184500  1
  H  H29  1  0.09943200  0.59391400  0.68296100  1
  H  H30  1  0.65636000  0.89143800  0.17025800  1
  H  H31  1  0.26252900  0.16055300  0.68847900  1
  Br  Br0  1  0.17623900  0.13185900  0.50097900  1
  Br  Br1  1  0.50225700  0.28045800  0.22058500  1
  Br  Br2  1  0.62799200  0.32032200  0.50296100  1
  Br  Br3  1  0.00225700  0.71954200  0.27941500  1
  Br  Br4  1  0.82376100  0.86814100  0.49902100  1
  Br  Br5  1  0.49774300  0.71954200  0.77941500  1
  Br  Br6  1  0.32376100  0.13185900  0.00097900  1
  Br  Br7  1  0.87200800  0.32032200  0.00296100  1
  Br  Br8  1  0.99774300  0.28045800  0.72058500  1
  Br  Br9  1  0.37200800  0.67967800  0.49703900  1
  Br  Br10  1  0.67623900  0.86814100  0.99902100  1
  Br  Br11  1  0.12799200  0.67967800  0.99703900  1
  N  N0  1  0.35491500  0.60508300  0.25051800  1
  N  N1  1  0.14508500  0.60508300  0.75051800  1
  N  N2  1  0.35480600  0.10480700  0.75020900  1
  N  N3  1  0.85480600  0.89519300  0.74979100  1
  N  N4  1  0.64519400  0.89519300  0.24979100  1
  N  N5  1  0.14519400  0.10480700  0.25020900  1
  N  N6  1  0.64508500  0.39491700  0.74948200  1
  N  N7  1  0.85491500  0.39491700  0.24948200  1
loop_
_geom_bond_atom_site_label_1
_geom_bond_atom_site_label_2
_geom_bond_distance
_geom_bond_site_symmetry_2
H0 N4 1.039516 1_555
H1 N3 1.032332 1_545
H2 N3 1.031912 1_555
H3 N5 1.031912 1_555
H4 N0 1.036770 1_555
H5 N4 1.032332 1_545
H6 N4 1.031912 1_555
H7 N6 1.034162 1_555
H8 N6 1.036770 1_555
H9 N1 1.033075 1_555
H10 N7 1.033075 1_555
H11 N6 1.031549 1_555
H12 N3 1.049682 1_555
H13 N1 1.034162 1_555
H14 N5 1.032332 1_565
H15 N0 1.033075 1_555
H16 N7 1.031549 1_555
H17 N7 1.036770 1_555
H18 N6 1.033075 1_555
H19 N7 1.034162 1_555
H20 N2 1.032332 1_565
H21 N0 1.031549 1_555
H22 N5 1.049682 1_555
H23 N1 1.036770 1_555
H24 N0 1.034162 1_555
H25 N2 1.049682 1_555
H26 N3 1.039516 1_555
H27 N2 1.039516 1_555
H28 N5 1.039516 1_555
H29 N1 1.031549 1_555
H30 N4 1.049682 1_555
H31 N2 1.031912 1_555
Br1 Hg1 2.579898 1_555
Br3 Hg0 2.579898 1_565
Br5 Hg1 2.579898 1_565
Br8 Hg0 2.579898 1_656
