# generated using pymatgen
data_Cs6ZnGe8
_symmetry_space_group_name_H-M   'P 1'
_cell_length_a   16.34799759
_cell_length_b   13.47222170
_cell_length_c   12.89120645
_cell_angle_alpha   76.61184577
_cell_angle_beta   53.29220810
_cell_angle_gamma   50.09594613
_symmetry_Int_Tables_number   1
_chemical_formula_structural   Cs6ZnGe8
_chemical_formula_sum   'Cs18 Zn3 Ge24'
_cell_volume   1692.00022366
_cell_formula_units_Z   3
loop_
 _symmetry_equiv_pos_site_id
 _symmetry_equiv_pos_as_xyz
  1  'x, y, z'
loop_
 _atom_site_type_symbol
 _atom_site_label
 _atom_site_symmetry_multiplicity
 _atom_site_fract_x
 _atom_site_fract_y
 _atom_site_fract_z
 _atom_site_occupancy
  Cs  Cs0  1  0.60593300  0.05620000  0.39406700  1
  Cs  Cs1  1  0.55763100  0.80432400  0.15162200  1
  Cs  Cs2  1  0.22505800  0.43317800  0.15643100  1
  Cs  Cs3  1  0.27176200  0.09472300  0.72823800  1
  Cs  Cs4  1  0.84837800  0.51357800  0.44236900  1
  Cs  Cs5  1  0.67803900  0.32196100  0.61626800  1
  Cs  Cs6  1  0.90527700  0.72823800  0.09472300  1
  Cs  Cs7  1  0.08891100  0.91108900  0.91108900  1
  Cs  Cs8  1  0.75757200  0.24242800  0.24242800  1
  Cs  Cs9  1  0.01052500  0.98947500  0.61660300  1
  Cs  Cs10  1  0.84356900  0.81466800  0.77494200  1
  Cs  Cs11  1  0.38339700  0.61660300  0.98947500  1
  Cs  Cs12  1  0.18533200  0.15643100  0.43317800  1
  Cs  Cs13  1  0.48642200  0.15162200  0.80432400  1
  Cs  Cs14  1  0.94380000  0.39406700  0.05620000  1
  Cs  Cs15  1  0.19567600  0.44236900  0.51357800  1
  Cs  Cs16  1  0.38373200  0.61626800  0.32196100  1
  Cs  Cs17  1  0.56682200  0.77494200  0.81466800  1
  Zn  Zn0  1  0.04910600  0.95089400  0.28448700  1
  Zn  Zn1  1  0.38618700  0.61381300  0.61381300  1
  Zn  Zn2  1  0.71551300  0.28448700  0.95089400  1
  Ge  Ge0  1  0.25684600  0.92914000  0.20228300  1
  Ge  Ge1  1  0.82919100  0.98338400  0.48652600  1
  Ge  Ge2  1  0.94120800  0.24618700  0.83499200  1
  Ge  Ge3  1  0.87270500  0.76659400  0.46205500  1
  Ge  Ge4  1  0.20397100  0.43710000  0.79602900  1
  Ge  Ge5  1  0.17024300  0.64376800  0.71051000  1
  Ge  Ge6  1  0.41312100  0.39945800  0.58687900  1
  Ge  Ge7  1  0.89864600  0.46205500  0.76659400  1
  Ge  Ge8  1  0.75381300  0.05879200  0.02238700  1
  Ge  Ge9  1  0.23340600  0.12729500  0.10135400  1
  Ge  Ge10  1  0.16500800  0.02238700  0.05879200  1
  Ge  Ge11  1  0.53794500  0.10135400  0.12729500  1
  Ge  Ge12  1  0.70089900  0.48652600  0.98338400  1
  Ge  Ge13  1  0.47547900  0.71051000  0.64376800  1
  Ge  Ge14  1  0.79771700  0.38826900  0.74315400  1
  Ge  Ge15  1  0.35623200  0.82975700  0.52452100  1
  Ge  Ge16  1  0.28949000  0.52452100  0.82975700  1
  Ge  Ge17  1  0.61173100  0.20228300  0.92914000  1
  Ge  Ge18  1  0.60054200  0.58687900  0.39945800  1
  Ge  Ge19  1  0.97761300  0.83499200  0.24618700  1
  Ge  Ge20  1  0.56290000  0.79602900  0.43710000  1
  Ge  Ge21  1  0.01661600  0.17080900  0.29910100  1
  Ge  Ge22  1  0.07086000  0.74315400  0.38826900  1
  Ge  Ge23  1  0.51347400  0.29910100  0.17080900  1
loop_
_geom_bond_atom_site_label_1
_geom_bond_atom_site_label_2
_geom_bond_distance
_geom_bond_site_symmetry_2
Cs0 Ge6 3.841104 1_555
Cs0 Ge20 3.858100 1_545
Cs0 Ge8 3.871240 1_555
Cs0 Ge19 3.871240 1_545
Cs0 Ge23 3.971090 1_555
Cs0 Ge1 3.971090 1_545
Cs0 Ge11 4.020626 1_555
Cs0 Ge3 4.020626 1_545
Cs1 Ge0 3.673439 1_555
Cs1 Ge20 3.706699 1_555
Cs1 Ge12 3.725845 1_554
Cs1 Ge11 3.755309 1_565
Cs1 Ge15 3.802694 1_555
Cs1 Ge18 3.871660 1_555
Cs2 Ge16 3.783986 1_554
Cs2 Ge17 3.882105 1_554
Cs2 Ge11 3.928431 1_555
Cs2 Ge23 3.935879 1_555
Cs2 Ge22 3.999136 1_555
Cs2 Ge19 4.026961 1_455
Cs2 Ge3 4.092407 1_455
Cs2 Ge9 4.245270 1_555
Cs3 Ge10 3.677256 1_556
Cs3 Ge2 3.677256 1_455
Cs3 Ge20 3.741444 1_545
Cs3 Ge15 3.902266 1_545
Cs3 Ge13 3.902266 1_545
Cs3 Ge4 4.173503 1_555
Cs4 Ge14 3.673444 1_555
Cs4 Ge20 3.706696 1_555
Cs4 Ge21 3.725857 1_655
Cs4 Ge3 3.755296 1_555
Cs4 Ge13 3.802697 1_555
Cs4 Ge18 3.871666 1_555
Cs5 Ge21 3.720299 1_655
Cs5 Ge1 3.720299 1_545
Cs5 Ge14 3.747845 1_555
Cs5 Ge17 3.747845 1_555
Cs5 Zn1 3.778753 1_555
Cs5 Ge16 3.963419 1_555
Cs5 Ge13 3.963419 1_555
Cs5 Ge18 3.995884 1_555
Cs5 Ge6 3.995884 1_555
Cs6 Ge19 3.677256 1_555
Cs6 Ge8 3.677256 1_565
Cs6 Ge4 3.741444 1_654
Cs6 Ge5 3.902266 1_654
Cs6 Ge16 3.902266 1_654
Cs6 Ge20 4.173503 1_555
Cs7 Ge8 3.737449 1_466
Cs7 Ge2 3.737449 1_465
Cs7 Ge19 3.737449 1_456
Cs7 Ge10 3.737449 1_566
Cs7 Zn1 3.770297 1_555
Cs7 Ge5 3.934796 1_555
Cs7 Ge16 3.934796 1_555
Cs7 Ge15 3.934796 1_555
Cs7 Ge13 3.934796 1_555
Cs8 Ge6 3.882777 1_555
Cs8 Ge18 3.882777 1_555
Cs8 Ge23 4.186700 1_555
Cs8 Ge12 4.186700 1_554
Cs8 Ge1 4.186700 1_545
Cs8 Ge21 4.186700 1_655
Cs8 Ge8 4.221840 1_555
Cs8 Ge2 4.221840 1_554
Cs8 Ge19 4.221840 1_545
Cs8 Ge10 4.221840 1_655
Cs9 Ge15 3.942099 1_555
Cs9 Ge5 3.942099 1_555
Cs9 Ge2 4.103407 1_465
Cs9 Ge8 4.103407 1_466
Cs9 Ge14 4.113745 1_465
Cs9 Ge17 4.113745 1_465
Cs9 Ge0 4.183606 1_555
Cs9 Ge22 4.183606 1_555
Cs9 Ge21 4.233784 1_565
Cs9 Ge1 4.233784 1_455
Cs10 Ge5 3.783983 1_655
Cs10 Ge22 3.882104 1_655
Cs10 Ge3 3.928436 1_555
Cs10 Ge1 3.935875 1_555
Cs10 Ge17 3.999126 1_565
Cs10 Ge8 4.026950 1_566
Cs10 Ge11 4.092401 1_566
Cs10 Ge7 4.245283 1_555
Cs11 Ge16 3.942099 1_555
Cs11 Ge13 3.942099 1_555
Cs11 Ge10 4.103407 1_566
Cs11 Ge19 4.103407 1_456
Cs11 Ge0 4.113745 1_556
Cs11 Ge22 4.113745 1_556
Cs11 Ge14 4.183606 1_555
Cs11 Ge17 4.183606 1_555
Cs11 Ge12 4.233784 1_555
Cs11 Ge23 4.233784 1_556
Cs12 Ge15 3.783989 1_545
Cs12 Ge0 3.882094 1_545
Cs12 Ge9 3.928423 1_555
Cs12 Ge21 3.935864 1_555
Cs12 Ge14 3.999129 1_455
Cs12 Ge2 4.026960 1_455
Cs12 Ge7 4.092409 1_455
Cs12 Ge11 4.245281 1_555
Cs13 Ge17 3.673454 1_555
Cs13 Ge4 3.706689 1_555
Cs13 Ge1 3.725853 1_545
Cs13 Ge9 3.755300 1_556
Cs13 Ge16 3.802695 1_555
Cs13 Ge6 3.871657 1_555
Cs14 Ge18 3.841104 1_555
Cs14 Ge4 3.858100 1_654
Cs14 Ge10 3.871240 1_655
Cs14 Ge2 3.871240 1_554
Cs14 Ge21 3.971090 1_655
Cs14 Ge12 3.971090 1_554
Cs14 Ge9 4.020626 1_655
Cs14 Ge7 4.020626 1_554
Cs15 Ge22 3.673446 1_555
Cs15 Ge4 3.706686 1_555
Cs15 Ge23 3.725851 1_555
Cs15 Ge7 3.755308 1_455
Cs15 Ge5 3.802684 1_555
Cs15 Ge6 3.871651 1_555
Cs16 Ge23 3.720299 1_555
Cs16 Ge12 3.720299 1_554
Cs16 Ge22 3.747845 1_555
Cs16 Ge0 3.747845 1_555
Cs16 Zn1 3.778753 1_555
Cs16 Ge5 3.963419 1_555
Cs16 Ge15 3.963419 1_555
Cs16 Ge6 3.995884 1_555
Cs16 Ge18 3.995884 1_555
Cs17 Ge13 3.783998 1_555
Cs17 Ge14 3.882105 1_555
Cs17 Ge7 3.928426 1_555
Cs17 Ge12 3.935871 1_555
Cs17 Ge0 3.999129 1_556
Cs17 Ge10 4.026961 1_566
Cs17 Ge9 4.092402 1_566
Cs17 Ge3 4.245275 1_555
Ge0 Ge9 2.577097 1_565
Ge0 Ge10 2.660445 1_565
Ge0 Ge21 2.683004 1_565
Ge0 Zn0 2.703152 1_555
Ge1 Ge3 2.574582 1_555
Ge1 Ge19 2.672268 1_555
Ge1 Ge22 2.683004 1_655
Ge1 Zn0 2.686132 1_655
Ge2 Ge7 2.582451 1_555
Ge2 Zn2 2.726954 1_555
Ge4 Ge6 2.570062 1_555
Ge4 Ge5 2.570436 1_555
Ge5 Ge6 2.689922 1_555
Ge5 Zn1 2.706237 1_555
Ge6 Zn1 2.702626 1_555
Ge8 Zn2 2.726954 1_554
Ge10 Ge9 2.582451 1_555
Ge10 Ge21 2.672268 1_555
Ge10 Zn0 2.726954 1_545
Ge11 Ge23 2.574582 1_555
Ge11 Ge17 2.577097 1_554
Ge11 Ge8 2.582451 1_555
Ge12 Ge7 2.574582 1_555
Ge12 Ge2 2.672268 1_555
Ge12 Ge14 2.683004 1_555
Ge12 Zn2 2.686132 1_555
Ge13 Ge20 2.570436 1_555
Ge13 Ge15 2.676767 1_555
Ge13 Ge18 2.689922 1_555
Ge13 Zn1 2.706237 1_555
Ge14 Ge7 2.577097 1_555
Ge14 Ge2 2.660445 1_555
Ge14 Zn2 2.703152 1_555
Ge15 Ge20 2.570436 1_555
Ge15 Ge18 2.689922 1_555
Ge15 Zn1 2.706237 1_555
Ge16 Ge4 2.570436 1_555
Ge16 Ge5 2.676767 1_555
Ge16 Ge6 2.689922 1_555
Ge16 Zn1 2.706237 1_555
Ge17 Ge8 2.660445 1_556
Ge17 Ge23 2.683004 1_556
Ge17 Zn2 2.703152 1_555
Ge18 Ge20 2.570062 1_555
Ge18 Zn1 2.702626 1_555
Ge19 Ge3 2.582451 1_555
Ge19 Ge22 2.660445 1_655
Ge19 Zn0 2.726954 1_655
Ge21 Ge9 2.574582 1_555
Ge21 Zn0 2.686132 1_545
Ge22 Ge3 2.577097 1_455
Ge22 Zn0 2.703152 1_555
Ge23 Ge8 2.672268 1_555
Ge23 Zn2 2.686132 1_554
