# generated using pymatgen
data_YbIn5Ir
_symmetry_space_group_name_H-M   'P 1'
_cell_length_a   4.63265334
_cell_length_b   4.63265334
_cell_length_c   7.37319741
_cell_angle_alpha   90.00000000
_cell_angle_beta   90.00000000
_cell_angle_gamma   90.00000000
_symmetry_Int_Tables_number   1
_chemical_formula_structural   YbIn5Ir
_chemical_formula_sum   'Yb1 In5 Ir1'
_cell_volume   158.23970654
_cell_formula_units_Z   1
loop_
 _symmetry_equiv_pos_site_id
 _symmetry_equiv_pos_as_xyz
  1  'x, y, z'
loop_
 _atom_site_type_symbol
 _atom_site_label
 _atom_site_symmetry_multiplicity
 _atom_site_fract_x
 _atom_site_fract_y
 _atom_site_fract_z
 _atom_site_occupancy
  Yb  Yb0  1  0.00000000  0.00000000  0.00000000  1
  In  In0  1  0.00000000  0.50000000  0.70182329  1
  In  In1  1  0.00000000  0.50000000  0.29817671  1
  In  In2  1  0.50000000  0.00000000  0.70182329  1
  In  In3  1  0.50000000  0.00000000  0.29817671  1
  In  In4  1  0.50000000  0.50000000  0.00000000  1
  Ir  Ir0  1  0.00000000  0.00000000  0.50000000  1
loop_
_geom_bond_atom_site_label_1
_geom_bond_atom_site_label_2
_geom_bond_distance
_geom_bond_site_symmetry_2
In0 Ir0 2.753136 1_555
In0 Ir0 2.753136 1_565
In0 In1 2.976166 1_555
In0 Yb0 3.193562 1_556
In0 Yb0 3.193562 1_566
In0 In4 3.193562 1_556
In0 In4 3.193562 1_456
In0 In2 3.275781 1_465
In0 In2 3.275781 1_455
In0 In2 3.275781 1_565
In0 In2 3.275781 1_555
In1 Ir0 2.753136 1_565
In1 Ir0 2.753136 1_555
In1 In4 3.193562 1_555
In1 Yb0 3.193562 1_565
In1 Yb0 3.193562 1_555
In1 In4 3.193562 1_455
In1 In3 3.275781 1_455
In1 In3 3.275781 1_555
In1 In3 3.275781 1_465
In1 In3 3.275781 1_565
In2 Ir0 2.753136 1_555
In2 Ir0 2.753136 1_655
In2 In3 2.976166 1_555
In2 In4 3.193562 1_546
In2 Yb0 3.193562 1_556
In2 In4 3.193562 1_556
In2 Yb0 3.193562 1_656
In3 Ir0 2.753136 1_655
In3 Ir0 2.753136 1_555
In3 In4 3.193562 1_555
In3 Yb0 3.193562 1_655
In3 Yb0 3.193562 1_555
In3 In4 3.193562 1_545
In4 Yb0 3.275781 1_555
In4 Yb0 3.275781 1_655
In4 Yb0 3.275781 1_565
In4 Yb0 3.275781 1_665
