# generated using pymatgen
data_KHS
_symmetry_space_group_name_H-M   'P 1'
_cell_length_a   4.36570526
_cell_length_b   4.92747720
_cell_length_c   6.59116451
_cell_angle_alpha   90.00000000
_cell_angle_beta   101.11741653
_cell_angle_gamma   90.00000000
_symmetry_Int_Tables_number   1
_chemical_formula_structural   KHS
_chemical_formula_sum   'K2 H2 S2'
_cell_volume   139.12776797
_cell_formula_units_Z   2
loop_
 _symmetry_equiv_pos_site_id
 _symmetry_equiv_pos_as_xyz
  1  'x, y, z'
loop_
 _atom_site_type_symbol
 _atom_site_label
 _atom_site_symmetry_multiplicity
 _atom_site_fract_x
 _atom_site_fract_y
 _atom_site_fract_z
 _atom_site_occupancy
  K  K0  1  0.23268120  0.25000000  0.76201090  1
  K  K1  1  0.76731880  0.75000000  0.23798910  1
  H  H0  1  0.52950832  0.25000000  0.39552653  1
  H  H1  1  0.47049168  0.75000000  0.60447347  1
  S  S0  1  0.25953143  0.25000000  0.25761832  1
  S  S1  1  0.74046857  0.75000000  0.74238168  1
loop_
_geom_bond_atom_site_label_1
_geom_bond_atom_site_label_2
_geom_bond_distance
_geom_bond_site_symmetry_2
K0 S0 3.246066 1_556
K0 S1 3.255320 1_455
K0 S1 3.255320 1_445
K1 S1 3.246066 1_554
K1 S0 3.255320 1_655
K1 S0 3.255320 1_665
H0 S0 1.342487 1_555
H0 K1 2.939694 1_555
H0 K1 2.939694 1_545
H0 K0 2.953188 1_555
H1 S1 1.342487 1_555
H1 K0 2.939694 1_555
H1 K0 2.939694 1_565
H1 K1 2.953188 1_555
