# generated using pymatgen
data_InOF2
_symmetry_space_group_name_H-M   'P 1'
_cell_length_a   4.09641795
_cell_length_b   4.09641795
_cell_length_c   3.96779148
_cell_angle_alpha   83.81174850
_cell_angle_beta   83.81174850
_cell_angle_gamma   79.05710136
_symmetry_Int_Tables_number   1
_chemical_formula_structural   InOF2
_chemical_formula_sum   'In1 O1 F2'
_cell_volume   64.72984452
_cell_formula_units_Z   1
loop_
 _symmetry_equiv_pos_site_id
 _symmetry_equiv_pos_as_xyz
  1  'x, y, z'
loop_
 _atom_site_type_symbol
 _atom_site_label
 _atom_site_symmetry_multiplicity
 _atom_site_fract_x
 _atom_site_fract_y
 _atom_site_fract_z
 _atom_site_occupancy
  In  In0  1  0.00582800  0.99417200  0.00000000  1
  O  O0  1  0.85275800  0.14724200  0.50000000  1
  F  F0  1  0.12281400  0.49040000  0.87576900  1
  F  F1  1  0.50960000  0.87718600  0.12423100  1
loop_
_geom_bond_atom_site_label_1
_geom_bond_atom_site_label_2
_geom_bond_distance
_geom_bond_site_symmetry_2
In0 O0 2.138439 1_465
In0 O0 2.138439 1_464
F0 In0 2.127024 1_556
F0 In0 2.169707 1_546
F1 In0 2.127024 1_555
F1 In0 2.169707 1_655
