# generated using pymatgen
data_Ce2SbO2
_symmetry_space_group_name_H-M   'P 1'
_cell_length_a   4.01019912
_cell_length_b   4.01019912
_cell_length_c   6.81909870
_cell_angle_alpha   73.90500181
_cell_angle_beta   73.90500181
_cell_angle_gamma   89.88238320
_symmetry_Int_Tables_number   1
_chemical_formula_structural   Ce2SbO2
_chemical_formula_sum   'Ce2 Sb1 O2'
_cell_volume   100.90143623
_cell_formula_units_Z   1
loop_
 _symmetry_equiv_pos_site_id
 _symmetry_equiv_pos_as_xyz
  1  'x, y, z'
loop_
 _atom_site_type_symbol
 _atom_site_label
 _atom_site_symmetry_multiplicity
 _atom_site_fract_x
 _atom_site_fract_y
 _atom_site_fract_z
 _atom_site_occupancy
  Ce  Ce0  1  0.66205100  0.66205100  0.69104000  1
  Ce  Ce1  1  0.33794900  0.33794900  0.30896000  1
  Sb  Sb0  1  0.00000000  0.00000000  0.00000000  1
  O  O0  1  0.25011100  0.74988900  0.50000000  1
  O  O1  1  0.74988900  0.25011100  0.50000000  1
loop_
_geom_bond_atom_site_label_1
_geom_bond_atom_site_label_2
_geom_bond_distance
_geom_bond_site_symmetry_2
Ce0 O1 2.329817 1_565
Ce0 O0 2.329817 1_655
Ce0 O0 2.342337 1_555
Ce0 O1 2.342337 1_555
Ce0 Sb0 3.359450 1_666
Ce0 Sb0 3.433826 1_656
Ce0 Sb0 3.433826 1_566
Ce0 Sb0 3.516027 1_556
Ce1 O1 2.329817 1_455
Ce1 O0 2.329817 1_545
Ce1 O0 2.342337 1_555
Ce1 O1 2.342337 1_555
Ce1 Sb0 3.359450 1_555
Ce1 Sb0 3.433826 1_565
Ce1 Sb0 3.433826 1_655
Ce1 Sb0 3.516027 1_665
