# generated using pymatgen
data_Tl2In3Se5
_symmetry_space_group_name_H-M   'P 1'
_cell_length_a   6.79885442
_cell_length_b   6.79885442
_cell_length_c   58.19497600
_cell_angle_alpha   90.00000000
_cell_angle_beta   90.00000000
_cell_angle_gamma   118.49778888
_symmetry_Int_Tables_number   1
_chemical_formula_structural   Tl2In3Se5
_chemical_formula_sum   'Tl16 In24 Se40'
_cell_volume   2364.09313334
_cell_formula_units_Z   8
loop_
 _symmetry_equiv_pos_site_id
 _symmetry_equiv_pos_as_xyz
  1  'x, y, z'
loop_
 _atom_site_type_symbol
 _atom_site_label
 _atom_site_symmetry_multiplicity
 _atom_site_fract_x
 _atom_site_fract_y
 _atom_site_fract_z
 _atom_site_occupancy
  Tl  Tl0  1  0.50000000  0.00000000  0.65002800  1
  Tl  Tl1  1  0.00000000  0.50000000  0.55002300  1
  Tl  Tl2  1  0.50000000  0.00000000  0.44997700  1
  Tl  Tl3  1  0.00000000  0.50000000  0.34997200  1
  Tl  Tl4  1  0.50000000  0.00000000  0.24995900  1
  Tl  Tl5  1  0.00000000  0.50000000  0.14998900  1
  Tl  Tl6  1  0.00000000  0.50000000  0.24999700  1
  Tl  Tl7  1  0.50000000  0.00000000  0.04998900  1
  Tl  Tl8  1  0.50000000  0.00000000  0.14999700  1
  Tl  Tl9  1  0.00000000  0.50000000  0.95001100  1
  Tl  Tl10  1  0.00000000  0.50000000  0.05001100  1
  Tl  Tl11  1  0.50000000  0.00000000  0.85001100  1
  Tl  Tl12  1  0.50000000  0.00000000  0.94998900  1
  Tl  Tl13  1  0.00000000  0.50000000  0.75004100  1
  Tl  Tl14  1  0.00000000  0.50000000  0.85000300  1
  Tl  Tl15  1  0.50000000  0.00000000  0.75000300  1
  In  In0  1  0.24975900  0.24945700  0.70002100  1
  In  In1  1  0.74955700  0.74948800  0.59998600  1
  In  In2  1  0.24956200  0.24956200  0.50000000  1
  In  In3  1  0.00000000  0.50000000  0.65010100  1
  In  In4  1  0.75024100  0.75054300  0.70002100  1
  In  In5  1  0.74948800  0.74955700  0.40001400  1
  In  In6  1  0.50000000  0.00000000  0.55002800  1
  In  In7  1  0.25044300  0.25051200  0.59998600  1
  In  In8  1  0.24945700  0.24975900  0.29997900  1
  In  In9  1  0.00000000  0.50000000  0.44997200  1
  In  In10  1  0.75043800  0.75043800  0.50000000  1
  In  In11  1  0.74959200  0.74950500  0.20000400  1
  In  In12  1  0.50000000  0.00000000  0.34989900  1
  In  In13  1  0.25051200  0.25044300  0.40001400  1
  In  In14  1  0.24950400  0.24957600  0.09997500  1
  In  In15  1  0.75054300  0.75024100  0.29997900  1
  In  In16  1  0.74966800  0.74966800  0.00000000  1
  In  In17  1  0.25040800  0.25049500  0.20000400  1
  In  In18  1  0.24957600  0.24950400  0.90002500  1
  In  In19  1  0.75049600  0.75042400  0.09997500  1
  In  In20  1  0.74950500  0.74959200  0.79999600  1
  In  In21  1  0.25033200  0.25033200  0.00000000  1
  In  In22  1  0.75042400  0.75049600  0.90002500  1
  In  In23  1  0.25049500  0.25040800  0.79999600  1
  Se  Se0  1  0.17042600  0.82819800  0.69982200  1
  Se  Se1  1  0.50000000  0.50000000  0.66562000  1
  Se  Se2  1  0.67114400  0.32872800  0.60001700  1
  Se  Se3  1  0.00000000  0.00000000  0.56561000  1
  Se  Se4  1  0.50000000  0.50000000  0.73434300  1
  Se  Se5  1  0.82957400  0.17180200  0.69982200  1
  Se  Se6  1  0.17122400  0.82877600  0.50000000  1
  Se  Se7  1  0.50000000  0.50000000  0.46559100  1
  Se  Se8  1  0.00000000  0.00000000  0.63440100  1
  Se  Se9  1  0.32885600  0.67127200  0.60001700  1
  Se  Se10  1  0.67127200  0.32885600  0.39998300  1
  Se  Se11  1  0.00000000  0.00000000  0.36559900  1
  Se  Se12  1  0.50000000  0.50000000  0.53440900  1
  Se  Se13  1  0.82877600  0.17122400  0.50000000  1
  Se  Se14  1  0.17180200  0.82957400  0.30017800  1
  Se  Se15  1  0.50000000  0.50000000  0.26565700  1
  Se  Se16  1  0.00000000  0.00000000  0.43439000  1
  Se  Se17  1  0.32872800  0.67114400  0.39998300  1
  Se  Se18  1  0.67088200  0.32901700  0.19999600  1
  Se  Se19  1  0.00000000  0.00000000  0.16565500  1
  Se  Se20  1  0.50000000  0.50000000  0.33438000  1
  Se  Se21  1  0.82819800  0.17042600  0.30017800  1
  Se  Se22  1  0.17094100  0.82901900  0.10000400  1
  Se  Se23  1  0.50000000  0.50000000  0.06566500  1
  Se  Se24  1  0.00000000  0.00000000  0.23434300  1
  Se  Se25  1  0.32911800  0.67098300  0.19999600  1
  Se  Se26  1  0.67098100  0.32901900  0.00000000  1
  Se  Se27  1  0.00000000  0.00000000  0.96565500  1
  Se  Se28  1  0.50000000  0.50000000  0.13434600  1
  Se  Se29  1  0.82905900  0.17098100  0.10000400  1
  Se  Se30  1  0.17098100  0.82905900  0.89999600  1
  Se  Se31  1  0.50000000  0.50000000  0.86565400  1
  Se  Se32  1  0.00000000  0.00000000  0.03434500  1
  Se  Se33  1  0.32901900  0.67098100  0.00000000  1
  Se  Se34  1  0.67098300  0.32911800  0.80000400  1
  Se  Se35  1  0.00000000  0.00000000  0.76565700  1
  Se  Se36  1  0.50000000  0.50000000  0.93433500  1
  Se  Se37  1  0.82901900  0.17094100  0.89999600  1
  Se  Se38  1  0.00000000  0.00000000  0.83434500  1
  Se  Se39  1  0.32901700  0.67088200  0.80000400  1
loop_
_geom_bond_atom_site_label_1
_geom_bond_atom_site_label_2
_geom_bond_distance
_geom_bond_site_symmetry_2
In0 Se5 2.645899 1_455
In0 Se0 2.649504 1_545
In0 Se4 2.649559 1_555
In0 Se1 2.653027 1_555
In1 Se2 2.648100 1_555
In1 Se9 2.648126 1_555
In1 Se3 2.652319 1_665
In1 Se8 2.654031 1_665
In2 Se13 2.648433 1_455
In2 Se6 2.648433 1_545
In2 Se7 2.653587 1_555
In2 Se12 2.653587 1_555
In3 Tl0 3.476323 1_455
In3 Tl0 3.476323 1_565
In4 Se0 2.645899 1_655
In4 Se5 2.649504 1_565
In4 Se4 2.649559 1_555
In4 Se1 2.653027 1_555
In5 Se17 2.648100 1_555
In5 Se10 2.648126 1_555
In5 Se16 2.652319 1_665
In5 Se11 2.654031 1_665
In6 Tl1 3.476320 1_545
In6 Tl1 3.476320 1_655
In7 Se9 2.648100 1_555
In7 Se2 2.648126 1_555
In7 Se3 2.652319 1_555
In7 Se8 2.654031 1_555
In8 Se14 2.645899 1_545
In8 Se21 2.649504 1_455
In8 Se15 2.649559 1_555
In8 Se20 2.653027 1_555
In9 Tl2 3.476320 1_565
In9 Tl2 3.476320 1_455
In10 Se13 2.648433 1_565
In10 Se6 2.648433 1_655
In10 Se12 2.653587 1_555
In10 Se7 2.653587 1_555
In11 Se18 2.645646 1_555
In11 Se25 2.645953 1_555
In11 Se24 2.650576 1_665
In11 Se19 2.651015 1_665
In12 Tl3 3.476323 1_655
In12 Tl3 3.476323 1_545
In13 Se10 2.648100 1_555
In13 Se17 2.648126 1_555
In13 Se16 2.652319 1_555
In13 Se11 2.654031 1_555
In14 Se29 2.645603 1_455
In14 Se22 2.646421 1_545
In14 Se23 2.649343 1_555
In14 Se28 2.652019 1_555
In15 Se21 2.645899 1_565
In15 Se14 2.649504 1_655
In15 Se15 2.649559 1_555
In15 Se20 2.653027 1_555
In16 Se26 2.646772 1_555
In16 Se33 2.646772 1_555
In16 Se27 2.650294 1_664
In16 Se32 2.650294 1_665
In17 Se25 2.645646 1_555
In17 Se18 2.645953 1_555
In17 Se24 2.650576 1_555
In17 Se19 2.651015 1_555
In18 Se30 2.645603 1_545
In18 Se37 2.646421 1_455
In18 Se36 2.649343 1_555
In18 Se31 2.652019 1_555
In19 Se22 2.645603 1_655
In19 Se29 2.646421 1_565
In19 Se23 2.649343 1_555
In19 Se28 2.652019 1_555
In20 Se39 2.645646 1_555
In20 Se34 2.645953 1_555
In20 Se35 2.650576 1_665
In20 Se38 2.651015 1_665
In21 Se33 2.646772 1_555
In21 Se26 2.646772 1_555
In21 Se27 2.650294 1_554
In21 Se32 2.650294 1_555
In22 Se37 2.645603 1_565
In22 Se30 2.646421 1_655
In22 Se36 2.649343 1_555
In22 Se31 2.652019 1_555
In23 Se34 2.645646 1_555
In23 Se39 2.645953 1_555
In23 Se35 2.650576 1_555
In23 Se38 2.651015 1_555
