# generated using pymatgen
data_Sr(PN2)2
_symmetry_space_group_name_H-M   'P 1'
_cell_length_a   17.11329649
_cell_length_b   17.11329648
_cell_length_c   8.11852073
_cell_angle_alpha   90.00000000
_cell_angle_beta   90.00000000
_cell_angle_gamma   119.99999909
_symmetry_Int_Tables_number   1
_chemical_formula_structural   Sr(PN2)2
_chemical_formula_sum   'Sr24 P48 N96'
_cell_volume   2059.08790981
_cell_formula_units_Z   24
loop_
 _symmetry_equiv_pos_site_id
 _symmetry_equiv_pos_as_xyz
  1  'x, y, z'
loop_
 _atom_site_type_symbol
 _atom_site_label
 _atom_site_symmetry_multiplicity
 _atom_site_fract_x
 _atom_site_fract_y
 _atom_site_fract_z
 _atom_site_occupancy
  Sr  Sr0  1  0.33239075  0.15237879  0.32015201  1
  Sr  Sr1  1  0.66666700  0.33333300  0.29679733  1
  Sr  Sr2  1  0.81998704  0.66760925  0.32015201  1
  Sr  Sr3  1  0.48083287  0.47695222  0.82724953  1
  Sr  Sr4  1  0.51916713  0.52304778  0.32724953  1
  Sr  Sr5  1  0.00000000  0.00000000  0.35055294  1
  Sr  Sr6  1  0.33333300  0.66666700  0.29634159  1
  Sr  Sr7  1  0.33333300  0.66666700  0.79679733  1
  Sr  Sr8  1  0.15237879  0.81998704  0.82015201  1
  Sr  Sr9  1  0.99611935  0.51916713  0.82724953  1
  Sr  Sr10  1  0.18001296  0.33239075  0.82015201  1
  Sr  Sr11  1  0.52304778  0.00388065  0.82724953  1
  Sr  Sr12  1  0.00000000  0.00000000  0.85055294  1
  Sr  Sr13  1  0.00388065  0.48083287  0.32724953  1
  Sr  Sr14  1  0.84762121  0.18001296  0.32015201  1
  Sr  Sr15  1  0.33223472  0.19316708  0.81802516  1
  Sr  Sr16  1  0.66776528  0.80683292  0.31802516  1
  Sr  Sr17  1  0.19316708  0.86093237  0.31802516  1
  Sr  Sr18  1  0.80683292  0.13906763  0.81802516  1
  Sr  Sr19  1  0.86093237  0.66776528  0.81802516  1
  Sr  Sr20  1  0.13906763  0.33223472  0.31802516  1
  Sr  Sr21  1  0.66760925  0.84762121  0.82015201  1
  Sr  Sr22  1  0.66666700  0.33333300  0.79634159  1
  Sr  Sr23  1  0.47695222  0.99611935  0.32724953  1
  P  P0  1  0.33023161  0.33007272  0.12752569  1
  P  P1  1  0.00801178  0.84182320  0.13337166  1
  P  P2  1  0.83406230  0.49485669  0.13176104  1
  P  P3  1  0.66992728  0.00015890  0.12752569  1
  P  P4  1  0.66430327  0.66394607  0.01230567  1
  P  P5  1  0.34347228  0.83468750  0.01230093  1
  P  P6  1  0.99964180  0.33569673  0.01230567  1
  P  P7  1  0.49960074  0.82675702  0.51268532  1
  P  P8  1  0.33920561  0.83406230  0.63176104  1
  P  P9  1  0.66394607  0.99964180  0.51230567  1
  P  P10  1  0.32328609  0.49606750  0.13220263  1
  P  P11  1  0.67284371  0.49960074  0.01268532  1
  P  P12  1  0.65652772  0.16531250  0.51230093  1
  P  P13  1  0.67671391  0.50393250  0.63220263  1
  P  P14  1  0.33605393  0.00035820  0.01230567  1
  P  P15  1  0.50393250  0.82721859  0.13220263  1
  P  P16  1  0.32715629  0.50039926  0.51268532  1
  P  P17  1  0.33569673  0.33605393  0.51230567  1
  P  P18  1  0.83047381  0.99196381  0.51410334  1
  P  P19  1  0.17278141  0.67671391  0.13220263  1
  P  P20  1  0.99198822  0.15817680  0.63337166  1
  P  P21  1  0.16148899  0.16952619  0.51410334  1
  P  P22  1  0.50039926  0.17324298  0.01268532  1
  P  P23  1  0.50514331  0.33920561  0.13176104  1
  P  P24  1  0.16952619  0.00803619  0.01410334  1
  P  P25  1  0.00803619  0.83851101  0.51410334  1
  P  P26  1  0.49121523  0.65652772  0.01230093  1
  P  P27  1  0.16593770  0.50514331  0.63176104  1
  P  P28  1  0.99196381  0.16148899  0.01410334  1
  P  P29  1  0.84182320  0.83381142  0.63337166  1
  P  P30  1  0.15817680  0.16618858  0.13337166  1
  P  P31  1  0.83851101  0.83047381  0.01410334  1
  P  P32  1  0.00015890  0.33023161  0.62752569  1
  P  P33  1  0.66079439  0.16593770  0.13176104  1
  P  P34  1  0.00035820  0.66430327  0.51230567  1
  P  P35  1  0.50878477  0.34347228  0.51230093  1
  P  P36  1  0.82721859  0.32328609  0.63220263  1
  P  P37  1  0.17324298  0.67284371  0.51268532  1
  P  P38  1  0.82675702  0.32715629  0.01268532  1
  P  P39  1  0.83468750  0.49121523  0.51230093  1
  P  P40  1  0.49485669  0.66079439  0.63176104  1
  P  P41  1  0.16531250  0.50878477  0.01230093  1
  P  P42  1  0.66976839  0.66992728  0.62752569  1
  P  P43  1  0.83381142  0.99198822  0.13337166  1
  P  P44  1  0.49606750  0.17278141  0.63220263  1
  P  P45  1  0.33007272  0.99984110  0.62752569  1
  P  P46  1  0.99984110  0.66976839  0.12752569  1
  P  P47  1  0.16618858  0.00801178  0.63337166  1
  N  N0  1  0.33339072  0.33200292  0.31978244  1
  N  N1  1  0.00138780  0.33339072  0.81978244  1
  N  N2  1  0.80786717  0.29078087  0.82388177  1
  N  N3  1  0.56066378  0.93201052  0.57437083  1
  N  N4  1  0.35795291  0.92925641  0.54909927  1
  N  N5  1  0.10155784  0.40512431  0.07836588  1
  N  N6  1  0.92925641  0.57130449  0.04909927  1
  N  N7  1  0.80330389  0.90239506  0.02205248  1
  N  N8  1  0.43933622  0.06798948  0.07437083  1
  N  N9  1  0.29078087  0.48291469  0.32388177  1
  N  N10  1  0.85918917  0.81748018  0.82367062  1
  N  N11  1  0.10023801  0.70224567  0.05221961  1
  N  N12  1  0.75969267  0.52715704  0.13005225  1
  N  N13  1  0.43085066  0.56632865  0.12189725  1
  N  N14  1  0.56632865  0.13547800  0.62189725  1
  N  N15  1  0.62865326  0.56066378  0.07437083  1
  N  N16  1  0.27090101  0.53851321  0.03353033  1
  N  N17  1  0.51708531  0.80786717  0.32388177  1
  N  N18  1  0.26761120  0.72909899  0.03353033  1
  N  N19  1  0.73812405  0.77314084  0.56763421  1
  N  N20  1  0.56914934  0.43367135  0.62189725  1
  N  N21  1  0.13547800  0.56914934  0.12189725  1
  N  N22  1  0.52575543  0.37548347  0.32096991  1
  N  N23  1  0.07074359  0.42869551  0.54909927  1
  N  N24  1  0.06798948  0.62865326  0.57437083  1
  N  N25  1  0.09909017  0.19669611  0.02205248  1
  N  N26  1  0.26718146  0.03057719  0.09329295  1
  N  N27  1  0.48291469  0.19213283  0.82388177  1
  N  N28  1  0.15027195  0.52575543  0.82096991  1
  N  N29  1  0.09760494  0.90090983  0.02205248  1
  N  N30  1  0.70224567  0.60200766  0.55221961  1
  N  N31  1  0.19669611  0.09760494  0.52205248  1
  N  N32  1  0.33200292  0.99861220  0.81978244  1
  N  N33  1  0.62451653  0.15027195  0.32096991  1
  N  N34  1  0.60671164  0.20427772  0.02707564  1
  N  N35  1  0.04170999  0.85918917  0.32367062  1
  N  N36  1  0.57130449  0.64204709  0.54909927  1
  N  N37  1  0.90090983  0.80330389  0.52205248  1
  N  N38  1  0.59487569  0.69643353  0.07836588  1
  N  N39  1  0.89976199  0.29775433  0.55221961  1
  N  N40  1  0.59756709  0.39328836  0.02707564  1
  N  N41  1  0.20427772  0.59756709  0.52707564  1
  N  N42  1  0.18251982  0.04170999  0.82367062  1
  N  N43  1  0.87198505  0.93974066  0.61602661  1
  N  N44  1  0.76746437  0.24030733  0.13005225  1
  N  N45  1  0.81748018  0.95829001  0.32367062  1
  N  N46  1  0.89844216  0.59487569  0.57836588  1
  N  N47  1  0.66799708  0.00138780  0.31978244  1
  N  N48  1  0.76339473  0.73281854  0.09329295  1
  N  N49  1  0.93201052  0.37134674  0.07437083  1
  N  N50  1  0.99861220  0.66660928  0.31978244  1
  N  N51  1  0.69643353  0.10155784  0.57836588  1
  N  N52  1  0.73238880  0.27090101  0.53353033  1
  N  N53  1  0.73281854  0.96942281  0.59329295  1
  N  N54  1  0.39799234  0.10023801  0.55221961  1
  N  N55  1  0.22685916  0.96498321  0.56763421  1
  N  N56  1  0.77314084  0.03501679  0.06763421  1
  N  N57  1  0.03501679  0.26187595  0.56763421  1
  N  N58  1  0.03057719  0.76339473  0.59329295  1
  N  N59  1  0.47284296  0.23253563  0.13005225  1
  N  N60  1  0.84972805  0.47424457  0.32096991  1
  N  N61  1  0.30356647  0.89844216  0.07836588  1
  N  N62  1  0.93224539  0.87198505  0.11602661  1
  N  N63  1  0.70921913  0.51708531  0.82388177  1
  N  N64  1  0.93974066  0.06775461  0.11602661  1
  N  N65  1  0.37548347  0.84972805  0.82096991  1
  N  N66  1  0.24030733  0.47284296  0.63005225  1
  N  N67  1  0.23660527  0.26718146  0.59329295  1
  N  N68  1  0.42869551  0.35795291  0.04909927  1
  N  N69  1  0.95829001  0.14081083  0.82367062  1
  N  N70  1  0.66660928  0.66799708  0.81978244  1
  N  N71  1  0.19213283  0.70921913  0.32388177  1
  N  N72  1  0.96498321  0.73812405  0.06763421  1
  N  N73  1  0.12801495  0.06025934  0.11602661  1
  N  N74  1  0.90239506  0.09909017  0.52205248  1
  N  N75  1  0.26187595  0.22685916  0.06763421  1
  N  N76  1  0.40243291  0.60671164  0.52707564  1
  N  N77  1  0.23253563  0.75969267  0.63005225  1
  N  N78  1  0.53851321  0.26761120  0.53353033  1
  N  N79  1  0.79572228  0.40243291  0.02707564  1
  N  N80  1  0.52715704  0.76746437  0.63005225  1
  N  N81  1  0.47424457  0.62451653  0.82096991  1
  N  N82  1  0.06025934  0.93224539  0.61602661  1
  N  N83  1  0.96942281  0.23660527  0.09329295  1
  N  N84  1  0.64204709  0.07074359  0.04909927  1
  N  N85  1  0.60200766  0.89976199  0.05221961  1
  N  N86  1  0.86452200  0.43085066  0.62189725  1
  N  N87  1  0.43367135  0.86452200  0.12189725  1
  N  N88  1  0.29775433  0.39799234  0.05221961  1
  N  N89  1  0.46148679  0.73238880  0.03353033  1
  N  N90  1  0.06775461  0.12801495  0.61602661  1
  N  N91  1  0.40512431  0.30356647  0.57836588  1
  N  N92  1  0.72909899  0.46148679  0.53353033  1
  N  N93  1  0.39328836  0.79572228  0.52707564  1
  N  N94  1  0.37134674  0.43933622  0.57437083  1
  N  N95  1  0.14081083  0.18251982  0.32367062  1
loop_
_geom_bond_atom_site_label_1
_geom_bond_atom_site_label_2
_geom_bond_distance
_geom_bond_site_symmetry_2
N0 P0 1.561554 1_555
N0 P17 1.564164 1_555
N0 Sr0 3.065442 1_555
N1 P32 1.561554 1_555
N1 P6 1.564164 1_456
N1 Sr10 3.065459 1_555
N2 P38 1.624891 1_556
N2 P36 1.629876 1_555
N2 Sr18 2.587946 1_555
N2 Sr22 2.859879 1_555
N3 P9 1.634569 1_555
N3 P7 1.644680 1_555
N3 Sr11 2.633191 1_565
N3 Sr23 2.975353 1_555
N4 P45 1.633550 1_555
N4 P8 1.638461 1_555
N4 Sr23 2.523929 1_555
N5 P6 1.633707 1_455
N5 P41 1.639984 1_555
N5 Sr20 2.560156 1_555
N5 Sr10 3.068821 1_554
N6 P46 1.633539 1_555
N6 P2 1.638467 1_555
N6 Sr9 2.523939 1_554
N7 P31 1.619769 1_555
N7 P43 1.624703 1_555
N7 Sr21 2.604076 1_554
N8 P14 1.634569 1_555
N8 P22 1.644680 1_555
N8 Sr23 2.633191 1_545
N8 Sr11 2.975353 1_554
N9 P16 1.624891 1_555
N9 P10 1.629877 1_555
N9 Sr20 2.587954 1_555
N9 Sr6 2.859879 1_555
N10 P29 1.623684 1_555
N10 P31 1.625907 1_556
N10 Sr19 2.577568 1_555
N10 Sr12 2.843231 1_665
N11 P46 1.636981 1_455
N11 P19 1.642013 1_555
N11 Sr8 2.570581 1_554
N12 P2 1.621432 1_555
N12 P11 1.624319 1_555
N12 Sr2 2.596868 1_555
N13 P10 1.621078 1_555
N13 P26 1.626945 1_555
N13 Sr4 2.594562 1_555
N14 P44 1.621078 1_555
N14 P12 1.626945 1_555
N14 Sr11 2.594563 1_555
N15 P4 1.634572 1_555
N15 P11 1.644680 1_555
N15 Sr4 2.633191 1_555
N15 Sr3 2.975353 1_554
N16 P10 1.619946 1_555
N16 P41 1.623073 1_555
N16 Sr7 2.702213 1_554
N16 Sr6 2.856673 1_555
N17 P7 1.624886 1_555
N17 P15 1.629872 1_555
N17 Sr16 2.587963 1_555
N17 Sr6 2.859879 1_555
N18 P19 1.619934 1_555
N18 P5 1.623078 1_555
N18 Sr7 2.702213 1_554
N18 Sr6 2.856673 1_555
N19 P42 1.630491 1_555
N19 P29 1.633894 1_555
N19 Sr16 2.565737 1_555
N19 Sr21 2.970143 1_555
N20 P13 1.621078 1_555
N20 P35 1.626945 1_555
N20 Sr3 2.594562 1_555
N21 P19 1.621078 1_555
N21 P41 1.626945 1_555
N21 Sr13 2.594563 1_555
N22 P35 1.624244 1_555
N22 P23 1.628023 1_555
N22 Sr4 2.584034 1_555
N22 Sr1 2.848412 1_555
N23 P32 1.633539 1_555
N23 P27 1.638467 1_555
N23 Sr13 2.523939 1_555
N24 P34 1.634557 1_555
N24 P37 1.644680 1_555
N24 Sr9 2.633191 1_455
N24 Sr13 2.975353 1_555
N25 P28 1.619736 1_455
N25 P30 1.624717 1_555
N25 Sr10 2.604079 1_554
N26 P14 1.642696 1_555
N26 P24 1.646323 1_555
N26 Sr0 2.579950 1_555
N27 P22 1.624886 1_556
N27 P44 1.629872 1_555
N27 Sr15 2.587963 1_555
N27 Sr22 2.859879 1_555
N28 P41 1.624244 1_556
N28 P27 1.628023 1_555
N28 Sr9 2.584034 1_455
N28 Sr7 2.848400 1_555
N29 P24 1.619743 1_565
N29 P1 1.624706 1_555
N29 Sr8 2.604100 1_554
N30 P42 1.636981 1_555
N30 P13 1.642013 1_555
N30 Sr2 2.570582 1_555
N31 P21 1.619769 1_555
N31 P47 1.624703 1_555
N31 Sr0 2.604076 1_555
N32 P45 1.561554 1_555
N32 P14 1.564164 1_566
N32 Sr8 3.065450 1_555
N33 P12 1.624244 1_555
N33 P33 1.628023 1_555
N33 Sr23 2.584034 1_545
N33 Sr1 2.848395 1_555
N34 P33 1.617619 1_555
N34 P22 1.624655 1_555
N34 Sr22 2.678317 1_554
N34 Sr1 2.908504 1_555
N35 P1 1.623688 1_555
N35 P25 1.625916 1_555
N35 Sr17 2.577551 1_555
N35 Sr5 2.843243 1_565
N36 P42 1.633535 1_555
N36 P40 1.638477 1_555
N36 Sr4 2.523928 1_555
N37 P25 1.619736 1_655
N37 P29 1.624717 1_555
N37 Sr2 2.604079 1_555
N38 P4 1.633695 1_555
N38 P26 1.639984 1_555
N38 Sr16 2.560156 1_555
N38 Sr21 3.068811 1_554
N39 P32 1.636981 1_655
N39 P36 1.642013 1_555
N39 Sr14 2.570581 1_555
N40 P23 1.617631 1_555
N40 P11 1.624651 1_555
N40 Sr22 2.678316 1_554
N40 Sr1 2.908504 1_555
N41 P27 1.617633 1_555
N41 P37 1.624639 1_555
N41 Sr6 2.678317 1_555
N41 Sr7 2.908504 1_555
N42 P47 1.623688 1_555
N42 P24 1.625917 1_556
N42 Sr15 2.577560 1_555
N42 Sr12 2.843226 1_555
N43 P18 1.619557 1_555
N43 P29 1.623819 1_555
N43 Sr12 2.688665 1_665
N43 Sr5 2.872072 1_665
N44 P33 1.621432 1_555
N44 P38 1.624319 1_555
N44 Sr14 2.596855 1_555
N45 P43 1.623688 1_555
N45 P18 1.625917 1_555
N45 Sr16 2.577560 1_555
N45 Sr5 2.843226 1_665
N46 P34 1.633707 1_655
N46 P39 1.639984 1_555
N46 Sr19 2.560156 1_555
N46 Sr2 3.068821 1_555
N47 P3 1.561554 1_555
N47 P9 1.564164 1_545
N47 Sr14 3.065450 1_555
N48 P4 1.642696 1_555
N48 P31 1.646333 1_555
N48 Sr2 2.579950 1_555
N49 P6 1.634557 1_555
N49 P38 1.644680 1_555
N49 Sr13 2.633191 1_655
N49 Sr9 2.975353 1_554
N50 P46 1.561554 1_555
N50 P34 1.564164 1_655
N50 Sr2 3.065459 1_555
N51 P9 1.633710 1_545
N51 P12 1.639984 1_555
N51 Sr18 2.560156 1_555
N51 Sr14 3.068811 1_555
N52 P36 1.619934 1_555
N52 P12 1.623078 1_555
N52 Sr1 2.702213 1_555
N52 Sr22 2.856673 1_555
N53 P9 1.642696 1_555
N53 P18 1.646323 1_555
N53 Sr21 2.579950 1_555
N54 P45 1.636981 1_545
N54 P44 1.642013 1_555
N54 Sr0 2.570592 1_555
N55 P45 1.630491 1_555
N55 P47 1.633894 1_565
N55 Sr17 2.565736 1_555
N55 Sr8 2.970153 1_555
N56 P3 1.630491 1_555
N56 P43 1.633894 1_545
N56 Sr18 2.565736 1_554
N56 Sr14 2.970153 1_555
N57 P32 1.630491 1_555
N57 P20 1.633894 1_455
N57 Sr20 2.565737 1_555
N57 Sr10 2.970154 1_555
N58 P34 1.642696 1_555
N58 P25 1.646354 1_555
N58 Sr8 2.579950 1_555
N59 P23 1.621432 1_555
N59 P22 1.624319 1_555
N59 Sr0 2.596867 1_555
N60 P39 1.624244 1_555
N60 P2 1.628023 1_555
N60 Sr13 2.584034 1_655
N60 Sr1 2.848400 1_555
N61 P14 1.633710 1_565
N61 P5 1.639984 1_555
N61 Sr17 2.560156 1_555
N61 Sr8 3.068811 1_554
N62 P31 1.619557 1_555
N62 P1 1.623803 1_655
N62 Sr5 2.688665 1_665
N62 Sr12 2.872071 1_664
N63 P11 1.624891 1_556
N63 P13 1.629877 1_555
N63 Sr19 2.587954 1_555
N63 Sr22 2.859879 1_555
N64 P28 1.619557 1_555
N64 P43 1.623815 1_545
N64 Sr5 2.688655 1_655
N64 Sr12 2.872062 1_654
N65 P5 1.624244 1_556
N65 P8 1.628023 1_555
N65 Sr11 2.584034 1_565
N65 Sr7 2.848395 1_555
N66 P27 1.621432 1_555
N66 P16 1.624319 1_555
N66 Sr10 2.596868 1_555
N67 P17 1.642696 1_555
N67 P21 1.646333 1_555
N67 Sr10 2.579950 1_555
N68 P0 1.633535 1_555
N68 P23 1.638477 1_555
N68 Sr3 2.523928 1_554
N69 P20 1.623688 1_555
N69 P28 1.625916 1_556
N69 Sr18 2.577551 1_555
N69 Sr12 2.843243 1_655
N70 P42 1.561554 1_555
N70 P4 1.564164 1_556
N70 Sr21 3.065442 1_555
N71 P37 1.624891 1_555
N71 P19 1.629876 1_555
N71 Sr17 2.587946 1_555
N71 Sr6 2.859879 1_555
N72 P46 1.630491 1_555
N72 P1 1.633894 1_655
N72 Sr19 2.565737 1_554
N72 Sr2 2.970154 1_555
N73 P24 1.619557 1_555
N73 P30 1.623819 1_555
N73 Sr5 2.688665 1_555
N73 Sr12 2.872072 1_554
N74 P18 1.619743 1_545
N74 P20 1.624706 1_555
N74 Sr14 2.604100 1_555
N75 P0 1.630491 1_555
N75 P30 1.633894 1_555
N75 Sr15 2.565737 1_554
N75 Sr0 2.970143 1_555
N76 P40 1.617631 1_555
N76 P16 1.624651 1_555
N76 Sr6 2.678316 1_555
N76 Sr7 2.908504 1_555
N77 P8 1.621432 1_555
N77 P37 1.624319 1_555
N77 Sr8 2.596855 1_555
N78 P44 1.619933 1_555
N78 P35 1.623090 1_555
N78 Sr1 2.702213 1_555
N78 Sr22 2.856673 1_555
N79 P2 1.617633 1_555
N79 P38 1.624639 1_555
N79 Sr22 2.678317 1_554
N79 Sr1 2.908504 1_555
N80 P40 1.621432 1_555
N80 P7 1.624319 1_555
N80 Sr21 2.596867 1_555
N81 P26 1.624244 1_556
N81 P40 1.628023 1_555
N81 Sr3 2.584034 1_555
N81 Sr7 2.848412 1_555
N82 P25 1.619557 1_555
N82 P47 1.623815 1_565
N82 Sr12 2.688655 1_565
N82 Sr5 2.872062 1_565
N83 P6 1.642696 1_555
N83 P28 1.646354 1_555
N83 Sr14 2.579950 1_555
N84 P3 1.633550 1_555
N84 P33 1.638461 1_555
N84 Sr11 2.523929 1_554
N85 P3 1.636981 1_565
N85 P15 1.642013 1_555
N85 Sr21 2.570592 1_554
N86 P36 1.621078 1_555
N86 P39 1.626945 1_555
N86 Sr9 2.594563 1_555
N87 P15 1.621078 1_555
N87 P5 1.626945 1_555
N87 Sr23 2.594563 1_555
N88 P0 1.636981 1_555
N88 P10 1.642013 1_555
N88 Sr10 2.570582 1_554
N89 P15 1.619933 1_555
N89 P26 1.623090 1_555
N89 Sr7 2.702213 1_554
N89 Sr6 2.856673 1_555
N90 P21 1.619557 1_555
N90 P20 1.623803 1_455
N90 Sr12 2.688665 1_555
N90 Sr5 2.872071 1_555
N91 P17 1.633695 1_555
N91 P35 1.639984 1_555
N91 Sr15 2.560156 1_555
N91 Sr0 3.068811 1_555
N92 P13 1.619946 1_555
N92 P39 1.623073 1_555
N92 Sr1 2.702213 1_555
N92 Sr22 2.856673 1_555
N93 P8 1.617619 1_555
N93 P7 1.624655 1_555
N93 Sr6 2.678317 1_555
N93 Sr7 2.908504 1_555
N94 P17 1.634572 1_555
N94 P16 1.644680 1_555
N94 Sr3 2.633191 1_555
N94 Sr4 2.975353 1_555
N95 P30 1.623684 1_555
N95 P21 1.625907 1_555
N95 Sr20 2.577568 1_555
N95 Sr5 2.843231 1_555
