# generated using pymatgen
data_Li10Ge(PS6)2
_symmetry_space_group_name_H-M   'P 1'
_cell_length_a   8.78764600
_cell_length_b   8.78764600
_cell_length_c   12.65754600
_cell_angle_alpha   90.00000000
_cell_angle_beta   90.00000000
_cell_angle_gamma   90.00000000
_symmetry_Int_Tables_number   1
_chemical_formula_structural   Li10Ge(PS6)2
_chemical_formula_sum   'Li20 Ge2 P4 S24'
_cell_volume   977.45015876
_cell_formula_units_Z   2
loop_
 _symmetry_equiv_pos_site_id
 _symmetry_equiv_pos_as_xyz
  1  'x, y, z'
loop_
 _atom_site_type_symbol
 _atom_site_label
 _atom_site_symmetry_multiplicity
 _atom_site_fract_x
 _atom_site_fract_y
 _atom_site_fract_z
 _atom_site_occupancy
  Li  Li0  1  0.22869800  0.27295000  0.29456300  1
  Li  Li1  1  0.77130200  0.72705000  0.29456300  1
  Li  Li2  1  0.27295000  0.77130200  0.79456300  1
  Li  Li3  1  0.72705000  0.22869800  0.79456300  1
  Li  Li4  1  0.22869800  0.72705000  0.29456300  1
  Li  Li5  1  0.77130200  0.27295000  0.29456300  1
  Li  Li6  1  0.27295000  0.22869800  0.79456300  1
  Li  Li7  1  0.72705000  0.77130200  0.79456300  1
  Li  Li8  1  0.00000000  0.00000000  0.93973000  1
  Li  Li9  1  0.00000000  0.00000000  0.43973000  1
  Li  Li10  1  0.50000000  0.50000000  0.54802000  1
  Li  Li11  1  0.50000000  0.50000000  0.04802000  1
  Li  Li12  1  0.25631800  0.72477200  0.03666300  1
  Li  Li13  1  0.74368200  0.27522800  0.03666300  1
  Li  Li14  1  0.27522800  0.25631800  0.53666300  1
  Li  Li15  1  0.72477200  0.74368200  0.53666300  1
  Li  Li16  1  0.27522800  0.74368200  0.53666300  1
  Li  Li17  1  0.72477200  0.25631800  0.53666300  1
  Li  Li18  1  0.25631800  0.27522800  0.03666300  1
  Li  Li19  1  0.74368200  0.72477200  0.03666300  1
  Ge  Ge0  1  0.50000000  0.50000000  0.80102800  1
  Ge  Ge1  1  0.50000000  0.50000000  0.30102800  1
  P  P0  1  0.00000000  0.00000000  0.68605100  1
  P  P1  1  0.00000000  0.00000000  0.18605100  1
  P  P2  1  0.00000000  0.50000000  0.50407300  1
  P  P3  1  0.50000000  0.00000000  0.00407300  1
  S  S0  1  0.00000000  0.69443100  0.41207100  1
  S  S1  1  0.00000000  0.30556900  0.41207100  1
  S  S2  1  0.30556900  0.00000000  0.91207100  1
  S  S3  1  0.69443100  0.00000000  0.91207100  1
  S  S4  1  0.50000000  0.18984800  0.09705700  1
  S  S5  1  0.50000000  0.81015200  0.09705700  1
  S  S6  1  0.18984800  0.50000000  0.59705700  1
  S  S7  1  0.81015200  0.50000000  0.59705700  1
  S  S8  1  0.00000000  0.80470800  0.09409600  1
  S  S9  1  0.00000000  0.19529200  0.09409600  1
  S  S10  1  0.19529200  0.00000000  0.59409600  1
  S  S11  1  0.80470800  0.00000000  0.59409600  1
  S  S12  1  0.50000000  0.29000200  0.40324200  1
  S  S13  1  0.50000000  0.70999800  0.40324200  1
  S  S14  1  0.29000200  0.50000000  0.90324200  1
  S  S15  1  0.70999800  0.50000000  0.90324200  1
  S  S16  1  0.00000000  0.19195000  0.77706900  1
  S  S17  1  0.00000000  0.80805000  0.77706900  1
  S  S18  1  0.80805000  0.00000000  0.27706900  1
  S  S19  1  0.19195000  0.00000000  0.27706900  1
  S  S20  1  0.50000000  0.70737800  0.69816600  1
  S  S21  1  0.50000000  0.29262200  0.69816600  1
  S  S22  1  0.70737800  0.50000000  0.19816600  1
  S  S23  1  0.29262200  0.50000000  0.19816600  1
loop_
_geom_bond_atom_site_label_1
_geom_bond_atom_site_label_2
_geom_bond_distance
_geom_bond_site_symmetry_2
Li0 S23 2.405261 1_555
Li0 S19 2.430337 1_555
Li0 S1 2.516620 1_555
Li0 S12 2.756577 1_555
Li1 S22 2.405261 1_555
Li1 S18 2.430337 1_565
Li1 S0 2.516620 1_655
Li1 S13 2.756577 1_555
Li2 S20 2.405261 1_555
Li2 S17 2.430337 1_555
Li2 S2 2.516620 1_565
Li2 S14 2.756577 1_555
Li3 S21 2.405261 1_555
Li3 S16 2.430337 1_655
Li3 S3 2.516620 1_555
Li3 S15 2.756577 1_555
Li4 S23 2.405261 1_555
Li4 S19 2.430337 1_565
Li4 S0 2.516620 1_555
Li4 S13 2.756577 1_555
Li5 S22 2.405261 1_555
Li5 S18 2.430337 1_555
Li5 S1 2.516620 1_655
Li5 S12 2.756577 1_555
Li6 S21 2.405261 1_555
Li6 S16 2.430337 1_555
Li6 S2 2.516620 1_555
Li6 S14 2.756577 1_555
Li7 S20 2.405261 1_555
Li7 S17 2.430337 1_655
Li7 S3 2.516620 1_565
Li7 S15 2.756577 1_555
Li8 S8 2.600558 1_546
Li8 S9 2.600558 1_556
Li8 S17 2.661631 1_545
Li8 S16 2.661631 1_555
Li8 S3 2.707958 1_455
Li8 S2 2.707958 1_555
Li9 S10 2.600558 1_555
Li9 S11 2.600558 1_455
Li9 S18 2.661631 1_455
Li9 S19 2.661631 1_555
Li9 S1 2.707958 1_555
Li9 S0 2.707958 1_545
Li10 S12 2.600700 1_555
Li10 S13 2.600700 1_555
Li10 S20 2.633028 1_555
Li10 S21 2.633028 1_555
Li10 S6 2.795288 1_555
Li10 S7 2.795288 1_555
Li11 S14 2.600700 1_554
Li11 S15 2.600700 1_554
Li11 S22 2.633028 1_555
Li11 S23 2.633028 1_555
Li11 S5 2.795288 1_555
Li11 S4 2.795288 1_555
Li12 S5 2.394339 1_555
Li12 S8 2.468878 1_555
Li12 S14 2.615547 1_554
Li12 S23 2.860444 1_555
Li12 S2 2.919588 1_564
Li13 S4 2.394339 1_555
Li13 S9 2.468878 1_655
Li13 S15 2.615547 1_554
Li13 S22 2.860444 1_555
Li13 S3 2.919588 1_554
Li14 S6 2.394339 1_555
Li14 S10 2.468878 1_555
Li14 S12 2.615547 1_555
Li14 S21 2.860444 1_555
Li14 S1 2.919588 1_555
Li15 S7 2.394339 1_555
Li15 S11 2.468878 1_565
Li15 S13 2.615547 1_555
Li15 S20 2.860444 1_555
Li15 S0 2.919588 1_655
Li16 S6 2.394339 1_555
Li16 S10 2.468878 1_565
Li16 S13 2.615547 1_555
Li16 S20 2.860444 1_555
Li16 S0 2.919588 1_555
Li17 S7 2.394339 1_555
Li17 S11 2.468878 1_555
Li17 S12 2.615547 1_555
Li17 S21 2.860444 1_555
Li17 S1 2.919588 1_655
Li18 S4 2.394339 1_555
Li18 S9 2.468878 1_555
Li18 S14 2.615547 1_554
Li18 S23 2.860444 1_555
Li18 S2 2.919588 1_554
Li19 S5 2.394339 1_555
Li19 S8 2.468878 1_655
Li19 S15 2.615547 1_554
Li19 S22 2.860444 1_555
Li19 S3 2.919588 1_564
Ge0 S20 2.239680 1_555
Ge0 S21 2.239680 1_555
Ge0 S15 2.253735 1_555
Ge0 S14 2.253735 1_555
Ge1 S22 2.239680 1_555
Ge1 S23 2.239680 1_555
Ge1 S13 2.253735 1_555
Ge1 S12 2.253735 1_555
P0 S17 2.042672 1_545
P0 S16 2.042672 1_555
P0 S10 2.073624 1_555
P0 S11 2.073624 1_455
P1 S18 2.042672 1_455
P1 S19 2.042672 1_555
P1 S8 2.073624 1_545
P1 S9 2.073624 1_555
P2 S6 2.041688 1_555
P2 S7 2.041688 1_455
P2 S1 2.067701 1_555
P2 S0 2.067701 1_555
P3 S5 2.041688 1_545
P3 S4 2.041688 1_555
P3 S3 2.067701 1_554
P3 S2 2.067701 1_554
