# generated using pymatgen
data_Na3Mg4CrSi8(O11F)2
_symmetry_space_group_name_H-M   'P 1'
_cell_length_a   8.14976500
_cell_length_b   8.68441311
_cell_length_c   15.44138485
_cell_angle_alpha   102.29536049
_cell_angle_beta   86.46546778
_cell_angle_gamma   116.25188539
_symmetry_Int_Tables_number   1
_chemical_formula_structural   Na3Mg4CrSi8(O11F)2
_chemical_formula_sum   'Na6 Mg8 Cr2 Si16 O44 F4'
_cell_volume   957.01423112
_cell_formula_units_Z   2
loop_
 _symmetry_equiv_pos_site_id
 _symmetry_equiv_pos_as_xyz
  1  'x, y, z'
loop_
 _atom_site_type_symbol
 _atom_site_label
 _atom_site_symmetry_multiplicity
 _atom_site_fract_x
 _atom_site_fract_y
 _atom_site_fract_z
 _atom_site_occupancy
  Na  Na0  1  0.87205100  0.24494700  0.27620700  1
  Na  Na1  1  0.37489300  0.05296000  0.47439400  1
  Na  Na2  1  0.62510700  0.94704000  0.52560600  1
  Na  Na3  1  0.12794900  0.75505300  0.72379300  1
  Na  Na4  1  0.46511900  0.82763900  0.03713600  1
  Na  Na5  1  0.53488100  0.17236100  0.96286400  1
  Mg  Mg0  1  0.96353400  0.61135500  0.08116100  1
  Mg  Mg1  1  0.02769800  0.71585800  0.47612300  1
  Mg  Mg2  1  0.97230200  0.28414200  0.52387700  1
  Mg  Mg3  1  0.03646600  0.38864500  0.91883900  1
  Mg  Mg4  1  0.44591600  0.50564800  0.76864800  1
  Mg  Mg5  1  0.28045800  0.36049600  0.08725700  1
  Mg  Mg6  1  0.71954200  0.63950400  0.91274300  1
  Mg  Mg7  1  0.55408400  0.49435200  0.23135200  1
  Cr  Cr0  1  0.52397300  0.85714800  0.24998200  1
  Cr  Cr1  1  0.47602700  0.14285200  0.75001800  1
  Si  Si0  1  0.29103000  0.07204300  0.17357600  1
  Si  Si1  1  0.85891400  0.88591600  0.10708000  1
  Si  Si2  1  0.07873600  0.01482900  0.64027600  1
  Si  Si3  1  0.69058100  0.69236000  0.62858500  1
  Si  Si4  1  0.30941900  0.30764000  0.37141500  1
  Si  Si5  1  0.92126400  0.98517100  0.35972400  1
  Si  Si6  1  0.14108600  0.11408400  0.89292000  1
  Si  Si7  1  0.70897000  0.92795700  0.82642400  1
  Si  Si8  1  0.31619700  0.56779800  0.54297100  1
  Si  Si9  1  0.67396100  0.35537600  0.64216300  1
  Si  Si10  1  0.92698900  0.62704000  0.30888800  1
  Si  Si11  1  0.81132500  0.24417300  0.10443200  1
  Si  Si12  1  0.18867500  0.75582700  0.89556800  1
  Si  Si13  1  0.07301100  0.37296000  0.69111200  1
  Si  Si14  1  0.32603900  0.64462400  0.35783700  1
  Si  Si15  1  0.68380300  0.43220200  0.45702900  1
  O  O0  1  0.48594300  0.28312200  0.41453200  1
  O  O1  1  0.84891200  0.07435800  0.44385500  1
  O  O2  1  0.37453400  0.61139300  0.24528800  1
  O  O3  1  0.14498400  0.09407100  0.35757900  1
  O  O4  1  0.52711900  0.14015900  0.62426700  1
  O  O5  1  0.84633700  0.57859400  0.20953900  1
  O  O6  1  0.24254000  0.36467700  0.48612100  1
  O  O7  1  0.75720000  0.34790300  0.52404800  1
  O  O8  1  0.54744300  0.46690700  0.62532400  1
  O  O9  1  0.37135900  0.93304700  0.18331500  1
  O  O10  1  0.18500500  0.53406000  0.63281300  1
  O  O11  1  0.81499500  0.46594000  0.36718700  1
  O  O12  1  0.75746000  0.63532300  0.51387900  1
  O  O13  1  0.62864100  0.06695300  0.81668500  1
  O  O14  1  0.45255700  0.53309300  0.37467600  1
  O  O15  1  0.24280000  0.65209700  0.47595200  1
  O  O16  1  0.15366300  0.42140600  0.79046100  1
  O  O17  1  0.47288100  0.85984100  0.37573300  1
  O  O18  1  0.85501600  0.90592900  0.64242100  1
  O  O19  1  0.62546600  0.38860700  0.75471200  1
  O  O20  1  0.15108800  0.92564200  0.55614500  1
  O  O21  1  0.51405700  0.71687800  0.58546800  1
  O  O22  1  0.63695200  0.74431900  0.74428300  1
  O  O23  1  0.38029900  0.24815200  0.87087500  1
  O  O24  1  0.20272100  0.04042200  0.72869200  1
  O  O25  1  0.15607800  0.65434700  0.98164900  1
  O  O26  1  0.55450600  0.55441600  0.10595800  1
  O  O27  1  0.86666000  0.32365400  0.66207000  1
  O  O28  1  0.35618800  0.17115500  0.08989300  1
  O  O29  1  0.86130400  0.73557200  0.02486300  1
  O  O30  1  0.83286600  0.04944500  0.08611900  1
  O  O31  1  0.10953600  0.21271100  0.63044800  1
  O  O32  1  0.05845100  0.94684100  0.15949900  1
  O  O33  1  0.94154900  0.05315900  0.84050100  1
  O  O34  1  0.64381200  0.82884500  0.91010700  1
  O  O35  1  0.89046400  0.78728900  0.36955200  1
  O  O36  1  0.16713400  0.95055500  0.91388100  1
  O  O37  1  0.13869600  0.26442800  0.97513700  1
  O  O38  1  0.13334000  0.67634600  0.33793000  1
  O  O39  1  0.44549400  0.44558400  0.89404200  1
  O  O40  1  0.84392200  0.34565300  0.01835100  1
  O  O41  1  0.79727900  0.95957800  0.27130800  1
  O  O42  1  0.61970100  0.75184800  0.12912500  1
  O  O43  1  0.36304800  0.25568100  0.25571700  1
  F  F0  1  0.13775100  0.37596400  0.33796300  1
  F  F1  1  0.86224900  0.62403600  0.66203700  1
  F  F2  1  0.94351900  0.62378400  0.85449600  1
  F  F3  1  0.05648100  0.37621600  0.14550400  1
loop_
_geom_bond_atom_site_label_1
_geom_bond_atom_site_label_2
_geom_bond_distance
_geom_bond_site_symmetry_2
Na0 O41 2.260246 1_545
Na0 O11 2.331040 1_555
Na1 O20 2.160875 1_545
Na1 O0 2.179965 1_555
Na1 O17 2.391238 1_545
Na1 O4 2.498962 1_555
Na1 O3 2.859137 1_555
Na2 O1 2.160875 1_565
Na2 O21 2.179965 1_555
Na2 O4 2.391238 1_565
Na2 O17 2.498962 1_555
Na2 O18 2.859137 1_555
Na3 O24 2.260246 1_565
Na3 O10 2.331040 1_555
Na4 O42 2.321715 1_555
Na4 O34 2.368856 1_554
Na4 O25 2.388757 1_554
Na4 O9 2.458237 1_555
Na4 O30 2.795848 1_565
Na5 O23 2.321715 1_555
Na5 O28 2.368856 1_556
Na5 O40 2.388757 1_556
Na5 O13 2.458237 1_555
Na5 O36 2.795848 1_545
Mg0 O29 1.974169 1_555
Mg0 O40 2.094966 1_555
Mg0 O25 2.095627 1_654
Mg0 O5 2.165461 1_555
Mg1 O20 1.852278 1_555
Mg1 O15 2.058461 1_555
Mg1 O12 2.081399 1_455
Mg1 O38 2.266153 1_555
Mg1 O35 2.370479 1_455
Mg1 O11 2.453857 1_455
Mg2 O1 1.852278 1_555
Mg2 O7 2.058461 1_555
Mg2 O6 2.081399 1_655
Mg2 O27 2.266153 1_555
Mg2 O31 2.370479 1_655
Mg2 O10 2.453857 1_655
Mg3 O37 1.974169 1_555
Mg3 O25 2.094966 1_555
Mg3 O40 2.095627 1_456
Mg3 O16 2.165461 1_555
Mg4 O22 2.065626 1_555
Mg4 O19 2.098673 1_555
Mg4 O39 2.109251 1_555
Mg4 O16 2.187731 1_555
Mg4 O8 2.323592 1_555
Mg5 O37 1.951141 1_554
Mg5 O28 2.003924 1_555
Mg5 O26 2.110155 1_555
Mg6 O29 1.951141 1_556
Mg6 O34 2.003924 1_555
Mg6 O39 2.110155 1_555
Mg7 O43 2.065626 1_555
Mg7 O2 2.098673 1_555
Mg7 O26 2.109251 1_555
Mg7 O5 2.187731 1_555
Mg7 O14 2.323592 1_555
Cr0 O2 1.920697 1_555
Cr0 O17 1.958054 1_555
Cr0 O41 2.018379 1_555
Cr0 O9 2.052620 1_555
Cr0 O42 2.156937 1_555
Cr1 O19 1.920697 1_555
Cr1 O4 1.958054 1_555
Cr1 O24 2.018379 1_555
Cr1 O13 2.052620 1_555
Cr1 O23 2.156937 1_555
O0 Si15 1.621353 1_555
O0 Si4 1.734278 1_555
O1 Si5 1.586279 1_545
O2 Si14 1.749979 1_555
O3 Si5 1.643259 1_445
O3 Si4 1.717345 1_555
O4 Si9 1.686393 1_555
O5 Si10 1.602270 1_555
O6 Si8 1.646610 1_555
O6 Si4 1.850889 1_555
O7 Si15 1.658642 1_555
O7 Si9 1.904429 1_555
O8 Si9 1.758611 1_555
O8 Si3 1.772448 1_555
O9 Si0 1.642198 1_565
O10 Si8 1.693122 1_555
O10 Si13 1.704781 1_555
O11 Si15 1.693122 1_555
O11 Si10 1.704781 1_555
O12 Si15 1.646610 1_555
O12 Si3 1.850889 1_555
O13 Si7 1.642198 1_545
O14 Si14 1.758611 1_555
O14 Si4 1.772448 1_555
O15 Si8 1.658642 1_555
O15 Si14 1.904429 1_555
O16 Si13 1.602270 1_555
O17 Si14 1.686393 1_555
O18 Si2 1.643259 1_665
O18 Si3 1.717345 1_555
O19 Si9 1.749979 1_555
O20 Si2 1.586279 1_565
O21 Si8 1.621353 1_555
O21 Si3 1.734278 1_555
O22 Si7 1.702597 1_555
O22 Si3 1.822417 1_555
O23 O39 1.518673 1_555
O23 Si6 1.830609 1_555
O24 Si2 1.666296 1_555
O25 Si12 1.691837 1_555
O26 O42 1.518673 1_555
O27 Si13 1.608351 1_655
O27 Si9 1.764941 1_555
O28 Si0 1.636254 1_555
O29 Si1 1.621827 1_555
O30 Si1 1.624069 1_545
O30 Si11 1.738803 1_555
O31 Si13 1.636977 1_555
O31 Si2 1.662534 1_555
O32 Si1 1.672817 1_455
O32 Si0 1.717329 1_565
O33 Si6 1.672817 1_655
O33 Si7 1.717329 1_545
O34 Si7 1.636254 1_555
O35 Si10 1.636977 1_555
O35 Si5 1.662534 1_555
O36 Si6 1.624069 1_565
O36 Si12 1.738803 1_555
O37 Si6 1.621827 1_555
O38 Si10 1.608351 1_455
O38 Si14 1.764941 1_555
O40 Si11 1.691837 1_555
O41 Si5 1.666296 1_555
O42 Si1 1.830609 1_555
O43 Si0 1.702597 1_555
O43 Si4 1.822417 1_555
F0 Si4 1.878896 1_555
F0 Si14 2.116222 1_555
F0 Na0 2.122689 1_455
F1 Si3 1.878896 1_555
F1 Si9 2.116222 1_555
F1 Na3 2.122689 1_655
F2 Si12 1.878496 1_655
F2 Mg6 2.031070 1_555
F2 Na3 2.592705 1_655
F3 Si11 1.878496 1_455
F3 Mg5 2.031070 1_555
F3 Na0 2.592705 1_455
