# generated using pymatgen
data_BaScIr
_symmetry_space_group_name_H-M   'P 1'
_cell_length_a   4.83226026
_cell_length_b   4.83226026
_cell_length_c   4.83226026
_cell_angle_alpha   60.00000000
_cell_angle_beta   60.00000000
_cell_angle_gamma   60.00000000
_symmetry_Int_Tables_number   1
_chemical_formula_structural   BaScIr
_chemical_formula_sum   'Ba1 Sc1 Ir1'
_cell_volume   79.78770134
_cell_formula_units_Z   1
loop_
 _symmetry_equiv_pos_site_id
 _symmetry_equiv_pos_as_xyz
  1  'x, y, z'
loop_
 _atom_site_type_symbol
 _atom_site_label
 _atom_site_symmetry_multiplicity
 _atom_site_fract_x
 _atom_site_fract_y
 _atom_site_fract_z
 _atom_site_occupancy
  Ba  Ba0  1  0.75000000  0.75000000  0.75000000  1
  Sc  Sc0  1  0.50000000  0.50000000  0.50000000  1
  Ir  Ir0  1  0.00000000  0.00000000  0.00000000  1
loop_
_geom_bond_atom_site_label_1
_geom_bond_atom_site_label_2
_geom_bond_distance
_geom_bond_site_symmetry_2
Ba0 Sc0 2.959143 1_565
Ba0 Ir0 2.959143 1_656
Ba0 Sc0 2.959143 1_655
Ba0 Sc0 2.959143 1_555
Ba0 Sc0 2.959143 1_556
Ba0 Ir0 2.959143 1_566
Ba0 Ir0 2.959143 1_665
Ba0 Ir0 2.959143 1_666
Ir0 Sc0 3.416924 1_544
Ir0 Sc0 3.416924 1_454
Ir0 Sc0 3.416924 1_545
Ir0 Sc0 3.416924 1_455
Ir0 Sc0 3.416924 1_554
Ir0 Sc0 3.416924 1_445
