# generated using pymatgen
data_K2Ca2C2O3F2
_symmetry_space_group_name_H-M   'P 1'
_cell_length_a   6.76793813
_cell_length_b   6.76793813
_cell_length_c   8.17984700
_cell_angle_alpha   90.00000000
_cell_angle_beta   90.00000000
_cell_angle_gamma   93.99976163
_symmetry_Int_Tables_number   1
_chemical_formula_structural   K2Ca2C2O3F2
_chemical_formula_sum   'K4 Ca4 C4 O6 F4'
_cell_volume   373.76519382
_cell_formula_units_Z   2
loop_
 _symmetry_equiv_pos_site_id
 _symmetry_equiv_pos_as_xyz
  1  'x, y, z'
loop_
 _atom_site_type_symbol
 _atom_site_label
 _atom_site_symmetry_multiplicity
 _atom_site_fract_x
 _atom_site_fract_y
 _atom_site_fract_z
 _atom_site_occupancy
  K  K0  1  0.62729900  0.87668800  0.99130100  1
  K  K1  1  0.87668800  0.62729900  0.49130100  1
  K  K2  1  0.12331200  0.37270100  0.99130100  1
  K  K3  1  0.37270100  0.12331200  0.49130100  1
  Ca  Ca0  1  0.61927400  0.38072600  0.82550700  1
  Ca  Ca1  1  0.86365400  0.13634600  0.32357300  1
  Ca  Ca2  1  0.13634600  0.86365400  0.82357300  1
  Ca  Ca3  1  0.38072600  0.61927400  0.32550700  1
  C  C0  1  0.87544500  0.12455500  0.68589500  1
  C  C1  1  0.12455500  0.87544500  0.18589500  1
  C  C2  1  0.35125300  0.64874700  0.67362000  1
  C  C3  1  0.64874700  0.35125300  0.17362000  1
  O  O0  1  0.76437900  0.23562100  0.59772800  1
  O  O1  1  0.98700700  0.01299300  0.59775400  1
  O  O2  1  0.01299300  0.98700700  0.09775400  1
  O  O3  1  0.23562100  0.76437900  0.09772800  1
  O  O4  1  0.46882300  0.53117700  0.59696800  1
  O  O5  1  0.53117700  0.46882300  0.09696800  1
  F  F0  1  0.62534000  0.86847900  0.33446800  1
  F  F1  1  0.86847900  0.62534000  0.83446800  1
  F  F2  1  0.13152100  0.37466000  0.33446800  1
  F  F3  1  0.37466000  0.13152100  0.83446800  1
loop_
_geom_bond_atom_site_label_1
_geom_bond_atom_site_label_2
_geom_bond_distance
_geom_bond_site_symmetry_2
K0 O2 2.803168 1_656
K0 O3 2.842807 1_556
K0 O5 2.922262 1_556
K1 O1 2.803168 1_565
K1 O0 2.842807 1_555
K1 O4 2.922262 1_555
K2 O2 2.803168 1_546
K2 O3 2.842807 1_556
K2 O5 2.922262 1_556
K3 O1 2.803168 1_455
K3 O0 2.842807 1_555
K3 O4 2.922262 1_555
Ca0 F3 2.280628 1_555
Ca0 F1 2.280628 1_555
Ca0 O0 2.352645 1_555
Ca0 O5 2.385634 1_556
Ca0 O4 2.390186 1_555
Ca1 F0 2.342667 1_545
Ca1 F2 2.342667 1_655
Ca1 O2 2.365930 1_645
Ca1 O0 2.448439 1_555
Ca1 O1 2.553650 1_555
Ca2 F1 2.342667 1_455
Ca2 F3 2.342667 1_565
Ca2 O1 2.365930 1_465
Ca2 O3 2.448439 1_556
Ca2 O2 2.553650 1_556
Ca3 F2 2.280628 1_555
Ca3 F0 2.280628 1_555
Ca3 O3 2.352645 1_555
Ca3 O4 2.385634 1_555
Ca3 O5 2.390186 1_555
C0 O0 1.314919 1_555
C0 O1 1.318912 1_555
C1 O3 1.314919 1_555
C1 O2 1.318912 1_555
C2 O4 1.322027 1_555
C2 Ca2 2.455740 1_555
C3 O5 1.322027 1_555
C3 Ca1 2.455740 1_555
F0 K1 2.755224 1_555
F0 K0 2.807616 1_554
F0 K3 2.820512 1_565
F1 K0 2.755224 1_555
F1 K1 2.807616 1_555
F1 K2 2.820512 1_655
F2 K3 2.755224 1_555
F2 K2 2.807616 1_554
F2 K1 2.820512 1_455
F3 K2 2.755224 1_555
F3 K3 2.807616 1_555
F3 K0 2.820512 1_545
