# generated using pymatgen
data_Sr3Pr4O9
_symmetry_space_group_name_H-M   'P 1'
_cell_length_a   7.03805000
_cell_length_b   9.22830473
_cell_length_c   9.81458351
_cell_angle_alpha   91.88620129
_cell_angle_beta   97.10518280
_cell_angle_gamma   107.51936991
_symmetry_Int_Tables_number   1
_chemical_formula_structural   Sr3Pr4O9
_chemical_formula_sum   'Sr6 Pr8 O18'
_cell_volume   601.55428068
_cell_formula_units_Z   2
loop_
 _symmetry_equiv_pos_site_id
 _symmetry_equiv_pos_as_xyz
  1  'x, y, z'
loop_
 _atom_site_type_symbol
 _atom_site_label
 _atom_site_symmetry_multiplicity
 _atom_site_fract_x
 _atom_site_fract_y
 _atom_site_fract_z
 _atom_site_occupancy
  Sr  Sr0  1  0.09003900  0.73670100  0.92685000  1
  Sr  Sr1  1  0.78055000  0.77569100  0.42583400  1
  Sr  Sr2  1  0.52665000  0.62449200  0.06023100  1
  Sr  Sr3  1  0.83789700  0.19904100  0.44820400  1
  Sr  Sr4  1  0.64961900  0.34541800  0.73198600  1
  Sr  Sr5  1  0.08563400  0.32211900  0.92403900  1
  Pr  Pr0  1  0.51527000  0.16884300  0.03903000  1
  Pr  Pr1  1  0.19365800  0.63842900  0.61864800  1
  Pr  Pr2  1  0.93782500  0.00320000  0.15490800  1
  Pr  Pr3  1  0.68811100  0.92702200  0.76639500  1
  Pr  Pr4  1  0.35206500  0.32806800  0.35567100  1
  Pr  Pr5  1  0.96350800  0.52751600  0.23758900  1
  Pr  Pr6  1  0.17324700  0.05678200  0.66978800  1
  Pr  Pr7  1  0.35469000  0.93609400  0.37344600  1
  O  O0  1  0.29617100  0.12043900  0.20009000  1
  O  O1  1  0.10222400  0.72427700  0.40586100  1
  O  O2  1  0.51051900  0.82478800  0.55249800  1
  O  O3  1  0.62053300  0.93267700  0.25295600  1
  O  O4  1  0.01027000  0.01254500  0.92701000  1
  O  O5  1  0.18356300  0.54824400  0.08730700  1
  O  O6  1  0.12482300  0.42599500  0.44559500  1
  O  O7  1  0.42990900  0.74518600  0.84895200  1
  O  O8  1  0.99460000  0.81327900  0.66844900  1
  O  O9  1  0.63000600  0.50250300  0.30282600  1
  O  O10  1  0.89639000  0.74318500  0.12336400  1
  O  O11  1  0.05900700  0.04168200  0.41998300  1
  O  O12  1  0.49130300  0.19658400  0.51116100  1
  O  O13  1  0.46379000  0.37079800  0.93538900  1
  O  O14  1  0.50329000  0.08972200  0.81213300  1
  O  O15  1  0.85100200  0.24560200  0.13049500  1
  O  O16  1  0.98193200  0.50376300  0.77059100  1
  O  O17  1  0.92090600  0.16150900  0.68391900  1
loop_
_geom_bond_atom_site_label_1
_geom_bond_atom_site_label_2
_geom_bond_distance
_geom_bond_site_symmetry_2
O0 Pr0 2.304539 1_555
O0 Pr4 2.315744 1_555
O0 Pr2 2.403518 1_455
O0 Pr7 2.529332 1_545
O1 Pr7 2.273555 1_555
O1 Pr5 2.305239 1_455
O1 Pr1 2.342352 1_555
O1 Sr1 2.477785 1_455
O2 Pr3 2.317326 1_555
O2 Pr7 2.380408 1_555
O2 Sr1 2.535427 1_555
O2 Pr1 2.544612 1_555
O3 Pr7 2.341060 1_555
O3 Pr2 2.456467 1_565
O3 Sr1 2.630091 1_555
O3 Sr3 2.958949 1_565
O3 Sr2 3.210640 1_555
O3 Pr0 3.255073 1_565
O4 Pr2 2.353442 1_456
O4 Pr3 2.491051 1_445
O4 Sr5 2.746042 1_555
O4 Sr0 2.766858 1_545
O4 Pr6 2.890998 1_555
O5 Pr5 2.239655 1_455
O5 Sr2 2.354665 1_555
O5 Sr5 2.457240 1_554
O5 Sr0 2.559489 1_554
O6 Pr4 2.306586 1_555
O6 Sr3 2.436208 1_455
O6 Pr1 2.442962 1_555
O6 Pr5 2.554863 1_455
O7 Pr3 2.322185 1_555
O7 Sr2 2.502669 1_556
O7 Sr0 2.579923 1_555
O7 Pr1 2.604201 1_555
O8 Pr6 2.218903 1_665
O8 Pr1 2.506737 1_655
O8 Sr1 2.608332 1_555
O8 Sr0 2.713804 1_655
O8 Pr3 2.913522 1_555
O9 Pr4 2.257644 1_555
O9 Pr5 2.455181 1_555
O9 Sr1 2.609769 1_555
O9 Sr2 2.776056 1_555
O10 Pr2 2.333657 1_565
O10 Pr5 2.454175 1_555
O10 Sr2 2.489130 1_555
O10 Sr0 2.504553 1_654
O11 Sr3 2.459243 1_455
O11 Pr6 2.469670 1_555
O11 Pr2 2.613384 1_455
O11 Pr7 2.629718 1_545
O11 Sr1 2.647687 1_445
O11 Pr4 2.964335 1_555
O12 Pr4 2.286769 1_555
O12 Sr4 2.471934 1_555
O12 Pr7 2.569642 1_545
O12 Sr3 2.583256 1_555
O12 Pr6 2.890458 1_555
O13 Pr0 2.253776 1_556
O13 Sr2 2.496309 1_556
O13 Sr5 2.549752 1_555
O13 Sr4 2.559338 1_555
O14 Pr0 2.304075 1_556
O14 Pr3 2.328906 1_545
O14 Sr4 2.471196 1_555
O14 Pr6 2.486761 1_555
O15 Pr0 2.305777 1_555
O15 Pr2 2.501365 1_555
O15 Pr5 2.621810 1_555
O15 Sr5 2.747964 1_654
O15 Sr3 3.170437 1_555
O16 Sr4 2.331459 1_555
O16 Pr1 2.354902 1_655
O16 Sr0 2.461988 1_655
O16 Sr5 2.498305 1_655
O17 Pr6 2.278790 1_655
O17 Sr3 2.377714 1_555
O17 Pr3 2.516161 1_545
O17 Sr5 2.674780 1_655
O17 Sr4 2.978178 1_555
