# generated using pymatgen
data_Mg3Fe2(SiO4)3
_symmetry_space_group_name_H-M   'P 1'
_cell_length_a   10.21093488
_cell_length_b   10.21093488
_cell_length_c   10.21093488
_cell_angle_alpha   109.47122063
_cell_angle_beta   109.47122063
_cell_angle_gamma   109.47122063
_symmetry_Int_Tables_number   1
_chemical_formula_structural   Mg3Fe2(SiO4)3
_chemical_formula_sum   'Mg12 Fe8 Si12 O48'
_cell_volume   819.54844080
_cell_formula_units_Z   4
loop_
 _symmetry_equiv_pos_site_id
 _symmetry_equiv_pos_as_xyz
  1  'x, y, z'
loop_
 _atom_site_type_symbol
 _atom_site_label
 _atom_site_symmetry_multiplicity
 _atom_site_fract_x
 _atom_site_fract_y
 _atom_site_fract_z
 _atom_site_occupancy
  Mg  Mg0  1  0.37500000  0.75000000  0.12500000  1
  Mg  Mg1  1  0.25000000  0.37500000  0.12500000  1
  Mg  Mg2  1  0.75000000  0.12500000  0.37500000  1
  Mg  Mg3  1  0.37500000  0.12500000  0.25000000  1
  Mg  Mg4  1  0.12500000  0.37500000  0.75000000  1
  Mg  Mg5  1  0.12500000  0.25000000  0.37500000  1
  Mg  Mg6  1  0.62500000  0.25000000  0.87500000  1
  Mg  Mg7  1  0.75000000  0.62500000  0.87500000  1
  Mg  Mg8  1  0.25000000  0.87500000  0.62500000  1
  Mg  Mg9  1  0.62500000  0.87500000  0.75000000  1
  Mg  Mg10  1  0.87500000  0.62500000  0.25000000  1
  Mg  Mg11  1  0.87500000  0.75000000  0.62500000  1
  Fe  Fe0  1  0.50000000  0.00000000  0.50000000  1
  Fe  Fe1  1  0.00000000  0.50000000  0.00000000  1
  Fe  Fe2  1  0.50000000  0.50000000  0.50000000  1
  Fe  Fe3  1  0.00000000  0.00000000  0.00000000  1
  Fe  Fe4  1  0.00000000  0.50000000  0.50000000  1
  Fe  Fe5  1  0.50000000  0.50000000  0.00000000  1
  Fe  Fe6  1  0.50000000  0.00000000  0.00000000  1
  Fe  Fe7  1  0.00000000  0.00000000  0.50000000  1
  Si  Si0  1  0.87500000  0.25000000  0.12500000  1
  Si  Si1  1  0.75000000  0.37500000  0.62500000  1
  Si  Si2  1  0.12500000  0.87500000  0.25000000  1
  Si  Si3  1  0.25000000  0.12500000  0.87500000  1
  Si  Si4  1  0.62500000  0.37500000  0.25000000  1
  Si  Si5  1  0.37500000  0.62500000  0.75000000  1
  Si  Si6  1  0.37500000  0.25000000  0.62500000  1
  Si  Si7  1  0.87500000  0.12500000  0.75000000  1
  Si  Si8  1  0.62500000  0.75000000  0.37500000  1
  Si  Si9  1  0.25000000  0.62500000  0.37500000  1
  Si  Si10  1  0.75000000  0.87500000  0.12500000  1
  Si  Si11  1  0.12500000  0.75000000  0.87500000  1
  O  O0  1  0.87594300  0.39650200  0.08847500  1
  O  O1  1  0.78746800  0.87594300  0.97944100  1
  O  O2  1  0.39650200  0.80802700  0.52055900  1
  O  O3  1  0.69197300  0.08847500  0.71253200  1
  O  O4  1  0.80802700  0.52055900  0.39650200  1
  O  O5  1  0.97944100  0.78746800  0.87594300  1
  O  O6  1  0.08847500  0.71253200  0.69197300  1
  O  O7  1  0.97944100  0.69197300  0.10349800  1
  O  O8  1  0.78746800  0.41152500  0.80802700  1
  O  O9  1  0.41152500  0.80802700  0.78746800  1
  O  O10  1  0.71253200  0.52055900  0.62405700  1
  O  O11  1  0.08847500  0.87594300  0.39650200  1
  O  O12  1  0.39650200  0.08847500  0.87594300  1
  O  O13  1  0.10349800  0.97944100  0.69197300  1
  O  O14  1  0.52055900  0.62405700  0.71253200  1
  O  O15  1  0.80802700  0.78746800  0.41152500  1
  O  O16  1  0.10349800  0.62405700  0.41152500  1
  O  O17  1  0.62405700  0.71253200  0.52055900  1
  O  O18  1  0.87594300  0.97944100  0.78746800  1
  O  O19  1  0.69197300  0.10349800  0.97944100  1
  O  O20  1  0.52055900  0.39650200  0.80802700  1
  O  O21  1  0.71253200  0.69197300  0.08847500  1
  O  O22  1  0.62405700  0.41152500  0.10349800  1
  O  O23  1  0.41152500  0.10349800  0.62405700  1
  O  O24  1  0.12405700  0.60349800  0.91152500  1
  O  O25  1  0.21253200  0.12405700  0.02055900  1
  O  O26  1  0.60349800  0.19197300  0.47944100  1
  O  O27  1  0.30802700  0.91152500  0.28746800  1
  O  O28  1  0.19197300  0.47944100  0.60349800  1
  O  O29  1  0.02055900  0.21253200  0.12405700  1
  O  O30  1  0.91152500  0.28746800  0.30802700  1
  O  O31  1  0.02055900  0.30802700  0.89650200  1
  O  O32  1  0.21253200  0.58847500  0.19197300  1
  O  O33  1  0.58847500  0.19197300  0.21253200  1
  O  O34  1  0.28746800  0.47944100  0.37594300  1
  O  O35  1  0.91152500  0.12405700  0.60349800  1
  O  O36  1  0.60349800  0.91152500  0.12405700  1
  O  O37  1  0.89650200  0.02055900  0.30802700  1
  O  O38  1  0.47944100  0.37594300  0.28746800  1
  O  O39  1  0.19197300  0.21253200  0.58847500  1
  O  O40  1  0.89650200  0.37594300  0.58847500  1
  O  O41  1  0.37594300  0.28746800  0.47944100  1
  O  O42  1  0.12405700  0.02055900  0.21253200  1
  O  O43  1  0.30802700  0.89650200  0.02055900  1
  O  O44  1  0.47944100  0.60349800  0.19197300  1
  O  O45  1  0.28746800  0.30802700  0.91152500  1
  O  O46  1  0.37594300  0.58847500  0.89650200  1
  O  O47  1  0.58847500  0.89650200  0.37594300  1
loop_
_geom_bond_atom_site_label_1
_geom_bond_atom_site_label_2
_geom_bond_distance
_geom_bond_site_symmetry_2
Mg0 O24 2.258779 1_554
Mg0 O43 2.258779 1_555
Mg0 O47 2.258779 1_555
Mg0 O44 2.258779 1_555
Mg0 O36 2.371539 1_555
Mg0 O46 2.371539 1_554
Mg0 O32 2.371539 1_555
Mg0 O27 2.371539 1_555
Mg1 O32 2.258779 1_555
Mg1 O45 2.258779 1_554
Mg1 O25 2.258779 1_555
Mg1 O34 2.258779 1_555
Mg1 O31 2.371539 1_554
Mg1 O38 2.371539 1_555
Mg1 O44 2.371539 1_555
Mg1 O29 2.371539 1_555
Mg2 O40 2.258779 1_555
Mg2 O26 2.258779 1_555
Mg2 O36 2.258779 1_545
Mg2 O37 2.258779 1_555
Mg2 O47 2.371539 1_545
Mg2 O35 2.371539 1_555
Mg2 O30 2.371539 1_555
Mg2 O33 2.371539 1_555
Mg3 O27 2.258779 1_545
Mg3 O33 2.258779 1_555
Mg3 O42 2.258779 1_555
Mg3 O38 2.258779 1_555
Mg3 O26 2.371539 1_555
Mg3 O43 2.371539 1_545
Mg3 O41 2.371539 1_555
Mg3 O25 2.371539 1_555
Mg4 O46 2.258779 1_555
Mg4 O31 2.258779 1_555
Mg4 O28 2.258779 1_555
Mg4 O35 2.258779 1_455
Mg4 O24 2.371539 1_555
Mg4 O45 2.371539 1_555
Mg4 O40 2.371539 1_455
Mg4 O39 2.371539 1_555
Mg5 O30 2.258779 1_455
Mg5 O39 2.258779 1_555
Mg5 O29 2.258779 1_555
Mg5 O41 2.258779 1_555
Mg5 O28 2.371539 1_555
Mg5 O34 2.371539 1_555
Mg5 O42 2.371539 1_555
Mg5 O37 2.371539 1_455
Mg6 O19 2.258779 1_555
Mg6 O20 2.258779 1_555
Mg6 O23 2.258779 1_555
Mg6 O0 2.258779 1_556
Mg6 O3 2.371539 1_555
Mg6 O8 2.371539 1_555
Mg6 O12 2.371539 1_555
Mg6 O22 2.371539 1_556
Mg7 O8 2.258779 1_555
Mg7 O10 2.258779 1_555
Mg7 O1 2.258779 1_555
Mg7 O21 2.258779 1_556
Mg7 O5 2.371539 1_555
Mg7 O14 2.371539 1_555
Mg7 O20 2.371539 1_555
Mg7 O7 2.371539 1_556
Mg8 O13 2.258779 1_555
Mg8 O2 2.258779 1_555
Mg8 O16 2.258779 1_555
Mg8 O12 2.258779 1_565
Mg8 O9 2.371539 1_555
Mg8 O6 2.371539 1_555
Mg8 O11 2.371539 1_555
Mg8 O23 2.371539 1_565
Mg9 O9 2.258779 1_555
Mg9 O3 2.258779 1_565
Mg9 O18 2.258779 1_555
Mg9 O14 2.258779 1_555
Mg9 O17 2.371539 1_555
Mg9 O1 2.371539 1_555
Mg9 O19 2.371539 1_565
Mg9 O2 2.371539 1_555
Mg10 O4 2.258779 1_555
Mg10 O7 2.258779 1_555
Mg10 O22 2.258779 1_555
Mg10 O11 2.258779 1_655
Mg10 O15 2.371539 1_555
Mg10 O21 2.371539 1_555
Mg10 O0 2.371539 1_555
Mg10 O16 2.371539 1_655
Mg11 O15 2.258779 1_555
Mg11 O6 2.258779 1_655
Mg11 O5 2.258779 1_555
Mg11 O17 2.258779 1_555
Mg11 O18 2.371539 1_555
Mg11 O10 2.371539 1_555
Mg11 O4 2.371539 1_555
Mg11 O13 2.371539 1_655
Fe0 O47 2.011113 1_545
Fe0 O2 2.011113 1_545
Fe0 O3 2.011113 1_555
Fe0 O27 2.011113 1_545
Fe0 O23 2.011113 1_555
Fe0 O26 2.011113 1_555
Fe1 O7 2.011113 1_455
Fe1 O24 2.011113 1_554
Fe1 O31 2.011113 1_554
Fe1 O0 2.011113 1_455
Fe1 O32 2.011113 1_555
Fe1 O8 2.011113 1_454
Fe2 O38 2.011113 1_555
Fe2 O34 2.011113 1_555
Fe2 O14 2.011113 1_555
Fe2 O41 2.011113 1_555
Fe2 O10 2.011113 1_555
Fe2 O17 2.011113 1_555
Fe3 O42 2.011113 1_555
Fe3 O29 2.011113 1_555
Fe3 O25 2.011113 1_555
Fe3 O1 2.011113 1_444
Fe3 O5 2.011113 1_444
Fe3 O18 2.011113 1_444
Fe4 O40 2.011113 1_455
Fe4 O4 2.011113 1_455
Fe4 O16 2.011113 1_555
Fe4 O28 2.011113 1_555
Fe4 O6 2.011113 1_555
Fe4 O30 2.011113 1_455
Fe5 O20 2.011113 1_554
Fe5 O44 2.011113 1_555
Fe5 O22 2.011113 1_555
Fe5 O46 2.011113 1_554
Fe5 O45 2.011113 1_554
Fe5 O21 2.011113 1_555
Fe6 O19 2.011113 1_554
Fe6 O43 2.011113 1_545
Fe6 O36 2.011113 1_545
Fe6 O12 2.011113 1_554
Fe6 O9 2.011113 1_544
Fe6 O33 2.011113 1_555
Fe7 O35 2.011113 1_455
Fe7 O13 2.011113 1_545
Fe7 O11 2.011113 1_545
Fe7 O15 2.011113 1_445
Fe7 O39 2.011113 1_555
Fe7 O37 2.011113 1_455
O0 Si0 1.655809 1_555
O1 Si10 1.655809 1_556
O2 Si9 1.655809 1_555
O3 Si7 1.655809 1_555
O4 Si4 1.655809 1_555
O5 Si11 1.655809 1_655
O6 Si11 1.655809 1_555
O7 Si2 1.655809 1_655
O8 Si1 1.655809 1_555
O9 Si5 1.655809 1_555
O10 Si1 1.655809 1_555
O11 Si2 1.655809 1_555
O12 Si3 1.655809 1_555
O13 Si3 1.655809 1_565
O14 Si5 1.655809 1_555
O15 Si8 1.655809 1_555
O16 Si9 1.655809 1_555
O17 Si8 1.655809 1_555
O18 Si7 1.655809 1_565
O19 Si0 1.655809 1_556
O20 Si6 1.655809 1_555
O21 Si10 1.655809 1_555
O22 Si4 1.655809 1_555
O23 Si6 1.655809 1_555
O24 Si11 1.655809 1_555
O25 Si3 1.655809 1_554
O26 Si1 1.655809 1_555
O27 Si2 1.655809 1_555
O28 Si5 1.655809 1_555
O29 Si0 1.655809 1_455
O30 Si0 1.655809 1_555
O31 Si7 1.655809 1_455
O32 Si9 1.655809 1_555
O33 Si4 1.655809 1_555
O34 Si9 1.655809 1_555
O35 Si7 1.655809 1_555
O36 Si10 1.655809 1_555
O37 Si10 1.655809 1_545
O38 Si4 1.655809 1_555
O39 Si6 1.655809 1_555
O40 Si1 1.655809 1_555
O41 Si6 1.655809 1_555
O42 Si2 1.655809 1_545
O43 Si11 1.655809 1_554
O44 Si8 1.655809 1_555
O45 Si3 1.655809 1_555
O46 Si5 1.655809 1_555
O47 Si8 1.655809 1_555
