# generated using pymatgen
data_SrZnNi(PO4)2
_symmetry_space_group_name_H-M   'P 1'
_cell_length_a   5.48173100
_cell_length_b   6.95239245
_cell_length_c   9.36338903
_cell_angle_alpha   110.67820306
_cell_angle_beta   101.76320716
_cell_angle_gamma   98.15171611
_symmetry_Int_Tables_number   1
_chemical_formula_structural   SrZnNi(PO4)2
_chemical_formula_sum   'Sr2 Zn2 Ni2 P4 O16'
_cell_volume   317.82126541
_cell_formula_units_Z   2
loop_
 _symmetry_equiv_pos_site_id
 _symmetry_equiv_pos_as_xyz
  1  'x, y, z'
loop_
 _atom_site_type_symbol
 _atom_site_label
 _atom_site_symmetry_multiplicity
 _atom_site_fract_x
 _atom_site_fract_y
 _atom_site_fract_z
 _atom_site_occupancy
  Sr  Sr0  1  0.19749300  0.74781500  0.05116500  1
  Sr  Sr1  1  0.80250700  0.25218500  0.94883500  1
  Zn  Zn0  1  0.34258600  0.73690800  0.64723300  1
  Zn  Zn1  1  0.65741400  0.26309200  0.35276700  1
  Ni  Ni0  1  0.07783800  0.29211300  0.56059300  1
  Ni  Ni1  1  0.92216200  0.70788700  0.43940700  1
  P  P0  1  0.15919800  0.18781200  0.23657800  1
  P  P1  1  0.84080200  0.81218800  0.76342200  1
  P  P2  1  0.54049700  0.72163300  0.30239300  1
  P  P3  1  0.45950300  0.27836700  0.69760700  1
  O  O0  1  0.92006100  0.66213900  0.89219200  1
  O  O1  1  0.45565300  0.26547800  0.20922800  1
  O  O2  1  0.89703900  0.03647600  0.76186600  1
  O  O3  1  0.25700300  0.41980000  0.69559900  1
  O  O4  1  0.54434700  0.73452200  0.79077200  1
  O  O5  1  0.41771300  0.17005200  0.57815100  1
  O  O6  1  0.58228700  0.82994800  0.42184900  1
  O  O7  1  0.39493300  0.12965600  0.86712300  1
  O  O8  1  0.10296100  0.96352400  0.23813400  1
  O  O9  1  0.60506700  0.87034400  0.13287700  1
  O  O10  1  0.07993900  0.33786100  0.10780800  1
  O  O11  1  0.97907500  0.19327000  0.39830100  1
  O  O12  1  0.02092500  0.80673000  0.60169900  1
  O  O13  1  0.25232300  0.58489500  0.36892100  1
  O  O14  1  0.74299700  0.58020000  0.30440100  1
  O  O15  1  0.74767700  0.41510500  0.63107900  1
loop_
_geom_bond_atom_site_label_1
_geom_bond_atom_site_label_2
_geom_bond_distance
_geom_bond_site_symmetry_2
Ni0 O3 1.343367 1_555
Ni0 O11 1.376985 1_455
Ni0 O15 2.229277 1_455
Ni1 O14 1.343367 1_555
Ni1 O12 1.376985 1_655
Ni1 O13 2.229277 1_655
O0 Sr0 1.754216 1_656
O0 P1 1.879909 1_555
O1 Zn1 1.563566 1_555
O1 P0 1.736821 1_555
O2 P1 1.551881 1_545
O2 Sr1 2.078104 1_555
O3 P3 1.585411 1_555
O3 Zn0 2.405025 1_555
O4 Zn0 1.563566 1_555
O4 P1 1.736821 1_555
O5 P3 1.059422 1_555
O6 P2 1.059422 1_555
O7 Sr1 2.146097 1_555
O7 P3 2.235583 1_555
O8 P0 1.551881 1_565
O8 Sr0 2.078104 1_555
O9 Sr0 2.146097 1_555
O9 P2 2.235583 1_555
O10 Sr1 1.754216 1_454
O10 P0 1.879909 1_555
O11 Zn1 1.899705 1_555
O11 P0 1.961907 1_655
O12 Zn0 1.899705 1_555
O12 P1 1.961907 1_455
O13 P2 2.044697 1_555
O13 Zn0 2.352365 1_555
O14 P2 1.585411 1_555
O14 Zn1 2.405025 1_555
O15 P3 2.044697 1_555
O15 Zn1 2.352365 1_555
