# generated using pymatgen
data_Mg(Mo3Se4)2
_symmetry_space_group_name_H-M   'P 1'
_cell_length_a   6.83197900
_cell_length_b   6.85717126
_cell_length_c   13.69604376
_cell_angle_alpha   93.23755843
_cell_angle_beta   93.17031163
_cell_angle_gamma   93.37631258
_symmetry_Int_Tables_number   1
_chemical_formula_structural   Mg(Mo3Se4)2
_chemical_formula_sum   'Mg2 Mo12 Se16'
_cell_volume   638.38949032
_cell_formula_units_Z   2
loop_
 _symmetry_equiv_pos_site_id
 _symmetry_equiv_pos_as_xyz
  1  'x, y, z'
loop_
 _atom_site_type_symbol
 _atom_site_label
 _atom_site_symmetry_multiplicity
 _atom_site_fract_x
 _atom_site_fract_y
 _atom_site_fract_z
 _atom_site_occupancy
  Mg  Mg0  1  0.04684900  0.88826500  0.52719900  1
  Mg  Mg1  1  0.88836200  0.05473400  0.02286400  1
  Mo  Mo0  1  0.58248300  0.76362400  0.22573300  1
  Mo  Mo1  1  0.58385600  0.76642000  0.72727100  1
  Mo  Mo2  1  0.45218800  0.58240800  0.38329400  1
  Mo  Mo3  1  0.23487900  0.54608300  0.20815200  1
  Mo  Mo4  1  0.45216100  0.58477100  0.88107100  1
  Mo  Mo5  1  0.23460800  0.54549200  0.70853200  1
  Mo  Mo6  1  0.76268500  0.45502500  0.29175400  1
  Mo  Mo7  1  0.54635100  0.41750500  0.11679800  1
  Mo  Mo8  1  0.76483300  0.45078600  0.79245600  1
  Mo  Mo9  1  0.54595300  0.41280700  0.61808000  1
  Mo  Mo10  1  0.41170600  0.23528400  0.27383000  1
  Mo  Mo11  1  0.41368800  0.23117100  0.77285700  1
  Se  Se0  1  0.26612100  0.87044700  0.31368100  1
  Se  Se1  1  0.26784700  0.86935900  0.81153700  1
  Se  Se2  1  0.37577200  0.72978700  0.06350300  1
  Se  Se3  1  0.77872600  0.78761500  0.39027800  1
  Se  Se4  1  0.38313300  0.73370900  0.56359100  1
  Se  Se5  1  0.78900700  0.78153900  0.88861900  1
  Se  Se6  1  0.87084100  0.62571300  0.13205600  1
  Se  Se7  1  0.87025100  0.62414900  0.63415100  1
  Se  Se8  1  0.12707800  0.37686600  0.36646100  1
  Se  Se9  1  0.12858300  0.37091800  0.86529900  1
  Se  Se10  1  0.22010400  0.21445600  0.10686500  1
  Se  Se11  1  0.62243600  0.26948800  0.43522200  1
  Se  Se12  1  0.21244800  0.21790400  0.60849700  1
  Se  Se13  1  0.62174700  0.26578700  0.93479700  1
  Se  Se14  1  0.73209000  0.12699300  0.19054800  1
  Se  Se15  1  0.73121200  0.12859500  0.68715400  1
loop_
_geom_bond_atom_site_label_1
_geom_bond_atom_site_label_2
_geom_bond_distance
_geom_bond_site_symmetry_2
Mg0 Se3 2.583306 1_455
Mg0 Se4 2.621047 1_555
Mg0 Se12 2.627606 1_565
Mg0 Se7 2.668177 1_455
Mg1 Se5 2.583379 1_544
Mg1 Se14 2.620071 1_555
Mg1 Se10 2.633791 1_655
Mg1 Se13 2.670555 1_554
Mo0 Se3 2.549773 1_555
Mo0 Se2 2.557587 1_555
Mo0 Se6 2.604515 1_555
Mo0 Se0 2.652135 1_555
Mo0 Se14 2.715796 1_565
Mo1 Se5 2.544202 1_555
Mo1 Se4 2.554082 1_555
Mo1 Se7 2.601367 1_555
Mo1 Se1 2.618100 1_555
Mo1 Se15 2.721023 1_565
Mo2 Se8 2.551679 1_555
Mo2 Se3 2.560771 1_555
Mo2 Se0 2.607780 1_555
Mo2 Se11 2.614912 1_555
Mo2 Se4 2.700709 1_555
Mo3 Se0 2.574595 1_555
Mo3 Se10 2.589775 1_555
Mo3 Se2 2.605416 1_555
Mo3 Se8 2.636304 1_555
Mo3 Se6 2.739994 1_455
Mo4 Se9 2.571716 1_555
Mo4 Se1 2.582162 1_555
Mo4 Se5 2.592201 1_555
Mo4 Se13 2.655980 1_555
Mo4 Se2 2.725601 1_556
Mo5 Se1 2.554427 1_555
Mo5 Se12 2.556444 1_555
Mo5 Se9 2.632090 1_555
Mo5 Se4 2.644622 1_555
Mo5 Se7 2.732205 1_455
Mo6 Se14 2.566144 1_555
Mo6 Se3 2.576959 1_555
Mo6 Se11 2.597072 1_555
Mo6 Se6 2.658187 1_555
Mo6 Se8 2.732993 1_655
Mo7 Se10 2.550431 1_555
Mo7 Se6 2.557143 1_555
Mo7 Se2 2.617787 1_555
Mo7 Se14 2.642390 1_555
Mo7 Se13 2.733756 1_554
Mo8 Se5 2.549565 1_555
Mo8 Se15 2.560768 1_555
Mo8 Se13 2.590278 1_555
Mo8 Se7 2.644955 1_555
Mo8 Se9 2.723774 1_655
Mo9 Se12 2.565813 1_555
Mo9 Se7 2.566974 1_555
Mo9 Se15 2.580985 1_555
Mo9 Se4 2.649232 1_555
Mo9 Se11 2.727318 1_555
Mo10 Se11 2.561920 1_555
Mo10 Se10 2.563825 1_555
Mo10 Se8 2.586423 1_555
Mo10 Se14 2.648676 1_555
Mo10 Se0 2.732605 1_545
Mo11 Se13 2.558945 1_555
Mo11 Se12 2.566265 1_555
Mo11 Se9 2.582809 1_555
Mo11 Se15 2.635638 1_555
Mo11 Se1 2.710072 1_545
