# generated using pymatgen
data_Nb3(Bi5Cl9)2
_symmetry_space_group_name_H-M   'P 1'
_cell_length_a   13.91274646
_cell_length_b   13.91274646
_cell_length_c   11.02259100
_cell_angle_alpha   90.00000000
_cell_angle_beta   90.00000000
_cell_angle_gamma   120.00000217
_symmetry_Int_Tables_number   1
_chemical_formula_structural   Nb3(Bi5Cl9)2
_chemical_formula_sum   'Nb6 Bi20 Cl36'
_cell_volume   1847.73657933
_cell_formula_units_Z   2
loop_
 _symmetry_equiv_pos_site_id
 _symmetry_equiv_pos_as_xyz
  1  'x, y, z'
loop_
 _atom_site_type_symbol
 _atom_site_label
 _atom_site_symmetry_multiplicity
 _atom_site_fract_x
 _atom_site_fract_y
 _atom_site_fract_z
 _atom_site_occupancy
  Nb  Nb0  1  0.21866800  0.88291700  0.24690400  1
  Nb  Nb1  1  0.11708300  0.33575100  0.24690400  1
  Nb  Nb2  1  0.33617500  0.21844600  0.74614700  1
  Nb  Nb3  1  0.66424900  0.78133200  0.24690400  1
  Nb  Nb4  1  0.88227000  0.66382500  0.74614700  1
  Nb  Nb5  1  0.78155400  0.11773000  0.74614700  1
  Bi  Bi0  1  0.00000000  0.00000000  0.39744400  1
  Bi  Bi1  1  0.00000000  0.00000000  0.86617500  1
  Bi  Bi2  1  0.21581500  0.69643200  0.57850700  1
  Bi  Bi3  1  0.21628000  0.69678600  0.92256800  1
  Bi  Bi4  1  0.10943300  0.48703600  0.74992700  1
  Bi  Bi5  1  0.37760300  0.89056700  0.74992700  1
  Bi  Bi6  1  0.30321400  0.51949400  0.92256800  1
  Bi  Bi7  1  0.30356800  0.51938200  0.57850700  1
  Bi  Bi8  1  0.48061800  0.78418500  0.57850700  1
  Bi  Bi9  1  0.48050600  0.78372000  0.92256800  1
  Bi  Bi10  1  0.51296400  0.62239700  0.74992700  1
  Bi  Bi11  1  0.48706900  0.37822000  0.25025600  1
  Bi  Bi12  1  0.51901400  0.21585400  0.07996800  1
  Bi  Bi13  1  0.51935300  0.21612000  0.42236300  1
  Bi  Bi14  1  0.69676700  0.48064700  0.42236300  1
  Bi  Bi15  1  0.69684000  0.48098600  0.07996800  1
  Bi  Bi16  1  0.62178000  0.10884900  0.25025600  1
  Bi  Bi17  1  0.89115100  0.51293100  0.25025600  1
  Bi  Bi18  1  0.78414600  0.30316000  0.07996800  1
  Bi  Bi19  1  0.78388000  0.30323300  0.42236300  1
  Cl  Cl0  1  0.06990300  0.81991600  0.75359600  1
  Cl  Cl1  1  0.08130300  0.82366200  0.09398600  1
  Cl  Cl2  1  0.07652900  0.84324200  0.40426200  1
  Cl  Cl3  1  0.06740900  0.43262100  0.09066000  1
  Cl  Cl4  1  0.06799600  0.43018800  0.40885000  1
  Cl  Cl5  1  0.19204900  0.69657900  0.25758300  1
  Cl  Cl6  1  0.36521200  0.93259100  0.09066000  1
  Cl  Cl7  1  0.36219200  0.93200400  0.40885000  1
  Cl  Cl8  1  0.15675800  0.23328600  0.40426200  1
  Cl  Cl9  1  0.17633800  0.25764100  0.09398600  1
  Cl  Cl10  1  0.30342100  0.49547000  0.25758300  1
  Cl  Cl11  1  0.18008400  0.24998700  0.75359600  1
  Cl  Cl12  1  0.50453000  0.80795100  0.25758300  1
  Cl  Cl13  1  0.25659100  0.08196900  0.59111000  1
  Cl  Cl14  1  0.23205400  0.07397000  0.90024600  1
  Cl  Cl15  1  0.25723900  0.07218700  0.25251100  1
  Cl  Cl16  1  0.43178200  0.36587700  0.59046500  1
  Cl  Cl17  1  0.42901300  0.36126400  0.90810000  1
  Cl  Cl18  1  0.56737900  0.63478800  0.09066000  1
  Cl  Cl19  1  0.56981200  0.63780800  0.40885000  1
  Cl  Cl20  1  0.75001300  0.93009700  0.75359600  1
  Cl  Cl21  1  0.74235900  0.91869700  0.09398600  1
  Cl  Cl22  1  0.76671400  0.92347100  0.40426200  1
  Cl  Cl23  1  0.49521600  0.19092900  0.75442000  1
  Cl  Cl24  1  0.81494700  0.74276100  0.25251100  1
  Cl  Cl25  1  0.69571300  0.50478400  0.75442000  1
  Cl  Cl26  1  0.84191600  0.76794600  0.90024600  1
  Cl  Cl27  1  0.82537700  0.74340900  0.59111000  1
  Cl  Cl28  1  0.63412300  0.06590500  0.59046500  1
  Cl  Cl29  1  0.63873600  0.06774900  0.90810000  1
  Cl  Cl30  1  0.80907100  0.30428700  0.75442000  1
  Cl  Cl31  1  0.93409500  0.56821800  0.59046500  1
  Cl  Cl32  1  0.93225100  0.57098700  0.90810000  1
  Cl  Cl33  1  0.91803100  0.17462300  0.59111000  1
  Cl  Cl34  1  0.92603000  0.15808400  0.90024600  1
  Cl  Cl35  1  0.92781300  0.18505300  0.25251100  1
loop_
_geom_bond_atom_site_label_1
_geom_bond_atom_site_label_2
_geom_bond_distance
_geom_bond_site_symmetry_2
Bi0 Cl22 2.866670 1_445
Bi0 Cl8 2.866673 1_555
Bi0 Cl2 2.866683 1_545
Bi1 Cl26 2.881122 1_445
Bi1 Cl14 2.881122 1_555
Bi1 Cl34 2.881122 1_455
Bi2 Bi5 3.138842 1_555
Bi2 Bi4 3.152158 1_555
Bi3 Bi5 3.142647 1_555
Bi3 Bi4 3.163683 1_555
Bi4 Bi7 3.138846 1_555
Bi4 Bi6 3.142647 1_555
Bi5 Bi8 3.152168 1_555
Bi5 Bi9 3.163683 1_555
Bi10 Bi8 3.138835 1_555
Bi10 Bi9 3.142647 1_555
Bi10 Bi7 3.152158 1_555
Bi10 Bi6 3.163683 1_555
Bi11 Bi12 3.134897 1_555
Bi11 Bi13 3.146387 1_555
Bi11 Bi15 3.148372 1_555
Bi11 Bi14 3.159705 1_555
Bi12 Bi16 3.148372 1_555
Bi13 Bi16 3.159705 1_555
Bi13 Bi14 3.248543 1_555
Bi13 Bi19 3.248543 1_555
Bi14 Bi17 3.146387 1_555
Bi14 Bi19 3.248543 1_555
Bi15 Bi17 3.134897 1_555
Bi16 Bi18 3.134897 1_555
Bi16 Bi19 3.146387 1_555
Bi17 Bi18 3.148372 1_555
Bi17 Bi19 3.159705 1_555
Cl0 Nb4 2.422478 1_455
Cl1 Nb0 2.365922 1_555
Cl2 Nb0 2.476339 1_555
Cl3 Nb1 2.488258 1_555
Cl4 Nb1 2.505279 1_555
Cl5 Nb0 2.431424 1_555
Cl6 Nb0 2.488258 1_555
Cl7 Nb0 2.505279 1_555
Cl8 Nb1 2.476349 1_555
Cl9 Nb1 2.365922 1_555
Cl10 Nb1 2.431424 1_555
Cl11 Nb2 2.422470 1_555
Cl12 Nb3 2.431424 1_555
Cl13 Nb2 2.376822 1_555
Cl14 Nb2 2.472277 1_555
Cl15 Nb0 2.410973 1_545
Cl16 Nb2 2.488566 1_555
Cl17 Nb2 2.497342 1_555
Cl18 Nb3 2.488258 1_555
Cl19 Nb3 2.505279 1_555
Cl20 Nb5 2.422483 1_565
Cl21 Nb3 2.365922 1_555
Cl22 Nb3 2.476342 1_555
Cl23 Nb2 2.428582 1_555
Cl24 Nb3 2.410960 1_555
Cl25 Nb4 2.428573 1_555
Cl26 Nb4 2.472270 1_555
Cl27 Nb4 2.376822 1_555
Cl28 Nb5 2.488564 1_555
Cl29 Nb5 2.497340 1_555
Cl30 Nb5 2.428568 1_555
Cl31 Nb4 2.488573 1_555
Cl32 Nb4 2.497349 1_555
Cl33 Nb5 2.376822 1_555
Cl34 Nb5 2.472280 1_555
Cl35 Nb1 2.410969 1_655
