# generated using pymatgen
data_Fe11Co5
_symmetry_space_group_name_H-M   'P 1'
_cell_length_a   5.68315569
_cell_length_b   5.68315465
_cell_length_c   5.65602088
_cell_angle_alpha   90.00000000
_cell_angle_beta   90.00000000
_cell_angle_gamma   90.00000000
_symmetry_Int_Tables_number   1
_chemical_formula_structural   Fe11Co5
_chemical_formula_sum   'Fe11 Co5'
_cell_volume   182.67959158
_cell_formula_units_Z   1
loop_
 _symmetry_equiv_pos_site_id
 _symmetry_equiv_pos_as_xyz
  1  'x, y, z'
loop_
 _atom_site_type_symbol
 _atom_site_label
 _atom_site_symmetry_multiplicity
 _atom_site_fract_x
 _atom_site_fract_y
 _atom_site_fract_z
 _atom_site_occupancy
  Fe  Fe0  1  0.24861174  0.24861074  0.24912157  1
  Fe  Fe1  1  0.24861174  0.75138926  0.75087843  1
  Fe  Fe2  1  0.75138926  0.24861074  0.24912257  1
  Fe  Fe3  1  0.75138826  0.24861074  0.75087743  1
  Fe  Fe4  1  0.50000000  0.50000000  -0.00000000  1
  Fe  Fe5  1  0.24861174  0.75138926  0.24912357  1
  Fe  Fe6  1  0.24861174  0.24861074  0.75087643  1
  Fe  Fe7  1  0.75138926  0.75138926  0.24912157  1
  Fe  Fe8  1  0.50000000  0.50000000  0.50000000  1
  Fe  Fe9  1  -0.00000000  -0.00000000  0.50000000  1
  Fe  Fe10  1  0.75138826  0.75138926  0.75087743  1
  Co  Co0  1  0.50000000  -0.00000000  -0.00000000  1
  Co  Co1  1  -0.00000000  0.50000000  0.50000000  1
  Co  Co2  1  -0.00000000  0.50000000  -0.00000000  1
  Co  Co3  1  -0.00000000  -0.00000000  -0.00000000  1
  Co  Co4  1  0.50000000  -0.00000000  0.50000000  1
loop_
_geom_bond_atom_site_label_1
_geom_bond_atom_site_label_2
_geom_bond_distance
_geom_bond_site_symmetry_2
Fe0 Fe9 2.450722 1_555
Fe0 Fe4 2.463259 1_555
Fe0 Fe8 2.468957 1_555
Fe1 Fe9 2.450722 1_565
Fe1 Fe4 2.463259 1_556
Fe1 Fe8 2.468957 1_555
Fe2 Fe9 2.450715 1_655
Fe2 Fe4 2.463266 1_555
Fe2 Fe8 2.468957 1_555
Fe3 Fe9 2.450719 1_655
Fe3 Fe4 2.463262 1_556
Fe3 Fe8 2.468953 1_555
Fe4 Fe7 2.463262 1_555
Fe4 Fe6 2.463266 1_554
Fe4 Fe5 2.463266 1_555
Fe5 Fe9 2.450715 1_565
Fe5 Fe8 2.468950 1_555
Fe6 Fe9 2.450715 1_555
Fe6 Fe8 2.468950 1_555
Fe7 Fe9 2.450719 1_665
Fe7 Fe8 2.468960 1_555
Fe10 Fe9 2.450719 1_665
Fe10 Fe4 2.463262 1_556
Fe10 Fe8 2.468953 1_555
Co0 Fe0 2.454134 1_555
Co0 Fe1 2.454134 1_544
Co0 Fe10 2.454137 1_544
Co0 Fe3 2.454137 1_554
Co0 Fe7 2.454138 1_545
Co0 Fe6 2.454141 1_554
Co0 Fe5 2.454141 1_545
Co0 Fe2 2.454141 1_555
Co1 Fe2 2.459853 1_455
Co1 Fe6 2.459853 1_555
Co1 Fe5 2.459853 1_555
Co1 Fe7 2.459856 1_455
Co1 Fe10 2.459856 1_455
Co1 Fe3 2.459856 1_455
Co1 Fe0 2.459859 1_555
Co1 Fe1 2.459859 1_555
Co2 Fe7 2.454138 1_455
Co2 Fe2 2.454141 1_455
Co2 Fe1 2.454141 1_554
Co2 Fe0 2.454141 1_555
Co2 Fe10 2.454144 1_454
Co2 Fe3 2.454144 1_454
Co2 Fe6 2.454147 1_554
Co2 Fe5 2.454147 1_555
Co3 Fe7 2.444979 1_445
Co3 Fe2 2.444982 1_455
Co3 Fe0 2.444982 1_555
Co3 Fe1 2.444982 1_544
Co3 Fe10 2.444985 1_444
Co3 Fe3 2.444985 1_454
Co3 Fe6 2.444988 1_554
Co3 Fe5 2.444988 1_545
Co4 Fe5 2.459846 1_545
Co4 Fe6 2.459846 1_555
Co4 Fe10 2.459850 1_545
Co4 Fe3 2.459850 1_555
Co4 Fe0 2.459853 1_555
Co4 Fe1 2.459853 1_545
Co4 Fe2 2.459853 1_555
Co4 Fe7 2.459856 1_545
