# generated using pymatgen
data_Ta2Mn4O9
_symmetry_space_group_name_H-M   'P 1'
_cell_length_a   5.70486330
_cell_length_b   5.70486330
_cell_length_c   13.41835310
_cell_angle_alpha   87.70504980
_cell_angle_beta   87.70504980
_cell_angle_gamma   56.48269347
_symmetry_Int_Tables_number   1
_chemical_formula_structural   Ta2Mn4O9
_chemical_formula_sum   'Ta4 Mn8 O18'
_cell_volume   363.71425321
_cell_formula_units_Z   2
loop_
 _symmetry_equiv_pos_site_id
 _symmetry_equiv_pos_as_xyz
  1  'x, y, z'
loop_
 _atom_site_type_symbol
 _atom_site_label
 _atom_site_symmetry_multiplicity
 _atom_site_fract_x
 _atom_site_fract_y
 _atom_site_fract_z
 _atom_site_occupancy
  Ta  Ta0  1  0.01488600  0.99668000  0.99583200  1
  Ta  Ta1  1  0.67601000  0.66424500  0.17078900  1
  Ta  Ta2  1  0.66424500  0.67601000  0.67078900  1
  Ta  Ta3  1  0.99668000  0.01488600  0.49583200  1
  Mn  Mn0  1  0.34560700  0.34428400  0.33659500  1
  Mn  Mn1  1  0.38527500  0.37348500  0.09767800  1
  Mn  Mn2  1  0.71271800  0.72675800  0.42824200  1
  Mn  Mn3  1  0.05049600  0.04918500  0.26185700  1
  Mn  Mn4  1  0.04918500  0.05049600  0.76185700  1
  Mn  Mn5  1  0.34428400  0.34560700  0.83659500  1
  Mn  Mn6  1  0.37348500  0.38527500  0.59767800  1
  Mn  Mn7  1  0.72675800  0.71271800  0.92824200  1
  O  O0  1  0.62167000  0.37091600  0.23057700  1
  O  O1  1  0.77149700  0.40169700  0.03972600  1
  O  O2  1  0.24729600  0.85920400  0.12068300  1
  O  O3  1  0.06348800  0.44615800  0.20340700  1
  O  O4  1  0.52049600  0.89611400  0.28579300  1
  O  O5  1  0.93666000  0.69910100  0.57828000  1
  O  O6  1  0.69910100  0.93666000  0.07828000  1
  O  O7  1  0.08252400  0.77056800  0.38023900  1
  O  O8  1  0.59516800  0.16703400  0.46734400  1
  O  O9  1  0.40169700  0.77149700  0.53972600  1
  O  O10  1  0.85920400  0.24729600  0.62068300  1
  O  O11  1  0.28235600  0.01802600  0.91415800  1
  O  O12  1  0.01802600  0.28235600  0.41415800  1
  O  O13  1  0.44615800  0.06348800  0.70340700  1
  O  O14  1  0.89611400  0.52049600  0.78579300  1
  O  O15  1  0.77056800  0.08252400  0.88023900  1
  O  O16  1  0.16703400  0.59516800  0.96734400  1
  O  O17  1  0.37091600  0.62167000  0.73057700  1
loop_
_geom_bond_atom_site_label_1
_geom_bond_atom_site_label_2
_geom_bond_distance
_geom_bond_site_symmetry_2
Mn0 O7 2.126595 1_555
Mn0 O0 2.143517 1_555
Mn0 O8 2.143725 1_555
Mn0 O3 2.288279 1_555
Mn0 O12 2.290059 1_555
Mn0 O4 2.294566 1_545
Mn1 O16 2.113382 1_554
Mn1 O3 2.133683 1_555
Mn1 O6 2.137902 1_545
Mn1 O0 2.273265 1_555
Mn1 O1 2.393681 1_555
Mn1 O2 2.456284 1_555
Mn2 O12 2.152262 1_655
Mn2 O4 2.153938 1_555
Mn2 O9 2.183823 1_555
Mn2 O8 2.291484 1_565
Mn2 O7 2.321368 1_655
Mn2 O5 2.380801 1_555
Mn3 O7 2.140890 1_545
Mn3 O0 2.142777 1_455
Mn3 O2 2.161916 1_545
Mn3 O4 2.348553 1_545
Mn3 O3 2.405795 1_555
Mn3 O12 2.428057 1_555
Mn4 O15 2.140890 1_455
Mn4 O17 2.142777 1_545
Mn4 O10 2.161916 1_455
Mn4 O14 2.348553 1_455
Mn4 O13 2.405795 1_555
Mn4 O11 2.428057 1_555
Mn5 O15 2.126595 1_555
Mn5 O17 2.143517 1_555
Mn5 O16 2.143725 1_555
Mn5 O13 2.288279 1_555
Mn5 O11 2.290059 1_555
Mn5 O14 2.294566 1_455
Mn6 O8 2.113382 1_555
Mn6 O13 2.133683 1_555
Mn6 O5 2.137902 1_455
Mn6 O17 2.273265 1_555
Mn6 O9 2.393681 1_555
Mn6 O10 2.456284 1_555
Mn7 O11 2.152262 1_565
Mn7 O14 2.153938 1_555
Mn7 O1 2.183823 1_556
Mn7 O16 2.291484 1_655
Mn7 O15 2.321368 1_565
Mn7 O6 2.380801 1_556
O0 Ta1 1.996362 1_555
O1 Ta0 2.028290 1_644
O1 Ta1 2.205937 1_555
O2 Ta0 2.025810 1_554
O2 Ta1 2.176799 1_555
O3 Ta1 1.903269 1_455
O4 Ta1 1.917288 1_555
O5 Ta2 2.007963 1_555
O5 Ta3 2.253418 1_565
O6 Ta1 2.007963 1_555
O6 Ta0 2.253418 1_654
O7 Ta3 1.986656 1_465
O8 Ta3 1.998521 1_555
O9 Ta3 2.028290 1_465
O9 Ta2 2.205937 1_555
O10 Ta3 2.025810 1_555
O10 Ta2 2.176799 1_555
O11 Ta0 1.898630 1_545
O12 Ta3 1.898630 1_455
O13 Ta2 1.903269 1_545
O14 Ta2 1.917288 1_555
O15 Ta0 1.986656 1_645
O16 Ta0 1.998521 1_555
O17 Ta2 1.996362 1_555
