# generated using pymatgen
data_SiO2
_symmetry_space_group_name_H-M   'P 1'
_cell_length_a   12.72915600
_cell_length_b   12.72915600
_cell_length_c   26.40793300
_cell_angle_alpha   90.00000000
_cell_angle_beta   90.00000000
_cell_angle_gamma   90.00000000
_symmetry_Int_Tables_number   1
_chemical_formula_structural   SiO2
_chemical_formula_sum   'Si64 O128'
_cell_volume   4278.91468446
_cell_formula_units_Z   64
loop_
 _symmetry_equiv_pos_site_id
 _symmetry_equiv_pos_as_xyz
  1  'x, y, z'
loop_
 _atom_site_type_symbol
 _atom_site_label
 _atom_site_symmetry_multiplicity
 _atom_site_fract_x
 _atom_site_fract_y
 _atom_site_fract_z
 _atom_site_occupancy
  Si  Si0  1  0.95319300  0.79633700  0.05526900  1
  Si  Si1  1  0.20366300  0.95319300  0.30526900  1
  Si  Si2  1  0.79633700  0.04680700  0.80526900  1
  Si  Si3  1  0.95319300  0.20366300  0.44473100  1
  Si  Si4  1  0.04680700  0.79633700  0.94473100  1
  Si  Si5  1  0.04680700  0.20366300  0.55526900  1
  Si  Si6  1  0.79633700  0.95319300  0.69473100  1
  Si  Si7  1  0.20366300  0.04680700  0.19473100  1
  Si  Si8  1  0.95395000  0.54249700  0.05542700  1
  Si  Si9  1  0.45750300  0.95395000  0.30542700  1
  Si  Si10  1  0.54249700  0.04605000  0.80542700  1
  Si  Si11  1  0.95395000  0.45750300  0.44457300  1
  Si  Si12  1  0.04605000  0.54249700  0.94457300  1
  Si  Si13  1  0.04605000  0.45750300  0.55542700  1
  Si  Si14  1  0.54249700  0.95395000  0.69457300  1
  Si  Si15  1  0.45750300  0.04605000  0.19457300  1
  Si  Si16  1  0.71441400  0.79231700  0.05847000  1
  Si  Si17  1  0.20768300  0.71441400  0.30847000  1
  Si  Si18  1  0.79231700  0.28558600  0.80847000  1
  Si  Si19  1  0.71441400  0.20768300  0.44153000  1
  Si  Si20  1  0.28558600  0.79231700  0.94153000  1
  Si  Si21  1  0.28558600  0.20768300  0.55847000  1
  Si  Si22  1  0.79231700  0.71441400  0.69153000  1
  Si  Si23  1  0.20768300  0.28558600  0.19153000  1
  Si  Si24  1  0.71523100  0.54468500  0.05919600  1
  Si  Si25  1  0.45531500  0.71523100  0.30919600  1
  Si  Si26  1  0.54468500  0.28476900  0.80919600  1
  Si  Si27  1  0.71523100  0.45531500  0.44080400  1
  Si  Si28  1  0.28476900  0.54468500  0.94080400  1
  Si  Si29  1  0.28476900  0.45531500  0.55919600  1
  Si  Si30  1  0.54468500  0.71523100  0.69080400  1
  Si  Si31  1  0.45531500  0.28476900  0.19080400  1
  Si  Si32  1  0.33207600  0.78907100  0.05899200  1
  Si  Si33  1  0.21092900  0.33207600  0.30899200  1
  Si  Si34  1  0.78907100  0.66792400  0.80899200  1
  Si  Si35  1  0.33207600  0.21092900  0.44100800  1
  Si  Si36  1  0.66792400  0.78907100  0.94100800  1
  Si  Si37  1  0.66792400  0.21092900  0.55899200  1
  Si  Si38  1  0.78907100  0.33207600  0.69100800  1
  Si  Si39  1  0.21092900  0.66792400  0.19100800  1
  Si  Si40  1  0.33304500  0.54032900  0.05814700  1
  Si  Si41  1  0.45967100  0.33304500  0.30814700  1
  Si  Si42  1  0.54032900  0.66695500  0.80814700  1
  Si  Si43  1  0.33304500  0.45967100  0.44185300  1
  Si  Si44  1  0.66695500  0.54032900  0.94185300  1
  Si  Si45  1  0.66695500  0.45967100  0.55814700  1
  Si  Si46  1  0.54032900  0.33304500  0.69185300  1
  Si  Si47  1  0.45967100  0.66695500  0.19185300  1
  Si  Si48  1  0.52722200  0.85965000  0.12548700  1
  Si  Si49  1  0.14035000  0.52722200  0.37548700  1
  Si  Si50  1  0.85965000  0.47277800  0.87548700  1
  Si  Si51  1  0.52722200  0.14035000  0.37451300  1
  Si  Si52  1  0.47277800  0.85965000  0.87451300  1
  Si  Si53  1  0.47277800  0.14035000  0.62548700  1
  Si  Si54  1  0.85965000  0.52722200  0.62451300  1
  Si  Si55  1  0.14035000  0.47277800  0.12451300  1
  Si  Si56  1  0.52740800  0.47259200  0.12500000  1
  Si  Si57  1  0.52740800  0.52740800  0.37500000  1
  Si  Si58  1  0.47259200  0.47259200  0.87500000  1
  Si  Si59  1  0.47259200  0.52740800  0.62500000  1
  Si  Si60  1  0.13890900  0.86109100  0.12500000  1
  Si  Si61  1  0.13890900  0.13890900  0.37500000  1
  Si  Si62  1  0.86109100  0.86109100  0.87500000  1
  Si  Si63  1  0.86109100  0.13890900  0.62500000  1
  O  O0  1  0.83322100  0.83959100  0.05972700  1
  O  O1  1  0.16040900  0.83322100  0.30972700  1
  O  O2  1  0.83959100  0.16677900  0.80972700  1
  O  O3  1  0.83322100  0.16040900  0.44027300  1
  O  O4  1  0.16677900  0.83959100  0.94027300  1
  O  O5  1  0.16677900  0.16040900  0.55972700  1
  O  O6  1  0.83959100  0.83322100  0.69027300  1
  O  O7  1  0.16040900  0.16677900  0.19027300  1
  O  O8  1  0.00000000  0.82724800  0.00000000  1
  O  O9  1  0.17275200  0.00000000  0.25000000  1
  O  O10  1  0.82724800  0.00000000  0.75000000  1
  O  O11  1  0.00000000  0.17275200  0.50000000  1
  O  O12  1  0.02366900  0.85071000  0.09929200  1
  O  O13  1  0.14929000  0.02366900  0.34929200  1
  O  O14  1  0.85071000  0.97633100  0.84929200  1
  O  O15  1  0.02366900  0.14929000  0.40070800  1
  O  O16  1  0.97633100  0.85071000  0.90070800  1
  O  O17  1  0.97633100  0.14929000  0.59929200  1
  O  O18  1  0.85071000  0.02366900  0.65070800  1
  O  O19  1  0.14929000  0.97633100  0.15070800  1
  O  O20  1  0.95474000  0.66944000  0.06224100  1
  O  O21  1  0.33056000  0.95474000  0.31224100  1
  O  O22  1  0.66944000  0.04526000  0.81224100  1
  O  O23  1  0.95474000  0.33056000  0.43775900  1
  O  O24  1  0.04526000  0.66944000  0.93775900  1
  O  O25  1  0.04526000  0.33056000  0.56224100  1
  O  O26  1  0.66944000  0.95474000  0.68775900  1
  O  O27  1  0.33056000  0.04526000  0.18775900  1
  O  O28  1  0.83444600  0.49845700  0.06059200  1
  O  O29  1  0.50154300  0.83444600  0.31059200  1
  O  O30  1  0.49845700  0.16555400  0.81059200  1
  O  O31  1  0.83444600  0.50154300  0.43940800  1
  O  O32  1  0.16555400  0.49845700  0.93940800  1
  O  O33  1  0.16555400  0.50154300  0.56059200  1
  O  O34  1  0.49845700  0.83444600  0.68940800  1
  O  O35  1  0.50154300  0.16555400  0.18940800  1
  O  O36  1  0.00000000  0.51170500  0.00000000  1
  O  O37  1  0.48829500  0.00000000  0.25000000  1
  O  O38  1  0.51170500  0.00000000  0.75000000  1
  O  O39  1  0.00000000  0.48829500  0.50000000  1
  O  O40  1  0.02561400  0.48861100  0.09901900  1
  O  O41  1  0.51138900  0.02561400  0.34901900  1
  O  O42  1  0.48861100  0.97438600  0.84901900  1
  O  O43  1  0.02561400  0.51138900  0.40098100  1
  O  O44  1  0.97438600  0.48861100  0.90098100  1
  O  O45  1  0.97438600  0.51138900  0.59901900  1
  O  O46  1  0.48861100  0.02561400  0.65098100  1
  O  O47  1  0.51138900  0.97438600  0.15098100  1
  O  O48  1  0.64204800  0.85575700  0.09874700  1
  O  O49  1  0.14424300  0.64204800  0.34874700  1
  O  O50  1  0.85575700  0.35795200  0.84874700  1
  O  O51  1  0.64204800  0.14424300  0.40125300  1
  O  O52  1  0.35795200  0.85575700  0.90125300  1
  O  O53  1  0.35795200  0.14424300  0.59874700  1
  O  O54  1  0.85575700  0.64204800  0.65125300  1
  O  O55  1  0.14424300  0.35795200  0.15125300  1
  O  O56  1  0.71733500  0.66874400  0.07407200  1
  O  O57  1  0.33125600  0.71733500  0.32407200  1
  O  O58  1  0.66874400  0.28266500  0.82407200  1
  O  O59  1  0.71733500  0.33125600  0.42592800  1
  O  O60  1  0.28266500  0.66874400  0.92592800  1
  O  O61  1  0.28266500  0.33125600  0.57407200  1
  O  O62  1  0.66874400  0.71733500  0.67592800  1
  O  O63  1  0.33125600  0.28266500  0.17592800  1
  O  O64  1  0.66499000  0.80419000  0.00182100  1
  O  O65  1  0.19581000  0.66499000  0.25182100  1
  O  O66  1  0.80419000  0.33501000  0.75182100  1
  O  O67  1  0.66499000  0.19581000  0.49817900  1
  O  O68  1  0.33501000  0.80419000  0.99817900  1
  O  O69  1  0.33501000  0.19581000  0.50182100  1
  O  O70  1  0.80419000  0.66499000  0.74817900  1
  O  O71  1  0.19581000  0.33501000  0.24817900  1
  O  O72  1  0.64357600  0.48283000  0.10018400  1
  O  O73  1  0.51717000  0.64357600  0.35018400  1
  O  O74  1  0.48283000  0.35642400  0.85018400  1
  O  O75  1  0.64357600  0.51717000  0.39981600  1
  O  O76  1  0.35642400  0.48283000  0.89981600  1
  O  O77  1  0.35642400  0.51717000  0.60018400  1
  O  O78  1  0.48283000  0.64357600  0.64981600  1
  O  O79  1  0.51717000  0.35642400  0.14981600  1
  O  O80  1  0.66537300  0.52896400  0.00284800  1
  O  O81  1  0.47103600  0.66537300  0.25284800  1
  O  O82  1  0.52896400  0.33462700  0.75284800  1
  O  O83  1  0.66537300  0.47103600  0.49715200  1
  O  O84  1  0.33462700  0.52896400  0.99715200  1
  O  O85  1  0.33462700  0.47103600  0.50284800  1
  O  O86  1  0.52896400  0.66537300  0.74715200  1
  O  O87  1  0.47103600  0.33462700  0.24715200  1
  O  O88  1  0.43698900  0.84063100  0.08276600  1
  O  O89  1  0.15936900  0.43698900  0.33276600  1
  O  O90  1  0.84063100  0.56301100  0.83276600  1
  O  O91  1  0.43698900  0.15936900  0.41723400  1
  O  O92  1  0.56301100  0.84063100  0.91723400  1
  O  O93  1  0.56301100  0.15936900  0.58276600  1
  O  O94  1  0.84063100  0.43698900  0.66723400  1
  O  O95  1  0.15936900  0.56301100  0.16723400  1
  O  O96  1  0.32760000  0.66451400  0.07287200  1
  O  O97  1  0.33548600  0.32760000  0.32287200  1
  O  O98  1  0.66451400  0.67240000  0.82287200  1
  O  O99  1  0.32760000  0.33548600  0.42712800  1
  O  O100  1  0.67240000  0.66451400  0.92712800  1
  O  O101  1  0.67240000  0.33548600  0.57287200  1
  O  O102  1  0.66451400  0.32760000  0.67712800  1
  O  O103  1  0.33548600  0.67240000  0.17712800  1
  O  O104  1  0.22889000  0.84710500  0.08164100  1
  O  O105  1  0.15289500  0.22889000  0.33164100  1
  O  O106  1  0.84710500  0.77111000  0.83164100  1
  O  O107  1  0.22889000  0.15289500  0.41835900  1
  O  O108  1  0.77111000  0.84710500  0.91835900  1
  O  O109  1  0.77111000  0.15289500  0.58164100  1
  O  O110  1  0.84710500  0.22889000  0.66835900  1
  O  O111  1  0.15289500  0.77111000  0.16835900  1
  O  O112  1  0.43885300  0.48833000  0.08097900  1
  O  O113  1  0.51167000  0.43885300  0.33097900  1
  O  O114  1  0.48833000  0.56114700  0.83097900  1
  O  O115  1  0.43885300  0.51167000  0.41902100  1
  O  O116  1  0.56114700  0.48833000  0.91902100  1
  O  O117  1  0.56114700  0.51167000  0.58097900  1
  O  O118  1  0.48833000  0.43885300  0.66902100  1
  O  O119  1  0.51167000  0.56114700  0.16902100  1
  O  O120  1  0.23079700  0.48060200  0.08092800  1
  O  O121  1  0.51939800  0.23079700  0.33092800  1
  O  O122  1  0.48060200  0.76920300  0.83092800  1
  O  O123  1  0.23079700  0.51939800  0.41907200  1
  O  O124  1  0.76920300  0.48060200  0.91907200  1
  O  O125  1  0.76920300  0.51939800  0.58092800  1
  O  O126  1  0.48060200  0.23079700  0.66907200  1
  O  O127  1  0.51939800  0.76920300  0.16907200  1
loop_
_geom_bond_atom_site_label_1
_geom_bond_atom_site_label_2
_geom_bond_distance
_geom_bond_site_symmetry_2
O0 Si0 1.627627 1_555
O0 Si16 1.627976 1_555
O1 Si1 1.627627 1_555
O1 Si17 1.627976 1_555
O2 Si2 1.627627 1_555
O2 Si18 1.627976 1_555
O3 Si3 1.627627 1_555
O3 Si19 1.627976 1_555
O4 Si4 1.627627 1_555
O4 Si20 1.627976 1_555
O5 Si5 1.627627 1_555
O5 Si21 1.627976 1_555
O6 Si6 1.627627 1_555
O6 Si22 1.627976 1_555
O7 Si7 1.627627 1_555
O7 Si23 1.627976 1_555
O8 Si0 1.624829 1_455
O8 Si4 1.624829 1_554
O9 Si7 1.624829 1_555
O9 Si1 1.624829 1_545
O10 Si2 1.624829 1_555
O10 Si6 1.624829 1_545
O11 Si5 1.624829 1_555
O11 Si3 1.624829 1_455
O12 Si60 1.621783 1_555
O12 Si0 1.623379 1_455
O13 Si61 1.621783 1_555
O13 Si1 1.623379 1_545
O14 Si62 1.621783 1_555
O14 Si2 1.623379 1_565
O15 Si61 1.621783 1_555
O15 Si3 1.623379 1_455
O16 Si62 1.621783 1_555
O16 Si4 1.623379 1_655
O17 Si63 1.621783 1_555
O17 Si5 1.623379 1_655
O18 Si63 1.621783 1_555
O18 Si6 1.623379 1_545
O19 Si60 1.621783 1_555
O19 Si7 1.623379 1_565
O20 Si0 1.625870 1_555
O20 Si8 1.625897 1_555
O21 Si1 1.625870 1_555
O21 Si9 1.625897 1_555
O22 Si2 1.625870 1_555
O22 Si10 1.625897 1_555
O23 Si3 1.625870 1_555
O23 Si11 1.625897 1_555
O24 Si4 1.625870 1_555
O24 Si12 1.625897 1_555
O25 Si5 1.625870 1_555
O25 Si13 1.625897 1_555
O26 Si6 1.625870 1_555
O26 Si14 1.625897 1_555
O27 Si7 1.625870 1_555
O27 Si15 1.625897 1_555
O28 Si8 1.626921 1_555
O28 Si24 1.628020 1_555
O29 Si9 1.626921 1_555
O29 Si25 1.628020 1_555
O30 Si10 1.626921 1_555
O30 Si26 1.628020 1_555
O31 Si11 1.626921 1_555
O31 Si27 1.628020 1_555
O32 Si12 1.626921 1_555
O32 Si28 1.628020 1_555
O33 Si13 1.626921 1_555
O33 Si29 1.628020 1_555
O34 Si14 1.626921 1_555
O34 Si30 1.628020 1_555
O35 Si15 1.626921 1_555
O35 Si31 1.628020 1_555
O36 Si8 1.624712 1_455
O36 Si12 1.624712 1_554
O37 Si15 1.624712 1_555
O37 Si9 1.624712 1_545
O38 Si10 1.624712 1_555
O38 Si14 1.624712 1_545
O39 Si13 1.624712 1_555
O39 Si11 1.624712 1_455
O40 Si55 1.620776 1_555
O40 Si8 1.621062 1_455
O41 Si51 1.620776 1_555
O41 Si9 1.621062 1_545
O42 Si52 1.620776 1_555
O42 Si10 1.621062 1_565
O43 Si49 1.620776 1_555
O43 Si11 1.621062 1_455
O44 Si50 1.620776 1_555
O44 Si12 1.621062 1_655
O45 Si54 1.620776 1_555
O45 Si13 1.621062 1_655
O46 Si53 1.620776 1_555
O46 Si14 1.621062 1_545
O47 Si48 1.620776 1_555
O47 Si15 1.621062 1_565
O48 Si16 1.622333 1_555
O48 Si48 1.624034 1_555
O49 Si17 1.622333 1_555
O49 Si49 1.624034 1_555
O50 Si18 1.622333 1_555
O50 Si50 1.624034 1_555
O51 Si19 1.622333 1_555
O51 Si51 1.624034 1_555
O52 Si20 1.622333 1_555
O52 Si52 1.624034 1_555
O53 Si21 1.622333 1_555
O53 Si53 1.624034 1_555
O54 Si22 1.622333 1_555
O54 Si54 1.624034 1_555
O55 Si23 1.622333 1_555
O55 Si55 1.624034 1_555
O56 Si16 1.626470 1_555
O56 Si24 1.627517 1_555
O57 Si17 1.626470 1_555
O57 Si25 1.627517 1_555
O58 Si18 1.626470 1_555
O58 Si26 1.627517 1_555
O59 Si19 1.626470 1_555
O59 Si27 1.627517 1_555
O60 Si20 1.626470 1_555
O60 Si28 1.627517 1_555
O61 Si21 1.626470 1_555
O61 Si29 1.627517 1_555
O62 Si22 1.626470 1_555
O62 Si30 1.627517 1_555
O63 Si23 1.626470 1_555
O63 Si31 1.627517 1_555
O64 Si36 1.617867 1_554
O64 Si16 1.629910 1_555
O65 Si39 1.617867 1_555
O65 Si17 1.629910 1_555
O66 Si38 1.617867 1_555
O66 Si18 1.629910 1_555
O67 Si37 1.617867 1_555
O67 Si19 1.629910 1_555
O68 Si32 1.617867 1_556
O68 Si20 1.629910 1_555
O69 Si35 1.617867 1_555
O69 Si21 1.629910 1_555
O70 Si34 1.617867 1_555
O70 Si22 1.629910 1_555
O71 Si33 1.617867 1_555
O71 Si23 1.629910 1_555
O72 Si24 1.619718 1_555
O72 Si56 1.622673 1_555
O73 Si25 1.619718 1_555
O73 Si57 1.622673 1_555
O74 Si26 1.619718 1_555
O74 Si58 1.622673 1_555
O75 Si27 1.619718 1_555
O75 Si57 1.622673 1_555
O76 Si28 1.619718 1_555
O76 Si58 1.622673 1_555
O77 Si29 1.619718 1_555
O77 Si59 1.622673 1_555
O78 Si30 1.619718 1_555
O78 Si59 1.622673 1_555
O79 Si31 1.619718 1_555
O79 Si56 1.622673 1_555
O80 Si44 1.617361 1_554
O80 Si24 1.630053 1_555
O81 Si47 1.617361 1_555
O81 Si25 1.630053 1_555
O82 Si46 1.617361 1_555
O82 Si26 1.630053 1_555
O83 Si45 1.617361 1_555
O83 Si27 1.630053 1_555
O84 Si40 1.617361 1_556
O84 Si28 1.630053 1_555
O85 Si43 1.617361 1_555
O85 Si29 1.630053 1_555
O86 Si42 1.617361 1_555
O86 Si30 1.630053 1_555
O87 Si41 1.617361 1_555
O87 Si31 1.630053 1_555
O88 Si32 1.615038 1_555
O88 Si48 1.628080 1_555
O89 Si33 1.615038 1_555
O89 Si49 1.628080 1_555
O90 Si34 1.615038 1_555
O90 Si50 1.628080 1_555
O91 Si35 1.615038 1_555
O91 Si51 1.628080 1_555
O92 Si36 1.615038 1_555
O92 Si52 1.628080 1_555
O93 Si37 1.615038 1_555
O93 Si53 1.628080 1_555
O94 Si38 1.615038 1_555
O94 Si54 1.628080 1_555
O95 Si39 1.615038 1_555
O95 Si55 1.628080 1_555
O96 Si32 1.628320 1_555
O96 Si40 1.629370 1_555
O97 Si33 1.628320 1_555
O97 Si41 1.629370 1_555
O98 Si34 1.628320 1_555
O98 Si42 1.629370 1_555
O99 Si35 1.628320 1_555
O99 Si43 1.629370 1_555
O100 Si36 1.628320 1_555
O100 Si44 1.629370 1_555
O101 Si37 1.628320 1_555
O101 Si45 1.629370 1_555
O102 Si38 1.628320 1_555
O102 Si46 1.629370 1_555
O103 Si39 1.628320 1_555
O103 Si47 1.629370 1_555
O104 Si32 1.621314 1_555
O104 Si60 1.629316 1_555
O105 Si33 1.621314 1_555
O105 Si61 1.629316 1_555
O106 Si34 1.621314 1_555
O106 Si62 1.629316 1_555
O107 Si35 1.621314 1_555
O107 Si61 1.629316 1_555
O108 Si36 1.621314 1_555
O108 Si62 1.629316 1_555
O109 Si37 1.621314 1_555
O109 Si63 1.629316 1_555
O110 Si38 1.621314 1_555
O110 Si63 1.629316 1_555
O111 Si39 1.621314 1_555
O111 Si60 1.629316 1_555
O112 Si40 1.617299 1_555
O112 Si56 1.631624 1_555
O113 Si41 1.617299 1_555
O113 Si57 1.631624 1_555
O114 Si42 1.617299 1_555
O114 Si58 1.631624 1_555
O115 Si43 1.617299 1_555
O115 Si57 1.631624 1_555
O116 Si44 1.617299 1_555
O116 Si58 1.631624 1_555
O117 Si45 1.617299 1_555
O117 Si59 1.631624 1_555
O118 Si46 1.617299 1_555
O118 Si59 1.631624 1_555
O119 Si47 1.617299 1_555
O119 Si56 1.631624 1_555
O120 Si40 1.622936 1_555
O120 Si55 1.631018 1_555
O121 Si41 1.622936 1_555
O121 Si51 1.631018 1_555
O122 Si42 1.622936 1_555
O122 Si52 1.631018 1_555
O123 Si43 1.622936 1_555
O123 Si49 1.631018 1_555
O124 Si44 1.622936 1_555
O124 Si50 1.631018 1_555
O125 Si45 1.622936 1_555
O125 Si54 1.631018 1_555
O126 Si46 1.622936 1_555
O126 Si53 1.631018 1_555
O127 Si47 1.622936 1_555
O127 Si48 1.631018 1_555
