# generated using pymatgen
data_Cd2P3Cl
_symmetry_space_group_name_H-M   'P 1'
_cell_length_a   6.05539301
_cell_length_b   6.05539301
_cell_length_c   7.59438336
_cell_angle_alpha   83.01116229
_cell_angle_beta   96.98883771
_cell_angle_gamma   83.14666824
_symmetry_Int_Tables_number   1
_chemical_formula_structural   Cd2P3Cl
_chemical_formula_sum   'Cd4 P6 Cl2'
_cell_volume   271.79185425
_cell_formula_units_Z   2
loop_
 _symmetry_equiv_pos_site_id
 _symmetry_equiv_pos_as_xyz
  1  'x, y, z'
loop_
 _atom_site_type_symbol
 _atom_site_label
 _atom_site_symmetry_multiplicity
 _atom_site_fract_x
 _atom_site_fract_y
 _atom_site_fract_z
 _atom_site_occupancy
  Cd  Cd0  1  0.89516230  0.40854200  0.78676281  1
  Cd  Cd1  1  0.40854200  0.89516230  0.71323719  1
  Cd  Cd2  1  0.10483770  0.59145800  0.21323719  1
  Cd  Cd3  1  0.59145800  0.10483770  0.28676281  1
  P  P0  1  0.33865377  0.56933682  0.53481409  1
  P  P1  1  0.56933682  0.33865377  0.96518591  1
  P  P2  1  0.66134623  0.43066318  0.46518591  1
  P  P3  1  0.43066318  0.66134623  0.03481409  1
  P  P4  1  0.30473720  0.30473720  0.75000000  1
  P  P5  1  0.69526280  0.69526280  0.25000000  1
  Cl  Cl0  1  0.86393016  0.86393016  0.75000000  1
  Cl  Cl1  1  0.13606984  0.13606984  0.25000000  1
loop_
_geom_bond_atom_site_label_1
_geom_bond_atom_site_label_2
_geom_bond_distance
_geom_bond_site_symmetry_2
Cd0 P4 2.542301 1_655
Cd0 P1 2.572587 1_555
Cd0 P2 2.649619 1_555
Cd0 Cl0 2.719036 1_555
Cd1 P4 2.542301 1_565
Cd1 P0 2.572587 1_555
Cd1 P3 2.649619 1_556
Cd1 Cl0 2.719036 1_555
Cd2 P5 2.542301 1_455
Cd2 P3 2.572587 1_555
Cd2 P0 2.649619 1_555
Cd2 Cl1 2.719036 1_555
Cd3 P5 2.542301 1_545
Cd3 P2 2.572587 1_555
Cd3 P1 2.649619 1_554
Cd3 Cl1 2.719036 1_555
P0 P2 2.184235 1_555
P0 P4 2.191584 1_555
P1 P3 2.184235 1_556
P1 P4 2.191584 1_555
P2 P5 2.191584 1_555
P3 P5 2.191584 1_555
