# generated using pymatgen
data_Na7Al11Si13(AgO12)4
_symmetry_space_group_name_H-M   'P 1'
_cell_length_a   12.20596600
_cell_length_b   12.38065856
_cell_length_c   12.45929423
_cell_angle_alpha   89.51564007
_cell_angle_beta   89.85749727
_cell_angle_gamma   88.26245423
_symmetry_Int_Tables_number   1
_chemical_formula_structural   Na7Al11Si13(AgO12)4
_chemical_formula_sum   'Na7 Al11 Si13 Ag4 O48'
_cell_volume   1881.88470229
_cell_formula_units_Z   1
loop_
 _symmetry_equiv_pos_site_id
 _symmetry_equiv_pos_as_xyz
  1  'x, y, z'
loop_
 _atom_site_type_symbol
 _atom_site_label
 _atom_site_symmetry_multiplicity
 _atom_site_fract_x
 _atom_site_fract_y
 _atom_site_fract_z
 _atom_site_occupancy
  Na  Na0  1  0.47769800  0.70842500  0.00094500  1
  Na  Na1  1  0.86671100  0.59424700  0.61620300  1
  Na  Na2  1  0.87803200  0.58258500  0.37357900  1
  Na  Na3  1  0.72345600  0.25560900  0.04076700  1
  Na  Na4  1  0.31008700  0.49855900  0.99716100  1
  Na  Na5  1  0.09076200  0.34902400  0.76978300  1
  Na  Na6  1  0.06971600  0.34637600  0.20852800  1
  Al  Al0  1  0.70747700  0.77373800  0.00059300  1
  Al  Al1  1  0.87334000  0.76211600  0.18118600  1
  Al  Al2  1  0.07641800  0.75069900  0.99546200  1
  Al  Al3  1  0.86880700  0.50002600  0.82070300  1
  Al  Al4  1  0.66826800  0.50258400  0.99990100  1
  Al  Al5  1  0.85500200  0.49174000  0.17096300  1
  Al  Al6  1  0.06523600  0.50745600  0.99387200  1
  Al  Al7  1  0.87430100  0.30878400  0.62659900  1
  Al  Al8  1  0.87809700  0.30221000  0.37053700  1
  Al  Al9  1  0.49609900  0.30932000  0.99833500  1
  Al  Al10  1  0.22430700  0.27930900  0.00292300  1
  Si  Si0  1  0.50474700  0.13230400  0.81256800  1
  Si  Si1  1  0.68900800  0.11938700  0.62689200  1
  Si  Si2  1  0.69046000  0.11665900  0.37427300  1
  Si  Si3  1  0.24493800  0.12250800  0.81311700  1
  Si  Si4  1  0.50962500  0.12682900  0.18397600  1
  Si  Si5  1  0.06117300  0.11659700  0.63199200  1
  Si  Si6  1  0.24700300  0.11530900  0.19083400  1
  Si  Si7  1  0.06530400  0.11211800  0.37534500  1
  Si  Si8  1  0.88131800  0.93347200  0.37818600  1
  Si  Si9  1  0.25751800  0.94215000  0.00064400  1
  Si  Si10  1  0.88007900  0.94024000  0.63266500  1
  Si  Si11  1  0.51084600  0.95360500  0.99785900  1
  Si  Si12  1  0.88131800  0.76180400  0.81820400  1
  Ag  Ag0  1  0.06406500  0.92362700  0.18548400  1
  Ag  Ag1  1  0.65260200  0.35363300  0.24825500  1
  Ag  Ag2  1  0.67364100  0.33886900  0.78626200  1
  Ag  Ag3  1  0.94929700  0.32126300  0.97688700  1
  O  O0  1  0.57786800  0.11864500  0.70232600  1
  O  O1  1  0.64945000  0.11784600  0.50015100  1
  O  O2  1  0.37387200  0.14478300  0.78098800  1
  O  O3  1  0.58174600  0.11365000  0.29541900  1
  O  O4  1  0.17508400  0.10547700  0.70256800  1
  O  O5  1  0.37793200  0.13347200  0.21503300  1
  O  O6  1  0.77369400  0.01302400  0.35375100  1
  O  O7  1  0.24137100  0.01870200  0.89428800  1
  O  O8  1  0.76701900  0.01265600  0.65309700  1
  O  O9  1  0.52441900  0.02760700  0.88978000  1
  O  O10  1  0.23204600  0.00632700  0.11667500  1
  O  O11  1  0.99300700  0.00409700  0.34814700  1
  O  O12  1  0.53399300  0.02325200  0.10702300  1
  O  O13  1  0.98564600  0.01340000  0.66044400  1
  O  O14  1  0.88559700  0.90555200  0.50612700  1
  O  O15  1  0.38669200  0.90529100  0.00634200  1
  O  O16  1  0.88507500  0.82718600  0.69879700  1
  O  O17  1  0.58226000  0.84689400  0.98720700  1
  O  O18  1  0.18712000  0.83783700  0.99577800  1
  O  O19  1  0.88716400  0.82215000  0.31381700  1
  O  O20  1  0.77834400  0.80812800  0.88366000  1
  O  O21  1  0.76582300  0.82228500  0.11469200  1
  O  O22  1  0.99795800  0.76810900  0.87841300  1
  O  O23  1  0.00108600  0.77841200  0.11418600  1
  O  O24  1  0.65379200  0.64119700  0.00048800  1
  O  O25  1  0.85263900  0.62516200  0.21003500  1
  O  O26  1  0.85835400  0.63646400  0.78136300  1
  O  O27  1  0.14169300  0.62185300  0.00072100  1
  O  O28  1  0.76145200  0.44865800  0.89997900  1
  O  O29  1  0.73511200  0.43837600  0.11325800  1
  O  O30  1  0.00047200  0.47331800  0.87185700  1
  O  O31  1  0.96986700  0.46266000  0.09130800  1
  O  O32  1  0.86862400  0.42806800  0.69999900  1
  O  O33  1  0.53961800  0.44137500  0.99167000  1
  O  O34  1  0.15964900  0.40221300  0.01079800  1
  O  O35  1  0.88247900  0.41557900  0.28826800  1
  O  O36  1  0.88048200  0.35497100  0.49697800  1
  O  O37  1  0.35909900  0.30609400  0.00283500  1
  O  O38  1  0.75593900  0.22673300  0.34549900  1
  O  O39  1  0.75606100  0.22846800  0.65284700  1
  O  O40  1  0.54690000  0.23673700  0.88111000  1
  O  O41  1  0.18670100  0.22378000  0.87684900  1
  O  O42  1  0.54988500  0.23565700  0.11805900  1
  O  O43  1  0.18794100  0.21475300  0.12603600  1
  O  O44  1  0.99641600  0.22985700  0.66159400  1
  O  O45  1  0.99745600  0.22006600  0.33708800  1
  O  O46  1  0.17996300  0.09725200  0.30448100  1
  O  O47  1  0.09548200  0.11364100  0.50349300  1
loop_
_geom_bond_atom_site_label_1
_geom_bond_atom_site_label_2
_geom_bond_distance
_geom_bond_site_symmetry_2
Na0 O17 2.173425 1_554
Na0 O24 2.281280 1_555
Na0 O15 2.649005 1_555
Na1 O26 2.128837 1_555
Na1 O32 2.298776 1_555
Na2 O25 2.121555 1_555
Na2 O35 2.331942 1_555
Na3 O42 2.344021 1_555
Na3 O29 2.451705 1_555
Na4 O34 2.225159 1_556
Na4 O37 2.439620 1_556
Na4 O27 2.523329 1_556
Na4 O33 2.869620 1_555
Na5 O30 2.263466 1_555
Na5 O41 2.327623 1_555
Na5 O44 2.337567 1_455
Na6 O31 2.357523 1_455
Na6 O43 2.381725 1_555
Na6 O45 2.413157 1_455
Na6 O35 2.613152 1_455
Na6 O34 2.784935 1_555
Al0 O21 1.713127 1_555
Al0 O20 1.748614 1_554
Al0 O17 1.760369 1_554
Al0 O24 1.785312 1_555
Al1 O21 1.702713 1_555
Al1 O25 1.755921 1_555
Al1 O23 1.782865 1_655
Al1 O19 1.827945 1_555
Al2 O18 1.754477 1_555
Al2 O22 1.754852 1_455
Al2 O27 1.762149 1_556
Al2 O23 1.770302 1_556
Al3 O30 1.751461 1_655
Al3 O32 1.754466 1_555
Al3 O26 1.755887 1_555
Al3 O28 1.769352 1_555
Al4 O24 1.719930 1_556
Al4 O33 1.767739 1_555
Al4 O29 1.799932 1_556
Al4 O28 1.802859 1_555
Al5 O25 1.725418 1_555
Al5 O31 1.746078 1_555
Al5 O35 1.760011 1_555
Al5 O29 1.779541 1_555
Al6 O27 1.722420 1_556
Al6 O34 1.725039 1_556
Al6 O30 1.775305 1_555
Al6 O31 1.776835 1_456
Al7 O36 1.710922 1_555
Al7 O32 1.743109 1_555
Al7 O39 1.804942 1_555
Al7 O44 1.809517 1_555
Al8 O36 1.711168 1_555
Al8 O35 1.733065 1_555
Al8 O45 1.801331 1_555
Al8 O38 1.812597 1_555
Al9 O37 1.674693 1_556
Al9 O33 1.735569 1_555
Al9 O40 1.819092 1_555
Al9 O42 1.852945 1_556
Al10 O37 1.688178 1_555
Al10 O34 1.696220 1_555
Al10 O43 1.784959 1_555
Al10 O41 1.786535 1_554
Ag0 O23 2.174062 1_555
Ag0 O11 2.413543 1_465
Ag0 O10 2.468007 1_565
Ag1 O29 2.229322 1_555
Ag1 O38 2.320026 1_555
Ag1 O42 2.549103 1_555
Ag2 O28 2.265450 1_555
Ag2 O40 2.339409 1_555
Ag2 O39 2.364343 1_555
Ag3 O31 2.287045 1_556
Ag3 O30 2.381630 1_655
O0 Si0 1.643307 1_555
O0 Si1 1.648625 1_555
O1 Si2 1.645158 1_555
O1 Si1 1.652855 1_555
O2 Si0 1.648539 1_555
O2 Si3 1.653587 1_555
O3 Si4 1.650163 1_555
O3 Si2 1.654554 1_555
O4 Si3 1.640192 1_555
O4 Si5 1.648573 1_555
O5 Si6 1.649478 1_555
O5 Si4 1.652206 1_555
O6 Si2 1.633709 1_555
O6 Si8 1.645258 1_545
O7 Si3 1.630213 1_555
O7 Si9 1.631497 1_546
O8 Si1 1.636255 1_555
O8 Si10 1.643204 1_545
O9 Si0 1.620026 1_555
O9 Si11 1.633216 1_545
O10 Si6 1.656632 1_555
O10 Si9 1.679324 1_545
O11 Si7 1.662179 1_655
O11 Si8 1.681472 1_545
O12 Si4 1.627388 1_555
O12 Si11 1.646131 1_544
O13 Si5 1.634030 1_655
O13 Si10 1.636722 1_545
O14 Si8 1.628873 1_555
O14 Si10 1.638207 1_555
O15 Si9 1.629608 1_555
O15 Si11 1.648807 1_554
O16 Si10 1.617811 1_555
O16 Si12 1.688855 1_555
O17 Si11 1.566981 1_555
O18 Si9 1.574417 1_556
O19 Si8 1.600084 1_555
O20 Si12 1.591512 1_555
O22 Si12 1.615181 1_555
O26 Si12 1.654200 1_555
O38 Si2 1.637333 1_555
O39 Si1 1.635235 1_555
O40 Si0 1.651343 1_555
O41 Si3 1.633353 1_555
O42 Si4 1.658556 1_555
O43 Si6 1.618511 1_555
O44 Si5 1.633136 1_655
O45 Si7 1.619646 1_655
O46 Si6 1.650605 1_555
O46 Si7 1.659235 1_555
O47 Si7 1.639858 1_555
O47 Si5 1.654286 1_555
