# generated using pymatgen
data_Lu(HO)3
_symmetry_space_group_name_H-M   'P 1'
_cell_length_a   7.02588528
_cell_length_b   7.02588503
_cell_length_c   7.02588528
_cell_angle_alpha   109.70940026
_cell_angle_beta   109.70938704
_cell_angle_gamma   109.70939168
_symmetry_Int_Tables_number   1
_chemical_formula_structural   Lu(HO)3
_chemical_formula_sum   'Lu4 H12 O12'
_cell_volume   264.60110726
_cell_formula_units_Z   4
loop_
 _symmetry_equiv_pos_site_id
 _symmetry_equiv_pos_as_xyz
  1  'x, y, z'
loop_
 _atom_site_type_symbol
 _atom_site_label
 _atom_site_symmetry_multiplicity
 _atom_site_fract_x
 _atom_site_fract_y
 _atom_site_fract_z
 _atom_site_occupancy
  Lu  Lu0  1  0.50000000  0.00000000  0.00000000  1
  Lu  Lu1  1  0.50000000  0.50000000  0.50000000  1
  Lu  Lu2  1  0.00000000  0.00000000  0.50000000  1
  Lu  Lu3  1  0.00000000  0.50000000  0.00000000  1
  H  H0  1  0.64260965  0.95723767  0.68427535  1
  H  H1  1  0.35739035  0.04276233  0.31572465  1
  H  H2  1  0.72020460  0.16981228  0.54703542  1
  H  H3  1  0.27979540  0.83018772  0.45296458  1
  H  H4  1  0.45296458  0.27979540  0.83018772  1
  H  H5  1  0.54703542  0.72020460  0.16981228  1
  H  H6  1  0.31572465  0.35739035  0.04276233  1
  H  H7  1  0.68427535  0.64260965  0.95723767  1
  H  H8  1  0.04276233  0.31572465  0.35739035  1
  H  H9  1  0.95723767  0.68427535  0.64260965  1
  H  H10  1  0.83018772  0.45296458  0.27979540  1
  H  H11  1  0.16981228  0.54703542  0.72020460  1
  O  O0  1  0.51991936  0.83621298  0.68558654  1
  O  O1  1  0.48008064  0.16378702  0.31441346  1
  O  O2  1  0.84019254  0.17040205  0.67140028  1
  O  O3  1  0.15980746  0.82959795  0.32859972  1
  O  O4  1  0.32859972  0.15980746  0.82959795  1
  O  O5  1  0.67140028  0.84019254  0.17040205  1
  O  O6  1  0.31441346  0.48008064  0.16378702  1
  O  O7  1  0.68558654  0.51991936  0.83621298  1
  O  O8  1  0.16378702  0.31441346  0.48008064  1
  O  O9  1  0.83621298  0.68558654  0.51991936  1
  O  O10  1  0.82959795  0.32859972  0.15980746  1
  O  O11  1  0.17040205  0.67140028  0.84019254  1
loop_
_geom_bond_atom_site_label_1
_geom_bond_atom_site_label_2
_geom_bond_distance
_geom_bond_site_symmetry_2
Lu0 O1 2.196857 1_555
Lu0 O0 2.196857 1_544
Lu0 O10 2.201152 1_555
Lu0 O11 2.201152 1_544
Lu0 O4 2.233924 1_554
Lu0 O5 2.233924 1_545
Lu1 O0 2.208198 1_555
Lu1 O1 2.208198 1_555
Lu1 O9 2.208199 1_555
Lu1 O8 2.208199 1_555
Lu1 O6 2.208199 1_555
Lu1 O7 2.208199 1_555
Lu2 O9 2.196858 1_445
Lu2 O8 2.196858 1_555
Lu2 O5 2.201152 1_445
Lu2 O4 2.201152 1_555
Lu2 O2 2.233924 1_455
Lu2 O3 2.233924 1_545
Lu3 O7 2.196858 1_454
Lu3 O6 2.196858 1_555
Lu3 O2 2.201152 1_454
Lu3 O3 2.201152 1_555
Lu3 O11 2.233924 1_554
Lu3 O10 2.233924 1_455
H0 O0 0.991168 1_555
H1 O1 0.991168 1_555
H2 O2 0.986175 1_555
H3 O3 0.986175 1_555
H4 O4 0.986175 1_555
H5 O5 0.986175 1_555
H6 O6 0.991168 1_555
H7 O7 0.991168 1_555
H8 O8 0.991168 1_555
H9 O9 0.991168 1_555
H10 O10 0.986175 1_555
H11 O11 0.986175 1_555
