# generated using pymatgen
data_Ce2UTe4
_symmetry_space_group_name_H-M   'P 1'
_cell_length_a   8.20956552
_cell_length_b   8.20956552
_cell_length_c   8.20956552
_cell_angle_alpha   109.41607641
_cell_angle_beta   109.41607641
_cell_angle_gamma   109.58156546
_symmetry_Int_Tables_number   1
_chemical_formula_structural   Ce2UTe4
_chemical_formula_sum   'Ce4 U2 Te8'
_cell_volume   425.92920637
_cell_formula_units_Z   2
loop_
 _symmetry_equiv_pos_site_id
 _symmetry_equiv_pos_as_xyz
  1  'x, y, z'
loop_
 _atom_site_type_symbol
 _atom_site_label
 _atom_site_symmetry_multiplicity
 _atom_site_fract_x
 _atom_site_fract_y
 _atom_site_fract_z
 _atom_site_occupancy
  Ce  Ce0  1  0.62500000  0.00043600  0.87543600  1
  Ce  Ce1  1  0.12500000  0.74956400  0.12456400  1
  Ce  Ce2  1  0.99956400  0.87500000  0.62456400  1
  Ce  Ce3  1  0.25043600  0.37500000  0.37543600  1
  U  U0  1  0.50000000  0.50000000  0.00000000  1
  U  U1  1  0.75000000  0.25000000  0.50000000  1
  Te  Te0  1  0.53053800  0.78063400  0.40134000  1
  Te  Te1  1  0.71946200  0.62080200  0.75009600  1
  Te  Te2  1  0.03063400  0.28053800  0.90134000  1
  Te  Te3  1  0.87080200  0.46946200  0.25009600  1
  Te  Te4  1  0.87070700  0.96936600  0.24990400  1
  Te  Te5  1  0.37919800  0.12929300  0.09866000  1
  Te  Te6  1  0.21936600  0.62070700  0.74990400  1
  Te  Te7  1  0.37929300  0.12919800  0.59866000  1
loop_
_geom_bond_atom_site_label_1
_geom_bond_atom_site_label_2
_geom_bond_distance
_geom_bond_site_symmetry_2
Ce0 Te4 3.213743 1_546
Ce0 Te7 3.213744 1_555
Ce0 Te6 3.239382 1_545
Ce0 Te2 3.239386 1_655
Ce0 Te5 3.339166 1_556
Ce0 Te3 3.339169 1_556
Ce0 Te0 3.375206 1_545
Ce0 Te1 3.375206 1_545
Ce1 Te0 3.213740 1_555
Ce1 Te1 3.213740 1_454
Ce1 Te5 3.239380 1_565
Ce1 Te3 3.239386 1_455
Ce1 Te6 3.339168 1_554
Ce1 Te2 3.339169 1_554
Ce1 Te4 3.375198 1_455
Ce1 Te7 3.375206 1_565
Ce2 Te2 3.213740 1_665
Ce2 Te3 3.213740 1_555
Ce2 Te7 3.239380 1_665
Ce2 Te1 3.239386 1_555
Ce2 Te4 3.339168 1_555
Ce2 Te0 3.339169 1_555
Ce2 Te6 3.375198 1_655
Ce2 Te5 3.375206 1_666
Ce3 Te6 3.213743 1_555
Ce3 Te5 3.213744 1_555
Ce3 Te4 3.239382 1_445
Ce3 Te0 3.239386 1_555
Ce3 Te7 3.339166 1_555
Ce3 Te1 3.339169 1_555
Ce3 Te2 3.375206 1_554
Ce3 Te3 3.375206 1_455
Te0 U0 3.200540 1_555
Te0 U1 3.324344 1_565
Te1 U1 3.200540 1_555
Te1 U0 3.324344 1_556
Te2 U1 3.200540 1_455
Te2 U0 3.324344 1_556
Te3 U0 3.200540 1_555
Te3 U1 3.324344 1_555
Te4 U1 3.200546 1_565
Te4 U0 3.324347 1_555
Te5 U1 3.200537 1_555
Te5 U0 3.324351 1_555
Te6 U0 3.200546 1_556
Te6 U1 3.324347 1_455
Te7 U0 3.200537 1_556
Te7 U1 3.324351 1_555
