# generated using pymatgen
data_Sr11In7
_symmetry_space_group_name_H-M   'P 1'
_cell_length_a   12.60345229
_cell_length_b   12.60344483
_cell_length_c   12.60338414
_cell_angle_alpha   59.99350028
_cell_angle_beta   59.99355879
_cell_angle_gamma   59.99370998
_symmetry_Int_Tables_number   1
_chemical_formula_structural   Sr11In7
_chemical_formula_sum   'Sr22 In14'
_cell_volume   1415.42817176
_cell_formula_units_Z   2
loop_
 _symmetry_equiv_pos_site_id
 _symmetry_equiv_pos_as_xyz
  1  'x, y, z'
loop_
 _atom_site_type_symbol
 _atom_site_label
 _atom_site_symmetry_multiplicity
 _atom_site_fract_x
 _atom_site_fract_y
 _atom_site_fract_z
 _atom_site_occupancy
  Sr  Sr0  1  0.83516819  0.50003162  0.50002096  1
  Sr  Sr1  1  0.83517576  0.16482667  0.49999483  1
  Sr  Sr2  1  0.38846993  0.87049415  0.87048333  1
  Sr  Sr3  1  0.49997439  0.49997576  0.16482044  1
  Sr  Sr4  1  0.50002791  0.50002935  0.83516935  1
  Sr  Sr5  1  0.12949694  0.61153487  0.12951854  1
  Sr  Sr6  1  0.49997583  0.16483107  0.49997252  1
  Sr  Sr7  1  0.87048732  0.87048208  0.38846843  1
  Sr  Sr8  1  0.50000107  0.16482781  0.83517255  1
  Sr  Sr9  1  0.87051771  0.87051674  0.87052378  1
  Sr  Sr10  1  0.50000516  0.83517098  0.16482953  1
  Sr  Sr11  1  0.16482868  0.83517583  0.49999947  1
  Sr  Sr12  1  0.50003245  0.83517095  0.50002184  1
  Sr  Sr13  1  0.83516925  0.50000128  0.16483204  1
  Sr  Sr14  1  -0.00000225  -0.00000293  0.00000195  1
  Sr  Sr15  1  0.12948136  0.12948381  0.12948373  1
  Sr  Sr16  1  0.12951291  0.12950831  0.61152701  1
  Sr  Sr17  1  0.16482994  0.49997733  0.49997070  1
  Sr  Sr18  1  0.16482427  0.50000245  0.83517766  1
  Sr  Sr19  1  0.87048917  0.38847229  0.87048705  1
  Sr  Sr20  1  0.50001074  0.50000207  0.49999393  1
  Sr  Sr21  1  0.61153504  0.12949777  0.12951656  1
  In  In0  1  0.21912784  0.78080042  0.78080995  1
  In  In1  1  0.78087558  0.21919062  0.21919203  1
  In  In2  1  0.69008226  0.69008734  0.69009057  1
  In  In3  1  0.78079754  0.78079417  0.21913163  1
  In  In4  1  0.07008153  0.30996648  0.30996184  1
  In  In5  1  0.21919063  0.21919379  0.78087703  1
  In  In6  1  0.30996887  0.07007969  0.30996071  1
  In  In7  1  0.30991342  0.30991780  0.30991317  1
  In  In8  1  0.92992207  0.69003465  0.69003703  1
  In  In9  1  0.69003332  0.92992158  0.69003726  1
  In  In10  1  0.78079705  0.21913314  0.78079781  1
  In  In11  1  0.30996917  0.30997101  0.07007336  1
  In  In12  1  0.21920467  0.78086831  0.21920101  1
  In  In13  1  0.69003031  0.69003575  0.92992742  1
loop_
_geom_bond_atom_site_label_1
_geom_bond_atom_site_label_2
_geom_bond_distance
_geom_bond_site_symmetry_2
Sr0 Sr17 4.154217 1_655
Sr0 Sr12 4.223487 1_555
Sr0 Sr4 4.223553 1_555
Sr0 Sr20 4.224498 1_555
Sr0 Sr13 4.224699 1_555
Sr0 Sr1 4.224854 1_555
Sr0 Sr7 4.342943 1_555
Sr0 Sr19 4.343100 1_555
Sr0 Sr5 4.343485 1_655
Sr0 Sr16 4.343738 1_655
Sr1 Sr11 4.154355 1_645
Sr1 Sr13 4.223855 1_555
Sr1 Sr20 4.223899 1_555
Sr1 Sr8 4.223955 1_555
Sr1 Sr6 4.224789 1_555
Sr1 Sr15 4.343560 1_655
Sr1 Sr9 4.343725 1_545
Sr1 Sr16 4.344408 1_655
Sr1 Sr7 4.344488 1_545
Sr2 Sr4 4.343072 1_555
Sr2 Sr6 4.343590 1_565
Sr2 Sr3 4.343642 1_556
Sr2 Sr8 4.344403 1_565
Sr3 Sr4 4.154044 1_554
Sr3 Sr6 4.223599 1_555
Sr3 Sr5 4.343151 1_555
Sr4 Sr8 4.224843 1_555
Sr4 Sr5 4.343801 1_556
Sr6 Sr8 4.224793 1_555
Sr6 Sr7 4.343689 1_545
Sr8 Sr9 4.343674 1_545
Sr10 Sr8 4.154394 1_564
Sr10 Sr20 4.223829 1_555
Sr10 Sr13 4.223857 1_555
Sr10 Sr11 4.223917 1_555
Sr10 Sr12 4.224729 1_555
Sr10 Sr3 4.224866 1_555
Sr10 Sr9 4.343591 1_554
Sr10 Sr15 4.343728 1_565
Sr10 Sr21 4.344295 1_565
Sr10 Sr2 4.344500 1_554
Sr11 Sr18 4.223944 1_555
Sr11 Sr20 4.223996 1_555
Sr11 Sr17 4.224829 1_555
Sr11 Sr12 4.224835 1_555
Sr11 Sr15 4.343616 1_565
Sr11 Sr9 4.343689 1_455
Sr11 Sr16 4.344325 1_565
Sr11 Sr7 4.344523 1_455
Sr12 Sr6 4.154186 1_565
Sr12 Sr4 4.223551 1_555
Sr12 Sr20 4.224595 1_555
Sr12 Sr7 4.342950 1_555
Sr12 Sr2 4.343048 1_555
Sr12 Sr21 4.343486 1_565
Sr12 Sr16 4.343671 1_565
Sr13 Sr18 4.154372 1_654
Sr13 Sr20 4.223753 1_555
Sr13 Sr3 4.224846 1_555
Sr13 Sr9 4.343627 1_554
Sr13 Sr15 4.343676 1_655
Sr13 Sr5 4.344337 1_655
Sr13 Sr19 4.344451 1_554
Sr14 Sr5 3.997215 1_545
Sr14 Sr21 3.997225 1_455
Sr14 Sr7 3.997233 1_445
Sr14 Sr16 3.997320 1_554
Sr14 Sr2 3.997322 1_544
Sr14 Sr19 3.997349 1_454
Sr14 Sr9 3.997481 1_444
Sr14 Sr15 3.997621 1_555
Sr15 Sr18 4.343633 1_554
Sr15 Sr8 4.343667 1_554
Sr16 Sr6 4.343114 1_555
Sr16 Sr17 4.343144 1_555
Sr17 Sr3 4.223591 1_555
Sr17 Sr6 4.223595 1_555
Sr17 Sr20 4.224738 1_555
Sr17 Sr18 4.224865 1_555
Sr17 Sr5 4.343009 1_555
Sr17 Sr7 4.343602 1_455
Sr17 Sr19 4.343648 1_455
Sr18 Sr8 4.223968 1_555
Sr18 Sr20 4.224067 1_555
Sr18 Sr4 4.224840 1_555
Sr18 Sr9 4.343624 1_455
Sr18 Sr5 4.344386 1_556
Sr18 Sr19 4.344422 1_455
Sr19 Sr4 4.343056 1_555
Sr19 Sr3 4.343601 1_556
Sr20 Sr8 4.223953 1_555
Sr20 Sr4 4.224625 1_555
Sr20 Sr6 4.224664 1_555
Sr20 Sr3 4.224715 1_555
Sr21 Sr6 4.343053 1_555
Sr21 Sr3 4.343162 1_555
Sr21 Sr4 4.343791 1_554
Sr21 Sr8 4.344420 1_554
In0 Sr18 3.604260 1_555
In0 Sr11 3.604328 1_555
In0 Sr4 3.605017 1_555
In0 Sr12 3.605146 1_555
In0 Sr9 3.633508 1_455
In0 Sr5 3.634486 1_556
In0 Sr16 3.634529 1_565
In0 Sr2 3.635124 1_555
In0 Sr14 3.906718 1_566
In1 Sr1 3.604297 1_555
In1 Sr13 3.604383 1_555
In1 Sr6 3.605046 1_555
In1 Sr3 3.605125 1_555
In1 Sr15 3.633485 1_655
In1 Sr19 3.634480 1_554
In1 Sr7 3.634524 1_545
In1 Sr21 3.635118 1_555
In1 Sr14 3.906674 1_655
In2 In9 3.022093 1_555
In2 In8 3.022140 1_555
In2 Sr4 3.434568 1_555
In2 Sr12 3.434615 1_555
In2 Sr0 3.434679 1_555
In2 Sr2 3.559574 1_555
In2 Sr19 3.559605 1_555
In2 Sr7 3.559612 1_555
In3 Sr10 3.604137 1_555
In3 Sr13 3.604149 1_555
In3 Sr0 3.604903 1_555
In3 Sr12 3.604941 1_555
In3 Sr9 3.633433 1_554
In3 Sr5 3.634416 1_655
In3 Sr21 3.634458 1_565
In3 Sr7 3.635161 1_555
In3 Sr14 3.906845 1_665
In4 In7 3.022096 1_555
In4 In6 3.023117 1_555
In4 Sr13 3.433688 1_455
In4 Sr1 3.433698 1_455
In4 Sr0 3.434259 1_455
In4 Sr5 3.560441 1_555
In4 Sr16 3.560479 1_555
In4 Sr15 3.560528 1_555
In5 Sr8 3.604366 1_555
In5 Sr18 3.604378 1_555
In5 Sr17 3.605109 1_555
In5 Sr6 3.605113 1_555
In5 Sr15 3.633461 1_556
In5 Sr2 3.634449 1_545
In5 Sr19 3.634469 1_455
In5 Sr16 3.635172 1_555
In5 Sr14 3.906725 1_556
In6 In7 3.022137 1_555
In6 Sr10 3.433664 1_545
In6 Sr11 3.433681 1_545
In6 Sr12 3.434250 1_545
In6 Sr21 3.560435 1_555
In6 Sr16 3.560479 1_555
In6 Sr15 3.560544 1_555
In7 Sr17 3.434603 1_555
In7 Sr3 3.434604 1_555
In7 Sr6 3.434641 1_555
In7 Sr16 3.559622 1_555
In7 Sr5 3.559657 1_555
In7 Sr21 3.559715 1_555
In8 In9 3.023127 1_555
In8 Sr18 3.433672 1_655
In8 Sr11 3.433717 1_655
In8 Sr17 3.434243 1_655
In8 Sr19 3.560470 1_555
In8 Sr7 3.560534 1_555
In8 Sr9 3.560590 1_555
In9 Sr8 3.433672 1_565
In9 Sr1 3.433711 1_565
In9 Sr6 3.434233 1_565
In9 Sr2 3.560455 1_555
In9 Sr7 3.560565 1_555
In9 Sr9 3.560609 1_555
In10 Sr8 3.604216 1_555
In10 Sr1 3.604273 1_555
In10 Sr4 3.605009 1_555
In10 Sr0 3.605043 1_555
In10 Sr9 3.633547 1_545
In10 Sr21 3.634579 1_556
In10 Sr16 3.634589 1_655
In10 Sr19 3.635227 1_555
In10 Sr14 3.906860 1_656
In11 In7 3.022107 1_555
In11 In4 3.023115 1_555
In11 In6 3.023128 1_555
In11 Sr18 3.433633 1_554
In11 Sr8 3.433672 1_554
In11 Sr4 3.434177 1_554
In11 Sr5 3.560560 1_555
In11 Sr21 3.560572 1_555
In11 Sr15 3.560630 1_555
In12 Sr11 3.604239 1_555
In12 Sr10 3.604268 1_555
In12 Sr17 3.604960 1_555
In12 Sr3 3.605006 1_555
In12 Sr15 3.633547 1_565
In12 Sr2 3.634574 1_554
In12 Sr7 3.634598 1_455
In12 Sr5 3.635247 1_555
In12 Sr14 3.906870 1_565
In13 In2 3.022103 1_555
In13 In9 3.023111 1_555
In13 In8 3.023153 1_555
In13 Sr10 3.433623 1_556
In13 Sr13 3.433674 1_556
In13 Sr3 3.434146 1_556
In13 Sr2 3.560518 1_555
In13 Sr19 3.560530 1_555
In13 Sr9 3.560595 1_555
