# generated using pymatgen
data_HoCuPbSe3
_symmetry_space_group_name_H-M   'P 1'
_cell_length_a   4.05788000
_cell_length_b   10.60629400
_cell_length_c   13.66680300
_cell_angle_alpha   90.00000000
_cell_angle_beta   90.00000000
_cell_angle_gamma   90.00000000
_symmetry_Int_Tables_number   1
_chemical_formula_structural   HoCuPbSe3
_chemical_formula_sum   'Ho4 Cu4 Pb4 Se12'
_cell_volume   588.20646771
_cell_formula_units_Z   4
loop_
 _symmetry_equiv_pos_site_id
 _symmetry_equiv_pos_as_xyz
  1  'x, y, z'
loop_
 _atom_site_type_symbol
 _atom_site_label
 _atom_site_symmetry_multiplicity
 _atom_site_fract_x
 _atom_site_fract_y
 _atom_site_fract_z
 _atom_site_occupancy
  Ho  Ho0  1  0.75000000  0.97810000  0.24440000  1
  Ho  Ho1  1  0.25000000  0.02190000  0.75560000  1
  Ho  Ho2  1  0.75000000  0.47810000  0.25560000  1
  Ho  Ho3  1  0.25000000  0.52190000  0.74440000  1
  Cu  Cu0  1  0.25000000  0.73505400  0.22178000  1
  Cu  Cu1  1  0.75000000  0.26494600  0.77822000  1
  Cu  Cu2  1  0.25000000  0.23505400  0.27822000  1
  Cu  Cu3  1  0.75000000  0.76494600  0.72178000  1
  Pb  Pb0  1  0.75000000  0.72349700  0.00604700  1
  Pb  Pb1  1  0.25000000  0.27650300  0.99395300  1
  Pb  Pb2  1  0.75000000  0.22349700  0.49395300  1
  Pb  Pb3  1  0.25000000  0.77650300  0.50604700  1
  Se  Se0  1  0.75000000  0.45504500  0.88498700  1
  Se  Se1  1  0.25000000  0.54495500  0.11501300  1
  Se  Se2  1  0.75000000  0.95504500  0.61501300  1
  Se  Se3  1  0.25000000  0.04495500  0.38498700  1
  Se  Se4  1  0.25000000  0.41248800  0.39228700  1
  Se  Se5  1  0.75000000  0.58751200  0.60771300  1
  Se  Se6  1  0.25000000  0.91248800  0.10771300  1
  Se  Se7  1  0.75000000  0.08751200  0.89228700  1
  Se  Se8  1  0.75000000  0.23137700  0.16950700  1
  Se  Se9  1  0.25000000  0.76862300  0.83049300  1
  Se  Se10  1  0.75000000  0.73137700  0.33049300  1
  Se  Se11  1  0.25000000  0.26862300  0.66950700  1
loop_
_geom_bond_atom_site_label_1
_geom_bond_atom_site_label_2
_geom_bond_distance
_geom_bond_site_symmetry_2
Ho0 Se6 2.844394 1_655
Ho0 Se6 2.844394 1_555
Ho0 Se10 2.869173 1_555
Ho0 Se8 2.874721 1_565
Ho0 Se3 2.882894 1_565
Ho0 Se3 2.882894 1_665
Ho1 Se7 2.844394 1_555
Ho1 Se7 2.844394 1_455
Ho1 Se11 2.869173 1_555
Ho1 Se9 2.874721 1_545
Ho1 Se2 2.882894 1_445
Ho1 Se2 2.882894 1_545
Ho2 Se4 2.844394 1_555
Ho2 Se4 2.844394 1_655
Ho2 Se8 2.869173 1_555
Ho2 Se10 2.874721 1_555
Ho2 Se1 2.882894 1_555
Ho2 Se1 2.882894 1_655
Ho3 Se5 2.844394 1_455
Ho3 Se5 2.844394 1_555
Ho3 Se9 2.869173 1_555
Ho3 Se11 2.874721 1_555
Ho3 Se0 2.882894 1_455
Ho3 Se0 2.882894 1_555
Cu0 Se6 2.443743 1_555
Cu0 Se1 2.488856 1_555
Cu0 Se10 2.515074 1_455
Cu0 Se10 2.515074 1_555
Cu1 Se7 2.443743 1_555
Cu1 Se0 2.488856 1_555
Cu1 Se11 2.515074 1_555
Cu1 Se11 2.515074 1_655
Cu2 Se4 2.443743 1_555
Cu2 Se3 2.488856 1_555
Cu2 Se8 2.515074 1_555
Cu2 Se8 2.515074 1_455
Cu3 Se5 2.443743 1_555
Cu3 Se2 2.488856 1_555
Cu3 Se9 2.515074 1_555
Cu3 Se9 2.515074 1_655
Pb0 Se1 3.149658 1_655
Pb0 Se1 3.149658 1_555
Pb0 Se6 3.172564 1_655
Pb0 Se6 3.172564 1_555
Pb0 Se9 3.178385 1_554
Pb0 Se9 3.178385 1_654
Pb0 Se0 3.293082 1_554
Pb1 Se0 3.149658 1_455
Pb1 Se0 3.149658 1_555
Pb1 Se7 3.172564 1_555
Pb1 Se7 3.172564 1_455
Pb1 Se8 3.178385 1_456
Pb1 Se8 3.178385 1_556
Pb1 Se1 3.293082 1_556
Pb2 Se3 3.149658 1_655
Pb2 Se3 3.149658 1_555
Pb2 Se4 3.172564 1_655
Pb2 Se4 3.172564 1_555
Pb2 Se11 3.178385 1_655
Pb2 Se11 3.178385 1_555
Pb2 Se2 3.293082 1_545
Pb3 Se2 3.149658 1_455
Pb3 Se2 3.149658 1_555
Pb3 Se5 3.172564 1_455
Pb3 Se5 3.172564 1_555
Pb3 Se10 3.178385 1_455
Pb3 Se10 3.178385 1_555
Pb3 Se3 3.293082 1_565
