# generated using pymatgen
data_SiO2
_symmetry_space_group_name_H-M   'P 1'
_cell_length_a   12.89843488
_cell_length_b   12.89843488
_cell_length_c   12.89843488
_cell_angle_alpha   109.47122063
_cell_angle_beta   109.47122063
_cell_angle_gamma   109.47122063
_symmetry_Int_Tables_number   1
_chemical_formula_structural   SiO2
_chemical_formula_sum   'Si24 O48'
_cell_volume   1651.92054835
_cell_formula_units_Z   24
loop_
 _symmetry_equiv_pos_site_id
 _symmetry_equiv_pos_as_xyz
  1  'x, y, z'
loop_
 _atom_site_type_symbol
 _atom_site_label
 _atom_site_symmetry_multiplicity
 _atom_site_fract_x
 _atom_site_fract_y
 _atom_site_fract_z
 _atom_site_occupancy
  Si  Si0  1  0.50000000  0.64629708  0.35370292  1
  Si  Si1  1  0.70740583  0.35370292  0.85370292  1
  Si  Si2  1  0.29259417  0.14629708  0.64629708  1
  Si  Si3  1  0.85370292  0.14629708  0.50000000  1
  Si  Si4  1  0.35370292  0.85370292  0.70740583  1
  Si  Si5  1  0.64629708  0.29259417  0.14629708  1
  Si  Si6  1  0.14629708  0.50000000  0.85370292  1
  Si  Si7  1  0.35370292  0.50000000  0.64629708  1
  Si  Si8  1  0.64629708  0.35370292  0.50000000  1
  Si  Si9  1  0.14629708  0.64629708  0.29259417  1
  Si  Si10  1  0.85370292  0.70740583  0.35370292  1
  Si  Si11  1  0.50000000  0.85370292  0.14629708  1
  Si  Si12  1  0.50000000  0.35370292  0.64629708  1
  Si  Si13  1  0.29259417  0.64629708  0.14629708  1
  Si  Si14  1  0.70740583  0.85370292  0.35370292  1
  Si  Si15  1  0.14629708  0.85370292  0.50000000  1
  Si  Si16  1  0.64629708  0.14629708  0.29259417  1
  Si  Si17  1  0.35370292  0.70740583  0.85370292  1
  Si  Si18  1  0.85370292  0.50000000  0.14629708  1
  Si  Si19  1  0.64629708  0.50000000  0.35370292  1
  Si  Si20  1  0.35370292  0.64629708  0.50000000  1
  Si  Si21  1  0.85370292  0.35370292  0.70740583  1
  Si  Si22  1  0.14629708  0.29259417  0.64629708  1
  Si  Si23  1  0.50000000  0.14629708  0.85370292  1
  O  O0  1  0.46492865  0.66990634  0.46492865  1
  O  O1  1  0.79502332  0.46492865  -0.00000000  1
  O  O2  1  0.20497668  0.20497668  0.66990634  1
  O  O3  1  0.79502332  -0.00000000  0.46492865  1
  O  O4  1  0.46492865  -0.00000000  0.79502332  1
  O  O5  1  0.66990634  0.20497668  0.20497668  1
  O  O6  1  0.00000000  0.46492865  0.79502332  1
  O  O7  1  0.46492865  0.46492865  0.66990634  1
  O  O8  1  0.66990634  0.46492865  0.46492865  1
  O  O9  1  -0.00000000  0.20497668  0.53507135  1
  O  O10  1  0.53507135  0.20497668  -0.00000000  1
  O  O11  1  -0.00000000  0.53507135  0.20497668  1
  O  O12  1  0.79502332  0.79502332  0.33009366  1
  O  O13  1  0.20497668  0.53507135  0.00000000  1
  O  O14  1  0.33009366  0.79502332  0.79502332  1
  O  O15  1  0.53507135  -0.00000000  0.20497668  1
  O  O16  1  0.79502332  0.33009366  0.79502332  1
  O  O17  1  0.20497668  -0.00000000  0.53507135  1
  O  O18  1  0.00000000  0.79502332  0.46492865  1
  O  O19  1  0.33009366  0.53507135  0.53507135  1
  O  O20  1  0.20497668  0.66990634  0.20497668  1
  O  O21  1  0.53507135  0.33009366  0.53507135  1
  O  O22  1  0.46492865  0.79502332  0.00000000  1
  O  O23  1  0.53507135  0.53507135  0.33009366  1
  O  O24  1  0.61965199  0.77716466  0.39681565  1
  O  O25  1  0.61965199  0.39681565  0.77716466  1
  O  O26  1  0.38034801  0.15751168  0.77716466  1
  O  O27  1  0.84248832  0.22283534  0.61965199  1
  O  O28  1  0.39681565  0.77716466  0.61965199  1
  O  O29  1  0.77716466  0.38034801  0.15751168  1
  O  O30  1  0.22283534  0.61965199  0.84248832  1
  O  O31  1  0.39681565  0.61965199  0.77716466  1
  O  O32  1  0.77716466  0.39681565  0.61965199  1
  O  O33  1  0.77716466  0.15751168  0.38034801  1
  O  O34  1  0.60318435  0.38034801  0.22283534  1
  O  O35  1  0.22283534  0.60318435  0.38034801  1
  O  O36  1  0.84248832  0.61965199  0.22283534  1
  O  O37  1  0.15751168  0.38034801  0.77716466  1
  O  O38  1  0.22283534  0.84248832  0.61965199  1
  O  O39  1  0.38034801  0.77716466  0.15751168  1
  O  O40  1  0.61965199  0.22283534  0.84248832  1
  O  O41  1  0.38034801  0.22283534  0.60318435  1
  O  O42  1  0.77716466  0.61965199  0.39681565  1
  O  O43  1  0.22283534  0.38034801  0.60318435  1
  O  O44  1  0.15751168  0.77716466  0.38034801  1
  O  O45  1  0.60318435  0.22283534  0.38034801  1
  O  O46  1  0.61965199  0.84248832  0.22283534  1
  O  O47  1  0.38034801  0.60318435  0.22283534  1
loop_
_geom_bond_atom_site_label_1
_geom_bond_atom_site_label_2
_geom_bond_distance
_geom_bond_site_symmetry_2
O0 Si0 1.608972 1_555
O0 Si20 1.608972 1_555
O1 Si18 1.608973 1_555
O1 Si1 1.608973 1_554
O2 Si22 1.608976 1_555
O2 Si2 1.608976 1_555
O3 Si3 1.608973 1_555
O3 Si14 1.608973 1_545
O4 Si23 1.608973 1_555
O4 Si4 1.608973 1_545
O5 Si16 1.608976 1_555
O5 Si5 1.608976 1_555
O6 Si6 1.608973 1_555
O6 Si21 1.608973 1_455
O7 Si12 1.608972 1_555
O7 Si7 1.608972 1_555
O8 Si19 1.608972 1_555
O8 Si8 1.608972 1_555
O9 Si3 1.608973 1_455
O9 Si22 1.608973 1_555
O10 Si23 1.608973 1_554
O10 Si5 1.608973 1_555
O11 Si18 1.608973 1_455
O11 Si9 1.608973 1_555
O12 Si14 1.608976 1_555
O12 Si10 1.608976 1_555
O13 Si6 1.608973 1_554
O13 Si13 1.608973 1_555
O14 Si4 1.608976 1_555
O14 Si17 1.608976 1_555
O15 Si11 1.608973 1_545
O15 Si16 1.608973 1_555
O16 Si21 1.608976 1_555
O16 Si1 1.608976 1_555
O17 Si15 1.608973 1_545
O17 Si2 1.608973 1_555
O18 Si15 1.608973 1_555
O18 Si10 1.608973 1_455
O19 Si20 1.608972 1_555
O19 Si7 1.608972 1_555
O20 Si9 1.608976 1_555
O20 Si13 1.608976 1_555
O21 Si12 1.608972 1_555
O21 Si8 1.608972 1_555
O22 Si11 1.608973 1_555
O22 Si17 1.608973 1_554
O23 Si0 1.608972 1_555
O23 Si19 1.608972 1_555
O24 Si14 1.614208 1_555
O24 Si0 1.614222 1_555
O25 Si1 1.614208 1_555
O25 Si12 1.614222 1_555
O26 Si23 1.614210 1_555
O26 Si2 1.614224 1_555
O27 Si3 1.614210 1_555
O27 Si21 1.614224 1_555
O28 Si4 1.614208 1_555
O28 Si20 1.614222 1_555
O29 Si18 1.614210 1_555
O29 Si5 1.614224 1_555
O30 Si6 1.614210 1_555
O30 Si17 1.614224 1_555
O31 Si17 1.614208 1_555
O31 Si7 1.614222 1_555
O32 Si21 1.614208 1_555
O32 Si8 1.614222 1_555
O33 Si3 1.614210 1_555
O33 Si16 1.614224 1_555
O34 Si5 1.614208 1_555
O34 Si19 1.614222 1_555
O35 Si9 1.614208 1_555
O35 Si20 1.614222 1_555
O36 Si18 1.614210 1_555
O36 Si10 1.614224 1_555
O37 Si6 1.614210 1_555
O37 Si22 1.614224 1_555
O38 Si15 1.614210 1_555
O38 Si4 1.614224 1_555
O39 Si11 1.614210 1_555
O39 Si13 1.614224 1_555
O40 Si23 1.614210 1_555
O40 Si1 1.614224 1_555
O41 Si2 1.614208 1_555
O41 Si12 1.614222 1_555
O42 Si10 1.614208 1_555
O42 Si19 1.614222 1_555
O43 Si22 1.614208 1_555
O43 Si7 1.614222 1_555
O44 Si15 1.614210 1_555
O44 Si9 1.614224 1_555
O45 Si16 1.614208 1_555
O45 Si8 1.614222 1_555
O46 Si11 1.614210 1_555
O46 Si14 1.614224 1_555
O47 Si13 1.614208 1_555
O47 Si0 1.614222 1_555
