# generated using pymatgen
data_Li5SiP3
_symmetry_space_group_name_H-M   'P 1'
_cell_length_a   7.03354510
_cell_length_b   7.03354510
_cell_length_c   8.60333058
_cell_angle_alpha   72.37828559
_cell_angle_beta   72.37828559
_cell_angle_gamma   49.65155087
_symmetry_Int_Tables_number   1
_chemical_formula_structural   Li5SiP3
_chemical_formula_sum   'Li10 Si2 P6'
_cell_volume   305.79242682
_cell_formula_units_Z   2
loop_
 _symmetry_equiv_pos_site_id
 _symmetry_equiv_pos_as_xyz
  1  'x, y, z'
loop_
 _atom_site_type_symbol
 _atom_site_label
 _atom_site_symmetry_multiplicity
 _atom_site_fract_x
 _atom_site_fract_y
 _atom_site_fract_z
 _atom_site_occupancy
  Li  Li0  1  0.39473722  0.91592104  0.42061426  1
  Li  Li1  1  0.78647894  0.21653868  0.27224411  1
  Li  Li2  1  0.08628780  0.56443927  0.07836678  1
  Li  Li3  1  0.44254882  0.91144530  0.90916321  1
  Li  Li4  1  0.91592104  0.39473722  0.92061426  1
  Li  Li5  1  0.08137911  0.59836247  0.58241188  1
  Li  Li6  1  0.21653868  0.78647894  0.77224411  1
  Li  Li7  1  0.56443927  0.08628780  0.57836678  1
  Li  Li8  1  0.91144530  0.44254882  0.40916321  1
  Li  Li9  1  0.59836247  0.08137911  0.08241188  1
  Si  Si0  1  0.67402835  0.32682268  0.69398370  1
  Si  Si1  1  0.32682268  0.67402835  0.19398370  1
  P  P0  1  0.03903222  0.96101263  0.03986277  1
  P  P1  1  0.66987564  0.64507969  0.67220402  1
  P  P2  1  0.96101263  0.03903222  0.53986277  1
  P  P3  1  0.33278755  0.35506559  0.32515826  1
  P  P4  1  0.64507969  0.66987564  0.17220402  1
  P  P5  1  0.35506559  0.33278755  0.82515826  1
loop_
_geom_bond_atom_site_label_1
_geom_bond_atom_site_label_2
_geom_bond_distance
_geom_bond_site_symmetry_2
Li0 P2 2.516166 1_465
Li0 P4 2.584163 1_555
Li0 P1 2.706491 1_555
Li0 P3 2.709755 1_565
Li1 P0 2.504780 1_645
Li1 P2 2.520537 1_555
Li1 P4 2.578231 1_555
Li1 P3 2.588914 1_555
Li1 Si1 2.792012 1_555
Li2 P0 2.511423 1_555
Li2 P5 2.577071 1_554
Li2 P4 2.587971 1_455
Li2 P3 2.590816 1_555
Li2 Si1 2.759972 1_555
Li3 P5 2.508926 1_565
Li3 P0 2.542618 1_556
Li3 P4 2.554827 1_556
Li3 P1 2.585077 1_555
Li3 Si1 2.744166 1_556
Li4 P0 2.516166 1_646
Li4 P1 2.584163 1_555
Li4 P4 2.706491 1_556
Li4 P5 2.709755 1_655
Li5 P2 2.561322 1_465
Li5 P1 2.578826 1_455
Li5 P3 2.637979 1_555
Li5 P5 2.640530 1_555
Li6 P2 2.504780 1_465
Li6 P0 2.520537 1_556
Li6 P1 2.578231 1_555
Li6 P5 2.588914 1_555
Li6 Si0 2.792012 1_555
Li7 P2 2.511423 1_555
Li7 P3 2.577071 1_555
Li7 P1 2.587971 1_545
Li7 P5 2.590816 1_555
Li7 Si0 2.759972 1_555
Li8 P3 2.508926 1_655
Li8 P2 2.542618 1_555
Li8 P1 2.554827 1_555
Li8 P4 2.585077 1_555
Li8 Si0 2.744166 1_555
Li9 P0 2.561322 1_645
Li9 P4 2.578826 1_545
Li9 P5 2.637979 1_554
Li9 P3 2.640530 1_555
P0 Si1 2.154948 1_555
P1 Si0 2.170583 1_555
P2 Si0 2.154948 1_555
P3 Si1 2.163852 1_555
P4 Si1 2.170583 1_555
P5 Si0 2.163852 1_555
