# generated using pymatgen
data_Li3Mn2O4
_symmetry_space_group_name_H-M   'P 1'
_cell_length_a   5.88120840
_cell_length_b   5.88120864
_cell_length_c   6.37781871
_cell_angle_alpha   117.35250016
_cell_angle_beta   117.35250495
_cell_angle_gamma   90.01103695
_symmetry_Int_Tables_number   1
_chemical_formula_structural   Li3Mn2O4
_chemical_formula_sum   'Li6 Mn4 O8'
_cell_volume   167.67116192
_cell_formula_units_Z   2
loop_
 _symmetry_equiv_pos_site_id
 _symmetry_equiv_pos_as_xyz
  1  'x, y, z'
loop_
 _atom_site_type_symbol
 _atom_site_label
 _atom_site_symmetry_multiplicity
 _atom_site_fract_x
 _atom_site_fract_y
 _atom_site_fract_z
 _atom_site_occupancy
  Li  Li0  1  0.87288400  0.12711600  0.75000000  1
  Li  Li1  1  0.00000000  0.00000000  0.50000000  1
  Li  Li2  1  0.00000000  0.00000000  0.00000000  1
  Li  Li3  1  0.00000000  0.50000000  0.00000000  1
  Li  Li4  1  0.12711600  0.87288400  0.25000000  1
  Li  Li5  1  0.50000000  0.00000000  0.50000000  1
  Mn  Mn0  1  0.00000000  0.50000000  0.50000000  1
  Mn  Mn1  1  0.50000000  0.50000000  0.50000000  1
  Mn  Mn2  1  0.50000000  0.50000000  0.00000000  1
  Mn  Mn3  1  0.50000000  0.00000000  0.00000000  1
  O  O0  1  0.26437000  0.75361200  0.01313000  1
  O  O1  1  0.24688100  0.24362700  0.97925200  1
  O  O2  1  0.75637300  0.75311900  0.52074800  1
  O  O3  1  0.75361200  0.26437000  0.51313000  1
  O  O4  1  0.24362700  0.24688100  0.47925200  1
  O  O5  1  0.24638800  0.73563000  0.48687000  1
  O  O6  1  0.73563000  0.24638800  0.98687000  1
  O  O7  1  0.75311900  0.75637300  0.02074800  1
loop_
_geom_bond_atom_site_label_1
_geom_bond_atom_site_label_2
_geom_bond_distance
_geom_bond_site_symmetry_2
Li0 O1 1.889140 1_655
Li0 O2 1.889140 1_545
Li0 O3 1.890223 1_555
Li0 O6 1.890223 1_555
Li0 Li5 1.897710 1_555
Li0 Li3 1.897710 1_656
Li0 Li2 1.913191 1_656
Li0 Li1 1.913191 1_655
Li1 Li4 1.913191 1_545
Li1 O5 2.125315 1_545
Li1 O3 2.125315 1_455
Li1 O4 2.128064 1_555
Li1 O2 2.128064 1_445
Li1 O1 2.323866 1_555
Li1 O7 2.323866 1_445
Li2 Li4 1.913191 1_545
Li2 O6 2.125315 1_454
Li2 O0 2.125315 1_545
Li2 O1 2.128064 1_554
Li2 O7 2.128064 1_445
Li2 O2 2.323866 1_444
Li2 O4 2.323866 1_555
Li3 Li4 1.897710 1_555
Li3 O7 2.095986 1_455
Li3 O1 2.095986 1_554
Li3 O0 2.100917 1_555
Li3 O6 2.100917 1_454
Li3 O3 2.360605 1_454
Li3 O5 2.360605 1_555
Li4 O7 1.889140 1_455
Li4 O4 1.889140 1_565
Li4 O5 1.890223 1_555
Li4 O0 1.890223 1_555
Li4 Li5 1.897710 1_565
Li5 O2 2.095986 1_545
Li5 O4 2.095986 1_555
Li5 O3 2.100917 1_555
Li5 O5 2.100917 1_545
Li5 O6 2.360605 1_555
Li5 O0 2.360605 1_545
Mn0 O5 2.060235 1_555
Mn0 O3 2.060235 1_455
Mn0 O4 2.068958 1_555
Mn0 O2 2.068958 1_455
Mn0 O6 2.487991 1_454
Mn0 O0 2.487991 1_556
Mn1 O2 2.035131 1_555
Mn1 O4 2.035131 1_555
Mn1 O3 2.035875 1_555
Mn1 O5 2.035875 1_555
Mn1 O1 2.524717 1_554
Mn1 O7 2.524717 1_556
Mn2 O7 2.035131 1_555
Mn2 O1 2.035131 1_554
Mn2 O0 2.035875 1_555
Mn2 O6 2.035875 1_554
Mn2 O2 2.524717 1_555
Mn2 O4 2.524717 1_554
Mn3 O6 2.060235 1_554
Mn3 O0 2.060235 1_545
Mn3 O1 2.068958 1_554
Mn3 O7 2.068958 1_545
Mn3 O3 2.487991 1_555
Mn3 O5 2.487991 1_544
