# generated using pymatgen
data_BaEr2ZnO5
_symmetry_space_group_name_H-M   'P 1'
_cell_length_a   5.72426800
_cell_length_b   7.09652900
_cell_length_c   12.35577700
_cell_angle_alpha   90.00000000
_cell_angle_beta   90.00000000
_cell_angle_gamma   90.00000000
_symmetry_Int_Tables_number   1
_chemical_formula_structural   BaEr2ZnO5
_chemical_formula_sum   'Ba4 Er8 Zn4 O20'
_cell_volume   501.92173404
_cell_formula_units_Z   4
loop_
 _symmetry_equiv_pos_site_id
 _symmetry_equiv_pos_as_xyz
  1  'x, y, z'
loop_
 _atom_site_type_symbol
 _atom_site_label
 _atom_site_symmetry_multiplicity
 _atom_site_fract_x
 _atom_site_fract_y
 _atom_site_fract_z
 _atom_site_occupancy
  Ba  Ba0  1  0.75000000  0.07806200  0.10172600  1
  Ba  Ba1  1  0.75000000  0.42193800  0.60172600  1
  Ba  Ba2  1  0.25000000  0.57806200  0.39827400  1
  Ba  Ba3  1  0.25000000  0.92193800  0.89827400  1
  Er  Er0  1  0.25000000  0.40037000  0.07437800  1
  Er  Er1  1  0.75000000  0.61931400  0.20813300  1
  Er  Er2  1  0.75000000  0.88068600  0.70813300  1
  Er  Er3  1  0.25000000  0.11931400  0.29186700  1
  Er  Er4  1  0.75000000  0.59963000  0.92562200  1
  Er  Er5  1  0.75000000  0.90037000  0.42562200  1
  Er  Er6  1  0.25000000  0.09963000  0.57437800  1
  Er  Er7  1  0.25000000  0.38068600  0.79186700  1
  Zn  Zn0  1  0.25000000  0.80874600  0.15013800  1
  Zn  Zn1  1  0.75000000  0.19125400  0.84986200  1
  Zn  Zn2  1  0.75000000  0.30874600  0.34986200  1
  Zn  Zn3  1  0.25000000  0.69125400  0.65013800  1
  O  O0  1  0.25000000  0.42211800  0.60119100  1
  O  O1  1  0.75000000  0.57788200  0.39880900  1
  O  O2  1  0.75000000  0.92211800  0.89880900  1
  O  O3  1  0.25000000  0.07788200  0.10119100  1
  O  O4  1  0.99938900  0.86027800  0.27540000  1
  O  O5  1  0.49938900  0.13972200  0.72460000  1
  O  O6  1  0.00061100  0.36027800  0.22460000  1
  O  O7  1  0.50061100  0.63972200  0.77540000  1
  O  O8  1  0.00061100  0.13972200  0.72460000  1
  O  O9  1  0.50061100  0.86027800  0.27540000  1
  O  O10  1  0.99938900  0.63972200  0.77540000  1
  O  O11  1  0.49938900  0.36027800  0.22460000  1
  O  O12  1  0.49960500  0.66214400  0.06616900  1
  O  O13  1  0.99960500  0.33785600  0.93383100  1
  O  O14  1  0.50039500  0.16214400  0.43383100  1
  O  O15  1  0.00039500  0.83785600  0.56616900  1
  O  O16  1  0.99960500  0.16214400  0.43383100  1
  O  O17  1  0.49960500  0.83785600  0.56616900  1
  O  O18  1  0.00039500  0.66214400  0.06616900  1
  O  O19  1  0.50039500  0.33785600  0.93383100  1
loop_
_geom_bond_atom_site_label_1
_geom_bond_atom_site_label_2
_geom_bond_distance
_geom_bond_site_symmetry_2
Ba0 O2 2.740572 1_544
Ba0 O3 2.862142 1_555
Ba0 O3 2.862142 1_655
Ba0 O6 2.893776 1_655
Ba0 O11 2.893776 1_555
Ba0 O4 3.005220 1_545
Ba0 O9 3.005220 1_545
Ba0 O13 3.121525 1_554
Ba0 O19 3.121525 1_554
Ba0 O12 3.310473 1_545
Ba0 O18 3.310473 1_645
Ba1 O1 2.740572 1_555
Ba1 O0 2.862142 1_555
Ba1 O0 2.862142 1_655
Ba1 O8 2.893776 1_655
Ba1 O5 2.893776 1_555
Ba1 O7 3.005220 1_555
Ba1 O10 3.005220 1_555
Ba1 O16 3.121525 1_555
Ba1 O14 3.121525 1_555
Ba1 O15 3.310473 1_655
Ba1 O17 3.310473 1_555
Ba2 O0 2.740572 1_555
Ba2 O1 2.862142 1_455
Ba2 O1 2.862142 1_555
Ba2 O4 2.893776 1_455
Ba2 O9 2.893776 1_555
Ba2 O11 3.005220 1_555
Ba2 O6 3.005220 1_555
Ba2 O17 3.121525 1_555
Ba2 O15 3.121525 1_555
Ba2 O14 3.310473 1_555
Ba2 O16 3.310473 1_455
Ba3 O3 2.740572 1_566
Ba3 O2 2.862142 1_555
Ba3 O2 2.862142 1_455
Ba3 O7 2.893776 1_555
Ba3 O10 2.893776 1_455
Ba3 O5 3.005220 1_565
Ba3 O8 3.005220 1_565
Ba3 O12 3.121525 1_556
Ba3 O18 3.121525 1_556
Ba3 O19 3.310473 1_565
Ba3 O13 3.310473 1_465
Er0 O13 2.294974 1_454
Er0 O19 2.294974 1_554
Er0 O3 2.312401 1_555
Er0 O18 2.345799 1_555
Er0 O12 2.345799 1_555
Er0 O6 2.358823 1_555
Er0 O11 2.358823 1_555
Er1 O18 2.285518 1_655
Er1 O12 2.285518 1_555
Er1 O6 2.340632 1_655
Er1 O11 2.340632 1_555
Er1 O1 2.374226 1_555
Er1 O4 2.377576 1_555
Er1 O9 2.377576 1_555
Er2 O15 2.285518 1_655
Er2 O17 2.285518 1_555
Er2 O8 2.340632 1_665
Er2 O5 2.340632 1_565
Er2 O2 2.374226 1_555
Er2 O7 2.377576 1_555
Er2 O10 2.377576 1_555
Er3 O16 2.285518 1_455
Er3 O14 2.285518 1_555
Er3 O9 2.340632 1_545
Er3 O4 2.340632 1_445
Er3 O3 2.374226 1_555
Er3 O11 2.377576 1_555
Er3 O6 2.377576 1_555
Er4 O12 2.294974 1_556
Er4 O18 2.294974 1_656
Er4 O2 2.312401 1_555
Er4 O13 2.345799 1_555
Er4 O19 2.345799 1_555
Er4 O7 2.358823 1_555
Er4 O10 2.358823 1_555
Er5 O15 2.294974 1_655
Er5 O17 2.294974 1_555
Er5 O1 2.312401 1_555
Er5 O14 2.345799 1_565
Er5 O16 2.345799 1_565
Er5 O4 2.358823 1_555
Er5 O9 2.358823 1_555
Er6 O14 2.294974 1_555
Er6 O16 2.294974 1_455
Er6 O0 2.312401 1_555
Er6 O15 2.345799 1_545
Er6 O17 2.345799 1_545
Er6 O5 2.358823 1_555
Er6 O8 2.358823 1_555
Er7 O13 2.285518 1_455
Er7 O19 2.285518 1_555
Er7 O7 2.340632 1_555
Er7 O10 2.340632 1_455
Er7 O0 2.374226 1_555
Er7 O8 2.377576 1_555
Er7 O5 2.377576 1_555
O0 Zn3 2.003396 1_555
O1 Zn2 2.003396 1_555
O2 Zn1 2.003396 1_565
O3 Zn0 2.003396 1_545
O4 Zn0 2.141755 1_655
O5 Zn1 2.141755 1_555
O6 Zn2 2.141755 1_455
O7 Zn3 2.141755 1_555
O8 Zn1 2.141755 1_455
O9 Zn0 2.141755 1_555
O10 Zn3 2.141755 1_655
O11 Zn2 2.141755 1_555
O12 Zn0 2.049453 1_555
O13 Zn1 2.049453 1_555
O14 Zn2 2.049453 1_555
O15 Zn3 2.049453 1_555
O16 Zn2 2.049453 1_555
O17 Zn3 2.049453 1_555
O18 Zn0 2.049453 1_555
O19 Zn1 2.049453 1_555
