# generated using pymatgen
data_Re2H4O9
_symmetry_space_group_name_H-M   'P 1'
_cell_length_a   8.90231100
_cell_length_b   4.99617300
_cell_length_c   8.29685457
_cell_angle_alpha   81.16116738
_cell_angle_beta   90.00000000
_cell_angle_gamma   90.00000000
_symmetry_Int_Tables_number   1
_chemical_formula_structural   Re2H4O9
_chemical_formula_sum   'Re4 H8 O18'
_cell_volume   364.64088423
_cell_formula_units_Z   2
loop_
 _symmetry_equiv_pos_site_id
 _symmetry_equiv_pos_as_xyz
  1  'x, y, z'
loop_
 _atom_site_type_symbol
 _atom_site_label
 _atom_site_symmetry_multiplicity
 _atom_site_fract_x
 _atom_site_fract_y
 _atom_site_fract_z
 _atom_site_occupancy
  Re  Re0  1  0.74501400  0.11129600  0.88035400  1
  Re  Re1  1  0.24501400  0.88870400  0.11964600  1
  Re  Re2  1  0.75082900  0.55001600  0.45000700  1
  Re  Re3  1  0.25082900  0.44998400  0.54999300  1
  H  H0  1  0.75250300  0.65641800  0.05654100  1
  H  H1  1  0.25250300  0.34358200  0.94345900  1
  H  H2  1  0.47105300  0.53913900  0.02644200  1
  H  H3  1  0.97105300  0.46086100  0.97355800  1
  H  H4  1  0.51773400  0.01853700  0.71273100  1
  H  H5  1  0.01773400  0.98146300  0.28726900  1
  H  H6  1  0.47921400  0.98476100  0.29189600  1
  H  H7  1  0.97921400  0.01523900  0.70810400  1
  O  O0  1  0.75115000  0.36627100  0.65281000  1
  O  O1  1  0.25115000  0.63372900  0.34719000  1
  O  O2  1  0.74980400  0.33042100  0.30739400  1
  O  O3  1  0.24980400  0.66957900  0.69260600  1
  O  O4  1  0.74256200  0.84898500  0.06723400  1
  O  O5  1  0.24256200  0.15101500  0.93276600  1
  O  O6  1  0.61065800  0.33413100  0.93964200  1
  O  O7  1  0.11065800  0.66586900  0.06035800  1
  O  O8  1  0.39927400  0.68145500  0.04715600  1
  O  O9  1  0.89927400  0.31854500  0.95284400  1
  O  O10  1  0.59116500  0.75215500  0.41837800  1
  O  O11  1  0.09116500  0.24784500  0.58162200  1
  O  O12  1  0.40977500  0.24520800  0.58404300  1
  O  O13  1  0.90977500  0.75479200  0.41595700  1
  O  O14  1  0.60358400  0.92256100  0.77426100  1
  O  O15  1  0.10358400  0.07743900  0.22573900  1
  O  O16  1  0.39806200  0.07379100  0.22116200  1
  O  O17  1  0.89806200  0.92620900  0.77883800  1
loop_
_geom_bond_atom_site_label_1
_geom_bond_atom_site_label_2
_geom_bond_distance
_geom_bond_site_symmetry_2
H0 O4 0.983649 1_555
H1 O5 0.983649 1_555
H2 O8 0.990445 1_555
H3 O9 0.990445 1_555
H4 O14 0.999709 1_545
H4 O12 1.724708 1_555
H5 O15 0.999709 1_565
H5 O13 1.724708 1_455
H6 O16 0.991952 1_565
H7 O17 0.991952 1_545
O0 Re2 1.788660 1_555
O0 Re0 2.109712 1_555
O1 Re3 1.788660 1_555
O1 Re1 2.109712 1_555
O2 Re2 1.732855 1_555
O3 Re3 1.732855 1_555
O4 Re0 1.870202 1_564
O5 Re1 1.870202 1_546
O6 Re0 1.755095 1_555
O7 Re1 1.755095 1_555
O8 Re1 1.873804 1_555
O9 Re0 1.873804 1_555
O10 Re2 1.740022 1_555
O11 Re3 1.740022 1_555
O12 Re3 1.743531 1_555
O13 Re2 1.743531 1_555
O14 Re0 1.871970 1_565
O15 Re1 1.871970 1_545
O16 Re1 1.913174 1_545
O17 Re0 1.913174 1_565
