# generated using pymatgen
data_K2Ba6Yb3Bi5O24
_symmetry_space_group_name_H-M   'P 1'
_cell_length_a   12.76540977
_cell_length_b   12.76540977
_cell_length_c   6.04261619
_cell_angle_alpha   90.00000000
_cell_angle_beta   90.00000000
_cell_angle_gamma   140.98852037
_symmetry_Int_Tables_number   1
_chemical_formula_structural   K2Ba6Yb3Bi5O24
_chemical_formula_sum   'K2 Ba6 Yb3 Bi5 O24'
_cell_volume   619.83167482
_cell_formula_units_Z   1
loop_
 _symmetry_equiv_pos_site_id
 _symmetry_equiv_pos_as_xyz
  1  'x, y, z'
loop_
 _atom_site_type_symbol
 _atom_site_label
 _atom_site_symmetry_multiplicity
 _atom_site_fract_x
 _atom_site_fract_y
 _atom_site_fract_z
 _atom_site_occupancy
  K  K0  1  0.50000000  0.00000000  0.50000000  1
  K  K1  1  0.00000000  0.50000000  0.50000000  1
  Ba  Ba0  1  0.37635723  0.12608893  0.00000000  1
  Ba  Ba1  1  0.87391107  0.62364277  0.00000000  1
  Ba  Ba2  1  0.74750668  0.74750668  0.50000000  1
  Ba  Ba3  1  0.62364277  0.87391107  0.00000000  1
  Ba  Ba4  1  0.25249332  0.25249332  0.50000000  1
  Ba  Ba5  1  0.12608893  0.37635723  0.00000000  1
  Yb  Yb0  1  0.00000000  0.00000000  0.00000000  1
  Yb  Yb1  1  0.62742087  0.37257913  0.50000000  1
  Yb  Yb2  1  0.37257913  0.62742087  0.50000000  1
  Bi  Bi0  1  0.50000000  0.50000000  0.00000000  1
  Bi  Bi1  1  0.87494349  0.12505651  0.50000000  1
  Bi  Bi2  1  0.74891073  0.25108927  0.00000000  1
  Bi  Bi3  1  0.25108927  0.74891073  0.00000000  1
  Bi  Bi4  1  0.12505651  0.87494349  0.50000000  1
  O  O0  1  0.36790216  0.11996594  0.50000000  1
  O  O1  1  0.56177033  0.43822967  0.24814589  1
  O  O2  1  0.56177033  0.43822967  0.75185411  1
  O  O3  1  0.43822967  0.56177033  0.24814589  1
  O  O4  1  0.43822967  0.56177033  0.75185411  1
  O  O5  1  0.88003406  0.63209784  0.50000000  1
  O  O6  1  0.74612419  0.74612419  0.00000000  1
  O  O7  1  0.63209784  0.88003406  0.50000000  1
  O  O8  1  0.50000000  0.00000000  0.00000000  1
  O  O9  1  0.06369864  0.93630136  0.25426786  1
  O  O10  1  0.06369864  0.93630136  0.74573214  1
  O  O11  1  0.93630136  0.06369864  0.74573214  1
  O  O12  1  0.93630136  0.06369864  0.25426786  1
  O  O13  1  0.81520128  0.18479872  0.23406437  1
  O  O14  1  0.81520128  0.18479872  0.76593563  1
  O  O15  1  0.68731916  0.31268084  0.76288326  1
  O  O16  1  0.68731916  0.31268084  0.23711674  1
  O  O17  1  0.25387581  0.25387581  0.00000000  1
  O  O18  1  0.00000000  0.50000000  0.00000000  1
  O  O19  1  0.11996594  0.36790216  0.50000000  1
  O  O20  1  0.31268084  0.68731916  0.23711674  1
  O  O21  1  0.31268084  0.68731916  0.76288326  1
  O  O22  1  0.18479872  0.81520128  0.76593563  1
  O  O23  1  0.18479872  0.81520128  0.23406437  1
loop_
_geom_bond_atom_site_label_1
_geom_bond_atom_site_label_2
_geom_bond_distance
_geom_bond_site_symmetry_2
K0 O8 3.021308 1_556
K0 O8 3.021308 1_555
K0 O7 3.033468 1_545
K0 O0 3.033468 1_555
K0 O21 3.056263 1_545
K0 O15 3.056263 1_555
K0 O20 3.056263 1_545
K0 O16 3.056263 1_555
K0 O14 3.096184 1_555
K0 O13 3.096184 1_555
K0 O22 3.096184 1_545
K0 O23 3.096184 1_545
K1 O18 3.021308 1_555
K1 O18 3.021308 1_556
K1 O5 3.033468 1_455
K1 O19 3.033468 1_555
K1 O15 3.056263 1_455
K1 O21 3.056263 1_555
K1 O16 3.056263 1_455
K1 O20 3.056263 1_555
K1 O22 3.096184 1_555
K1 O23 3.096184 1_555
K1 O14 3.096184 1_455
K1 O13 3.096184 1_455
Ba0 O23 2.940859 1_545
Ba0 O22 2.940859 1_544
Ba0 O16 2.964818 1_555
Ba0 O15 2.964818 1_554
Ba0 O8 3.004984 1_555
Ba0 O17 3.011508 1_555
Ba0 O1 3.011857 1_555
Ba0 O2 3.011857 1_554
Ba0 O0 3.022077 1_555
Ba0 O0 3.022077 1_554
Ba0 O9 3.022101 1_545
Ba0 O10 3.022101 1_544
Ba1 O23 2.940859 1_655
Ba1 O22 2.940859 1_654
Ba1 O16 2.964818 1_555
Ba1 O15 2.964818 1_554
Ba1 O18 3.004984 1_655
Ba1 O6 3.011508 1_555
Ba1 O1 3.011857 1_555
Ba1 O2 3.011857 1_554
Ba1 O5 3.022077 1_555
Ba1 O5 3.022077 1_554
Ba1 O9 3.022101 1_655
Ba1 O10 3.022101 1_654
Ba2 O5 2.984254 1_555
Ba2 O7 2.984254 1_555
Ba2 O4 2.996278 1_555
Ba2 O2 2.996278 1_555
Ba2 O3 2.996278 1_555
Ba2 O1 2.996278 1_555
Ba2 O6 3.021331 1_555
Ba2 O6 3.021331 1_556
Ba2 O10 3.031134 1_655
Ba2 O11 3.031134 1_565
Ba2 O9 3.031134 1_655
Ba2 O12 3.031134 1_565
Ba3 O13 2.940859 1_565
Ba3 O14 2.940859 1_564
Ba3 O20 2.964818 1_555
Ba3 O21 2.964818 1_554
Ba3 O8 3.004984 1_565
Ba3 O6 3.011508 1_555
Ba3 O3 3.011857 1_555
Ba3 O4 3.011857 1_554
Ba3 O7 3.022077 1_555
Ba3 O7 3.022077 1_554
Ba3 O12 3.022101 1_565
Ba3 O11 3.022101 1_564
Ba4 O0 2.984254 1_555
Ba4 O19 2.984254 1_555
Ba4 O2 2.996278 1_555
Ba4 O4 2.996278 1_555
Ba4 O3 2.996278 1_555
Ba4 O1 2.996278 1_555
Ba4 O17 3.021331 1_555
Ba4 O17 3.021331 1_556
Ba4 O11 3.031134 1_455
Ba4 O10 3.031134 1_545
Ba4 O12 3.031134 1_455
Ba4 O9 3.031134 1_545
Ba5 O13 2.940859 1_455
Ba5 O14 2.940859 1_454
Ba5 O20 2.964818 1_555
Ba5 O21 2.964818 1_554
Ba5 O18 3.004984 1_555
Ba5 O17 3.011508 1_555
Ba5 O3 3.011857 1_555
Ba5 O4 3.011857 1_554
Ba5 O19 3.022077 1_554
Ba5 O19 3.022077 1_555
Ba5 O12 3.022101 1_455
Ba5 O11 3.022101 1_454
Bi0 O6 2.098153 1_555
Bi0 O17 2.098153 1_555
Bi0 O1 2.111432 1_555
Bi0 O3 2.111432 1_555
Bi0 O2 2.111432 1_554
Bi0 O4 2.111432 1_554
Bi1 O19 2.079648 1_655
Bi1 O7 2.079648 1_545
Bi1 O11 2.094088 1_555
Bi1 O12 2.094088 1_555
Bi1 O14 2.156234 1_555
Bi1 O13 2.156234 1_555
Bi2 O16 2.061541 1_555
Bi2 O15 2.061541 1_554
Bi2 O8 2.131355 1_555
Bi2 O18 2.131355 1_655
Bi2 O13 2.132008 1_555
Bi2 O14 2.132008 1_554
Bi3 O20 2.061541 1_555
Bi3 O21 2.061541 1_554
Bi3 O18 2.131355 1_555
Bi3 O8 2.131355 1_565
Bi3 O23 2.132008 1_555
Bi3 O22 2.132008 1_554
Bi4 O5 2.079648 1_455
Bi4 O0 2.079648 1_565
Bi4 O10 2.094088 1_555
Bi4 O9 2.094088 1_555
Bi4 O22 2.156234 1_555
Bi4 O23 2.156234 1_555
O0 Yb1 2.184485 1_555
O1 Yb1 2.193670 1_555
O2 Yb1 2.193670 1_555
O3 Yb2 2.193670 1_555
O4 Yb2 2.193670 1_555
O5 Yb1 2.184485 1_555
O6 Yb0 2.164234 1_665
O7 Yb2 2.184485 1_555
O9 Yb0 2.170385 1_565
O10 Yb0 2.170385 1_566
O11 Yb0 2.170385 1_656
O12 Yb0 2.170385 1_655
O15 Yb1 2.145046 1_555
O16 Yb1 2.145046 1_555
O17 Yb0 2.164234 1_555
O19 Yb2 2.184485 1_555
O20 Yb2 2.145046 1_555
O21 Yb2 2.145046 1_555
