# generated using pymatgen
data_LiMn3Al2(HO2)6
_symmetry_space_group_name_H-M   'P 1'
_cell_length_a   5.11898436
_cell_length_b   5.11898436
_cell_length_c   9.70022248
_cell_angle_alpha   84.57871007
_cell_angle_beta   84.57871007
_cell_angle_gamma   119.14795350
_symmetry_Int_Tables_number   1
_chemical_formula_structural   LiMn3Al2(HO2)6
_chemical_formula_sum   'Li1 Mn3 Al2 H6 O12'
_cell_volume   218.09852131
_cell_formula_units_Z   1
loop_
 _symmetry_equiv_pos_site_id
 _symmetry_equiv_pos_as_xyz
  1  'x, y, z'
loop_
 _atom_site_type_symbol
 _atom_site_label
 _atom_site_symmetry_multiplicity
 _atom_site_fract_x
 _atom_site_fract_y
 _atom_site_fract_z
 _atom_site_occupancy
  Li  Li0  1  0.50000000  0.50000000  0.50000000  1
  Mn  Mn0  1  0.00000000  0.00000000  0.00000000  1
  Mn  Mn1  1  0.66483000  0.33517000  0.00000000  1
  Mn  Mn2  1  0.33517000  0.66483000  0.00000000  1
  Al  Al0  1  0.16681400  0.83318600  0.50000000  1
  Al  Al1  1  0.83318600  0.16681400  0.50000000  1
  H  H0  1  0.22496700  0.22496700  0.29305800  1
  H  H1  1  0.91873700  0.56998200  0.29342900  1
  H  H2  1  0.56998200  0.91873700  0.29342900  1
  H  H3  1  0.43001800  0.08126300  0.70657100  1
  H  H4  1  0.08126300  0.43001800  0.70657100  1
  H  H5  1  0.77503300  0.77503300  0.70694200  1
  O  O0  1  0.17026800  0.17026800  0.39579600  1
  O  O1  1  0.32605400  0.32605400  0.10883400  1
  O  O2  1  0.89923100  0.53645200  0.39616100  1
  O  O3  1  0.96245700  0.62589100  0.10111300  1
  O  O4  1  0.53645200  0.89923100  0.39616100  1
  O  O5  1  0.62589100  0.96245700  0.10111300  1
  O  O6  1  0.37410900  0.03754300  0.89888700  1
  O  O7  1  0.46354800  0.10076900  0.60383900  1
  O  O8  1  0.03754300  0.37410900  0.89888700  1
  O  O9  1  0.10076900  0.46354800  0.60383900  1
  O  O10  1  0.67394600  0.67394600  0.89116600  1
  O  O11  1  0.82973200  0.82973200  0.60420400  1
loop_
_geom_bond_atom_site_label_1
_geom_bond_atom_site_label_2
_geom_bond_distance
_geom_bond_site_symmetry_2
Li0 O9 2.104750 1_555
Li0 O7 2.104750 1_555
Li0 O2 2.104750 1_555
Li0 O4 2.104750 1_555
Li0 O11 2.142234 1_555
Li0 O0 2.142234 1_555
Mn0 O8 1.979224 1_554
Mn0 O6 1.979224 1_554
Mn0 O5 1.979224 1_445
Mn0 O3 1.979224 1_445
Mn0 O1 2.153665 1_555
Mn0 O10 2.153665 1_444
Mn1 O10 1.920947 1_554
Mn1 O1 1.920947 1_555
Mn1 O3 1.961483 1_555
Mn1 O6 1.961483 1_554
Mn1 O5 1.969991 1_545
Mn1 O8 1.969991 1_654
Mn2 O10 1.920947 1_554
Mn2 O1 1.920947 1_555
Mn2 O5 1.961483 1_555
Mn2 O8 1.961483 1_554
Mn2 O3 1.969991 1_455
Mn2 O6 1.969991 1_564
Al0 O0 1.907034 1_565
Al0 O11 1.907034 1_455
Al0 O4 1.913516 1_555
Al0 O9 1.913516 1_555
Al0 O7 1.929014 1_565
Al0 O2 1.929014 1_455
Al1 O0 1.907034 1_655
Al1 O11 1.907034 1_545
Al1 O2 1.913516 1_555
Al1 O7 1.913516 1_555
Al1 O9 1.929014 1_655
Al1 O4 1.929014 1_545
H0 O0 0.983946 1_555
H0 O1 1.765970 1_555
H1 O2 0.982177 1_555
H2 O4 0.982177 1_555
H3 O7 0.982177 1_555
H4 O9 0.982177 1_555
H5 O11 0.983946 1_555
H5 O10 1.765970 1_555
