# generated using pymatgen
data_Eu3Ag2
_symmetry_space_group_name_H-M   'P 1'
_cell_length_a   4.35451060
_cell_length_b   8.43465072
_cell_length_c   8.43467834
_cell_angle_alpha   89.99643163
_cell_angle_beta   90.00000000
_cell_angle_gamma   90.00000000
_symmetry_Int_Tables_number   1
_chemical_formula_structural   Eu3Ag2
_chemical_formula_sum   'Eu6 Ag4'
_cell_volume   309.79541081
_cell_formula_units_Z   2
loop_
 _symmetry_equiv_pos_site_id
 _symmetry_equiv_pos_as_xyz
  1  'x, y, z'
loop_
 _atom_site_type_symbol
 _atom_site_label
 _atom_site_symmetry_multiplicity
 _atom_site_fract_x
 _atom_site_fract_y
 _atom_site_fract_z
 _atom_site_occupancy
  Eu  Eu0  1  0.50000000  0.16564685  0.66564256  1
  Eu  Eu1  1  0.50000000  0.66564459  0.83435625  1
  Eu  Eu2  1  0.50000000  0.33435524  0.16564406  1
  Eu  Eu3  1  -0.00000000  -0.00000089  0.00000235  1
  Eu  Eu4  1  0.50000000  0.83435509  0.33435507  1
  Eu  Eu5  1  0.00000000  0.50000273  0.49999851  1
  Ag  Ag0  1  -0.00000000  0.37707679  0.87707072  1
  Ag  Ag1  1  0.00000000  0.12292430  0.37707947  1
  Ag  Ag2  1  0.00000000  0.62291600  0.12293286  1
  Ag  Ag3  1  0.00000000  0.87707828  0.62291915  1
loop_
_geom_bond_atom_site_label_1
_geom_bond_atom_site_label_2
_geom_bond_distance
_geom_bond_site_symmetry_2
Ag0 Ag2 2.932701 1_556
Ag0 Eu1 3.285474 1_455
Ag0 Eu1 3.285474 1_555
Ag0 Eu2 3.285521 1_556
Ag0 Eu2 3.285521 1_456
Ag0 Eu0 3.331875 1_455
Ag0 Eu0 3.331875 1_555
Ag0 Eu5 3.345159 1_555
Ag0 Eu3 3.345209 1_556
Ag1 Ag3 2.932425 1_545
Ag1 Eu0 3.285491 1_455
Ag1 Eu0 3.285491 1_555
Ag1 Eu4 3.285525 1_445
Ag1 Eu4 3.285525 1_545
Ag1 Eu2 3.331793 1_555
Ag1 Eu2 3.331793 1_455
Ag1 Eu5 3.345305 1_555
Ag1 Eu3 3.345320 1_555
Ag2 Eu2 3.285427 1_455
Ag2 Eu2 3.285427 1_555
Ag2 Eu1 3.285548 1_554
Ag2 Eu1 3.285548 1_454
Ag2 Eu4 3.331889 1_455
Ag2 Eu4 3.331889 1_555
Ag2 Eu5 3.345074 1_555
Ag2 Eu3 3.345250 1_565
Ag3 Eu4 3.285498 1_455
Ag3 Eu4 3.285498 1_555
Ag3 Eu0 3.285520 1_565
Ag3 Eu0 3.285520 1_465
Ag3 Eu1 3.331813 1_455
Ag3 Eu1 3.331813 1_555
Ag3 Eu5 3.345286 1_555
Ag3 Eu3 3.345357 1_566
