# generated using pymatgen
data_Yb(YS2)2
_symmetry_space_group_name_H-M   'P 1'
_cell_length_a   7.23128933
_cell_length_b   7.23128933
_cell_length_c   7.23128933
_cell_angle_alpha   109.36028183
_cell_angle_beta   109.36028183
_cell_angle_gamma   109.69332681
_symmetry_Int_Tables_number   1
_chemical_formula_structural   Yb(YS2)2
_chemical_formula_sum   'Yb2 Y4 S8'
_cell_volume   291.08540318
_cell_formula_units_Z   2
loop_
 _symmetry_equiv_pos_site_id
 _symmetry_equiv_pos_as_xyz
  1  'x, y, z'
loop_
 _atom_site_type_symbol
 _atom_site_label
 _atom_site_symmetry_multiplicity
 _atom_site_fract_x
 _atom_site_fract_y
 _atom_site_fract_z
 _atom_site_occupancy
  Yb  Yb0  1  0.75000000  0.25000000  0.50000000  1
  Yb  Yb1  1  0.50000000  0.50000000  0.00000000  1
  Y  Y0  1  0.99757900  0.37500000  0.12257900  1
  Y  Y1  1  0.62500000  0.74757900  0.62257900  1
  Y  Y2  1  0.25242100  0.87500000  0.87742100  1
  Y  Y3  1  0.12500000  0.00242100  0.37742100  1
  S  S0  1  0.87993200  0.62946600  0.89471800  1
  S  S1  1  0.37053400  0.26525100  0.25046600  1
  S  S2  1  0.23521500  0.48474900  0.60528200  1
  S  S3  1  0.37006800  0.76478500  0.24953400  1
  S  S4  1  0.87946600  0.62993200  0.39471800  1
  S  S5  1  0.51525100  0.12053400  0.75046600  1
  S  S6  1  0.73474900  0.98521500  0.10528200  1
  S  S7  1  0.01478500  0.12006800  0.74953400  1
loop_
_geom_bond_atom_site_label_1
_geom_bond_atom_site_label_2
_geom_bond_distance
_geom_bond_site_symmetry_2
S0 Y2 2.751515 1_655
S0 Y1 2.787640 1_555
S0 Yb0 2.801952 1_555
S0 Y0 2.993449 1_556
S0 Y3 3.005677 1_666
S0 Yb1 3.021609 1_556
S1 Y3 2.751511 1_555
S1 Y2 2.787636 1_544
S1 Yb0 2.801947 1_555
S1 Y1 2.993454 1_555
S1 Y0 3.005682 1_455
S1 Yb1 3.021614 1_555
S2 Y1 2.751507 1_555
S2 Y2 2.787638 1_555
S2 Yb1 2.801953 1_556
S2 Y3 2.993453 1_555
S2 Y0 3.005675 1_455
S2 Yb0 3.021616 1_455
S3 Y0 2.751511 1_455
S3 Y1 2.787636 1_555
S3 Yb1 2.801947 1_555
S3 Y2 2.993454 1_554
S3 Y3 3.005682 1_565
S3 Yb0 3.021614 1_565
S4 Y3 2.751515 1_665
S4 Y0 2.787640 1_555
S4 Yb1 2.801952 1_555
S4 Y1 2.993449 1_555
S4 Y2 3.005677 1_655
S4 Yb0 3.021609 1_555
S5 Y2 2.751511 1_545
S5 Y3 2.787636 1_555
S5 Yb1 2.801947 1_556
S5 Y0 2.993454 1_556
S5 Y1 3.005682 1_545
S5 Yb0 3.021614 1_555
S6 Y0 2.751507 1_565
S6 Y3 2.787638 1_665
S6 Yb0 2.801953 1_565
S6 Y2 2.993453 1_554
S6 Y1 3.005675 1_554
S6 Yb1 3.021616 1_555
S7 Y1 2.751511 1_445
S7 Y0 2.787636 1_456
S7 Yb0 2.801947 1_455
S7 Y3 2.993454 1_555
S7 Y2 3.005682 1_545
S7 Yb1 3.021614 1_556
