# generated using pymatgen
data_MnB
_symmetry_space_group_name_H-M   'P 1'
_cell_length_a   6.77008500
_cell_length_b   6.77008500
_cell_length_c   3.96080900
_cell_angle_alpha   90.00000000
_cell_angle_beta   90.00000000
_cell_angle_gamma   90.00000000
_symmetry_Int_Tables_number   1
_chemical_formula_structural   MnB
_chemical_formula_sum   'Mn8 B8'
_cell_volume   181.53992134
_cell_formula_units_Z   8
loop_
 _symmetry_equiv_pos_site_id
 _symmetry_equiv_pos_as_xyz
  1  'x, y, z'
loop_
 _atom_site_type_symbol
 _atom_site_label
 _atom_site_symmetry_multiplicity
 _atom_site_fract_x
 _atom_site_fract_y
 _atom_site_fract_z
 _atom_site_occupancy
  Mn  Mn0  1  0.62628100  0.87371900  0.12125500  1
  Mn  Mn1  1  0.87371900  0.62628100  0.37874500  1
  Mn  Mn2  1  0.62628100  0.12628100  0.62125500  1
  Mn  Mn3  1  0.12628100  0.62628100  0.87874500  1
  Mn  Mn4  1  0.37371900  0.12628100  0.12125500  1
  Mn  Mn5  1  0.87371900  0.37371900  0.87874500  1
  Mn  Mn6  1  0.37371900  0.87371900  0.62125500  1
  Mn  Mn7  1  0.12628100  0.37371900  0.37874500  1
  B  B0  1  0.81949200  0.31949200  0.38269700  1
  B  B1  1  0.31949200  0.81949200  0.11730300  1
  B  B2  1  0.68050800  0.18050800  0.11730300  1
  B  B3  1  0.31949200  0.18050800  0.61730300  1
  B  B4  1  0.18050800  0.31949200  0.88269700  1
  B  B5  1  0.81949200  0.68050800  0.88269700  1
  B  B6  1  0.68050800  0.81949200  0.61730300  1
  B  B7  1  0.18050800  0.68050800  0.38269700  1
loop_
_geom_bond_atom_site_label_1
_geom_bond_atom_site_label_2
_geom_bond_distance
_geom_bond_site_symmetry_2
B0 B2 1.695783 1_555
B0 Mn5 2.032192 1_555
B0 Mn5 2.062475 1_554
B0 Mn2 2.077214 1_555
B0 Mn1 2.109242 1_555
B0 Mn7 2.109242 1_655
B1 B7 1.695783 1_555
B1 Mn6 2.032192 1_554
B1 Mn6 2.062475 1_555
B1 Mn3 2.077214 1_554
B1 Mn0 2.109242 1_555
B1 Mn4 2.109242 1_565
B2 Mn2 2.032192 1_554
B2 Mn2 2.062475 1_555
B2 Mn5 2.077214 1_554
B2 Mn0 2.109242 1_545
B2 Mn4 2.109242 1_555
B3 B4 1.695783 1_555
B3 Mn4 2.032192 1_555
B3 Mn4 2.062475 1_556
B3 Mn7 2.077214 1_555
B3 Mn2 2.109242 1_555
B3 Mn6 2.109242 1_545
B4 Mn7 2.032192 1_556
B4 Mn7 2.062475 1_555
B4 Mn4 2.077214 1_556
B4 Mn5 2.109242 1_455
B4 Mn3 2.109242 1_555
B5 B6 1.695783 1_555
B5 Mn1 2.032192 1_556
B5 Mn1 2.062475 1_555
B5 Mn0 2.077214 1_556
B5 Mn5 2.109242 1_555
B5 Mn3 2.109242 1_655
B6 Mn0 2.032192 1_555
B6 Mn0 2.062475 1_556
B6 Mn1 2.077214 1_555
B6 Mn6 2.109242 1_555
B6 Mn2 2.109242 1_565
B7 Mn3 2.032192 1_555
B7 Mn3 2.062475 1_554
B7 Mn6 2.077214 1_555
B7 Mn1 2.109242 1_455
B7 Mn7 2.109242 1_555
