# generated using pymatgen
data_CeErS3
_symmetry_space_group_name_H-M   'P 1'
_cell_length_a   3.95232435
_cell_length_b   16.46592656
_cell_length_c   21.16864609
_cell_angle_alpha   90.00000000
_cell_angle_beta   90.00000000
_cell_angle_gamma   90.00000000
_symmetry_Int_Tables_number   1
_chemical_formula_structural   CeErS3
_chemical_formula_sum   'Ce12 Er12 S36'
_cell_volume   1377.62759760
_cell_formula_units_Z   12
loop_
 _symmetry_equiv_pos_site_id
 _symmetry_equiv_pos_as_xyz
  1  'x, y, z'
loop_
 _atom_site_type_symbol
 _atom_site_label
 _atom_site_symmetry_multiplicity
 _atom_site_fract_x
 _atom_site_fract_y
 _atom_site_fract_z
 _atom_site_occupancy
  Ce  Ce0  1  0.75000000  0.33643389  0.74525938  1
  Ce  Ce1  1  0.75000000  0.83643389  0.75474062  1
  Ce  Ce2  1  0.75000000  0.67021309  0.91290844  1
  Ce  Ce3  1  0.25000000  0.69572633  0.57809061  1
  Ce  Ce4  1  0.25000000  0.19572633  0.92190939  1
  Ce  Ce5  1  0.75000000  0.30427367  0.42190939  1
  Ce  Ce6  1  0.75000000  0.80427367  0.07809061  1
  Ce  Ce7  1  0.25000000  0.16356611  0.24525938  1
  Ce  Ce8  1  0.75000000  0.17021309  0.58709156  1
  Ce  Ce9  1  0.25000000  0.66356611  0.25474062  1
  Ce  Ce10  1  0.25000000  0.32978691  0.08709156  1
  Ce  Ce11  1  0.25000000  0.82978691  0.41290844  1
  Er  Er0  1  0.75000000  0.05575284  0.06991929  1
  Er  Er1  1  0.25000000  0.06614504  0.42088458  1
  Er  Er2  1  0.25000000  0.44424716  0.56991929  1
  Er  Er3  1  0.75000000  0.93385496  0.57911542  1
  Er  Er4  1  0.25000000  0.59521488  0.74847719  1
  Er  Er5  1  0.75000000  0.43385496  0.92088458  1
  Er  Er6  1  0.75000000  0.40478512  0.25152281  1
  Er  Er7  1  0.25000000  0.94424716  0.93008071  1
  Er  Er8  1  0.75000000  0.55575284  0.43008071  1
  Er  Er9  1  0.75000000  0.90478512  0.24847719  1
  Er  Er10  1  0.25000000  0.56614504  0.07911542  1
  Er  Er11  1  0.25000000  0.09521488  0.75152281  1
  S  S0  1  0.25000000  0.96167829  0.31821403  1
  S  S1  1  0.75000000  0.28949896  0.98400419  1
  S  S2  1  0.25000000  0.93868214  0.05916844  1
  S  S3  1  0.25000000  0.94478532  0.80460054  1
  S  S4  1  0.25000000  0.54530156  0.94725957  1
  S  S5  1  0.75000000  0.27070323  0.17800059  1
  S  S6  1  0.75000000  0.84001340  0.93557672  1
  S  S7  1  0.75000000  0.45469844  0.05274043  1
  S  S8  1  0.75000000  0.67983192  0.68261228  1
  S  S9  1  0.25000000  0.21050104  0.48400419  1
  S  S10  1  0.75000000  0.05521468  0.19539946  1
  S  S11  1  0.25000000  0.04530156  0.55274043  1
  S  S12  1  0.75000000  0.14698900  0.35091083  1
  S  S13  1  0.75000000  0.06131786  0.94083156  1
  S  S14  1  0.25000000  0.71050104  0.01599581  1
  S  S15  1  0.75000000  0.78949896  0.51599581  1
  S  S16  1  0.75000000  0.55521468  0.30460054  1
  S  S17  1  0.25000000  0.44478532  0.69539946  1
  S  S18  1  0.25000000  0.46167829  0.18178597  1
  S  S19  1  0.25000000  0.22929677  0.67800059  1
  S  S20  1  0.25000000  0.72929677  0.82199941  1
  S  S21  1  0.25000000  0.85301100  0.64908917  1
  S  S22  1  0.25000000  0.15998660  0.06442328  1
  S  S23  1  0.75000000  0.64698900  0.14908917  1
  S  S24  1  0.25000000  0.32016808  0.31738772  1
  S  S25  1  0.75000000  0.77070323  0.32199941  1
  S  S26  1  0.25000000  0.82016808  0.18261228  1
  S  S27  1  0.75000000  0.34001340  0.56442328  1
  S  S28  1  0.75000000  0.03832171  0.68178597  1
  S  S29  1  0.25000000  0.65998660  0.43557672  1
  S  S30  1  0.75000000  0.95469844  0.44725957  1
  S  S31  1  0.25000000  0.43868214  0.44083156  1
  S  S32  1  0.75000000  0.53832171  0.81821403  1
  S  S33  1  0.75000000  0.17983192  0.81738772  1
  S  S34  1  0.75000000  0.56131786  0.55916844  1
  S  S35  1  0.25000000  0.35301100  0.85091083  1
loop_
_geom_bond_atom_site_label_1
_geom_bond_atom_site_label_2
_geom_bond_distance
_geom_bond_site_symmetry_2
Ce0 S17 2.863960 1_555
Ce0 S17 2.863960 1_655
Ce0 S33 2.996741 1_555
Ce0 S35 2.996940 1_655
Ce0 S35 2.996940 1_555
Ce0 S19 3.007399 1_655
Ce0 S19 3.007399 1_555
Ce1 S3 2.863960 1_655
Ce1 S3 2.863960 1_555
Ce1 S8 2.996741 1_555
Ce1 S21 2.996940 1_655
Ce1 S21 2.996940 1_555
Ce1 S20 3.007399 1_655
Ce1 S20 3.007399 1_555
Ce2 S6 2.836799 1_555
Ce2 S20 2.924908 1_555
Ce2 S20 2.924908 1_655
Ce2 S4 2.943527 1_555
Ce2 S4 2.943527 1_655
Ce2 S32 2.955431 1_555
Ce2 S14 3.017842 1_656
Ce2 S14 3.017842 1_556
Ce3 S15 2.831454 1_555
Ce3 S15 2.831454 1_455
Ce3 S8 2.978126 1_455
Ce3 S8 2.978126 1_555
Ce3 S34 2.993951 1_555
Ce3 S34 2.993951 1_455
Ce3 S21 2.994344 1_555
Ce3 S29 3.073688 1_555
Ce4 S1 2.831454 1_455
Ce4 S1 2.831454 1_555
Ce4 S33 2.978126 1_455
Ce4 S33 2.978126 1_555
Ce4 S13 2.993951 1_555
Ce4 S13 2.993951 1_455
Ce4 S35 2.994344 1_555
Ce4 S22 3.073688 1_556
Ce5 S9 2.831454 1_555
Ce5 S9 2.831454 1_655
Ce5 S24 2.978126 1_655
Ce5 S24 2.978126 1_555
Ce5 S31 2.993951 1_555
Ce5 S31 2.993951 1_655
Ce5 S12 2.994344 1_555
Ce5 S27 3.073688 1_555
Ce6 S14 2.831454 1_655
Ce6 S14 2.831454 1_555
Ce6 S26 2.978126 1_555
Ce6 S26 2.978126 1_655
Ce6 S2 2.993951 1_555
Ce6 S2 2.993951 1_655
Ce6 S23 2.994344 1_555
Ce6 S6 3.073688 1_554
Ce7 S10 2.863960 1_455
Ce7 S10 2.863960 1_555
Ce7 S24 2.996741 1_555
Ce7 S12 2.996940 1_455
Ce7 S12 2.996940 1_555
Ce7 S5 3.007399 1_455
Ce7 S5 3.007399 1_555
Ce8 S27 2.836799 1_555
Ce8 S19 2.924908 1_555
Ce8 S19 2.924908 1_655
Ce8 S11 2.943527 1_555
Ce8 S11 2.943527 1_655
Ce8 S28 2.955431 1_555
Ce8 S9 3.017842 1_555
Ce8 S9 3.017842 1_655
Ce9 S16 2.863960 1_455
Ce9 S16 2.863960 1_555
Ce9 S26 2.996741 1_555
Ce9 S23 2.996940 1_455
Ce9 S23 2.996940 1_555
Ce9 S25 3.007399 1_555
Ce9 S25 3.007399 1_455
Ce10 S22 2.836799 1_555
Ce10 S5 2.924908 1_455
Ce10 S5 2.924908 1_555
Ce10 S7 2.943527 1_555
Ce10 S7 2.943527 1_455
Ce10 S18 2.955431 1_555
Ce10 S1 3.017842 1_554
Ce10 S1 3.017842 1_454
Ce11 S29 2.836799 1_555
Ce11 S25 2.924908 1_555
Ce11 S25 2.924908 1_455
Ce11 S30 2.943527 1_455
Ce11 S30 2.943527 1_555
Ce11 S0 2.955431 1_555
Ce11 S15 3.017842 1_455
Ce11 S15 3.017842 1_555
Er0 S22 2.620011 1_555
Er0 S22 2.620011 1_655
Er0 S10 2.656260 1_555
Er0 S13 2.734148 1_554
Er0 S2 2.770009 1_545
Er0 S2 2.770009 1_645
Er1 S9 2.726762 1_555
Er1 S30 2.753984 1_445
Er1 S30 2.753984 1_545
Er1 S0 2.771740 1_545
Er1 S12 2.805590 1_455
Er1 S12 2.805590 1_555
Er1 S11 2.812231 1_555
Er2 S27 2.620011 1_555
Er2 S27 2.620011 1_455
Er2 S17 2.656260 1_555
Er2 S31 2.734148 1_555
Er2 S34 2.770009 1_555
Er2 S34 2.770009 1_455
Er3 S15 2.726762 1_555
Er3 S11 2.753984 1_565
Er3 S11 2.753984 1_665
Er3 S28 2.771740 1_565
Er3 S21 2.805590 1_555
Er3 S21 2.805590 1_655
Er3 S30 2.812231 1_555
Er4 S32 2.638575 1_555
Er4 S32 2.638575 1_455
Er4 S20 2.701218 1_555
Er4 S17 2.719886 1_555
Er4 S8 2.791145 1_455
Er4 S8 2.791145 1_555
Er5 S1 2.726762 1_555
Er5 S4 2.753984 1_555
Er5 S4 2.753984 1_655
Er5 S32 2.771740 1_555
Er5 S35 2.805590 1_555
Er5 S35 2.805590 1_655
Er5 S7 2.812231 1_556
Er6 S18 2.638575 1_655
Er6 S18 2.638575 1_555
Er6 S5 2.701218 1_555
Er6 S16 2.719886 1_555
Er6 S24 2.791145 1_555
Er6 S24 2.791145 1_655
Er7 S6 2.620011 1_455
Er7 S6 2.620011 1_555
Er7 S3 2.656260 1_555
Er7 S2 2.734148 1_556
Er7 S13 2.770009 1_565
Er7 S13 2.770009 1_465
Er8 S29 2.620011 1_555
Er8 S29 2.620011 1_655
Er8 S16 2.656260 1_555
Er8 S34 2.734148 1_555
Er8 S31 2.770009 1_655
Er8 S31 2.770009 1_555
Er9 S0 2.638575 1_655
Er9 S0 2.638575 1_555
Er9 S25 2.701218 1_555
Er9 S10 2.719886 1_565
Er9 S26 2.791145 1_555
Er9 S26 2.791145 1_655
Er10 S14 2.726762 1_555
Er10 S7 2.753984 1_555
Er10 S7 2.753984 1_455
Er10 S18 2.771740 1_555
Er10 S23 2.805590 1_455
Er10 S23 2.805590 1_555
Er10 S4 2.812231 1_554
Er11 S28 2.638575 1_455
Er11 S28 2.638575 1_555
Er11 S19 2.701218 1_555
Er11 S3 2.719886 1_545
Er11 S33 2.791145 1_455
Er11 S33 2.791145 1_555
