# generated using pymatgen
data_MnInFe(CO)9
_symmetry_space_group_name_H-M   'P 1'
_cell_length_a   13.43237179
_cell_length_b   13.44192588
_cell_length_c   17.92098677
_cell_angle_alpha   112.05560858
_cell_angle_beta   111.89544168
_cell_angle_gamma   89.92569883
_symmetry_Int_Tables_number   1
_chemical_formula_structural   MnInFe(CO)9
_chemical_formula_sum   'Mn8 In8 Fe8 C72 O72'
_cell_volume   2746.18837510
_cell_formula_units_Z   8
loop_
 _symmetry_equiv_pos_site_id
 _symmetry_equiv_pos_as_xyz
  1  'x, y, z'
loop_
 _atom_site_type_symbol
 _atom_site_label
 _atom_site_symmetry_multiplicity
 _atom_site_fract_x
 _atom_site_fract_y
 _atom_site_fract_z
 _atom_site_occupancy
  Mn  Mn0  1  0.83907719  0.18452099  0.06298282  1
  Mn  Mn1  1  0.87902410  0.33887606  0.56209580  1
  Mn  Mn2  1  0.12289482  0.66264071  0.43771900  1
  Mn  Mn3  1  0.22446152  0.37840890  0.06199987  1
  Mn  Mn4  1  0.31625044  0.27507161  0.43674758  1
  Mn  Mn5  1  0.16115837  0.81536678  0.93704606  1
  Mn  Mn6  1  0.77366396  0.62067572  0.93648068  1
  Mn  Mn7  1  0.68260949  0.72566894  0.56224646  1
  In  In0  1  0.26563876  0.08292678  0.43832880  1
  In  In1  1  0.73869895  0.91792775  0.56403525  1
  In  In2  1  0.82477810  0.14729587  0.56262782  1
  In  In3  1  0.35330779  0.76239352  0.93702576  1
  In  In4  1  0.64650061  0.23733626  0.06201964  1
  In  In5  1  0.41682749  0.32571887  0.06269537  1
  In  In6  1  0.58306380  0.67271039  0.93803771  1
  In  In7  1  0.17459557  0.85468526  0.43758494  1
  Fe  Fe0  1  0.39850911  0.64743796  0.79761309  1
  Fe  Fe1  1  0.14979067  0.89786046  0.29682297  1
  Fe  Fe2  1  0.28970405  0.03924810  0.57881049  1
  Fe  Fe3  1  0.46263740  0.21127806  0.92137770  1
  Fe  Fe4  1  0.60119882  0.35156842  0.20241237  1
  Fe  Fe5  1  0.71117987  0.96162330  0.42237288  1
  Fe  Fe6  1  0.53812170  0.78884205  0.07759251  1
  Fe  Fe7  1  0.85252800  0.10280225  0.70373413  1
  C  C0  1  0.89527612  0.32268664  0.15103762  1
  C  C1  1  0.71678859  0.13412160  0.68018688  1
  C  C2  1  0.78798220  0.57047419  0.02315879  1
  C  C3  1  0.52615745  0.34335050  0.94574297  1
  C  C4  1  0.74497632  0.67088906  0.84848993  1
  C  C5  1  0.07897075  0.76477049  0.22009339  1
  C  C6  1  0.69267264  0.48673678  0.85094986  1
  C  C7  1  0.26581839  0.63984089  0.71989840  1
  C  C8  1  0.17746549  0.24548658  0.34981754  1
  C  C9  1  0.73451447  0.35834544  0.27866703  1
  C  C10  1  0.92903297  0.26532096  0.47560758  1
  C  C11  1  0.28828329  0.98210276  0.65409777  1
  C  C12  1  0.65041253  0.59365983  0.56028359  1
  C  C13  1  0.63228894  0.80478194  0.64744282  1
  C  C14  1  0.42174304  0.10211988  0.94362941  1
  C  C15  1  0.26249335  0.32605067  0.52300761  1
  C  C16  1  0.09183008  0.53287849  0.43982082  1
  C  C17  1  0.01359451  0.34459011  0.64733598  1
  C  C18  1  0.60193182  0.02397152  0.44535042  1
  C  C19  1  0.07038572  0.73456343  0.52283526  1
  C  C20  1  0.15795753  0.86549698  0.85267368  1
  C  C21  1  0.28577384  0.86649909  0.32180294  1
  C  C22  1  0.54672368  0.71258169  0.47535777  1
  C  C23  1  0.10287762  0.67787837  0.84767259  1
  C  C24  1  0.54577481  0.21619976  0.17916167  1
  C  C25  1  0.26288772  0.69706955  0.52367894  1
  C  C26  1  0.57856643  0.89777369  0.05488634  1
  C  C27  1  0.73901712  0.30391853  0.47691633  1
  C  C28  1  0.36857645  0.53608151  0.82251642  1
  C  C29  1  0.21219417  0.43096728  0.97718440  1
  C  C30  1  0.92192180  0.23646183  0.77943747  1
  C  C31  1  0.81978334  0.75600817  0.65117320  1
  C  C32  1  0.52062877  0.13475276  0.84637578  1
  C  C33  1  0.45301293  0.78308697  0.82076064  1
  C  C34  1  0.71487939  0.01910206  0.34783835  1
  C  C35  1  0.25351829  0.32864007  0.15003571  1
  C  C36  1  0.98790103  0.65732848  0.35302117  1
  C  C37  1  0.82519208  0.76165231  0.02057485  1
  C  C38  1  0.17460363  0.23775934  0.97720039  1
  C  C39  1  0.80581063  0.24104611  0.97857088  1
  C  C40  1  0.96419314  0.04727292  0.67943161  1
  C  C41  1  0.96976416  0.15163485  0.06228879  1
  C  C42  1  0.14316289  0.95575712  0.22083805  1
  C  C43  1  0.91037758  0.46900761  0.56045753  1
  C  C44  1  0.03137961  0.84909600  0.93949868  1
  C  C45  1  0.76689935  0.04780763  0.97701786  1
  C  C46  1  0.17244411  0.60430089  0.34884698  1
  C  C47  1  0.63390481  0.46366941  0.17924308  1
  C  C48  1  0.84223497  0.13492014  0.14763965  1
  C  C49  1  0.33022743  0.21443219  0.84761619  1
  C  C50  1  0.86043294  0.04676647  0.78111426  1
  C  C51  1  0.39858603  0.97541205  0.55603389  1
  C  C52  1  0.73899511  0.67305828  0.47773804  1
  C  C53  1  0.84276131  0.92137921  0.44658286  1
  C  C54  1  0.47549488  0.65756806  0.05584287  1
  C  C55  1  0.15710958  0.07762198  0.55606123  1
  C  C56  1  0.34791949  0.40646994  0.43730633  1
  C  C57  1  0.09254592  0.40976455  0.05975171  1
  C  C58  1  0.54447261  0.42126508  0.27929636  1
  C  C59  1  0.82847722  0.39633599  0.65006782  1
  C  C60  1  0.36422146  0.19384673  0.35055172  1
  C  C61  1  0.48175709  0.86679171  0.15311262  1
  C  C62  1  0.90482121  0.58850836  0.93754615  1
  C  C63  1  0.03765311  0.95383666  0.31990221  1
  C  C64  1  0.30502545  0.51163561  0.14870139  1
  C  C65  1  0.67063121  0.78648645  0.15137845  1
  C  C66  1  0.45298923  0.28911079  0.52257510  1
  C  C67  1  0.23398105  0.95162474  0.02323090  1
  C  C68  1  0.19578950  0.76011525  0.02221081  1
  C  C69  1  0.63508828  0.82871998  0.34829353  1
  C  C70  1  0.45490459  0.57766073  0.72064590  1
  C  C71  1  0.36554864  0.17259719  0.65152141  1
  O  O0  1  0.94875539  0.87063488  0.94243226  1
  O  O1  1  0.61182615  0.97249711  0.04738202  1
  O  O2  1  0.56690405  0.42739534  0.95620909  1
  O  O3  1  0.93316963  0.40869560  0.20676621  1
  O  O4  1  0.37253030  0.84348702  0.33292384  1
  O  O5  1  0.85942510  0.84987329  0.07380084  1
  O  O6  1  0.17981303  0.63279738  0.66708288  1
  O  O7  1  0.72589193  0.96068653  0.92509510  1
  O  O8  1  0.51220030  0.13047511  0.17013496  1
  O  O9  1  0.00700619  0.42751707  0.05736325  1
  O  O10  1  0.39355971  0.14421485  0.29631130  1
  O  O11  1  0.43583815  0.57448038  0.04780243  1
  O  O12  1  0.90308105  0.65223904  0.30034691  1
  O  O13  1  0.53930727  0.30178763  0.57608441  1
  O  O14  1  0.52742385  0.06391108  0.45491005  1
  O  O15  1  0.27261140  0.30142918  0.20755891  1
  O  O16  1  0.35373208  0.59510746  0.20317986  1
  O  O17  1  0.03340768  0.67841464  0.16781243  1
  O  O18  1  0.96210697  0.22386158  0.42215068  1
  O  O19  1  0.24339652  0.21656170  0.80085315  1
  O  O20  1  0.09148400  0.22896512  0.29445586  1
  O  O21  1  0.92641070  0.89015833  0.45650229  1
  O  O22  1  0.48600288  0.86908052  0.82986911  1
  O  O23  1  0.14268804  0.14878433  0.92489310  1
  O  O24  1  0.92809153  0.55208064  0.55807260  1
  O  O25  1  0.27440163  0.03874167  0.07544822  1
  O  O26  1  0.65133515  0.28104401  0.42243162  1
  O  O27  1  0.06460756  0.59257672  0.79097738  1
  O  O28  1  0.48755370  0.53329253  0.66696586  1
  O  O29  1  0.46043883  0.70130476  0.42226833  1
  O  O30  1  0.80079192  0.53641352  0.07603444  1
  O  O31  1  0.15498245  0.89534301  0.79913899  1
  O  O32  1  0.34981347  0.71781339  0.57894326  1
  O  O33  1  0.63072700  0.50789916  0.55753950  1
  O  O34  1  0.09757902  0.35051965  0.70129783  1
  O  O35  1  0.47288509  0.93451055  0.54713054  1
  O  O36  1  0.96038112  0.98681985  0.32850633  1
  O  O37  1  0.58669835  0.74165062  0.30171767  1
  O  O38  1  0.77296752  0.63738343  0.42382470  1
  O  O39  1  0.64318439  0.40364936  0.79630101  1
  O  O40  1  0.82131131  0.36620940  0.33073223  1
  O  O41  1  0.36771876  0.49169385  0.43912314  1
  O  O42  1  0.20106045  0.56561901  0.29203774  1
  O  O43  1  0.07294650  0.45041766  0.44271540  1
  O  O44  1  0.28736725  0.94422088  0.70249648  1
  O  O45  1  0.22978415  0.35880292  0.57795526  1
  O  O46  1  0.96625401  0.32343426  0.83106929  1
  O  O47  1  0.71709796  0.05611287  0.29923147  1
  O  O48  1  0.05256020  0.13029939  0.05964286  1
  O  O49  1  0.84574103  0.10520000  0.20134602  1
  O  O50  1  0.79801876  0.43397383  0.70590323  1
  O  O51  1  0.98988197  0.56970208  0.93930576  1
  O  O52  1  0.39029589  0.02728423  0.95202395  1
  O  O53  1  0.19973154  0.46579068  0.92479725  1
  O  O54  1  0.60287330  0.85265805  0.70205254  1
  O  O55  1  0.72955741  0.70127330  0.79304245  1
  O  O56  1  0.07313239  0.10773526  0.54716404  1
  O  O57  1  0.78406112  0.27604187  0.92513525  1
  O  O58  1  0.41440762  0.25947447  0.69801117  1
  O  O59  1  0.03377431  0.77460185  0.57414177  1
  O  O60  1  0.63049534  0.15790511  0.67011586  1
  O  O61  1  0.90487198  0.77271573  0.70766901  1
  O  O62  1  0.75670184  0.78468508  0.19941816  1
  O  O63  1  0.86834549  0.01272504  0.83366700  1
  O  O64  1  0.21815699  0.72843839  0.07764513  1
  O  O65  1  0.55867157  0.08624824  0.79766370  1
  O  O66  1  0.34668837  0.45945965  0.83281799  1
  O  O67  1  0.65927748  0.54046294  0.17067443  1
  O  O68  1  0.50968084  0.46540856  0.33156577  1
  O  O69  1  0.13517065  0.99288963  0.17005978  1
  O  O70  1  0.04082796  0.01385046  0.66982652  1
  O  O71  1  0.44535599  0.91774341  0.20225028  1
loop_
_geom_bond_atom_site_label_1
_geom_bond_atom_site_label_2
_geom_bond_distance
_geom_bond_site_symmetry_2
In0 Mn4 2.684717 1_555
In1 Mn7 2.678103 1_555
In2 Mn1 2.681642 1_555
In3 Mn5 2.676649 1_555
In4 Mn0 2.677084 1_555
In5 Mn3 2.675135 1_555
In6 Mn6 2.660577 1_555
In7 Mn2 2.675204 1_555
Fe0 In3 2.688495 1_555
Fe0 In6 2.702066 1_555
Fe1 In7 2.698782 1_555
Fe1 In0 2.714757 1_565
Fe2 In0 2.700001 1_555
Fe2 In7 2.706797 1_545
Fe3 In4 2.696559 1_556
Fe3 In5 2.718977 1_556
Fe4 In5 2.692093 1_555
Fe4 In4 2.701157 1_555
Fe5 In2 2.704290 1_565
Fe5 In1 2.710379 1_555
Fe6 In6 2.692142 1_554
Fe6 In3 2.701953 1_554
Fe7 In1 2.695108 1_545
Fe7 In2 2.706203 1_555
C0 O3 1.161196 1_555
C0 Mn0 1.850251 1_555
C1 O60 1.168199 1_555
C1 Fe7 1.799255 1_555
C2 O30 1.158081 1_555
C2 Mn6 1.862616 1_554
C3 O2 1.173424 1_555
C3 Fe3 1.792836 1_555
C4 O55 1.161107 1_555
C4 Mn6 1.853667 1_555
C5 O17 1.164998 1_555
C5 Fe1 1.782570 1_555
C6 O39 1.159013 1_555
C6 Mn6 1.860992 1_555
C7 O6 1.164863 1_555
C7 Fe0 1.780213 1_555
C8 O20 1.161082 1_555
C8 Mn4 1.852298 1_555
C9 O40 1.164462 1_555
C9 Fe4 1.778854 1_555
C10 O18 1.158248 1_555
C10 Mn1 1.858779 1_555
C11 O44 1.162502 1_555
C11 Fe2 1.791200 1_565
C12 O33 1.161799 1_555
C12 Mn7 1.811281 1_555
C13 O54 1.158791 1_555
C13 Mn7 1.862079 1_555
C14 O52 1.172653 1_555
C14 Fe3 1.794049 1_555
C15 O45 1.163239 1_555
C15 Mn4 1.848342 1_555
C16 O43 1.161627 1_555
C16 Mn2 1.811328 1_555
C17 O34 1.158821 1_555
C17 Mn1 1.860015 1_455
C18 O14 1.173296 1_555
C18 Fe5 1.792678 1_545
C19 O59 1.158373 1_555
C19 Mn2 1.857962 1_555
C20 O31 1.159057 1_555
C20 Mn5 1.859785 1_555
C21 O4 1.168579 1_555
C21 Fe1 1.801213 1_555
C22 O29 1.158099 1_555
C22 Mn7 1.860790 1_555
C23 O27 1.161191 1_555
C23 Mn5 1.854518 1_555
C24 O8 1.168035 1_555
C24 Fe4 1.800447 1_555
C25 O32 1.163155 1_555
C25 Mn2 1.851933 1_555
C26 O1 1.172166 1_555
C26 Fe6 1.794204 1_555
C27 O26 1.163123 1_555
C27 Mn1 1.846685 1_555
C28 O66 1.168494 1_555
C28 Fe0 1.799575 1_555
C29 O53 1.158083 1_555
C29 Mn3 1.859024 1_556
C30 O46 1.164460 1_555
C30 Fe7 1.779877 1_555
C31 O61 1.161323 1_555
C31 Mn7 1.850649 1_555
C32 O65 1.163050 1_555
C32 Fe3 1.792198 1_555
C33 O22 1.168262 1_555
C33 Fe0 1.800472 1_555
C34 O47 1.162771 1_555
C34 Fe5 1.791163 1_545
C35 O15 1.161037 1_555
C35 Mn3 1.849786 1_555
C36 O12 1.159057 1_555
C36 Mn2 1.860969 1_655
C37 O5 1.162901 1_555
C37 Mn6 1.849845 1_554
C38 O23 1.162986 1_555
C38 Mn3 1.849001 1_556
C39 O57 1.163172 1_555
C39 Mn0 1.850284 1_556
C40 O70 1.167896 1_655
C40 Fe7 1.799105 1_555
C41 O48 1.161748 1_655
C41 Mn0 1.813081 1_555
C42 O69 1.164847 1_555
C42 Fe1 1.781340 1_555
C43 O24 1.161677 1_555
C43 Mn1 1.813201 1_555
C44 O0 1.161716 1_455
C44 Mn5 1.812869 1_555
C45 O7 1.158317 1_545
C45 Mn0 1.858735 1_556
C46 O42 1.161200 1_555
C46 Mn2 1.856288 1_555
C47 O67 1.168020 1_555
C47 Fe4 1.801018 1_555
C48 O49 1.158912 1_555
C48 Mn0 1.860006 1_555
C49 O19 1.162934 1_555
C49 Fe3 1.789109 1_555
C50 O63 1.164700 1_555
C50 Fe7 1.782152 1_555
C51 O35 1.172699 1_555
C51 Fe2 1.794684 1_565
C52 O38 1.162757 1_555
C52 Mn7 1.848555 1_555
C53 O21 1.173054 1_555
C53 Fe5 1.790702 1_555
C54 O11 1.172742 1_555
C54 Fe6 1.793342 1_555
C55 O56 1.172530 1_555
C55 Fe2 1.794001 1_555
C56 O41 1.162088 1_555
C56 Mn4 1.812781 1_555
C57 O9 1.161576 1_555
C57 Mn3 1.810141 1_555
C58 O68 1.164596 1_555
C58 Fe4 1.780018 1_555
C59 O50 1.161550 1_555
C59 Mn1 1.850822 1_555
C60 O10 1.158983 1_555
C60 Mn4 1.862080 1_555
C61 O71 1.162289 1_555
C61 Fe6 1.788838 1_555
C62 O51 1.161346 1_555
C62 Mn6 1.808379 1_555
C63 O36 1.168120 1_455
C63 Fe1 1.798351 1_555
C64 O16 1.158866 1_555
C64 Mn3 1.858383 1_555
C65 O62 1.162602 1_555
C65 Fe6 1.787047 1_555
C66 O13 1.158225 1_555
C66 Mn4 1.857645 1_555
C67 O25 1.158232 1_565
C67 Mn5 1.857504 1_554
C68 O64 1.163284 1_555
C68 Mn5 1.848849 1_554
C69 O37 1.163034 1_555
C69 Fe5 1.791698 1_555
C70 O28 1.164714 1_555
C70 Fe0 1.778193 1_555
C71 O58 1.162792 1_555
C71 Fe2 1.791452 1_555
