# generated using pymatgen
data_ThNi
_symmetry_space_group_name_H-M   'P 1'
_cell_length_a   4.27902146
_cell_length_b   5.69723305
_cell_length_c   14.06852249
_cell_angle_alpha   90.00000000
_cell_angle_beta   90.00000000
_cell_angle_gamma   90.00000000
_symmetry_Int_Tables_number   1
_chemical_formula_structural   ThNi
_chemical_formula_sum   'Th8 Ni8'
_cell_volume   342.97063594
_cell_formula_units_Z   8
loop_
 _symmetry_equiv_pos_site_id
 _symmetry_equiv_pos_as_xyz
  1  'x, y, z'
loop_
 _atom_site_type_symbol
 _atom_site_label
 _atom_site_symmetry_multiplicity
 _atom_site_fract_x
 _atom_site_fract_y
 _atom_site_fract_z
 _atom_site_occupancy
  Th  Th0  1  0.25000000  0.54766545  0.28337765  1
  Th  Th1  1  0.75000000  0.45233455  0.71662235  1
  Th  Th2  1  0.25000000  0.95233455  0.78337765  1
  Th  Th3  1  0.25000000  0.75375472  0.53352416  1
  Th  Th4  1  0.25000000  0.74624528  0.03352416  1
  Th  Th5  1  0.75000000  0.25375372  0.96647584  1
  Th  Th6  1  0.75000000  0.04766545  0.21662235  1
  Th  Th7  1  0.75000000  0.24624528  0.46647584  1
  Ni  Ni0  1  0.25000000  0.03985136  0.35521434  1
  Ni  Ni1  1  0.75000000  0.53985136  0.14478566  1
  Ni  Ni2  1  0.75000000  0.76068597  0.39617098  1
  Ni  Ni3  1  0.25000000  0.46014864  0.85521434  1
  Ni  Ni4  1  0.75000000  0.96014864  0.64478566  1
  Ni  Ni5  1  0.75000000  0.73931403  0.89617098  1
  Ni  Ni6  1  0.25000000  0.26068597  0.10382902  1
  Ni  Ni7  1  0.25000000  0.23931403  0.60382902  1
loop_
_geom_bond_atom_site_label_1
_geom_bond_atom_site_label_2
_geom_bond_distance
_geom_bond_site_symmetry_2
Ni0 Ni2 2.727473 1_545
Ni0 Ni2 2.727473 1_445
Ni0 Th6 2.895021 1_555
Ni0 Th6 2.895021 1_455
Ni0 Th7 2.900052 1_555
Ni0 Th7 2.900052 1_455
Ni0 Th0 2.980663 1_545
Ni0 Th3 2.991591 1_545
Ni0 Th0 3.064574 1_555
Ni1 Ni6 2.727473 1_655
Ni1 Ni6 2.727473 1_555
Ni1 Th0 2.895021 1_555
Ni1 Th0 2.895021 1_655
Ni1 Th4 2.900052 1_555
Ni1 Th4 2.900052 1_655
Ni1 Th6 2.980663 1_555
Ni1 Th5 2.991594 1_554
Ni1 Th6 3.064574 1_565
Ni2 Th3 2.883239 1_655
Ni2 Th3 2.883239 1_555
Ni2 Th0 2.927191 1_555
Ni2 Th0 2.927191 1_655
Ni2 Th7 2.937848 1_565
Ni2 Th6 3.008951 1_565
Ni2 Th7 3.093283 1_555
Ni3 Ni5 2.727473 1_455
Ni3 Ni5 2.727473 1_555
Ni3 Th1 2.895021 1_455
Ni3 Th1 2.895021 1_555
Ni3 Th5 2.900055 1_455
Ni3 Th5 2.900055 1_555
Ni3 Th2 2.980663 1_555
Ni3 Th4 2.991591 1_556
Ni3 Th2 3.064574 1_545
Ni4 Ni7 2.727473 1_665
Ni4 Ni7 2.727473 1_565
Ni4 Th2 2.895021 1_555
Ni4 Th2 2.895021 1_655
Ni4 Th3 2.900052 1_655
Ni4 Th3 2.900052 1_555
Ni4 Th1 2.980663 1_565
Ni4 Th7 2.991591 1_565
Ni4 Th1 3.064574 1_555
Ni5 Th4 2.883239 1_656
Ni5 Th4 2.883239 1_556
Ni5 Th2 2.927191 1_655
Ni5 Th2 2.927191 1_555
Ni5 Th5 2.937854 1_555
Ni5 Th1 3.008951 1_555
Ni5 Th5 3.093277 1_565
Ni6 Th5 2.883239 1_454
Ni6 Th5 2.883239 1_554
Ni6 Th6 2.927191 1_555
Ni6 Th6 2.927191 1_455
Ni6 Th4 2.937848 1_555
Ni6 Th0 3.008951 1_555
Ni6 Th4 3.093283 1_545
Ni7 Th7 2.883239 1_455
Ni7 Th7 2.883239 1_555
Ni7 Th1 2.927191 1_555
Ni7 Th1 2.927191 1_455
Ni7 Th3 2.937848 1_545
Ni7 Th2 3.008951 1_545
Ni7 Th3 3.093283 1_555
