# generated using pymatgen
data_La3LuSe6
_symmetry_space_group_name_H-M   'P 1'
_cell_length_a   4.18185897
_cell_length_b   14.74886367
_cell_length_c   17.73586391
_cell_angle_alpha   90.00000000
_cell_angle_beta   90.00000000
_cell_angle_gamma   90.00000000
_symmetry_Int_Tables_number   1
_chemical_formula_structural   La3LuSe6
_chemical_formula_sum   'La12 Lu4 Se24'
_cell_volume   1093.90672302
_cell_formula_units_Z   4
loop_
 _symmetry_equiv_pos_site_id
 _symmetry_equiv_pos_as_xyz
  1  'x, y, z'
loop_
 _atom_site_type_symbol
 _atom_site_label
 _atom_site_symmetry_multiplicity
 _atom_site_fract_x
 _atom_site_fract_y
 _atom_site_fract_z
 _atom_site_occupancy
  La  La0  1  -0.00000000  0.25154800  0.39948186  1
  La  La1  1  0.50000000  0.24845200  0.89948186  1
  La  La2  1  -0.00000000  0.95146858  0.78147893  1
  La  La3  1  0.50000000  0.31882414  0.15081989  1
  La  La4  1  0.00000000  0.74845200  0.60051814  1
  La  La5  1  0.50000000  0.75154800  0.10051814  1
  La  La6  1  0.50000000  0.45146858  0.71852107  1
  La  La7  1  -0.00000000  0.04853142  0.21852107  1
  La  La8  1  -0.00000000  0.18117586  0.65081989  1
  La  La9  1  0.50000000  0.54853142  0.28147893  1
  La  La10  1  0.50000000  0.68117586  0.84918011  1
  La  La11  1  0.00000000  0.81882414  0.34918011  1
  Lu  Lu0  1  -0.00000000  0.50000000  0.00000000  1
  Lu  Lu1  1  0.00000000  0.50000000  0.50000000  1
  Lu  Lu2  1  0.50000000  0.00000000  0.50000000  1
  Lu  Lu3  1  0.50000000  0.00000000  0.00000000  1
  Se  Se0  1  -0.00000000  0.31324834  0.79022425  1
  Se  Se1  1  0.50000000  0.59082372  0.57699544  1
  Se  Se2  1  0.50000000  0.18675166  0.29022425  1
  Se  Se3  1  0.50000000  0.81324834  0.70977575  1
  Se  Se4  1  -0.00000000  0.60423887  0.74584857  1
  Se  Se5  1  0.50000000  0.40917628  0.42300456  1
  Se  Se6  1  0.00000000  0.09082372  0.92300456  1
  Se  Se7  1  0.50000000  0.10423887  0.75415143  1
  Se  Se8  1  0.00000000  0.37606221  0.61043853  1
  Se  Se9  1  0.50000000  0.87606221  0.88956147  1
  Se  Se10  1  -0.00000000  0.68675166  0.20977575  1
  Se  Se11  1  -0.00000000  0.62393779  0.38956147  1
  Se  Se12  1  0.50000000  0.89576113  0.24584857  1
  Se  Se13  1  -0.00000000  0.68624842  0.97700935  1
  Se  Se14  1  -0.00000000  0.39576113  0.25415143  1
  Se  Se15  1  0.50000000  0.81375158  0.47700935  1
  Se  Se16  1  0.00000000  0.97717121  0.60411764  1
  Se  Se17  1  0.50000000  0.47717121  0.89588236  1
  Se  Se18  1  0.00000000  0.02282879  0.39588236  1
  Se  Se19  1  0.50000000  0.12393779  0.11043853  1
  Se  Se20  1  0.00000000  0.31375158  0.02299065  1
  Se  Se21  1  0.50000000  0.18624842  0.52299065  1
  Se  Se22  1  0.50000000  0.52282879  0.10411764  1
  Se  Se23  1  0.00000000  0.90917628  0.07699544  1
loop_
_geom_bond_atom_site_label_1
_geom_bond_atom_site_label_2
_geom_bond_distance
_geom_bond_site_symmetry_2
La0 Se2 3.006706 1_555
La0 Se2 3.006706 1_455
La0 Se5 3.154506 1_455
La0 Se5 3.154506 1_555
La0 Se21 3.177732 1_455
La0 Se21 3.177732 1_555
La0 Se14 3.341835 1_555
La0 Se18 3.373952 1_555
La1 Se0 3.006706 1_655
La1 Se0 3.006706 1_555
La1 Se6 3.154506 1_555
La1 Se6 3.154506 1_655
La1 Se20 3.177732 1_656
La1 Se20 3.177732 1_556
La1 Se7 3.341835 1_555
La1 Se17 3.373952 1_555
La2 Se9 3.046889 1_455
La2 Se9 3.046889 1_555
La2 Se7 3.111873 1_565
La2 Se7 3.111873 1_465
La2 Se16 3.168415 1_555
La2 Se3 3.185139 1_455
La2 Se3 3.185139 1_555
La2 Se6 3.244207 1_565
La3 Se19 2.962236 1_555
La3 Se14 3.003048 1_555
La3 Se14 3.003048 1_655
La3 Se20 3.085062 1_655
La3 Se20 3.085062 1_555
La3 Se22 3.120767 1_555
La3 Se2 3.147607 1_555
La4 Se3 3.006706 1_555
La4 Se3 3.006706 1_455
La4 Se1 3.154506 1_455
La4 Se1 3.154506 1_555
La4 Se15 3.177732 1_555
La4 Se15 3.177732 1_455
La4 Se4 3.341835 1_555
La4 Se16 3.373952 1_555
La5 Se10 3.006706 1_655
La5 Se10 3.006706 1_555
La5 Se23 3.154506 1_655
La5 Se23 3.154506 1_555
La5 Se13 3.177732 1_554
La5 Se13 3.177732 1_654
La5 Se12 3.341835 1_555
La5 Se22 3.373952 1_555
La6 Se8 3.046889 1_555
La6 Se8 3.046889 1_655
La6 Se4 3.111873 1_555
La6 Se4 3.111873 1_655
La6 Se17 3.168415 1_555
La6 Se0 3.185139 1_655
La6 Se0 3.185139 1_555
La6 Se1 3.244207 1_555
La7 Se19 3.046889 1_455
La7 Se19 3.046889 1_555
La7 Se12 3.111873 1_445
La7 Se12 3.111873 1_545
La7 Se18 3.168415 1_555
La7 Se2 3.185139 1_455
La7 Se2 3.185139 1_555
La7 Se23 3.244207 1_545
La8 Se8 2.962236 1_555
La8 Se7 3.003048 1_455
La8 Se7 3.003048 1_555
La8 Se21 3.085062 1_455
La8 Se21 3.085062 1_555
La8 Se16 3.120767 1_545
La8 Se0 3.147607 1_555
La9 Se11 3.046889 1_555
La9 Se11 3.046889 1_655
La9 Se14 3.111873 1_555
La9 Se14 3.111873 1_655
La9 Se22 3.168415 1_555
La9 Se10 3.185139 1_555
La9 Se10 3.185139 1_655
La9 Se5 3.244207 1_555
La10 Se9 2.962236 1_555
La10 Se4 3.003048 1_655
La10 Se4 3.003048 1_555
La10 Se13 3.085062 1_655
La10 Se13 3.085062 1_555
La10 Se17 3.120767 1_555
La10 Se3 3.147607 1_555
La11 Se11 2.962236 1_555
La11 Se12 3.003048 1_455
La11 Se12 3.003048 1_555
La11 Se15 3.085062 1_555
La11 Se15 3.085062 1_455
La11 Se18 3.120767 1_565
La11 Se10 3.147607 1_555
Lu0 Se13 2.777052 1_554
Lu0 Se20 2.777052 1_555
Lu0 Se17 2.809865 1_454
Lu0 Se17 2.809865 1_554
Lu0 Se22 2.809865 1_455
Lu0 Se22 2.809865 1_555
Lu1 Se8 2.679172 1_555
Lu1 Se11 2.679172 1_555
Lu1 Se5 2.833934 1_455
Lu1 Se5 2.833934 1_555
Lu1 Se1 2.833934 1_455
Lu1 Se1 2.833934 1_555
Lu2 Se15 2.777052 1_545
Lu2 Se21 2.777052 1_555
Lu2 Se16 2.809865 1_545
Lu2 Se18 2.809865 1_655
Lu2 Se16 2.809865 1_645
Lu2 Se18 2.809865 1_555
Lu3 Se9 2.679172 1_544
Lu3 Se19 2.679172 1_555
Lu3 Se23 2.833934 1_645
Lu3 Se23 2.833934 1_545
Lu3 Se6 2.833934 1_654
Lu3 Se6 2.833934 1_554
