# generated using pymatgen
data_Ga3Te3As
_symmetry_space_group_name_H-M   'P 1'
_cell_length_a   4.15341900
_cell_length_b   6.04554100
_cell_length_c   16.83551500
_cell_angle_alpha   90.00000000
_cell_angle_beta   90.00000000
_cell_angle_gamma   90.00000000
_symmetry_Int_Tables_number   1
_chemical_formula_structural   Ga3Te3As
_chemical_formula_sum   'Ga6 Te6 As2'
_cell_volume   422.73413931
_cell_formula_units_Z   2
loop_
 _symmetry_equiv_pos_site_id
 _symmetry_equiv_pos_as_xyz
  1  'x, y, z'
loop_
 _atom_site_type_symbol
 _atom_site_label
 _atom_site_symmetry_multiplicity
 _atom_site_fract_x
 _atom_site_fract_y
 _atom_site_fract_z
 _atom_site_occupancy
  Ga  Ga0  1  0.50000000  0.48969900  0.93307500  1
  Ga  Ga1  1  0.00000000  0.98969900  0.06692500  1
  Ga  Ga2  1  0.00000000  0.98314500  0.31579700  1
  Ga  Ga3  1  0.50000000  0.50757200  0.44408800  1
  Ga  Ga4  1  0.00000000  0.00757200  0.55591200  1
  Ga  Ga5  1  0.50000000  0.48314500  0.68420300  1
  Te  Te0  1  0.00000000  0.77040700  0.92936700  1
  Te  Te1  1  0.50000000  0.27040700  0.07063300  1
  Te  Te2  1  0.00000000  0.73345600  0.19004200  1
  Te  Te3  1  0.50000000  0.26750000  0.30932500  1
  Te  Te4  1  0.00000000  0.76750000  0.69067500  1
  Te  Te5  1  0.50000000  0.23345600  0.80995800  1
  As  As0  1  0.00000000  0.74822100  0.43930500  1
  As  As1  1  0.50000000  0.24822100  0.56069500  1
loop_
_geom_bond_atom_site_label_1
_geom_bond_atom_site_label_2
_geom_bond_distance
_geom_bond_site_symmetry_2
Ga0 Te5 2.587671 1_555
Ga0 Te1 2.668481 1_556
Ga0 Te0 2.682636 1_655
Ga0 Te0 2.682636 1_555
Ga1 Te2 2.587671 1_555
Ga1 Te0 2.668481 1_554
Ga1 Te1 2.682636 1_565
Ga1 Te1 2.682636 1_465
Ga2 Te2 2.600179 1_555
Ga2 Te3 2.698116 1_565
Ga2 Te3 2.698116 1_465
Ga3 Te3 2.693313 1_555
Ga4 Te4 2.693313 1_545
Ga5 Te5 2.600179 1_555
Ga5 Te4 2.698116 1_555
Ga5 Te4 2.698116 1_655
As0 Ga4 2.512425 1_565
As0 Ga2 2.518068 1_555
As0 Ga3 2.536889 1_555
As0 Ga3 2.536889 1_455
As1 Ga3 2.512425 1_555
As1 Ga5 2.518068 1_555
As1 Ga4 2.536889 1_555
As1 Ga4 2.536889 1_655
