# generated using pymatgen
data_Pr14Si11Ni6
_symmetry_space_group_name_H-M   'P 1'
_cell_length_a   17.32216484
_cell_length_b   17.32216484
_cell_length_c   21.60504693
_cell_angle_alpha   65.87037231
_cell_angle_beta   65.87037231
_cell_angle_gamma   14.20114560
_symmetry_Int_Tables_number   1
_chemical_formula_structural   Pr14Si11Ni6
_chemical_formula_sum   'Pr28 Si22 Ni12'
_cell_volume   1449.16792033
_cell_formula_units_Z   2
loop_
 _symmetry_equiv_pos_site_id
 _symmetry_equiv_pos_as_xyz
  1  'x, y, z'
loop_
 _atom_site_type_symbol
 _atom_site_label
 _atom_site_symmetry_multiplicity
 _atom_site_fract_x
 _atom_site_fract_y
 _atom_site_fract_z
 _atom_site_occupancy
  Pr  Pr0  1  0.99590800  0.99590800  0.18112100  1
  Pr  Pr1  1  0.70862800  0.70862800  0.17710500  1
  Pr  Pr2  1  0.49727700  0.49727700  0.67881900  1
  Pr  Pr3  1  0.71261700  0.71261700  0.97575900  1
  Pr  Pr4  1  0.38636800  0.38636800  0.64693400  1
  Pr  Pr5  1  0.60992600  0.60992600  0.53769100  1
  Pr  Pr6  1  0.61363200  0.61363200  0.35306600  1
  Pr  Pr7  1  0.39255400  0.39255400  0.28632400  1
  Pr  Pr8  1  0.71178000  0.71178000  0.77180400  1
  Pr  Pr9  1  0.10967000  0.10967000  0.03686400  1
  Pr  Pr10  1  0.28928100  0.28928100  0.42591800  1
  Pr  Pr11  1  0.60744600  0.60744600  0.71367600  1
  Pr  Pr12  1  0.10453500  0.10453500  0.21421200  1
  Pr  Pr13  1  0.71071900  0.71071900  0.57408200  1
  Pr  Pr14  1  0.89033000  0.89033000  0.96313600  1
  Pr  Pr15  1  0.29137200  0.29137200  0.82289500  1
  Pr  Pr16  1  0.71318300  0.71318300  0.37551200  1
  Pr  Pr17  1  0.50272300  0.50272300  0.32118100  1
  Pr  Pr18  1  0.28822000  0.28822000  0.22819600  1
  Pr  Pr19  1  0.89546500  0.89546500  0.78578800  1
  Pr  Pr20  1  0.28681700  0.28681700  0.62448800  1
  Pr  Pr21  1  0.28738300  0.28738300  0.02424100  1
  Pr  Pr22  1  0.00000000  0.00000000  0.00000000  1
  Pr  Pr23  1  0.11377300  0.11377300  0.85621000  1
  Pr  Pr24  1  0.00409200  0.00409200  0.81887900  1
  Pr  Pr25  1  0.39007400  0.39007400  0.46230900  1
  Pr  Pr26  1  0.50000000  0.50000000  0.50000000  1
  Pr  Pr27  1  0.88622700  0.88622700  0.14379000  1
  Si  Si0  1  0.06865600  0.06865600  0.65616400  1
  Si  Si1  1  0.93134400  0.93134400  0.34383600  1
  Si  Si2  1  0.81572800  0.81572800  0.50693600  1
  Si  Si3  1  0.18175800  0.18175800  0.69389300  1
  Si  Si4  1  0.81523200  0.81523200  0.90905100  1
  Si  Si5  1  0.18427200  0.18427200  0.49306400  1
  Si  Si6  1  0.07614000  0.07614000  0.46618600  1
  Si  Si7  1  0.43440700  0.43440700  0.84351100  1
  Si  Si8  1  0.92386000  0.92386000  0.53381400  1
  Si  Si9  1  0.19187400  0.19187400  0.88880700  1
  Si  Si10  1  0.57638800  0.57638800  0.96551000  1
  Si  Si11  1  0.42361200  0.42361200  0.03449000  1
  Si  Si12  1  0.81824200  0.81824200  0.30610700  1
  Si  Si13  1  0.80812600  0.80812600  0.11119300  1
  Si  Si14  1  0.81422500  0.81422500  0.70817800  1
  Si  Si15  1  0.18577500  0.18577500  0.29182200  1
  Si  Si16  1  0.54429400  0.54429400  0.87878900  1
  Si  Si17  1  0.04435400  0.04435400  0.37976900  1
  Si  Si18  1  0.45570600  0.45570600  0.12121100  1
  Si  Si19  1  0.95564600  0.95564600  0.62023100  1
  Si  Si20  1  0.18476800  0.18476800  0.09094900  1
  Si  Si21  1  0.56559300  0.56559300  0.15648900  1
  Ni  Ni0  1  0.14650400  0.14650400  0.61423300  1
  Ni  Ni1  1  0.85349600  0.85349600  0.38576700  1
  Ni  Ni2  1  0.35642700  0.35642700  0.88557800  1
  Ni  Ni3  1  0.34918300  0.34918300  0.08529800  1
  Ni  Ni4  1  0.96891400  0.96891400  0.41972200  1
  Ni  Ni5  1  0.65081700  0.65081700  0.91470200  1
  Ni  Ni6  1  0.46870600  0.46870600  0.92023300  1
  Ni  Ni7  1  0.03108600  0.03108600  0.58027800  1
  Ni  Ni8  1  0.15155000  0.15155000  0.41690400  1
  Ni  Ni9  1  0.84845000  0.84845000  0.58309600  1
  Ni  Ni10  1  0.53129400  0.53129400  0.07976700  1
  Ni  Ni11  1  0.64357300  0.64357300  0.11442200  1
loop_
_geom_bond_atom_site_label_1
_geom_bond_atom_site_label_2
_geom_bond_distance
_geom_bond_site_symmetry_2
Pr0 Si21 3.091414 1_655
Pr0 Si21 3.091414 1_565
Pr0 Si18 3.105524 1_565
Pr0 Si18 3.105524 1_655
Pr0 Si1 3.294865 1_555
Pr1 Si13 3.116895 1_555
Pr1 Si15 3.120977 1_565
Pr1 Si15 3.120977 1_655
Pr1 Si20 3.159194 1_655
Pr1 Si20 3.159194 1_565
Pr2 Si19 3.118987 1_455
Pr2 Si19 3.118987 1_545
Pr2 Si0 3.139499 1_655
Pr2 Si0 3.139499 1_565
Pr2 Si7 3.315985 1_555
Pr3 Si9 3.118697 1_655
Pr3 Si9 3.118697 1_565
Pr3 Si20 3.119590 1_566
Pr3 Si20 3.119590 1_656
Pr3 Si4 3.214524 1_555
Pr4 Si19 3.075379 1_455
Pr4 Si19 3.075379 1_545
Pr4 Si8 3.102203 1_545
Pr4 Si8 3.102203 1_455
Pr4 Si14 3.127780 1_545
Pr4 Si14 3.127780 1_455
Pr5 Si6 3.130334 1_565
Pr5 Si6 3.130334 1_655
Pr5 Si5 3.164918 1_655
Pr5 Si5 3.164918 1_565
Pr5 Si0 3.187050 1_655
Pr5 Si0 3.187050 1_565
Pr6 Si17 3.075379 1_655
Pr6 Si17 3.075379 1_565
Pr6 Si6 3.102203 1_565
Pr6 Si6 3.102203 1_655
Pr6 Si15 3.127780 1_565
Pr6 Si15 3.127780 1_655
Pr7 Si1 3.045050 1_455
Pr7 Si1 3.045050 1_545
Pr7 Si12 3.224057 1_455
Pr7 Si12 3.224057 1_545
Pr7 Si18 3.325339 1_555
Pr8 Si3 3.148793 1_565
Pr8 Si3 3.148793 1_655
Pr8 Si9 3.165101 1_565
Pr8 Si9 3.165101 1_655
Pr8 Si14 3.210082 1_555
Pr9 Si10 3.118308 1_544
Pr9 Si10 3.118308 1_454
Pr9 Si21 3.214635 1_545
Pr9 Si21 3.214635 1_455
Pr9 Si20 3.242924 1_555
Pr9 Si9 3.281856 1_554
Pr10 Si2 3.128359 1_545
Pr10 Si2 3.128359 1_455
Pr10 Si12 3.186395 1_545
Pr10 Si12 3.186395 1_455
Pr10 Si5 3.289698 1_555
Pr11 Si0 3.045050 1_565
Pr11 Si0 3.045050 1_655
Pr11 Si3 3.224057 1_655
Pr11 Si3 3.224057 1_565
Pr11 Si16 3.325339 1_555
Pr12 Si20 2.940764 1_555
Pr12 Si21 3.050905 1_455
Pr12 Si21 3.050905 1_545
Pr12 Si17 3.313184 1_555
Pr13 Si5 3.128359 1_655
Pr13 Si5 3.128359 1_565
Pr13 Si3 3.186395 1_565
Pr13 Si3 3.186395 1_655
Pr13 Si2 3.289698 1_555
Pr14 Si11 3.118308 1_566
Pr14 Si11 3.118308 1_656
Pr14 Si7 3.214635 1_655
Pr14 Si7 3.214635 1_565
Pr14 Si4 3.242924 1_555
Pr14 Si13 3.281856 1_556
Pr15 Si9 3.116895 1_555
Pr15 Si14 3.120977 1_545
Pr15 Si14 3.120977 1_455
Pr15 Si4 3.159194 1_545
Pr15 Si4 3.159194 1_455
Pr16 Si5 3.153258 1_655
Pr16 Si5 3.153258 1_565
Pr16 Si15 3.185230 1_565
Pr16 Si15 3.185230 1_655
Pr16 Si12 3.291082 1_555
Pr17 Si17 3.118987 1_565
Pr17 Si17 3.118987 1_655
Pr17 Si1 3.139499 1_545
Pr17 Si1 3.139499 1_455
Pr17 Si21 3.315985 1_555
Pr18 Si12 3.148793 1_545
Pr18 Si12 3.148793 1_455
Pr18 Si13 3.165101 1_455
Pr18 Si13 3.165101 1_545
Pr18 Si15 3.210082 1_555
Pr19 Si4 2.940764 1_555
Pr19 Si7 3.050905 1_565
Pr19 Si7 3.050905 1_655
Pr19 Si19 3.313184 1_555
Pr20 Si2 3.153258 1_545
Pr20 Si2 3.153258 1_455
Pr20 Si14 3.185230 1_545
Pr20 Si14 3.185230 1_455
Pr20 Si3 3.291082 1_555
Pr21 Si13 3.118697 1_455
Pr21 Si13 3.118697 1_545
Pr21 Si4 3.119590 1_454
Pr21 Si4 3.119590 1_544
Pr21 Si20 3.214524 1_555
Pr22 Si11 3.228659 1_545
Pr22 Si10 3.228659 1_454
Pr22 Si11 3.228659 1_455
Pr22 Si10 3.228659 1_544
Pr22 Si18 3.236659 1_455
Pr22 Si18 3.236659 1_545
Pr22 Si16 3.236659 1_544
Pr22 Si16 3.236659 1_454
Pr23 Si9 3.043555 1_555
Pr23 Si10 3.051623 1_545
Pr23 Si10 3.051623 1_455
Pr23 Si16 3.093237 1_455
Pr23 Si16 3.093237 1_545
Pr23 Si3 3.317769 1_555
Pr24 Si7 3.091414 1_545
Pr24 Si7 3.091414 1_455
Pr24 Si16 3.105524 1_455
Pr24 Si16 3.105524 1_545
Pr24 Si0 3.294865 1_555
Pr25 Si8 3.130334 1_455
Pr25 Si8 3.130334 1_545
Pr25 Si2 3.164918 1_455
Pr25 Si2 3.164918 1_545
Pr25 Si1 3.187050 1_455
Pr25 Si1 3.187050 1_545
Pr26 Si19 3.223965 1_455
Pr26 Si19 3.223965 1_545
Pr26 Si17 3.223965 1_655
Pr26 Si17 3.223965 1_565
Pr26 Si8 3.224083 1_455
Pr26 Si8 3.224083 1_545
Pr26 Si6 3.224083 1_655
Pr26 Si6 3.224083 1_565
Pr27 Si13 3.043555 1_555
Pr27 Si11 3.051623 1_655
Pr27 Si11 3.051623 1_565
Pr27 Si18 3.093237 1_655
Pr27 Si18 3.093237 1_565
Pr27 Si12 3.317769 1_555
Si10 Si16 2.535951 1_555
Si11 Si18 2.535951 1_555
Si17 Si6 2.522096 1_555
Si19 Si8 2.522096 1_555
Ni0 Si5 2.395518 1_555
Ni0 Si0 2.446568 1_555
Ni0 Si3 2.479832 1_555
Ni0 Pr11 2.937145 1_545
Ni0 Pr11 2.937145 1_455
Ni0 Pr13 2.938208 1_455
Ni0 Pr13 2.938208 1_545
Ni0 Pr5 3.257943 1_455
Ni0 Pr5 3.257943 1_545
Ni1 Si2 2.395518 1_555
Ni1 Si1 2.446568 1_555
Ni1 Si12 2.479832 1_555
Ni1 Pr7 2.937145 1_565
Ni1 Pr7 2.937145 1_655
Ni1 Pr10 2.938208 1_565
Ni1 Pr10 2.938208 1_655
Ni1 Pr25 3.257943 1_565
Ni1 Pr25 3.257943 1_655
Ni2 Si7 2.450604 1_555
Ni2 Si4 2.501188 1_455
Ni2 Si4 2.501188 1_545
Ni2 Pr19 2.941117 1_545
Ni2 Pr19 2.941117 1_455
Ni2 Pr21 2.958071 1_556
Ni2 Pr15 3.054752 1_555
Ni2 Pr14 3.218730 1_455
Ni2 Pr14 3.218730 1_545
Ni3 Si11 2.331959 1_555
Ni3 Si13 2.497892 1_455
Ni3 Si13 2.497892 1_545
Ni3 Pr21 2.926297 1_555
Ni3 Pr18 2.931353 1_555
Ni3 Pr27 3.021534 1_545
Ni3 Pr27 3.021534 1_455
Ni3 Pr14 3.236618 1_454
Ni3 Pr14 3.236618 1_544
Ni4 Si8 2.308550 1_555
Ni4 Si17 2.372118 1_665
Ni4 Si1 2.470025 1_555
Ni4 Pr17 2.903362 1_565
Ni4 Pr17 2.903362 1_655
Ni4 Pr26 3.203480 1_655
Ni4 Pr26 3.203480 1_565
Ni4 Pr25 3.274597 1_565
Ni4 Pr25 3.274597 1_655
Ni5 Si10 2.331959 1_555
Ni5 Si9 2.497892 1_655
Ni5 Si9 2.497892 1_565
Ni5 Pr3 2.926297 1_555
Ni5 Pr8 2.931353 1_555
Ni5 Pr23 3.021534 1_655
Ni5 Pr23 3.021534 1_565
Ni5 Pr9 3.236618 1_566
Ni5 Pr9 3.236618 1_656
Ni6 Si11 2.311689 1_556
Ni6 Si16 2.374326 1_555
Ni6 Si7 2.397577 1_555
Ni6 Pr24 2.943626 1_565
Ni6 Pr24 2.943626 1_655
Ni6 Pr22 3.199981 1_566
Ni6 Pr22 3.199981 1_656
Ni6 Pr14 3.262869 1_545
Ni6 Pr14 3.262869 1_455
Ni7 Si6 2.308550 1_555
Ni7 Si19 2.372118 1_445
Ni7 Si0 2.470025 1_555
Ni7 Pr2 2.903362 1_455
Ni7 Pr2 2.903362 1_545
Ni7 Pr26 3.203480 1_545
Ni7 Pr26 3.203480 1_455
Ni7 Pr5 3.274597 1_455
Ni7 Pr5 3.274597 1_545
Ni8 Si5 2.344793 1_555
Ni8 Si6 2.362284 1_555
Ni8 Si15 2.463246 1_555
Ni8 Pr16 2.883209 1_455
Ni8 Pr16 2.883209 1_545
Ni8 Pr6 3.109293 1_545
Ni8 Pr6 3.109293 1_455
Ni8 Pr5 3.219595 1_545
Ni8 Pr5 3.219595 1_455
Ni9 Si2 2.344793 1_555
Ni9 Si8 2.362284 1_555
Ni9 Si14 2.463246 1_555
Ni9 Pr20 2.883209 1_655
Ni9 Pr20 2.883209 1_565
Ni9 Pr4 3.109293 1_565
Ni9 Pr4 3.109293 1_655
Ni9 Pr25 3.219595 1_565
Ni9 Pr25 3.219595 1_655
Ni10 Si10 2.311689 1_554
Ni10 Si18 2.374326 1_555
Ni10 Si21 2.397577 1_555
Ni10 Pr0 2.943626 1_545
Ni10 Pr0 2.943626 1_455
Ni10 Pr22 3.199981 1_655
Ni10 Pr22 3.199981 1_565
Ni10 Pr9 3.262869 1_565
Ni10 Pr9 3.262869 1_655
Ni11 Si21 2.450604 1_555
Ni11 Si20 2.501188 1_565
Ni11 Si20 2.501188 1_655
Ni11 Pr12 2.941117 1_655
Ni11 Pr12 2.941117 1_565
Ni11 Pr3 2.958071 1_554
Ni11 Pr1 3.054752 1_555
Ni11 Pr9 3.218730 1_655
Ni11 Pr9 3.218730 1_565
