# generated using pymatgen
data_TiTlPO5
_symmetry_space_group_name_H-M   'P 1'
_cell_length_a   6.57356500
_cell_length_b   10.69808400
_cell_length_c   13.11606900
_cell_angle_alpha   90.00000000
_cell_angle_beta   90.00000000
_cell_angle_gamma   90.00000000
_symmetry_Int_Tables_number   1
_chemical_formula_structural   TiTlPO5
_chemical_formula_sum   'Ti8 Tl8 P8 O40'
_cell_volume   922.38165740
_cell_formula_units_Z   8
loop_
 _symmetry_equiv_pos_site_id
 _symmetry_equiv_pos_as_xyz
  1  'x, y, z'
loop_
 _atom_site_type_symbol
 _atom_site_label
 _atom_site_symmetry_multiplicity
 _atom_site_fract_x
 _atom_site_fract_y
 _atom_site_fract_z
 _atom_site_occupancy
  Ti  Ti0  1  0.23536200  0.25340000  0.74521200  1
  Ti  Ti1  1  0.73536200  0.75340000  0.75478800  1
  Ti  Ti2  1  0.26463800  0.25340000  0.24521200  1
  Ti  Ti3  1  0.99915000  0.50376200  0.12990000  1
  Ti  Ti4  1  0.00085000  0.00376200  0.87010000  1
  Ti  Ti5  1  0.50085000  0.50376200  0.62990000  1
  Ti  Ti6  1  0.76463800  0.75340000  0.25478800  1
  Ti  Ti7  1  0.49915000  0.00376200  0.37010000  1
  Tl  Tl0  1  0.69365500  0.07456900  0.10262100  1
  Tl  Tl1  1  0.30634500  0.57456900  0.89737900  1
  Tl  Tl2  1  0.80634500  0.07456900  0.60262100  1
  Tl  Tl3  1  0.19365500  0.57456900  0.39737900  1
  Tl  Tl4  1  0.78791800  0.32882800  0.38265700  1
  Tl  Tl5  1  0.21208200  0.82882800  0.61734300  1
  Tl  Tl6  1  0.71208200  0.32882800  0.88265700  1
  Tl  Tl7  1  0.28791800  0.82882800  0.11734300  1
  P  P0  1  0.83850600  0.76019100  0.00115600  1
  P  P1  1  0.16149400  0.26019100  0.99884400  1
  P  P2  1  0.33850600  0.26019100  0.49884400  1
  P  P3  1  0.50462300  0.51174500  0.18108500  1
  P  P4  1  0.49537700  0.01174500  0.81891500  1
  P  P5  1  0.99537700  0.51174500  0.68108500  1
  P  P6  1  0.00462300  0.01174500  0.31891500  1
  P  P7  1  0.66149400  0.76019100  0.50115600  1
  O  O0  1  0.46118800  0.14061300  0.27746700  1
  O  O1  1  0.53881200  0.64061300  0.72253300  1
  O  O2  1  0.03881200  0.14061300  0.77746700  1
  O  O3  1  0.96118800  0.64061300  0.22253300  1
  O  O4  1  0.55046300  0.88691800  0.27751400  1
  O  O5  1  0.44953700  0.38691800  0.72248600  1
  O  O6  1  0.94953700  0.88691800  0.77751400  1
  O  O7  1  0.05046300  0.38691800  0.22248600  1
  O  O8  1  0.96210500  0.89664200  0.24932400  1
  O  O9  1  0.03789500  0.39664200  0.75067600  1
  O  O10  1  0.53789500  0.89664200  0.74932400  1
  O  O11  1  0.46210500  0.39664200  0.25067600  1
  O  O12  1  0.04520800  0.12595300  0.24727500  1
  O  O13  1  0.95479200  0.62595300  0.75272500  1
  O  O14  1  0.45479200  0.12595300  0.74727500  1
  O  O15  1  0.70078600  0.73860400  0.90569100  1
  O  O16  1  0.54520800  0.62595300  0.25272500  1
  O  O17  1  0.80509800  0.48499400  0.61495600  1
  O  O18  1  0.30509800  0.98499400  0.88504400  1
  O  O19  1  0.69490200  0.48499400  0.11495600  1
  O  O20  1  0.81483200  0.04141500  0.38458600  1
  O  O21  1  0.18516800  0.54141500  0.61541400  1
  O  O22  1  0.68516800  0.04141500  0.88458600  1
  O  O23  1  0.31483200  0.54141500  0.11541400  1
  O  O24  1  0.48605000  0.14921000  0.48555900  1
  O  O25  1  0.51395000  0.64921000  0.51444100  1
  O  O26  1  0.01395000  0.14921000  0.98555900  1
  O  O27  1  0.98605000  0.64921000  0.01444100  1
  O  O28  1  0.46183600  0.38390000  0.51349200  1
  O  O29  1  0.53816400  0.88390000  0.48650800  1
  O  O30  1  0.03816400  0.38390000  0.01349200  1
  O  O31  1  0.96183600  0.88390000  0.98650800  1
  O  O32  1  0.20690800  0.27825700  0.40130600  1
  O  O33  1  0.79309200  0.77825700  0.59869400  1
  O  O34  1  0.29309200  0.27825700  0.90130600  1
  O  O35  1  0.70690800  0.77825700  0.09869400  1
  O  O36  1  0.20078600  0.23860400  0.59430900  1
  O  O37  1  0.79921400  0.73860400  0.40569100  1
  O  O38  1  0.29921400  0.23860400  0.09430900  1
  O  O39  1  0.19490200  0.98499400  0.38504400  1
loop_
_geom_bond_atom_site_label_1
_geom_bond_atom_site_label_2
_geom_bond_distance
_geom_bond_site_symmetry_2
O0 Ti2 1.817753 1_555
O0 Ti7 1.918821 1_555
O0 Tl0 2.844925 1_555
O1 Ti1 1.817753 1_555
O1 Ti5 1.918821 1_555
O1 Tl1 2.844925 1_555
O2 Ti0 1.817753 1_555
O2 Ti4 1.918821 1_555
O2 Tl2 2.844925 1_455
O3 Ti6 1.817753 1_555
O3 Ti3 1.918821 1_555
O3 Tl3 2.844925 1_655
O4 Ti7 1.775099 1_565
O4 Ti6 2.027634 1_555
O4 Tl7 2.788943 1_555
O5 Ti5 1.775099 1_555
O5 Ti0 2.027634 1_555
O5 Tl6 2.788943 1_555
O6 Ti4 1.775099 1_665
O6 Ti1 2.027634 1_555
O6 Tl5 2.788943 1_655
O7 Ti3 1.775099 1_455
O7 Ti2 2.027634 1_555
O7 Tl4 2.788943 1_455
O8 P6 1.558059 1_665
O8 Ti6 2.009576 1_555
O8 Tl7 2.847813 1_655
O9 P5 1.558059 1_455
O9 Ti0 2.009576 1_555
O9 Tl6 2.847813 1_455
O10 P4 1.558059 1_565
O10 Ti1 2.009576 1_555
O10 Tl5 2.847813 1_555
O11 P3 1.558059 1_555
O11 Ti2 2.009576 1_555
O11 Tl4 2.847813 1_555
O12 P6 1.564258 1_555
O12 Ti2 1.985025 1_555
O13 P5 1.564258 1_555
O13 Ti1 1.985025 1_555
O14 P4 1.564258 1_555
O14 Ti0 1.985025 1_555
O15 P0 1.562287 1_556
O15 Ti1 1.998540 1_555
O16 P3 1.564258 1_555
O16 Ti6 1.985025 1_555
O17 P5 1.548784 1_555
O17 Ti5 2.019581 1_555
O18 P4 1.548784 1_565
O18 Ti4 2.019581 1_565
O19 P3 1.548784 1_555
O19 Ti3 2.019581 1_555
O20 P6 1.548929 1_655
O20 Ti7 2.122412 1_555
O20 Tl2 2.882213 1_555
O21 P5 1.548929 1_455
O21 Ti5 2.122412 1_555
O21 Tl3 2.882213 1_555
O22 P4 1.548929 1_555
O22 Ti4 2.122412 1_655
O22 Tl0 2.882213 1_556
O23 P3 1.548929 1_555
O23 Ti3 2.122412 1_455
O23 Tl1 2.882213 1_554
O24 P2 1.542949 1_555
O24 Ti7 2.172995 1_555
O24 Tl2 2.725455 1_555
O25 P7 1.542949 1_555
O25 Ti5 2.172995 1_555
O25 Tl3 2.725455 1_555
O26 P1 1.542949 1_555
O26 Ti4 2.172995 1_555
O26 Tl0 2.725455 1_456
O27 P0 1.542949 1_555
O27 Ti3 2.172995 1_555
O27 Tl1 2.725455 1_654
O28 P2 1.563871 1_555
O28 Ti5 2.010277 1_555
O28 Tl4 2.808308 1_555
O29 P7 1.563871 1_555
O29 Ti7 2.010277 1_565
O29 Tl5 2.808308 1_555
O30 P1 1.563871 1_554
O30 Ti3 2.010277 1_455
O30 Tl6 2.808308 1_454
O31 P0 1.563871 1_556
O31 Ti4 2.010277 1_665
O31 Tl7 2.808308 1_656
O32 P2 1.556388 1_555
O32 Ti2 2.099126 1_555
O32 Tl4 2.817528 1_455
O33 P7 1.556388 1_555
O33 Ti1 2.099126 1_555
O33 Tl5 2.817528 1_655
O34 P1 1.556388 1_555
O34 Ti0 2.099126 1_555
O34 Tl6 2.817528 1_555
O35 P0 1.556388 1_555
O35 Ti6 2.099126 1_555
O35 Tl7 2.817528 1_555
O36 P2 1.562287 1_555
O36 Ti0 1.998540 1_555
O37 P7 1.562287 1_555
O37 Ti6 1.998540 1_555
O38 P1 1.562287 1_554
O38 Ti2 1.998540 1_555
O39 P6 1.548784 1_565
O39 Ti7 2.019581 1_565
