# generated using pymatgen
data_Tl(WO3)6
_symmetry_space_group_name_H-M   'P 1'
_cell_length_a   7.51158800
_cell_length_b   7.51158884
_cell_length_c   7.63546300
_cell_angle_alpha   90.00000000
_cell_angle_beta   90.00000000
_cell_angle_gamma   119.99999630
_symmetry_Int_Tables_number   1
_chemical_formula_structural   Tl(WO3)6
_chemical_formula_sum   'Tl1 W6 O18'
_cell_volume   373.10373132
_cell_formula_units_Z   1
loop_
 _symmetry_equiv_pos_site_id
 _symmetry_equiv_pos_as_xyz
  1  'x, y, z'
loop_
 _atom_site_type_symbol
 _atom_site_label
 _atom_site_symmetry_multiplicity
 _atom_site_fract_x
 _atom_site_fract_y
 _atom_site_fract_z
 _atom_site_occupancy
  Tl  Tl0  1  0.00000000  0.00000000  0.49994600  1
  W  W0  1  0.00000000  0.52477900  0.74946900  1
  W  W1  1  0.47522100  0.47522100  0.74946900  1
  W  W2  1  0.52435900  0.52435900  0.24768400  1
  W  W3  1  0.47564100  0.00000000  0.24768400  1
  W  W4  1  0.52477900  0.00000000  0.74946900  1
  W  W5  1  0.00000000  0.47564100  0.24768400  1
  O  O0  1  0.20962300  0.78440200  0.25135600  1
  O  O1  1  0.21603500  0.79069000  0.74868700  1
  O  O2  1  0.20931000  0.42534500  0.74868700  1
  O  O3  1  0.21559800  0.42522000  0.25135600  1
  O  O4  1  0.57478000  0.79037700  0.25135600  1
  O  O5  1  0.57465500  0.78396500  0.74868700  1
  O  O6  1  0.49617900  0.49617900  0.49934700  1
  O  O7  1  0.50302200  0.50302200  0.99943200  1
  O  O8  1  0.42522000  0.21559800  0.25135600  1
  O  O9  1  0.42534500  0.20931000  0.74868700  1
  O  O10  1  0.49697800  0.00000000  0.99943200  1
  O  O11  1  0.78396500  0.57465500  0.74868700  1
  O  O12  1  0.79037700  0.57478000  0.25135600  1
  O  O13  1  0.50382100  0.00000000  0.49934700  1
  O  O14  1  0.78440200  0.20962300  0.25135600  1
  O  O15  1  0.79069000  0.21603500  0.74868700  1
  O  O16  1  0.00000000  0.50382100  0.49934700  1
  O  O17  1  0.00000000  0.49697800  0.99943200  1
loop_
_geom_bond_atom_site_label_1
_geom_bond_atom_site_label_2
_geom_bond_distance
_geom_bond_site_symmetry_2
O0 W3 1.838561 1_565
O0 W5 2.051168 1_555
O1 W0 1.838949 1_555
O1 W4 2.050415 1_565
O2 W1 1.838949 1_555
O2 W0 2.050415 1_555
O3 W5 1.838566 1_555
O3 W2 2.051167 1_555
O4 W2 1.838559 1_555
O4 W3 2.051174 1_565
O5 W4 1.838949 1_565
O5 W1 2.050416 1_555
O6 W1 1.916275 1_555
O6 W2 1.933187 1_555
O7 W2 1.902283 1_556
O7 W1 1.919974 1_555
O8 W3 1.838566 1_555
O8 W2 2.051167 1_555
O9 W1 1.838949 1_555
O9 W4 2.050415 1_555
O10 W3 1.902283 1_556
O10 W4 1.919974 1_555
O11 W0 1.838949 1_655
O11 W1 2.050415 1_555
O12 W2 1.838558 1_555
O12 W5 2.051174 1_655
O13 W4 1.916275 1_555
O13 W3 1.933187 1_555
O14 W5 1.838561 1_655
O14 W3 2.051168 1_555
O15 W4 1.838949 1_555
O15 W0 2.050416 1_655
O16 W0 1.916275 1_555
O16 W5 1.933187 1_555
O17 W5 1.902283 1_556
O17 W0 1.919974 1_555
