# generated using pymatgen
data_Tl2Mo4O13
_symmetry_space_group_name_H-M   'P 1'
_cell_length_a   7.83722100
_cell_length_b   15.71964600
_cell_length_c   19.39629300
_cell_angle_alpha   90.00000000
_cell_angle_beta   90.00000000
_cell_angle_gamma   90.00000000
_symmetry_Int_Tables_number   1
_chemical_formula_structural   Tl2Mo4O13
_chemical_formula_sum   'Tl16 Mo32 O104'
_cell_volume   2389.59109478
_cell_formula_units_Z   8
loop_
 _symmetry_equiv_pos_site_id
 _symmetry_equiv_pos_as_xyz
  1  'x, y, z'
loop_
 _atom_site_type_symbol
 _atom_site_label
 _atom_site_symmetry_multiplicity
 _atom_site_fract_x
 _atom_site_fract_y
 _atom_site_fract_z
 _atom_site_occupancy
  Tl  Tl0  1  0.72445000  0.78569500  0.43626000  1
  Tl  Tl1  1  0.60956900  0.47132800  0.91580000  1
  Tl  Tl2  1  0.27555000  0.28569500  0.06374000  1
  Tl  Tl3  1  0.72445000  0.71430500  0.93626000  1
  Tl  Tl4  1  0.39043100  0.52867200  0.08420000  1
  Tl  Tl5  1  0.89043100  0.52867200  0.41580000  1
  Tl  Tl6  1  0.22445000  0.71430500  0.56374000  1
  Tl  Tl7  1  0.77555000  0.28569500  0.43626000  1
  Tl  Tl8  1  0.10956900  0.02867200  0.08420000  1
  Tl  Tl9  1  0.27555000  0.21430500  0.56374000  1
  Tl  Tl10  1  0.39043100  0.97132800  0.58420000  1
  Tl  Tl11  1  0.60956900  0.02867200  0.41580000  1
  Tl  Tl12  1  0.22445000  0.78569500  0.06374000  1
  Tl  Tl13  1  0.10956900  0.47132800  0.58420000  1
  Tl  Tl14  1  0.89043100  0.97132800  0.91580000  1
  Tl  Tl15  1  0.77555000  0.21430500  0.93626000  1
  Mo  Mo0  1  0.29469100  0.14235400  0.89958600  1
  Mo  Mo1  1  0.10764800  0.06463200  0.38996100  1
  Mo  Mo2  1  0.82727500  0.92826700  0.25546900  1
  Mo  Mo3  1  0.57746600  0.21919700  0.25099600  1
  Mo  Mo4  1  0.89235200  0.56463200  0.11003900  1
  Mo  Mo5  1  0.60764800  0.06463200  0.11003900  1
  Mo  Mo6  1  0.60764800  0.43536800  0.61003900  1
  Mo  Mo7  1  0.32727500  0.57173300  0.74453100  1
  Mo  Mo8  1  0.39235200  0.56463200  0.38996100  1
  Mo  Mo9  1  0.29469100  0.35764600  0.39958600  1
  Mo  Mo10  1  0.20530900  0.64235400  0.89958600  1
  Mo  Mo11  1  0.82727500  0.57173300  0.75546900  1
  Mo  Mo12  1  0.79469100  0.14235400  0.60041400  1
  Mo  Mo13  1  0.89235200  0.93536800  0.61003900  1
  Mo  Mo14  1  0.17272500  0.07173300  0.74453100  1
  Mo  Mo15  1  0.07746600  0.21919700  0.24900400  1
  Mo  Mo16  1  0.39235200  0.93536800  0.88996100  1
  Mo  Mo17  1  0.07746600  0.28080300  0.74900400  1
  Mo  Mo18  1  0.42253400  0.78080300  0.74900400  1
  Mo  Mo19  1  0.17272500  0.42826700  0.24453100  1
  Mo  Mo20  1  0.57746600  0.28080300  0.75099600  1
  Mo  Mo21  1  0.67272500  0.42826700  0.25546900  1
  Mo  Mo22  1  0.67272500  0.07173300  0.75546900  1
  Mo  Mo23  1  0.10764800  0.43536800  0.88996100  1
  Mo  Mo24  1  0.42253400  0.71919700  0.24900400  1
  Mo  Mo25  1  0.92253400  0.78080300  0.75099600  1
  Mo  Mo26  1  0.32727500  0.92826700  0.24453100  1
  Mo  Mo27  1  0.70530900  0.64235400  0.60041400  1
  Mo  Mo28  1  0.79469100  0.35764600  0.10041400  1
  Mo  Mo29  1  0.70530900  0.85764600  0.10041400  1
  Mo  Mo30  1  0.92253400  0.71919700  0.25099600  1
  Mo  Mo31  1  0.20530900  0.85764600  0.39958600  1
  O  O0  1  0.55047300  0.94739300  0.07885100  1
  O  O1  1  0.11884500  0.92474600  0.20894400  1
  O  O2  1  0.05596600  0.34512000  0.67707600  1
  O  O3  1  0.05596600  0.15488000  0.17707600  1
  O  O4  1  0.16501700  0.14260800  0.31754400  1
  O  O5  1  0.71971900  0.47545700  0.16795200  1
  O  O6  1  0.37736900  0.63017900  0.95646300  1
  O  O7  1  0.55047300  0.55260700  0.57885100  1
  O  O8  1  0.26916900  0.41575800  0.95033000  1
  O  O9  1  0.93000500  0.38189600  0.92329500  1
  O  O10  1  0.66501700  0.14260800  0.18245600  1
  O  O11  1  0.94403400  0.65488000  0.32292400  1
  O  O12  1  0.93000500  0.11810400  0.42329500  1
  O  O13  1  0.28028100  0.52454300  0.83204800  1
  O  O14  1  0.23083100  0.91575800  0.95033000  1
  O  O15  1  0.28028100  0.97545700  0.33204800  1
  O  O16  1  0.92073000  0.48874600  0.80456100  1
  O  O17  1  0.44952700  0.44739300  0.42114900  1
  O  O18  1  0.92388400  0.82951500  0.30272000  1
  O  O19  1  0.55596600  0.34512000  0.82292400  1
  O  O20  1  0.09558700  0.73025000  0.93250200  1
  O  O21  1  0.21971900  0.47545700  0.33204800  1
  O  O22  1  0.06999500  0.61810400  0.07670500  1
  O  O23  1  0.19222100  0.18206200  0.81590200  1
  O  O24  1  0.05047300  0.94739300  0.42114900  1
  O  O25  1  0.40441300  0.23025000  0.93250200  1
  O  O26  1  0.07611600  0.32951500  0.19728000  1
  O  O27  1  0.80777900  0.68206200  0.68409800  1
  O  O28  1  0.23083100  0.58424200  0.45033000  1
  O  O29  1  0.76916900  0.08424200  0.04967000  1
  O  O30  1  0.07611600  0.17048500  0.69728000  1
  O  O31  1  0.44952700  0.05260700  0.92114900  1
  O  O32  1  0.73083100  0.91575800  0.54967000  1
  O  O33  1  0.80777900  0.81793800  0.18409800  1
  O  O34  1  0.30777900  0.68206200  0.81590200  1
  O  O35  1  0.12263100  0.13017900  0.95646300  1
  O  O36  1  0.09558700  0.76975000  0.43250200  1
  O  O37  1  0.43000500  0.38189600  0.57670500  1
  O  O38  1  0.62263100  0.13017900  0.54353700  1
  O  O39  1  0.57927000  0.51125400  0.30456100  1
  O  O40  1  0.07927000  0.51125400  0.19543900  1
  O  O41  1  0.69222100  0.18206200  0.68409800  1
  O  O42  1  0.33498300  0.85739200  0.81754400  1
  O  O43  1  0.57611600  0.17048500  0.80272000  1
  O  O44  1  0.62263100  0.36982100  0.04353700  1
  O  O45  1  0.36648200  0.22572200  0.21826600  1
  O  O46  1  0.11884500  0.57525400  0.70894400  1
  O  O47  1  0.87736900  0.86982100  0.04353700  1
  O  O48  1  0.26916900  0.08424200  0.45033000  1
  O  O49  1  0.30777900  0.81793800  0.31590200  1
  O  O50  1  0.36648200  0.27427800  0.71826600  1
  O  O51  1  0.92073000  0.01125400  0.30456100  1
  O  O52  1  0.88115500  0.42474600  0.29105600  1
  O  O53  1  0.94952700  0.44739300  0.07885100  1
  O  O54  1  0.90441300  0.23025000  0.56749800  1
  O  O55  1  0.94403400  0.84512000  0.82292400  1
  O  O56  1  0.43000500  0.11810400  0.07670500  1
  O  O57  1  0.33498300  0.64260800  0.31754400  1
  O  O58  1  0.13351800  0.72572200  0.21826600  1
  O  O59  1  0.55596600  0.15488000  0.32292400  1
  O  O60  1  0.61884500  0.92474600  0.29105600  1
  O  O61  1  0.38115500  0.07525400  0.70894400  1
  O  O62  1  0.94952700  0.05260700  0.57885100  1
  O  O63  1  0.61884500  0.57525400  0.79105600  1
  O  O64  1  0.92388400  0.67048500  0.80272000  1
  O  O65  1  0.12263100  0.36982100  0.45646300  1
  O  O66  1  0.13351800  0.77427800  0.71826600  1
  O  O67  1  0.69222100  0.31793800  0.18409800  1
  O  O68  1  0.06999500  0.88189600  0.57670500  1
  O  O69  1  0.87736900  0.63017900  0.54353700  1
  O  O70  1  0.76916900  0.41575800  0.54967000  1
  O  O71  1  0.56999500  0.61810400  0.42329500  1
  O  O72  1  0.07927000  0.98874600  0.69543900  1
  O  O73  1  0.16501700  0.35739200  0.81754400  1
  O  O74  1  0.42388400  0.82951500  0.19728000  1
  O  O75  1  0.57927000  0.98874600  0.80456100  1
  O  O76  1  0.21971900  0.02454300  0.83204800  1
  O  O77  1  0.59558700  0.76975000  0.06749800  1
  O  O78  1  0.78028100  0.97545700  0.16795200  1
  O  O79  1  0.42073000  0.01125400  0.19543900  1
  O  O80  1  0.38115500  0.42474600  0.20894400  1
  O  O81  1  0.90441300  0.26975000  0.06749800  1
  O  O82  1  0.73083100  0.58424200  0.04967000  1
  O  O83  1  0.86648200  0.27427800  0.78173400  1
  O  O84  1  0.19222100  0.31793800  0.31590200  1
  O  O85  1  0.88115500  0.07525400  0.79105600  1
  O  O86  1  0.44403400  0.84512000  0.67707600  1
  O  O87  1  0.40441300  0.26975000  0.43250200  1
  O  O88  1  0.63351800  0.77427800  0.78173400  1
  O  O89  1  0.86648200  0.22572200  0.28173400  1
  O  O90  1  0.57611600  0.32951500  0.30272000  1
  O  O91  1  0.59558700  0.73025000  0.56749800  1
  O  O92  1  0.37736900  0.86982100  0.45646300  1
  O  O93  1  0.66501700  0.35739200  0.68245600  1
  O  O94  1  0.05047300  0.55260700  0.92114900  1
  O  O95  1  0.42073000  0.48874600  0.69543900  1
  O  O96  1  0.42388400  0.67048500  0.69728000  1
  O  O97  1  0.63351800  0.72572200  0.28173400  1
  O  O98  1  0.83498300  0.64260800  0.18245600  1
  O  O99  1  0.83498300  0.85739200  0.68245600  1
  O  O100  1  0.78028100  0.52454300  0.66795200  1
  O  O101  1  0.71971900  0.02454300  0.66795200  1
  O  O102  1  0.56999500  0.88189600  0.92329500  1
  O  O103  1  0.44403400  0.65488000  0.17707600  1
loop_
_geom_bond_atom_site_label_1
_geom_bond_atom_site_label_2
_geom_bond_distance
_geom_bond_site_symmetry_2
Mo0 O25 1.748185 1_555
Mo0 O35 1.752730 1_555
Mo0 O31 1.907302 1_555
Mo0 O23 1.915517 1_555
Mo0 O76 2.343291 1_555
Mo1 O12 1.750107 1_455
Mo1 O48 1.751729 1_555
Mo1 O4 1.917704 1_555
Mo1 O24 1.990782 1_545
Mo1 O15 2.248855 1_545
Mo1 O51 2.365132 1_455
Mo2 O51 1.773395 1_565
Mo2 O60 1.774226 1_555
Mo2 O78 1.888770 1_555
Mo2 O18 1.955252 1_555
Mo2 O33 2.224328 1_555
Mo2 O1 2.457455 1_655
Mo3 O59 1.731185 1_555
Mo3 O45 1.774176 1_555
Mo3 O10 1.920332 1_555
Mo3 O90 2.003482 1_555
Mo3 O67 2.213998 1_555
Mo3 O89 2.344478 1_555
Mo4 O22 1.750107 1_655
Mo4 O82 1.751729 1_555
Mo4 O98 1.917704 1_555
Mo4 O53 1.990782 1_555
Mo4 O5 2.248855 1_555
Mo4 O40 2.365132 1_655
Mo5 O56 1.750107 1_555
Mo5 O29 1.751729 1_555
Mo5 O10 1.917704 1_555
Mo5 O0 1.990782 1_545
Mo5 O78 2.248855 1_545
Mo5 O79 2.365132 1_555
Mo6 O37 1.750107 1_555
Mo6 O70 1.751729 1_555
Mo6 O93 1.917704 1_555
Mo6 O7 1.990782 1_555
Mo6 O100 2.248855 1_555
Mo6 O95 2.365132 1_555
Mo7 O95 1.773395 1_555
Mo7 O46 1.774226 1_555
Mo7 O13 1.888770 1_555
Mo7 O96 1.955252 1_555
Mo7 O34 2.224328 1_555
Mo7 O63 2.457455 1_555
Mo8 O71 1.750107 1_555
Mo8 O28 1.751729 1_555
Mo8 O57 1.917704 1_555
Mo8 O17 1.990782 1_555
Mo8 O21 2.248855 1_555
Mo8 O39 2.365132 1_555
Mo9 O87 1.748185 1_555
Mo9 O65 1.752730 1_555
Mo9 O17 1.907302 1_555
Mo9 O84 1.915517 1_555
Mo9 O21 2.343291 1_555
Mo10 O20 1.748185 1_555
Mo10 O6 1.752730 1_555
Mo10 O94 1.907302 1_555
Mo10 O34 1.915517 1_555
Mo10 O13 2.343291 1_555
Mo11 O16 1.773395 1_555
Mo11 O63 1.774226 1_555
Mo11 O100 1.888770 1_555
Mo11 O64 1.955252 1_555
Mo11 O27 2.224328 1_555
Mo11 O46 2.457455 1_655
Mo12 O54 1.748185 1_555
Mo12 O38 1.752730 1_555
Mo12 O62 1.907302 1_555
Mo12 O41 1.915517 1_555
Mo12 O101 2.343291 1_555
Mo13 O68 1.750107 1_655
Mo13 O32 1.751729 1_555
Mo13 O99 1.917704 1_555
Mo13 O62 1.990782 1_565
Mo13 O101 2.248855 1_565
Mo13 O72 2.365132 1_655
Mo14 O72 1.773395 1_545
Mo14 O61 1.774226 1_555
Mo14 O76 1.888770 1_555
Mo14 O30 1.955252 1_555
Mo14 O23 2.224328 1_555
Mo14 O85 2.457455 1_455
Mo15 O3 1.731185 1_555
Mo15 O89 1.774176 1_455
Mo15 O4 1.920332 1_555
Mo15 O26 2.003482 1_555
Mo15 O84 2.213998 1_555
Mo15 O45 2.344478 1_555
Mo16 O102 1.750107 1_555
Mo16 O14 1.751729 1_555
Mo16 O42 1.917704 1_555
Mo16 O31 1.990782 1_565
Mo16 O76 2.248855 1_565
Mo16 O75 2.365132 1_555
Mo17 O2 1.731185 1_555
Mo17 O83 1.774176 1_455
Mo17 O73 1.920332 1_555
Mo17 O30 2.003482 1_555
Mo17 O23 2.213998 1_555
Mo17 O50 2.344478 1_555
Mo18 O86 1.731185 1_555
Mo18 O88 1.774176 1_555
Mo18 O42 1.920332 1_555
Mo18 O96 2.003482 1_555
Mo18 O34 2.213998 1_555
Mo18 O66 2.344478 1_555
Mo19 O40 1.773395 1_555
Mo19 O80 1.774226 1_555
Mo19 O21 1.888770 1_555
Mo19 O26 1.955252 1_555
Mo19 O84 2.224328 1_555
Mo19 O52 2.457455 1_455
Mo20 O19 1.731185 1_555
Mo20 O50 1.774176 1_555
Mo20 O93 1.920332 1_555
Mo20 O43 2.003482 1_555
Mo20 O41 2.213998 1_555
Mo20 O83 2.344478 1_555
Mo21 O39 1.773395 1_555
Mo21 O52 1.774226 1_555
Mo21 O5 1.888770 1_555
Mo21 O90 1.955252 1_555
Mo21 O67 2.224328 1_555
Mo21 O80 2.457455 1_555
Mo22 O75 1.773395 1_545
Mo22 O85 1.774226 1_555
Mo22 O101 1.888770 1_555
Mo22 O43 1.955252 1_555
Mo22 O41 2.224328 1_555
Mo22 O61 2.457455 1_555
Mo23 O9 1.750107 1_455
Mo23 O8 1.751729 1_555
Mo23 O73 1.917704 1_555
Mo23 O94 1.990782 1_555
Mo23 O13 2.248855 1_555
Mo23 O16 2.365132 1_455
Mo24 O103 1.731185 1_555
Mo24 O97 1.774176 1_555
Mo24 O57 1.920332 1_555
Mo24 O74 2.003482 1_555
Mo24 O49 2.213998 1_555
Mo24 O58 2.344478 1_555
Mo25 O55 1.731185 1_555
Mo25 O66 1.774176 1_655
Mo25 O99 1.920332 1_555
Mo25 O64 2.003482 1_555
Mo25 O27 2.213998 1_555
Mo25 O88 2.344478 1_555
Mo26 O79 1.773395 1_565
Mo26 O1 1.774226 1_555
Mo26 O15 1.888770 1_555
Mo26 O74 1.955252 1_555
Mo26 O49 2.224328 1_555
Mo26 O60 2.457455 1_555
Mo27 O91 1.748185 1_555
Mo27 O69 1.752730 1_555
Mo27 O7 1.907302 1_555
Mo27 O27 1.915517 1_555
Mo27 O100 2.343291 1_555
Mo28 O81 1.748185 1_555
Mo28 O44 1.752730 1_555
Mo28 O53 1.907302 1_555
Mo28 O67 1.915517 1_555
Mo28 O5 2.343291 1_555
Mo29 O77 1.748185 1_555
Mo29 O47 1.752730 1_555
Mo29 O0 1.907302 1_555
Mo29 O33 1.915517 1_555
Mo29 O78 2.343291 1_555
Mo30 O11 1.731185 1_555
Mo30 O58 1.774176 1_655
Mo30 O98 1.920332 1_555
Mo30 O18 2.003482 1_555
Mo30 O33 2.213998 1_555
Mo30 O97 2.344478 1_555
Mo31 O36 1.748185 1_555
Mo31 O92 1.752730 1_555
Mo31 O24 1.907302 1_555
Mo31 O49 1.915517 1_555
Mo31 O15 2.343291 1_555
O2 Tl13 2.712516 1_555
O3 Tl8 2.712516 1_555
O11 Tl5 2.712516 1_555
O19 Tl1 2.712516 1_555
O55 Tl14 2.712516 1_555
O59 Tl11 2.712516 1_555
O86 Tl10 2.712516 1_555
O103 Tl4 2.712516 1_555
