# generated using pymatgen
data_Ag2WO4
_symmetry_space_group_name_H-M   'P 1'
_cell_length_a   5.95045400
_cell_length_b   11.16405300
_cell_length_c   12.30450500
_cell_angle_alpha   90.00000000
_cell_angle_beta   90.00000000
_cell_angle_gamma   90.00000000
_symmetry_Int_Tables_number   1
_chemical_formula_structural   Ag2WO4
_chemical_formula_sum   'Ag16 W8 O32'
_cell_volume   817.40283359
_cell_formula_units_Z   8
loop_
 _symmetry_equiv_pos_site_id
 _symmetry_equiv_pos_as_xyz
  1  'x, y, z'
loop_
 _atom_site_type_symbol
 _atom_site_label
 _atom_site_symmetry_multiplicity
 _atom_site_fract_x
 _atom_site_fract_y
 _atom_site_fract_z
 _atom_site_occupancy
  Ag  Ag0  1  0.51322500  0.25424800  0.67301900  1
  Ag  Ag1  1  0.48677500  0.74575200  0.67301900  1
  Ag  Ag2  1  0.01322500  0.24575200  0.17301900  1
  Ag  Ag3  1  0.98677500  0.75424800  0.17301900  1
  Ag  Ag4  1  0.47955100  0.73782800  0.31825300  1
  Ag  Ag5  1  0.52044900  0.26217200  0.31825300  1
  Ag  Ag6  1  0.97955100  0.76217200  0.81825300  1
  Ag  Ag7  1  0.02044900  0.23782800  0.81825300  1
  Ag  Ag8  1  0.50000000  0.50000000  0.48958400  1
  Ag  Ag9  1  0.00000000  0.00000000  0.98958400  1
  Ag  Ag10  1  0.50000000  0.50000000  0.15418600  1
  Ag  Ag11  1  0.00000000  0.00000000  0.65418600  1
  Ag  Ag12  1  0.50000000  0.50000000  0.81630400  1
  Ag  Ag13  1  0.00000000  0.00000000  0.31630400  1
  Ag  Ag14  1  0.00000000  0.50000000  0.00517000  1
  Ag  Ag15  1  0.50000000  0.00000000  0.50517000  1
  W  W0  1  0.96407000  0.75061800  0.49471200  1
  W  W1  1  0.03593000  0.24938200  0.49471200  1
  W  W2  1  0.46407000  0.74938200  0.99471200  1
  W  W3  1  0.53593000  0.25061800  0.99471200  1
  W  W4  1  0.00000000  0.50000000  0.35233800  1
  W  W5  1  0.50000000  0.00000000  0.85233800  1
  W  W6  1  0.00000000  0.50000000  0.64149000  1
  W  W7  1  0.50000000  0.00000000  0.14149000  1
  O  O0  1  0.30148500  0.86656000  0.10727700  1
  O  O1  1  0.69851500  0.13344000  0.10727700  1
  O  O2  1  0.80148500  0.63344000  0.60727700  1
  O  O3  1  0.19851500  0.36656000  0.60727700  1
  O  O4  1  0.29953200  0.86572300  0.88441000  1
  O  O5  1  0.70046800  0.13427700  0.88441000  1
  O  O6  1  0.79953200  0.63427700  0.38441000  1
  O  O7  1  0.20046800  0.36572300  0.38441000  1
  O  O8  1  0.68577700  0.92054700  0.23416700  1
  O  O9  1  0.31422300  0.07945300  0.23416700  1
  O  O10  1  0.18577700  0.57945300  0.73416700  1
  O  O11  1  0.81422300  0.42054700  0.73416700  1
  O  O12  1  0.69211500  0.92494100  0.75963600  1
  O  O13  1  0.30788500  0.07505900  0.75963600  1
  O  O14  1  0.19211500  0.57505900  0.25963600  1
  O  O15  1  0.80788500  0.42494100  0.25963600  1
  O  O16  1  0.21109700  0.65392600  0.99843600  1
  O  O17  1  0.78890300  0.34607400  0.99843600  1
  O  O18  1  0.71109700  0.84607400  0.49843600  1
  O  O19  1  0.28890300  0.15392600  0.49843600  1
  O  O20  1  0.64969000  0.91276700  0.99580800  1
  O  O21  1  0.35031000  0.08723300  0.99580800  1
  O  O22  1  0.14969000  0.58723300  0.49580800  1
  O  O23  1  0.85031000  0.41276700  0.49580800  1
  O  O24  1  0.63538400  0.68855200  0.10765700  1
  O  O25  1  0.36461600  0.31144800  0.10765700  1
  O  O26  1  0.13538400  0.81144800  0.60765700  1
  O  O27  1  0.86461600  0.18855200  0.60765700  1
  O  O28  1  0.62758200  0.68911400  0.87968800  1
  O  O29  1  0.37241800  0.31088600  0.87968800  1
  O  O30  1  0.12758200  0.81088600  0.37968800  1
  O  O31  1  0.87241800  0.18911400  0.37968800  1
loop_
_geom_bond_atom_site_label_1
_geom_bond_atom_site_label_2
_geom_bond_distance
_geom_bond_site_symmetry_2
Ag0 O27 2.357276 1_555
Ag0 O3 2.394451 1_555
Ag0 O13 2.575023 1_555
Ag0 O11 2.687174 1_555
Ag0 O29 2.751087 1_555
Ag0 O19 2.765993 1_555
Ag1 O26 2.357276 1_555
Ag1 O2 2.394451 1_555
Ag1 O12 2.575023 1_555
Ag1 O10 2.687174 1_555
Ag1 O28 2.751087 1_555
Ag1 O18 2.765993 1_555
Ag2 O25 2.357276 1_555
Ag2 O1 2.394451 1_455
Ag2 O15 2.575023 1_455
Ag2 O9 2.687174 1_555
Ag2 O31 2.751087 1_455
Ag2 O17 2.765993 1_454
Ag3 O24 2.357276 1_555
Ag3 O0 2.394451 1_655
Ag3 O14 2.575023 1_655
Ag3 O8 2.687174 1_555
Ag3 O30 2.751087 1_655
Ag3 O16 2.765993 1_654
Ag4 O30 2.371303 1_555
Ag4 O6 2.371588 1_555
Ag4 O8 2.595664 1_555
Ag4 O14 2.597627 1_555
Ag5 O31 2.371303 1_555
Ag5 O7 2.371588 1_555
Ag5 O9 2.595664 1_555
Ag5 O15 2.597627 1_555
Ag6 O28 2.371303 1_555
Ag6 O4 2.371588 1_655
Ag6 O10 2.595664 1_655
Ag6 O12 2.597627 1_555
Ag7 O29 2.371303 1_555
Ag7 O5 2.371588 1_455
Ag7 O11 2.595664 1_455
Ag7 O13 2.597627 1_555
Ag8 O22 2.302053 1_555
Ag8 O23 2.302053 1_555
Ag8 O6 2.664345 1_555
Ag8 O7 2.664345 1_555
Ag8 O3 2.744957 1_555
Ag8 O2 2.744957 1_555
Ag9 O20 2.302053 1_445
Ag9 O21 2.302053 1_555
Ag9 O4 2.664345 1_545
Ag9 O5 2.664345 1_455
Ag9 O1 2.744957 1_456
Ag9 O0 2.744957 1_546
Ag10 O25 2.325469 1_555
Ag10 O24 2.325469 1_555
Ag10 O14 2.396277 1_555
Ag10 O15 2.396277 1_555
Ag11 O27 2.325469 1_455
Ag11 O26 2.325469 1_545
Ag11 O12 2.396277 1_445
Ag11 O13 2.396277 1_555
Ag12 O11 2.303098 1_555
Ag12 O10 2.303098 1_555
Ag12 O29 2.375310 1_555
Ag12 O28 2.375310 1_555
Ag13 O9 2.303098 1_555
Ag13 O8 2.303098 1_445
Ag13 O31 2.375310 1_455
Ag13 O30 2.375310 1_545
Ag14 O17 2.130197 1_454
Ag14 O16 2.130197 1_554
Ag15 O18 2.130197 1_545
Ag15 O19 2.130197 1_555
O0 W7 1.947275 1_565
O0 W2 2.136747 1_554
O1 W7 1.947275 1_555
O1 W3 2.136747 1_554
O2 W6 1.947275 1_655
O2 W0 2.136747 1_555
O3 W6 1.947275 1_555
O3 W1 2.136747 1_555
O4 W5 1.955994 1_565
O4 W2 2.118393 1_555
O5 W5 1.955994 1_555
O5 W3 2.118393 1_555
O6 W4 1.955994 1_655
O6 W0 2.118393 1_555
O7 W4 1.955994 1_555
O7 W1 2.118393 1_555
O8 W7 1.819127 1_565
O9 W7 1.819127 1_555
O10 W6 1.819127 1_555
O11 W6 1.819127 1_655
O12 W5 1.819371 1_565
O13 W5 1.819371 1_555
O14 W4 1.819371 1_555
O15 W4 1.819371 1_655
O16 W2 1.844913 1_555
O17 W3 1.844913 1_555
O18 W0 1.844913 1_555
O19 W1 1.844913 1_555
O20 W2 2.132433 1_555
O20 W5 2.204132 1_565
O20 W7 2.225991 1_566
O21 W3 2.132433 1_555
O21 W5 2.204132 1_555
O21 W7 2.225991 1_556
O22 W0 2.132433 1_455
O22 W4 2.204132 1_555
O22 W6 2.225991 1_555
O23 W1 2.132433 1_655
O23 W4 2.204132 1_655
O23 W6 2.225991 1_655
O24 W2 1.852489 1_554
O25 W3 1.852489 1_554
O26 W0 1.852489 1_455
O27 W1 1.852489 1_655
O28 W2 1.844584 1_555
O29 W3 1.844584 1_555
O30 W0 1.844584 1_455
O31 W1 1.844584 1_655
