# generated using pymatgen
data_KCo4(PO4)3
_symmetry_space_group_name_H-M   'P 1'
_cell_length_a   6.20048800
_cell_length_b   9.82676200
_cell_length_c   16.65662300
_cell_angle_alpha   90.00000000
_cell_angle_beta   90.00000000
_cell_angle_gamma   90.00000000
_symmetry_Int_Tables_number   1
_chemical_formula_structural   KCo4(PO4)3
_chemical_formula_sum   'K4 Co16 P12 O48'
_cell_volume   1014.90002982
_cell_formula_units_Z   4
loop_
 _symmetry_equiv_pos_site_id
 _symmetry_equiv_pos_as_xyz
  1  'x, y, z'
loop_
 _atom_site_type_symbol
 _atom_site_label
 _atom_site_symmetry_multiplicity
 _atom_site_fract_x
 _atom_site_fract_y
 _atom_site_fract_z
 _atom_site_occupancy
  K  K0  1  0.50000000  0.20737400  0.96581100  1
  K  K1  1  0.50000000  0.79262600  0.03418900  1
  K  K2  1  0.00000000  0.70737400  0.53418900  1
  K  K3  1  0.00000000  0.29262600  0.46581100  1
  Co  Co0  1  0.50000000  0.48651800  0.36194600  1
  Co  Co1  1  0.75119800  0.74416800  0.29634900  1
  Co  Co2  1  0.74880200  0.24416800  0.20365100  1
  Co  Co3  1  0.00000000  0.47008700  0.90856200  1
  Co  Co4  1  0.00000000  0.01348200  0.86194600  1
  Co  Co5  1  0.50000000  0.97008700  0.59143800  1
  Co  Co6  1  0.74880200  0.75583200  0.79634900  1
  Co  Co7  1  0.75119800  0.25583200  0.70365100  1
  Co  Co8  1  0.25119800  0.24416800  0.20365100  1
  Co  Co9  1  0.24880200  0.25583200  0.70365100  1
  Co  Co10  1  0.00000000  0.52991300  0.09143800  1
  Co  Co11  1  0.25119800  0.75583200  0.79634900  1
  Co  Co12  1  0.24880200  0.74416800  0.29634900  1
  Co  Co13  1  0.50000000  0.02991300  0.40856200  1
  Co  Co14  1  0.50000000  0.51348200  0.63805400  1
  Co  Co15  1  0.00000000  0.98651800  0.13805400  1
  P  P0  1  0.50000000  0.04347100  0.78216100  1
  P  P1  1  0.50000000  0.53760100  0.16455400  1
  P  P2  1  0.50000000  0.28988500  0.53633400  1
  P  P3  1  0.50000000  0.71011500  0.46366600  1
  P  P4  1  0.00000000  0.96239900  0.66455400  1
  P  P5  1  0.00000000  0.03760100  0.33544600  1
  P  P6  1  0.50000000  0.46239900  0.83544600  1
  P  P7  1  0.50000000  0.95652900  0.21783900  1
  P  P8  1  0.00000000  0.45652900  0.28216100  1
  P  P9  1  0.00000000  0.54347100  0.71783900  1
  P  P10  1  0.00000000  0.21011500  0.03633400  1
  P  P11  1  0.00000000  0.78988500  0.96366600  1
  O  O0  1  0.50000000  0.88651700  0.77126800  1
  O  O1  1  0.50000000  0.61950300  0.82009700  1
  O  O2  1  0.70139700  0.58232000  0.11871300  1
  O  O3  1  0.50000000  0.63910800  0.54436400  1
  O  O4  1  0.00000000  0.63438100  0.97977600  1
  O  O5  1  0.00000000  0.11301400  0.24926800  1
  O  O6  1  0.00000000  0.36561900  0.02022400  1
  O  O7  1  0.50000000  0.88794600  0.30459200  1
  O  O8  1  0.00000000  0.88698600  0.75073200  1
  O  O9  1  0.00000000  0.61348300  0.27126800  1
  O  O10  1  0.30030000  0.66688100  0.41113300  1
  O  O11  1  0.00000000  0.11950300  0.67990300  1
  O  O12  1  0.19970000  0.16688100  0.08886700  1
  O  O13  1  0.30030000  0.33311900  0.58886700  1
  O  O14  1  0.00000000  0.61205400  0.80459200  1
  O  O15  1  0.50000000  0.61301400  0.25073200  1
  O  O16  1  0.50000000  0.11348300  0.22873200  1
  O  O17  1  0.20139700  0.08232000  0.38128700  1
  O  O18  1  0.50000000  0.11205400  0.69540800  1
  O  O19  1  0.20703800  0.40467500  0.32353600  1
  O  O20  1  0.00000000  0.38794600  0.19540800  1
  O  O21  1  0.79860300  0.08232000  0.38128700  1
  O  O22  1  0.70139700  0.41768000  0.88128700  1
  O  O23  1  0.70703800  0.09532500  0.82353600  1
  O  O24  1  0.80030000  0.83311900  0.91113300  1
  O  O25  1  0.79296200  0.59532500  0.67646400  1
  O  O26  1  0.20139700  0.91768000  0.61871300  1
  O  O27  1  0.70703800  0.90467500  0.17646400  1
  O  O28  1  0.69970000  0.33311900  0.58886700  1
  O  O29  1  0.29296200  0.09532500  0.82353600  1
  O  O30  1  0.00000000  0.86089200  0.04436400  1
  O  O31  1  0.79296200  0.40467500  0.32353600  1
  O  O32  1  0.50000000  0.13438100  0.52022400  1
  O  O33  1  0.79860300  0.91768000  0.61871300  1
  O  O34  1  0.69970000  0.66688100  0.41113300  1
  O  O35  1  0.29860300  0.58232000  0.11871300  1
  O  O36  1  0.00000000  0.88049700  0.32009700  1
  O  O37  1  0.00000000  0.38651700  0.72873200  1
  O  O38  1  0.29860300  0.41768000  0.88128700  1
  O  O39  1  0.80030000  0.16688100  0.08886700  1
  O  O40  1  0.29296200  0.90467500  0.17646400  1
  O  O41  1  0.50000000  0.38698600  0.74926800  1
  O  O42  1  0.20703800  0.59532500  0.67646400  1
  O  O43  1  0.50000000  0.38049700  0.17990300  1
  O  O44  1  0.50000000  0.86561900  0.47977600  1
  O  O45  1  0.50000000  0.36089200  0.45563600  1
  O  O46  1  0.19970000  0.83311900  0.91113300  1
  O  O47  1  0.00000000  0.13910800  0.95563600  1
loop_
_geom_bond_atom_site_label_1
_geom_bond_atom_site_label_2
_geom_bond_distance
_geom_bond_site_symmetry_2
K0 O22 2.795083 1_555
K0 O38 2.795083 1_555
K0 O39 2.797618 1_556
K0 O12 2.797618 1_556
K0 O29 2.911427 1_555
K0 O23 2.911427 1_555
K0 O47 3.176516 1_555
K0 O47 3.176516 1_655
K1 O35 2.795083 1_555
K1 O2 2.795083 1_555
K1 O24 2.797618 1_554
K1 O46 2.797618 1_554
K1 O27 2.911427 1_555
K1 O40 2.911427 1_555
K1 O30 3.176516 1_555
K1 O30 3.176516 1_655
K2 O26 2.795083 1_555
K2 O33 2.795083 1_455
K2 O10 2.797618 1_555
K2 O34 2.797618 1_455
K2 O42 2.911427 1_555
K2 O25 2.911427 1_455
K2 O3 3.176516 1_455
K2 O3 3.176516 1_555
K3 O17 2.795083 1_555
K3 O21 2.795083 1_455
K3 O28 2.797618 1_455
K3 O13 2.797618 1_555
K3 O31 2.911427 1_455
K3 O19 2.911427 1_555
K3 O45 3.176516 1_455
K3 O45 3.176516 1_555
Co0 O45 1.989806 1_555
Co0 O31 2.087065 1_555
Co0 O19 2.087065 1_555
Co0 O15 2.230859 1_555
Co0 O34 2.312101 1_555
Co0 O10 2.312101 1_555
Co1 O9 2.050275 1_655
Co1 O36 2.081129 1_655
Co1 O34 2.081871 1_555
Co1 O7 2.107373 1_555
Co1 O15 2.159711 1_555
Co1 O27 2.559348 1_555
Co2 O16 2.050275 1_555
Co2 O43 2.081129 1_555
Co2 O39 2.081871 1_555
Co2 O20 2.107373 1_655
Co2 O5 2.159711 1_655
Co2 O31 2.559348 1_555
Co3 O22 1.974742 1_455
Co3 O38 1.974742 1_555
Co3 O4 2.003391 1_555
Co3 O6 2.124416 1_556
Co3 O14 2.223810 1_555
Co4 O47 1.989806 1_555
Co4 O23 2.087065 1_455
Co4 O29 2.087065 1_555
Co4 O8 2.230859 1_545
Co4 O24 2.312101 1_445
Co4 O46 2.312101 1_545
Co5 O33 1.974742 1_555
Co5 O26 1.974742 1_555
Co5 O32 2.003391 1_565
Co5 O44 2.124416 1_555
Co5 O18 2.223810 1_565
Co6 O0 2.050275 1_555
Co6 O1 2.081129 1_555
Co6 O24 2.081871 1_555
Co6 O14 2.107373 1_655
Co6 O8 2.159711 1_655
Co6 O25 2.559348 1_555
Co7 O37 2.050275 1_655
Co7 O11 2.081129 1_655
Co7 O28 2.081871 1_555
Co7 O18 2.107373 1_555
Co7 O41 2.159711 1_555
Co7 O23 2.559348 1_555
Co8 O16 2.050275 1_555
Co8 O43 2.081129 1_555
Co8 O12 2.081871 1_555
Co8 O20 2.107373 1_555
Co8 O5 2.159711 1_555
Co8 O19 2.559348 1_555
Co9 O37 2.050275 1_555
Co9 O11 2.081129 1_555
Co9 O13 2.081871 1_555
Co9 O18 2.107373 1_555
Co9 O41 2.159711 1_555
Co9 O29 2.559348 1_555
Co10 O35 1.974742 1_555
Co10 O2 1.974742 1_455
Co10 O6 2.003391 1_555
Co10 O4 2.124416 1_554
Co10 O20 2.223810 1_555
Co11 O0 2.050275 1_555
Co11 O1 2.081129 1_555
Co11 O46 2.081871 1_555
Co11 O14 2.107373 1_555
Co11 O8 2.159711 1_555
Co11 O42 2.559348 1_555
Co12 O9 2.050275 1_555
Co12 O36 2.081129 1_555
Co12 O10 2.081871 1_555
Co12 O7 2.107373 1_555
Co12 O15 2.159711 1_555
Co12 O40 2.559348 1_555
Co13 O21 1.974742 1_555
Co13 O17 1.974742 1_555
Co13 O44 2.003391 1_545
Co13 O32 2.124416 1_555
Co13 O7 2.223810 1_545
Co14 O3 1.989806 1_555
Co14 O42 2.087065 1_555
Co14 O25 2.087065 1_555
Co14 O41 2.230859 1_555
Co14 O28 2.312101 1_555
Co14 O13 2.312101 1_555
Co15 O30 1.989806 1_555
Co15 O27 2.087065 1_455
Co15 O40 2.087065 1_555
Co15 O5 2.230859 1_565
Co15 O12 2.312101 1_565
Co15 O39 2.312101 1_465
O0 P0 1.552985 1_565
O1 P6 1.564850 1_555
O2 P1 1.528244 1_555
O3 P3 1.514476 1_555
O4 P11 1.551482 1_555
O5 P5 1.615441 1_555
O6 P10 1.551482 1_555
O7 P7 1.594449 1_555
O8 P4 1.615441 1_555
O9 P8 1.552985 1_555
O10 P3 1.574609 1_555
O11 P4 1.564850 1_545
O12 P10 1.574609 1_555
O13 P2 1.574609 1_555
O14 P9 1.594449 1_555
O15 P1 1.615441 1_555
O16 P7 1.552985 1_545
O17 P5 1.528244 1_555
O18 P0 1.594449 1_555
O19 P8 1.543561 1_555
O20 P8 1.594449 1_555
O21 P5 1.528244 1_655
O22 P6 1.528244 1_555
O23 P0 1.543561 1_555
O24 P11 1.574609 1_655
O25 P9 1.543561 1_655
O26 P4 1.528244 1_555
O27 P7 1.543561 1_555
O28 P2 1.574609 1_555
O29 P0 1.543561 1_555
O30 P11 1.514476 1_554
O31 P8 1.543561 1_655
O32 P2 1.551482 1_555
O33 P4 1.528244 1_655
O34 P3 1.574609 1_555
O35 P1 1.528244 1_555
O36 P5 1.564850 1_565
O37 P9 1.552985 1_555
O38 P6 1.528244 1_555
O39 P10 1.574609 1_655
O40 P7 1.543561 1_555
O41 P6 1.615441 1_555
O42 P9 1.543561 1_555
O43 P1 1.564850 1_555
O44 P3 1.551482 1_555
O45 P2 1.514476 1_555
O46 P11 1.574609 1_555
O47 P10 1.514476 1_556
