# generated using pymatgen
data_Cd2SnO4
_symmetry_space_group_name_H-M   'P 1'
_cell_length_a   6.58412470
_cell_length_b   6.58412377
_cell_length_c   6.43091735
_cell_angle_alpha   60.76680010
_cell_angle_beta   60.76680466
_cell_angle_gamma   58.88393416
_symmetry_Int_Tables_number   1
_chemical_formula_structural   Cd2SnO4
_chemical_formula_sum   'Cd4 Sn2 O8'
_cell_volume   197.61205180
_cell_formula_units_Z   2
loop_
 _symmetry_equiv_pos_site_id
 _symmetry_equiv_pos_as_xyz
  1  'x, y, z'
loop_
 _atom_site_type_symbol
 _atom_site_label
 _atom_site_symmetry_multiplicity
 _atom_site_fract_x
 _atom_site_fract_y
 _atom_site_fract_z
 _atom_site_occupancy
  Cd  Cd0  1  0.11146574  0.11146574  0.13853426  1
  Cd  Cd1  1  0.50000000  0.50000000  -0.00000000  1
  Cd  Cd2  1  0.50000000  0.50000000  0.50000000  1
  Cd  Cd3  1  0.88853426  0.88853426  0.86146574  1
  Sn  Sn0  1  0.50000000  0.00000000  0.50000000  1
  Sn  Sn1  1  0.00000000  0.50000000  0.50000000  1
  O  O0  1  0.25067182  0.25067182  0.28264403  1
  O  O1  1  0.25067182  0.25067182  0.71601133  1
  O  O2  1  0.22412086  0.70491562  0.28548276  1
  O  O3  1  0.70491562  0.22412086  0.28548276  1
  O  O4  1  0.29508438  0.77587914  0.71451724  1
  O  O5  1  0.77587914  0.29508438  0.71451724  1
  O  O6  1  0.74932818  0.74932818  0.28398867  1
  O  O7  1  0.74932818  0.74932818  0.71735597  1
loop_
_geom_bond_atom_site_label_1
_geom_bond_atom_site_label_2
_geom_bond_distance
_geom_bond_site_symmetry_2
Cd0 O2 2.184078 1_545
Cd0 O3 2.184079 1_455
Cd0 O0 2.250903 1_555
Cd0 O1 2.250908 1_554
Cd1 O4 2.262640 1_554
Cd1 O3 2.262640 1_555
Cd1 O5 2.262640 1_554
Cd1 O2 2.262640 1_555
Cd1 O7 2.376976 1_554
Cd1 O0 2.376976 1_555
Cd2 O4 2.262631 1_555
Cd2 O3 2.262631 1_555
Cd2 O2 2.262631 1_555
Cd2 O5 2.262631 1_555
Cd2 O6 2.376977 1_555
Cd2 O1 2.376977 1_555
Cd3 O5 2.184078 1_565
Cd3 O4 2.184079 1_655
Cd3 O7 2.250903 1_555
Cd3 O6 2.250908 1_556
O0 Sn0 2.135497 1_555
O0 Sn1 2.135497 1_555
O1 Sn0 2.135493 1_555
O1 Sn1 2.135493 1_555
O2 Sn1 2.037738 1_555
O3 Sn0 2.037738 1_555
O4 Sn0 2.037738 1_565
O5 Sn1 2.037738 1_655
O6 Sn0 2.135493 1_565
O6 Sn1 2.135493 1_655
O7 Sn0 2.135497 1_565
O7 Sn1 2.135497 1_655
