# generated using pymatgen
data_H9BrO4
_symmetry_space_group_name_H-M   'P 1'
_cell_length_a   11.80375800
_cell_length_b   7.09512600
_cell_length_c   7.12632178
_cell_angle_alpha   70.70663527
_cell_angle_beta   90.00000000
_cell_angle_gamma   90.00000000
_symmetry_Int_Tables_number   1
_chemical_formula_structural   H9BrO4
_chemical_formula_sum   'H36 Br4 O16'
_cell_volume   563.30532722
_cell_formula_units_Z   4
loop_
 _symmetry_equiv_pos_site_id
 _symmetry_equiv_pos_as_xyz
  1  'x, y, z'
loop_
 _atom_site_type_symbol
 _atom_site_label
 _atom_site_symmetry_multiplicity
 _atom_site_fract_x
 _atom_site_fract_y
 _atom_site_fract_z
 _atom_site_occupancy
  H  H0  1  0.33366900  0.00317200  0.33000800  1
  H  H1  1  0.26353000  0.98467300  0.14842300  1
  H  H2  1  0.76353000  0.01532700  0.85157700  1
  H  H3  1  0.83366900  0.99682800  0.66999200  1
  H  H4  1  0.19090100  0.82965100  0.97696500  1
  H  H5  1  0.26436100  0.00479600  0.84219900  1
  H  H6  1  0.69090100  0.17034900  0.02303500  1
  H  H7  1  0.76436100  0.99520400  0.15780100  1
  H  H8  1  0.17108100  0.18559900  0.54815600  1
  H  H9  1  0.30414800  0.17698800  0.53448500  1
  H  H10  1  0.80414800  0.82301200  0.46551500  1
  H  H11  1  0.67108100  0.81440100  0.45184400  1
  H  H12  1  0.24659200  0.51379600  0.84462500  1
  H  H13  1  0.25117900  0.41573900  0.66912800  1
  H  H14  1  0.15930300  0.62237900  0.61778100  1
  H  H15  1  0.75117900  0.58426100  0.33087200  1
  H  H16  1  0.74659200  0.48620400  0.15537500  1
  H  H17  1  0.65930300  0.37762100  0.38221900  1
  H  H18  1  0.15976500  0.47693400  0.12059300  1
  H  H19  1  0.24113300  0.28021300  0.15748900  1
  H  H20  1  0.74113300  0.71978700  0.84251100  1
  H  H21  1  0.65976500  0.52306600  0.87940700  1
  H  H22  1  0.36929300  0.62560200  0.36721600  1
  H  H23  1  0.33517400  0.52098000  0.20370500  1
  H  H24  1  0.86929300  0.37439800  0.63278400  1
  H  H25  1  0.83517400  0.47902000  0.79629500  1
  H  H26  1  0.55585900  0.17093400  0.50588400  1
  H  H27  1  0.50410200  0.39032700  0.39915400  1
  H  H28  1  0.05585900  0.82906600  0.49411600  1
  H  H29  1  0.00410200  0.60967300  0.60084600  1
  H  H30  1  0.50632100  0.82444200  0.87341900  1
  H  H31  1  0.51671100  0.96796600  0.01405200  1
  H  H32  1  0.46863300  0.72346000  0.11662300  1
  H  H33  1  0.00632100  0.17555800  0.12658100  1
  H  H34  1  0.01671100  0.03203400  0.98594800  1
  H  H35  1  0.96863300  0.27654000  0.88337700  1
  Br  Br0  1  0.50789500  0.26852600  0.98460400  1
  Br  Br1  1  0.00789500  0.73147400  0.01539600  1
  Br  Br2  1  0.48915800  0.86208400  0.56005700  1
  Br  Br3  1  0.98915800  0.13791600  0.43994300  1
  O  O0  1  0.26024100  0.04033400  0.26253400  1
  O  O1  1  0.76024100  0.95966600  0.73746600  1
  O  O2  1  0.26728400  0.89134000  0.96781100  1
  O  O3  1  0.76728400  0.10866000  0.03218900  1
  O  O4  1  0.24271700  0.20735500  0.61201500  1
  O  O5  1  0.74271700  0.79264500  0.38798500  1
  O  O6  1  0.24457300  0.54625600  0.69527100  1
  O  O7  1  0.74457300  0.45374400  0.30472900  1
  O  O8  1  0.23623100  0.43207200  0.09769500  1
  O  O9  1  0.73623100  0.56792800  0.90230500  1
  O  O10  1  0.40097300  0.56522000  0.27257300  1
  O  O11  1  0.90097300  0.43478000  0.72742700  1
  O  O12  1  0.57072300  0.31651400  0.47489200  1
  O  O13  1  0.07072300  0.68348600  0.52510800  1
  O  O14  1  0.52409000  0.82169700  0.01417500  1
  O  O15  1  0.02409000  0.17830300  0.98582500  1
loop_
_geom_bond_atom_site_label_1
_geom_bond_atom_site_label_2
_geom_bond_distance
_geom_bond_site_symmetry_2
H0 O0 0.983954 1_555
H1 O0 1.015366 1_565
H1 O2 1.631054 1_554
H2 O1 1.015366 1_545
H2 O3 1.631054 1_556
H3 O1 0.983954 1_555
H4 O2 0.994915 1_555
H5 O2 0.987076 1_545
H6 O3 0.994915 1_555
H7 O3 0.987076 1_565
H8 O4 0.996163 1_555
H9 O4 0.977824 1_555
H10 O5 0.977824 1_555
H11 O5 0.996163 1_555
H12 O6 1.012155 1_555
H13 O6 1.006148 1_555
H14 O6 1.188538 1_555
H14 O13 1.236183 1_555
H15 O7 1.006148 1_555
H16 O7 1.012155 1_555
H17 O7 1.188538 1_555
H17 O12 1.236183 1_555
H18 O8 0.988396 1_555
H19 O8 1.021003 1_555
H19 O0 1.632801 1_555
H20 O9 1.021003 1_555
H20 O1 1.632801 1_555
H21 O9 0.988396 1_555
H22 O10 0.984483 1_555
H23 O10 1.021963 1_555
H23 O8 1.627129 1_555
H24 O11 0.984483 1_555
H25 O11 1.021963 1_555
H25 O9 1.627129 1_555
H26 O12 0.997854 1_555
H27 O12 0.998594 1_555
H28 O13 0.997854 1_555
H29 O13 0.998594 1_555
H30 O14 1.018634 1_556
H31 O14 1.041157 1_555
H32 O14 1.054071 1_555
H32 O10 1.519517 1_555
H33 O15 1.018634 1_554
H34 O15 1.041157 1_555
H35 O15 1.054071 1_655
H35 O11 1.519517 1_555
Br0 H31 2.075270 1_546
Br1 H34 2.075270 1_564
Br2 H30 2.169119 1_555
Br2 H26 2.238708 1_565
Br3 H33 2.169119 1_655
Br3 H28 2.238708 1_645
