# generated using pymatgen
data_K2FePH5(CO5)2
_symmetry_space_group_name_H-M   'P 1'
_cell_length_a   10.48541300
_cell_length_b   11.91550800
_cell_length_c   15.76827200
_cell_angle_alpha   90.00000000
_cell_angle_beta   90.00000000
_cell_angle_gamma   90.00000000
_symmetry_Int_Tables_number   1
_chemical_formula_structural   K2FePH5(CO5)2
_chemical_formula_sum   'K16 Fe8 P8 H40 C16 O80'
_cell_volume   1970.07248995
_cell_formula_units_Z   8
loop_
 _symmetry_equiv_pos_site_id
 _symmetry_equiv_pos_as_xyz
  1  'x, y, z'
loop_
 _atom_site_type_symbol
 _atom_site_label
 _atom_site_symmetry_multiplicity
 _atom_site_fract_x
 _atom_site_fract_y
 _atom_site_fract_z
 _atom_site_occupancy
  K  K0  1  0.80039000  0.16753500  0.13115900  1
  K  K1  1  0.17201100  0.33268700  0.88455300  1
  K  K2  1  0.30039000  0.83246500  0.36884100  1
  K  K3  1  0.82798900  0.66731300  0.11544700  1
  K  K4  1  0.67201100  0.16731300  0.88455300  1
  K  K5  1  0.32798900  0.83268700  0.11544700  1
  K  K6  1  0.32798900  0.33268700  0.38455300  1
  K  K7  1  0.80039000  0.66753500  0.36884100  1
  K  K8  1  0.69961000  0.66753500  0.86884100  1
  K  K9  1  0.30039000  0.33246500  0.13115900  1
  K  K10  1  0.82798900  0.16731300  0.38455300  1
  K  K11  1  0.17201100  0.83268700  0.61544700  1
  K  K12  1  0.67201100  0.66731300  0.61544700  1
  K  K13  1  0.69961000  0.16753500  0.63115900  1
  K  K14  1  0.19961000  0.83246500  0.86884100  1
  K  K15  1  0.19961000  0.33246500  0.63115900  1
  Fe  Fe0  1  0.39583200  0.08281800  0.73867500  1
  Fe  Fe1  1  0.60416800  0.91718200  0.26132500  1
  Fe  Fe2  1  0.39583200  0.58281800  0.76132500  1
  Fe  Fe3  1  0.10416800  0.08281800  0.23867500  1
  Fe  Fe4  1  0.10416800  0.58281800  0.26132500  1
  Fe  Fe5  1  0.60416800  0.41718200  0.23867500  1
  Fe  Fe6  1  0.89583200  0.41718200  0.73867500  1
  Fe  Fe7  1  0.89583200  0.91718200  0.76132500  1
  P  P0  1  0.15546400  0.09410400  0.02319800  1
  P  P1  1  0.84453600  0.90589600  0.97680200  1
  P  P2  1  0.65546400  0.40589600  0.02319800  1
  P  P3  1  0.84453600  0.40589600  0.52319800  1
  P  P4  1  0.34453600  0.59410400  0.97680200  1
  P  P5  1  0.34453600  0.09410400  0.52319800  1
  P  P6  1  0.15546400  0.59410400  0.47680200  1
  P  P7  1  0.65546400  0.90589600  0.47680200  1
  H  H0  1  0.43358600  0.64617100  0.45796700  1
  H  H1  1  0.53276700  0.59831900  0.04029900  1
  H  H2  1  0.96723300  0.09831900  0.95970100  1
  H  H3  1  0.45578700  0.27707500  0.58242700  1
  H  H4  1  0.56641400  0.85382900  0.95796700  1
  H  H5  1  0.03276700  0.40168100  0.45970100  1
  H  H6  1  0.46723300  0.40168100  0.95970100  1
  H  H7  1  0.93317600  0.01809100  0.60380300  1
  H  H8  1  0.64385500  0.90399800  0.08204100  1
  H  H9  1  0.14385500  0.09600200  0.41795900  1
  H  H10  1  0.96723300  0.59831900  0.54029900  1
  H  H11  1  0.43317600  0.48190900  0.60380300  1
  H  H12  1  0.43358600  0.14617100  0.04203300  1
  H  H13  1  0.54421300  0.22292500  0.08242700  1
  H  H14  1  0.14385500  0.59600200  0.08204100  1
  H  H15  1  0.04421300  0.77707500  0.41757300  1
  H  H16  1  0.03276700  0.90168100  0.04029900  1
  H  H17  1  0.43317600  0.98190900  0.89619700  1
  H  H18  1  0.06641400  0.14617100  0.54203300  1
  H  H19  1  0.95578700  0.72292500  0.91757300  1
  H  H20  1  0.93317600  0.51809100  0.89619700  1
  H  H21  1  0.56682400  0.51809100  0.39619700  1
  H  H22  1  0.95578700  0.22292500  0.58242700  1
  H  H23  1  0.56682400  0.01809100  0.10380300  1
  H  H24  1  0.04421300  0.27707500  0.08242700  1
  H  H25  1  0.54421300  0.72292500  0.41757300  1
  H  H26  1  0.35614500  0.59600200  0.58204100  1
  H  H27  1  0.85614500  0.40399800  0.91795900  1
  H  H28  1  0.35614500  0.09600200  0.91795900  1
  H  H29  1  0.45578700  0.77707500  0.91757300  1
  H  H30  1  0.85614500  0.90399800  0.58204100  1
  H  H31  1  0.06682400  0.98190900  0.39619700  1
  H  H32  1  0.93358600  0.85382900  0.45796700  1
  H  H33  1  0.56641400  0.35382900  0.54203300  1
  H  H34  1  0.93358600  0.35382900  0.04203300  1
  H  H35  1  0.64385500  0.40399800  0.41795900  1
  H  H36  1  0.06682400  0.48190900  0.10380300  1
  H  H37  1  0.06641400  0.64617100  0.95796700  1
  H  H38  1  0.53276700  0.09831900  0.45970100  1
  H  H39  1  0.46723300  0.90168100  0.54029900  1
  C  C0  1  0.10272700  0.08648100  0.75948200  1
  C  C1  1  0.89727300  0.41351900  0.25948200  1
  C  C2  1  0.97739900  0.15579700  0.76526300  1
  C  C3  1  0.10272700  0.58648000  0.74051800  1
  C  C4  1  0.60272700  0.41351900  0.75948200  1
  C  C5  1  0.60272700  0.91352000  0.74051800  1
  C  C6  1  0.02260100  0.34420300  0.26526300  1
  C  C7  1  0.39727300  0.08648100  0.25948200  1
  C  C8  1  0.52260100  0.15579700  0.26526300  1
  C  C9  1  0.52260100  0.65579700  0.23473700  1
  C  C10  1  0.47739900  0.84420300  0.73473700  1
  C  C11  1  0.97739900  0.65579700  0.73473700  1
  C  C12  1  0.02260100  0.84420300  0.23473700  1
  C  C13  1  0.47739900  0.34420300  0.76526300  1
  C  C14  1  0.89727300  0.91352000  0.24051800  1
  C  C15  1  0.39727300  0.58648000  0.24051800  1
  O  O0  1  0.98911900  0.26117500  0.76294500  1
  O  O1  1  0.94529800  0.36575100  0.45136100  1
  O  O2  1  0.01088100  0.73882500  0.23705500  1
  O  O3  1  0.87349100  0.10076800  0.77030100  1
  O  O4  1  0.58942600  0.94222900  0.12590100  1
  O  O5  1  0.77948400  0.34283000  0.99984900  1
  O  O6  1  0.97854500  0.64456200  0.93365700  1
  O  O7  1  0.16814200  0.96579300  0.02038200  1
  O  O8  1  0.55470200  0.86575100  0.54863900  1
  O  O9  1  0.98911900  0.76117500  0.73705500  1
  O  O10  1  0.79379400  0.35910700  0.25143500  1
  O  O11  1  0.05470200  0.63424900  0.54863900  1
  O  O12  1  0.20620600  0.64089300  0.74856500  1
  O  O13  1  0.51088100  0.76117500  0.23705500  1
  O  O14  1  0.91057400  0.44222900  0.87409900  1
  O  O15  1  0.97854500  0.14456200  0.56634300  1
  O  O16  1  0.44529800  0.13424900  0.45136100  1
  O  O17  1  0.01088100  0.23882500  0.26294500  1
  O  O18  1  0.33185800  0.46579300  0.97961800  1
  O  O19  1  0.58942600  0.44222900  0.37409900  1
  O  O20  1  0.87349100  0.60076800  0.72969900  1
  O  O21  1  0.83185800  0.03420700  0.97961800  1
  O  O22  1  0.48911900  0.73882500  0.73705500  1
  O  O23  1  0.10071100  0.13848800  0.10885800  1
  O  O24  1  0.62650900  0.10076800  0.27030100  1
  O  O25  1  0.37349100  0.89923200  0.72969900  1
  O  O26  1  0.47854500  0.35543800  0.56634300  1
  O  O27  1  0.77948400  0.84283000  0.50015100  1
  O  O28  1  0.66814200  0.53420700  0.02038200  1
  O  O29  1  0.47854500  0.85543800  0.93365700  1
  O  O30  1  0.91057400  0.94222900  0.62590100  1
  O  O31  1  0.89928900  0.36151200  0.60885800  1
  O  O32  1  0.83185800  0.53420700  0.52038200  1
  O  O33  1  0.72051600  0.34283000  0.49984900  1
  O  O34  1  0.70620600  0.35910700  0.75143500  1
  O  O35  1  0.29379400  0.64089300  0.24856500  1
  O  O36  1  0.22051600  0.15717000  0.49984900  1
  O  O37  1  0.60071100  0.86151200  0.39114200  1
  O  O38  1  0.08942600  0.05777100  0.37409900  1
  O  O39  1  0.52145500  0.14456200  0.06634300  1
  O  O40  1  0.59211600  0.51961800  0.76118500  1
  O  O41  1  0.89928900  0.86151200  0.89114200  1
  O  O42  1  0.29379400  0.14089300  0.25143500  1
  O  O43  1  0.48911900  0.23882500  0.76294500  1
  O  O44  1  0.90788400  0.01961800  0.23881500  1
  O  O45  1  0.41057400  0.55777100  0.62590100  1
  O  O46  1  0.02145500  0.35543800  0.06634300  1
  O  O47  1  0.27948400  0.65717000  0.50015100  1
  O  O48  1  0.22051600  0.65717000  0.00015100  1
  O  O49  1  0.62650900  0.60076800  0.22969900  1
  O  O50  1  0.72051600  0.84283000  0.00015100  1
  O  O51  1  0.90788400  0.51961800  0.26118500  1
  O  O52  1  0.09211600  0.48038200  0.73881500  1
  O  O53  1  0.55470200  0.36575100  0.95136100  1
  O  O54  1  0.10071100  0.63848800  0.39114200  1
  O  O55  1  0.59211600  0.01961800  0.73881500  1
  O  O56  1  0.02145500  0.85543800  0.43365700  1
  O  O57  1  0.66814200  0.03420700  0.47961800  1
  O  O58  1  0.09211600  0.98038200  0.76118500  1
  O  O59  1  0.40788400  0.98038200  0.26118500  1
  O  O60  1  0.16814200  0.46579300  0.47961800  1
  O  O61  1  0.05470200  0.13424900  0.95136100  1
  O  O62  1  0.20620600  0.14089300  0.75143500  1
  O  O63  1  0.52145500  0.64456200  0.43365700  1
  O  O64  1  0.51088100  0.26117500  0.26294500  1
  O  O65  1  0.08942600  0.55777100  0.12590100  1
  O  O66  1  0.94529800  0.86575100  0.04863900  1
  O  O67  1  0.33185800  0.96579300  0.52038200  1
  O  O68  1  0.12650900  0.39923200  0.27030100  1
  O  O69  1  0.39928900  0.13848800  0.60885800  1
  O  O70  1  0.12650900  0.89923200  0.22969900  1
  O  O71  1  0.39928900  0.63848800  0.89114200  1
  O  O72  1  0.41057400  0.05777100  0.87409900  1
  O  O73  1  0.70620600  0.85910700  0.74856500  1
  O  O74  1  0.27948400  0.15717000  0.99984900  1
  O  O75  1  0.40788400  0.48038200  0.23881500  1
  O  O76  1  0.60071100  0.36151200  0.10885800  1
  O  O77  1  0.37349100  0.39923200  0.77030100  1
  O  O78  1  0.79379400  0.85910700  0.24856500  1
  O  O79  1  0.44529800  0.63424900  0.04863900  1
loop_
_geom_bond_atom_site_label_1
_geom_bond_atom_site_label_2
_geom_bond_distance
_geom_bond_site_symmetry_2
K0 O44 2.694160 1_555
K0 O21 2.888364 1_554
K0 O5 2.949227 1_554
K0 O24 2.961552 1_555
K0 O10 2.968549 1_555
K0 O39 3.110248 1_555
K0 O76 3.138403 1_555
K0 O17 3.148181 1_655
K0 O23 3.187410 1_655
K1 O18 2.751671 1_555
K1 O0 2.842646 1_455
K1 O61 2.865928 1_555
K1 O77 2.887457 1_555
K1 O74 2.991478 1_555
K1 O52 3.013283 1_555
K1 O14 3.040631 1_455
K1 O62 3.123657 1_555
K1 O46 3.283672 1_556
K2 O59 2.694160 1_555
K2 O67 2.888364 1_555
K2 O47 2.949227 1_555
K2 O70 2.961552 1_555
K2 O35 2.968549 1_555
K2 O56 3.110248 1_555
K2 O54 3.138403 1_555
K2 O13 3.148181 1_555
K2 O37 3.187410 1_555
K3 O28 2.751671 1_555
K3 O2 2.842646 1_655
K3 O66 2.865928 1_555
K3 O49 2.887457 1_555
K3 O50 2.991478 1_555
K3 O51 3.013283 1_555
K3 O65 3.040631 1_655
K3 O78 3.123657 1_555
K3 O6 3.283672 1_554
K4 O21 2.751671 1_555
K4 O43 2.842646 1_555
K4 O53 2.865928 1_555
K4 O3 2.887457 1_555
K4 O5 2.991478 1_555
K4 O55 3.013283 1_555
K4 O72 3.040631 1_555
K4 O34 3.123657 1_555
K4 O39 3.283672 1_556
K5 O7 2.751671 1_555
K5 O13 2.842646 1_555
K5 O79 2.865928 1_555
K5 O70 2.887457 1_555
K5 O48 2.991478 1_555
K5 O59 3.013283 1_555
K5 O4 3.040631 1_555
K5 O35 3.123657 1_555
K5 O29 3.283672 1_554
K6 O60 2.751671 1_555
K6 O64 2.842646 1_555
K6 O16 2.865928 1_555
K6 O68 2.887457 1_555
K6 O36 2.991478 1_555
K6 O75 3.013283 1_555
K6 O19 3.040631 1_555
K6 O42 3.123657 1_555
K6 O26 3.283672 1_555
K7 O51 2.694160 1_555
K7 O32 2.888364 1_555
K7 O27 2.949227 1_555
K7 O49 2.961552 1_555
K7 O78 2.968549 1_555
K7 O63 3.110248 1_555
K7 O37 3.138403 1_555
K7 O2 3.148181 1_655
K7 O54 3.187410 1_655
K8 O40 2.694160 1_555
K8 O28 2.888364 1_556
K8 O50 2.949227 1_556
K8 O20 2.961552 1_555
K8 O73 2.968549 1_555
K8 O6 3.110248 1_555
K8 O41 3.138403 1_555
K8 O22 3.148181 1_555
K8 O71 3.187410 1_555
K9 O75 2.694160 1_555
K9 O18 2.888364 1_554
K9 O74 2.949227 1_554
K9 O68 2.961552 1_555
K9 O42 2.968549 1_555
K9 O46 3.110248 1_555
K9 O23 3.138403 1_555
K9 O64 3.148181 1_555
K9 O76 3.187410 1_555
K10 O57 2.751671 1_555
K10 O17 2.842646 1_655
K10 O1 2.865928 1_555
K10 O24 2.887457 1_555
K10 O33 2.991478 1_555
K10 O44 3.013283 1_555
K10 O38 3.040631 1_655
K10 O10 3.123657 1_555
K10 O15 3.283672 1_555
K11 O67 2.751671 1_555
K11 O9 2.842646 1_455
K11 O11 2.865928 1_555
K11 O25 2.887457 1_555
K11 O47 2.991478 1_555
K11 O58 3.013283 1_555
K11 O30 3.040631 1_455
K11 O12 3.123657 1_555
K11 O56 3.283672 1_555
K12 O32 2.751671 1_555
K12 O22 2.842646 1_555
K12 O8 2.865928 1_555
K12 O20 2.887457 1_555
K12 O27 2.991478 1_555
K12 O40 3.013283 1_555
K12 O45 3.040631 1_555
K12 O73 3.123657 1_555
K12 O63 3.283672 1_555
K13 O55 2.694160 1_555
K13 O57 2.888364 1_555
K13 O33 2.949227 1_555
K13 O3 2.961552 1_555
K13 O34 2.968549 1_555
K13 O15 3.110248 1_555
K13 O31 3.138403 1_555
K13 O43 3.148181 1_555
K13 O69 3.187410 1_555
K14 O58 2.694160 1_555
K14 O7 2.888364 1_556
K14 O48 2.949227 1_556
K14 O25 2.961552 1_555
K14 O12 2.968549 1_555
K14 O29 3.110248 1_555
K14 O71 3.138403 1_555
K14 O9 3.148181 1_455
K14 O41 3.187410 1_455
K15 O52 2.694160 1_555
K15 O60 2.888364 1_555
K15 O36 2.949227 1_555
K15 O77 2.961552 1_555
K15 O62 2.968549 1_555
K15 O26 3.110248 1_555
K15 O69 3.138403 1_555
K15 O0 3.148181 1_455
K15 O31 3.187410 1_455
Fe0 O62 2.114876 1_555
Fe0 O43 2.135125 1_555
Fe0 O69 2.152091 1_555
Fe0 O72 2.161691 1_555
Fe0 O55 2.191565 1_555
Fe0 O25 2.204576 1_545
Fe1 O78 2.114876 1_555
Fe1 O13 2.135125 1_555
Fe1 O37 2.152091 1_555
Fe1 O4 2.161691 1_555
Fe1 O59 2.191565 1_555
Fe1 O24 2.204576 1_565
Fe2 O12 2.114876 1_555
Fe2 O22 2.135125 1_555
Fe2 O71 2.152091 1_555
Fe2 O45 2.161691 1_555
Fe2 O40 2.191565 1_555
Fe2 O77 2.204576 1_555
Fe3 O42 2.114876 1_555
Fe3 O17 2.135125 1_555
Fe3 O23 2.152091 1_555
Fe3 O38 2.161691 1_555
Fe3 O44 2.191565 1_455
Fe3 O70 2.204576 1_545
Fe4 O35 2.114876 1_555
Fe4 O2 2.135125 1_555
Fe4 O54 2.152091 1_555
Fe4 O65 2.161691 1_555
Fe4 O51 2.191565 1_455
Fe4 O68 2.204576 1_555
Fe5 O10 2.114876 1_555
Fe5 O64 2.135125 1_555
Fe5 O76 2.152091 1_555
Fe5 O19 2.161691 1_555
Fe5 O75 2.191565 1_555
Fe5 O49 2.204576 1_555
Fe6 O34 2.114876 1_555
Fe6 O0 2.135125 1_555
Fe6 O31 2.152091 1_555
Fe6 O14 2.161691 1_555
Fe6 O52 2.191565 1_655
Fe6 O20 2.204576 1_555
Fe7 O73 2.114876 1_555
Fe7 O9 2.135125 1_555
Fe7 O41 2.152091 1_555
Fe7 O30 2.161691 1_555
Fe7 O58 2.191565 1_655
Fe7 O3 2.204576 1_565
H0 O63 0.998088 1_555
H0 K2 2.975405 1_555
H1 O79 1.020660 1_555
H1 O28 1.642282 1_555
H2 O61 1.020660 1_655
H2 O21 1.642282 1_555
H3 O26 0.996557 1_555
H3 K15 2.870770 1_555
H3 K13 2.971566 1_555
H4 O29 0.998088 1_555
H4 K8 2.975405 1_555
H5 O1 1.020660 1_455
H5 O60 1.642282 1_555
H6 O53 1.020660 1_555
H6 O18 1.642282 1_555
H7 O30 0.997335 1_545
H7 K13 3.058552 1_555
H8 O4 1.005751 1_555
H9 O38 1.005751 1_555
H10 O11 1.020660 1_655
H10 O32 1.642282 1_555
H11 O45 0.997335 1_555
H11 K15 3.058552 1_555
H12 O39 0.998088 1_555
H12 K9 2.975405 1_555
H13 O39 0.996557 1_555
H13 K0 2.870770 1_555
H13 K9 2.971566 1_555
H14 O65 1.005751 1_555
H15 O56 0.996557 1_555
H15 K2 2.870770 1_555
H15 K7 2.971566 1_455
H16 O66 1.020660 1_455
H16 O7 1.642282 1_555
H17 O72 0.997335 1_565
H17 K14 3.058552 1_555
H18 O15 0.998088 1_455
H18 K15 2.975405 1_555
H19 O6 0.996557 1_555
H19 K8 2.870770 1_555
H19 K14 2.971566 1_655
H20 O14 0.997335 1_555
H20 K8 3.058552 1_555
H21 O19 0.997335 1_555
H21 K7 3.058552 1_555
H22 O15 0.996557 1_555
H22 K13 2.870770 1_555
H22 K15 2.971566 1_655
H23 O4 0.997335 1_545
H23 K0 3.058552 1_555
H24 O46 0.996557 1_555
H24 K9 2.870770 1_555
H24 K0 2.971566 1_455
H25 O63 0.996557 1_555
H25 K7 2.870770 1_555
H25 K2 2.971566 1_555
H26 O45 1.005751 1_555
H27 O14 1.005751 1_555
H28 O72 1.005751 1_555
H29 O29 0.996557 1_555
H29 K14 2.870770 1_555
H29 K8 2.971566 1_555
H30 O30 1.005751 1_555
H31 O38 0.997335 1_565
H31 K2 3.058552 1_555
H32 O56 0.998088 1_655
H32 K7 2.975405 1_555
H33 O26 0.998088 1_555
H33 K13 2.975405 1_555
H34 O46 0.998088 1_655
H34 K0 2.975405 1_555
H35 O19 1.005751 1_555
H36 O65 0.997335 1_555
H36 K9 3.058552 1_555
H37 O6 0.998088 1_455
H37 K14 2.975405 1_555
H38 O16 1.020660 1_555
H38 O57 1.642282 1_555
H39 O8 1.020660 1_555
H39 O67 1.642282 1_555
C0 O58 1.269394 1_545
C0 O62 1.270324 1_555
C1 O51 1.269394 1_555
C1 O10 1.270324 1_555
C2 O0 1.262161 1_555
C2 O3 1.274088 1_555
C3 O52 1.269382 1_555
C3 O12 1.270330 1_555
C4 O40 1.269394 1_555
C4 O34 1.270324 1_555
C5 O55 1.269382 1_565
C5 O73 1.270330 1_555
C6 O17 1.262161 1_555
C6 O68 1.274088 1_555
C7 O59 1.269394 1_545
C7 O42 1.270324 1_555
C8 O64 1.262161 1_555
C8 O24 1.274088 1_555
C9 O13 1.262161 1_555
C9 O49 1.274088 1_555
C10 O22 1.262161 1_555
C10 O25 1.274088 1_555
C11 O9 1.262161 1_555
C11 O20 1.274088 1_555
C12 O2 1.262161 1_555
C12 O70 1.274088 1_555
C13 O43 1.262161 1_555
C13 O77 1.274088 1_555
C14 O44 1.269382 1_565
C14 O78 1.270330 1_555
C15 O75 1.269382 1_555
C15 O35 1.270330 1_555
O1 P3 1.621168 1_555
O5 P2 1.546380 1_556
O7 P0 1.535301 1_565
O8 P7 1.621168 1_555
O11 P6 1.621168 1_555
O16 P5 1.621168 1_555
O18 P4 1.535301 1_555
O21 P1 1.535301 1_545
O23 P0 1.560035 1_555
O27 P7 1.546380 1_555
O28 P2 1.535301 1_555
O31 P3 1.560035 1_555
O32 P3 1.535301 1_555
O33 P3 1.546380 1_555
O36 P5 1.546380 1_555
O37 P7 1.560035 1_555
O41 P1 1.560035 1_555
O47 P6 1.546380 1_555
O48 P4 1.546380 1_554
O50 P1 1.546380 1_554
O53 P2 1.621168 1_556
O54 P6 1.560035 1_555
O57 P7 1.535301 1_545
O60 P6 1.535301 1_555
O61 P0 1.621168 1_556
O66 P1 1.621168 1_554
O67 P5 1.535301 1_565
O69 P5 1.560035 1_555
O71 P4 1.560035 1_555
O74 P0 1.546380 1_556
O76 P2 1.560035 1_555
O79 P4 1.621168 1_554
