# generated using pymatgen
data_BaSiB
_symmetry_space_group_name_H-M   'P 1'
_cell_length_a   4.81292938
_cell_length_b   4.81292938
_cell_length_c   4.81292938
_cell_angle_alpha   60.00000000
_cell_angle_beta   60.00000000
_cell_angle_gamma   60.00000000
_symmetry_Int_Tables_number   1
_chemical_formula_structural   BaSiB
_chemical_formula_sum   'Ba1 Si1 B1'
_cell_volume   78.83398301
_cell_formula_units_Z   1
loop_
 _symmetry_equiv_pos_site_id
 _symmetry_equiv_pos_as_xyz
  1  'x, y, z'
loop_
 _atom_site_type_symbol
 _atom_site_label
 _atom_site_symmetry_multiplicity
 _atom_site_fract_x
 _atom_site_fract_y
 _atom_site_fract_z
 _atom_site_occupancy
  Ba  Ba0  1  0.50000000  0.50000000  0.50000000  1
  Si  Si0  1  0.75000000  0.75000000  0.75000000  1
  B  B0  1  0.00000000  0.00000000  0.00000000  1
loop_
_geom_bond_atom_site_label_1
_geom_bond_atom_site_label_2
_geom_bond_distance
_geom_bond_site_symmetry_2
Ba0 Si0 2.947305 1_455
Ba0 Si0 2.947305 1_545
Ba0 Si0 2.947305 1_555
Ba0 Si0 2.947305 1_554
B0 Ba0 3.403255 1_445
B0 Ba0 3.403255 1_544
B0 Ba0 3.403255 1_454
B0 Ba0 3.403255 1_554
B0 Ba0 3.403255 1_545
B0 Ba0 3.403255 1_455
