# generated using pymatgen
data_Cu7PSe6
_symmetry_space_group_name_H-M   'P 1'
_cell_length_a   10.11005200
_cell_length_b   10.14773893
_cell_length_c   10.17444567
_cell_angle_alpha   89.97532036
_cell_angle_beta   89.91297321
_cell_angle_gamma   89.87557543
_symmetry_Int_Tables_number   1
_chemical_formula_structural   Cu7PSe6
_chemical_formula_sum   'Cu28 P4 Se24'
_cell_volume   1043.83502966
_cell_formula_units_Z   4
loop_
 _symmetry_equiv_pos_site_id
 _symmetry_equiv_pos_as_xyz
  1  'x, y, z'
loop_
 _atom_site_type_symbol
 _atom_site_label
 _atom_site_symmetry_multiplicity
 _atom_site_fract_x
 _atom_site_fract_y
 _atom_site_fract_z
 _atom_site_occupancy
  Cu  Cu0  1  0.27204100  0.95659400  0.95339300  1
  Cu  Cu1  1  0.04600400  0.73119500  0.96552700  1
  Cu  Cu2  1  0.90000600  0.25911000  0.93268000  1
  Cu  Cu3  1  0.23833500  0.56682700  0.91055700  1
  Cu  Cu4  1  0.65512600  0.13833200  0.86675800  1
  Cu  Cu5  1  0.43407800  0.90262500  0.76580700  1
  Cu  Cu6  1  0.95169600  0.44721500  0.77537200  1
  Cu  Cu7  1  0.04185800  0.95387800  0.72706000  1
  Cu  Cu8  1  0.57260500  0.40546600  0.72717800  1
  Cu  Cu9  1  0.35707900  0.64133000  0.64174700  1
  Cu  Cu10  1  0.76921000  0.07573000  0.59088400  1
  Cu  Cu11  1  0.09323300  0.76376000  0.56588200  1
  Cu  Cu12  1  0.72426100  0.50726900  0.50628000  1
  Cu  Cu13  1  0.99494200  0.22449100  0.49061600  1
  Cu  Cu14  1  0.48492400  0.27567000  0.50119300  1
  Cu  Cu15  1  0.21930500  0.99877400  0.48820600  1
  Cu  Cu16  1  0.59882600  0.72938400  0.42317200  1
  Cu  Cu17  1  0.27177400  0.42388800  0.40226700  1
  Cu  Cu18  1  0.86330500  0.85444700  0.35261800  1
  Cu  Cu19  1  0.50021400  0.51253100  0.27566800  1
  Cu  Cu20  1  0.07326100  0.09049700  0.27748700  1
  Cu  Cu21  1  0.92737500  0.58847900  0.22241400  1
  Cu  Cu22  1  0.50394400  0.00966600  0.22492900  1
  Cu  Cu23  1  0.13866300  0.35647200  0.13664900  1
  Cu  Cu24  1  0.72231000  0.92576200  0.09136000  1
  Cu  Cu25  1  0.40555500  0.23470400  0.07589000  1
  Cu  Cu26  1  0.77802300  0.49599900  0.00785200  1
  Cu  Cu27  1  0.51288900  0.78188600  0.99874000  1
  P  P0  1  0.75476500  0.74750600  0.75356900  1
  P  P1  1  0.24387600  0.24604700  0.74718700  1
  P  P2  1  0.74654500  0.25275800  0.25300000  1
  P  P3  1  0.25254700  0.75357200  0.24660800  1
  Se  Se0  1  0.50544800  0.01802600  0.98985400  1
  Se  Se1  1  0.87330300  0.87372700  0.88718900  1
  Se  Se2  1  0.11184800  0.12506300  0.87441400  1
  Se  Se3  1  0.37628100  0.37203400  0.87329300  1
  Se  Se4  1  0.62450600  0.61175200  0.86901200  1
  Se  Se5  1  0.22654700  0.77035700  0.77309800  1
  Se  Se6  1  0.77122200  0.27174900  0.72684900  1
  Se  Se7  1  0.37225400  0.10929000  0.62907100  1
  Se  Se8  1  0.62779800  0.87514300  0.62237700  1
  Se  Se9  1  0.89026300  0.62513600  0.62853900  1
  Se  Se10  1  0.12654100  0.37495500  0.61307900  1
  Se  Se11  1  0.48757500  0.51116700  0.51095300  1
  Se  Se12  1  0.98211200  0.98778600  0.49365200  1
  Se  Se13  1  0.62859700  0.12682200  0.38979400  1
  Se  Se14  1  0.38879900  0.86910000  0.37513900  1
  Se  Se15  1  0.12493000  0.62185200  0.37171100  1
  Se  Se16  1  0.87437100  0.38965100  0.36810500  1
  Se  Se17  1  0.26787000  0.22812000  0.26921500  1
  Se  Se18  1  0.72999200  0.72697500  0.22420900  1
  Se  Se19  1  0.12673600  0.88984000  0.12821300  1
  Se  Se20  1  0.87434200  0.12055200  0.12815300  1
  Se  Se21  1  0.61119500  0.37048500  0.12435300  1
  Se  Se22  1  0.37354000  0.62807500  0.11076700  1
  Se  Se23  1  0.01415500  0.49608100  0.00480900  1
loop_
_geom_bond_atom_site_label_1
_geom_bond_atom_site_label_2
_geom_bond_distance
_geom_bond_site_symmetry_2
Cu0 Se19 2.403344 1_556
Cu0 Se0 2.470616 1_565
Cu0 Se2 2.486383 1_565
Cu0 Se5 2.675363 1_555
Cu1 Se1 2.401693 1_455
Cu1 Se23 2.440890 1_556
Cu1 Se19 2.451501 1_556
Cu1 Se5 2.704530 1_555
Cu2 Se20 2.448949 1_556
Cu2 Se6 2.470780 1_555
Cu2 Se2 2.602497 1_655
Cu2 Se23 2.769337 1_656
Cu3 Se3 2.446061 1_555
Cu3 Se5 2.496577 1_555
Cu3 Se22 2.533280 1_556
Cu3 Se23 2.563546 1_556
Cu4 Se6 2.288484 1_555
Cu4 Se0 2.312987 1_555
Cu5 Se8 2.456112 1_555
Cu5 Se5 2.494186 1_555
Cu5 Se7 2.592058 1_565
Cu5 Se0 2.664461 1_565
Cu6 Se9 2.423440 1_555
Cu6 Se23 2.469995 1_656
Cu6 Se10 2.524990 1_655
Cu6 Se6 2.600190 1_555
Cu7 Se2 2.403518 1_565
Cu7 Se12 2.475009 1_455
Cu7 Se1 2.493253 1_455
Cu7 Se5 2.675996 1_555
Cu8 Se6 2.421071 1_555
Cu8 Se3 2.501666 1_555
Cu8 Se11 2.594053 1_555
Cu8 Se4 2.597990 1_555
Cu9 Se5 2.287049 1_555
Cu9 Se11 2.290154 1_555
Cu10 Se6 2.423524 1_555
Cu10 Se8 2.510105 1_545
Cu10 Se12 2.528657 1_545
Cu10 Se13 2.545687 1_555
Cu11 Se15 2.465334 1_555
Cu11 Se5 2.505032 1_555
Cu11 Se9 2.569809 1_455
Cu11 Se12 2.638243 1_455
Cu12 Se16 2.385638 1_555
Cu12 Se11 2.393549 1_555
Cu12 Se9 2.410590 1_555
Cu13 Se10 2.381068 1_655
Cu13 Se12 2.405984 1_545
Cu13 Se16 2.417136 1_555
Cu14 Se13 2.379704 1_555
Cu14 Se11 2.392077 1_555
Cu14 Se7 2.417223 1_555
Cu15 Se7 2.391365 1_565
Cu15 Se12 2.401421 1_455
Cu15 Se14 2.444773 1_555
Cu16 Se18 2.418433 1_555
Cu16 Se8 2.527408 1_555
Cu16 Se14 2.597544 1_555
Cu16 Se11 2.640532 1_555
Cu17 Se17 2.404902 1_555
Cu17 Se15 2.514802 1_555
Cu17 Se11 2.604595 1_555
Cu17 Se10 2.644952 1_555
Cu18 Se18 2.282792 1_555
Cu18 Se12 2.312278 1_555
Cu19 Se21 2.386744 1_555
Cu19 Se11 2.397144 1_555
Cu19 Se22 2.414160 1_555
Cu20 Se17 2.416585 1_555
Cu20 Se20 2.540125 1_455
Cu20 Se19 2.596255 1_545
Cu20 Se12 2.601688 1_445
Cu21 Se18 2.438340 1_555
Cu21 Se15 2.534535 1_655
Cu21 Se23 2.557939 1_655
Cu21 Se16 2.560290 1_555
Cu22 Se14 2.392805 1_545
Cu22 Se0 2.393252 1_554
Cu22 Se13 2.414536 1_555
Cu23 Se17 2.284409 1_555
Cu23 Se23 2.320930 1_555
Cu24 Se18 2.428903 1_555
Cu24 Se20 2.534857 1_565
Cu24 Se0 2.597564 1_564
Cu24 Se1 2.629119 1_554
Cu25 Se17 2.408962 1_555
Cu25 Se3 2.505250 1_554
Cu25 Se21 2.545618 1_555
Cu25 Se0 2.571037 1_554
Cu26 Se23 2.387462 1_655
Cu26 Se4 2.404469 1_554
Cu26 Se21 2.423632 1_555
Cu27 Se22 2.392343 1_556
Cu27 Se0 2.398974 1_565
Cu27 Se4 2.446480 1_555
P0 Se1 2.222207 1_555
P0 Se4 2.239076 1_555
P0 Se9 2.241777 1_555
P0 Se8 2.259105 1_555
P1 Se2 2.228259 1_555
P1 Se10 2.230883 1_555
P1 Se7 2.245796 1_555
P1 Se3 2.255378 1_555
P2 Se16 2.232756 1_555
P2 Se13 2.234350 1_555
P2 Se21 2.238296 1_555
P2 Se20 2.252045 1_555
P3 Se19 2.230850 1_555
P3 Se14 2.235155 1_555
P3 Se22 2.240088 1_555
P3 Se15 2.252222 1_555
