# generated using pymatgen
data_Sn3(HO2)2
_symmetry_space_group_name_H-M   'P 1'
_cell_length_a   8.38189501
_cell_length_b   8.38189501
_cell_length_c   9.63485360
_cell_angle_alpha   86.57037401
_cell_angle_beta   86.57037401
_cell_angle_gamma   91.08526221
_symmetry_Int_Tables_number   1
_chemical_formula_structural   Sn3(HO2)2
_chemical_formula_sum   'Sn12 H8 O16'
_cell_volume   674.31311085
_cell_formula_units_Z   4
loop_
 _symmetry_equiv_pos_site_id
 _symmetry_equiv_pos_as_xyz
  1  'x, y, z'
loop_
 _atom_site_type_symbol
 _atom_site_label
 _atom_site_symmetry_multiplicity
 _atom_site_fract_x
 _atom_site_fract_y
 _atom_site_fract_z
 _atom_site_occupancy
  Sn  Sn0  1  0.61130700  0.70602900  0.51302000  1
  Sn  Sn1  1  0.86652700  0.22593200  0.03290600  1
  Sn  Sn2  1  0.35217300  0.24989400  0.45059300  1
  Sn  Sn3  1  0.11570700  0.78582800  0.99560400  1
  Sn  Sn4  1  0.22593200  0.86652700  0.53290600  1
  Sn  Sn5  1  0.70602900  0.61130700  0.01302000  1
  Sn  Sn6  1  0.78582800  0.11570700  0.49560400  1
  Sn  Sn7  1  0.24989400  0.35217300  0.95059300  1
  Sn  Sn8  1  0.54660000  0.97158800  0.23163700  1
  Sn  Sn9  1  0.99545800  0.50634500  0.26584100  1
  Sn  Sn10  1  0.50634500  0.99545800  0.76584100  1
  Sn  Sn11  1  0.97158800  0.54660000  0.73163700  1
  H  H0  1  0.82283000  0.82268000  0.25549600  1
  H  H1  1  0.67274000  0.34028300  0.24873800  1
  H  H2  1  0.24672000  0.02518100  0.27589900  1
  H  H3  1  0.29345800  0.56937100  0.13719500  1
  H  H4  1  0.34028300  0.67274000  0.74873800  1
  H  H5  1  0.82268000  0.82283000  0.75549600  1
  H  H6  1  0.56937100  0.29345800  0.63719500  1
  H  H7  1  0.02518100  0.24672000  0.77589900  1
  O  O0  1  0.75064700  0.87365300  0.32495600  1
  O  O1  1  0.74790800  0.40299900  0.18150600  1
  O  O2  1  0.20505400  0.07596400  0.35946000  1
  O  O3  1  0.21740400  0.64664500  0.16998800  1
  O  O4  1  0.40299900  0.74790800  0.68150600  1
  O  O5  1  0.87365300  0.75064700  0.82495600  1
  O  O6  1  0.64664500  0.21740400  0.66998800  1
  O  O7  1  0.07596400  0.20505400  0.85946000  1
  O  O8  1  0.43541700  0.82844400  0.40288600  1
  O  O9  1  0.07007600  0.34062600  0.11390300  1
  O  O10  1  0.57941500  0.16812800  0.36572800  1
  O  O11  1  0.90873400  0.69131100  0.11863900  1
  O  O12  1  0.34062600  0.07007600  0.61390300  1
  O  O13  1  0.82844400  0.43541700  0.90288600  1
  O  O14  1  0.69131100  0.90873400  0.61863900  1
  O  O15  1  0.16812800  0.57941500  0.86572800  1
loop_
_geom_bond_atom_site_label_1
_geom_bond_atom_site_label_2
_geom_bond_distance
_geom_bond_site_symmetry_2
H0 O0 0.996012 1_555
H1 O1 0.995384 1_555
H2 O2 0.982002 1_555
H3 O3 0.970438 1_555
H4 O4 0.995384 1_555
H5 O5 0.996012 1_555
H6 O6 0.970438 1_555
H7 O7 0.982002 1_555
O0 Sn8 2.134536 1_555
O0 Sn0 2.449773 1_555
O0 Sn6 2.709432 1_565
O1 Sn1 2.319689 1_555
O1 Sn5 2.357815 1_555
O1 Sn9 2.435945 1_555
O2 Sn2 2.152108 1_555
O2 Sn4 2.366564 1_545
O3 Sn3 2.210218 1_554
O3 Sn9 2.297452 1_455
O4 Sn4 2.319689 1_555
O4 Sn0 2.357815 1_555
O4 Sn10 2.435945 1_555
O5 Sn11 2.134536 1_555
O5 Sn5 2.449773 1_556
O5 Sn3 2.709432 1_655
O6 Sn6 2.210218 1_555
O6 Sn10 2.297452 1_545
O7 Sn7 2.152108 1_555
O7 Sn1 2.366564 1_456
O8 Sn0 2.113421 1_555
O8 Sn4 2.135469 1_555
O8 Sn8 2.137108 1_555
O9 Sn7 2.109354 1_554
O9 Sn9 2.151804 1_455
O9 Sn1 2.151979 1_455
O10 Sn2 2.167117 1_555
O10 Sn8 2.176839 1_545
O10 Sn6 2.230315 1_555
O11 Sn5 2.148807 1_555
O11 Sn3 2.152210 1_654
O11 Sn9 2.201473 1_555
O12 Sn2 2.109354 1_555
O12 Sn10 2.151804 1_545
O12 Sn4 2.151979 1_545
O13 Sn5 2.113421 1_556
O13 Sn1 2.135469 1_556
O13 Sn11 2.137108 1_555
O14 Sn0 2.148807 1_555
O14 Sn6 2.152210 1_565
O14 Sn10 2.201473 1_555
O15 Sn7 2.167117 1_555
O15 Sn11 2.176839 1_455
O15 Sn3 2.230315 1_555
