# generated using pymatgen
data_ThPb
_symmetry_space_group_name_H-M   'P 1'
_cell_length_a   6.49824192
_cell_length_b   6.49824192
_cell_length_c   6.49824192
_cell_angle_alpha   137.50134437
_cell_angle_beta   137.50134437
_cell_angle_gamma   61.66757751
_symmetry_Int_Tables_number   1
_chemical_formula_structural   ThPb
_chemical_formula_sum   'Th2 Pb2'
_cell_volume   123.79669942
_cell_formula_units_Z   2
loop_
 _symmetry_equiv_pos_site_id
 _symmetry_equiv_pos_as_xyz
  1  'x, y, z'
loop_
 _atom_site_type_symbol
 _atom_site_label
 _atom_site_symmetry_multiplicity
 _atom_site_fract_x
 _atom_site_fract_y
 _atom_site_fract_z
 _atom_site_occupancy
  Th  Th0  1  0.50000000  0.50000000  0.00000000  1
  Th  Th1  1  0.25000000  0.75000000  0.50000000  1
  Pb  Pb0  1  0.75000000  0.25000000  0.50000000  1
  Pb  Pb1  1  0.00000000  0.00000000  0.00000000  1
loop_
_geom_bond_atom_site_label_1
_geom_bond_atom_site_label_2
_geom_bond_distance
_geom_bond_site_symmetry_2
Th0 Th1 3.651045 1_555
Th0 Th1 3.651045 1_554
Th0 Th1 3.651045 1_544
Th0 Th1 3.651045 1_655
Pb0 Th1 3.330670 1_656
Pb0 Th1 3.330670 1_645
Pb0 Th1 3.330670 1_555
Pb0 Th1 3.330670 1_544
Pb0 Pb1 3.651045 1_655
Pb0 Pb1 3.651045 1_666
Pb0 Th0 3.651045 1_555
Pb0 Pb1 3.651045 1_656
Pb0 Th0 3.651045 1_545
Pb0 Th0 3.651045 1_556
Pb0 Pb1 3.651045 1_555
Pb0 Th0 3.651045 1_656
Pb1 Th0 3.330670 1_545
Pb1 Th0 3.330670 1_556
Pb1 Th0 3.330670 1_444
Pb1 Th0 3.330670 1_455
Pb1 Th1 3.651045 1_555
Pb1 Th1 3.651045 1_545
Pb1 Th1 3.651045 1_544
Pb1 Th1 3.651045 1_444
