# generated using pymatgen
data_KEuPS4
_symmetry_space_group_name_H-M   'P 1'
_cell_length_a   6.54061400
_cell_length_b   6.64549800
_cell_length_c   16.85893900
_cell_angle_alpha   90.00000000
_cell_angle_beta   90.00000000
_cell_angle_gamma   90.00000000
_symmetry_Int_Tables_number   1
_chemical_formula_structural   KEuPS4
_chemical_formula_sum   'K4 Eu4 P4 S16'
_cell_volume   732.78452709
_cell_formula_units_Z   4
loop_
 _symmetry_equiv_pos_site_id
 _symmetry_equiv_pos_as_xyz
  1  'x, y, z'
loop_
 _atom_site_type_symbol
 _atom_site_label
 _atom_site_symmetry_multiplicity
 _atom_site_fract_x
 _atom_site_fract_y
 _atom_site_fract_z
 _atom_site_occupancy
  K  K0  1  0.98144800  0.75000000  0.71172000  1
  K  K1  1  0.51855200  0.75000000  0.21172000  1
  K  K2  1  0.01855200  0.25000000  0.28828000  1
  K  K3  1  0.48144800  0.25000000  0.78828000  1
  Eu  Eu0  1  0.29195600  0.25000000  0.52203200  1
  Eu  Eu1  1  0.70804400  0.75000000  0.47796800  1
  Eu  Eu2  1  0.79195600  0.75000000  0.97796800  1
  Eu  Eu3  1  0.20804400  0.25000000  0.02203200  1
  P  P0  1  0.77914500  0.25000000  0.59807900  1
  P  P1  1  0.27914500  0.75000000  0.90192100  1
  P  P2  1  0.72085500  0.25000000  0.09807900  1
  P  P3  1  0.22085500  0.75000000  0.40192100  1
  S  S0  1  0.03468700  0.25000000  0.66770200  1
  S  S1  1  0.46531300  0.25000000  0.16770200  1
  S  S2  1  0.60042800  0.00167300  0.62138600  1
  S  S3  1  0.39957200  0.50167300  0.37861400  1
  S  S4  1  0.89957200  0.00167300  0.12138600  1
  S  S5  1  0.84424200  0.25000000  0.47802100  1
  S  S6  1  0.34424200  0.75000000  0.02197900  1
  S  S7  1  0.39957200  0.99832700  0.37861400  1
  S  S8  1  0.15575800  0.75000000  0.52197900  1
  S  S9  1  0.60042800  0.49832700  0.62138600  1
  S  S10  1  0.10042800  0.99832700  0.87861400  1
  S  S11  1  0.89957200  0.49832700  0.12138600  1
  S  S12  1  0.65575800  0.25000000  0.97802100  1
  S  S13  1  0.96531300  0.75000000  0.33229800  1
  S  S14  1  0.10042800  0.50167300  0.87861400  1
  S  S15  1  0.53468700  0.75000000  0.83229800  1
loop_
_geom_bond_atom_site_label_1
_geom_bond_atom_site_label_2
_geom_bond_distance
_geom_bond_site_symmetry_2
K0 S14 3.353447 1_655
K0 S10 3.353447 1_655
K0 S9 3.365583 1_555
K0 S2 3.365583 1_565
K0 S8 3.395930 1_655
K0 S0 3.422371 1_655
K0 S0 3.422371 1_665
K0 S15 3.559630 1_555
K1 S3 3.353447 1_555
K1 S7 3.353447 1_555
K1 S4 3.365583 1_565
K1 S11 3.365583 1_555
K1 S6 3.395930 1_555
K1 S1 3.422371 1_565
K1 S1 3.422371 1_555
K1 S13 3.559630 1_555
K2 S4 3.353447 1_455
K2 S11 3.353447 1_455
K2 S3 3.365583 1_555
K2 S7 3.365583 1_545
K2 S5 3.395930 1_455
K2 S13 3.422371 1_455
K2 S13 3.422371 1_445
K2 S1 3.559630 1_555
K3 S2 3.353447 1_555
K3 S9 3.353447 1_555
K3 S14 3.365583 1_555
K3 S10 3.365583 1_545
K3 S12 3.395930 1_555
K3 S15 3.422371 1_555
K3 S15 3.422371 1_545
K3 S0 3.559630 1_555
Eu0 S0 2.977017 1_555
Eu0 S5 3.020864 1_455
Eu0 S7 3.023043 1_545
Eu0 S3 3.023043 1_555
Eu0 S2 3.098335 1_555
Eu0 S9 3.098335 1_555
Eu0 S8 3.440090 1_545
Eu0 S8 3.440090 1_555
Eu1 S13 2.977017 1_555
Eu1 S8 3.020864 1_655
Eu1 S2 3.023043 1_565
Eu1 S9 3.023043 1_555
Eu1 S3 3.098335 1_555
Eu1 S7 3.098335 1_555
Eu1 S5 3.440090 1_555
Eu1 S5 3.440090 1_565
Eu2 S15 2.977017 1_555
Eu2 S6 3.020864 1_556
Eu2 S11 3.023043 1_556
Eu2 S4 3.023043 1_566
Eu2 S14 3.098335 1_655
Eu2 S10 3.098335 1_655
Eu2 S12 3.440090 1_565
Eu2 S12 3.440090 1_555
Eu3 S1 2.977017 1_555
Eu3 S12 3.020864 1_554
Eu3 S10 3.023043 1_544
Eu3 S14 3.023043 1_554
Eu3 S4 3.098335 1_455
Eu3 S11 3.098335 1_455
Eu3 S6 3.440090 1_545
Eu3 S6 3.440090 1_555
P0 S0 2.042381 1_655
P0 S2 2.060125 1_555
P0 S9 2.060125 1_555
P0 S5 2.068348 1_555
P1 S15 2.042381 1_555
P1 S10 2.060125 1_555
P1 S14 2.060125 1_555
P1 S6 2.068348 1_556
P2 S1 2.042381 1_555
P2 S11 2.060125 1_555
P2 S4 2.060125 1_555
P2 S12 2.068348 1_554
P3 S13 2.042381 1_455
P3 S7 2.060125 1_555
P3 S3 2.060125 1_555
P3 S8 2.068348 1_555
