# generated using pymatgen
data_Na7AlSn11(PO4)18
_symmetry_space_group_name_H-M   'P 1'
_cell_length_a   8.66417700
_cell_length_b   9.05622047
_cell_length_c   21.39993600
_cell_angle_alpha   92.06532851
_cell_angle_beta   89.89818183
_cell_angle_gamma   118.54669687
_symmetry_Int_Tables_number   1
_chemical_formula_structural   Na7AlSn11(PO4)18
_chemical_formula_sum   'Na7 Al1 Sn11 P18 O72'
_cell_volume   1473.81668458
_cell_formula_units_Z   1
loop_
 _symmetry_equiv_pos_site_id
 _symmetry_equiv_pos_as_xyz
  1  'x, y, z'
loop_
 _atom_site_type_symbol
 _atom_site_label
 _atom_site_symmetry_multiplicity
 _atom_site_fract_x
 _atom_site_fract_y
 _atom_site_fract_z
 _atom_site_occupancy
  Na  Na0  1  0.00274000  0.99909800  0.00206500  1
  Na  Na1  1  0.33291300  0.66686600  0.16626900  1
  Na  Na2  1  0.66666300  0.33326500  0.33318800  1
  Na  Na3  1  0.99997500  0.99993800  0.49987100  1
  Na  Na4  1  0.33309500  0.66685400  0.66683100  1
  Na  Na5  1  0.66072400  0.33127400  0.83389500  1
  Na  Na6  1  0.88801100  0.11639800  0.86922700  1
  Al  Al0  1  0.46191500  0.93506400  0.88322400  1
  Sn  Sn0  1  0.80770600  0.61239600  0.04735800  1
  Sn  Sn1  1  0.52976300  0.05962500  0.11700200  1
  Sn  Sn2  1  0.47257400  0.94506500  0.38175400  1
  Sn  Sn3  1  0.19710500  0.39412800  0.45063500  1
  Sn  Sn4  1  0.13614600  0.27267100  0.21588300  1
  Sn  Sn5  1  0.13930500  0.27922600  0.71556400  1
  Sn  Sn6  1  0.86085700  0.72145600  0.28470400  1
  Sn  Sn7  1  0.86386700  0.72576600  0.78440200  1
  Sn  Sn8  1  0.80303000  0.60612500  0.54914300  1
  Sn  Sn9  1  0.52684700  0.05482500  0.61767300  1
  Sn  Sn10  1  0.20079100  0.39607900  0.95291100  1
  P  P0  1  0.80584900  0.90265100  0.15244900  1
  P  P1  1  0.29250900  0.00063200  0.25020100  1
  P  P2  1  0.24103900  0.77026300  0.01101300  1
  P  P3  1  0.43111600  0.56897700  0.31933500  1
  P  P4  1  0.37499000  0.33318000  0.08320600  1
  P  P5  1  0.47244500  0.23632400  0.48567400  1
  P  P6  1  0.86020600  0.43009900  0.18063900  1
  P  P7  1  0.95902300  0.33388400  0.58350100  1
  P  P8  1  0.90226000  0.09753200  0.34728500  1
  P  P9  1  0.09732100  0.90232800  0.65284500  1
  P  P10  1  0.04083900  0.66615300  0.41641600  1
  P  P11  1  0.14678500  0.57699900  0.82053900  1
  P  P12  1  0.52733500  0.76375400  0.51413800  1
  P  P13  1  0.62478400  0.67568200  0.91595800  1
  P  P14  1  0.56905300  0.43078200  0.68051300  1
  P  P15  1  0.75796900  0.23092200  0.98457400  1
  P  P16  1  0.70021600  0.99595100  0.75061600  1
  P  P17  1  0.20306300  0.09512300  0.84797500  1
  O  O0  1  0.68969800  0.26051100  0.17433300  1
  O  O1  1  0.70074800  0.13254800  0.04501900  1
  O  O2  1  0.81796000  0.82810900  0.08760400  1
  O  O3  1  0.39141700  0.17145100  0.08483000  1
  O  O4  1  0.63791200  0.92215700  0.15502200  1
  O  O5  1  0.78434100  0.78207200  0.20443200  1
  O  O6  1  0.43632200  0.04127800  0.30061600  1
  O  O7  1  0.34848800  0.95426400  0.18698100  1
  O  O8  1  0.37030400  0.83841400  0.06813900  1
  O  O9  1  0.46834900  0.75183000  0.32954800  1
  O  O10  1  0.60017400  0.56112600  0.30176300  1
  O  O11  1  0.54640200  0.49002600  0.06715100  1
  O  O12  1  0.12102200  0.84370700  0.26613300  1
  O  O13  1  0.06959200  0.77531400  0.02942800  1
  O  O14  1  0.35672300  0.59434400  0.50788900  1
  O  O15  1  0.19780800  0.58382100  0.00420100  1
  O  O16  1  0.36730100  0.46505700  0.37843600  1
  O  O17  1  0.29655300  0.49684000  0.26432100  1
  O  O18  1  0.31831300  0.37937300  0.14634600  1
  O  O19  1  0.48434500  0.16159600  0.42095100  1
  O  O20  1  0.05815900  0.50470500  0.41818600  1
  O  O21  1  0.23033100  0.29196600  0.03275800  1
  O  O22  1  0.30448500  0.25571500  0.48827900  1
  O  O23  1  0.88185400  0.55137700  0.12872400  1
  O  O24  1  0.45067500  0.11540200  0.53758500  1
  O  O25  1  0.02860600  0.41106900  0.17845000  1
  O  O26  1  0.10292600  0.37446500  0.63400700  1
  O  O27  1  0.27493400  0.16201500  0.24859000  1
  O  O28  1  0.84881500  0.50471300  0.24560400  1
  O  O29  1  0.01502700  0.28753400  0.52027500  1
  O  O30  1  0.03663900  0.16965000  0.40241700  1
  O  O31  1  0.96630000  0.20171200  0.28829800  1
  O  O32  1  0.13475500  0.08554500  0.66296300  1
  O  O33  1  0.97661100  0.07211200  0.15877700  1
  O  O34  1  0.26633700  0.89451600  0.63502600  1
  O  O35  1  0.21251200  0.82308300  0.40071800  1
  O  O36  1  0.78765900  0.17695100  0.59957900  1
  O  O37  1  0.73328600  0.10554900  0.36499600  1
  O  O38  1  0.02204200  0.93185600  0.84104000  1
  O  O39  1  0.86497600  0.91465900  0.33714200  1
  O  O40  1  0.03355400  0.79849200  0.71191700  1
  O  O41  1  0.96314400  0.83024700  0.59766600  1
  O  O42  1  0.98505200  0.71253800  0.47974100  1
  O  O43  1  0.15592200  0.49923400  0.75537400  1
  O  O44  1  0.72584000  0.83872600  0.75168800  1
  O  O45  1  0.89693800  0.62561800  0.36611700  1
  O  O46  1  0.97409900  0.59035100  0.82160200  1
  O  O47  1  0.54884100  0.88462900  0.46226200  1
  O  O48  1  0.11470800  0.44409900  0.87051300  1
  O  O49  1  0.69541400  0.74448500  0.51175600  1
  O  O50  1  0.76825600  0.71298100  0.96677300  1
  O  O51  1  0.94156500  0.49522800  0.58188200  1
  O  O52  1  0.51557700  0.83833500  0.57896500  1
  O  O53  1  0.68261500  0.62363000  0.85367700  1
  O  O54  1  0.70332200  0.50225200  0.73565800  1
  O  O55  1  0.63298100  0.53490300  0.62148000  1
  O  O56  1  0.79732300  0.41503000  0.99488400  1
  O  O57  1  0.64322800  0.40547100  0.49215700  1
  O  O58  1  0.93323000  0.22859800  0.96723300  1
  O  O59  1  0.87719400  0.15557100  0.73785400  1
  O  O60  1  0.45700000  0.51358300  0.93228700  1
  O  O61  1  0.40014400  0.43899000  0.69817900  1
  O  O62  1  0.53139400  0.24771700  0.67031100  1
  O  O63  1  0.62981600  0.14844100  0.92866800  1
  O  O64  1  0.63650400  0.03297600  0.81381400  1
  O  O65  1  0.56205400  0.95823400  0.69868900  1
  O  O66  1  0.21791600  0.21530100  0.79604000  1
  O  O67  1  0.36284500  0.06710200  0.84871300  1
  O  O68  1  0.60131900  0.83245700  0.91076700  1
  O  O69  1  0.17880200  0.17241300  0.91136100  1
  O  O70  1  0.31271300  0.86827500  0.95192700  1
  O  O71  1  0.31249500  0.74497300  0.83167800  1
loop_
_geom_bond_atom_site_label_1
_geom_bond_atom_site_label_2
_geom_bond_distance
_geom_bond_site_symmetry_2
Na0 O13 2.448326 1_555
Na0 O2 2.477157 1_455
Na0 O21 2.496961 1_565
Na0 O50 2.498999 1_454
Na0 O69 2.545382 1_564
Na0 O58 2.558841 1_464
Na1 O7 2.563259 1_555
Na1 O18 2.565525 1_555
Na1 O4 2.566117 1_555
Na1 O25 2.566996 1_555
Na1 O17 2.576822 1_555
Na1 O8 2.584600 1_555
Na2 O28 2.504340 1_555
Na2 O10 2.505981 1_555
Na2 O6 2.507868 1_555
Na2 O37 2.507926 1_555
Na2 O19 2.508459 1_555
Na2 O45 2.511757 1_555
Na3 O42 2.564057 1_555
Na3 O30 2.564083 1_665
Na3 O29 2.566097 1_665
Na3 O49 2.566188 1_555
Na3 O22 2.566333 1_665
Na3 O41 2.569833 1_555
Na4 O43 2.494180 1_555
Na4 O65 2.497073 1_555
Na4 O34 2.508176 1_555
Na4 O61 2.508546 1_555
Na4 O52 2.510041 1_555
Na4 O26 2.511159 1_555
Na5 O67 2.575959 1_555
Na5 O54 2.576625 1_555
Na5 O53 2.581614 1_555
Na5 O63 2.596724 1_555
Na5 O46 2.626696 1_555
Na5 O64 2.627050 1_555
Na6 O58 2.248014 1_555
Na6 O64 2.257570 1_555
Na6 O69 2.484274 1_655
Na6 O38 2.507035 1_645
Na6 O48 2.662563 1_655
Na6 O63 2.700070 1_555
Na6 O68 2.761296 1_545
Na6 O59 2.853605 1_555
Al0 O70 1.873125 1_555
Al0 O71 1.895922 1_555
Al0 O67 1.938802 1_565
Al0 O68 1.945355 1_555
Al0 O63 1.994738 1_565
Al0 O64 2.021324 1_565
O0 P6 1.541654 1_555
O0 Sn1 2.042277 1_555
O1 P15 1.539910 1_554
O1 Sn1 2.033198 1_555
O2 P0 1.546623 1_555
O2 Sn0 2.068604 1_555
O3 P4 1.539349 1_555
O3 Sn1 2.037094 1_555
O4 P0 1.547915 1_555
O4 Sn1 2.068939 1_565
O5 P0 1.535255 1_555
O5 Sn6 2.027703 1_555
O6 P1 1.545908 1_555
O6 Sn2 2.060418 1_545
O7 P1 1.547026 1_565
O7 Sn1 2.069347 1_565
O8 P2 1.555503 1_555
O8 Sn1 2.055331 1_565
O9 P3 1.535457 1_555
O9 Sn2 2.027292 1_555
O10 P3 1.545186 1_555
O10 Sn6 2.060037 1_555
O11 P4 1.535737 1_555
O11 Sn0 2.040991 1_555
O12 P1 1.535745 1_565
O12 Sn6 2.026839 1_455
O13 P2 1.557404 1_555
O13 Sn0 2.076212 1_455
O14 P12 1.541163 1_555
O14 Sn3 2.037336 1_555
O15 P2 1.546108 1_555
O15 Sn10 2.000895 1_554
O16 P3 1.541755 1_555
O16 Sn3 2.032834 1_555
O17 P3 1.547118 1_555
O17 Sn4 2.069842 1_555
O18 P4 1.547611 1_555
O18 Sn4 2.068070 1_555
O19 P5 1.544557 1_555
O19 Sn2 2.061540 1_545
O20 P10 1.541242 1_555
O20 Sn3 2.034596 1_555
O21 P4 1.550601 1_555
O21 Sn10 2.054886 1_554
O22 P5 1.547548 1_555
O22 Sn3 2.067808 1_555
O23 P6 1.538207 1_555
O23 Sn0 2.040242 1_555
O24 P5 1.535714 1_555
O24 Sn9 2.022801 1_555
O25 P6 1.549263 1_455
O25 Sn4 2.066865 1_555
O26 P7 1.547896 1_455
O26 Sn5 2.063897 1_555
O27 P1 1.541677 1_555
O27 Sn4 2.036022 1_555
O28 P6 1.547470 1_555
O28 Sn6 2.061572 1_555
O29 P7 1.547169 1_455
O29 Sn3 2.069150 1_555
O30 P8 1.548119 1_455
O30 Sn3 2.069553 1_555
O31 P8 1.540936 1_555
O31 Sn4 2.034662 1_655
O32 P9 1.537925 1_545
O32 Sn5 2.033961 1_555
O33 P0 1.542128 1_545
O33 Sn4 2.037041 1_655
O34 P9 1.545938 1_555
O34 Sn9 2.060136 1_565
O35 P10 1.535351 1_555
O35 Sn2 2.027843 1_555
O36 P7 1.536016 1_555
O36 Sn9 2.029435 1_555
O37 P8 1.545935 1_555
O37 Sn2 2.059207 1_545
O38 P17 1.561001 1_565
O38 Sn7 2.056422 1_455
O39 P8 1.535344 1_565
O39 Sn6 2.029998 1_555
O40 P9 1.540849 1_555
O40 Sn7 2.035063 1_455
O41 P9 1.547895 1_655
O41 Sn8 2.069903 1_555
O42 P10 1.548295 1_655
O42 Sn8 2.064934 1_555
O43 P11 1.558542 1_555
O43 Sn5 2.078524 1_555
O44 P16 1.543276 1_555
O44 Sn7 2.047100 1_555
O45 P10 1.544898 1_655
O45 Sn6 2.063165 1_555
O46 P11 1.557656 1_655
O46 Sn7 2.059688 1_555
O47 P12 1.535367 1_555
O47 Sn2 2.030307 1_555
O48 P11 1.562546 1_555
O48 Sn10 2.055385 1_555
O49 P12 1.547817 1_555
O49 Sn8 2.066662 1_555
O50 P13 1.555266 1_555
O50 Sn0 2.081694 1_556
O51 P7 1.540776 1_555
O51 Sn8 2.036177 1_555
O52 P12 1.545600 1_555
O52 Sn9 2.059086 1_565
O53 P13 1.558120 1_555
O53 Sn7 2.054687 1_555
O54 P14 1.547606 1_555
O54 Sn7 2.069355 1_555
O55 P14 1.541449 1_555
O55 Sn8 2.034374 1_555
O56 P15 1.541203 1_555
O56 Sn0 2.041044 1_556
O57 P5 1.540883 1_555
O57 Sn8 2.036639 1_555
O58 P15 1.572245 1_555
O58 Sn10 2.106880 1_655
O59 P16 1.556893 1_545
O59 Sn5 2.059846 1_655
O60 P13 1.544657 1_555
O60 Sn10 2.006877 1_555
O61 P14 1.546006 1_555
O61 Sn5 2.061523 1_555
O62 P14 1.536178 1_555
O62 Sn9 2.028437 1_555
O63 P15 1.539407 1_555
O64 P16 1.545247 1_545
O65 P16 1.539820 1_555
O65 Sn9 2.056769 1_565
O66 P17 1.545679 1_555
O66 Sn5 2.053737 1_555
O67 P17 1.522261 1_555
O68 P13 1.535187 1_555
O69 P17 1.563735 1_555
O69 Sn10 2.105184 1_555
O70 P2 1.524333 1_556
O71 P11 1.523127 1_555
