# generated using pymatgen
data_Fe(PO3)2
_symmetry_space_group_name_H-M   'P 1'
_cell_length_a   7.28055186
_cell_length_b   7.28055186
_cell_length_c   9.98563436
_cell_angle_alpha   66.40496202
_cell_angle_beta   66.40496202
_cell_angle_gamma   69.34458541
_symmetry_Int_Tables_number   1
_chemical_formula_structural   Fe(PO3)2
_chemical_formula_sum   'Fe4 P8 O24'
_cell_volume   432.66076893
_cell_formula_units_Z   4
loop_
 _symmetry_equiv_pos_site_id
 _symmetry_equiv_pos_as_xyz
  1  'x, y, z'
loop_
 _atom_site_type_symbol
 _atom_site_label
 _atom_site_symmetry_multiplicity
 _atom_site_fract_x
 _atom_site_fract_y
 _atom_site_fract_z
 _atom_site_occupancy
  Fe  Fe0  1  0.94796314  0.05203686  0.75000000  1
  Fe  Fe1  1  0.05203686  0.94796314  0.25000000  1
  Fe  Fe2  1  -0.00000000  0.50000000  0.50000000  1
  Fe  Fe3  1  0.50000000  0.00000000  -0.00000000  1
  P  P0  1  0.69977560  0.68897651  0.80190959  1
  P  P1  1  0.74777037  0.27193970  0.02264860  1
  P  P2  1  0.72806030  0.25222963  0.47735140  1
  P  P3  1  0.25222963  0.72806030  0.97735140  1
  P  P4  1  0.30022440  0.31102349  0.19809041  1
  P  P5  1  0.27193970  0.74777037  0.52264860  1
  P  P6  1  0.68897651  0.69977560  0.30190959  1
  P  P7  1  0.31102349  0.30022440  0.69809041  1
  O  O0  1  0.19450937  0.35193204  0.34690346  1
  O  O1  1  0.87772889  0.71851717  0.31688781  1
  O  O2  1  0.08248264  0.84167707  0.91096222  1
  O  O3  1  0.64806796  0.80549063  0.15309654  1
  O  O4  1  0.71452397  0.19241503  0.91814009  1
  O  O5  1  0.53737996  0.30299281  0.15715492  1
  O  O6  1  0.35193204  0.19450937  0.84690346  1
  O  O7  1  0.28148283  0.12227111  0.18311219  1
  O  O8  1  0.77310484  0.50243235  0.93633336  1
  O  O9  1  0.30299281  0.53737996  0.65715492  1
  O  O10  1  0.50243235  0.77310484  0.43633336  1
  O  O11  1  0.12227111  0.28148283  0.68311219  1
  O  O12  1  0.84167707  0.08248264  0.41096222  1
  O  O13  1  0.15832293  0.91751736  0.58903778  1
  O  O14  1  0.69700719  0.46262004  0.34284508  1
  O  O15  1  0.80758497  0.28547603  0.58185991  1
  O  O16  1  0.71851717  0.87772889  0.81688781  1
  O  O17  1  0.22689516  0.49756765  0.06366664  1
  O  O18  1  0.91751736  0.15832293  0.08903778  1
  O  O19  1  0.28547603  0.80758497  0.08185991  1
  O  O20  1  0.46262004  0.69700719  0.84284508  1
  O  O21  1  0.19241503  0.71452397  0.41814009  1
  O  O22  1  0.49756765  0.22689516  0.56366664  1
  O  O23  1  0.80549063  0.64806796  0.65309654  1
loop_
_geom_bond_atom_site_label_1
_geom_bond_atom_site_label_2
_geom_bond_distance
_geom_bond_site_symmetry_2
Fe0 O2 2.029667 1_645
Fe0 O13 2.029667 1_645
Fe0 O4 2.148475 1_555
Fe0 O15 2.148475 1_555
Fe0 O16 2.184267 1_545
Fe0 O11 2.184267 1_655
Fe1 O18 2.029667 1_465
Fe1 O12 2.029667 1_465
Fe1 O21 2.148475 1_555
Fe1 O19 2.148475 1_555
Fe1 O7 2.184267 1_565
Fe1 O1 2.184267 1_455
Fe2 O23 2.003463 1_455
Fe2 O0 2.003463 1_555
Fe2 O1 2.154536 1_455
Fe2 O11 2.154536 1_555
Fe2 O21 2.162152 1_555
Fe2 O15 2.162152 1_455
Fe3 O6 2.003463 1_554
Fe3 O3 2.003463 1_545
Fe3 O16 2.154536 1_544
Fe3 O7 2.154536 1_555
Fe3 O4 2.162152 1_554
Fe3 O19 2.162152 1_545
O0 P4 1.471821 1_555
O1 P6 1.497545 1_555
O2 P3 1.465171 1_555
O3 P6 1.471821 1_555
O4 P1 1.505877 1_556
O5 P4 1.592055 1_555
O5 P1 1.597868 1_555
O6 P7 1.471821 1_555
O7 P4 1.497545 1_555
O8 P1 1.589399 1_556
O8 P0 1.591884 1_555
O9 P7 1.592055 1_555
O9 P5 1.597868 1_555
O10 P5 1.589399 1_555
O10 P6 1.591884 1_555
O11 P7 1.497545 1_555
O12 P2 1.465171 1_555
O13 P5 1.465171 1_555
O14 P6 1.592055 1_555
O14 P2 1.597868 1_555
O15 P2 1.505877 1_555
O16 P0 1.497545 1_555
O17 P3 1.589399 1_554
O17 P4 1.591884 1_555
O18 P1 1.465171 1_555
O19 P3 1.505877 1_554
O20 P0 1.592055 1_555
O20 P3 1.597868 1_555
O21 P5 1.505877 1_555
O22 P2 1.589399 1_555
O22 P7 1.591884 1_555
O23 P0 1.471821 1_555
