# generated using pymatgen
data_Al2O3
_symmetry_space_group_name_H-M   'P 1'
_cell_length_a   5.62966300
_cell_length_b   5.65178814
_cell_length_c   14.08402330
_cell_angle_alpha   89.61524122
_cell_angle_beta   90.83776566
_cell_angle_gamma   119.77099035
_symmetry_Int_Tables_number   1
_chemical_formula_structural   Al2O3
_chemical_formula_sum   'Al16 O24'
_cell_volume   388.93471520
_cell_formula_units_Z   8
loop_
 _symmetry_equiv_pos_site_id
 _symmetry_equiv_pos_as_xyz
  1  'x, y, z'
loop_
 _atom_site_type_symbol
 _atom_site_label
 _atom_site_symmetry_multiplicity
 _atom_site_fract_x
 _atom_site_fract_y
 _atom_site_fract_z
 _atom_site_occupancy
  Al  Al0  1  0.16024700  0.33054600  0.16966600  1
  Al  Al1  1  0.16250500  0.83740500  0.03412200  1
  Al  Al2  1  0.65939500  0.84984300  0.04708700  1
  Al  Al3  1  0.66148100  0.32021900  0.04842700  1
  Al  Al4  1  0.49250000  0.99046400  0.37775700  1
  Al  Al5  1  0.99450000  0.49204900  0.37689600  1
  Al  Al6  1  0.82836900  0.66576400  0.21303400  1
  Al  Al7  1  0.84229900  0.66478400  0.57925800  1
  Al  Al8  1  0.96865000  0.01034400  0.75771100  1
  Al  Al9  1  0.99381400  0.99408500  0.37640900  1
  Al  Al10  1  0.14396000  0.30837100  0.54913800  1
  Al  Al11  1  0.49174200  0.49193500  0.37845600  1
  Al  Al12  1  0.47748100  0.20541600  0.70182000  1
  Al  Al13  1  0.47339300  0.49017200  0.88198400  1
  Al  Al14  1  0.31310000  0.67446500  0.70733700  1
  Al  Al15  1  0.52938400  0.03072700  0.88134900  1
  O  O0  1  0.47203300  0.98911600  0.11057200  1
  O  O1  1  0.51255600  0.50869500  0.13388400  1
  O  O2  1  0.66671400  0.34541200  0.30775100  1
  O  O3  1  0.66682000  0.81806300  0.30686000  1
  O  O4  1  0.82882500  0.66164100  0.45317600  1
  O  O5  1  0.97918200  0.50643600  0.13252500  1
  O  O6  1  0.97870000  0.97706700  0.13166800  1
  O  O7  1  0.01876900  0.00237700  0.62699700  1
  O  O8  1  0.85054000  0.16983300  0.44844300  1
  O  O9  1  0.13463600  0.81472200  0.30548500  1
  O  O10  1  0.20324000  0.36085000  0.78122800  1
  O  O11  1  0.02834100  0.50404700  0.61815400  1
  O  O12  1  0.15569100  0.32417900  0.29829000  1
  O  O13  1  0.31642600  0.16587500  0.44759100  1
  O  O14  1  0.31969100  0.64257700  0.44543900  1
  O  O15  1  0.35142700  0.69639300  0.95749100  1
  O  O16  1  0.20872500  0.88918100  0.78199000  1
  O  O17  1  0.49300600  0.47058300  0.62085600  1
  O  O18  1  0.34895900  0.17364200  0.96080500  1
  O  O19  1  0.64100500  0.82121100  0.80827900  1
  O  O20  1  0.53454500  0.97367200  0.64211600  1
  O  O21  1  0.65583100  0.34594100  0.81033700  1
  O  O22  1  0.80443200  0.15742000  0.97272200  1
  O  O23  1  0.80375200  0.65781100  0.98355700  1
loop_
_geom_bond_atom_site_label_1
_geom_bond_atom_site_label_2
_geom_bond_distance
_geom_bond_site_symmetry_2
Al0 O1 1.800224 1_555
Al0 O12 1.811963 1_555
Al0 O5 1.812348 1_455
Al0 O6 1.814614 1_445
Al1 O0 1.845195 1_555
Al1 O23 1.883698 1_454
Al1 O18 1.950332 1_564
Al1 O15 1.953981 1_554
Al1 O6 2.109141 1_455
Al1 O5 2.138870 1_455
Al2 O22 1.837539 1_564
Al2 O0 1.842054 1_555
Al2 O23 1.883929 1_554
Al2 O15 1.951383 1_554
Al2 O6 1.957722 1_555
Al2 O1 2.076143 1_555
Al3 O22 1.845182 1_554
Al3 O0 1.851679 1_545
Al3 O23 1.896594 1_554
Al3 O5 1.948060 1_555
Al3 O18 1.951281 1_554
Al3 O1 2.054225 1_555
Al4 O14 1.955345 1_555
Al4 O3 1.975049 1_555
Al4 O13 1.987523 1_565
Al4 O2 2.001568 1_565
Al4 O8 2.001823 1_565
Al4 O9 2.011935 1_555
Al5 O14 1.849292 1_655
Al5 O2 1.865473 1_555
Al5 O8 1.876747 1_555
Al5 O9 1.878709 1_655
Al5 O12 1.961567 1_655
Al5 O4 1.968182 1_555
Al6 O1 1.892008 1_555
Al6 O5 1.902245 1_555
Al6 O6 1.909871 1_555
Al6 O9 1.970928 1_655
Al6 O3 2.035213 1_555
Al6 O2 2.062196 1_555
Al7 O11 1.773061 1_655
Al7 O4 1.776084 1_555
Al7 O7 1.787405 1_665
Al7 O17 1.815596 1_555
Al8 O19 1.767009 1_545
Al8 O10 1.782161 1_655
Al8 O16 1.820706 1_645
Al8 O7 1.870765 1_655
Al9 O13 1.858760 1_665
Al9 O3 1.865384 1_555
Al9 O9 1.867825 1_655
Al9 O8 1.870710 1_565
Al9 O4 1.957286 1_555
Al9 O12 1.958293 1_665
Al10 O11 1.827386 1_555
Al10 O7 1.864609 1_555
Al10 O17 1.971652 1_555
Al10 O8 2.003735 1_455
Al10 O13 2.114081 1_555
Al10 O14 2.197515 1_555
Al11 O14 1.846476 1_555
Al11 O2 1.870170 1_555
Al11 O13 1.875098 1_555
Al11 O3 1.893578 1_555
Al11 O4 1.943240 1_555
Al11 O12 1.980773 1_555
Al12 O20 1.722295 1_545
Al12 O21 1.776033 1_555
Al12 O17 1.844942 1_555
Al12 O16 2.023837 1_545
Al13 O21 1.900097 1_555
Al13 O18 1.917034 1_555
Al13 O10 1.925586 1_555
Al13 O19 1.928163 1_555
Al13 O15 1.947698 1_555
Al13 O23 2.143265 1_555
Al14 O20 1.782322 1_555
Al14 O11 1.870643 1_555
Al14 O10 1.874205 1_555
Al14 O16 1.914868 1_555
Al14 O19 2.129644 1_555
Al14 O17 2.247442 1_555
Al15 O21 1.848871 1_555
Al15 O22 1.849190 1_555
Al15 O19 1.905352 1_545
Al15 O18 1.948474 1_555
Al15 O15 1.961756 1_545
Al15 O16 2.089023 1_545
