# generated using pymatgen
data_InAgTe2
_symmetry_space_group_name_H-M   'P 1'
_cell_length_a   4.78978433
_cell_length_b   4.78978433
_cell_length_c   43.90969800
_cell_angle_alpha   90.00000000
_cell_angle_beta   90.00000000
_cell_angle_gamma   120.00000451
_symmetry_Int_Tables_number   1
_chemical_formula_structural   InAgTe2
_chemical_formula_sum   'In6 Ag6 Te12'
_cell_volume   872.41470895
_cell_formula_units_Z   6
loop_
 _symmetry_equiv_pos_site_id
 _symmetry_equiv_pos_as_xyz
  1  'x, y, z'
loop_
 _atom_site_type_symbol
 _atom_site_label
 _atom_site_symmetry_multiplicity
 _atom_site_fract_x
 _atom_site_fract_y
 _atom_site_fract_z
 _atom_site_occupancy
  In  In0  1  0.33333300  0.66666700  0.01031700  1
  In  In1  1  0.00000000  0.00000000  0.91810400  1
  In  In2  1  0.66666700  0.33333300  0.83156000  1
  In  In3  1  0.33333300  0.66666700  0.74758000  1
  In  In4  1  0.66666700  0.33333300  0.57593800  1
  In  In5  1  0.00000000  0.00000000  0.66295600  1
  Ag  Ag0  1  0.00000000  0.00000000  0.41359700  1
  Ag  Ag1  1  0.33333300  0.66666700  0.48838900  1
  Ag  Ag2  1  0.66666700  0.33333300  0.33160900  1
  Ag  Ag3  1  0.00000000  0.00000000  0.16700200  1
  Ag  Ag4  1  0.33333300  0.66666700  0.24931500  1
  Ag  Ag5  1  0.66666700  0.33333300  0.08570800  1
  Te  Te0  1  0.00000000  0.00000000  0.98499400  1
  Te  Te1  1  0.66666700  0.33333300  0.89893300  1
  Te  Te2  1  0.33333300  0.66666700  0.81487900  1
  Te  Te3  1  0.00000000  0.00000000  0.73010500  1
  Te  Te4  1  0.66666700  0.33333300  0.64347300  1
  Te  Te5  1  0.33333300  0.66666700  0.55411700  1
  Te  Te6  1  0.00000000  0.00000000  0.47722100  1
  Te  Te7  1  0.66666700  0.33333300  0.39572900  1
  Te  Te8  1  0.33333300  0.66666700  0.31358000  1
  Te  Te9  1  0.00000000  0.00000000  0.23160700  1
  Te  Te10  1  0.66666700  0.33333300  0.15042300  1
  Te  Te11  1  0.33333300  0.66666700  0.07286100  1
loop_
_geom_bond_atom_site_label_1
_geom_bond_atom_site_label_2
_geom_bond_distance
_geom_bond_site_symmetry_2
In0 Te11 2.746288 1_555
In0 Te0 2.980555 1_564
In0 Te0 2.980559 1_664
In0 Te0 2.980559 1_554
In1 Te1 2.890665 1_455
In1 Te1 2.890669 1_555
In1 Te1 2.890669 1_445
In1 Te0 2.937120 1_555
In2 Te2 2.860738 1_655
In2 Te2 2.860738 1_545
In2 Te2 2.860746 1_555
In2 Te1 2.958328 1_555
In3 Te3 2.869863 1_565
In3 Te3 2.869867 1_665
In3 Te3 2.869867 1_555
In3 Te2 2.955079 1_555
In4 Te5 2.926668 1_655
In4 Te5 2.926668 1_545
In4 Te5 2.926676 1_555
In4 Te4 2.965441 1_555
In5 Te4 2.894684 1_455
In5 Te4 2.894688 1_445
In5 Te4 2.894688 1_555
In5 Te3 2.948492 1_555
Ag0 Te6 2.793711 1_555
Ag0 Te7 2.874525 1_455
Ag0 Te7 2.874529 1_445
Ag0 Te7 2.874529 1_555
Ag1 Te6 2.808524 1_565
Ag1 Te6 2.808528 1_555
Ag1 Te6 2.808528 1_665
Ag1 Te5 2.886097 1_555
Ag2 Te7 2.815490 1_555
Ag2 Te8 2.876462 1_545
Ag2 Te8 2.876462 1_655
Ag2 Te8 2.876470 1_555
Ag3 Te9 2.836786 1_555
Ag3 Te10 2.859595 1_455
Ag3 Te10 2.859599 1_555
Ag3 Te10 2.859599 1_445
Ag4 Te8 2.821857 1_555
Ag4 Te9 2.872615 1_565
Ag4 Te9 2.872619 1_665
Ag4 Te9 2.872619 1_555
Ag5 Te11 2.822330 1_545
Ag5 Te11 2.822330 1_655
Ag5 Te11 2.822338 1_555
Ag5 Te10 2.841616 1_555
