# generated using pymatgen
data_TeS7Br2
_symmetry_space_group_name_H-M   'P 1'
_cell_length_a   9.76024600
_cell_length_b   12.01441400
_cell_length_c   13.71162500
_cell_angle_alpha   90.00000000
_cell_angle_beta   90.00000000
_cell_angle_gamma   90.00000000
_symmetry_Int_Tables_number   1
_chemical_formula_structural   TeS7Br2
_chemical_formula_sum   'Te4 S28 Br8'
_cell_volume   1607.87500552
_cell_formula_units_Z   4
loop_
 _symmetry_equiv_pos_site_id
 _symmetry_equiv_pos_as_xyz
  1  'x, y, z'
loop_
 _atom_site_type_symbol
 _atom_site_label
 _atom_site_symmetry_multiplicity
 _atom_site_fract_x
 _atom_site_fract_y
 _atom_site_fract_z
 _atom_site_occupancy
  Te  Te0  1  0.29589900  0.75000000  0.40302900  1
  Te  Te1  1  0.20410100  0.25000000  0.90302900  1
  Te  Te2  1  0.79589900  0.75000000  0.09697100  1
  Te  Te3  1  0.70410100  0.25000000  0.59697100  1
  S  S0  1  0.74716300  0.25000000  0.22678700  1
  S  S1  1  0.84658100  0.38919700  0.27793200  1
  S  S2  1  0.15341900  0.88919700  0.72206800  1
  S  S3  1  0.34658100  0.11080300  0.22206800  1
  S  S4  1  0.15341900  0.61080300  0.72206800  1
  S  S5  1  0.23782700  0.04181500  0.10569700  1
  S  S6  1  0.73782700  0.04181500  0.39430300  1
  S  S7  1  0.67128500  0.91204400  0.01971200  1
  S  S8  1  0.82871500  0.41204400  0.51971200  1
  S  S9  1  0.76217300  0.54181500  0.89430300  1
  S  S10  1  0.65341900  0.61080300  0.77793200  1
  S  S11  1  0.26217300  0.54181500  0.60569700  1
  S  S12  1  0.32871500  0.41204400  0.98028800  1
  S  S13  1  0.17128500  0.91204400  0.48028800  1
  S  S14  1  0.25283700  0.75000000  0.77321300  1
  S  S15  1  0.32871500  0.08795600  0.98028800  1
  S  S16  1  0.24716300  0.25000000  0.27321300  1
  S  S17  1  0.73782700  0.45818500  0.39430300  1
  S  S18  1  0.75283700  0.75000000  0.72678700  1
  S  S19  1  0.67128500  0.58795600  0.01971200  1
  S  S20  1  0.26217300  0.95818500  0.60569700  1
  S  S21  1  0.84658100  0.11080300  0.27793200  1
  S  S22  1  0.23782700  0.45818500  0.10569700  1
  S  S23  1  0.76217300  0.95818500  0.89430300  1
  S  S24  1  0.82871500  0.08795600  0.51971200  1
  S  S25  1  0.17128500  0.58795600  0.48028800  1
  S  S26  1  0.34658100  0.38919700  0.22206800  1
  S  S27  1  0.65341900  0.88919700  0.77793200  1
  Br  Br0  1  0.93418000  0.25000000  0.70678300  1
  Br  Br1  1  0.56582000  0.75000000  0.20678300  1
  Br  Br2  1  0.49573800  0.75000000  0.52867100  1
  Br  Br3  1  0.00426200  0.25000000  0.02867100  1
  Br  Br4  1  0.43418000  0.25000000  0.79321700  1
  Br  Br5  1  0.99573800  0.75000000  0.97132900  1
  Br  Br6  1  0.50426200  0.25000000  0.47132900  1
  Br  Br7  1  0.06582000  0.75000000  0.29321700  1
loop_
_geom_bond_atom_site_label_1
_geom_bond_atom_site_label_2
_geom_bond_distance
_geom_bond_site_symmetry_2
S0 S1 2.056741 1_555
S0 S21 2.056741 1_555
S1 S17 2.088003 1_555
S2 S20 2.088003 1_555
S3 S5 2.088003 1_555
S7 Te2 2.528199 1_555
S8 Te3 2.528199 1_555
S10 S18 2.056741 1_555
S10 S9 2.088003 1_555
S11 S25 2.012742 1_555
S11 S4 2.088003 1_555
S12 S22 2.012742 1_556
S12 Te1 2.528199 1_555
S13 S20 2.012742 1_555
S13 Te0 2.528199 1_555
S14 S4 2.056741 1_555
S14 S2 2.056741 1_555
S15 S5 2.012742 1_556
S15 Te1 2.528199 1_555
S16 S26 2.056741 1_555
S16 S3 2.056741 1_555
S17 S8 2.012742 1_555
S18 S27 2.056741 1_555
S19 S9 2.012742 1_554
S19 Te2 2.528199 1_555
S21 S6 2.088003 1_555
S22 S26 2.088003 1_555
S23 S7 2.012742 1_556
S23 S27 2.088003 1_555
S24 S6 2.012742 1_555
S24 Te3 2.528199 1_555
S25 Te0 2.528199 1_555
Br0 Te3 2.703697 1_555
Br1 Te2 2.703697 1_555
Br2 Te0 2.602355 1_555
Br3 Te1 2.602355 1_554
Br4 Te1 2.703697 1_555
Br5 Te2 2.602355 1_556
Br6 Te3 2.602355 1_555
Br7 Te0 2.703697 1_555
