# generated using pymatgen
data_K23Na8(CdIn4)12
_symmetry_space_group_name_H-M   'P 1'
_cell_length_a   17.21543328
_cell_length_b   17.21543328
_cell_length_c   10.44162912
_cell_angle_alpha   90.00000000
_cell_angle_beta   90.00000000
_cell_angle_gamma   119.99999893
_symmetry_Int_Tables_number   1
_chemical_formula_structural   K23Na8(CdIn4)12
_chemical_formula_sum   'K23 Na8 Cd12 In48'
_cell_volume   2680.00012871
_cell_formula_units_Z   1
loop_
 _symmetry_equiv_pos_site_id
 _symmetry_equiv_pos_as_xyz
  1  'x, y, z'
loop_
 _atom_site_type_symbol
 _atom_site_label
 _atom_site_symmetry_multiplicity
 _atom_site_fract_x
 _atom_site_fract_y
 _atom_site_fract_z
 _atom_site_occupancy
  K  K0  1  0.79384789  0.20615211  0.69600251  1
  K  K1  1  1.00000000  0.36585424  0.50000000  1
  K  K2  1  0.58769478  0.79384789  0.69600251  1
  K  K3  1  0.79384789  0.58769478  0.69600251  1
  K  K4  1  0.63414576  0.00000000  0.50000000  1
  K  K5  1  0.66666700  0.33333300  0.19892035  1
  K  K6  1  0.20615211  0.79384789  0.30399749  1
  K  K7  1  0.63414576  0.63414576  0.50000000  1
  K  K8  1  0.33333300  0.66666700  0.80107965  1
  K  K9  1  0.20615211  0.41230522  0.69600251  1
  K  K10  1  0.79384789  0.58769478  0.30399749  1
  K  K11  1  0.20615211  0.79384789  0.69600251  1
  K  K12  1  0.36585424  0.36585424  0.50000000  1
  K  K13  1  0.66666700  0.33333300  0.80107965  1
  K  K14  1  0.41230522  0.20615211  0.69600251  1
  K  K15  1  0.33333300  0.66666700  0.19892035  1
  K  K16  1  0.58769478  0.79384789  0.30399749  1
  K  K17  1  0.79384789  0.20615211  0.30399749  1
  K  K18  1  0.36585424  1.00000000  0.50000000  1
  K  K19  1  0.00000000  0.63414576  0.50000000  1
  K  K20  1  0.20615211  0.41230522  0.30399749  1
  K  K21  1  -0.00000000  -0.00000000  0.00000000  1
  K  K22  1  0.41230522  0.20615211  0.30399749  1
  Na  Na0  1  0.86735922  0.73471943  0.00000000  1
  Na  Na1  1  -0.00000000  -0.00000000  0.65013421  1
  Na  Na2  1  0.13264078  0.26528057  0.00000000  1
  Na  Na3  1  0.86735922  0.13264078  0.00000000  1
  Na  Na4  1  0.73471943  0.86735922  0.00000000  1
  Na  Na5  1  -0.00000000  -0.00000000  0.34986579  1
  Na  Na6  1  0.13264078  0.86735922  0.00000000  1
  Na  Na7  1  0.26528057  0.13264078  0.00000000  1
  Cd  Cd0  1  0.81903862  0.00000000  0.25373478  1
  Cd  Cd1  1  0.18096138  1.00000000  0.74626522  1
  Cd  Cd2  1  0.81903862  0.00000000  0.74626522  1
  Cd  Cd3  1  0.81903862  0.81903862  0.25373478  1
  Cd  Cd4  1  0.18096138  1.00000000  0.25373478  1
  Cd  Cd5  1  1.00000000  0.18096138  0.25373478  1
  Cd  Cd6  1  0.18096138  0.18096138  0.25373478  1
  Cd  Cd7  1  0.00000000  0.81903862  0.74626522  1
  Cd  Cd8  1  1.00000000  0.18096138  0.74626522  1
  Cd  Cd9  1  0.18096138  0.18096138  0.74626522  1
  Cd  Cd10  1  0.81903862  0.81903862  0.74626522  1
  Cd  Cd11  1  0.00000000  0.81903862  0.25373478  1
  In  In0  1  1.00000000  0.34661149  0.85045148  1
  In  In1  1  0.33254794  0.49041745  0.00000000  1
  In  In2  1  0.65338851  0.00000000  0.85045148  1
  In  In3  1  0.45050937  0.54949063  0.24908267  1
  In  In4  1  0.84213049  0.33254794  0.00000000  1
  In  In5  1  0.09898026  0.54949063  0.24908267  1
  In  In6  1  0.54949063  0.09898026  0.24908267  1
  In  In7  1  0.90101974  0.45050937  0.24908267  1
  In  In8  1  0.90101974  0.45050937  0.75091733  1
  In  In9  1  0.34661149  1.00000000  0.14954852  1
  In  In10  1  0.49041745  0.33254794  0.00000000  1
  In  In11  1  0.00000000  0.65338851  0.14954852  1
  In  In12  1  0.66745206  0.15786951  0.00000000  1
  In  In13  1  0.49041745  0.15786951  0.00000000  1
  In  In14  1  0.45050937  0.90101974  0.75091733  1
  In  In15  1  0.21274722  0.60637361  0.50000000  1
  In  In16  1  0.89413869  0.78827639  0.50000000  1
  In  In17  1  0.45050937  0.54949063  0.75091733  1
  In  In18  1  0.65338851  0.65338851  0.85045148  1
  In  In19  1  1.00000000  0.34661149  0.14954852  1
  In  In20  1  0.34661149  0.34661149  0.85045148  1
  In  In21  1  0.65338851  0.00000000  0.14954852  1
  In  In22  1  0.33254794  0.84213049  0.00000000  1
  In  In23  1  0.78827639  0.89413869  0.50000000  1
  In  In24  1  0.65338851  0.65338851  0.14954852  1
  In  In25  1  0.10586131  0.21172361  0.50000000  1
  In  In26  1  0.60637361  0.39362639  0.50000000  1
  In  In27  1  0.00000000  0.65338851  0.85045148  1
  In  In28  1  0.21172361  0.10586131  0.50000000  1
  In  In29  1  0.50958255  0.66745206  0.00000000  1
  In  In30  1  0.54949063  0.45050937  0.24908267  1
  In  In31  1  0.15786951  0.66745206  0.00000000  1
  In  In32  1  0.34661149  1.00000000  0.85045148  1
  In  In33  1  0.45050937  0.90101974  0.24908267  1
  In  In34  1  0.89413869  0.10586131  0.50000000  1
  In  In35  1  0.50958255  0.84213049  0.00000000  1
  In  In36  1  0.84213049  0.50958255  0.00000000  1
  In  In37  1  0.54949063  0.09898026  0.75091733  1
  In  In38  1  0.39362639  0.60637361  0.50000000  1
  In  In39  1  0.66745206  0.50958255  0.00000000  1
  In  In40  1  0.09898026  0.54949063  0.75091733  1
  In  In41  1  0.15786951  0.49041745  0.00000000  1
  In  In42  1  0.60637361  0.21274722  0.50000000  1
  In  In43  1  0.34661149  0.34661149  0.14954852  1
  In  In44  1  0.10586131  0.89413869  0.50000000  1
  In  In45  1  0.54949063  0.45050937  0.75091733  1
  In  In46  1  0.78725278  0.39362639  0.50000000  1
  In  In47  1  0.39362639  0.78725278  0.50000000  1
loop_
_geom_bond_atom_site_label_1
_geom_bond_atom_site_label_2
_geom_bond_distance
_geom_bond_site_symmetry_2
K0 K4 3.819080 1_555
K0 K1 3.819080 1_555
K0 Na3 3.857515 1_556
K0 K13 3.947808 1_555
K0 K17 4.093171 1_555
K1 K9 3.819075 1_655
K1 K20 3.819075 1_655
K1 K17 3.819080 1_555
K2 K4 3.819075 1_565
K2 K7 3.819089 1_555
K2 Na4 3.857532 1_556
K2 K8 3.947808 1_555
K3 K7 3.819089 1_555
K3 Na0 3.857532 1_556
K6 Na6 3.857515 1_555
K8 K9 3.947808 1_555
K9 Na2 3.857532 1_556
K10 K19 3.819075 1_655
K10 K7 3.819089 1_555
K10 Na0 3.857532 1_555
K10 K5 3.947808 1_555
K10 K3 4.093171 1_555
K11 K18 3.819080 1_555
K11 K19 3.819080 1_555
K11 Na6 3.857515 1_556
K11 K8 3.947808 1_555
K11 K6 4.093171 1_555
K12 K14 3.819089 1_555
K12 K9 3.819089 1_555
K12 K22 3.819089 1_555
K12 K20 3.819089 1_555
K13 K3 3.947808 1_555
K13 K14 3.947808 1_555
K14 K18 3.819075 1_545
K14 Na7 3.857532 1_556
K14 K22 4.093171 1_555
K15 K6 3.947808 1_555
K15 K16 3.947808 1_555
K15 K20 3.947808 1_555
K16 K4 3.819075 1_565
K16 K7 3.819089 1_555
K16 Na4 3.857532 1_555
K16 K2 4.093171 1_555
K17 K4 3.819080 1_555
K17 Na3 3.857515 1_555
K17 K5 3.947808 1_555
K18 K22 3.819075 1_565
K18 K6 3.819080 1_555
K19 K3 3.819075 1_455
K19 K6 3.819080 1_555
K20 Na2 3.857532 1_555
K20 K9 4.093171 1_555
K21 Na1 3.653169 1_554
K21 Na5 3.653169 1_555
K21 Na7 3.955069 1_555
K21 Na2 3.955069 1_555
K21 Na4 3.955069 1_445
K21 Na0 3.955069 1_445
K21 Na6 3.955083 1_545
K21 Na3 3.955083 1_455
K22 Na7 3.857532 1_555
K22 K5 3.947808 1_555
Na1 Na5 3.135291 1_555
Cd0 In23 3.041182 1_545
Cd0 In34 3.041184 1_555
Cd0 In21 3.052193 1_555
Cd0 Cd3 3.115329 1_545
Cd0 Cd5 3.115329 1_555
Cd0 Na5 3.273044 1_655
Cd0 Na4 3.320546 1_545
Cd0 Na3 3.320548 1_555
Cd0 K17 3.820731 1_555
Cd0 K16 3.820741 1_545
Cd0 K21 4.089574 1_655
Cd0 K4 4.091907 1_555
Cd1 In28 3.041182 1_565
Cd1 In44 3.041184 1_555
Cd1 In32 3.052193 1_555
Cd1 Cd9 3.115329 1_565
Cd1 Cd7 3.115329 1_555
Cd1 Na1 3.273044 1_565
Cd1 Na7 3.320546 1_566
Cd1 Na6 3.320548 1_556
Cd1 K11 3.820731 1_555
Cd1 K14 3.820741 1_565
Cd1 K21 4.089574 1_566
Cd1 K18 4.091907 1_555
Cd2 In23 3.041182 1_545
Cd2 In34 3.041184 1_555
Cd2 In2 3.052193 1_555
Cd2 Cd8 3.115329 1_555
Cd2 Na1 3.273044 1_655
Cd2 Na4 3.320546 1_546
Cd2 Na3 3.320548 1_556
Cd2 K0 3.820731 1_555
Cd2 K2 3.820741 1_545
Cd2 K21 4.089574 1_656
Cd2 K4 4.091907 1_555
Cd3 In23 3.041191 1_555
Cd3 In16 3.041191 1_555
Cd3 In24 3.052193 1_555
Cd3 Na5 3.273044 1_665
Cd3 Na4 3.320538 1_555
Cd3 Na0 3.320538 1_555
Cd3 K10 3.820748 1_555
Cd3 K16 3.820748 1_555
Cd3 K21 4.089574 1_665
Cd3 K7 4.091908 1_555
Cd4 In28 3.041182 1_565
Cd4 In44 3.041184 1_555
Cd4 In9 3.052193 1_555
Cd4 Cd6 3.115329 1_565
Cd4 Na5 3.273044 1_565
Cd4 Na7 3.320546 1_565
Cd4 Na6 3.320548 1_555
Cd4 K6 3.820731 1_555
Cd4 K22 3.820741 1_565
Cd4 K21 4.089574 1_565
Cd4 K18 4.091907 1_555
Cd5 In25 3.041182 1_655
Cd5 In34 3.041184 1_555
Cd5 In19 3.052193 1_555
Cd5 Cd6 3.115329 1_655
Cd5 Na5 3.273044 1_655
Cd5 Na2 3.320546 1_655
Cd5 Na3 3.320548 1_555
Cd5 K17 3.820731 1_555
Cd5 K20 3.820741 1_655
Cd5 K21 4.089574 1_655
Cd5 K1 4.091907 1_555
Cd6 In25 3.041191 1_555
Cd6 In28 3.041191 1_555
Cd6 In43 3.052193 1_555
Cd6 Na5 3.273044 1_555
Cd6 Na7 3.320538 1_555
Cd6 Na2 3.320538 1_555
Cd6 K22 3.820748 1_555
Cd6 K20 3.820748 1_555
Cd6 K21 4.089574 1_555
Cd6 K12 4.091908 1_555
Cd7 In16 3.041182 1_455
Cd7 In44 3.041184 1_555
Cd7 In27 3.052193 1_555
Cd7 Na1 3.273044 1_565
Cd7 Na0 3.320546 1_456
Cd7 Na6 3.320548 1_556
Cd7 K11 3.820731 1_555
Cd7 K3 3.820741 1_455
Cd7 K21 4.089574 1_566
Cd7 K19 4.091907 1_555
Cd8 In25 3.041182 1_655
Cd8 In34 3.041184 1_555
Cd8 In0 3.052193 1_555
Cd8 Cd9 3.115329 1_655
Cd8 Na1 3.273044 1_655
Cd8 Na2 3.320546 1_656
Cd8 Na3 3.320548 1_556
Cd8 K0 3.820731 1_555
Cd8 K9 3.820741 1_655
Cd8 K21 4.089574 1_656
Cd8 K1 4.091907 1_555
Cd9 In25 3.041191 1_555
Cd9 In28 3.041191 1_555
Cd9 In20 3.052193 1_555
Cd9 Na1 3.273044 1_555
Cd9 Na2 3.320538 1_556
Cd9 Na7 3.320538 1_556
Cd9 K14 3.820748 1_555
Cd9 K9 3.820748 1_555
Cd9 K21 4.089574 1_556
Cd9 K12 4.091908 1_555
Cd10 In23 3.041191 1_555
Cd10 In16 3.041191 1_555
Cd10 In18 3.052193 1_555
Cd10 Cd7 3.115329 1_655
Cd10 Cd2 3.115329 1_565
Cd10 Na1 3.273044 1_665
Cd10 Na4 3.320538 1_556
Cd10 Na0 3.320538 1_556
Cd10 K2 3.820748 1_555
Cd10 K3 3.820748 1_555
Cd10 K21 4.089574 1_666
Cd10 K7 4.091908 1_555
Cd11 In16 3.041182 1_455
Cd11 In44 3.041184 1_555
Cd11 In11 3.052193 1_555
Cd11 Cd3 3.115329 1_455
Cd11 Cd4 3.115329 1_555
Cd11 Na5 3.273044 1_565
Cd11 Na0 3.320546 1_455
Cd11 Na6 3.320548 1_555
Cd11 K6 3.820731 1_555
Cd11 K10 3.820741 1_455
Cd11 K21 4.089574 1_565
Cd11 K19 4.091907 1_555
In0 In4 3.037331 1_556
In0 In41 3.037331 1_656
In0 In19 3.123060 1_556
In0 In8 3.198563 1_555
In0 In40 3.198578 1_655
In0 K9 3.530085 1_655
In0 K0 3.530088 1_555
In0 Na3 3.579123 1_556
In0 Na2 3.579135 1_656
In0 K1 3.674249 1_555
In1 In41 3.007165 1_555
In1 In20 3.037331 1_554
In1 In43 3.037331 1_555
In1 In29 3.047728 1_555
In1 In17 3.139633 1_554
In1 In3 3.139633 1_555
In1 K8 3.671480 1_554
In1 K15 3.671480 1_555
In1 Na2 3.677944 1_555
In1 K9 3.700372 1_554
In1 K20 3.700372 1_555
In2 In35 3.037331 1_546
In2 In21 3.123060 1_556
In2 In37 3.198563 1_555
In2 K2 3.530085 1_545
In2 K0 3.530088 1_555
In2 Na3 3.579123 1_556
In2 Na4 3.579135 1_546
In2 K4 3.674249 1_555
In3 In30 2.951424 1_555
In3 In38 3.121090 1_555
In3 In43 3.198578 1_555
In3 K15 3.533007 1_555
In3 K16 3.697009 1_555
In3 K20 3.697009 1_555
In3 K12 3.791474 1_555
In3 K7 3.791474 1_555
In4 In8 3.139633 1_554
In4 In7 3.139633 1_555
In4 K13 3.671466 1_554
In4 K5 3.671466 1_555
In4 Na3 3.677934 1_555
In4 K17 3.700373 1_555
In4 K0 3.700373 1_554
In5 In7 2.951394 1_455
In5 K15 3.533007 1_555
In5 K20 3.697009 1_555
In5 K6 3.697009 1_555
In5 K19 3.791463 1_555
In5 K1 3.791473 1_455
In6 In9 3.198578 1_545
In6 K5 3.533007 1_555
In6 K22 3.697009 1_555
In6 K17 3.697009 1_555
In6 K4 3.791463 1_555
In6 K18 3.791473 1_545
In7 K5 3.533007 1_555
In7 K10 3.697009 1_555
In7 K17 3.697009 1_555
In7 K1 3.791463 1_555
In7 K19 3.791473 1_655
In8 K13 3.533007 1_555
In8 K3 3.697009 1_555
In8 K0 3.697009 1_555
In8 K1 3.791463 1_555
In8 K19 3.791473 1_655
In9 K22 3.530085 1_565
In9 K6 3.530088 1_555
In9 Na6 3.579123 1_555
In9 Na7 3.579135 1_565
In9 K18 3.674249 1_555
In10 In13 3.007165 1_555
In10 In20 3.037331 1_554
In10 In43 3.037331 1_555
In10 In39 3.047728 1_555
In10 In45 3.139633 1_554
In10 In30 3.139633 1_555
In10 K13 3.671480 1_554
In10 K5 3.671480 1_555
In10 Na7 3.677944 1_555
In10 K22 3.700372 1_555
In10 K14 3.700372 1_554
In11 In31 3.037331 1_555
In11 In36 3.037331 1_455
In11 In27 3.123060 1_554
In11 In5 3.198563 1_555
In11 In7 3.198578 1_455
In11 K10 3.530085 1_455
In11 K6 3.530088 1_555
In11 Na6 3.579123 1_555
In11 Na0 3.579135 1_455
In11 K19 3.674249 1_555
In12 In4 3.007165 1_555
In12 In2 3.037331 1_554
In12 In21 3.037331 1_555
In12 In13 3.047728 1_555
In12 In6 3.139633 1_555
In12 In37 3.139633 1_554
In12 K13 3.671466 1_554
In12 K5 3.671466 1_555
In12 Na3 3.677934 1_555
In12 K17 3.700373 1_555
In12 K0 3.700373 1_554
In13 In9 3.037331 1_545
In13 In32 3.037331 1_544
In13 In6 3.139641 1_555
In13 In37 3.139641 1_554
In13 K13 3.671473 1_554
In13 K5 3.671473 1_555
In13 Na7 3.677951 1_555
In13 K14 3.700365 1_554
In13 K22 3.700365 1_555
In14 In37 2.951394 1_565
In14 In47 3.121099 1_555
In14 In22 3.139633 1_556
In14 In35 3.139641 1_556
In14 In32 3.198563 1_555
In14 In2 3.198578 1_565
In14 K8 3.533007 1_555
In14 K2 3.697009 1_555
In14 K11 3.697009 1_555
In14 K18 3.791463 1_555
In14 K4 3.791473 1_565
In15 In38 3.113913 1_555
In15 In47 3.113913 1_555
In15 In5 3.121099 1_555
In15 In40 3.121099 1_555
In15 K8 3.621515 1_555
In15 K15 3.621515 1_555
In15 K20 3.870939 1_555
In15 K9 3.870939 1_555
In15 K11 3.870953 1_555
In15 K6 3.870953 1_555
In15 K19 3.923500 1_555
In15 K1 3.923500 1_455
In16 In44 3.156573 1_655
In16 In23 3.156603 1_555
In16 Na5 3.524423 1_665
In16 Na1 3.524423 1_665
In16 K3 3.623732 1_555
In16 K10 3.623732 1_555
In16 K19 3.898425 1_655
In16 K7 3.898439 1_555
In17 In45 2.951424 1_555
In17 In38 3.121090 1_555
In17 In29 3.139633 1_556
In17 In20 3.198578 1_555
In17 In18 3.198578 1_555
In17 K8 3.533007 1_555
In17 K2 3.697009 1_555
In17 K9 3.697009 1_555
In17 K12 3.791474 1_555
In17 K7 3.791474 1_555
In18 In39 3.037331 1_556
In18 In29 3.037331 1_556
In18 In24 3.123060 1_556
In18 In45 3.198578 1_555
In18 K3 3.530099 1_555
In18 K2 3.530099 1_555
In18 Na0 3.579121 1_556
In18 Na4 3.579121 1_556
In18 K7 3.674249 1_555
In19 In4 3.037331 1_555
In19 In41 3.037331 1_655
In19 In7 3.198563 1_555
In19 In5 3.198578 1_655
In19 K20 3.530085 1_655
In19 K17 3.530088 1_555
In19 Na3 3.579123 1_555
In19 Na2 3.579135 1_655
In19 K1 3.674249 1_555
In20 In43 3.123060 1_556
In20 In45 3.198578 1_555
In20 K9 3.530099 1_555
In20 K14 3.530099 1_555
In20 Na7 3.579121 1_556
In20 Na2 3.579121 1_556
In20 K12 3.674249 1_555
In21 In35 3.037331 1_545
In21 In6 3.198563 1_555
In21 In33 3.198578 1_545
In21 K16 3.530085 1_545
In21 K17 3.530088 1_555
In21 Na3 3.579123 1_555
In21 Na4 3.579135 1_545
In21 K4 3.674249 1_555
In22 In31 3.007165 1_555
In22 In32 3.037331 1_554
In22 In9 3.037331 1_555
In22 In35 3.047728 1_555
In22 In33 3.139633 1_555
In22 K15 3.671466 1_555
In22 K8 3.671466 1_554
In22 Na6 3.677934 1_555
In22 K11 3.700373 1_554
In22 K6 3.700373 1_555
In23 In34 3.156573 1_565
In23 Na5 3.524423 1_665
In23 Na1 3.524423 1_665
In23 K2 3.623732 1_555
In23 K16 3.623732 1_555
In23 K4 3.898425 1_565
In23 K7 3.898439 1_555
In24 In29 3.037331 1_555
In24 In39 3.037331 1_555
In24 In30 3.198578 1_555
In24 In3 3.198578 1_555
In24 K16 3.530099 1_555
In24 K10 3.530099 1_555
In24 Na0 3.579121 1_555
In24 Na4 3.579121 1_555
In24 K7 3.674249 1_555
In25 In34 3.156573 1_455
In25 In28 3.156603 1_555
In25 Na5 3.524423 1_555
In25 Na1 3.524423 1_555
In25 K20 3.623732 1_555
In25 K9 3.623732 1_555
In25 K1 3.898425 1_455
In25 K12 3.898439 1_555
In26 In46 3.113913 1_555
In26 In42 3.113913 1_555
In26 In30 3.121090 1_555
In26 In45 3.121090 1_555
In26 K5 3.621523 1_555
In26 K13 3.621523 1_555
In26 K3 3.870946 1_555
In26 K10 3.870946 1_555
In26 K14 3.870946 1_555
In26 K22 3.870946 1_555
In26 K7 3.923500 1_555
In26 K12 3.923500 1_555
In27 In31 3.037331 1_556
In27 In36 3.037331 1_456
In27 In40 3.198563 1_555
In27 In8 3.198578 1_455
In27 K3 3.530085 1_455
In27 K11 3.530088 1_555
In27 Na6 3.579123 1_556
In27 Na0 3.579135 1_456
In27 K19 3.674249 1_555
In28 In44 3.156573 1_545
In28 Na5 3.524423 1_555
In28 Na1 3.524423 1_555
In28 K14 3.623732 1_555
In28 K22 3.623732 1_555
In28 K18 3.898425 1_545
In28 K12 3.898439 1_555
In29 In35 3.007165 1_555
In29 In3 3.139633 1_555
In29 K8 3.671480 1_554
In29 K15 3.671480 1_555
In29 Na4 3.677944 1_555
In29 K16 3.700372 1_555
In29 K2 3.700372 1_554
In30 In39 3.139633 1_555
In30 In43 3.198578 1_555
In30 K5 3.533007 1_555
In30 K22 3.697009 1_555
In30 K10 3.697009 1_555
In30 K12 3.791474 1_555
In30 K7 3.791474 1_555
In31 In41 3.047728 1_555
In31 In40 3.139633 1_554
In31 In5 3.139633 1_555
In31 K8 3.671466 1_554
In31 K15 3.671466 1_555
In31 Na6 3.677934 1_555
In31 K11 3.700373 1_554
In31 K6 3.700373 1_555
In32 In9 3.123060 1_556
In32 In37 3.198578 1_565
In32 K14 3.530085 1_565
In32 K11 3.530088 1_555
In32 Na6 3.579123 1_556
In32 Na7 3.579135 1_566
In32 K18 3.674249 1_555
In33 In6 2.951394 1_565
In33 In47 3.121099 1_555
In33 In35 3.139641 1_555
In33 In9 3.198563 1_555
In33 K15 3.533007 1_555
In33 K16 3.697009 1_555
In33 K6 3.697009 1_555
In33 K18 3.791463 1_555
In33 K4 3.791473 1_565
In34 Na5 3.524410 1_655
In34 Na1 3.524410 1_655
In34 K17 3.623732 1_555
In34 K0 3.623732 1_555
In34 K4 3.898440 1_555
In34 K1 3.898440 1_555
In35 K15 3.671473 1_555
In35 K8 3.671473 1_554
In35 Na4 3.677951 1_555
In35 K2 3.700365 1_554
In35 K16 3.700365 1_555
In36 In39 3.007165 1_555
In36 In4 3.047728 1_555
In36 In8 3.139641 1_554
In36 In7 3.139641 1_555
In36 K13 3.671473 1_554
In36 K5 3.671473 1_555
In36 Na0 3.677951 1_555
In36 K3 3.700365 1_554
In36 K10 3.700365 1_555
In37 In42 3.121099 1_555
In37 K13 3.533007 1_555
In37 K14 3.697009 1_555
In37 K0 3.697009 1_555
In37 K4 3.791463 1_555
In37 K18 3.791473 1_545
In38 In47 3.113913 1_555
In38 K8 3.621523 1_555
In38 K15 3.621523 1_555
In38 K16 3.870946 1_555
In38 K2 3.870946 1_555
In38 K20 3.870946 1_555
In38 K9 3.870946 1_555
In38 K12 3.923500 1_555
In38 K7 3.923500 1_555
In39 In45 3.139633 1_554
In39 K5 3.671480 1_555
In39 K13 3.671480 1_554
In39 Na0 3.677944 1_555
In39 K10 3.700372 1_555
In39 K3 3.700372 1_554
In40 In8 2.951394 1_455
In40 In41 3.139641 1_556
In40 K8 3.533007 1_555
In40 K9 3.697009 1_555
In40 K11 3.697009 1_555
In40 K19 3.791463 1_555
In40 K1 3.791473 1_455
In41 In5 3.139641 1_555
In41 K15 3.671473 1_555
In41 K8 3.671473 1_554
In41 Na2 3.677951 1_555
In41 K20 3.700365 1_555
In41 K9 3.700365 1_554
In42 In46 3.113913 1_555
In42 In6 3.121099 1_555
In42 K5 3.621515 1_555
In42 K13 3.621515 1_555
In42 K22 3.870939 1_555
In42 K14 3.870939 1_555
In42 K0 3.870953 1_555
In42 K17 3.870953 1_555
In42 K4 3.923500 1_555
In42 K18 3.923500 1_545
In43 K22 3.530099 1_555
In43 K20 3.530099 1_555
In43 Na7 3.579121 1_555
In43 Na2 3.579121 1_555
In43 K12 3.674249 1_555
In44 Na5 3.524410 1_565
In44 Na1 3.524410 1_565
In44 K11 3.623732 1_555
In44 K6 3.623732 1_555
In44 K19 3.898440 1_555
In44 K18 3.898440 1_555
In45 K13 3.533007 1_555
In45 K14 3.697009 1_555
In45 K3 3.697009 1_555
In45 K12 3.791474 1_555
In45 K7 3.791474 1_555
In46 In7 3.121099 1_555
In46 In8 3.121099 1_555
In46 K5 3.621515 1_555
In46 K13 3.621515 1_555
In46 K3 3.870939 1_555
In46 K10 3.870939 1_555
In46 K0 3.870953 1_555
In46 K17 3.870953 1_555
In46 K1 3.923500 1_555
In46 K19 3.923500 1_655
In47 K15 3.621515 1_555
In47 K8 3.621515 1_555
In47 K2 3.870939 1_555
In47 K16 3.870939 1_555
In47 K11 3.870953 1_555
In47 K6 3.870953 1_555
In47 K18 3.923500 1_555
In47 K4 3.923500 1_565
