# generated using pymatgen
data_Dy5NiPb3
_symmetry_space_group_name_H-M   'P 1'
_cell_length_a   9.08919727
_cell_length_b   9.08919727
_cell_length_c   6.70224863
_cell_angle_alpha   90.00000000
_cell_angle_beta   90.00000000
_cell_angle_gamma   119.99999805
_symmetry_Int_Tables_number   1
_chemical_formula_structural   Dy5NiPb3
_chemical_formula_sum   'Dy10 Ni2 Pb6'
_cell_volume   479.51504040
_cell_formula_units_Z   2
loop_
 _symmetry_equiv_pos_site_id
 _symmetry_equiv_pos_as_xyz
  1  'x, y, z'
loop_
 _atom_site_type_symbol
 _atom_site_label
 _atom_site_symmetry_multiplicity
 _atom_site_fract_x
 _atom_site_fract_y
 _atom_site_fract_z
 _atom_site_occupancy
  Dy  Dy0  1  0.23800177  0.00000000  0.25000000  1
  Dy  Dy1  1  -0.00000000  0.76199823  0.75000000  1
  Dy  Dy2  1  0.00000000  0.23800177  0.25000000  1
  Dy  Dy3  1  0.33333300  0.66666700  0.50000000  1
  Dy  Dy4  1  0.76199823  -0.00000000  0.75000000  1
  Dy  Dy5  1  0.66666700  0.33333300  0.50000000  1
  Dy  Dy6  1  0.23800177  0.23800177  0.75000000  1
  Dy  Dy7  1  0.33333300  0.66666700  -0.00000000  1
  Dy  Dy8  1  0.66666700  0.33333300  0.00000000  1
  Dy  Dy9  1  0.76199823  0.76199823  0.25000000  1
  Ni  Ni0  1  0.00000000  -0.00000000  0.00000000  1
  Ni  Ni1  1  0.00000000  -0.00000000  0.50000000  1
  Pb  Pb0  1  0.60054037  0.00000000  0.25000000  1
  Pb  Pb1  1  0.39945963  -0.00000000  0.75000000  1
  Pb  Pb2  1  0.00000000  0.60053937  0.25000000  1
  Pb  Pb3  1  0.60054037  0.60053937  0.75000000  1
  Pb  Pb4  1  0.39945963  0.39946063  0.25000000  1
  Pb  Pb5  1  -0.00000000  0.39946063  0.75000000  1
loop_
_geom_bond_atom_site_label_1
_geom_bond_atom_site_label_2
_geom_bond_distance
_geom_bond_site_symmetry_2
Dy0 Ni0 2.736263 1_555
Dy0 Ni1 2.736263 1_555
Dy0 Pb2 3.163528 1_545
Dy0 Pb4 3.163529 1_555
Dy0 Pb0 3.295185 1_555
Dy0 Pb1 3.658368 1_555
Dy0 Pb1 3.658368 1_554
Dy1 Ni1 2.736263 1_565
Dy1 Ni0 2.736263 1_566
Dy1 Pb3 3.163519 1_455
Dy1 Pb1 3.163520 1_565
Dy1 Pb5 3.295176 1_555
Dy1 Pb2 3.658372 1_555
Dy1 Pb2 3.658372 1_556
Dy2 Ni0 2.736263 1_555
Dy2 Ni1 2.736263 1_555
Dy2 Pb4 3.163519 1_555
Dy2 Pb0 3.163520 1_455
Dy2 Pb2 3.295176 1_555
Dy2 Pb5 3.658372 1_554
Dy2 Pb5 3.658372 1_555
Dy3 Pb2 3.244536 1_555
Dy3 Pb4 3.244539 1_555
Dy3 Pb1 3.244539 1_565
Dy3 Pb5 3.244539 1_555
Dy3 Pb0 3.244542 1_565
Dy3 Pb3 3.244552 1_555
Dy4 Ni1 2.736263 1_655
Dy4 Ni0 2.736263 1_656
Dy4 Pb5 3.163528 1_655
Dy4 Pb3 3.163529 1_545
Dy4 Pb1 3.295185 1_555
Dy4 Pb0 3.658368 1_556
Dy4 Pb0 3.658368 1_555
Dy5 Pb5 3.244536 1_655
Dy5 Pb3 3.244539 1_555
Dy5 Pb0 3.244539 1_555
Dy5 Pb2 3.244539 1_655
Dy5 Pb1 3.244542 1_555
Dy5 Pb4 3.244552 1_555
Dy6 Ni1 2.736263 1_555
Dy6 Ni0 2.736263 1_556
Dy6 Pb1 3.163520 1_555
Dy6 Pb5 3.163528 1_555
Dy6 Pb3 3.295180 1_555
Dy6 Pb4 3.658370 1_555
Dy6 Pb4 3.658370 1_556
Dy7 Pb2 3.244536 1_555
Dy7 Pb4 3.244539 1_555
Dy7 Pb1 3.244539 1_564
Dy7 Pb5 3.244539 1_554
Dy7 Pb0 3.244542 1_565
Dy7 Pb3 3.244552 1_554
Dy8 Pb5 3.244536 1_654
Dy8 Pb3 3.244539 1_554
Dy8 Pb0 3.244539 1_555
Dy8 Pb2 3.244539 1_655
Dy8 Pb1 3.244542 1_554
Dy8 Pb4 3.244552 1_555
Dy9 Ni1 2.736263 1_665
Dy9 Ni0 2.736263 1_665
Dy9 Pb0 3.163520 1_565
Dy9 Pb2 3.163528 1_655
Dy9 Pb4 3.295180 1_555
Dy9 Pb3 3.658370 1_554
Dy9 Pb3 3.658370 1_555
