# generated using pymatgen
data_Ca9LaTi9MnO30
_symmetry_space_group_name_H-M   'P 1'
_cell_length_a   5.43489477
_cell_length_b   5.51743280
_cell_length_c   38.54213400
_cell_angle_alpha   90.00000000
_cell_angle_beta   90.00000000
_cell_angle_gamma   89.93866871
_symmetry_Int_Tables_number   1
_chemical_formula_structural   Ca9LaTi9MnO30
_chemical_formula_sum   'Ca18 La2 Ti18 Mn2 O60'
_cell_volume   1155.74946256
_cell_formula_units_Z   2
loop_
 _symmetry_equiv_pos_site_id
 _symmetry_equiv_pos_as_xyz
  1  'x, y, z'
loop_
 _atom_site_type_symbol
 _atom_site_label
 _atom_site_symmetry_multiplicity
 _atom_site_fract_x
 _atom_site_fract_y
 _atom_site_fract_z
 _atom_site_occupancy
  Ca  Ca0  1  0.01107600  0.95989700  0.15005200  1
  Ca  Ca1  1  0.01160100  0.95929900  0.35000000  1
  Ca  Ca2  1  0.01107600  0.95989700  0.54994800  1
  Ca  Ca3  1  0.01212700  0.96143300  0.74875000  1
  Ca  Ca4  1  0.01212700  0.96143300  0.95125000  1
  Ca  Ca5  1  0.48813400  0.45888900  0.35000000  1
  Ca  Ca6  1  0.48762700  0.45897000  0.14999700  1
  Ca  Ca7  1  0.48762700  0.45897000  0.55000300  1
  Ca  Ca8  1  0.48896500  0.45813200  0.74897600  1
  Ca  Ca9  1  0.48896500  0.45813200  0.95102400  1
  Ca  Ca10  1  0.51313800  0.54102500  0.05020000  1
  Ca  Ca11  1  0.51171500  0.54089300  0.25001700  1
  Ca  Ca12  1  0.51313800  0.54102500  0.64980000  1
  Ca  Ca13  1  0.51171500  0.54089300  0.44998300  1
  Ca  Ca14  1  0.98830800  0.04043200  0.25003400  1
  Ca  Ca15  1  0.98923200  0.03985700  0.05032700  1
  Ca  Ca16  1  0.98830800  0.04043200  0.44996600  1
  Ca  Ca17  1  0.98923200  0.03985700  0.64967300  1
  La  La0  1  0.50663300  0.53033900  0.85000000  1
  La  La1  1  0.99139600  0.02853000  0.85000000  1
  Ti  Ti0  1  0.00616900  0.49734900  0.00137300  1
  Ti  Ti1  1  0.99774100  0.50053700  0.10069000  1
  Ti  Ti2  1  0.99985100  0.49968200  0.20037500  1
  Ti  Ti3  1  0.99977400  0.49994600  0.30011100  1
  Ti  Ti4  1  0.99977400  0.49994600  0.39988900  1
  Ti  Ti5  1  0.99985100  0.49968200  0.49962500  1
  Ti  Ti6  1  0.00019300  0.49966400  0.79689000  1
  Ti  Ti7  1  0.00019300  0.49966400  0.90311000  1
  Ti  Ti8  1  0.49750400  0.00000900  0.09949000  1
  Ti  Ti9  1  0.49980700  0.99993800  0.29991400  1
  Ti  Ti10  1  0.49993100  0.99947600  0.50032500  1
  Ti  Ti11  1  0.50766800  0.99856400  0.99967600  1
  Ti  Ti12  1  0.49993100  0.99947600  0.19967500  1
  Ti  Ti13  1  0.49980700  0.99993800  0.40008600  1
  Ti  Ti14  1  0.49750400  0.00000900  0.60051000  1
  Ti  Ti15  1  0.50766800  0.99856400  0.70032400  1
  Ti  Ti16  1  0.00616900  0.49734900  0.69862700  1
  Ti  Ti17  1  0.99774100  0.50053700  0.59931000  1
  Mn  Mn0  1  0.49852800  0.00012100  0.90163500  1
  Mn  Mn1  1  0.49852800  0.00012100  0.79836500  1
  O  O0  1  0.08309600  0.48068500  0.05004300  1
  O  O1  1  0.08195800  0.48057300  0.24996800  1
  O  O2  1  0.08195800  0.48057300  0.45003200  1
  O  O3  1  0.08309600  0.48068500  0.64995700  1
  O  O4  1  0.06973800  0.48940400  0.85000000  1
  O  O5  1  0.21574300  0.21665100  0.19125000  1
  O  O6  1  0.21548200  0.21621500  0.10875300  1
  O  O7  1  0.21549100  0.21635600  0.30873100  1
  O  O8  1  0.21549100  0.21635600  0.39126900  1
  O  O9  1  0.21548200  0.21621500  0.59124700  1
  O  O10  1  0.21574300  0.21665100  0.50875000  1
  O  O11  1  0.21263800  0.21827700  0.70859700  1
  O  O12  1  0.21154800  0.21997900  0.79124900  1
  O  O13  1  0.21263800  0.21827700  0.99140300  1
  O  O14  1  0.21154800  0.21997900  0.90875100  1
  O  O15  1  0.28383700  0.71571400  0.10880500  1
  O  O16  1  0.28404500  0.71628500  0.19126700  1
  O  O17  1  0.28402400  0.71600900  0.30872400  1
  O  O18  1  0.28402400  0.71600900  0.39127600  1
  O  O19  1  0.28383700  0.71571400  0.59119500  1
  O  O20  1  0.27701800  0.71279500  0.90831100  1
  O  O21  1  0.28304300  0.71635500  0.70859700  1
  O  O22  1  0.27701800  0.71279500  0.79168900  1
  O  O23  1  0.28404500  0.71628500  0.50873300  1
  O  O24  1  0.28304300  0.71635500  0.99140300  1
  O  O25  1  0.41721100  0.98050500  0.05058700  1
  O  O26  1  0.41721100  0.98050500  0.64941300  1
  O  O27  1  0.41839500  0.98065700  0.25008300  1
  O  O28  1  0.41839500  0.98065700  0.44991700  1
  O  O29  1  0.43317900  0.99356300  0.85000000  1
  O  O30  1  0.58162700  0.01957700  0.35000000  1
  O  O31  1  0.58160500  0.01941100  0.15021000  1
  O  O32  1  0.58160500  0.01941100  0.54979000  1
  O  O33  1  0.58653400  0.02229600  0.74788200  1
  O  O34  1  0.58653400  0.02229600  0.95211800  1
  O  O35  1  0.71459400  0.28690300  0.00916200  1
  O  O36  1  0.71652900  0.28372200  0.09129000  1
  O  O37  1  0.71592300  0.28412200  0.29127900  1
  O  O38  1  0.71638000  0.28414800  0.20873100  1
  O  O39  1  0.71652900  0.28372200  0.60871000  1
  O  O40  1  0.71592300  0.28412200  0.40872100  1
  O  O41  1  0.71638000  0.28414800  0.49126900  1
  O  O42  1  0.71459400  0.28690300  0.69083800  1
  O  O43  1  0.72468700  0.28354800  0.80814900  1
  O  O44  1  0.72468700  0.28354800  0.89185100  1
  O  O45  1  0.78419200  0.78528200  0.00926100  1
  O  O46  1  0.78460000  0.78294700  0.09125900  1
  O  O47  1  0.78452900  0.78359100  0.20872600  1
  O  O48  1  0.78439000  0.78374200  0.29126900  1
  O  O49  1  0.78439000  0.78374200  0.40873100  1
  O  O50  1  0.78452900  0.78359100  0.49127400  1
  O  O51  1  0.78460000  0.78294700  0.60874100  1
  O  O52  1  0.78419200  0.78528200  0.69073900  1
  O  O53  1  0.78011500  0.77556500  0.89158600  1
  O  O54  1  0.78011500  0.77556500  0.80841400  1
  O  O55  1  0.91784800  0.51934400  0.14993000  1
  O  O56  1  0.91803900  0.51963500  0.35000000  1
  O  O57  1  0.91784800  0.51934400  0.55007000  1
  O  O58  1  0.91501800  0.52278000  0.74935100  1
  O  O59  1  0.91501800  0.52278000  0.95064900  1
loop_
_geom_bond_atom_site_label_1
_geom_bond_atom_site_label_2
_geom_bond_distance
_geom_bond_site_symmetry_2
Ca0 O31 2.356773 1_465
Ca0 O5 2.401832 1_565
Ca0 O6 2.402333 1_565
Ca0 O55 2.483505 1_455
Ca0 O16 2.554739 1_555
Ca0 O15 2.556507 1_555
Ca0 O47 2.752970 1_455
Ca0 O46 2.757824 1_455
Ca1 O30 2.360059 1_465
Ca1 O8 2.402676 1_565
Ca1 O7 2.402676 1_565
Ca1 O56 2.479072 1_455
Ca1 O17 2.553549 1_555
Ca1 O18 2.553549 1_555
Ca1 O48 2.754933 1_455
Ca1 O49 2.754933 1_455
Ca2 O32 2.356773 1_465
Ca2 O10 2.401832 1_565
Ca2 O9 2.402333 1_565
Ca2 O57 2.483505 1_455
Ca2 O23 2.554739 1_555
Ca2 O19 2.556507 1_555
Ca2 O50 2.752970 1_455
Ca2 O51 2.757824 1_455
Ca3 O33 2.337186 1_465
Ca3 O11 2.365188 1_565
Ca3 O12 2.428165 1_565
Ca3 O58 2.477776 1_455
Ca3 O21 2.527283 1_555
Ca3 O22 2.586354 1_555
Ca3 O52 2.735125 1_455
Ca3 O54 2.816474 1_455
Ca4 O34 2.337186 1_465
Ca4 O13 2.365188 1_565
Ca4 O14 2.428165 1_565
Ca4 O59 2.477776 1_455
Ca4 O24 2.527283 1_555
Ca4 O20 2.586354 1_555
Ca4 O45 2.735125 1_456
Ca4 O53 2.816474 1_455
Ca5 O56 2.360760 1_555
Ca5 O17 2.402210 1_555
Ca5 O18 2.402210 1_555
Ca5 O30 2.476029 1_555
Ca5 O8 2.553546 1_555
Ca5 O7 2.553546 1_555
Ca5 O37 2.753569 1_555
Ca5 O40 2.753569 1_555
Ca6 O55 2.362169 1_555
Ca6 O15 2.398040 1_555
Ca6 O16 2.401370 1_555
Ca6 O31 2.477916 1_555
Ca6 O5 2.550148 1_555
Ca6 O6 2.552018 1_555
Ca6 O38 2.756444 1_555
Ca6 O36 2.756777 1_555
Ca7 O57 2.362169 1_555
Ca7 O19 2.398040 1_555
Ca7 O23 2.401370 1_555
Ca7 O32 2.477916 1_555
Ca7 O10 2.550148 1_555
Ca7 O9 2.552018 1_555
Ca7 O41 2.756444 1_555
Ca7 O39 2.756777 1_555
Ca8 O58 2.343287 1_555
Ca8 O21 2.387679 1_555
Ca8 O22 2.451089 1_555
Ca8 O33 2.462276 1_555
Ca8 O11 2.536351 1_555
Ca8 O12 2.580439 1_555
Ca8 O42 2.723016 1_555
Ca8 O43 2.787092 1_555
Ca9 O59 2.343287 1_555
Ca9 O24 2.387679 1_555
Ca9 O20 2.451089 1_555
Ca9 O34 2.462276 1_555
Ca9 O13 2.536351 1_555
Ca9 O14 2.580439 1_555
Ca9 O35 2.723016 1_556
Ca9 O44 2.787092 1_555
Ca10 O0 2.361186 1_555
Ca10 O35 2.379735 1_555
Ca10 O36 2.396263 1_555
Ca10 O25 2.479715 1_555
Ca10 O46 2.543009 1_555
Ca10 O45 2.545650 1_555
Ca10 O15 2.753451 1_555
Ca10 O24 2.762709 1_554
Ca11 O1 2.359629 1_555
Ca11 O37 2.400962 1_555
Ca11 O38 2.402638 1_555
Ca11 O27 2.478280 1_555
Ca11 O48 2.554155 1_555
Ca11 O47 2.555092 1_555
Ca11 O17 2.753560 1_555
Ca11 O16 2.755405 1_555
Ca12 O3 2.361186 1_555
Ca12 O42 2.379735 1_555
Ca12 O39 2.396263 1_555
Ca12 O26 2.479715 1_555
Ca12 O51 2.543009 1_555
Ca12 O52 2.545650 1_555
Ca12 O19 2.753451 1_555
Ca12 O21 2.762709 1_555
Ca13 O2 2.359629 1_555
Ca13 O40 2.400962 1_555
Ca13 O41 2.402638 1_555
Ca13 O28 2.478280 1_555
Ca13 O49 2.554155 1_555
Ca13 O50 2.555092 1_555
Ca13 O18 2.753560 1_555
Ca13 O23 2.755405 1_555
Ca14 O27 2.360281 1_645
Ca14 O48 2.400682 1_545
Ca14 O47 2.402689 1_545
Ca14 O1 2.481748 1_655
Ca14 O37 2.553845 1_555
Ca14 O38 2.553876 1_555
Ca14 O7 2.754502 1_655
Ca14 O5 2.758445 1_655
Ca15 O25 2.348634 1_645
Ca15 O45 2.392330 1_545
Ca15 O46 2.395488 1_545
Ca15 O0 2.485720 1_655
Ca15 O36 2.548606 1_555
Ca15 O35 2.568808 1_555
Ca15 O6 2.744501 1_655
Ca15 O13 2.757461 1_654
Ca16 O28 2.360281 1_645
Ca16 O49 2.400682 1_545
Ca16 O50 2.402689 1_545
Ca16 O2 2.481748 1_655
Ca16 O40 2.553845 1_555
Ca16 O41 2.553876 1_555
Ca16 O8 2.754502 1_655
Ca16 O10 2.758445 1_655
Ca17 O26 2.348634 1_645
Ca17 O52 2.392330 1_545
Ca17 O51 2.395488 1_545
Ca17 O3 2.485720 1_655
Ca17 O39 2.548606 1_555
Ca17 O42 2.568808 1_555
Ca17 O9 2.744501 1_655
Ca17 O11 2.757461 1_655
La0 O4 2.385436 1_555
La0 O44 2.420116 1_555
La0 O43 2.420116 1_555
La0 O54 2.571614 1_555
La0 O53 2.571614 1_555
La0 O29 2.586376 1_555
La0 O20 2.760256 1_555
La0 O22 2.760256 1_555
La1 O29 2.408577 1_645
La1 O53 2.416410 1_545
La1 O54 2.416410 1_545
La1 O4 2.578691 1_655
La1 O43 2.584263 1_555
La1 O44 2.584263 1_555
La1 O12 2.770842 1_655
La1 O14 2.770842 1_655
Mn0 O14 1.993828 1_555
Mn0 O53 2.005770 1_545
Mn0 O34 2.007412 1_555
Mn0 O20 2.008186 1_545
Mn0 O29 2.021897 1_545
Mn0 O44 2.025479 1_555
Mn1 O12 1.993828 1_555
Mn1 O54 2.005770 1_545
Mn1 O33 2.007412 1_555
Mn1 O22 2.008186 1_545
Mn1 O29 2.021897 1_545
Mn1 O43 2.025479 1_555
O0 Ti0 1.924050 1_555
O0 Ti1 2.009368 1_455
O1 Ti2 1.965623 1_455
O1 Ti3 1.986415 1_455
O2 Ti5 1.965623 1_455
O2 Ti4 1.986415 1_455
O3 Ti16 1.924050 1_555
O3 Ti17 2.009368 1_455
O4 Ti7 2.082335 1_555
O4 Ti6 2.082335 1_555
O5 Ti12 1.980620 1_545
O5 Ti2 1.983716 1_455
O6 Ti8 1.973807 1_555
O6 Ti1 1.988452 1_455
O7 Ti9 1.981178 1_545
O7 Ti3 1.982227 1_455
O8 Ti13 1.981178 1_545
O8 Ti4 1.982227 1_455
O9 Ti14 1.973807 1_555
O9 Ti17 1.988452 1_455
O10 Ti10 1.980620 1_545
O10 Ti5 1.983716 1_455
O11 Ti16 1.942683 1_555
O11 Ti15 2.034241 1_545
O12 Ti6 1.935009 1_555
O13 Ti0 1.942683 1_556
O13 Ti11 2.034241 1_545
O14 Ti7 1.935009 1_555
O15 Ti1 1.982170 1_455
O15 Ti8 1.985385 1_565
O16 Ti12 1.981661 1_555
O16 Ti2 1.985222 1_455
O17 Ti3 1.980378 1_455
O17 Ti9 1.987134 1_555
O18 Ti4 1.980378 1_455
O18 Ti13 1.987134 1_555
O19 Ti17 1.982170 1_455
O19 Ti14 1.985385 1_565
O20 Ti7 1.921031 1_555
O21 Ti16 1.968764 1_555
O21 Ti15 2.005141 1_555
O22 Ti6 1.921031 1_555
O23 Ti10 1.981661 1_555
O23 Ti5 1.985222 1_455
O24 Ti0 1.968764 1_556
O24 Ti11 2.005141 1_555
O25 Ti8 1.937700 1_565
O25 Ti11 2.025347 1_554
O26 Ti14 1.937700 1_565
O26 Ti15 2.025347 1_555
O27 Ti9 1.973796 1_555
O27 Ti12 1.995457 1_555
O28 Ti13 1.973796 1_555
O28 Ti10 1.995457 1_555
O30 Ti9 1.983964 1_545
O30 Ti13 1.983964 1_545
O31 Ti12 1.960595 1_545
O31 Ti8 2.010461 1_555
O32 Ti10 1.960595 1_545
O32 Ti14 2.010461 1_555
O33 Ti15 1.887016 1_545
O34 Ti11 1.887016 1_545
O35 Ti11 1.983232 1_544
O35 Ti0 1.988335 1_655
O36 Ti1 1.975372 1_555
O36 Ti8 1.992799 1_555
O37 Ti3 1.979324 1_555
O37 Ti9 1.988173 1_545
O38 Ti2 1.973673 1_555
O38 Ti12 1.994145 1_545
O39 Ti17 1.975372 1_555
O39 Ti14 1.992799 1_555
O40 Ti4 1.979324 1_555
O40 Ti13 1.988173 1_545
O41 Ti5 1.973673 1_555
O41 Ti10 1.994145 1_545
O42 Ti15 1.983232 1_545
O42 Ti16 1.988335 1_655
O43 Ti6 1.963672 1_655
O44 Ti7 1.963672 1_655
O45 Ti11 1.943224 1_554
O45 Ti0 2.016827 1_655
O46 Ti1 1.974353 1_555
O46 Ti8 1.991381 1_565
O47 Ti2 1.980638 1_555
O47 Ti12 1.982173 1_555
O48 Ti9 1.980447 1_555
O48 Ti3 1.983507 1_555
O49 Ti13 1.980447 1_555
O49 Ti4 1.983507 1_555
O50 Ti5 1.980638 1_555
O50 Ti10 1.982173 1_555
O51 Ti17 1.974353 1_555
O51 Ti14 1.991381 1_565
O52 Ti15 1.943224 1_555
O52 Ti16 2.016827 1_655
O53 Ti7 1.985278 1_655
O54 Ti6 1.985278 1_655
O55 Ti1 1.949592 1_555
O55 Ti2 1.997607 1_555
O56 Ti3 1.976436 1_555
O56 Ti4 1.976436 1_555
O57 Ti17 1.949592 1_555
O57 Ti5 1.997607 1_555
O58 Ti6 1.894093 1_655
O58 Ti16 2.021639 1_655
O59 Ti7 1.894093 1_655
O59 Ti0 2.021639 1_656
