# generated using pymatgen
data_K4Ba2N7O16
_symmetry_space_group_name_H-M   'P 1'
_cell_length_a   9.05837735
_cell_length_b   9.05837735
_cell_length_c   13.26655707
_cell_angle_alpha   68.69902537
_cell_angle_beta   68.69902537
_cell_angle_gamma   85.74337898
_symmetry_Int_Tables_number   1
_chemical_formula_structural   K4Ba2N7O16
_chemical_formula_sum   'K8 Ba4 N14 O32'
_cell_volume   942.83217745
_cell_formula_units_Z   2
loop_
 _symmetry_equiv_pos_site_id
 _symmetry_equiv_pos_as_xyz
  1  'x, y, z'
loop_
 _atom_site_type_symbol
 _atom_site_label
 _atom_site_symmetry_multiplicity
 _atom_site_fract_x
 _atom_site_fract_y
 _atom_site_fract_z
 _atom_site_occupancy
  K  K0  1  0.09103400  0.59194500  0.83317000  1
  K  K1  1  0.59194500  0.09103400  0.83317000  1
  K  K2  1  0.90896600  0.40805500  0.16683000  1
  K  K3  1  0.40805500  0.90896600  0.16683000  1
  K  K4  1  0.92756100  0.42593400  0.66430700  1
  K  K5  1  0.42593400  0.92756100  0.66430700  1
  K  K6  1  0.07243900  0.57406600  0.33569300  1
  K  K7  1  0.57406600  0.07243900  0.33569300  1
  Ba  Ba0  1  0.00000000  0.00000000  0.00000000  1
  Ba  Ba1  1  0.00000000  0.00000000  0.50000000  1
  Ba  Ba2  1  0.50000000  0.50000000  0.00000000  1
  Ba  Ba3  1  0.50000000  0.50000000  0.50000000  1
  N  N0  1  0.01053300  0.01053300  0.73135400  1
  N  N1  1  0.98946700  0.98946700  0.26864600  1
  N  N2  1  0.24322200  0.24322200  0.76734600  1
  N  N3  1  0.75677800  0.75677800  0.23265400  1
  N  N4  1  0.49092900  0.49092900  0.26880600  1
  N  N5  1  0.50907100  0.50907100  0.73119400  1
  N  N6  1  0.26048600  0.26048600  0.23256400  1
  N  N7  1  0.73951400  0.73951400  0.76743600  1
  N  N8  1  0.73116800  0.26883200  0.00000000  1
  N  N9  1  0.26883200  0.73116800  0.00000000  1
  N  N10  1  0.22996300  0.22996300  0.00451600  1
  N  N11  1  0.77003700  0.77003700  0.99548400  1
  N  N12  1  0.23194300  0.23194300  0.49666700  1
  N  N13  1  0.76805700  0.76805700  0.50333300  1
  O  O0  1  0.92237700  0.09593300  0.78386500  1
  O  O1  1  0.09593300  0.92237700  0.78386500  1
  O  O2  1  0.07762300  0.90406700  0.21613500  1
  O  O3  1  0.90406700  0.07762300  0.21613500  1
  O  O4  1  0.20888000  0.38233900  0.71634200  1
  O  O5  1  0.38233900  0.20888000  0.71634200  1
  O  O6  1  0.79112000  0.61766100  0.28365800  1
  O  O7  1  0.61766100  0.79112000  0.28365800  1
  O  O8  1  0.40177500  0.57541500  0.21825700  1
  O  O9  1  0.57541500  0.40177500  0.21825700  1
  O  O10  1  0.59822500  0.42458500  0.78174300  1
  O  O11  1  0.42458500  0.59822500  0.78174300  1
  O  O12  1  0.12163600  0.29509300  0.28382700  1
  O  O13  1  0.29509300  0.12163600  0.28382700  1
  O  O14  1  0.87836400  0.70490700  0.71617300  1
  O  O15  1  0.70490700  0.87836400  0.71617300  1
  O  O16  1  0.87853300  0.30728600  0.94485900  1
  O  O17  1  0.30728600  0.87853300  0.94485900  1
  O  O18  1  0.12146700  0.69271400  0.05514100  1
  O  O19  1  0.69271400  0.12146700  0.05514100  1
  O  O20  1  0.80028200  0.24803600  0.53455200  1
  O  O21  1  0.24803600  0.80028200  0.53455200  1
  O  O22  1  0.19971800  0.75196400  0.46544800  1
  O  O23  1  0.75196400  0.19971800  0.46544800  1
  O  O24  1  0.36833700  0.19486500  0.00437000  1
  O  O25  1  0.19486500  0.36833700  0.00437000  1
  O  O26  1  0.63166300  0.80513500  0.99563000  1
  O  O27  1  0.80513500  0.63166300  0.99563000  1
  O  O28  1  0.19725200  0.37065400  0.49599400  1
  O  O29  1  0.37065400  0.19725200  0.49599400  1
  O  O30  1  0.80274800  0.62934600  0.50400600  1
  O  O31  1  0.62934600  0.80274800  0.50400600  1
loop_
_geom_bond_atom_site_label_1
_geom_bond_atom_site_label_2
_geom_bond_distance
_geom_bond_site_symmetry_2
K0 O4 2.789601 1_555
K0 O27 2.802037 1_455
K0 O14 2.809500 1_455
K0 O1 2.822254 1_555
K0 O25 2.841251 1_556
K0 O11 2.845593 1_555
K0 O16 2.904901 1_455
K1 O5 2.789601 1_555
K1 O26 2.802037 1_545
K1 O15 2.809500 1_545
K1 O0 2.822254 1_555
K1 O24 2.841251 1_556
K1 O10 2.845593 1_555
K1 O17 2.904901 1_545
K2 O6 2.789601 1_555
K2 O25 2.802037 1_655
K2 O12 2.809500 1_655
K2 O3 2.822254 1_555
K2 O27 2.841251 1_554
K2 O9 2.845593 1_555
K2 O18 2.904901 1_655
K3 O7 2.789601 1_555
K3 O24 2.802037 1_565
K3 O13 2.809500 1_565
K3 O2 2.822254 1_555
K3 O26 2.841251 1_554
K3 O8 2.845593 1_555
K3 O19 2.904901 1_565
K4 O30 2.790460 1_555
K4 O28 2.805771 1_655
K4 O14 2.816265 1_555
K4 O10 2.818153 1_555
K4 O0 2.824131 1_555
K4 O4 2.838474 1_655
K4 O20 3.259211 1_555
K4 O16 3.341998 1_555
K5 O31 2.790460 1_555
K5 O29 2.805771 1_565
K5 O15 2.816265 1_555
K5 O11 2.818153 1_555
K5 O1 2.824131 1_555
K5 O5 2.838474 1_565
K5 O21 3.259211 1_555
K5 O17 3.341998 1_555
K6 O28 2.790460 1_555
K6 O30 2.805771 1_455
K6 O12 2.816265 1_555
K6 O8 2.818153 1_555
K6 O2 2.824131 1_555
K6 O6 2.838474 1_455
K6 O22 3.259211 1_555
K6 O18 3.341998 1_555
K7 O29 2.790460 1_555
K7 O31 2.805771 1_545
K7 O13 2.816265 1_555
K7 O9 2.818153 1_555
K7 O3 2.824131 1_555
K7 O7 2.838474 1_545
K7 O23 3.259211 1_555
K7 O19 3.341998 1_555
Ba0 O18 2.853853 1_545
Ba0 O16 2.853853 1_454
Ba0 O17 2.853853 1_544
Ba0 O19 2.853853 1_455
Ba0 O0 3.005849 1_454
Ba0 O1 3.005849 1_544
Ba0 O3 3.005849 1_455
Ba0 O2 3.005849 1_545
Ba0 N10 3.083445 1_555
Ba0 N11 3.083445 1_444
Ba0 N2 3.173981 1_554
Ba0 N3 3.173981 1_445
Ba1 O20 2.841395 1_455
Ba1 O21 2.841395 1_545
Ba1 O23 2.841395 1_455
Ba1 O22 2.841395 1_545
Ba1 O12 3.025856 1_555
Ba1 O15 3.025856 1_445
Ba1 O13 3.025856 1_555
Ba1 O14 3.025856 1_445
Ba1 N13 3.057922 1_445
Ba1 N12 3.057922 1_555
Ba1 N0 3.140940 1_555
Ba1 N1 3.140940 1_445
Ba2 N8 2.849352 1_555
Ba2 N9 2.849352 1_555
Ba2 O8 3.019516 1_555
Ba2 O9 3.019516 1_555
Ba2 O10 3.019516 1_554
Ba2 O11 3.019516 1_554
Ba2 O24 3.064039 1_555
Ba2 O25 3.064039 1_555
Ba2 O26 3.064039 1_554
Ba2 O27 3.064039 1_554
Ba2 N7 3.147322 1_554
Ba2 N6 3.147322 1_555
Ba3 O7 3.003916 1_555
Ba3 O5 3.003916 1_555
Ba3 O4 3.003916 1_555
Ba3 O6 3.003916 1_555
Ba3 O31 3.086184 1_555
Ba3 O29 3.086184 1_555
Ba3 O30 3.086184 1_555
Ba3 O28 3.086184 1_555
Ba3 N4 3.128596 1_555
Ba3 N5 3.128596 1_555
N0 O0 1.271647 1_455
N0 O1 1.271647 1_545
N1 O3 1.271647 1_565
N1 O2 1.271647 1_655
N2 O5 1.271963 1_555
N2 O4 1.271963 1_555
N3 O7 1.271963 1_555
N3 O6 1.271963 1_555
N4 O9 1.271404 1_555
N4 O8 1.271404 1_555
N5 O11 1.271404 1_555
N5 O10 1.271404 1_555
N6 O12 1.271863 1_555
N6 O13 1.271863 1_555
N7 O15 1.271863 1_555
N7 O14 1.271863 1_555
N8 O16 1.269969 1_554
N8 O19 1.269969 1_555
N9 O17 1.269969 1_554
N9 O18 1.269969 1_555
N10 O25 1.269540 1_555
N10 O24 1.269540 1_555
N11 O27 1.269540 1_555
N11 O26 1.269540 1_555
N12 O28 1.269995 1_555
N12 O29 1.269995 1_555
N13 O31 1.269995 1_555
N13 O30 1.269995 1_555
O20 O23 1.354656 1_555
O21 O22 1.354656 1_555
