# generated using pymatgen
data_Ba5(Ga3H)2
_symmetry_space_group_name_H-M   'P 1'
_cell_length_a   7.80747862
_cell_length_b   7.80747862
_cell_length_c   14.46809800
_cell_angle_alpha   90.00000000
_cell_angle_beta   90.00000000
_cell_angle_gamma   120.00000523
_symmetry_Int_Tables_number   1
_chemical_formula_structural   Ba5(Ga3H)2
_chemical_formula_sum   'Ba10 Ga12 H4'
_cell_volume   763.77186727
_cell_formula_units_Z   2
loop_
 _symmetry_equiv_pos_site_id
 _symmetry_equiv_pos_as_xyz
  1  'x, y, z'
loop_
 _atom_site_type_symbol
 _atom_site_label
 _atom_site_symmetry_multiplicity
 _atom_site_fract_x
 _atom_site_fract_y
 _atom_site_fract_z
 _atom_site_occupancy
  Ba  Ba0  1  0.69083700  0.02284100  0.76308400  1
  Ba  Ba1  1  0.97715900  0.66799600  0.76308400  1
  Ba  Ba2  1  0.33200400  0.30916300  0.76308400  1
  Ba  Ba3  1  0.97715900  0.30916300  0.26308400  1
  Ba  Ba4  1  0.33200400  0.02284100  0.26308400  1
  Ba  Ba5  1  0.69083700  0.66799600  0.26308400  1
  Ba  Ba6  1  0.66666700  0.33333300  0.53088600  1
  Ba  Ba7  1  0.66666700  0.33333300  0.03088600  1
  Ba  Ba8  1  0.00000000  0.00000000  0.49838600  1
  Ba  Ba9  1  0.00000000  0.00000000  0.99838600  1
  Ga  Ga0  1  0.14145100  0.45888300  0.58940900  1
  Ga  Ga1  1  0.54111700  0.68256800  0.58940900  1
  Ga  Ga2  1  0.31743200  0.85854900  0.58940900  1
  Ga  Ga3  1  0.54111700  0.85854900  0.08940900  1
  Ga  Ga4  1  0.31743200  0.45888300  0.08940900  1
  Ga  Ga5  1  0.14145100  0.68256800  0.08940900  1
  Ga  Ga6  1  0.12560500  0.47382600  0.93400500  1
  Ga  Ga7  1  0.52617400  0.65177900  0.93400500  1
  Ga  Ga8  1  0.34822100  0.87439500  0.93400500  1
  Ga  Ga9  1  0.52617400  0.87439500  0.43400500  1
  Ga  Ga10  1  0.34822100  0.47382600  0.43400500  1
  Ga  Ga11  1  0.12560500  0.65177900  0.43400500  1
  H  H0  1  0.00000000  0.00000000  0.81636700  1
  H  H1  1  0.00000000  0.00000000  0.31636700  1
  H  H2  1  0.66666700  0.33333300  0.71870400  1
  H  H3  1  0.66666700  0.33333300  0.21870400  1
loop_
_geom_bond_atom_site_label_1
_geom_bond_atom_site_label_2
_geom_bond_distance
_geom_bond_site_symmetry_2
Ba0 H2 2.604208 1_555
Ba0 H0 2.623528 1_655
Ba0 Ga8 3.393183 1_545
Ba0 Ga1 3.410681 1_545
Ba0 Ga7 3.526542 1_545
Ba0 Ga2 3.566366 1_545
Ba1 H2 2.604212 1_555
Ba1 H0 2.623528 1_665
Ba1 Ga6 3.393183 1_655
Ba1 Ga2 3.410681 1_655
Ba1 Ga8 3.526542 1_655
Ba1 Ga0 3.566366 1_655
Ba2 H2 2.604216 1_555
Ba2 H0 2.623527 1_555
Ba2 Ga7 3.393183 1_555
Ba2 Ga0 3.410681 1_555
Ba2 Ga6 3.526542 1_555
Ba2 Ga1 3.566366 1_555
Ba3 H3 2.604208 1_555
Ba3 H1 2.623528 1_655
Ba3 Ga11 3.393183 1_655
Ba3 Ga4 3.410681 1_655
Ba3 Ga10 3.526542 1_655
Ba3 Ga5 3.566366 1_655
Ba4 H3 2.604212 1_555
Ba4 H1 2.623528 1_555
Ba4 Ga9 3.393183 1_545
Ba4 Ga5 3.410681 1_545
Ba4 Ga11 3.526542 1_545
Ba4 Ga3 3.566366 1_545
Ba5 H3 2.604216 1_555
Ba5 H1 2.623527 1_665
Ba5 Ga10 3.393183 1_555
Ba5 Ga3 3.410681 1_555
Ba5 Ga9 3.526542 1_555
Ba5 Ga4 3.566366 1_555
Ba6 H2 2.717369 1_555
Ba6 Ga0 3.432937 1_655
Ba6 Ga2 3.432939 1_545
Ba6 Ga1 3.432944 1_555
Ba6 Ga9 3.475127 1_545
Ba6 Ga11 3.475129 1_655
Ba6 Ga10 3.475134 1_555
Ba7 H3 2.717369 1_555
Ba7 Ga3 3.432937 1_545
Ba7 Ga5 3.432939 1_655
Ba7 Ga4 3.432944 1_555
Ba7 Ga6 3.475127 1_654
Ba7 Ga8 3.475129 1_544
Ba7 Ga7 3.475134 1_554
Ba8 H1 2.633469 1_555
Ba8 Ga1 3.439936 1_445
Ba8 Ga0 3.439936 1_555
Ba8 Ga2 3.439936 1_545
Ba8 Ga10 3.447746 1_555
Ba8 Ga9 3.447746 1_445
Ba8 Ga11 3.447746 1_545
Ba9 H0 2.633469 1_555
Ba9 Ga4 3.439936 1_556
Ba9 Ga3 3.439936 1_446
Ba9 Ga5 3.439936 1_546
Ba9 Ga7 3.447746 1_445
Ba9 Ga6 3.447746 1_555
Ba9 Ga8 3.447746 1_545
Ga0 Ga1 2.708740 1_555
Ga0 Ga2 2.708740 1_555
Ga0 Ga10 2.736185 1_555
Ga0 Ga11 2.743185 1_555
Ga1 Ga2 2.708741 1_555
Ga1 Ga9 2.736185 1_555
Ga1 Ga10 2.743185 1_555
Ga2 Ga9 2.743185 1_555
Ga3 Ga4 2.708740 1_555
Ga3 Ga5 2.708740 1_555
Ga3 Ga7 2.736185 1_554
Ga3 Ga8 2.743185 1_554
Ga4 Ga5 2.708741 1_555
Ga4 Ga6 2.736185 1_554
Ga4 Ga7 2.743185 1_554
Ga5 Ga8 2.736185 1_554
Ga5 Ga6 2.743185 1_554
Ga6 Ga8 2.714043 1_555
Ga6 Ga7 2.714043 1_555
Ga7 Ga8 2.714043 1_555
Ga10 Ga9 2.714043 1_555
Ga10 Ga11 2.714043 1_555
Ga11 Ga9 2.714043 1_555
Ga11 Ga2 2.736185 1_555
