# generated using pymatgen
data_CeGaNi
_symmetry_space_group_name_H-M   'P 1'
_cell_length_a   4.49801000
_cell_length_b   6.70780400
_cell_length_c   7.40596400
_cell_angle_alpha   90.00000000
_cell_angle_beta   90.00000000
_cell_angle_gamma   90.00000000
_symmetry_Int_Tables_number   1
_chemical_formula_structural   CeGaNi
_chemical_formula_sum   'Ce4 Ga4 Ni4'
_cell_volume   223.45103851
_cell_formula_units_Z   4
loop_
 _symmetry_equiv_pos_site_id
 _symmetry_equiv_pos_as_xyz
  1  'x, y, z'
loop_
 _atom_site_type_symbol
 _atom_site_label
 _atom_site_symmetry_multiplicity
 _atom_site_fract_x
 _atom_site_fract_y
 _atom_site_fract_z
 _atom_site_occupancy
  Ce  Ce0  1  0.75000000  0.67938100  0.52828400  1
  Ce  Ce1  1  0.25000000  0.17938100  0.97171600  1
  Ce  Ce2  1  0.25000000  0.32061900  0.47171600  1
  Ce  Ce3  1  0.75000000  0.82061900  0.02828400  1
  Ga  Ga0  1  0.25000000  0.89580400  0.31664400  1
  Ga  Ga1  1  0.25000000  0.60419600  0.81664400  1
  Ga  Ga2  1  0.75000000  0.10419600  0.68335600  1
  Ga  Ga3  1  0.75000000  0.39580400  0.18335600  1
  Ni  Ni0  1  0.75000000  0.42350500  0.84281400  1
  Ni  Ni1  1  0.75000000  0.07649500  0.34281400  1
  Ni  Ni2  1  0.25000000  0.92350500  0.65718600  1
  Ni  Ni3  1  0.25000000  0.57649500  0.15718600  1
loop_
_geom_bond_atom_site_label_1
_geom_bond_atom_site_label_2
_geom_bond_distance
_geom_bond_site_symmetry_2
Ce0 Ni0 2.893442 1_555
Ce0 Ni2 2.941240 1_555
Ce0 Ni2 2.941240 1_655
Ce0 Ni1 2.997060 1_565
Ce0 Ga2 3.072302 1_565
Ce0 Ga0 3.101977 1_655
Ce0 Ga0 3.101977 1_555
Ce0 Ga1 3.142147 1_555
Ce0 Ga1 3.142147 1_655
Ce0 Ga3 3.184946 1_555
Ce1 Ni2 2.893442 1_545
Ce1 Ni0 2.941240 1_555
Ce1 Ni0 2.941240 1_455
Ce1 Ni3 2.997060 1_556
Ce1 Ga1 3.072302 1_555
Ce1 Ga3 3.101977 1_556
Ce1 Ga3 3.101977 1_456
Ce1 Ga2 3.142147 1_455
Ce1 Ga2 3.142147 1_555
Ce1 Ga0 3.184946 1_546
Ce2 Ni3 2.893442 1_555
Ce2 Ni1 2.941240 1_555
Ce2 Ni1 2.941240 1_455
Ce2 Ni2 2.997060 1_545
Ce2 Ga0 3.072302 1_545
Ce2 Ga2 3.101977 1_455
Ce2 Ga2 3.101977 1_555
Ce2 Ga3 3.142147 1_555
Ce2 Ga3 3.142147 1_455
Ce2 Ga1 3.184946 1_555
Ce3 Ni1 2.893442 1_565
Ce3 Ni3 2.941240 1_555
Ce3 Ni3 2.941240 1_655
Ce3 Ni0 2.997060 1_554
Ce3 Ga3 3.072302 1_555
Ce3 Ga1 3.101977 1_654
Ce3 Ga1 3.101977 1_554
Ce3 Ga0 3.142147 1_655
Ce3 Ga0 3.142147 1_555
Ce3 Ga2 3.184946 1_564
Ga0 Ni3 2.445852 1_555
Ga0 Ni2 2.528877 1_555
Ga0 Ni1 2.562153 1_465
Ga0 Ni1 2.562153 1_565
Ga1 Ni2 2.445852 1_555
Ga1 Ni3 2.528877 1_556
Ga1 Ni0 2.562153 1_455
Ga1 Ni0 2.562153 1_555
Ga2 Ni0 2.445852 1_555
Ga2 Ni1 2.528877 1_555
Ga2 Ni2 2.562153 1_545
Ga2 Ni2 2.562153 1_645
Ga3 Ni1 2.445852 1_555
Ga3 Ni0 2.528877 1_554
Ga3 Ni3 2.562153 1_555
Ga3 Ni3 2.562153 1_655
