# generated using pymatgen
data_Sr2La2MgTi3O12
_symmetry_space_group_name_H-M   'P 1'
_cell_length_a   5.61870400
_cell_length_b   5.60398300
_cell_length_c   15.77035496
_cell_angle_alpha   89.92109198
_cell_angle_beta   90.00000000
_cell_angle_gamma   90.00000000
_symmetry_Int_Tables_number   1
_chemical_formula_structural   Sr2La2MgTi3O12
_chemical_formula_sum   'Sr4 La4 Mg2 Ti6 O24'
_cell_volume   496.56261480
_cell_formula_units_Z   2
loop_
 _symmetry_equiv_pos_site_id
 _symmetry_equiv_pos_as_xyz
  1  'x, y, z'
loop_
 _atom_site_type_symbol
 _atom_site_label
 _atom_site_symmetry_multiplicity
 _atom_site_fract_x
 _atom_site_fract_y
 _atom_site_fract_z
 _atom_site_occupancy
  Sr  Sr0  1  0.00095500  0.99689200  0.12254300  1
  Sr  Sr1  1  0.49904500  0.49689200  0.12254300  1
  Sr  Sr2  1  0.50095500  0.50310800  0.87745700  1
  Sr  Sr3  1  0.99904500  0.00310800  0.87745700  1
  La  La0  1  0.01488800  0.98243600  0.61735900  1
  La  La1  1  0.48511200  0.48243600  0.61735900  1
  La  La2  1  0.51488800  0.51756400  0.38264100  1
  La  La3  1  0.98511200  0.01756400  0.38264100  1
  Mg  Mg0  1  0.00000000  0.50000000  0.50000000  1
  Mg  Mg1  1  0.50000000  0.00000000  0.50000000  1
  Ti  Ti0  1  0.00000000  0.50000000  0.00000000  1
  Ti  Ti1  1  0.50972500  0.98804400  0.74939900  1
  Ti  Ti2  1  0.50000000  0.00000000  0.00000000  1
  Ti  Ti3  1  0.49027500  0.01195600  0.25060100  1
  Ti  Ti4  1  0.99027500  0.48804400  0.74939900  1
  Ti  Ti5  1  0.00972500  0.51195600  0.25060100  1
  O  O0  1  0.05242300  0.50217500  0.87544200  1
  O  O1  1  0.08149400  0.48602100  0.36815000  1
  O  O2  1  0.24304300  0.23645200  0.23203200  1
  O  O3  1  0.23927500  0.24826600  0.72973300  1
  O  O4  1  0.24615100  0.24598700  0.01256200  1
  O  O5  1  0.23197300  0.23189700  0.52371400  1
  O  O6  1  0.25695700  0.73645200  0.23203200  1
  O  O7  1  0.25384900  0.74598700  0.01256200  1
  O  O8  1  0.26072500  0.74826600  0.72973300  1
  O  O9  1  0.26802700  0.73189700  0.52371400  1
  O  O10  1  0.44757700  0.00217500  0.87544200  1
  O  O11  1  0.41850600  0.98602100  0.36815000  1
  O  O12  1  0.58149400  0.01397900  0.63185000  1
  O  O13  1  0.55242300  0.99782500  0.12455800  1
  O  O14  1  0.73927500  0.25173400  0.27026700  1
  O  O15  1  0.74304300  0.26354800  0.76796800  1
  O  O16  1  0.74615100  0.25401300  0.98743800  1
  O  O17  1  0.73197300  0.26810300  0.47628600  1
  O  O18  1  0.75384900  0.75401300  0.98743800  1
  O  O19  1  0.76802700  0.76810300  0.47628600  1
  O  O20  1  0.75695700  0.76354800  0.76796800  1
  O  O21  1  0.76072500  0.75173400  0.27026700  1
  O  O22  1  0.94757700  0.49782500  0.12455800  1
  O  O23  1  0.91850600  0.51397900  0.63185000  1
loop_
_geom_bond_atom_site_label_1
_geom_bond_atom_site_label_2
_geom_bond_distance
_geom_bond_site_symmetry_2
La0 O5 2.370103 1_565
La0 O12 2.452215 1_465
La0 O9 2.486148 1_555
La0 O8 2.600817 1_555
La0 O3 2.637544 1_565
La0 O23 2.689916 1_455
La0 O19 2.885053 1_455
La0 O23 3.036506 1_465
La0 O20 3.039456 1_455
La0 O17 3.166934 1_465
La0 O12 3.196692 1_565
La0 O15 3.235181 1_465
La1 O9 2.370103 1_555
La1 O23 2.452215 1_555
La1 O5 2.486148 1_555
La1 O3 2.600817 1_555
La1 O8 2.637544 1_555
La1 O12 2.689916 1_555
La1 O17 2.885053 1_555
La1 O12 3.036506 1_565
La1 O15 3.039456 1_555
La1 O19 3.166934 1_555
La1 O23 3.196692 1_455
La1 O20 3.235181 1_555
La2 O17 2.370103 1_555
La2 O1 2.452215 1_555
La2 O19 2.486148 1_555
La2 O21 2.600817 1_555
La2 O14 2.637544 1_555
La2 O11 2.689916 1_555
La2 O9 2.885053 1_555
La2 O11 3.036506 1_545
La2 O6 3.039456 1_555
La2 O5 3.166934 1_555
La2 O1 3.196692 1_655
La2 O2 3.235181 1_555
La3 O19 2.370103 1_545
La3 O11 2.452215 1_645
La3 O17 2.486148 1_555
La3 O14 2.600817 1_555
La3 O21 2.637544 1_545
La3 O1 2.689916 1_655
La3 O5 2.885053 1_655
La3 O1 3.036506 1_645
La3 O2 3.039456 1_655
La3 O9 3.166934 1_645
La3 O11 3.196692 1_545
La3 O6 3.235181 1_645
Mg0 O19 2.023480 1_455
Mg0 O5 2.023480 1_555
Mg0 O17 2.024339 1_455
Mg0 O9 2.024339 1_555
Mg0 O23 2.130687 1_455
Mg0 O1 2.130687 1_555
Mg1 O9 2.023480 1_545
Mg1 O17 2.023480 1_555
Mg1 O5 2.024339 1_555
Mg1 O19 2.024339 1_545
Mg1 O12 2.130687 1_555
Mg1 O11 2.130687 1_545
O0 Ti0 1.986306 1_556
O0 Ti4 2.019842 1_455
O0 Sr2 2.520374 1_555
O0 Sr3 2.812934 1_455
O0 Sr3 2.823418 1_465
O0 Sr2 3.098703 1_455
O1 Ti5 1.902505 1_555
O2 Ti3 1.896615 1_555
O2 Ti5 2.046769 1_555
O2 Sr0 2.576876 1_545
O2 Sr1 2.678362 1_555
O3 Ti4 1.964754 1_455
O3 Ti1 2.128530 1_545
O3 Sr3 3.021242 1_455
O3 Sr2 3.104485 1_555
O4 Ti2 1.993645 1_555
O4 Ti0 1.994393 1_555
O4 Sr0 2.616912 1_545
O4 Sr1 2.647845 1_555
O4 Sr3 2.885816 1_454
O4 Sr2 2.942295 1_554
O6 Ti5 1.896615 1_555
O6 Ti3 2.046769 1_565
O6 Sr1 2.576876 1_555
O6 Sr0 2.678362 1_555
O7 Ti0 1.993645 1_555
O7 Ti2 1.994393 1_565
O7 Sr1 2.616912 1_555
O7 Sr0 2.647845 1_555
O7 Sr2 2.885816 1_554
O7 Sr3 2.942295 1_464
O8 Ti1 1.964754 1_555
O8 Ti4 2.128530 1_455
O8 Sr2 3.021242 1_555
O8 Sr3 3.104485 1_465
O10 Ti2 1.986306 1_556
O10 Ti1 2.019842 1_545
O10 Sr3 2.520374 1_455
O10 Sr2 2.812934 1_545
O10 Sr2 2.823418 1_555
O10 Sr3 3.098703 1_555
O11 Ti3 1.902505 1_565
O12 Ti1 1.902505 1_545
O13 Ti2 1.986306 1_565
O13 Ti3 2.019842 1_565
O13 Sr0 2.520374 1_655
O13 Sr1 2.812934 1_565
O13 Sr1 2.823418 1_555
O13 Sr0 3.098703 1_555
O14 Ti3 1.964754 1_555
O14 Ti5 2.128530 1_655
O14 Sr1 3.021242 1_555
O14 Sr0 3.104485 1_645
O15 Ti4 1.896615 1_555
O15 Ti1 2.046769 1_545
O15 Sr2 2.576876 1_555
O15 Sr3 2.678362 1_555
O16 Ti0 1.993645 1_656
O16 Ti2 1.994393 1_556
O16 Sr2 2.616912 1_555
O16 Sr3 2.647845 1_555
O16 Sr1 2.885816 1_556
O16 Sr0 2.942295 1_646
O18 Ti2 1.993645 1_566
O18 Ti0 1.994393 1_656
O18 Sr3 2.616912 1_565
O18 Sr2 2.647845 1_555
O18 Sr0 2.885816 1_656
O18 Sr1 2.942295 1_556
O20 Ti1 1.896615 1_555
O20 Ti4 2.046769 1_555
O20 Sr3 2.576876 1_565
O20 Sr2 2.678362 1_555
O21 Ti5 1.964754 1_655
O21 Ti3 2.128530 1_565
O21 Sr0 3.021242 1_655
O21 Sr1 3.104485 1_555
O22 Ti0 1.986306 1_655
O22 Ti5 2.019842 1_655
O22 Sr1 2.520374 1_555
O22 Sr0 2.812934 1_655
O22 Sr0 2.823418 1_645
O22 Sr1 3.098703 1_655
O23 Ti4 1.902505 1_555
