# generated using pymatgen
data_BaSO2
_symmetry_space_group_name_H-M   'P 1'
_cell_length_a   4.97708000
_cell_length_b   6.96734800
_cell_length_c   8.95542400
_cell_angle_alpha   90.00000000
_cell_angle_beta   90.00000000
_cell_angle_gamma   90.00000000
_symmetry_Int_Tables_number   1
_chemical_formula_structural   BaSO2
_chemical_formula_sum   'Ba4 S4 O8'
_cell_volume   310.54767135
_cell_formula_units_Z   4
loop_
 _symmetry_equiv_pos_site_id
 _symmetry_equiv_pos_as_xyz
  1  'x, y, z'
loop_
 _atom_site_type_symbol
 _atom_site_label
 _atom_site_symmetry_multiplicity
 _atom_site_fract_x
 _atom_site_fract_y
 _atom_site_fract_z
 _atom_site_occupancy
  Ba  Ba0  1  0.25000000  0.31580300  0.69422800  1
  Ba  Ba1  1  0.25000000  0.18419700  0.19422800  1
  Ba  Ba2  1  0.75000000  0.68419700  0.30577200  1
  Ba  Ba3  1  0.75000000  0.81580300  0.80577200  1
  S  S0  1  0.75000000  0.27852400  0.92824100  1
  S  S1  1  0.75000000  0.22147600  0.42824100  1
  S  S2  1  0.25000000  0.72147600  0.07175900  1
  S  S3  1  0.25000000  0.77852400  0.57175900  1
  O  O0  1  0.75000000  0.43466300  0.79704400  1
  O  O1  1  0.75000000  0.06533700  0.29704400  1
  O  O2  1  0.25000000  0.56533700  0.20295600  1
  O  O3  1  0.25000000  0.93466300  0.70295600  1
  O  O4  1  0.75000000  0.12134800  0.58552500  1
  O  O5  1  0.75000000  0.37865200  0.08552500  1
  O  O6  1  0.25000000  0.87865200  0.41447500  1
  O  O7  1  0.25000000  0.62134800  0.91447500  1
loop_
_geom_bond_atom_site_label_1
_geom_bond_atom_site_label_2
_geom_bond_distance
_geom_bond_site_symmetry_2
Ba0 O3 2.656685 1_545
Ba0 O0 2.779649 1_455
Ba0 O0 2.779649 1_555
Ba0 O7 2.902126 1_555
Ba0 O4 2.996010 1_455
Ba0 O4 2.996010 1_555
Ba0 S3 3.405388 1_555
Ba1 O2 2.656685 1_555
Ba1 O1 2.779649 1_455
Ba1 O1 2.779649 1_555
Ba1 O6 2.902126 1_545
Ba1 O5 2.996010 1_555
Ba1 O5 2.996010 1_455
Ba1 S2 3.405388 1_545
Ba2 O1 2.656685 1_565
Ba2 O2 2.779649 1_555
Ba2 O2 2.779649 1_655
Ba2 O5 2.902126 1_555
Ba2 O6 2.996010 1_655
Ba2 O6 2.996010 1_555
Ba2 S1 3.405388 1_555
Ba3 O0 2.656685 1_555
Ba3 O3 2.779649 1_555
Ba3 O3 2.779649 1_655
Ba3 O4 2.902126 1_565
Ba3 O7 2.996010 1_555
Ba3 O7 2.996010 1_655
Ba3 S0 3.405388 1_565
O0 S0 1.601224 1_555
O1 S1 1.601224 1_555
O2 S2 1.601224 1_555
O3 S3 1.601224 1_555
O4 S1 1.571840 1_555
O5 S0 1.571840 1_554
O6 S3 1.571840 1_555
O7 S2 1.571840 1_556
