# generated using pymatgen
data_Ag4Te(NO3)2
_symmetry_space_group_name_H-M   'P 1'
_cell_length_a   9.27521137
_cell_length_b   9.27521137
_cell_length_c   9.27521137
_cell_angle_alpha   90.00000000
_cell_angle_beta   90.00000000
_cell_angle_gamma   90.00000000
_symmetry_Int_Tables_number   1
_chemical_formula_structural   Ag4Te(NO3)2
_chemical_formula_sum   'Ag16 Te4 N8 O24'
_cell_volume   797.94222283
_cell_formula_units_Z   4
loop_
 _symmetry_equiv_pos_site_id
 _symmetry_equiv_pos_as_xyz
  1  'x, y, z'
loop_
 _atom_site_type_symbol
 _atom_site_label
 _atom_site_symmetry_multiplicity
 _atom_site_fract_x
 _atom_site_fract_y
 _atom_site_fract_z
 _atom_site_occupancy
  Ag  Ag0  1  0.49062489  0.63912313  0.74282842  1
  Ag  Ag1  1  0.13912313  0.75717158  0.50937511  1
  Ag  Ag2  1  0.25717158  0.99062489  0.86087687  1
  Ag  Ag3  1  0.99062489  0.86087687  0.25717158  1
  Ag  Ag4  1  0.00937511  0.36087687  0.24282842  1
  Ag  Ag5  1  0.24282842  0.00937511  0.36087687  1
  Ag  Ag6  1  0.36087687  0.24282842  0.00937511  1
  Ag  Ag7  1  0.01541626  0.51541626  0.98458374  1
  Ag  Ag8  1  0.51541626  0.98458374  0.01541626  1
  Ag  Ag9  1  0.63912313  0.74282842  0.49062489  1
  Ag  Ag10  1  0.50937511  0.13912313  0.75717158  1
  Ag  Ag11  1  0.86087687  0.25717158  0.99062489  1
  Ag  Ag12  1  0.48458374  0.48458374  0.48458374  1
  Ag  Ag13  1  0.74282842  0.49062489  0.63912313  1
  Ag  Ag14  1  0.75717158  0.50937511  0.13912313  1
  Ag  Ag15  1  0.98458374  0.01541626  0.51541626  1
  Te  Te0  1  0.89616259  0.60383741  0.39616259  1
  Te  Te1  1  0.10383741  0.10383741  0.10383741  1
  Te  Te2  1  0.39616259  0.89616259  0.60383741  1
  Te  Te3  1  0.60383741  0.39616259  0.89616259  1
  N  N0  1  0.17886236  0.67886236  0.82113764  1
  N  N1  1  0.28639458  0.71360542  0.21360542  1
  N  N2  1  0.82113764  0.17886236  0.67886236  1
  N  N3  1  0.67886236  0.82113764  0.17886236  1
  N  N4  1  0.21360542  0.28639458  0.71360542  1
  N  N5  1  0.78639458  0.78639458  0.78639458  1
  N  N6  1  0.32113764  0.32113764  0.32113764  1
  N  N7  1  0.71360542  0.21360542  0.28639458  1
  O  O0  1  0.34467651  0.66819663  0.32818336  1
  O  O1  1  0.29079338  0.63907623  0.88848538  1
  O  O2  1  0.63907623  0.88848538  0.29079338  1
  O  O3  1  0.82818336  0.15532349  0.33180337  1
  O  O4  1  0.16819663  0.17181664  0.65532349  1
  O  O5  1  0.79079338  0.86092377  0.11151462  1
  O  O6  1  0.15532349  0.33180337  0.82818336  1
  O  O7  1  0.84467651  0.83180337  0.67181664  1
  O  O8  1  0.38848538  0.20920662  0.36092377  1
  O  O9  1  0.33180337  0.82818336  0.15532349  1
  O  O10  1  0.32818336  0.34467651  0.66819663  1
  O  O11  1  0.61151462  0.70920662  0.13907623  1
  O  O12  1  0.88848538  0.29079338  0.63907623  1
  O  O13  1  0.67181664  0.84467651  0.83180337  1
  O  O14  1  0.83180337  0.67181664  0.84467651  1
  O  O15  1  0.11151462  0.79079338  0.86092377  1
  O  O16  1  0.20920662  0.36092377  0.38848538  1
  O  O17  1  0.65532349  0.16819663  0.17181664  1
  O  O18  1  0.13907623  0.61151462  0.70920662  1
  O  O19  1  0.86092377  0.11151462  0.79079338  1
  O  O20  1  0.36092377  0.38848538  0.20920662  1
  O  O21  1  0.70920662  0.13907623  0.61151462  1
  O  O22  1  0.66819663  0.32818336  0.34467651  1
  O  O23  1  0.17181664  0.65532349  0.16819663  1
loop_
_geom_bond_atom_site_label_1
_geom_bond_atom_site_label_2
_geom_bond_distance
_geom_bond_site_symmetry_2
Ag0 O1 2.293597 1_555
Ag0 O13 2.672149 1_555
Ag0 Te2 2.848425 1_555
Ag0 Te3 2.864198 1_555
Ag1 O18 2.293597 1_555
Ag1 O0 2.672149 1_555
Ag1 Te2 2.848425 1_555
Ag1 Te0 2.864198 1_455
Ag2 O15 2.293597 1_555
Ag2 O4 2.672149 1_565
Ag2 Te2 2.848425 1_555
Ag2 Te1 2.864198 1_566
Ag3 O5 2.293597 1_555
Ag3 O23 2.672149 1_655
Ag3 Te0 2.848425 1_555
Ag3 Te1 2.864198 1_665
Ag4 O16 2.293597 1_555
Ag4 O3 2.672149 1_455
Ag4 Te1 2.848425 1_555
Ag4 Te0 2.864198 1_455
Ag5 O8 2.293597 1_555
Ag5 O9 2.672149 1_545
Ag5 Te1 2.848425 1_555
Ag5 Te2 2.864198 1_545
Ag6 O20 2.293597 1_555
Ag6 O6 2.672149 1_554
Ag6 Te1 2.848425 1_555
Ag6 Te3 2.864198 1_554
Ag7 O6 2.586251 1_555
Ag7 O14 2.586251 1_455
Ag7 O23 2.586251 1_556
Ag7 N0 2.625784 1_555
Ag8 O17 2.586251 1_565
Ag8 O13 2.586251 1_554
Ag8 O9 2.586251 1_555
Ag8 N3 2.625784 1_555
Ag9 O2 2.293597 1_555
Ag9 O7 2.672149 1_555
Ag9 Te0 2.848425 1_555
Ag9 Te2 2.864198 1_555
Ag10 O21 2.293597 1_555
Ag10 O10 2.672149 1_555
Ag10 Te3 2.848425 1_555
Ag10 Te2 2.864198 1_545
Ag11 O19 2.293597 1_555
Ag11 O17 2.672149 1_556
Ag11 Te3 2.848425 1_555
Ag11 Te1 2.864198 1_656
Ag12 O10 2.586251 1_555
Ag12 O0 2.586251 1_555
Ag12 O22 2.586251 1_555
Ag12 N6 2.625784 1_555
Ag13 O12 2.293597 1_555
Ag13 O14 2.672149 1_555
Ag13 Te3 2.848425 1_555
Ag13 Te0 2.864198 1_555
Ag14 O11 2.293597 1_555
Ag14 O22 2.672149 1_555
Ag14 Te0 2.848425 1_555
Ag14 Te3 2.864198 1_554
Ag15 O7 2.586251 1_545
Ag15 O4 2.586251 1_655
Ag15 O3 2.586251 1_555
Ag15 N2 2.625784 1_555
N0 O1 1.266574 1_555
N0 O18 1.266574 1_555
N0 O15 1.266574 1_555
N1 O9 1.264523 1_555
N1 O0 1.264523 1_555
N1 O23 1.264523 1_555
N2 O12 1.266574 1_555
N2 O19 1.266574 1_555
N2 O21 1.266574 1_555
N3 O11 1.266574 1_555
N3 O2 1.266574 1_555
N3 O5 1.266574 1_555
N4 O6 1.264523 1_555
N4 O10 1.264523 1_555
N4 O4 1.264523 1_555
N5 O14 1.264523 1_555
N5 O13 1.264523 1_555
N5 O7 1.264523 1_555
N6 O16 1.266574 1_555
N6 O8 1.266574 1_555
N6 O20 1.266574 1_555
N7 O3 1.264523 1_555
N7 O22 1.264523 1_555
N7 O17 1.264523 1_555
