# generated using pymatgen
data_RbInS2
_symmetry_space_group_name_H-M   'P 1'
_cell_length_a   7.90538319
_cell_length_b   7.90538319
_cell_length_c   15.71531163
_cell_angle_alpha   82.76793579
_cell_angle_beta   82.76793579
_cell_angle_gamma   89.98950399
_symmetry_Int_Tables_number   1
_chemical_formula_structural   RbInS2
_chemical_formula_sum   'Rb8 In8 S16'
_cell_volume   966.44257507
_cell_formula_units_Z   8
loop_
 _symmetry_equiv_pos_site_id
 _symmetry_equiv_pos_as_xyz
  1  'x, y, z'
loop_
 _atom_site_type_symbol
 _atom_site_label
 _atom_site_symmetry_multiplicity
 _atom_site_fract_x
 _atom_site_fract_y
 _atom_site_fract_z
 _atom_site_occupancy
  Rb  Rb0  1  0.72276464  0.34737504  0.11212979  1
  Rb  Rb1  1  0.27798168  0.15351279  0.88737851  1
  Rb  Rb2  1  0.72201832  0.84648721  0.11262149  1
  Rb  Rb3  1  0.15351279  0.27798168  0.38737851  1
  Rb  Rb4  1  0.65262496  0.27723536  0.38787021  1
  Rb  Rb5  1  0.84648721  0.72201832  0.61262149  1
  Rb  Rb6  1  0.34737504  0.72276464  0.61212979  1
  Rb  Rb7  1  0.27723536  0.65262496  0.88787021  1
  In  In0  1  0.41330125  0.79027352  0.33971612  1
  In  In1  1  0.20972648  0.58669875  0.16028388  1
  In  In2  1  0.79027352  0.41330125  0.83971612  1
  In  In3  1  0.20977623  0.08331846  0.15999935  1
  In  In4  1  0.79022377  0.91668154  0.84000065  1
  In  In5  1  0.58669875  0.20972648  0.66028388  1
  In  In6  1  0.91668154  0.79022377  0.34000065  1
  In  In7  1  0.08331846  0.20977623  0.65999935  1
  S  S0  1  0.44564901  0.07071724  0.24969562  1
  S  S1  1  0.92933160  0.07066840  0.25000000  1
  S  S2  1  0.92928276  0.55435099  0.25030438  1
  S  S3  1  0.85911603  0.23396094  0.56301565  1
  S  S4  1  0.64092774  0.76708207  0.43522055  1
  S  S5  1  0.76708207  0.64092774  0.93522055  1
  S  S6  1  0.14088397  0.76603906  0.43698435  1
  S  S7  1  0.07066840  0.92933160  0.75000000  1
  S  S8  1  0.07071724  0.44564901  0.74969562  1
  S  S9  1  0.55443054  0.44556946  0.75000000  1
  S  S10  1  0.23396094  0.85911603  0.06301565  1
  S  S11  1  0.44556946  0.55443054  0.25000000  1
  S  S12  1  0.55435099  0.92928276  0.75030438  1
  S  S13  1  0.76603906  0.14088397  0.93698435  1
  S  S14  1  0.35907226  0.23291793  0.56477945  1
  S  S15  1  0.23291793  0.35907226  0.06477945  1
loop_
_geom_bond_atom_site_label_1
_geom_bond_atom_site_label_2
_geom_bond_distance
_geom_bond_site_symmetry_2
Rb0 S13 3.354366 1_554
Rb0 S5 3.371677 1_554
Rb0 S1 3.441276 1_555
Rb0 S2 3.441798 1_555
Rb0 S11 3.445564 1_555
Rb0 S0 3.446036 1_555
Rb1 S10 3.361139 1_546
Rb1 S15 3.380896 1_556
Rb1 S9 3.510942 1_555
Rb1 S12 3.511555 1_545
Rb1 S8 3.511848 1_555
Rb1 S7 3.513275 1_545
Rb2 S13 3.361139 1_564
Rb2 S5 3.380896 1_554
Rb2 S11 3.510942 1_555
Rb2 S0 3.511555 1_565
Rb2 S2 3.511848 1_555
Rb2 S1 3.513275 1_565
Rb3 S3 3.361139 1_455
Rb3 S14 3.380896 1_555
Rb3 S11 3.510942 1_555
Rb3 S2 3.511555 1_455
Rb3 S0 3.511848 1_555
Rb3 S1 3.513275 1_455
Rb4 S3 3.354366 1_555
Rb4 S14 3.371677 1_555
Rb4 S1 3.441276 1_555
Rb4 S0 3.441798 1_555
Rb4 S11 3.445564 1_555
Rb4 S2 3.446036 1_555
Rb5 S6 3.361139 1_655
Rb5 S4 3.380896 1_555
Rb5 S9 3.510942 1_555
Rb5 S8 3.511555 1_655
Rb5 S12 3.511848 1_555
Rb5 S7 3.513275 1_655
Rb6 S6 3.354366 1_555
Rb6 S4 3.371677 1_555
Rb6 S7 3.441276 1_555
Rb6 S12 3.441798 1_555
Rb6 S9 3.445564 1_555
Rb6 S8 3.446036 1_555
Rb7 S10 3.354366 1_556
Rb7 S15 3.371677 1_556
Rb7 S7 3.441276 1_555
Rb7 S8 3.441798 1_555
Rb7 S9 3.445564 1_555
Rb7 S12 3.446036 1_555
In0 S11 2.469848 1_555
In0 S0 2.470096 1_565
In0 S6 2.471587 1_555
In0 S4 2.476886 1_555
In1 S11 2.469848 1_555
In1 S2 2.470096 1_455
In1 S10 2.471587 1_555
In1 S15 2.476886 1_555
In2 S9 2.469848 1_555
In2 S8 2.470096 1_655
In2 S13 2.471587 1_555
In2 S5 2.476886 1_555
In3 S0 2.469867 1_555
In3 S1 2.469949 1_455
In3 S10 2.471356 1_545
In3 S15 2.476843 1_555
In4 S12 2.469867 1_555
In4 S7 2.469949 1_655
In4 S13 2.471356 1_565
In4 S5 2.476843 1_555
In5 S9 2.469848 1_555
In5 S12 2.470096 1_545
In5 S3 2.471587 1_555
In5 S14 2.476886 1_555
In6 S2 2.469867 1_555
In6 S1 2.469949 1_565
In6 S6 2.471356 1_655
In6 S4 2.476843 1_555
In7 S8 2.469867 1_555
In7 S7 2.469949 1_545
In7 S3 2.471356 1_455
In7 S14 2.476843 1_555
