# generated using pymatgen
data_SrMgH4
_symmetry_space_group_name_H-M   'P 1'
_cell_length_a   7.02241797
_cell_length_b   7.02241797
_cell_length_c   5.57623307
_cell_angle_alpha   90.00000000
_cell_angle_beta   90.00000000
_cell_angle_gamma   32.73613562
_symmetry_Int_Tables_number   1
_chemical_formula_structural   SrMgH4
_chemical_formula_sum   'Sr2 Mg2 H8'
_cell_volume   148.70569944
_cell_formula_units_Z   2
loop_
 _symmetry_equiv_pos_site_id
 _symmetry_equiv_pos_as_xyz
  1  'x, y, z'
loop_
 _atom_site_type_symbol
 _atom_site_label
 _atom_site_symmetry_multiplicity
 _atom_site_fract_x
 _atom_site_fract_y
 _atom_site_fract_z
 _atom_site_occupancy
  Sr  Sr0  1  0.84893988  0.84893988  0.75463925  1
  Sr  Sr1  1  0.15106012  0.15106012  0.25463925  1
  Mg  Mg0  1  0.58497717  0.58497717  0.70857605  1
  Mg  Mg1  1  0.41502283  0.41502283  0.20857605  1
  H  H0  1  0.66602744  0.66602744  0.98534130  1
  H  H1  1  0.33397256  0.33397256  0.48534130  1
  H  H2  1  0.70049709  0.70049709  0.50832903  1
  H  H3  1  0.29950291  0.29950291  0.00832903  1
  H  H4  1  0.92597976  0.92597976  0.17760266  1
  H  H5  1  0.07402024  0.07402024  0.67760266  1
  H  H6  1  0.46140390  0.46140390  0.86651270  1
  H  H7  1  0.53859610  0.53859610  0.36651270  1
loop_
_geom_bond_atom_site_label_1
_geom_bond_atom_site_label_2
_geom_bond_distance
_geom_bond_site_symmetry_2
H0 Mg0 1.890689 1_555
H0 Sr1 2.492386 1_566
H0 Sr1 2.492386 1_656
H0 Sr0 2.780373 1_555
H1 Mg1 1.890689 1_555
H1 Sr0 2.492386 1_545
H1 Sr0 2.492386 1_455
H1 Sr1 2.780373 1_555
H2 Mg0 1.915769 1_555
H2 Sr0 2.426497 1_555
H2 Sr1 2.522162 1_565
H2 Sr1 2.522162 1_655
H3 Mg1 1.915769 1_555
H3 Sr1 2.426497 1_555
H3 Sr0 2.522162 1_454
H3 Sr0 2.522162 1_544
H4 Mg1 1.991967 1_565
H4 Mg1 1.991967 1_655
H4 Sr0 2.576917 1_554
H5 Mg0 1.991967 1_545
H5 Mg0 1.991967 1_455
H5 Sr1 2.576917 1_555
H6 Mg0 1.883771 1_555
H6 Mg1 2.007215 1_556
H6 Sr0 2.569489 1_455
H6 Sr0 2.569489 1_545
H7 Mg1 1.883771 1_555
H7 Mg0 2.007215 1_555
H7 Sr1 2.569489 1_655
H7 Sr1 2.569489 1_565
