# generated using pymatgen
data_Gd3CuSiSe7
_symmetry_space_group_name_H-M   'P 1'
_cell_length_a   10.42054152
_cell_length_b   10.42294776
_cell_length_c   6.00017433
_cell_angle_alpha   90.00000000
_cell_angle_beta   90.00000000
_cell_angle_gamma   120.01516800
_symmetry_Int_Tables_number   1
_chemical_formula_structural   Gd3CuSiSe7
_chemical_formula_sum   'Gd6 Cu2 Si2 Se14'
_cell_volume   564.29857101
_cell_formula_units_Z   2
loop_
 _symmetry_equiv_pos_site_id
 _symmetry_equiv_pos_as_xyz
  1  'x, y, z'
loop_
 _atom_site_type_symbol
 _atom_site_label
 _atom_site_symmetry_multiplicity
 _atom_site_fract_x
 _atom_site_fract_y
 _atom_site_fract_z
 _atom_site_occupancy
  Gd  Gd0  1  0.64415232  0.77357514  0.73544071  1
  Gd  Gd1  1  0.77360249  0.12908817  0.23526033  1
  Gd  Gd2  1  0.22639751  0.87091183  0.73526033  1
  Gd  Gd3  1  0.87077682  0.64418613  0.23561607  1
  Gd  Gd4  1  0.12922318  0.35581387  0.73561607  1
  Gd  Gd5  1  0.35584768  0.22642486  0.23544071  1
  Cu  Cu0  1  0.99994420  0.99996287  0.70434408  1
  Cu  Cu1  1  0.00005580  0.00003713  0.20434408  1
  Si  Si0  1  0.66673400  0.33338953  0.82535318  1
  Si  Si1  1  0.33326600  0.66661047  0.32535318  1
  Se  Se0  1  0.10335582  0.58150962  0.47589035  1
  Se  Se1  1  0.66664988  0.33343716  0.45108448  1
  Se  Se2  1  0.25684491  0.16311634  0.71449953  1
  Se  Se3  1  0.52170690  0.10351095  0.97581272  1
  Se  Se4  1  0.16311700  0.90610089  0.21445269  1
  Se  Se5  1  0.90604676  0.74314980  0.71428112  1
  Se  Se6  1  0.74315509  0.83688366  0.21449953  1
  Se  Se7  1  0.89664418  0.41849038  0.97589035  1
  Se  Se8  1  0.09395324  0.25685020  0.21428112  1
  Se  Se9  1  0.83688300  0.09389911  0.71445269  1
  Se  Se10  1  0.47829310  0.89648905  0.47581272  1
  Se  Se11  1  0.33335012  0.66656284  0.95108448  1
  Se  Se12  1  0.41826385  0.52176891  0.47602974  1
  Se  Se13  1  0.58173615  0.47823109  0.97602974  1
loop_
_geom_bond_atom_site_label_1
_geom_bond_atom_site_label_2
_geom_bond_distance
_geom_bond_site_symmetry_2
Gd0 Se5 2.903519 1_555
Gd0 Se9 2.913416 1_565
Gd0 Se12 2.944668 1_555
Gd0 Se6 3.013480 1_556
Gd0 Se10 3.044745 1_555
Gd0 Se11 3.129462 1_555
Gd0 Se13 3.159131 1_555
Gd0 Se6 3.254061 1_555
Gd1 Se6 2.902637 1_545
Gd1 Se8 2.912990 1_655
Gd1 Se3 2.946936 1_554
Gd1 Se9 3.013024 1_555
Gd1 Se7 3.048835 1_554
Gd1 Se1 3.135370 1_555
Gd1 Se10 3.156996 1_545
Gd1 Se9 3.252161 1_554
Gd2 Se2 2.902637 1_565
Gd2 Se5 2.912990 1_455
Gd2 Se10 2.946936 1_555
Gd2 Se4 3.013024 1_556
Gd2 Se0 3.048835 1_555
Gd2 Se11 3.135370 1_555
Gd2 Se3 3.156996 1_565
Gd2 Se4 3.252161 1_555
Gd3 Se4 2.903225 1_655
Gd3 Se6 2.913916 1_555
Gd3 Se7 2.944404 1_554
Gd3 Se5 3.011409 1_555
Gd3 Se13 3.045917 1_554
Gd3 Se1 3.129531 1_555
Gd3 Se0 3.156432 1_655
Gd3 Se5 3.256500 1_554
Gd4 Se9 2.903225 1_455
Gd4 Se2 2.913916 1_555
Gd4 Se0 2.944404 1_555
Gd4 Se8 3.011409 1_556
Gd4 Se12 3.045917 1_555
Gd4 Se11 3.129531 1_555
Gd4 Se7 3.156432 1_455
Gd4 Se8 3.256500 1_555
Gd5 Se8 2.903519 1_555
Gd5 Se4 2.913416 1_545
Gd5 Se13 2.944668 1_554
Gd5 Se2 3.013480 1_555
Gd5 Se3 3.044745 1_554
Gd5 Se1 3.129462 1_555
Gd5 Se12 3.159131 1_555
Gd5 Se2 3.254061 1_554
Cu0 Se5 2.346408 1_555
Cu0 Se2 2.346829 1_665
Cu0 Se9 2.348182 1_565
Cu1 Se8 2.346408 1_555
Cu1 Se6 2.346829 1_445
Cu1 Se4 2.348182 1_545
Se0 Si1 2.283942 1_555
Se1 Si0 2.245678 1_555
Se3 Si0 2.284107 1_555
Se7 Si0 2.283942 1_555
Se10 Si1 2.284107 1_555
Se11 Si1 2.245678 1_556
Se12 Si1 2.284462 1_555
Se13 Si0 2.284462 1_555
