# generated using pymatgen
data_TiAs2
_symmetry_space_group_name_H-M   'P 1'
_cell_length_a   3.49239261
_cell_length_b   8.94079592
_cell_length_c   13.24081089
_cell_angle_alpha   90.00000000
_cell_angle_beta   90.00000000
_cell_angle_gamma   90.00000000
_symmetry_Int_Tables_number   1
_chemical_formula_structural   TiAs2
_chemical_formula_sum   'Ti8 As16'
_cell_volume   413.44126934
_cell_formula_units_Z   8
loop_
 _symmetry_equiv_pos_site_id
 _symmetry_equiv_pos_as_xyz
  1  'x, y, z'
loop_
 _atom_site_type_symbol
 _atom_site_label
 _atom_site_symmetry_multiplicity
 _atom_site_fract_x
 _atom_site_fract_y
 _atom_site_fract_z
 _atom_site_occupancy
  Ti  Ti0  1  0.00000000  0.67267172  0.99269104  1
  Ti  Ti1  1  0.00000000  0.51799475  0.24737406  1
  Ti  Ti2  1  0.00000000  0.48200525  0.75262594  1
  Ti  Ti3  1  0.50000000  0.82732828  0.49269104  1
  Ti  Ti4  1  0.50000000  0.98200525  0.74737406  1
  Ti  Ti5  1  0.50000000  0.17267172  0.50730896  1
  Ti  Ti6  1  0.50000000  0.01799475  0.25262594  1
  Ti  Ti7  1  0.00000000  0.32732828  0.00730896  1
  As  As0  1  0.50000000  0.48802107  0.90027535  1
  As  As1  1  0.50000000  0.72453327  0.30245466  1
  As  As2  1  0.00000000  0.01197893  0.40027535  1
  As  As3  1  -0.00000000  0.77546673  0.80245466  1
  As  As4  1  0.50000000  0.11374546  0.05793723  1
  As  As5  1  0.50000000  0.33262145  0.33591623  1
  As  As6  1  0.50000000  0.66737855  0.66408377  1
  As  As7  1  0.00000000  0.16737855  0.83591623  1
  As  As8  1  0.00000000  0.61374546  0.44206277  1
  As  As9  1  0.00000000  0.38625454  0.55793723  1
  As  As10  1  -0.00000000  0.22453327  0.19754534  1
  As  As11  1  0.00000000  0.98802107  0.59972465  1
  As  As12  1  0.50000000  0.27546673  0.69754534  1
  As  As13  1  0.50000000  0.51197893  0.09972465  1
  As  As14  1  0.00000000  0.83262145  0.16408377  1
  As  As15  1  0.50000000  0.88625454  0.94206277  1
loop_
_geom_bond_atom_site_label_1
_geom_bond_atom_site_label_2
_geom_bond_distance
_geom_bond_site_symmetry_2
As0 Ti2 2.621853 1_655
As0 Ti2 2.621853 1_555
As0 Ti7 2.668681 1_656
As0 Ti7 2.668681 1_556
As0 Ti0 2.696682 1_555
As0 Ti0 2.696682 1_655
As1 Ti1 2.644068 1_555
As1 Ti1 2.644068 1_655
As1 Ti3 2.681318 1_555
As1 Ti6 2.705461 1_565
As1 As14 2.709219 1_555
As1 As14 2.709219 1_655
As1 As8 2.728992 1_555
As1 As8 2.728992 1_655
As2 Ti6 2.621853 1_455
As2 Ti6 2.621853 1_555
As2 Ti5 2.668681 1_455
As2 Ti5 2.668681 1_555
As2 Ti3 2.696682 1_445
As2 Ti3 2.696682 1_545
As3 Ti4 2.644068 1_455
As3 Ti4 2.644068 1_555
As3 Ti0 2.681318 1_555
As3 Ti2 2.705461 1_555
As3 As6 2.709219 1_455
As3 As6 2.709219 1_555
As4 Ti7 2.673043 1_555
As4 Ti7 2.673043 1_655
As4 Ti6 2.716271 1_555
As5 Ti1 2.677793 1_655
As5 Ti1 2.677793 1_555
As5 Ti5 2.682387 1_555
As5 Ti6 3.021470 1_555
As6 Ti2 2.677793 1_655
As6 Ti2 2.677793 1_555
As6 Ti3 2.682387 1_555
As6 Ti4 3.021470 1_555
As7 Ti4 2.677793 1_445
As7 Ti4 2.677793 1_545
As7 Ti7 2.682387 1_556
As7 Ti2 3.021470 1_555
As8 As9 2.547733 1_555
As8 Ti3 2.673043 1_455
As8 Ti3 2.673043 1_555
As8 Ti1 2.716271 1_555
As9 Ti5 2.673043 1_555
As9 Ti5 2.673043 1_455
As9 Ti2 2.716271 1_555
As10 Ti6 2.644068 1_555
As10 Ti6 2.644068 1_455
As10 Ti7 2.681318 1_555
As10 Ti1 2.705461 1_555
As10 As5 2.709219 1_555
As10 As5 2.709219 1_455
As10 As4 2.728992 1_455
As10 As4 2.728992 1_555
As11 Ti4 2.621853 1_455
As11 Ti4 2.621853 1_555
As11 Ti3 2.668681 1_455
As11 Ti3 2.668681 1_555
As11 Ti5 2.696682 1_465
As11 Ti5 2.696682 1_565
As12 Ti2 2.644068 1_655
As12 Ti2 2.644068 1_555
As12 Ti5 2.681318 1_555
As12 Ti4 2.705461 1_545
As12 As7 2.709219 1_555
As12 As7 2.709219 1_655
As12 As9 2.728992 1_555
As12 As9 2.728992 1_655
As13 Ti1 2.621853 1_555
As13 Ti1 2.621853 1_655
As13 Ti0 2.668681 1_554
As13 Ti0 2.668681 1_654
As13 Ti7 2.696682 1_655
As13 Ti7 2.696682 1_555
As14 Ti6 2.677793 1_465
As14 Ti6 2.677793 1_565
As14 Ti0 2.682387 1_554
As14 Ti1 3.021470 1_555
As15 As4 2.547733 1_566
As15 Ti0 2.673043 1_555
As15 Ti0 2.673043 1_655
As15 Ti4 2.716271 1_555
As15 As3 2.728992 1_555
As15 As3 2.728992 1_655
