# generated using pymatgen
data_Cu4Sn7S16
_symmetry_space_group_name_H-M   'P 1'
_cell_length_a   12.95337209
_cell_length_b   12.95337209
_cell_length_c   12.95337184
_cell_angle_alpha   33.30607455
_cell_angle_beta   33.30607455
_cell_angle_gamma   33.30607442
_symmetry_Int_Tables_number   1
_chemical_formula_structural   Cu4Sn7S16
_chemical_formula_sum   'Cu4 Sn7 S16'
_cell_volume   583.49023669
_cell_formula_units_Z   1
loop_
 _symmetry_equiv_pos_site_id
 _symmetry_equiv_pos_as_xyz
  1  'x, y, z'
loop_
 _atom_site_type_symbol
 _atom_site_label
 _atom_site_symmetry_multiplicity
 _atom_site_fract_x
 _atom_site_fract_y
 _atom_site_fract_z
 _atom_site_occupancy
  Cu  Cu0  1  0.00021800  0.00021800  0.00021800  1
  Cu  Cu1  1  0.70581600  0.70581600  0.70581600  1
  Cu  Cu2  1  0.29455500  0.29455500  0.29455500  1
  Cu  Cu3  1  0.18825100  0.18825100  0.18825100  1
  Sn  Sn0  1  0.24519900  0.75435300  0.75435300  1
  Sn  Sn1  1  0.75435300  0.75435300  0.24519900  1
  Sn  Sn2  1  0.75435300  0.24519900  0.75435300  1
  Sn  Sn3  1  0.49758700  0.49758700  0.49758700  1
  Sn  Sn4  1  0.25037400  0.74680800  0.25037400  1
  Sn  Sn5  1  0.74680800  0.25037400  0.25037400  1
  Sn  Sn6  1  0.25037400  0.25037400  0.74680800  1
  S  S0  1  0.87651500  0.87651500  0.87651500  1
  S  S1  1  0.35874800  0.88378100  0.88378000  1
  S  S2  1  0.88378000  0.88378100  0.35874800  1
  S  S3  1  0.88378000  0.35874800  0.88378000  1
  S  S4  1  0.62345800  0.62345800  0.62345800  1
  S  S5  1  0.38010500  0.86560900  0.38010500  1
  S  S6  1  0.86560900  0.38010500  0.38010500  1
  S  S7  1  0.38010500  0.38010500  0.86560900  1
  S  S8  1  0.13315700  0.61991700  0.61991700  1
  S  S9  1  0.61991700  0.61991700  0.13315700  1
  S  S10  1  0.61991700  0.13315700  0.61991700  1
  S  S11  1  0.37504100  0.37504100  0.37504100  1
  S  S12  1  0.11834200  0.63915400  0.11834200  1
  S  S13  1  0.63915400  0.11834200  0.11834200  1
  S  S14  1  0.11834200  0.11834200  0.63915400  1
  S  S15  1  0.12453900  0.12453900  0.12453900  1
loop_
_geom_bond_atom_site_label_1
_geom_bond_atom_site_label_2
_geom_bond_distance
_geom_bond_site_symmetry_2
Cu0 S3 2.550294 1_454
Cu0 S2 2.550299 1_445
Cu0 S1 2.550300 1_544
Cu0 S14 2.558636 1_554
Cu0 S12 2.558636 1_545
Cu0 S13 2.558636 1_455
Cu1 S3 2.253093 1_555
Cu1 S2 2.253096 1_555
Cu1 S1 2.253096 1_555
Cu1 S4 3.020137 1_555
Cu2 S14 2.234449 1_555
Cu2 S12 2.234449 1_555
Cu2 S13 2.234449 1_555
Cu2 S11 2.951490 1_555
Cu3 S6 2.328229 1_455
Cu3 S5 2.328229 1_545
Cu3 S7 2.328229 1_554
Cu3 S15 2.336373 1_555
S0 Sn1 2.595653 1_556
S0 Sn0 2.595653 1_655
S0 Sn2 2.595653 1_565
S1 Sn6 2.570212 1_565
S1 Sn4 2.570218 1_556
S2 Sn5 2.570212 1_565
S2 Sn4 2.570218 1_655
S3 Sn5 2.570223 1_556
S3 Sn6 2.570223 1_655
S4 Sn1 2.605732 1_555
S4 Sn2 2.605732 1_555
S4 Sn0 2.605732 1_555
S5 Sn3 2.641237 1_555
S5 Sn0 2.646388 1_555
S5 Sn1 2.646388 1_555
S6 Sn3 2.641237 1_555
S6 Sn2 2.646388 1_555
S6 Sn1 2.646388 1_555
S7 Sn3 2.641237 1_555
S7 Sn2 2.646388 1_555
S7 Sn0 2.646388 1_555
S8 Sn3 2.548842 1_555
S8 Sn4 2.606220 1_555
S8 Sn6 2.606220 1_555
S9 Sn3 2.548842 1_555
S9 Sn4 2.606220 1_555
S9 Sn5 2.606220 1_555
S10 Sn3 2.548842 1_555
S10 Sn5 2.606220 1_555
S10 Sn6 2.606220 1_555
S11 Sn6 2.601484 1_555
S11 Sn5 2.601484 1_555
S11 Sn4 2.601484 1_555
S12 Sn0 2.558410 1_554
S12 Sn1 2.558410 1_455
S13 Sn2 2.558410 1_554
S13 Sn1 2.558410 1_545
S14 Sn2 2.558410 1_455
S14 Sn0 2.558410 1_545
S15 Sn6 2.652067 1_554
S15 Sn4 2.652067 1_545
S15 Sn5 2.652067 1_455
