# generated using pymatgen
data_Sm2NiSn4
_symmetry_space_group_name_H-M   'P 1'
_cell_length_a   4.47361416
_cell_length_b   8.92049243
_cell_length_c   17.05279498
_cell_angle_alpha   90.00000000
_cell_angle_beta   90.00000000
_cell_angle_gamma   90.00000000
_symmetry_Int_Tables_number   1
_chemical_formula_structural   Sm2NiSn4
_chemical_formula_sum   'Sm8 Ni4 Sn16'
_cell_volume   680.52318212
_cell_formula_units_Z   4
loop_
 _symmetry_equiv_pos_site_id
 _symmetry_equiv_pos_as_xyz
  1  'x, y, z'
loop_
 _atom_site_type_symbol
 _atom_site_label
 _atom_site_symmetry_multiplicity
 _atom_site_fract_x
 _atom_site_fract_y
 _atom_site_fract_z
 _atom_site_occupancy
  Sm  Sm0  1  0.25000000  0.61097712  0.64617931  1
  Sm  Sm1  1  0.25000000  0.36803655  0.14798394  1
  Sm  Sm2  1  0.25000000  0.88902288  0.14617931  1
  Sm  Sm3  1  0.75000000  0.11097712  0.85382069  1
  Sm  Sm4  1  0.75000000  0.63196345  0.85201606  1
  Sm  Sm5  1  0.25000000  0.13196345  0.64798394  1
  Sm  Sm6  1  0.75000000  0.86803655  0.35201606  1
  Sm  Sm7  1  0.75000000  0.38902288  0.35382069  1
  Ni  Ni0  1  0.75000000  0.35369811  0.56098513  1
  Ni  Ni1  1  0.25000000  0.64630189  0.43901487  1
  Ni  Ni2  1  0.75000000  0.14630189  0.06098513  1
  Ni  Ni3  1  0.25000000  0.85369811  0.93901487  1
  Sn  Sn0  1  0.25000000  0.60849613  0.00831170  1
  Sn  Sn1  1  0.75000000  0.87230306  0.00824531  1
  Sn  Sn2  1  0.75000000  0.62841820  0.17872458  1
  Sn  Sn3  1  0.25000000  0.12841820  0.32127542  1
  Sn  Sn4  1  0.75000000  0.39150387  0.99168830  1
  Sn  Sn5  1  0.75000000  0.36998884  0.70792710  1
  Sn  Sn6  1  0.75000000  0.62769694  0.50824531  1
  Sn  Sn7  1  0.25000000  0.86998884  0.79207290  1
  Sn  Sn8  1  0.75000000  0.10849613  0.49168830  1
  Sn  Sn9  1  0.25000000  0.37158180  0.82127542  1
  Sn  Sn10  1  0.75000000  0.13001116  0.20792710  1
  Sn  Sn11  1  0.25000000  0.37230306  0.49175469  1
  Sn  Sn12  1  0.25000000  0.63001116  0.29207290  1
  Sn  Sn13  1  0.75000000  0.87158180  0.67872458  1
  Sn  Sn14  1  0.25000000  0.89150387  0.50831170  1
  Sn  Sn15  1  0.25000000  0.12769694  0.99175469  1
loop_
_geom_bond_atom_site_label_1
_geom_bond_atom_site_label_2
_geom_bond_distance
_geom_bond_site_symmetry_2
Sm0 Sn6 3.249340 1_455
Sm0 Sn6 3.249340 1_555
Sm0 Sn13 3.273477 1_455
Sm0 Sn13 3.273477 1_555
Sm0 Sn5 3.276189 1_555
Sm0 Sn5 3.276189 1_455
Sm0 Sn11 3.386395 1_555
Sm0 Sn7 3.395303 1_555
Sm0 Sn14 3.433587 1_555
Sm0 Sn9 3.670958 1_555
Sm1 Sn0 3.205321 1_555
Sm1 Sn10 3.249094 1_555
Sm1 Sn10 3.249094 1_455
Sm1 Sn2 3.266985 1_555
Sm1 Sn2 3.266985 1_455
Sm1 Sn12 3.390979 1_555
Sm1 Sn15 3.419676 1_554
Sm1 Sn4 3.485805 1_554
Sm1 Sn4 3.485805 1_454
Sm1 Sn3 3.647137 1_555
Sm2 Sn1 3.249340 1_555
Sm2 Sn1 3.249340 1_455
Sm2 Sn2 3.273477 1_455
Sm2 Sn2 3.273477 1_555
Sm2 Sn10 3.276189 1_465
Sm2 Sn10 3.276189 1_565
Sm2 Sn15 3.386395 1_564
Sm2 Sn12 3.395303 1_555
Sm2 Sn0 3.433587 1_555
Sm2 Sn3 3.670958 1_565
Sm3 Sn15 3.249340 1_655
Sm3 Sn15 3.249340 1_555
Sm3 Sn9 3.273477 1_655
Sm3 Sn9 3.273477 1_555
Sm3 Sn7 3.276189 1_645
Sm3 Sn7 3.276189 1_545
Sm3 Sn1 3.386395 1_546
Sm3 Sn5 3.395303 1_555
Sm3 Sn4 3.433587 1_555
Sm3 Sn13 3.670958 1_545
Sm4 Sn4 3.205321 1_555
Sm4 Sn7 3.249094 1_555
Sm4 Sn7 3.249094 1_655
Sm4 Sn9 3.266985 1_655
Sm4 Sn9 3.266985 1_555
Sm4 Sn5 3.390979 1_555
Sm4 Sn1 3.419676 1_556
Sm4 Sn0 3.485805 1_556
Sm4 Sn0 3.485805 1_656
Sm4 Sn13 3.647137 1_555
Sm5 Sn14 3.205321 1_545
Sm5 Sn5 3.249094 1_455
Sm5 Sn5 3.249094 1_555
Sm5 Sn13 3.266985 1_445
Sm5 Sn13 3.266985 1_545
Sm5 Sn7 3.390979 1_545
Sm5 Sn11 3.419676 1_555
Sm5 Sn8 3.485805 1_555
Sm5 Sn8 3.485805 1_455
Sm5 Sn9 3.647137 1_555
Sm6 Sn8 3.205321 1_565
Sm6 Sn12 3.249094 1_555
Sm6 Sn12 3.249094 1_655
Sm6 Sn3 3.266985 1_565
Sm6 Sn3 3.266985 1_665
Sm6 Sn10 3.390979 1_565
Sm6 Sn6 3.419676 1_555
Sm6 Sn14 3.485805 1_555
Sm6 Sn14 3.485805 1_655
Sm6 Sn2 3.647137 1_555
Sm7 Sn11 3.249340 1_555
Sm7 Sn11 3.249340 1_655
Sm7 Sn3 3.273477 1_655
Sm7 Sn3 3.273477 1_555
Sm7 Sn12 3.276189 1_555
Sm7 Sn12 3.276189 1_655
Sm7 Sn6 3.386395 1_555
Sm7 Sn10 3.395303 1_555
Sm7 Sn8 3.433587 1_555
Sm7 Sn2 3.670958 1_555
Ni0 Sn8 2.486123 1_555
Ni0 Sn5 2.509982 1_555
Ni0 Sn11 2.534680 1_555
Ni0 Sn11 2.534680 1_655
Ni0 Sn6 2.604417 1_555
Ni0 Sm5 3.334173 1_655
Ni0 Sm5 3.334173 1_555
Ni0 Sm0 3.518694 1_555
Ni0 Sm0 3.518694 1_655
Ni0 Sm7 3.546759 1_555
Ni1 Sn14 2.486123 1_555
Ni1 Sn12 2.509982 1_555
Ni1 Sn6 2.534680 1_555
Ni1 Sn6 2.534680 1_455
Ni1 Sn11 2.604417 1_555
Ni1 Sm6 3.334173 1_455
Ni1 Sm6 3.334173 1_555
Ni1 Sm7 3.518694 1_455
Ni1 Sm7 3.518694 1_555
Ni1 Sm0 3.546759 1_555
Ni2 Sn4 2.486123 1_554
Ni2 Sn10 2.509982 1_555
Ni2 Sn15 2.534680 1_654
Ni2 Sn15 2.534680 1_554
Ni2 Sn1 2.604417 1_545
Ni2 Sm1 3.334173 1_655
Ni2 Sm1 3.334173 1_555
Ni2 Sm2 3.518694 1_545
Ni2 Sm2 3.518694 1_645
Ni2 Sm3 3.546759 1_554
Ni3 Sn0 2.486123 1_556
Ni3 Sn7 2.509982 1_555
Ni3 Sn1 2.534680 1_456
Ni3 Sn1 2.534680 1_556
Ni3 Sn15 2.604417 1_565
Ni3 Sm4 3.334173 1_455
Ni3 Sm4 3.334173 1_555
Ni3 Sm3 3.518694 1_565
Ni3 Sm3 3.518694 1_465
Ni3 Sm2 3.546759 1_556
Sn0 Sn4 2.971618 1_454
Sn0 Sn4 2.971618 1_554
Sn5 Sn9 2.956287 1_555
Sn5 Sn9 2.956287 1_655
Sn10 Sn3 2.956287 1_555
Sn10 Sn3 2.956287 1_655
Sn12 Sn2 2.956287 1_455
Sn12 Sn2 2.956287 1_555
Sn13 Sn7 2.956287 1_655
Sn13 Sn7 2.956287 1_555
Sn14 Sn8 2.971618 1_465
Sn14 Sn8 2.971618 1_565
