# generated using pymatgen
data_La(CuSn)2
_symmetry_space_group_name_H-M   'P 1'
_cell_length_a   4.48995230
_cell_length_b   4.48994585
_cell_length_c   10.64531724
_cell_angle_alpha   89.99987305
_cell_angle_beta   90.00002372
_cell_angle_gamma   90.00002603
_symmetry_Int_Tables_number   1
_chemical_formula_structural   La(CuSn)2
_chemical_formula_sum   'La2 Cu4 Sn4'
_cell_volume   214.60579194
_cell_formula_units_Z   2
loop_
 _symmetry_equiv_pos_site_id
 _symmetry_equiv_pos_as_xyz
  1  'x, y, z'
loop_
 _atom_site_type_symbol
 _atom_site_label
 _atom_site_symmetry_multiplicity
 _atom_site_fract_x
 _atom_site_fract_y
 _atom_site_fract_z
 _atom_site_occupancy
  La  La0  1  0.74999850  0.74999900  0.76069111  1
  La  La1  1  0.25000049  0.25000000  0.23926875  1
  Cu  Cu0  1  0.24999994  0.24999800  0.63456648  1
  Cu  Cu1  1  0.74999943  0.75000000  0.36545758  1
  Cu  Cu2  1  0.25000161  0.75000000  -0.00000300  1
  Cu  Cu3  1  0.74999799  0.25000100  0.00000014  1
  Sn  Sn0  1  0.74999963  0.25000000  0.49999570  1
  Sn  Sn1  1  0.24999969  0.25000000  0.87462166  1
  Sn  Sn2  1  0.74999972  0.75000100  0.12540593  1
  Sn  Sn3  1  0.24999999  0.75000000  0.49999466  1
loop_
_geom_bond_atom_site_label_1
_geom_bond_atom_site_label_2
_geom_bond_distance
_geom_bond_site_symmetry_2
La0 Sn1 3.398634 1_555
La0 Sn1 3.398642 1_655
La0 Sn1 3.398645 1_565
La0 Sn1 3.398650 1_665
La0 Sn0 3.569531 1_565
La0 Sn0 3.569533 1_555
La0 Sn3 3.569537 1_555
La0 Sn3 3.569547 1_655
La1 Sn2 3.398383 1_545
La1 Sn2 3.398384 1_555
La1 Sn2 3.398385 1_445
La1 Sn2 3.398389 1_455
La1 Sn3 3.569780 1_545
La1 Sn3 3.569788 1_555
La1 Sn0 3.569792 1_555
La1 Sn0 3.569798 1_455
Cu0 Sn1 2.555464 1_555
Cu0 Sn3 2.663101 1_545
Cu0 Sn0 2.663102 1_555
Cu0 Sn0 2.663103 1_455
Cu0 Sn3 2.663110 1_555
Cu0 La0 3.447091 1_545
Cu0 La0 3.447099 1_445
Cu0 La0 3.447099 1_555
Cu0 La0 3.447110 1_455
Cu1 Sn2 2.555426 1_555
Cu1 Sn3 2.662908 1_555
Cu1 Sn0 2.662910 1_555
Cu1 Sn3 2.662911 1_655
Cu1 Sn0 2.662915 1_565
Cu1 La1 3.447361 1_565
Cu1 La1 3.447364 1_555
Cu1 La1 3.447367 1_665
Cu1 La1 3.447372 1_655
Cu2 Sn1 2.611744 1_564
Cu2 Sn1 2.611749 1_554
Cu2 Sn2 2.611925 1_555
Cu2 Sn2 2.611940 1_455
Cu2 La1 3.395249 1_555
Cu2 La1 3.395257 1_565
Cu2 La0 3.395519 1_554
Cu2 La0 3.395536 1_454
Cu3 Sn1 2.611760 1_554
Cu3 Sn1 2.611774 1_654
Cu3 Sn2 2.611910 1_545
Cu3 Sn2 2.611915 1_555
Cu3 La1 3.395223 1_555
Cu3 La1 3.395237 1_655
Cu3 La0 3.395541 1_554
Cu3 La0 3.395560 1_544
