# generated using pymatgen
data_Nb6Ni16Ge7
_symmetry_space_group_name_H-M   'P 1'
_cell_length_a   8.09435315
_cell_length_b   8.09435315
_cell_length_c   8.09435315
_cell_angle_alpha   60.00000000
_cell_angle_beta   60.00000000
_cell_angle_gamma   60.00000000
_symmetry_Int_Tables_number   1
_chemical_formula_structural   Nb6Ni16Ge7
_chemical_formula_sum   'Nb6 Ni16 Ge7'
_cell_volume   375.00015474
_cell_formula_units_Z   1
loop_
 _symmetry_equiv_pos_site_id
 _symmetry_equiv_pos_as_xyz
  1  'x, y, z'
loop_
 _atom_site_type_symbol
 _atom_site_label
 _atom_site_symmetry_multiplicity
 _atom_site_fract_x
 _atom_site_fract_y
 _atom_site_fract_z
 _atom_site_occupancy
  Nb  Nb0  1  0.69895800  0.30104200  0.30104200  1
  Nb  Nb1  1  0.30104200  0.30104200  0.69895800  1
  Nb  Nb2  1  0.30104200  0.69895800  0.69895800  1
  Nb  Nb3  1  0.69895800  0.69895800  0.30104200  1
  Nb  Nb4  1  0.30104200  0.69895800  0.30104200  1
  Nb  Nb5  1  0.69895800  0.30104200  0.69895800  1
  Ni  Ni0  1  0.11720900  0.11720900  0.64837200  1
  Ni  Ni1  1  0.66749300  0.99752000  0.66749300  1
  Ni  Ni2  1  0.35162800  0.88279100  0.88279100  1
  Ni  Ni3  1  0.00248000  0.33250700  0.33250700  1
  Ni  Ni4  1  0.99752000  0.66749300  0.66749300  1
  Ni  Ni5  1  0.33250700  0.33250700  0.00248000  1
  Ni  Ni6  1  0.66749300  0.66749300  0.99752000  1
  Ni  Ni7  1  0.64837200  0.11720900  0.11720900  1
  Ni  Ni8  1  0.66749300  0.66749300  0.66749300  1
  Ni  Ni9  1  0.88279100  0.88279100  0.35162800  1
  Ni  Ni10  1  0.11720900  0.11720900  0.11720900  1
  Ni  Ni11  1  0.88279100  0.35162800  0.88279100  1
  Ni  Ni12  1  0.88279100  0.88279100  0.88279100  1
  Ni  Ni13  1  0.33250700  0.33250700  0.33250700  1
  Ni  Ni14  1  0.11720900  0.64837200  0.11720900  1
  Ni  Ni15  1  0.33250700  0.00248000  0.33250700  1
  Ge  Ge0  1  0.00000000  0.50000000  0.00000000  1
  Ge  Ge1  1  0.00000000  0.00000000  0.50000000  1
  Ge  Ge2  1  0.00000000  0.00000000  0.00000000  1
  Ge  Ge3  1  0.50000000  0.50000000  0.00000000  1
  Ge  Ge4  1  0.50000000  0.00000000  0.50000000  1
  Ge  Ge5  1  0.50000000  0.00000000  0.00000000  1
  Ge  Ge6  1  0.00000000  0.50000000  0.50000000  1
loop_
_geom_bond_atom_site_label_1
_geom_bond_atom_site_label_2
_geom_bond_distance
_geom_bond_site_symmetry_2
Nb0 Ni13 2.735313 1_555
Nb0 Ni6 2.735316 1_554
Nb0 Ni1 2.735316 1_545
Nb0 Ni3 2.735321 1_655
Nb0 Ni9 2.833495 1_545
Nb0 Ni11 2.833495 1_554
Nb0 Ni10 2.833497 1_655
Nb0 Ni7 2.833502 1_555
Nb1 Ni13 2.735313 1_555
Nb1 Ni4 2.735316 1_455
Nb1 Ni1 2.735316 1_545
Nb1 Ni5 2.735321 1_556
Nb1 Ni2 2.833495 1_545
Nb1 Ni11 2.833495 1_455
Nb1 Ni10 2.833497 1_556
Nb1 Ni0 2.833502 1_555
Nb2 Ni8 2.735313 1_555
Nb2 Ni5 2.735316 1_556
Nb2 Ni15 2.735316 1_565
Nb2 Ni4 2.735321 1_455
Nb2 Ni14 2.833495 1_556
Nb2 Ni0 2.833495 1_565
Nb2 Ni12 2.833497 1_455
Nb2 Ni2 2.833502 1_555
Nb3 Ni8 2.735313 1_555
Nb3 Ni15 2.735316 1_565
Nb3 Ni3 2.735316 1_655
Nb3 Ni6 2.735321 1_554
Nb3 Ni14 2.833495 1_655
Nb3 Ni7 2.833495 1_565
Nb3 Ni12 2.833497 1_554
Nb3 Ni9 2.833502 1_555
Nb4 Ni13 2.735313 1_555
Nb4 Ni6 2.735316 1_554
Nb4 Ni4 2.735316 1_455
Nb4 Ni15 2.735321 1_565
Nb4 Ni2 2.833495 1_554
Nb4 Ni9 2.833495 1_455
Nb4 Ni10 2.833497 1_565
Nb4 Ni14 2.833502 1_555
Nb5 Ni8 2.735313 1_555
Nb5 Ni3 2.735316 1_655
Nb5 Ni5 2.735316 1_556
Nb5 Ni1 2.735321 1_545
Nb5 Ni0 2.833495 1_655
Nb5 Ni7 2.833495 1_556
Nb5 Ni12 2.833497 1_545
Nb5 Ni11 2.833502 1_555
Ni0 Ni3 2.595493 1_555
Ni0 Ni15 2.595493 1_555
Ni0 Ni13 2.595502 1_555
Ni0 Ni12 2.683417 1_445
Ni0 Ni2 2.683428 1_545
Ni0 Ni11 2.683428 1_455
Ni1 Ni9 2.595493 1_555
Ni1 Ni2 2.595493 1_555
Ni1 Ni12 2.595507 1_555
Ni1 Ni4 2.671355 1_555
Ni1 Ni8 2.671355 1_555
Ni1 Ni6 2.671355 1_555
Ni2 Ni6 2.595493 1_555
Ni2 Ni8 2.595502 1_555
Ni3 Ni5 2.671355 1_555
Ni4 Ni9 2.595493 1_555
Ni4 Ni8 2.671355 1_555
Ni4 Ni6 2.671355 1_555
Ni5 Ni7 2.595493 1_555
Ni6 Ni8 2.671355 1_555
Ni7 Ni9 2.683428 1_545
Ni8 Ni9 2.595502 1_555
Ni10 Ni5 2.595507 1_555
Ni10 Ni3 2.595507 1_555
Ni10 Ni15 2.595507 1_555
Ni10 Ni9 2.683417 1_445
Ni10 Ni11 2.683417 1_454
Ni10 Ni2 2.683417 1_544
Ni11 Ni6 2.595493 1_555
Ni11 Ni4 2.595493 1_555
Ni11 Ni8 2.595502 1_555
Ni11 Ni7 2.683428 1_556
Ni12 Ni4 2.595507 1_555
Ni12 Ni6 2.595507 1_555
Ni12 Ni7 2.683417 1_566
Ni12 Ni14 2.683417 1_656
Ni13 Ni7 2.595502 1_555
Ni13 Ni14 2.595502 1_555
Ni13 Ni15 2.671355 1_555
Ni13 Ni3 2.671355 1_555
Ni13 Ni5 2.671355 1_555
Ni14 Ni3 2.595493 1_555
Ni14 Ni5 2.595493 1_555
Ni14 Ni9 2.683428 1_455
Ni14 Ni2 2.683428 1_554
Ni15 Ni7 2.595493 1_555
Ni15 Ni3 2.671355 1_555
Ni15 Ni5 2.671355 1_555
Ge0 Ni6 2.336698 1_454
Ge0 Ni4 2.336698 1_454
Ge0 Ni5 2.336698 1_555
Ge0 Ni3 2.336698 1_555
Ge0 Ni14 2.534052 1_555
Ge0 Ni11 2.534052 1_454
Ge0 Ni10 2.534059 1_555
Ge0 Ni12 2.534059 1_454
Ge0 Nb3 2.920823 1_455
Ge0 Nb2 2.920823 1_554
Ge0 Nb0 2.920823 1_455
Ge0 Nb1 2.920823 1_554
Ge1 Ni4 2.336698 1_445
Ge1 Ni1 2.336698 1_445
Ge1 Ni3 2.336698 1_555
Ge1 Ni15 2.336698 1_555
Ge1 Ni0 2.534052 1_555
Ge1 Ni9 2.534052 1_445
Ge1 Ni10 2.534059 1_555
Ge1 Ni12 2.534059 1_445
Ge1 Nb5 2.920823 1_455
Ge1 Nb2 2.920823 1_545
Ge1 Nb0 2.920823 1_455
Ge1 Nb4 2.920823 1_545
Ge2 Ni10 2.323907 1_555
Ge2 Ni12 2.323907 1_444
Ge2 Ni2 2.323914 1_544
Ge2 Ni9 2.323914 1_445
Ge2 Ni11 2.323914 1_454
Ge2 Ni7 2.323914 1_455
Ge2 Ni14 2.323914 1_545
Ge2 Ni0 2.323914 1_554
Ge3 Ni5 2.336691 1_555
Ge3 Ni6 2.336691 1_554
Ge3 Ni8 2.336696 1_554
Ge3 Ni13 2.336696 1_555
Ge3 Ni2 2.534058 1_554
Ge3 Ni11 2.534058 1_554
Ge3 Ni7 2.534058 1_555
Ge3 Ni14 2.534058 1_555
Ge3 Nb4 2.920823 1_555
Ge3 Nb0 2.920823 1_555
Ge3 Nb5 2.920823 1_554
Ge3 Nb2 2.920823 1_554
Ge4 Ni15 2.336691 1_555
Ge4 Ni1 2.336691 1_545
Ge4 Ni13 2.336696 1_555
Ge4 Ni8 2.336696 1_545
Ge4 Ni0 2.534058 1_555
Ge4 Ni9 2.534058 1_545
Ge4 Ni7 2.534058 1_555
Ge4 Ni2 2.534058 1_545
Ge4 Nb1 2.920823 1_555
Ge4 Nb0 2.920823 1_555
Ge4 Nb2 2.920823 1_545
Ge4 Nb3 2.920823 1_545
Ge5 Ni6 2.336698 1_544
Ge5 Ni1 2.336698 1_544
Ge5 Ni5 2.336698 1_555
Ge5 Ni15 2.336698 1_555
Ge5 Ni7 2.534052 1_555
Ge5 Ni2 2.534052 1_544
Ge5 Ni12 2.534059 1_544
Ge5 Ni10 2.534059 1_555
Ge5 Nb3 2.920823 1_545
Ge5 Nb5 2.920823 1_554
Ge5 Nb4 2.920823 1_545
Ge5 Nb1 2.920823 1_554
Ge6 Ni3 2.336691 1_555
Ge6 Ni4 2.336691 1_455
Ge6 Ni8 2.336696 1_455
Ge6 Ni13 2.336696 1_555
Ge6 Ni0 2.534058 1_555
Ge6 Ni9 2.534058 1_455
Ge6 Ni14 2.534058 1_555
Ge6 Ni11 2.534058 1_455
Ge6 Nb4 2.920823 1_555
Ge6 Nb1 2.920823 1_555
Ge6 Nb3 2.920823 1_455
Ge6 Nb5 2.920823 1_455
