# generated using pymatgen
data_MgAlPO5
_symmetry_space_group_name_H-M   'P 1'
_cell_length_a   5.43576858
_cell_length_b   7.08787616
_cell_length_c   10.30799841
_cell_angle_alpha   90.00000000
_cell_angle_beta   90.00000000
_cell_angle_gamma   98.37236072
_symmetry_Int_Tables_number   1
_chemical_formula_structural   MgAlPO5
_chemical_formula_sum   'Mg4 Al4 P4 O20'
_cell_volume   392.91460397
_cell_formula_units_Z   4
loop_
 _symmetry_equiv_pos_site_id
 _symmetry_equiv_pos_as_xyz
  1  'x, y, z'
loop_
 _atom_site_type_symbol
 _atom_site_label
 _atom_site_symmetry_multiplicity
 _atom_site_fract_x
 _atom_site_fract_y
 _atom_site_fract_z
 _atom_site_occupancy
  Mg  Mg0  1  0.11767072  0.01498995  0.14205228  1
  Mg  Mg1  1  0.38232928  0.98501005  0.64205228  1
  Mg  Mg2  1  0.88232928  0.98501005  0.85794772  1
  Mg  Mg3  1  0.61767072  0.01498995  0.35794772  1
  Al  Al0  1  0.55844702  0.35924993  0.17448199  1
  Al  Al1  1  0.94155298  0.64075007  0.67448199  1
  Al  Al2  1  0.44155298  0.64075007  0.82551801  1
  Al  Al3  1  0.05844702  0.35924993  0.32551801  1
  P  P0  1  0.56824715  0.78129417  0.09848468  1
  P  P1  1  0.93175285  0.21870583  0.59848468  1
  P  P2  1  0.43175285  0.21870583  0.90151532  1
  P  P3  1  0.06824715  0.78129417  0.40151532  1
  O  O0  1  0.68750639  0.11071784  0.54584335  1
  O  O1  1  0.81249361  0.88928216  0.04584335  1
  O  O2  1  0.31249361  0.88928216  0.45415665  1
  O  O3  1  0.18750639  0.11071784  0.95415665  1
  O  O4  1  0.94126369  0.91397578  0.31473206  1
  O  O5  1  0.55873631  0.08602422  0.81473206  1
  O  O6  1  0.05873631  0.08602422  0.68526794  1
  O  O7  1  0.44126369  0.91397578  0.18526794  1
  O  O8  1  0.60635260  0.28362372  0.01476805  1
  O  O9  1  0.89364740  0.71637628  0.51476805  1
  O  O10  1  0.39364740  0.71637628  0.98523195  1
  O  O11  1  0.10635260  0.28362372  0.48523195  1
  O  O12  1  0.25644941  0.26841239  0.21884038  1
  O  O13  1  0.24355059  0.73158761  0.71884038  1
  O  O14  1  0.74355059  0.73158761  0.78115962  1
  O  O15  1  0.75644941  0.26841239  0.28115962  1
  O  O16  1  0.61881704  0.60791847  0.17607916  1
  O  O17  1  0.88118296  0.39208153  0.67607916  1
  O  O18  1  0.38118296  0.39208153  0.82392084  1
  O  O19  1  0.11881704  0.60791847  0.32392084  1
loop_
_geom_bond_atom_site_label_1
_geom_bond_atom_site_label_2
_geom_bond_distance
_geom_bond_site_symmetry_2
Mg0 O12 2.006845 1_555
Mg0 O1 2.024555 1_445
Mg0 O7 2.042500 1_545
Mg0 O3 2.069003 1_554
Mg0 O4 2.097745 1_445
Mg1 O13 2.006845 1_555
Mg1 O0 2.024555 1_565
Mg1 O6 2.042500 1_565
Mg1 O2 2.069003 1_555
Mg1 O5 2.097745 1_565
Mg2 O14 2.006845 1_555
Mg2 O3 2.024555 1_665
Mg2 O5 2.042500 1_565
Mg2 O1 2.069003 1_556
Mg2 O6 2.097745 1_665
Mg3 O15 2.006845 1_555
Mg3 O2 2.024555 1_545
Mg3 O4 2.042500 1_545
Mg3 O0 2.069003 1_555
Mg3 O7 2.097745 1_545
Al0 O15 1.727409 1_555
Al0 O12 1.735118 1_555
Al0 O16 1.745292 1_555
Al0 O8 1.762439 1_555
Al1 O14 1.727409 1_555
Al1 O13 1.735118 1_655
Al1 O17 1.745292 1_555
Al1 O9 1.762439 1_555
Al2 O13 1.727409 1_555
Al2 O14 1.735118 1_555
Al2 O18 1.745292 1_555
Al2 O10 1.762439 1_555
Al3 O12 1.727409 1_555
Al3 O15 1.735118 1_455
Al3 O19 1.745292 1_555
Al3 O11 1.762439 1_555
O0 P1 1.532012 1_555
O1 P0 1.532012 1_555
O2 P3 1.532012 1_555
O3 P2 1.532012 1_555
O4 P3 1.533015 1_655
O5 P2 1.533015 1_555
O6 P1 1.533015 1_455
O7 P0 1.533015 1_555
O8 P2 1.532368 1_554
O9 P3 1.532368 1_655
O10 P0 1.532368 1_556
O11 P1 1.532368 1_455
O16 P0 1.524399 1_555
O17 P1 1.524399 1_555
O18 P2 1.524399 1_555
O19 P3 1.524399 1_555
