# generated using pymatgen
data_Na2Zn2(TeO3)3
_symmetry_space_group_name_H-M   'P 1'
_cell_length_a   8.41634698
_cell_length_b   8.41634698
_cell_length_c   10.28064400
_cell_angle_alpha   90.00000000
_cell_angle_beta   90.00000000
_cell_angle_gamma   119.99999200
_symmetry_Int_Tables_number   1
_chemical_formula_structural   Na2Zn2(TeO3)3
_chemical_formula_sum   'Na4 Zn4 Te6 O18'
_cell_volume   630.66430513
_cell_formula_units_Z   2
loop_
 _symmetry_equiv_pos_site_id
 _symmetry_equiv_pos_as_xyz
  1  'x, y, z'
loop_
 _atom_site_type_symbol
 _atom_site_label
 _atom_site_symmetry_multiplicity
 _atom_site_fract_x
 _atom_site_fract_y
 _atom_site_fract_z
 _atom_site_occupancy
  Na  Na0  1  0.00000000  0.00000000  0.62408500  1
  Na  Na1  1  0.00000000  0.00000000  0.37591500  1
  Na  Na2  1  0.00000000  0.00000000  0.12408500  1
  Na  Na3  1  0.00000000  0.00000000  0.87591500  1
  Zn  Zn0  1  0.33333300  0.66666700  0.59158600  1
  Zn  Zn1  1  0.33333300  0.66666700  0.90841400  1
  Zn  Zn2  1  0.66666700  0.33333300  0.09158600  1
  Zn  Zn3  1  0.66666700  0.33333300  0.40841400  1
  Te  Te0  1  0.97720700  0.60329100  0.75000000  1
  Te  Te1  1  0.39670900  0.37391600  0.75000000  1
  Te  Te2  1  0.02279300  0.39670900  0.25000000  1
  Te  Te3  1  0.60329100  0.62608400  0.25000000  1
  Te  Te4  1  0.62608400  0.02279300  0.75000000  1
  Te  Te5  1  0.37391600  0.97720700  0.25000000  1
  O  O0  1  0.14016300  0.72190500  0.89342300  1
  O  O1  1  0.58174300  0.85983700  0.89342300  1
  O  O2  1  0.27809500  0.41825700  0.60657700  1
  O  O3  1  0.87794000  0.13452400  0.75000000  1
  O  O4  1  0.72190500  0.58174300  0.39342300  1
  O  O5  1  0.58174300  0.85983700  0.60657700  1
  O  O6  1  0.86547600  0.74341700  0.75000000  1
  O  O7  1  0.85983700  0.27809500  0.39342300  1
  O  O8  1  0.41825700  0.14016300  0.39342300  1
  O  O9  1  0.72190500  0.58174300  0.10657700  1
  O  O10  1  0.25658300  0.12206000  0.75000000  1
  O  O11  1  0.12206000  0.86547600  0.25000000  1
  O  O12  1  0.74341700  0.87794000  0.25000000  1
  O  O13  1  0.13452400  0.25658300  0.25000000  1
  O  O14  1  0.27809500  0.41825700  0.89342300  1
  O  O15  1  0.41825700  0.14016300  0.10657700  1
  O  O16  1  0.14016300  0.72190500  0.60657700  1
  O  O17  1  0.85983700  0.27809500  0.10657700  1
loop_
_geom_bond_atom_site_label_1
_geom_bond_atom_site_label_2
_geom_bond_distance
_geom_bond_site_symmetry_2
Na0 O10 2.275083 1_555
Na0 O6 2.275083 1_445
Na0 O3 2.275089 1_455
Na1 O12 2.275083 1_445
Na1 O13 2.275083 1_555
Na1 O11 2.275089 1_545
Na2 O12 2.275083 1_445
Na2 O13 2.275083 1_555
Na2 O11 2.275089 1_545
Na3 O10 2.275083 1_555
Na3 O6 2.275083 1_445
Na3 O3 2.275089 1_455
O0 Zn1 1.907589 1_555
O0 Te0 1.918992 1_455
O1 Zn1 1.907601 1_555
O1 Te4 1.918993 1_565
O2 Zn0 1.907606 1_555
O2 Te1 1.918988 1_555
O3 Te4 1.839605 1_555
O4 Zn3 1.907606 1_555
O4 Te3 1.918988 1_555
O5 Zn0 1.907601 1_555
O5 Te4 1.918993 1_565
O6 Te0 1.839613 1_555
O7 Zn3 1.907589 1_555
O7 Te2 1.918992 1_655
O8 Zn3 1.907601 1_555
O8 Te5 1.918993 1_545
O9 Zn2 1.907606 1_555
O9 Te3 1.918988 1_555
O10 Te1 1.839606 1_555
O11 Te5 1.839605 1_555
O12 Te3 1.839606 1_555
O13 Te2 1.839613 1_555
O14 Zn1 1.907606 1_555
O14 Te1 1.918988 1_555
O15 Zn2 1.907601 1_555
O15 Te5 1.918993 1_545
O16 Zn0 1.907589 1_555
O16 Te0 1.918992 1_455
O17 Zn2 1.907589 1_555
O17 Te2 1.918992 1_655
