# generated using pymatgen
data_NaCa3RuO6
_symmetry_space_group_name_H-M   'P 1'
_cell_length_a   6.56245651
_cell_length_b   6.56245651
_cell_length_c   6.56245678
_cell_angle_alpha   90.44821899
_cell_angle_beta   90.44821899
_cell_angle_gamma   90.44823199
_symmetry_Int_Tables_number   1
_chemical_formula_structural   NaCa3RuO6
_chemical_formula_sum   'Na2 Ca6 Ru2 O12'
_cell_volume   282.59160391
_cell_formula_units_Z   2
loop_
 _symmetry_equiv_pos_site_id
 _symmetry_equiv_pos_as_xyz
  1  'x, y, z'
loop_
 _atom_site_type_symbol
 _atom_site_label
 _atom_site_symmetry_multiplicity
 _atom_site_fract_x
 _atom_site_fract_y
 _atom_site_fract_z
 _atom_site_occupancy
  Na  Na0  1  0.25000000  0.25000000  0.25000000  1
  Na  Na1  1  0.75000000  0.75000000  0.75000000  1
  Ca  Ca0  1  0.75000000  0.10491500  0.39508500  1
  Ca  Ca1  1  0.39508500  0.75000000  0.10491500  1
  Ca  Ca2  1  0.10491500  0.39508500  0.75000000  1
  Ca  Ca3  1  0.25000000  0.89508500  0.60491500  1
  Ca  Ca4  1  0.60491500  0.25000000  0.89508500  1
  Ca  Ca5  1  0.89508500  0.60491500  0.25000000  1
  Ru  Ru0  1  0.50000000  0.50000000  0.50000000  1
  Ru  Ru1  1  0.00000000  0.00000000  0.00000000  1
  O  O0  1  0.43252100  0.20979200  0.55759300  1
  O  O1  1  0.55759300  0.43252100  0.20979200  1
  O  O2  1  0.20979200  0.55759300  0.43252100  1
  O  O3  1  0.06747900  0.94240700  0.29020800  1
  O  O4  1  0.29020800  0.06747900  0.94240700  1
  O  O5  1  0.94240700  0.29020800  0.06747900  1
  O  O6  1  0.56747900  0.79020800  0.44240700  1
  O  O7  1  0.44240700  0.56747900  0.79020800  1
  O  O8  1  0.79020800  0.44240700  0.56747900  1
  O  O9  1  0.93252100  0.05759300  0.70979200  1
  O  O10  1  0.05759300  0.70979200  0.93252100  1
  O  O11  1  0.70979200  0.93252100  0.05759300  1
loop_
_geom_bond_atom_site_label_1
_geom_bond_atom_site_label_2
_geom_bond_distance
_geom_bond_site_symmetry_2
Na0 O3 2.356771 1_545
Na0 O1 2.356771 1_555
Na0 O5 2.356772 1_455
Na0 O2 2.356772 1_555
Na0 O4 2.356772 1_554
Na0 O0 2.356772 1_555
Na1 O9 2.356771 1_565
Na1 O7 2.356771 1_555
Na1 O10 2.356772 1_655
Na1 O8 2.356772 1_555
Na1 O11 2.356772 1_556
Na1 O6 2.356772 1_555
Ca0 O6 2.402820 1_545
Ca0 O9 2.402820 1_555
Ca0 O0 2.448970 1_555
Ca0 O3 2.448970 1_645
Ca0 O8 2.490331 1_555
Ca0 O11 2.490331 1_545
Ca0 O5 2.784661 1_555
Ca0 O1 2.784662 1_555
Ca1 O11 2.402820 1_555
Ca1 O7 2.402820 1_554
Ca1 O4 2.448970 1_564
Ca1 O1 2.448970 1_555
Ca1 O10 2.490331 1_554
Ca1 O6 2.490331 1_555
Ca1 O2 2.784661 1_555
Ca1 O3 2.784662 1_555
Ca2 O10 2.402820 1_555
Ca2 O8 2.402820 1_455
Ca2 O5 2.448970 1_456
Ca2 O2 2.448970 1_555
Ca2 O9 2.490330 1_455
Ca2 O7 2.490330 1_555
Ca2 O4 2.784662 1_555
Ca2 O0 2.784662 1_555
Ca3 O0 2.402820 1_565
Ca3 O3 2.402820 1_555
Ca3 O6 2.448970 1_555
Ca3 O9 2.448970 1_465
Ca3 O2 2.490331 1_555
Ca3 O4 2.490331 1_565
Ca3 O10 2.784661 1_555
Ca3 O7 2.784662 1_555
Ca4 O4 2.402820 1_555
Ca4 O1 2.402820 1_556
Ca4 O11 2.448970 1_546
Ca4 O7 2.448970 1_555
Ca4 O5 2.490331 1_556
Ca4 O0 2.490331 1_555
Ca4 O8 2.784661 1_555
Ca4 O9 2.784662 1_555
Ca5 O2 2.402820 1_655
Ca5 O5 2.402820 1_555
Ca5 O8 2.448970 1_555
Ca5 O10 2.448970 1_654
Ca5 O1 2.490330 1_555
Ca5 O3 2.490330 1_655
Ca5 O6 2.784662 1_555
Ca5 O11 2.784662 1_555
O0 Ru0 1.991648 1_555
O1 Ru0 1.991649 1_555
O2 Ru0 1.991649 1_555
O3 Ru1 1.991649 1_565
O4 Ru1 1.991648 1_556
O5 Ru1 1.991649 1_655
O6 Ru0 1.991648 1_555
O7 Ru0 1.991649 1_555
O8 Ru0 1.991649 1_555
O9 Ru1 1.991649 1_656
O10 Ru1 1.991649 1_566
O11 Ru1 1.991648 1_665
