# generated using pymatgen
data_Zr2FeH5
_symmetry_space_group_name_H-M   'P 1'
_cell_length_a   6.85644789
_cell_length_b   6.85644789
_cell_length_c   5.65271636
_cell_angle_alpha   90.00000000
_cell_angle_beta   90.00000000
_cell_angle_gamma   90.00000000
_symmetry_Int_Tables_number   1
_chemical_formula_structural   Zr2FeH5
_chemical_formula_sum   'Zr8 Fe4 H20'
_cell_volume   265.73915729
_cell_formula_units_Z   4
loop_
 _symmetry_equiv_pos_site_id
 _symmetry_equiv_pos_as_xyz
  1  'x, y, z'
loop_
 _atom_site_type_symbol
 _atom_site_label
 _atom_site_symmetry_multiplicity
 _atom_site_fract_x
 _atom_site_fract_y
 _atom_site_fract_z
 _atom_site_occupancy
  Zr  Zr0  1  0.16108905  0.83891095  0.25000000  1
  Zr  Zr1  1  0.16108905  0.16108905  0.75000000  1
  Zr  Zr2  1  0.83891095  0.83891095  0.75000000  1
  Zr  Zr3  1  0.83891095  0.16108905  0.25000000  1
  Zr  Zr4  1  0.33891095  0.66108905  0.75000000  1
  Zr  Zr5  1  0.33891095  0.33891095  0.25000000  1
  Zr  Zr6  1  0.66108905  0.66108905  0.25000000  1
  Zr  Zr7  1  0.66108905  0.33891095  0.75000000  1
  Fe  Fe0  1  -0.00000000  0.50000000  0.48581701  1
  Fe  Fe1  1  -0.00000000  0.50000000  0.98581701  1
  Fe  Fe2  1  0.50000000  -0.00000000  0.51418299  1
  Fe  Fe3  1  0.50000000  -0.00000000  0.01418299  1
  H  H0  1  0.50000000  0.50000000  0.50000000  1
  H  H1  1  0.50000000  0.50000000  -0.00000000  1
  H  H2  1  -0.00000000  -0.00000000  -0.00000000  1
  H  H3  1  -0.00000000  -0.00000000  0.50000000  1
  H  H4  1  0.78793904  0.41624163  0.43066292  1
  H  H5  1  0.78793904  0.58375837  0.93066292  1
  H  H6  1  0.21206096  0.41624163  0.93066292  1
  H  H7  1  0.21206096  0.58375837  0.43066292  1
  H  H8  1  0.91624163  0.28793904  0.93066292  1
  H  H9  1  0.91624163  0.71206096  0.43066292  1
  H  H10  1  0.08375837  0.28793904  0.43066292  1
  H  H11  1  0.08375837  0.71206096  0.93066292  1
  H  H12  1  0.71206096  0.08375837  0.56933708  1
  H  H13  1  0.71206096  0.91624163  0.06933708  1
  H  H14  1  0.28793904  0.08375837  0.06933708  1
  H  H15  1  0.28793904  0.91624163  0.56933708  1
  H  H16  1  0.58375837  0.21206096  0.06933708  1
  H  H17  1  0.58375837  0.78793904  0.56933708  1
  H  H18  1  0.41624163  0.21206096  0.56933708  1
  H  H19  1  0.41624163  0.78793904  0.06933708  1
loop_
_geom_bond_atom_site_label_1
_geom_bond_atom_site_label_2
_geom_bond_distance
_geom_bond_site_symmetry_2
Fe0 H9 1.594075 1_455
Fe0 H4 1.594075 1_455
Fe0 H10 1.594075 1_555
Fe0 H7 1.594075 1_555
Fe1 H11 1.594075 1_555
Fe1 H5 1.594075 1_455
Fe1 H6 1.594075 1_555
Fe1 H8 1.594075 1_455
Fe2 H17 1.594075 1_545
Fe2 H12 1.594075 1_555
Fe2 H15 1.594075 1_545
Fe2 H18 1.594075 1_555
Fe3 H19 1.594075 1_545
Fe3 H13 1.594075 1_545
Fe3 H16 1.594075 1_555
Fe3 H14 1.594075 1_555
H0 Zr5 2.106397 1_555
H0 Zr4 2.106397 1_555
H0 Zr6 2.106397 1_555
H0 Zr7 2.106397 1_555
H1 Zr5 2.106397 1_555
H1 Zr7 2.106397 1_554
H1 Zr4 2.106397 1_554
H1 Zr6 2.106397 1_555
H2 Zr3 2.106397 1_455
H2 Zr2 2.106397 1_444
H2 Zr1 2.106397 1_554
H2 Zr0 2.106397 1_545
H3 Zr1 2.106397 1_555
H3 Zr3 2.106397 1_455
H3 Zr2 2.106397 1_445
H3 Zr0 2.106397 1_545
H4 Zr3 2.055628 1_555
H4 Zr7 2.072689 1_555
H4 Zr6 2.148880 1_555
H5 Zr2 2.055628 1_555
H5 Zr6 2.072689 1_556
H5 Zr7 2.148880 1_555
H6 Zr1 2.055628 1_555
H6 Zr5 2.072689 1_556
H6 Zr4 2.148880 1_555
H7 Zr0 2.055628 1_555
H7 Zr4 2.072689 1_555
H7 Zr5 2.148880 1_555
H8 Zr7 2.055628 1_555
H8 Zr3 2.072689 1_556
H8 Zr1 2.148880 1_655
H9 Zr6 2.055628 1_555
H9 Zr2 2.072689 1_555
H9 Zr0 2.148880 1_655
H10 Zr5 2.055628 1_555
H10 Zr1 2.072689 1_555
H10 Zr3 2.148880 1_455
H11 Zr4 2.055628 1_555
H11 Zr0 2.072689 1_556
H11 Zr2 2.148880 1_455
H12 Zr7 2.055628 1_555
H12 Zr3 2.072689 1_555
H12 Zr2 2.148880 1_545
H13 Zr6 2.055628 1_555
H13 Zr2 2.072689 1_554
H13 Zr3 2.148880 1_565
H14 Zr5 2.055628 1_555
H14 Zr1 2.072689 1_554
H14 Zr0 2.148880 1_545
H15 Zr4 2.055628 1_555
H15 Zr0 2.072689 1_555
H15 Zr1 2.148880 1_565
H16 Zr3 2.055628 1_555
H16 Zr7 2.072689 1_554
H16 Zr5 2.148880 1_555
H17 Zr2 2.055628 1_555
H17 Zr6 2.072689 1_555
H17 Zr4 2.148880 1_555
H18 Zr1 2.055628 1_555
H18 Zr5 2.072689 1_555
H18 Zr7 2.148880 1_555
H19 Zr0 2.055628 1_555
H19 Zr4 2.072689 1_554
H19 Zr6 2.148880 1_555
