# generated using pymatgen
data_La7Mn8O24
_symmetry_space_group_name_H-M   'P 1'
_cell_length_a   9.62938029
_cell_length_b   9.62938029
_cell_length_c   9.62938029
_cell_angle_alpha   132.39088407
_cell_angle_beta   132.39088407
_cell_angle_gamma   69.61236422
_symmetry_Int_Tables_number   1
_chemical_formula_structural   La7Mn8O24
_chemical_formula_sum   'La7 Mn8 O24'
_cell_volume   477.73355002
_cell_formula_units_Z   1
loop_
 _symmetry_equiv_pos_site_id
 _symmetry_equiv_pos_as_xyz
  1  'x, y, z'
loop_
 _atom_site_type_symbol
 _atom_site_label
 _atom_site_symmetry_multiplicity
 _atom_site_fract_x
 _atom_site_fract_y
 _atom_site_fract_z
 _atom_site_occupancy
  La  La0  1  0.25000000  0.75000000  0.50000000  1
  La  La1  1  0.75050700  0.75050700  0.00000000  1
  La  La2  1  0.50000000  0.50000000  0.00000000  1
  La  La3  1  0.24949300  0.24949300  0.00000000  1
  La  La4  1  0.00000000  0.00000000  0.00000000  1
  La  La5  1  0.50196900  0.00196900  0.50000000  1
  La  La6  1  0.99803100  0.49803100  0.50000000  1
  Mn  Mn0  1  0.87383000  0.87997100  0.49980100  1
  Mn  Mn1  1  0.62597100  0.61983000  0.49980100  1
  Mn  Mn2  1  0.38017000  0.37402900  0.50019900  1
  Mn  Mn3  1  0.87383000  0.37402900  0.99385900  1
  Mn  Mn4  1  0.62597100  0.12617000  0.00614100  1
  Mn  Mn5  1  0.12002900  0.12617000  0.50019900  1
  Mn  Mn6  1  0.38017000  0.87997100  0.00614100  1
  Mn  Mn7  1  0.12002900  0.61983000  0.99385900  1
  O  O0  1  0.48559200  0.51440800  0.50000000  1
  O  O1  1  0.58282600  0.87795300  0.70487300  1
  O  O2  1  0.75330500  0.24669500  0.00000000  1
  O  O3  1  0.61556700  0.33463000  0.71906300  1
  O  O4  1  0.83060800  0.62575700  0.20485000  1
  O  O5  1  0.37424300  0.16939200  0.79515000  1
  O  O6  1  0.01440800  0.98559200  0.50000000  1
  O  O7  1  0.87643000  0.07472400  0.19829400  1
  O  O8  1  0.42090700  0.62575700  0.79515000  1
  O  O9  1  0.61556700  0.89650500  0.28093700  1
  O  O10  1  0.10349500  0.38443300  0.71906300  1
  O  O11  1  0.48559200  0.98559200  0.97118400  1
  O  O12  1  0.24669500  0.75330500  0.00000000  1
  O  O13  1  0.66537000  0.38443300  0.28093700  1
  O  O14  1  0.12204700  0.82692000  0.70487300  1
  O  O15  1  0.32186400  0.12357000  0.19829400  1
  O  O16  1  0.87643000  0.67813600  0.80170600  1
  O  O17  1  0.75330500  0.75330500  0.50660900  1
  O  O18  1  0.37424300  0.57909300  0.20485000  1
  O  O19  1  0.92527600  0.12357000  0.80170600  1
  O  O20  1  0.12204700  0.41717400  0.29512700  1
  O  O21  1  0.01440800  0.51440800  0.02881600  1
  O  O22  1  0.17308000  0.87795300  0.29512700  1
  O  O23  1  0.24669500  0.24669500  0.49339100  1
loop_
_geom_bond_atom_site_label_1
_geom_bond_atom_site_label_2
_geom_bond_distance
_geom_bond_site_symmetry_2
La0 O14 2.574879 1_555
La0 O20 2.574879 1_555
La0 O1 2.574879 1_555
La0 O22 2.574879 1_555
La0 O21 2.589849 1_555
La0 O6 2.589849 1_555
La0 O0 2.589849 1_555
La0 O11 2.589849 1_555
La1 O7 2.518107 1_565
La1 O16 2.518107 1_554
La1 O4 2.535156 1_555
La1 O8 2.535160 1_554
La1 O0 2.752808 1_554
La1 O21 2.752808 1_655
La1 O6 2.752808 1_655
La1 O11 2.752808 1_554
La1 O9 3.053205 1_555
La1 O3 3.053208 1_554
La1 O1 3.053572 1_554
La1 O22 3.053572 1_655
La2 O8 2.547570 1_554
La2 O18 2.547570 1_555
La2 O4 2.547579 1_555
La2 O5 2.547579 1_554
La2 O17 2.784562 1_555
La2 O23 2.784562 1_554
La2 O12 2.784567 1_555
La2 O2 2.784567 1_555
La2 O3 2.847550 1_554
La2 O13 2.847550 1_555
La2 O9 2.847558 1_555
La2 O10 2.847558 1_554
La3 O15 2.518107 1_555
La3 O19 2.518107 1_454
La3 O5 2.535156 1_554
La3 O18 2.535160 1_555
La3 O11 2.752808 1_544
La3 O0 2.752808 1_555
La3 O6 2.752808 1_544
La3 O21 2.752808 1_555
La3 O10 3.053205 1_554
La3 O13 3.053208 1_555
La3 O14 3.053572 1_544
La3 O20 3.053572 1_555
La4 O7 2.488788 1_455
La4 O19 2.488788 1_454
La4 O15 2.488788 1_555
La4 O16 2.488788 1_444
La4 O2 2.711904 1_455
La4 O12 2.711904 1_545
La4 O17 2.711909 1_444
La4 O23 2.711909 1_555
La4 O22 2.997912 1_545
La4 O20 2.997912 1_555
La4 O14 2.997912 1_544
La4 O1 2.997912 1_444
La5 O3 2.475161 1_555
La5 O9 2.475164 1_545
La5 O1 2.526251 1_545
La5 O22 2.526251 1_545
La5 O17 2.748652 1_545
La5 O12 2.748652 1_545
La5 O2 2.748652 1_556
La5 O23 2.748652 1_555
La5 O19 3.032747 1_555
La5 O15 3.032747 1_555
La5 O18 3.056630 1_545
La5 O5 3.056633 1_555
La6 O13 2.475161 1_555
La6 O10 2.475164 1_655
La6 O14 2.526251 1_655
La6 O20 2.526251 1_655
La6 O23 2.748652 1_655
La6 O2 2.748652 1_555
La6 O12 2.748652 1_656
La6 O17 2.748652 1_555
La6 O7 3.032747 1_555
La6 O16 3.032747 1_555
La6 O8 3.056630 1_655
La6 O4 3.056633 1_555
Mn0 O9 1.939379 1_555
Mn0 O6 1.954483 1_655
Mn0 O19 1.967758 1_565
Mn0 O4 1.993382 1_555
Mn0 O14 2.004668 1_655
Mn0 O17 2.008892 1_555
Mn1 O13 1.939376 1_555
Mn1 O0 1.954483 1_555
Mn1 O16 1.967758 1_555
Mn1 O18 1.993379 1_555
Mn1 O1 2.004668 1_555
Mn1 O17 2.008908 1_555
Mn2 O3 1.939376 1_555
Mn2 O0 1.954483 1_555
Mn2 O15 1.967758 1_555
Mn2 O8 1.993379 1_555
Mn2 O20 2.004668 1_555
Mn2 O23 2.008908 1_555
Mn3 O3 1.939376 1_555
Mn3 O21 1.954483 1_656
Mn3 O19 1.967758 1_555
Mn3 O4 1.993375 1_556
Mn3 O20 2.004668 1_656
Mn3 O2 2.008900 1_556
Mn4 O13 1.939376 1_555
Mn4 O11 1.954483 1_544
Mn4 O7 1.967758 1_555
Mn4 O5 1.993375 1_554
Mn4 O1 2.004668 1_544
Mn4 O2 2.008900 1_555
Mn5 O10 1.939379 1_555
Mn5 O6 1.954483 1_545
Mn5 O7 1.967758 1_455
Mn5 O5 1.993382 1_555
Mn5 O22 2.004668 1_545
Mn5 O23 2.008892 1_555
Mn6 O9 1.939372 1_555
Mn6 O11 1.954483 1_554
Mn6 O15 1.967758 1_565
Mn6 O8 1.993379 1_554
Mn6 O14 2.004668 1_554
Mn6 O12 2.008900 1_555
Mn7 O10 1.939372 1_555
Mn7 O21 1.954483 1_556
Mn7 O16 1.967758 1_455
Mn7 O18 1.993379 1_556
Mn7 O22 2.004668 1_556
Mn7 O12 2.008900 1_556
