# generated using pymatgen
data_K2ErTi(PO4)3
_symmetry_space_group_name_H-M   'P 1'
_cell_length_a   10.27808000
_cell_length_b   10.27808000
_cell_length_c   10.27808000
_cell_angle_alpha   90.00000000
_cell_angle_beta   90.00000000
_cell_angle_gamma   90.00000000
_symmetry_Int_Tables_number   1
_chemical_formula_structural   K2ErTi(PO4)3
_chemical_formula_sum   'K8 Er4 Ti4 P12 O48'
_cell_volume   1085.76535810
_cell_formula_units_Z   4
loop_
 _symmetry_equiv_pos_site_id
 _symmetry_equiv_pos_as_xyz
  1  'x, y, z'
loop_
 _atom_site_type_symbol
 _atom_site_label
 _atom_site_symmetry_multiplicity
 _atom_site_fract_x
 _atom_site_fract_y
 _atom_site_fract_z
 _atom_site_occupancy
  K  K0  1  0.04517400  0.54517400  0.95482600  1
  K  K1  1  0.18056700  0.81943300  0.31943300  1
  K  K2  1  0.31943300  0.18056700  0.81943300  1
  K  K3  1  0.45482600  0.45482600  0.45482600  1
  K  K4  1  0.54517400  0.95482600  0.04517400  1
  K  K5  1  0.68056700  0.68056700  0.68056700  1
  K  K6  1  0.81943300  0.31943300  0.18056700  1
  K  K7  1  0.95482600  0.04517400  0.54517400  1
  Er  Er0  1  0.16578400  0.16578400  0.16578400  1
  Er  Er1  1  0.33421600  0.83421600  0.66578400  1
  Er  Er2  1  0.66578400  0.33421600  0.83421600  1
  Er  Er3  1  0.83421600  0.66578400  0.33421600  1
  Ti  Ti0  1  0.10660700  0.39339300  0.60660700  1
  Ti  Ti1  1  0.39339300  0.60660700  0.10660700  1
  Ti  Ti2  1  0.60660700  0.10660700  0.39339300  1
  Ti  Ti3  1  0.89339300  0.89339300  0.89339300  1
  P  P0  1  0.01358600  0.70764100  0.63097600  1
  P  P1  1  0.13097600  0.48641400  0.29235900  1
  P  P2  1  0.20764100  0.86902400  0.98641400  1
  P  P3  1  0.29235900  0.13097600  0.48641400  1
  P  P4  1  0.36902400  0.51358600  0.79235900  1
  P  P5  1  0.48641400  0.29235900  0.13097600  1
  P  P6  1  0.51358600  0.79235900  0.36902400  1
  P  P7  1  0.63097600  0.01358600  0.70764100  1
  P  P8  1  0.70764100  0.63097600  0.01358600  1
  P  P9  1  0.79235900  0.36902400  0.51358600  1
  P  P10  1  0.86902400  0.98641400  0.20764100  1
  P  P11  1  0.98641400  0.20764100  0.86902400  1
  O  O0  1  0.01650300  0.57789600  0.26752900  1
  O  O1  1  0.01685600  0.55984500  0.66698200  1
  O  O2  1  0.04473300  0.28710600  0.75147500  1
  O  O3  1  0.07789600  0.23247100  0.98349700  1
  O  O4  1  0.05984500  0.83301800  0.98314400  1
  O  O5  1  0.09851900  0.35073700  0.24323300  1
  O  O6  1  0.14926300  0.75676700  0.59851900  1
  O  O7  1  0.16698200  0.48314400  0.44015500  1
  O  O8  1  0.21289400  0.24852500  0.54473300  1
  O  O9  1  0.23247100  0.98349700  0.07789600  1
  O  O10  1  0.24852500  0.54473300  0.21289400  1
  O  O11  1  0.24323300  0.09851900  0.35073700  1
  O  O12  1  0.25676700  0.90148100  0.85073700  1
  O  O13  1  0.25147500  0.45526700  0.71289400  1
  O  O14  1  0.26752900  0.01650300  0.57789600  1
  O  O15  1  0.28710600  0.75147500  0.04473300  1
  O  O16  1  0.33301800  0.51685600  0.94015500  1
  O  O17  1  0.35073700  0.24323300  0.09851900  1
  O  O18  1  0.40148100  0.64926300  0.74323300  1
  O  O19  1  0.44015500  0.16698200  0.48314400  1
  O  O20  1  0.42210400  0.76752900  0.48349700  1
  O  O21  1  0.45526700  0.71289400  0.25147500  1
  O  O22  1  0.48314400  0.44015500  0.16698200  1
  O  O23  1  0.48349700  0.42210400  0.76752900  1
  O  O24  1  0.51650300  0.92210400  0.73247100  1
  O  O25  1  0.51685600  0.94015500  0.33301800  1
  O  O26  1  0.54473300  0.21289400  0.24852500  1
  O  O27  1  0.57789600  0.26752900  0.01650300  1
  O  O28  1  0.55984500  0.66698200  0.01685600  1
  O  O29  1  0.59851900  0.14926300  0.75676700  1
  O  O30  1  0.64926300  0.74323300  0.40148100  1
  O  O31  1  0.66698200  0.01685600  0.55984500  1
  O  O32  1  0.71289400  0.25147500  0.45526700  1
  O  O33  1  0.73247100  0.51650300  0.92210400  1
  O  O34  1  0.74852500  0.95526700  0.78710600  1
  O  O35  1  0.74323300  0.40148100  0.64926300  1
  O  O36  1  0.75676700  0.59851900  0.14926300  1
  O  O37  1  0.75147500  0.04473300  0.28710600  1
  O  O38  1  0.76752900  0.48349700  0.42210400  1
  O  O39  1  0.78710600  0.74852500  0.95526700  1
  O  O40  1  0.83301800  0.98314400  0.05984500  1
  O  O41  1  0.85073700  0.25676700  0.90148100  1
  O  O42  1  0.90148100  0.85073700  0.25676700  1
  O  O43  1  0.94015500  0.33301800  0.51685600  1
  O  O44  1  0.92210400  0.73247100  0.51650300  1
  O  O45  1  0.95526700  0.78710600  0.74852500  1
  O  O46  1  0.98314400  0.05984500  0.83301800  1
  O  O47  1  0.98349700  0.07789600  0.23247100  1
loop_
_geom_bond_atom_site_label_1
_geom_bond_atom_site_label_2
_geom_bond_distance
_geom_bond_site_symmetry_2
K0 O4 2.976588 1_555
K0 O16 2.976588 1_555
K0 O1 2.976588 1_555
K0 O0 3.244943 1_556
K0 O3 3.244943 1_555
K0 O33 3.244943 1_455
K1 O11 2.957444 1_565
K1 O42 2.957444 1_455
K1 O6 2.957444 1_555
K1 O9 3.048125 1_555
K1 O20 3.048125 1_555
K1 O0 3.048125 1_555
K1 O10 3.107806 1_555
K1 O15 3.107806 1_555
K1 O21 3.107806 1_555
K2 O17 2.957444 1_556
K2 O12 2.957444 1_545
K2 O29 2.957444 1_555
K2 O3 3.048125 1_555
K2 O23 3.048125 1_555
K2 O14 3.048125 1_555
K2 O8 3.107806 1_555
K2 O2 3.107806 1_555
K2 O13 3.107806 1_555
K3 O7 2.976588 1_555
K3 O22 2.976588 1_555
K3 O19 2.976588 1_555
K3 O20 3.244943 1_555
K3 O23 3.244943 1_555
K3 O38 3.244943 1_555
K4 O25 2.976588 1_555
K4 O40 2.976588 1_555
K4 O28 2.976588 1_555
K4 O27 3.244943 1_565
K4 O9 3.244943 1_555
K4 O24 3.244943 1_554
K5 O30 2.957444 1_555
K5 O18 2.957444 1_555
K5 O35 2.957444 1_555
K5 O24 3.048125 1_555
K5 O44 3.048125 1_555
K5 O33 3.048125 1_555
K5 O45 3.107806 1_555
K5 O39 3.107806 1_555
K5 O34 3.107806 1_555
K6 O5 2.957444 1_655
K6 O41 2.957444 1_554
K6 O36 2.957444 1_555
K6 O47 3.048125 1_555
K6 O38 3.048125 1_555
K6 O27 3.048125 1_555
K6 O26 3.107806 1_555
K6 O37 3.107806 1_555
K6 O32 3.107806 1_555
K7 O46 2.976588 1_555
K7 O43 2.976588 1_555
K7 O31 2.976588 1_555
K7 O14 3.244943 1_655
K7 O47 3.244943 1_555
K7 O44 3.244943 1_545
Er0 O17 2.173772 1_555
Er0 O11 2.173772 1_555
Er0 O5 2.173772 1_555
Er0 O47 2.189979 1_455
Er0 O3 2.189979 1_554
Er0 O9 2.189979 1_545
Er1 O6 2.173772 1_555
Er1 O12 2.173772 1_555
Er1 O18 2.173772 1_555
Er1 O14 2.189979 1_565
Er1 O24 2.189979 1_555
Er1 O20 2.189979 1_555
Er2 O29 2.173772 1_555
Er2 O41 2.173772 1_555
Er2 O35 2.173772 1_555
Er2 O27 2.189979 1_556
Er2 O33 2.189979 1_555
Er2 O23 2.189979 1_555
Er3 O36 2.173772 1_555
Er3 O42 2.173772 1_555
Er3 O30 2.173772 1_555
Er3 O0 2.189979 1_655
Er3 O44 2.189979 1_555
Er3 O38 2.189979 1_555
O0 P1 1.527585 1_555
O1 P0 1.563849 1_555
O1 Ti0 2.040313 1_555
O2 P11 1.576724 1_455
O2 Ti0 1.953161 1_555
O3 P11 1.527585 1_455
O4 P2 1.563849 1_555
O4 Ti3 2.040313 1_455
O5 P1 1.520151 1_555
O6 P0 1.520151 1_555
O7 P1 1.563849 1_555
O7 Ti0 2.040313 1_555
O8 P3 1.576724 1_555
O8 Ti0 1.953161 1_555
O9 P2 1.527585 1_554
O10 P1 1.576724 1_555
O10 Ti1 1.953161 1_555
O11 P3 1.520151 1_555
O12 P2 1.520151 1_555
O13 P4 1.576724 1_555
O13 Ti0 1.953161 1_555
O14 P3 1.527585 1_555
O15 P2 1.576724 1_554
O15 Ti1 1.953161 1_555
O16 P4 1.563849 1_555
O16 Ti1 2.040313 1_556
O17 P5 1.520151 1_555
O18 P4 1.520151 1_555
O19 P3 1.563849 1_555
O19 Ti2 2.040313 1_555
O20 P6 1.527585 1_555
O21 P6 1.576724 1_555
O21 Ti1 1.953161 1_555
O22 P5 1.563849 1_555
O22 Ti1 2.040313 1_555
O23 P4 1.527585 1_555
O24 P7 1.527585 1_565
O25 P6 1.563849 1_555
O25 Ti2 2.040313 1_565
O26 P5 1.576724 1_555
O26 Ti2 1.953161 1_555
O27 P5 1.527585 1_555
O28 P8 1.563849 1_555
O28 Ti1 2.040313 1_555
O29 P7 1.520151 1_555
O30 P6 1.520151 1_555
O31 P7 1.563849 1_555
O31 Ti2 2.040313 1_555
O32 P9 1.576724 1_555
O32 Ti2 1.953161 1_555
O33 P8 1.527585 1_556
O34 P7 1.576724 1_565
O34 Ti3 1.953161 1_555
O35 P9 1.520151 1_555
O36 P8 1.520151 1_555
O37 P10 1.576724 1_545
O37 Ti2 1.953161 1_555
O38 P9 1.527585 1_555
O39 P8 1.576724 1_556
O39 Ti3 1.953161 1_555
O40 P10 1.563849 1_555
O40 Ti3 2.040313 1_554
O41 P11 1.520151 1_555
O42 P10 1.520151 1_555
O43 P9 1.563849 1_555
O43 Ti0 2.040313 1_655
O44 P0 1.527585 1_655
O45 P0 1.576724 1_655
O45 Ti3 1.953161 1_555
O46 P11 1.563849 1_555
O46 Ti3 2.040313 1_545
O47 P10 1.527585 1_545
