# generated using pymatgen
data_Li2P2PdO7
_symmetry_space_group_name_H-M   'P 1'
_cell_length_a   8.13445483
_cell_length_b   8.13445483
_cell_length_c   8.13445483
_cell_angle_alpha   132.64739646
_cell_angle_beta   128.69522528
_cell_angle_gamma   72.38242422
_symmetry_Int_Tables_number   1
_chemical_formula_structural   Li2P2PdO7
_chemical_formula_sum   'Li4 P4 Pd2 O14'
_cell_volume   302.06765323
_cell_formula_units_Z   2
loop_
 _symmetry_equiv_pos_site_id
 _symmetry_equiv_pos_as_xyz
  1  'x, y, z'
loop_
 _atom_site_type_symbol
 _atom_site_label
 _atom_site_symmetry_multiplicity
 _atom_site_fract_x
 _atom_site_fract_y
 _atom_site_fract_z
 _atom_site_occupancy
  Li  Li0  1  0.22841600  0.22841600  0.50000000  1
  Li  Li1  1  0.77158400  0.77158400  0.50000000  1
  Li  Li2  1  0.72841600  0.22841600  0.00000000  1
  Li  Li3  1  0.27158400  0.77158400  0.00000000  1
  P  P0  1  0.86006000  0.44008600  0.58002600  1
  P  P1  1  0.63994000  0.21996600  0.58002600  1
  P  P2  1  0.13994000  0.55991400  0.41997400  1
  P  P3  1  0.36006000  0.78003400  0.41997400  1
  Pd  Pd0  1  0.50000000  0.00000000  0.00000000  1
  Pd  Pd1  1  0.00000000  0.00000000  0.50000000  1
  O  O0  1  0.67985800  0.31408900  0.26449400  1
  O  O1  1  0.45040500  0.08463600  0.26449400  1
  O  O2  1  0.17985800  0.91536400  0.36576900  1
  O  O3  1  0.25000000  0.55631500  0.30631500  1
  O  O4  1  0.75000000  0.44368500  0.69368500  1
  O  O5  1  0.05534600  0.31827200  0.26292500  1
  O  O6  1  0.95040500  0.68591100  0.36576900  1
  O  O7  1  0.04959500  0.31408900  0.63423100  1
  O  O8  1  0.94465400  0.68172800  0.73707500  1
  O  O9  1  0.54959500  0.91536400  0.73550600  1
  O  O10  1  0.55534600  0.29242100  0.73707500  1
  O  O11  1  0.82014200  0.08463600  0.63423100  1
  O  O12  1  0.44465400  0.70757900  0.26292500  1
  O  O13  1  0.32014200  0.68591100  0.73550600  1
loop_
_geom_bond_atom_site_label_1
_geom_bond_atom_site_label_2
_geom_bond_distance
_geom_bond_site_symmetry_2
Li0 O10 2.031652 1_555
Li0 O5 2.031658 1_555
Li0 O7 2.033479 1_555
Li0 O2 2.033479 1_545
Li1 O12 2.031652 1_555
Li1 O8 2.031658 1_555
Li1 O11 2.033479 1_565
Li1 O6 2.033479 1_555
Li2 O10 2.031652 1_554
Li2 O5 2.031652 1_655
Li2 O0 2.033479 1_555
Li2 O9 2.033479 1_544
Li3 O12 2.031652 1_555
Li3 O8 2.031652 1_454
Li3 O1 2.033479 1_565
Li3 O13 2.033479 1_554
O0 P0 1.558113 1_555
O0 Pd0 2.043494 1_555
O1 P1 1.558113 1_555
O1 Pd0 2.043494 1_555
O2 P3 1.558113 1_555
O2 Pd1 2.043494 1_565
O3 P2 1.624684 1_555
O3 P3 1.624684 1_555
O4 P0 1.624684 1_555
O4 P1 1.624684 1_555
O5 P2 1.512069 1_555
O6 P2 1.558113 1_655
O6 Pd1 2.043494 1_665
O7 P0 1.558113 1_455
O7 Pd1 2.043494 1_555
O8 P0 1.512069 1_555
O9 P3 1.558113 1_555
O9 Pd0 2.043494 1_566
O10 P1 1.512076 1_555
O11 P1 1.558113 1_555
O11 Pd1 2.043494 1_655
O12 P3 1.512076 1_555
O13 P2 1.558113 1_555
O13 Pd0 2.043494 1_566
