# generated using pymatgen
data_Na2Nd2Ti3O10
_symmetry_space_group_name_H-M   'P 1'
_cell_length_a   14.64115209
_cell_length_b   14.64115209
_cell_length_c   14.64115209
_cell_angle_alpha   164.88596718
_cell_angle_beta   164.88596718
_cell_angle_gamma   21.43737557
_symmetry_Int_Tables_number   1
_chemical_formula_structural   Na2Nd2Ti3O10
_chemical_formula_sum   'Na2 Nd2 Ti3 O10'
_cell_volume   213.34232001
_cell_formula_units_Z   1
loop_
 _symmetry_equiv_pos_site_id
 _symmetry_equiv_pos_as_xyz
  1  'x, y, z'
loop_
 _atom_site_type_symbol
 _atom_site_label
 _atom_site_symmetry_multiplicity
 _atom_site_fract_x
 _atom_site_fract_y
 _atom_site_fract_z
 _atom_site_occupancy
  Na  Na0  1  0.71201900  0.71201900  0.00000000  1
  Na  Na1  1  0.28798100  0.28798100  0.00000000  1
  Nd  Nd0  1  0.57526100  0.57526100  0.00000000  1
  Nd  Nd1  1  0.42473900  0.42473900  0.00000000  1
  Ti  Ti0  1  0.85326400  0.85326400  0.00000000  1
  Ti  Ti1  1  0.14673600  0.14673600  0.00000000  1
  Ti  Ti2  1  0.00000000  0.00000000  0.00000000  1
  O  O0  1  0.36821800  0.86821800  0.50000000  1
  O  O1  1  0.86821800  0.36821800  0.50000000  1
  O  O2  1  0.63178200  0.13178200  0.50000000  1
  O  O3  1  0.13178200  0.63178200  0.50000000  1
  O  O4  1  0.79202800  0.79202800  0.00000000  1
  O  O5  1  0.20797200  0.20797200  0.00000000  1
  O  O6  1  0.50000000  0.00000000  0.50000000  1
  O  O7  1  0.06734900  0.06734900  0.00000000  1
  O  O8  1  0.93265100  0.93265100  0.00000000  1
  O  O9  1  0.00000000  0.50000000  0.50000000  1
loop_
_geom_bond_atom_site_label_1
_geom_bond_atom_site_label_2
_geom_bond_distance
_geom_bond_site_symmetry_2
Na0 O4 2.301970 1_555
Na0 O5 2.725554 1_554
Na0 O5 2.725554 1_565
Na0 O5 2.725554 1_655
Na0 O5 2.725554 1_666
Na1 O5 2.301970 1_555
Na1 O4 2.725554 1_455
Na1 O4 2.725554 1_556
Na1 O4 2.725554 1_444
Na1 O4 2.725554 1_545
Nd0 O3 2.520323 1_655
Nd0 O3 2.520323 1_554
Nd0 O2 2.520323 1_554
Nd0 O2 2.520323 1_565
Nd0 O7 2.732564 1_666
Nd0 O7 2.732564 1_554
Nd0 O7 2.732564 1_565
Nd0 O7 2.732564 1_655
Nd0 O9 2.897644 1_554
Nd0 O9 2.897644 1_655
Nd0 O6 2.897644 1_554
Nd0 O6 2.897644 1_565
Nd1 O1 2.520323 1_454
Nd1 O0 2.520323 1_544
Nd1 O0 2.520323 1_555
Nd1 O1 2.520323 1_555
Nd1 O8 2.732564 1_455
Nd1 O8 2.732564 1_556
Nd1 O8 2.732564 1_444
Nd1 O8 2.732564 1_545
Nd1 O9 2.897644 1_655
Nd1 O6 2.897644 1_554
Nd1 O9 2.897644 1_554
Nd1 O6 2.897644 1_565
O0 Ti0 1.972981 1_455
O0 Ti0 1.972981 1_556
O1 Ti0 1.972981 1_545
O1 Ti0 1.972981 1_556
O2 Ti1 1.972981 1_555
O2 Ti1 1.972981 1_656
O3 Ti1 1.972981 1_555
O3 Ti1 1.972981 1_566
O4 Ti0 1.761845 1_555
O5 Ti1 1.761845 1_555
O6 Ti2 1.925498 1_656
O6 Ti2 1.925498 1_555
O7 Ti2 1.937724 1_555
O7 Ti1 2.284074 1_555
O8 Ti2 1.937724 1_665
O8 Ti0 2.284074 1_555
O9 Ti2 1.925498 1_566
O9 Ti2 1.925498 1_555
