# generated using pymatgen
data_Na2ZnGeO4
_symmetry_space_group_name_H-M   'P 1'
_cell_length_a   5.68000300
_cell_length_b   5.42778400
_cell_length_c   9.02700105
_cell_angle_alpha   52.91393423
_cell_angle_beta   90.00000000
_cell_angle_gamma   90.00000000
_symmetry_Int_Tables_number   1
_chemical_formula_structural   Na2ZnGeO4
_chemical_formula_sum   'Na4 Zn2 Ge2 O8'
_cell_volume   222.00914696
_cell_formula_units_Z   2
loop_
 _symmetry_equiv_pos_site_id
 _symmetry_equiv_pos_as_xyz
  1  'x, y, z'
loop_
 _atom_site_type_symbol
 _atom_site_label
 _atom_site_symmetry_multiplicity
 _atom_site_fract_x
 _atom_site_fract_y
 _atom_site_fract_z
 _atom_site_occupancy
  Na  Na0  1  0.17804600  0.49646300  0.99657500  1
  Na  Na1  1  0.67591400  0.23876000  0.25183800  1
  Na  Na2  1  0.82195400  0.49646300  0.49657500  1
  Na  Na3  1  0.32408600  0.23876000  0.75183800  1
  Zn  Zn0  1  0.81292800  0.99947200  0.00204100  1
  Zn  Zn1  1  0.18707200  0.99947200  0.50204100  1
  Ge  Ge0  1  0.31432900  0.75573700  0.24938100  1
  Ge  Ge1  1  0.68567100  0.75573700  0.74938100  1
  O  O0  1  0.70569500  0.05663800  0.77473200  1
  O  O1  1  0.29430500  0.05663800  0.27473200  1
  O  O2  1  0.20453800  0.40919800  0.45544800  1
  O  O3  1  0.79546200  0.40919800  0.95544800  1
  O  O4  1  0.15287000  0.87285600  0.04628300  1
  O  O5  1  0.38299300  0.69687600  0.72370200  1
  O  O6  1  0.61700700  0.69687600  0.22370200  1
  O  O7  1  0.84713000  0.87285600  0.54628300  1
loop_
_geom_bond_atom_site_label_1
_geom_bond_atom_site_label_2
_geom_bond_distance
_geom_bond_site_symmetry_2
Na0 O1 2.282681 1_556
Na0 O3 2.301418 1_455
Na0 O5 2.318268 1_555
Na0 O4 2.345452 1_556
Na1 O1 2.339173 1_555
Na1 O3 2.343118 1_554
Na1 O7 2.363995 1_545
Na1 O6 2.365957 1_555
Na2 O0 2.282681 1_555
Na2 O2 2.301418 1_655
Na2 O6 2.318268 1_555
Na2 O7 2.345452 1_555
Na3 O0 2.339173 1_555
Na3 O2 2.343118 1_555
Na3 O4 2.363995 1_546
Na3 O5 2.365957 1_555
Ge0 O2 1.779697 1_555
Ge0 O1 1.784233 1_565
Ge0 O4 1.789080 1_555
Ge0 O6 1.789081 1_555
Ge1 O3 1.779697 1_555
Ge1 O0 1.784233 1_565
Ge1 O7 1.789080 1_555
Ge1 O5 1.789081 1_555
O0 Zn0 1.977316 1_546
O1 Zn1 1.977316 1_545
O2 Zn1 2.001104 1_545
O3 Zn0 2.001104 1_546
O4 Zn0 2.007250 1_455
O5 Zn1 1.994046 1_555
O6 Zn0 1.994046 1_555
O7 Zn1 2.007250 1_655
