# generated using pymatgen
data_Ce4(LuS2)11
_symmetry_space_group_name_H-M   'P 1'
_cell_length_a   19.40554013
_cell_length_b   19.40554013
_cell_length_c   11.21445085
_cell_angle_alpha   88.68048098
_cell_angle_beta   88.68048098
_cell_angle_gamma   11.47648920
_symmetry_Int_Tables_number   1
_chemical_formula_structural   Ce4(LuS2)11
_chemical_formula_sum   'Ce4 Lu11 S22'
_cell_volume   840.02382399
_cell_formula_units_Z   1
loop_
 _symmetry_equiv_pos_site_id
 _symmetry_equiv_pos_as_xyz
  1  'x, y, z'
loop_
 _atom_site_type_symbol
 _atom_site_label
 _atom_site_symmetry_multiplicity
 _atom_site_fract_x
 _atom_site_fract_y
 _atom_site_fract_z
 _atom_site_occupancy
  Ce  Ce0  1  0.89569900  0.89569900  0.51244800  1
  Ce  Ce1  1  0.10430100  0.10430100  0.48755200  1
  Ce  Ce2  1  0.36703300  0.36703300  0.15082600  1
  Ce  Ce3  1  0.63296700  0.63296700  0.84917400  1
  Lu  Lu0  1  0.53802700  0.53802700  0.77025300  1
  Lu  Lu1  1  0.06959200  0.06959200  0.13844200  1
  Lu  Lu2  1  0.34252000  0.34252000  0.80049500  1
  Lu  Lu3  1  0.73680100  0.73680100  0.85212300  1
  Lu  Lu4  1  0.26319900  0.26319900  0.14787700  1
  Lu  Lu5  1  0.20239900  0.20239900  0.55893500  1
  Lu  Lu6  1  0.65748000  0.65748000  0.19950500  1
  Lu  Lu7  1  0.79760100  0.79760100  0.44106500  1
  Lu  Lu8  1  0.00000000  0.00000000  0.50000000  1
  Lu  Lu9  1  0.93040800  0.93040800  0.86155800  1
  Lu  Lu10  1  0.46197300  0.46197300  0.22974700  1
  S  S0  1  0.74506100  0.74506100  0.61951300  1
  S  S1  1  0.55518500  0.55518500  0.99324100  1
  S  S2  1  0.45343900  0.45343900  0.46832500  1
  S  S3  1  0.16916800  0.16916800  0.34782800  1
  S  S4  1  0.00803500  0.00803500  0.25910400  1
  S  S5  1  0.64997700  0.64997700  0.59145700  1
  S  S6  1  0.71953900  0.71953900  0.08927200  1
  S  S7  1  0.83083200  0.83083200  0.65217200  1
  S  S8  1  0.86513800  0.86513800  0.95144700  1
  S  S9  1  0.44481500  0.44481500  0.00675900  1
  S  S10  1  0.25493900  0.25493900  0.38048700  1
  S  S11  1  0.13486200  0.13486200  0.04855300  1
  S  S12  1  0.35002300  0.35002300  0.40854300  1
  S  S13  1  0.18976200  0.18976200  0.80912900  1
  S  S14  1  0.81023800  0.81023800  0.19087100  1
  S  S15  1  0.28046100  0.28046100  0.91072800  1
  S  S16  1  0.40724800  0.40724800  0.71339900  1
  S  S17  1  0.99196500  0.99196500  0.74089600  1
  S  S18  1  0.91274100  0.91274100  0.25178200  1
  S  S19  1  0.08725900  0.08725900  0.74821800  1
  S  S20  1  0.59275200  0.59275200  0.28660100  1
  S  S21  1  0.54656100  0.54656100  0.53167500  1
loop_
_geom_bond_atom_site_label_1
_geom_bond_atom_site_label_2
_geom_bond_distance
_geom_bond_site_symmetry_2
Ce0 S12 2.885936 1_655
Ce0 S12 2.885936 1_565
Ce0 S7 2.923751 1_555
Ce0 S18 2.981494 1_555
Ce0 S2 2.988306 1_565
Ce0 S2 2.988306 1_655
Ce0 S16 3.014709 1_655
Ce0 S16 3.014709 1_565
Ce1 S5 2.885936 1_455
Ce1 S5 2.885936 1_545
Ce1 S3 2.923751 1_555
Ce1 S19 2.981494 1_555
Ce1 S21 2.988306 1_455
Ce1 S21 2.988306 1_545
Ce1 S20 3.014709 1_545
Ce1 S20 3.014709 1_455
Ce2 S18 2.873043 1_455
Ce2 S18 2.873043 1_545
Ce2 S12 2.948999 1_555
Ce2 S14 2.954806 1_455
Ce2 S14 2.954806 1_545
Ce2 S8 2.962572 1_454
Ce2 S8 2.962572 1_544
Ce2 S9 3.377531 1_555
Ce3 S19 2.873043 1_565
Ce3 S19 2.873043 1_655
Ce3 S5 2.948999 1_555
Ce3 S13 2.954806 1_565
Ce3 S13 2.954806 1_655
Ce3 S11 2.962572 1_566
Ce3 S11 2.962572 1_656
Ce3 S1 3.377531 1_555
Lu0 S1 2.601759 1_555
Lu0 S17 2.657821 1_455
Lu0 S17 2.657821 1_545
Lu0 S21 2.688160 1_555
Lu0 S19 2.723658 1_655
Lu0 S19 2.723658 1_565
Lu1 S1 2.601446 1_544
Lu1 S1 2.601446 1_454
Lu1 S11 2.692864 1_555
Lu1 S4 2.707925 1_555
Lu1 S20 2.719165 1_455
Lu1 S20 2.719165 1_545
Lu2 S7 2.601880 1_545
Lu2 S7 2.601880 1_455
Lu2 S16 2.662495 1_555
Lu2 S15 2.671014 1_555
Lu2 S8 2.731589 1_455
Lu2 S8 2.731589 1_545
Lu3 S0 2.620685 1_555
Lu3 S15 2.662775 1_565
Lu3 S15 2.662775 1_655
Lu3 S13 2.708722 1_565
Lu3 S13 2.708722 1_655
Lu3 S6 2.726759 1_556
Lu4 S10 2.620685 1_555
Lu4 S6 2.662775 1_545
Lu4 S6 2.662775 1_455
Lu4 S14 2.708722 1_545
Lu4 S14 2.708722 1_455
Lu4 S15 2.726759 1_554
Lu5 S0 2.644237 1_545
Lu5 S0 2.644237 1_455
Lu5 S3 2.718863 1_555
Lu5 S10 2.816620 1_555
Lu5 S5 2.821598 1_455
Lu5 S5 2.821598 1_545
Lu5 S13 2.836761 1_555
Lu6 S3 2.601880 1_655
Lu6 S3 2.601880 1_565
Lu6 S20 2.662495 1_555
Lu6 S6 2.671014 1_555
Lu6 S11 2.731589 1_565
Lu6 S11 2.731589 1_655
Lu7 S10 2.644237 1_655
Lu7 S10 2.644237 1_565
Lu7 S7 2.718863 1_555
Lu7 S0 2.816620 1_555
Lu7 S12 2.821598 1_565
Lu7 S12 2.821598 1_655
Lu7 S14 2.836761 1_555
Lu8 S21 2.674544 1_545
Lu8 S21 2.674544 1_455
Lu8 S2 2.674544 1_545
Lu8 S2 2.674544 1_455
Lu8 S4 2.712133 1_555
Lu8 S17 2.712133 1_445
Lu9 S9 2.601446 1_566
Lu9 S9 2.601446 1_656
Lu9 S8 2.692864 1_555
Lu9 S17 2.707925 1_555
Lu9 S16 2.719165 1_565
Lu9 S16 2.719165 1_655
Lu10 S9 2.601759 1_555
Lu10 S4 2.657821 1_655
Lu10 S4 2.657821 1_565
Lu10 S2 2.688160 1_555
Lu10 S18 2.723658 1_455
Lu10 S18 2.723658 1_545
