# generated using pymatgen
data_K3SnHF8
_symmetry_space_group_name_H-M   'P 1'
_cell_length_a   8.44870933
_cell_length_b   8.44870933
_cell_length_c   6.95966777
_cell_angle_alpha   88.71384291
_cell_angle_beta   88.71384291
_cell_angle_gamma   115.15692499
_symmetry_Int_Tables_number   1
_chemical_formula_structural   K3SnHF8
_chemical_formula_sum   'K6 Sn2 H2 F16'
_cell_volume   449.26996549
_cell_formula_units_Z   2
loop_
 _symmetry_equiv_pos_site_id
 _symmetry_equiv_pos_as_xyz
  1  'x, y, z'
loop_
 _atom_site_type_symbol
 _atom_site_label
 _atom_site_symmetry_multiplicity
 _atom_site_fract_x
 _atom_site_fract_y
 _atom_site_fract_z
 _atom_site_occupancy
  K  K0  1  0.65471400  0.34528600  0.75000000  1
  K  K1  1  0.34528600  0.65471400  0.25000000  1
  K  K2  1  0.67780300  0.87486300  0.72092000  1
  K  K3  1  0.12513700  0.32219700  0.77908000  1
  K  K4  1  0.32219700  0.12513700  0.27908000  1
  K  K5  1  0.87486300  0.67780300  0.22092000  1
  Sn  Sn0  1  0.82238900  0.17761100  0.25000000  1
  Sn  Sn1  1  0.17761100  0.82238900  0.75000000  1
  H  H0  1  0.50000000  0.50000000  0.50000000  1
  H  H1  1  0.50000000  0.50000000  0.00000000  1
  F  F0  1  0.60106000  0.96301300  0.31273300  1
  F  F1  1  0.03698700  0.39894000  0.18726700  1
  F  F2  1  0.39894000  0.03698700  0.68726700  1
  F  F3  1  0.96301300  0.60106000  0.81273300  1
  F  F4  1  0.60276100  0.64133800  0.01546100  1
  F  F5  1  0.35866200  0.39723900  0.48453900  1
  F  F6  1  0.39723900  0.35866200  0.98453900  1
  F  F7  1  0.64133800  0.60276100  0.51546100  1
  F  F8  1  0.96288900  0.03711100  0.25000000  1
  F  F9  1  0.03711100  0.96288900  0.75000000  1
  F  F10  1  0.68175100  0.31824900  0.25000000  1
  F  F11  1  0.31824900  0.68175100  0.75000000  1
  F  F12  1  0.78516900  0.14503400  0.96545700  1
  F  F13  1  0.85496600  0.21483100  0.53454300  1
  F  F14  1  0.21483100  0.85496600  0.03454300  1
  F  F15  1  0.14503400  0.78516900  0.46545700  1
loop_
_geom_bond_atom_site_label_1
_geom_bond_atom_site_label_2
_geom_bond_distance
_geom_bond_site_symmetry_2
H0 K1 2.810188 1_555
H0 K0 2.810188 1_555
H1 K0 2.810188 1_554
H1 K1 2.810188 1_555
F0 Sn0 2.004969 1_565
F0 K1 2.636829 1_555
F0 K2 3.073063 1_555
F0 K4 3.199377 1_565
F1 Sn0 2.004969 1_455
F1 K1 2.636829 1_555
F1 K3 3.073063 1_554
F1 K5 3.199377 1_455
F2 Sn1 2.004969 1_545
F2 K0 2.636829 1_555
F2 K4 3.073063 1_555
F2 K2 3.199377 1_545
F3 Sn1 2.004969 1_655
F3 K0 2.636829 1_555
F3 K5 3.073063 1_556
F3 K3 3.199377 1_655
F4 H1 1.148829 1_555
F4 K5 2.643820 1_555
F4 K2 2.682042 1_554
F4 K1 2.732613 1_555
F5 H0 1.148829 1_555
F5 K4 2.643820 1_555
F5 K3 2.682042 1_555
F5 K1 2.732613 1_555
F6 H1 1.148829 1_556
F6 K3 2.643820 1_555
F6 K4 2.682042 1_556
F6 K0 2.732613 1_555
F7 H0 1.148829 1_555
F7 K2 2.643820 1_555
F7 K5 2.682042 1_555
F7 K0 2.732613 1_555
F8 Sn0 2.004030 1_555
F8 K4 2.815021 1_655
F8 K5 2.815021 1_545
F9 Sn1 2.004030 1_555
F9 K3 2.815021 1_565
F9 K2 2.815021 1_455
F10 Sn0 2.005998 1_555
F10 K5 2.770327 1_555
F10 K4 2.770327 1_555
F11 Sn1 2.005998 1_555
F11 K2 2.770327 1_555
F11 K3 2.770327 1_555
F12 Sn0 2.018704 1_556
F12 K2 2.722655 1_545
F12 K0 2.805611 1_555
F12 K3 2.874608 1_655
F13 Sn0 2.018704 1_555
F13 K3 2.722655 1_655
F13 K0 2.805611 1_555
F13 K2 2.874608 1_545
F14 Sn1 2.018704 1_554
F14 K4 2.722655 1_565
F14 K1 2.805611 1_555
F14 K5 2.874608 1_455
F15 Sn1 2.018704 1_555
F15 K5 2.722655 1_455
F15 K1 2.805611 1_555
F15 K4 2.874608 1_565
