# generated using pymatgen
data_KLa(PO3)4
_symmetry_space_group_name_H-M   'P 1'
_cell_length_a   7.08786934
_cell_length_b   7.08786934
_cell_length_c   13.88453400
_cell_angle_alpha   90.00000000
_cell_angle_beta   90.00000000
_cell_angle_gamma   111.25852303
_symmetry_Int_Tables_number   1
_chemical_formula_structural   KLa(PO3)4
_chemical_formula_sum   'K2 La2 P8 O24'
_cell_volume   650.06557160
_cell_formula_units_Z   2
loop_
 _symmetry_equiv_pos_site_id
 _symmetry_equiv_pos_as_xyz
  1  'x, y, z'
loop_
 _atom_site_type_symbol
 _atom_site_label
 _atom_site_symmetry_multiplicity
 _atom_site_fract_x
 _atom_site_fract_y
 _atom_site_fract_z
 _atom_site_occupancy
  K  K0  1  0.81055800  0.18944200  0.23584600  1
  K  K1  1  0.18944200  0.81055800  0.73584600  1
  La  La0  1  0.61261200  0.38738800  0.75557000  1
  La  La1  1  0.38738800  0.61261200  0.25557000  1
  P  P0  1  0.86232200  0.75289300  0.94646100  1
  P  P1  1  0.29779000  0.06571800  0.15505800  1
  P  P2  1  0.75289300  0.86232200  0.44646100  1
  P  P3  1  0.06571800  0.29779000  0.65505800  1
  P  P4  1  0.70221000  0.93428200  0.65505800  1
  P  P5  1  0.24710700  0.13767800  0.94646100  1
  P  P6  1  0.93428200  0.70221000  0.15505800  1
  P  P7  1  0.13767800  0.24710700  0.44646100  1
  O  O0  1  0.41668100  0.94985600  0.19953900  1
  O  O1  1  0.30462600  0.17713700  0.46886200  1
  O  O2  1  0.33915900  0.27690200  0.19062500  1
  O  O3  1  0.17713700  0.30462600  0.96886200  1
  O  O4  1  0.05311800  0.32740000  0.54221900  1
  O  O5  1  0.16413300  0.41340500  0.37285000  1
  O  O6  1  0.41340500  0.16413300  0.87285000  1
  O  O7  1  0.69537400  0.82286300  0.96886200  1
  O  O8  1  0.83586700  0.58659500  0.87285000  1
  O  O9  1  0.67260000  0.94688200  0.54221900  1
  O  O10  1  0.32740000  0.05311800  0.04221900  1
  O  O11  1  0.27690200  0.33915900  0.69062500  1
  O  O12  1  0.06972900  0.93027100  0.90930800  1
  O  O13  1  0.82286300  0.69537400  0.46886200  1
  O  O14  1  0.58659500  0.83586700  0.37285000  1
  O  O15  1  0.72309800  0.66084100  0.19062500  1
  O  O16  1  0.05623800  0.94376200  0.17275000  1
  O  O17  1  0.58331900  0.05014400  0.69953900  1
  O  O18  1  0.05014400  0.58331900  0.19953900  1
  O  O19  1  0.94376200  0.05623800  0.67275000  1
  O  O20  1  0.93027100  0.06972900  0.40930800  1
  O  O21  1  0.94688200  0.67260000  0.04221900  1
  O  O22  1  0.94985600  0.41668100  0.69953900  1
  O  O23  1  0.66084100  0.72309800  0.69062500  1
loop_
_geom_bond_atom_site_label_1
_geom_bond_atom_site_label_2
_geom_bond_distance
_geom_bond_site_symmetry_2
K0 O0 2.737497 1_545
K0 O18 2.737497 1_655
K0 O20 2.786145 1_555
K0 O16 3.005152 1_645
K0 O14 3.087732 1_545
K0 O5 3.087732 1_655
K1 O22 2.737497 1_455
K1 O17 2.737497 1_565
K1 O12 2.786145 1_555
K1 O19 3.005152 1_465
K1 O8 3.087732 1_455
K1 O6 3.087732 1_565
La0 O8 2.351389 1_555
La0 O6 2.351389 1_555
La0 O23 2.449899 1_555
La0 O11 2.449899 1_555
La0 O22 2.449934 1_555
La0 O17 2.449934 1_555
La1 O14 2.351389 1_555
La1 O5 2.351389 1_555
La1 O2 2.449899 1_555
La1 O15 2.449899 1_555
La1 O18 2.449934 1_555
La1 O0 2.449934 1_555
O0 P1 1.505909 1_565
O1 P7 1.472569 1_555
O2 P1 1.500706 1_555
O3 P5 1.472569 1_555
O4 P3 1.587519 1_555
O4 P7 1.642609 1_555
O5 P7 1.519478 1_555
O6 P5 1.519478 1_555
O7 P0 1.472569 1_555
O8 P0 1.519478 1_555
O9 P4 1.587519 1_555
O9 P2 1.642609 1_555
O10 P1 1.587519 1_555
O10 P5 1.642609 1_554
O11 P3 1.500706 1_555
O12 P0 1.633281 1_455
O12 P5 1.633281 1_565
O13 P2 1.472569 1_555
O14 P2 1.519478 1_555
O15 P6 1.500706 1_555
O16 P1 1.632668 1_565
O16 P6 1.632668 1_455
O17 P4 1.505909 1_545
O18 P6 1.505909 1_455
O19 P3 1.632668 1_655
O19 P4 1.632668 1_545
O20 P2 1.633281 1_545
O20 P7 1.633281 1_655
O21 P6 1.587519 1_555
O21 P0 1.642609 1_554
O22 P3 1.505909 1_655
O23 P4 1.500706 1_555
