# generated using pymatgen
data_U7Cd3O20
_symmetry_space_group_name_H-M   'P 1'
_cell_length_a   10.06086014
_cell_length_b   10.06086014
_cell_length_c   6.54468954
_cell_angle_alpha   83.74715779
_cell_angle_beta   83.74715779
_cell_angle_gamma   141.73604477
_symmetry_Int_Tables_number   1
_chemical_formula_structural   U7Cd3O20
_chemical_formula_sum   'U7 Cd3 O20'
_cell_volume   386.93542440
_cell_formula_units_Z   1
loop_
 _symmetry_equiv_pos_site_id
 _symmetry_equiv_pos_as_xyz
  1  'x, y, z'
loop_
 _atom_site_type_symbol
 _atom_site_label
 _atom_site_symmetry_multiplicity
 _atom_site_fract_x
 _atom_site_fract_y
 _atom_site_fract_z
 _atom_site_occupancy
  U  U0  1  0.89971600  0.10028400  0.00000000  1
  U  U1  1  0.39918700  0.60081300  0.50000000  1
  U  U2  1  0.10028400  0.89971600  0.00000000  1
  U  U3  1  0.00000000  0.00000000  0.50000000  1
  U  U4  1  0.69949200  0.30050800  0.00000000  1
  U  U5  1  0.60081300  0.39918700  0.50000000  1
  U  U6  1  0.30050800  0.69949200  0.00000000  1
  Cd  Cd0  1  0.50000000  0.50000000  0.00000000  1
  Cd  Cd1  1  0.20241400  0.79758600  0.50000000  1
  Cd  Cd2  1  0.79758600  0.20241400  0.50000000  1
  O  O0  1  0.26399400  0.46843000  0.87364000  1
  O  O1  1  0.88868500  0.88868500  0.87022500  1
  O  O2  1  0.77690400  0.96942400  0.36855200  1
  O  O3  1  0.03057600  0.22309600  0.63144800  1
  O  O4  1  0.46843000  0.26399400  0.87364000  1
  O  O5  1  0.36917400  0.36917400  0.39010600  1
  O  O6  1  0.63082600  0.63082600  0.60989400  1
  O  O7  1  0.06880600  0.67018700  0.89521000  1
  O  O8  1  0.53157000  0.73600600  0.12636000  1
  O  O9  1  0.96942400  0.77690400  0.36855200  1
  O  O10  1  0.22309600  0.03057600  0.63144800  1
  O  O11  1  0.67018700  0.06880600  0.89521000  1
  O  O12  1  0.11131500  0.11131500  0.12977500  1
  O  O13  1  0.58069200  0.19158400  0.35672400  1
  O  O14  1  0.80841600  0.41930800  0.64327600  1
  O  O15  1  0.41930800  0.80841600  0.64327600  1
  O  O16  1  0.73600600  0.53157000  0.12636000  1
  O  O17  1  0.19158400  0.58069200  0.35672400  1
  O  O18  1  0.32981300  0.93119400  0.10479000  1
  O  O19  1  0.93119400  0.32981300  0.10479000  1
loop_
_geom_bond_atom_site_label_1
_geom_bond_atom_site_label_2
_geom_bond_distance
_geom_bond_site_symmetry_2
Cd0 O16 2.392350 1_555
Cd0 O8 2.392350 1_555
Cd0 O4 2.392350 1_554
Cd0 O0 2.392350 1_554
Cd0 O5 2.408063 1_555
Cd0 O6 2.408063 1_554
Cd0 O1 2.417620 1_554
Cd0 O12 2.417620 1_555
Cd1 O15 2.397394 1_555
Cd1 O17 2.397394 1_555
Cd1 O14 2.408157 1_455
Cd1 O13 2.408157 1_565
Cd1 O7 2.440240 1_555
Cd1 O18 2.440240 1_555
Cd1 O9 2.447537 1_455
Cd1 O10 2.447537 1_565
Cd2 O14 2.397394 1_555
Cd2 O13 2.397394 1_555
Cd2 O15 2.408157 1_545
Cd2 O17 2.408157 1_655
Cd2 O11 2.440240 1_555
Cd2 O19 2.440240 1_555
Cd2 O2 2.447537 1_545
Cd2 O3 2.447537 1_655
O0 U0 2.278264 1_456
O0 U1 2.307587 1_555
O0 U6 2.316658 1_556
O1 U3 2.286407 1_665
O1 U0 2.304161 1_566
O1 U2 2.304161 1_656
O2 U0 2.276527 1_565
O2 U3 2.294925 1_665
O2 U1 2.323080 1_555
O3 U0 2.276527 1_456
O3 U3 2.294925 1_555
O3 U1 2.323080 1_555
O4 U2 2.278264 1_546
O4 U5 2.307587 1_555
O4 U4 2.316658 1_556
O5 U3 2.298018 1_555
O5 U5 2.312359 1_555
O5 U1 2.312359 1_555
O6 U3 2.298018 1_665
O6 U1 2.312359 1_555
O6 U5 2.312359 1_555
O7 U2 2.268741 1_556
O7 U4 2.301610 1_456
O7 U6 2.303133 1_556
O8 U0 2.278264 1_565
O8 U1 2.307587 1_555
O8 U6 2.316658 1_555
O9 U2 2.276527 1_655
O9 U3 2.294925 1_665
O9 U5 2.323080 1_555
O10 U2 2.276527 1_546
O10 U3 2.294925 1_555
O10 U5 2.323080 1_555
O11 U0 2.268741 1_556
O11 U6 2.301610 1_546
O11 U4 2.303133 1_556
O12 U3 2.286407 1_555
O12 U0 2.304161 1_455
O12 U2 2.304161 1_545
O13 U4 2.204104 1_555
O13 U5 2.255392 1_555
O14 U4 2.204104 1_556
O14 U5 2.255392 1_555
O15 U6 2.204104 1_556
O15 U1 2.255392 1_555
O16 U2 2.278264 1_655
O16 U5 2.307587 1_555
O16 U4 2.316658 1_555
O17 U6 2.204104 1_555
O17 U1 2.255392 1_555
O18 U2 2.268741 1_555
O18 U4 2.301610 1_565
O18 U6 2.303133 1_555
O19 U0 2.268741 1_555
O19 U6 2.301610 1_655
O19 U4 2.303133 1_555
