# generated using pymatgen
data_ZnAu3
_symmetry_space_group_name_H-M   'P 1'
_cell_length_a   5.63808710
_cell_length_b   5.63808695
_cell_length_c   17.22444857
_cell_angle_alpha   99.41972531
_cell_angle_beta   99.41972208
_cell_angle_gamma   89.99998859
_symmetry_Int_Tables_number   1
_chemical_formula_structural   ZnAu3
_chemical_formula_sum   'Zn8 Au24'
_cell_volume   532.66293380
_cell_formula_units_Z   8
loop_
 _symmetry_equiv_pos_site_id
 _symmetry_equiv_pos_as_xyz
  1  'x, y, z'
loop_
 _atom_site_type_symbol
 _atom_site_label
 _atom_site_symmetry_multiplicity
 _atom_site_fract_x
 _atom_site_fract_y
 _atom_site_fract_z
 _atom_site_occupancy
  Zn  Zn0  1  0.80694063  0.05694063  0.11388127  1
  Zn  Zn1  1  0.44305937  0.69305937  0.38611873  1
  Zn  Zn2  1  0.94305937  0.19305937  0.38611873  1
  Zn  Zn3  1  0.19305937  0.94305937  0.88611873  1
  Zn  Zn4  1  0.30694063  0.55694063  0.11388127  1
  Zn  Zn5  1  0.55694063  0.30694063  0.61388127  1
  Zn  Zn6  1  0.69305937  0.44305937  0.88611873  1
  Zn  Zn7  1  0.05694063  0.80694063  0.61388127  1
  Au  Au0  1  0.05630416  0.94369584  0.25000000  1
  Au  Au1  1  0.43452936  0.18452936  0.36905872  1
  Au  Au2  1  0.75000000  0.50176676  0.50000000  1
  Au  Au3  1  0.55630416  0.80630416  0.25000000  1
  Au  Au4  1  0.80630416  0.55630416  0.75000000  1
  Au  Au5  1  0.56547064  0.81547064  0.63094128  1
  Au  Au6  1  0.25000000  0.99823324  0.50000000  1
  Au  Au7  1  0.31547064  0.06547064  0.13094128  1
  Au  Au8  1  0.30630416  0.69369584  0.75000000  1
  Au  Au9  1  0.68452936  0.93452936  0.86905872  1
  Au  Au10  1  0.44369584  0.19369584  0.75000000  1
  Au  Au11  1  0.06547064  0.31547064  0.63094128  1
  Au  Au12  1  0.99823324  0.25000000  0.00000000  1
  Au  Au13  1  0.81547064  0.56547064  0.13094128  1
  Au  Au14  1  0.18452936  0.43452936  0.86905872  1
  Au  Au15  1  0.69369584  0.30630416  0.25000000  1
  Au  Au16  1  0.49823324  0.25000000  0.00000000  1
  Au  Au17  1  0.00176576  0.75000000  -0.00000000  1
  Au  Au18  1  0.19369584  0.44369584  0.25000000  1
  Au  Au19  1  0.75000000  0.00176576  0.50000000  1
  Au  Au20  1  0.93452936  0.68452936  0.36905872  1
  Au  Au21  1  0.50176676  0.75000000  -0.00000000  1
  Au  Au22  1  0.94369584  0.05630416  0.75000000  1
  Au  Au23  1  0.25000000  0.49823324  0.50000000  1
loop_
_geom_bond_atom_site_label_1
_geom_bond_atom_site_label_2
_geom_bond_distance
_geom_bond_site_symmetry_2
Au0 Zn2 2.700433 1_465
Au0 Zn0 2.700433 1_465
Au0 Au13 2.872922 1_455
Au0 Au1 2.872922 1_565
Au0 Au7 2.872923 1_565
Au0 Au20 2.872923 1_455
Au0 Au15 2.891242 1_465
Au0 Au18 2.923534 1_555
Au0 Au3 2.923534 1_555
Au0 Au18 2.923534 1_565
Au0 Au3 2.923534 1_455
Au1 Zn1 2.833501 1_555
Au1 Zn2 2.833501 1_555
Au1 Zn1 2.833501 1_545
Au1 Zn2 2.833501 1_455
Au1 Au3 2.872922 1_545
Au1 Au18 2.872923 1_555
Au1 Au15 2.872923 1_555
Au1 Au23 2.959695 1_555
Au1 Au19 2.959698 1_555
Au1 Au2 2.969168 1_555
Au1 Au6 2.969169 1_545
Au2 Zn7 2.754458 1_655
Au2 Zn1 2.754458 1_555
Au2 Zn2 2.764634 1_555
Au2 Zn5 2.764635 1_555
Au2 Au23 2.819114 1_655
Au2 Au23 2.819114 1_555
Au2 Au5 2.959695 1_555
Au2 Au20 2.959696 1_555
Au3 Zn4 2.700433 1_555
Au3 Zn1 2.700434 1_555
Au3 Au7 2.872923 1_565
Au4 Zn5 2.700433 1_555
Au4 Zn6 2.700434 1_555
Au4 Au9 2.872922 1_555
Au4 Au5 2.872923 1_555
Au4 Au8 2.923534 1_555
Au4 Au8 2.923534 1_655
Au5 Zn5 2.833501 1_555
Au5 Zn7 2.833501 1_555
Au5 Zn5 2.833501 1_565
Au5 Zn7 2.833501 1_655
Au5 Au8 2.872923 1_555
Au5 Au6 2.959695 1_555
Au6 Zn1 2.754458 1_555
Au6 Zn7 2.754459 1_555
Au6 Zn5 2.764634 1_565
Au6 Zn2 2.764634 1_465
Au7 Zn4 2.833501 1_545
Au7 Zn0 2.833501 1_455
Au7 Zn4 2.833501 1_555
Au7 Zn0 2.833501 1_555
Au8 Zn3 2.700433 1_555
Au8 Zn7 2.700433 1_555
Au8 Au9 2.872922 1_555
Au9 Zn6 2.833501 1_565
Au9 Zn3 2.833501 1_655
Au9 Zn6 2.833501 1_555
Au9 Zn3 2.833501 1_555
Au10 Zn6 2.700433 1_555
Au10 Zn5 2.700434 1_555
Au10 Au5 2.872922 1_545
Au10 Au11 2.872922 1_555
Au10 Au14 2.872922 1_555
Au10 Au9 2.872923 1_545
Au10 Au4 2.891243 1_555
Au10 Au8 2.923534 1_555
Au10 Au22 2.923534 1_555
Au10 Au8 2.923534 1_545
Au10 Au22 2.923534 1_455
Au11 Zn7 2.833501 1_545
Au11 Zn5 2.833501 1_455
Au11 Zn7 2.833501 1_555
Au11 Zn5 2.833501 1_555
Au11 Au8 2.872922 1_555
Au11 Au4 2.872922 1_455
Au11 Au22 2.872923 1_455
Au11 Au23 2.959696 1_555
Au11 Au19 2.959698 1_455
Au11 Au6 2.969168 1_545
Au11 Au2 2.969168 1_455
Au12 Zn6 2.754458 1_554
Au12 Zn0 2.754459 1_555
Au12 Zn4 2.764634 1_655
Au12 Zn3 2.764634 1_644
Au12 Au16 2.819044 1_555
Au12 Au16 2.819044 1_655
Au12 Au17 2.819114 1_645
Au12 Au17 2.819114 1_655
Au12 Au9 2.959695 1_544
Au12 Au13 2.959695 1_555
Au12 Au7 2.969168 1_655
Au12 Au14 2.969169 1_654
Au13 Zn0 2.833501 1_555
Au13 Zn4 2.833501 1_555
Au13 Zn0 2.833501 1_565
Au13 Zn4 2.833501 1_655
Au13 Au18 2.872922 1_655
Au13 Au3 2.872922 1_555
Au13 Au15 2.872923 1_555
Au13 Au21 2.959696 1_555
Au13 Au17 2.969166 1_655
Au13 Au16 2.969168 1_555
Au14 Zn3 2.833501 1_555
Au14 Zn6 2.833501 1_555
Au14 Zn3 2.833501 1_545
Au14 Zn6 2.833501 1_455
Au14 Au22 2.872922 1_455
Au14 Au4 2.872922 1_455
Au14 Au8 2.872923 1_555
Au14 Au16 2.959696 1_556
Au14 Au17 2.959698 1_556
Au14 Au21 2.969168 1_556
Au15 Zn0 2.700433 1_555
Au15 Zn2 2.700433 1_555
Au15 Au20 2.872922 1_555
Au15 Au7 2.872922 1_555
Au15 Au3 2.923534 1_555
Au15 Au18 2.923534 1_555
Au15 Au3 2.923534 1_545
Au15 Au18 2.923534 1_655
Au16 Zn3 2.754458 1_544
Au16 Zn4 2.754458 1_555
Au16 Zn0 2.764634 1_555
Au16 Zn6 2.764635 1_554
Au16 Au21 2.819114 1_545
Au16 Au21 2.819114 1_555
Au16 Au7 2.959696 1_555
Au16 Au9 2.969168 1_544
Au17 Zn4 2.754461 1_555
Au17 Zn3 2.754462 1_554
Au17 Zn6 2.764631 1_454
Au17 Zn0 2.764631 1_465
Au17 Au21 2.819038 1_455
Au17 Au21 2.819049 1_555
Au17 Au7 2.959698 1_565
Au17 Au9 2.969165 1_454
Au18 Zn1 2.700433 1_555
Au18 Zn4 2.700434 1_555
Au18 Au7 2.872922 1_555
Au18 Au20 2.872922 1_455
Au18 Au3 2.891243 1_555
Au19 Zn5 2.754461 1_555
Au19 Zn2 2.754462 1_555
Au19 Zn1 2.764631 1_545
Au19 Zn7 2.764631 1_645
Au19 Au2 2.819038 1_545
Au19 Au2 2.819049 1_555
Au19 Au6 2.819114 1_645
Au19 Au6 2.819114 1_545
Au19 Au20 2.969165 1_545
Au19 Au5 2.969166 1_545
Au20 Zn2 2.833501 1_565
Au20 Zn1 2.833501 1_655
Au20 Zn2 2.833501 1_555
Au20 Zn1 2.833501 1_555
Au20 Au3 2.872922 1_555
Au20 Au6 2.959695 1_655
Au20 Au23 2.969168 1_655
Au21 Zn0 2.754458 1_565
Au21 Zn6 2.754458 1_554
Au21 Zn3 2.764634 1_554
Au21 Zn4 2.764635 1_555
Au21 Au9 2.959696 1_554
Au21 Au7 2.969168 1_565
Au22 Zn7 2.700433 1_645
Au22 Zn3 2.700433 1_645
Au22 Au5 2.872922 1_545
Au22 Au9 2.872923 1_545
Au22 Au8 2.891242 1_645
Au22 Au4 2.923534 1_555
Au22 Au4 2.923534 1_545
Au23 Zn2 2.754458 1_455
Au23 Zn5 2.754458 1_555
Au23 Zn7 2.764634 1_555
Au23 Zn1 2.764635 1_555
Au23 Au6 2.819043 1_555
Au23 Au6 2.819043 1_545
Au23 Au5 2.969168 1_555
