# generated using pymatgen
data_In5CuS8
_symmetry_space_group_name_H-M   'P 1'
_cell_length_a   7.53400921
_cell_length_b   7.53400921
_cell_length_c   7.53400921
_cell_angle_alpha   60.00000000
_cell_angle_beta   60.00000000
_cell_angle_gamma   60.00000000
_symmetry_Int_Tables_number   1
_chemical_formula_structural   In5CuS8
_chemical_formula_sum   'In5 Cu1 S8'
_cell_volume   302.38722675
_cell_formula_units_Z   1
loop_
 _symmetry_equiv_pos_site_id
 _symmetry_equiv_pos_as_xyz
  1  'x, y, z'
loop_
 _atom_site_type_symbol
 _atom_site_label
 _atom_site_symmetry_multiplicity
 _atom_site_fract_x
 _atom_site_fract_y
 _atom_site_fract_z
 _atom_site_occupancy
  In  In0  1  0.61852900  0.14441300  0.61852900  1
  In  In1  1  0.61852900  0.61852900  0.14441300  1
  In  In2  1  0.00000000  0.00000000  0.00000000  1
  In  In3  1  0.14441300  0.61852900  0.61852900  1
  In  In4  1  0.61852900  0.61852900  0.61852900  1
  Cu  Cu0  1  0.25000000  0.25000000  0.25000000  1
  S  S0  1  0.86569200  0.40292500  0.86569200  1
  S  S1  1  0.37617600  0.87147200  0.37617600  1
  S  S2  1  0.37617600  0.37617600  0.87147200  1
  S  S3  1  0.86569200  0.86569200  0.40292500  1
  S  S4  1  0.87147200  0.37617600  0.37617600  1
  S  S5  1  0.40292500  0.86569200  0.86569200  1
  S  S6  1  0.37617600  0.37617600  0.37617600  1
  S  S7  1  0.86569200  0.86569200  0.86569200  1
loop_
_geom_bond_atom_site_label_1
_geom_bond_atom_site_label_2
_geom_bond_distance
_geom_bond_site_symmetry_2
In0 S6 2.583430 1_555
In0 S4 2.583430 1_555
In0 S2 2.583430 1_555
In0 S5 2.644153 1_545
In0 S3 2.644153 1_545
In0 S7 2.644158 1_545
In1 S6 2.583430 1_555
In1 S4 2.583430 1_555
In1 S1 2.583430 1_555
In1 S5 2.644153 1_554
In1 S0 2.644153 1_554
In1 S7 2.644158 1_554
In2 S7 2.478584 1_444
In2 S3 2.478590 1_445
In2 S0 2.478590 1_454
In2 S5 2.478590 1_544
In3 S6 2.583430 1_555
In3 S1 2.583430 1_555
In3 S2 2.583430 1_555
In3 S3 2.644153 1_455
In3 S0 2.644153 1_455
In3 S7 2.644158 1_455
In4 S4 2.583430 1_555
In4 S1 2.583430 1_555
In4 S2 2.583430 1_555
In4 S0 2.644159 1_555
In4 S3 2.644159 1_555
In4 S5 2.644159 1_555
Cu0 S6 2.328512 1_555
Cu0 S4 2.328512 1_455
Cu0 S1 2.328512 1_545
Cu0 S2 2.328512 1_554
