# generated using pymatgen
data_Cd13(In13Se27)2
_symmetry_space_group_name_H-M   'P 1'
_cell_length_a   17.51264400
_cell_length_b   17.51999500
_cell_length_c   18.37231000
_cell_angle_alpha   90.00000000
_cell_angle_beta   90.00000000
_cell_angle_gamma   90.00000000
_symmetry_Int_Tables_number   1
_chemical_formula_structural   Cd13(In13Se27)2
_chemical_formula_sum   'Cd26 In52 Se108'
_cell_volume   5637.01852428
_cell_formula_units_Z   2
loop_
 _symmetry_equiv_pos_site_id
 _symmetry_equiv_pos_as_xyz
  1  'x, y, z'
loop_
 _atom_site_type_symbol
 _atom_site_label
 _atom_site_symmetry_multiplicity
 _atom_site_fract_x
 _atom_site_fract_y
 _atom_site_fract_z
 _atom_site_occupancy
  Cd  Cd0  1  0.83385800  0.33345600  0.16628800  1
  Cd  Cd1  1  0.00138400  0.83407400  0.83549200  1
  Cd  Cd2  1  0.66614200  0.83345600  0.83371200  1
  Cd  Cd3  1  0.50008600  0.33340600  0.49880500  1
  Cd  Cd4  1  0.66669800  0.16734600  0.83416500  1
  Cd  Cd5  1  0.33455700  0.50136900  0.83477600  1
  Cd  Cd6  1  0.33385800  0.16654400  0.83371200  1
  Cd  Cd7  1  0.49861600  0.33407400  0.16450800  1
  Cd  Cd8  1  0.66544300  0.49863100  0.83477600  1
  Cd  Cd9  1  0.00008600  0.16659400  0.50119500  1
  Cd  Cd10  1  0.99861600  0.16592600  0.83549200  1
  Cd  Cd11  1  0.33330200  0.83265400  0.83416500  1
  Cd  Cd12  1  0.16544300  0.00136900  0.16522400  1
  Cd  Cd13  1  0.16614200  0.66654400  0.16628800  1
  Cd  Cd14  1  0.50000000  0.00000000  0.16582800  1
  Cd  Cd15  1  0.50000000  0.00000000  0.49889800  1
  Cd  Cd16  1  0.83455700  0.99863100  0.16522400  1
  Cd  Cd17  1  0.83330200  0.66734600  0.16583500  1
  Cd  Cd18  1  0.00000000  0.50000000  0.50110200  1
  Cd  Cd19  1  0.50000000  0.50000000  0.00014100  1
  Cd  Cd20  1  0.99991400  0.83340600  0.50119500  1
  Cd  Cd21  1  0.16669800  0.33265400  0.16583500  1
  Cd  Cd22  1  0.49991400  0.66659400  0.49880500  1
  Cd  Cd23  1  0.00000000  0.00000000  0.99985900  1
  Cd  Cd24  1  0.50138400  0.66592600  0.16450800  1
  Cd  Cd25  1  0.00000000  0.50000000  0.83417200  1
  In  In0  1  0.83044200  0.83425100  0.66604100  1
  In  In1  1  0.16567600  0.16584600  0.00106100  1
  In  In2  1  0.49993100  0.16696900  0.66690000  1
  In  In3  1  0.16584900  0.83447800  0.99880300  1
  In  In4  1  0.66841200  0.66443000  0.66640300  1
  In  In5  1  0.16699900  0.49989500  0.99990600  1
  In  In6  1  0.00000000  0.00000000  0.66720000  1
  In  In7  1  0.33158800  0.33557000  0.66640300  1
  In  In8  1  0.49985000  0.83305400  0.00013700  1
  In  In9  1  0.83054100  0.16718700  0.66633300  1
  In  In10  1  0.66939700  0.00031900  0.33414400  1
  In  In11  1  0.33044200  0.66574900  0.33395900  1
  In  In12  1  0.33140700  0.00153600  0.66643700  1
  In  In13  1  0.66567600  0.33415400  0.99893900  1
  In  In14  1  0.50000000  0.50000000  0.33280000  1
  In  In15  1  0.66945900  0.66718700  0.33366700  1
  In  In16  1  0.83415100  0.16552200  0.99880300  1
  In  In17  1  0.50015000  0.16694600  0.00013700  1
  In  In18  1  0.00006900  0.33338700  0.66628200  1
  In  In19  1  0.66855000  0.33134900  0.66656000  1
  In  In20  1  0.83432400  0.83415400  0.00106100  1
  In  In21  1  0.00015000  0.33305400  0.99986300  1
  In  In22  1  0.16955800  0.16574900  0.66604100  1
  In  In23  1  0.33300100  0.99989500  0.00009400  1
  In  In24  1  0.50006900  0.83303100  0.66690000  1
  In  In25  1  0.99993100  0.66661300  0.66628200  1
  In  In26  1  0.33415100  0.33447800  0.00119700  1
  In  In27  1  0.16945900  0.83281300  0.66633300  1
  In  In28  1  0.50000000  0.50000000  0.66739700  1
  In  In29  1  0.49993100  0.83338700  0.33371800  1
  In  In30  1  0.33145000  0.66865100  0.66656000  1
  In  In31  1  0.00000000  0.00000000  0.33260300  1
  In  In32  1  0.83140700  0.49846400  0.33356300  1
  In  In33  1  0.50006900  0.16661300  0.33371800  1
  In  In34  1  0.83158800  0.16443000  0.33359700  1
  In  In35  1  0.66955800  0.33425100  0.33395900  1
  In  In36  1  0.83060300  0.50031900  0.66585600  1
  In  In37  1  0.33060300  0.99968100  0.33414400  1
  In  In38  1  0.66584900  0.66552200  0.00119700  1
  In  In39  1  0.16855000  0.16865100  0.33344000  1
  In  In40  1  0.16859300  0.50153600  0.33356300  1
  In  In41  1  0.83145000  0.83134900  0.33344000  1
  In  In42  1  0.00006900  0.66696900  0.33310000  1
  In  In43  1  0.66859300  0.99846400  0.66643700  1
  In  In44  1  0.83300100  0.50010500  0.99990600  1
  In  In45  1  0.33054100  0.33281300  0.33366700  1
  In  In46  1  0.16841200  0.83557000  0.33359700  1
  In  In47  1  0.66699900  0.00010500  0.00009400  1
  In  In48  1  0.33432400  0.66584600  0.99893900  1
  In  In49  1  0.16939700  0.49968100  0.66585600  1
  In  In50  1  0.99993100  0.33303100  0.33310000  1
  In  In51  1  0.99985000  0.66694600  0.99986300  1
  Se  Se0  1  0.09299200  0.40740600  0.42162100  1
  Se  Se1  1  0.57389600  0.25929200  0.75571100  1
  Se  Se2  1  0.24494500  0.92176200  0.42289100  1
  Se  Se3  1  0.07412900  0.75922600  0.08837700  1
  Se  Se4  1  0.24141200  0.59230700  0.75622100  1
  Se  Se5  1  0.59299200  0.09259400  0.57837900  1
  Se  Se6  1  0.57421700  0.59247400  0.75588100  1
  Se  Se7  1  0.09119200  0.07650600  0.75480800  1
  Se  Se8  1  0.57402200  0.92593400  0.75542900  1
  Se  Se9  1  0.90700800  0.59259400  0.42162100  1
  Se  Se10  1  0.59255400  0.24104100  0.08871700  1
  Se  Se11  1  0.59288900  0.90736600  0.42208700  1
  Se  Se12  1  0.24093900  0.07434200  0.91137000  1
  Se  Se13  1  0.74093900  0.42565800  0.08863000  1
  Se  Se14  1  0.59322700  0.24081800  0.42186000  1
  Se  Se15  1  0.42574000  0.92562900  0.91161900  1
  Se  Se16  1  0.24178000  0.92563600  0.75685000  1
  Se  Se17  1  0.40867100  0.90950600  0.24573900  1
  Se  Se18  1  0.07426000  0.42562900  0.08838100  1
  Se  Se19  1  0.42610400  0.74070800  0.75571100  1
  Se  Se20  1  0.75868500  0.59237000  0.91128900  1
  Se  Se21  1  0.75822000  0.07436400  0.75685000  1
  Se  Se22  1  0.07389600  0.24070800  0.24428900  1
  Se  Se23  1  0.90681100  0.25891800  0.42173000  1
  Se  Se24  1  0.74475800  0.24467900  0.57723300  1
  Se  Se25  1  0.59240700  0.90757700  0.08846900  1
  Se  Se26  1  0.90717300  0.07397600  0.57850100  1
  Se  Se27  1  0.25868500  0.90763000  0.08871100  1
  Se  Se28  1  0.59132900  0.09049400  0.24573900  1
  Se  Se29  1  0.07469700  0.09410800  0.08984300  1
  Se  Se30  1  0.24189100  0.25871100  0.75634600  1
  Se  Se31  1  0.59318900  0.75891800  0.57827000  1
  Se  Se32  1  0.74178000  0.57436400  0.24315000  1
  Se  Se33  1  0.90759300  0.40757700  0.91153100  1
  Se  Se34  1  0.59119200  0.42349400  0.24519200  1
  Se  Se35  1  0.25822000  0.42563600  0.24315000  1
  Se  Se36  1  0.25858800  0.09230700  0.24377900  1
  Se  Se37  1  0.40880800  0.57650600  0.24519200  1
  Se  Se38  1  0.92530300  0.90589200  0.08984300  1
  Se  Se39  1  0.92610400  0.75929200  0.24428900  1
  Se  Se40  1  0.92597800  0.42593400  0.24457100  1
  Se  Se41  1  0.25906100  0.57434200  0.08863000  1
  Se  Se42  1  0.92587100  0.24077400  0.08837700  1
  Se  Se43  1  0.40711100  0.09263400  0.42208700  1
  Se  Se44  1  0.74189100  0.24128900  0.24365400  1
  Se  Se45  1  0.40891200  0.24245200  0.24590200  1
  Se  Se46  1  0.74494500  0.57823800  0.57710900  1
  Se  Se47  1  0.40717300  0.42602400  0.42149900  1
  Se  Se48  1  0.74141200  0.90769300  0.24377900  1
  Se  Se49  1  0.40744600  0.75895900  0.08871700  1
  Se  Se50  1  0.42578300  0.40752600  0.75588100  1
  Se  Se51  1  0.40759300  0.09242300  0.08846900  1
  Se  Se52  1  0.57469700  0.40589200  0.91015700  1
  Se  Se53  1  0.07402200  0.57406600  0.24457100  1
  Se  Se54  1  0.59108800  0.75754800  0.24590200  1
  Se  Se55  1  0.90711100  0.40736600  0.57791300  1
  Se  Se56  1  0.09421400  0.92526600  0.90984200  1
  Se  Se57  1  0.90867100  0.59049400  0.75426100  1
  Se  Se58  1  0.74589300  0.91308100  0.57706900  1
  Se  Se59  1  0.40700800  0.90740600  0.57837900  1
  Se  Se60  1  0.09311200  0.07411200  0.42144000  1
  Se  Se61  1  0.25505500  0.42176200  0.57710900  1
  Se  Se62  1  0.75410700  0.41308100  0.42293100  1
  Se  Se63  1  0.42597800  0.07406600  0.75542900  1
  Se  Se64  1  0.75858800  0.40769300  0.75622100  1
  Se  Se65  1  0.90688800  0.92588800  0.42144000  1
  Se  Se66  1  0.09318900  0.74108200  0.42173000  1
  Se  Se67  1  0.75810900  0.74128900  0.75634600  1
  Se  Se68  1  0.24475800  0.25532100  0.42276700  1
  Se  Se69  1  0.90578600  0.07473400  0.90984200  1
  Se  Se70  1  0.90744600  0.74104100  0.91128300  1
  Se  Se71  1  0.42587100  0.25922600  0.91162300  1
  Se  Se72  1  0.92574000  0.57437100  0.08838100  1
  Se  Se73  1  0.75906100  0.92565800  0.91137000  1
  Se  Se74  1  0.25905600  0.24089800  0.08809000  1
  Se  Se75  1  0.90891200  0.25754800  0.75409800  1
  Se  Se76  1  0.09322700  0.25918200  0.57814000  1
  Se  Se77  1  0.57426000  0.07437100  0.91161900  1
  Se  Se78  1  0.25524200  0.75532100  0.57723300  1
  Se  Se79  1  0.75524200  0.74467900  0.42276700  1
  Se  Se80  1  0.90880800  0.92349400  0.75480800  1
  Se  Se81  1  0.40677300  0.75918200  0.42186000  1
  Se  Se82  1  0.25810900  0.75871100  0.24365400  1
  Se  Se83  1  0.09132900  0.40950600  0.75426100  1
  Se  Se84  1  0.74094400  0.75910200  0.08809000  1
  Se  Se85  1  0.24131500  0.40763000  0.91128900  1
  Se  Se86  1  0.25410700  0.08691900  0.57706900  1
  Se  Se87  1  0.92578300  0.09247400  0.24411900  1
  Se  Se88  1  0.90677300  0.74081800  0.57814000  1
  Se  Se89  1  0.59282700  0.57397600  0.42149900  1
  Se  Se90  1  0.40578600  0.42526600  0.09015800  1
  Se  Se91  1  0.75905600  0.25910200  0.91191000  1
  Se  Se92  1  0.59421400  0.57473400  0.09015800  1
  Se  Se93  1  0.59311200  0.42588800  0.57856000  1
  Se  Se94  1  0.24094400  0.74089800  0.91191000  1
  Se  Se95  1  0.75505500  0.07823800  0.42289100  1
  Se  Se96  1  0.09240700  0.59242300  0.91153100  1
  Se  Se97  1  0.07421700  0.90752600  0.24411900  1
  Se  Se98  1  0.09108800  0.74245200  0.75409800  1
  Se  Se99  1  0.40688800  0.57411200  0.57856000  1
  Se  Se100  1  0.57412900  0.74077400  0.91162300  1
  Se  Se101  1  0.09282700  0.92602400  0.57850100  1
  Se  Se102  1  0.09255400  0.25895900  0.91128300  1
  Se  Se103  1  0.74131500  0.09237000  0.08871100  1
  Se  Se104  1  0.09288900  0.59263400  0.57791300  1
  Se  Se105  1  0.24589300  0.58691900  0.42293100  1
  Se  Se106  1  0.40681100  0.24108200  0.57827000  1
  Se  Se107  1  0.42530300  0.59410800  0.91015700  1
loop_
_geom_bond_atom_site_label_1
_geom_bond_atom_site_label_2
_geom_bond_distance
_geom_bond_site_symmetry_2
Cd0 Se44 2.687342 1_555
Cd0 Se42 2.698553 1_555
Cd0 Se13 2.700565 1_555
Cd0 Se40 2.701157 1_555
Cd1 Se56 2.657328 1_555
Cd1 Se80 2.698180 1_455
Cd1 Se98 2.698301 1_555
Cd1 Se70 2.702220 1_455
Cd2 Se67 2.687342 1_555
Cd2 Se100 2.698553 1_555
Cd2 Se73 2.700565 1_555
Cd2 Se8 2.701157 1_555
Cd3 Se14 2.700075 1_555
Cd3 Se47 2.701462 1_555
Cd3 Se106 2.723256 1_555
Cd3 Se93 2.725151 1_555
Cd4 Se21 2.690803 1_555
Cd4 Se91 2.690827 1_555
Cd4 Se77 2.701659 1_555
Cd4 Se1 2.704415 1_555
Cd5 Se107 2.661486 1_555
Cd5 Se4 2.698553 1_555
Cd5 Se85 2.709175 1_555
Cd5 Se50 2.712290 1_555
Cd6 Se30 2.687342 1_555
Cd6 Se71 2.698553 1_555
Cd6 Se12 2.700565 1_555
Cd6 Se63 2.701157 1_555
Cd7 Se90 2.657328 1_555
Cd7 Se34 2.698180 1_555
Cd7 Se45 2.698301 1_555
Cd7 Se10 2.702220 1_555
Cd8 Se52 2.661486 1_555
Cd8 Se64 2.698553 1_555
Cd8 Se20 2.709175 1_555
Cd8 Se6 2.712290 1_555
Cd9 Se76 2.700075 1_555
Cd9 Se26 2.701462 1_455
Cd9 Se23 2.723256 1_455
Cd9 Se60 2.725151 1_555
Cd10 Se69 2.657328 1_555
Cd10 Se7 2.698180 1_655
Cd10 Se75 2.698301 1_555
Cd10 Se102 2.702220 1_655
Cd11 Se16 2.690803 1_555
Cd11 Se94 2.690827 1_555
Cd11 Se15 2.701659 1_555
Cd11 Se19 2.704415 1_555
Cd12 Se29 2.661486 1_555
Cd12 Se36 2.698553 1_555
Cd12 Se27 2.709175 1_545
Cd12 Se97 2.712290 1_545
Cd13 Se82 2.687342 1_555
Cd13 Se3 2.698553 1_555
Cd13 Se41 2.700565 1_555
Cd13 Se53 2.701157 1_555
Cd14 Se17 2.688354 1_545
Cd14 Se28 2.688354 1_555
Cd14 Se51 2.694592 1_555
Cd14 Se25 2.694592 1_545
Cd15 Se11 2.696607 1_545
Cd15 Se43 2.696607 1_555
Cd15 Se5 2.723259 1_555
Cd15 Se59 2.723259 1_545
Cd16 Se38 2.661486 1_555
Cd16 Se48 2.698553 1_555
Cd16 Se103 2.709175 1_565
Cd16 Se87 2.712290 1_565
Cd17 Se32 2.690803 1_555
Cd17 Se84 2.690827 1_555
Cd17 Se72 2.701659 1_555
Cd17 Se39 2.704415 1_555
Cd18 Se104 2.696607 1_555
Cd18 Se55 2.696607 1_455
Cd18 Se9 2.723259 1_455
Cd18 Se0 2.723259 1_555
Cd19 Se107 2.676341 1_554
Cd19 Se52 2.676341 1_554
Cd19 Se92 2.678018 1_555
Cd19 Se90 2.678018 1_555
Cd20 Se88 2.700075 1_555
Cd20 Se101 2.701462 1_655
Cd20 Se66 2.723256 1_655
Cd20 Se65 2.725151 1_555
Cd21 Se35 2.690803 1_555
Cd21 Se74 2.690827 1_555
Cd21 Se18 2.701659 1_555
Cd21 Se22 2.704415 1_555
Cd22 Se81 2.700075 1_555
Cd22 Se89 2.701462 1_555
Cd22 Se31 2.723256 1_555
Cd22 Se99 2.725151 1_555
Cd23 Se38 2.676341 1_446
Cd23 Se29 2.676341 1_556
Cd23 Se56 2.678018 1_545
Cd23 Se69 2.678018 1_455
Cd24 Se92 2.657328 1_555
Cd24 Se37 2.698180 1_555
Cd24 Se54 2.698301 1_555
Cd24 Se49 2.702220 1_555
Cd25 Se57 2.688354 1_455
Cd25 Se83 2.688354 1_555
Cd25 Se33 2.694592 1_455
Cd25 Se96 2.694592 1_555
In0 Se58 2.602274 1_555
In0 Se80 2.643446 1_555
In0 Se67 2.647627 1_555
In0 Se88 2.659804 1_555
In1 Se29 2.603614 1_555
In1 Se74 2.638153 1_555
In1 Se102 2.649852 1_554
In1 Se12 2.650038 1_554
In2 Se1 2.637515 1_555
In2 Se63 2.640462 1_555
In2 Se106 2.645168 1_555
In2 Se5 2.645557 1_555
In3 Se56 2.602915 1_555
In3 Se94 2.639341 1_555
In3 Se27 2.648452 1_556
In3 Se3 2.650765 1_556
In4 Se46 2.601558 1_555
In4 Se67 2.647902 1_555
In4 Se6 2.648196 1_555
In4 Se31 2.664150 1_555
In5 Se85 2.637716 1_555
In5 Se41 2.637743 1_556
In5 Se96 2.640191 1_555
In5 Se18 2.640625 1_556
In6 Se7 2.633965 1_555
In6 Se80 2.633965 1_445
In6 Se26 2.641611 1_455
In6 Se101 2.641611 1_545
In7 Se61 2.601558 1_555
In7 Se30 2.647902 1_555
In7 Se50 2.648196 1_555
In7 Se106 2.664150 1_555
In8 Se100 2.636390 1_554
In8 Se49 2.636734 1_555
In8 Se15 2.638150 1_554
In8 Se25 2.639273 1_555
In9 Se24 2.603802 1_555
In9 Se75 2.643856 1_555
In9 Se21 2.648473 1_555
In9 Se26 2.659298 1_555
In10 Se95 2.602382 1_555
In10 Se48 2.642039 1_545
In10 Se28 2.646354 1_555
In10 Se11 2.656668 1_545
In11 Se105 2.602274 1_555
In11 Se37 2.643446 1_555
In11 Se82 2.647627 1_555
In11 Se81 2.659804 1_555
In12 Se86 2.601182 1_555
In12 Se16 2.644085 1_545
In12 Se63 2.651583 1_555
In12 Se59 2.662704 1_545
In13 Se52 2.603614 1_555
In13 Se91 2.638153 1_555
In13 Se10 2.649852 1_556
In13 Se13 2.650038 1_556
In14 Se37 2.633965 1_555
In14 Se34 2.633965 1_555
In14 Se47 2.641611 1_555
In14 Se89 2.641611 1_555
In15 Se79 2.603802 1_555
In15 Se54 2.643856 1_555
In15 Se32 2.648473 1_555
In15 Se89 2.659298 1_555
In16 Se69 2.602915 1_555
In16 Se91 2.639341 1_555
In16 Se103 2.648452 1_556
In16 Se42 2.650765 1_556
In17 Se71 2.636390 1_554
In17 Se10 2.636734 1_555
In17 Se77 2.638150 1_554
In17 Se51 2.639273 1_555
In18 Se75 2.630007 1_455
In18 Se83 2.635419 1_555
In18 Se55 2.639315 1_455
In18 Se76 2.640863 1_555
In19 Se24 2.603888 1_555
In19 Se64 2.643647 1_555
In19 Se1 2.650335 1_555
In19 Se93 2.665086 1_555
In20 Se38 2.603614 1_555
In20 Se84 2.638153 1_555
In20 Se70 2.649852 1_554
In20 Se73 2.650038 1_554
In21 Se42 2.636390 1_456
In21 Se102 2.636734 1_555
In21 Se18 2.638150 1_556
In21 Se33 2.639273 1_455
In22 Se86 2.602274 1_555
In22 Se7 2.643446 1_555
In22 Se30 2.647627 1_555
In22 Se76 2.659804 1_555
In23 Se27 2.637716 1_555
In23 Se12 2.637743 1_564
In23 Se51 2.640191 1_565
In23 Se15 2.640625 1_554
In24 Se19 2.637515 1_555
In24 Se8 2.640462 1_555
In24 Se31 2.645168 1_555
In24 Se59 2.645557 1_555
In25 Se98 2.630007 1_655
In25 Se57 2.635419 1_555
In25 Se104 2.639315 1_655
In25 Se88 2.640863 1_555
In26 Se90 2.602915 1_555
In26 Se74 2.639341 1_555
In26 Se85 2.648452 1_554
In26 Se71 2.650765 1_554
In27 Se78 2.603802 1_555
In27 Se98 2.643856 1_555
In27 Se16 2.648473 1_555
In27 Se101 2.659298 1_555
In28 Se6 2.637600 1_555
In28 Se50 2.637600 1_555
In28 Se99 2.647416 1_555
In28 Se93 2.647416 1_555
In29 Se54 2.630007 1_555
In29 Se17 2.635419 1_555
In29 Se11 2.639315 1_555
In29 Se81 2.640863 1_555
In30 Se78 2.603888 1_555
In30 Se4 2.643647 1_555
In30 Se19 2.650335 1_555
In30 Se99 2.665086 1_555
In31 Se97 2.637600 1_545
In31 Se87 2.637600 1_455
In31 Se65 2.647416 1_445
In31 Se60 2.647416 1_555
In32 Se62 2.601182 1_555
In32 Se32 2.644085 1_555
In32 Se40 2.651583 1_555
In32 Se9 2.662704 1_555
In33 Se45 2.630007 1_555
In33 Se28 2.635419 1_555
In33 Se43 2.639315 1_555
In33 Se14 2.640863 1_555
In34 Se95 2.601558 1_555
In34 Se44 2.647902 1_555
In34 Se87 2.648196 1_555
In34 Se23 2.664150 1_555
In35 Se62 2.602274 1_555
In35 Se34 2.643446 1_555
In35 Se44 2.647627 1_555
In35 Se14 2.659804 1_555
In36 Se46 2.602382 1_555
In36 Se64 2.642039 1_555
In36 Se57 2.646354 1_555
In36 Se55 2.656668 1_555
In37 Se2 2.602382 1_555
In37 Se36 2.642039 1_565
In37 Se17 2.646354 1_555
In37 Se43 2.656668 1_565
In38 Se92 2.602915 1_555
In38 Se84 2.639341 1_555
In38 Se20 2.648452 1_554
In38 Se100 2.650765 1_554
In39 Se68 2.603888 1_555
In39 Se36 2.643647 1_555
In39 Se22 2.650335 1_555
In39 Se60 2.665086 1_555
In40 Se105 2.601182 1_555
In40 Se35 2.644085 1_555
In40 Se53 2.651583 1_555
In40 Se0 2.662704 1_555
In41 Se79 2.603888 1_555
In41 Se48 2.643647 1_555
In41 Se39 2.650335 1_555
In41 Se65 2.665086 1_555
In42 Se39 2.637515 1_455
In42 Se53 2.640462 1_555
In42 Se66 2.645168 1_555
In42 Se9 2.645557 1_455
In43 Se58 2.601182 1_555
In43 Se21 2.644085 1_565
In43 Se8 2.651583 1_555
In43 Se5 2.662704 1_565
In44 Se20 2.637716 1_555
In44 Se13 2.637743 1_556
In44 Se33 2.640191 1_555
In44 Se72 2.640625 1_556
In45 Se68 2.603802 1_555
In45 Se45 2.643856 1_555
In45 Se35 2.648473 1_555
In45 Se47 2.659298 1_555
In46 Se2 2.601558 1_555
In46 Se82 2.647902 1_555
In46 Se97 2.648196 1_555
In46 Se66 2.664150 1_555
In47 Se103 2.637716 1_555
In47 Se73 2.637743 1_544
In47 Se25 2.640191 1_545
In47 Se77 2.640625 1_554
In48 Se107 2.603614 1_555
In48 Se94 2.638153 1_555
In48 Se49 2.649852 1_556
In48 Se41 2.650038 1_556
In49 Se61 2.602382 1_555
In49 Se4 2.642039 1_555
In49 Se83 2.646354 1_555
In49 Se104 2.656668 1_555
In50 Se22 2.637515 1_655
In50 Se40 2.640462 1_555
In50 Se23 2.645168 1_555
In50 Se0 2.645557 1_655
In51 Se3 2.636390 1_656
In51 Se70 2.636734 1_555
In51 Se72 2.638150 1_556
In51 Se96 2.639273 1_655
