# generated using pymatgen
data_Na12SnGe8
_symmetry_space_group_name_H-M   'P 1'
_cell_length_a   14.23812832
_cell_length_b   14.23812832
_cell_length_c   22.06841302
_cell_angle_alpha   90.00000000
_cell_angle_beta   90.00000000
_cell_angle_gamma   90.00000000
_symmetry_Int_Tables_number   1
_chemical_formula_structural   Na12SnGe8
_chemical_formula_sum   'Na96 Sn8 Ge64'
_cell_volume   4473.80353871
_cell_formula_units_Z   8
loop_
 _symmetry_equiv_pos_site_id
 _symmetry_equiv_pos_as_xyz
  1  'x, y, z'
loop_
 _atom_site_type_symbol
 _atom_site_label
 _atom_site_symmetry_multiplicity
 _atom_site_fract_x
 _atom_site_fract_y
 _atom_site_fract_z
 _atom_site_occupancy
  Na  Na0  1  0.26172270  0.57868927  0.74680668  1
  Na  Na1  1  0.92927388  0.12573003  0.12465735  1
  Na  Na2  1  0.37967090  0.13459522  0.84470421  1
  Na  Na3  1  0.33441139  0.35477290  0.76685802  1
  Na  Na4  1  0.13459522  0.37967090  0.15529579  1
  Na  Na5  1  0.43663737  0.60354633  0.62909499  1
  Na  Na6  1  0.67555305  0.35368969  0.99534187  1
  Na  Na7  1  0.11698954  0.38369062  0.67419213  1
  Na  Na8  1  0.49899171  0.98160705  0.96238154  1
  Na  Na9  1  0.73117798  0.42474026  0.77217394  1
  Na  Na10  1  0.91769173  0.22964205  0.26881059  1
  Na  Na11  1  0.76172270  0.92131073  0.00319332  1
  Na  Na12  1  0.62032910  0.86540478  0.34470421  1
  Na  Na13  1  0.42474026  0.73117798  0.22782606  1
  Na  Na14  1  0.73827730  0.42131073  0.24680668  1
  Na  Na15  1  0.61698954  0.11630938  0.07580787  1
  Na  Na16  1  0.56577321  0.72321609  0.51503050  1
  Na  Na17  1  0.16558861  0.85477290  0.48314198  1
  Na  Na18  1  0.36540478  0.87967090  0.09470421  1
  Na  Na19  1  0.63459522  0.12032910  0.59470421  1
  Na  Na20  1  0.38369062  0.11698954  0.32580787  1
  Na  Na21  1  0.85368969  0.82444695  0.74534187  1
  Na  Na22  1  0.35368969  0.67555305  0.00465813  1
  Na  Na23  1  0.89645367  0.93663737  0.87909499  1
  Na  Na24  1  0.12032910  0.63459522  0.40529579  1
  Na  Na25  1  0.11630938  0.61698954  0.92419213  1
  Na  Na26  1  0.32444695  0.64631031  0.49534187  1
  Na  Na27  1  0.92474026  0.76882202  0.52217394  1
  Na  Na28  1  0.61630938  0.88301046  0.82580787  1
  Na  Na29  1  0.22321609  0.93422679  0.26503050  1
  Na  Na30  1  0.37426997  0.42927388  0.37465735  1
  Na  Na31  1  0.01839295  0.50100829  0.53761846  1
  Na  Na32  1  0.07868927  0.23827730  0.49680668  1
  Na  Na33  1  0.10354633  0.06336263  0.37909499  1
  Na  Na34  1  0.23117798  0.07525974  0.97782606  1
  Na  Na35  1  0.76882202  0.92474026  0.47782606  1
  Na  Na36  1  0.93663737  0.89645367  0.12090501  1
  Na  Na37  1  0.56336263  0.39645367  0.12909499  1
  Na  Na38  1  0.00100829  0.48160705  0.28761846  1
  Na  Na39  1  0.35477290  0.33441139  0.23314198  1
  Na  Na40  1  0.88369062  0.38301046  0.42419213  1
  Na  Na41  1  0.77678391  0.06577321  0.76503050  1
  Na  Na42  1  0.48160705  0.00100829  0.71238154  1
  Na  Na43  1  0.66558861  0.64522710  0.26685802  1
  Na  Na44  1  0.07072612  0.87426997  0.62465735  1
  Na  Na45  1  0.42131073  0.73827730  0.75319332  1
  Na  Na46  1  0.58230827  0.72964205  0.98118941  1
  Na  Na47  1  0.60354633  0.43663737  0.37090501  1
  Na  Na48  1  0.82444695  0.85368969  0.25465813  1
  Na  Na49  1  0.38301046  0.88369062  0.57580787  1
  Na  Na50  1  0.97900261  0.86166942  0.37474141  1
  Na  Na51  1  0.88301046  0.61630938  0.17419213  1
  Na  Na52  1  0.02099739  0.13833058  0.87474141  1
  Na  Na53  1  0.41769173  0.27035795  0.48118941  1
  Na  Na54  1  0.07525974  0.23117798  0.02217394  1
  Na  Na55  1  0.08230827  0.77035795  0.76881059  1
  Na  Na56  1  0.14522710  0.83441139  0.01685802  1
  Na  Na57  1  0.42927388  0.37426997  0.62534265  1
  Na  Na58  1  0.98160705  0.49899171  0.03761846  1
  Na  Na59  1  0.14631031  0.17555305  0.24534187  1
  Na  Na60  1  0.26882202  0.57525974  0.27217394  1
  Na  Na61  1  0.50100829  0.01839295  0.46238154  1
  Na  Na62  1  0.13833058  0.02099739  0.12525859  1
  Na  Na63  1  0.72321609  0.56577321  0.48496950  1
  Na  Na64  1  0.57525974  0.26882202  0.72782606  1
  Na  Na65  1  0.92131073  0.76172270  0.99680668  1
  Na  Na66  1  0.57868927  0.26172270  0.25319332  1
  Na  Na67  1  0.27035795  0.41769173  0.51881059  1
  Na  Na68  1  0.47900261  0.63833058  0.37525859  1
  Na  Na69  1  0.06577321  0.77678391  0.23496950  1
  Na  Na70  1  0.27678391  0.43422679  0.98496950  1
  Na  Na71  1  0.83441139  0.14522710  0.98314198  1
  Na  Na72  1  0.86166942  0.97900261  0.62525859  1
  Na  Na73  1  0.17555305  0.14631031  0.75465813  1
  Na  Na74  1  0.22964205  0.91769173  0.73118941  1
  Na  Na75  1  0.57072612  0.62573003  0.12534265  1
  Na  Na76  1  0.64631031  0.32444695  0.50465813  1
  Na  Na77  1  0.06336263  0.10354633  0.62090501  1
  Na  Na78  1  0.63833058  0.47900261  0.62474141  1
  Na  Na79  1  0.12573003  0.92927388  0.87534265  1
  Na  Na80  1  0.39645367  0.56336263  0.87090501  1
  Na  Na81  1  0.62573003  0.57072612  0.87465735  1
  Na  Na82  1  0.23827730  0.07868927  0.50319332  1
  Na  Na83  1  0.87967090  0.36540478  0.90529579  1
  Na  Na84  1  0.64522710  0.66558861  0.73314198  1
  Na  Na85  1  0.86540478  0.62032910  0.65529579  1
  Na  Na86  1  0.43422679  0.27678391  0.01503050  1
  Na  Na87  1  0.52099739  0.36166942  0.87525859  1
  Na  Na88  1  0.87426997  0.07072612  0.37534265  1
  Na  Na89  1  0.51839295  0.99899171  0.21238154  1
  Na  Na90  1  0.36166942  0.52099739  0.12474141  1
  Na  Na91  1  0.93422679  0.22321609  0.73496950  1
  Na  Na92  1  0.77035795  0.08230827  0.23118941  1
  Na  Na93  1  0.99899171  0.51839295  0.78761846  1
  Na  Na94  1  0.72964205  0.58230827  0.01881059  1
  Na  Na95  1  0.85477290  0.16558861  0.51685802  1
  Sn  Sn0  1  0.98992500  0.98992500  0.50000000  1
  Sn  Sn1  1  0.48992500  0.51007500  0.25000000  1
  Sn  Sn2  1  0.50266798  0.50266798  0.00000000  1
  Sn  Sn3  1  0.00266798  0.99733202  0.75000000  1
  Sn  Sn4  1  0.49733202  0.49733202  0.50000000  1
  Sn  Sn5  1  0.99733202  0.00266798  0.25000000  1
  Sn  Sn6  1  0.51007500  0.48992500  0.75000000  1
  Sn  Sn7  1  0.01007500  0.01007500  0.00000000  1
  Ge  Ge0  1  0.73942244  0.77039593  0.10848970  1
  Ge  Ge1  1  0.55209892  0.21694694  0.38728772  1
  Ge  Ge2  1  0.87280400  0.31837346  0.05283745  1
  Ge  Ge3  1  0.22377739  0.27661438  0.88546945  1
  Ge  Ge4  1  0.81837346  0.62719600  0.80283745  1
  Ge  Ge5  1  0.11889081  0.58496140  0.17494671  1
  Ge  Ge6  1  0.67714265  0.91571583  0.68710684  1
  Ge  Ge7  1  0.76057756  0.27039593  0.14151030  1
  Ge  Ge8  1  0.04734835  0.70151590  0.09897753  1
  Ge  Ge9  1  0.72377739  0.22338562  0.86453055  1
  Ge  Ge10  1  0.82285735  0.41571583  0.56289316  1
  Ge  Ge11  1  0.58496140  0.11889081  0.82505329  1
  Ge  Ge12  1  0.78305306  0.44790108  0.11271228  1
  Ge  Ge13  1  0.70151590  0.04734835  0.90102247  1
  Ge  Ge14  1  0.72960407  0.23942244  0.35848970  1
  Ge  Ge15  1  0.79848410  0.54734835  0.34897753  1
  Ge  Ge16  1  0.07746187  0.64066000  0.66282798  1
  Ge  Ge17  1  0.94790108  0.71694694  0.86271228  1
  Ge  Ge18  1  0.05209892  0.28305306  0.36271228  1
  Ge  Ge19  1  0.68162654  0.12719600  0.44716255  1
  Ge  Ge20  1  0.45265165  0.20151590  0.15102247  1
  Ge  Ge21  1  0.37280400  0.18162654  0.69716255  1
  Ge  Ge22  1  0.22338562  0.72377739  0.13546945  1
  Ge  Ge23  1  0.71694694  0.94790108  0.13728772  1
  Ge  Ge24  1  0.57746187  0.85934000  0.08717202  1
  Ge  Ge25  1  0.27661438  0.22377739  0.11453055  1
  Ge  Ge26  1  0.72338562  0.77622261  0.61453055  1
  Ge  Ge27  1  0.22960407  0.26057756  0.39151030  1
  Ge  Ge28  1  0.27039593  0.76057756  0.85848970  1
  Ge  Ge29  1  0.41503860  0.88110919  0.32505329  1
  Ge  Ge30  1  0.21694694  0.55209892  0.61271228  1
  Ge  Ge31  1  0.88110919  0.41503860  0.67494671  1
  Ge  Ge32  1  0.17714265  0.58428417  0.06289316  1
  Ge  Ge33  1  0.77622261  0.72338562  0.38546945  1
  Ge  Ge34  1  0.14066000  0.42253813  0.41282798  1
  Ge  Ge35  1  0.61889081  0.91503860  0.57505329  1
  Ge  Ge36  1  0.12719600  0.68162654  0.55283745  1
  Ge  Ge37  1  0.44790108  0.78305306  0.88728772  1
  Ge  Ge38  1  0.95265165  0.29848410  0.59897753  1
  Ge  Ge39  1  0.41571583  0.82285735  0.43710684  1
  Ge  Ge40  1  0.28305306  0.05209892  0.63728772  1
  Ge  Ge41  1  0.23942244  0.72960407  0.64151030  1
  Ge  Ge42  1  0.54734835  0.79848410  0.65102247  1
  Ge  Ge43  1  0.27622261  0.77661438  0.36453055  1
  Ge  Ge44  1  0.35934000  0.92253813  0.83717202  1
  Ge  Ge45  1  0.91503860  0.61889081  0.42494671  1
  Ge  Ge46  1  0.58428417  0.17714265  0.93710684  1
  Ge  Ge47  1  0.77661438  0.27622261  0.63546945  1
  Ge  Ge48  1  0.18162654  0.37280400  0.30283745  1
  Ge  Ge49  1  0.42253813  0.14066000  0.58717202  1
  Ge  Ge50  1  0.62719600  0.81837346  0.19716255  1
  Ge  Ge51  1  0.64066000  0.07746187  0.33717202  1
  Ge  Ge52  1  0.08496140  0.38110919  0.92494671  1
  Ge  Ge53  1  0.08428417  0.32285735  0.81289316  1
  Ge  Ge54  1  0.91571583  0.67714265  0.31289316  1
  Ge  Ge55  1  0.38110919  0.08496140  0.07505329  1
  Ge  Ge56  1  0.31837346  0.87280400  0.94716255  1
  Ge  Ge57  1  0.77039593  0.73942244  0.89151030  1
  Ge  Ge58  1  0.32285735  0.08428417  0.18710684  1
  Ge  Ge59  1  0.92253813  0.35934000  0.16282798  1
  Ge  Ge60  1  0.29848410  0.95265165  0.40102247  1
  Ge  Ge61  1  0.85934000  0.57746187  0.91282798  1
  Ge  Ge62  1  0.26057756  0.22960407  0.60848970  1
  Ge  Ge63  1  0.20151590  0.45265165  0.84897753  1
loop_
_geom_bond_atom_site_label_1
_geom_bond_atom_site_label_2
_geom_bond_distance
_geom_bond_site_symmetry_2
Na1 Na36 3.267199 1_545
Na1 Na92 3.321002 1_555
Na1 Na62 3.329242 1_655
Na1 Sn7 3.406340 1_655
Na1 Na71 3.413885 1_554
Na1 Sn5 3.414747 1_555
Na1 Na54 3.419009 1_655
Na1 Na10 3.512321 1_555
Na3 Sn6 3.177577 1_555
Na3 Na57 3.413885 1_555
Na5 Na57 3.267199 1_555
Na5 Sn6 3.290841 1_555
Na5 Sn4 3.339190 1_555
Na6 Sn2 3.251033 1_556
Na9 Sn6 3.318332 1_555
Na10 Na88 3.321002 1_555
Na10 Sn5 3.449915 1_555
Na13 Sn1 3.318332 1_555
Na13 Na75 3.419009 1_555
Na16 Sn4 3.376885 1_555
Na17 Sn0 3.177577 1_455
Na17 Na44 3.413885 1_555
Na21 Sn3 3.251033 1_655
Na22 Sn2 3.251033 1_555
Na23 Na79 3.267199 1_655
Na23 Sn7 3.290841 1_666
Na23 Sn3 3.339190 1_655
Na26 Sn4 3.251033 1_555
Na27 Sn0 3.318332 1_555
Na27 Na44 3.419009 1_655
Na29 Sn5 3.376885 1_465
Na30 Na47 3.267199 1_555
Na30 Na53 3.321002 1_555
Na30 Na68 3.329242 1_555
Na30 Sn1 3.406340 1_555
Na30 Na39 3.413885 1_555
Na30 Sn4 3.414747 1_555
Na30 Na60 3.419009 1_555
Na30 Na67 3.512321 1_555
Na33 Na88 3.267199 1_455
Na33 Sn0 3.290841 1_445
Na33 Sn5 3.339190 1_455
Na34 Sn7 3.318332 1_556
Na34 Na79 3.419009 1_545
Na35 Sn0 3.318332 1_555
Na35 Na88 3.419009 1_565
Na36 Sn7 3.290841 1_665
Na36 Sn5 3.339190 1_565
Na37 Na75 3.267199 1_555
Na37 Sn1 3.290841 1_555
Na37 Sn2 3.339190 1_555
Na39 Sn1 3.177577 1_555
Na41 Sn3 3.376885 1_645
Na43 Sn1 3.177577 1_555
Na43 Na75 3.413885 1_555
Na44 Na77 3.267199 1_565
Na44 Na74 3.321002 1_555
Na44 Na72 3.329242 1_455
Na44 Sn0 3.406340 1_455
Na44 Sn3 3.414747 1_555
Na44 Na55 3.512321 1_555
Na46 Na81 3.321002 1_555
Na46 Sn2 3.449915 1_556
Na46 Na75 3.512321 1_556
Na47 Sn1 3.290841 1_555
Na47 Sn4 3.339190 1_555
Na48 Sn5 3.251033 1_565
Na50 Sn0 3.316628 1_555
Na50 Na88 3.329242 1_565
Na50 Sn5 3.417096 1_565
Na52 Sn7 3.316628 1_556
Na52 Na79 3.329242 1_545
Na52 Sn3 3.417096 1_545
Na53 Sn4 3.449915 1_555
Na53 Na57 3.512321 1_555
Na54 Sn7 3.318332 1_555
Na55 Na79 3.321002 1_555
Na55 Sn3 3.449915 1_555
Na56 Sn7 3.177577 1_565
Na56 Na79 3.413885 1_554
Na57 Na67 3.321002 1_555
Na57 Na78 3.329242 1_555
Na57 Sn6 3.406340 1_555
Na57 Sn4 3.414747 1_555
Na57 Na64 3.419009 1_555
Na59 Sn5 3.251033 1_455
Na60 Sn1 3.318332 1_555
Na62 Sn7 3.316628 1_555
Na62 Sn5 3.417096 1_455
Na63 Sn4 3.376885 1_555
Na64 Sn6 3.318332 1_555
Na67 Sn4 3.449915 1_555
Na68 Sn1 3.316628 1_555
Na68 Sn4 3.417096 1_555
Na69 Sn5 3.376885 1_465
Na70 Sn2 3.376885 1_556
Na71 Sn7 3.177577 1_656
Na72 Sn0 3.316628 1_555
Na72 Sn3 3.417096 1_655
Na73 Sn3 3.251033 1_545
Na74 Sn3 3.449915 1_555
Na74 Na79 3.512321 1_555
Na75 Na94 3.321002 1_555
Na75 Na90 3.329242 1_555
Na75 Sn1 3.406340 1_555
Na75 Sn2 3.414747 1_555
Na76 Sn4 3.251033 1_555
Na77 Sn0 3.290841 1_445
Na77 Sn3 3.339190 1_545
Na78 Sn6 3.316628 1_555
Na78 Sn4 3.417096 1_555
Na79 Sn7 3.406340 1_566
Na79 Sn3 3.414747 1_555
Na80 Na81 3.267199 1_555
Na80 Sn6 3.290841 1_555
Na80 Sn2 3.339190 1_556
Na81 Na87 3.329242 1_555
Na81 Sn6 3.406340 1_555
Na81 Na84 3.413885 1_555
Na81 Sn2 3.414747 1_556
Na81 Na9 3.419009 1_555
Na81 Na94 3.512321 1_556
Na84 Sn6 3.177577 1_555
Na86 Sn2 3.376885 1_555
Na87 Sn6 3.316628 1_555
Na87 Sn2 3.417096 1_556
Na88 Sn0 3.406340 1_545
Na88 Na95 3.413885 1_555
Na88 Sn5 3.414747 1_555
Na88 Na92 3.512321 1_555
Na90 Sn1 3.316628 1_555
Na90 Sn2 3.417096 1_555
Na91 Sn3 3.376885 1_645
Na92 Sn5 3.449915 1_555
Na94 Sn2 3.449915 1_555
Na95 Sn0 3.177577 1_545
Ge0 Ge50 2.617106 1_555
Ge0 Ge23 2.625596 1_555
Ge0 Ge24 2.672600 1_555
Ge0 Na11 3.180819 1_555
Ge0 Na75 3.185938 1_555
Ge0 Na51 3.330951 1_555
Ge0 Na94 3.332852 1_555
Ge0 Na36 3.343826 1_555
Ge0 Na65 3.577238 1_554
Ge1 Ge51 2.599496 1_555
Ge1 Ge19 2.603867 1_555
Ge1 Ge14 2.625596 1_555
Ge1 Na53 2.921448 1_555
Ge1 Na66 3.050727 1_555
Ge1 Na20 3.100945 1_555
Ge1 Na47 3.232886 1_555
Ge1 Na76 3.294100 1_555
Ge1 Na61 3.356727 1_555
Ge2 Ge59 2.594903 1_555
Ge2 Ge7 2.617106 1_555
Ge2 Na71 2.956700 1_554
Ge2 Na58 3.020950 1_555
Ge2 Na6 3.122559 1_554
Ge2 Na54 3.210696 1_655
Ge2 Na1 3.268322 1_555
Ge2 Na83 3.325594 1_554
Ge3 Ge52 2.622793 1_555
Ge3 Ge53 2.635043 1_555
Ge3 Ge63 2.651651 1_555
Ge3 Na2 3.134474 1_555
Ge3 Na70 3.229114 1_555
Ge3 Na3 3.251364 1_555
Ge3 Na73 3.499592 1_555
Ge3 Na52 3.502656 1_555
Ge3 Na34 3.519148 1_555
Ge4 Ge61 2.594903 1_555
Ge4 Ge57 2.617106 1_555
Ge4 Na84 2.956700 1_555
Ge4 Na93 3.020950 1_555
Ge4 Na21 3.122559 1_555
Ge4 Na9 3.210696 1_555
Ge4 Na81 3.268322 1_555
Ge4 Na85 3.325594 1_555
Ge5 Ge8 2.569499 1_555
Ge5 Na4 2.963396 1_555
Ge5 Na60 3.029853 1_555
Ge5 Na69 3.128256 1_555
Ge5 Na38 3.341445 1_555
Ge5 Na51 3.388064 1_455
Ge6 Na41 3.087833 1_565
Ge6 Na42 3.088185 1_565
Ge6 Na72 3.094782 1_555
Ge6 Na21 3.107894 1_555
Ge6 Na28 3.215003 1_555
Ge7 Na14 3.180819 1_555
Ge7 Na1 3.185938 1_555
Ge7 Na15 3.330951 1_555
Ge7 Na92 3.332852 1_555
Ge7 Na37 3.343826 1_555
Ge7 Na66 3.577238 1_555
Ge8 Na56 2.967616 1_555
Ge8 Na65 3.006511 1_454
Ge8 Na51 3.114792 1_455
Ge8 Na69 3.197510 1_555
Ge8 Na36 3.228407 1_455
Ge8 Na58 3.320344 1_455
Ge9 Na83 3.134474 1_555
Ge9 Na41 3.229114 1_555
Ge9 Na71 3.251364 1_555
Ge9 Na6 3.499592 1_555
Ge9 Na87 3.502656 1_555
Ge9 Na9 3.519148 1_555
Ge10 Ge31 2.608247 1_555
Ge10 Ge38 2.614467 1_555
Ge10 Ge47 2.635043 1_555
Ge10 Na63 3.087833 1_555
Ge10 Na31 3.088185 1_655
Ge10 Na78 3.094782 1_555
Ge10 Na76 3.107894 1_555
Ge10 Na40 3.215003 1_555
Ge11 Ge13 2.569499 1_555
Ge11 Ge46 2.608247 1_555
Ge11 Ge9 2.622793 1_555
Ge11 Na2 2.963396 1_555
Ge11 Na64 3.029853 1_555
Ge11 Na41 3.128256 1_555
Ge11 Na42 3.341445 1_555
Ge11 Na28 3.388064 1_545
Ge12 Ge59 2.599496 1_555
Ge12 Ge2 2.603867 1_555
Ge12 Ge7 2.625596 1_555
Ge12 Na94 2.921448 1_555
Ge12 Na14 3.050727 1_555
Ge12 Na51 3.100945 1_555
Ge12 Na37 3.232886 1_555
Ge12 Na6 3.294100 1_554
Ge12 Na58 3.356727 1_555
Ge13 Ge46 2.614467 1_555
Ge13 Ge9 2.651651 1_555
Ge13 Na71 2.967616 1_555
Ge13 Na11 3.006511 1_546
Ge13 Na28 3.114792 1_545
Ge13 Na41 3.197510 1_555
Ge13 Na23 3.228407 1_545
Ge13 Na8 3.320344 1_545
Ge14 Ge19 2.617106 1_555
Ge14 Ge51 2.672600 1_555
Ge14 Na66 3.180819 1_555
Ge14 Na88 3.185938 1_555
Ge14 Na40 3.330951 1_555
Ge14 Na10 3.332852 1_555
Ge14 Na47 3.343826 1_555
Ge14 Na14 3.577238 1_555
Ge15 Ge45 2.569499 1_555
Ge15 Ge54 2.614467 1_555
Ge15 Ge33 2.651651 1_555
Ge15 Na43 2.967616 1_555
Ge15 Na14 3.006511 1_555
Ge15 Na40 3.114792 1_555
Ge15 Na63 3.197510 1_555
Ge15 Na47 3.228407 1_555
Ge15 Na38 3.320344 1_655
Ge16 Ge36 2.594903 1_555
Ge16 Ge30 2.599496 1_555
Ge16 Ge41 2.672600 1_555
Ge16 Na55 2.980806 1_555
Ge16 Na85 3.037692 1_455
Ge16 Na0 3.331077 1_555
Ge16 Na44 3.432517 1_555
Ge16 Na93 3.444268 1_455
Ge17 Ge61 2.599496 1_555
Ge17 Ge4 2.603867 1_555
Ge17 Ge57 2.625596 1_555
Ge17 Na55 2.921448 1_655
Ge17 Na65 3.050727 1_555
Ge17 Na25 3.100945 1_655
Ge17 Na23 3.232886 1_555
Ge17 Na21 3.294100 1_555
Ge17 Na93 3.356727 1_555
Ge18 Ge34 2.599496 1_555
Ge18 Ge48 2.603867 1_555
Ge18 Ge27 2.625596 1_555
Ge18 Na10 2.921448 1_455
Ge18 Na32 3.050727 1_555
Ge18 Na40 3.100945 1_455
Ge18 Na33 3.232886 1_555
Ge18 Na59 3.294100 1_555
Ge18 Na38 3.356727 1_555
Ge19 Ge51 2.594903 1_555
Ge19 Na95 2.956700 1_555
Ge19 Na61 3.020950 1_555
Ge19 Na76 3.122559 1_555
Ge19 Na35 3.210696 1_545
Ge19 Na88 3.268322 1_555
Ge19 Na19 3.325594 1_555
Ge20 Ge55 2.569499 1_555
Ge20 Ge58 2.614467 1_555
Ge20 Ge25 2.651651 1_555
Ge20 Na39 2.967616 1_555
Ge20 Na66 3.006511 1_555
Ge20 Na15 3.114792 1_555
Ge20 Na86 3.197510 1_555
Ge20 Na37 3.228407 1_555
Ge20 Na89 3.320344 1_545
Ge21 Ge49 2.594903 1_555
Ge21 Ge40 2.603867 1_555
Ge21 Ge62 2.617106 1_555
Ge21 Na3 2.956700 1_555
Ge21 Na42 3.020950 1_555
Ge21 Na73 3.122559 1_555
Ge21 Na64 3.210696 1_555
Ge21 Na57 3.268322 1_555
Ge21 Na2 3.325594 1_555
Ge22 Ge5 2.622793 1_555
Ge22 Ge32 2.635043 1_555
Ge22 Ge8 2.651651 1_555
Ge22 Na18 3.134474 1_555
Ge22 Na69 3.229114 1_555
Ge22 Na56 3.251364 1_555
Ge22 Na22 3.499592 1_555
Ge22 Na90 3.502656 1_555
Ge22 Na13 3.519148 1_555
Ge23 Ge24 2.599496 1_555
Ge23 Ge50 2.603867 1_555
Ge23 Na92 2.921448 1_565
Ge23 Na11 3.050727 1_555
Ge23 Na15 3.100945 1_565
Ge23 Na36 3.232886 1_555
Ge23 Na48 3.294100 1_555
Ge23 Na89 3.356727 1_555
Ge24 Ge50 2.594903 1_555
Ge24 Na46 2.980806 1_554
Ge24 Na18 3.037692 1_555
Ge24 Na11 3.331077 1_555
Ge24 Na75 3.432517 1_555
Ge24 Na8 3.444268 1_554
Ge25 Ge55 2.622793 1_555
Ge25 Ge58 2.635043 1_555
Ge25 Na4 3.134474 1_555
Ge25 Na86 3.229114 1_555
Ge25 Na39 3.251364 1_555
Ge25 Na59 3.499592 1_555
Ge25 Na62 3.502656 1_555
Ge25 Na54 3.519148 1_555
Ge26 Ge35 2.622793 1_555
Ge26 Ge6 2.635043 1_555
Ge26 Ge42 2.651651 1_555
Ge26 Na85 3.134474 1_555
Ge26 Na16 3.229114 1_555
Ge26 Na84 3.251364 1_555
Ge26 Na21 3.499592 1_555
Ge26 Na72 3.502656 1_555
Ge26 Na27 3.519148 1_555
Ge27 Ge48 2.617106 1_555
Ge27 Ge34 2.672600 1_555
Ge27 Na32 3.180819 1_555
Ge27 Na30 3.185938 1_555
Ge27 Na20 3.330951 1_555
Ge27 Na53 3.332852 1_555
Ge27 Na33 3.343826 1_555
Ge27 Na82 3.577238 1_555
Ge28 Ge56 2.617106 1_555
Ge28 Ge37 2.625596 1_555
Ge28 Ge44 2.672600 1_555
Ge28 Na45 3.180819 1_555
Ge28 Na79 3.185938 1_555
Ge28 Na25 3.330951 1_555
Ge28 Na55 3.332852 1_555
Ge28 Na80 3.343826 1_555
Ge28 Na0 3.577238 1_555
Ge29 Ge60 2.569499 1_555
Ge29 Ge39 2.608247 1_555
Ge29 Ge43 2.622793 1_555
Ge29 Na12 2.963396 1_555
Ge29 Na13 3.029853 1_555
Ge29 Na29 3.128256 1_555
Ge29 Na89 3.341445 1_555
Ge29 Na20 3.388064 1_565
Ge30 Ge36 2.603867 1_555
Ge30 Ge41 2.625596 1_555
Ge30 Na67 2.921448 1_555
Ge30 Na0 3.050727 1_555
Ge30 Na7 3.100945 1_555
Ge30 Na5 3.232886 1_555
Ge30 Na26 3.294100 1_555
Ge30 Na31 3.356727 1_555
Ge31 Ge38 2.569499 1_555
Ge31 Ge47 2.622793 1_555
Ge31 Na85 2.963396 1_555
Ge31 Na9 3.029853 1_555
Ge31 Na91 3.128256 1_555
Ge31 Na93 3.341445 1_555
Ge31 Na7 3.388064 1_655
Ge32 Ge5 2.608247 1_555
Ge32 Ge8 2.614467 1_555
Ge32 Na70 3.087833 1_554
Ge32 Na58 3.088185 1_455
Ge32 Na90 3.094782 1_555
Ge32 Na22 3.107894 1_555
Ge32 Na25 3.215003 1_554
Ge33 Ge45 2.622793 1_555
Ge33 Ge54 2.635043 1_555
Ge33 Na12 3.134474 1_555
Ge33 Na63 3.229114 1_555
Ge33 Na43 3.251364 1_555
Ge33 Na48 3.499592 1_555
Ge33 Na50 3.502656 1_555
Ge33 Na35 3.519148 1_555
Ge34 Ge48 2.594903 1_555
Ge34 Na67 2.980806 1_555
Ge34 Na24 3.037692 1_555
Ge34 Na32 3.331077 1_555
Ge34 Na30 3.432517 1_555
Ge34 Na31 3.444268 1_555
Ge35 Ge42 2.569499 1_555
Ge35 Ge6 2.608247 1_555
Ge35 Na19 2.963396 1_565
Ge35 Na35 3.029853 1_555
Ge35 Na16 3.128256 1_555
Ge35 Na61 3.341445 1_565
Ge35 Na49 3.388064 1_555
Ge36 Ge41 2.617106 1_555
Ge36 Na17 2.956700 1_555
Ge36 Na31 3.020950 1_555
Ge36 Na26 3.122559 1_555
Ge36 Na27 3.210696 1_455
Ge36 Na44 3.268322 1_555
Ge36 Na24 3.325594 1_555
Ge37 Ge44 2.599496 1_555
Ge37 Ge56 2.603867 1_555
Ge37 Na46 2.921448 1_555
Ge37 Na45 3.050727 1_555
Ge37 Na28 3.100945 1_555
Ge37 Na80 3.232886 1_555
Ge37 Na22 3.294100 1_556
Ge37 Na8 3.356727 1_555
Ge38 Ge47 2.651651 1_555
Ge38 Na95 2.967616 1_555
Ge38 Na32 3.006511 1_655
Ge38 Na7 3.114792 1_655
Ge38 Na91 3.197510 1_555
Ge38 Na77 3.228407 1_655
Ge38 Na31 3.320344 1_655
Ge39 Ge60 2.614467 1_555
Ge39 Ge43 2.635043 1_555
Ge39 Na16 3.087833 1_555
Ge39 Na61 3.088185 1_565
Ge39 Na68 3.094782 1_555
Ge39 Na26 3.107894 1_555
Ge39 Na49 3.215003 1_555
Ge40 Ge49 2.599496 1_555
Ge40 Ge62 2.625596 1_555
Ge40 Na74 2.921448 1_545
Ge40 Na82 3.050727 1_555
Ge40 Na49 3.100945 1_545
Ge40 Na77 3.232886 1_555
Ge40 Na73 3.294100 1_555
Ge40 Na42 3.356727 1_555
Ge41 Na0 3.180819 1_555
Ge41 Na44 3.185938 1_555
Ge41 Na49 3.330951 1_555
Ge41 Na74 3.332852 1_555
Ge41 Na5 3.343826 1_555
Ge41 Na45 3.577238 1_555
Ge42 Ge6 2.614467 1_555
Ge42 Na84 2.967616 1_555
Ge42 Na45 3.006511 1_555
Ge42 Na49 3.114792 1_555
Ge42 Na16 3.197510 1_555
Ge42 Na5 3.228407 1_555
Ge42 Na42 3.320344 1_565
Ge43 Ge60 2.651651 1_555
Ge43 Na24 3.134474 1_555
Ge43 Na29 3.229114 1_555
Ge43 Na17 3.251364 1_555
Ge43 Na26 3.499592 1_555
Ge43 Na68 3.502656 1_555
Ge43 Na60 3.519148 1_555
Ge44 Ge56 2.594903 1_555
Ge44 Na74 2.980806 1_555
Ge44 Na2 3.037692 1_565
Ge44 Na45 3.331077 1_555
Ge44 Na79 3.432517 1_555
Ge44 Na42 3.444268 1_565
Ge45 Ge54 2.608247 1_555
Ge45 Na24 2.963396 1_655
Ge45 Na27 3.029853 1_555
Ge45 Na63 3.128256 1_555
Ge45 Na31 3.341445 1_655
Ge45 Na40 3.388064 1_555
Ge46 Ge9 2.635043 1_555
Ge46 Na86 3.087833 1_556
Ge46 Na8 3.088185 1_545
Ge46 Na87 3.094782 1_555
Ge46 Na6 3.107894 1_555
Ge46 Na15 3.215003 1_556
Ge47 Na19 3.134474 1_555
Ge47 Na91 3.229114 1_555
Ge47 Na95 3.251364 1_555
Ge47 Na76 3.499592 1_555
Ge47 Na78 3.502656 1_555
Ge47 Na64 3.519148 1_555
Ge48 Na39 2.956700 1_555
Ge48 Na38 3.020950 1_555
Ge48 Na59 3.122559 1_555
Ge48 Na60 3.210696 1_555
Ge48 Na30 3.268322 1_555
Ge48 Na4 3.325594 1_555
Ge49 Ge62 2.672600 1_555
Ge49 Na53 2.980806 1_555
Ge49 Na19 3.037692 1_555
Ge49 Na82 3.331077 1_555
Ge49 Na57 3.432517 1_555
Ge49 Na61 3.444268 1_555
Ge50 Na43 2.956700 1_555
Ge50 Na89 3.020950 1_555
Ge50 Na48 3.122559 1_555
Ge50 Na13 3.210696 1_555
Ge50 Na75 3.268322 1_555
Ge50 Na12 3.325594 1_555
Ge51 Na92 2.980806 1_555
Ge51 Na12 3.037692 1_545
Ge51 Na66 3.331077 1_555
Ge51 Na88 3.432517 1_555
Ge51 Na89 3.444268 1_545
Ge52 Ge63 2.569499 1_555
Ge52 Ge53 2.608247 1_555
Ge52 Na83 2.963396 1_455
Ge52 Na54 3.029853 1_556
Ge52 Na70 3.128256 1_555
Ge52 Na58 3.341445 1_456
Ge52 Na25 3.388064 1_555
Ge53 Ge63 2.614467 1_555
Ge53 Na91 3.087833 1_455
Ge53 Na93 3.088185 1_455
Ge53 Na52 3.094782 1_555
Ge53 Na73 3.107894 1_555
Ge53 Na7 3.215003 1_555
Ge54 Na69 3.087833 1_655
Ge54 Na38 3.088185 1_655
Ge54 Na50 3.094782 1_555
Ge54 Na48 3.107894 1_555
Ge54 Na51 3.215003 1_555
Ge55 Ge58 2.608247 1_555
Ge55 Na18 2.963396 1_545
Ge55 Na34 3.029853 1_554
Ge55 Na86 3.128256 1_555
Ge55 Na8 3.341445 1_544
Ge55 Na15 3.388064 1_555
Ge56 Na56 2.956700 1_556
Ge56 Na8 3.020950 1_555
Ge56 Na22 3.122559 1_556
Ge56 Na34 3.210696 1_565
Ge56 Na79 3.268322 1_555
Ge56 Na18 3.325594 1_556
Ge57 Ge61 2.672600 1_555
Ge57 Na65 3.180819 1_555
Ge57 Na81 3.185938 1_555
Ge57 Na28 3.330951 1_555
Ge57 Na46 3.332852 1_555
Ge57 Na23 3.343826 1_555
Ge57 Na11 3.577238 1_556
Ge58 Na29 3.087833 1_545
Ge58 Na89 3.088185 1_545
Ge58 Na62 3.094782 1_555
Ge58 Na59 3.107894 1_555
Ge58 Na20 3.215003 1_555
Ge59 Ge7 2.672600 1_555
Ge59 Na10 2.980806 1_555
Ge59 Na4 3.037692 1_655
Ge59 Na14 3.331077 1_555
Ge59 Na1 3.432517 1_555
Ge59 Na38 3.444268 1_655
Ge60 Na17 2.967616 1_555
Ge60 Na82 3.006511 1_565
Ge60 Na20 3.114792 1_565
Ge60 Na29 3.197510 1_555
Ge60 Na33 3.228407 1_565
Ge60 Na61 3.320344 1_565
Ge61 Na94 2.980806 1_556
Ge61 Na83 3.037692 1_555
Ge61 Na65 3.331077 1_555
Ge61 Na81 3.432517 1_555
Ge61 Na58 3.444268 1_556
Ge62 Na82 3.180819 1_555
Ge62 Na57 3.185938 1_555
Ge62 Na7 3.330951 1_555
Ge62 Na67 3.332852 1_555
Ge62 Na77 3.343826 1_555
Ge62 Na32 3.577238 1_555
Ge63 Na3 2.967616 1_555
Ge63 Na0 3.006511 1_555
Ge63 Na25 3.114792 1_555
Ge63 Na70 3.197510 1_555
Ge63 Na80 3.228407 1_555
Ge63 Na93 3.320344 1_455
