# generated using pymatgen
data_Tb6In23Pt12
_symmetry_space_group_name_H-M   'P 1'
_cell_length_a   14.52334691
_cell_length_b   14.52334691
_cell_length_c   14.98154380
_cell_angle_alpha   67.94123037
_cell_angle_beta   67.94123037
_cell_angle_gamma   17.69267485
_symmetry_Int_Tables_number   1
_chemical_formula_structural   Tb6In23Pt12
_chemical_formula_sum   'Tb6 In23 Pt12'
_cell_volume   888.29452866
_cell_formula_units_Z   1
loop_
 _symmetry_equiv_pos_site_id
 _symmetry_equiv_pos_as_xyz
  1  'x, y, z'
loop_
 _atom_site_type_symbol
 _atom_site_label
 _atom_site_symmetry_multiplicity
 _atom_site_fract_x
 _atom_site_fract_y
 _atom_site_fract_z
 _atom_site_occupancy
  Tb  Tb0  1  0.54589800  0.54589800  0.30140300  1
  Tb  Tb1  1  0.83413000  0.83413000  0.53071000  1
  Tb  Tb2  1  0.17809200  0.17809200  0.92204600  1
  Tb  Tb3  1  0.82190800  0.82190800  0.07795400  1
  Tb  Tb4  1  0.16587000  0.16587000  0.46929000  1
  Tb  Tb5  1  0.45410200  0.45410200  0.69859700  1
  In  In0  1  0.40789700  0.40789700  0.95024000  1
  In  In1  1  0.94382900  0.94382900  0.06147400  1
  In  In2  1  0.14573100  0.14573100  0.72058600  1
  In  In3  1  0.72732500  0.72732500  0.75568800  1
  In  In4  1  0.95459500  0.95459500  0.33336400  1
  In  In5  1  0.04540500  0.04540500  0.66663600  1
  In  In6  1  0.76215900  0.76215900  0.91642300  1
  In  In7  1  0.87658100  0.87658100  0.82944700  1
  In  In8  1  0.12341900  0.12341900  0.17055300  1
  In  In9  1  0.47128800  0.47128800  0.17454600  1
  In  In10  1  0.59210300  0.59210300  0.04976000  1
  In  In11  1  0.05617100  0.05617100  0.93852600  1
  In  In12  1  0.42460800  0.42460800  0.50601200  1
  In  In13  1  0.32641300  0.32641300  0.71818400  1
  In  In14  1  0.00000000  0.00000000  0.50000000  1
  In  In15  1  0.52871200  0.52871200  0.82545400  1
  In  In16  1  0.28665500  0.28665500  0.43460600  1
  In  In17  1  0.67358700  0.67358700  0.28181600  1
  In  In18  1  0.23784100  0.23784100  0.08357700  1
  In  In19  1  0.27267500  0.27267500  0.24431200  1
  In  In20  1  0.71334500  0.71334500  0.56539400  1
  In  In21  1  0.85426900  0.85426900  0.27941400  1
  In  In22  1  0.57539200  0.57539200  0.49398800  1
  Pt  Pt0  1  0.90054200  0.90054200  0.63451400  1
  Pt  Pt1  1  0.32061900  0.32061900  0.91083600  1
  Pt  Pt2  1  0.38100100  0.38100100  0.14929900  1
  Pt  Pt3  1  0.03262700  0.03262700  0.14242100  1
  Pt  Pt4  1  0.09945800  0.09945800  0.36548600  1
  Pt  Pt5  1  0.60936700  0.60936700  0.64096900  1
  Pt  Pt6  1  0.25321500  0.25321500  0.63588700  1
  Pt  Pt7  1  0.67938100  0.67938100  0.08916400  1
  Pt  Pt8  1  0.96737300  0.96737300  0.85757900  1
  Pt  Pt9  1  0.39063300  0.39063300  0.35903100  1
  Pt  Pt10  1  0.61899900  0.61899900  0.85070100  1
  Pt  Pt11  1  0.74678500  0.74678500  0.36411300  1
loop_
_geom_bond_atom_site_label_1
_geom_bond_atom_site_label_2
_geom_bond_distance
_geom_bond_site_symmetry_2
In0 Pt2 2.781999 1_556
In0 Pt1 2.783436 1_555
In0 Pt8 2.833393 1_545
In0 Pt8 2.833393 1_455
In0 Tb3 3.339268 1_456
In0 Tb3 3.339268 1_546
In0 Tb5 3.488712 1_555
In1 Pt2 2.857921 1_565
In1 Pt2 2.857921 1_655
In1 Pt8 2.866792 1_554
In1 Pt3 3.211775 1_665
In1 Tb3 3.413083 1_555
In2 Pt6 2.855034 1_555
In2 Pt10 2.870545 1_455
In2 Pt10 2.870545 1_545
In2 Pt5 2.906328 1_455
In2 Pt5 2.906328 1_545
In2 In20 3.275707 1_455
In2 In20 3.275707 1_545
In2 Tb2 3.478940 1_555
In2 Tb4 3.585199 1_555
In3 Pt6 2.783537 1_565
In3 Pt6 2.783537 1_655
In3 Pt10 2.885902 1_555
In3 Tb2 3.243391 1_655
In3 Tb2 3.243391 1_565
In3 Tb1 3.592107 1_555
In4 Pt9 2.823076 1_565
In4 Pt9 2.823076 1_655
In4 Pt3 2.885987 1_665
In4 Tb0 3.336299 1_565
In4 Tb0 3.336299 1_655
In4 Tb1 3.595120 1_555
In5 Pt5 2.823076 1_455
In5 Pt5 2.823076 1_545
In5 Pt8 2.885987 1_445
In5 Tb5 3.336299 1_545
In5 Tb5 3.336299 1_455
In5 Tb4 3.595120 1_555
In6 Pt7 2.769135 1_556
In6 Pt1 2.775590 1_565
In6 Pt1 2.775590 1_655
In6 Tb2 3.265378 1_655
In6 Tb2 3.265378 1_565
In6 Tb3 3.457123 1_556
In7 Pt0 2.734040 1_555
In7 Pt1 2.750678 1_655
In7 Pt1 2.750678 1_565
In7 Pt8 2.793360 1_555
In7 Tb5 3.235144 1_565
In7 Tb5 3.235144 1_655
In7 Tb3 3.447069 1_556
In8 Pt4 2.734040 1_555
In8 Pt7 2.750678 1_545
In8 Pt7 2.750678 1_455
In8 Pt3 2.793360 1_555
In8 Tb0 3.235144 1_455
In8 Tb0 3.235144 1_545
In8 Tb2 3.447069 1_554
In9 Pt2 2.757387 1_555
In9 Pt3 2.770436 1_655
In9 Pt3 2.770436 1_565
In9 Pt9 2.852047 1_555
In9 Tb0 3.360234 1_555
In10 Pt10 2.781999 1_554
In10 Pt7 2.783436 1_555
In10 Pt3 2.833393 1_565
In10 Pt3 2.833393 1_655
In10 Tb2 3.339268 1_564
In10 Tb2 3.339268 1_654
In10 Tb0 3.488712 1_555
In11 Pt10 2.857921 1_455
In11 Pt10 2.857921 1_545
In11 Pt3 2.866792 1_556
In11 Pt8 3.211775 1_445
In11 Tb2 3.413083 1_555
In12 Pt9 2.726152 1_555
In12 Pt0 2.856731 1_545
In12 Pt0 2.856731 1_455
In12 Tb5 3.301162 1_555
In12 Tb1 3.337424 1_455
In12 Tb1 3.337424 1_545
In12 Tb0 3.661048 1_555
In13 Pt6 2.811186 1_555
In13 Pt1 2.827207 1_555
In13 Pt0 3.009820 1_455
In13 Pt0 3.009820 1_545
In13 Tb1 3.528894 1_545
In13 Tb1 3.528894 1_455
In13 Tb5 3.563643 1_555
In14 Pt4 2.799426 1_555
In14 Pt0 2.799426 1_445
In14 Tb0 3.549185 1_455
In14 Tb5 3.549185 1_455
In14 Tb0 3.549185 1_545
In14 Tb5 3.549185 1_545
In15 Pt10 2.757387 1_555
In15 Pt8 2.770436 1_455
In15 Pt8 2.770436 1_545
In15 Pt5 2.852047 1_555
In15 Tb5 3.360234 1_555
In16 Pt9 2.760332 1_555
In16 Pt6 2.795418 1_555
In16 Pt11 2.886494 1_455
In16 Pt11 2.886494 1_545
In16 In19 3.026245 1_555
In16 In20 3.181336 1_545
In16 In20 3.181336 1_455
In16 Tb1 3.226350 1_455
In16 Tb1 3.226350 1_545
In16 In21 3.275707 1_455
In16 In21 3.275707 1_545
In16 Tb4 3.304315 1_555
In17 Pt11 2.811186 1_555
In17 Pt7 2.827207 1_555
In17 Pt4 3.009820 1_655
In17 Pt4 3.009820 1_565
In17 Tb4 3.528894 1_655
In17 Tb4 3.528894 1_565
In17 Tb0 3.563643 1_555
In18 Pt1 2.769135 1_554
In18 Pt7 2.775590 1_545
In18 Pt7 2.775590 1_455
In18 Tb3 3.265378 1_455
In18 Tb3 3.265378 1_545
In18 Tb2 3.457123 1_554
In19 Pt11 2.783537 1_455
In19 Pt11 2.783537 1_545
In19 Pt2 2.885902 1_555
In19 Tb3 3.243391 1_455
In19 Tb3 3.243391 1_545
In19 Tb4 3.592107 1_555
In20 Pt5 2.760332 1_555
In20 Pt11 2.795418 1_555
In20 Pt6 2.886494 1_565
In20 Pt6 2.886494 1_655
In20 In3 3.026245 1_555
In20 Tb4 3.226350 1_565
In20 Tb4 3.226350 1_655
In20 Tb1 3.304315 1_555
In21 Pt11 2.855034 1_555
In21 Pt2 2.870545 1_565
In21 Pt2 2.870545 1_655
In21 Pt9 2.906328 1_565
In21 Pt9 2.906328 1_655
In21 Tb3 3.478940 1_555
In21 Tb1 3.585199 1_555
In22 Pt5 2.726152 1_555
In22 Pt4 2.856731 1_655
In22 Pt4 2.856731 1_565
In22 Tb0 3.301162 1_555
In22 Tb4 3.337424 1_565
In22 Tb4 3.337424 1_655
In22 Tb5 3.661048 1_555
Pt0 Tb1 2.881840 1_555
Pt0 Tb5 3.065140 1_565
Pt0 Tb5 3.065140 1_655
Pt1 Tb3 3.365802 1_456
Pt1 Tb3 3.365802 1_546
Pt2 Tb3 3.222644 1_455
Pt2 Tb3 3.222644 1_545
Pt3 Tb0 3.390583 1_455
Pt3 Tb0 3.390583 1_545
Pt4 Tb4 2.881840 1_555
Pt4 Tb0 3.065140 1_545
Pt4 Tb0 3.065140 1_455
Pt5 Tb4 3.326099 1_565
Pt5 Tb4 3.326099 1_655
Pt6 Tb1 3.175360 1_455
Pt6 Tb1 3.175360 1_545
Pt7 Tb2 3.365802 1_654
Pt7 Tb2 3.365802 1_564
Pt8 Tb5 3.390583 1_655
Pt8 Tb5 3.390583 1_565
Pt9 Tb1 3.326099 1_545
Pt9 Tb1 3.326099 1_455
Pt10 Tb2 3.222644 1_565
Pt10 Tb2 3.222644 1_655
Pt11 Tb4 3.175360 1_565
Pt11 Tb4 3.175360 1_655
