# generated using pymatgen
data_RbV2SbO8
_symmetry_space_group_name_H-M   'P 1'
_cell_length_a   5.65659700
_cell_length_b   8.82964400
_cell_length_c   15.01666500
_cell_angle_alpha   90.00000000
_cell_angle_beta   90.00000000
_cell_angle_gamma   90.00000000
_symmetry_Int_Tables_number   1
_chemical_formula_structural   RbV2SbO8
_chemical_formula_sum   'Rb4 V8 Sb4 O32'
_cell_volume   750.01841214
_cell_formula_units_Z   4
loop_
 _symmetry_equiv_pos_site_id
 _symmetry_equiv_pos_as_xyz
  1  'x, y, z'
loop_
 _atom_site_type_symbol
 _atom_site_label
 _atom_site_symmetry_multiplicity
 _atom_site_fract_x
 _atom_site_fract_y
 _atom_site_fract_z
 _atom_site_occupancy
  Rb  Rb0  1  0.25000000  0.54838800  0.38570200  1
  Rb  Rb1  1  0.25000000  0.95161200  0.88570200  1
  Rb  Rb2  1  0.75000000  0.45161200  0.61429800  1
  Rb  Rb3  1  0.75000000  0.04838800  0.11429800  1
  V  V0  1  0.25000000  0.29653800  0.02473100  1
  V  V1  1  0.75000000  0.48984700  0.21689300  1
  V  V2  1  0.25000000  0.98984700  0.28310700  1
  V  V3  1  0.75000000  0.70346200  0.97526900  1
  V  V4  1  0.25000000  0.51015300  0.78310700  1
  V  V5  1  0.75000000  0.79653800  0.47526900  1
  V  V6  1  0.75000000  0.01015300  0.71689300  1
  V  V7  1  0.25000000  0.20346200  0.52473100  1
  Sb  Sb0  1  0.25000000  0.81883200  0.62172900  1
  Sb  Sb1  1  0.25000000  0.68116800  0.12172900  1
  Sb  Sb2  1  0.75000000  0.18116800  0.37827100  1
  Sb  Sb3  1  0.75000000  0.31883200  0.87827100  1
  O  O0  1  0.99100600  0.10587500  0.29153100  1
  O  O1  1  0.00298800  0.76407900  0.03967400  1
  O  O2  1  0.25000000  0.30902400  0.61449400  1
  O  O3  1  0.99701200  0.23592100  0.96032600  1
  O  O4  1  0.25000000  0.62675600  0.86695900  1
  O  O5  1  0.25000000  0.61578700  0.68095500  1
  O  O6  1  0.49100600  0.60587500  0.20846900  1
  O  O7  1  0.50298800  0.23592100  0.96032600  1
  O  O8  1  0.75000000  0.69097600  0.38550600  1
  O  O9  1  0.50298800  0.26407900  0.46032600  1
  O  O10  1  0.00899400  0.89412500  0.70846900  1
  O  O11  1  0.00899400  0.60587500  0.20846900  1
  O  O12  1  0.50899400  0.10587500  0.29153100  1
  O  O13  1  0.75000000  0.12675600  0.63304100  1
  O  O14  1  0.99701200  0.26407900  0.46032600  1
  O  O15  1  0.49701200  0.73592100  0.53967400  1
  O  O16  1  0.25000000  0.48917800  0.05139500  1
  O  O17  1  0.25000000  0.88421300  0.18095500  1
  O  O18  1  0.75000000  0.37324400  0.13304100  1
  O  O19  1  0.49701200  0.76407900  0.03967400  1
  O  O20  1  0.50899400  0.39412500  0.79153100  1
  O  O21  1  0.49100600  0.89412500  0.70846900  1
  O  O22  1  0.25000000  0.87324400  0.36695900  1
  O  O23  1  0.75000000  0.51082200  0.94860500  1
  O  O24  1  0.75000000  0.38421300  0.31904500  1
  O  O25  1  0.99100600  0.39412500  0.79153100  1
  O  O26  1  0.25000000  0.19097600  0.11449400  1
  O  O27  1  0.75000000  0.98917800  0.44860500  1
  O  O28  1  0.75000000  0.80902400  0.88550600  1
  O  O29  1  0.75000000  0.11578700  0.81904500  1
  O  O30  1  0.00298800  0.73592100  0.53967400  1
  O  O31  1  0.25000000  0.01082200  0.55139500  1
loop_
_geom_bond_atom_site_label_1
_geom_bond_atom_site_label_2
_geom_bond_distance
_geom_bond_site_symmetry_2
O0 V2 1.792169 1_645
O0 Sb2 1.999278 1_555
O0 Rb3 3.033063 1_555
O1 V3 1.808245 1_454
O1 Sb1 2.001632 1_555
O1 Rb3 3.099275 1_465
O1 Rb1 3.168621 1_554
O2 V7 1.638813 1_555
O2 Rb2 3.095863 1_455
O2 Rb2 3.095863 1_555
O3 V0 1.808245 1_656
O3 Sb3 2.001632 1_555
O3 Rb1 3.099275 1_645
O3 Rb3 3.168621 1_556
O4 V4 1.626508 1_555
O4 Rb1 2.882139 1_555
O5 V4 1.795286 1_555
O5 Sb0 2.001294 1_555
O5 Rb2 3.332051 1_555
O5 Rb2 3.332051 1_455
O6 V1 1.792169 1_555
O6 Sb1 1.999278 1_555
O6 Rb0 3.033063 1_555
O7 V0 1.808245 1_556
O7 Sb3 2.001632 1_555
O7 Rb1 3.099275 1_545
O7 Rb3 3.168621 1_556
O8 V5 1.638813 1_555
O8 Rb0 3.095863 1_555
O8 Rb0 3.095863 1_655
O9 V7 1.808245 1_555
O9 Sb2 2.001632 1_555
O9 Rb0 3.099275 1_555
O9 Rb2 3.168621 1_555
O10 V6 1.792169 1_465
O10 Sb0 1.999278 1_555
O10 Rb1 3.033063 1_555
O11 V1 1.792169 1_455
O11 Sb1 1.999278 1_555
O11 Rb0 3.033063 1_555
O12 V2 1.792169 1_545
O12 Sb2 1.999278 1_555
O12 Rb3 3.033063 1_555
O13 V6 1.626508 1_555
O13 Rb2 2.882139 1_555
O14 V7 1.808245 1_655
O14 Sb2 2.001632 1_555
O14 Rb0 3.099275 1_655
O14 Rb2 3.168621 1_555
O15 V5 1.808245 1_555
O15 Sb0 2.001632 1_555
O15 Rb2 3.099275 1_555
O15 Rb0 3.168621 1_555
O16 V0 1.747435 1_555
O16 Sb1 1.997307 1_555
O17 V2 1.795286 1_555
O17 Sb1 2.001294 1_555
O17 Rb3 3.332051 1_465
O17 Rb3 3.332051 1_565
O18 V1 1.626508 1_555
O18 Rb3 2.882139 1_555
O19 V3 1.808245 1_554
O19 Sb1 2.001632 1_555
O19 Rb3 3.099275 1_565
O19 Rb1 3.168621 1_554
O20 V4 1.792169 1_555
O20 Sb3 1.999278 1_555
O20 Rb2 3.033063 1_555
O21 V6 1.792169 1_565
O21 Sb0 1.999278 1_555
O21 Rb1 3.033063 1_555
O22 V2 1.626508 1_555
O22 Rb0 2.882139 1_555
O23 V3 1.747435 1_555
O23 Sb3 1.997307 1_555
O24 V1 1.795286 1_555
O24 Sb2 2.001294 1_555
O24 Rb0 3.332051 1_655
O24 Rb0 3.332051 1_555
O25 V4 1.792169 1_655
O25 Sb3 1.999278 1_555
O25 Rb2 3.033063 1_555
O26 V0 1.638813 1_555
O26 Rb3 3.095863 1_555
O26 Rb3 3.095863 1_455
O27 V5 1.747435 1_555
O27 Sb2 1.997307 1_565
O28 V3 1.638813 1_555
O28 Rb1 3.095863 1_655
O28 Rb1 3.095863 1_555
O29 V6 1.795286 1_555
O29 Sb3 2.001294 1_555
O29 Rb1 3.332051 1_645
O29 Rb1 3.332051 1_545
O30 V5 1.808245 1_455
O30 Sb0 2.001632 1_555
O30 Rb2 3.099275 1_455
O30 Rb0 3.168621 1_555
O31 V7 1.747435 1_555
O31 Sb0 1.997307 1_545
