# generated using pymatgen
data_SrLiEuTeO6
_symmetry_space_group_name_H-M   'P 1'
_cell_length_a   5.81611000
_cell_length_b   5.65842100
_cell_length_c   7.82863541
_cell_angle_alpha   89.54632827
_cell_angle_beta   90.00000000
_cell_angle_gamma   90.00000000
_symmetry_Int_Tables_number   1
_chemical_formula_structural   SrLiEuTeO6
_chemical_formula_sum   'Sr2 Li2 Eu2 Te2 O12'
_cell_volume   257.63230678
_cell_formula_units_Z   2
loop_
 _symmetry_equiv_pos_site_id
 _symmetry_equiv_pos_as_xyz
  1  'x, y, z'
loop_
 _atom_site_type_symbol
 _atom_site_label
 _atom_site_symmetry_multiplicity
 _atom_site_fract_x
 _atom_site_fract_y
 _atom_site_fract_z
 _atom_site_occupancy
  Eu  Eu0  1  0.30786000  0.50921900  0.75188600  1
  Eu  Eu1  1  0.69214000  0.00921900  0.25188600  1
  Sr  Sr0  1  0.79287600  0.99239300  0.75003200  1
  Sr  Sr1  1  0.20712400  0.49239300  0.25003200  1
  Li  Li0  1  0.75485100  0.50015900  0.00107300  1
  Li  Li1  1  0.24514900  0.00015900  0.50107300  1
  Te  Te0  1  0.24704000  0.00020000  0.99950000  1
  Te  Te1  1  0.75296000  0.50020000  0.49950000  1
  O  O0  1  0.28076800  0.92909600  0.24184400  1
  O  O1  1  0.51856700  0.80394700  0.95791500  1
  O  O2  1  0.55181300  0.77206300  0.53614400  1
  O  O3  1  0.06745200  0.71799600  0.95213800  1
  O  O4  1  0.03246100  0.67729300  0.54895200  1
  O  O5  1  0.77212900  0.59763400  0.26051700  1
  O  O6  1  0.71923200  0.42909600  0.74184400  1
  O  O7  1  0.48143300  0.30394700  0.45791500  1
  O  O8  1  0.44818700  0.27206300  0.03614400  1
  O  O9  1  0.93254800  0.21799600  0.45213800  1
  O  O10  1  0.96753900  0.17729300  0.04895200  1
  O  O11  1  0.22787100  0.09763400  0.76051700  1
loop_
_geom_bond_atom_site_label_1
_geom_bond_atom_site_label_2
_geom_bond_distance
_geom_bond_site_symmetry_2
Eu0 O11 2.375370 1_555
Eu0 O3 2.416127 1_555
Eu0 O6 2.436545 1_555
Eu0 O4 2.443379 1_555
Eu0 O1 2.631952 1_555
Eu0 O2 2.652921 1_555
Eu0 O8 2.715103 1_556
Eu0 O7 2.776145 1_555
Eu1 O5 2.375370 1_545
Eu1 O9 2.416127 1_555
Eu1 O0 2.436545 1_545
Eu1 O10 2.443379 1_555
Eu1 O7 2.631952 1_555
Eu1 O8 2.652921 1_555
Eu1 O2 2.715103 1_545
Eu1 O1 2.776145 1_544
Li0 O6 2.082314 1_554
Li0 O5 2.111253 1_555
Li0 O8 2.217382 1_555
Li0 O1 2.224490 1_554
Li0 O3 2.228045 1_654
Li0 O10 2.235502 1_555
Li1 O0 2.082314 1_545
Li1 O11 2.111253 1_555
Li1 O2 2.217382 1_545
Li1 O7 2.224490 1_555
Li1 O9 2.228045 1_455
Li1 O4 2.235502 1_545
O0 Te0 1.946207 1_564
O0 Sr1 2.508216 1_555
O1 Te0 1.959299 1_565
O1 Sr0 2.510663 1_555
O2 Te1 1.955594 1_555
O2 Sr0 2.521289 1_555
O3 Te0 1.946203 1_565
O3 Sr0 2.724982 1_455
O3 Sr1 2.771474 1_556
O4 Te1 1.950067 1_455
O4 Sr1 2.764344 1_555
O4 Sr0 2.764631 1_455
O5 Te1 1.949451 1_555
O5 Sr1 2.600562 1_655
O6 Te1 1.946207 1_555
O6 Sr0 2.508216 1_545
O7 Te1 1.959299 1_555
O7 Sr1 2.510663 1_555
O8 Te0 1.955594 1_554
O8 Sr1 2.521289 1_555
O9 Te1 1.946203 1_555
O9 Sr1 2.724982 1_655
O9 Sr0 2.771474 1_545
O10 Te0 1.950067 1_654
O10 Sr0 2.764344 1_544
O10 Sr1 2.764631 1_655
O11 Te0 1.949451 1_555
O11 Sr0 2.600562 1_445
