# generated using pymatgen
data_CeCuSO
_symmetry_space_group_name_H-M   'P 1'
_cell_length_a   3.90974200
_cell_length_b   3.90974200
_cell_length_c   8.52197300
_cell_angle_alpha   90.00000000
_cell_angle_beta   90.00000000
_cell_angle_gamma   90.00000000
_symmetry_Int_Tables_number   1
_chemical_formula_structural   CeCuSO
_chemical_formula_sum   'Ce2 Cu2 S2 O2'
_cell_volume   130.26758240
_cell_formula_units_Z   2
loop_
 _symmetry_equiv_pos_site_id
 _symmetry_equiv_pos_as_xyz
  1  'x, y, z'
loop_
 _atom_site_type_symbol
 _atom_site_label
 _atom_site_symmetry_multiplicity
 _atom_site_fract_x
 _atom_site_fract_y
 _atom_site_fract_z
 _atom_site_occupancy
  Ce  Ce0  1  0.50000000  0.00000000  0.85055300  1
  Ce  Ce1  1  0.00000000  0.50000000  0.14944700  1
  Cu  Cu0  1  0.50000000  0.50000000  0.50000000  1
  Cu  Cu1  1  0.00000000  0.00000000  0.50000000  1
  S  S0  1  0.50000000  0.00000000  0.33432400  1
  S  S1  1  0.00000000  0.50000000  0.66567600  1
  O  O0  1  0.50000000  0.50000000  0.00000000  1
  O  O1  1  0.00000000  0.00000000  0.00000000  1
loop_
_geom_bond_atom_site_label_1
_geom_bond_atom_site_label_2
_geom_bond_distance
_geom_bond_site_symmetry_2
Ce0 O0 2.333138 1_556
Ce0 O0 2.333138 1_546
Ce0 O1 2.333138 1_556
Ce0 O1 2.333138 1_656
Ce0 S1 3.182027 1_545
Ce0 S1 3.182027 1_655
Ce0 S1 3.182027 1_645
Ce0 S1 3.182027 1_555
Ce1 O0 2.333138 1_455
Ce1 O1 2.333138 1_555
Ce1 O0 2.333138 1_555
Ce1 O1 2.333138 1_565
Ce1 S0 3.182027 1_555
Ce1 S0 3.182027 1_565
Ce1 S0 3.182027 1_465
Ce1 S0 3.182027 1_455
Cu0 S1 2.411419 1_555
Cu0 S1 2.411419 1_655
Cu0 S0 2.411419 1_565
Cu0 S0 2.411419 1_555
Cu1 S1 2.411419 1_555
Cu1 S1 2.411419 1_545
Cu1 S0 2.411419 1_455
Cu1 S0 2.411419 1_555
