# generated using pymatgen
data_Ga2Fe2Bi2O9
_symmetry_space_group_name_H-M   'P 1'
_cell_length_a   5.97525300
_cell_length_b   7.95133700
_cell_length_c   8.32873700
_cell_angle_alpha   90.00000000
_cell_angle_beta   90.00000000
_cell_angle_gamma   90.00000000
_symmetry_Int_Tables_number   1
_chemical_formula_structural   Ga2Fe2Bi2O9
_chemical_formula_sum   'Ga4 Fe4 Bi4 O18'
_cell_volume   395.70870798
_cell_formula_units_Z   2
loop_
 _symmetry_equiv_pos_site_id
 _symmetry_equiv_pos_as_xyz
  1  'x, y, z'
loop_
 _atom_site_type_symbol
 _atom_site_label
 _atom_site_symmetry_multiplicity
 _atom_site_fract_x
 _atom_site_fract_y
 _atom_site_fract_z
 _atom_site_occupancy
  Ga  Ga0  1  0.50000000  0.64950700  0.83348800  1
  Ga  Ga1  1  0.50000000  0.85049300  0.33348800  1
  Ga  Ga2  1  0.50000000  0.14950700  0.66651200  1
  Ga  Ga3  1  0.50000000  0.35049300  0.16651200  1
  Fe  Fe0  1  0.74468100  0.50000000  0.50000000  1
  Fe  Fe1  1  0.25531900  0.00000000  0.00000000  1
  Fe  Fe2  1  0.74468100  0.00000000  0.00000000  1
  Fe  Fe3  1  0.25531900  0.50000000  0.50000000  1
  Bi  Bi0  1  0.00000000  0.66866300  0.16738300  1
  Bi  Bi1  1  0.00000000  0.33133700  0.83261700  1
  Bi  Bi2  1  0.00000000  0.16866300  0.33261700  1
  Bi  Bi3  1  0.00000000  0.83133700  0.66738300  1
  O  O0  1  0.24244300  0.62860600  0.70428800  1
  O  O1  1  0.75755700  0.37139400  0.29571200  1
  O  O2  1  0.24244300  0.12860600  0.79571200  1
  O  O3  1  0.00000000  0.35404600  0.56792700  1
  O  O4  1  0.00000000  0.64595400  0.43207300  1
  O  O5  1  0.75755700  0.12860600  0.79571200  1
  O  O6  1  0.24244300  0.37139400  0.29571200  1
  O  O7  1  0.50000000  0.00000000  0.50000000  1
  O  O8  1  0.75755700  0.87139400  0.20428800  1
  O  O9  1  0.00000000  0.85404600  0.93207300  1
  O  O10  1  0.50000000  0.37137000  0.59143900  1
  O  O11  1  0.50000000  0.87137000  0.90856100  1
  O  O12  1  0.00000000  0.14595400  0.06792700  1
  O  O13  1  0.50000000  0.12863000  0.09143900  1
  O  O14  1  0.50000000  0.50000000  0.00000000  1
  O  O15  1  0.50000000  0.62863000  0.40856100  1
  O  O16  1  0.75755700  0.62860600  0.70428800  1
  O  O17  1  0.24244300  0.87139400  0.20428800  1
loop_
_geom_bond_atom_site_label_1
_geom_bond_atom_site_label_2
_geom_bond_distance
_geom_bond_site_symmetry_2
Ga0 O14 1.826611 1_556
Ga0 O11 1.871638 1_555
Ga0 O16 1.885199 1_555
Ga0 O0 1.885199 1_555
Ga1 O7 1.826611 1_565
Ga1 O15 1.871638 1_555
Ga1 O8 1.885199 1_555
Ga1 O17 1.885199 1_555
Ga2 O7 1.826611 1_555
Ga2 O10 1.871638 1_555
Ga2 O5 1.885199 1_555
Ga2 O2 1.885199 1_555
Ga3 O14 1.826611 1_555
Ga3 O13 1.871638 1_555
Ga3 O1 1.885199 1_555
Ga3 O6 1.885199 1_555
Fe0 O10 1.940001 1_555
Fe0 O15 1.940001 1_555
Fe0 O16 1.986600 1_555
Fe0 O1 1.986600 1_555
Fe0 O4 1.998584 1_655
Fe0 O3 1.998584 1_655
Fe1 O13 1.940001 1_555
Fe1 O11 1.940001 1_544
Fe1 O17 1.986600 1_545
Fe1 O2 1.986600 1_554
Fe1 O12 1.998584 1_555
Fe1 O9 1.998584 1_544
Fe2 O13 1.940001 1_555
Fe2 O11 1.940001 1_544
Fe2 O8 1.986600 1_545
Fe2 O5 1.986600 1_554
Fe2 O12 1.998584 1_655
Fe2 O9 1.998584 1_644
Fe3 O10 1.940001 1_555
Fe3 O15 1.940001 1_555
Fe3 O0 1.986600 1_555
Fe3 O6 1.986600 1_555
Fe3 O4 1.998584 1_555
Fe3 O3 1.998584 1_555
Bi0 O17 2.188967 1_555
Bi0 O8 2.188967 1_455
Bi0 O4 2.211916 1_555
Bi0 O9 2.452296 1_554
Bi1 O2 2.188967 1_555
Bi1 O5 2.188967 1_455
Bi1 O3 2.211916 1_555
Bi1 O12 2.452296 1_556
Bi2 O6 2.188967 1_555
Bi2 O1 2.188967 1_455
Bi2 O12 2.211916 1_555
Bi2 O3 2.452296 1_555
Bi3 O0 2.188967 1_555
Bi3 O16 2.188967 1_455
Bi3 O9 2.211916 1_555
Bi3 O4 2.452296 1_555
