# generated using pymatgen
data_Na2H4Pt
_symmetry_space_group_name_H-M   'P 1'
_cell_length_a   4.94363168
_cell_length_b   4.94363168
_cell_length_c   4.94363168
_cell_angle_alpha   116.61262121
_cell_angle_beta   116.61262121
_cell_angle_gamma   95.97461996
_symmetry_Int_Tables_number   1
_chemical_formula_structural   Na2H4Pt
_chemical_formula_sum   'Na2 H4 Pt1'
_cell_volume   89.28112921
_cell_formula_units_Z   1
loop_
 _symmetry_equiv_pos_site_id
 _symmetry_equiv_pos_as_xyz
  1  'x, y, z'
loop_
 _atom_site_type_symbol
 _atom_site_label
 _atom_site_symmetry_multiplicity
 _atom_site_fract_x
 _atom_site_fract_y
 _atom_site_fract_z
 _atom_site_occupancy
  Na  Na0  1  0.75000000  0.25000000  0.50000000  1
  Na  Na1  1  0.25000000  0.75000000  0.50000000  1
  H  H0  1  0.22394734  0.22394734  0.44789368  1
  H  H1  1  0.77605266  0.77605266  0.55210632  1
  H  H2  1  0.22394734  0.77605266  -0.00000000  1
  H  H3  1  0.77605266  0.22394734  0.00000000  1
  Pt  Pt0  1  0.00000000  -0.00000000  0.00000000  1
loop_
_geom_bond_atom_site_label_1
_geom_bond_atom_site_label_2
_geom_bond_distance
_geom_bond_site_symmetry_2
H0 Pt0 1.645159 1_555
H0 Na1 2.479212 1_555
H0 Na0 2.479212 1_555
H0 Na0 2.479217 1_455
H0 Na1 2.479217 1_545
H1 Pt0 1.645159 1_666
H1 Na1 2.479212 1_555
H1 Na0 2.479212 1_555
H1 Na0 2.479217 1_565
H1 Na1 2.479217 1_655
H2 Pt0 1.645163 1_565
H2 Na0 2.479214 1_565
H2 Na1 2.479214 1_554
H2 Na1 2.479214 1_555
H2 Na0 2.479214 1_454
H3 Pt0 1.645163 1_655
H3 Na0 2.479214 1_554
H3 Na1 2.479214 1_655
H3 Na1 2.479214 1_544
H3 Na0 2.479214 1_555
