# generated using pymatgen
data_Cs3Tm2I9
_symmetry_space_group_name_H-M   'P 1'
_cell_length_a   8.47165353
_cell_length_b   8.47167861
_cell_length_c   21.36661097
_cell_angle_alpha   89.98610072
_cell_angle_beta   90.01359199
_cell_angle_gamma   119.99521612
_symmetry_Int_Tables_number   1
_chemical_formula_structural   Cs3Tm2I9
_chemical_formula_sum   'Cs6 Tm4 I18'
_cell_volume   1328.08187004
_cell_formula_units_Z   2
loop_
 _symmetry_equiv_pos_site_id
 _symmetry_equiv_pos_as_xyz
  1  'x, y, z'
loop_
 _atom_site_type_symbol
 _atom_site_label
 _atom_site_symmetry_multiplicity
 _atom_site_fract_x
 _atom_site_fract_y
 _atom_site_fract_z
 _atom_site_occupancy
  Cs  Cs0  1  0.66665526  0.33333988  0.56848902  1
  Cs  Cs1  1  -0.00001657  0.00000149  0.25001125  1
  Cs  Cs2  1  0.33331859  0.66667920  0.06849745  1
  Cs  Cs3  1  0.33332328  0.66667465  0.43151506  1
  Cs  Cs4  1  -0.00002223  0.00002019  0.74998673  1
  Cs  Cs5  1  0.66664844  0.33335120  0.93149632  1
  Tm  Tm0  1  0.66665738  0.33333101  0.34393864  1
  Tm  Tm1  1  0.33331949  0.66669754  0.84391312  1
  Tm  Tm2  1  0.33334446  0.66666729  0.65604567  1
  Tm  Tm3  1  0.66663282  0.33334306  0.15610712  1
  I  I0  1  0.50561042  0.49438822  0.24996272  1
  I  I1  1  0.83544816  0.67037054  0.08581768  1
  I  I2  1  0.32970947  0.16483604  0.41423594  1
  I  I3  1  0.16495808  0.83538468  0.91418181  1
  I  I4  1  0.16481887  0.32972056  0.58575618  1
  I  I5  1  0.32961917  0.16456400  0.08580561  1
  I  I6  1  0.16486497  0.83512747  0.58573027  1
  I  I7  1  0.67025958  0.83507694  0.58573059  1
  I  I8  1  0.98873875  0.49437369  0.25003917  1
  I  I9  1  0.01125766  0.50564591  0.74997073  1
  I  I10  1  0.50567155  0.01120028  0.25003585  1
  I  I11  1  0.67023919  0.83513264  0.91424024  1
  I  I12  1  0.83513760  0.16486566  0.08576291  1
  I  I13  1  0.49436027  0.98872231  0.74998071  1
  I  I14  1  0.83514321  0.16484289  0.41427472  1
  I  I15  1  0.16479291  0.32974147  0.91425959  1
  I  I16  1  0.83513225  0.67027750  0.41423177  1
  I  I17  1  0.49437597  0.50562369  0.74998113  1
loop_
_geom_bond_atom_site_label_1
_geom_bond_atom_site_label_2
_geom_bond_distance
_geom_bond_site_symmetry_2
Cs0 I2 4.119735 1_555
Cs0 I16 4.119756 1_555
Cs0 I14 4.119952 1_555
Cs0 I7 4.251453 1_555
Cs0 I4 4.251631 1_655
Cs0 I6 4.252199 1_655
Cs0 I6 4.252218 1_545
Cs0 I4 4.252261 1_555
Cs0 I7 4.252369 1_545
Cs1 I10 4.235866 1_455
Cs1 I8 4.236590 1_455
Cs1 I8 4.236696 1_445
Cs1 I0 4.236884 1_445
Cs1 I0 4.237000 1_555
Cs1 I10 4.237382 1_555
Cs1 I1 4.261402 1_445
Cs1 I5 4.261612 1_555
Cs1 I16 4.261692 1_445
Cs1 I12 4.261756 1_455
Cs1 I2 4.261789 1_555
Cs1 I14 4.263007 1_455
Cs2 I15 4.119991 1_554
Cs2 I11 4.120224 1_554
Cs2 I3 4.120945 1_554
Cs2 I1 4.249738 1_455
Cs2 I5 4.249886 1_565
Cs2 I12 4.252230 1_455
Cs2 I12 4.252280 1_565
Cs2 I5 4.254193 1_555
Cs2 I1 4.254360 1_555
Cs3 I7 4.119051 1_555
Cs3 I4 4.119553 1_555
Cs3 I6 4.119642 1_555
Cs3 I2 4.251622 1_565
Cs3 I16 4.251822 1_455
Cs3 I16 4.252129 1_555
Cs3 I14 4.252159 1_565
Cs3 I14 4.252262 1_455
Cs3 I2 4.252340 1_555
Cs4 I13 4.236378 1_445
Cs4 I9 4.236534 1_555
Cs4 I9 4.236761 1_545
Cs4 I13 4.236897 1_545
Cs4 I17 4.236929 1_445
Cs4 I17 4.236944 1_555
Cs4 I3 4.260427 1_545
Cs4 I4 4.261771 1_555
Cs4 I7 4.262310 1_445
Cs4 I11 4.262881 1_445
Cs4 I15 4.263172 1_555
Cs4 I6 4.263293 1_545
Cs5 I12 4.119705 1_556
Cs5 I5 4.121593 1_556
Cs5 I1 4.121778 1_556
Cs5 I3 4.250904 1_545
Cs5 I15 4.251548 1_655
Cs5 I11 4.251733 1_555
Cs5 I11 4.252142 1_545
Cs5 I15 4.252233 1_555
Cs5 I3 4.253796 1_655
I0 Tm3 3.099551 1_555
I0 Tm0 3.100572 1_555
I1 Tm3 2.892949 1_555
I2 Tm0 2.892885 1_555
I3 Tm1 2.893233 1_555
I4 Tm2 2.892809 1_555
I5 Tm3 2.893002 1_555
I6 Tm2 2.892357 1_555
I7 Tm2 2.892877 1_555
I8 Tm0 3.100143 1_555
I8 Tm3 3.100322 1_555
I9 Tm1 3.100218 1_555
I9 Tm2 3.100528 1_555
I10 Tm3 3.100473 1_555
I10 Tm0 3.100485 1_555
I11 Tm1 2.892696 1_555
I12 Tm3 2.893655 1_555
I13 Tm1 3.099864 1_555
I13 Tm2 3.100507 1_555
I14 Tm0 2.892802 1_555
I15 Tm1 2.893133 1_555
I16 Tm0 2.892848 1_555
I17 Tm2 3.099850 1_555
I17 Tm1 3.100958 1_555
