# generated using pymatgen
data_BaBiO3
_symmetry_space_group_name_H-M   'P 1'
_cell_length_a   4.33178800
_cell_length_b   6.28416434
_cell_length_c   7.57985199
_cell_angle_alpha   81.14390837
_cell_angle_beta   73.44458823
_cell_angle_gamma   81.43362508
_symmetry_Int_Tables_number   1
_chemical_formula_structural   BaBiO3
_chemical_formula_sum   'Ba2 Bi2 O6'
_cell_volume   194.21786913
_cell_formula_units_Z   2
loop_
 _symmetry_equiv_pos_site_id
 _symmetry_equiv_pos_as_xyz
  1  'x, y, z'
loop_
 _atom_site_type_symbol
 _atom_site_label
 _atom_site_symmetry_multiplicity
 _atom_site_fract_x
 _atom_site_fract_y
 _atom_site_fract_z
 _atom_site_occupancy
  Ba  Ba0  1  0.49888800  0.26169900  0.33886300  1
  Ba  Ba1  1  0.69454500  0.67888100  0.64254800  1
  Bi  Bi0  1  0.41610800  0.82314300  0.10309100  1
  Bi  Bi1  1  0.03957400  0.18752400  0.85783200  1
  O  O0  1  0.24045500  0.42701400  0.64932500  1
  O  O1  1  0.95300000  0.07159300  0.52176600  1
  O  O2  1  0.06172500  0.57743200  0.17346800  1
  O  O3  1  0.74865300  0.67794800  0.28407700  1
  O  O4  1  0.21052700  0.89677000  0.45637500  1
  O  O5  1  0.63652600  0.39799600  0.97265600  1
loop_
_geom_bond_atom_site_label_1
_geom_bond_atom_site_label_2
_geom_bond_distance
_geom_bond_site_symmetry_2
Ba0 O0 2.602931 1_555
Ba0 O4 2.683870 1_545
Ba0 O5 2.696491 1_554
Ba0 O1 2.721078 1_455
Ba0 O1 2.750073 1_555
Ba0 O3 2.904808 1_555
Ba0 O2 2.926126 1_555
Ba1 O0 2.651241 1_655
Ba1 O3 2.660728 1_555
Ba1 O0 2.687353 1_555
Ba1 O4 2.716857 1_655
Ba1 O1 2.779440 1_565
Ba1 O5 2.802420 1_555
Ba1 O4 2.915160 1_555
Bi0 O2 2.238570 1_555
Bi0 O3 2.266889 1_555
Bi0 O4 2.660393 1_555
Bi1 O5 2.087020 1_455
Bi1 O0 2.096202 1_555
Bi1 O1 2.890935 1_455
O1 O4 1.478019 1_645
O2 O3 1.483571 1_455
