# generated using pymatgen
data_H8C3N2O
_symmetry_space_group_name_H-M   'P 1'
_cell_length_a   9.68338882
_cell_length_b   7.39486532
_cell_length_c   6.70004816
_cell_angle_alpha   86.64061590
_cell_angle_beta   49.67205269
_cell_angle_gamma   43.68733141
_symmetry_Int_Tables_number   1
_chemical_formula_structural   H8C3N2O
_chemical_formula_sum   'H16 C6 N4 O2'
_cell_volume   158.89901462
_cell_formula_units_Z   2
loop_
 _symmetry_equiv_pos_site_id
 _symmetry_equiv_pos_as_xyz
  1  'x, y, z'
loop_
 _atom_site_type_symbol
 _atom_site_label
 _atom_site_symmetry_multiplicity
 _atom_site_fract_x
 _atom_site_fract_y
 _atom_site_fract_z
 _atom_site_occupancy
  H  H0  1  0.25902500  0.58980800  0.03120100  1
  H  H1  1  0.11996600  0.03120100  0.58980800  1
  H  H2  1  0.21879900  0.13003400  0.99097500  1
  H  H3  1  0.66019200  0.99097500  0.13003400  1
  H  H4  1  0.67551100  0.06434300  0.86515700  1
  H  H5  1  0.39499000  0.86515700  0.06434300  1
  H  H6  1  0.38484300  0.85501000  0.57448900  1
  H  H7  1  0.18565700  0.57448900  0.85501000  1
  H  H8  1  0.58496300  0.07867900  0.70325200  1
  H  H9  1  0.63310600  0.70325200  0.07867900  1
  H  H10  1  0.54674800  0.61689400  0.66503700  1
  H  H11  1  0.17132100  0.66503700  0.61689400  1
  H  H12  1  0.66501900  0.37159400  0.91403500  1
  H  H13  1  0.04935200  0.91403500  0.37159400  1
  H  H14  1  0.33596500  0.20064800  0.58498100  1
  H  H15  1  0.87840600  0.58498100  0.20064800  1
  C  C0  1  0.67727200  0.32272800  0.32272800  1
  C  C1  1  0.92727200  0.57272800  0.57272800  1
  C  C2  1  0.82315900  0.86792400  0.61226700  1
  C  C3  1  0.69665100  0.61226700  0.86792400  1
  C  C4  1  0.63773300  0.55334900  0.42684100  1
  C  C5  1  0.38207600  0.42684100  0.55334900  1
  N  N0  1  0.16668500  0.67970300  0.25691300  1
  N  N1  1  0.89670000  0.25691300  0.67970300  1
  N  N2  1  0.99308700  0.35330000  0.08331500  1
  N  N3  1  0.57029700  0.08331500  0.35330000  1
  O  O0  1  0.02723300  0.97276700  0.97276700  1
  O  O1  1  0.27723300  0.22276700  0.22276700  1
loop_
_geom_bond_atom_site_label_1
_geom_bond_atom_site_label_2
_geom_bond_distance
_geom_bond_site_symmetry_2
H0 N0 1.018026 1_555
H1 N1 1.018021 1_455
H2 N2 1.018026 1_456
H3 N3 1.018020 1_565
H12 N1 1.030910 1_555
H13 N0 1.030904 1_555
H14 N3 1.030905 1_555
H15 N2 1.030911 1_555
C0 O0 1.192608 1_644
C1 O1 1.192608 1_655
C2 H4 1.083666 1_565
C2 H8 1.101472 1_565
C2 N0 1.453501 1_655
C3 H5 1.083666 1_556
C3 H9 1.101465 1_556
C3 N1 1.453501 1_555
C4 H6 1.083666 1_555
C4 H10 1.101472 1_555
C4 N2 1.453501 1_555
C5 H7 1.083666 1_555
C5 H11 1.101468 1_555
C5 N3 1.453501 1_555
