# generated using pymatgen
data_FeHO2
_symmetry_space_group_name_H-M   'P 1'
_cell_length_a   5.05306356
_cell_length_b   5.02606123
_cell_length_c   6.78333884
_cell_angle_alpha   81.30660144
_cell_angle_beta   81.21270226
_cell_angle_gamma   103.13683810
_symmetry_Int_Tables_number   1
_chemical_formula_structural   FeHO2
_chemical_formula_sum   'Fe4 H4 O8'
_cell_volume   162.67738247
_cell_formula_units_Z   4
loop_
 _symmetry_equiv_pos_site_id
 _symmetry_equiv_pos_as_xyz
  1  'x, y, z'
loop_
 _atom_site_type_symbol
 _atom_site_label
 _atom_site_symmetry_multiplicity
 _atom_site_fract_x
 _atom_site_fract_y
 _atom_site_fract_z
 _atom_site_occupancy
  Fe  Fe0  1  0.03627400  0.78621900  0.36265400  1
  Fe  Fe1  1  0.96372600  0.21378100  0.63734600  1
  Fe  Fe2  1  0.53627400  0.28621900  0.36264900  1
  Fe  Fe3  1  0.46372600  0.71378100  0.63735100  1
  H  H0  1  0.37684800  0.12673300  0.02011800  1
  H  H1  1  0.87684600  0.62673100  0.02011900  1
  H  H2  1  0.62315300  0.87326700  0.97988200  1
  H  H3  1  0.12315400  0.37326900  0.97988100  1
  O  O0  1  0.23183600  0.98186300  0.56868200  1
  O  O1  1  0.73183500  0.48186200  0.56868200  1
  O  O2  1  0.76816400  0.01813700  0.43131800  1
  O  O3  1  0.26816500  0.51813800  0.43131800  1
  O  O4  1  0.33775800  0.08755100  0.16842100  1
  O  O5  1  0.83775900  0.58755000  0.16841900  1
  O  O6  1  0.66224200  0.91244900  0.83157900  1
  O  O7  1  0.16224100  0.41245000  0.83158100  1
loop_
_geom_bond_atom_site_label_1
_geom_bond_atom_site_label_2
_geom_bond_distance
_geom_bond_site_symmetry_2
Fe0 O4 2.021200 1_565
Fe0 O5 2.021253 1_455
Fe0 O3 2.024877 1_555
Fe0 O2 2.024898 1_465
Fe0 O1 2.070484 1_455
Fe0 O0 2.071784 1_555
Fe1 O6 2.021200 1_545
Fe1 O7 2.021253 1_655
Fe1 O1 2.024877 1_555
Fe1 O0 2.024898 1_645
Fe1 O3 2.070484 1_655
Fe1 O2 2.071784 1_555
Fe2 O5 2.021191 1_555
Fe2 O4 2.021215 1_555
Fe2 O2 2.024885 1_555
Fe2 O3 2.024905 1_555
Fe2 O0 2.070494 1_545
Fe2 O1 2.071807 1_555
Fe3 O7 2.021191 1_555
Fe3 O6 2.021215 1_555
Fe3 O0 2.024885 1_555
Fe3 O1 2.024905 1_555
Fe3 O2 2.070494 1_565
Fe3 O3 2.071807 1_555
H0 O4 0.975465 1_555
H1 O5 0.975445 1_555
H2 O6 0.975465 1_555
H3 O7 0.975445 1_555
