# generated using pymatgen
data_Ba(HO)2
_symmetry_space_group_name_H-M   'P 1'
_cell_length_a   7.19180600
_cell_length_b   7.92372546
_cell_length_c   9.30348804
_cell_angle_alpha   90.87428064
_cell_angle_beta   96.09279989
_cell_angle_gamma   92.49200189
_symmetry_Int_Tables_number   1
_chemical_formula_structural   Ba(HO)2
_chemical_formula_sum   'Ba8 H16 O16'
_cell_volume   526.56889464
_cell_formula_units_Z   8
loop_
 _symmetry_equiv_pos_site_id
 _symmetry_equiv_pos_as_xyz
  1  'x, y, z'
loop_
 _atom_site_type_symbol
 _atom_site_label
 _atom_site_symmetry_multiplicity
 _atom_site_fract_x
 _atom_site_fract_y
 _atom_site_fract_z
 _atom_site_occupancy
  Ba  Ba0  1  0.24050200  0.86305200  0.90656300  1
  Ba  Ba1  1  0.72097500  0.63297300  0.39841400  1
  Ba  Ba2  1  0.77359200  0.10212100  0.09828500  1
  Ba  Ba3  1  0.25510100  0.37328300  0.62165000  1
  Ba  Ba4  1  0.30748500  0.97899200  0.33472200  1
  Ba  Ba5  1  0.79518800  0.54536400  0.83231000  1
  Ba  Ba6  1  0.72822100  0.04185100  0.68066500  1
  Ba  Ba7  1  0.18437300  0.46933400  0.18446000  1
  H  H0  1  0.19409100  0.96976400  0.62186100  1
  H  H1  1  0.66591500  0.49186300  0.11549600  1
  H  H2  1  0.82175000  0.03338700  0.38749500  1
  H  H3  1  0.13021000  0.39707800  0.89227500  1
  H  H4  1  0.42786800  0.22789000  0.16614600  1
  H  H5  1  0.70302700  0.35450900  0.56188300  1
  H  H6  1  0.57020200  0.78687300  0.81714600  1
  H  H7  1  0.07125900  0.72591700  0.33450700  1
  H  H8  1  0.14985700  0.17885000  0.96836600  1
  H  H9  1  0.57583000  0.26125400  0.38198100  1
  H  H10  1  0.91685400  0.74382600  0.12221900  1
  H  H11  1  0.40836300  0.73051500  0.60049200  1
  H  H12  1  0.94815100  0.25918800  0.40430300  1
  H  H13  1  0.48024400  0.25587300  0.89565300  1
  H  H14  1  0.03766500  0.75300600  0.59144800  1
  H  H15  1  0.53436100  0.73733600  0.09531200  1
  O  O0  1  0.31783300  0.02884400  0.62571400  1
  O  O1  1  0.79992000  0.47233200  0.12916100  1
  O  O2  1  0.69258800  0.98519700  0.38487200  1
  O  O3  1  0.16905700  0.51857700  0.88712300  1
  O  O4  1  0.38293800  0.15074300  0.08477300  1
  O  O5  1  0.83978400  0.36346000  0.58067500  1
  O  O6  1  0.62420600  0.84481000  0.90868300  1
  O  O7  1  0.11755400  0.66116500  0.41982200  1
  O  O8  1  0.02913200  0.17689900  0.90654600  1
  O  O9  1  0.46736300  0.33204300  0.37434900  1
  O  O10  1  0.02272400  0.82494600  0.14401400  1
  O  O11  1  0.51432700  0.66532200  0.63766600  1
  O  O12  1  0.02786200  0.20105200  0.34142400  1
  O  O13  1  0.56225000  0.28306900  0.82077700  1
  O  O14  1  0.97869800  0.80153300  0.67302400  1
  O  O15  1  0.45747600  0.70785200  0.17309800  1
loop_
_geom_bond_atom_site_label_1
_geom_bond_atom_site_label_2
_geom_bond_distance
_geom_bond_site_symmetry_2
Ba0 H8 2.682272 1_565
Ba0 H6 2.684504 1_555
Ba0 O14 2.742794 1_455
Ba0 O3 2.755046 1_555
Ba0 O6 2.767576 1_555
Ba0 H0 2.783400 1_555
Ba0 H15 2.826824 1_556
Ba0 O10 2.852742 1_556
Ba0 O4 2.883711 1_566
Ba0 O8 2.970498 1_565
Ba0 O0 3.035110 1_565
Ba0 O15 3.087839 1_556
Ba1 H5 2.705073 1_555
Ba1 H7 2.722516 1_655
Ba1 O15 2.762211 1_555
Ba1 O2 2.810986 1_555
Ba1 O11 2.819022 1_555
Ba1 H1 2.825863 1_555
Ba1 O7 2.836689 1_655
Ba1 O5 2.850885 1_555
Ba1 H14 2.865029 1_655
Ba1 O1 2.912901 1_555
Ba1 O9 2.929410 1_555
Ba2 H2 2.742178 1_555
Ba2 O8 2.746660 1_654
Ba2 O6 2.778529 1_544
Ba2 O12 2.831690 1_655
Ba2 O4 2.842217 1_555
Ba2 H4 2.846631 1_555
Ba2 O10 2.902355 1_645
Ba2 O1 2.939037 1_555
Ba2 O2 2.943611 1_545
Ba2 H13 2.989702 1_554
Ba3 H3 2.767975 1_555
Ba3 O0 2.785736 1_555
Ba3 O3 2.847455 1_555
Ba3 O13 2.851585 1_555
Ba3 O11 2.899647 1_555
Ba3 O9 2.914899 1_555
Ba3 H12 2.932987 1_455
Ba3 O5 2.968164 1_455
Ba3 O7 3.104893 1_555
Ba4 H7 2.571061 1_555
Ba4 H4 2.707948 1_565
Ba4 O0 2.722640 1_565
Ba4 O12 2.734035 1_565
Ba4 O2 2.757510 1_555
Ba4 O10 2.788755 1_555
Ba4 O4 2.802540 1_565
Ba4 H0 2.875757 1_555
Ba4 H9 2.886957 1_565
Ba4 O15 2.913362 1_555
Ba4 O9 2.980386 1_565
Ba5 H6 2.555212 1_555
Ba5 O13 2.605720 1_555
Ba5 O3 2.701218 1_655
Ba5 H3 2.734580 1_655
Ba5 O11 2.775919 1_555
Ba5 O5 2.785258 1_555
Ba5 O1 2.827336 1_556
Ba5 O6 2.834524 1_555
Ba5 O14 2.886523 1_555
Ba5 H5 2.915283 1_555
Ba5 H1 2.916341 1_556
Ba5 H10 3.124610 1_556
Ba6 H6 2.677802 1_545
Ba6 O14 2.682798 1_545
Ba6 O13 2.688836 1_555
Ba6 H5 2.733444 1_555
Ba6 O2 2.764557 1_545
Ba6 O6 2.798892 1_545
Ba6 O5 2.838336 1_555
Ba6 H2 2.878197 1_555
Ba6 O0 2.938463 1_555
Ba6 O8 3.001533 1_655
Ba7 H7 2.653719 1_555
Ba7 H4 2.664665 1_555
Ba7 O15 2.677342 1_555
Ba7 O7 2.742522 1_555
Ba7 H3 2.752678 1_554
Ba7 O1 2.759367 1_455
Ba7 O3 2.790812 1_554
Ba7 O9 2.816812 1_555
Ba7 O12 2.855532 1_555
Ba7 H10 2.988867 1_455
Ba7 H8 3.017366 1_554
Ba7 O10 3.107621 1_555
H0 O0 0.984325 1_565
H1 O1 0.977990 1_555
H2 O2 0.986575 1_545
H3 O3 0.994008 1_555
H4 O4 0.983865 1_555
H5 O5 0.979786 1_555
H6 O6 0.994582 1_555
H7 O7 0.987566 1_555
H8 O8 0.988641 1_555
H9 O9 0.977592 1_555
H10 O10 0.977081 1_655
H11 O11 0.975166 1_555
H12 O12 0.984369 1_655
H13 O13 0.979935 1_555
H14 O14 0.988576 1_455
H15 O15 0.981279 1_555
