# generated using pymatgen
data_Na2TiSiO5
_symmetry_space_group_name_H-M   'P 1'
_cell_length_a   5.07721277
_cell_length_b   6.45079070
_cell_length_c   6.45079070
_cell_angle_alpha   90.00000000
_cell_angle_beta   90.00000000
_cell_angle_gamma   90.00000000
_symmetry_Int_Tables_number   1
_chemical_formula_structural   Na2TiSiO5
_chemical_formula_sum   'Na4 Ti2 Si2 O10'
_cell_volume   211.27653516
_cell_formula_units_Z   2
loop_
 _symmetry_equiv_pos_site_id
 _symmetry_equiv_pos_as_xyz
  1  'x, y, z'
loop_
 _atom_site_type_symbol
 _atom_site_label
 _atom_site_symmetry_multiplicity
 _atom_site_fract_x
 _atom_site_fract_y
 _atom_site_fract_z
 _atom_site_occupancy
  Na  Na0  1  0.50000000  -0.00000000  0.50000000  1
  Na  Na1  1  0.50000000  -0.00000000  0.00000000  1
  Na  Na2  1  0.50000000  0.50000000  0.50000000  1
  Na  Na3  1  0.50000000  0.50000000  0.00000000  1
  Ti  Ti0  1  0.06434530  0.25000000  0.25000000  1
  Ti  Ti1  1  0.93565470  0.75000000  0.75000000  1
  Si  Si0  1  -0.00000000  0.75000000  0.25000000  1
  Si  Si1  1  -0.00000000  0.25000000  0.75000000  1
  O  O0  1  0.72612797  0.25000000  0.25000000  1
  O  O1  1  0.27387203  0.75000000  0.75000000  1
  O  O2  1  0.18375427  0.25000000  0.54283917  1
  O  O3  1  0.18375427  0.25000000  0.95716083  1
  O  O4  1  0.18375427  0.54283917  0.25000000  1
  O  O5  1  0.18375427  0.95716083  0.25000000  1
  O  O6  1  0.81624573  0.04283917  0.75000000  1
  O  O7  1  0.81624573  0.75000000  0.04283917  1
  O  O8  1  0.81624573  0.45716083  0.75000000  1
  O  O9  1  0.81624573  0.75000000  0.45716083  1
loop_
_geom_bond_atom_site_label_1
_geom_bond_atom_site_label_2
_geom_bond_distance
_geom_bond_site_symmetry_2
Na0 O2 2.292436 1_555
Na0 O6 2.292436 1_555
Na0 O5 2.292436 1_545
Na0 O9 2.292436 1_545
Na0 O1 2.553374 1_545
Na0 O0 2.553374 1_555
Na1 O7 2.292436 1_545
Na1 O6 2.292436 1_554
Na1 O3 2.292436 1_554
Na1 O5 2.292436 1_545
Na1 O1 2.553374 1_544
Na1 O0 2.553374 1_555
Na2 O2 2.292436 1_555
Na2 O9 2.292436 1_555
Na2 O4 2.292436 1_555
Na2 O8 2.292436 1_555
Na2 O1 2.553374 1_555
Na2 O0 2.553374 1_555
Na3 O3 2.292436 1_554
Na3 O7 2.292436 1_555
Na3 O4 2.292436 1_555
Na3 O8 2.292436 1_554
Na3 O1 2.553374 1_554
Na3 O0 2.553374 1_555
O0 Ti0 1.717201 1_655
O1 Ti1 1.717201 1_455
O2 Si1 1.629800 1_555
O2 Ti0 1.983947 1_555
O3 Si1 1.629800 1_555
O3 Ti0 1.983947 1_556
O4 Si0 1.629800 1_555
O4 Ti0 1.983947 1_555
O5 Si0 1.629800 1_555
O5 Ti0 1.983947 1_565
O6 Si1 1.629800 1_655
O6 Ti1 1.983947 1_545
O7 Si0 1.629800 1_655
O7 Ti1 1.983947 1_554
O8 Si1 1.629800 1_655
O8 Ti1 1.983947 1_555
O9 Si0 1.629800 1_655
O9 Ti1 1.983947 1_555
