# generated using pymatgen
data_Ca5P3O12F
_symmetry_space_group_name_H-M   'P 1'
_cell_length_a   9.36188738
_cell_length_b   9.36188739
_cell_length_c   6.87865062
_cell_angle_alpha   90.00000000
_cell_angle_beta   90.00000000
_cell_angle_gamma   119.99999870
_symmetry_Int_Tables_number   1
_chemical_formula_structural   Ca5P3O12F
_chemical_formula_sum   'Ca10 P6 O24 F2'
_cell_volume   522.10844045
_cell_formula_units_Z   2
loop_
 _symmetry_equiv_pos_site_id
 _symmetry_equiv_pos_as_xyz
  1  'x, y, z'
loop_
 _atom_site_type_symbol
 _atom_site_label
 _atom_site_symmetry_multiplicity
 _atom_site_fract_x
 _atom_site_fract_y
 _atom_site_fract_z
 _atom_site_occupancy
  Ca  Ca0  1  0.66666700  0.33333300  0.50126573  1
  Ca  Ca1  1  0.33333300  0.66666700  0.00126573  1
  Ca  Ca2  1  0.33333300  0.66666700  0.49952237  1
  Ca  Ca3  1  0.66666700  0.33333300  0.99952237  1
  Ca  Ca4  1  0.99348955  0.24208633  0.75072350  1
  Ca  Ca5  1  0.75791367  0.75140422  0.75072350  1
  Ca  Ca6  1  0.24859578  0.00651045  0.75072350  1
  Ca  Ca7  1  0.00651045  0.75791367  0.25072350  1
  Ca  Ca8  1  0.24208633  0.24859578  0.25072350  1
  Ca  Ca9  1  0.75140422  0.99348955  0.25072350  1
  P  P0  1  0.36848207  0.39867545  0.75072288  1
  P  P1  1  0.60132455  0.96980662  0.75072288  1
  P  P2  1  0.03019338  0.63151793  0.75072288  1
  P  P3  1  0.63151793  0.60132455  0.25072288  1
  P  P4  1  0.39867545  0.03019338  0.25072288  1
  P  P5  1  0.96980662  0.36848207  0.25072288  1
  O  O0  1  0.48436777  0.32710958  0.75096366  1
  O  O1  1  0.67289042  0.15725718  0.75096366  1
  O  O2  1  0.84274282  0.51563223  0.75096366  1
  O  O3  1  0.51563223  0.67289042  0.25096366  1
  O  O4  1  0.32710958  0.84274282  0.25096366  1
  O  O5  1  0.15725718  0.48436777  0.25096366  1
  O  O6  1  0.25573326  0.34083164  0.57125168  1
  O  O7  1  0.65916836  0.91490161  0.57125168  1
  O  O8  1  0.08509839  0.74426674  0.57125168  1
  O  O9  1  0.74426674  0.65916836  0.07125168  1
  O  O10  1  0.34083164  0.08509839  0.07125168  1
  O  O11  1  0.91490161  0.25573326  0.07125168  1
  O  O12  1  0.74339624  0.65727111  0.43092547  1
  O  O13  1  0.34272889  0.08612414  0.43092547  1
  O  O14  1  0.91387586  0.25660376  0.43092547  1
  O  O15  1  0.25660376  0.34272889  0.93092547  1
  O  O16  1  0.65727111  0.91387586  0.93092547  1
  O  O17  1  0.08612414  0.74339624  0.93092547  1
  O  O18  1  0.46674218  0.58891814  0.74972800  1
  O  O19  1  0.41108186  0.87782404  0.74972800  1
  O  O20  1  0.12217596  0.53325782  0.74972800  1
  O  O21  1  0.53325782  0.41108186  0.24972800  1
  O  O22  1  0.58891814  0.12217596  0.24972800  1
  O  O23  1  0.87782404  0.46674218  0.24972800  1
  F  F0  1  0.00000000  0.00000000  0.75626634  1
  F  F1  1  0.00000000  0.00000000  0.25626634  1
loop_
_geom_bond_atom_site_label_1
_geom_bond_atom_site_label_2
_geom_bond_distance
_geom_bond_site_symmetry_2
Ca0 O0 2.401408 1_555
Ca0 O2 2.401408 1_555
Ca0 O1 2.401408 1_555
Ca0 O22 2.447958 1_555
Ca0 O23 2.447959 1_555
Ca0 O21 2.447964 1_555
Ca0 O14 2.787247 1_555
Ca0 O12 2.787247 1_555
Ca0 O13 2.787247 1_555
Ca1 O3 2.401408 1_555
Ca1 O5 2.401408 1_555
Ca1 O4 2.401408 1_555
Ca1 O19 2.447958 1_554
Ca1 O20 2.447959 1_554
Ca1 O18 2.447964 1_554
Ca1 O17 2.787247 1_554
Ca1 O15 2.787247 1_554
Ca1 O16 2.787247 1_554
Ca2 O3 2.395810 1_555
Ca2 O5 2.395810 1_555
Ca2 O4 2.395810 1_555
Ca2 O19 2.441490 1_555
Ca2 O20 2.441491 1_555
Ca2 O18 2.441496 1_555
Ca2 O8 2.803611 1_555
Ca2 O7 2.803617 1_555
Ca2 O6 2.803620 1_555
Ca3 O0 2.395810 1_555
Ca3 O2 2.395810 1_555
Ca3 O1 2.395810 1_555
Ca3 O22 2.441490 1_556
Ca3 O23 2.441491 1_556
Ca3 O21 2.441496 1_556
Ca3 O11 2.803611 1_556
Ca3 O10 2.803617 1_556
Ca3 O9 2.803620 1_556
Ca4 F0 2.297783 1_655
Ca4 O11 2.347929 1_556
Ca4 O14 2.348259 1_555
Ca4 O20 2.366017 1_655
Ca4 O6 2.477205 1_655
Ca4 O15 2.484134 1_655
Ca4 O1 2.693616 1_555
Ca5 F0 2.297778 1_665
Ca5 O9 2.347932 1_556
Ca5 O12 2.348266 1_555
Ca5 O18 2.366017 1_555
Ca5 O7 2.477197 1_555
Ca5 O16 2.484134 1_555
Ca5 O2 2.693635 1_555
Ca6 F0 2.297773 1_555
Ca6 O10 2.347931 1_556
Ca6 O13 2.348263 1_555
Ca6 O19 2.366025 1_545
Ca6 O8 2.477204 1_545
Ca6 O17 2.484134 1_545
Ca6 O0 2.693621 1_555
Ca7 F1 2.297783 1_565
Ca7 O8 2.347929 1_555
Ca7 O17 2.348259 1_554
Ca7 O23 2.366017 1_455
Ca7 O9 2.477205 1_455
Ca7 O12 2.484134 1_455
Ca7 O4 2.693616 1_555
Ca8 F1 2.297778 1_555
Ca8 O6 2.347932 1_555
Ca8 O15 2.348266 1_554
Ca8 O21 2.366017 1_555
Ca8 O10 2.477197 1_555
Ca8 O13 2.484134 1_555
Ca8 O5 2.693635 1_555
Ca9 F1 2.297773 1_665
Ca9 O7 2.347931 1_555
Ca9 O16 2.348263 1_554
Ca9 O22 2.366025 1_565
Ca9 O11 2.477204 1_565
Ca9 O14 2.484134 1_565
Ca9 O3 2.693621 1_555
O0 P0 1.533883 1_555
O1 P1 1.533875 1_545
O2 P2 1.533876 1_655
O3 P3 1.533883 1_555
O4 P4 1.533875 1_565
O5 P5 1.533876 1_455
O6 P0 1.536182 1_555
O7 P1 1.536182 1_555
O8 P2 1.536182 1_555
O9 P3 1.536182 1_555
O10 P4 1.536182 1_555
O11 P5 1.536182 1_555
O12 P3 1.535988 1_555
O13 P4 1.535983 1_555
O14 P5 1.535988 1_555
O15 P0 1.535988 1_555
O16 P1 1.535983 1_555
O17 P2 1.535988 1_555
O18 P0 1.542713 1_555
O19 P1 1.542713 1_555
O20 P2 1.542713 1_555
O21 P3 1.542713 1_555
O22 P4 1.542713 1_555
O23 P5 1.542713 1_555
