# generated using pymatgen
data_Fe2CoSe4
_symmetry_space_group_name_H-M   'P 1'
_cell_length_a   4.67136300
_cell_length_b   5.06173866
_cell_length_c   5.89686891
_cell_angle_alpha   114.58416661
_cell_angle_beta   112.70171313
_cell_angle_gamma   89.40638940
_symmetry_Int_Tables_number   1
_chemical_formula_structural   Fe2CoSe4
_chemical_formula_sum   'Fe2 Co1 Se4'
_cell_volume   115.08011556
_cell_formula_units_Z   1
loop_
 _symmetry_equiv_pos_site_id
 _symmetry_equiv_pos_as_xyz
  1  'x, y, z'
loop_
 _atom_site_type_symbol
 _atom_site_label
 _atom_site_symmetry_multiplicity
 _atom_site_fract_x
 _atom_site_fract_y
 _atom_site_fract_z
 _atom_site_occupancy
  Fe  Fe0  1  0.86394700  0.60121100  0.84119100  1
  Fe  Fe1  1  0.61082700  0.79303900  0.22811100  1
  Co  Co0  1  0.08791200  0.45942500  0.25269000  1
  Se  Se0  1  0.13054700  0.95090100  0.30778200  1
  Se  Se1  1  0.62417600  0.38729000  0.32676600  1
  Se  Se2  1  0.33141800  0.69364100  0.77044800  1
  Se  Se3  1  0.85117200  0.11449500  0.77301200  1
loop_
_geom_bond_atom_site_label_1
_geom_bond_atom_site_label_2
_geom_bond_distance
_geom_bond_site_symmetry_2
Fe0 Se3 2.322726 1_555
Fe0 Se0 2.367053 1_656
Fe0 Se2 2.432802 1_555
Fe0 Se2 2.459327 1_655
Fe0 Se1 2.509703 1_555
Fe0 Se3 2.786175 1_565
Fe1 Se2 2.324877 1_554
Fe1 Se1 2.350298 1_555
Fe1 Se0 2.366616 1_655
Fe1 Se0 2.521282 1_555
Fe1 Se3 2.671295 1_565
Fe1 Se1 2.812459 1_565
Co0 Se0 2.371042 1_555
Co0 Se3 2.405954 1_454
Co0 Se1 2.422541 1_555
Co0 Se1 2.428247 1_455
Co0 Se2 2.521244 1_555
Co0 Se0 2.721394 1_545
