# generated using pymatgen
data_Cs3CeF6
_symmetry_space_group_name_H-M   'P 1'
_cell_length_a   7.17240353
_cell_length_b   7.17240353
_cell_length_c   7.17240353
_cell_angle_alpha   60.00000000
_cell_angle_beta   60.00000000
_cell_angle_gamma   60.00000000
_symmetry_Int_Tables_number   1
_chemical_formula_structural   Cs3CeF6
_chemical_formula_sum   'Cs3 Ce1 F6'
_cell_volume   260.90304522
_cell_formula_units_Z   1
loop_
 _symmetry_equiv_pos_site_id
 _symmetry_equiv_pos_as_xyz
  1  'x, y, z'
loop_
 _atom_site_type_symbol
 _atom_site_label
 _atom_site_symmetry_multiplicity
 _atom_site_fract_x
 _atom_site_fract_y
 _atom_site_fract_z
 _atom_site_occupancy
  Cs  Cs0  1  0.50000000  0.50000000  0.50000000  1
  Cs  Cs1  1  0.75000000  0.75000000  0.75000000  1
  Cs  Cs2  1  0.25000000  0.25000000  0.25000000  1
  Ce  Ce0  1  -0.00000000  0.00000000  -0.00000000  1
  F  F0  1  0.22482493  0.77517507  0.77517507  1
  F  F1  1  0.22482493  0.22482493  0.77517507  1
  F  F2  1  0.22482493  0.77517507  0.22482493  1
  F  F3  1  0.77517507  0.22482493  0.22482493  1
  F  F4  1  0.77517507  0.77517507  0.22482493  1
  F  F5  1  0.77517507  0.22482493  0.77517507  1
loop_
_geom_bond_atom_site_label_1
_geom_bond_atom_site_label_2
_geom_bond_distance
_geom_bond_site_symmetry_2
Cs0 F4 2.791186 1_555
Cs0 F5 2.791186 1_555
Cs0 F2 2.791186 1_555
Cs0 F3 2.791186 1_555
Cs0 F0 2.791186 1_555
Cs0 F1 2.791186 1_555
Cs1 F1 3.595282 1_655
Cs1 F2 3.595282 1_556
Cs1 F5 3.595282 1_565
Cs1 F5 3.595282 1_555
Cs1 F3 3.595282 1_565
Cs1 F3 3.595282 1_556
Cs1 F1 3.595282 1_565
Cs1 F0 3.595282 1_555
Cs1 F2 3.595282 1_655
Cs1 F4 3.595282 1_556
Cs1 F4 3.595282 1_555
Cs1 F0 3.595282 1_655
Cs2 F3 3.595282 1_555
Cs2 F5 3.595282 1_554
Cs2 F4 3.595282 1_545
Cs2 F2 3.595282 1_555
Cs2 F0 3.595282 1_554
Cs2 F4 3.595282 1_455
Cs2 F1 3.595282 1_555
Cs2 F1 3.595282 1_554
Cs2 F0 3.595282 1_545
Cs2 F5 3.595282 1_455
Cs2 F3 3.595282 1_455
Cs2 F2 3.595282 1_545
Ce0 F3 2.280469 1_455
Ce0 F1 2.280469 1_554
Ce0 F2 2.280469 1_545
Ce0 F5 2.280469 1_454
Ce0 F4 2.280469 1_445
Ce0 F0 2.280469 1_544
