# generated using pymatgen
data_FeHO2
_symmetry_space_group_name_H-M   'P 1'
_cell_length_a   4.97820491
_cell_length_b   6.33786039
_cell_length_c   4.97900038
_cell_angle_alpha   81.50602102
_cell_angle_beta   104.32577538
_cell_angle_gamma   81.50322866
_symmetry_Int_Tables_number   1
_chemical_formula_structural   FeHO2
_chemical_formula_sum   'Fe4 H4 O8'
_cell_volume   147.72848675
_cell_formula_units_Z   4
loop_
 _symmetry_equiv_pos_site_id
 _symmetry_equiv_pos_as_xyz
  1  'x, y, z'
loop_
 _atom_site_type_symbol
 _atom_site_label
 _atom_site_symmetry_multiplicity
 _atom_site_fract_x
 _atom_site_fract_y
 _atom_site_fract_z
 _atom_site_occupancy
  Fe  Fe0  1  0.78538483  0.35484533  0.53788646  1
  Fe  Fe1  1  0.21230270  0.64511788  0.46486106  1
  Fe  Fe2  1  0.28538059  0.35484127  0.03788926  1
  Fe  Fe3  1  0.71229814  0.64511975  0.96485500  1
  H  H0  1  0.71158820  0.03445696  0.27094323  1
  H  H1  1  0.21157523  0.03446202  0.77092792  1
  H  H2  1  0.47872254  0.96550974  0.53822041  1
  H  H3  1  0.97873013  0.96551172  0.03821123  1
  O  O0  1  0.47901476  0.58397575  0.22942757  1
  O  O1  1  0.97900976  0.58398132  0.72942973  1
  O  O2  1  0.52091585  0.41604065  0.77124216  1
  O  O3  1  0.02092007  0.41603981  0.27123924  1
  O  O4  1  0.58872393  0.14102597  0.34082638  1
  O  O5  1  0.08872752  0.14101911  0.84080027  1
  O  O6  1  0.40884515  0.85902951  0.66111399  1
  O  O7  1  0.90885061  0.85902422  0.16113310  1
loop_
_geom_bond_atom_site_label_1
_geom_bond_atom_site_label_2
_geom_bond_distance
_geom_bond_site_symmetry_2
Fe0 O2 1.993239 1_555
Fe0 O3 2.010110 1_655
Fe0 O5 2.013958 1_655
Fe0 O4 2.016703 1_555
Fe0 O1 2.077378 1_555
Fe0 O0 2.078755 1_555
Fe1 O1 1.993357 1_455
Fe1 O0 2.009864 1_555
Fe1 O6 2.015038 1_555
Fe1 O7 2.016324 1_455
Fe1 O3 2.076707 1_555
Fe1 O2 2.078964 1_555
Fe2 O3 1.993188 1_555
Fe2 O2 2.010115 1_554
Fe2 O4 2.013982 1_555
Fe2 O5 2.016766 1_554
Fe2 O0 2.077379 1_555
Fe2 O1 2.078788 1_454
Fe3 O0 1.993344 1_556
Fe3 O1 2.009827 1_555
Fe3 O7 2.015082 1_556
Fe3 O6 2.016366 1_555
Fe3 O2 2.076692 1_555
Fe3 O3 2.078999 1_656
H0 O4 1.002014 1_555
H0 O7 1.619308 1_545
H1 O5 1.001884 1_555
H1 O6 1.619340 1_545
H2 O6 1.001783 1_555
H2 O4 1.620688 1_565
H3 O7 1.001902 1_555
H3 O5 1.620690 1_664
