# generated using pymatgen
data_Ca5Ge3H
_symmetry_space_group_name_H-M   'P 1'
_cell_length_a   9.08911428
_cell_length_b   9.08911472
_cell_length_c   9.08897415
_cell_angle_alpha   129.84457289
_cell_angle_beta   129.84456449
_cell_angle_gamma   73.65571436
_symmetry_Int_Tables_number   1
_chemical_formula_structural   Ca5Ge3H
_chemical_formula_sum   'Ca10 Ge6 H2'
_cell_volume   431.88230568
_cell_formula_units_Z   2
loop_
 _symmetry_equiv_pos_site_id
 _symmetry_equiv_pos_as_xyz
  1  'x, y, z'
loop_
 _atom_site_type_symbol
 _atom_site_label
 _atom_site_symmetry_multiplicity
 _atom_site_fract_x
 _atom_site_fract_y
 _atom_site_fract_z
 _atom_site_occupancy
  Ca  Ca0  1  0.50000000  0.50000000  -0.00000000  1
  Ca  Ca1  1  0.00000000  -0.00000000  -0.00000000  1
  Ca  Ca2  1  0.51712603  0.01712603  0.83365357  1
  Ca  Ca3  1  0.18347191  0.68347191  0.16634267  1
  Ca  Ca4  1  0.01708588  0.18351578  0.49999653  1
  Ca  Ca5  1  0.68351578  0.51708588  0.49999653  1
  Ca  Ca6  1  0.48287397  0.98287397  0.16634643  1
  Ca  Ca7  1  0.81652809  0.31652809  0.83365733  1
  Ca  Ca8  1  0.98291412  0.81648422  0.50000347  1
  Ca  Ca9  1  0.31648422  0.48291412  0.50000347  1
  Ge  Ge0  1  0.24999417  0.25000583  0.00000000  1
  Ge  Ge1  1  0.75000583  0.74999417  -0.00000000  1
  Ge  Ge2  1  0.88374809  0.38374809  0.26749438  1
  Ge  Ge3  1  0.11625191  0.61625191  0.73250562  1
  Ge  Ge4  1  0.38377857  0.11622143  0.50000000  1
  Ge  Ge5  1  0.61622143  0.88377857  0.50000000  1
  H  H0  1  0.25000276  0.75000276  0.50000197  1
  H  H1  1  0.74999724  0.24999724  0.49999803  1
loop_
_geom_bond_atom_site_label_1
_geom_bond_atom_site_label_2
_geom_bond_distance
_geom_bond_site_symmetry_2
Ca0 Ge2 3.089383 1_555
Ca0 Ge3 3.089383 1_554
Ca0 Ge5 3.089504 1_555
Ca0 Ge4 3.089504 1_554
Ca1 Ge2 3.089383 1_455
Ca1 Ge3 3.089383 1_544
Ca1 Ge4 3.089505 1_555
Ca1 Ge5 3.089505 1_444
Ca2 H0 2.331104 1_545
Ca2 Ge5 3.106847 1_545
Ca2 Ge4 3.106848 1_555
Ca2 Ge2 3.214242 1_556
Ca2 Ge0 3.220563 1_556
Ca2 Ge1 3.220563 1_546
Ca3 H0 2.331116 1_555
Ca3 Ge4 3.106883 1_565
Ca3 Ge5 3.106883 1_555
Ca3 Ge3 3.214150 1_554
Ca3 Ge0 3.220471 1_555
Ca3 Ge1 3.220471 1_455
Ca4 H1 2.330837 1_455
Ca4 Ge2 3.106707 1_455
Ca4 Ge3 3.106730 1_555
Ca4 Ge4 3.214804 1_555
Ca4 Ge0 3.220597 1_556
Ca4 Ge1 3.220637 1_445
Ca5 H1 2.330838 1_555
Ca5 Ge2 3.106707 1_555
Ca5 Ge3 3.106730 1_655
Ca5 Ge5 3.214804 1_555
Ca5 Ge1 3.220597 1_556
Ca5 Ge0 3.220637 1_555
Ca6 H1 2.331104 1_565
Ca6 Ge4 3.106847 1_565
Ca6 Ge5 3.106848 1_555
Ca6 Ge3 3.214242 1_554
Ca6 Ge1 3.220563 1_555
Ca6 Ge0 3.220563 1_565
Ca7 H1 2.331116 1_555
Ca7 Ge5 3.106883 1_545
Ca7 Ge4 3.106883 1_555
Ca7 Ge2 3.214150 1_556
Ca7 Ge1 3.220471 1_556
Ca7 Ge0 3.220471 1_656
Ca8 H0 2.330837 1_655
Ca8 Ge3 3.106707 1_655
Ca8 Ge2 3.106730 1_555
Ca8 Ge5 3.214804 1_555
Ca8 Ge1 3.220597 1_555
Ca8 Ge0 3.220637 1_666
Ca9 H0 2.330838 1_555
Ca9 Ge3 3.106707 1_555
Ca9 Ge2 3.106730 1_455
Ca9 Ge4 3.214804 1_555
Ca9 Ge0 3.220597 1_555
Ca9 Ge1 3.220637 1_556
Ge2 Ge3 2.533383 1_655
Ge4 Ge5 2.532759 1_545
