# generated using pymatgen
data_TlP(HO2)2
_symmetry_space_group_name_H-M   'P 1'
_cell_length_a   6.62922500
_cell_length_b   9.14204500
_cell_length_c   15.11691922
_cell_angle_alpha   73.11458704
_cell_angle_beta   90.00000000
_cell_angle_gamma   90.00000000
_symmetry_Int_Tables_number   1
_chemical_formula_structural   TlP(HO2)2
_chemical_formula_sum   'Tl8 P8 H16 O32'
_cell_volume   876.65823488
_cell_formula_units_Z   8
loop_
 _symmetry_equiv_pos_site_id
 _symmetry_equiv_pos_as_xyz
  1  'x, y, z'
loop_
 _atom_site_type_symbol
 _atom_site_label
 _atom_site_symmetry_multiplicity
 _atom_site_fract_x
 _atom_site_fract_y
 _atom_site_fract_z
 _atom_site_occupancy
  Tl  Tl0  1  0.27222300  0.93953000  0.61866300  1
  Tl  Tl1  1  0.77222300  0.06047000  0.88133700  1
  Tl  Tl2  1  0.72777700  0.06047000  0.38133700  1
  Tl  Tl3  1  0.22777700  0.93953000  0.11866300  1
  Tl  Tl4  1  0.22261500  0.43670600  0.63640700  1
  Tl  Tl5  1  0.72261500  0.56329400  0.86359300  1
  Tl  Tl6  1  0.77738500  0.56329400  0.36359300  1
  Tl  Tl7  1  0.27738500  0.43670600  0.13640700  1
  P  P0  1  0.25538800  0.82106100  0.87455000  1
  P  P1  1  0.75538800  0.17893900  0.62545000  1
  P  P2  1  0.74461200  0.17893900  0.12545000  1
  P  P3  1  0.24461200  0.82106100  0.37455000  1
  P  P4  1  0.24681500  0.31862700  0.87495800  1
  P  P5  1  0.74681500  0.68137300  0.62504200  1
  P  P6  1  0.75318500  0.68137300  0.12504200  1
  P  P7  1  0.25318500  0.31862700  0.37495800  1
  H  H0  1  0.02067300  0.27577500  0.99153100  1
  H  H1  1  0.52067300  0.72422500  0.50846900  1
  H  H2  1  0.97932700  0.72422500  0.00846900  1
  H  H3  1  0.47932700  0.27577500  0.49153100  1
  H  H4  1  0.47317700  0.23735900  0.99299800  1
  H  H5  1  0.97317700  0.76264100  0.50700200  1
  H  H6  1  0.52682300  0.76264100  0.00700200  1
  H  H7  1  0.02682300  0.23735900  0.49299800  1
  H  H8  1  0.23734300  0.62353900  0.81521800  1
  H  H9  1  0.73734300  0.37646100  0.68478200  1
  H  H10  1  0.76265700  0.37646100  0.18478200  1
  H  H11  1  0.26265700  0.62353900  0.31521800  1
  H  H12  1  0.24885400  0.07629000  0.81282000  1
  H  H13  1  0.74885400  0.92371000  0.68718000  1
  H  H14  1  0.75114600  0.92371000  0.18718000  1
  H  H15  1  0.25114600  0.07629000  0.31282000  1
  O  O0  1  0.44272400  0.73874000  0.92386800  1
  O  O1  1  0.94272400  0.26126000  0.57613200  1
  O  O2  1  0.55727600  0.26126000  0.07613200  1
  O  O3  1  0.05727600  0.73874000  0.42386800  1
  O  O4  1  0.31881800  0.98065300  0.80417000  1
  O  O5  1  0.81881800  0.01934700  0.69583000  1
  O  O6  1  0.68118200  0.01934700  0.19583000  1
  O  O7  1  0.18118200  0.98065300  0.30417000  1
  O  O8  1  0.08994700  0.84934700  0.93819500  1
  O  O9  1  0.58994700  0.15065300  0.56180500  1
  O  O10  1  0.91005300  0.15065300  0.06180500  1
  O  O11  1  0.41005300  0.84934700  0.43819500  1
  O  O12  1  0.16954000  0.72755600  0.80893200  1
  O  O13  1  0.66954100  0.27244400  0.69106800  1
  O  O14  1  0.83046000  0.27244400  0.19106800  1
  O  O15  1  0.33046000  0.72755600  0.30893200  1
  O  O16  1  0.41171400  0.20874900  0.93610400  1
  O  O17  1  0.91171400  0.79125100  0.56389600  1
  O  O18  1  0.58828600  0.79125100  0.06389600  1
  O  O19  1  0.08828600  0.20874900  0.43610400  1
  O  O20  1  0.33843800  0.46984600  0.81645600  1
  O  O21  1  0.83843800  0.53015400  0.68354400  1
  O  O22  1  0.66156200  0.53015400  0.18354400  1
  O  O23  1  0.16156200  0.46984600  0.31645600  1
  O  O24  1  0.09541500  0.36389800  0.94411200  1
  O  O25  1  0.59541500  0.63610200  0.55588800  1
  O  O26  1  0.90458500  0.63610200  0.05588800  1
  O  O27  1  0.40458500  0.36389800  0.44411200  1
  O  O28  1  0.14444600  0.22561100  0.81811600  1
  O  O29  1  0.64444600  0.77438900  0.68188400  1
  O  O30  1  0.85555400  0.77438900  0.18188400  1
  O  O31  1  0.35555400  0.22561100  0.31811600  1
loop_
_geom_bond_atom_site_label_1
_geom_bond_atom_site_label_2
_geom_bond_distance
_geom_bond_site_symmetry_2
H0 O24 1.035809 1_555
H0 O10 1.506265 1_456
H1 O25 1.035809 1_555
H1 O11 1.506265 1_555
H2 O26 1.035809 1_555
H2 O8 1.506265 1_654
H3 O27 1.035809 1_555
H3 O9 1.506265 1_555
H4 O16 1.051101 1_555
H4 O2 1.448259 1_556
H5 O17 1.051101 1_555
H5 O3 1.448259 1_655
H6 O18 1.051101 1_555
H6 O0 1.448259 1_554
H7 O19 1.051101 1_555
H7 O1 1.448259 1_455
H8 O12 1.030939 1_555
H8 O20 1.551913 1_555
H9 O13 1.030936 1_555
H9 O21 1.551913 1_555
H10 O14 1.030939 1_555
H10 O22 1.551913 1_555
H11 O15 1.030939 1_555
H11 O23 1.551913 1_555
H12 O4 1.031049 1_545
H12 O28 1.553209 1_555
H13 O5 1.031049 1_565
H13 O29 1.553209 1_555
H14 O6 1.031049 1_565
H14 O30 1.553209 1_555
H15 O7 1.031049 1_545
H15 O31 1.553209 1_555
O0 P0 1.529236 1_555
O0 Tl5 2.773908 1_555
O1 P1 1.529236 1_555
O1 Tl4 2.773908 1_655
O2 P2 1.529236 1_555
O2 Tl7 2.773908 1_555
O3 P3 1.529236 1_555
O3 Tl6 2.773908 1_455
O4 P0 1.592385 1_555
O5 P1 1.592385 1_555
O6 P2 1.592385 1_555
O7 P3 1.592385 1_555
O8 P0 1.529679 1_555
O8 Tl1 2.817211 1_465
O9 P1 1.529679 1_555
O9 Tl0 2.817211 1_545
O10 P2 1.529679 1_555
O10 Tl3 2.817211 1_645
O11 P3 1.529679 1_555
O11 Tl2 2.817211 1_565
O12 P0 1.590956 1_555
O13 P1 1.590954 1_555
O14 P2 1.590956 1_555
O15 P3 1.590956 1_555
O16 P4 1.587148 1_555
O17 P5 1.587148 1_555
O18 P6 1.587148 1_555
O19 P7 1.587148 1_555
O20 P4 1.533615 1_555
O20 Tl5 2.842075 1_555
O20 Tl4 2.927197 1_555
O21 P5 1.533615 1_555
O21 Tl4 2.842075 1_655
O21 Tl5 2.927197 1_555
O22 P6 1.533615 1_555
O22 Tl7 2.842075 1_555
O22 Tl6 2.927197 1_555
O23 P7 1.533615 1_555
O23 Tl6 2.842075 1_455
O23 Tl7 2.927197 1_555
O24 P4 1.588339 1_555
O25 P5 1.588339 1_555
O26 P6 1.588339 1_555
O27 P7 1.588339 1_555
O28 P4 1.531818 1_555
O28 Tl4 2.908384 1_555
O29 P5 1.531818 1_555
O29 Tl5 2.908384 1_555
O30 P6 1.531818 1_555
O30 Tl6 2.908384 1_555
O31 P7 1.531818 1_555
O31 Tl7 2.908384 1_555
