# generated using pymatgen
data_CdI2
_symmetry_space_group_name_H-M   'P 1'
_cell_length_a   4.28273793
_cell_length_b   4.28273791
_cell_length_c   85.90515183
_cell_angle_alpha   90.00000000
_cell_angle_beta   90.00000000
_cell_angle_gamma   120.00000011
_symmetry_Int_Tables_number   1
_chemical_formula_structural   CdI2
_chemical_formula_sum   'Cd12 I24'
_cell_volume   1364.56063354
_cell_formula_units_Z   12
loop_
 _symmetry_equiv_pos_site_id
 _symmetry_equiv_pos_as_xyz
  1  'x, y, z'
loop_
 _atom_site_type_symbol
 _atom_site_label
 _atom_site_symmetry_multiplicity
 _atom_site_fract_x
 _atom_site_fract_y
 _atom_site_fract_z
 _atom_site_occupancy
  Cd  Cd0  1  0.00000000  0.00000000  0.27062950  1
  Cd  Cd1  1  0.66666700  0.33333300  0.52082922  1
  Cd  Cd2  1  0.66666700  0.33333300  0.02083577  1
  Cd  Cd3  1  0.00000000  -0.00000000  0.43749611  1
  Cd  Cd4  1  0.00000000  -0.00000000  0.10407887  1
  Cd  Cd5  1  0.66666700  0.33333300  0.35425480  1
  Cd  Cd6  1  0.66666700  0.33333300  0.18750181  1
  Cd  Cd7  1  0.66666700  0.33333300  0.93760630  1
  Cd  Cd8  1  0.66666700  0.33333300  0.68749445  1
  Cd  Cd9  1  0.66666700  0.33333300  0.77082880  1
  Cd  Cd10  1  0.33333300  0.66666700  0.85423966  1
  Cd  Cd11  1  0.66666700  0.33333300  0.60416619  1
  I  I0  1  0.00000000  -0.00000000  0.16744224  1
  I  I1  1  0.33333300  0.66666700  0.79089115  1
  I  I2  1  0.66666700  0.33333300  0.08394895  1
  I  I3  1  0.33333300  0.66666700  0.45755825  1
  I  I4  1  0.33333300  0.66666700  0.20755881  1
  I  I5  1  0.33333300  0.66666700  0.95771808  1
  I  I6  1  -0.00000000  0.00000000  0.83413228  1
  I  I7  1  0.00000000  -0.00000000  0.66744097  1
  I  I8  1  0.66666700  0.33333300  0.87437638  1
  I  I9  1  0.00000000  0.00000000  0.91750774  1
  I  I10  1  -0.00000000  -0.00000000  0.58410793  1
  I  I11  1  0.33333300  0.66666700  0.54089273  1
  I  I12  1  0.33333300  0.66666700  0.12420116  1
  I  I13  1  0.33333300  0.66666700  0.04089010  1
  I  I14  1  0.00000000  0.00000000  0.75077436  1
  I  I15  1  0.33333300  0.66666700  0.29069753  1
  I  I16  1  0.00000000  -0.00000000  0.33413494  1
  I  I17  1  0.33333300  0.66666700  0.37437947  1
  I  I18  1  0.66666700  0.33333300  0.41744130  1
  I  I19  1  0.33333300  0.66666700  0.70755682  1
  I  I20  1  -0.00000000  0.00000000  0.00077454  1
  I  I21  1  0.66666700  0.33333300  0.25061516  1
  I  I22  1  0.33333300  0.66666700  0.62422588  1
  I  I23  1  0.00000000  0.00000000  0.50077478  1
loop_
_geom_bond_atom_site_label_1
_geom_bond_atom_site_label_2
_geom_bond_distance
_geom_bond_site_symmetry_2
Cd0 I21 3.011652 1_455
Cd0 I21 3.011655 1_445
Cd0 I21 3.011655 1_555
Cd0 I15 3.014288 1_545
Cd0 I15 3.014291 1_555
Cd0 I15 3.014291 1_445
Cd1 I23 3.013620 1_655
Cd1 I23 3.013623 1_665
Cd1 I23 3.013623 1_555
Cd1 I11 3.014066 1_545
Cd1 I11 3.014066 1_655
Cd1 I11 3.014072 1_555
Cd2 I13 3.013615 1_545
Cd2 I13 3.013615 1_655
Cd2 I13 3.013621 1_555
Cd2 I20 3.013954 1_655
Cd2 I20 3.013957 1_665
Cd2 I20 3.013957 1_555
Cd3 I18 3.013638 1_455
Cd3 I18 3.013641 1_445
Cd3 I18 3.013641 1_555
Cd3 I3 3.013998 1_545
Cd3 I3 3.014001 1_555
Cd3 I3 3.014001 1_445
Cd4 I12 3.016956 1_545
Cd4 I12 3.016959 1_555
Cd4 I12 3.016959 1_445
Cd4 I2 3.017331 1_455
Cd4 I2 3.017335 1_445
Cd4 I2 3.017335 1_555
Cd5 I16 3.016836 1_655
Cd5 I16 3.016839 1_665
Cd5 I16 3.016839 1_555
Cd5 I17 3.017073 1_545
Cd5 I17 3.017073 1_655
Cd5 I17 3.017079 1_555
Cd6 I4 3.013746 1_545
Cd6 I4 3.013746 1_655
Cd6 I4 3.013752 1_555
Cd6 I0 3.013872 1_655
Cd6 I0 3.013875 1_665
Cd6 I0 3.013875 1_555
Cd7 I9 3.015788 1_655
Cd7 I9 3.015791 1_665
Cd7 I9 3.015791 1_555
Cd7 I5 3.016439 1_545
Cd7 I5 3.016439 1_655
Cd7 I5 3.016445 1_555
Cd8 I7 3.013573 1_655
Cd8 I7 3.013576 1_665
Cd8 I7 3.013576 1_555
Cd8 I19 3.014010 1_545
Cd8 I19 3.014010 1_655
Cd8 I19 3.014016 1_555
Cd9 I14 3.013620 1_655
Cd9 I14 3.013623 1_665
Cd9 I14 3.013623 1_555
Cd9 I1 3.014009 1_545
Cd9 I1 3.014009 1_655
Cd9 I1 3.014015 1_555
Cd10 I6 3.016222 1_565
Cd10 I6 3.016225 1_555
Cd10 I6 3.016225 1_665
Cd10 I8 3.017666 1_565
Cd10 I8 3.017666 1_455
Cd10 I8 3.017672 1_555
Cd11 I10 3.013808 1_655
Cd11 I10 3.013811 1_665
Cd11 I10 3.013811 1_555
Cd11 I22 3.013878 1_545
Cd11 I22 3.013878 1_655
Cd11 I22 3.013884 1_555
