# generated using pymatgen
data_Pu2InRh2
_symmetry_space_group_name_H-M   'P 1'
_cell_length_a   7.56692418
_cell_length_b   7.56692418
_cell_length_c   3.70983046
_cell_angle_alpha   90.00000000
_cell_angle_beta   90.00000000
_cell_angle_gamma   90.00559834
_symmetry_Int_Tables_number   1
_chemical_formula_structural   Pu2InRh2
_chemical_formula_sum   'Pu4 In2 Rh4'
_cell_volume   212.41873849
_cell_formula_units_Z   2
loop_
 _symmetry_equiv_pos_site_id
 _symmetry_equiv_pos_as_xyz
  1  'x, y, z'
loop_
 _atom_site_type_symbol
 _atom_site_label
 _atom_site_symmetry_multiplicity
 _atom_site_fract_x
 _atom_site_fract_y
 _atom_site_fract_z
 _atom_site_occupancy
  Pu  Pu0  1  0.67169091  0.17169091  0.50000000  1
  Pu  Pu1  1  0.17169248  0.32830752  0.50000000  1
  Pu  Pu2  1  0.82830752  0.67169248  0.50000000  1
  Pu  Pu3  1  0.32830909  0.82830909  0.50000000  1
  In  In0  1  -0.00000000  -0.00000000  -0.00000000  1
  In  In1  1  0.50000000  0.50000000  -0.00000000  1
  Rh  Rh0  1  0.86476287  0.36476287  0.00000000  1
  Rh  Rh1  1  0.13523713  0.63523713  0.00000000  1
  Rh  Rh2  1  0.63502935  0.86497065  -0.00000000  1
  Rh  Rh3  1  0.36497065  0.13502935  -0.00000000  1
loop_
_geom_bond_atom_site_label_1
_geom_bond_atom_site_label_2
_geom_bond_distance
_geom_bond_site_symmetry_2
Pu0 Rh0 2.776528 1_555
Pu0 Rh0 2.776528 1_556
Pu0 Rh3 2.984000 1_555
Pu0 Rh3 2.984000 1_556
Pu0 Rh2 2.984000 1_546
Pu0 Rh2 2.984000 1_545
Pu1 Rh3 2.778321 1_556
Pu1 Rh3 2.778321 1_555
Pu1 Rh1 2.985130 1_556
Pu1 Rh1 2.985130 1_555
Pu1 Rh0 2.985130 1_456
Pu1 Rh0 2.985130 1_455
Pu2 Rh2 2.778321 1_555
Pu2 Rh2 2.778321 1_556
Pu2 Rh1 2.985130 1_655
Pu2 Rh0 2.985130 1_556
Pu2 Rh0 2.985130 1_555
Pu2 Rh1 2.985130 1_656
Pu3 Rh1 2.776528 1_555
Pu3 Rh1 2.776528 1_556
Pu3 Rh2 2.984000 1_556
Pu3 Rh2 2.984000 1_555
Pu3 Rh3 2.984000 1_566
Pu3 Rh3 2.984000 1_565
In0 Rh1 2.943822 1_545
In0 Rh0 2.943822 1_455
In0 Rh2 2.944563 1_445
In0 Rh3 2.944563 1_555
In0 Pu2 3.361487 1_444
In0 Pu2 3.361487 1_445
In0 Pu1 3.361487 1_554
In0 Pu1 3.361487 1_555
In0 Pu0 3.361679 1_454
In0 Pu0 3.361679 1_455
In0 Pu3 3.361679 1_544
In0 Pu3 3.361679 1_545
In1 Rh0 2.943822 1_555
In1 Rh1 2.943822 1_555
In1 Rh3 2.944563 1_555
In1 Rh2 2.944563 1_555
In1 Pu1 3.361487 1_555
In1 Pu2 3.361487 1_555
In1 Pu2 3.361487 1_554
In1 Pu1 3.361487 1_554
In1 Pu3 3.361679 1_554
In1 Pu0 3.361679 1_554
In1 Pu3 3.361679 1_555
In1 Pu0 3.361679 1_555
