# generated using pymatgen
data_Tl4Mo(CN)8
_symmetry_space_group_name_H-M   'P 1'
_cell_length_a   15.92875973
_cell_length_b   15.92875973
_cell_length_c   16.23209891
_cell_angle_alpha   60.15048961
_cell_angle_beta   60.15048961
_cell_angle_gamma   26.91613802
_symmetry_Int_Tables_number   1
_chemical_formula_structural   Tl4Mo(CN)8
_chemical_formula_sum   'Tl16 Mo4 C32 N32'
_cell_volume   1601.72739879
_cell_formula_units_Z   4
loop_
 _symmetry_equiv_pos_site_id
 _symmetry_equiv_pos_as_xyz
  1  'x, y, z'
loop_
 _atom_site_type_symbol
 _atom_site_label
 _atom_site_symmetry_multiplicity
 _atom_site_fract_x
 _atom_site_fract_y
 _atom_site_fract_z
 _atom_site_occupancy
  Tl  Tl0  1  0.67297100  0.20174600  0.36128400  1
  Tl  Tl1  1  0.97678700  0.64989200  0.58437800  1
  Tl  Tl2  1  0.20174600  0.67297100  0.86128400  1
  Tl  Tl3  1  0.03514400  0.46276000  0.11531000  1
  Tl  Tl4  1  0.19203900  0.73217700  0.51775200  1
  Tl  Tl5  1  0.79825400  0.32702900  0.13871600  1
  Tl  Tl6  1  0.02321300  0.35010800  0.41562200  1
  Tl  Tl7  1  0.26782300  0.80796100  0.98224800  1
  Tl  Tl8  1  0.73217700  0.19203900  0.01775200  1
  Tl  Tl9  1  0.96485600  0.53724000  0.88469000  1
  Tl  Tl10  1  0.32702900  0.79825400  0.63871600  1
  Tl  Tl11  1  0.35010800  0.02321300  0.91562200  1
  Tl  Tl12  1  0.64989200  0.97678700  0.08437800  1
  Tl  Tl13  1  0.46276000  0.03514400  0.61531000  1
  Tl  Tl14  1  0.53724000  0.96485600  0.38469000  1
  Tl  Tl15  1  0.80796100  0.26782300  0.48224800  1
  Mo  Mo0  1  0.61632000  0.13893100  0.76089800  1
  Mo  Mo1  1  0.13893100  0.61632000  0.26089800  1
  Mo  Mo2  1  0.38368000  0.86106900  0.23910200  1
  Mo  Mo3  1  0.86106900  0.38368000  0.73910200  1
  C  C0  1  0.39581300  0.80004700  0.13766600  1
  C  C1  1  0.57093600  0.79194600  0.11174200  1
  C  C2  1  0.98742200  0.13337600  0.79030000  1
  C  C3  1  0.98495900  0.63670200  0.26309100  1
  C  C4  1  0.62639200  0.48664000  0.81524500  1
  C  C5  1  0.28061500  0.92333300  0.38127300  1
  C  C6  1  0.36135100  0.35423800  0.21158500  1
  C  C7  1  0.36329800  0.01504100  0.23690900  1
  C  C8  1  0.17718400  0.12491500  0.14917200  1
  C  C9  1  0.19995300  0.60418700  0.36233400  1
  C  C10  1  0.51336000  0.37360800  0.68475500  1
  C  C11  1  0.37360800  0.51336000  0.18475500  1
  C  C12  1  0.01504100  0.36329800  0.73690900  1
  C  C13  1  0.01257800  0.86662400  0.20970000  1
  C  C14  1  0.13337600  0.98742200  0.29030000  1
  C  C15  1  0.48664000  0.62639200  0.31524500  1
  C  C16  1  0.20805400  0.42906400  0.38825800  1
  C  C17  1  0.71938500  0.07666700  0.61872700  1
  C  C18  1  0.79194600  0.57093600  0.61174200  1
  C  C19  1  0.86662400  0.01257800  0.70970000  1
  C  C20  1  0.92333300  0.28061500  0.88127300  1
  C  C21  1  0.64576200  0.63864900  0.28841500  1
  C  C22  1  0.12491500  0.17718400  0.64917200  1
  C  C23  1  0.87508500  0.82281600  0.35082800  1
  C  C24  1  0.63670200  0.98495900  0.76309100  1
  C  C25  1  0.42906400  0.20805400  0.88825800  1
  C  C26  1  0.35423800  0.36135100  0.71158500  1
  C  C27  1  0.07666700  0.71938500  0.11872700  1
  C  C28  1  0.60418700  0.19995300  0.86233400  1
  C  C29  1  0.80004700  0.39581300  0.63766600  1
  C  C30  1  0.82281600  0.87508500  0.85082800  1
  C  C31  1  0.63864900  0.64576200  0.78841500  1
  N  N0  1  0.67079600  0.75861500  0.04263000  1
  N  N1  1  0.59882500  0.22326000  0.92418300  1
  N  N2  1  0.51618300  0.78687500  0.81664500  1
  N  N3  1  0.99916600  0.05276200  0.32269600  1
  N  N4  1  0.96252300  0.22130500  0.95820300  1
  N  N5  1  0.06873300  0.26352400  0.09592900  1
  N  N6  1  0.89301500  0.65584900  0.26570600  1
  N  N7  1  0.46320400  0.49703300  0.63905300  1
  N  N8  1  0.93126700  0.73647600  0.90407100  1
  N  N9  1  0.21312500  0.48381700  0.68335500  1
  N  N10  1  0.53679600  0.50296700  0.36094700  1
  N  N11  1  0.78687500  0.51618300  0.31664500  1
  N  N12  1  0.10698500  0.34415100  0.73429400  1
  N  N13  1  0.34415100  0.10698500  0.23429400  1
  N  N14  1  0.75861500  0.67079600  0.54263000  1
  N  N15  1  0.22326000  0.59882500  0.42418300  1
  N  N16  1  0.22130500  0.96252300  0.45820300  1
  N  N17  1  0.00083400  0.94723800  0.67730400  1
  N  N18  1  0.94723800  0.00083400  0.17730400  1
  N  N19  1  0.05276200  0.99916600  0.82269600  1
  N  N20  1  0.77869500  0.03747700  0.54179700  1
  N  N21  1  0.49703300  0.46320400  0.13905300  1
  N  N22  1  0.26352400  0.06873300  0.59592900  1
  N  N23  1  0.32920400  0.24138500  0.95737000  1
  N  N24  1  0.03747700  0.77869500  0.04179700  1
  N  N25  1  0.65584900  0.89301500  0.76570600  1
  N  N26  1  0.24138500  0.32920400  0.45737000  1
  N  N27  1  0.40117500  0.77674000  0.07581700  1
  N  N28  1  0.77674000  0.40117500  0.57581700  1
  N  N29  1  0.50296700  0.53679600  0.86094700  1
  N  N30  1  0.48381700  0.21312500  0.18335500  1
  N  N31  1  0.73647600  0.93126700  0.40407100  1
loop_
_geom_bond_atom_site_label_1
_geom_bond_atom_site_label_2
_geom_bond_distance
_geom_bond_site_symmetry_2
C0 N27 1.175640 1_555
C0 Mo2 2.152798 1_555
C1 N0 1.175191 1_555
C1 Mo2 2.157268 1_555
C2 N19 1.178043 1_645
C2 Mo3 2.166583 1_555
C3 N6 1.180752 1_555
C3 Mo1 2.150915 1_655
C4 N29 1.179351 1_555
C4 Mo3 2.162517 1_555
C5 N16 1.179596 1_555
C5 Mo2 2.146578 1_555
C6 N30 1.176303 1_555
C6 Mo1 2.178922 1_555
C7 N13 1.180752 1_555
C7 Mo2 2.150915 1_545
C8 N5 1.179307 1_555
C8 Mo2 2.152442 1_545
C9 N15 1.175640 1_555
C9 Mo1 2.152798 1_555
C10 N7 1.179351 1_555
C10 Mo0 2.162517 1_555
C11 N21 1.179351 1_555
C11 Mo1 2.162517 1_555
C12 N12 1.180752 1_555
C12 Mo3 2.150915 1_455
C13 N18 1.178043 1_465
C13 Mo1 2.166583 1_555
C14 N3 1.178043 1_465
C14 Mo2 2.166583 1_555
C15 N10 1.179351 1_555
C15 Mo2 2.162517 1_555
C16 N26 1.175191 1_555
C16 Mo1 2.157268 1_555
C17 N20 1.179596 1_555
C17 Mo0 2.146578 1_555
C18 N14 1.175191 1_555
C18 Mo3 2.157268 1_555
C19 N17 1.178043 1_645
C19 Mo0 2.166583 1_555
C20 N4 1.179596 1_555
C20 Mo3 2.146578 1_555
C21 N11 1.176303 1_555
C21 Mo2 2.178922 1_555
C22 N22 1.179307 1_555
C22 Mo3 2.152442 1_455
C23 N31 1.179307 1_555
C23 Mo1 2.152442 1_655
C24 N25 1.180752 1_555
C24 Mo0 2.150915 1_565
C25 N23 1.175191 1_555
C25 Mo0 2.157268 1_555
C26 N9 1.176303 1_555
C26 Mo0 2.178922 1_555
C27 N24 1.179596 1_555
C27 Mo1 2.146578 1_555
C28 N1 1.175640 1_555
C28 Mo0 2.152798 1_555
C29 N28 1.175640 1_555
C29 Mo3 2.152798 1_555
C30 N8 1.179307 1_555
C30 Mo0 2.152442 1_565
C31 N2 1.176303 1_555
C31 Mo3 2.178922 1_555
N0 Tl9 2.921791 1_554
N1 Tl8 2.764386 1_556
N2 Tl11 2.789510 1_565
N4 Tl5 2.773057 1_556
N5 Tl3 2.873169 1_555
N6 Tl14 2.982675 1_555
N8 Tl9 2.873169 1_555
N9 Tl1 2.789510 1_455
N11 Tl6 2.789510 1_655
N12 Tl13 2.982675 1_555
N13 Tl3 2.982675 1_555
N14 Tl14 2.921791 1_555
N15 Tl4 2.764386 1_555
N16 Tl10 2.773057 1_555
N20 Tl0 2.773057 1_555
N22 Tl13 2.873169 1_555
N23 Tl3 2.921791 1_556
N24 Tl2 2.773057 1_554
N25 Tl9 2.982675 1_555
N26 Tl13 2.921791 1_555
N27 Tl7 2.764386 1_554
N28 Tl15 2.764386 1_555
N30 Tl12 2.789510 1_545
N31 Tl14 2.873169 1_555
