# generated using pymatgen
data_Cd27Pd8
_symmetry_space_group_name_H-M   'P 1'
_cell_length_a   8.53792588
_cell_length_b   8.53792605
_cell_length_c   39.20180013
_cell_angle_alpha   90.00000000
_cell_angle_beta   90.00000000
_cell_angle_gamma   109.81987173
_symmetry_Int_Tables_number   1
_chemical_formula_structural   Cd27Pd8
_chemical_formula_sum   'Cd54 Pd16'
_cell_volume   2688.38283052
_cell_formula_units_Z   2
loop_
 _symmetry_equiv_pos_site_id
 _symmetry_equiv_pos_as_xyz
  1  'x, y, z'
loop_
 _atom_site_type_symbol
 _atom_site_label
 _atom_site_symmetry_multiplicity
 _atom_site_fract_x
 _atom_site_fract_y
 _atom_site_fract_z
 _atom_site_occupancy
  Cd  Cd0  1  0.79974254  0.45463286  0.02230836  1
  Cd  Cd1  1  0.06039400  0.69625906  0.15923043  1
  Cd  Cd2  1  0.13014578  0.38331779  0.59340735  1
  Cd  Cd3  1  0.28432353  0.92571088  0.21346400  1
  Cd  Cd4  1  0.57969669  0.23365497  0.08469831  1
  Cd  Cd5  1  0.93960600  0.30374094  0.65923043  1
  Cd  Cd6  1  0.46015328  0.46015328  0.03014068  1
  Cd  Cd7  1  0.53984672  0.53984672  0.53014068  1
  Cd  Cd8  1  0.38331779  0.13014578  0.59340735  1
  Cd  Cd9  1  0.60443591  0.86022636  0.22268446  1
  Cd  Cd10  1  0.52241882  0.52241882  0.19511656  1
  Cd  Cd11  1  0.77302258  0.42707191  0.72642947  1
  Cd  Cd12  1  0.22697742  0.57292809  0.22642947  1
  Cd  Cd13  1  0.66699683  0.92498534  0.52852454  1
  Cd  Cd14  1  0.58535442  0.81641510  0.65415206  1
  Cd  Cd15  1  0.04682181  0.04682181  0.15316552  1
  Cd  Cd16  1  0.03523700  0.03523700  0.73191652  1
  Cd  Cd17  1  0.27041264  0.92208473  0.10127996  1
  Cd  Cd18  1  0.81641510  0.58535442  0.65415206  1
  Cd  Cd19  1  0.96476300  0.96476300  0.23191652  1
  Cd  Cd20  1  0.47758118  0.47758118  0.69511656  1
  Cd  Cd21  1  0.42030331  0.76634503  0.58469831  1
  Cd  Cd22  1  0.39556409  0.13977364  0.72268446  1
  Cd  Cd23  1  0.45463286  0.79974254  0.02230836  1
  Cd  Cd24  1  0.86022636  0.60443591  0.22268446  1
  Cd  Cd25  1  0.07428912  0.71567647  0.71346400  1
  Cd  Cd26  1  0.86985422  0.61668221  0.09340735  1
  Cd  Cd27  1  0.20025746  0.54536714  0.52230836  1
  Cd  Cd28  1  0.95317819  0.95317819  0.65316552  1
  Cd  Cd29  1  0.07501466  0.33300317  0.02852454  1
  Cd  Cd30  1  0.92571088  0.28432353  0.21346400  1
  Cd  Cd31  1  0.92498534  0.66699683  0.52852454  1
  Cd  Cd32  1  0.57292809  0.22697742  0.22642947  1
  Cd  Cd33  1  0.13977364  0.39556409  0.72268446  1
  Cd  Cd34  1  0.47951717  0.47951717  0.61686258  1
  Cd  Cd35  1  0.61668221  0.86985422  0.09340735  1
  Cd  Cd36  1  0.41464558  0.18358490  0.15415206  1
  Cd  Cd37  1  0.07791527  0.72958736  0.60127996  1
  Cd  Cd38  1  0.03286134  0.03286134  0.57299722  1
  Cd  Cd39  1  0.69625906  0.06039400  0.15923043  1
  Cd  Cd40  1  0.33300317  0.07501466  0.02852454  1
  Cd  Cd41  1  0.30374094  0.93960600  0.65923043  1
  Cd  Cd42  1  0.96713866  0.96713866  0.07299722  1
  Cd  Cd43  1  0.54536714  0.20025746  0.52230836  1
  Cd  Cd44  1  0.42707191  0.77302258  0.72642947  1
  Cd  Cd45  1  0.23365497  0.57969669  0.08469831  1
  Cd  Cd46  1  0.76634503  0.42030331  0.58469831  1
  Cd  Cd47  1  0.92208473  0.27041264  0.10127996  1
  Cd  Cd48  1  0.52048283  0.52048283  0.11686258  1
  Cd  Cd49  1  0.71567647  0.07428912  0.71346400  1
  Cd  Cd50  1  0.97850289  0.97850289  0.99799371  1
  Cd  Cd51  1  0.18358490  0.41464558  0.15415206  1
  Cd  Cd52  1  0.72958736  0.07791527  0.60127996  1
  Cd  Cd53  1  0.02149711  0.02149711  0.49799371  1
  Pd  Pd0  1  0.25792972  0.25792972  0.98048576  1
  Pd  Pd1  1  0.76268446  0.76268446  0.15307388  1
  Pd  Pd2  1  0.74459326  0.09199593  0.03893250  1
  Pd  Pd3  1  0.23729429  0.59594859  0.65214223  1
  Pd  Pd4  1  0.24922298  0.24922298  0.09166296  1
  Pd  Pd5  1  0.75731182  0.75731182  0.71237725  1
  Pd  Pd6  1  0.90800407  0.25540674  0.53893250  1
  Pd  Pd7  1  0.40405141  0.76270571  0.15214223  1
  Pd  Pd8  1  0.09199593  0.74459326  0.03893250  1
  Pd  Pd9  1  0.76270571  0.40405141  0.15214223  1
  Pd  Pd10  1  0.75077702  0.75077702  0.59166296  1
  Pd  Pd11  1  0.59594859  0.23729429  0.65214223  1
  Pd  Pd12  1  0.25540674  0.90800407  0.53893250  1
  Pd  Pd13  1  0.24268818  0.24268818  0.21237725  1
  Pd  Pd14  1  0.74207028  0.74207028  0.48048576  1
  Pd  Pd15  1  0.23731554  0.23731554  0.65307388  1
loop_
_geom_bond_atom_site_label_1
_geom_bond_atom_site_label_2
_geom_bond_distance
_geom_bond_site_symmetry_2
Cd0 Cd29 2.883845 1_655
Cd0 Pd8 2.931001 1_655
Cd0 Cd6 2.931828 1_555
Cd0 Pd2 3.040403 1_555
Cd0 Cd26 3.078876 1_555
Cd0 Cd4 3.266113 1_555
Cd1 Pd1 2.796124 1_455
Cd1 Pd7 2.807015 1_555
Cd1 Pd9 2.908848 1_455
Cd1 Cd24 2.968922 1_455
Cd1 Cd12 3.329702 1_555
Cd2 Pd6 2.818808 1_455
Cd2 Pd3 2.882362 1_555
Cd2 Pd15 2.938657 1_555
Cd2 Cd27 3.078876 1_555
Cd3 Pd13 2.846891 1_565
Cd3 Cd32 2.940778 1_565
Cd3 Cd9 2.991537 1_555
Cd3 Pd7 3.118565 1_555
Cd4 Pd2 2.796149 1_555
Cd4 Pd4 2.882314 1_555
Cd4 Pd9 3.163353 1_555
Cd4 Cd6 3.270193 1_555
Cd5 Pd15 2.796124 1_655
Cd5 Pd11 2.807015 1_555
Cd5 Pd3 2.908848 1_655
Cd6 Pd0 2.780227 1_554
Cd6 Pd4 3.178661 1_555
Cd7 Pd14 2.780227 1_555
Cd7 Pd10 3.178661 1_555
Cd8 Pd12 2.818808 1_545
Cd8 Pd11 2.882362 1_555
Cd8 Pd15 2.938657 1_555
Cd9 Pd7 3.209622 1_555
Cd9 Pd1 3.275484 1_555
Cd10 Pd13 2.828056 1_555
Cd10 Pd1 2.877323 1_555
Cd10 Cd24 2.933799 1_555
Cd10 Cd9 2.933799 1_555
Cd10 Cd12 2.965339 1_555
Cd10 Cd32 2.965339 1_555
Cd10 Cd48 3.067756 1_555
Cd10 Pd9 3.078035 1_555
Cd10 Pd7 3.078035 1_555
Cd10 Cd51 3.160616 1_555
Cd10 Cd36 3.160616 1_555
Cd11 Pd5 2.920251 1_555
Cd11 Cd49 2.927515 1_555
Cd11 Cd25 2.940778 1_655
Cd11 Cd20 2.965339 1_555
Cd11 Cd18 3.106801 1_555
Cd11 Cd5 3.329702 1_555
Cd11 Pd11 3.425020 1_555
Cd12 Pd13 2.920251 1_555
Cd12 Cd3 2.927515 1_555
Cd12 Cd30 2.940778 1_455
Cd12 Cd51 3.106801 1_555
Cd12 Pd7 3.425020 1_555
Cd13 Pd14 2.659903 1_555
Cd13 Cd43 2.883845 1_565
Cd13 Pd6 2.902197 1_565
Cd13 Pd10 3.093826 1_555
Cd13 Cd7 3.094285 1_555
Cd13 Cd53 3.095335 1_665
Cd14 Pd5 2.849998 1_555
Cd14 Pd3 2.930386 1_555
Cd14 Pd10 2.974314 1_555
Cd14 Cd44 3.106801 1_555
Cd14 Cd20 3.160616 1_555
Cd15 Pd1 2.789175 1_445
Cd15 Pd13 3.014083 1_555
Cd15 Pd4 3.124173 1_555
Cd15 Cd19 3.190539 1_445
Cd16 Pd5 2.833681 1_445
Cd16 Cd22 2.920632 1_555
Cd16 Cd33 2.920632 1_555
Cd16 Cd49 2.948799 1_455
Cd16 Cd25 2.948799 1_545
Cd16 Cd28 3.190539 1_445
Cd17 Pd7 2.860429 1_555
Cd17 Pd4 2.884239 1_565
Cd17 Pd8 3.004214 1_555
Cd18 Pd5 2.849998 1_555
Cd18 Pd11 2.930386 1_555
Cd18 Pd10 2.974314 1_555
Cd18 Cd20 3.160616 1_555
Cd19 Pd13 2.833681 1_665
Cd19 Cd9 2.920632 1_555
Cd19 Cd24 2.920632 1_555
Cd19 Cd3 2.948799 1_655
Cd19 Cd30 2.948799 1_565
Cd20 Pd5 2.828056 1_555
Cd20 Pd15 2.877323 1_555
Cd20 Cd33 2.933799 1_555
Cd20 Cd22 2.933799 1_555
Cd20 Cd44 2.965339 1_555
Cd20 Cd34 3.067756 1_555
Cd20 Pd3 3.078035 1_555
Cd20 Pd11 3.078035 1_555
Cd21 Pd12 2.796149 1_555
Cd21 Pd10 2.882314 1_555
Cd21 Pd3 3.163353 1_555
Cd21 Cd27 3.266113 1_555
Cd21 Cd7 3.270193 1_555
Cd22 Cd41 2.968922 1_545
Cd22 Cd49 2.991537 1_555
Cd22 Pd11 3.209622 1_555
Cd22 Pd15 3.275484 1_555
Cd23 Cd40 2.883845 1_565
Cd23 Pd2 2.931001 1_565
Cd23 Cd6 2.931828 1_555
Cd23 Pd8 3.040403 1_555
Cd23 Cd35 3.078876 1_555
Cd23 Cd45 3.266113 1_555
Cd24 Cd30 2.991537 1_555
Cd24 Pd9 3.209622 1_555
Cd24 Pd1 3.275484 1_555
Cd25 Pd5 2.846890 1_455
Cd25 Cd44 2.927515 1_555
Cd25 Cd33 2.991537 1_555
Cd25 Pd3 3.118565 1_555
Cd26 Pd8 2.818808 1_655
Cd26 Pd9 2.882362 1_555
Cd26 Pd1 2.938657 1_555
Cd27 Cd31 2.883845 1_455
Cd27 Pd6 2.931001 1_455
Cd27 Cd7 2.931828 1_555
Cd27 Pd12 3.040403 1_555
Cd28 Pd15 2.789175 1_665
Cd28 Pd5 3.014083 1_555
Cd28 Pd10 3.124173 1_555
Cd29 Pd0 2.659903 1_554
Cd29 Pd2 2.902197 1_455
Cd29 Pd4 3.093826 1_555
Cd29 Cd6 3.094285 1_555
Cd29 Cd50 3.095335 1_444
Cd30 Pd13 2.846890 1_655
Cd30 Cd32 2.927515 1_555
Cd30 Pd9 3.118565 1_555
Cd31 Pd14 2.659903 1_555
Cd31 Pd12 2.902197 1_655
Cd31 Pd10 3.093826 1_555
Cd31 Cd7 3.094285 1_555
Cd31 Cd53 3.095335 1_665
Cd32 Pd13 2.920251 1_555
Cd32 Cd36 3.106801 1_555
Cd32 Cd39 3.329702 1_555
Cd32 Pd9 3.425020 1_555
Cd33 Cd5 2.968922 1_455
Cd33 Pd3 3.209622 1_555
Cd33 Pd15 3.275484 1_555
Cd34 Pd15 2.769064 1_555
Cd34 Pd10 2.840105 1_555
Cd34 Pd3 2.927806 1_555
Cd34 Pd11 2.927806 1_555
Cd34 Cd7 3.450850 1_555
Cd35 Pd2 2.818808 1_565
Cd35 Pd7 2.882362 1_555
Cd35 Pd1 2.938657 1_555
Cd36 Pd13 2.849998 1_555
Cd36 Pd9 2.930386 1_555
Cd36 Pd4 2.974314 1_555
Cd37 Pd3 2.860429 1_555
Cd37 Pd10 2.884239 1_455
Cd37 Pd12 3.004214 1_555
Cd38 Pd12 2.811325 1_545
Cd38 Pd6 2.811325 1_455
Cd38 Pd10 2.864070 1_445
Cd38 Cd53 2.942388 1_555
Cd39 Pd1 2.796124 1_545
Cd39 Pd9 2.807015 1_555
Cd39 Pd7 2.908848 1_545
Cd39 Cd9 2.968922 1_545
Cd40 Pd0 2.659903 1_554
Cd40 Pd8 2.902197 1_545
Cd40 Pd4 3.093826 1_555
Cd40 Cd6 3.094285 1_555
Cd40 Cd50 3.095335 1_444
Cd41 Pd15 2.796124 1_565
Cd41 Pd3 2.807015 1_555
Cd41 Pd11 2.908848 1_565
Cd41 Cd44 3.329702 1_555
Cd42 Pd2 2.811325 1_565
Cd42 Pd8 2.811325 1_655
Cd42 Pd4 2.864070 1_665
Cd42 Cd50 2.942388 1_554
Cd43 Pd12 2.931001 1_545
Cd43 Cd7 2.931828 1_555
Cd43 Pd6 3.040403 1_555
Cd43 Cd8 3.078876 1_555
Cd43 Cd46 3.266113 1_555
Cd44 Pd5 2.920251 1_555
Cd44 Cd49 2.940778 1_565
Cd44 Pd3 3.425020 1_555
Cd45 Pd8 2.796149 1_555
Cd45 Pd4 2.882314 1_555
Cd45 Pd7 3.163353 1_555
Cd45 Cd6 3.270193 1_555
Cd46 Pd6 2.796149 1_555
Cd46 Pd10 2.882314 1_555
Cd46 Pd11 3.163353 1_555
Cd46 Cd7 3.270193 1_555
Cd47 Pd9 2.860429 1_555
Cd47 Pd4 2.884239 1_655
Cd47 Pd2 3.004214 1_555
Cd48 Pd1 2.769064 1_555
Cd48 Pd4 2.840105 1_555
Cd48 Pd9 2.927806 1_555
Cd48 Pd7 2.927806 1_555
Cd48 Cd6 3.450850 1_555
Cd49 Pd5 2.846891 1_545
Cd49 Pd11 3.118565 1_555
Cd50 Pd0 2.827498 1_665
Cd50 Pd2 2.969057 1_566
Cd50 Pd8 2.969057 1_656
Cd51 Pd13 2.849998 1_555
Cd51 Pd7 2.930386 1_555
Cd51 Pd4 2.974314 1_555
Cd52 Pd11 2.860429 1_555
Cd52 Pd10 2.884239 1_545
Cd52 Pd6 3.004214 1_555
Cd53 Pd14 2.827498 1_445
Cd53 Pd12 2.969057 1_545
Cd53 Pd6 2.969057 1_455
