# generated using pymatgen
data_MoCl3
_symmetry_space_group_name_H-M   'P 1'
_cell_length_a   6.38899750
_cell_length_b   6.38899750
_cell_length_c   25.16189700
_cell_angle_alpha   90.00000000
_cell_angle_beta   90.00000000
_cell_angle_gamma   119.99999486
_symmetry_Int_Tables_number   1
_chemical_formula_structural   MoCl3
_chemical_formula_sum   'Mo8 Cl24'
_cell_volume   889.48672588
_cell_formula_units_Z   8
loop_
 _symmetry_equiv_pos_site_id
 _symmetry_equiv_pos_as_xyz
  1  'x, y, z'
loop_
 _atom_site_type_symbol
 _atom_site_label
 _atom_site_symmetry_multiplicity
 _atom_site_fract_x
 _atom_site_fract_y
 _atom_site_fract_z
 _atom_site_occupancy
  Mo  Mo0  1  0.66666700  0.33333300  0.50057900  1
  Mo  Mo1  1  0.66666700  0.33333300  0.99942100  1
  Mo  Mo2  1  0.66666700  0.33333300  0.25000000  1
  Mo  Mo3  1  0.00000000  0.00000000  0.75000000  1
  Mo  Mo4  1  0.00000000  0.00000000  0.25000000  1
  Mo  Mo5  1  0.33333300  0.66666700  0.75000000  1
  Mo  Mo6  1  0.33333300  0.66666700  0.49942100  1
  Mo  Mo7  1  0.33333300  0.66666700  0.00057900  1
  Cl  Cl0  1  0.66541300  0.97445500  0.80484100  1
  Cl  Cl1  1  0.63925000  0.99935100  0.55500800  1
  Cl  Cl2  1  0.69095800  0.02554500  0.30484100  1
  Cl  Cl3  1  0.63989900  0.00064900  0.05500800  1
  Cl  Cl4  1  0.66541300  0.69095800  0.69515900  1
  Cl  Cl5  1  0.63925000  0.63989900  0.94499200  1
  Cl  Cl6  1  0.69095800  0.66541300  0.19515900  1
  Cl  Cl7  1  0.63989900  0.63925000  0.44499200  1
  Cl  Cl8  1  0.00064900  0.36075000  0.94499200  1
  Cl  Cl9  1  0.02554500  0.33458700  0.69515900  1
  Cl  Cl10  1  0.99935100  0.36010100  0.44499200  1
  Cl  Cl11  1  0.97445500  0.30904200  0.19515900  1
  Cl  Cl12  1  0.02554500  0.69095800  0.80484100  1
  Cl  Cl13  1  0.00064900  0.63989900  0.55500800  1
  Cl  Cl14  1  0.97445500  0.66541300  0.30484100  1
  Cl  Cl15  1  0.99935100  0.63925000  0.05500800  1
  Cl  Cl16  1  0.36010100  0.36075000  0.55500800  1
  Cl  Cl17  1  0.30904200  0.33458700  0.80484100  1
  Cl  Cl18  1  0.36075000  0.36010100  0.05500800  1
  Cl  Cl19  1  0.33458700  0.30904200  0.30484100  1
  Cl  Cl20  1  0.36010100  0.99935100  0.94499200  1
  Cl  Cl21  1  0.30904200  0.97445500  0.69515900  1
  Cl  Cl22  1  0.36075000  0.00064900  0.44499200  1
  Cl  Cl23  1  0.33458700  0.02554500  0.19515900  1
loop_
_geom_bond_atom_site_label_1
_geom_bond_atom_site_label_2
_geom_bond_distance
_geom_bond_site_symmetry_2
Cl0 Mo5 2.469893 1_555
Cl0 Mo3 2.480231 1_665
Cl1 Mo0 2.466919 1_565
Cl1 Mo6 2.477875 1_555
Cl2 Mo2 2.469890 1_555
Cl2 Mo4 2.480231 1_655
Cl3 Mo7 2.466921 1_545
Cl3 Mo1 2.477873 1_554
Cl4 Mo5 2.469895 1_555
Cl4 Mo3 2.480231 1_665
Cl5 Mo1 2.466924 1_555
Cl5 Mo7 2.477878 1_556
Cl6 Mo2 2.469895 1_555
Cl6 Mo4 2.480231 1_665
Cl7 Mo6 2.466924 1_555
Cl7 Mo0 2.477878 1_555
Cl8 Mo1 2.466919 1_455
Cl8 Mo7 2.477875 1_556
Cl9 Mo5 2.469893 1_555
Cl9 Mo3 2.480231 1_555
Cl10 Mo6 2.466921 1_655
Cl10 Mo0 2.477873 1_555
Cl11 Mo2 2.469890 1_555
Cl11 Mo4 2.480231 1_655
Cl12 Mo5 2.469890 1_555
Cl12 Mo3 2.480231 1_565
Cl13 Mo0 2.466921 1_455
Cl13 Mo6 2.477873 1_555
Cl14 Mo2 2.469893 1_555
Cl14 Mo4 2.480231 1_665
Cl15 Mo7 2.466919 1_655
Cl15 Mo1 2.477875 1_554
Cl16 Mo0 2.466924 1_555
Cl16 Mo6 2.477878 1_555
Cl17 Mo5 2.469895 1_555
Cl17 Mo3 2.480231 1_555
Cl18 Mo7 2.466924 1_555
Cl18 Mo1 2.477878 1_554
Cl19 Mo2 2.469895 1_555
Cl19 Mo4 2.480231 1_555
Cl20 Mo1 2.466921 1_565
Cl20 Mo7 2.477873 1_556
Cl21 Mo5 2.469890 1_555
Cl21 Mo3 2.480231 1_565
Cl22 Mo6 2.466919 1_545
Cl22 Mo0 2.477875 1_555
Cl23 Mo2 2.469893 1_555
Cl23 Mo4 2.480231 1_555
