# generated using pymatgen
data_CeBMoO6
_symmetry_space_group_name_H-M   'P 1'
_cell_length_a   4.17436900
_cell_length_b   10.32596000
_cell_length_c   12.06156969
_cell_angle_alpha   63.85382235
_cell_angle_beta   90.00000000
_cell_angle_gamma   90.00000000
_symmetry_Int_Tables_number   1
_chemical_formula_structural   CeBMoO6
_chemical_formula_sum   'Ce4 B4 Mo4 O24'
_cell_volume   466.70572666
_cell_formula_units_Z   4
loop_
 _symmetry_equiv_pos_site_id
 _symmetry_equiv_pos_as_xyz
  1  'x, y, z'
loop_
 _atom_site_type_symbol
 _atom_site_label
 _atom_site_symmetry_multiplicity
 _atom_site_fract_x
 _atom_site_fract_y
 _atom_site_fract_z
 _atom_site_occupancy
  Ce  Ce0  1  0.21459700  0.80160900  0.03179700  1
  Ce  Ce1  1  0.78540300  0.19839100  0.96820300  1
  Ce  Ce2  1  0.28540300  0.80160900  0.53179700  1
  Ce  Ce3  1  0.71459700  0.19839100  0.46820300  1
  B  B0  1  0.83377300  0.99635900  0.30937800  1
  B  B1  1  0.33377300  0.00364100  0.19062200  1
  B  B2  1  0.66622700  0.99635900  0.80937800  1
  B  B3  1  0.16622700  0.00364100  0.69062200  1
  Mo  Mo0  1  0.80720100  0.64535100  0.31879600  1
  Mo  Mo1  1  0.19279900  0.35464900  0.68120400  1
  Mo  Mo2  1  0.30720100  0.35464900  0.18120400  1
  Mo  Mo3  1  0.69279900  0.64535100  0.81879600  1
  O  O0  1  0.76661000  0.45540000  0.89256200  1
  O  O1  1  0.77501300  0.73627400  0.91534500  1
  O  O2  1  0.27501300  0.26372600  0.58465500  1
  O  O3  1  0.77724000  0.74368600  0.64966500  1
  O  O4  1  0.22498700  0.26372600  0.08465500  1
  O  O5  1  0.65999000  0.03065200  0.20015100  1
  O  O6  1  0.73460200  0.33755600  0.19783000  1
  O  O7  1  0.84001000  0.03065200  0.70015100  1
  O  O8  1  0.27016900  0.00275900  0.58560400  1
  O  O9  1  0.22276000  0.25631400  0.35033500  1
  O  O10  1  0.34001000  0.96934800  0.79984900  1
  O  O11  1  0.72498700  0.73627400  0.41534500  1
  O  O12  1  0.23460200  0.66244400  0.30217000  1
  O  O13  1  0.72983100  0.99724100  0.41439600  1
  O  O14  1  0.76539800  0.33755600  0.69783000  1
  O  O15  1  0.77016900  0.99724100  0.91439600  1
  O  O16  1  0.73339000  0.45540000  0.39256200  1
  O  O17  1  0.23339000  0.54460000  0.10743800  1
  O  O18  1  0.15999000  0.96934800  0.29984900  1
  O  O19  1  0.22983100  0.00275900  0.08560400  1
  O  O20  1  0.27724000  0.25631400  0.85033500  1
  O  O21  1  0.26539800  0.66244400  0.80217000  1
  O  O22  1  0.72276000  0.74368600  0.14966500  1
  O  O23  1  0.26661000  0.54460000  0.60743800  1
loop_
_geom_bond_atom_site_label_1
_geom_bond_atom_site_label_2
_geom_bond_distance
_geom_bond_site_symmetry_2
Ce0 O17 2.397420 1_555
Ce0 O22 2.417590 1_455
Ce0 O19 2.434642 1_565
Ce0 O22 2.475728 1_555
Ce0 O1 2.574947 1_454
Ce0 O10 2.613493 1_554
Ce0 O15 2.647010 1_454
Ce0 O12 2.928612 1_555
Ce0 O1 2.955655 1_554
Ce0 O15 2.990550 1_554
Ce1 O0 2.397420 1_555
Ce1 O20 2.417590 1_655
Ce1 O15 2.434642 1_545
Ce1 O20 2.475728 1_555
Ce1 O4 2.574947 1_656
Ce1 O5 2.613493 1_556
Ce1 O19 2.647010 1_656
Ce1 O14 2.928612 1_555
Ce1 O4 2.955655 1_556
Ce1 O19 2.990550 1_556
Ce2 O23 2.397420 1_555
Ce2 O3 2.417590 1_555
Ce2 O8 2.434642 1_565
Ce2 O3 2.475728 1_455
Ce2 O11 2.574947 1_555
Ce2 O18 2.613493 1_555
Ce2 O13 2.647010 1_555
Ce2 O21 2.928612 1_555
Ce2 O11 2.955655 1_455
Ce2 O13 2.990550 1_455
Ce3 O16 2.397420 1_555
Ce3 O9 2.417590 1_555
Ce3 O13 2.434642 1_545
Ce3 O9 2.475728 1_655
Ce3 O2 2.574947 1_555
Ce3 O7 2.613493 1_555
Ce3 O8 2.647010 1_555
Ce3 O6 2.928612 1_555
Ce3 O2 2.955655 1_655
Ce3 O8 2.990550 1_655
B0 O13 1.342757 1_555
B0 O18 1.404856 1_655
B0 O5 1.405761 1_565
B1 O19 1.342757 1_555
B1 O5 1.404856 1_555
B1 O18 1.405761 1_545
B2 O15 1.342757 1_555
B2 O10 1.404856 1_555
B2 O7 1.405761 1_565
B3 O8 1.342757 1_555
B3 O7 1.404856 1_455
B3 O10 1.405761 1_545
Mo0 O16 1.787655 1_555
Mo0 O12 1.795353 1_655
Mo0 O11 1.821806 1_555
Mo0 O22 1.868488 1_555
Mo0 O12 2.398628 1_555
Mo1 O23 1.787655 1_555
Mo1 O14 1.795353 1_455
Mo1 O2 1.821806 1_555
Mo1 O20 1.868488 1_555
Mo1 O14 2.398628 1_555
Mo2 O17 1.787655 1_555
Mo2 O6 1.795353 1_555
Mo2 O4 1.821806 1_555
Mo2 O9 1.868488 1_555
Mo2 O6 2.398628 1_455
Mo3 O0 1.787655 1_555
Mo3 O21 1.795353 1_555
Mo3 O1 1.821806 1_555
Mo3 O3 1.868488 1_555
Mo3 O21 2.398628 1_655
