# generated using pymatgen
data_IrOsW
_symmetry_space_group_name_H-M   'P 1'
_cell_length_a   4.23752406
_cell_length_b   4.23752406
_cell_length_c   4.23752406
_cell_angle_alpha   60.00000000
_cell_angle_beta   60.00000000
_cell_angle_gamma   60.00000000
_symmetry_Int_Tables_number   1
_chemical_formula_structural   IrOsW
_chemical_formula_sum   'Ir1 Os1 W1'
_cell_volume   53.80486352
_cell_formula_units_Z   1
loop_
 _symmetry_equiv_pos_site_id
 _symmetry_equiv_pos_as_xyz
  1  'x, y, z'
loop_
 _atom_site_type_symbol
 _atom_site_label
 _atom_site_symmetry_multiplicity
 _atom_site_fract_x
 _atom_site_fract_y
 _atom_site_fract_z
 _atom_site_occupancy
  Ir  Ir0  1  0.50000000  0.50000000  0.50000000  1
  Os  Os0  1  0.75000000  0.75000000  0.75000000  1
  W  W0  1  0.00000000  0.00000000  0.00000000  1
loop_
_geom_bond_atom_site_label_1
_geom_bond_atom_site_label_2
_geom_bond_distance
_geom_bond_site_symmetry_2
Ir0 Os0 2.594943 1_545
Ir0 Os0 2.594943 1_455
Ir0 Os0 2.594943 1_554
Ir0 Os0 2.594943 1_555
Ir0 W0 2.996382 1_566
Ir0 W0 2.996382 1_656
Ir0 W0 2.996382 1_556
Ir0 W0 2.996382 1_565
Ir0 W0 2.996382 1_655
Ir0 W0 2.996382 1_665
Os0 W0 2.594943 1_656
Os0 W0 2.594943 1_566
Os0 W0 2.594943 1_665
Os0 W0 2.594943 1_666
