# generated using pymatgen
data_K3NbHOF7
_symmetry_space_group_name_H-M   'P 1'
_cell_length_a   8.44557849
_cell_length_b   8.44557849
_cell_length_c   7.00351154
_cell_angle_alpha   88.08343840
_cell_angle_beta   88.08343840
_cell_angle_gamma   116.54084279
_symmetry_Int_Tables_number   1
_chemical_formula_structural   K3NbHOF7
_chemical_formula_sum   'K6 Nb2 H2 O2 F14'
_cell_volume   445.99646539
_cell_formula_units_Z   2
loop_
 _symmetry_equiv_pos_site_id
 _symmetry_equiv_pos_as_xyz
  1  'x, y, z'
loop_
 _atom_site_type_symbol
 _atom_site_label
 _atom_site_symmetry_multiplicity
 _atom_site_fract_x
 _atom_site_fract_y
 _atom_site_fract_z
 _atom_site_occupancy
  K  K0  1  0.34056100  0.65943900  0.25000000  1
  K  K1  1  0.65943900  0.34056100  0.75000000  1
  K  K2  1  0.67416600  0.86708900  0.71443200  1
  K  K3  1  0.13291100  0.32583400  0.78556800  1
  K  K4  1  0.32583400  0.13291100  0.28556800  1
  K  K5  1  0.86708900  0.67416600  0.21443200  1
  Nb  Nb0  1  0.83425300  0.16574700  0.25000000  1
  Nb  Nb1  1  0.16574700  0.83425300  0.75000000  1
  H  H0  1  0.50000000  0.50000000  0.50000000  1
  H  H1  1  0.50000000  0.50000000  0.00000000  1
  O  O0  1  0.95877200  0.04122800  0.25000000  1
  O  O1  1  0.04122900  0.95877100  0.75000000  1
  F  F0  1  0.68693200  0.31306800  0.25000000  1
  F  F1  1  0.31306800  0.68693200  0.75000000  1
  F  F2  1  0.60139400  0.96554800  0.33546900  1
  F  F3  1  0.03445200  0.39860600  0.16453100  1
  F  F4  1  0.39860600  0.03445200  0.66453200  1
  F  F5  1  0.96554800  0.60139400  0.83546800  1
  F  F6  1  0.77064800  0.13399500  0.97570700  1
  F  F7  1  0.86600500  0.22935200  0.52429300  1
  F  F8  1  0.22935200  0.86600500  0.02429300  1
  F  F9  1  0.13399500  0.77064800  0.47570700  1
  F  F10  1  0.59415800  0.64603500  0.02121700  1
  F  F11  1  0.35396500  0.40584200  0.47878300  1
  F  F12  1  0.40584200  0.35396500  0.97878300  1
  F  F13  1  0.64603500  0.59415800  0.52121700  1
loop_
_geom_bond_atom_site_label_1
_geom_bond_atom_site_label_2
_geom_bond_distance
_geom_bond_site_symmetry_2
K2 O1 2.862055 1_655
K3 O1 2.862055 1_545
K4 O0 2.862045 1_455
K5 O0 2.862045 1_565
Nb0 O0 1.788915 1_555
Nb1 O1 1.788900 1_555
F0 Nb0 2.116502 1_555
F0 K4 2.730330 1_555
F0 K5 2.730330 1_555
F1 Nb1 2.116502 1_555
F1 K3 2.730330 1_555
F1 K2 2.730330 1_555
F2 Nb0 1.991652 1_565
F2 K0 2.645151 1_555
F2 K2 2.920875 1_555
F2 K4 3.239959 1_565
F3 Nb0 1.991652 1_455
F3 K0 2.645151 1_555
F3 K3 2.920875 1_554
F3 K5 3.239959 1_455
F4 Nb1 1.991651 1_545
F4 K1 2.645149 1_555
F4 K4 2.920881 1_555
F4 K2 3.239958 1_545
F5 Nb1 1.991651 1_655
F5 K1 2.645149 1_555
F5 K5 2.920881 1_556
F5 K3 3.239958 1_655
F6 Nb0 2.006369 1_556
F6 K1 2.793488 1_555
F6 K2 2.797809 1_545
F6 K3 2.985329 1_655
F7 Nb0 2.006369 1_555
F7 K1 2.793488 1_555
F7 K3 2.797809 1_655
F7 K2 2.985329 1_545
F8 Nb1 2.006369 1_554
F8 K0 2.793488 1_555
F8 K4 2.797809 1_565
F8 K5 2.985329 1_455
F9 Nb1 2.006369 1_555
F9 K0 2.793488 1_555
F9 K5 2.797809 1_455
F9 K4 2.985329 1_565
F10 H1 1.148595 1_555
F10 K5 2.634688 1_555
F10 K2 2.658117 1_554
F10 K0 2.677049 1_555
F11 H0 1.148595 1_555
F11 K4 2.634688 1_555
F11 K3 2.658117 1_555
F11 K0 2.677049 1_555
F12 H1 1.148595 1_556
F12 K3 2.634688 1_555
F12 K4 2.658117 1_556
F12 K1 2.677049 1_555
F13 H0 1.148595 1_555
F13 K2 2.634688 1_555
F13 K5 2.658117 1_555
F13 K1 2.677049 1_555
