# generated using pymatgen
data_KTiI3
_symmetry_space_group_name_H-M   'P 1'
_cell_length_a   14.05807965
_cell_length_b   14.05807965
_cell_length_c   6.96531600
_cell_angle_alpha   90.00000000
_cell_angle_beta   90.00000000
_cell_angle_gamma   119.99999834
_symmetry_Int_Tables_number   1
_chemical_formula_structural   KTiI3
_chemical_formula_sum   'K6 Ti6 I18'
_cell_volume   1192.12957435
_cell_formula_units_Z   6
loop_
 _symmetry_equiv_pos_site_id
 _symmetry_equiv_pos_as_xyz
  1  'x, y, z'
loop_
 _atom_site_type_symbol
 _atom_site_label
 _atom_site_symmetry_multiplicity
 _atom_site_fract_x
 _atom_site_fract_y
 _atom_site_fract_z
 _atom_site_occupancy
  K  K0  1  0.99509200  0.67887500  0.40630700  1
  K  K1  1  0.00490800  0.32112500  0.90630700  1
  K  K2  1  0.68378300  0.00490800  0.40630700  1
  K  K3  1  0.31621700  0.99509200  0.90630700  1
  K  K4  1  0.32112500  0.31621700  0.40630700  1
  K  K5  1  0.67887500  0.68378300  0.90630700  1
  Ti  Ti0  1  0.00000000  0.00000000  0.60245900  1
  Ti  Ti1  1  0.33333300  0.66666700  0.77972400  1
  Ti  Ti2  1  0.00000000  0.00000000  0.10245900  1
  Ti  Ti3  1  0.33333300  0.66666700  0.25201500  1
  Ti  Ti4  1  0.66666700  0.33333300  0.27972400  1
  Ti  Ti5  1  0.66666700  0.33333300  0.75201500  1
  I  I0  1  0.28363200  0.79621300  0.51896400  1
  I  I1  1  0.14667700  0.61499400  0.01884000  1
  I  I2  1  0.38500600  0.53168200  0.01884000  1
  I  I3  1  0.01827100  0.84491400  0.85182300  1
  I  I4  1  0.85332300  0.38500600  0.51884000  1
  I  I5  1  0.84491400  0.82664300  0.35182300  1
  I  I6  1  0.79621300  0.51258000  0.01896400  1
  I  I7  1  0.53168200  0.14667700  0.51884000  1
  I  I8  1  0.15508600  0.17335700  0.85182300  1
  I  I9  1  0.51258000  0.71636800  0.51896400  1
  I  I10  1  0.82664300  0.98172900  0.85182300  1
  I  I11  1  0.71636800  0.20378700  0.01896400  1
  I  I12  1  0.20378700  0.48742000  0.51896400  1
  I  I13  1  0.61499400  0.46831800  0.51884000  1
  I  I14  1  0.17335700  0.01827100  0.35182300  1
  I  I15  1  0.98172900  0.15508600  0.35182300  1
  I  I16  1  0.46831800  0.85332300  0.01884000  1
  I  I17  1  0.48742000  0.28363200  0.01896400  1
loop_
_geom_bond_atom_site_label_1
_geom_bond_atom_site_label_2
_geom_bond_distance
_geom_bond_site_symmetry_2
I0 Ti1 2.894157 1_555
I0 Ti3 2.921403 1_555
I0 K0 3.619306 1_455
I0 K3 3.744989 1_555
I1 Ti3 2.853921 1_555
I1 Ti1 2.877672 1_554
I1 K1 3.663329 1_554
I1 K0 3.813795 1_455
I2 Ti3 2.853944 1_555
I2 Ti1 2.877694 1_554
I2 K5 3.663329 1_554
I2 K4 3.813785 1_555
I3 Ti0 2.897605 1_565
I3 Ti2 2.902924 1_566
I3 K3 3.647226 1_555
I3 K0 3.797844 1_455
I4 Ti5 2.853921 1_555
I4 Ti4 2.877672 1_555
I4 K0 3.663329 1_555
I4 K1 3.813795 1_655
I5 Ti2 2.897605 1_665
I5 Ti0 2.902924 1_665
I5 K0 3.647226 1_555
I5 K5 3.797844 1_554
I6 Ti4 2.894157 1_555
I6 Ti5 2.921403 1_554
I6 K5 3.619319 1_554
I6 K0 3.744993 1_555
I7 Ti5 2.853927 1_555
I7 Ti4 2.877678 1_555
I7 K2 3.663341 1_555
I7 K3 3.813787 1_545
I8 Ti0 2.897605 1_555
I8 Ti2 2.902924 1_556
I8 K1 3.647226 1_555
I8 K4 3.797844 1_555
I9 Ti1 2.894157 1_555
I9 Ti3 2.921403 1_555
I9 K2 3.619308 1_565
I9 K5 3.744999 1_555
I10 Ti0 2.897605 1_665
I10 Ti2 2.902924 1_666
I10 K5 3.647226 1_555
I10 K2 3.797844 1_565
I11 Ti4 2.894157 1_555
I11 Ti5 2.921403 1_554
I11 K1 3.619306 1_654
I11 K2 3.744989 1_555
I12 Ti1 2.894157 1_555
I12 Ti3 2.921403 1_555
I12 K4 3.619319 1_555
I12 K1 3.744993 1_555
I13 Ti5 2.853944 1_555
I13 Ti4 2.877694 1_555
I13 K4 3.663329 1_555
I13 K5 3.813785 1_555
I14 Ti2 2.897605 1_555
I14 Ti0 2.902924 1_555
I14 K4 3.647226 1_555
I14 K3 3.797844 1_544
I15 Ti2 2.897605 1_655
I15 Ti0 2.902924 1_655
I15 K2 3.647226 1_555
I15 K1 3.797844 1_654
I16 Ti3 2.853927 1_555
I16 Ti1 2.877678 1_554
I16 K3 3.663341 1_554
I16 K2 3.813787 1_565
I17 Ti4 2.894157 1_555
I17 Ti5 2.921403 1_554
I17 K3 3.619308 1_544
I17 K4 3.744999 1_555
