# generated using pymatgen
data_RbPbIO6
_symmetry_space_group_name_H-M   'P 1'
_cell_length_a   5.55962656
_cell_length_b   5.55962656
_cell_length_c   12.43273900
_cell_angle_alpha   90.00000000
_cell_angle_beta   90.00000000
_cell_angle_gamma   120.00000668
_symmetry_Int_Tables_number   1
_chemical_formula_structural   RbPbIO6
_chemical_formula_sum   'Rb2 Pb2 I2 O12'
_cell_volume   332.80409492
_cell_formula_units_Z   2
loop_
 _symmetry_equiv_pos_site_id
 _symmetry_equiv_pos_as_xyz
  1  'x, y, z'
loop_
 _atom_site_type_symbol
 _atom_site_label
 _atom_site_symmetry_multiplicity
 _atom_site_fract_x
 _atom_site_fract_y
 _atom_site_fract_z
 _atom_site_occupancy
  Rb  Rb0  1  0.00000000  0.00000000  0.00000000  1
  Rb  Rb1  1  0.00000000  0.00000000  0.50000000  1
  Pb  Pb0  1  0.66666700  0.33333300  0.25000000  1
  Pb  Pb1  1  0.33333300  0.66666700  0.75000000  1
  I  I0  1  0.33333300  0.66666700  0.25000000  1
  I  I1  1  0.66666700  0.33333300  0.75000000  1
  O  O0  1  0.63670000  0.59707000  0.65889100  1
  O  O1  1  0.63670000  0.03963000  0.84110900  1
  O  O2  1  0.96037000  0.59707000  0.84110900  1
  O  O3  1  0.40293000  0.36330000  0.84110900  1
  O  O4  1  0.03963000  0.40293000  0.34110900  1
  O  O5  1  0.40293000  0.03963000  0.65889100  1
  O  O6  1  0.36330000  0.96037000  0.34110900  1
  O  O7  1  0.36330000  0.40293000  0.15889100  1
  O  O8  1  0.96037000  0.36330000  0.65889100  1
  O  O9  1  0.59707000  0.96037000  0.15889100  1
  O  O10  1  0.03963000  0.63670000  0.15889100  1
  O  O11  1  0.59707000  0.63670000  0.34110900  1
loop_
_geom_bond_atom_site_label_1
_geom_bond_atom_site_label_2
_geom_bond_distance
_geom_bond_site_symmetry_2
I0 O6 1.924862 1_555
I0 O10 1.924862 1_555
I0 O9 1.924863 1_555
I0 O4 1.924863 1_555
I0 O7 1.924866 1_555
I0 O11 1.924866 1_555
I1 O8 1.924862 1_555
I1 O1 1.924862 1_555
I1 O2 1.924863 1_555
I1 O5 1.924863 1_555
I1 O0 1.924866 1_555
I1 O3 1.924866 1_555
O0 Pb1 2.220372 1_555
O0 Rb1 2.911290 1_665
O1 Pb1 2.220369 1_545
O1 Rb0 2.911290 1_656
O2 Pb1 2.220368 1_655
O2 Rb0 2.911290 1_666
O3 Pb1 2.220372 1_555
O3 Rb0 2.911290 1_556
O4 Pb0 2.220368 1_455
O4 Rb1 2.911290 1_555
O5 Pb1 2.220368 1_545
O5 Rb1 2.911290 1_555
O6 Pb0 2.220369 1_565
O6 Rb1 2.911290 1_565
O7 Pb0 2.220372 1_555
O7 Rb0 2.911290 1_555
O8 Pb1 2.220369 1_655
O8 Rb1 2.911290 1_655
O9 Pb0 2.220368 1_565
O9 Rb0 2.911290 1_665
O10 Pb0 2.220369 1_455
O10 Rb0 2.911290 1_565
O11 Pb0 2.220372 1_555
O11 Rb1 2.911290 1_665
