# generated using pymatgen
data_Gd2Al6Si4Au
_symmetry_space_group_name_H-M   'P 1'
_cell_length_a   16.93883497
_cell_length_b   16.93883497
_cell_length_c   16.93883580
_cell_angle_alpha   14.36396213
_cell_angle_beta   14.36396213
_cell_angle_gamma   14.36396369
_symmetry_Int_Tables_number   1
_chemical_formula_structural   Gd2Al6Si4Au
_chemical_formula_sum   'Gd2 Al6 Si4 Au1'
_cell_volume   260.39669943
_cell_formula_units_Z   1
loop_
 _symmetry_equiv_pos_site_id
 _symmetry_equiv_pos_as_xyz
  1  'x, y, z'
loop_
 _atom_site_type_symbol
 _atom_site_label
 _atom_site_symmetry_multiplicity
 _atom_site_fract_x
 _atom_site_fract_y
 _atom_site_fract_z
 _atom_site_occupancy
  Gd  Gd0  1  0.56561600  0.56561600  0.56561600  1
  Gd  Gd1  1  0.43438400  0.43438400  0.43438400  1
  Al  Al0  1  0.18540800  0.18540800  0.18540800  1
  Al  Al1  1  0.05240800  0.05240800  0.05240800  1
  Al  Al2  1  0.81459200  0.81459200  0.81459200  1
  Al  Al3  1  0.94759200  0.94759200  0.94759200  1
  Al  Al4  1  0.68330600  0.68330600  0.68330600  1
  Al  Al5  1  0.31669400  0.31669400  0.31669400  1
  Si  Si0  1  0.73387500  0.73387500  0.73387500  1
  Si  Si1  1  0.26612500  0.26612500  0.26612500  1
  Si  Si2  1  0.13543300  0.13543300  0.13543300  1
  Si  Si3  1  0.86456700  0.86456700  0.86456700  1
  Au  Au0  1  0.00000000  0.00000000  0.00000000  1
loop_
_geom_bond_atom_site_label_1
_geom_bond_atom_site_label_2
_geom_bond_distance
_geom_bond_site_symmetry_2
Gd0 Si1 2.979180 1_565
Gd0 Si1 2.979180 1_655
Gd0 Si1 2.979181 1_556
Gd0 Si3 2.994774 1_455
Gd0 Si3 2.994774 1_545
Gd0 Si3 2.994774 1_554
Gd1 Si0 2.979180 1_455
Gd1 Si0 2.979180 1_545
Gd1 Si0 2.979181 1_554
Gd1 Si2 2.994774 1_655
Gd1 Si2 2.994774 1_565
Gd1 Si2 2.994774 1_556
Al0 Si2 2.512953 1_555
Al0 Si3 2.524720 1_454
Al0 Si3 2.524720 1_544
Al0 Si3 2.524720 1_445
Al1 Si0 2.556068 1_544
Al1 Si0 2.556068 1_454
Al1 Si0 2.556068 1_445
Al1 Au0 2.635294 1_555
Al2 Si3 2.512953 1_555
Al2 Si2 2.524720 1_656
Al2 Si2 2.524720 1_566
Al2 Si2 2.524720 1_665
Al3 Si1 2.556068 1_566
Al3 Si1 2.556068 1_656
Al3 Si1 2.556068 1_665
Al3 Au0 2.635294 1_666
Al4 Si0 2.542822 1_555
Al4 Au0 2.584507 1_566
Al4 Au0 2.584507 1_656
Al4 Au0 2.584507 1_665
Al5 Si1 2.542822 1_555
Al5 Au0 2.584507 1_655
Al5 Au0 2.584507 1_565
Al5 Au0 2.584507 1_556
