# generated using pymatgen
data_Yb(DyS2)2
_symmetry_space_group_name_H-M   'P 1'
_cell_length_a   7.22533304
_cell_length_b   7.22533304
_cell_length_c   7.22533304
_cell_angle_alpha   109.40677767
_cell_angle_beta   109.40677767
_cell_angle_gamma   109.60018358
_symmetry_Int_Tables_number   1
_chemical_formula_structural   Yb(DyS2)2
_chemical_formula_sum   'Yb2 Dy4 S8'
_cell_volume   290.36887933
_cell_formula_units_Z   2
loop_
 _symmetry_equiv_pos_site_id
 _symmetry_equiv_pos_as_xyz
  1  'x, y, z'
loop_
 _atom_site_type_symbol
 _atom_site_label
 _atom_site_symmetry_multiplicity
 _atom_site_fract_x
 _atom_site_fract_y
 _atom_site_fract_z
 _atom_site_occupancy
  Yb  Yb0  1  0.75000000  0.25000000  0.50000000  1
  Yb  Yb1  1  0.50000000  0.50000000  0.00000000  1
  Dy  Dy0  1  0.99755000  0.37500000  0.12255000  1
  Dy  Dy1  1  0.62500000  0.74755000  0.62255000  1
  Dy  Dy2  1  0.25245000  0.87500000  0.87745000  1
  Dy  Dy3  1  0.12500000  0.00245000  0.37745000  1
  S  S0  1  0.51630200  0.11992500  0.75020300  1
  S  S1  1  0.01609900  0.11972300  0.74979700  1
  S  S2  1  0.88027700  0.63007500  0.89637700  1
  S  S3  1  0.36992500  0.26630200  0.25020300  1
  S  S4  1  0.23390100  0.48369800  0.60362300  1
  S  S5  1  0.36972300  0.76609900  0.24979700  1
  S  S6  1  0.88007500  0.63027700  0.39637700  1
  S  S7  1  0.73369800  0.98390100  0.10362300  1
loop_
_geom_bond_atom_site_label_1
_geom_bond_atom_site_label_2
_geom_bond_distance
_geom_bond_site_symmetry_2
Dy0 S7 2.755724 1_545
Dy0 S5 2.755728 1_655
Dy0 S6 2.788939 1_555
Dy0 S1 2.788940 1_654
Dy0 S0 2.985657 1_554
Dy0 S2 2.985659 1_554
Dy0 S3 2.992733 1_655
Dy0 S4 2.992733 1_655
Dy1 S4 2.755724 1_555
Dy1 S1 2.755728 1_665
Dy1 S2 2.788939 1_555
Dy1 S5 2.788940 1_555
Dy1 S3 2.985657 1_555
Dy1 S6 2.985659 1_555
Dy1 S0 2.992733 1_565
Dy1 S7 2.992733 1_556
Dy2 S0 2.755724 1_565
Dy2 S2 2.755729 1_455
Dy2 S4 2.788942 1_555
Dy2 S3 2.788942 1_566
Dy2 S7 2.985657 1_556
Dy2 S5 2.985657 1_556
Dy2 S6 2.992732 1_455
Dy2 S1 2.992739 1_565
Dy3 S3 2.755724 1_555
Dy3 S6 2.755729 1_445
Dy3 S0 2.788942 1_555
Dy3 S7 2.788942 1_445
Dy3 S4 2.985657 1_555
Dy3 S1 2.985657 1_555
Dy3 S2 2.992732 1_444
Dy3 S5 2.992739 1_545
S0 Yb1 2.806662 1_556
S0 Yb0 3.015885 1_555
S1 Yb0 2.806656 1_455
S1 Yb1 3.015882 1_556
S2 Yb0 2.806664 1_555
S2 Yb1 3.015878 1_556
S3 Yb0 2.806662 1_555
S3 Yb1 3.015885 1_555
S4 Yb1 2.806662 1_556
S4 Yb0 3.015885 1_455
S5 Yb1 2.806656 1_555
S5 Yb0 3.015882 1_565
S6 Yb1 2.806664 1_555
S6 Yb0 3.015878 1_555
S7 Yb0 2.806662 1_565
S7 Yb1 3.015885 1_555
