# generated using pymatgen
data_NaLaS2
_symmetry_space_group_name_H-M   'P 1'
_cell_length_a   7.33126565
_cell_length_b   7.33126565
_cell_length_c   7.33126565
_cell_angle_alpha   133.45369756
_cell_angle_beta   133.45369756
_cell_angle_gamma   67.94253616
_symmetry_Int_Tables_number   1
_chemical_formula_structural   NaLaS2
_chemical_formula_sum   'Na2 La2 S4'
_cell_volume   204.06338793
_cell_formula_units_Z   2
loop_
 _symmetry_equiv_pos_site_id
 _symmetry_equiv_pos_as_xyz
  1  'x, y, z'
loop_
 _atom_site_type_symbol
 _atom_site_label
 _atom_site_symmetry_multiplicity
 _atom_site_fract_x
 _atom_site_fract_y
 _atom_site_fract_z
 _atom_site_occupancy
  Na  Na0  1  -0.00000000  -0.00000000  -0.00000000  1
  Na  Na1  1  0.75000000  0.25000000  0.50000000  1
  La  La0  1  0.25000000  0.75000000  0.50000000  1
  La  La1  1  0.50000000  0.50000000  -0.00000000  1
  S  S0  1  0.48692124  0.98692124  0.50000000  1
  S  S1  1  0.01307876  0.51307876  0.50000000  1
  S  S2  1  0.73692124  0.73692124  0.00000000  1
  S  S3  1  0.26307876  0.26307876  -0.00000000  1
loop_
_geom_bond_atom_site_label_1
_geom_bond_atom_site_label_2
_geom_bond_distance
_geom_bond_site_symmetry_2
Na0 S1 2.901056 1_555
Na0 S0 2.901056 1_444
Na0 S0 2.901056 1_545
Na0 S1 2.901056 1_544
Na0 S2 3.199011 1_445
Na0 S3 3.199011 1_555
Na1 S3 2.901056 1_555
Na1 S2 2.901056 1_545
Na1 S3 2.901056 1_656
Na1 S2 2.901056 1_556
Na1 S0 3.199011 1_545
Na1 S1 3.199011 1_655
La0 S1 2.880938 1_555
La0 S0 2.880938 1_555
La0 S3 2.901056 1_555
La0 S3 2.901056 1_566
La0 S2 2.901056 1_455
La0 S2 2.901056 1_556
La1 S3 2.880938 1_555
La1 S2 2.880938 1_555
La1 S0 2.901056 1_555
La1 S1 2.901056 1_554
La1 S0 2.901056 1_544
La1 S1 2.901056 1_655
