# generated using pymatgen
data_Nb2CoO6
_symmetry_space_group_name_H-M   'P 1'
_cell_length_a   5.72325976
_cell_length_b   10.11524199
_cell_length_c   7.87265078
_cell_angle_alpha   103.66080255
_cell_angle_beta   95.01009315
_cell_angle_gamma   100.27440009
_symmetry_Int_Tables_number   1
_chemical_formula_structural   Nb2CoO6
_chemical_formula_sum   'Nb8 Co4 O24'
_cell_volume   431.75731353
_cell_formula_units_Z   4
loop_
 _symmetry_equiv_pos_site_id
 _symmetry_equiv_pos_as_xyz
  1  'x, y, z'
loop_
 _atom_site_type_symbol
 _atom_site_label
 _atom_site_symmetry_multiplicity
 _atom_site_fract_x
 _atom_site_fract_y
 _atom_site_fract_z
 _atom_site_occupancy
  Nb  Nb0  1  0.33341400  0.99998400  0.33331800  1
  Nb  Nb1  1  0.83329900  0.49999700  0.83329700  1
  Nb  Nb2  1  0.58341300  0.25013300  0.08390600  1
  Nb  Nb3  1  0.08324500  0.74990600  0.58272500  1
  Nb  Nb4  1  0.48897700  0.49017400  0.50934300  1
  Nb  Nb5  1  0.98920600  0.99016100  0.00903200  1
  Nb  Nb6  1  0.67756700  0.00986100  0.65769200  1
  Nb  Nb7  1  0.17765000  0.50986200  0.15735700  1
  Co  Co0  1  0.41970700  0.75189100  0.91677200  1
  Co  Co1  1  0.24705400  0.24806700  0.74999600  1
  Co  Co2  1  0.91914700  0.25164000  0.41558000  1
  Co  Co3  1  0.74753000  0.74835300  0.25113700  1
  O  O0  1  0.91388200  0.14849300  0.61828800  1
  O  O1  1  0.41345000  0.64823500  0.11792200  1
  O  O2  1  0.25317900  0.35170100  0.54878100  1
  O  O3  1  0.75274000  0.85149400  0.04839400  1
  O  O4  1  0.26109900  0.15017500  0.96173600  1
  O  O5  1  0.76115300  0.64985500  0.46126700  1
  O  O6  1  0.90548100  0.35013700  0.20533900  1
  O  O7  1  0.40547100  0.84984900  0.70485800  1
  O  O8  1  0.57383400  0.14931100  0.27487600  1
  O  O9  1  0.07433400  0.64987300  0.77544600  1
  O  O10  1  0.59244200  0.35014900  0.89121900  1
  O  O11  1  0.09287700  0.85070500  0.39177700  1
  O  O12  1  0.43060300  0.40280200  0.23610600  1
  O  O13  1  0.93048400  0.90279500  0.73617700  1
  O  O14  1  0.73614900  0.09719100  0.93050000  1
  O  O15  1  0.23604000  0.59718400  0.43056100  1
  O  O16  1  0.06854200  0.09303800  0.26430000  1
  O  O17  1  0.56914700  0.59301800  0.76366600  1
  O  O18  1  0.75987100  0.40232800  0.57348200  1
  O  O19  1  0.25900900  0.90236000  0.07387700  1
  O  O20  1  0.40756600  0.09762100  0.59280000  1
  O  O21  1  0.90676400  0.59769100  0.09316000  1
  O  O22  1  0.09754500  0.40701400  0.90296400  1
  O  O23  1  0.59812900  0.90695200  0.40234800  1
loop_
_geom_bond_atom_site_label_1
_geom_bond_atom_site_label_2
_geom_bond_distance
_geom_bond_site_symmetry_2
Nb0 O19 2.018320 1_555
Nb0 O20 2.018581 1_565
Nb0 O23 2.020535 1_555
Nb0 O8 2.020889 1_565
Nb0 O11 2.021001 1_555
Nb0 O16 2.021380 1_565
Nb1 O17 2.019344 1_555
Nb1 O22 2.019614 1_655
Nb1 O18 2.020814 1_555
Nb1 O21 2.021207 1_556
Nb1 O10 2.023998 1_555
Nb1 O9 2.024511 1_655
Nb2 O6 1.976147 1_555
Nb2 O4 1.978804 1_554
Nb2 O8 2.005516 1_555
Nb2 O10 2.011786 1_554
Nb2 O12 2.091939 1_555
Nb2 O14 2.097698 1_554
Nb3 O5 1.976422 1_455
Nb3 O7 1.978285 1_555
Nb3 O11 2.005207 1_555
Nb3 O9 2.012136 1_555
Nb3 O15 2.092128 1_555
Nb3 O13 2.097580 1_455
Nb4 O2 1.866510 1_555
Nb4 O17 1.996737 1_555
Nb4 O18 2.003727 1_555
Nb4 O15 2.090745 1_555
Nb4 O12 2.095493 1_555
Nb4 O5 2.161687 1_555
Nb5 O3 1.869872 1_555
Nb5 O19 1.999870 1_655
Nb5 O16 2.002989 1_665
Nb5 O14 2.090705 1_564
Nb5 O13 2.092728 1_554
Nb5 O4 2.160399 1_664
Nb6 O0 1.869251 1_555
Nb6 O20 2.000652 1_555
Nb6 O23 2.003610 1_545
Nb6 O13 2.090224 1_545
Nb6 O14 2.092339 1_555
Nb6 O7 2.160663 1_545
Nb7 O1 1.865839 1_555
Nb7 O22 1.997202 1_554
Nb7 O21 2.003711 1_455
Nb7 O12 2.091081 1_555
Nb7 O15 2.095179 1_555
Nb7 O6 2.161650 1_455
Co0 O3 2.049060 1_556
Co0 O1 2.095036 1_556
Co0 O19 2.121570 1_556
Co0 O17 2.126586 1_555
Co0 O9 2.134452 1_555
Co0 O7 2.134867 1_555
Co1 O0 2.049844 1_455
Co1 O2 2.095339 1_555
Co1 O20 2.121089 1_555
Co1 O22 2.126877 1_555
Co1 O4 2.133156 1_555
Co1 O10 2.134382 1_555
Co2 O2 2.058431 1_655
Co2 O0 2.102355 1_555
Co2 O16 2.118477 1_655
Co2 O18 2.120895 1_555
Co2 O6 2.126599 1_555
Co2 O8 2.133205 1_555
Co3 O1 2.058803 1_555
Co3 O3 2.102559 1_555
Co3 O23 2.118249 1_555
Co3 O21 2.120844 1_555
Co3 O5 2.125819 1_555
Co3 O11 2.133243 1_655
