# generated using pymatgen
data_Sb3Pd8
_symmetry_space_group_name_H-M   'P 1'
_cell_length_a   15.67567469
_cell_length_b   15.67567469
_cell_length_c   15.67567447
_cell_angle_alpha   28.82334588
_cell_angle_beta   28.82334588
_cell_angle_gamma   28.82334603
_symmetry_Int_Tables_number   1
_chemical_formula_structural   Sb3Pd8
_chemical_formula_sum   'Sb12 Pd32'
_cell_volume   791.69063510
_cell_formula_units_Z   4
loop_
 _symmetry_equiv_pos_site_id
 _symmetry_equiv_pos_as_xyz
  1  'x, y, z'
loop_
 _atom_site_type_symbol
 _atom_site_label
 _atom_site_symmetry_multiplicity
 _atom_site_fract_x
 _atom_site_fract_y
 _atom_site_fract_z
 _atom_site_occupancy
  Sb  Sb0  1  0.06865800  0.06865800  0.06865800  1
  Sb  Sb1  1  0.56865800  0.56865800  0.56865800  1
  Sb  Sb2  1  0.42290300  0.42290300  0.42290300  1
  Sb  Sb3  1  0.92290300  0.92290300  0.92290300  1
  Sb  Sb4  1  0.79230400  0.79230400  0.79230400  1
  Sb  Sb5  1  0.29230400  0.29230400  0.29230400  1
  Sb  Sb6  1  0.41113300  0.82284600  0.20336600  1
  Sb  Sb7  1  0.82284600  0.20336600  0.41113300  1
  Sb  Sb8  1  0.20336600  0.41113300  0.82284600  1
  Sb  Sb9  1  0.32284600  0.91113300  0.70336600  1
  Sb  Sb10  1  0.91113300  0.70336600  0.32284600  1
  Sb  Sb11  1  0.70336600  0.32284600  0.91113300  1
  Pd  Pd0  1  0.32611400  0.61125900  0.05435100  1
  Pd  Pd1  1  0.61125900  0.05435100  0.32611400  1
  Pd  Pd2  1  0.05435100  0.32611400  0.61125900  1
  Pd  Pd3  1  0.11125900  0.82611400  0.55435100  1
  Pd  Pd4  1  0.82611400  0.55435100  0.11125900  1
  Pd  Pd5  1  0.55435100  0.11125900  0.82611400  1
  Pd  Pd6  1  0.00856000  0.00856000  0.00856000  1
  Pd  Pd7  1  0.50856000  0.50856000  0.50856000  1
  Pd  Pd8  1  0.67662500  0.67662500  0.67662500  1
  Pd  Pd9  1  0.17662500  0.17662500  0.17662500  1
  Pd  Pd10  1  0.72617900  0.37499700  0.01511300  1
  Pd  Pd11  1  0.37499700  0.01511300  0.72617900  1
  Pd  Pd12  1  0.01511300  0.72617900  0.37499700  1
  Pd  Pd13  1  0.87499700  0.22617900  0.51511300  1
  Pd  Pd14  1  0.22617900  0.51511300  0.87499700  1
  Pd  Pd15  1  0.51511300  0.87499700  0.22617900  1
  Pd  Pd16  1  0.39490900  0.71296700  0.08605700  1
  Pd  Pd17  1  0.71296700  0.08605700  0.39490900  1
  Pd  Pd18  1  0.08605700  0.39490900  0.71296700  1
  Pd  Pd19  1  0.21296700  0.89490900  0.58605700  1
  Pd  Pd20  1  0.89490900  0.58605700  0.21296700  1
  Pd  Pd21  1  0.58605700  0.21296700  0.89490900  1
  Pd  Pd22  1  0.36574000  0.36574000  0.36574000  1
  Pd  Pd23  1  0.86574000  0.86574000  0.86574000  1
  Pd  Pd24  1  0.73662400  0.73662400  0.73662400  1
  Pd  Pd25  1  0.23662400  0.23662400  0.23662400  1
  Pd  Pd26  1  0.79799400  0.41280800  0.09519600  1
  Pd  Pd27  1  0.41280800  0.09519600  0.79799400  1
  Pd  Pd28  1  0.09519600  0.79799400  0.41280800  1
  Pd  Pd29  1  0.91280800  0.29799400  0.59519600  1
  Pd  Pd30  1  0.29799400  0.59519600  0.91280800  1
  Pd  Pd31  1  0.59519600  0.91280800  0.29799400  1
loop_
_geom_bond_atom_site_label_1
_geom_bond_atom_site_label_2
_geom_bond_distance
_geom_bond_site_symmetry_2
Pd0 Sb9 2.669231 1_554
Pd0 Pd22 2.689001 1_555
Pd0 Sb5 2.773697 1_555
Pd0 Pd30 2.840399 1_554
Pd0 Sb11 2.850609 1_554
Pd0 Pd6 2.861349 1_565
Pd0 Sb10 2.886533 1_455
Pd0 Pd8 2.920120 1_554
Pd0 Pd16 3.048315 1_555
Pd0 Pd12 3.133201 1_555
Pd0 Pd10 3.155803 1_555
Pd1 Sb10 2.669231 1_545
Pd1 Pd22 2.689001 1_555
Pd1 Sb5 2.773697 1_555
Pd1 Pd31 2.840399 1_545
Pd1 Sb9 2.850609 1_545
Pd1 Pd6 2.861349 1_655
Pd1 Sb11 2.886533 1_554
Pd1 Pd8 2.920120 1_545
Pd1 Pd17 3.048315 1_555
Pd1 Pd10 3.133201 1_555
Pd1 Pd11 3.155803 1_555
Pd2 Sb11 2.669231 1_455
Pd2 Pd22 2.689001 1_555
Pd2 Sb5 2.773697 1_555
Pd2 Pd29 2.840399 1_455
Pd2 Sb10 2.850609 1_455
Pd2 Pd6 2.861349 1_556
Pd2 Sb9 2.886533 1_545
Pd2 Pd8 2.920120 1_455
Pd3 Sb6 2.669231 1_555
Pd3 Sb4 2.773697 1_455
Pd3 Sb7 2.850609 1_465
Pd3 Pd7 2.861349 1_555
Pd3 Sb8 2.886533 1_555
Pd3 Pd9 2.920120 1_565
Pd4 Sb7 2.669231 1_555
Pd4 Sb4 2.773697 1_554
Pd4 Sb8 2.850609 1_654
Pd4 Pd7 2.861349 1_555
Pd4 Sb6 2.886533 1_555
Pd4 Pd9 2.920120 1_655
Pd5 Sb8 2.669231 1_555
Pd5 Sb4 2.773697 1_545
Pd5 Sb6 2.850609 1_546
Pd5 Pd7 2.861349 1_555
Pd5 Sb7 2.886533 1_555
Pd5 Pd9 2.920120 1_556
Pd6 Sb0 2.707002 1_555
Pd6 Sb9 2.794894 1_544
Pd6 Sb11 2.794895 1_454
Pd6 Sb10 2.794895 1_445
Pd7 Sb1 2.707002 1_555
Pd7 Sb6 2.794894 1_555
Pd7 Sb7 2.794895 1_555
Pd7 Sb8 2.794895 1_555
Pd8 Sb10 2.710978 1_555
Pd8 Sb9 2.710978 1_555
Pd8 Sb11 2.710978 1_555
Pd9 Sb8 2.710978 1_554
Pd9 Sb6 2.710978 1_545
Pd9 Sb7 2.710978 1_455
Pd10 Sb11 2.705804 1_554
Pd10 Pd22 2.789010 1_555
Pd10 Pd8 2.817806 1_554
Pd10 Pd18 2.834057 1_654
Pd10 Pd26 2.853721 1_555
Pd10 Pd24 2.868959 1_554
Pd10 Pd17 2.869843 1_555
Pd10 Sb0 2.871671 1_655
Pd10 Pd16 2.875622 1_555
Pd10 Pd6 2.878203 1_655
Pd11 Sb9 2.705804 1_545
Pd11 Pd22 2.789010 1_555
Pd11 Pd8 2.817806 1_545
Pd11 Pd16 2.834057 1_546
Pd11 Pd27 2.853721 1_555
Pd11 Pd24 2.868959 1_545
Pd11 Pd18 2.869843 1_555
Pd11 Sb0 2.871671 1_556
Pd11 Pd17 2.875622 1_555
Pd11 Pd6 2.878203 1_556
Pd11 Pd2 3.133201 1_555
Pd12 Sb10 2.705804 1_455
Pd12 Pd22 2.789010 1_555
Pd12 Pd8 2.817806 1_455
Pd12 Pd17 2.834057 1_465
Pd12 Pd28 2.853721 1_555
Pd12 Pd24 2.868959 1_455
Pd12 Pd16 2.869843 1_555
Pd12 Sb0 2.871671 1_565
Pd12 Pd18 2.875622 1_555
Pd12 Pd6 2.878202 1_565
Pd12 Pd2 3.155803 1_555
Pd13 Sb7 2.705804 1_555
Pd13 Pd23 2.789010 1_545
Pd13 Pd9 2.817806 1_655
Pd13 Pd20 2.834057 1_555
Pd13 Pd29 2.853721 1_555
Pd13 Pd25 2.868959 1_655
Pd13 Pd21 2.869843 1_555
Pd13 Sb1 2.871671 1_555
Pd13 Pd19 2.875622 1_645
Pd13 Pd7 2.878203 1_555
Pd13 Pd5 3.133201 1_555
Pd13 Pd3 3.155803 1_645
Pd14 Sb8 2.705804 1_555
Pd14 Pd23 2.789010 1_455
Pd14 Pd9 2.817806 1_556
Pd14 Pd21 2.834057 1_555
Pd14 Pd30 2.853721 1_555
Pd14 Pd25 2.868959 1_556
Pd14 Pd19 2.869843 1_555
Pd14 Sb1 2.871671 1_555
Pd14 Pd20 2.875622 1_456
Pd14 Pd7 2.878202 1_555
Pd14 Pd3 3.133201 1_555
Pd14 Pd4 3.155803 1_456
Pd15 Sb6 2.705804 1_555
Pd15 Pd23 2.789010 1_554
Pd15 Pd9 2.817806 1_565
Pd15 Pd19 2.834057 1_555
Pd15 Pd31 2.853721 1_555
Pd15 Pd25 2.868959 1_565
Pd15 Pd20 2.869843 1_555
Pd15 Sb1 2.871671 1_555
Pd15 Pd21 2.875622 1_564
Pd15 Pd7 2.878203 1_555
Pd15 Pd4 3.133201 1_555
Pd15 Pd5 3.155803 1_564
Pd16 Sb0 2.670638 1_565
Pd16 Sb2 2.691322 1_555
Pd16 Pd28 2.984738 1_555
Pd16 Pd27 3.112438 1_564
Pd16 Pd26 3.224171 1_555
Pd17 Sb0 2.670638 1_655
Pd17 Sb2 2.691322 1_555
Pd17 Pd26 2.984738 1_555
Pd17 Pd28 3.112438 1_645
Pd17 Pd27 3.224171 1_555
Pd18 Sb0 2.670638 1_556
Pd18 Sb2 2.691322 1_555
Pd18 Pd27 2.984738 1_555
Pd18 Pd2 3.048315 1_555
Pd18 Pd26 3.112438 1_456
Pd18 Pd28 3.224171 1_555
Pd19 Sb1 2.670638 1_555
Pd19 Sb3 2.691322 1_455
Pd19 Pd30 2.984738 1_555
Pd19 Pd3 3.048315 1_555
Pd19 Pd31 3.112438 1_555
Pd19 Pd29 3.224171 1_465
Pd20 Sb1 2.670638 1_555
Pd20 Sb3 2.691322 1_554
Pd20 Pd31 2.984738 1_555
Pd20 Pd4 3.048315 1_555
Pd20 Pd29 3.112438 1_555
Pd20 Pd30 3.224171 1_654
Pd21 Sb1 2.670638 1_555
Pd21 Sb3 2.691322 1_545
Pd21 Pd29 2.984738 1_555
Pd21 Pd5 3.048315 1_555
Pd21 Pd30 3.112438 1_555
Pd21 Pd31 3.224171 1_546
Pd22 Sb2 2.574800 1_555
Pd23 Sb3 2.574800 1_555
Pd23 Pd3 2.689001 1_655
Pd23 Pd5 2.689001 1_565
Pd23 Pd4 2.689001 1_556
Pd24 Sb4 2.508001 1_555
Pd24 Pd8 2.702542 1_555
Pd24 Pd26 3.034840 1_556
Pd24 Pd27 3.034841 1_565
Pd24 Pd28 3.034841 1_655
Pd25 Sb5 2.508001 1_555
Pd25 Pd9 2.702542 1_555
Pd25 Pd29 3.034840 1_455
Pd25 Pd31 3.034841 1_545
Pd25 Pd30 3.034841 1_554
Pd26 Sb2 2.802661 1_555
Pd26 Sb0 2.830403 1_655
Pd26 Pd4 2.840399 1_555
Pd26 Sb7 2.847280 1_555
Pd26 Sb4 2.874173 1_554
Pd26 Sb8 3.312832 1_654
Pd27 Sb2 2.802661 1_555
Pd27 Sb0 2.830403 1_556
Pd27 Pd5 2.840399 1_555
Pd27 Sb8 2.847280 1_555
Pd27 Sb4 2.874173 1_545
Pd27 Sb6 3.312832 1_546
Pd28 Sb2 2.802661 1_555
Pd28 Sb0 2.830403 1_565
Pd28 Pd3 2.840399 1_555
Pd28 Sb6 2.847280 1_555
Pd28 Sb4 2.874173 1_455
Pd28 Sb7 3.312832 1_465
Pd29 Sb3 2.802661 1_545
Pd29 Sb1 2.830403 1_555
Pd29 Sb11 2.847280 1_555
Pd29 Sb5 2.874173 1_655
Pd29 Sb10 3.312832 1_555
Pd30 Sb3 2.802661 1_455
Pd30 Sb1 2.830403 1_555
Pd30 Sb9 2.847280 1_555
Pd30 Sb5 2.874173 1_556
Pd30 Sb11 3.312832 1_555
Pd31 Sb3 2.802661 1_554
Pd31 Sb1 2.830403 1_555
Pd31 Sb10 2.847280 1_555
Pd31 Sb5 2.874173 1_565
Pd31 Sb9 3.312832 1_555
