# generated using pymatgen
data_Ba6Ti2Nb10Si8O51
_symmetry_space_group_name_H-M   'P 1'
_cell_length_a   9.09725100
_cell_length_b   12.07919712
_cell_length_c   12.09491806
_cell_angle_alpha   82.68957949
_cell_angle_beta   112.01435224
_cell_angle_gamma   111.97864860
_symmetry_Int_Tables_number   1
_chemical_formula_structural   Ba6Ti2Nb10Si8O51
_chemical_formula_sum   'Ba6 Ti2 Nb10 Si8 O51'
_cell_volume   1142.49497287
_cell_formula_units_Z   1
loop_
 _symmetry_equiv_pos_site_id
 _symmetry_equiv_pos_as_xyz
  1  'x, y, z'
loop_
 _atom_site_type_symbol
 _atom_site_label
 _atom_site_symmetry_multiplicity
 _atom_site_fract_x
 _atom_site_fract_y
 _atom_site_fract_z
 _atom_site_occupancy
  Ba  Ba0  1  0.00037500  0.94734300  0.44541500  1
  Ba  Ba1  1  0.59606100  0.55127500  0.05018300  1
  Ba  Ba2  1  0.41038200  0.75273700  0.25172100  1
  Ba  Ba3  1  0.99993900  0.44970800  0.94847200  1
  Ba  Ba4  1  0.58878700  0.04609100  0.54649800  1
  Ba  Ba5  1  0.40415400  0.25208000  0.75216800  1
  Ti  Ti0  1  0.00047000  0.47760500  0.27432800  1
  Ti  Ti1  1  0.00048100  0.77379200  0.98204500  1
  Nb  Nb0  1  0.76212900  0.88315200  0.11022500  1
  Nb  Nb1  1  0.76618000  0.62705100  0.36545500  1
  Nb  Nb2  1  0.23891300  0.24983400  0.99025200  1
  Nb  Nb3  1  0.00038300  0.00669400  0.75554200  1
  Nb  Nb4  1  0.99939800  0.25432000  0.51079700  1
  Nb  Nb5  1  0.75727700  0.38896800  0.61442400  1
  Nb  Nb6  1  0.76160600  0.13069400  0.87096600  1
  Nb  Nb7  1  0.23436900  0.74378800  0.48191200  1
  Nb  Nb8  1  0.23784400  0.00228200  0.22883500  1
  Nb  Nb9  1  0.24206600  0.50997300  0.73544500  1
  Si  Si0  1  0.67508600  0.27406500  0.07137100  1
  Si  Si1  1  0.32592500  0.43602800  0.23323800  1
  Si  Si2  1  0.66998200  0.76610800  0.56709900  1
  Si  Si3  1  0.66901400  0.06473000  0.26897700  1
  Si  Si4  1  0.33084700  0.93136000  0.73249500  1
  Si  Si5  1  0.33114700  0.23055000  0.43480100  1
  Si  Si6  1  0.67434400  0.56894300  0.77686300  1
  Si  Si7  1  0.32556200  0.73072400  0.93899900  1
  O  O0  1  0.82710900  0.40423400  0.11910600  1
  O  O1  1  0.99971900  0.96994900  0.20770300  1
  O  O2  1  0.83033900  0.78687800  0.03528600  1
  O  O3  1  0.83113800  0.53286100  0.28715200  1
  O  O4  1  0.00005900  0.70482900  0.47293500  1
  O  O5  1  0.49557200  0.29785500  0.01865500  1
  O  O6  1  0.76693200  0.74791000  0.25097200  1
  O  O7  1  0.99941300  0.35360900  0.36548800  1
  O  O8  1  0.00211200  0.13650000  0.63837300  1
  O  O9  1  0.69572800  0.95042500  0.23092500  1
  O  O10  1  0.50814200  0.76537000  0.05028900  1
  O  O11  1  0.69573400  0.72885900  0.45289600  1
  O  O12  1  0.50715200  0.54757300  0.26818500  1
  O  O13  1  0.81796900  0.89704500  0.61411800  1
  O  O14  1  0.29861600  0.38526500  0.10482300  1
  O  O15  1  0.81670600  0.11210300  0.39980400  1
  O  O16  1  0.67548400  0.17168100  0.17252300  1
  O  O17  1  0.82311900  0.02844700  0.79320800  1
  O  O18  1  0.99964700  0.47034800  0.70718400  1
  O  O19  1  0.82267800  0.29273200  0.53214300  1
  O  O20  1  0.00065500  0.20464700  0.97304700  1
  O  O21  1  0.48864400  0.01044900  0.29261000  1
  O  O22  1  0.17494000  0.49075700  0.20670100  1
  O  O23  1  0.48989600  0.78922700  0.51426400  1
  O  O24  1  0.76759400  0.24792600  0.75283600  1
  O  O25  1  0.72234100  0.49880500  0.49832500  1
  O  O26  1  0.16846400  0.87271200  0.11911400  1
  O  O27  1  0.16820900  0.61665200  0.37177700  1
  O  O28  1  0.27718700  0.13601200  0.13598200  1
  O  O29  1  0.99999100  0.86269800  0.85687900  1
  O  O30  1  0.23292200  0.86449400  0.36745900  1
  O  O31  1  0.69738800  0.45229500  0.73764700  1
  O  O32  1  0.51080300  0.26853900  0.55009900  1
  O  O33  1  0.50929600  0.04648900  0.77173000  1
  O  O34  1  0.69896000  0.23528700  0.95585400  1
  O  O35  1  0.30584800  0.10280100  0.38440500  1
  O  O36  1  0.30776300  0.88238700  0.60556200  1
  O  O37  1  0.82593800  0.61667500  0.90697000  1
  O  O38  1  0.32584700  0.33354700  0.33436100  1
  O  O39  1  0.67666100  0.66975200  0.67449100  1
  O  O40  1  0.49322400  0.51665200  0.79956200  1
  O  O41  1  0.18341500  0.20432800  0.49130300  1
  O  O42  1  0.18211200  0.98752800  0.70493300  1
  O  O43  1  0.72378900  0.99692300  0.99736400  1
  O  O44  1  0.17914500  0.38209900  0.62058300  1
  O  O45  1  0.18058000  0.11666500  0.88278100  1
  O  O46  1  0.27672400  0.63761700  0.63743200  1
  O  O47  1  0.23280700  0.36236700  0.86732300  1
  O  O48  1  0.29678500  0.60120300  0.88773100  1
  O  O49  1  0.32430600  0.83077800  0.83573500  1
  O  O50  1  0.17590100  0.70514400  0.99466900  1
loop_
_geom_bond_atom_site_label_1
_geom_bond_atom_site_label_2
_geom_bond_distance
_geom_bond_site_symmetry_2
Ba0 O1 2.851210 1_455
Ba0 O4 2.904876 1_555
Ba0 O15 2.928415 1_465
Ba0 O41 2.931420 1_565
Ba0 O42 2.952628 1_555
Ba0 O13 2.958775 1_455
Ba0 O35 3.011965 1_565
Ba0 O9 3.012476 1_455
Ba0 O11 3.050613 1_455
Ba0 O36 3.063031 1_555
Ba0 O30 3.112270 1_555
Ba0 O6 3.116456 1_455
Ba1 O40 2.853480 1_554
Ba1 O2 2.879454 1_555
Ba1 O5 2.879686 1_555
Ba1 O3 2.904532 1_555
Ba1 O48 2.924710 1_554
Ba1 O14 2.953253 1_555
Ba1 O10 2.979509 1_555
Ba1 O37 3.021341 1_554
Ba1 O12 3.024929 1_555
Ba1 O0 3.061312 1_555
Ba1 O6 3.135262 1_555
Ba1 O47 3.343599 1_554
Ba2 O10 2.859711 1_555
Ba2 O9 2.863682 1_555
Ba2 O12 2.886561 1_555
Ba2 O11 2.896380 1_555
Ba2 O26 2.943751 1_555
Ba2 O27 2.957082 1_555
Ba2 O21 2.985099 1_565
Ba2 O50 3.018589 1_554
Ba2 O23 3.032567 1_555
Ba2 O22 3.064139 1_555
Ba2 O30 3.192890 1_555
Ba2 O6 3.269298 1_555
Ba3 O37 2.891638 1_555
Ba3 O18 2.896291 1_555
Ba3 O50 2.909624 1_655
Ba3 O0 2.920741 1_556
Ba3 O22 2.934409 1_656
Ba3 O48 2.937209 1_655
Ba3 O20 2.939368 1_655
Ba3 O31 2.976785 1_555
Ba3 O14 2.986870 1_656
Ba3 O34 3.004904 1_555
Ba3 O24 3.141553 1_555
Ba3 O47 3.171665 1_655
Ba4 O35 2.851852 1_555
Ba4 O36 2.860427 1_545
Ba4 O21 2.896630 1_555
Ba4 O23 2.922961 1_545
Ba4 O19 2.972150 1_555
Ba4 O17 2.983831 1_555
Ba4 O32 3.033968 1_555
Ba4 O15 3.040272 1_555
Ba4 O13 3.068175 1_545
Ba4 O33 3.070312 1_555
Ba4 O24 3.217869 1_555
Ba4 O30 3.258728 1_545
Ba4 O8 3.266299 1_655
Ba5 O31 2.899993 1_555
Ba5 O32 2.909230 1_555
Ba5 O44 2.918475 1_555
Ba5 O45 2.927262 1_555
Ba5 O33 2.932037 1_555
Ba5 O34 2.937662 1_555
Ba5 O41 3.027609 1_555
Ba5 O40 3.062364 1_555
Ba5 O42 3.063683 1_545
Ba5 O5 3.079902 1_556
Ba5 O47 3.130262 1_555
Ba5 O8 3.180192 1_555
Ba5 O24 3.322392 1_555
Nb0 O43 1.843380 1_554
Nb0 O2 1.946528 1_555
Nb0 O1 1.966953 1_555
Nb0 O10 2.105842 1_555
Nb0 O9 2.118214 1_555
Nb0 O6 2.204191 1_555
Nb1 O6 1.879834 1_555
Nb1 O3 1.933297 1_555
Nb1 O4 1.959728 1_655
Nb1 O12 2.091490 1_555
Nb1 O11 2.114363 1_555
Nb1 O25 2.127414 1_555
Nb2 O47 1.881939 1_555
Nb2 O20 1.960732 1_555
Nb2 O45 1.983628 1_555
Nb2 O14 2.058882 1_556
Nb2 O5 2.083701 1_556
Nb2 O28 2.097566 1_556
Nb3 O17 1.943064 1_455
Nb3 O45 1.954276 1_555
Nb3 O8 1.974792 1_555
Nb3 O29 1.995925 1_445
Nb3 O13 2.058466 1_445
Nb3 O42 2.059772 1_545
Nb4 O19 1.940755 1_555
Nb4 O44 1.955502 1_655
Nb4 O8 1.961078 1_655
Nb4 O7 1.997709 1_555
Nb4 O15 2.071865 1_555
Nb4 O41 2.076414 1_655
Nb5 O25 1.827564 1_555
Nb5 O18 1.972409 1_555
Nb5 O19 1.987879 1_555
Nb5 O32 2.070691 1_555
Nb5 O31 2.077015 1_555
Nb5 O24 2.233816 1_555
Nb6 O24 1.880245 1_555
Nb6 O20 1.966042 1_655
Nb6 O17 1.982551 1_555
Nb6 O33 2.059489 1_555
Nb6 O34 2.069501 1_555
Nb6 O43 2.101426 1_545
Nb7 O30 1.878662 1_555
Nb7 O27 1.929442 1_555
Nb7 O4 1.966092 1_555
Nb7 O23 2.067805 1_555
Nb7 O36 2.130059 1_555
Nb7 O46 2.131657 1_555
Nb8 O28 1.845427 1_555
Nb8 O26 1.941711 1_545
Nb8 O1 1.971718 1_445
Nb8 O21 2.083721 1_555
Nb8 O35 2.131646 1_555
Nb8 O30 2.207623 1_545
Nb9 O46 1.825694 1_555
Nb9 O18 1.973800 1_455
Nb9 O44 1.982834 1_555
Nb9 O48 2.067194 1_555
Nb9 O40 2.092374 1_555
Nb9 O47 2.234906 1_555
O0 Si0 1.650148 1_555
O0 Ti0 1.988685 1_655
O2 Ti1 1.947220 1_654
O3 Ti0 1.953875 1_655
O5 Si0 1.637106 1_555
O7 Ti0 1.742407 1_655
O9 Si3 1.635230 1_565
O10 Si7 1.640968 1_554
O11 Si2 1.626317 1_555
O12 Si1 1.634610 1_555
O13 Si2 1.642707 1_555
O14 Si1 1.639850 1_555
O15 Si3 1.642435 1_555
O16 Si0 1.625186 1_555
O16 Si3 1.626162 1_555
O21 Si3 1.643981 1_555
O22 Si1 1.649807 1_555
O22 Ti0 1.991209 1_555
O23 Si2 1.637840 1_555
O26 Ti1 1.936371 1_554
O27 Ti0 1.943126 1_555
O29 Ti1 1.740661 1_655
O31 Si6 1.649232 1_555
O32 Si5 1.649022 1_555
O33 Si4 1.641678 1_545
O34 Si0 1.639769 1_556
O35 Si5 1.635249 1_555
O36 Si4 1.627099 1_555
O37 Si6 1.649067 1_555
O37 Ti1 2.012366 1_655
O38 Si5 1.625513 1_555
O38 Si1 1.625720 1_555
O39 Si6 1.622641 1_555
O39 Si2 1.629273 1_555
O40 Si6 1.644752 1_555
O41 Si5 1.639626 1_555
O42 Si4 1.641253 1_555
O48 Si7 1.649043 1_555
O49 Si7 1.623636 1_555
O49 Si4 1.629218 1_555
O50 Si7 1.649832 1_555
O50 Ti1 2.008291 1_555
