# generated using pymatgen
data_K2Re3C2Se5N2
_symmetry_space_group_name_H-M   'P 1'
_cell_length_a   13.25956700
_cell_length_b   9.80659300
_cell_length_c   12.40028434
_cell_angle_alpha   56.92748875
_cell_angle_beta   90.00000000
_cell_angle_gamma   90.00000000
_symmetry_Int_Tables_number   1
_chemical_formula_structural   K2Re3C2Se5N2
_chemical_formula_sum   'K8 Re12 C8 Se20 N8'
_cell_volume   1351.17970560
_cell_formula_units_Z   4
loop_
 _symmetry_equiv_pos_site_id
 _symmetry_equiv_pos_as_xyz
  1  'x, y, z'
loop_
 _atom_site_type_symbol
 _atom_site_label
 _atom_site_symmetry_multiplicity
 _atom_site_fract_x
 _atom_site_fract_y
 _atom_site_fract_z
 _atom_site_occupancy
  K  K0  1  0.44015900  0.73018200  0.32670100  1
  K  K1  1  0.94015900  0.26981800  0.17329900  1
  K  K2  1  0.55984100  0.26981800  0.67329900  1
  K  K3  1  0.17172200  0.09423200  0.99836000  1
  K  K4  1  0.82827800  0.90576800  0.00164000  1
  K  K5  1  0.05984100  0.73018200  0.82670100  1
  K  K6  1  0.32827800  0.09423200  0.49836000  1
  K  K7  1  0.67172200  0.90576800  0.50164000  1
  Re  Re0  1  0.02972200  0.68806800  0.49913000  1
  Re  Re1  1  0.63815400  0.55309300  0.98051000  1
  Re  Re2  1  0.86184600  0.55309300  0.48051000  1
  Re  Re3  1  0.36184600  0.44690700  0.01949000  1
  Re  Re4  1  0.47027800  0.68806800  0.99913000  1
  Re  Re5  1  0.48413200  0.61900400  0.81989200  1
  Re  Re6  1  0.51586800  0.38099600  0.18010800  1
  Re  Re7  1  0.97027800  0.31193200  0.50087000  1
  Re  Re8  1  0.52972200  0.31193200  0.00087000  1
  Re  Re9  1  0.01586800  0.61900400  0.31989200  1
  Re  Re10  1  0.98413200  0.38099600  0.68010800  1
  Re  Re11  1  0.13815400  0.44690700  0.51949000  1
  C  C0  1  0.04146800  0.74762800  0.12145100  1
  C  C1  1  0.79212100  0.60713000  0.96053100  1
  C  C2  1  0.95853200  0.25237200  0.87854900  1
  C  C3  1  0.45853200  0.74762800  0.62145100  1
  C  C4  1  0.20787900  0.39287000  0.03946900  1
  C  C5  1  0.29212100  0.39287000  0.53946900  1
  C  C6  1  0.54146800  0.25237200  0.37854900  1
  C  C7  1  0.70787900  0.60713000  0.46053100  1
  Se  Se0  1  0.14649200  0.51303400  0.69124800  1
  Se  Se1  1  0.67572400  0.25572300  0.15379200  1
  Se  Se2  1  0.35350800  0.51303400  0.19124800  1
  Se  Se3  1  0.40895100  0.15486700  0.19207200  1
  Se  Se4  1  0.61711100  0.61916200  0.15233400  1
  Se  Se5  1  0.90895100  0.84513300  0.30792800  1
  Se  Se6  1  0.11711100  0.38083800  0.34766600  1
  Se  Se7  1  0.32427600  0.74427700  0.84620800  1
  Se  Se8  1  0.59104900  0.84513300  0.80792800  1
  Se  Se9  1  0.57945500  0.05055400  0.01090700  1
  Se  Se10  1  0.88288900  0.61916200  0.65233400  1
  Se  Se11  1  0.07945500  0.94944600  0.48909300  1
  Se  Se12  1  0.09104900  0.15486700  0.69207200  1
  Se  Se13  1  0.64649200  0.48696600  0.80875200  1
  Se  Se14  1  0.17572400  0.74427700  0.34620800  1
  Se  Se15  1  0.92054500  0.05055400  0.51090700  1
  Se  Se16  1  0.85350800  0.48696600  0.30875200  1
  Se  Se17  1  0.82427600  0.25572300  0.65379200  1
  Se  Se18  1  0.42054500  0.94944600  0.98909300  1
  Se  Se19  1  0.38288900  0.38083800  0.84766600  1
  N  N0  1  0.87894000  0.63873600  0.94838600  1
  N  N1  1  0.55893100  0.17675000  0.48975500  1
  N  N2  1  0.94106900  0.17675000  0.98975500  1
  N  N3  1  0.37894000  0.36126400  0.55161400  1
  N  N4  1  0.05893100  0.82325000  0.01024500  1
  N  N5  1  0.12106000  0.36126400  0.05161400  1
  N  N6  1  0.44106900  0.82325000  0.51024500  1
  N  N7  1  0.62106000  0.63873600  0.44838600  1
loop_
_geom_bond_atom_site_label_1
_geom_bond_atom_site_label_2
_geom_bond_distance
_geom_bond_site_symmetry_2
K0 N7 2.712533 1_555
K0 N6 2.877571 1_555
K0 N3 3.242489 1_555
K0 Se18 3.520341 1_554
K0 Se14 3.522528 1_555
K0 Se2 3.546794 1_555
K0 Se3 3.565793 1_565
K0 Se4 3.732935 1_555
K1 N5 2.712533 1_655
K1 N2 2.877571 1_554
K1 N0 3.242489 1_554
K1 Se15 3.520341 1_555
K1 Se1 3.522528 1_555
K1 Se16 3.546794 1_555
K1 Se5 3.565793 1_545
K1 Se6 3.732935 1_655
K2 N3 2.712533 1_555
K2 N1 2.877571 1_555
K2 N7 3.242489 1_555
K2 Se9 3.520341 1_556
K2 Se17 3.522528 1_555
K2 Se13 3.546794 1_555
K2 Se8 3.565793 1_545
K2 Se19 3.732935 1_555
K3 N4 2.982081 1_546
K3 N5 3.103567 1_556
K3 N2 3.150483 1_455
K3 Se18 3.618364 1_545
K3 Se12 3.668546 1_555
K3 Se19 3.674135 1_555
K3 Se14 3.772268 1_546
K3 Se0 3.796350 1_555
K4 N2 2.982081 1_564
K4 N0 3.103567 1_554
K4 N4 3.150483 1_655
K4 Se9 3.618364 1_565
K4 Se5 3.668546 1_555
K4 Se4 3.674135 1_555
K4 Se17 3.772268 1_564
K4 Se16 3.796350 1_555
K5 N0 2.712533 1_455
K5 N4 2.877571 1_556
K5 N5 3.242489 1_556
K5 Se11 3.520341 1_555
K5 Se7 3.522528 1_555
K5 Se0 3.546794 1_555
K5 Se12 3.565793 1_565
K5 Se10 3.732935 1_455
K6 N6 2.982081 1_545
K6 N3 3.103567 1_555
K6 N1 3.150483 1_555
K6 Se11 3.618364 1_545
K6 Se3 3.668546 1_555
K6 Se6 3.674135 1_555
K6 Se7 3.772268 1_545
K6 Se2 3.796350 1_555
K7 N1 2.982081 1_565
K7 N7 3.103567 1_555
K7 N6 3.150483 1_555
K7 Se15 3.618364 1_565
K7 Se8 3.668546 1_555
K7 Se10 3.674135 1_555
K7 Se1 3.772268 1_565
K7 Se13 3.796350 1_555
Re0 Se10 2.540721 1_455
Re0 Se14 2.550824 1_555
Re0 Se0 2.560486 1_555
Re0 Se5 2.563702 1_455
Re0 Se11 2.583080 1_555
Re1 Se13 2.544878 1_555
Re1 Se8 2.546146 1_555
Re1 Se1 2.555494 1_556
Re1 Se4 2.558133 1_556
Re2 Se16 2.544878 1_555
Re2 Se5 2.546146 1_555
Re2 Se17 2.555494 1_555
Re2 Se10 2.558133 1_555
Re3 Se2 2.544878 1_555
Re3 Se3 2.546146 1_555
Re3 Se7 2.555494 1_554
Re3 Se19 2.558133 1_554
Re4 Se4 2.540721 1_556
Re4 Se7 2.550824 1_555
Re4 Se2 2.560486 1_556
Re4 Se8 2.563702 1_555
Re4 Se18 2.583080 1_555
Re5 Se19 2.549089 1_555
Re5 Se13 2.554519 1_555
Re5 Se7 2.558521 1_555
Re5 Se8 2.567158 1_555
Re6 Se4 2.549089 1_555
Re6 Se2 2.554519 1_555
Re6 Se1 2.558521 1_555
Re6 Se3 2.567158 1_555
Re7 Se6 2.540721 1_655
Re7 Se17 2.550824 1_555
Re7 Se16 2.560486 1_555
Re7 Se12 2.563702 1_655
Re7 Se15 2.583080 1_555
Re8 Se19 2.540721 1_554
Re8 Se1 2.550824 1_555
Re8 Se13 2.560486 1_554
Re8 Se3 2.563702 1_555
Re8 Se9 2.583080 1_555
Re9 Se6 2.549089 1_555
Re9 Se16 2.554519 1_455
Re9 Se14 2.558521 1_555
Re9 Se5 2.567158 1_455
Re10 Se10 2.549089 1_555
Re10 Se0 2.554519 1_655
Re10 Se17 2.558521 1_555
Re10 Se12 2.567158 1_655
Re11 Se0 2.544878 1_555
Re11 Se12 2.546146 1_555
Re11 Se14 2.555494 1_555
Re11 Se6 2.558133 1_555
C0 N4 1.178585 1_555
C0 Re9 2.091379 1_555
C0 K4 3.176243 1_455
C0 K3 3.347181 1_564
C1 N0 1.180264 1_555
C1 Re1 2.089683 1_555
C1 K4 3.270457 1_556
C2 N2 1.178585 1_555
C2 Re10 2.091379 1_555
C2 K3 3.176243 1_655
C2 K4 3.347181 1_546
C3 N6 1.178585 1_555
C3 Re5 2.091379 1_555
C3 K7 3.176243 1_555
C3 K6 3.347181 1_565
C4 N5 1.180264 1_555
C4 Re3 2.089683 1_555
C4 K3 3.270457 1_554
C5 N3 1.180264 1_555
C5 Re11 2.089683 1_555
C5 K6 3.270457 1_555
C6 N1 1.178585 1_555
C6 Re6 2.091379 1_555
C6 K6 3.176243 1_555
C6 K7 3.347181 1_545
C7 N7 1.180264 1_555
C7 Re2 2.089683 1_555
C7 K7 3.270457 1_555
Se11 Se15 2.405990 1_465
Se18 Se9 2.405990 1_566
