# generated using pymatgen
data_Zr25Sc6O59
_symmetry_space_group_name_H-M   'P 1'
_cell_length_a   13.08281400
_cell_length_b   13.07842360
_cell_length_c   13.08596620
_cell_angle_alpha   99.87979788
_cell_angle_beta   99.91683037
_cell_angle_gamma   100.04025973
_symmetry_Int_Tables_number   1
_chemical_formula_structural   Zr25Sc6O59
_chemical_formula_sum   'Zr50 Sc12 O118'
_cell_volume   2124.38150928
_cell_formula_units_Z   2
loop_
 _symmetry_equiv_pos_site_id
 _symmetry_equiv_pos_as_xyz
  1  'x, y, z'
loop_
 _atom_site_type_symbol
 _atom_site_label
 _atom_site_symmetry_multiplicity
 _atom_site_fract_x
 _atom_site_fract_y
 _atom_site_fract_z
 _atom_site_occupancy
  Zr  Zr0  1  0.14839200  0.77373000  0.81868300  1
  Zr  Zr1  1  0.08508200  0.38692000  0.82853200  1
  Zr  Zr2  1  0.08841600  0.51127200  0.61547500  1
  Zr  Zr3  1  0.16600300  0.91095100  0.61387100  1
  Zr  Zr4  1  0.03227000  0.11299100  0.60355500  1
  Zr  Zr5  1  0.05516200  0.27654800  0.41888900  1
  Zr  Zr6  1  0.13479700  0.67320600  0.43717800  1
  Zr  Zr7  1  0.08535300  0.44782600  0.23198000  1
  Zr  Zr8  1  0.00892800  0.01993800  0.20401800  1
  Zr  Zr9  1  0.01599500  0.19670600  0.01402600  1
  Zr  Zr10  1  0.17688500  0.84578000  0.22277500  1
  Zr  Zr11  1  0.11115000  0.60807000  0.03949900  1
  Zr  Zr12  1  0.22228700  0.17839100  0.84468200  1
  Zr  Zr13  1  0.39368900  0.95949600  0.88716300  1
  Zr  Zr14  1  0.32574100  0.56304600  0.85942900  1
  Zr  Zr15  1  0.26177300  0.32859100  0.65593200  1
  Zr  Zr16  1  0.34155800  0.73553000  0.67024600  1
  Zr  Zr17  1  0.22768100  0.09019300  0.44685500  1
  Zr  Zr18  1  0.30200800  0.48818400  0.46956900  1
  Zr  Zr19  1  0.38335200  0.90542100  0.48948600  1
  Zr  Zr20  1  0.23441900  0.23699400  0.23773300  1
  Zr  Zr21  1  0.32755200  0.65889500  0.26273600  1
  Zr  Zr22  1  0.27219600  0.41876100  0.06661500  1
  Zr  Zr23  1  0.19426300  0.01092800  0.01823000  1
  Zr  Zr24  1  0.55355200  0.77013400  0.91075100  1
  Zr  Zr25  1  0.49214100  0.38408600  0.90565200  1
  Zr  Zr26  1  0.58532400  0.93506800  0.72451400  1
  Zr  Zr27  1  0.43819600  0.14159400  0.67437500  1
  Zr  Zr28  1  0.51437400  0.53028000  0.69683600  1
  Zr  Zr29  1  0.53304800  0.69567800  0.51180600  1
  Zr  Zr30  1  0.47241700  0.30398700  0.48864900  1
  Zr  Zr31  1  0.49228400  0.47223000  0.30614600  1
  Zr  Zr32  1  0.56408200  0.85979400  0.32524800  1
  Zr  Zr33  1  0.41935200  0.06405100  0.27313500  1
  Zr  Zr34  1  0.51132600  0.61771500  0.09569100  1
  Zr  Zr35  1  0.44693200  0.23108000  0.09098200  1
  Zr  Zr36  1  0.61780500  0.16991000  0.91103200  1
  Zr  Zr37  1  0.80421100  0.98534600  0.97768400  1
  Zr  Zr38  1  0.73126700  0.58334900  0.93368000  1
  Zr  Zr39  1  0.68108900  0.34387500  0.73191000  1
  Zr  Zr40  1  0.77072500  0.76173200  0.76258800  1
  Zr  Zr41  1  0.62298700  0.09546900  0.51058400  1
  Zr  Zr42  1  0.70555500  0.51043000  0.53028700  1
  Zr  Zr43  1  0.77529400  0.91002700  0.55344300  1
  Zr  Zr44  1  0.66509500  0.26375700  0.33132300  1
  Zr  Zr45  1  0.74405400  0.67201400  0.34331700  1
  Zr  Zr46  1  0.67888500  0.43892900  0.14312800  1
  Zr  Zr47  1  0.60941500  0.03962700  0.11643500  1
  Zr  Zr48  1  0.77948700  0.82028000  0.15639000  1
  Zr  Zr49  1  0.88549200  0.39395200  0.96297800  1
  Sc  Sc0  1  0.38285200  0.82836800  0.08744900  1
  Sc  Sc1  1  0.82264800  0.15262400  0.77351100  1
  Sc  Sc2  1  0.97739200  0.80033300  0.98540100  1
  Sc  Sc3  1  0.98405000  0.97800700  0.80034500  1
  Sc  Sc4  1  0.90797500  0.55455700  0.76907300  1
  Sc  Sc5  1  0.85923300  0.32491500  0.56335000  1
  Sc  Sc6  1  0.93370800  0.72345200  0.57840000  1
  Sc  Sc7  1  0.95968600  0.88389100  0.39402900  1
  Sc  Sc8  1  0.83012700  0.08742800  0.38317700  1
  Sc  Sc9  1  0.90386800  0.48815200  0.38327400  1
  Sc  Sc10  1  0.91330600  0.61744400  0.17440000  1
  Sc  Sc11  1  0.84745500  0.22567600  0.18181100  1
  O  O0  1  0.07906500  0.89598100  0.89632300  1
  O  O1  1  0.08877400  0.70859000  0.93564600  1
  O  O2  1  0.06624400  0.82036200  0.68872700  1
  O  O3  1  0.04316800  0.62622700  0.72295600  1
  O  O4  1  0.01405100  0.59971200  0.51022900  1
  O  O5  1  0.05621600  0.79791800  0.48272500  1
  O  O6  1  0.06601500  0.91201400  0.29252100  1
  O  O7  1  0.01633100  0.58480300  0.30500600  1
  O  O8  1  0.03990500  0.71854900  0.12686300  1
  O  O9  1  0.00117400  0.50402700  0.09970000  1
  O  O10  1  0.10053100  0.92341000  0.10510200  1
  O  O11  1  0.10645200  0.10252200  0.92364400  1
  O  O12  1  0.20353800  0.51640500  0.94528200  1
  O  O13  1  0.12805400  0.25346300  0.72740200  1
  O  O14  1  0.17980100  0.31042800  0.93218500  1
  O  O15  1  0.28136000  0.87738300  0.96306200  1
  O  O16  1  0.19903200  0.45823100  0.73850700  1
  O  O17  1  0.27314500  0.87217600  0.74689600  1
  O  O18  1  0.12852300  0.03954200  0.71763300  1
  O  O19  1  0.26168300  0.67918500  0.78731700  1
  O  O20  1  0.09999800  0.00289700  0.50564400  1
  O  O21  1  0.21610800  0.61068300  0.56515700  1
  O  O22  1  0.18545600  0.40504500  0.53753100  1
  O  O23  1  0.15378700  0.20740000  0.53207500  1
  O  O24  1  0.26136700  0.80195000  0.54299700  1
  O  O25  1  0.21449900  0.74059700  0.32281900  1
  O  O26  1  0.12550700  0.13340300  0.32737800  1
  O  O27  1  0.20564700  0.54797000  0.35788000  1
  O  O28  1  0.28067300  0.95918000  0.37410300  1
  O  O29  1  0.16736300  0.34263200  0.33057500  1
  O  O30  1  0.13505100  0.32947300  0.12347800  1
  O  O31  1  0.12298100  0.12449700  0.12369600  1
  O  O32  1  0.20605200  0.53293000  0.15302000  1
  O  O33  1  0.25303900  0.72628800  0.12827600  1
  O  O34  1  0.30905400  0.93296200  0.17882400  1
  O  O35  1  0.29299800  0.06542100  0.91054900  1
  O  O36  1  0.41539700  0.69346000  0.98540000  1
  O  O37  1  0.39995100  0.49022600  0.98653300  1
  O  O38  1  0.37313200  0.27973600  0.95844500  1
  O  O39  1  0.32262700  0.21372900  0.73942500  1
  O  O40  1  0.49565900  0.90015300  0.99807800  1
  O  O41  1  0.38905500  0.43472600  0.78478600  1
  O  O42  1  0.46756300  0.84637900  0.79297200  1
  O  O43  1  0.45175300  0.64203200  0.79411100  1
  O  O44  1  0.30615500  0.01389500  0.58561700  1
  O  O45  1  0.41348800  0.61116600  0.58887700  1
  O  O46  1  0.38897000  0.41122200  0.58665300  1
  O  O47  1  0.46269800  0.81455000  0.59566300  1
  O  O48  1  0.35732200  0.20468600  0.54710500  1
  O  O49  1  0.43442200  0.78467500  0.38902700  1
  O  O50  1  0.32964700  0.16633400  0.34168200  1
  O  O51  1  0.41130800  0.58664900  0.38869300  1
  O  O52  1  0.38239400  0.38289600  0.38287300  1
  O  O53  1  0.49058400  0.98718800  0.40125600  1
  O  O54  1  0.34178700  0.32861000  0.16609600  1
  O  O55  1  0.40287300  0.53566200  0.18467400  1
  O  O56  1  0.32804700  0.12324600  0.13308000  1
  O  O57  1  0.45702400  0.73776400  0.19834300  1
  O  O58  1  0.51795700  0.94755300  0.20545900  1
  O  O59  1  0.48325100  0.05488600  0.79691300  1
  O  O60  1  0.54180200  0.26133000  0.80175700  1
  O  O61  1  0.67004800  0.87795900  0.86718800  1
  O  O62  1  0.59648300  0.46488300  0.81580800  1
  O  O63  1  0.65589200  0.67089000  0.83231100  1
  O  O64  1  0.50878800  0.01356000  0.60033300  1
  O  O65  1  0.61653200  0.61587800  0.61669300  1
  O  O66  1  0.58784800  0.41286700  0.61161700  1
  O  O67  1  0.66868000  0.83038900  0.65774900  1
  O  O68  1  0.56361800  0.21558700  0.60950300  1
  O  O69  1  0.64126000  0.79646900  0.45366700  1
  O  O70  1  0.53665400  0.18515300  0.40336800  1
  O  O71  1  0.61101600  0.58940200  0.41427500  1
  O  O72  1  0.58529400  0.38904200  0.41106000  1
  O  O73  1  0.69333400  0.98590400  0.41385700  1
  O  O74  1  0.54621900  0.35952000  0.20351600  1
  O  O75  1  0.53130500  0.15428300  0.20612500  1
  O  O76  1  0.61024100  0.56519700  0.21675700  1
  O  O77  1  0.50460500  0.09966000  0.00225800  1
  O  O78  1  0.67602200  0.78650700  0.25895500  1
  O  O79  1  0.62636800  0.72058100  0.04155600  1
  O  O80  1  0.59935800  0.50997200  0.01449300  1
  O  O81  1  0.58493500  0.30544300  0.01405600  1
  O  O82  1  0.70836000  0.93457100  0.08896100  1
  O  O83  1  0.68987900  0.06631900  0.82032100  1
  O  O84  1  0.74633300  0.27479900  0.87405900  1
  O  O85  1  0.79553400  0.46814600  0.84636300  1
  O  O86  1  0.87552600  0.87756100  0.87698900  1
  O  O87  1  0.86250200  0.67225900  0.87558300  1
  O  O88  1  0.83157200  0.65473100  0.66781400  1
  O  O89  1  0.71647200  0.03728100  0.62621900  1
  O  O90  1  0.79146300  0.44797900  0.64381200  1
  O  O91  1  0.87415600  0.86568900  0.67394000  1
  O  O92  1  0.78417800  0.25728400  0.67740600  1
  O  O93  1  0.73958000  0.19791200  0.45780800  1
  O  O94  1  0.84527500  0.79397300  0.46625700  1
  O  O95  1  0.81539900  0.59700700  0.46323300  1
  O  O96  1  0.78218300  0.39105700  0.43472800  1
  O  O97  1  0.89956400  0.99849900  0.49539100  1
  O  O98  1  0.73860900  0.32150000  0.21269100  1
  O  O99  1  0.87725300  0.96155400  0.27862100  1
  O  O100  1  0.72578600  0.12829100  0.25306900  1
  O  O101  1  0.80262000  0.54343200  0.26167100  1
  O  O102  1  0.71664700  0.12234600  0.03439700  1
  O  O103  1  0.82049000  0.68928500  0.06827300  1
  O  O104  1  0.87040700  0.74735900  0.27252200  1
  O  O105  1  0.79421600  0.48101200  0.05190600  1
  O  O106  1  0.89471600  0.89835700  0.07643500  1
  O  O107  1  0.89737000  0.08057800  0.89698000  1
  O  O108  1  0.99868000  0.49520000  0.90177200  1
  O  O109  1  0.96570900  0.28302000  0.87742700  1
  O  O110  1  0.98719500  0.41336500  0.69336000  1
  O  O111  1  0.93549500  0.08803600  0.70837700  1
  O  O112  1  0.94858700  0.20543700  0.51635100  1
  O  O113  1  0.98516800  0.39983900  0.48975900  1
  O  O114  1  0.96110600  0.37104500  0.28257600  1
  O  O115  1  0.93460000  0.17474900  0.30809400  1
  O  O116  1  0.91197800  0.29195700  0.06519100  1
  O  O117  1  0.92174400  0.10481000  0.10131200  1
loop_
_geom_bond_atom_site_label_1
_geom_bond_atom_site_label_2
_geom_bond_distance
_geom_bond_site_symmetry_2
O0 Zr23 2.152946 1_566
O0 Sc3 2.159417 1_455
O0 Zr0 2.162590 1_555
O0 Sc2 2.268749 1_455
O1 Zr11 2.066682 1_556
O1 Zr0 2.074550 1_555
O1 Sc2 2.157618 1_455
O2 Zr3 2.089501 1_555
O2 Zr0 2.091400 1_555
O2 Sc6 2.107333 1_455
O3 Sc4 2.086816 1_455
O3 Zr2 2.111969 1_555
O3 Zr0 2.199213 1_555
O4 Sc9 2.139323 1_455
O4 Zr6 2.153872 1_555
O4 Zr2 2.158405 1_555
O4 Sc6 2.222678 1_455
O5 Zr6 2.129450 1_555
O5 Sc7 2.155083 1_455
O5 Zr3 2.175691 1_555
O5 Sc6 2.376997 1_455
O6 Zr10 2.076074 1_555
O6 Sc7 2.112005 1_455
O6 Zr8 2.126494 1_565
O7 Zr6 2.120374 1_555
O7 Sc10 2.139520 1_455
O7 Sc9 2.264172 1_455
O7 Zr7 2.282912 1_555
O8 Zr11 2.129145 1_555
O8 Sc10 2.179949 1_455
O8 Zr10 2.241541 1_555
O8 Sc2 2.388047 1_454
O9 Zr11 2.148934 1_555
O9 Zr7 2.193572 1_555
O9 Sc10 2.227396 1_455
O9 Zr49 2.233336 1_454
O10 Zr23 2.131538 1_565
O10 Zr10 2.181773 1_555
O10 Sc2 2.236366 1_454
O10 Zr8 2.281783 1_565
O11 Zr12 2.171570 1_555
O11 Zr23 2.187615 1_556
O11 Zr9 2.192508 1_556
O11 Sc3 2.262455 1_445
O12 Zr14 2.168893 1_555
O12 Zr11 2.220260 1_556
O12 Zr1 2.232752 1_555
O12 Zr22 2.358634 1_556
O13 Zr1 2.218018 1_555
O13 Zr4 2.246778 1_555
O13 Zr12 2.264215 1_555
O13 Zr15 2.275992 1_555
O14 Zr22 2.092431 1_556
O14 Zr12 2.115994 1_555
O14 Zr1 2.166833 1_555
O15 Zr13 2.148929 1_555
O15 Sc0 2.175752 1_556
O15 Zr23 2.326934 1_566
O15 Zr0 2.366485 1_555
O16 Zr14 2.165836 1_555
O16 Zr15 2.208649 1_555
O16 Zr1 2.230975 1_555
O16 Zr2 2.257956 1_555
O17 Zr13 2.194559 1_555
O17 Zr3 2.227683 1_555
O17 Zr16 2.291890 1_555
O17 Zr0 2.326894 1_555
O18 Zr3 2.155390 1_545
O18 Zr4 2.236824 1_555
O18 Zr12 2.247500 1_555
O18 Sc3 2.421755 1_445
O19 Zr14 2.136177 1_555
O19 Zr0 2.137433 1_555
O19 Zr16 2.156926 1_555
O20 Zr4 2.168582 1_555
O20 Zr3 2.173189 1_545
O20 Zr17 2.182836 1_555
O20 Sc7 2.285966 1_445
O21 Zr6 2.182793 1_555
O21 Zr16 2.183693 1_555
O21 Zr2 2.197743 1_555
O21 Zr18 2.412175 1_555
O22 Zr18 2.125829 1_555
O22 Zr15 2.178118 1_555
O22 Zr2 2.270893 1_555
O22 Zr5 2.309666 1_555
O23 Zr15 2.164259 1_555
O23 Zr17 2.197586 1_555
O23 Zr5 2.210150 1_555
O23 Zr4 2.269579 1_555
O24 Zr19 2.196721 1_555
O24 Zr16 2.200110 1_555
O24 Zr6 2.220922 1_555
O24 Zr3 2.239190 1_555
O25 Zr10 2.116742 1_555
O25 Zr21 2.147286 1_555
O25 Zr6 2.184775 1_555
O26 Zr17 2.096993 1_555
O26 Zr8 2.162161 1_555
O26 Zr20 2.385359 1_555
O26 Zr5 2.448840 1_555
O27 Zr18 2.106670 1_555
O27 Zr7 2.134069 1_555
O27 Zr6 2.212707 1_555
O27 Zr21 2.587540 1_555
O28 Zr17 2.098725 1_565
O28 Zr19 2.138610 1_555
O28 Zr10 2.308376 1_555
O29 Zr20 2.090011 1_555
O29 Zr5 2.173017 1_555
O29 Zr7 2.314209 1_555
O29 Zr18 2.563982 1_555
O30 Zr7 2.179297 1_555
O30 Zr9 2.219834 1_555
O30 Zr22 2.272469 1_555
O30 Zr20 2.426443 1_555
O31 Zr20 2.065524 1_555
O31 Zr9 2.268189 1_555
O31 Zr23 2.281094 1_555
O31 Zr8 2.350150 1_555
O32 Zr22 2.113049 1_555
O32 Zr21 2.188888 1_555
O32 Zr11 2.237226 1_555
O32 Zr7 2.267993 1_555
O33 Sc0 2.172276 1_555
O33 Zr11 2.196826 1_555
O33 Zr21 2.250362 1_555
O33 Zr10 2.295247 1_555
O34 Zr33 2.083887 1_565
O34 Zr10 2.121537 1_555
O34 Sc0 2.128378 1_555
O35 Zr13 2.092324 1_545
O35 Zr12 2.102522 1_555
O35 Zr23 2.193775 1_556
O36 Zr14 2.161924 1_555
O36 Sc0 2.174142 1_556
O36 Zr34 2.222537 1_556
O36 Zr24 2.353513 1_555
O37 Zr34 2.135955 1_556
O37 Zr14 2.219434 1_555
O37 Zr25 2.240790 1_555
O37 Zr22 2.271573 1_556
O38 Zr35 2.088393 1_556
O38 Zr25 2.171881 1_555
O38 Zr12 2.294889 1_555
O39 Zr12 2.112760 1_555
O39 Zr27 2.136766 1_555
O39 Zr15 2.182858 1_555
O40 Zr13 2.137605 1_555
O40 Zr24 2.202595 1_555
O40 Sc0 2.217070 1_556
O40 Zr47 2.287149 1_566
O41 Zr14 2.158125 1_555
O41 Zr25 2.166865 1_555
O41 Zr15 2.228589 1_555
O41 Zr28 2.450197 1_555
O42 Zr26 2.174943 1_555
O42 Zr16 2.203249 1_555
O42 Zr13 2.219245 1_555
O42 Zr24 2.226366 1_555
O43 Zr24 2.134157 1_555
O43 Zr28 2.136801 1_555
O43 Zr14 2.170280 1_555
O43 Zr16 2.586678 1_555
O44 Zr27 2.181677 1_555
O44 Zr3 2.203391 1_545
O44 Zr19 2.222583 1_545
O44 Zr17 2.384092 1_555
O45 Zr18 2.165106 1_555
O45 Zr16 2.224705 1_555
O45 Zr29 2.237983 1_555
O45 Zr28 2.283514 1_555
O46 Zr28 2.172370 1_555
O46 Zr18 2.232290 1_555
O46 Zr15 2.233331 1_555
O46 Zr30 2.280877 1_555
O47 Zr29 2.174760 1_555
O47 Zr16 2.200036 1_555
O47 Zr19 2.218229 1_555
O47 Zr26 2.275028 1_555
O48 Zr17 2.124572 1_555
O48 Zr30 2.143572 1_555
O48 Zr27 2.177874 1_555
O48 Zr15 2.596963 1_555
O49 Zr19 2.150904 1_555
O49 Zr32 2.174209 1_555
O49 Zr21 2.204848 1_555
O49 Zr29 2.460167 1_555
O50 Zr33 2.114144 1_555
O50 Zr20 2.122637 1_555
O50 Zr17 2.303229 1_555
O50 Zr30 2.613546 1_555
O51 Zr29 2.168282 1_555
O51 Zr31 2.218255 1_555
O51 Zr21 2.254686 1_555
O51 Zr18 2.273780 1_555
O52 Zr18 2.160799 1_555
O52 Zr30 2.172693 1_555
O52 Zr31 2.180393 1_555
O52 Zr20 2.682920 1_555
O53 Zr41 2.156066 1_565
O53 Zr19 2.214326 1_555
O53 Zr32 2.238120 1_555
O53 Zr33 2.248728 1_565
O54 Zr22 2.099165 1_555
O54 Zr20 2.130663 1_555
O54 Zr35 2.265545 1_555
O54 Zr31 2.655150 1_555
O55 Zr31 2.175715 1_555
O55 Zr21 2.224319 1_555
O55 Zr34 2.233305 1_555
O55 Zr22 2.239505 1_555
O56 Zr35 2.123310 1_555
O56 Zr23 2.218083 1_555
O56 Zr33 2.332493 1_555
O56 Zr20 2.470434 1_555
O57 Zr34 2.183595 1_555
O57 Zr32 2.185540 1_555
O57 Zr21 2.196325 1_555
O57 Sc0 2.226568 1_555
O58 Zr32 2.161433 1_555
O58 Zr47 2.167488 1_565
O58 Sc0 2.282947 1_555
O58 Zr33 2.320704 1_565
O59 Zr27 2.176289 1_555
O59 Zr13 2.190125 1_545
O59 Zr36 2.234325 1_555
O59 Zr26 2.406747 1_545
O60 Zr27 2.157312 1_555
O60 Zr25 2.183332 1_555
O60 Zr36 2.230367 1_555
O60 Zr39 2.355394 1_555
O61 Zr24 2.112386 1_555
O61 Zr37 2.171055 1_555
O61 Zr26 2.307955 1_555
O61 Zr40 2.554237 1_555
O62 Zr28 2.123805 1_555
O62 Zr25 2.199657 1_555
O62 Zr38 2.275864 1_555
O62 Zr39 2.316953 1_555
O63 Zr38 2.122999 1_555
O63 Zr40 2.173189 1_555
O63 Zr24 2.270038 1_555
O63 Zr28 2.552659 1_555
O64 Zr19 2.112861 1_545
O64 Zr27 2.210494 1_555
O64 Zr26 2.251122 1_545
O64 Zr41 2.288477 1_555
O65 Zr28 2.122116 1_555
O65 Zr29 2.130424 1_555
O65 Zr42 2.239504 1_555
O65 Zr40 2.726730 1_555
O66 Zr30 2.127095 1_555
O66 Zr28 2.195872 1_555
O66 Zr39 2.233821 1_555
O66 Zr42 2.340427 1_555
O67 Zr26 2.065218 1_555
O67 Zr40 2.163474 1_555
O67 Zr43 2.351689 1_555
O67 Zr29 2.547163 1_555
O68 Zr27 2.134856 1_555
O68 Zr41 2.195611 1_555
O68 Zr39 2.252439 1_555
O68 Zr30 2.391629 1_555
O69 Zr29 2.094072 1_555
O69 Zr43 2.150179 1_555
O69 Zr32 2.171216 1_555
O69 Zr45 2.677444 1_555
O70 Zr30 2.133162 1_555
O70 Zr44 2.246156 1_555
O70 Zr33 2.256857 1_555
O70 Zr41 2.258492 1_555
O71 Zr31 2.105284 1_555
O71 Zr29 2.221551 1_555
O71 Zr42 2.288660 1_555
O71 Zr45 2.303080 1_555
O72 Zr30 2.186394 1_555
O72 Zr42 2.205356 1_555
O72 Zr31 2.224406 1_555
O72 Zr44 2.290962 1_555
O73 Zr32 2.149441 1_555
O73 Sc8 2.174588 1_565
O73 Zr41 2.177420 1_565
O73 Zr43 2.406134 1_555
O74 Zr35 2.099769 1_555
O74 Zr31 2.117590 1_555
O74 Zr46 2.200238 1_555
O74 Zr44 2.699366 1_555
O75 Zr33 2.121697 1_555
O75 Zr35 2.197860 1_555
O75 Zr47 2.239157 1_555
O75 Zr44 2.265232 1_555
O76 Zr34 2.152558 1_555
O76 Zr46 2.175099 1_555
O76 Zr45 2.261391 1_555
O76 Zr31 2.384050 1_555
O77 Zr47 2.191192 1_555
O77 Zr35 2.222746 1_555
O77 Zr36 2.230115 1_554
O77 Zr13 2.259804 1_544
O78 Zr48 2.109382 1_555
O78 Zr32 2.111321 1_555
O78 Zr45 2.224100 1_555
O79 Zr24 2.071657 1_554
O79 Zr34 2.136648 1_555
O79 Zr48 2.313274 1_555
O80 Zr25 2.099690 1_554
O80 Zr34 2.216891 1_555
O80 Zr46 2.247194 1_555
O80 Zr38 2.327415 1_554
O81 Zr36 2.188575 1_554
O81 Zr25 2.210636 1_554
O81 Zr46 2.221759 1_555
O81 Zr35 2.359795 1_555
O82 Zr47 2.074526 1_565
O82 Zr48 2.129211 1_555
O82 Zr37 2.191881 1_554
O83 Zr26 2.059503 1_545
O83 Zr36 2.100659 1_555
O83 Sc1 2.141618 1_555
O84 Zr36 2.155699 1_555
O84 Zr49 2.180769 1_555
O84 Zr39 2.302950 1_555
O84 Sc1 2.359765 1_555
O85 Zr38 2.112920 1_555
O85 Zr39 2.161078 1_555
O85 Sc4 2.188411 1_555
O85 Zr49 2.223316 1_555
O86 Zr40 2.050954 1_555
O86 Zr37 2.199671 1_555
O86 Sc3 2.244945 1_555
O86 Sc2 2.262454 1_555
O87 Sc4 2.129514 1_555
O87 Sc2 2.163838 1_555
O87 Zr38 2.221432 1_555
O87 Zr40 2.338701 1_555
O88 Zr40 2.064715 1_555
O88 Sc6 2.107838 1_555
O88 Sc4 2.251110 1_555
O88 Zr42 2.499234 1_555
O89 Zr43 2.103358 1_545
O89 Zr41 2.108788 1_555
O89 Sc1 2.295566 1_555
O89 Zr26 2.633615 1_545
O90 Zr42 2.073310 1_555
O90 Sc4 2.137227 1_555
O90 Sc5 2.173189 1_555
O90 Zr39 2.386302 1_555
O91 Zr43 2.090047 1_555
O91 Sc3 2.138139 1_555
O91 Zr40 2.337880 1_555
O91 Sc6 2.381873 1_555
O92 Zr39 2.048631 1_555
O92 Sc1 2.078806 1_555
O92 Sc5 2.151553 1_555
O93 Zr41 2.136945 1_555
O93 Zr44 2.158001 1_555
O93 Sc5 2.162952 1_555
O93 Sc8 2.226217 1_555
O94 Zr45 2.129578 1_555
O94 Sc6 2.143472 1_555
O94 Zr43 2.166497 1_555
O94 Sc7 2.184427 1_555
O95 Zr42 2.079689 1_555
O95 Zr45 2.153832 1_555
O95 Sc6 2.202391 1_555
O95 Sc9 2.223001 1_555
O96 Sc9 2.134954 1_555
O96 Zr44 2.138480 1_555
O96 Sc5 2.194690 1_555
O96 Zr42 2.305143 1_555
O97 Zr43 2.151803 1_555
O97 Sc7 2.170928 1_555
O97 Zr4 2.186242 1_665
O97 Sc8 2.197550 1_565
O98 Sc11 2.099608 1_555
O98 Zr46 2.109735 1_555
O98 Zr44 2.137435 1_555
O99 Sc7 2.196102 1_555
O99 Sc8 2.198575 1_565
O99 Zr8 2.209107 1_665
O99 Zr48 2.250633 1_555
O100 Zr47 2.143539 1_555
O100 Sc8 2.194068 1_555
O100 Zr44 2.228433 1_555
O100 Sc11 2.288521 1_555
O101 Zr46 2.128595 1_555
O101 Zr45 2.161299 1_555
O101 Sc10 2.190510 1_555
O101 Sc9 2.193671 1_555
O102 Zr36 2.138068 1_554
O102 Zr47 2.163120 1_555
O102 Zr37 2.371857 1_544
O102 Sc11 2.374474 1_555
O103 Zr38 2.067554 1_554
O103 Zr48 2.099538 1_555
O103 Sc10 2.133244 1_555
O104 Sc10 2.163940 1_555
O104 Sc7 2.177089 1_555
O104 Zr45 2.198777 1_555
O104 Zr48 2.214537 1_555
O105 Zr46 2.135610 1_555
O105 Zr49 2.138848 1_554
O105 Sc10 2.317249 1_555
O105 Zr38 2.349285 1_554
O106 Sc2 2.153092 1_554
O106 Zr48 2.187052 1_555
O106 Zr37 2.193949 1_554
O106 Zr8 2.224802 1_665
O107 Zr37 2.125421 1_545
O107 Zr9 2.149955 1_656
O107 Sc1 2.180271 1_555
O107 Sc3 2.264262 1_545
O108 Zr1 2.160395 1_655
O108 Zr49 2.162521 1_555
O108 Zr11 2.237999 1_656
O108 Sc4 2.258382 1_555
O109 Zr1 2.144170 1_655
O109 Zr49 2.199491 1_555
O109 Zr9 2.334251 1_656
O109 Sc1 2.339899 1_555
O110 Zr1 2.114861 1_655
O110 Sc5 2.168778 1_555
O110 Zr2 2.180253 1_655
O110 Sc4 2.420495 1_555
O111 Zr4 2.049093 1_655
O111 Sc1 2.059330 1_555
O111 Sc3 2.138308 1_545
O112 Zr4 2.113601 1_655
O112 Sc5 2.177444 1_555
O112 Zr5 2.236742 1_655
O112 Sc8 2.265749 1_555
O113 Zr2 2.092932 1_655
O113 Zr5 2.143084 1_655
O113 Sc9 2.208440 1_555
O113 Sc5 2.215738 1_555
O114 Zr7 2.029458 1_655
O114 Sc9 2.165662 1_555
O114 Sc11 2.245622 1_555
O114 Zr5 2.598883 1_655
O115 Zr5 2.044551 1_655
O115 Sc8 2.107386 1_555
O115 Sc11 2.113732 1_555
O115 Zr8 2.663870 1_655
O116 Zr49 2.074201 1_554
O116 Sc11 2.106058 1_555
O116 Zr9 2.114406 1_655
O117 Zr9 2.170036 1_655
O117 Zr8 2.182845 1_655
O117 Zr37 2.204733 1_544
O117 Sc11 2.206787 1_555
