# generated using pymatgen
data_La3SiAgSe7
_symmetry_space_group_name_H-M   'P 1'
_cell_length_a   10.91615118
_cell_length_b   10.91615118
_cell_length_c   6.12578400
_cell_angle_alpha   90.00000000
_cell_angle_beta   90.00000000
_cell_angle_gamma   119.99999505
_symmetry_Int_Tables_number   1
_chemical_formula_structural   La3SiAgSe7
_chemical_formula_sum   'La6 Si2 Ag2 Se14'
_cell_volume   632.16641018
_cell_formula_units_Z   2
loop_
 _symmetry_equiv_pos_site_id
 _symmetry_equiv_pos_as_xyz
  1  'x, y, z'
loop_
 _atom_site_type_symbol
 _atom_site_label
 _atom_site_symmetry_multiplicity
 _atom_site_fract_x
 _atom_site_fract_y
 _atom_site_fract_z
 _atom_site_occupancy
  La  La0  1  0.12466100  0.35723600  0.74018300  1
  La  La1  1  0.76742400  0.12466100  0.24018300  1
  La  La2  1  0.35723600  0.23257600  0.24018300  1
  La  La3  1  0.64276400  0.76742400  0.74018300  1
  La  La4  1  0.23257600  0.87533900  0.74018300  1
  La  La5  1  0.87533900  0.64276400  0.24018300  1
  Si  Si0  1  0.33333300  0.66666700  0.32993300  1
  Si  Si1  1  0.66666700  0.33333300  0.82993300  1
  Ag  Ag0  1  0.00000000  0.00000000  0.19381700  1
  Ag  Ag1  1  0.00000000  0.00000000  0.69381700  1
  Se  Se0  1  0.52314300  0.11127500  0.97739200  1
  Se  Se1  1  0.47685700  0.88872500  0.47739200  1
  Se  Se2  1  0.11127500  0.58813100  0.47739200  1
  Se  Se3  1  0.58813100  0.47685700  0.97739200  1
  Se  Se4  1  0.09251600  0.26777400  0.22615400  1
  Se  Se5  1  0.82474100  0.09251600  0.72615400  1
  Se  Se6  1  0.41186900  0.52314300  0.47739200  1
  Se  Se7  1  0.88872500  0.41186900  0.97739200  1
  Se  Se8  1  0.33333300  0.66666700  0.95891100  1
  Se  Se9  1  0.66666700  0.33333300  0.45891100  1
  Se  Se10  1  0.90748400  0.73222600  0.72615400  1
  Se  Se11  1  0.17525900  0.90748400  0.22615400  1
  Se  Se12  1  0.73222600  0.82474100  0.22615400  1
  Se  Se13  1  0.26777400  0.17525900  0.72615400  1
loop_
_geom_bond_atom_site_label_1
_geom_bond_atom_site_label_2
_geom_bond_distance
_geom_bond_site_symmetry_2
La0 Se2 3.055152 1_555
La0 Se13 3.081802 1_555
La0 Se4 3.097807 1_556
La0 Se5 3.100953 1_455
La0 Se6 3.165892 1_555
La0 Se7 3.261350 1_455
La0 Se4 3.263325 1_555
La0 Se8 3.270982 1_555
La1 Se0 3.055152 1_554
La1 Se4 3.081822 1_655
La1 Se5 3.097807 1_555
La1 Se12 3.100961 1_545
La1 Se7 3.165892 1_554
La1 Se1 3.261337 1_545
La1 Se5 3.263325 1_554
La1 Se9 3.270967 1_555
La2 Se3 3.055153 1_554
La2 Se11 3.081820 1_545
La2 Se13 3.097807 1_555
La2 Se4 3.100940 1_555
La2 Se0 3.165892 1_554
La2 Se6 3.261331 1_555
La2 Se13 3.263325 1_554
La2 Se9 3.270986 1_555
La3 Se6 3.055153 1_555
La3 Se5 3.081820 1_565
La3 Se12 3.097807 1_556
La3 Se10 3.100940 1_555
La3 Se1 3.165892 1_555
La3 Se3 3.261331 1_555
La3 Se12 3.263325 1_555
La3 Se8 3.270986 1_555
La4 Se1 3.055152 1_555
La4 Se10 3.081822 1_455
La4 Se11 3.097807 1_556
La4 Se13 3.100961 1_565
La4 Se2 3.165892 1_555
La4 Se0 3.261337 1_565
La4 Se11 3.263325 1_555
La4 Se8 3.270967 1_555
La5 Se7 3.055152 1_554
La5 Se12 3.081802 1_555
La5 Se10 3.097807 1_555
La5 Se11 3.100953 1_655
La5 Se3 3.165892 1_554
La5 Se2 3.261350 1_655
La5 Se10 3.263325 1_554
La5 Se9 3.270982 1_555
Ag0 Se4 2.579033 1_555
Ag0 Se12 2.579035 1_445
Ag0 Se11 2.579043 1_545
Ag1 Se10 2.579033 1_445
Ag1 Se13 2.579035 1_555
Ag1 Se5 2.579043 1_455
Se0 Si1 2.312722 1_555
Se1 Si0 2.312722 1_555
Se2 Si0 2.312718 1_555
Se3 Si1 2.312737 1_555
Se6 Si0 2.312737 1_555
Se7 Si1 2.312718 1_555
Se8 Si0 2.272801 1_556
Se9 Si1 2.272801 1_555
